drugbank_drug|DB00109 DB00109 sequence
 OpenBabel12092119123D

609617  0  0  0  0  0  0  0  0999 V2000
   -0.9080    1.9825   -0.1171 H   0  0  0  0  0 15  0  0  0  0  0  0
    0.0000    1.5760    0.0000 N   0  0  0  0  0 15  0  0  0  0  0  0
    1.2300    1.9457    0.6948 C   0  0  0  0  0 15  0  0  0  0  0  0
    1.6380    0.8733    1.6784 C   0  0  0  0  0 15  0  0  0  0  0  0
    0.9810   -0.1563    1.8303 O   0  0  0  0  0 15  0  0  0  0  0  0
    1.0430    3.2752    1.4823 C   0  0  0  0  0 15  0  0  0  0  0  0
    0.7070    4.5220    0.6603 C   0  0  0  0  0 15  0  0  0  0  0  0
    1.7040    5.1987   -0.0520 C   0  0  0  0  0 15  0  0  0  0  0  0
   -0.6110    4.9863    0.6063 C   0  0  0  0  0 15  0  0  0  0  0  0
    1.3830    6.3227   -0.8073 C   0  0  0  0  0 15  0  0  0  0  0  0
   -0.9300    6.1091   -0.1528 C   0  0  0  0  0 15  0  0  0  0  0  0
    0.0680    6.7759   -0.8583 C   0  0  0  0  0 15  0  0  0  0  0  0
   -0.2440    7.8772   -1.6050 O   0  0  0  0  0 15  0  0  0  0  0  0
   -0.5120    0.6462    0.1985 H   0  0  0  0  0 15  0  0  0  0  0  0
    2.0420    2.0535   -0.0472 H   0  0  0  0  0 15  0  0  0  0  0  0
    0.2720    3.1315    2.2688 H   0  0  0  0  0 15  0  0  0  0  0  0
    1.9610    3.4960    2.0625 H   0  0  0  0  0 15  0  0  0  0  0  0
    2.7270    4.8500   -0.0194 H   0  0  0  0  0 15  0  0  0  0  0  0
   -1.3940    4.4655    1.1450 H   0  0  0  0  0 15  0  0  0  0  0  0
    2.1500    6.8424   -1.3586 H   0  0  0  0  0 15  0  0  0  0  0  0
   -1.9530    6.4523   -0.1872 H   0  0  0  0  0 15  0  0  0  0  0  0
   -1.1850    8.0423   -1.5217 H   0  0  0  0  0 15  0  0  0  0  0  0
    1.4781   -0.2728    1.5522 N   0  0  0  0  0 15  0  0  0  0  0  0
    2.7061   -1.0226    1.7987 C   0  0  0  0  0 15  0  0  0  0  0  0
    3.1211   -1.7992    0.5721 C   0  0  0  0  0 15  0  0  0  0  0  0
    2.4781   -1.7664   -0.4588 O   0  0  0  0  0 15  0  0  0  0  0  0
    2.5291   -1.9809    3.0239 C   0  0  0  0  0 15  0  0  0  0  0  0
    2.2501   -1.2357    4.2031 O   0  0  0  0  0 15  0  0  0  0  0  0
    3.7511   -2.8488    3.3964 C   0  0  0  0  0 15  0  0  0  0  0  0
    0.9711   -0.3021    0.5992 H   0  0  0  0  0 15  0  0  0  0  0  0
    3.5151   -0.3035    2.0224 H   0  0  0  0  0 15  0  0  0  0  0  0
    1.6701   -2.6546    2.8215 H   0  0  0  0  0 15  0  0  0  0  0  0
    2.0841   -1.8817    4.8958 H   0  0  0  0  0 15  0  0  0  0  0  0
    3.5581   -3.4793    4.2854 H   0  0  0  0  0 15  0  0  0  0  0  0
    4.0351   -3.5466    2.5905 H   0  0  0  0  0 15  0  0  0  0  0  0
    4.6411   -2.2300    3.6215 H   0  0  0  0  0 15  0  0  0  0  0  0
    2.9562   -1.4816   -0.5373 N   0  0  0  0  0 15  0  0  0  0  0  0
    4.1812   -1.5971   -1.3232 C   0  0  0  0  0 15  0  0  0  0  0  0
    4.6062   -0.2549   -1.8637 C   0  0  0  0  0 15  0  0  0  0  0  0
    3.9642    0.7724   -1.6402 O   0  0  0  0  0 15  0  0  0  0  0  0
    4.0122   -2.6412   -2.4551 C   0  0  0  0  0 15  0  0  0  0  0  0
    3.1162   -2.2077   -3.4833 O   0  0  0  0  0 15  0  0  0  0  0  0
    2.4572   -0.5358   -0.3922 H   0  0  0  0  0 15  0  0  0  0  0  0
    4.9872   -1.9409   -0.6473 H   0  0  0  0  0 15  0  0  0  0  0  0
    4.9972   -2.8517   -2.9180 H   0  0  0  0  0 15  0  0  0  0  0  0
    3.6722   -3.6157   -2.0553 H   0  0  0  0  0 15  0  0  0  0  0  0
    2.2492   -2.0991   -3.0821 H   0  0  0  0  0 15  0  0  0  0  0  0
    4.4343    0.7856   -1.3662 N   0  0  0  0  0 15  0  0  0  0  0  0
    5.3643    1.9126   -1.3395 C   0  0  0  0  0 15  0  0  0  0  0  0
    6.3453    1.6879   -0.2103 C   0  0  0  0  0 15  0  0  0  0  0  0
    7.5303    1.8985   -0.4086 O   0  0  0  0  0 15  0  0  0  0  0  0
    4.6603    3.2834   -1.1319 C   0  0  0  0  0 15  0  0  0  0  0  0
    3.6143    3.6533   -2.2297 C   0  0  0  0  0 15  0  0  0  0  0  0
    2.9403    5.0081   -1.8734 C   0  0  0  0  0 15  0  0  0  0  0  0
    4.2403    3.7352   -3.6508 C   0  0  0  0  0 15  0  0  0  0  0  0
    5.9343    1.9375   -2.2825 H   0  0  0  0  0 15  0  0  0  0  0  0
    3.4803    0.9308   -1.0987 H   0  0  0  0  0 15  0  0  0  0  0  0
    5.4333    4.0680   -1.0995 H   0  0  0  0  0 15  0  0  0  0  0  0
    4.1573    3.2624   -0.1533 H   0  0  0  0  0 15  0  0  0  0  0  0
    2.8163    2.8917   -2.2534 H   0  0  0  0  0 15  0  0  0  0  0  0
    2.4643    4.9523   -0.8805 H   0  0  0  0  0 15  0  0  0  0  0  0
    2.1643    5.2653   -2.6085 H   0  0  0  0  0 15  0  0  0  0  0  0
    3.6883    5.8169   -1.8567 H   0  0  0  0  0 15  0  0  0  0  0  0
    5.1023    4.4217   -3.6491 H   0  0  0  0  0 15  0  0  0  0  0  0
    3.4993    4.1073   -4.3752 H   0  0  0  0  0 15  0  0  0  0  0  0
    4.5693    2.7453   -3.9970 H   0  0  0  0  0 15  0  0  0  0  0  0
    5.9124    1.2097    1.0102 N   0  0  0  0  0 15  0  0  0  0  0  0
    7.1614    1.0180    1.7413 C   0  0  0  0  0 15  0  0  0  0  0  0
    7.4744   -0.4497    1.9036 C   0  0  0  0  0 15  0  0  0  0  0  0
    8.6804   -0.7607    2.6063 O   0  0  0  0  0 15  0  0  0  0  0  0
    7.1364    1.7727    3.1321 C   0  0  0  0  0 15  0  0  0  0  0  0
    6.7444    3.2817    3.0497 C   0  0  0  0  0 15  0  0  0  0  0  0
    8.4884    1.6649    3.9049 C   0  0  0  0  0 15  0  0  0  0  0  0
    6.3954    3.9616    4.3911 C   0  0  0  0  0 15  0  0  0  0  0  0
    5.3254    0.3773    0.6528 H   0  0  0  0  0 15  0  0  0  0  0  0
    7.9764    1.4465    1.1291 H   0  0  0  0  0 15  0  0  0  0  0  0
    6.3584    1.2720    3.7501 H   0  0  0  0  0 15  0  0  0  0  0  0
    7.5324    3.8550    2.5244 H   0  0  0  0  0 15  0  0  0  0  0  0
    5.8474    3.3944    2.4119 H   0  0  0  0  0 15  0  0  0  0  0  0
    8.4444    2.1462    4.8974 H   0  0  0  0  0 15  0  0  0  0  0  0
    8.7874    0.6222    4.1162 H   0  0  0  0  0 15  0  0  0  0  0  0
    9.3204    2.1400    3.3533 H   0  0  0  0  0 15  0  0  0  0  0  0
    6.0594    5.0060    4.2317 H   0  0  0  0  0 15  0  0  0  0  0  0
    5.5794    3.4362    4.9162 H   0  0  0  0  0 15  0  0  0  0  0  0
    7.2584    4.0077    5.0793 H   0  0  0  0  0 15  0  0  0  0  0  0
    7.3905   -1.2043    1.0166 N   0  0  0  0  0 15  0  0  0  0  0  0
    8.3405   -2.2108    0.5576 C   0  0  0  0  0 15  0  0  0  0  0  0
    9.3245   -1.5618   -0.3870 C   0  0  0  0  0 15  0  0  0  0  0  0
   10.5165   -1.7575   -0.2100 O   0  0  0  0  0 15  0  0  0  0  0  0
    7.6455   -3.4315   -0.1027 C   0  0  0  0  0 15  0  0  0  0  0  0
    6.7315   -4.1521    0.8637 C   0  0  0  0  0 15  0  0  0  0  0  0
    7.1225   -4.6366    2.0212 N   0  0  0  0  0 15  0  0  0  0  0  0
    5.4205   -4.4072    0.6845 C   0  0  0  0  0 15  0  0  0  0  0  0
    6.1215   -5.1887    2.6297 C   0  0  0  0  0 15  0  0  0  0  0  0
    5.0975   -5.0893    1.9103 N   0  0  0  0  0 15  0  0  0  0  0  0
    8.8995   -2.5620    1.4401 H   0  0  0  0  0 15  0  0  0  0  0  0
    6.4135   -1.3637    0.8819 H   0  0  0  0  0 15  0  0  0  0  0  0
    8.4105   -4.1447   -0.4491 H   0  0  0  0  0 15  0  0  0  0  0  0
    7.0705   -3.0953   -0.9810 H   0  0  0  0  0 15  0  0  0  0  0  0
    8.0815   -4.5888    2.4011 H   0  0  0  0  0 15  0  0  0  0  0  0
    4.7585   -4.1725   -0.1458 H   0  0  0  0  0 15  0  0  0  0  0  0
    6.1485   -5.6673    3.6092 H   0  0  0  0  0 15  0  0  0  0  0  0
    8.8686   -0.7928   -1.3621 N   0  0  0  0  0 15  0  0  0  0  0  0
   10.0936   -0.3777   -2.0393 C   0  0  0  0  0 15  0  0  0  0  0  0
   10.5186    0.9989   -1.5938 C   0  0  0  0  0 15  0  0  0  0  0  0
    9.8766    1.6442   -0.7639 O   0  0  0  0  0 15  0  0  0  0  0  0
    9.9246   -0.4536   -3.5774 C   0  0  0  0  0 15  0  0  0  0  0  0
    9.0286    0.5382   -4.0887 O   0  0  0  0  0 15  0  0  0  0  0  0
    8.3696   -0.1599   -0.6445 H   0  0  0  0  0 15  0  0  0  0  0  0
   10.8996   -1.0749   -1.7409 H   0  0  0  0  0 15  0  0  0  0  0  0
   10.9096   -0.3185   -4.0676 H   0  0  0  0  0 15  0  0  0  0  0  0
    9.5846   -1.4578   -3.8951 H   0  0  0  0  0 15  0  0  0  0  0  0
    8.1616    0.3644   -3.7112 H   0  0  0  0  0 15  0  0  0  0  0  0
   10.3467    1.4787   -0.5451 N   0  0  0  0  0 15  0  0  0  0  0  0
   11.2767    2.3266    0.1978 C   0  0  0  0  0 15  0  0  0  0  0  0
   12.2577    1.4304    0.9205 C   0  0  0  0  0 15  0  0  0  0  0  0
   13.4427    1.7191    0.9033 O   0  0  0  0  0 15  0  0  0  0  0  0
   10.5727    3.2457    1.2358 C   0  0  0  0  0 15  0  0  0  0  0  0
    9.5267    4.2333    0.6303 C   0  0  0  0  0 15  0  0  0  0  0  0
    8.8527    5.0448    1.7721 C   0  0  0  0  0 15  0  0  0  0  0  0
   10.1527    5.2070   -0.4080 C   0  0  0  0  0 15  0  0  0  0  0  0
   11.8467    2.9502   -0.5100 H   0  0  0  0  0 15  0  0  0  0  0  0
    9.3927    1.4187   -0.2467 H   0  0  0  0  0 15  0  0  0  0  0  0
   11.3457    3.8272    1.7636 H   0  0  0  0  0 15  0  0  0  0  0  0
   10.0697    2.6024    1.9734 H   0  0  0  0  0 15  0  0  0  0  0  0
    8.7287    3.6639    0.1239 H   0  0  0  0  0 15  0  0  0  0  0  0
    8.3767    4.3656    2.4985 H   0  0  0  0  0 15  0  0  0  0  0  0
    8.0767    5.7134    1.3728 H   0  0  0  0  0 15  0  0  0  0  0  0
    9.6007    5.6549    2.3034 H   0  0  0  0  0 15  0  0  0  0  0  0
   11.0147    5.7329    0.0333 H   0  0  0  0  0 15  0  0  0  0  0  0
    9.4117    5.9570   -0.7255 H   0  0  0  0  0 15  0  0  0  0  0  0
   10.4817    4.6692   -1.3083 H   0  0  0  0  0 15  0  0  0  0  0  0
   11.8248    0.2810    1.5507 N   0  0  0  0  0 15  0  0  0  0  0  0
   13.0738   -0.3348    1.9890 C   0  0  0  0  0 15  0  0  0  0  0  0
   13.3868   -1.5653    1.1729 C   0  0  0  0  0 15  0  0  0  0  0  0
   14.5928   -2.2544    1.5129 O   0  0  0  0  0 15  0  0  0  0  0  0
   13.0488   -0.6470    3.5404 C   0  0  0  0  0 15  0  0  0  0  0  0
   12.6568    0.5641    4.4443 C   0  0  0  0  0 15  0  0  0  0  0  0
   14.4008   -1.2251    4.0644 C   0  0  0  0  0 15  0  0  0  0  0  0
   12.3078    0.2261    5.9097 C   0  0  0  0  0 15  0  0  0  0  0  0
   11.2378   -0.1289    0.7429 H   0  0  0  0  0 15  0  0  0  0  0  0
   13.8888    0.3866    1.7938 H   0  0  0  0  0 15  0  0  0  0  0  0
   12.2708   -1.4274    3.6938 H   0  0  0  0  0 15  0  0  0  0  0  0
   13.4448    1.3408    4.4086 H   0  0  0  0  0 15  0  0  0  0  0  0
   11.7598    1.0594    4.0270 H   0  0  0  0  0 15  0  0  0  0  0  0
   14.3568   -1.4918    5.1347 H   0  0  0  0  0 15  0  0  0  0  0  0
   14.6998   -2.1609    3.5583 H   0  0  0  0  0 15  0  0  0  0  0  0
   15.2328   -0.5068    3.9456 H   0  0  0  0  0 15  0  0  0  0  0  0
   11.9718    1.1300    6.4569 H   0  0  0  0  0 15  0  0  0  0  0  0
   11.4918   -0.5137    5.9760 H   0  0  0  0  0 15  0  0  0  0  0  0
   13.1708   -0.1795    6.4675 H   0  0  0  0  0 15  0  0  0  0  0  0
   13.3029   -1.5760    0.0084 N   0  0  0  0  0 15  0  0  0  0  0  0
   14.2129   -2.1238   -0.9965 C   0  0  0  0  0 15  0  0  0  0  0  0
   15.2289   -1.0711   -1.3713 C   0  0  0  0  0 15  0  0  0  0  0  0
   16.4049   -1.3905   -1.4569 O   0  0  0  0  0 15  0  0  0  0  0  0
   13.4699   -2.6231   -2.2670 C   0  0  0  0  0 15  0  0  0  0  0  0
   12.5309   -3.8222   -1.9546 C   0  0  0  0  0 15  0  0  0  0  0  0
   11.7639   -4.2976   -3.1645 C   0  0  0  0  0 15  0  0  0  0  0  0
   11.9869   -3.7658   -4.2842 O   0  0  0  0  0 15  0  0  0  0  0  0
   10.9209   -5.2183   -2.9996 O   0  0  0  0  0 15  0  0  0  0  0  0
   14.7469   -2.9848   -0.5607 H   0  0  0  0  0 15  0  0  0  0  0  0
   12.3319   -1.4790   -0.2110 H   0  0  0  0  0 15  0  0  0  0  0  0
   14.2139   -2.9459   -3.0132 H   0  0  0  0  0 15  0  0  0  0  0  0
   12.8889   -1.7931   -2.6950 H   0  0  0  0  0 15  0  0  0  0  0  0
   11.7959   -3.5491   -1.1828 H   0  0  0  0  0 15  0  0  0  0  0  0
   13.1289   -4.6632   -1.5749 H   0  0  0  0  0 15  0  0  0  0  0  0
   14.7810    0.2645   -1.5536 N   0  0  0  0  0 15  0  0  0  0  0  0
   15.6910    1.3490   -1.9193 C   0  0  0  0  0 15  0  0  0  0  0  0
   16.7070    1.5359   -0.8176 C   0  0  0  0  0 15  0  0  0  0  0  0
   17.8830    1.6756   -1.1174 O   0  0  0  0  0 15  0  0  0  0  0  0
   14.9480    2.6868   -2.1912 C   0  0  0  0  0 15  0  0  0  0  0  0
   14.0090    2.5866   -3.4263 C   0  0  0  0  0 15  0  0  0  0  0  0
   13.2420    3.8605   -3.6851 C   0  0  0  0  0 15  0  0  0  0  0  0
   13.4650    4.8713   -2.9676 O   0  0  0  0  0 15  0  0  0  0  0  0
   12.3990    3.8574   -4.6204 O   0  0  0  0  0 15  0  0  0  0  0  0
   16.2250    1.0688   -2.8427 H   0  0  0  0  0 15  0  0  0  0  0  0
   13.8100    0.4638   -1.4202 H   0  0  0  0  0 15  0  0  0  0  0  0
   15.6920    3.4776   -2.3799 H   0  0  0  0  0 15  0  0  0  0  0  0
   14.3670    2.9646   -1.2997 H   0  0  0  0  0 15  0  0  0  0  0  0
   13.2740    1.7792   -3.2908 H   0  0  0  0  0 15  0  0  0  0  0  0
   14.6070    2.3582   -4.3203 H   0  0  0  0  0 15  0  0  0  0  0  0
   16.2591    1.4844    0.5294 N   0  0  0  0  0 15  0  0  0  0  0  0
   17.4841    1.6041    1.3147 C   0  0  0  0  0 15  0  0  0  0  0  0
   17.9091    0.2647    1.8623 C   0  0  0  0  0 15  0  0  0  0  0  0
   17.2671   -0.7637    1.6443 O   0  0  0  0  0 15  0  0  0  0  0  0
   17.3151    2.6542    2.4410 C   0  0  0  0  0 15  0  0  0  0  0  0
   16.4191    2.2262    3.4715 O   0  0  0  0  0 15  0  0  0  0  0  0
   15.7601    0.5379    0.3894 H   0  0  0  0  0 15  0  0  0  0  0  0
   18.2901    1.9443    0.6370 H   0  0  0  0  0 15  0  0  0  0  0  0
   18.3001    2.8671    2.9028 H   0  0  0  0  0 15  0  0  0  0  0  0
   16.9751    3.6265    2.0361 H   0  0  0  0  0 15  0  0  0  0  0  0
   15.5521    2.1154    3.0709 H   0  0  0  0  0 15  0  0  0  0  0  0
   17.7372   -0.7783    1.3704 N   0  0  0  0  0 15  0  0  0  0  0  0
   18.6692   -1.9003    1.2814 C   0  0  0  0  0 15  0  0  0  0  0  0
   19.6822   -1.6158    0.1986 C   0  0  0  0  0 15  0  0  0  0  0  0
   20.8712   -1.7263    0.4542 O   0  0  0  0  0 15  0  0  0  0  0  0
   17.9712   -3.2511    0.9570 C   0  0  0  0  0 15  0  0  0  0  0  0
   17.1442   -3.8125    2.1439 C   0  0  0  0  0 15  0  0  0  0  0  0
   16.2032   -4.9479    1.7908 C   0  0  0  0  0 15  0  0  0  0  0  0
   15.2292   -5.1072    2.5130 O   0  0  0  0  0 15  0  0  0  0  0  0
   16.4312   -5.7588    0.7310 N   0  0  0  0  0 15  0  0  0  0  0  0
   19.1962   -1.9819    2.2482 H   0  0  0  0  0 15  0  0  0  0  0  0
   16.7572   -0.9571    1.3058 H   0  0  0  0  0 15  0  0  0  0  0  0
   18.7492   -3.9857    0.7017 H   0  0  0  0  0 15  0  0  0  0  0  0
   17.3192   -3.1250    0.0790 H   0  0  0  0  0 15  0  0  0  0  0  0
   16.5392   -2.9965    2.5614 H   0  0  0  0  0 15  0  0  0  0  0  0
   17.8272   -4.1550    2.9367 H   0  0  0  0  0 15  0  0  0  0  0  0
   17.2252   -5.6555    0.1316 H   0  0  0  0  0 15  0  0  0  0  0  0
   15.7822   -6.4960    0.5356 H   0  0  0  0  0 15  0  0  0  0  0  0
   19.2153   -1.2150   -1.0038 N   0  0  0  0  0 15  0  0  0  0  0  0
   20.1633   -0.9724   -2.1130 C   0  0  0  0  0 15  0  0  0  0  0  0
   21.1573    0.0807   -1.6921 C   0  0  0  0  0 15  0  0  0  0  0  0
   22.3633   -0.0708   -1.7986 O   0  0  0  0  0 15  0  0  0  0  0  0
   18.7383   -0.2972   -0.6908 H   0  0  0  0  0 15  0  0  0  0  0  0
   20.7093   -1.9139   -2.2893 H   0  0  0  0  0 15  0  0  0  0  0  0
   19.4583   -0.5551   -3.4324 C   0  0  0  0  0 15  0  0  0  0  0  0
   18.7813   -1.3571   -3.7606 H   0  0  0  0  0 15  0  0  0  0  0  0
   20.2213   -0.4247   -4.2187 H   0  0  0  0  0 15  0  0  0  0  0  0
   18.6803    0.7341   -3.2880 C   0  0  0  0  0 15  0  0  0  0  0  0
   19.2103    1.7894   -3.5965 O   0  0  0  0  0 15  0  0  0  0  0  0
   17.4163    0.7011   -2.8202 N   0  0  0  0  0 15  0  0  0  0  0  0
   16.9633   -0.1579   -2.5712 H   0  0  0  0  0 15  0  0  0  0  0  0
   16.9213    1.5640   -2.7274 H   0  0  0  0  0 15  0  0  0  0  0  0
   20.6934    1.1989   -1.0230 N   0  0  0  0  0 15  0  0  0  0  0  0
   21.6254    2.2233   -0.5568 C   0  0  0  0  0 15  0  0  0  0  0  0
   22.6384    1.5867    0.3642 C   0  0  0  0  0 15  0  0  0  0  0  0
   23.8274    1.7777    0.1615 O   0  0  0  0  0 15  0  0  0  0  0  0
   20.9274    3.3826    0.2087 C   0  0  0  0  0 15  0  0  0  0  0  0
   20.1004    4.3150   -0.7158 C   0  0  0  0  0 15  0  0  0  0  0  0
   19.1594    5.2620    0.0033 C   0  0  0  0  0 15  0  0  0  0  0  0
   18.1854    5.6580   -0.6214 O   0  0  0  0  0 15  0  0  0  0  0  0
   19.3874    5.6630    1.2760 N   0  0  0  0  0 15  0  0  0  0  0  0
   22.1524    2.6296   -1.4378 H   0  0  0  0  0 15  0  0  0  0  0  0
   19.7134    1.3449   -0.9013 H   0  0  0  0  0 15  0  0  0  0  0  0
   21.7054    3.9862    0.6991 H   0  0  0  0  0 15  0  0  0  0  0  0
   20.2754    2.9647    0.9911 H   0  0  0  0  0 15  0  0  0  0  0  0
   19.4954    3.6902   -1.3864 H   0  0  0  0  0 15  0  0  0  0  0  0
   20.7834    4.9072   -1.3443 H   0  0  0  0  0 15  0  0  0  0  0  0
   20.1814    5.3615    1.8043 H   0  0  0  0  0 15  0  0  0  0  0  0
   18.7384    6.2894    1.7110 H   0  0  0  0  0 15  0  0  0  0  0  0
   22.1715    0.8000    1.3578 N   0  0  0  0  0 15  0  0  0  0  0  0
   23.1035    0.1636    2.2862 C   0  0  0  0  0 15  0  0  0  0  0  0
   24.1165   -0.6333    1.4998 C   0  0  0  0  0 15  0  0  0  0  0  0
   25.3055   -0.4668    1.7229 O   0  0  0  0  0 15  0  0  0  0  0  0
   22.4055   -0.7910    3.2954 C   0  0  0  0  0 15  0  0  0  0  0  0
   21.5785   -0.0418    4.3738 C   0  0  0  0  0 15  0  0  0  0  0  0
   20.6375   -0.9139    5.1820 C   0  0  0  0  0 15  0  0  0  0  0  0
   19.6635   -0.3672    5.6801 O   0  0  0  0  0 15  0  0  0  0  0  0
   20.8655   -2.2368    5.3567 N   0  0  0  0  0 15  0  0  0  0  0  0
   23.6305    0.9611    2.8387 H   0  0  0  0  0 15  0  0  0  0  0  0
   21.1915    0.6549    1.4806 H   0  0  0  0  0 15  0  0  0  0  0  0
   23.1835   -1.3784    3.8050 H   0  0  0  0  0 15  0  0  0  0  0  0
   21.7535   -1.4892    2.7485 H   0  0  0  0  0 15  0  0  0  0  0  0
   20.9735    0.7268    3.8744 H   0  0  0  0  0 15  0  0  0  0  0  0
   22.2615    0.4747    5.0658 H   0  0  0  0  0 15  0  0  0  0  0  0
   21.6595   -2.7050    4.9684 H   0  0  0  0  0 15  0  0  0  0  0  0
   20.2165   -2.7737    5.8984 H   0  0  0  0  0 15  0  0  0  0  0  0
   23.6496   -1.4758    0.5530 N   0  0  0  0  0 15  0  0  0  0  0  0
   24.5596   -2.3374   -0.2004 C   0  0  0  0  0 15  0  0  0  0  0  0
   25.5756   -1.4793   -0.9162 C   0  0  0  0  0 15  0  0  0  0  0  0
   26.7516   -1.8086   -0.8860 O   0  0  0  0  0 15  0  0  0  0  0  0
   23.8166   -3.2454   -1.2197 C   0  0  0  0  0 15  0  0  0  0  0  0
   22.8776   -4.2624   -0.5118 C   0  0  0  0  0 15  0  0  0  0  0  0
   22.1106   -5.1269   -1.4826 C   0  0  0  0  0 15  0  0  0  0  0  0
   22.3336   -5.0153   -2.7171 O   0  0  0  0  0 15  0  0  0  0  0  0
   21.2676   -5.9337   -1.0094 O   0  0  0  0  0 15  0  0  0  0  0  0
   25.0936   -2.9945    0.5063 H   0  0  0  0  0 15  0  0  0  0  0  0
   22.6786   -1.4607    0.3136 H   0  0  0  0  0 15  0  0  0  0  0  0
   24.5606   -3.8063   -1.8083 H   0  0  0  0  0 15  0  0  0  0  0  0
   23.2356   -2.6146   -1.9084 H   0  0  0  0  0 15  0  0  0  0  0  0
   22.1426   -3.7391    0.1178 H   0  0  0  0  0 15  0  0  0  0  0  0
   23.4756   -4.9201    0.1353 H   0  0  0  0  0 15  0  0  0  0  0  0
   25.1277   -0.2892   -1.5492 N   0  0  0  0  0 15  0  0  0  0  0  0
   26.0747    0.5921   -2.2308 C   0  0  0  0  0 15  0  0  0  0  0  0
   27.0447    1.1388   -1.2091 C   0  0  0  0  0 15  0  0  0  0  0  0
   28.2297    1.1855   -1.4950 O   0  0  0  0  0 15  0  0  0  0  0  0
   25.3697    1.7638   -2.9662 C   0  0  0  0  0 15  0  0  0  0  0  0
   24.4827    1.2496   -4.1353 C   0  0  0  0  0 15  0  0  0  0  0  0
   23.6177    2.3842   -4.7469 C   0  0  0  0  0 15  0  0  0  0  0  0
   22.6567    1.8407   -5.8377 C   0  0  0  0  0 15  0  0  0  0  0  0
   21.7937    2.9106   -6.3893 N   0  0  0  0  0 15  0  0  0  0  0  0
   26.6337    0.0043   -2.9800 H   0  0  0  0  0 15  0  0  0  0  0  0
   24.1707   -0.0096   -1.4710 H   0  0  0  0  0 15  0  0  0  0  0  0
   26.1287    2.4527   -3.3749 H   0  0  0  0  0 15  0  0  0  0  0  0
   24.7587    2.3234   -2.2410 H   0  0  0  0  0 15  0  0  0  0  0  0
   23.8107    0.4533   -3.7769 H   0  0  0  0  0 15  0  0  0  0  0  0
   25.1227    0.8117   -4.9215 H   0  0  0  0  0 15  0  0  0  0  0  0
   24.2767    3.1528   -5.1835 H   0  0  0  0  0 15  0  0  0  0  0  0
   23.0157    2.8553   -3.9538 H   0  0  0  0  0 15  0  0  0  0  0  0
   22.0207    1.0570   -5.3954 H   0  0  0  0  0 15  0  0  0  0  0  0
   23.2457    1.3788   -6.6496 H   0  0  0  0  0 15  0  0  0  0  0  0
   21.1917    3.3753   -5.6251 H   0  0  0  0  0 15  0  0  0  0  0  0
   21.1087    2.5172   -7.1286 H   0  0  0  0  0 15  0  0  0  0  0  0
   22.3767    3.6785   -6.8725 H   0  0  0  0  0 15  0  0  0  0  0  0
   26.6058    1.5759   -0.0167 N   0  0  0  0  0 15  0  0  0  0  0  0
   27.5538    2.1060    0.9874 C   0  0  0  0  0 15  0  0  0  0  0  0
   28.5478    1.0298    1.3451 C   0  0  0  0  0 15  0  0  0  0  0  0
   29.7538    1.2143    1.3288 O   0  0  0  0  0 15  0  0  0  0  0  0
   26.1288    0.6727    0.3361 H   0  0  0  0  0 15  0  0  0  0  0  0
   28.0998    2.9393    0.5148 H   0  0  0  0  0 15  0  0  0  0  0  0
   26.8488    2.6382    2.2648 C   0  0  0  0  0 15  0  0  0  0  0  0
   26.1718    3.4628    1.9983 H   0  0  0  0  0 15  0  0  0  0  0  0
   27.6118    3.0457    2.9498 H   0  0  0  0  0 15  0  0  0  0  0  0
   26.0708    1.5599    2.9861 C   0  0  0  0  0 15  0  0  0  0  0  0
   26.6008    0.9525    3.9024 O   0  0  0  0  0 15  0  0  0  0  0  0
   24.8068    1.2833    2.6073 N   0  0  0  0  0 15  0  0  0  0  0  0
   24.3538    1.7791    1.8629 H   0  0  0  0  0 15  0  0  0  0  0  0
   24.3118    0.5641    3.0930 H   0  0  0  0  0 15  0  0  0  0  0  0
   28.0839   -0.2563    1.5550 N   0  0  0  0  0 15  0  0  0  0  0  0
   28.9939   -1.3388    1.9265 C   0  0  0  0  0 15  0  0  0  0  0  0
   30.0099   -1.5316    0.8257 C   0  0  0  0  0 15  0  0  0  0  0  0
   31.1859   -1.6696    1.1263 O   0  0  0  0  0 15  0  0  0  0  0  0
   28.2509   -2.6751    2.2054 C   0  0  0  0  0 15  0  0  0  0  0  0
   27.3119   -2.5684    3.4400 C   0  0  0  0  0 15  0  0  0  0  0  0
   26.5449   -3.8409    3.7055 C   0  0  0  0  0 15  0  0  0  0  0  0
   26.7679   -4.8555    2.9934 O   0  0  0  0  0 15  0  0  0  0  0  0
   25.7019   -3.8329    4.6408 O   0  0  0  0  0 15  0  0  0  0  0  0
   29.5279   -1.0537    2.8483 H   0  0  0  0  0 15  0  0  0  0  0  0
   27.1129   -0.4562    1.4226 H   0  0  0  0  0 15  0  0  0  0  0  0
   28.9949   -3.4649    2.3984 H   0  0  0  0  0 15  0  0  0  0  0  0
   27.6699   -2.9577    1.3154 H   0  0  0  0  0 15  0  0  0  0  0  0
   26.5769   -1.7617    3.3002 H   0  0  0  0  0 15  0  0  0  0  0  0
   27.9099   -2.3352    4.3328 H   0  0  0  0  0 15  0  0  0  0  0  0
   29.5620   -1.4872   -0.5215 N   0  0  0  0  0 15  0  0  0  0  0  0
   30.4940   -1.5997   -1.6414 C   0  0  0  0  0 15  0  0  0  0  0  0
   31.5070   -0.4835   -1.5546 C   0  0  0  0  0 15  0  0  0  0  0  0
   32.6960   -0.7547   -1.6176 O   0  0  0  0  0 15  0  0  0  0  0  0
   29.7960   -1.5213   -3.0284 C   0  0  0  0  0 15  0  0  0  0  0  0
   28.9690   -2.7893   -3.3692 C   0  0  0  0  0 15  0  0  0  0  0  0
   28.0280   -2.6443   -4.5493 C   0  0  0  0  0 15  0  0  0  0  0  0
   27.0540   -3.3833   -4.5773 O   0  0  0  0  0 15  0  0  0  0  0  0
   28.2560   -1.7461   -5.5362 N   0  0  0  0  0 15  0  0  0  0  0  0
   31.0210   -2.5655   -1.5493 H   0  0  0  0  0 15  0  0  0  0  0  0
   28.5820   -1.4555   -0.7090 H   0  0  0  0  0 15  0  0  0  0  0  0
   30.5740   -1.4011   -3.7967 H   0  0  0  0  0 15  0  0  0  0  0  0
   29.1440   -0.6349   -3.0609 H   0  0  0  0  0 15  0  0  0  0  0  0
   28.3640   -3.0546   -2.4918 H   0  0  0  0  0 15  0  0  0  0  0  0
   29.6520   -3.6304   -3.5648 H   0  0  0  0  0 15  0  0  0  0  0  0
   29.0500   -1.1378   -5.5414 H   0  0  0  0  0 15  0  0  0  0  0  0
   27.6070   -1.6852   -6.2964 H   0  0  0  0  0 15  0  0  0  0  0  0
   31.0401    0.7711   -1.3745 N   0  0  0  0  0 15  0  0  0  0  0  0
   31.9501    1.9154   -1.3546 C   0  0  0  0  0 15  0  0  0  0  0  0
   32.9661    1.7213   -0.2541 C   0  0  0  0  0 15  0  0  0  0  0  0
   34.1421    1.9536   -0.4896 O   0  0  0  0  0 15  0  0  0  0  0  0
   31.2071    3.2667   -1.1613 C   0  0  0  0  0 15  0  0  0  0  0  0
   30.2681    3.5872   -2.3583 C   0  0  0  0  0 15  0  0  0  0  0  0
   29.5011    4.8741   -2.1741 C   0  0  0  0  0 15  0  0  0  0  0  0
   29.7241    5.5851   -1.1588 O   0  0  0  0  0 15  0  0  0  0  0  0
   28.6581    5.1854   -3.0562 O   0  0  0  0  0 15  0  0  0  0  0  0
   32.4841    1.9617   -2.3185 H   0  0  0  0  0 15  0  0  0  0  0  0
   30.0691    0.9139   -1.1819 H   0  0  0  0  0 15  0  0  0  0  0  0
   31.9511    4.0750   -1.0734 H   0  0  0  0  0 15  0  0  0  0  0  0
   30.6261    3.2289   -0.2283 H   0  0  0  0  0 15  0  0  0  0  0  0
   29.5331    2.7813   -2.5019 H   0  0  0  0  0 15  0  0  0  0  0  0
   30.8661    3.6724   -3.2771 H   0  0  0  0  0 15  0  0  0  0  0  0
   32.5182    1.2203    0.9973 N   0  0  0  0  0 15  0  0  0  0  0  0
   33.4482    1.0107    2.1049 C   0  0  0  0  0 15  0  0  0  0  0  0
   34.4292   -0.0670    1.6997 C   0  0  0  0  0 15  0  0  0  0  0  0
   35.6142    0.0944    1.9397 O   0  0  0  0  0 15  0  0  0  0  0  0
   32.7442    0.5829    3.4237 C   0  0  0  0  0 15  0  0  0  0  0  0
   31.6982    1.6059    3.9673 C   0  0  0  0  0 15  0  0  0  0  0  0
   31.0242    1.0341    5.2460 C   0  0  0  0  0 15  0  0  0  0  0  0
   32.3242    2.9948    4.2791 C   0  0  0  0  0 15  0  0  0  0  0  0
   34.0182    1.9371    2.2829 H   0  0  0  0  0 15  0  0  0  0  0  0
   31.5642    0.9328    1.0971 H   0  0  0  0  0 15  0  0  0  0  0  0
   33.5172    0.4233    4.1927 H   0  0  0  0  0 15  0  0  0  0  0  0
   32.2412   -0.3792    3.2439 H   0  0  0  0  0 15  0  0  0  0  0  0
   30.9002    1.7532    3.2196 H   0  0  0  0  0 15  0  0  0  0  0  0
   30.5482    0.0635    5.0296 H   0  0  0  0  0 15  0  0  0  0  0  0
   30.2482    1.7175    5.6194 H   0  0  0  0  0 15  0  0  0  0  0  0
   31.7722    0.8861    6.0414 H   0  0  0  0  0 15  0  0  0  0  0  0
   33.1862    2.8815    4.9562 H   0  0  0  0  0 15  0  0  0  0  0  0
   31.5832    3.6490    4.7641 H   0  0  0  0  0 15  0  0  0  0  0  0
   32.6532    3.4974    3.3587 H   0  0  0  0  0 15  0  0  0  0  0  0
   33.9963   -1.1934    1.0293 N   0  0  0  0  0 15  0  0  0  0  0  0
   34.9263   -2.2481    0.6311 C   0  0  0  0  0 15  0  0  0  0  0  0
   35.9073   -1.6624   -0.3601 C   0  0  0  0  0 15  0  0  0  0  0  0
   37.0923   -1.9268   -0.2427 O   0  0  0  0  0 15  0  0  0  0  0  0
   34.2223   -3.4730   -0.0185 C   0  0  0  0  0 15  0  0  0  0  0  0
   33.1763   -4.1854    0.8951 C   0  0  0  0  0 15  0  0  0  0  0  0
   32.5023   -5.3459    0.1106 C   0  0  0  0  0 15  0  0  0  0  0  0
   33.8023   -4.7329    2.2090 C   0  0  0  0  0 15  0  0  0  0  0  0
   35.4963   -2.5837    1.5128 H   0  0  0  0  0 15  0  0  0  0  0  0
   33.0423   -1.2419    0.7288 H   0  0  0  0  0 15  0  0  0  0  0  0
   34.9953   -4.2027   -0.3087 H   0  0  0  0  0 15  0  0  0  0  0  0
   33.7193   -3.1293   -0.9349 H   0  0  0  0  0 15  0  0  0  0  0  0
   32.3783   -3.4745    1.1695 H   0  0  0  0  0 15  0  0  0  0  0  0
   32.0263   -4.9647   -0.8079 H   0  0  0  0  0 15  0  0  0  0  0  0
   31.7263   -5.8318    0.7191 H   0  0  0  0  0 15  0  0  0  0  0  0
   33.2503   -6.1036   -0.1729 H   0  0  0  0  0 15  0  0  0  0  0  0
   34.6643   -5.3801    1.9803 H   0  0  0  0  0 15  0  0  0  0  0  0
   33.0613   -5.3237    2.7695 H   0  0  0  0  0 15  0  0  0  0  0  0
   34.1313   -3.9133    2.8634 H   0  0  0  0  0 15  0  0  0  0  0  0
   35.4744   -0.8072   -1.3536 N   0  0  0  0  0 15  0  0  0  0  0  0
   36.3844   -0.2196   -2.3357 C   0  0  0  0  0 15  0  0  0  0  0  0
   37.4004    0.6377   -1.6189 C   0  0  0  0  0 15  0  0  0  0  0  0
   38.5764    0.5493   -1.9376 O   0  0  0  0  0 15  0  0  0  0  0  0
   35.6414    0.6216   -3.4108 C   0  0  0  0  0 15  0  0  0  0  0  0
   34.7024   -0.2563   -4.2853 C   0  0  0  0  0 15  0  0  0  0  0  0
   33.9354    0.5448   -5.3091 C   0  0  0  0  0 15  0  0  0  0  0  0
   34.1584    1.7794   -5.4193 O   0  0  0  0  0 15  0  0  0  0  0  0
   33.0924   -0.0646   -6.0187 O   0  0  0  0  0 15  0  0  0  0  0  0
   36.9184   -1.0321   -2.8563 H   0  0  0  0  0 15  0  0  0  0  0  0
   34.5034   -0.5690   -1.3814 H   0  0  0  0  0 15  0  0  0  0  0  0
   36.3854    1.1007   -4.0677 H   0  0  0  0  0 15  0  0  0  0  0  0
   35.0604    1.4117   -2.9130 H   0  0  0  0  0 15  0  0  0  0  0  0
   33.9674   -0.7826   -3.6582 H   0  0  0  0  0 15  0  0  0  0  0  0
   35.3004   -1.0103   -4.8172 H   0  0  0  0  0 15  0  0  0  0  0  0
   36.9525    1.4729   -0.5608 N   0  0  0  0  0 15  0  0  0  0  0  0
   37.8825    2.3286    0.1731 C   0  0  0  0  0 15  0  0  0  0  0  0
   38.8635    1.4401    0.9053 C   0  0  0  0  0 15  0  0  0  0  0  0
   40.0485    1.7286    0.8850 O   0  0  0  0  0 15  0  0  0  0  0  0
   37.1785    3.2586    1.2013 C   0  0  0  0  0 15  0  0  0  0  0  0
   36.1325    4.2398    0.5854 C   0  0  0  0  0 15  0  0  0  0  0  0
   35.4585    5.0633    1.7185 C   0  0  0  0  0 15  0  0  0  0  0  0
   36.7585    5.2024   -0.4632 C   0  0  0  0  0 15  0  0  0  0  0  0
   38.4525    2.9447   -0.5413 H   0  0  0  0  0 15  0  0  0  0  0  0
   35.9985    1.4160   -0.2618 H   0  0  0  0  0 15  0  0  0  0  0  0
   37.9515    3.8457    1.7229 H   0  0  0  0  0 15  0  0  0  0  0  0
   36.6755    2.6231    1.9457 H   0  0  0  0  0 15  0  0  0  0  0  0
   35.3345    3.6650    0.0851 H   0  0  0  0  0 15  0  0  0  0  0  0
   34.9825    4.3919    2.4520 H   0  0  0  0  0 15  0  0  0  0  0  0
   34.6825    5.7276    1.3121 H   0  0  0  0  0 15  0  0  0  0  0  0
   36.2065    5.6790    2.2433 H   0  0  0  0  0 15  0  0  0  0  0  0
   37.6205    5.7329   -0.0275 H   0  0  0  0  0 15  0  0  0  0  0  0
   36.0175    5.9490   -0.7886 H   0  0  0  0  0 15  0  0  0  0  0  0
   37.0875    4.6550   -1.3577 H   0  0  0  0  0 15  0  0  0  0  0  0
   38.4306    0.2974    1.5477 N   0  0  0  0  0 15  0  0  0  0  0  0
   39.7076   -0.3658    1.9215 C   0  0  0  0  0 15  0  0  0  0  0  0
   40.0876   -1.7198    1.2242 C   0  0  0  0  0 15  0  0  0  0  0  0
   39.4356   -2.2567    0.3587 O   0  0  0  0  0 15  0  0  0  0  0  0
   39.6456   -0.4841    3.4563 C   0  0  0  0  0 15  0  0  0  0  0  0
   40.9936   -0.7566    4.1780 C   0  0  0  0  0 15  0  0  0  0  0  0
   42.0176   -0.5680    3.5164 O   0  0  0  0  0 15  0  0  0  0  0  0
   40.8766   -1.1186    5.3493 O   0  0  0  0  0 15  0  0  0  0  0  0
   37.9706   -0.2039    0.8015 H   0  0  0  0  0 15  0  0  0  0  0  0
   40.5166    0.3452    1.6615 H   0  0  0  0  0 15  0  0  0  0  0  0
   39.2886    0.4679    3.8849 H   0  0  0  0  0 15  0  0  0  0  0  0
   38.9116   -1.2437    3.7765 H   0  0  0  0  0 15  0  0  0  0  0  0
   39.9087   -1.5758    0.0251 N   0  0  0  0  0 15  0  0  0  0  0  0
   40.8557   -2.0997   -0.9581 C   0  0  0  0  0 15  0  0  0  0  0  0
   41.8257   -1.0009   -1.3256 C   0  0  0  0  0 15  0  0  0  0  0  0
   43.0107   -1.2748   -1.4196 O   0  0  0  0  0 15  0  0  0  0  0  0
   40.1507   -2.6281   -2.2366 C   0  0  0  0  0 15  0  0  0  0  0  0
   39.2637   -3.8669   -1.9259 C   0  0  0  0  0 15  0  0  0  0  0  0
   38.3987   -4.2794   -3.1471 C   0  0  0  0  0 15  0  0  0  0  0  0
   37.4377   -5.4459   -2.7944 C   0  0  0  0  0 15  0  0  0  0  0  0
   36.5747   -5.8101   -3.9417 N   0  0  0  0  0 15  0  0  0  0  0  0
   41.4147   -2.9370   -0.5044 H   0  0  0  0  0 15  0  0  0  0  0  0
   38.9517   -1.4517   -0.2374 H   0  0  0  0  0 15  0  0  0  0  0  0
   40.9097   -2.9154   -2.9843 H   0  0  0  0  0 15  0  0  0  0  0  0
   39.5397   -1.8192   -2.6665 H   0  0  0  0  0 15  0  0  0  0  0  0
   38.5917   -3.6472   -1.0808 H   0  0  0  0  0 15  0  0  0  0  0  0
   39.9037   -4.7155   -1.6262 H   0  0  0  0  0 15  0  0  0  0  0  0
   39.0577   -4.5808   -3.9780 H   0  0  0  0  0 15  0  0  0  0  0  0
   37.7967   -3.4185   -3.4784 H   0  0  0  0  0 15  0  0  0  0  0  0
   36.8017   -5.1415   -1.9476 H   0  0  0  0  0 15  0  0  0  0  0  0
   38.0267   -6.3238   -2.4753 H   0  0  0  0  0 15  0  0  0  0  0  0
   35.9727   -4.9787   -4.2715 H   0  0  0  0  0 15  0  0  0  0  0  0
   35.8897   -6.6050   -3.6780 H   0  0  0  0  0 15  0  0  0  0  0  0
   37.1577   -6.1576   -4.7798 H   0  0  0  0  0 15  0  0  0  0  0  0
   41.3868    0.2480   -1.5564 N   0  0  0  0  0 15  0  0  0  0  0  0
   42.6328    0.9734   -1.7859 C   0  0  0  0  0 15  0  0  0  0  0  0
   42.9878    1.8301   -0.5938 C   0  0  0  0  0 15  0  0  0  0  0  0
   42.2808    1.8710    0.4130 O   0  0  0  0  0 15  0  0  0  0  0  0
   42.4748    1.8682   -3.0469 C   0  0  0  0  0 15  0  0  0  0  0  0
   42.3038    1.0996   -4.3605 C   0  0  0  0  0 15  0  0  0  0  0  0
   41.0738    0.8052   -4.9884 C   0  0  0  0  0 15  0  0  0  0  0  0
   43.2718    0.4778   -5.1208 C   0  0  0  0  0 15  0  0  0  0  0  0
   41.2538    0.0125   -6.1390 N   0  0  0  0  0 15  0  0  0  0  0  0
   42.6248   -0.1796   -6.1974 C   0  0  0  0  0 15  0  0  0  0  0  0
   44.6798    0.3881   -4.9638 C   0  0  0  0  0 15  0  0  0  0  0  0
   43.3828   -0.9180   -7.1342 C   0  0  0  0  0 15  0  0  0  0  0  0
   45.4088   -0.3367   -5.9044 C   0  0  0  0  0 15  0  0  0  0  0  0
   44.7708   -0.9827   -6.9751 C   0  0  0  0  0 15  0  0  0  0  0  0
   40.8698    0.3373   -0.7055 H   0  0  0  0  0 15  0  0  0  0  0  0
   43.4538    0.2467   -1.9313 H   0  0  0  0  0 15  0  0  0  0  0  0
   41.6248    2.5670   -2.9148 H   0  0  0  0  0 15  0  0  0  0  0  0
   43.3568    2.5291   -3.1594 H   0  0  0  0  0 15  0  0  0  0  0  0
   40.1118    1.1167   -4.6025 H   0  0  0  0  0 15  0  0  0  0  0  0
   40.5358   -0.3719   -6.7598 H   0  0  0  0  0 15  0  0  0  0  0  0
   45.1778    0.8732   -4.1368 H   0  0  0  0  0 15  0  0  0  0  0  0
   42.8958   -1.4147   -7.9562 H   0  0  0  0  0 15  0  0  0  0  0  0
   46.4818   -0.4067   -5.8038 H   0  0  0  0  0 15  0  0  0  0  0  0
   45.3618   -1.5346   -7.6904 H   0  0  0  0  0 15  0  0  0  0  0  0
   42.8649    1.4899    0.5136 N   0  0  0  0  0 15  0  0  0  0  0  0
   43.8279    1.6423    1.5988 C   0  0  0  0  0 15  0  0  0  0  0  0
   44.8279    0.5147    1.5234 C   0  0  0  0  0 15  0  0  0  0  0  0
   46.0179    0.7809    1.5572 O   0  0  0  0  0 15  0  0  0  0  0  0
   43.1499    1.6278    2.9952 C   0  0  0  0  0 15  0  0  0  0  0  0
   44.3429    2.6100    1.4771 H   0  0  0  0  0 15  0  0  0  0  0  0
   41.8959    1.3784    0.7369 H   0  0  0  0  0 15  0  0  0  0  0  0
   42.6309    0.6755    3.1719 H   0  0  0  0  0 15  0  0  0  0  0  0
   42.4159    2.4466    3.0640 H   0  0  0  0  0 15  0  0  0  0  0  0
   43.9059    1.7667    3.7839 H   0  0  0  0  0 15  0  0  0  0  0  0
   44.3430   -0.7638    1.3786 N   0  0  0  0  0 15  0  0  0  0  0  0
   45.5680   -1.5580    1.3689 C   0  0  0  0  0 15  0  0  0  0  0  0
   45.9930   -1.8805   -0.0416 C   0  0  0  0  0 15  0  0  0  0  0  0
   45.3510   -1.4983   -1.0209 O   0  0  0  0  0 15  0  0  0  0  0  0
   45.3990   -2.8401    2.2219 C   0  0  0  0  0 15  0  0  0  0  0  0
   44.5030   -3.7873    1.6320 O   0  0  0  0  0 15  0  0  0  0  0  0
   43.8440   -0.4716    0.4674 H   0  0  0  0  0 15  0  0  0  0  0  0
   46.3740   -0.9447    1.8149 H   0  0  0  0  0 15  0  0  0  0  0  0
   46.3840   -3.3304    2.3569 H   0  0  0  0  0 15  0  0  0  0  0  0
   45.0590   -2.5987    3.2472 H   0  0  0  0  0 15  0  0  0  0  0  0
   43.6360   -3.3740    1.5879 H   0  0  0  0  0 15  0  0  0  0  0  0
   45.8211   -1.2256   -0.9908 N   0  0  0  0  0 15  0  0  0  0  0  0
   46.7511   -1.0218   -2.0996 C   0  0  0  0  0 15  0  0  0  0  0  0
   47.7321    0.0579   -1.7000 C   0  0  0  0  0 15  0  0  0  0  0  0
   48.9171   -0.1047   -1.9392 O   0  0  0  0  0 15  0  0  0  0  0  0
   46.0471   -0.6010   -3.4206 C   0  0  0  0  0 15  0  0  0  0  0  0
   45.0011   -1.6269   -3.9587 C   0  0  0  0  0 15  0  0  0  0  0  0
   44.3271   -1.0619   -5.2405 C   0  0  0  0  0 15  0  0  0  0  0  0
   45.6271   -3.0174   -4.2632 C   0  0  0  0  0 15  0  0  0  0  0  0
   47.3211   -1.9492   -2.2726 H   0  0  0  0  0 15  0  0  0  0  0  0
   44.8671   -0.9386   -1.0921 H   0  0  0  0  0 15  0  0  0  0  0  0
   46.8201   -0.4456   -4.1904 H   0  0  0  0  0 15  0  0  0  0  0  0
   45.5441    0.3620   -3.2459 H   0  0  0  0  0 15  0  0  0  0  0  0
   44.2031   -1.7702   -3.2103 H   0  0  0  0  0 15  0  0  0  0  0  0
   43.8511   -0.0902   -5.0292 H   0  0  0  0  0 15  0  0  0  0  0  0
   43.5511   -1.7473   -5.6102 H   0  0  0  0  0 15  0  0  0  0  0  0
   45.0751   -0.9181   -6.0366 H   0  0  0  0  0 15  0  0  0  0  0  0
   46.4891   -2.9078   -4.9409 H   0  0  0  0  0 15  0  0  0  0  0  0
   44.8861   -3.6742   -4.7447 H   0  0  0  0  0 15  0  0  0  0  0  0
   45.9561   -3.5152   -3.3401 H   0  0  0  0  0 15  0  0  0  0  0  0
   47.2992    1.1880   -1.0356 N   0  0  0  0  0 15  0  0  0  0  0  0
   48.5452    1.8919   -0.7469 C   0  0  0  0  0 15  0  0  0  0  0  0
   48.9002    1.7853    0.7172 C   0  0  0  0  0 15  0  0  0  0  0  0
   48.1932    1.1714    1.5162 O   0  0  0  0  0 15  0  0  0  0  0  0
   48.3872    3.3869   -1.1412 C   0  0  0  0  0 15  0  0  0  0  0  0
   48.2162    3.6390   -2.6421 C   0  0  0  0  0 15  0  0  0  0  0  0
   46.9862    3.8155   -3.3128 C   0  0  0  0  0 15  0  0  0  0  0  0
   49.1842    3.6490   -3.6242 C   0  0  0  0  0 15  0  0  0  0  0  0
   47.1662    3.9446   -4.7040 N   0  0  0  0  0 15  0  0  0  0  0  0
   48.5372    3.8346   -4.8720 C   0  0  0  0  0 15  0  0  0  0  0  0
   50.5922    3.4796   -3.5613 C   0  0  0  0  0 15  0  0  0  0  0  0
   49.2952    3.8683   -6.0643 C   0  0  0  0  0 15  0  0  0  0  0  0
   51.3212    3.5262   -4.7478 C   0  0  0  0  0 15  0  0  0  0  0  0
   50.6832    3.7166   -5.9837 C   0  0  0  0  0 15  0  0  0  0  0  0
   46.7822    0.7111   -0.3253 H   0  0  0  0  0 15  0  0  0  0  0  0
   49.3662    1.4273   -1.3243 H   0  0  0  0  0 15  0  0  0  0  0  0
   47.5372    3.8386   -0.5919 H   0  0  0  0  0 15  0  0  0  0  0  0
   49.2692    3.9663   -0.8040 H   0  0  0  0  0 15  0  0  0  0  0  0
   46.0242    3.8072   -2.8169 H   0  0  0  0  0 15  0  0  0  0  0  0
   46.4482    4.0474   -5.4269 H   0  0  0  0  0 15  0  0  0  0  0  0
   51.0902    3.3219   -2.6155 H   0  0  0  0  0 15  0  0  0  0  0  0
   48.8082    4.0139   -7.0136 H   0  0  0  0  0 15  0  0  0  0  0  0
   52.3942    3.4079   -4.7154 H   0  0  0  0  0 15  0  0  0  0  0  0
   51.2742    3.7515   -6.8865 H   0  0  0  0  0 15  0  0  0  0  0  0
   48.7773    0.8144    1.3493 N   0  0  0  0  0 15  0  0  0  0  0  0
   49.7253    0.2184    2.3157 C   0  0  0  0  0 15  0  0  0  0  0  0
   50.7193   -0.6361    1.5700 C   0  0  0  0  0 15  0  0  0  0  0  0
   51.9253   -0.5284    1.7207 O   0  0  0  0  0 15  0  0  0  0  0  0
   48.3003    0.0519    0.7502 H   0  0  0  0  0 15  0  0  0  0  0  0
   50.2713    1.0485    2.7937 H   0  0  0  0  0 15  0  0  0  0  0  0
   49.0203   -0.6121    3.4227 C   0  0  0  0  0 15  0  0  0  0  0  0
   48.3433    0.0362    3.9978 H   0  0  0  0  0 15  0  0  0  0  0  0
   49.7833   -0.9953    4.1215 H   0  0  0  0  0 15  0  0  0  0  0  0
   48.2423   -1.7809    2.8598 C   0  0  0  0  0 15  0  0  0  0  0  0
   48.7723   -2.8787    2.8017 O   0  0  0  0  0 15  0  0  0  0  0  0
   46.9783   -1.5949    2.4292 N   0  0  0  0  0 15  0  0  0  0  0  0
   46.5253   -0.7019    2.4785 H   0  0  0  0  0 15  0  0  0  0  0  0
   46.4833   -2.3785    2.0561 H   0  0  0  0  0 15  0  0  0  0  0  0
   50.2554   -1.4699    0.5686 N   0  0  0  0  0 15  0  0  0  0  0  0
   51.5014   -2.0332    0.0571 C   0  0  0  0  0 15  0  0  0  0  0  0
   51.8564   -1.4338   -1.2829 C   0  0  0  0  0 15  0  0  0  0  0  0
   51.1494   -0.5843   -1.8247 O   0  0  0  0  0 15  0  0  0  0  0  0
   51.3434   -3.5731   -0.0818 C   0  0  0  0  0 15  0  0  0  0  0  0
   51.1724   -4.3217    1.2432 C   0  0  0  0  0 15  0  0  0  0  0  0
   49.9424   -4.7163    1.8136 C   0  0  0  0  0 15  0  0  0  0  0  0
   52.1404   -4.6660    2.1631 C   0  0  0  0  0 15  0  0  0  0  0  0
   50.1224   -5.3119    3.0775 N   0  0  0  0  0 15  0  0  0  0  0  0
   51.4934   -5.2658    3.2728 C   0  0  0  0  0 15  0  0  0  0  0  0
   53.5484   -4.4853    2.1617 C   0  0  0  0  0 15  0  0  0  0  0  0
   52.2514   -5.7040    4.3823 C   0  0  0  0  0 15  0  0  0  0  0  0
   54.2774   -4.9335    3.2613 C   0  0  0  0  0 15  0  0  0  0  0  0
   53.6394   -5.5339    4.3582 C   0  0  0  0  0 15  0  0  0  0  0  0
   49.7384   -0.7794    0.0634 H   0  0  0  0  0 15  0  0  0  0  0  0
   52.3224   -1.7932    0.7584 H   0  0  0  0  0 15  0  0  0  0  0  0
   50.4934   -3.8105   -0.7522 H   0  0  0  0  0 15  0  0  0  0  0  0
   52.2254   -4.0028   -0.5964 H   0  0  0  0  0 15  0  0  0  0  0  0
   48.9804   -4.5395    1.3502 H   0  0  0  0  0 15  0  0  0  0  0  0
   49.4044   -5.6550    3.7220 H   0  0  0  0  0 15  0  0  0  0  0  0
   54.0464   -4.0146    1.3264 H   0  0  0  0  0 15  0  0  0  0  0  0
   51.7644   -6.1645    5.2251 H   0  0  0  0  0 15  0  0  0  0  0  0
   55.3504   -4.8113    3.2712 H   0  0  0  0  0 15  0  0  0  0  0  0
   54.2304   -5.8744    5.1950 H   0  0  0  0  0 15  0  0  0  0  0  0
   51.7335   -0.3056   -1.5461 N   0  0  0  0  0 15  0  0  0  0  0  0
   52.9805    0.3023   -2.0023 C   0  0  0  0  0 15  0  0  0  0  0  0
   53.3085    1.5354   -1.1940 C   0  0  0  0  0 15  0  0  0  0  0  0
   52.5635    1.9397   -0.2594 O   0  0  0  0  0 15  0  0  0  0  0  0
   52.8625    0.6990   -3.5050 C   0  0  0  0  0 15  0  0  0  0  0  0
   52.5285   -0.4329   -4.4882 C   0  0  0  0  0 15  0  0  0  0  0  0
   51.1905   -0.7436   -4.7542 C   0  0  0  0  0 15  0  0  0  0  0  0
   53.5425   -1.1941   -5.0734 C   0  0  0  0  0 15  0  0  0  0  0  0
   50.8705   -1.8186   -5.5780 C   0  0  0  0  0 15  0  0  0  0  0  0
   53.2225   -2.2590   -5.9089 C   0  0  0  0  0 15  0  0  0  0  0  0
   51.8865   -2.5757   -6.1580 C   0  0  0  0  0 15  0  0  0  0  0  0
   51.1565    0.1106   -0.7327 H   0  0  0  0  0 15  0  0  0  0  0  0
   53.8035   -0.4257   -1.8671 H   0  0  0  0  0 15  0  0  0  0  0  0
   52.1085    1.5071   -3.6165 H   0  0  0  0  0 15  0  0  0  0  0  0
   53.8055    1.1806   -3.8323 H   0  0  0  0  0 15  0  0  0  0  0  0
   50.3955   -0.1806   -4.2822 H   0  0  0  0  0 15  0  0  0  0  0  0
   54.5795   -0.9673   -4.8678 H   0  0  0  0  0 15  0  0  0  0  0  0
   49.8355   -2.0686   -5.7534 H   0  0  0  0  0 15  0  0  0  0  0  0
   54.0095   -2.8534   -6.3526 H   0  0  0  0  0 15  0  0  0  0  0  0
   51.6365   -3.4100   -6.7943 H   0  0  0  0  0 15  0  0  0  0  0  0
   53.2505    1.6058   -0.1724 O   0  0  0  0  0 15  0  0  0  0  0  0
   53.9415    1.8916    0.4171 H   0  0  0  0  0 15  0  0  0  0  0  0
M  END
$$$$
