drugbank_drug|DB00034 DB00034 sequence
 OpenBabel12092119123D

  0  0  0     0  0            999 V3000
M  V30 BEGIN CTAB
M  V30 COUNTS 2702 2728 0 0 0
M  V30 BEGIN ATOM
M  V30 1 H -0.908 1.98254 -0.117106 0
M  V30 2 N 0 1.576 0 0
M  V30 3 C 1.24 1.92425 0.68935 0
M  V30 4 C 1.604 0.874325 1.70937 0
M  V30 5 O 2.805 1.10782 2.4491 0
M  V30 6 C 1.076 3.32301 1.31571 0
M  V30 7 S 2.635 3.89011 2.03018 0
M  V30 8 H -0.547 0.673552 0.227702 0
M  V30 9 H 2.055 1.95418 -0.0566871 0
M  V30 10 H 0.759 4.06555 0.560491 0
M  V30 11 H 0.29 3.32682 2.09968 0
M  V30 12 H 2.305 3.70086 3.30531 0
M  V30 13 N 1.4781 -0.272755 1.55222 0
M  V30 14 C 2.7551 -1.02562 1.66555 0
M  V30 15 C 3.1351 -2.04282 0.532189 0
M  V30 16 O 2.4831 -2.23662 -0.467717 0
M  V30 17 C 2.6931 -1.6822 3.05782 0
M  V30 18 C 4.0411 -2.19373 3.63539 0
M  V30 19 O 5.0651 -1.78206 3.08417 0
M  V30 20 O 3.9241 -2.94883 4.60115 0
M  V30 21 H 1.0181 -0.475755 0.676451 0
M  V30 22 H 3.5641 -0.268593 1.67561 0
M  V30 23 H 2.3361 -0.945112 3.79715 0
M  V30 24 H 1.9591 -2.50609 3.08676 0
M  V30 25 N 2.9562 -1.48159 -0.537278 0
M  V30 26 C 3.8862 -1.65029 -1.6519 0
M  V30 27 C 4.8672 -0.499281 -1.62607 0
M  V30 28 O 6.0522 -0.730972 -1.79918 0
M  V30 29 C 3.1822 -1.68303 -3.03795 0
M  V30 30 C 2.1362 -2.8283 -3.21234 0
M  V30 31 C 1.4622 -2.71189 -4.60826 0
M  V30 32 C 2.7622 -4.24211 -3.04701 0
M  V30 33 H 4.4562 -2.58341 -1.51328 0
M  V30 34 H 2.0022 -1.24325 -0.726585 0
M  V30 35 H 3.9552 -1.78693 -3.81637 0
M  V30 36 H 2.6792 -0.715635 -3.18663 0
M  V30 37 H 1.3382 -2.71983 -2.45807 0
M  V30 38 H 0.9862 -1.72435 -4.7252 0
M  V30 39 H 0.6862 -3.48035 -4.7344 0
M  V30 40 H 2.2102 -2.83537 -5.40777 0
M  V30 41 H 3.6242 -4.3593 -3.72341 0
M  V30 42 H 2.0212 -5.01998 -3.28813 0
M  V30 43 H 3.0912 -4.41184 -2.01209 0
M  V30 44 N 4.4343 0.785586 -1.36625 0
M  V30 45 C 5.8453 1.36101 -1.27803 0
M  V30 46 C 6.1963 1.96035 0.0804875 0
M  V30 47 O 5.3213 1.92834 0.982042 0
M  V30 48 C 5.9163 2.47442 -2.31426 0
M  V30 49 C 4.4753 3.00789 -2.26281 0
M  V30 50 C 3.6223 1.73896 -2.15999 0
M  V30 51 H 6.5733 0.586928 -1.47448 0
M  V30 52 H 6.5943 3.2656 -1.95291 0
M  V30 53 H 6.1063 2.03791 -3.30289 0
M  V30 54 H 4.2073 3.48851 -1.30896 0
M  V30 55 H 4.3203 3.57343 -3.19128 0
M  V30 56 H 2.6843 1.9628 -1.62316 0
M  V30 57 H 3.4673 1.32368 -3.16755 0
M  V30 58 N 5.9124 1.20967 1.01018 0
M  V30 59 C 6.8444 0.922059 2.09835 0
M  V30 60 C 7.8574 -0.0927106 1.62536 0
M  V30 61 O 9.0464 0.139127 1.77957 0
M  V30 62 C 6.1464 0.362004 3.36961 0
M  V30 63 C 5.3194 1.42986 4.13369 0
M  V30 64 C 4.3784 0.879976 5.1879 0
M  V30 65 O 3.4044 1.56219 5.47343 0
M  V30 66 N 4.6064 -0.307396 5.79686 0
M  V30 67 H 7.3714 1.8588 2.35093 0
M  V30 68 H 4.9324 1.11422 1.1746 0
M  V30 69 H 6.9244 -0.0201474 4.04695 0
M  V30 70 H 5.4944 -0.479437 3.08902 0
M  V30 71 H 4.7144 1.98608 3.40512 0
M  V30 72 H 6.0024 2.14885 4.61196 0
M  V30 73 H 5.4004 -0.878796 5.58832 0
M  V30 74 H 3.9574 -0.631115 6.48737 0
M  V30 75 N 7.3905 -1.2043 1.01659 0
M  V30 76 C 8.6185 -1.93777 0.725132 0
M  V30 77 C 9.0335 -1.74772 -0.714166 0
M  V30 78 O 8.3905 -1.06169 -1.4844 0
M  V30 79 C 8.4415 -3.45876 1.05129 0
M  V30 80 O 8.1625 -3.6426 2.43406 0
M  V30 81 C 9.6635 -4.36368 0.780891 0
M  V30 82 H 6.8835 -0.615901 0.266284 0
M  V30 83 H 9.4275 -1.52922 1.35776 0
M  V30 84 H 7.5825 -3.8461 0.464065 0
M  V30 85 H 7.9965 -4.58246 2.55169 0
M  V30 86 H 9.4705 -5.41743 1.05918 0
M  V30 87 H 9.9475 -4.38275 -0.284937 0
M  V30 88 H 10.5535 -4.03296 1.35027 0
M  V30 89 N 8.8686 -0.792821 -1.36206 0
M  V30 90 C 9.8186 -0.166598 -2.27391 0
M  V30 91 C 10.8026 0.651479 -1.47121 0
M  V30 92 O 11.9946 0.510994 -1.69463 0
M  V30 93 C 9.1236 0.695033 -3.36191 0
M  V30 94 C 8.2096 -0.132019 -4.23894 0
M  V30 95 N 8.6006 -1.18822 -4.91645 0
M  V30 96 C 6.8986 0.0885952 -4.45912 0
M  V30 97 C 7.5996 -1.69198 -5.56549 0
M  V30 98 N 6.5756 -1.00065 -5.34311 0
M  V30 99 H 10.3776 -0.974947 -2.77258 0
M  V30 100 H 7.8916 -0.632616 -1.49572 0
M  V30 101 H 9.8886 1.1596 -4.00448 0
M  V30 102 H 8.5486 1.50189 -2.87877 0
M  V30 103 H 9.5596 -1.57069 -4.93507 0
M  V30 104 H 6.2366 0.865688 -4.08426 0
M  V30 105 H 7.6266 -2.57395 -6.20643 0
M  V30 106 N 10.3467 1.47872 -0.545128 0
M  V30 107 C 11.5717 2.07391 -0.0190611 0
M  V30 108 C 11.9967 1.39688 1.25971 0
M  V30 109 O 11.3547 0.467816 1.7516 0
M  V30 110 C 11.4027 3.60188 0.172335 0
M  V30 111 O 10.5067 3.9339 1.23766 0
M  V30 112 H 9.8477 0.662411 -0.0459059 0
M  V30 113 H 12.3777 1.90066 -0.757365 0
M  V30 114 H 12.3877 4.06129 0.390305 0
M  V30 115 H 11.0627 4.08865 -0.761725 0
M  V30 116 H 9.6397 3.5921 1.00114 0
M  V30 117 N 11.8248 0.280983 1.55075 0
M  V30 118 C 12.7548 -0.597469 2.25727 0
M  V30 119 C 13.7358 -1.15417 1.24952 0
M  V30 120 O 14.9208 -1.18722 1.53684 0
M  V30 121 C 12.0508 -1.7789 2.98283 0
M  V30 122 C 11.0048 -1.35347 4.06036 0
M  V30 123 C 10.3308 -2.61846 4.66198 0
M  V30 124 C 11.6308 -0.499354 5.19907 0
M  V30 125 H 13.3248 -0.00824265 2.99399 0
M  V30 126 H 10.8708 -0.0025244 1.44 0
M  V30 127 H 12.8238 -2.39937 3.46422 0
M  V30 128 H 11.5478 -2.39405 2.22155 0
M  V30 129 H 10.2068 -0.756156 3.58717 0
M  V30 130 H 9.8548 -3.21632 3.86732 0
M  V30 131 H 9.5548 -2.3409 5.38958 0
M  V30 132 H 11.0788 -3.24732 5.1709 0
M  V30 133 H 12.4928 -1.02498 5.64063 0
M  V30 134 H 10.8898 -0.316424 5.99265 0
M  V30 135 H 11.9598 0.480459 4.82514 0
M  V30 136 N 13.3029 -1.57598 0.00835791 0
M  V30 137 C 14.5509 -1.90551 -0.6734 0
M  V30 138 C 14.8719 -0.883301 -1.73847 0
M  V30 139 O 14.1419 0.0781442 -1.95744 0
M  V30 140 H 12.7219 -0.703312 -0.251717 0
M  V30 141 H 15.3839 -1.94833 0.0512592 0
M  V30 142 H 14.4799 -2.9056 -1.13935 0
M  V30 143 N 14.781 0.264519 -1.55364 0
M  V30 144 C 16.006 1.01726 -1.80739 0
M  V30 145 C 16.431 1.78836 -0.583044 0
M  V30 146 O 15.789 1.75167 0.467566 0
M  V30 147 C 15.837 1.94482 -3.03659 0
M  V30 148 O 14.941 3.03386 -2.7934 0
M  V30 149 H 14.282 0.290395 -0.597132 0
M  V30 150 H 16.812 0.290854 -2.02522 0
M  V30 151 H 16.822 2.36278 -3.32621 0
M  V30 152 H 15.497 1.37772 -3.92418 0
M  V30 153 H 14.074 2.65844 -2.61498 0
M  V30 154 N 16.2591 1.48442 0.529413 0
M  V30 155 C 17.6751 1.34575 0.858004 0
M  V30 156 C 17.8751 0.3572 1.98309 0
M  V30 157 O 16.9311 -0.221379 2.51528 0
M  V30 158 C 18.2441 2.74617 1.22499 0
M  V30 159 C 19.7921 2.83109 1.33484 0
M  V30 160 C 20.2671 4.23854 1.73526 0
M  V30 161 N 21.7581 4.2653 1.80628 0
M  V30 162 C 22.4931 5.32372 2.12997 0
M  V30 163 N 21.9891 6.48491 2.43786 0
M  V30 164 N 23.7821 5.19766 2.14008 0
M  V30 165 H 15.9331 2.1133 -0.212925 0
M  V30 166 H 18.1961 0.947439 -0.0326199 0
M  V30 167 H 17.9021 3.4852 0.471905 0
M  V30 168 H 17.7761 3.08177 2.17501 0
M  V30 169 H 20.1631 2.09462 2.0787 0
M  V30 170 H 20.2441 2.53168 0.366027 0
M  V30 171 H 19.8881 4.98018 0.997013 0
M  V30 172 H 19.8181 4.5124 2.71459 0
M  V30 173 H 22.3091 3.42772 1.59108 0
M  V30 174 H 22.6221 7.24993 2.67592 0
M  V30 175 H 20.9671 6.51765 2.41304 0
M  V30 176 H 24.1581 4.28066 1.89412 0
M  V30 177 H 24.3311 6.02354 2.38902 0
M  V30 178 N 17.7372 -0.778329 1.37039 0
M  V30 179 C 19.1532 -1.07796 1.17695 0
M  V30 180 C 19.3532 -2.01498 0.00860115 0
M  V30 181 O 18.4092 -2.43901 -0.653352 0
M  V30 182 C 19.7222 -1.68178 2.49272 0
M  V30 183 C 21.2702 -1.80467 2.55735 0
M  V30 184 C 21.7452 -2.44263 3.87427 0
M  V30 185 N 23.2362 -2.51721 3.88833 0
M  V30 186 C 23.9712 -3.01919 4.87476 0
M  V30 187 N 23.4672 -3.5234 5.96513 0
M  V30 188 N 25.2602 -3.00733 4.74885 0
M  V30 189 H 17.4112 -0.156032 2.11826 0
M  V30 190 H 19.6742 -0.131844 0.938787 0
M  V30 191 H 19.3802 -1.06796 3.35093 0
M  V30 192 H 19.2542 -2.67554 2.65885 0
M  V30 193 H 21.6412 -2.40984 1.70325 0
M  V30 194 H 21.7222 -0.798656 2.43013 0
M  V30 195 H 21.3662 -1.84388 4.73248 0
M  V30 196 H 21.2962 -3.45458 3.9745 0
M  V30 197 H 23.7872 -2.1603 3.10063 0
M  V30 198 H 24.1002 -3.89027 6.67741 0
M  V30 199 H 22.4452 -3.50462 6.00168 0
M  V30 200 H 25.6362 -2.60638 3.88826 0
M  V30 201 H 25.8092 -3.39545 5.51918 0
M  V30 202 N 19.2153 -1.21501 -1.00376 0
M  V30 203 C 20.4433 -1.059 -1.77744 0
M  V30 204 C 20.8583 0.391125 -1.84704 0
M  V30 205 O 20.2153 1.27133 -1.30933 0
M  V30 206 C 20.2663 -1.65111 -3.21591 0
M  V30 207 O 19.9873 -3.0445 -3.15027 0
M  V30 208 C 21.4883 -1.54637 -4.15454 0
M  V30 209 H 18.7083 -0.371825 -0.558558 0
M  V30 210 H 21.2523 -1.60865 -1.26264 0
M  V30 211 H 19.4073 -1.14235 -3.70175 0
M  V30 212 H 19.8213 -3.3278 -4.0541 0
M  V30 213 H 21.2953 -2.00808 -5.14179 0
M  V30 214 H 21.7723 -0.501022 -4.36333 0
M  V30 215 H 22.3783 -2.04767 -3.72761 0
M  V30 216 N 20.6934 1.19889 -1.02296 0
M  V30 217 C 21.6234 2.25141 -0.619174 0
M  V30 218 C 22.6044 1.66051 0.368915 0
M  V30 219 O 23.7894 1.92546 0.252941 0
M  V30 220 C 20.9194 3.4728 0.0368783 0
M  V30 221 C 19.8734 4.19005 -0.872865 0
M  V30 222 C 19.1994 5.34637 -0.0822402 0
M  V30 223 C 20.4994 4.74452 -2.18387 0
M  V30 224 H 22.1934 2.59171 -1.49903 0
M  V30 225 H 19.7394 1.24579 -0.722222 0
M  V30 226 H 21.6924 4.20098 0.330958 0
M  V30 227 H 20.4164 3.12433 0.95149 0
M  V30 228 H 19.0754 3.48061 -1.15105 0
M  V30 229 H 18.7234 4.96034 0.83422 0
M  V30 230 H 18.4234 5.83557 -0.688149 0
M  V30 231 H 19.9474 6.10255 0.205238 0
M  V30 232 H 21.3614 5.39055 -1.95172 0
M  V30 233 H 19.7584 5.33834 -2.74119 0
M  V30 234 H 20.8284 3.92844 -2.84257 0
M  V30 235 N 22.1715 0.800033 1.35784 0
M  V30 236 C 23.1045 0.151499 2.27697 0
M  V30 237 C 24.0825 -0.678663 1.4776 0
M  V30 238 O 25.2665 -0.647358 1.77035 0
M  V30 239 C 22.3935 -0.790492 3.29346 0
M  V30 240 C 21.4395 -0.0407832 4.26481 0
M  V30 241 S 22.2725 1.29077 5.19711 0
M  V30 242 C 23.4285 0.353055 6.24903 0
M  V30 243 H 23.6615 0.930796 2.82353 0
M  V30 244 H 21.1945 0.594767 1.42485 0
M  V30 245 H 23.1525 -1.3285 3.88409 0
M  V30 246 H 21.8135 -1.54312 2.73581 0
M  V30 247 H 21.0065 -0.755971 4.98298 0
M  V30 248 H 20.6085 0.427063 3.71554 0
M  V30 249 H 22.9005 -0.464147 6.75908 0
M  V30 250 H 23.8435 1.04023 7.00418 0
M  V30 251 H 24.2515 -0.0483344 5.64479 0
M  V30 252 N 23.6496 -1.47581 0.552962 0
M  V30 253 C 24.5796 -2.32762 -0.185451 0
M  V30 254 C 25.5606 -1.43527 -0.912905 0
M  V30 255 O 26.7456 -1.72388 -0.894201 0
M  V30 256 C 23.8756 -3.25219 -1.21859 0
M  V30 257 C 22.8296 -4.23661 -0.607864 0
M  V30 258 C 22.1556 -5.05413 -1.74533 0
M  V30 259 C 23.4556 -5.20481 0.435582 0
M  V30 260 H 25.1496 -2.94749 0.525684 0
M  V30 261 H 22.6956 -1.41738 0.254251 0
M  V30 262 H 24.6486 -3.8365 -1.7433 0
M  V30 263 H 23.3726 -2.61279 -1.95961 0
M  V30 264 H 22.0316 -3.66451 -0.104489 0
M  V30 265 H 21.6796 -4.3788 -2.47529 0
M  V30 266 H 21.3796 -5.72059 -1.34249 0
M  V30 267 H 22.9036 -5.66701 -2.27338 0
M  V30 268 H 24.3176 -5.733 -0.00290157 0
M  V30 269 H 22.7146 -5.95305 0.757067 0
M  V30 270 H 23.7846 -4.66217 1.33303 0
M  V30 271 N 25.1277 -0.289203 -1.54924 0
M  V30 272 C 26.0577 0.58549 -2.2604 0
M  V30 273 C 27.0387 1.14753 -1.25562 0
M  V30 274 O 28.2237 1.17906 -1.54311 0
M  V30 275 C 25.3537 1.76305 -2.99222 0
M  V30 276 C 24.3077 1.33191 -4.06748 0
M  V30 277 C 23.6337 2.5937 -4.6758 0
M  V30 278 C 24.9337 0.471775 -5.20165 0
M  V30 279 H 26.6277 -0.00763532 -2.99399 0
M  V30 280 H 24.1737 -0.00511229 -1.43999 0
M  V30 281 H 26.1267 2.38097 -3.47689 0
M  V30 282 H 24.8507 2.38223 -2.23422 0
M  V30 283 H 23.5097 0.737121 -3.59113 0
M  V30 284 H 23.1577 3.19576 -3.88433 0
M  V30 285 H 22.8577 2.31228 -5.40192 0
M  V30 286 H 24.3817 3.21985 -5.18804 0
M  V30 287 H 25.7957 0.995056 -5.64599 0
M  V30 288 H 24.1927 0.284639 -5.99425 0
M  V30 289 H 25.2627 -0.506041 -4.82252 0
M  V30 290 N 26.6058 1.57591 -0.0167156 0
M  V30 291 C 27.5688 2.08393 0.954204 0
M  V30 292 C 28.5688 0.996531 1.26198 0
M  V30 293 O 29.7588 1.25858 1.20438 0
M  V30 294 C 26.8908 2.5394 2.27436 0
M  V30 295 H 28.0838 2.95455 0.514451 0
M  V30 296 H 25.6368 1.54582 0.231089 0
M  V30 297 H 26.3718 1.70171 2.76066 0
M  V30 298 H 26.1568 3.33371 2.06412 0
M  V30 299 H 27.6468 2.93512 2.97053 0
M  V30 300 N 28.0839 -0.256276 1.55502 0
M  V30 301 C 29.0159 -1.33981 1.85962 0
M  V30 302 C 30.0289 -1.44743 0.745212 0
M  V30 303 O 31.2179 -1.4626 1.02324 0
M  V30 304 C 28.3179 -2.7194 2.02242 0
M  V30 305 C 27.4909 -2.83562 3.33033 0
M  V30 306 C 26.5499 -4.02304 3.39172 0
M  V30 307 O 25.5759 -3.92273 4.12444 0
M  V30 308 N 26.7779 -5.15045 2.67784 0
M  V30 309 H 29.5429 -1.08191 2.7949 0
M  V30 310 H 27.1039 -0.446388 1.55624 0
M  V30 311 H 29.0959 -3.49697 2.03701 0
M  V30 312 H 27.6659 -2.90479 1.15502 0
M  V30 313 H 26.8859 -1.92555 3.43971 0
M  V30 314 H 28.1739 -2.88271 4.19258 0
M  V30 315 H 27.5719 -5.26085 2.07968 0
M  V30 316 H 26.1289 -5.90972 2.74947 0
M  V30 317 N 29.562 -1.4872 -0.521534 0
M  V30 318 C 30.495 -1.58451 -1.64221 0
M  V30 319 C 31.473 -0.434513 -1.56687 0
M  V30 320 O 32.657 -0.647275 -1.77038 0
M  V30 321 C 29.784 -1.52037 -3.02659 0
M  V30 322 C 28.83 -2.71981 -3.28525 0
M  V30 323 S 29.663 -4.33869 -3.13876 0
M  V30 324 C 30.819 -4.30067 -4.54745 0
M  V30 325 H 31.052 -2.53256 -1.55719 0
M  V30 326 H 28.585 -1.37358 -0.705143 0
M  V30 327 H 30.543 -1.49023 -3.82495 0
M  V30 328 H 29.204 -0.585541 -3.08594 0
M  V30 329 H 28.397 -2.63656 -4.29536 0
M  V30 330 H 27.999 -2.72302 -2.56374 0
M  V30 331 H 30.291 -4.00521 -5.46433 0
M  V30 332 H 31.234 -5.31287 -4.68123 0
M  V30 333 H 31.642 -3.60419 -4.34463 0
M  V30 334 N 31.0401 0.771051 -1.3745 0
M  V30 335 C 32.4561 1.07171 -1.18265 0
M  V30 336 C 32.6561 2.01491 -0.019287 0
M  V30 337 O 31.7121 2.44244 0.640408 0
M  V30 338 C 33.0251 1.66854 -2.50161 0
M  V30 339 C 34.5731 1.79109 -2.56689 0
M  V30 340 C 35.0481 2.42205 -3.88717 0
M  V30 341 N 36.5391 2.49655 -3.90162 0
M  V30 342 C 37.2741 2.9933 -4.8907 0
M  V30 343 N 36.7701 3.49172 -5.98374 0
M  V30 344 N 38.5631 2.9821 -4.76474 0
M  V30 345 H 30.7141 0.144796 -2.11906 0
M  V30 346 H 32.9771 0.126863 -0.939473 0
M  V30 347 H 32.6831 1.05017 -3.35655 0
M  V30 348 H 32.5571 2.6614 -2.673 0
M  V30 349 H 34.9441 2.40077 -1.71601 0
M  V30 350 H 35.0251 0.785757 -2.43433 0
M  V30 351 H 34.6691 1.81875 -4.74219 0
M  V30 352 H 34.5991 3.43345 -3.99276 0
M  V30 353 H 37.0901 2.14383 -3.11205 0
M  V30 354 H 37.4031 3.8548 -6.69795 0
M  V30 355 H 35.7481 3.47275 -6.02018 0
M  V30 356 H 38.9391 2.58572 -3.90203 0
M  V30 357 H 39.1121 3.36613 -5.53711 0
M  V30 358 N 32.5182 1.22032 0.997298 0
M  V30 359 C 33.4652 0.986467 2.08656 0
M  V30 360 C 34.4352 -0.0902671 1.65855 0
M  V30 361 O 35.6202 0.0584294 1.90711 0
M  V30 362 C 32.7602 0.565569 3.40434 0
M  V30 363 C 31.8732 1.71259 3.96604 0
M  V30 364 C 31.0082 1.24011 5.16522 0
M  V30 365 C 30.0472 2.35896 5.64818 0
M  V30 366 N 29.1842 1.89726 6.7598 0
M  V30 367 H 34.0242 1.91892 2.27994 0
M  V30 368 H 31.5612 0.956199 1.11782 0
M  V30 369 H 33.5192 0.302738 4.161 0
M  V30 370 H 32.1492 -0.329879 3.2111 0
M  V30 371 H 31.2012 2.08986 3.17851 0
M  V30 372 H 32.5132 2.55436 4.28432 0
M  V30 373 H 31.6672 0.934395 5.99461 0
M  V30 374 H 30.4062 0.368487 4.86306 0
M  V30 375 H 29.4112 2.67261 4.8047 0
M  V30 376 H 30.6362 3.23567 5.97061 0
M  V30 377 H 28.5822 1.0492 6.47555 0
M  V30 378 H 28.4992 2.67471 7.07103 0
M  V30 379 H 29.7672 1.62211 7.62435 0
M  V30 380 N 33.9963 -1.19345 1.0293 0
M  V30 381 C 35.2453 -1.88363 0.721256 0
M  V30 382 C 35.5583 -1.80514 -0.753254 0
M  V30 383 O 36.7643 -2.44788 -1.17436 0
M  V30 384 C 35.2203 -3.37872 1.23978 0
M  V30 385 C 34.8283 -3.54278 2.74211 0
M  V30 386 C 36.5723 -4.12365 1.00775 0
M  V30 387 C 34.4793 -4.97682 3.19479 0
M  V30 388 H 33.4093 -0.705484 0.266098 0
M  V30 389 H 36.0603 -1.34928 1.24365 0
M  V30 390 H 34.4423 -3.90707 0.6453 0
M  V30 391 H 35.6163 -3.11769 3.39318 0
M  V30 392 H 33.9313 -2.93174 2.95699 0
M  V30 393 H 36.5283 -5.18119 1.32123 0
M  V30 394 H 36.8713 -4.16263 -0.0554308 0
M  V30 395 H 37.4043 -3.65668 1.56625 0
M  V30 396 H 34.1433 -4.98945 4.25128 0
M  V30 397 H 33.6633 -5.4095 2.591 0
M  V30 398 H 35.3423 -5.66337 3.12845 0
M  V30 399 N 35.4744 -0.807222 -1.35358 0
M  V30 400 C 36.6994 -0.399309 -2.0352 0
M  V30 401 C 37.1244 0.981986 -1.60433 0
M  V30 402 O 36.4824 1.63601 -0.781299 0
M  V30 403 C 36.5304 -0.491552 -3.57234 0
M  V30 404 O 35.6344 0.494754 -4.09421 0
M  V30 405 H 34.9754 -0.166682 -0.642739 0
M  V30 406 H 37.5054 -1.09328 -1.72941 0
M  V30 407 H 37.5154 -0.361588 -4.06395 0
M  V30 408 H 36.1904 -1.49907 -3.87944 0
M  V30 409 H 34.7674 0.324977 -3.71481 0
M  V30 410 N 36.9525 1.47285 -0.560781 0
M  V30 411 C 37.8825 2.32857 0.173105 0
M  V30 412 C 38.8635 1.44009 0.905281 0
M  V30 413 O 40.0485 1.7286 0.885046 0
M  V30 414 C 37.1785 3.25861 1.20133 0
M  V30 415 C 36.1325 4.23978 0.585388 0
M  V30 416 C 35.4585 5.06332 1.7185 0
M  V30 417 C 36.7585 5.20242 -0.463178 0
M  V30 418 H 38.4525 2.94466 -0.541307 0
M  V30 419 H 35.9985 1.41601 -0.261764 0
M  V30 420 H 37.9515 3.84569 1.72293 0
M  V30 421 H 36.6755 2.62315 1.94573 0
M  V30 422 H 35.3345 3.66501 0.085054 0
M  V30 423 H 34.9825 4.39186 2.45203 0
M  V30 424 H 34.6825 5.72762 1.31213 0
M  V30 425 H 36.2065 5.67899 2.24329 0
M  V30 426 H 37.6205 5.73293 -0.027502 0
M  V30 427 H 36.0175 5.94896 -0.788627 0
M  V30 428 H 37.0875 4.65504 -1.35773 0
M  V30 429 N 38.4306 0.297415 1.54768 0
M  V30 430 C 39.6776 -0.312913 2.00068 0
M  V30 431 C 40.0056 -1.54171 1.18582 0
M  V30 432 O 39.2606 -1.94108 0.249133 0
M  V30 433 C 39.5596 -0.717561 3.50123 0
M  V30 434 C 39.2256 0.409095 4.4904 0
M  V30 435 C 37.8876 0.718399 4.75807 0
M  V30 436 C 40.2396 1.16717 5.07963 0
M  V30 437 C 37.5676 1.78896 5.5876 0
M  V30 438 C 39.9196 2.22762 5.92081 0
M  V30 439 C 38.5836 2.54303 6.1716 0
M  V30 440 H 37.8536 -0.114503 0.7321 0
M  V30 441 H 40.5006 0.415767 1.86932 0
M  V30 442 H 38.8056 -1.52627 3.60849 0
M  V30 443 H 40.5026 -1.20091 3.82595 0
M  V30 444 H 37.0926 0.157918 4.28309 0
M  V30 445 H 41.2766 0.941466 4.87289 0
M  V30 446 H 36.5326 2.0381 5.7643 0
M  V30 447 H 40.7066 2.81962 6.36765 0
M  V30 448 H 38.3336 3.3739 6.81229 0
M  V30 449 N 39.9087 -1.5758 0.0250728 0
M  V30 450 C 41.1337 -1.96337 -0.668317 0
M  V30 451 C 41.5587 -0.901314 -1.651 0
M  V30 452 O 40.9167 0.138187 -1.80773 0
M  V30 453 C 40.9647 -3.34191 -1.35457 0
M  V30 454 O 40.0687 -3.30269 -2.46974 0
M  V30 455 H 39.4097 -0.640281 -0.175887 0
M  V30 456 H 41.9397 -2.0442 0.0857224 0
M  V30 457 H 41.9497 -3.70331 -1.71228 0
M  V30 458 H 40.6247 -4.11036 -0.634218 0
M  V30 459 H 39.2017 -3.05841 -2.13344 0
M  V30 460 N 41.3868 0.248026 -1.55636 0
M  V30 461 C 42.6268 0.983592 -1.79178 0
M  V30 462 C 42.9908 1.82567 -0.594414 0
M  V30 463 O 44.1918 2.59292 -0.708583 0
M  V30 464 C 42.4628 1.82228 -3.07454 0
M  V30 465 S 44.0218 2.61709 -3.52213 0
M  V30 466 H 40.8398 0.330866 -0.629324 0
M  V30 467 H 43.4418 0.251562 -1.93875 0
M  V30 468 H 42.1458 1.19333 -3.92668 0
M  V30 469 H 41.6768 2.59708 -2.95492 0
M  V30 470 H 43.6918 3.84655 -3.13457 0
M  V30 471 N 42.8649 1.48995 0.513639 0
M  V30 472 C 43.7949 1.67636 1.62544 0
M  V30 473 C 44.7759 0.525087 1.61793 0
M  V30 474 O 45.9609 0.759502 1.78732 0
M  V30 475 C 43.0909 1.73114 3.01079 0
M  V30 476 C 42.0449 2.87905 3.16693 0
M  V30 477 C 41.3709 2.78486 4.56453 0
M  V30 478 C 42.6709 4.29005 2.97913 0
M  V30 479 H 44.3649 2.60716 1.47198 0
M  V30 480 H 41.9109 1.25465 0.706714 0
M  V30 481 H 43.8639 1.84742 3.78746 0
M  V30 482 H 42.5879 0.766241 3.17484 0
M  V30 483 H 41.2469 2.75859 2.41448 0
M  V30 484 H 40.8949 1.7993 4.69717 0
M  V30 485 H 40.5949 3.55523 4.67843 0
M  V30 486 H 42.1189 2.92104 5.36197 0
M  V30 487 H 43.5329 4.41798 3.65359 0
M  V30 488 H 41.9299 5.07166 3.20785 0
M  V30 489 H 42.9999 4.44329 1.94165 0
M  V30 490 N 44.343 -0.763751 1.37857 0
M  V30 491 C 45.29 -1.87726 1.34267 0
M  V30 492 C 46.26 -1.64807 0.206879 0
M  V30 493 O 47.445 -1.86613 0.397508 0
M  V30 494 C 44.585 -3.24896 1.16346 0
M  V30 495 C 43.698 -3.59716 2.39225 0
M  V30 496 C 42.833 -4.86137 2.14114 0
M  V30 497 C 41.872 -5.13711 3.32817 0
M  V30 498 N 41.009 -6.31323 3.07206 0
M  V30 499 H 45.849 -1.90129 2.29466 0
M  V30 500 H 43.386 -0.929433 1.14017 0
M  V30 501 H 45.344 -4.04036 1.03975 0
M  V30 502 H 43.974 -3.21847 0.247909 0
M  V30 503 H 43.026 -2.75498 2.62307 0
M  V30 504 H 44.338 -3.76027 3.27728 0
M  V30 505 H 43.492 -5.73198 1.9882 0
M  V30 506 H 42.231 -4.71945 1.22961 0
M  V30 507 H 41.236 -4.25123 3.48641 0
M  V30 508 H 42.461 -5.29807 4.24832 0
M  V30 509 H 40.407 -6.18474 2.1869 0
M  V30 510 H 40.324 -6.48087 3.89254 0
M  V30 511 H 41.592 -7.213 2.95546 0
M  V30 512 N 45.8211 -1.22559 -0.990812 0
M  V30 513 C 47.0981 -0.959875 -1.70428 0
M  V30 514 C 47.4781 0.524455 -2.04481 0
M  V30 515 O 46.8261 1.49302 -1.72977 0
M  V30 516 C 47.0361 -1.85955 -2.95333 0
M  V30 517 C 48.3841 -2.11687 -3.68068 0
M  V30 518 O 49.4081 -1.8342 -3.05345 0
M  V30 519 O 48.2671 -2.59572 -4.80921 0
M  V30 520 H 45.3611 -0.361154 -0.743974 0
M  V30 521 H 47.9071 -1.33554 -1.04697 0
M  V30 522 H 46.6791 -2.86346 -2.66687 0
M  V30 523 H 46.3021 -1.4856 -3.68803 0
M  V30 524 N 47.2992 1.18797 -1.03562 0
M  V30 525 C 48.7152 1.40671 -0.753917 0
M  V30 526 C 48.9152 1.9043 0.658686 0
M  V30 527 O 47.9712 2.08538 1.42366 0
M  V30 528 C 49.2842 2.41192 -1.79574 0
M  V30 529 C 50.8322 2.54928 -1.81606 0
M  V30 530 C 51.3072 3.58709 -2.84766 0
M  V30 531 N 52.7982 3.66212 -2.83625 0
M  V30 532 C 53.5332 4.46225 -3.60098 0
M  V30 533 N 53.0292 5.29888 -4.46308 0
M  V30 534 N 54.8222 4.40939 -3.4861 0
M  V30 535 H 46.9732 0.848221 -1.94728 0
M  V30 536 H 49.2362 0.435081 -0.842264 0
M  V30 537 H 48.9422 2.11669 -2.80872 0
M  V30 538 H 48.8162 3.40467 -1.62365 0
M  V30 539 H 51.2032 2.83771 -0.809817 0
M  V30 540 H 51.2842 1.55784 -2.02891 0
M  V30 541 H 50.9282 3.30607 -3.85566 0
M  V30 542 H 50.8582 4.57519 -2.60737 0
M  V30 543 H 53.3492 3.06466 -2.21105 0
M  V30 544 H 53.6622 5.88078 -5.01382 0
M  V30 545 H 52.0072 5.29326 -4.50377 0
M  V30 546 H 55.1982 3.74624 -2.80668 0
M  V30 547 H 55.3712 5.03056 -4.08459 0
M  V30 548 N 48.7773 0.814389 1.34928 0
M  V30 549 C 49.7273 0.202752 2.27097 0
M  V30 550 C 50.7113 -0.62799 1.48139 0
M  V30 551 O 51.9033 -0.483969 1.70255 0
M  V30 552 C 49.0323 -0.64146 3.37254 0
M  V30 553 C 48.1183 0.19944 4.23631 0
M  V30 554 N 48.5093 1.26628 4.89693 0
M  V30 555 C 46.8073 -0.0176433 4.45997 0
M  V30 556 C 47.5083 1.78031 5.53787 0
M  V30 557 N 46.4843 1.08553 5.32651 0
M  V30 558 H 50.2863 1.01893 2.75672 0
M  V30 559 H 47.8003 0.656332 1.48546 0
M  V30 560 H 49.7973 -1.09575 4.02243 0
M  V30 561 H 48.4573 -1.4559 2.9023 0
M  V30 562 H 49.4683 1.64901 4.90946 0
M  V30 563 H 46.1453 -0.800601 4.09752 0
M  V30 564 H 47.5353 2.67236 6.16469 0
M  V30 565 N 50.2554 -1.46986 0.568584 0
M  V30 566 C 51.5324 -1.95592 -0.0174074 0
M  V30 567 C 51.9124 -1.51124 -1.47393 0
M  V30 568 O 51.2604 -0.755329 -2.15655 0
M  V30 569 C 51.4704 -3.48719 0.139913 0
M  V30 570 C 52.8184 -4.246 0.000426376 0
M  V30 571 O 53.8424 -3.56135 0.0680316 0
M  V30 572 O 52.7014 -5.46302 -0.146988 0
M  V30 573 H 49.7954 -0.82498 -0.0577599 0
M  V30 574 H 52.3414 -1.57335 0.635909 0
M  V30 575 H 51.1134 -3.73927 1.15301 0
M  V30 576 H 50.7364 -3.93771 -0.550491 0
M  V30 577 N 51.7335 -0.305618 -1.54608 0
M  V30 578 C 52.9805 0.302298 -2.00231 0
M  V30 579 C 53.3085 1.5354 -1.19398 0
M  V30 580 O 52.5635 1.93973 -0.259423 0
M  V30 581 C 52.8625 0.698983 -3.50498 0
M  V30 582 C 52.5285 -0.432903 -4.48817 0
M  V30 583 C 51.1905 -0.743622 -4.75419 0
M  V30 584 C 53.5425 -1.19409 -5.07337 0
M  V30 585 C 50.8705 -1.81857 -5.57804 0
M  V30 586 C 53.2225 -2.25899 -5.90891 0
M  V30 587 C 51.8865 -2.57572 -6.15803 0
M  V30 588 H 51.1565 0.110619 -0.732697 0
M  V30 589 H 53.8035 -0.425674 -1.86709 0
M  V30 590 H 52.1085 1.50711 -3.61654 0
M  V30 591 H 53.8055 1.1806 -3.83227 0
M  V30 592 H 50.3955 -0.18063 -4.28219 0
M  V30 593 H 54.5795 -0.967295 -4.86782 0
M  V30 594 H 49.8355 -2.06864 -5.75341 0
M  V30 595 H 54.0095 -2.85335 -6.35261 0
M  V30 596 H 51.6365 -3.40998 -6.7943 0
M  V30 597 N 53.2116 1.57565 -0.0334293 0
M  V30 598 C 54.4596 1.91598 0.642999 0
M  V30 599 C 54.7806 0.910847 1.7242 0
M  V30 600 O 54.0506 -0.0469931 1.95844 0
M  V30 601 H 52.6306 0.707228 0.240496 0
M  V30 602 H 55.2926 1.94726 -0.0822488 0
M  V30 603 H 54.3886 2.92336 1.09298 0
M  V30 604 N 54.6897 -0.239769 1.55765 0
M  V30 605 C 55.9367 -0.966801 1.7793 0
M  V30 606 C 56.2647 -1.85046 0.599015 0
M  V30 607 O 55.5197 -1.91197 -0.417395 0
M  V30 608 C 55.8187 -1.852 3.05672 0
M  V30 609 C 55.4847 -1.1231 4.36689 0
M  V30 610 C 54.1467 -0.921689 4.72291 0
M  V30 611 C 56.4987 -0.607019 5.17653 0
M  V30 612 C 53.8267 -0.191996 5.86386 0
M  V30 613 C 56.1787 0.109241 6.32506 0
M  V30 614 C 54.8427 0.322073 6.66723 0
M  V30 615 H 54.1127 -0.353778 0.651093 0
M  V30 616 H 56.7597 -0.23634 1.90036 0
M  V30 617 H 55.0647 -2.64975 2.8861 0
M  V30 618 H 56.7617 -2.41635 3.20021 0
M  V30 619 H 53.3517 -1.29004 4.08725 0
M  V30 620 H 57.5357 -0.750153 4.90598 0
M  V30 621 H 52.7917 -0.0166949 6.11398 0
M  V30 622 H 56.9657 0.516737 6.9448 0
M  V30 623 H 54.5927 0.88944 7.54979 0
M  V30 624 N 56.1678 -1.49265 -0.50573 0
M  V30 625 C 57.5788 -1.51769 -1.08734 0
M  V30 626 C 57.9298 -0.301192 -1.93874 0
M  V30 627 O 57.0548 0.589456 -2.08217 0
M  V30 628 C 57.6498 -2.75017 -1.97867 0
M  V30 629 C 56.2088 -2.80314 -2.51199 0
M  V30 630 C 55.3558 -2.4562 -1.28709 0
M  V30 631 H 58.3068 -1.56031 -0.289855 0
M  V30 632 H 58.3278 -2.5491 -2.82491 0
M  V30 633 H 57.8398 -3.63539 -1.35873 0
M  V30 634 H 55.9408 -1.96061 -3.16845 0
M  V30 635 H 56.0538 -3.82366 -2.88675 0
M  V30 636 H 54.4178 -1.97297 -1.61078 0
M  V30 637 H 55.2008 -3.36411 -0.6843 0
M  V30 638 N 57.6459 0.756429 -1.3826 0
M  V30 639 C 58.5779 1.87971 -1.31147 0
M  V30 640 C 59.5909 1.61248 -0.224239 0
M  V30 641 O 60.7799 1.71881 -0.481581 0
M  V30 642 C 57.8799 3.23545 -1.00857 0
M  V30 643 C 57.0529 3.77794 -2.20432 0
M  V30 644 C 56.1119 4.91877 -1.86931 0
M  V30 645 O 55.1379 5.06659 -2.59395 0
M  V30 646 N 56.3399 5.74643 -0.822568 0
M  V30 647 H 59.1049 1.94585 -2.2794 0
M  V30 648 H 56.6659 0.936234 -1.32084 0
M  V30 649 H 58.6579 3.97403 -0.765021 0
M  V30 650 H 57.2279 3.12335 -0.128687 0
M  V30 651 H 56.4479 2.95534 -2.6087 0
M  V30 652 H 57.7359 4.10771 -3.00241 0
M  V30 653 H 57.1339 5.65266 -0.221575 0
M  V30 654 H 55.6909 6.48661 -0.638899 0
M  V30 655 N 59.124 1.23083 0.984299 0
M  V30 656 C 60.034 1.02515 2.11016 0
M  V30 657 C 61.05 -0.0291702 1.73976 0
M  V30 658 O 62.226 0.165434 2.00719 0
M  V30 659 C 59.291 0.614673 3.41208 0
M  V30 660 C 58.352 1.74359 3.92297 0
M  V30 661 C 57.585 1.35261 5.16275 0
M  V30 662 O 57.808 0.235136 5.69915 0
M  V30 663 O 56.742 2.17227 5.61334 0
M  V30 664 H 60.568 1.96862 2.31255 0
M  V30 665 H 58.153 1.01753 1.09392 0
M  V30 666 H 60.035 0.396518 4.1953 0
M  V30 667 H 58.71 -0.299851 3.22308 0
M  V30 668 H 57.617 2.01635 3.1511 0
M  V30 669 H 58.95 2.63629 4.15645 0
M  V30 670 N 60.6021 -1.18246 1.0419 0
M  V30 671 C 61.5121 -2.25574 0.644476 0
M  V30 672 C 62.5281 -1.70845 -0.329826 0
M  V30 673 O 63.7041 -2.00554 -0.184443 0
M  V30 674 C 60.7691 -3.46697 0.014877 0
M  V30 675 C 59.8301 -4.16554 1.03834 0
M  V30 676 C 59.0631 -5.31894 0.438692 0
M  V30 677 O 59.2861 -5.65385 -0.754752 0
M  V30 678 O 58.2201 -5.90459 1.168 0
M  V30 679 H 62.0461 -2.61836 1.53869 0
M  V30 680 H 59.6311 -1.25352 0.812854 0
M  V30 681 H 61.5131 -4.20062 -0.335538 0
M  V30 682 H 60.1881 -3.12255 -0.853138 0
M  V30 683 H 59.0951 -3.45251 1.44057 0
M  V30 684 H 60.4281 -4.54998 1.87716 0
M  V30 685 N 62.0802 -0.821533 -1.34494 0
M  V30 686 C 63.3272 -0.408946 -1.98328 0
M  V30 687 C 63.6552 1.02764 -1.65136 0
M  V30 688 O 62.9102 1.73026 -0.914349 0
M  V30 689 C 63.2092 -0.556512 -3.53041 0
M  V30 690 C 62.8752 -1.95861 -4.0614 0
M  V30 691 C 61.5372 -2.34217 -4.20352 0
M  V30 692 C 63.8892 -2.87523 -4.34718 0
M  V30 693 C 61.2172 -3.63572 -4.6047 0
M  V30 694 C 63.5692 -4.1634 -4.76281 0
M  V30 695 C 62.2332 -4.54675 -4.88699 0
M  V30 696 H 61.5032 -0.149644 -0.725732 0
M  V30 697 H 64.1502 -1.04521 -1.6046 0
M  V30 698 H 62.4552 0.163148 -3.9146 0
M  V30 699 H 64.1522 -0.217826 -4.00408 0
M  V30 700 H 60.7422 -1.65066 -3.95539 0
M  V30 701 H 64.9262 -2.59133 -4.23277 0
M  V30 702 H 60.1822 -3.93101 -4.68275 0
M  V30 703 H 64.3562 -4.87455 -4.97354 0
M  V30 704 H 61.9832 -5.54959 -5.19542 0
M  V30 705 N 63.5583 1.46682 -0.576371 0
M  V30 706 C 64.8063 2.02013 -0.0594163 0
M  V30 707 C 65.1273 1.45101 1.30271 0
M  V30 708 O 64.3973 0.633317 1.8538 0
M  V30 709 H 62.9773 0.746759 -0.0189745 0
M  V30 710 H 65.6393 1.79862 -0.750717 0
M  V30 711 H 64.7353 3.12097 0.014345 0
M  V30 712 N 65.0364 0.313813 1.54444 0
M  V30 713 C 65.9844 -0.572171 2.25453 0
M  V30 714 C 66.9784 -1.12657 1.2651 0
M  V30 715 O 68.1844 -1.07573 1.44319 0
M  V30 716 H 64.5594 -0.203146 0.724041 0
M  V30 717 H 66.5304 0.0491145 2.9836 0
M  V30 718 C 65.2794 -1.72626 3.0182 0
M  V30 719 H 64.6024 -1.30891 3.77767 0
M  V30 720 H 66.0424 -2.32199 3.54767 0
M  V30 721 C 64.5014 -2.63806 2.09542 0
M  V30 722 O 65.0314 -3.65256 1.67185 0
M  V30 723 N 63.2374 -2.31824 1.75232 0
M  V30 724 H 62.7844 -1.49368 2.09873 0
M  V30 725 H 62.7424 -2.93095 1.13767 0
M  V30 726 N 66.5145 -1.57545 0.0417849 0
M  V30 727 C 67.4465 -2.07904 -0.964799 0
M  V30 728 C 68.4595 -1.00497 -1.28079 0
M  V30 729 O 69.6485 -1.28087 -1.24322 0
M  V30 730 C 66.7485 -2.49928 -2.28887 0
M  V30 731 C 65.9215 -3.80562 -2.15619 0
M  V30 732 C 64.9805 -4.08999 -3.31069 0
M  V30 733 O 64.0065 -4.79061 -3.0739 0
M  V30 734 N 65.2085 -3.6017 -4.55256 0
M  V30 735 H 67.9735 -2.94886 -0.535029 0
M  V30 736 H 65.5345 -1.61252 -0.144681 0
M  V30 737 H 67.5265 -2.66034 -3.04972 0
M  V30 738 H 66.0965 -1.68245 -2.63463 0
M  V30 739 H 65.3165 -3.74129 -1.24183 0
M  V30 740 H 66.6045 -4.66126 -2.03971 0
M  V30 741 H 66.0025 -3.03512 -4.77386 0
M  V30 742 H 64.5595 -3.81532 -5.28466 0
M  V30 743 N 67.9926 0.231505 -1.5589 0
M  V30 744 C 69.2396 0.957352 -1.78441 0
M  V30 745 C 69.5676 1.84726 -0.60882 0
M  V30 746 O 68.8226 1.91416 0.40725 0
M  V30 747 C 69.1216 1.83577 -3.0665 0
M  V30 748 C 68.7876 1.09993 -4.37278 0
M  V30 749 C 67.4496 0.896629 -4.72773 0
M  V30 750 C 69.8016 0.579558 -5.17968 0
M  V30 751 C 67.1296 0.160896 -5.86479 0
M  V30 752 C 69.4816 -0.142783 -6.32439 0
M  V30 753 C 68.1456 -0.357427 -6.66542 0
M  V30 754 H 67.4156 0.35032 -0.65296 0
M  V30 755 H 70.0626 0.226259 -1.90159 0
M  V30 756 H 68.3676 2.63441 -2.90011 0
M  V30 757 H 70.0646 2.39934 -3.21298 0
M  V30 758 H 66.6546 1.26835 -4.09403 0
M  V30 759 H 70.8386 0.724125 -4.90989 0
M  V30 760 H 66.0946 -0.0157293 -6.11398 0
M  V30 761 H 70.2686 -0.553559 -6.94196 0
M  V30 762 H 67.8956 -0.929466 -7.54497 0
M  V30 763 N 69.4707 1.49531 0.497807 0
M  V30 764 C 70.4027 1.62559 1.61578 0
M  V30 765 C 71.4157 0.508134 1.54667 0
M  V30 766 O 72.6047 0.780309 1.60541 0
M  V30 767 C 69.7047 1.56925 3.00379 0
M  V30 768 C 68.8777 2.84257 3.3244 0
M  V30 769 C 67.9367 2.71632 4.50669 0
M  V30 770 O 66.9627 3.4557 4.52294 0
M  V30 771 N 68.1647 1.83391 5.5077 0
M  V30 772 H 70.9297 2.58981 1.50828 0
M  V30 773 H 68.4907 1.4666 0.685743 0
M  V30 774 H 70.4827 1.46129 3.77397 0
M  V30 775 H 69.0527 0.683483 3.05037 0
M  V30 776 H 68.2727 3.09381 2.44289 0
M  V30 777 H 69.5607 3.68666 3.5066 0
M  V30 778 H 68.9587 1.22583 5.52259 0
M  V30 779 H 67.5157 1.78515 6.26878 0
M  V30 780 N 70.9488 -0.749086 1.3866 0
M  V30 781 C 71.8958 -1.86291 1.36251 0
M  V30 782 C 72.8658 -1.64578 0.224347 0
M  V30 783 O 74.0508 -1.86181 0.417279 0
M  V30 784 C 71.1908 -3.23644 1.19786 0
M  V30 785 C 70.3038 -3.57158 2.43027 0
M  V30 786 C 69.4388 -4.83838 2.19258 0
M  V30 787 C 68.4778 -5.10152 3.38247 0
M  V30 788 N 67.6148 -6.28029 3.13884 0
M  V30 789 H 72.4548 -1.87685 2.3147 0
M  V30 790 H 69.9918 -0.917287 1.14997 0
M  V30 791 H 71.9498 -4.0291 1.08254 0
M  V30 792 H 70.5798 -3.21566 0.282031 0
M  V30 793 H 69.6318 -2.72701 2.65214 0
M  V30 794 H 70.9438 -3.7253 3.31697 0
M  V30 795 H 70.0978 -5.71057 2.04888 0
M  V30 796 H 68.8368 -4.70614 1.2796 0
M  V30 797 H 67.8418 -4.21401 3.53131 0
M  V30 798 H 69.0668 -5.25271 4.30427 0
M  V30 799 H 67.0128 -6.1612 2.25238 0
M  V30 800 H 66.9298 -6.43922 3.96106 0
M  V30 801 H 68.1978 -7.18124 3.03179 0
M  V30 802 N 72.4269 -1.23603 -0.977757 0
M  V30 803 C 73.3899 -1.02069 -2.05218 0
M  V30 804 C 74.3899 0.0184305 -1.60789 0
M  V30 805 O 75.5799 -0.221569 -1.72785 0
M  V30 806 C 72.7119 -0.544926 -3.36517 0
M  V30 807 H 73.9049 -1.9742 -2.25755 0
M  V30 808 H 71.4579 -1.05684 -1.15155 0
M  V30 809 H 72.1929 0.412241 -3.21669 0
M  V30 810 H 71.9779 -1.2948 -3.70105 0
M  V30 811 H 73.4679 -0.414985 -4.15533 0
M  V30 812 N 73.905 1.17692 -1.04816 0
M  V30 813 C 74.815 2.25229 -0.65643 0
M  V30 814 C 75.831 1.71018 0.320761 0
M  V30 815 O 77.007 2.00649 0.173805 0
M  V30 816 C 74.072 3.46684 -0.0332629 0
M  V30 817 C 73.133 4.15997 -1.06042 0
M  V30 818 C 72.366 5.31654 -0.466893 0
M  V30 819 O 72.589 5.65777 0.724758 0
M  V30 820 O 71.523 5.89831 -1.1993 0
M  V30 821 H 75.349 2.61016 -1.55255 0
M  V30 822 H 72.934 1.24919 -0.81949 0
M  V30 823 H 74.816 4.20234 0.313256 0
M  V30 824 H 73.491 3.12703 0.836566 0
M  V30 825 H 72.398 3.44482 -1.45886 0
M  V30 826 H 73.731 4.53996 -1.90127 0
M  V30 827 N 75.3831 0.828654 1.34056 0
M  V30 828 C 76.6111 0.43262 2.02326 0
M  V30 829 C 77.0261 -0.963147 1.62385 0
M  V30 830 O 76.3831 -1.62425 0.832121 0
M  V30 831 C 76.4341 0.53182 3.57567 0
M  V30 832 O 76.1551 1.87258 3.96063 0
M  V30 833 C 77.6561 0.131422 4.43105 0
M  V30 834 H 74.8761 0.172923 0.648335 0
M  V30 835 H 77.4201 1.1184 1.71208 0
M  V30 836 H 75.5751 -0.105938 3.87255 0
M  V30 837 H 75.9891 1.85087 4.90758 0
M  V30 838 H 77.4631 0.251904 5.51425 0
M  V30 839 H 77.9401 -0.925645 4.29335 0
M  V30 840 H 78.5461 0.743207 4.18756 0
M  V30 841 N 76.8612 -1.46375 0.584142 0
M  V30 842 C 78.1102 -2.01585 0.0679741 0
M  V30 843 C 78.4232 -1.46109 -1.30045 0
M  V30 844 O 79.6292 -1.93148 -1.90804 0
M  V30 845 C 78.0852 -3.5983 0.0709207 0
M  V30 846 C 77.6932 -4.24303 1.43775 0
M  V30 847 C 79.4372 -4.22693 -0.391228 0
M  V30 848 C 77.3442 -5.74631 1.39834 0
M  V30 849 H 76.2742 -0.753689 0.0216421 0
M  V30 850 H 78.9252 -1.68093 0.736001 0
M  V30 851 H 77.3072 -3.90405 -0.663299 0
M  V30 852 H 78.4812 -4.05335 2.19181 0
M  V30 853 H 76.7962 -3.73539 1.84004 0
M  V30 854 H 79.3932 -5.3289 -0.439524 0
M  V30 855 H 79.7362 -3.91728 -1.40906 0
M  V30 856 H 80.2692 -3.96749 0.288974 0
M  V30 857 H 77.0082 -6.10258 2.39303 0
M  V30 858 H 76.5282 -5.95858 0.686505 0
M  V30 859 H 78.2072 -6.37375 1.11187 0
M  V30 860 N 78.3393 -0.321999 -1.54275 0
M  V30 861 C 79.7503 0.166384 -1.85957 0
M  V30 862 C 80.1013 1.51747 -1.24367 0
M  V30 863 O 79.2263 2.09317 -0.549124 0
M  V30 864 C 79.8213 0.308681 -3.37391 0
M  V30 865 C 78.3803 0.741286 -3.69028 0
M  V30 866 C 77.5273 -0.137937 -2.76957 0
M  V30 867 H 80.4783 -0.542335 -1.49146 0
M  V30 868 H 80.4993 1.13984 -3.63026 0
M  V30 869 H 80.0113 -0.674809 -3.82188 0
M  V30 870 H 78.1123 1.73458 -3.29762 0
M  V30 871 H 78.2253 0.546118 -4.75977 0
M  V30 872 H 76.5893 0.386251 -2.51754 0
M  V30 873 H 77.3723 -1.11816 -3.2458 0
M  V30 874 N 79.8174 1.5752 -0.0501392 0
M  V30 875 C 81.0634 1.92936 0.624798 0
M  V30 876 C 81.3964 0.928685 1.70555 0
M  V30 877 O 80.6714 -0.0454779 1.94447 0
M  V30 878 C 80.9544 3.38737 1.22185 0
M  V30 879 C 80.8074 4.49552 0.149218 0
M  V30 880 C 82.1264 3.84913 2.13378 0
M  V30 881 H 79.2454 0.701604 0.225657 0
M  V30 882 H 81.8874 1.89671 -0.111693 0
M  V30 883 H 80.0374 3.4165 1.84953 0
M  V30 884 H 81.7094 4.58768 -0.482648 0
M  V30 885 H 79.9524 4.30638 -0.522841 0
M  V30 886 H 80.6234 5.48653 0.606966 0
M  V30 887 H 83.0994 3.8387 1.60572 0
M  V30 888 H 81.9754 4.87584 2.52097 0
M  V30 889 H 82.2364 3.21611 3.03346 0
M  V30 890 N 81.2955 -0.223234 1.56011 0
M  V30 891 C 82.2255 -1.27988 1.95298 0
M  V30 892 C 83.2065 -1.48976 0.820979 0
M  V30 893 O 84.3915 -1.61188 1.08315 0
M  V30 894 C 81.5215 -2.63 2.26822 0
M  V30 895 C 80.4755 -2.56671 3.42497 0
M  V30 896 C 79.8015 -3.95697 3.59622 0
M  V30 897 C 81.1015 -2.11601 4.77517 0
M  V30 898 H 82.7955 -0.953525 2.8381 0
M  V30 899 H 80.3415 -0.457244 1.36548 0
M  V30 900 H 82.2945 -3.37077 2.52898 0
M  V30 901 H 81.0185 -2.9732 1.35161 0
M  V30 902 H 79.6775 -1.85051 3.16467 0
M  V30 903 H 79.3255 -4.27322 2.6534 0
M  V30 904 H 79.0255 -3.92345 4.37424 0
M  V30 905 H 80.5495 -4.71438 3.88044 0
M  V30 906 H 81.9635 -2.7542 5.02809 0
M  V30 907 H 80.3605 -2.19311 5.5859 0
M  V30 908 H 81.4305 -1.06824 4.72987 0
M  V30 909 N 82.7736 -1.49793 -0.48987 0
M  V30 910 C 83.7236 -1.63673 -1.5873 0
M  V30 911 C 84.7076 -0.491956 -1.53195 0
M  V30 912 O 85.8996 -0.745461 -1.60536 0
M  V30 913 C 83.0286 -1.71689 -2.97284 0
M  V30 914 C 82.1146 -2.91781 -3.07774 0
M  V30 915 N 82.5056 -4.15714 -2.88124 0
M  V30 916 C 80.8036 -2.89949 -3.38889 0
M  V30 917 C 81.5046 -4.965 -3.03088 0
M  V30 918 N 80.4806 -4.30083 -3.3246 0
M  V30 919 H 84.2826 -2.57204 -1.42208 0
M  V30 920 H 81.7966 -1.46719 -0.69623 0
M  V30 921 H 83.7936 -1.79732 -3.76168 0
M  V30 922 H 82.4536 -0.793024 -3.14867 0
M  V30 923 H 83.4646 -4.45515 -2.64077 0
M  V30 924 H 80.1416 -2.06987 -3.62578 0
M  V30 925 H 81.5316 -6.04991 -2.92294 0
M  V30 926 N 84.2517 0.741722 -1.39055 0
M  V30 927 C 85.1617 1.88621 -1.39496 0
M  V30 928 C 86.1777 1.71557 -0.290578 0
M  V30 929 O 87.3537 1.94275 -0.530954 0
M  V30 930 C 84.4187 3.24134 -1.23037 0
M  V30 931 C 83.4797 3.5364 -2.43387 0
M  V30 932 C 82.7127 4.82687 -2.27703 0
M  V30 933 O 82.9357 5.55922 -1.27696 0
M  V30 934 O 81.8697 5.1194 -3.16545 0
M  V30 935 H 85.6957 1.91203 -2.35956 0
M  V30 936 H 83.2807 0.888625 -1.20099 0
M  V30 937 H 85.1627 4.0513 -1.15964 0
M  V30 938 H 83.8377 3.22337 -0.296691 0
M  V30 939 H 82.7447 2.72758 -2.56035 0
M  V30 940 H 84.0777 3.60209 -3.35425 0
M  V30 941 N 85.7298 1.2412 0.971189 0
M  V30 942 C 86.6628 0.97373 2.06382 0
M  V30 943 C 87.6408 -0.0912662 1.62344 0
M  V30 944 O 88.8248 0.0449365 1.88446 0
M  V30 945 C 85.9518 0.468746 3.35441 0
M  V30 946 C 84.9978 1.52176 3.98428 0
M  V30 947 S 85.8308 3.10203 4.36503 0
M  V30 948 C 86.9868 2.61398 5.68702 0
M  V30 949 H 87.2198 1.89893 2.28753 0
M  V30 950 H 84.7528 1.07466 1.10862 0
M  V30 951 H 86.7108 0.184012 4.10087 0
M  V30 952 H 85.3718 -0.435688 3.11064 0
M  V30 953 H 84.5648 1.11876 4.91426 0
M  V30 954 H 84.1668 1.75632 3.30196 0
M  V30 955 H 86.4588 2.03992 6.4606 0
M  V30 956 H 87.4018 3.52972 6.13854 0
M  V30 957 H 87.8098 2.01941 5.27143 0
M  V30 958 N 87.2079 -1.17134 1.05439 0
M  V30 959 C 88.4569 -1.86791 0.761049 0
M  V30 960 C 88.7699 -1.82072 -0.714795 0
M  V30 961 O 89.9759 -2.47223 -1.12218 0
M  V30 962 C 88.4319 -3.35166 1.31117 0
M  V30 963 C 88.0399 -3.48381 2.81664 0
M  V30 964 C 89.7839 -4.10134 1.09499 0
M  V30 965 C 87.6909 -4.90793 3.29964 0
M  V30 966 H 86.6209 -0.699681 0.281002 0
M  V30 967 H 89.2719 -1.3226 1.27199 0
M  V30 968 H 87.6539 -3.8925 0.72803 0
M  V30 969 H 88.8279 -3.04502 3.45855 0
M  V30 970 H 87.1429 -2.86836 3.01851 0
M  V30 971 H 89.7399 -5.152 1.43084 0
M  V30 972 H 90.0829 -4.16287 0.0328772 0
M  V30 973 H 90.6159 -3.62264 1.64346 0
M  V30 974 H 87.3549 -4.89816 4.35616 0
M  V30 975 H 86.8749 -5.35333 2.70516 0
M  V30 976 H 88.5539 -5.59573 3.24787 0
M  V30 977 N 88.686 -0.835752 -1.33615 0
M  V30 978 C 89.618 -0.224151 -2.28101 0
M  V30 979 C 90.631 0.593331 -1.51603 0
M  V30 980 O 91.82 0.420911 -1.73466 0
M  V30 981 C 88.92 0.703309 -3.31522 0
M  V30 982 C 88.093 -0.0741528 -4.37337 0
M  V30 983 C 87.152 0.776176 -5.20444 0
M  V30 984 O 86.178 0.216506 -5.68788 0
M  V30 985 N 87.38 2.09401 -5.41416 0
M  V30 986 H 90.145 -1.03598 -2.81225 0
M  V30 987 H 87.706 -0.69392 -1.46275 0
M  V30 988 H 89.698 1.27707 -3.84022 0
M  V30 989 H 88.268 1.41585 -2.78698 0
M  V30 990 H 87.488 -0.82928 -3.85378 0
M  V30 991 H 88.776 -0.608863 -5.05144 0
M  V30 992 H 88.174 2.57229 -5.03835 0
M  V30 993 H 86.731 2.61633 -5.96985 0
M  V30 994 N 90.1641 1.46063 -0.591896 0
M  V30 995 C 91.0961 2.28539 0.174001 0
M  V30 996 C 92.1091 1.39047 0.846753 0
M  V30 997 O 93.2981 1.63564 0.714774 0
M  V30 998 C 90.3981 3.14347 1.26645 0
M  V30 999 C 89.5711 4.32021 0.683856 0
M  V30 1000 C 88.6301 4.99157 1.66518 0
M  V30 1001 O 87.6561 5.56458 1.19763 0
M  V30 1002 N 88.8581 4.97005 2.99943 0
M  V30 1003 H 91.6231 2.94911 -0.533633 0
M  V30 1004 H 89.1841 1.56077 -0.430294 0
M  V30 1005 H 91.1761 3.56125 1.92242 0
M  V30 1006 H 89.7461 2.49988 1.87682 0
M  V30 1007 H 88.9661 3.93915 -0.1498 0
M  V30 1008 H 90.2541 5.08059 0.274567 0
M  V30 1009 H 89.6521 4.51714 3.40545 0
M  V30 1010 H 88.2091 5.42696 3.61004 0
M  V30 1011 N 91.6422 0.330177 1.54103 0
M  V30 1012 C 92.8912 -0.271336 1.99867 0
M  V30 1013 C 93.2042 -1.52723 1.22209 0
M  V30 1014 O 94.4102 -2.20515 1.58383 0
M  V30 1015 C 92.8662 -0.534032 3.55916 0
M  V30 1016 C 92.4742 0.705193 4.42415 0
M  V30 1017 C 94.2182 -1.09514 4.1013 0
M  V30 1018 C 92.1252 0.414035 5.89949 0
M  V30 1019 H 91.0552 -0.105166 0.74663 0
M  V30 1020 H 93.7062 0.443429 1.78062 0
M  V30 1021 H 92.0882 -1.30915 3.73734 0
M  V30 1022 H 93.2622 1.4804 4.36372 0
M  V30 1023 H 91.5772 1.18698 3.99124 0
M  V30 1024 H 94.1742 -1.3277 5.17954 0
M  V30 1025 H 94.5172 -2.04656 3.62521 0
M  V30 1026 H 95.0502 -0.381038 3.95971 0
M  V30 1027 H 91.7892 1.33481 6.41766 0
M  V30 1028 H 91.3092 -0.323336 5.98928 0
M  V30 1029 H 92.9882 0.0263105 6.46995 0
M  V30 1030 N 93.1203 -1.57491 0.0584922 0
M  V30 1031 C 94.3673 -1.92978 -0.613648 0
M  V30 1032 C 94.6953 -0.937461 -1.70417 0
M  V30 1033 O 93.9503 0.049078 -1.95638 0
M  V30 1034 C 94.2493 -3.3513 -1.24188 0
M  V30 1035 C 93.9153 -4.50037 -0.278826 0
M  V30 1036 C 92.5773 -4.81198 -0.0138447 0
M  V30 1037 C 94.9293 -5.19807 0.380777 0
M  V30 1038 C 92.2573 -5.79473 0.918052 0
M  V30 1039 C 94.6093 -6.19079 1.30091 0
M  V30 1040 C 93.2733 -6.48665 1.57449 0
M  V30 1041 H 92.5433 -0.706157 -0.22455 0
M  V30 1042 H 95.1903 -1.91082 0.126533 0
M  V30 1043 H 93.4953 -3.33429 -2.05749 0
M  V30 1044 H 95.1923 -3.59871 -1.769 0
M  V30 1045 H 91.7823 -4.25726 -0.495539 0
M  V30 1046 H 95.9663 -4.95939 0.189158 0
M  V30 1047 H 91.2223 -6.00727 1.1374 0
M  V30 1048 H 95.3963 -6.7225 1.81804 0
M  V30 1049 H 93.0233 -7.24628 2.29822 0
M  V30 1050 N 94.5984 0.214957 -1.56127 0
M  V30 1051 C 95.5464 1.28601 -1.93816 0
M  V30 1052 C 96.5404 1.48175 -0.821016 0
M  V30 1053 O 97.7464 1.49271 -1.0059 0
M  V30 1054 H 94.1214 0.431302 -0.616022 0
M  V30 1055 H 96.0924 0.940991 -2.83175 0
M  V30 1056 C 94.8414 2.62779 -2.27689 0
M  V30 1057 H 94.1644 2.48527 -3.13168 0
M  V30 1058 H 95.6044 3.36517 -2.57939 0
M  V30 1059 C 94.0634 3.18285 -1.10436 0
M  V30 1060 O 94.5934 4.00002 -0.368945 0
M  V30 1061 N 92.7994 2.7675 -0.886433 0
M  V30 1062 H 92.3464 2.10404 -1.48619 0
M  V30 1063 H 92.3044 3.14229 -0.103656 0
M  V30 1064 N 96.0765 1.50051 0.48192 0
M  V30 1065 C 97.0065 1.71046 1.58951 0
M  V30 1066 C 97.9875 0.559288 1.60642 0
M  V30 1067 O 99.1725 0.797243 1.77081 0
M  V30 1068 C 96.3025 1.79462 2.97339 0
M  V30 1069 C 95.2565 2.94558 3.10515 0
M  V30 1070 C 94.5825 2.88105 4.50444 0
M  V30 1071 C 95.8825 4.35227 2.88747 0
M  V30 1072 H 97.5765 2.6378 1.41635 0
M  V30 1073 H 95.1225 1.26936 0.679942 0
M  V30 1074 H 97.0755 1.92734 3.74742 0
M  V30 1075 H 95.7995 0.833412 3.15788 0
M  V30 1076 H 94.4585 2.80918 2.35543 0
M  V30 1077 H 94.1065 1.89853 4.65795 0
M  V30 1078 H 93.8065 3.65366 4.60197 0
M  V30 1079 H 95.3305 3.03412 5.29881 0
M  V30 1080 H 96.7445 4.49449 3.55905 0
M  V30 1081 H 95.1415 5.13856 3.09955 0
M  V30 1082 H 96.2115 4.48347 1.84696 0
M  V30 1083 N 97.5546 -0.734337 1.39446 0
M  V30 1084 C 98.8016 -1.49391 1.36706 0
M  V30 1085 C 99.1296 -1.94465 -0.0367813 0
M  V30 1086 O 98.3846 -1.67154 -1.01774 0
M  V30 1087 C 98.6836 -2.74711 2.28623 0
M  V30 1088 C 98.3496 -2.48501 3.76242 0
M  V30 1089 C 97.0116 -2.41062 4.16464 0
M  V30 1090 C 99.3636 -2.26098 4.69606 0
M  V30 1091 C 96.6916 -2.09262 5.48112 0
M  V30 1092 C 99.0436 -1.95814 6.01531 0
M  V30 1093 C 97.7076 -1.86845 6.40816 0
M  V30 1094 H 96.9776 -0.546661 0.500243 0
M  V30 1095 H 99.6246 -0.842788 1.71957 0
M  V30 1096 H 97.9296 -3.44569 1.86492 0
M  V30 1097 H 99.6266 -3.32741 2.23796 0
M  V30 1098 H 96.2166 -2.55169 3.44364 0
M  V30 1099 H 100.401 -2.30812 4.39363 0
M  V30 1100 H 95.6566 -2.00841 5.77471 0
M  V30 1101 H 99.8306 -1.77488 6.73403 0
M  V30 1102 H 97.4576 -1.6197 7.42745 0
M  V30 1103 N 99.0327 -1.24633 -0.964593 0
M  V30 1104 C 100.258 -1.11596 -1.74818 0
M  V30 1105 C 100.683 0.32723 -1.85232 0
M  V30 1106 O 100.041 1.23695 -1.32549 0
M  V30 1107 C 100.089 -1.76397 -3.1451 0
M  V30 1108 O 99.1927 -1.03685 -3.99153 0
M  V30 1109 H 98.5337 -0.390196 -0.537255 0
M  V30 1110 H 101.064 -1.65002 -1.20977 0
M  V30 1111 H 101.074 -1.8228 -3.65018 0
M  V30 1112 H 99.7487 -2.81401 -3.06246 0
M  V30 1113 H 98.3257 -1.05611 -3.57632 0
M  V30 1114 N 100.511 1.16574 -1.06058 0
M  V30 1115 C 101.739 1.90952 -0.796552 0
M  V30 1116 C 102.154 1.77302 0.648808 0
M  V30 1117 O 101.511 1.11605 1.44397 0
M  V30 1118 C 101.562 3.41736 -1.17894 0
M  V30 1119 O 101.283 3.54975 -2.56758 0
M  V30 1120 C 102.784 4.33169 -0.942308 0
M  V30 1121 H 100.004 0.605594 -0.288959 0
M  V30 1122 H 102.548 1.47777 -1.41358 0
M  V30 1123 H 100.703 3.82623 -0.606491 0
M  V30 1124 H 101.117 4.4846 -2.72 0
M  V30 1125 H 102.591 5.37439 -1.25952 0
M  V30 1126 H 103.068 4.3903 0.122078 0
M  V30 1127 H 103.674 3.98007 -1.49902 0
M  V30 1128 N 101.989 0.842826 1.3317 0
M  V30 1129 C 102.936 0.276885 2.29133 0
M  V30 1130 C 103.906 -0.609527 1.54512 0
M  V30 1131 O 105.091 -0.546955 1.82792 0
M  V30 1132 C 102.231 -0.538707 3.40869 0
M  V30 1133 C 101.344 0.372169 4.30394 0
M  V30 1134 C 100.479 -0.454908 5.29249 0
M  V30 1135 C 99.5179 0.45411 6.10413 0
M  V30 1136 N 98.6549 -0.335075 7.013 0
M  V30 1137 H 103.495 1.10052 2.76934 0
M  V30 1138 H 101.032 0.554161 1.36262 0
M  V30 1139 H 102.99 -1.02709 4.0436 0
M  V30 1140 H 101.62 -1.32727 2.9425 0
M  V30 1141 H 100.672 0.97888 3.6759 0
M  V30 1142 H 101.984 1.0703 4.87182 0
M  V30 1143 H 101.138 -1.00695 5.98285 0
M  V30 1144 H 99.8769 -1.18646 4.73048 0
M  V30 1145 H 98.8819 1.01813 5.40291 0
M  V30 1146 H 100.107 1.18409 6.68697 0
M  V30 1147 H 98.0529 -1.04994 6.47543 0
M  V30 1148 H 97.9699 0.304262 7.55387 0
M  V30 1149 H 99.2379 -0.869224 7.74638 0
M  V30 1150 N 103.467 -1.45747 0.599634 0
M  V30 1151 C 104.744 -1.95585 0.0240846 0
M  V30 1152 C 105.124 -1.54217 -1.44154 0
M  V30 1153 O 104.472 -0.800903 -2.14004 0
M  V30 1154 C 104.682 -3.48344 0.21385 0
M  V30 1155 C 106.03 -4.24504 0.0904902 0
M  V30 1156 O 107.054 -3.55911 0.143558 0
M  V30 1157 O 105.913 -5.46491 -0.0310766 0
M  V30 1158 H 103.007 -0.82602 -0.0402478 0
M  V30 1159 H 105.553 -1.55951 0.669139 0
M  V30 1160 H 104.325 -3.71397 1.23206 0
M  V30 1161 H 103.948 -3.9485 -0.466842 0
M  V30 1162 N 104.945 -0.338344 -1.53925 0
M  V30 1163 C 106.17 0.263987 -2.05713 0
M  V30 1164 C 106.595 1.43847 -1.21201 0
M  V30 1165 O 105.953 1.79904 -0.224535 0
M  V30 1166 C 106.001 0.662 -3.54471 0
M  V30 1167 O 105.105 1.76265 -3.72833 0
M  V30 1168 H 104.446 0.0448722 -0.662482 0
M  V30 1169 H 106.976 -0.491048 -1.9862 0
M  V30 1170 H 106.986 0.940594 -3.9701 0
M  V30 1171 H 105.661 -0.196937 -4.15433 0
M  V30 1172 H 104.238 1.48173 -3.42198 0
M  V30 1173 N 106.423 1.57458 -0.0668435 0
M  V30 1174 C 107.648 1.9804 0.616027 0
M  V30 1175 C 108.073 0.944771 1.62652 0
M  V30 1176 O 107.431 -0.0902094 1.81075 0
M  V30 1177 C 107.479 3.37665 1.26549 0
M  V30 1178 O 106.583 3.36701 2.38131 0
M  V30 1179 H 105.924 0.644719 0.158849 0
M  V30 1180 H 108.454 2.04121 -0.139891 0
M  V30 1181 H 108.464 3.7474 1.6135 0
M  V30 1182 H 107.139 4.12573 0.525016 0
M  V30 1183 H 105.716 3.1139 2.0516 0
M  V30 1184 N 107.901 -0.206675 1.56239 0
M  V30 1185 C 108.864 -1.23976 1.92776 0
M  V30 1186 C 109.864 -1.39041 0.807729 0
M  V30 1187 O 111.054 -1.37051 1.0753 0
M  V30 1188 C 108.186 -2.61112 2.19165 0
M  V30 1189 H 109.379 -0.927764 2.85189 0
M  V30 1190 H 106.932 -0.447718 1.4975 0
M  V30 1191 H 107.667 -2.97386 1.29352 0
M  V30 1192 H 107.452 -2.51552 3.00772 0
M  V30 1193 H 108.942 -3.35633 2.48476 0
M  V30 1194 N 109.379 -1.50304 -0.473955 0
M  V30 1195 C 110.342 -1.6841 -1.55469 0
M  V30 1196 C 111.342 -0.554905 -1.50922 0
M  V30 1197 O 112.532 -0.821882 -1.53593 0
M  V30 1198 C 109.664 -1.70667 -2.95102 0
M  V30 1199 H 110.857 -2.64828 -1.40733 0
M  V30 1200 H 108.41 -1.39742 -0.700132 0
M  V30 1201 H 109.145 -0.75932 -3.15285 0
M  V30 1202 H 108.93 -2.52698 -2.9981 0
M  V30 1203 H 110.42 -1.8664 -3.73571 0
M  V30 1204 N 110.857 0.726932 -1.39834 0
M  V30 1205 C 112.103 1.48771 -1.38704 0
M  V30 1206 C 112.458 1.92394 0.0146387 0
M  V30 1207 O 111.751 1.64474 0.982797 0
M  V30 1208 C 111.945 2.73495 -2.30077 0
M  V30 1209 C 111.774 2.42068 -3.78989 0
M  V30 1210 C 110.544 2.33966 -4.4787 0
M  V30 1211 C 112.742 2.0708 -4.70768 0
M  V30 1212 N 110.724 1.95095 -5.82075 0
M  V30 1213 C 112.095 1.78719 -5.93683 0
M  V30 1214 C 114.15 1.93618 -4.58712 0
M  V30 1215 C 112.853 1.3825 -7.05889 0
M  V30 1216 C 114.879 1.54553 -5.70848 0
M  V30 1217 C 114.241 1.27082 -6.92842 0
M  V30 1218 H 110.34 0.542919 -0.562817 0
M  V30 1219 H 112.924 0.84408 -1.75452 0
M  V30 1220 H 111.095 3.35625 -1.95474 0
M  V30 1221 H 112.827 3.39755 -2.19883 0
M  V30 1222 H 109.582 2.51331 -4.0141 0
M  V30 1223 H 110.006 1.7823 -6.53118 0
M  V30 1224 H 114.648 2.13522 -3.64922 0
M  V30 1225 H 112.366 1.17088 -7.99572 0
M  V30 1226 H 115.952 1.44731 -5.6351 0
M  V30 1227 H 114.832 0.973069 -7.78139 0
M  V30 1228 N 112.336 1.25143 0.95797 0
M  V30 1229 C 113.613 1.00472 1.67823 0
M  V30 1230 C 113.993 -0.470056 2.058 0
M  V30 1231 O 113.341 -1.44663 1.76875 0
M  V30 1232 C 113.551 1.9372 2.90299 0
M  V30 1233 C 114.899 2.21371 3.62326 0
M  V30 1234 O 115.923 1.91451 3.00375 0
M  V30 1235 O 114.782 2.72231 4.7387 0
M  V30 1236 H 111.876 0.380752 0.734137 0
M  V30 1237 H 114.422 1.36283 1.01119 0
M  V30 1238 H 113.194 2.93316 2.59001 0
M  V30 1239 H 112.817 1.58286 3.64735 0
M  V30 1240 N 113.814 -1.1601 1.06675 0
M  V30 1241 C 114.724 -2.24156 0.692179 0
M  V30 1242 C 115.74 -1.71507 -0.293513 0
M  V30 1243 O 116.916 -2.009 -0.141861 0
M  V30 1244 C 113.981 -3.46587 0.0884131 0
M  V30 1245 C 113.042 -4.14257 1.12646 0
M  V30 1246 C 112.275 -5.30844 0.551416 0
M  V30 1247 O 112.498 -5.66858 -0.634656 0
M  V30 1248 O 111.432 -5.87848 1.29298 0
M  V30 1249 H 115.258 -2.58513 1.59388 0
M  V30 1250 H 112.843 -1.23599 0.83926 0
M  V30 1251 H 114.725 -4.20679 -0.246361 0
M  V30 1252 H 113.4 -3.13994 -0.786712 0
M  V30 1253 H 112.307 -3.42118 1.51348 0
M  V30 1254 H 113.64 -4.50914 1.97325 0
M  V30 1255 N 115.292 -0.849877 -1.32721 0
M  V30 1256 C 116.52 -0.464754 -2.01613 0
M  V30 1257 C 116.935 0.937191 -1.63897 0
M  V30 1258 O 116.292 1.61081 -0.857856 0
M  V30 1259 C 116.343 -0.588638 -3.56675 0
M  V30 1260 O 116.064 -1.93535 -3.93034 0
M  V30 1261 C 117.565 -0.2019 -4.4284 0
M  V30 1262 H 114.785 -0.183215 -0.645502 0
M  V30 1263 H 117.329 -1.1455 -1.69407 0
M  V30 1264 H 115.484 0.0443159 -3.87375 0
M  V30 1265 H 115.898 -1.92871 -4.87751 0
M  V30 1266 H 117.372 -0.339599 -5.50954 0
M  V30 1267 H 117.849 0.857224 -4.30753 0
M  V30 1268 H 118.455 -0.809733 -4.17521 0
M  V30 1269 N 116.77 1.45427 -0.607355 0
M  V30 1270 C 117.7 2.3329 0.0989352 0
M  V30 1271 C 118.681 1.46816 0.859007 0
M  V30 1272 O 119.866 1.75588 0.829604 0
M  V30 1273 C 116.996 3.29518 1.09705 0
M  V30 1274 C 115.95 4.25626 0.450206 0
M  V30 1275 C 115.276 5.11542 1.55655 0
M  V30 1276 C 116.576 5.18505 -0.628455 0
M  V30 1277 H 118.27 2.92595 -0.634716 0
M  V30 1278 H 115.816 1.40696 -0.306681 0
M  V30 1279 H 117.769 3.89855 1.59971 0
M  V30 1280 H 116.493 2.68372 1.86129 0
M  V30 1281 H 115.152 3.66586 -0.0315886 0
M  V30 1282 H 114.8 4.46765 2.31107 0
M  V30 1283 H 114.5 5.76647 1.12925 0
M  V30 1284 H 116.024 5.74748 2.06148 0
M  V30 1285 H 117.438 5.72916 -0.209877 0
M  V30 1286 H 115.835 5.92085 -0.977489 0
M  V30 1287 H 116.905 4.60948 -1.50514 0
M  V30 1288 N 118.248 0.346503 1.53744 0
M  V30 1289 C 119.178 -0.501193 2.28058 0
M  V30 1290 C 120.159 -1.10014 1.29734 0
M  V30 1291 O 121.344 -1.12097 1.58581 0
M  V30 1292 C 118.474 -1.65078 3.05559 0
M  V30 1293 C 117.428 -1.18003 4.11411 0
M  V30 1294 C 116.754 -2.41837 4.76884 0
M  V30 1295 C 118.054 -0.278394 5.21558 0
M  V30 1296 H 119.748 0.11875 2.99164 0
M  V30 1297 H 117.294 0.0585531 1.43881 0
M  V30 1298 H 119.247 -2.25028 3.56287 0
M  V30 1299 H 117.971 -2.29767 2.32109 0
M  V30 1300 H 116.63 -0.603331 3.61601 0
M  V30 1301 H 116.278 -3.0494 4.00026 0
M  V30 1302 H 115.978 -2.1102 5.48402 0
M  V30 1303 H 117.502 -3.02508 5.30397 0
M  V30 1304 H 118.916 -0.784823 5.67903 0
M  V30 1305 H 117.313 -0.0619707 6.00068 0
M  V30 1306 H 118.383 0.684677 4.80042 0
M  V30 1307 N 119.726 -1.57421 0.075193 0
M  V30 1308 C 121.003 -1.85029 -0.634329 0
M  V30 1309 C 121.383 -0.968305 -1.87582 0
M  V30 1310 O 120.731 -0.0354749 -2.28472 0
M  V30 1311 C 120.941 -3.35286 -0.968742 0
M  V30 1312 C 122.289 -4.02875 -1.34077 0
M  V30 1313 O 123.313 -3.40051 -1.06037 0
M  V30 1314 O 122.172 -5.13691 -1.86506 0
M  V30 1315 H 119.266 -0.7645 -0.315387 0
M  V30 1316 H 121.812 -1.69366 0.106382 0
M  V30 1317 H 120.584 -3.91203 -0.0871376 0
M  V30 1318 H 120.207 -3.56223 -1.7661 0
M  V30 1319 N 121.204 0.198386 -1.56346 0
M  V30 1320 C 122.151 1.24589 -1.94284 0
M  V30 1321 C 123.121 1.454 -0.802997 0
M  V30 1322 O 124.306 1.58588 -1.06087 0
M  V30 1323 C 121.446 2.58631 -2.28482 0
M  V30 1324 C 120.559 2.45426 -3.55514 0
M  V30 1325 C 119.694 3.7215 -3.79049 0
M  V30 1326 C 118.733 3.53763 -4.99518 0
M  V30 1327 N 117.87 4.72491 -5.19323 0
M  V30 1328 H 122.71 0.915356 -2.83593 0
M  V30 1329 H 120.247 0.440629 -1.40346 0
M  V30 1330 H 122.205 3.3672 -2.46324 0
M  V30 1331 H 120.835 2.89734 -1.42317 0
M  V30 1332 H 119.887 1.58652 -3.45737 0
M  V30 1333 H 121.199 2.27772 -4.43758 0
M  V30 1334 H 120.353 4.58679 -3.97113 0
M  V30 1335 H 119.092 3.92754 -2.89129 0
M  V30 1336 H 118.097 2.65619 -4.8138 0
M  V30 1337 H 119.322 3.34607 -5.90944 0
M  V30 1338 H 117.268 4.93365 -4.3235 0
M  V30 1339 H 117.185 4.5765 -6.01741 0
M  V30 1340 H 118.453 5.6038 -5.41843 0
M  V30 1341 N 122.682 1.50554 0.465978 0
M  V30 1342 C 123.929 1.61798 1.21768 0
M  V30 1343 C 124.257 0.320696 1.91838 0
M  V30 1344 O 123.512 -0.693724 1.82992 0
M  V30 1345 C 123.811 2.75152 2.28093 0
M  V30 1346 C 123.477 4.15454 1.75239 0
M  V30 1347 C 122.139 4.53628 1.60546 0
M  V30 1348 C 124.491 5.03121 1.36083 0
M  V30 1349 C 121.819 5.77204 1.05128 0
M  V30 1350 C 124.171 6.27249 0.821056 0
M  V30 1351 C 122.835 6.64221 0.660795 0
M  V30 1352 H 122.105 0.592063 0.445582 0
M  V30 1353 H 124.752 1.84503 0.512927 0
M  V30 1354 H 123.057 2.46556 3.04496 0
M  V30 1355 H 124.754 2.81055 2.86023 0
M  V30 1356 H 121.344 3.85341 1.87644 0
M  V30 1357 H 125.528 4.74257 1.46267 0
M  V30 1358 H 120.784 6.0452 0.91462 0
M  V30 1359 H 124.958 6.94537 0.509018 0
M  V30 1360 H 122.585 7.59854 0.229226 0
M  V30 1361 N 124.16 -0.719506 1.40217 0
M  V30 1362 C 125.39 -1.50646 1.41384 0
M  V30 1363 C 125.798 -1.89197 0.0107743 0
M  V30 1364 O 125.141 -1.55709 -0.974708 0
M  V30 1365 C 125.203 -2.81405 2.23722 0
M  V30 1366 C 124.867 -2.65199 3.72181 0
M  V30 1367 C 125.864 -2.32717 4.64907 0
M  V30 1368 C 123.549 -2.81586 4.1595 0
M  V30 1369 C 125.543 -2.16827 5.99387 0
M  V30 1370 C 123.23 -2.65313 5.50502 0
M  V30 1371 C 124.228 -2.32981 6.42035 0
M  V30 1372 O 123.916 -2.16827 7.74107 0
M  V30 1373 H 123.648 -0.471606 0.484318 0
M  V30 1374 H 126.202 -0.895456 1.84853 0
M  V30 1375 H 124.432 -3.44823 1.75026 0
M  V30 1376 H 126.121 -3.43102 2.16878 0
M  V30 1377 H 126.887 -2.19694 4.32388 0
M  V30 1378 H 122.766 -3.0574 3.45027 0
M  V30 1379 H 126.31 -1.91513 6.70797 0
M  V30 1380 H 122.207 -2.7792 5.82607 0
M  V30 1381 H 122.975 -2.31778 7.84998 0
M  V30 1382 N 125.638 -1.25649 -0.95132 0
M  V30 1383 C 126.866 -1.13343 -1.73092 0
M  V30 1384 C 127.281 0.312434 -1.86197 0
M  V30 1385 O 126.638 1.21465 -1.36207 0
M  V30 1386 C 126.689 -1.78602 -3.14299 0
M  V30 1387 O 126.41 -3.17537 -3.01831 0
M  V30 1388 C 127.911 -1.72119 -4.08522 0
M  V30 1389 H 125.131 -0.395181 -0.542285 0
M  V30 1390 H 127.675 -1.66076 -1.19328 0
M  V30 1391 H 125.83 -1.29832 -3.64996 0
M  V30 1392 H 126.244 -3.49676 -3.90931 0
M  V30 1393 H 127.718 -2.22435 -5.052 0
M  V30 1394 H 128.195 -0.685635 -4.33815 0
M  V30 1395 H 128.801 -2.20393 -3.63741 0
M  V30 1396 N 127.117 1.15442 -1.07289 0
M  V30 1397 C 128.027 2.23786 -0.704057 0
M  V30 1398 C 129.043 1.7166 0.284413 0
M  V30 1399 O 130.219 2.00972 0.131205 0
M  V30 1400 C 127.284 3.46535 -0.106792 0
M  V30 1401 C 126.345 4.13654 -1.14842 0
M  V30 1402 C 125.578 5.30544 -0.57956 0
M  V30 1403 O 125.801 5.67187 0.604585 0
M  V30 1404 O 124.735 5.87154 -1.32414 0
M  V30 1405 H 128.561 2.57664 -1.60757 0
M  V30 1406 H 126.146 1.23152 -0.845803 0
M  V30 1407 H 128.028 4.20804 0.224048 0
M  V30 1408 H 126.703 3.14407 0.770049 0
M  V30 1409 H 125.61 3.4131 -1.5316 0
M  V30 1410 H 126.943 4.49861 -1.99714 0
M  V30 1411 N 128.595 0.856903 1.32268 0
M  V30 1412 C 129.525 0.31858 2.31316 0
M  V30 1413 C 130.506 -0.583487 1.59779 0
M  V30 1414 O 131.691 -0.503259 1.87566 0
M  V30 1415 C 128.821 -0.491979 3.43798 0
M  V30 1416 C 127.775 0.315849 4.26833 0
M  V30 1417 C 127.101 -0.619586 5.31098 0
M  V30 1418 C 128.401 1.54282 4.98993 0
M  V30 1419 H 130.095 1.14621 2.76591 0
M  V30 1420 H 127.641 0.552613 1.32974 0
M  V30 1421 H 129.594 -0.879012 4.1213 0
M  V30 1422 H 128.318 -1.35299 2.97257 0
M  V30 1423 H 126.977 0.684664 3.6015 0
M  V30 1424 H 126.625 -1.47751 4.8081 0
M  V30 1425 H 126.325 -0.0830621 5.87541 0
M  V30 1426 H 127.849 -1.00375 6.02293 0
M  V30 1427 H 129.263 1.22796 5.59995 0
M  V30 1428 H 127.66 2.01745 5.65172 0
M  V30 1429 H 128.73 2.30285 4.26728 0
M  V30 1430 N 130.073 -1.45103 0.615059 0
M  V30 1431 C 131.303 -2.06254 0.119596 0
M  V30 1432 C 131.711 -1.4591 -1.20445 0
M  V30 1433 O 131.054 -0.570384 -1.7462 0
M  V30 1434 C 131.116 -3.59396 -0.0865591 0
M  V30 1435 C 130.78 -4.42116 1.15683 0
M  V30 1436 C 131.777 -4.7662 2.07676 0
M  V30 1437 C 129.462 -4.82749 1.38775 0
M  V30 1438 C 131.456 -5.50622 3.21082 0
M  V30 1439 C 129.143 -5.56504 2.52481 0
M  V30 1440 C 130.141 -5.90358 3.43463 0
M  V30 1441 O 129.829 -6.62615 4.55189 0
M  V30 1442 H 129.561 -0.672423 0.0694512 0
M  V30 1443 H 132.115 -1.87219 0.844885 0
M  V30 1444 H 130.345 -3.76859 -0.866823 0
M  V30 1445 H 132.034 -4.02365 -0.534555 0
M  V30 1446 H 132.8 -4.4578 1.91063 0
M  V30 1447 H 128.679 -4.55829 0.688545 0
M  V30 1448 H 132.223 -5.76965 3.92119 0
M  V30 1449 H 128.12 -5.86759 2.69043 0
M  V30 1450 H 128.888 -6.81071 4.53966 0
M  V30 1451 N 131.551 -0.354651 -1.53558 0
M  V30 1452 C 132.483 0.5315 -2.22952 0
M  V30 1453 C 133.496 1.05503 -1.23988 0
M  V30 1454 O 134.685 0.963279 -1.50277 0
M  V30 1455 C 131.785 1.74538 -2.90499 0
M  V30 1456 C 130.958 1.35524 -4.15875 0
M  V30 1457 C 130.017 2.42999 -4.66731 0
M  V30 1458 O 129.043 2.05844 -5.30676 0
M  V30 1459 N 130.245 3.74423 -4.43608 0
M  V30 1460 H 133.01 -0.0628615 -2.99634 0
M  V30 1461 H 130.571 -0.179302 -1.60904 0
M  V30 1462 H 132.563 2.45892 -3.21433 0
M  V30 1463 H 131.133 2.24686 -2.17336 0
M  V30 1464 H 130.353 0.471998 -3.91364 0
M  V30 1465 H 131.641 1.07071 -4.97406 0
M  V30 1466 H 131.039 4.07391 -3.92491 0
M  V30 1467 H 129.596 4.41913 -4.7912 0
M  V30 1468 N 133.029 1.57378 -0.0835403 0
M  V30 1469 C 133.961 2.10389 0.909338 0
M  V30 1470 C 134.974 1.03858 1.25369 0
M  V30 1471 O 136.163 1.31338 1.20882 0
M  V30 1472 C 133.263 2.55908 2.2218 0
M  V30 1473 C 132.436 3.86145 2.05453 0
M  V30 1474 C 131.495 4.17633 3.20108 0
M  V30 1475 O 130.521 4.87043 2.94581 0
M  V30 1476 N 131.723 3.72113 4.45547 0
M  V30 1477 H 134.488 2.962 0.456657 0
M  V30 1478 H 132.049 1.61579 0.101877 0
M  V30 1479 H 134.041 2.74027 2.97811 0
M  V30 1480 H 132.611 1.75171 2.58909 0
M  V30 1481 H 131.831 3.7729 1.1422 0
M  V30 1482 H 133.119 4.7137 1.91541 0
M  V30 1483 H 132.517 3.16062 4.69171 0
M  V30 1484 H 131.074 3.95409 5.18165 0
M  V30 1485 N 134.507 -0.190092 1.56449 0
M  V30 1486 C 135.437 -1.23816 1.97969 0
M  V30 1487 C 136.418 -1.47201 0.852395 0
M  V30 1488 O 137.603 -1.58854 1.1171 0
M  V30 1489 C 134.733 -2.5813 2.3235 0
M  V30 1490 C 133.687 -2.49348 3.47864 0
M  V30 1491 C 133.013 -3.8798 3.67934 0
M  V30 1492 C 134.313 -2.01424 4.81898 0
M  V30 1493 H 136.007 -0.89311 2.85769 0
M  V30 1494 H 133.553 -0.428177 1.37487 0
M  V30 1495 H 135.506 -3.31637 2.59991 0
M  V30 1496 H 134.23 -2.94386 1.41438 0
M  V30 1497 H 132.889 -1.78297 3.20321 0
M  V30 1498 H 132.537 -4.21597 2.74344 0
M  V30 1499 H 132.237 -3.82978 4.45648 0
M  V30 1500 H 133.761 -4.63101 3.97957 0
M  V30 1501 H 135.175 -2.64693 5.08538 0
M  V30 1502 H 133.572 -2.07413 5.63116 0
M  V30 1503 H 134.642 -0.967677 4.75146 0
M  V30 1504 N 135.985 -1.50799 -0.457987 0
M  V30 1505 C 136.933 -1.71162 -1.575 0
M  V30 1506 C 137.927 -0.577592 -1.59249 0
M  V30 1507 O 139.133 -0.758443 -1.63241 0
M  V30 1508 H 135.508 -0.540468 -0.522875 0
M  V30 1509 H 137.479 -2.64837 -1.37492 0
M  V30 1510 C 136.228 -1.83496 -2.95338 0
M  V30 1511 H 135.551 -2.70153 -2.94716 0
M  V30 1512 H 136.991 -2.01765 -3.72917 0
M  V30 1513 C 135.45 -0.589694 -3.31699 0
M  V30 1514 O 135.98 0.265163 -4.00824 0
M  V30 1515 N 134.186 -0.439845 -2.87252 0
M  V30 1516 H 133.733 -1.13655 -2.31172 0
M  V30 1517 H 133.691 0.392159 -3.11945 0
M  V30 1518 N 137.463 0.71206 -1.40597 0
M  V30 1519 C 138.74 1.46536 -1.29563 0
M  V30 1520 C 139.12 2.10931 0.0844217 0
M  V30 1521 O 138.468 2.00418 1.0975 0
M  V30 1522 C 138.678 2.49821 -2.43701 0
M  V30 1523 C 140.026 3.15551 -2.841 0
M  V30 1524 O 141.05 2.60142 -2.4332 0
M  V30 1525 O 139.909 4.15867 -3.54566 0
M  V30 1526 H 137.003 0.651801 -0.509004 0
M  V30 1527 H 139.549 0.743935 -1.52524 0
M  V30 1528 H 138.321 2.00778 -3.35863 0
M  V30 1529 H 137.944 3.29495 -2.22528 0
M  V30 1530 N 138.941 1.26152 0.944643 0
M  V30 1531 C 139.871 1.09902 2.06019 0
M  V30 1532 C 140.852 0.00519538 1.70099 0
M  V30 1533 O 142.037 0.176583 1.93396 0
M  V30 1534 C 139.167 0.727562 3.39594 0
M  V30 1535 C 138.121 1.77274 3.89561 0
M  V30 1536 C 137.447 1.25569 5.19747 0
M  V30 1537 C 138.747 3.17357 4.14827 0
M  V30 1538 H 140.441 2.03217 2.19871 0
M  V30 1539 H 137.987 0.978452 1.05652 0
M  V30 1540 H 139.94 0.600777 4.17095 0
M  V30 1541 H 138.664 -0.241287 3.25707 0
M  V30 1542 H 137.323 1.88814 3.14237 0
M  V30 1543 H 136.971 0.276783 5.02238 0
M  V30 1544 H 136.671 1.95433 5.54148 0
M  V30 1545 H 138.195 1.1415 5.99835 0
M  V30 1546 H 139.609 3.08914 4.82954 0
M  V30 1547 H 138.006 3.84781 4.60504 0
M  V30 1548 H 139.076 3.63673 3.20734 0
M  V30 1549 N 140.419 -1.14872 1.07899 0
M  V30 1550 C 141.329 -2.2341 0.715915 0
M  V30 1551 C 142.345 -1.71808 -0.275306 0
M  V30 1552 O 143.521 -2.01039 -0.120545 0
M  V30 1553 C 140.586 -3.46474 0.125168 0
M  V30 1554 C 139.647 -4.13039 1.17034 0
M  V30 1555 C 138.88 -5.30229 0.607688 0
M  V30 1556 O 139.103 -5.675 -0.574497 0
M  V30 1557 O 138.037 -5.86444 1.35526 0
M  V30 1558 H 141.863 -2.56808 1.62121 0
M  V30 1559 H 139.448 -1.22702 0.852322 0
M  V30 1560 H 141.33 -4.20917 -0.201729 0
M  V30 1561 H 140.005 -3.14811 -0.753364 0
M  V30 1562 H 138.912 -3.40493 1.54968 0
M  V30 1563 H 140.245 -4.48796 2.02097 0
M  V30 1564 N 141.898 -0.863906 -1.31812 0
M  V30 1565 C 142.861 -0.320212 -2.26952 0
M  V30 1566 C 143.861 0.525369 -1.51975 0
M  V30 1567 O 145.051 0.335547 -1.70938 0
M  V30 1568 C 142.183 0.545919 -3.365 0
M  V30 1569 H 143.376 -1.16004 -2.76556 0
M  V30 1570 H 140.929 -0.638995 -1.42641 0
M  V30 1571 H 141.664 1.40718 -2.92179 0
M  V30 1572 H 141.449 -0.0594674 -3.92055 0
M  V30 1573 H 142.939 0.918796 -4.07367 0
M  V30 1574 N 143.376 1.44774 -0.622745 0
M  V30 1575 C 144.616 2.04004 -0.127102 0
M  V30 1576 C 144.98 1.47862 1.22478 0
M  V30 1577 O 146.181 1.98541 1.81204 0
M  V30 1578 C 144.452 3.57247 -0.104429 0
M  V30 1579 S 146.011 4.37574 0.327814 0
M  V30 1580 H 142.829 0.708713 -0.0569776 0
M  V30 1581 H 145.431 1.77275 -0.824253 0
M  V30 1582 H 144.135 3.95616 -1.09159 0
M  V30 1583 H 143.666 3.88575 0.614236 0
M  V30 1584 H 145.681 4.70575 1.57395 0
M  V30 1585 N 144.854 0.36279 1.53368 0
M  V30 1586 C 146.1 -0.228113 2.01513 0
M  V30 1587 C 146.433 -1.48648 1.2497 0
M  V30 1588 O 145.708 -1.91459 0.342616 0
M  V30 1589 C 145.991 -0.522884 3.56284 0
M  V30 1590 C 145.844 0.74892 4.43521 0
M  V30 1591 C 147.163 -1.32461 4.19693 0
M  V30 1592 H 144.282 -0.0814343 0.732487 0
M  V30 1593 H 146.924 0.48713 1.83649 0
M  V30 1594 H 145.074 -1.1322 3.71636 0
M  V30 1595 H 146.746 1.38648 4.39971 0
M  V30 1596 H 144.989 1.36986 4.11603 0
M  V30 1597 H 145.66 0.497667 5.49752 0
M  V30 1598 H 148.136 -0.809203 4.08156 0
M  V30 1599 H 147.012 -1.49961 5.28018 0
M  V30 1600 H 147.273 -2.33232 3.75573 0
M  V30 1601 N 146.332 -1.57332 0.0918853 0
M  V30 1602 C 147.581 -1.93412 -0.572249 0
M  V30 1603 C 147.894 -0.975515 -1.69538 0
M  V30 1604 O 149.1 -1.22991 -2.42045 0
M  V30 1605 C 147.556 -3.43648 -1.0693 0
M  V30 1606 C 147.164 -4.47994 0.0239049 0
M  V30 1607 C 148.908 -3.88695 -1.70635 0
M  V30 1608 C 146.815 -5.89381 -0.488319 0
M  V30 1609 H 145.745 -0.721939 -0.217532 0
M  V30 1610 H 148.396 -1.82735 0.167369 0
M  V30 1611 H 146.778 -3.49466 -1.8625 0
M  V30 1612 H 147.952 -4.53815 0.799277 0
M  V30 1613 H 146.267 -4.12536 0.565946 0
M  V30 1614 H 148.864 -4.91725 -2.10025 0
M  V30 1615 H 149.207 -3.27166 -2.57426 0
M  V30 1616 H 149.74 -3.85564 -0.979023 0
M  V30 1617 H 146.479 -6.54602 0.342906 0
M  V30 1618 H 145.999 -5.87037 -1.23077 0
M  V30 1619 H 147.678 -6.39863 -0.958317 0
M  V30 1620 N 147.81 0.181792 -1.56548 0
M  V30 1621 C 148.742 1.24956 -1.92142 0
M  V30 1622 C 149.755 1.41022 -0.813422 0
M  V30 1623 O 150.944 1.41212 -1.09186 0
M  V30 1624 C 148.044 2.61981 -2.14987 0
M  V30 1625 C 147.217 2.6735 -3.46183 0
M  V30 1626 C 146.276 3.85664 -3.5798 0
M  V30 1627 O 145.302 3.72148 -4.30691 0
M  V30 1628 N 146.504 5.01683 -2.92053 0
M  V30 1629 H 149.269 0.947329 -2.84334 0
M  V30 1630 H 146.83 0.371629 -1.57577 0
M  V30 1631 H 148.822 3.3958 -2.20154 0
M  V30 1632 H 147.392 2.84637 -1.2923 0
M  V30 1633 H 146.612 1.75925 -3.52766 0
M  V30 1634 H 147.9 2.67939 -4.32534 0
M  V30 1635 H 147.298 5.15564 -2.32832 0
M  V30 1636 H 145.855 5.77181 -3.0283 0
M  V30 1637 N 149.288 1.51039 0.449983 0
M  V30 1638 C 150.536 1.62759 1.19808 0
M  V30 1639 C 150.857 0.339981 1.92013 0
M  V30 1640 O 150.127 -0.643606 1.85026 0
M  V30 1641 H 148.707 0.599811 0.445237 0
M  V30 1642 H 151.369 1.87914 0.517138 0
M  V30 1643 H 150.465 2.44911 1.93455 0
M  V30 1644 N 150.766 -0.704594 1.40972 0
M  V30 1645 C 152.012 -1.46675 1.40051 0
M  V30 1646 C 152.345 -1.94199 0.00641102 0
M  V30 1647 O 151.62 -1.68916 -0.964235 0
M  V30 1648 C 151.903 -2.68505 2.39952 0
M  V30 1649 C 151.756 -2.26805 3.88432 0
M  V30 1650 C 153.075 -3.70686 2.37233 0
M  V30 1651 H 150.194 -0.532015 0.510028 0
M  V30 1652 H 152.836 -0.803255 1.72185 0
M  V30 1653 H 150.986 -3.25114 2.1268 0
M  V30 1654 H 152.658 -1.75592 4.26574 0
M  V30 1655 H 150.901 -1.58685 4.03734 0
M  V30 1656 H 151.572 -3.14181 4.53866 0
M  V30 1657 H 154.048 -3.23731 2.61415 0
M  V30 1658 H 152.924 -4.53553 3.09162 0
M  V30 1659 H 153.185 -4.19754 1.38777 0
M  V30 1660 N 152.244 -1.26651 -0.937939 0
M  V30 1661 C 153.492 -1.12165 -1.68118 0
M  V30 1662 C 153.813 0.334983 -1.92101 0
M  V30 1663 O 153.083 1.23583 -1.52 0
M  V30 1664 H 151.663 -0.412093 -0.623048 0
M  V30 1665 H 154.325 -1.59027 -1.12678 0
M  V30 1666 H 153.421 -1.64289 -2.6536 0
M  V30 1667 N 153.722 1.14298 -1.08507 0
M  V30 1668 C 154.968 1.85633 -0.816581 0
M  V30 1669 C 155.301 1.82784 0.656021 0
M  V30 1670 O 154.576 1.25926 1.48233 0
M  V30 1671 C 154.859 3.34223 -1.34041 0
M  V30 1672 C 154.712 3.45639 -2.87843 0
M  V30 1673 C 156.031 4.29356 -0.9665 0
M  V30 1674 H 153.15 0.67402 -0.298104 0
M  V30 1675 H 155.792 1.34214 -1.34487 0
M  V30 1676 H 153.942 3.78144 -0.89104 0
M  V30 1677 H 155.614 3.10498 -3.41158 0
M  V30 1678 H 153.857 2.86817 -3.25451 0
M  V30 1679 H 154.528 4.50089 -3.19569 0
M  V30 1680 H 157.004 3.93457 -1.35391 0
M  V30 1681 H 155.88 5.3178 -1.3602 0
M  V30 1682 H 156.141 4.41919 0.126362 0
M  V30 1683 N 155.201 0.870884 1.31352 0
M  V30 1684 C 156.429 0.49677 2.00848 0
M  V30 1685 C 156.844 -0.910998 1.65367 0
M  V30 1686 O 156.201 -1.59696 0.883374 0
M  V30 1687 C 156.252 0.645308 3.55694 0
M  V30 1688 O 155.973 1.99764 3.89905 0
M  V30 1689 C 157.474 0.272326 4.42463 0
M  V30 1690 H 154.694 0.193462 0.642506 0
M  V30 1691 H 157.238 1.1723 1.67563 0
M  V30 1692 H 155.393 0.0173176 3.87396 0
M  V30 1693 H 155.807 2.00607 4.84621 0
M  V30 1694 H 157.281 0.427208 5.50344 0
M  V30 1695 H 157.758 -0.788587 4.32062 0
M  V30 1696 H 158.364 0.876054 4.1618 0
M  V30 1697 N 156.679 -1.44442 0.630414 0
M  V30 1698 C 157.589 -2.34476 -0.0761693 0
M  V30 1699 C 158.605 -1.52576 -0.836449 0
M  V30 1700 O 159.781 -1.85307 -0.788874 0
M  V30 1701 C 156.846 -3.30545 -1.04599 0
M  V30 1702 C 155.907 -4.28352 -0.28516 0
M  V30 1703 C 155.14 -5.19831 -1.20878 0
M  V30 1704 O 155.363 -5.15223 -2.44747 0
M  V30 1705 O 154.297 -5.97892 -0.693491 0
M  V30 1706 H 158.123 -2.96345 0.664324 0
M  V30 1707 H 155.708 -1.44203 0.39061 0
M  V30 1708 H 157.59 -3.89681 -1.60396 0
M  V30 1709 H 156.265 -2.7121 -1.76711 0
M  V30 1710 H 155.172 -3.72764 0.315837 0
M  V30 1711 H 156.505 -4.90605 0.395924 0
M  V30 1712 N 158.157 -0.370918 -1.53173 0
M  V30 1713 C 159.385 0.217704 -2.05751 0
M  V30 1714 C 159.8 1.42018 -1.24404 0
M  V30 1715 O 159.157 1.80245 -0.286033 0
M  V30 1716 C 159.208 0.605954 -3.56385 0
M  V30 1717 O 158.929 -0.548734 -4.3465 0
M  V30 1718 C 160.43 1.2524 -4.25241 0
M  V30 1719 H 157.65 0.0371659 -0.66997 0
M  V30 1720 H 160.194 -0.530832 -1.9749 0
M  V30 1721 H 158.349 1.3044 -3.6478 0
M  V30 1722 H 158.763 -0.23376 -5.23979 0
M  V30 1723 H 160.237 1.47458 -5.3194 0
M  V30 1724 H 160.714 2.2143 -3.79296 0
M  V30 1725 H 161.32 0.595233 -4.21114 0
M  V30 1726 N 159.635 1.57281 -0.100228 0
M  V30 1727 C 161.046 1.81725 0.428107 0
M  V30 1728 C 161.397 1.01619 1.67833 0
M  V30 1729 O 160.522 0.247098 2.14985 0
M  V30 1730 C 161.117 3.29617 0.78347 0
M  V30 1731 C 159.676 3.54808 1.25653 0
M  V30 1732 C 158.823 2.76118 0.255752 0
M  V30 1733 H 161.774 1.55324 -0.325608 0
M  V30 1734 H 161.795 3.4322 1.64256 0
M  V30 1735 H 161.307 3.87893 -0.12665 0
M  V30 1736 H 159.408 3.01868 2.18418 0
M  V30 1737 H 159.521 4.63443 1.21482 0
M  V30 1738 H 157.885 2.43745 0.738956 0
M  V30 1739 H 158.668 3.37145 -0.647136 0
M  V30 1740 N 161.113 -0.173488 1.56642 0
M  V30 1741 C 162.043 -1.2171 1.99271 0
M  V30 1742 C 163.024 -1.46289 0.867959 0
M  V30 1743 O 164.209 -1.5766 1.13388 0
M  V30 1744 C 161.339 -2.55651 2.35074 0
M  V30 1745 C 160.293 -2.45645 3.50489 0
M  V30 1746 C 159.619 -3.84056 3.72028 0
M  V30 1747 C 160.919 -1.96302 4.84007 0
M  V30 1748 H 162.613 -0.86275 2.867 0
M  V30 1749 H 160.159 -0.413571 1.37933 0
M  V30 1750 H 162.112 -3.2886 2.63494 0
M  V30 1751 H 160.836 -2.92869 1.44552 0
M  V30 1752 H 159.495 -1.7489 3.22194 0
M  V30 1753 H 159.143 -4.18664 2.788 0
M  V30 1754 H 158.843 -3.7823 4.49684 0
M  V30 1755 H 160.367 -4.58854 4.02846 0
M  V30 1756 H 161.781 -2.59284 5.11317 0
M  V30 1757 H 160.178 -2.01429 5.65284 0
M  V30 1758 H 161.248 -0.917226 4.76146 0
M  V30 1759 N 162.591 -1.51276 -0.441967 0
M  V30 1760 C 163.524 -1.66933 -1.55591 0
M  V30 1761 C 164.502 -0.516958 -1.54163 0
M  V30 1762 O 165.686 -0.740209 -1.73358 0
M  V30 1763 C 162.813 -1.67866 -2.94174 0
M  V30 1764 C 161.859 -2.89013 -3.13646 0
M  V30 1765 S 162.692 -4.49897 -2.90436 0
M  V30 1766 C 163.848 -4.53568 -4.31308 0
M  V30 1767 H 164.081 -2.61155 -1.42076 0
M  V30 1768 H 161.614 -1.40902 -0.631341 0
M  V30 1769 H 163.572 -1.69089 -3.74058 0
M  V30 1770 H 162.233 -0.748296 -3.05056 0
M  V30 1771 H 161.426 -2.86054 -4.14957 0
M  V30 1772 H 161.028 -2.85509 -2.4158 0
M  V30 1773 H 163.32 -4.28924 -5.24434 0
M  V30 1774 H 164.263 -5.55355 -4.39303 0
M  V30 1775 H 164.671 -3.82943 -4.14747 0
M  V30 1776 N 164.069 0.697108 -1.41344 0
M  V30 1777 C 165.016 1.81106 -1.43071 0
M  V30 1778 C 165.986 1.63632 -0.285275 0
M  V30 1779 O 167.171 1.84504 -0.486091 0
M  V30 1780 C 164.311 3.18975 -1.31715 0
M  V30 1781 C 163.424 3.47892 -2.56115 0
M  V30 1782 C 162.559 4.75367 -2.37064 0
M  V30 1783 C 161.598 4.97247 -3.56948 0
M  V30 1784 N 160.735 6.15947 -3.36977 0
M  V30 1785 H 165.575 1.78965 -2.38276 0
M  V30 1786 H 163.112 0.873975 -1.18322 0
M  V30 1787 H 165.07 3.98615 -1.23133 0
M  V30 1788 H 163.7 3.20297 -0.401183 0
M  V30 1789 H 162.752 2.62669 -2.75153 0
M  V30 1790 H 164.064 3.59962 -3.45295 0
M  V30 1791 H 163.218 5.63059 -2.25941 0
M  V30 1792 H 161.957 4.65541 -1.45338 0
M  V30 1793 H 160.962 4.08004 -3.68527 0
M  V30 1794 H 162.187 5.08934 -4.49626 0
M  V30 1795 H 160.133 6.07336 -2.47949 0
M  V30 1796 H 160.05 6.28777 -4.19732 0
M  V30 1797 H 161.318 7.06377 -3.29623 0
M  V30 1798 N 165.547 1.27147 0.931209 0
M  V30 1799 C 166.457 1.11372 2.06478 0
M  V30 1800 C 167.473 0.044645 1.73943 0
M  V30 1801 O 168.649 0.250417 1.99837 0
M  V30 1802 C 165.714 0.758838 3.38294 0
M  V30 1803 C 164.775 1.90841 3.84549 0
M  V30 1804 C 164.008 1.57036 5.10074 0
M  V30 1805 O 164.231 0.476645 5.68405 0
M  V30 1806 O 163.165 2.40839 5.51616 0
M  V30 1807 H 166.991 2.06493 2.22698 0
M  V30 1808 H 164.576 1.06301 1.04978 0
M  V30 1809 H 166.458 0.574098 4.17471 0
M  V30 1810 H 165.133 -0.162879 3.2329 0
M  V30 1811 H 164.04 2.14819 3.06274 0
M  V30 1812 H 165.373 2.81021 4.04089 0
M  V30 1813 N 167.025 -1.13721 1.09112 0
M  V30 1814 C 168.302 -1.81155 0.737706 0
M  V30 1815 C 168.682 -1.96253 -0.777683 0
M  V30 1816 O 168.03 -1.52807 -1.69889 0
M  V30 1817 C 168.24 -3.16392 1.47299 0
M  V30 1818 C 169.588 -3.91787 1.63671 0
M  V30 1819 O 170.612 -3.26005 1.43524 0
M  V30 1820 O 169.471 -5.0977 1.96969 0
M  V30 1821 H 166.565 -0.783518 0.26463 0
M  V30 1822 H 169.111 -1.20676 1.19312 0
M  V30 1823 H 167.883 -3.0061 2.50498 0
M  V30 1824 H 167.506 -3.8457 1.00953 0
M  V30 1825 N 168.503 -0.877838 -1.30888 0
M  V30 1826 C 169.728 -0.506629 -2.01117 0
M  V30 1827 C 170.153 0.895564 -1.65412 0
M  V30 1828 O 169.511 1.5923 -0.866922 0
M  V30 1829 C 169.559 -0.680223 -3.54126 0
M  V30 1830 O 168.663 0.277033 -4.11468 0
M  V30 1831 H 168.004 -0.200518 -0.633 0
M  V30 1832 H 170.534 -1.18342 -1.66902 0
M  V30 1833 H 170.544 -0.5765 -4.03907 0
M  V30 1834 H 169.219 -1.70261 -3.79452 0
M  V30 1835 H 167.796 0.127606 -3.72682 0
M  V30 1836 N 169.982 1.44106 -0.638065 0
M  V30 1837 C 171.231 2.01194 -0.142744 0
M  V30 1838 C 171.544 1.50835 1.24532 0
M  V30 1839 O 172.75 2.00096 1.83504 0
M  V30 1840 C 171.206 3.59319 -0.20442 0
M  V30 1841 C 170.814 4.18674 -1.59423 0
M  V30 1842 C 172.558 4.23854 0.234079 0
M  V30 1843 C 170.465 5.69045 -1.61065 0
M  V30 1844 H 169.395 0.752367 -0.0495998 0
M  V30 1845 H 172.046 1.65246 -0.797881 0
M  V30 1846 H 170.428 3.92598 0.517946 0
M  V30 1847 H 171.602 3.96921 -2.34074 0
M  V30 1848 H 169.917 3.66453 -1.97741 0
M  V30 1849 H 172.514 5.34155 0.241443 0
M  V30 1850 H 172.857 3.96688 1.2627 0
M  V30 1851 H 173.39 3.95403 -0.436025 0
M  V30 1852 H 170.129 6.00956 -2.61787 0
M  V30 1853 H 169.649 5.929 -0.90718 0
M  V30 1854 H 171.328 6.32809 -1.34766 0
M  V30 1855 N 171.46 0.379036 1.52974 0
M  V30 1856 C 172.39 -0.452706 2.29069 0
M  V30 1857 C 173.371 -1.07237 1.32039 0
M  V30 1858 O 174.556 -1.08708 1.60923 0
M  V30 1859 C 171.686 -1.5856 3.08992 0
M  V30 1860 C 170.64 -1.0925 4.13822 0
M  V30 1861 C 169.966 -2.31668 4.81907 0
M  V30 1862 C 171.266 -0.167702 5.22031 0
M  V30 1863 H 172.96 0.182181 2.98845 0
M  V30 1864 H 170.506 0.0890592 1.43724 0
M  V30 1865 H 172.459 -2.1742 3.6098 0
M  V30 1866 H 171.183 -2.24792 2.36931 0
M  V30 1867 H 169.842 -0.526494 3.628 0
M  V30 1868 H 169.49 -2.96386 4.06404 0
M  V30 1869 H 169.19 -1.9934 5.52754 0
M  V30 1870 H 170.714 -2.91189 5.36695 0
M  V30 1871 H 172.128 -0.664186 5.6944 0
M  V30 1872 H 170.525 0.0653265 6.00064 0
M  V30 1873 H 171.595 0.786347 4.78482 0
M  V30 1874 N 172.938 -1.57226 0.108567 0
M  V30 1875 C 173.901 -2.13602 -0.831082 0
M  V30 1876 C 174.901 -1.06841 -1.20173 0
M  V30 1877 O 176.091 -1.32666 -1.12895 0
M  V30 1878 C 173.223 -2.66769 -2.12243 0
M  V30 1879 H 174.416 -2.97951 -0.341317 0
M  V30 1880 H 171.969 -1.55667 -0.14057 0
M  V30 1881 H 172.704 -1.85977 -2.65675 0
M  V30 1882 H 172.489 -3.44839 -1.86625 0
M  V30 1883 H 173.979 -3.10332 -2.79435 0
M  V30 1884 N 174.416 0.165178 -1.56732 0
M  V30 1885 C 175.662 0.882112 -1.82611 0
M  V30 1886 C 175.995 1.81628 -0.687378 0
M  V30 1887 O 175.27 1.92009 0.310267 0
M  V30 1888 C 175.553 1.67245 -3.18906 0
M  V30 1889 C 175.406 0.760987 -4.43316 0
M  V30 1890 C 176.725 2.63884 -3.52212 0
M  V30 1891 H 173.844 0.319242 -0.664269 0
M  V30 1892 H 176.486 0.148052 -1.89422 0
M  V30 1893 H 174.636 2.29824 -3.1323 0
M  V30 1894 H 176.308 0.147596 -4.61064 0
M  V30 1895 H 174.551 0.0694102 -4.33744 0
M  V30 1896 H 175.222 1.34962 -5.35247 0
M  V30 1897 H 177.698 2.11429 -3.58381 0
M  V30 1898 H 176.574 3.16245 -4.48643 0
M  V30 1899 H 176.835 3.44377 -2.77231 0
M  V30 1900 N 175.894 1.51508 0.433938 0
M  V30 1901 C 177.31 1.39759 0.770682 0
M  V30 1902 C 177.51 0.482594 1.95636 0
M  V30 1903 O 176.566 -0.0609691 2.52426 0
M  V30 1904 C 177.879 2.81851 1.04787 0
M  V30 1905 C 179.427 2.91025 1.1521 0
M  V30 1906 C 179.902 4.34032 1.46219 0
M  V30 1907 N 181.393 4.37154 1.53136 0
M  V30 1908 C 182.128 5.4484 1.78709 0
M  V30 1909 N 181.624 6.62682 2.02051 0
M  V30 1910 N 183.417 5.32324 1.80519 0
M  V30 1911 H 175.568 2.09548 -0.346892 0
M  V30 1912 H 177.831 0.943446 -0.0928074 0
M  V30 1913 H 177.537 3.50815 0.249304 0
M  V30 1914 H 177.411 3.21386 1.97461 0
M  V30 1915 H 179.798 2.22257 1.94128 0
M  V30 1916 H 179.879 2.54983 0.204281 0
M  V30 1917 H 179.523 5.03351 0.678274 0
M  V30 1918 H 179.453 4.6759 2.42212 0
M  V30 1919 H 181.944 3.52197 1.36987 0
M  V30 1920 H 182.257 7.40543 2.20943 0
M  V30 1921 H 180.602 6.65791 1.99366 0
M  V30 1922 H 183.793 4.39246 1.61805 0
M  V30 1923 H 183.966 6.16328 2.00111 0
M  V30 1924 N 177.372 -0.689602 1.41712 0
M  V30 1925 C 178.319 -1.80345 1.44029 0
M  V30 1926 C 179.289 -1.63478 0.293948 0
M  V30 1927 O 180.474 -1.84244 0.495869 0
M  V30 1928 C 177.614 -3.18272 1.33405 0
M  V30 1929 C 176.727 -3.46529 2.57956 0
M  V30 1930 C 175.862 -4.74103 2.39582 0
M  V30 1931 C 174.901 -4.95347 3.5958 0
M  V30 1932 N 174.038 -6.14151 3.40239 0
M  V30 1933 H 178.878 -1.77698 2.39222 0
M  V30 1934 H 176.415 -0.867688 1.18784 0
M  V30 1935 H 178.373 -3.97956 1.25246 0
M  V30 1936 H 177.003 -3.2008 0.418164 0
M  V30 1937 H 176.055 -2.61207 2.76542 0
M  V30 1938 H 177.367 -3.58126 3.47199 0
M  V30 1939 H 176.521 -5.61853 2.28924 0
M  V30 1940 H 175.26 -4.64763 1.47805 0
M  V30 1941 H 174.265 -4.06044 3.70686 0
M  V30 1942 H 175.49 -5.06542 4.52318 0
M  V30 1943 H 173.436 -6.06013 2.51167 0
M  V30 1944 H 173.353 -6.26543 4.23061 0
M  V30 1945 H 174.621 -7.04619 3.33365 0
M  V30 1946 N 178.85 -1.27639 -0.924453 0
M  V30 1947 C 180.08 -1.16819 -1.70402 0
M  V30 1948 C 180.488 0.277191 -1.87158 0
M  V30 1949 O 179.831 1.20025 -1.39067 0
M  V30 1950 C 179.893 -1.78305 -3.12166 0
M  V30 1951 C 179.557 -3.27502 -3.18734 0
M  V30 1952 C 180.554 -4.2409 -3.00738 0
M  V30 1953 C 178.239 -3.68269 -3.4159 0
M  V30 1954 C 180.233 -5.59422 -3.05492 0
M  V30 1955 C 177.92 -5.0373 -3.45977 0
M  V30 1956 C 178.918 -5.99116 -3.27946 0
M  V30 1957 O 178.606 -7.32108 -3.32074 0
M  V30 1958 H 178.338 -0.406931 -0.539799 0
M  V30 1959 H 180.892 -1.69078 -1.16626 0
M  V30 1960 H 179.122 -1.20528 -3.67437 0
M  V30 1961 H 180.811 -1.62154 -3.72103 0
M  V30 1962 H 181.577 -3.93931 -2.82919 0
M  V30 1963 H 177.456 -2.94496 -3.54673 0
M  V30 1964 H 181 -6.33852 -2.91337 0
M  V30 1965 H 176.897 -5.33543 -3.63321 0
M  V30 1966 H 177.665 -7.40598 -3.48507 0
M  V30 1967 N 180.328 1.1314 -1.09713 0
M  V30 1968 C 181.575 1.84484 -0.834987 0
M  V30 1969 C 181.903 1.83689 0.639418 0
M  V30 1970 O 181.158 1.2724 1.4869 0
M  V30 1971 C 181.457 3.32167 -1.3191 0
M  V30 1972 C 181.123 3.53139 -2.80363 0
M  V30 1973 C 179.785 3.58571 -3.20905 0
M  V30 1974 C 182.137 3.60866 -3.76065 0
M  V30 1975 C 179.465 3.69267 -4.55916 0
M  V30 1976 C 181.817 3.73089 -5.10869 0
M  V30 1977 C 180.481 3.76775 -5.50996 0
M  V30 1978 H 179.751 0.675073 -0.305544 0
M  V30 1979 H 182.398 1.33554 -1.37243 0
M  V30 1980 H 180.703 3.85469 -0.701517 0
M  V30 1981 H 182.4 3.85821 -1.09284 0
M  V30 1982 H 178.99 3.49569 -2.47991 0
M  V30 1983 H 183.174 3.55946 -3.45855 0
M  V30 1984 H 178.43 3.70388 -4.86438 0
M  V30 1985 H 182.604 3.78011 -5.84877 0
M  V30 1986 H 180.231 3.84815 -6.55608 0
M  V30 1987 N 181.806 0.884767 1.30421 0
M  V30 1988 C 182.738 0.308655 2.27112 0
M  V30 1989 C 183.751 -0.536655 1.53701 0
M  V30 1990 O 184.94 -0.35624 1.74909 0
M  V30 1991 C 182.04 -0.579782 3.33904 0
M  V30 1992 C 181.213 0.236417 4.36761 0
M  V30 1993 C 180.272 -0.582482 5.22966 0
M  V30 1994 O 179.298 -0.00525502 5.692 0
M  V30 1995 N 180.5 -1.89163 5.48815 0
M  V30 1996 H 183.265 1.13964 2.77186 0
M  V30 1997 H 180.826 0.747731 1.43599 0
M  V30 1998 H 182.818 -1.13366 3.88497 0
M  V30 1999 H 181.388 -1.31144 2.83761 0
M  V30 2000 H 180.608 0.97174 3.82035 0
M  V30 2001 H 181.896 0.795924 5.02536 0
M  V30 2002 H 181.294 -2.38352 5.13035 0
M  V30 2003 H 179.851 -2.39296 6.06284 0
M  V30 2004 N 183.284 -1.43765 0.645699 0
M  V30 2005 C 184.7 -1.56509 0.312591 0
M  V30 2006 C 184.9 -1.6307 -1.18365 0
M  V30 2007 O 183.956 -1.58167 -1.96824 0
M  V30 2008 C 185.269 -2.82968 1.01733 0
M  V30 2009 C 186.817 -2.96701 0.996865 0
M  V30 2010 C 187.292 -4.25982 1.68236 0
M  V30 2011 N 188.783 -4.32829 1.64964 0
M  V30 2012 C 189.518 -5.31613 2.14885 0
M  V30 2013 N 189.014 -6.36718 2.73061 0
M  V30 2014 N 190.807 -5.23217 2.05428 0
M  V30 2015 H 182.958 -1.3775 1.61675 0
M  V30 2016 H 185.221 -0.661067 0.679481 0
M  V30 2017 H 184.927 -2.84156 2.0724 0
M  V30 2018 H 184.801 -3.72957 0.564177 0
M  V30 2019 H 187.188 -2.95058 -0.0497719 0
M  V30 2020 H 187.269 -2.08022 1.48865 0
M  V30 2021 H 186.913 -4.28386 2.72852 0
M  V30 2022 H 186.843 -5.13545 1.16529 0
M  V30 2023 H 189.334 -3.57493 1.22503 0
M  V30 2024 H 189.647 -7.08401 3.08848 0
M  V30 2025 H 187.992 -6.37362 2.77118 0
M  V30 2026 H 191.183 -4.40019 1.59689 0
M  V30 2027 H 191.356 -6.00045 2.44643 0
M  V30 2028 N 184.763 -0.387143 -1.52771 0
M  V30 2029 C 186.012 0.19697 -2.00736 0
M  V30 2030 C 186.325 1.48082 -1.27793 0
M  V30 2031 O 187.531 2.14485 -1.66458 0
M  V30 2032 C 185.987 0.401568 -3.57653 0
M  V30 2033 C 185.595 -0.868907 -4.39493 0
M  V30 2034 C 187.339 0.942164 -4.13912 0
M  V30 2035 C 185.246 -0.632705 -5.88006 0
M  V30 2036 H 184.176 0.0773827 -0.750019 0
M  V30 2037 H 186.827 -0.50921 -1.76293 0
M  V30 2038 H 185.209 1.16954 -3.78335 0
M  V30 2039 H 186.383 -1.64133 -4.30577 0
M  V30 2040 H 184.698 -1.33429 -3.94443 0
M  V30 2041 H 187.295 1.13455 -5.22525 0
M  V30 2042 H 187.638 1.9106 -3.69867 0
M  V30 2043 H 188.171 0.233814 -3.97112 0
M  V30 2044 H 184.91 -1.57208 -6.36369 0
M  V30 2045 H 184.43 0.100825 -5.99715 0
M  V30 2046 H 186.109 -0.26642 -6.46451 0
M  V30 2047 N 186.241 1.57166 -0.116904 0
M  V30 2048 C 187.469 1.99473 0.549383 0
M  V30 2049 C 187.884 0.996541 1.60357 0
M  V30 2050 O 187.241 -0.0108731 1.82497 0
M  V30 2051 C 187.292 3.41788 1.17741 0
M  V30 2052 O 187.013 4.37788 0.165362 0
M  V30 2053 C 188.514 3.99216 1.92722 0
M  V30 2054 H 185.734 0.655009 0.145616 0
M  V30 2055 H 188.278 2.03494 -0.202625 0
M  V30 2056 H 186.433 3.38713 1.88021 0
M  V30 2057 H 186.847 5.20806 0.621403 0
M  V30 2058 H 188.321 5.00882 2.31995 0
M  V30 2059 H 188.798 3.3824 2.80161 0
M  V30 2060 H 189.404 4.0583 1.27209 0
M  V30 2061 N 187.719 -0.156864 1.56817 0
M  V30 2062 C 188.649 -1.19589 2.00551 0
M  V30 2063 C 189.63 -1.4536 0.883426 0
M  V30 2064 O 190.815 -1.56449 1.15054 0
M  V30 2065 C 187.945 -2.53143 2.37773 0
M  V30 2066 C 186.899 -2.41913 3.53075 0
M  V30 2067 C 186.225 -3.80088 3.76081 0
M  V30 2068 C 187.525 -1.91157 4.86062 0
M  V30 2069 H 189.219 -0.832293 2.87599 0
M  V30 2070 H 186.765 -0.398918 1.38364 0
M  V30 2071 H 188.718 -3.26047 2.66967 0
M  V30 2072 H 187.442 -2.91319 1.4765 0
M  V30 2073 H 186.101 -1.71462 3.24031 0
M  V30 2074 H 185.749 -4.15683 2.83225 0
M  V30 2075 H 185.449 -3.73439 4.53671 0
M  V30 2076 H 186.973 -4.54556 4.0769 0
M  V30 2077 H 188.387 -2.53846 5.14038 0
M  V30 2078 H 186.784 -1.95422 5.67389 0
M  V30 2079 H 187.854 -0.866673 4.77092 0
M  V30 2080 N 189.197 -1.51736 -0.425897 0
M  V30 2081 C 190.427 -1.68549 -1.19476 0
M  V30 2082 C 190.835 -0.387288 -1.85194 0
M  V30 2083 O 190.178 0.645142 -1.71999 0
M  V30 2084 C 190.24 -2.75275 -2.31223 0
M  V30 2085 C 189.904 -4.17534 -1.8578 0
M  V30 2086 C 190.901 -5.01936 -1.35485 0
M  V30 2087 C 188.586 -4.6369 -1.93123 0
M  V30 2088 C 190.58 -6.30559 -0.931347 0
M  V30 2089 C 188.267 -5.92307 -1.50384 0
M  V30 2090 C 189.265 -6.75569 -1.00473 0
M  V30 2091 O 188.953 -8.0178 -0.583452 0
M  V30 2092 H 188.685 -0.568525 -0.365725 0
M  V30 2093 H 191.239 -1.98982 -0.509444 0
M  V30 2094 H 189.469 -2.40182 -3.03067 0
M  V30 2095 H 191.158 -2.80853 -2.93047 0
M  V30 2096 H 191.924 -4.67475 -1.29197 0
M  V30 2097 H 187.803 -3.98997 -2.30916 0
M  V30 2098 H 191.347 -6.95498 -0.541084 0
M  V30 2099 H 187.244 -6.2628 -1.56346 0
M  V30 2100 H 188.012 -8.1543 -0.708275 0
M  V30 2101 N 190.675 0.682077 -1.42076 0
M  V30 2102 C 191.605 1.80796 -1.47767 0
M  V30 2103 C 192.586 1.6677 -0.334954 0
M  V30 2104 O 193.771 1.863 -0.548264 0
M  V30 2105 C 190.901 3.19038 -1.37229 0
M  V30 2106 C 189.855 3.47789 -2.49453 0
M  V30 2107 C 189.181 4.8553 -2.23975 0
M  V30 2108 C 190.481 3.45411 -3.91776 0
M  V30 2109 H 192.175 1.7629 -2.41997 0
M  V30 2110 H 189.721 0.846721 -1.16476 0
M  V30 2111 H 191.674 3.97528 -1.39821 0
M  V30 2112 H 190.398 3.24204 -0.394907 0
M  V30 2113 H 189.057 2.71657 -2.46166 0
M  V30 2114 H 188.705 4.87337 -1.24547 0
M  V30 2115 H 188.405 5.0573 -2.99184 0
M  V30 2116 H 189.929 5.66312 -2.28304 0
M  V30 2117 H 191.343 4.13882 -3.96705 0
M  V30 2118 H 189.74 3.77145 -4.66778 0
M  V30 2119 H 190.81 2.44122 -4.18966 0
M  V30 2120 N 192.153 1.28127 0.917671 0
M  V30 2121 C 193.1 1.11717 2.0196 0
M  V30 2122 C 194.07 0.0153929 1.66093 0
M  V30 2123 O 195.255 0.179596 1.89953 0
M  V30 2124 C 192.395 0.780927 3.36148 0
M  V30 2125 C 191.508 1.96135 3.84909 0
M  V30 2126 C 190.643 1.56609 5.0759 0
M  V30 2127 C 189.682 2.71339 5.48673 0
M  V30 2128 N 188.819 2.32332 6.62545 0
M  V30 2129 H 193.659 2.06003 2.15329 0
M  V30 2130 H 191.196 1.02535 1.05475 0
M  V30 2131 H 193.154 0.56675 4.13333 0
M  V30 2132 H 191.784 -0.124998 3.22558 0
M  V30 2133 H 190.836 2.28777 3.03916 0
M  V30 2134 H 192.148 2.82165 4.1132 0
M  V30 2135 H 191.302 1.31374 5.92305 0
M  V30 2136 H 190.041 0.677014 4.82978 0
M  V30 2137 H 189.046 2.97276 4.62501 0
M  V30 2138 H 190.271 3.60882 5.75274 0
M  V30 2139 H 188.217 1.45889 6.39572 0
M  V30 2140 H 188.134 3.11899 6.88662 0
M  V30 2141 H 189.402 2.10371 7.50576 0
M  V30 2142 N 193.631 -1.12557 1.10312 0
M  V30 2143 C 194.541 -2.21841 0.763142 0
M  V30 2144 C 195.557 -1.72354 -0.238801 0
M  V30 2145 O 196.733 -2.01249 -0.0778746 0
M  V30 2146 C 193.798 -3.46131 0.198632 0
M  V30 2147 C 192.859 -4.10464 1.25769 0
M  V30 2148 C 192.092 -5.28821 0.72002 0
M  V30 2149 O 192.315 -5.6859 -0.453993 0
M  V30 2150 O 191.249 -5.83437 1.47935 0
M  V30 2151 H 195.075 -2.53312 1.67532 0
M  V30 2152 H 192.66 -1.20867 0.878157 0
M  V30 2153 H 194.542 -4.2125 -0.112401 0
M  V30 2154 H 193.217 -3.16338 -0.686419 0
M  V30 2155 H 192.124 -3.3713 1.62156 0
M  V30 2156 H 193.457 -4.44408 2.11571 0
M  V30 2157 N 195.109 -0.891671 -1.2995 0
M  V30 2158 C 196.056 -0.361736 -2.27948 0
M  V30 2159 C 197.026 0.551761 -1.56668 0
M  V30 2160 O 198.211 0.478736 -1.84696 0
M  V30 2161 C 195.351 0.411825 -3.42634 0
M  V30 2162 C 194.464 -0.531651 -4.28716 0
M  V30 2163 C 193.599 0.258167 -5.30572 0
M  V30 2164 C 192.638 -0.680349 -6.08307 0
M  V30 2165 N 191.775 0.0745613 -7.0206 0
M  V30 2166 H 196.615 -1.20254 -2.72659 0
M  V30 2167 H 194.152 -0.604352 -1.34112 0
M  V30 2168 H 196.11 0.876304 -4.07893 0
M  V30 2169 H 194.74 1.21715 -2.98974 0
M  V30 2170 H 193.792 -1.11463 -3.63703 0
M  V30 2171 H 195.104 -1.25038 -4.82874 0
M  V30 2172 H 194.258 0.784204 -6.0161 0
M  V30 2173 H 192.997 1.01008 -4.77126 0
M  V30 2174 H 192.002 -1.21796 -5.3614 0
M  V30 2175 H 193.227 -1.43145 -6.63842 0
M  V30 2176 H 191.173 0.808883 -6.50994 0
M  V30 2177 H 191.09 -0.584409 -7.53738 0
M  V30 2178 H 192.358 0.581123 -7.77331 0
M  V30 2179 N 196.587 1.43421 -0.653314 0
M  V30 2180 C 197.534 2.30768 0.0382271 0
M  V30 2181 C 198.504 1.44755 0.814576 0
M  V30 2182 O 199.689 1.73624 0.791162 0
M  V30 2183 C 196.829 3.30336 0.998599 0
M  V30 2184 C 195.942 4.31448 0.218342 0
M  V30 2185 C 195.077 5.18098 1.17252 0
M  V30 2186 C 194.116 6.10902 0.382702 0
M  V30 2187 N 193.253 6.90176 1.28848 0
M  V30 2188 H 198.093 2.89357 -0.712511 0
M  V30 2189 H 195.63 1.42548 -0.363128 0
M  V30 2190 H 197.588 3.86572 1.56901 0
M  V30 2191 H 196.218 2.73397 1.71621 0
M  V30 2192 H 195.27 3.77506 -0.46836 0
M  V30 2193 H 196.582 4.97227 -0.395812 0
M  V30 2194 H 195.736 5.7896 1.81356 0
M  V30 2195 H 194.475 4.52444 1.82058 0
M  V30 2196 H 193.48 5.49128 -0.27169 0
M  V30 2197 H 194.705 6.78598 -0.260957 0
M  V30 2198 H 192.651 6.27171 1.92334 0
M  V30 2199 H 192.568 7.52478 0.728887 0
M  V30 2200 H 193.836 7.55543 1.91766 0
M  V30 2201 N 198.065 0.39524 1.52563 0
M  V30 2202 C 199.295 -0.184675 2.05773 0
M  V30 2203 C 199.703 -1.40571 1.26635 0
M  V30 2204 O 199.046 -1.81105 0.30769 0
M  V30 2205 C 199.108 -0.613551 3.54226 0
M  V30 2206 C 198.772 0.49484 4.54313 0
M  V30 2207 C 199.769 1.3541 5.01956 0
M  V30 2208 C 197.454 0.663565 4.97898 0
M  V30 2209 C 199.448 2.36716 5.91814 0
M  V30 2210 C 197.135 1.67996 5.87555 0
M  V30 2211 C 198.133 2.53017 6.34406 0
M  V30 2212 O 197.821 3.52917 7.22291 0
M  V30 2213 H 197.553 -0.030077 0.675331 0
M  V30 2214 H 200.107 0.560708 1.97599 0
M  V30 2215 H 198.337 -1.411 3.60038 0
M  V30 2216 H 200.026 -1.11981 3.90148 0
M  V30 2217 H 200.792 1.23509 4.6901 0
M  V30 2218 H 196.671 0.0114913 4.60999 0
M  V30 2219 H 200.215 3.03113 6.28306 0
M  V30 2220 H 196.112 1.79933 6.19915 0
M  V30 2221 H 196.88 3.48996 7.40367 0
M  V30 2222 N 199.544 -1.57102 0.125237 0
M  V30 2223 C 200.769 -2.0019 -0.542101 0
M  V30 2224 C 201.194 -1.00449 -1.59034 0
M  V30 2225 O 200.552 0.0229423 -1.81285 0
M  V30 2226 C 200.6 -3.42129 -1.13929 0
M  V30 2227 O 199.704 -3.45307 -2.2547 0
M  V30 2228 H 199.045 -0.650171 -0.134812 0
M  V30 2229 H 201.575 -2.03461 0.215553 0
M  V30 2230 H 201.585 -3.80471 -1.4733 0
M  V30 2231 H 200.26 -4.14237 -0.371531 0
M  V30 2232 H 198.837 -3.1879 -1.93462 0
M  V30 2233 N 201.022 0.148545 -1.56898 0
M  V30 2234 C 202.433 0.708766 -1.72723 0
M  V30 2235 C 202.784 1.81734 -0.739395 0
M  V30 2236 O 201.909 2.16194 0.0943169 0
M  V30 2237 C 202.504 1.29245 -3.13179 0
M  V30 2238 C 201.063 1.79925 -3.30611 0
M  V30 2239 C 200.21 0.687111 -2.68652 0
M  V30 2240 H 203.161 -0.0771063 -1.58513 0
M  V30 2241 H 203.182 2.16224 -3.13093 0
M  V30 2242 H 202.694 0.485382 -3.85053 0
M  V30 2243 H 200.795 2.63203 -2.63732 0
M  V30 2244 H 200.908 1.92903 -4.38549 0
M  V30 2245 H 199.272 1.11335 -2.29078 0
M  V30 2246 H 200.055 -0.108483 -3.43129 0
M  V30 2247 N 202.5 1.5196 0.417844 0
M  V30 2248 C 203.74 1.67262 1.17486 0
M  V30 2249 C 204.104 0.38983 1.88001 0
M  V30 2250 O 205.305 0.418845 2.65517 0
M  V30 2251 C 203.576 2.85526 2.14965 0
M  V30 2252 S 205.135 3.21263 2.98891 0
M  V30 2253 H 201.953 0.589077 0.398132 0
M  V30 2254 H 204.555 1.89927 0.463452 0
M  V30 2255 H 203.259 3.77145 1.61833 0
M  V30 2256 H 202.79 2.65107 2.90657 0
M  V30 2257 H 204.805 2.69208 4.16823 0
M  V30 2258 N 203.978 -0.674533 1.42435 0
M  V30 2259 C 204.941 -1.76986 1.45632 0
M  V30 2260 C 205.941 -1.5708 0.343871 0
M  V30 2261 O 207.131 -1.63367 0.604709 0
M  V30 2262 C 204.263 -3.15623 1.28822 0
M  V30 2263 H 205.456 -1.75539 2.43158 0
M  V30 2264 H 203.009 -0.884189 1.28887 0
M  V30 2265 H 203.744 -3.22696 0.322193 0
M  V30 2266 H 203.529 -3.31475 2.09444 0
M  V30 2267 H 205.019 -3.95537 1.33942 0
M  V30 2268 N 205.456 -1.28612 -0.910864 0
M  V30 2269 C 206.702 -1.17116 -1.66299 0
M  V30 2270 C 207.057 0.276917 -1.90397 0
M  V30 2271 O 206.35 1.19795 -1.49532 0
M  V30 2272 C 206.544 -1.90624 -3.0232 0
M  V30 2273 C 206.373 -3.42431 -2.91498 0
M  V30 2274 C 205.143 -4.11773 -2.92867 0
M  V30 2275 C 207.341 -4.38124 -2.69355 0
M  V30 2276 N 205.323 -5.50025 -2.72664 0
M  V30 2277 C 206.694 -5.63759 -2.58023 0
M  V30 2278 C 208.749 -4.28016 -2.54375 0
M  V30 2279 C 207.452 -6.80436 -2.33238 0
M  V30 2280 C 209.478 -5.44433 -2.30969 0
M  V30 2281 C 208.84 -6.69034 -2.20394 0
M  V30 2282 H 204.939 -0.483506 -0.61461 0
M  V30 2283 H 207.523 -1.62299 -1.0755 0
M  V30 2284 H 205.694 -1.4787 -3.5915 0
M  V30 2285 H 207.426 -1.71488 -3.66571 0
M  V30 2286 H 204.181 -3.63378 -3.03732 0
M  V30 2287 H 204.605 -6.22705 -2.65646 0
M  V30 2288 H 209.247 -3.32388 -2.613 0
M  V30 2289 H 206.965 -7.7613 -2.25051 0
M  V30 2290 H 210.551 -5.38504 -2.20238 0
M  V30 2291 H 209.431 -7.57595 -2.02531 0
M  V30 2292 N 206.934 1.1197 -1.10907 0
M  V30 2293 C 207.844 2.21433 -0.774896 0
M  V30 2294 C 208.86 1.72478 0.229657 0
M  V30 2295 O 210.036 2.01288 0.0672008 0
M  V30 2296 C 207.101 3.4602 -0.216986 0
M  V30 2297 C 206.162 4.09791 -1.27944 0
M  V30 2298 C 205.395 5.28431 -0.748055 0
M  V30 2299 O 205.618 5.68823 0.423833 0
M  V30 2300 O 204.552 5.82644 -1.51027 0
M  V30 2301 H 208.378 2.5242 -1.68873 0
M  V30 2302 H 205.963 1.20399 -0.884555 0
M  V30 2303 H 207.845 4.21304 0.090059 0
M  V30 2304 H 206.52 3.16698 0.669633 0
M  V30 2305 H 205.427 3.36265 -1.63941 0
M  V30 2306 H 206.76 4.4328 -2.13925 0
M  V30 2307 N 208.412 0.89855 1.29475 0
M  V30 2308 C 209.658 0.524658 1.95896 0
M  V30 2309 C 209.991 -0.926468 1.70676 0
M  V30 2310 O 209.266 -1.65665 1.01908 0
M  V30 2311 C 209.549 0.81633 3.50725 0
M  V30 2312 C 209.402 2.31907 3.85408 0
M  V30 2313 C 210.721 0.302038 4.39062 0
M  V30 2314 H 207.84 0.19209 0.711527 0
M  V30 2315 H 210.482 1.12502 1.53112 0
M  V30 2316 H 208.632 0.305369 3.87298 0
M  V30 2317 H 210.304 2.89949 3.58786 0
M  V30 2318 H 208.547 2.78027 3.32992 0
M  V30 2319 H 209.218 2.47373 4.93468 0
M  V30 2320 H 211.694 0.739551 4.09475 0
M  V30 2321 H 210.57 0.535331 5.46283 0
M  V30 2322 H 210.831 -0.797216 4.34853 0
M  V30 2323 N 209.89 -1.43072 0.660911 0
M  V30 2324 C 211.136 -2.0202 0.177708 0
M  V30 2325 C 211.469 -1.52066 -1.20787 0
M  V30 2326 O 210.744 -0.716987 -1.80802 0
M  V30 2327 C 211.027 -3.59561 0.197019 0
M  V30 2328 C 210.88 -4.19727 1.61706 0
M  V30 2329 C 212.199 -4.37664 -0.462396 0
M  V30 2330 H 209.318 -0.734034 0.0660494 0
M  V30 2331 H 211.96 -1.70272 0.843058 0
M  V30 2332 H 210.11 -3.86739 -0.369527 0
M  V30 2333 H 211.782 -4.03553 2.23479 0
M  V30 2334 H 210.025 -3.76084 2.16201 0
M  V30 2335 H 210.696 -5.28834 1.58237 0
M  V30 2336 H 213.172 -4.16095 0.0197215 0
M  V30 2337 H 212.048 -5.47305 -0.418188 0
M  V30 2338 H 212.309 -4.14493 -1.53778 0
M  V30 2339 N 211.368 -0.403325 -1.52352 0
M  V30 2340 C 212.784 -0.0539281 -1.59509 0
M  V30 2341 C 212.984 1.43307 -1.41652 0
M  V30 2342 O 212.04 2.19924 -1.24056 0
M  V30 2343 C 213.353 -0.543654 -2.95745 0
M  V30 2344 C 214.901 -0.501125 -3.08962 0
M  V30 2345 C 215.376 -0.967267 -4.47669 0
M  V30 2346 N 216.867 -0.923849 -4.53893 0
M  V30 2347 C 217.602 -1.25578 -5.5948 0
M  V30 2348 N 217.098 -1.65889 -6.72646 0
M  V30 2349 N 218.891 -1.17613 -5.49658 0
M  V30 2350 H 211.042 -1.37123 -1.62206 0
M  V30 2351 H 213.305 -0.56294 -0.76276 0
M  V30 2352 H 213.011 -1.58275 -3.14073 0
M  V30 2353 H 212.885 0.0498042 -3.77167 0
M  V30 2354 H 215.272 0.528909 -2.90321 0
M  V30 2355 H 215.353 -1.13056 -2.2946 0
M  V30 2356 H 214.997 -1.9956 -4.67053 0
M  V30 2357 H 214.927 -0.314698 -5.25659 0
M  V30 2358 H 217.418 -0.627403 -3.72655 0
M  V30 2359 H 217.731 -1.89543 -7.49195 0
M  V30 2360 H 216.076 -1.69787 -6.73942 0
M  V30 2361 H 219.267 -0.860115 -4.6013 0
M  V30 2362 H 219.44 -1.43812 -6.3184 0
M  V30 2363 N 212.846 1.57033 -0.133567 0
M  V30 2364 C 213.809 2.14897 0.796995 0
M  V30 2365 C 214.809 1.0874 1.18458 0
M  V30 2366 O 215.999 1.34446 1.1077 0
M  V30 2367 C 213.131 2.70112 2.07973 0
M  V30 2368 H 214.324 2.98457 0.293873 0
M  V30 2369 H 211.877 1.55871 0.115787 0
M  V30 2370 H 212.612 1.9018 2.62682 0
M  V30 2371 H 212.397 3.47764 1.81115 0
M  V30 2372 H 213.887 3.14738 2.74462 0
M  V30 2373 N 214.325 -0.140222 1.56975 0
M  V30 2374 C 215.235 -1.19223 2.02047 0
M  V30 2375 C 216.251 -1.46612 0.937062 0
M  V30 2376 O 217.427 -1.58148 1.24704 0
M  V30 2377 C 214.492 -2.50414 2.39778 0
M  V30 2378 C 213.553 -2.30612 3.621 0
M  V30 2379 C 212.786 -3.55547 3.98023 0
M  V30 2380 O 213.009 -4.62004 3.34528 0
M  V30 2381 O 211.943 -3.47808 4.91237 0
M  V30 2382 H 215.769 -0.839559 2.91865 0
M  V30 2383 H 213.354 -0.349453 1.45256 0
M  V30 2384 H 215.236 -3.27747 2.64877 0
M  V30 2385 H 213.911 -2.85198 1.53114 0
M  V30 2386 H 212.818 -1.51207 3.4218 0
M  V30 2387 H 214.151 -2.00741 4.49404 0
M  V30 2388 N 215.803 -1.52179 -0.40978 0
M  V30 2389 C 217.052 -1.65434 -1.15388 0
M  V30 2390 C 217.365 -0.390056 -1.91671 0
M  V30 2391 O 218.571 -0.402399 -2.68501 0
M  V30 2392 C 217.027 -2.92279 -2.10003 0
M  V30 2393 C 216.635 -4.25813 -1.39239 0
M  V30 2394 C 218.379 -3.14897 -2.84675 0
M  V30 2395 C 216.286 -5.43782 -2.32498 0
M  V30 2396 H 215.216 -0.616267 -0.434432 0
M  V30 2397 H 217.867 -1.78666 -0.418401 0
M  V30 2398 H 216.249 -2.72744 -2.871 0
M  V30 2399 H 217.423 -4.55828 -0.675099 0
M  V30 2400 H 215.738 -4.09292 -0.766097 0
M  V30 2401 H 218.335 -4.0021 -3.54593 0
M  V30 2402 H 218.678 -2.29103 -3.47588 0
M  V30 2403 H 219.211 -3.34901 -2.14677 0
M  V30 2404 H 215.95 -6.3192 -1.74233 0
M  V30 2405 H 215.47 -5.18106 -3.02201 0
M  V30 2406 H 217.149 -5.76834 -2.93038 0
M  V30 2407 N 217.281 0.66697 -1.42791 0
M  V30 2408 C 218.214 1.79177 -1.41318 0
M  V30 2409 C 219.192 1.60234 -0.276401 0
M  V30 2410 O 220.376 1.82602 -0.46785 0
M  V30 2411 C 217.503 3.16289 -1.21157 0
M  V30 2412 C 216.549 3.53964 -2.37932 0
M  V30 2413 S 217.382 3.55501 -4.00474 0
M  V30 2414 C 218.538 4.95292 -3.8267 0
M  V30 2415 H 218.771 1.80153 -2.365 0
M  V30 2416 H 216.304 0.838357 -1.29657 0
M  V30 2417 H 218.262 3.95428 -1.10212 0
M  V30 2418 H 216.923 3.1289 -0.275481 0
M  V30 2419 H 216.116 4.53646 -2.19594 0
M  V30 2420 H 215.718 2.82204 -2.45432 0
M  V30 2421 H 218.01 5.83584 -3.44145 0
M  V30 2422 H 218.953 5.18679 -4.82055 0
M  V30 2423 H 219.361 4.68179 -3.15386 0
M  V30 2424 N 218.759 1.29093 0.90403 0
M  V30 2425 C 220.175 1.07011 1.1841 0
M  V30 2426 C 220.375 -0.181358 2.00682 0
M  V30 2427 O 219.431 -0.880331 2.36657 0
M  V30 2428 C 220.744 2.32311 1.90924 0
M  V30 2429 C 222.292 2.37587 2.03768 0
M  V30 2430 C 222.767 3.62679 2.79693 0
M  V30 2431 N 224.258 3.63376 2.87249 0
M  V30 2432 C 224.993 4.56848 3.46522 0
M  V30 2433 N 224.489 5.60648 4.06996 0
M  V30 2434 N 226.282 4.44426 3.44154 0
M  V30 2435 H 218.433 2.09412 0.354993 0
M  V30 2436 H 220.696 0.922181 0.219742 0
M  V30 2437 H 220.402 3.23536 1.37905 0
M  V30 2438 H 220.276 2.39483 2.91424 0
M  V30 2439 H 222.663 1.46853 2.55965 0
M  V30 2440 H 222.744 2.34403 1.02415 0
M  V30 2441 H 222.388 4.53762 2.28173 0
M  V30 2442 H 222.318 3.63119 3.81381 0
M  V30 2443 H 224.809 2.88321 2.44293 0
M  V30 2444 H 225.122 6.28101 4.50232 0
M  V30 2445 H 223.467 5.64463 4.05471 0
M  V30 2446 H 226.658 3.62529 2.96126 0
M  V30 2447 H 226.831 5.17457 3.90054 0
M  V30 2448 N 220.237 -1.11381 1.11499 0
M  V30 2449 C 221.462 -1.87475 0.887019 0
M  V30 2450 C 221.887 -1.79639 -0.557796 0
M  V30 2451 O 221.245 -1.15924 -1.39396 0
M  V30 2452 C 221.293 -3.34213 1.35403 0
M  V30 2453 O 220.397 -4.0903 0.526146 0
M  V30 2454 H 219.738 -0.582099 0.319463 0
M  V30 2455 H 222.268 -1.40785 1.48461 0
M  V30 2456 H 222.278 -3.8506 1.34881 0
M  V30 2457 H 220.953 -3.39232 2.40612 0
M  V30 2458 H 219.53 -3.68082 0.597522 0
M  V30 2459 N 221.715 -0.905404 -1.28997 0
M  V30 2460 C 222.962 -0.534248 -1.95325 0
M  V30 2461 C 223.29 0.920535 -1.71337 0
M  V30 2462 O 222.545 1.66861 -1.02254 0
M  V30 2463 C 222.844 -0.779906 -3.48787 0
M  V30 2464 C 222.51 -2.21293 -3.92861 0
M  V30 2465 C 221.172 -2.60475 -4.04606 0
M  V30 2466 C 223.524 -3.14587 -4.15553 0
M  V30 2467 C 220.852 -3.9212 -4.36416 0
M  V30 2468 C 223.204 -4.45787 -4.48839 0
M  V30 2469 C 221.868 -4.84834 -4.58794 0
M  V30 2470 H 221.138 -0.195495 -0.714747 0
M  V30 2471 H 223.785 -1.14514 -1.53488 0
M  V30 2472 H 222.09 -0.0861365 -3.91705 0
M  V30 2473 H 223.787 -0.472029 -3.98212 0
M  V30 2474 H 220.377 -1.89887 -3.84241 0
M  V30 2475 H 224.561 -2.85528 -4.0594 0
M  V30 2476 H 219.817 -4.22086 -4.42327 0
M  V30 2477 H 223.991 -5.18098 -4.65346 0
M  V30 2478 H 221.618 -5.86877 -4.83197 0
M  V30 2479 N 223.193 1.4272 -0.668489 0
M  V30 2480 C 224.418 2.06484 -0.194758 0
M  V30 2481 C 224.843 1.49862 1.13679 0
M  V30 2482 O 224.201 0.614582 1.70565 0
M  V30 2483 C 224.249 3.60353 -0.133546 0
M  V30 2484 O 223.353 4.02464 0.899806 0
M  V30 2485 H 222.694 0.656137 -0.10188 0
M  V30 2486 H 225.224 1.82964 -0.915722 0
M  V30 2487 H 225.234 4.07976 0.0447041 0
M  V30 2488 H 223.909 4.00938 -1.1055 0
M  V30 2489 H 222.486 3.66402 0.693109 0
M  V30 2490 N 224.671 0.411399 1.52136 0
M  V30 2491 C 225.601 -0.404015 2.29978 0
M  V30 2492 C 226.582 -1.04412 1.34284 0
M  V30 2493 O 227.767 -1.0527 1.63192 0
M  V30 2494 C 224.897 -1.5197 3.12286 0
M  V30 2495 C 223.851 -1.00448 4.16046 0
M  V30 2496 C 223.177 -2.21393 4.86712 0
M  V30 2497 C 224.477 -0.0569336 5.22269 0
M  V30 2498 H 226.171 0.245529 2.98392 0
M  V30 2499 H 223.717 0.119525 1.43503 0
M  V30 2500 H 225.67 -2.09715 3.6551 0
M  V30 2501 H 224.394 -2.19716 2.41646 0
M  V30 2502 H 223.053 -0.449421 3.63835 0
M  V30 2503 H 222.701 -2.87699 4.12599 0
M  V30 2504 H 222.401 -1.87571 5.56858 0
M  V30 2505 H 223.925 -2.7974 5.4275 0
M  V30 2506 H 225.339 -0.54325 5.7072 0
M  V30 2507 H 223.736 0.192594 5.99791 0
M  V30 2508 H 224.806 0.887663 4.76706 0
M  V30 2509 N 226.149 -1.5696 0.141893 0
M  V30 2510 C 227.374 -2.00754 -0.520838 0
M  V30 2511 C 227.799 -1.0213 -1.57959 0
M  V30 2512 O 227.157 0.00371324 -1.813 0
M  V30 2513 C 227.205 -3.43318 -1.10294 0
M  V30 2514 O 226.309 -3.47679 -2.21795 0
M  V30 2515 H 225.65 -0.651564 -0.127908 0
M  V30 2516 H 228.18 -2.03221 0.23712 0
M  V30 2517 H 228.19 -3.82012 -1.43287 0
M  V30 2518 H 226.865 -4.14608 -0.327574 0
M  V30 2519 H 225.442 -3.20824 -1.9007 0
M  V30 2520 N 227.627 0.131896 -1.57047 0
M  V30 2521 C 228.855 0.856461 -1.88341 0
M  V30 2522 C 229.27 1.74042 -0.731757 0
M  V30 2523 O 228.627 1.80051 0.297945 0
M  V30 2524 C 228.678 1.70064 -3.18999 0
M  V30 2525 O 228.399 0.852278 -4.2973 0
M  V30 2526 C 229.9 2.53148 -3.63911 0
M  V30 2527 H 227.12 0.246885 -0.62393 0
M  V30 2528 H 229.664 0.120152 -2.04147 0
M  V30 2529 H 227.819 2.38984 -3.04902 0
M  V30 2530 H 228.233 1.43329 -5.04537 0
M  V30 2531 H 229.707 3.07931 -4.58129 0
M  V30 2532 H 230.184 3.29901 -2.89935 0
M  V30 2533 H 230.79 1.89492 -3.80753 0
M  V30 2534 N 229.106 1.52395 0.401703 0
M  V30 2535 C 230.054 1.7689 1.51039 0
M  V30 2536 C 231.048 0.636298 1.56996 0
M  V30 2537 O 232.254 0.818507 1.60314 0
M  V30 2538 H 228.629 0.559502 0.502456 0
M  V30 2539 H 230.6 2.69757 1.27568 0
M  V30 2540 C 229.349 1.94331 2.88324 0
M  V30 2541 H 228.672 2.80905 2.84486 0
M  V30 2542 H 230.112 2.15466 3.65172 0
M  V30 2543 C 228.571 0.712396 3.29282 0
M  V30 2544 O 229.101 -0.116218 4.01532 0
M  V30 2545 N 227.307 0.546154 2.85422 0
M  V30 2546 H 226.854 1.22156 2.26794 0
M  V30 2547 H 226.812 -0.276113 3.13185 0
M  V30 2548 N 230.584 -0.659388 1.43143 0
M  V30 2549 C 231.514 -1.78422 1.50625 0
M  V30 2550 C 232.495 -1.66216 0.361443 0
M  V30 2551 O 233.68 -1.85404 0.577834 0
M  V30 2552 C 230.81 -3.16815 1.42287 0
M  V30 2553 C 229.764 -3.43777 2.54954 0
M  V30 2554 C 229.09 -4.81905 2.31671 0
M  V30 2555 C 230.39 -3.39134 3.97222 0
M  V30 2556 H 232.084 -1.72417 2.44771 0
M  V30 2557 H 229.63 -0.828084 1.17808 0
M  V30 2558 H 231.583 -3.95253 1.46127 0
M  V30 2559 H 230.307 -3.23534 0.446435 0
M  V30 2560 H 228.966 -2.67707 2.50457 0
M  V30 2561 H 228.614 -4.85294 1.32284 0
M  V30 2562 H 228.314 -5.00906 3.07192 0
M  V30 2563 H 229.838 -5.62609 2.37284 0
M  V30 2564 H 231.252 -4.07518 4.03239 0
M  V30 2565 H 229.649 -3.69671 4.72719 0
M  V30 2566 H 230.719 -2.37426 4.22797 0
M  V30 2567 N 232.062 -1.29571 -0.897171 0
M  V30 2568 C 232.994 -1.10724 -2.00681 0
M  V30 2569 C 234.007 -0.0540026 -1.6271 0
M  V30 2570 O 235.196 -0.298783 -1.75982 0
M  V30 2571 C 232.296 -0.663912 -3.32333 0
M  V30 2572 C 231.469 -1.79622 -3.98816 0
M  V30 2573 C 230.528 -1.34349 -5.0876 0
M  V30 2574 O 229.554 -2.04864 -5.31055 0
M  V30 2575 N 230.756 -0.215764 -5.80099 0
M  V30 2576 H 233.521 -2.06291 -2.17403 0
M  V30 2577 H 231.082 -1.21544 -1.06951 0
M  V30 2578 H 233.074 -0.344295 -4.03233 0
M  V30 2579 H 231.644 0.199375 -3.11964 0
M  V30 2580 H 230.864 -2.28459 -3.21248 0
M  V30 2581 H 232.152 -2.55535 -4.39976 0
M  V30 2582 H 231.55 0.372091 -5.64475 0
M  V30 2583 H 230.107 0.0444707 -6.51785 0
M  V30 2584 N 233.54 1.10788 -1.12088 0
M  V30 2585 C 234.45 2.20599 -0.798338 0
M  V30 2586 C 235.466 1.72712 0.21135 0
M  V30 2587 O 236.642 2.01348 0.0458477 0
M  V30 2588 C 233.707 3.45771 -0.253674 0
M  V30 2589 C 232.768 4.08411 -1.32283 0
M  V30 2590 C 232.001 5.27608 -0.80406 0
M  V30 2591 O 232.224 5.69241 0.363478 0
M  V30 2592 O 231.158 5.8101 -1.57198 0
M  V30 2593 H 234.984 2.50614 -1.7154 0
M  V30 2594 H 232.569 1.19454 -0.897275 0
M  V30 2595 H 234.451 4.21376 0.0453691 0
M  V30 2596 H 233.126 3.1739 0.636005 0
M  V30 2597 H 232.033 3.34507 -1.67499 0
M  V30 2598 H 233.366 4.40986 -2.18614 0
M  V30 2599 N 235.018 0.912232 1.28515 0
M  V30 2600 C 236.243 0.559774 1.99703 0
M  V30 2601 C 236.668 -0.851393 1.67729 0
M  V30 2602 O 236.026 -1.56875 0.908834 0
M  V30 2603 C 236.074 0.773874 3.52198 0
M  V30 2604 O 235.178 -0.167842 4.12058 0
M  V30 2605 H 234.519 0.21723 0.627461 0
M  V30 2606 H 237.049 1.22725 1.63706 0
M  V30 2607 H 237.059 0.683386 4.02236 0
M  V30 2608 H 235.734 1.80261 3.74805 0
M  V30 2609 H 234.311 -0.0287509 3.72889 0
M  V30 2610 N 236.496 -1.42363 0.676048 0
M  V30 2611 C 237.426 -2.33497 0.0124832 0
M  V30 2612 C 238.407 -1.50748 -0.787981 0
M  V30 2613 O 239.592 -1.79346 -0.744884 0
M  V30 2614 C 236.722 -3.34377 -0.938582 0
M  V30 2615 C 235.676 -4.27289 -0.246622 0
M  V30 2616 C 235.002 -5.18386 -1.31071 0
M  V30 2617 C 236.302 -5.14916 0.875125 0
M  V30 2618 H 237.996 -2.89233 0.773593 0
M  V30 2619 H 235.542 -1.39073 0.37346 0
M  V30 2620 H 237.495 -3.97044 -1.41188 0
M  V30 2621 H 236.219 -2.76947 -1.73113 0
M  V30 2622 H 234.878 -3.66018 0.206456 0
M  V30 2623 H 234.526 -4.57282 -2.09528 0
M  V30 2624 H 234.226 -5.81378 -0.852839 0
M  V30 2625 H 235.75 -5.83929 -1.78492 0
M  V30 2626 H 237.164 -5.71262 0.482983 0
M  V30 2627 H 235.561 -5.86747 1.25887 0
M  V30 2628 H 236.631 -4.53242 1.72335 0
M  V30 2629 N 237.974 -0.419461 -1.51915 0
M  V30 2630 C 239.39 -0.0708431 -1.59443 0
M  V30 2631 C 239.59 1.41796 -1.43164 0
M  V30 2632 O 238.646 2.18596 -1.26381 0
M  V30 2633 C 239.959 -0.574991 -2.95151 0
M  V30 2634 C 241.507 -0.533867 -3.08413 0
M  V30 2635 C 241.982 -1.01469 -4.46618 0
M  V30 2636 N 243.473 -0.971939 -4.52888 0
M  V30 2637 C 244.208 -1.31505 -5.58116 0
M  V30 2638 N 243.704 -1.73014 -6.70849 0
M  V30 2639 N 245.497 -1.23436 -5.48379 0
M  V30 2640 H 237.648 -1.38836 -1.60743 0
M  V30 2641 H 239.911 -0.570998 -0.756747 0
M  V30 2642 H 239.617 -1.61597 -3.12377 0
M  V30 2643 H 239.491 0.00979777 -3.77199 0
M  V30 2644 H 241.878 0.498086 -2.90866 0
M  V30 2645 H 241.959 -1.15484 -2.28248 0
M  V30 2646 H 241.603 -2.04502 -4.6491 0
M  V30 2647 H 241.533 -0.370433 -5.25295 0
M  V30 2648 H 244.024 -0.666893 -3.71969 0
M  V30 2649 H 244.337 -1.97479 -7.47143 0
M  V30 2650 H 242.682 -1.76926 -6.72103 0
M  V30 2651 H 245.873 -0.908869 -4.59192 0
M  V30 2652 H 246.046 -1.50506 -6.30279 0
M  V30 2653 N 239.452 1.56882 -0.150215 0
M  V30 2654 C 240.677 2.01027 0.510184 0
M  V30 2655 C 241.102 1.02966 1.57415 0
M  V30 2656 O 240.46 0.00590158 1.81299 0
M  V30 2657 C 240.508 3.43899 1.08472 0
M  V30 2658 O 239.612 3.4885 2.19948 0
M  V30 2659 H 238.953 0.652233 0.124451 0
M  V30 2660 H 241.483 2.03093 -0.247894 0
M  V30 2661 H 241.493 3.82766 1.41259 0
M  V30 2662 H 240.168 4.14776 0.305582 0
M  V30 2663 H 238.745 3.21827 1.88366 0
M  V30 2664 N 240.93 -0.123565 1.57115 0
M  V30 2665 C 241.877 -1.15177 2.00007 0
M  V30 2666 C 242.847 -1.41403 0.871454 0
M  V30 2667 O 244.032 -1.53346 1.13533 0
M  V30 2668 C 241.172 -2.47436 2.40561 0
M  V30 2669 C 240.285 -2.28184 3.66819 0
M  V30 2670 C 239.42 -3.53641 3.96373 0
M  V30 2671 C 238.459 -3.29528 5.15827 0
M  V30 2672 N 237.596 -4.47175 5.41275 0
M  V30 2673 H 242.436 -0.779008 2.87638 0
M  V30 2674 H 239.973 -0.373166 1.42288 0
M  V30 2675 H 241.931 -3.24584 2.62109 0
M  V30 2676 H 240.561 -2.82614 1.55978 0
M  V30 2677 H 239.613 -1.41976 3.52912 0
M  V30 2678 H 240.925 -2.0634 4.5412 0
M  V30 2679 H 240.079 -4.39209 4.18545 0
M  V30 2680 H 238.818 -3.78512 3.07538 0
M  V30 2681 H 237.823 -2.42349 4.93505 0
M  V30 2682 H 239.048 -3.06031 6.06236 0
M  V30 2683 H 236.994 -4.72175 4.55397 0
M  V30 2684 H 236.911 -4.28419 6.22891 0
M  V30 2685 H 238.179 -5.3389 5.67963 0
M  V30 2686 N 242.408 -1.52605 -0.393616 0
M  V30 2687 C 243.318 -1.79971 -1.50492 0
M  V30 2688 C 244.334 -0.686181 -1.59899 0
M  V30 2689 O 245.51 -0.973274 -1.76322 0
M  V30 2690 C 242.575 -1.95867 -2.86072 0
M  V30 2691 C 241.636 -3.19781 -2.86424 0
M  V30 2692 C 240.869 -3.34909 -4.15538 0
M  V30 2693 O 241.092 -2.54948 -5.10253 0
M  V30 2694 O 240.026 -4.28141 -4.23059 0
M  V30 2695 H 243.852 -2.74328 -1.30299 0
M  V30 2696 H 241.437 -1.3764 -0.581005 0
M  V30 2697 H 243.319 -2.08056 -3.66457 0
M  V30 2698 H 241.994 -1.04699 -3.063 0
M  V30 2699 H 240.901 -3.13038 -2.04837 0
M  V30 2700 H 242.234 -4.1078 -2.71147 0
M  V30 2701 O 243.925 0.539544 -1.52221 0
M  V30 2702 H 244.616 1.19468 -1.5247 0
M  V30 END ATOM
M  V30 BEGIN BOND
M  V30 END BOND
M  V30 END CTAB
M  END
$$$$
