drugbank_drug|DB00066 Beta chain
 OpenBabel12092119123D

  0  0  0     0  0            999 V3000
M  V30 BEGIN CTAB
M  V30 COUNTS 1698 1717 0 0 0
M  V30 BEGIN ATOM
M  V30 1 H -0.908 1.98254 -0.117106 0
M  V30 2 N 0 1.576 0 0
M  V30 3 C 0.948 2.09545 1.00963 0
M  V30 4 C 1.942 1.01544 1.35592 0
M  V30 5 O 3.148 1.20009 1.34156 0
M  V30 6 H -0.477 0.669092 0.34325 0
M  V30 7 H 1.494 2.93363 0.545963 0
M  V30 8 C 0.243 2.61403 2.29268 0
M  V30 9 H -0.434 3.44139 2.0349 0
M  V30 10 H 1.006 3.01427 2.9819 0
M  V30 11 C -0.535 1.52817 3.00248 0
M  V30 12 O -0.005 0.911077 3.91232 0
M  V30 13 N -1.799 1.25562 2.62074 0
M  V30 14 H -2.252 1.75928 1.88167 0
M  V30 15 H -2.294 0.531278 3.09879 0
M  V30 16 N 1.4781 -0.272755 1.55222 0
M  V30 17 C 2.7031 -1.02683 1.80197 0
M  V30 18 C 3.1281 -1.79142 0.573551 0
M  V30 19 O 2.4861 -1.74917 -0.476849 0
M  V30 20 C 2.5341 -1.9609 3.02624 0
M  V30 21 O 1.6381 -3.04863 2.77727 0
M  V30 22 H 0.9791 -0.293557 0.595584 0
M  V30 23 H 3.5091 -0.30159 2.02365 0
M  V30 24 H 3.5191 -2.38039 3.31363 0
M  V30 25 H 2.1941 -1.39851 3.91682 0
M  V30 26 H 0.7711 -2.67228 2.60084 0
M  V30 27 N 2.9562 -1.48159 -0.537278 0
M  V30 28 C 4.1962 -1.57397 -1.30405 0
M  V30 29 C 4.5602 -0.239202 -1.90504 0
M  V30 30 O 5.7612 -0.206528 -2.68005 0
M  V30 31 C 4.0322 -2.6754 -2.36974 0
M  V30 32 S 5.5912 -2.96496 -3.23475 0
M  V30 33 H 2.4092 -0.555577 -0.443684 0
M  V30 34 H 5.0112 -1.85644 -0.612912 0
M  V30 35 H 3.7152 -3.63092 -1.91291 0
M  V30 36 H 3.2462 -2.41172 -3.10805 0
M  V30 37 H 5.2612 -2.35234 -4.36897 0
M  V30 38 N 4.4343 0.785586 -1.36625 0
M  V30 39 C 5.3443 1.92964 -1.33425 0
M  V30 40 C 6.3603 1.72394 -0.235851 0
M  V30 41 O 7.5363 1.95866 -0.468878 0
M  V30 42 C 4.6013 3.27884 -1.12662 0
M  V30 43 C 3.6623 3.61204 -2.32013 0
M  V30 44 C 2.8953 4.89687 -2.12231 0
M  V30 45 O 3.1183 5.59704 -1.09945 0
M  V30 46 O 2.0523 5.21752 -3.00098 0
M  V30 47 H 5.8783 1.98613 -2.29753 0
M  V30 48 H 3.4633 0.926384 -1.17211 0
M  V30 49 H 5.3453 4.08614 -1.03016 0
M  V30 50 H 4.0203 3.23118 -0.193991 0
M  V30 51 H 2.9273 2.80765 -2.47228 0
M  V30 52 H 4.2603 3.70698 -3.23796 0
M  V30 53 N 5.9124 1.20967 1.01018 0
M  V30 54 C 6.8424 0.988272 2.11555 0
M  V30 55 C 7.8234 -0.0849778 1.69888 0
M  V30 56 O 9.0084 0.0738202 1.9406 0
M  V30 57 C 6.1384 0.546528 3.42973 0
M  V30 58 C 5.0924 1.56375 3.9841 0
M  V30 59 C 4.4184 0.97842 5.25672 0
M  V30 60 C 5.7184 2.94922 4.31066 0
M  V30 61 H 7.4124 1.91276 2.30334 0
M  V30 62 H 4.9584 0.921073 1.1069 0
M  V30 63 H 6.9114 0.378839 4.19694 0
M  V30 64 H 5.6354 -0.413598 3.23971 0
M  V30 65 H 4.2944 1.71891 3.23804 0
M  V30 66 H 3.9424 0.0101688 5.02999 0
M  V30 67 H 3.6424 1.65784 5.63728 0
M  V30 68 H 5.1664 0.821939 6.05043 0
M  V30 69 H 6.5804 2.8288 4.9865 0
M  V30 70 H 4.9774 3.5983 4.80253 0
M  V30 71 H 6.0474 3.4616 3.39561 0
M  V30 72 N 7.3905 -1.2043 1.01659 0
M  V30 73 C 8.6185 -1.93777 0.725132 0
M  V30 74 C 9.0335 -1.74772 -0.714166 0
M  V30 75 O 8.3905 -1.06169 -1.4844 0
M  V30 76 C 8.4415 -3.45876 1.05129 0
M  V30 77 O 8.1625 -3.6426 2.43406 0
M  V30 78 C 9.6635 -4.36368 0.780891 0
M  V30 79 H 6.8835 -0.615901 0.266284 0
M  V30 80 H 9.4275 -1.52922 1.35776 0
M  V30 81 H 7.5825 -3.8461 0.464065 0
M  V30 82 H 7.9965 -4.58246 2.55169 0
M  V30 83 H 9.4705 -5.41743 1.05918 0
M  V30 84 H 9.9475 -4.38275 -0.284937 0
M  V30 85 H 10.5535 -4.03296 1.35027 0
M  V30 86 N 8.8686 -0.792821 -1.36206 0
M  V30 87 C 9.8166 -0.181555 -2.3189 0
M  V30 88 C 10.8106 0.661025 -1.55971 0
M  V30 89 O 12.0166 0.555728 -1.71206 0
M  V30 90 H 8.3916 -0.0399382 -0.750939 0
M  V30 91 H 10.3626 -1.00394 -2.81005 0
M  V30 92 C 9.1116 0.666444 -3.41253 0
M  V30 93 H 8.4346 0.0274489 -3.99791 0
M  V30 94 H 9.8746 1.06076 -4.10517 0
M  V30 95 C 8.3336 1.82614 -2.83114 0
M  V30 96 O 8.8636 2.9229 -2.75553 0
M  V30 97 N 7.0696 1.63333 -2.40356 0
M  V30 98 H 6.6166 0.741217 -2.46706 0
M  V30 99 H 6.5746 2.41087 -2.01803 0
M  V30 100 N 10.3467 1.47872 -0.545128 0
M  V30 101 C 11.5957 2.01695 -0.0145033 0
M  V30 102 C 11.9087 1.42609 1.33873 0
M  V30 103 O 13.1147 1.88021 1.95858 0
M  V30 104 C 11.5707 3.59892 0.0245068 0
M  V30 105 C 11.1787 4.27966 -1.32475 0
M  V30 106 C 12.9227 4.21507 0.50316 0
M  V30 107 C 10.8297 5.78136 -1.2455 0
M  V30 108 H 9.7597 0.753998 -0.00165172 0
M  V30 109 H 12.4107 1.69985 -0.691175 0
M  V30 110 H 10.7927 3.88509 0.766575 0
M  V30 111 H 11.9667 4.11003 -2.08357 0
M  V30 112 H 10.2817 3.78286 -1.74036 0
M  V30 113 H 12.8787 5.31538 0.580656 0
M  V30 114 H 13.2217 3.87855 1.51243 0
M  V30 115 H 13.7547 3.97376 -0.183681 0
M  V30 116 H 10.4937 6.16388 -2.23039 0
M  V30 117 H 10.0137 5.97469 -0.528282 0
M  V30 118 H 11.6927 6.40099 -0.942488 0
M  V30 119 N 11.8248 0.280983 1.55075 0
M  V30 120 C 13.0528 -0.337293 2.04132 0
M  V30 121 C 13.4678 -1.4903 1.15912 0
M  V30 122 O 12.8248 -1.81606 0.180459 0
M  V30 123 C 12.8758 -0.812706 3.52246 0
M  V30 124 O 12.5968 0.294387 4.3711 0
M  V30 125 C 14.0978 -1.4982 4.17216 0
M  V30 126 H 11.3178 -0.0761638 0.666663 0
M  V30 127 H 13.8618 0.414787 2.00249 0
M  V30 128 H 12.0168 -1.51486 3.56554 0
M  V30 129 H 12.4308 -0.0721325 5.2445 0
M  V30 130 H 13.9048 -1.7822 5.22438 0
M  V30 131 H 14.3818 -2.43168 3.65741 0
M  V30 132 H 14.9878 -0.839742 4.16927 0
M  V30 133 N 13.3029 -1.57598 0.00835791 0
M  V30 134 C 14.5519 -1.90107 -0.673968 0
M  V30 135 C 14.8649 -0.884275 -1.7447 0
M  V30 136 O 16.0709 -1.09987 -2.48224 0
M  V30 137 C 14.5269 -3.37497 -1.24995 0
M  V30 138 C 14.1349 -4.47491 -0.2136 0
M  V30 139 C 15.8789 -3.79104 -1.90999 0
M  V30 140 C 13.7859 -5.85963 -0.80005 0
M  V30 141 H 12.7159 -0.709393 -0.255495 0
M  V30 142 H 15.3669 -1.83365 0.0702693 0
M  V30 143 H 13.7489 -3.39102 -2.04513 0
M  V30 144 H 14.9229 -4.57414 0.557596 0
M  V30 145 H 13.2379 -4.14956 0.346474 0
M  V30 146 H 15.8349 -4.79901 -2.35795 0
M  V30 147 H 16.1779 -3.1306 -2.74407 0
M  V30 148 H 16.7109 -3.79833 -1.18203 0
M  V30 149 H 13.4499 -6.555 -0.00456708 0
M  V30 150 H 12.9699 -5.79687 -1.54021 0
M  V30 151 H 14.6489 -6.33884 -1.29615 0
M  V30 152 N 14.781 0.264519 -1.55364 0
M  V30 153 C 15.744 1.31046 -1.88042 0
M  V30 154 C 16.744 1.41943 -0.755569 0
M  V30 155 O 17.934 1.40947 -1.02369 0
M  V30 156 C 15.066 2.69067 -2.09323 0
M  V30 157 H 16.259 1.03297 -2.81549 0
M  V30 158 H 13.812 0.502989 -1.47986 0
M  V30 159 H 14.547 3.01982 -1.18226 0
M  V30 160 H 14.332 2.62542 -2.91229 0
M  V30 161 H 15.822 3.44623 -2.35848 0
M  V30 162 N 16.2591 1.48442 0.529413 0
M  V30 163 C 17.5081 1.55742 1.28169 0
M  V30 164 C 17.8211 0.236511 1.94165 0
M  V30 165 O 19.0271 0.187761 2.7085 0
M  V30 166 C 17.4831 2.74667 2.32564 0
M  V30 167 C 17.0911 4.13402 1.72636 0
M  V30 168 C 18.8351 2.9128 3.08798 0
M  V30 169 C 16.7421 5.23587 2.74975 0
M  V30 170 H 15.6721 0.579796 0.48203 0
M  V30 171 H 18.3231 1.74776 0.559056 0
M  V30 172 H 16.7051 2.49067 3.07866 0
M  V30 173 H 17.8791 4.49022 1.03519 0
M  V30 174 H 16.1941 4.0191 1.08892 0
M  V30 175 H 18.7911 3.70767 3.85274 0
M  V30 176 H 19.1341 2.00757 3.64695 0
M  V30 177 H 19.6671 3.16782 2.40611 0
M  V30 178 H 16.4061 6.16076 2.23897 0
M  V30 179 H 15.9261 4.92454 3.42417 0
M  V30 180 H 17.6051 5.51724 3.37949 0
M  V30 181 N 17.7372 -0.778329 1.37039 0
M  V30 182 C 18.6472 -1.92253 1.34446 0
M  V30 183 C 19.6632 -1.72267 0.244991 0
M  V30 184 O 20.8392 -1.95615 0.479258 0
M  V30 185 C 17.9042 -3.27282 1.144 0
M  V30 186 C 16.9652 -3.59969 2.33925 0
M  V30 187 C 16.1982 -4.88555 2.14825 0
M  V30 188 O 16.4212 -5.59113 1.12912 0
M  V30 189 O 15.3552 -5.20153 3.02861 0
M  V30 190 H 19.1812 -1.97392 2.30803 0
M  V30 191 H 16.7662 -0.920154 1.17701 0
M  V30 192 H 18.6482 -4.08062 1.05182 0
M  V30 193 H 17.3232 -3.23011 0.211124 0
M  V30 194 H 16.2302 -2.7945 2.48714 0
M  V30 195 H 17.5632 -3.68976 3.25757 0
M  V30 196 N 19.2153 -1.21501 -1.00376 0
M  V30 197 C 20.1623 -0.975387 -2.09177 0
M  V30 198 C 21.1323 0.0990615 -1.65804 0
M  V30 199 O 22.3173 -0.0483147 -1.90739 0
M  V30 200 C 19.4573 -0.547507 -3.40729 0
M  V30 201 C 18.5703 -1.69153 -3.97506 0
M  V30 202 C 17.7053 -1.2127 -5.17172 0
M  V30 203 C 16.7443 -2.32897 -5.66061 0
M  V30 204 N 15.8813 -1.86138 -6.76976 0
M  V30 205 H 20.7213 -1.9068 -2.29009 0
M  V30 206 H 18.2583 -0.950257 -1.12288 0
M  V30 207 H 20.2163 -0.280667 -4.16255 0
M  V30 208 H 18.8463 0.346904 -3.20931 0
M  V30 209 H 17.8983 -2.07298 -3.18954 0
M  V30 210 H 19.2103 -2.5316 -4.29781 0
M  V30 211 H 18.3643 -0.902591 -5.99948 0
M  V30 212 H 17.1033 -0.342692 -4.86495 0
M  V30 213 H 16.1083 -2.64709 -4.81881 0
M  V30 214 H 17.3333 -3.20396 -5.98768 0
M  V30 215 H 15.2793 -1.01484 -6.48103 0
M  V30 216 H 15.1963 -2.63717 -7.08512 0
M  V30 217 H 16.4643 -1.58165 -7.63285 0
M  V30 218 N 20.6934 1.19889 -1.02296 0
M  V30 219 C 21.6034 2.26571 -0.608508 0
M  V30 220 C 22.6194 1.70299 0.356964 0
M  V30 221 O 23.7954 2.00235 0.216326 0
M  V30 222 C 20.8604 3.46677 0.0402814 0
M  V30 223 C 19.9214 4.18153 -0.97194 0
M  V30 224 C 19.1544 5.32525 -0.354016 0
M  V30 225 O 19.3774 5.64112 0.844604 0
M  V30 226 O 18.3114 5.92242 -1.07391 0
M  V30 227 H 22.1374 2.64251 -1.49684 0
M  V30 228 H 19.7224 1.26629 -0.792809 0
M  V30 229 H 21.6044 4.19475 0.402324 0
M  V30 230 H 20.2794 3.10858 0.902707 0
M  V30 231 H 19.1864 3.47499 -1.38546 0
M  V30 232 H 20.5194 4.57927 -1.80454 0
M  V30 233 N 22.1715 0.800033 1.35784 0
M  V30 234 C 23.0815 0.207204 2.33683 0
M  V30 235 C 24.0975 -0.64631 1.61551 0
M  V30 236 O 25.2735 -0.559604 1.93469 0
M  V30 237 C 22.3385 -0.639659 3.40748 0
M  V30 238 C 21.3995 0.233585 4.28664 0
M  V30 239 C 20.6325 -0.572954 5.30616 0
M  V30 240 O 20.8555 -1.80816 5.40982 0
M  V30 241 O 19.7895 0.0327285 6.01891 0
M  V30 242 H 23.6155 1.01692 2.86169 0
M  V30 243 H 21.2005 0.561691 1.38439 0
M  V30 244 H 23.0825 -1.12223 4.06182 0
M  V30 245 H 21.7575 -1.42708 2.90544 0
M  V30 246 H 20.6645 0.763147 3.66233 0
M  V30 247 H 21.9975 0.984784 4.82248 0
M  V30 248 N 23.6496 -1.47581 0.552962 0
M  V30 249 C 24.8896 -2.04379 0.0296245 0
M  V30 250 C 25.2536 -1.4185 -1.29393 0
M  V30 251 O 26.4546 -1.89669 -1.90471 0
M  V30 252 C 24.7256 -3.57339 -0.0661371 0
M  V30 253 S 26.2846 -4.35511 -0.536213 0
M  V30 254 H 23.1026 -0.710625 0.0230991 0
M  V30 255 H 25.7046 -1.81005 0.738734 0
M  V30 256 H 24.4086 -4.00374 0.901596 0
M  V30 257 H 23.9396 -3.85202 -0.798931 0
M  V30 258 H 25.9546 -4.6253 -1.79668 0
M  V30 259 N 25.1277 -0.289203 -1.54924 0
M  V30 260 C 26.5437 0.0645403 -1.59469 0
M  V30 261 C 26.7437 1.53419 -1.30632 0
M  V30 262 O 25.7997 2.2852 -1.074 0
M  V30 263 C 27.1127 -0.32278 -2.98963 0
M  V30 264 C 28.6607 -0.270564 -3.11828 0
M  V30 265 C 29.1357 -0.632532 -4.53611 0
M  V30 266 N 30.6267 -0.584617 -4.59496 0
M  V30 267 C 31.3617 -0.837314 -5.67254 0
M  V30 268 N 30.8577 -1.15536 -6.83098 0
M  V30 269 N 32.6507 -0.765166 -5.56868 0
M  V30 270 H 24.8017 -1.24714 -1.71931 0
M  V30 271 H 27.0647 -0.504809 -0.802416 0
M  V30 272 H 26.7707 -1.34541 -3.24948 0
M  V30 273 H 26.6447 0.32944 -3.75759 0
M  V30 274 H 29.0317 0.742805 -2.85598 0
M  V30 275 H 29.1127 -0.957242 -2.37214 0
M  V30 276 H 28.7567 -1.64365 -4.80569 0
M  V30 277 H 28.6867 0.07609 -5.26545 0
M  V30 278 H 31.1777 -0.349248 -3.76283 0
M  V30 279 H 31.4907 -1.33447 -7.61191 0
M  V30 280 H 29.8357 -1.19328 -6.84679 0
M  V30 281 H 33.0267 -0.516432 -4.65243 0
M  V30 282 H 33.1997 -0.965477 -6.40767 0
M  V30 283 N 26.6058 1.57591 -0.0167156 0
M  V30 284 C 27.8528 1.91283 0.664597 0
M  V30 285 C 28.1808 0.891949 1.72842 0
M  V30 286 O 27.4358 -0.100931 1.9544 0
M  V30 287 C 27.7348 3.3172 1.33029 0
M  V30 288 C 27.4008 4.4914 0.398047 0
M  V30 289 C 26.0628 4.80992 0.141421 0
M  V30 290 C 28.4148 5.20634 -0.242825 0
M  V30 291 C 25.7428 5.81703 -0.764092 0
M  V30 292 C 28.0948 6.22311 -1.13632 0
M  V30 293 C 26.7588 6.52611 -1.40196 0
M  V30 294 H 26.0288 0.699956 0.243193 0
M  V30 295 H 28.6758 1.9135 -0.0758267 0
M  V30 296 H 26.9808 3.27856 2.14517 0
M  V30 297 H 28.6778 3.55055 1.86379 0
M  V30 298 H 25.2678 4.24262 0.608238 0
M  V30 299 H 29.4518 4.96267 -0.0576019 0
M  V30 300 H 24.7078 6.03532 -0.977732 0
M  V30 301 H 28.8818 6.76834 -1.63917 0
M  V30 302 H 26.5088 7.30467 -2.10529 0
M  V30 303 N 28.0839 -0.256276 1.55502 0
M  V30 304 C 29.3239 -0.993081 1.78654 0
M  V30 305 C 29.6879 -1.8288 0.584724 0
M  V30 306 O 30.8889 -2.59665 0.694822 0
M  V30 307 C 29.1599 -1.83856 3.06483 0
M  V30 308 S 30.7189 -2.63573 3.5082 0
M  V30 309 H 27.5369 -0.334199 0.62756 0
M  V30 310 H 30.1389 -0.26184 1.93739 0
M  V30 311 H 28.8429 -1.21414 3.92029 0
M  V30 312 H 28.3739 -2.61271 2.94111 0
M  V30 313 H 30.3889 -3.86312 3.11412 0
M  V30 314 N 29.562 -1.4872 -0.521534 0
M  V30 315 C 30.811 -1.56419 -1.27341 0
M  V30 316 C 31.124 -0.246805 -1.94037 0
M  V30 317 O 32.33 -0.202122 -2.70747 0
M  V30 318 C 30.786 -2.75896 -2.31105 0
M  V30 319 C 30.394 -4.14311 -1.70441 0
M  V30 320 C 32.138 -2.92913 -3.07249 0
M  V30 321 C 30.045 -5.25038 -2.72194 0
M  V30 322 H 28.975 -0.582344 -0.478949 0
M  V30 323 H 31.626 -1.75071 -0.549779 0
M  V30 324 H 30.008 -2.50697 -3.06541 0
M  V30 325 H 31.182 -4.49564 -1.01136 0
M  V30 326 H 29.497 -4.02482 -1.06759 0
M  V30 327 H 32.094 -3.72805 -3.83302 0
M  V30 328 H 32.437 -2.02689 -3.63625 0
M  V30 329 H 32.97 -3.18054 -2.38928 0
M  V30 330 H 29.709 -6.17255 -2.20627 0
M  V30 331 H 29.229 -4.94263 -3.39801 0
M  V30 332 H 30.908 -5.53508 -3.35019 0
M  V30 333 N 31.0401 0.771051 -1.3745 0
M  V30 334 C 32.2651 1.56529 -1.36065 0
M  V30 335 C 32.6901 1.88029 0.0515859 0
M  V30 336 O 32.0481 1.49282 1.02882 0
M  V30 337 C 32.0961 2.85187 -2.20683 0
M  V30 338 O 31.2001 3.79593 -1.61193 0
M  V30 339 H 30.5411 0.47411 -0.464883 0
M  V30 340 H 33.0711 0.954269 -1.80983 0
M  V30 341 H 33.0811 3.34283 -2.33921 0
M  V30 342 H 31.7561 2.61588 -3.23334 0
M  V30 343 H 30.3331 3.38239 -1.56999 0
M  V30 344 N 32.5182 1.22032 0.997298 0
M  V30 345 C 33.7672 1.03637 1.73038 0
M  V30 346 C 34.0802 -0.429475 1.90827 0
M  V30 347 O 35.2862 -0.732995 2.61418 0
M  V30 348 C 33.7422 1.80582 3.11317 0
M  V30 349 C 33.3502 3.31387 3.01474 0
M  V30 350 C 35.0942 1.70621 3.88701 0
M  V30 351 C 33.0012 4.00791 4.3488 0
M  V30 352 H 31.9312 0.384179 0.648785 0
M  V30 353 H 34.5822 1.4584 1.11368 0
M  V30 354 H 32.9642 1.31175 3.73643 0
M  V30 355 H 34.1382 3.88155 2.4834 0
M  V30 356 H 32.4532 3.41976 2.37575 0
M  V30 357 H 35.0502 2.19799 4.87434 0
M  V30 358 H 35.3932 0.665823 4.10941 0
M  V30 359 H 35.9262 2.17547 3.33044 0
M  V30 360 H 32.6652 5.05064 4.1784 0
M  V30 361 H 32.1852 3.48811 4.87945 0
M  V30 362 H 33.8642 4.06139 5.03647 0
M  V30 363 N 33.9963 -1.19345 1.0293 0
M  V30 364 C 34.9443 -2.24621 0.604001 0
M  V30 365 C 35.9383 -1.65452 -0.363587 0
M  V30 366 O 37.1443 -1.78497 -0.23212 0
M  V30 367 H 33.5193 -0.730858 0.177061 0
M  V30 368 H 35.4903 -2.5781 1.50255 0
M  V30 369 C 34.2393 -3.47688 -0.0289127 0
M  V30 370 H 33.5623 -3.93505 0.706651 0
M  V30 371 H 35.0023 -4.23011 -0.289432 0
M  V30 372 C 33.4613 -3.11817 -1.2756 0
M  V30 373 O 33.9913 -3.2451 -2.36762 0
M  V30 374 N 32.1973 -2.66246 -1.16453 0
M  V30 375 H 31.7443 -2.56118 -0.275914 0
M  V30 376 H 31.7023 -2.42617 -1.99961 0
M  V30 377 N 35.4744 -0.807222 -1.35358 0
M  V30 378 C 36.7024 -0.400377 -2.02989 0
M  V30 379 C 37.1174 0.988859 -1.60832 0
M  V30 380 O 36.4744 1.63729 -0.806175 0
M  V30 381 C 36.5254 -0.474867 -3.58368 0
M  V30 382 O 36.2464 -1.80933 -3.98992 0
M  V30 383 C 37.7474 -0.0609112 -4.43258 0
M  V30 384 H 34.9674 -0.162587 -0.651004 0
M  V30 385 H 37.5114 -1.09102 -1.72965 0
M  V30 386 H 35.6664 0.167534 -3.87038 0
M  V30 387 H 36.0804 -1.77256 -4.9364 0
M  V30 388 H 37.5544 -0.164145 -5.51756 0
M  V30 389 H 38.0314 0.993831 -4.27808 0
M  V30 390 H 38.6374 -0.676492 -4.19885 0
M  V30 391 N 36.9525 1.47285 -0.560781 0
M  V30 392 C 38.1805 2.06855 -0.0430262 0
M  V30 393 C 38.5955 1.41291 1.25229 0
M  V30 394 O 37.9525 0.510648 1.7521 0
M  V30 395 C 38.0035 3.61178 0.152518 0
M  V30 396 O 37.7245 4.24285 -1.0915 0
M  V30 397 C 39.2255 4.37624 0.707145 0
M  V30 398 H 36.4455 0.669319 -0.0474652 0
M  V30 399 H 38.9895 1.89237 -0.77521 0
M  V30 400 H 37.1445 3.78298 0.834843 0
M  V30 401 H 37.5585 5.16868 -0.891482 0
M  V30 402 H 39.0325 5.46271 0.793244 0
M  V30 403 H 39.5095 4.04152 1.71923 0
M  V30 404 H 40.1155 4.25257 0.0604027 0
M  V30 405 N 38.4306 0.297415 1.54768 0
M  V30 406 C 39.6766 -0.306263 2.01081 0
M  V30 407 C 40.0316 -1.518 1.18214 0
M  V30 408 O 39.3246 -1.89967 0.249613 0
M  V30 409 C 39.5186 -0.717561 3.50123 0
M  V30 410 C 39.3476 0.45277 4.47415 0
M  V30 411 C 38.1176 0.943651 4.9641 0
M  V30 412 C 40.3156 1.29657 4.97688 0
M  V30 413 N 38.2976 2.08112 5.77549 0
M  V30 414 C 39.6686 2.28158 5.76493 0
M  V30 415 C 41.7236 1.32735 4.79881 0
M  V30 416 C 40.4266 3.29509 6.39387 0
M  V30 417 C 42.4526 2.32943 5.43591 0
M  V30 418 C 41.8146 3.30174 6.22225 0
M  V30 419 H 37.9136 -0.0766274 0.778237 0
M  V30 420 H 40.4976 0.426515 1.89971 0
M  V30 421 H 38.6686 -1.41952 3.6153 0
M  V30 422 H 40.4006 -1.30047 3.83236 0
M  V30 423 H 37.1556 0.51922 4.70745 0
M  V30 424 H 37.5796 2.65414 6.22803 0
M  V30 425 H 42.2216 0.589375 4.18672 0
M  V30 426 H 39.9396 4.04228 6.99732 0
M  V30 427 H 43.5256 2.36094 5.31743 0
M  V30 428 H 42.4056 4.06445 6.7065 0
M  V30 429 N 39.9087 -1.5758 0.0250728 0
M  V30 430 C 41.1487 -1.93497 -0.65865 0
M  V30 431 C 41.5127 -0.901409 -1.69525 0
M  V30 432 O 42.7137 -1.14664 -2.43116 0
M  V30 433 C 40.9847 -3.34352 -1.26267 0
M  V30 434 S 42.5437 -3.92191 -1.96803 0
M  V30 435 H 39.3617 -0.67709 -0.216958 0
M  V30 436 H 41.9637 -1.95303 0.0877692 0
M  V30 437 H 40.6677 -4.07395 -0.495741 0
M  V30 438 H 40.1987 -3.3598 -2.04648 0
M  V30 439 H 42.2137 -3.75298 -3.24601 0
M  V30 440 N 41.3868 0.248026 -1.55636 0
M  V30 441 C 42.3498 1.29044 -1.89421 0
M  V30 442 C 43.3498 1.41134 -0.770581 0
M  V30 443 O 44.5398 1.39854 -1.03858 0
M  V30 444 C 41.6718 2.66831 -2.12165 0
M  V30 445 H 42.8648 1.00305 -2.82629 0
M  V30 446 H 40.4178 0.487265 -1.48511 0
M  V30 447 H 41.1528 3.00711 -1.21422 0
M  V30 448 H 40.9378 2.59438 -2.93997 0
M  V30 449 H 42.4278 3.42103 -2.3949 0
M  V30 450 N 42.8649 1.48995 0.513639 0
M  V30 451 C 44.1129 1.57531 1.26604 0
M  V30 452 C 44.4339 0.258236 1.93283 0
M  V30 453 O 43.7039 -0.721502 1.8213 0
M  V30 454 H 42.2839 0.580387 0.470276 0
M  V30 455 H 44.9459 1.85552 0.596373 0
M  V30 456 H 44.0419 2.36486 2.03669 0
M  V30 457 N 44.343 -0.763751 1.37857 0
M  V30 458 C 45.573 -1.55067 1.3652 0
M  V30 459 C 45.981 -1.89135 -0.0494227 0
M  V30 460 O 45.324 -1.52529 -1.02375 0
M  V30 461 C 45.386 -2.8838 2.14656 0
M  V30 462 C 45.05 -2.76905 3.63555 0
M  V30 463 C 46.047 -2.4739 4.57268 0
M  V30 464 C 43.732 -2.94676 4.06781 0
M  V30 465 C 45.726 -2.35786 5.92186 0
M  V30 466 C 43.413 -2.82692 5.41782 0
M  V30 467 C 44.411 -2.53289 6.34298 0
M  V30 468 O 44.099 -2.41345 7.66817 0
M  V30 469 H 43.831 -0.486776 0.469069 0
M  V30 470 H 46.385 -0.953812 1.81911 0
M  V30 471 H 44.615 -3.50217 1.63967 0
M  V30 472 H 46.304 -3.49828 2.05852 0
M  V30 473 H 47.07 -2.33339 4.2518 0
M  V30 474 H 42.949 -3.16563 3.35126 0
M  V30 475 H 46.493 -2.12757 6.64365 0
M  V30 476 H 42.39 -2.96314 5.7347 0
M  V30 477 H 43.158 -2.56634 7.77226 0
M  V30 478 N 45.8211 -1.22559 -0.990812 0
M  V30 479 C 47.0611 -1.06302 -1.74583 0
M  V30 480 C 47.4251 0.394737 -1.87898 0
M  V30 481 O 48.6261 0.678214 -2.60103 0
M  V30 482 C 46.8971 -1.75699 -3.11231 0
M  V30 483 S 48.4561 -1.74882 -4.02445 0
M  V30 484 H 45.2741 -0.380639 -0.600529 0
M  V30 485 H 47.8761 -1.55532 -1.18449 0
M  V30 486 H 46.5801 -2.80923 -2.99183 0
M  V30 487 H 46.1111 -1.26708 -3.72436 0
M  V30 488 H 48.1261 -0.799997 -4.89709 0
M  V30 489 N 47.2992 1.18797 -1.03562 0
M  V30 490 C 48.5292 1.92319 -0.754773 0
M  V30 491 C 48.9372 1.7612 0.691248 0
M  V30 492 O 48.2802 1.08491 1.48241 0
M  V30 493 C 48.3422 3.44284 -1.03484 0
M  V30 494 C 48.0062 3.84258 -2.47376 0
M  V30 495 C 49.0032 3.88459 -3.45537 0
M  V30 496 C 46.6882 4.15701 -2.81954 0
M  V30 497 C 48.6822 4.23545 -4.76328 0
M  V30 498 C 46.3692 4.50458 -4.12954 0
M  V30 499 C 47.3672 4.54356 -5.09951 0
M  V30 500 O 47.0552 4.88305 -6.38603 0
M  V30 501 H 46.7872 0.617527 -0.275021 0
M  V30 502 H 49.3412 1.51683 -1.38497 0
M  V30 503 H 47.5712 3.85135 -0.347513 0
M  V30 504 H 49.2602 3.99049 -0.7426 0
M  V30 505 H 50.0262 3.6431 -3.20162 0
M  V30 506 H 45.9052 4.11847 -2.0713 0
M  V30 507 H 49.4492 4.26502 -5.52035 0
M  V30 508 H 45.3462 4.74067 -4.38099 0
M  V30 509 H 46.1142 5.06227 -6.43177 0
M  V30 510 N 48.7773 0.814389 1.34928 0
M  V30 511 C 50.0053 0.411136 2.02774 0
M  V30 512 C 50.4203 -0.980316 1.61354 0
M  V30 513 O 49.7773 -1.63299 0.814847 0
M  V30 514 C 49.8283 0.493865 3.58111 0
M  V30 515 O 49.5493 1.83047 3.98027 0
M  V30 516 C 51.0503 0.0844174 4.4322 0
M  V30 517 H 48.2703 0.166037 0.650133 0
M  V30 518 H 50.8143 1.10018 1.72384 0
M  V30 519 H 48.9693 -0.147006 3.87121 0
M  V30 520 H 49.3833 1.79872 4.92693 0
M  V30 521 H 50.8573 0.193404 5.51661 0
M  V30 522 H 51.3343 -0.97113 4.28329 0
M  V30 523 H 51.9403 0.69875 4.19521 0
M  V30 524 N 50.2554 -1.46986 0.568584 0
M  V30 525 C 51.6714 -1.57946 0.229189 0
M  V30 526 C 51.8714 -1.56567 -1.26843 0
M  V30 527 O 50.9274 -1.47511 -2.04931 0
M  V30 528 C 52.2404 -2.87963 0.865909 0
M  V30 529 C 53.7884 -3.01568 0.838188 0
M  V30 530 C 54.2634 -4.34301 1.45419 0
M  V30 531 N 55.7544 -4.40965 1.41788 0
M  V30 532 C 56.4894 -5.42256 1.86403 0
M  V30 533 N 55.9854 -6.50297 2.38926 0
M  V30 534 N 57.7784 -5.3337 1.77405 0
M  V30 535 H 49.9294 -1.46126 1.54146 0
M  V30 536 H 52.1924 -0.696156 0.643484 0
M  V30 537 H 51.8984 -2.94742 1.91886 0
M  V30 538 H 51.7724 -3.75423 0.365687 0
M  V30 539 H 54.1594 -2.94379 -0.206106 0
M  V30 540 H 54.2404 -2.1562 1.37629 0
M  V30 541 H 53.8844 -4.42247 2.49761 0
M  V30 542 H 53.8144 -5.19 0.891435 0
M  V30 543 H 56.3054 -3.63484 1.03381 0
M  V30 544 H 56.6184 -7.23777 2.70863 0
M  V30 545 H 54.9634 -6.51155 2.42944 0
M  V30 546 H 58.1544 -4.47865 1.3614 0
M  V30 547 H 58.3274 -6.12169 2.12492 0
M  V30 548 N 51.7335 -0.305618 -1.54608 0
M  V30 549 C 53.0105 0.355652 -1.92339 0
M  V30 550 C 53.3905 1.71324 -1.23335 0
M  V30 551 O 52.7385 2.25473 -0.370702 0
M  V30 552 C 52.9485 0.46572 -3.45879 0
M  V30 553 C 54.2965 0.734426 -4.182 0
M  V30 554 O 55.3205 0.54935 -3.51938 0
M  V30 555 O 54.1795 1.09024 -5.35515 0
M  V30 556 H 51.2735 0.199666 -0.802535 0
M  V30 557 H 53.8195 -0.354017 -1.65966 0
M  V30 558 H 52.5915 -0.488461 -3.88239 0
M  V30 559 H 52.2145 1.22367 -3.78301 0
M  V30 560 N 53.2116 1.57565 -0.0334293 0
M  V30 561 C 54.1416 2.13511 0.945265 0
M  V30 562 C 55.1226 1.05231 1.33643 0
M  V30 563 O 56.3076 1.33084 1.41429 0
M  V30 564 C 53.4376 2.6657 2.22616 0
M  V30 565 C 52.3916 3.79676 1.97561 0
M  V30 566 C 51.7176 4.1918 3.31952 0
M  V30 567 C 53.0176 5.0557 1.31135 0
M  V30 568 H 54.7116 2.95538 0.479325 0
M  V30 569 H 52.2576 1.42166 0.229115 0
M  V30 570 H 54.2106 3.04344 2.91466 0
M  V30 571 H 52.9346 1.8171 2.71384 0
M  V30 572 H 51.5936 3.42347 1.31127 0
M  V30 573 H 51.2416 3.31296 3.78487 0
M  V30 574 H 50.9416 4.95402 3.15992 0
M  V30 575 H 52.4656 4.59541 4.02063 0
M  V30 576 H 53.8796 5.40903 1.89992 0
M  V30 577 H 52.2766 5.86818 1.25559 0
M  V30 578 H 53.3466 4.84062 0.284894 0
M  V30 579 N 54.6897 -0.239769 1.55765 0
M  V30 580 C 55.9357 -0.968234 1.78194 0
M  V30 581 C 56.2687 -1.84701 0.599938 0
M  V30 582 O 55.5437 -1.9031 -0.401524 0
M  V30 583 C 55.8267 -1.8227 3.10564 0
M  V30 584 C 55.6797 -0.971633 4.3918 0
M  V30 585 C 56.9987 -2.80388 3.39221 0
M  V30 586 H 54.1177 -0.350572 0.648281 0
M  V30 587 H 56.7597 -0.238259 1.885 0
M  V30 588 H 54.9097 -2.44507 3.01908 0
M  V30 589 H 56.5817 -0.367408 4.59835 0
M  V30 590 H 54.8247 -0.276276 4.32919 0
M  V30 591 H 55.4957 -1.60346 5.28198 0
M  V30 592 H 57.9717 -2.28287 3.47885 0
M  V30 593 H 56.8477 -3.3729 4.33044 0
M  V30 594 H 57.1087 -3.57212 2.60484 0
M  V30 595 N 56.1678 -1.49265 -0.50573 0
M  V30 596 C 57.3978 -1.61979 -1.28243 0
M  V30 597 C 57.8058 -0.288576 -1.86986 0
M  V30 598 O 57.1488 0.735408 -1.68337 0
M  V30 599 C 57.2108 -2.62632 -2.45489 0
M  V30 600 C 56.8748 -4.071 -2.07651 0
M  V30 601 C 57.8718 -4.94049 -1.61901 0
M  V30 602 C 55.5568 -4.52801 -2.17431 0
M  V30 603 C 57.5508 -6.24736 -1.26428 0
M  V30 604 C 55.2378 -5.83503 -1.8157 0
M  V30 605 C 56.2358 -6.69294 -1.36142 0
M  V30 606 O 55.9238 -7.9756 -1.00764 0
M  V30 607 H 55.6558 -0.54834 -0.395347 0
M  V30 608 H 58.2098 -1.96002 -0.614204 0
M  V30 609 H 56.4398 -2.2378 -3.15372 0
M  V30 610 H 58.1288 -2.64925 -3.07522 0
M  V30 611 H 58.8948 -4.5997 -1.53795 0
M  V30 612 H 54.7738 -3.86196 -2.51742 0
M  V30 613 H 58.3178 -6.91652 -0.908992 0
M  V30 614 H 54.2148 -6.17112 -1.89324 0
M  V30 615 H 54.9828 -8.10529 -1.13952 0
M  V30 616 N 57.6459 0.756429 -1.3826 0
M  V30 617 C 58.5929 1.87011 -1.35261 0
M  V30 618 C 59.5629 1.64695 -0.215616 0
M  V30 619 O 60.7479 1.864 -0.407399 0
M  V30 620 C 57.8879 3.24275 -1.18068 0
M  V30 621 C 57.0009 3.58442 -2.41129 0
M  V30 622 C 56.1359 4.84994 -2.16689 0
M  V30 623 C 55.1749 5.11939 -3.35537 0
M  V30 624 N 54.3119 6.29685 -3.10549 0
M  V30 625 H 59.1519 1.8891 -2.30472 0
M  V30 626 H 56.6889 0.923373 -1.14509 0
M  V30 627 H 58.6469 4.03479 -1.06116 0
M  V30 628 H 57.2769 3.21711 -0.264973 0
M  V30 629 H 56.3289 2.74103 -2.63764 0
M  V30 630 H 57.6409 3.74283 -3.29717 0
M  V30 631 H 56.7949 5.72135 -2.01857 0
M  V30 632 H 55.5339 4.71286 -1.25462 0
M  V30 633 H 54.5389 4.23268 -3.50891 0
M  V30 634 H 55.7639 5.27546 -4.27635 0
M  V30 635 H 53.7099 6.17306 -2.21967 0
M  V30 636 H 53.6269 6.46014 -3.92686 0
M  V30 637 H 54.8949 7.19722 -2.99367 0
M  V30 638 N 59.124 1.23083 0.984299 0
M  V30 639 C 60.401 0.9689 1.69917 0
M  V30 640 C 60.781 -0.513604 2.04757 0
M  V30 641 O 60.129 -1.48383 1.73767 0
M  V30 642 C 60.339 1.87518 2.94343 0
M  V30 643 C 61.687 2.13636 3.6694 0
M  V30 644 O 62.711 1.85036 3.04368 0
M  V30 645 O 61.57 2.62119 4.79537 0
M  V30 646 H 58.664 0.365095 0.742048 0
M  V30 647 H 61.21 1.34107 1.03987 0
M  V30 648 H 59.982 2.87756 2.65164 0
M  V30 649 H 59.605 1.50514 3.6801 0
M  V30 650 N 60.6021 -1.18246 1.0419 0
M  V30 651 C 62.0131 -1.69914 0.773698 0
M  V30 652 C 62.3641 -1.83085 -0.705297 0
M  V30 653 O 61.4891 -1.51123 -1.5489 0
M  V30 654 C 62.0841 -3.08619 1.39784 0
M  V30 655 C 60.6431 -3.57494 1.17792 0
M  V30 656 C 59.7901 -2.34013 1.48773 0
M  V30 657 H 62.7411 -1.02904 1.20816 0
M  V30 658 H 62.7621 -3.71958 0.801714 0
M  V30 659 H 62.2741 -2.99001 2.47426 0
M  V30 660 H 60.3751 -3.72406 0.120295 0
M  V30 661 H 60.4881 -4.40852 1.87581 0
M  V30 662 H 58.8521 -2.37986 0.907463 0
M  V30 663 H 59.6351 -2.27013 2.57527 0
M  V30 664 N 62.0802 -0.821533 -1.34494 0
M  V30 665 C 63.0432 -0.247847 -2.27856 0
M  V30 666 C 64.0432 0.573453 -1.50227 0
M  V30 667 O 65.2332 0.389759 -1.69784 0
M  V30 668 C 62.3652 0.652698 -3.34593 0
M  V30 669 H 63.5582 -1.07146 -2.80107 0
M  V30 670 H 61.1112 -0.593291 -1.44602 0
M  V30 671 H 61.8462 1.49943 -2.87555 0
M  V30 672 H 61.6312 0.065292 -3.92046 0
M  V30 673 H 63.1212 1.04793 -4.04238 0
M  V30 674 N 63.5583 1.46682 -0.576371 0
M  V30 675 C 64.9743 1.57822 -0.237562 0
M  V30 676 C 65.1743 1.57237 1.26011 0
M  V30 677 O 64.2303 1.48596 2.04146 0
M  V30 678 C 65.5433 2.87499 -0.881168 0
M  V30 679 C 67.0913 3.01119 -0.85417 0
M  V30 680 C 67.5663 4.33524 -1.4772 0
M  V30 681 N 69.0573 4.40207 -1.44125 0
M  V30 682 C 69.7923 5.4126 -1.89276 0
M  V30 683 N 69.2883 6.49021 -2.42371 0
M  V30 684 N 71.0813 5.32422 -1.80231 0
M  V30 685 H 63.2323 1.45306 -1.54919 0
M  V30 686 H 65.4953 0.692733 -0.647167 0
M  V30 687 H 65.2013 2.9372 -1.93447 0
M  V30 688 H 65.0753 3.75224 -0.385592 0
M  V30 689 H 67.4623 2.94485 0.190491 0
M  V30 690 H 67.5433 2.14887 -1.3877 0
M  V30 691 H 67.1873 4.40916 -2.52103 0
M  V30 692 H 67.1173 5.1852 -0.918947 0
M  V30 693 H 69.6083 3.62931 -1.05307 0
M  V30 694 H 69.9213 7.2233 -2.74698 0
M  V30 695 H 68.2663 6.49858 -2.46393 0
M  V30 696 H 71.4573 4.47137 -1.38514 0
M  V30 697 H 71.6303 6.11034 -2.15735 0
M  V30 698 N 65.0364 0.313813 1.54444 0
M  V30 699 C 66.4474 -0.176243 1.85866 0
M  V30 700 C 66.7984 -1.52405 1.23561 0
M  V30 701 O 65.9234 -2.09605 0.538016 0
M  V30 702 C 66.5184 -0.32657 3.37222 0
M  V30 703 C 65.0774 -0.760846 3.6863 0
M  V30 704 C 64.2244 0.123247 2.77026 0
M  V30 705 H 67.1754 0.534418 1.49431 0
M  V30 706 H 67.1964 -1.15908 3.62416 0
M  V30 707 H 66.7084 0.654531 3.82541 0
M  V30 708 H 64.8094 -1.75204 3.28838 0
M  V30 709 H 64.9224 -0.571353 4.75681 0
M  V30 710 H 63.2864 -0.399597 2.51546 0
M  V30 711 H 64.0694 1.10094 3.25168 0
M  V30 712 N 66.5145 -1.57545 0.0417849 0
M  V30 713 C 67.4615 -2.10977 -0.935805 0
M  V30 714 C 68.4315 -1.01486 -1.31491 0
M  V30 715 O 69.6165 -1.2898 -1.40602 0
M  V30 716 C 66.7565 -2.65169 -2.2086 0
M  V30 717 C 65.8695 -3.88714 -1.88482 0
M  V30 718 C 65.0045 -4.31254 -3.1015 0
M  V30 719 C 64.0435 -5.47524 -2.7365 0
M  V30 720 N 63.1805 -5.85162 -3.87982 0
M  V30 721 H 68.0205 -2.94218 -0.473249 0
M  V30 722 H 65.5575 -1.45415 -0.221981 0
M  V30 723 H 67.5155 -2.94685 -2.95325 0
M  V30 724 H 66.1455 -1.8474 -2.64709 0
M  V30 725 H 65.1975 -3.65849 -1.04205 0
M  V30 726 H 66.5095 -4.73245 -1.57608 0
M  V30 727 H 65.6635 -4.62273 -3.92923 0
M  V30 728 H 64.4025 -3.45516 -3.44195 0
M  V30 729 H 63.4075 -5.16187 -1.89291 0
M  V30 730 H 64.6325 -6.34971 -2.40807 0
M  V30 731 H 62.5785 -5.02377 -4.21846 0
M  V30 732 H 62.4955 -6.64362 -3.60775 0
M  V30 733 H 63.7635 -6.20791 -4.71422 0
M  V30 734 N 67.9926 0.231505 -1.5589 0
M  V30 735 C 69.2416 0.955346 -1.7764 0
M  V30 736 C 69.5546 1.85893 -0.608546 0
M  V30 737 O 70.7606 2.62067 -0.70943 0
M  V30 738 C 69.2166 1.74886 -3.14552 0
M  V30 739 C 68.8246 0.891915 -4.39032 0
M  V30 740 C 70.5686 2.46452 -3.45633 0
M  V30 741 C 68.4756 1.68221 -5.66971 0
M  V30 742 H 67.4056 0.360446 -0.662265 0
M  V30 743 H 70.0566 0.209516 -1.823 0
M  V30 744 H 68.4386 2.53723 -3.04041 0
M  V30 745 H 69.6126 0.144793 -4.60572 0
M  V30 746 H 67.9276 0.288863 -4.15397 0
M  V30 747 H 70.5246 3.06061 -4.38441 0
M  V30 748 H 70.8676 3.18841 -2.67668 0
M  V30 749 H 71.4006 1.74613 -3.57428 0
M  V30 750 H 68.1396 1.00178 -6.478 0
M  V30 751 H 67.6596 2.4042 -5.49507 0
M  V30 752 H 69.3386 2.24544 -6.06786 0
M  V30 753 N 69.4707 1.49531 0.497807 0
M  V30 754 C 70.4027 1.62559 1.61578 0
M  V30 755 C 71.4157 0.508134 1.54667 0
M  V30 756 O 72.6047 0.780309 1.60541 0
M  V30 757 C 69.7047 1.56925 3.00379 0
M  V30 758 C 68.8777 2.84257 3.3244 0
M  V30 759 C 67.9367 2.71632 4.50669 0
M  V30 760 O 66.9627 3.4557 4.52294 0
M  V30 761 N 68.1647 1.83391 5.5077 0
M  V30 762 H 70.9297 2.58981 1.50828 0
M  V30 763 H 68.4907 1.4666 0.685743 0
M  V30 764 H 70.4827 1.46129 3.77397 0
M  V30 765 H 69.0527 0.683483 3.05037 0
M  V30 766 H 68.2727 3.09381 2.44289 0
M  V30 767 H 69.5607 3.68666 3.5066 0
M  V30 768 H 68.9587 1.22583 5.52259 0
M  V30 769 H 67.5157 1.78515 6.26878 0
M  V30 770 N 70.9488 -0.749086 1.3866 0
M  V30 771 C 71.8958 -1.86291 1.36251 0
M  V30 772 C 72.8658 -1.64578 0.224347 0
M  V30 773 O 74.0508 -1.86181 0.417279 0
M  V30 774 C 71.1908 -3.23644 1.19786 0
M  V30 775 C 70.3038 -3.57158 2.43027 0
M  V30 776 C 69.4388 -4.83838 2.19258 0
M  V30 777 C 68.4778 -5.10152 3.38247 0
M  V30 778 N 67.6148 -6.28029 3.13884 0
M  V30 779 H 72.4548 -1.87685 2.3147 0
M  V30 780 H 69.9918 -0.917287 1.14997 0
M  V30 781 H 71.9498 -4.0291 1.08254 0
M  V30 782 H 70.5798 -3.21566 0.282031 0
M  V30 783 H 69.6318 -2.72701 2.65214 0
M  V30 784 H 70.9438 -3.7253 3.31697 0
M  V30 785 H 70.0978 -5.71057 2.04888 0
M  V30 786 H 68.8368 -4.70614 1.2796 0
M  V30 787 H 67.8418 -4.21401 3.53131 0
M  V30 788 H 69.0668 -5.25271 4.30427 0
M  V30 789 H 67.0128 -6.1612 2.25238 0
M  V30 790 H 66.9298 -6.43922 3.96106 0
M  V30 791 H 68.1978 -7.18124 3.03179 0
M  V30 792 N 72.4269 -1.23603 -0.977757 0
M  V30 793 C 73.6549 -1.09646 -1.75458 0
M  V30 794 C 74.0699 0.351859 -1.85492 0
M  V30 795 O 73.4269 1.24327 -1.336 0
M  V30 796 C 73.4779 -1.71895 -3.18016 0
M  V30 797 O 73.1989 -3.11063 -3.08498 0
M  V30 798 C 74.6999 -1.63415 -4.12081 0
M  V30 799 H 71.9199 -0.38359 -0.550545 0
M  V30 800 H 74.4639 -1.63507 -1.22824 0
M  V30 801 H 72.6189 -1.22061 -3.67668 0
M  V30 802 H 73.0329 -3.41305 -3.9826 0
M  V30 803 H 74.5069 -2.11669 -5.09804 0
M  V30 804 H 74.9839 -0.593462 -4.35172 0
M  V30 805 H 75.5899 -2.12628 -3.68334 0
M  V30 806 N 73.905 1.17692 -1.04816 0
M  V30 807 C 75.145 1.89545 -0.764979 0
M  V30 808 C 75.509 1.78979 0.695028 0
M  V30 809 O 76.71 2.45613 1.09215 0
M  V30 810 C 74.981 3.35659 -1.22751 0
M  V30 811 S 76.54 4.25526 -1.07112 0
M  V30 812 H 73.358 0.654432 -0.27792 0
M  V30 813 H 75.96 1.42163 -1.34201 0
M  V30 814 H 74.664 3.40882 -2.28533 0
M  V30 815 H 74.195 3.88083 -0.644594 0
M  V30 816 H 76.21 4.962 0.00697508 0
M  V30 817 N 75.3831 0.828654 1.34056 0
M  V30 818 C 76.6111 0.43262 2.02326 0
M  V30 819 C 77.0261 -0.963147 1.62385 0
M  V30 820 O 76.3831 -1.62425 0.832121 0
M  V30 821 C 76.4341 0.53182 3.57567 0
M  V30 822 O 76.1551 1.87258 3.96063 0
M  V30 823 C 77.6561 0.131422 4.43105 0
M  V30 824 H 74.8761 0.172923 0.648335 0
M  V30 825 H 77.4201 1.1184 1.71208 0
M  V30 826 H 75.5751 -0.105938 3.87255 0
M  V30 827 H 75.9891 1.85087 4.90758 0
M  V30 828 H 77.4631 0.251904 5.51425 0
M  V30 829 H 77.9401 -0.925645 4.29335 0
M  V30 830 H 78.5461 0.743207 4.18756 0
M  V30 831 N 76.8612 -1.46375 0.584142 0
M  V30 832 C 78.1082 -2.02378 0.0702675 0
M  V30 833 C 78.4362 -1.45545 -1.29023 0
M  V30 834 O 77.6912 -0.610967 -1.85918 0
M  V30 835 C 77.9902 -3.57373 -0.0439342 0
M  V30 836 C 77.6562 -4.33252 1.24915 0
M  V30 837 C 76.3182 -4.53701 1.60341 0
M  V30 838 C 78.6702 -4.7681 2.1048 0
M  V30 839 C 75.9982 -5.1496 2.81128 0
M  V30 840 C 78.3502 -5.39404 3.30494 0
M  V30 841 C 77.0142 -5.5808 3.66201 0
M  V30 842 H 76.2842 -0.740554 0.0257127 0
M  V30 843 H 78.9312 -1.75727 0.761065 0
M  V30 844 H 77.2362 -3.83169 -0.817869 0
M  V30 845 H 78.9332 -3.98384 -0.457318 0
M  V30 846 H 75.5232 -4.17633 0.963364 0
M  V30 847 H 79.7072 -4.60766 1.84414 0
M  V30 848 H 74.9632 -5.27611 3.08928 0
M  V30 849 H 79.1372 -5.72114 3.97063 0
M  V30 850 H 76.7642 -6.05318 4.59885 0
M  V30 851 N 78.3393 -0.321999 -1.54275 0
M  V30 852 C 79.2863 0.544664 -2.24281 0
M  V30 853 C 80.2563 1.1129 -1.23303 0
M  V30 854 O 81.4413 1.15354 -1.51981 0
M  V30 855 C 78.5813 1.70045 -3.00298 0
M  V30 856 C 77.6943 1.16159 -4.1609 0
M  V30 857 C 76.8293 2.28293 -4.79641 0
M  V30 858 C 75.8683 1.71648 -5.8754 0
M  V30 859 N 75.0053 2.77438 -6.44959 0
M  V30 860 H 79.8453 -0.0588907 -2.97942 0
M  V30 861 H 77.3823 -0.0408345 -1.47043 0
M  V30 862 H 79.3403 2.38054 -3.42616 0
M  V30 863 H 77.9703 2.27531 -2.28975 0
M  V30 864 H 77.0223 0.373092 -3.78566 0
M  V30 865 H 78.3343 0.707087 -4.93763 0
M  V30 866 H 77.4883 3.0421 -5.2492 0
M  V30 867 H 76.2273 2.77079 -4.01346 0
M  V30 868 H 75.2323 0.942282 -5.41665 0
M  V30 869 H 76.4573 1.23741 -6.67731 0
M  V30 870 H 74.4033 3.25519 -5.69538 0
M  V30 871 H 74.3203 2.36547 -7.1804 0
M  V30 872 H 75.5883 3.53189 -6.94894 0
M  V30 873 N 79.8174 1.5752 -0.0501392 0
M  V30 874 C 80.7274 2.14952 0.939827 0
M  V30 875 C 81.7434 1.10706 1.34239 0
M  V30 876 O 82.9194 1.42869 1.41952 0
M  V30 877 C 79.9844 2.68232 2.19665 0
M  V30 878 C 79.0454 3.87272 1.85253 0
M  V30 879 C 78.2784 4.38002 3.04943 0
M  V30 880 O 78.5014 3.87811 4.18281 0
M  V30 881 O 77.4354 5.29602 2.86017 0
M  V30 882 H 81.2614 2.9986 0.481392 0
M  V30 883 H 78.8464 1.4841 0.171699 0
M  V30 884 H 80.7284 3.02475 2.93406 0
M  V30 885 H 79.4034 1.86395 2.64648 0
M  V30 886 H 78.3104 3.5792 1.0883 0
M  V30 887 H 79.6434 4.70336 1.4507 0
M  V30 888 N 81.2955 -0.223234 1.56011 0
M  V30 889 C 82.2255 -1.27988 1.95298 0
M  V30 890 C 83.2065 -1.48976 0.820979 0
M  V30 891 O 84.3915 -1.61188 1.08315 0
M  V30 892 C 81.5215 -2.63 2.26822 0
M  V30 893 C 80.4755 -2.56671 3.42497 0
M  V30 894 C 79.8015 -3.95697 3.59622 0
M  V30 895 C 81.1015 -2.11601 4.77517 0
M  V30 896 H 82.7955 -0.953525 2.8381 0
M  V30 897 H 80.3415 -0.457244 1.36548 0
M  V30 898 H 82.2945 -3.37077 2.52898 0
M  V30 899 H 81.0185 -2.9732 1.35161 0
M  V30 900 H 79.6775 -1.85051 3.16467 0
M  V30 901 H 79.3255 -4.27322 2.6534 0
M  V30 902 H 79.0255 -3.92345 4.37424 0
M  V30 903 H 80.5495 -4.71438 3.88044 0
M  V30 904 H 81.9635 -2.7542 5.02809 0
M  V30 905 H 80.3605 -2.19311 5.5859 0
M  V30 906 H 81.4305 -1.06824 4.72987 0
M  V30 907 N 82.7736 -1.49793 -0.48987 0
M  V30 908 C 84.0196 -1.60078 -1.24511 0
M  V30 909 C 84.3526 -0.291608 -1.91998 0
M  V30 910 O 83.6276 0.705647 -1.81248 0
M  V30 911 C 83.9106 -2.76791 -2.30345 0
M  V30 912 C 83.7636 -4.17535 -1.67286 0
M  V30 913 C 85.0826 -2.89111 -3.31817 0
M  V30 914 H 82.2016 -0.582645 -0.451324 0
M  V30 915 H 84.8436 -1.82117 -0.541612 0
M  V30 916 H 82.9936 -2.5813 -2.90346 0
M  V30 917 H 84.6656 -4.4774 -1.11026 0
M  V30 918 H 82.9086 -4.22665 -0.976577 0
M  V30 919 H 83.5796 -4.95094 -2.44103 0
M  V30 920 H 86.0556 -3.06133 -2.81819 0
M  V30 921 H 84.9316 -3.72433 -4.03219 0
M  V30 922 H 85.1926 -1.9893 -3.94815 0
M  V30 923 N 84.2517 0.741722 -1.39055 0
M  V30 924 C 85.4817 1.52876 -1.3897 0
M  V30 925 C 85.8897 1.8919 0.0193266 0
M  V30 926 O 85.2327 1.54138 0.999356 0
M  V30 927 C 85.2947 2.84929 -2.19216 0
M  V30 928 C 84.9587 2.71086 -3.67915 0
M  V30 929 C 85.9557 2.40084 -4.61146 0
M  V30 930 C 83.6407 2.88168 -4.11418 0
M  V30 931 C 85.6347 2.26335 -5.95862 0
M  V30 932 C 83.3217 2.74037 -5.46211 0
M  V30 933 C 84.3197 2.43166 -6.38247 0
M  V30 934 O 84.0077 2.29115 -7.70559 0
M  V30 935 H 83.7397 0.479252 -0.476753 0
M  V30 936 H 86.2937 0.924751 -1.83405 0
M  V30 937 H 84.5237 3.47564 -1.69518 0
M  V30 938 H 86.2127 3.46509 -2.11392 0
M  V30 939 H 86.9787 2.26545 -4.28838 0
M  V30 940 H 82.8577 3.11191 -3.40119 0
M  V30 941 H 86.4017 2.0216 -6.67665 0
M  V30 942 H 82.2987 2.87153 -5.78112 0
M  V30 943 H 83.0667 2.44237 -7.81211 0
M  V30 944 N 85.7298 1.2412 0.971189 0
M  V30 945 C 86.6398 1.04747 2.09917 0
M  V30 946 C 87.6558 -0.0107162 1.73997 0
M  V30 947 O 88.8318 0.186714 2.00533 0
M  V30 948 C 85.8968 0.650828 3.40537 0
M  V30 949 C 84.9578 1.7851 3.90426 0
M  V30 950 C 84.1908 1.40729 5.14812 0
M  V30 951 O 84.4138 0.29557 5.69634 0
M  V30 952 O 83.3478 2.23168 5.58999 0
M  V30 953 H 87.1738 1.99304 2.29154 0
M  V30 954 H 84.7588 1.02908 1.08307 0
M  V30 955 H 86.6408 0.440992 4.19086 0
M  V30 956 H 85.3158 -0.265649 3.22608 0
M  V30 957 H 84.2228 2.04966 3.12953 0
M  V30 958 H 85.5558 2.68023 4.12825 0
M  V30 959 N 87.2079 -1.17134 1.05439 0
M  V30 960 C 88.4359 -1.91372 0.786414 0
M  V30 961 C 88.8509 -1.76955 -0.658202 0
M  V30 962 O 88.2079 -1.10838 -1.44987 0
M  V30 963 C 88.2589 -3.42356 1.1608 0
M  V30 964 O 87.9799 -3.56332 2.54871 0
M  V30 965 C 89.4809 -4.33663 0.919322 0
M  V30 966 H 86.7009 -0.607118 0.285743 0
M  V30 967 H 89.2449 -1.48525 1.40572 0
M  V30 968 H 87.3999 -3.82939 0.586191 0
M  V30 969 H 87.8139 -4.49896 2.69618 0
M  V30 970 H 89.2879 -5.38099 1.231 0
M  V30 971 H 89.7649 -4.38959 -0.145359 0
M  V30 972 H 90.3709 -3.98796 1.47789 0
M  V30 973 N 88.686 -0.835752 -1.33615 0
M  V30 974 C 89.932 -0.430596 -1.98176 0
M  V30 975 C 90.265 1.00684 -1.66061 0
M  V30 976 O 89.54 1.70339 -0.938877 0
M  V30 977 C 89.823 -0.648065 -3.5422 0
M  V30 978 C 89.676 -2.13255 -3.96033 0
M  V30 979 C 90.995 -0.0922113 -4.40003 0
M  V30 980 H 88.114 -0.157924 -0.719881 0
M  V30 981 H 90.756 -1.05069 -1.58305 0
M  V30 982 H 88.906 -0.120237 -3.88314 0
M  V30 983 H 90.578 -2.725 -3.72211 0
M  V30 984 H 88.821 -2.61823 -3.45878 0
M  V30 985 H 89.492 -2.23547 -5.04708 0
M  V30 986 H 91.968 -0.543343 -4.12537 0
M  V30 987 H 90.844 -0.274083 -5.48215 0
M  V30 988 H 91.105 1.00378 -4.30554 0
M  V30 989 N 90.1641 1.46063 -0.591896 0
M  V30 990 C 91.5801 1.57561 -0.254288 0
M  V30 991 C 91.7801 1.58565 1.24336 0
M  V30 992 O 90.8361 1.50753 2.02558 0
M  V30 993 C 92.1491 2.86549 -0.911611 0
M  V30 994 C 93.6971 3.00197 -0.886059 0
M  V30 995 C 94.1721 4.31933 -1.5231 0
M  V30 996 N 95.6631 4.38654 -1.48786 0
M  V30 997 C 96.3981 5.39222 -1.95006 0
M  V30 998 N 95.8941 6.46414 -2.49241 0
M  V30 999 N 97.6871 5.3048 -1.85868 0
M  V30 1000 H 89.8381 1.43655 -1.56451 0
M  V30 1001 H 92.1011 0.68583 -0.654478 0
M  V30 1002 H 91.8071 2.91651 -1.96551 0
M  V30 1003 H 91.6811 3.74794 -0.425368 0
M  V30 1004 H 94.0681 2.9467 0.159246 0
M  V30 1005 H 94.1491 2.13403 -1.41041 0
M  V30 1006 H 93.7931 4.38217 -2.56765 0
M  V30 1007 H 93.7231 5.17516 -0.973891 0
M  V30 1008 H 96.2141 3.61793 -1.09151 0
M  V30 1009 H 96.5271 7.19376 -2.82344 0
M  V30 1010 H 94.8721 6.47208 -2.53272 0
M  V30 1011 H 98.0631 4.45643 -1.43248 0
M  V30 1012 H 98.2361 6.08711 -2.22204 0
M  V30 1013 N 91.6422 0.330177 1.54103 0
M  V30 1014 C 92.8882 -0.270806 2.00984 0
M  V30 1015 C 93.2212 -1.51265 1.21789 0
M  V30 1016 O 92.4962 -1.92142 0.301927 0
M  V30 1017 C 92.7792 -0.598339 3.55094 0
M  V30 1018 C 92.6322 0.654674 4.4501 0
M  V30 1019 C 93.9512 -1.41334 4.16789 0
M  V30 1020 H 91.0702 -0.0969531 0.730595 0
M  V30 1021 H 93.7122 0.448066 1.84641 0
M  V30 1022 H 91.8622 -1.21078 3.69151 0
M  V30 1023 H 93.5342 1.29285 4.42813 0
M  V30 1024 H 91.7772 1.28224 4.14416 0
M  V30 1025 H 92.4482 0.380944 5.50684 0
M  V30 1026 H 94.9242 -0.895597 4.06347 0
M  V30 1027 H 93.8002 -1.61127 5.24718 0
M  V30 1028 H 94.0612 -2.41146 3.70541 0
M  V30 1029 N 93.1203 -1.57491 0.0584922 0
M  V30 1030 C 94.5313 -1.80526 -0.476138 0
M  V30 1031 C 94.8823 -0.971334 -1.70469 0
M  V30 1032 O 94.0073 -0.190012 -2.15564 0
M  V30 1033 C 94.6023 -3.27424 -0.870587 0
M  V30 1034 C 93.1613 -3.51351 -1.35015 0
M  V30 1035 C 92.3083 -2.75343 -0.32887 0
M  V30 1036 H 95.2593 -1.56133 0.284312 0
M  V30 1037 H 95.2803 -3.38745 -1.73299 0
M  V30 1038 H 94.7923 -3.88093 0.0237627 0
M  V30 1039 H 92.8933 -2.95971 -2.26345 0
M  V30 1040 H 93.0063 -4.60059 -1.33726 0
M  V30 1041 H 91.3703 -2.417 -0.803321 0
M  V30 1042 H 92.1533 -3.38743 0.557521 0
M  V30 1043 N 94.5984 0.214957 -1.56127 0
M  V30 1044 C 95.8464 0.936518 -1.79091 0
M  V30 1045 C 96.1674 1.84606 -0.628148 0
M  V30 1046 O 95.4374 1.92664 0.35462 0
M  V30 1047 H 94.0174 0.3488 -0.660566 0
M  V30 1048 H 96.6794 0.22523 -1.93594 0
M  V30 1049 H 95.7754 1.53943 -2.71492 0
M  V30 1050 N 96.0765 1.50051 0.48192 0
M  V30 1051 C 97.3165 1.62128 1.24474 0
M  V30 1052 C 97.6805 0.309742 1.89485 0
M  V30 1053 O 98.8815 0.305854 2.67054 0
M  V30 1054 C 97.1525 2.76151 2.26882 0
M  V30 1055 S 98.7115 3.08297 3.12247 0
M  V30 1056 H 95.5295 0.571661 0.422759 0
M  V30 1057 H 98.1315 1.87791 0.54359 0
M  V30 1058 H 96.8355 3.69942 1.77683 0
M  V30 1059 H 96.3665 2.52541 3.0164 0
M  V30 1060 H 98.3815 2.51287 4.27866 0
M  V30 1061 N 97.5546 -0.734337 1.39446 0
M  V30 1062 C 98.5176 -1.83004 1.37994 0
M  V30 1063 C 99.5176 -1.58397 0.276938 0
M  V30 1064 O 100.708 -1.65785 0.534875 0
M  V30 1065 C 97.8396 -3.20802 1.1532 0
M  V30 1066 H 99.0326 -1.85694 2.35494 0
M  V30 1067 H 96.5856 -0.938059 1.25021 0
M  V30 1068 H 97.3206 -3.23772 0.185036 0
M  V30 1069 H 97.1056 -3.4006 1.95197 0
M  V30 1070 H 98.5956 -4.00862 1.17046 0
M  V30 1071 N 99.0327 -1.24633 -0.964593 0
M  V30 1072 C 99.9827 -1.00841 -2.04487 0
M  V30 1073 C 100.967 0.0512468 -1.60818 0
M  V30 1074 O 102.159 -0.162865 -1.76249 0
M  V30 1075 C 99.2877 -0.618474 -3.37683 0
M  V30 1076 C 98.3737 -1.71437 -3.87905 0
M  V30 1077 N 98.7647 -2.9477 -4.11029 0
M  V30 1078 C 97.0627 -1.5926 -4.16596 0
M  V30 1079 C 97.7637 -3.65834 -4.52261 0
M  V30 1080 N 96.7397 -2.9341 -4.57615 0
M  V30 1081 H 100.542 -1.94487 -2.20345 0
M  V30 1082 H 98.0557 -1.14805 -1.14863 0
M  V30 1083 H 100.053 -0.429247 -4.14684 0
M  V30 1084 H 98.7127 0.310766 -3.23209 0
M  V30 1085 H 99.7237 -3.30917 -3.9839 0
M  V30 1086 H 96.4007 -0.731606 -4.1104 0
M  V30 1087 H 97.7907 -4.71646 -4.78539 0
M  V30 1088 N 100.511 1.16574 -1.06058 0
M  V30 1089 C 101.461 2.18854 -0.63929 0
M  V30 1090 C 102.445 1.57505 0.328798 0
M  V30 1091 O 103.637 1.76408 0.144623 0
M  V30 1092 C 100.766 3.43291 -0.0247203 0
M  V30 1093 C 99.8518 4.11722 -1.01716 0
M  V30 1094 N 100.243 4.55841 -2.19186 0
M  V30 1095 C 98.5408 4.37872 -0.847569 0
M  V30 1096 C 99.2418 5.08751 -2.82042 0
M  V30 1097 N 98.2178 5.01489 -2.09784 0
M  V30 1098 H 102.02 2.5068 -1.53417 0
M  V30 1099 H 99.5338 1.32999 -0.931935 0
M  V30 1100 H 101.531 4.15856 0.294915 0
M  V30 1101 H 100.191 3.12954 0.865448 0
M  V30 1102 H 101.202 4.49649 -2.56975 0
M  V30 1103 H 97.8788 4.17499 -0.00918848 0
M  V30 1104 H 99.2688 5.52944 -3.81709 0
M  V30 1105 N 101.989 0.842826 1.3317 0
M  V30 1106 C 102.952 0.284065 2.27433 0
M  V30 1107 C 103.952 -0.54948 1.5112 0
M  V30 1108 O 105.142 -0.362699 1.70382 0
M  V30 1109 C 102.274 -0.599384 3.35589 0
M  V30 1110 H 103.467 1.11589 2.78366 0
M  V30 1111 H 101.02 0.616221 1.4364 0
M  V30 1112 H 101.755 -1.45349 2.89904 0
M  V30 1113 H 101.54 -0.00291266 3.921 0
M  V30 1114 H 103.03 -0.983488 4.05854 0
M  V30 1115 N 103.467 -1.45747 0.599634 0
M  V30 1116 C 104.744 -1.95585 0.0240846 0
M  V30 1117 C 105.124 -1.54217 -1.44154 0
M  V30 1118 O 104.472 -0.800903 -2.14004 0
M  V30 1119 C 104.682 -3.48344 0.21385 0
M  V30 1120 C 106.03 -4.24504 0.0904902 0
M  V30 1121 O 107.054 -3.55911 0.143558 0
M  V30 1122 O 105.913 -5.46491 -0.0310766 0
M  V30 1123 H 103.007 -0.82602 -0.0402478 0
M  V30 1124 H 105.553 -1.55951 0.669139 0
M  V30 1125 H 104.325 -3.71397 1.23206 0
M  V30 1126 H 103.948 -3.9485 -0.466842 0
M  V30 1127 N 104.945 -0.338344 -1.53925 0
M  V30 1128 C 106.17 0.263987 -2.05713 0
M  V30 1129 C 106.595 1.43847 -1.21201 0
M  V30 1130 O 105.953 1.79904 -0.224535 0
M  V30 1131 C 106.001 0.662 -3.54471 0
M  V30 1132 O 105.105 1.76265 -3.72833 0
M  V30 1133 H 104.446 0.0448722 -0.662482 0
M  V30 1134 H 106.976 -0.491048 -1.9862 0
M  V30 1135 H 106.986 0.940594 -3.9701 0
M  V30 1136 H 105.661 -0.196937 -4.15433 0
M  V30 1137 H 104.238 1.48173 -3.42198 0
M  V30 1138 N 106.423 1.57458 -0.0668435 0
M  V30 1139 C 107.353 2.15468 0.899764 0
M  V30 1140 C 108.334 1.08042 1.31381 0
M  V30 1141 O 109.519 1.36054 1.38574 0
M  V30 1142 C 106.649 2.71232 2.16911 0
M  V30 1143 C 105.603 3.83781 1.89463 0
M  V30 1144 C 104.929 4.26127 3.22986 0
M  V30 1145 C 106.229 5.08238 1.20381 0
M  V30 1146 H 107.923 2.96488 0.416529 0
M  V30 1147 H 105.469 1.4262 0.198908 0
M  V30 1148 H 107.422 3.10458 2.84945 0
M  V30 1149 H 106.146 1.87426 2.67468 0
M  V30 1150 H 104.805 3.45051 1.23836 0
M  V30 1151 H 104.453 3.39249 3.71374 0
M  V30 1152 H 104.153 5.01993 3.05413 0
M  V30 1153 H 105.677 4.67966 3.92225 0
M  V30 1154 H 107.091 5.44811 1.78475 0
M  V30 1155 H 105.488 5.89349 1.13083 0
M  V30 1156 H 106.558 4.84558 0.182153 0
M  V30 1157 N 107.901 -0.206675 1.56239 0
M  V30 1158 C 109.131 -0.943975 1.83773 0
M  V30 1159 C 109.539 -1.77841 0.645703 0
M  V30 1160 O 108.882 -1.79403 -0.395008 0
M  V30 1161 C 108.944 -1.899 3.05251 0
M  V30 1162 C 108.608 -1.24764 4.39639 0
M  V30 1163 C 109.605 -0.630216 5.16066 0
M  V30 1164 C 107.29 -1.25496 4.8637 0
M  V30 1165 C 109.284 -0.0287946 6.37393 0
M  V30 1166 C 106.971 -0.649698 6.07637 0
M  V30 1167 C 107.969 -0.0376845 6.8299 0
M  V30 1168 O 107.657 0.55812 8.0196 0
M  V30 1169 H 107.389 -0.281508 0.614597 0
M  V30 1170 H 109.943 -0.222458 2.04192 0
M  V30 1171 H 108.173 -2.6599 2.80689 0
M  V30 1172 H 109.862 -2.5031 3.1953 0
M  V30 1173 H 110.628 -0.616785 4.81062 0
M  V30 1174 H 106.507 -1.72072 4.27683 0
M  V30 1175 H 110.051 0.449518 6.9615 0
M  V30 1176 H 105.948 -0.660592 6.42111 0
M  V30 1177 H 106.716 0.453891 8.17241 0
M  V30 1178 N 109.379 -1.50304 -0.473955 0
M  V30 1179 C 110.607 -1.64902 -1.24959 0
M  V30 1180 C 111.022 -0.331198 -1.85872 0
M  V30 1181 O 110.379 0.68652 -1.69095 0
M  V30 1182 C 110.43 -2.73803 -2.36038 0
M  V30 1183 O 110.151 -4.00477 -1.77624 0
M  V30 1184 C 111.652 -2.99349 -3.26964 0
M  V30 1185 H 108.872 -0.554383 -0.378022 0
M  V30 1186 H 111.416 -1.9651 -0.566054 0
M  V30 1187 H 109.571 -2.44898 -3.00173 0
M  V30 1188 H 109.985 -4.60678 -2.5075 0
M  V30 1189 H 111.459 -3.79217 -4.01121 0
M  V30 1190 H 111.936 -2.10307 -3.85574 0
M  V30 1191 H 112.542 -3.29774 -2.68569 0
M  V30 1192 N 110.857 0.726932 -1.39834 0
M  V30 1193 C 112.087 1.51393 -1.40583 0
M  V30 1194 C 112.495 1.892 -0.000740625 0
M  V30 1195 O 111.838 1.55189 0.982951 0
M  V30 1196 C 111.9 2.82588 -2.22226 0
M  V30 1197 C 111.564 2.67169 -3.70769 0
M  V30 1198 C 112.561 2.3518 -4.63666 0
M  V30 1199 C 110.246 2.83788 -4.14451 0
M  V30 1200 C 112.24 2.20002 -5.98229 0
M  V30 1201 C 109.927 2.68229 -5.49087 0
M  V30 1202 C 110.925 2.36382 -6.4079 0
M  V30 1203 O 110.613 2.2093 -7.72946 0
M  V30 1204 H 110.345 0.474168 -0.48181 0
M  V30 1205 H 112.899 0.905247 -1.84376 0
M  V30 1206 H 111.129 3.45746 -1.73195 0
M  V30 1207 H 112.818 3.44247 -2.15055 0
M  V30 1208 H 113.584 2.21984 -4.31217 0
M  V30 1209 H 109.463 3.07566 -3.43401 0
M  V30 1210 H 113.007 1.95067 -6.69772 0
M  V30 1211 H 108.904 2.81006 -5.81125 0
M  V30 1212 H 109.672 2.35937 -7.83757 0
M  V30 1213 N 112.336 1.25143 0.95797 0
M  V30 1214 C 113.747 1.08851 1.51685 0
M  V30 1215 C 114.098 -0.33687 1.93286 0
M  V30 1216 O 113.223 -1.22644 1.7829 0
M  V30 1217 C 113.818 1.96978 2.75654 0
M  V30 1218 C 112.377 1.84881 3.27866 0
M  V30 1219 C 111.524 1.91329 2.0072 0
M  V30 1220 H 114.475 1.38478 0.77522 0
M  V30 1221 H 114.496 1.5078 3.4935 0
M  V30 1222 H 114.008 3.00712 2.45345 0
M  V30 1223 H 112.109 0.840182 3.63004 0
M  V30 1224 H 112.222 2.6951 3.96107 0
M  V30 1225 H 110.586 1.35174 2.15871 0
M  V30 1226 H 111.369 2.96661 1.72764 0
M  V30 1227 N 113.814 -1.1601 1.06675 0
M  V30 1228 C 115.06 -1.86909 0.786945 0
M  V30 1229 C 115.393 -1.81717 -0.685018 0
M  V30 1230 O 114.668 -1.23551 -1.50218 0
M  V30 1231 C 114.951 -3.36313 1.28707 0
M  V30 1232 C 114.804 -3.50175 2.82308 0
M  V30 1233 C 116.123 -4.3084 0.898071 0
M  V30 1234 H 113.242 -0.678677 0.287343 0
M  V30 1235 H 115.884 -1.36336 1.32334 0
M  V30 1236 H 114.034 -3.79513 0.830768 0
M  V30 1237 H 115.706 -3.15886 3.36175 0
M  V30 1238 H 113.949 -2.91959 3.20847 0
M  V30 1239 H 114.62 -4.55116 3.12368 0
M  V30 1240 H 117.096 -3.95561 1.29114 0
M  V30 1241 H 115.972 -5.33876 1.27543 0
M  V30 1242 H 116.233 -4.41662 -0.196651 0
M  V30 1243 N 115.292 -0.849877 -1.32721 0
M  V30 1244 C 116.255 -0.296122 -2.27279 0
M  V30 1245 C 117.255 0.541458 -1.5141 0
M  V30 1246 O 118.445 0.353658 -1.70572 0
M  V30 1247 C 115.577 0.581579 -3.35902 0
M  V30 1248 H 116.77 -1.13064 -2.77771 0
M  V30 1249 H 114.323 -0.62383 -1.43311 0
M  V30 1250 H 115.058 1.43809 -2.9067 0
M  V30 1251 H 114.843 -0.0178814 -3.92096 0
M  V30 1252 H 116.333 0.961951 -4.0637 0
M  V30 1253 N 116.77 1.45427 -0.607355 0
M  V30 1254 C 117.998 2.06614 -0.108814 0
M  V30 1255 C 118.413 1.45204 1.2067 0
M  V30 1256 O 117.77 0.566132 1.73497 0
M  V30 1257 C 117.821 3.61481 0.0375347 0
M  V30 1258 O 117.542 4.20598 -1.22593 0
M  V30 1259 C 119.043 4.39652 0.567561 0
M  V30 1260 H 116.263 0.66747 -0.0687351 0
M  V30 1261 H 118.807 1.86675 -0.835022 0
M  V30 1262 H 116.962 3.80762 0.714068 0
M  V30 1263 H 117.376 5.1377 -1.05547 0
M  V30 1264 H 118.85 5.48518 0.61905 0
M  V30 1265 H 119.327 4.09417 1.58978 0
M  V30 1266 H 119.933 4.25234 -0.0749202 0
M  V30 1267 N 118.248 0.346503 1.53744 0
M  V30 1268 C 119.18 -0.543316 2.22667 0
M  V30 1269 C 120.193 -1.06159 1.23427 0
M  V30 1270 O 121.382 -0.971235 1.49764 0
M  V30 1271 C 118.482 -1.76076 2.89569 0
M  V30 1272 C 117.655 -1.37727 4.15151 0
M  V30 1273 C 116.714 -2.45471 4.65436 0
M  V30 1274 O 115.74 -2.08655 5.29577 0
M  V30 1275 N 116.942 -3.7677 4.41616 0
M  V30 1276 H 119.707 0.0469703 2.99663 0
M  V30 1277 H 117.268 0.170766 1.60997 0
M  V30 1278 H 119.26 -2.47593 3.20125 0
M  V30 1279 H 117.83 -2.25835 2.16142 0
M  V30 1280 H 117.05 -0.492746 3.91108 0
M  V30 1281 H 118.338 -1.09708 4.96832 0
M  V30 1282 H 117.736 -4.09467 3.90325 0
M  V30 1283 H 116.293 -4.44448 4.7677 0
M  V30 1284 N 119.726 -1.57421 0.075193 0
M  V30 1285 C 120.966 -1.95495 -0.596757 0
M  V30 1286 C 121.33 -0.954886 -1.66571 0
M  V30 1287 O 122.531 -1.22341 -2.39345 0
M  V30 1288 C 120.802 -3.382 -1.15566 0
M  V30 1289 S 122.361 -3.98254 -1.84226 0
M  V30 1290 H 119.179 -0.683649 -0.195307 0
M  V30 1291 H 121.781 -1.94925 0.149859 0
M  V30 1292 H 120.485 -4.08766 -0.36588 0
M  V30 1293 H 120.016 -3.42321 -1.93856 0
M  V30 1294 H 122.031 -3.85435 -3.12497 0
M  V30 1295 N 121.204 0.198386 -1.56346 0
M  V30 1296 C 122.154 1.2499 -1.90687 0
M  V30 1297 C 123.138 1.41158 -0.772217 0
M  V30 1298 O 124.33 1.43584 -1.03502 0
M  V30 1299 C 121.459 2.59542 -2.24706 0
M  V30 1300 C 120.545 2.47181 -3.44619 0
M  V30 1301 N 120.936 2.04495 -4.62618 0
M  V30 1302 C 119.234 2.78082 -3.48692 0
M  V30 1303 C 119.935 2.03945 -5.44776 0
M  V30 1304 N 118.911 2.45323 -4.85095 0
M  V30 1305 H 122.713 0.911149 -2.7942 0
M  V30 1306 H 120.227 0.40684 -1.57221 0
M  V30 1307 H 122.224 3.3549 -2.47491 0
M  V30 1308 H 120.884 2.94244 -1.37298 0
M  V30 1309 H 121.895 1.75256 -4.87345 0
M  V30 1310 H 118.572 3.17002 -2.71691 0
M  V30 1311 H 119.962 1.72872 -6.4928 0
M  V30 1312 N 122.682 1.50554 0.465978 0
M  V30 1313 C 123.922 1.63439 1.22747 0
M  V30 1314 C 124.286 0.329822 1.89146 0
M  V30 1315 O 125.487 0.334161 2.66715 0
M  V30 1316 C 123.758 2.78542 2.2394 0
M  V30 1317 S 125.317 3.11591 3.0896 0
M  V30 1318 H 122.135 0.576113 0.416672 0
M  V30 1319 H 124.737 1.88357 0.523641 0
M  V30 1320 H 123.441 3.71805 1.7375 0
M  V30 1321 H 122.972 2.55726 2.98944 0
M  V30 1322 H 124.987 2.55811 4.25176 0
M  V30 1323 N 124.16 -0.719506 1.40217 0
M  V30 1324 C 125.408 -1.47641 1.3801 0
M  V30 1325 C 125.729 -1.94992 -0.018145 0
M  V30 1326 O 124.999 -1.70073 -0.972207 0
M  V30 1327 H 123.579 -0.547744 0.507923 0
M  V30 1328 H 126.241 -0.853187 1.75233 0
M  V30 1329 H 125.337 -2.35112 2.05253 0
M  V30 1330 N 125.638 -1.25649 -0.95132 0
M  V30 1331 C 126.585 -1.06323 -2.04851 0
M  V30 1332 C 127.555 0.0286491 -1.66075 0
M  V30 1333 O 128.74 -0.12917 -1.90362 0
M  V30 1334 C 125.88 -0.691529 -3.381 0
M  V30 1335 C 124.993 -1.85861 -3.89974 0
M  V30 1336 C 124.128 -1.43096 -5.11563 0
M  V30 1337 C 123.167 -2.56696 -5.55674 0
M  V30 1338 N 122.304 -2.14684 -6.68472 0
M  V30 1339 H 127.144 -2.00222 -2.20715 0
M  V30 1340 H 124.681 -0.997027 -1.08156 0
M  V30 1341 H 126.639 -0.456963 -4.1469 0
M  V30 1342 H 125.269 0.210474 -3.22113 0
M  V30 1343 H 124.321 -2.20639 -3.09875 0
M  V30 1344 H 125.633 -2.71161 -4.18657 0
M  V30 1345 H 124.787 -1.15624 -5.9558 0
M  V30 1346 H 123.526 -0.548722 -4.84603 0
M  V30 1347 H 122.531 -2.84909 -4.7022 0
M  V30 1348 H 123.756 -3.45503 -5.8464 0
M  V30 1349 H 121.702 -1.28881 -6.43215 0
M  V30 1350 H 121.619 -2.9353 -6.96689 0
M  V30 1351 H 122.887 -1.90397 -7.5589 0
M  V30 1352 N 127.117 1.15442 -1.07289 0
M  V30 1353 C 128.357 1.8788 -0.805012 0
M  V30 1354 C 128.721 1.80413 0.656907 0
M  V30 1355 O 129.922 2.47874 1.0398 0
M  V30 1356 C 128.193 3.3298 -1.29843 0
M  V30 1357 S 129.752 4.23158 -1.16114 0
M  V30 1358 H 126.57 0.64839 -0.291739 0
M  V30 1359 H 129.172 1.39285 -1.37186 0
M  V30 1360 H 127.876 3.35958 -2.35712 0
M  V30 1361 H 127.407 3.86629 -0.726767 0
M  V30 1362 H 129.422 4.96103 -0.0982778 0
M  V30 1363 N 128.595 0.856903 1.32268 0
M  V30 1364 C 129.872 0.382583 1.91822 0
M  V30 1365 C 130.252 -1.13407 1.78051 0
M  V30 1366 O 129.6 -1.95673 1.18001 0
M  V30 1367 C 129.81 0.849446 3.38505 0
M  V30 1368 C 131.158 0.867936 4.15634 0
M  V30 1369 O 132.182 0.794232 3.47232 0
M  V30 1370 O 131.041 0.972286 5.37781 0
M  V30 1371 H 128.135 0.112014 0.819379 0
M  V30 1372 H 130.681 0.943952 1.41024 0
M  V30 1373 H 129.453 1.89267 3.42482 0
M  V30 1374 H 129.076 0.265652 3.96712 0
M  V30 1375 N 130.073 -1.45103 0.615059 0
M  V30 1376 C 131.298 -2.07064 0.117988 0
M  V30 1377 C 131.723 -1.4554 -1.19163 0
M  V30 1378 O 131.081 -0.550855 -1.72729 0
M  V30 1379 C 131.129 -3.606 -0.000288387 0
M  V30 1380 O 130.233 -3.98847 -1.04856 0
M  V30 1381 H 129.574 -0.659467 0.0774581 0
M  V30 1382 H 132.104 -1.86236 0.847186 0
M  V30 1383 H 132.114 -4.07529 -0.196091 0
M  V30 1384 H 130.789 -4.04765 0.955932 0
M  V30 1385 H 129.366 -3.63577 -0.828619 0
M  V30 1386 N 131.551 -0.354651 -1.53558 0
M  V30 1387 C 132.828 0.294281 -1.93374 0
M  V30 1388 C 133.208 1.67313 -1.28723 0
M  V30 1389 O 132.556 2.24179 -0.442247 0
M  V30 1390 C 132.766 0.355445 -3.47185 0
M  V30 1391 C 134.114 0.601007 -4.20325 0
M  V30 1392 O 135.138 0.437106 -3.53508 0
M  V30 1393 O 133.997 0.919322 -5.38712 0
M  V30 1394 H 131.091 0.174033 -0.808481 0
M  V30 1395 H 133.637 -0.406638 -1.64756 0
M  V30 1396 H 132.409 -0.611729 -3.86489 0
M  V30 1397 H 132.032 1.1027 -3.82003 0
M  V30 1398 N 133.029 1.57378 -0.0835403 0
M  V30 1399 C 134.254 1.98682 0.594987 0
M  V30 1400 C 134.679 0.961969 1.61641 0
M  V30 1401 O 134.037 -0.0709989 1.81161 0
M  V30 1402 C 134.085 3.38988 1.2296 0
M  V30 1403 O 133.189 3.39208 2.34546 0
M  V30 1404 H 132.53 0.646368 0.152002 0
M  V30 1405 H 135.06 2.03961 -0.161533 0
M  V30 1406 H 135.07 3.76431 1.57366 0
M  V30 1407 H 133.745 4.13107 0.481228 0
M  V30 1408 H 132.322 3.13548 2.01846 0
M  V30 1409 N 134.507 -0.190092 1.56449 0
M  V30 1410 C 135.735 -0.925772 1.85033 0
M  V30 1411 C 136.15 -1.76638 0.666658 0
M  V30 1412 O 135.507 -1.78822 -0.364565 0
M  V30 1413 C 135.558 -1.81786 3.12468 0
M  V30 1414 O 135.279 -1.01118 4.26271 0
M  V30 1415 C 136.78 -2.6648 3.54265 0
M  V30 1416 H 134 -0.269872 0.614337 0
M  V30 1417 H 136.544 -0.195837 2.0356 0
M  V30 1418 H 134.699 -2.50136 2.95822 0
M  V30 1419 H 135.113 -1.61956 4.98869 0
M  V30 1420 H 136.587 -3.24722 4.46385 0
M  V30 1421 H 137.064 -3.40434 2.77491 0
M  V30 1422 H 137.67 -2.03493 3.73458 0
M  V30 1423 N 135.985 -1.50799 -0.457987 0
M  V30 1424 C 137.262 -1.52968 -1.21902 0
M  V30 1425 C 137.642 -0.281906 -2.09209 0
M  V30 1426 O 136.99 0.734076 -2.16388 0
M  V30 1427 C 137.2 -2.8326 -2.03875 0
M  V30 1428 C 138.548 -3.34425 -2.6162 0
M  V30 1429 O 139.572 -2.8467 -2.14106 0
M  V30 1430 O 138.431 -4.21188 -3.48228 0
M  V30 1431 H 135.525 -0.614129 -0.553873 0
M  V30 1432 H 138.071 -1.63098 -0.468739 0
M  V30 1433 H 136.843 -3.65543 -1.39621 0
M  V30 1434 H 136.466 -2.76195 -2.8601 0
M  V30 1435 N 137.463 0.71206 -1.40597 0
M  V30 1436 C 138.703 1.48438 -1.40519 0
M  V30 1437 C 139.067 1.91998 -0.00767611 0
M  V30 1438 O 140.268 2.6854 0.118239 0
M  V30 1439 C 138.539 2.67514 -2.37004 0
M  V30 1440 S 140.098 3.56875 -2.55315 0
M  V30 1441 H 136.916 0.507457 -0.498005 0
M  V30 1442 H 139.518 0.832355 -1.76896 0
M  V30 1443 H 138.222 2.33689 -3.37368 0
M  V30 1444 H 137.753 3.37625 -2.01923 0
M  V30 1445 H 139.768 4.62081 -1.8082 0
M  V30 1446 N 138.941 1.26152 0.944643 0
M  V30 1447 C 140.169 1.14259 1.72489 0
M  V30 1448 C 140.584 -0.302555 1.8636 0
M  V30 1449 O 139.941 -1.20741 1.36849 0
M  V30 1450 C 139.992 1.80266 3.13347 0
M  V30 1451 O 139.713 3.19133 3.00143 0
M  V30 1452 C 141.214 1.74283 4.07603 0
M  V30 1453 H 138.434 0.398051 0.540181 0
M  V30 1454 H 140.978 1.66706 1.18446 0
M  V30 1455 H 139.133 1.31766 3.64303 0
M  V30 1456 H 139.547 3.51744 3.89071 0
M  V30 1457 H 141.021 2.25111 5.04013 0
M  V30 1458 H 141.498 0.708631 4.33446 0
M  V30 1459 H 142.104 2.22319 3.62567 0
M  V30 1460 N 140.419 -1.14872 1.07899 0
M  V30 1461 C 141.665 -1.86064 0.806725 0
M  V30 1462 C 141.998 -1.82434 -0.665706 0
M  V30 1463 O 141.273 -1.25138 -1.48899 0
M  V30 1464 C 141.556 -3.34929 1.32267 0
M  V30 1465 C 141.409 -3.47161 2.86006 0
M  V30 1466 C 142.728 -4.29863 0.943717 0
M  V30 1467 H 139.847 -0.675591 0.294526 0
M  V30 1468 H 142.489 -1.34925 1.33773 0
M  V30 1469 H 140.639 -3.78611 0.870974 0
M  V30 1470 H 142.311 -3.12302 3.39507 0
M  V30 1471 H 140.554 -2.88539 3.23925 0
M  V30 1472 H 141.225 -4.51777 3.17177 0
M  V30 1473 H 143.701 -3.9417 1.33302 0
M  V30 1474 H 142.577 -5.32494 1.33198 0
M  V30 1475 H 142.838 -4.41846 -0.149796 0
M  V30 1476 N 141.898 -0.863906 -1.31812 0
M  V30 1477 C 143.314 -0.555004 -1.49639 0
M  V30 1478 C 143.514 0.912266 -1.79666 0
M  V30 1479 O 142.57 1.69479 -1.87171 0
M  V30 1480 C 143.883 -1.44998 -2.63431 0
M  V30 1481 C 145.431 -1.45138 -2.77316 0
M  V30 1482 C 145.906 -2.33179 -3.94197 0
M  V30 1483 N 147.397 -2.31025 -4.01474 0
M  V30 1484 C 148.132 -2.95871 -4.9117 0
M  V30 1485 N 147.628 -3.69863 -5.8581 0
M  V30 1486 N 149.421 -2.85211 -4.84367 0
M  V30 1487 H 141.572 -1.81339 -1.10589 0
M  V30 1488 H 143.835 -0.77505 -0.545895 0
M  V30 1489 H 143.541 -2.49377 -2.48 0
M  V30 1490 H 143.415 -1.14409 -3.59431 0
M  V30 1491 H 145.802 -0.415201 -2.92164 0
M  V30 1492 H 145.883 -1.79747 -1.82001 0
M  V30 1493 H 145.527 -3.3687 -3.80107 0
M  V30 1494 H 145.457 -1.95897 -4.88807 0
M  V30 1495 H 147.948 -1.77238 -3.33759 0
M  V30 1496 H 148.261 -4.16486 -6.50968 0
M  V30 1497 H 146.606 -3.73971 -5.85808 0
M  V30 1498 H 149.797 -2.26948 -4.09405 0
M  V30 1499 H 149.97 -3.36027 -5.54066 0
M  V30 1500 N 143.376 1.44774 -0.622745 0
M  V30 1501 C 144.624 2.01721 -0.123655 0
M  V30 1502 C 144.945 1.49172 1.25589 0
M  V30 1503 O 144.215 0.691974 1.83272 0
M  V30 1504 H 142.795 0.745777 -0.0427225 0
M  V30 1505 H 145.457 1.77382 -0.807559 0
M  V30 1506 H 144.553 3.11984 -0.0849534 0
M  V30 1507 N 144.854 0.36279 1.53368 0
M  V30 1508 C 145.784 -0.476976 2.28576 0
M  V30 1509 C 146.765 -1.08631 1.30894 0
M  V30 1510 O 147.95 -1.10409 1.59761 0
M  V30 1511 C 145.08 -1.61828 3.07293 0
M  V30 1512 C 144.034 -1.13633 4.1264 0
M  V30 1513 C 143.36 -2.36766 4.79423 0
M  V30 1514 C 144.66 -0.223061 5.21823 0
M  V30 1515 H 146.354 0.150474 2.99022 0
M  V30 1516 H 143.9 0.0738103 1.43811 0
M  V30 1517 H 145.853 -2.21237 3.58653 0
M  V30 1518 H 144.577 -2.27292 2.34533 0
M  V30 1519 H 143.236 -0.564945 3.62221 0
M  V30 1520 H 142.884 -3.0068 4.03238 0
M  V30 1521 H 142.584 -2.05192 5.50609 0
M  V30 1522 H 144.108 -2.96865 5.33576 0
M  V30 1523 H 145.522 -0.724545 5.68703 0
M  V30 1524 H 143.919 0.001678 6.001 0
M  V30 1525 H 144.989 0.735553 4.79289 0
M  V30 1526 N 146.332 -1.57332 0.0918853 0
M  V30 1527 C 147.58 -1.93853 -0.571446 0
M  V30 1528 C 147.901 -0.974212 -1.6892 0
M  V30 1529 O 147.171 -0.0257254 -1.95883 0
M  V30 1530 H 145.751 -0.715666 -0.214082 0
M  V30 1531 H 148.413 -1.94287 0.154464 0
M  V30 1532 H 147.509 -2.96191 -0.983729 0
M  V30 1533 N 147.81 0.181792 -1.56548 0
M  V30 1534 C 149.221 0.745244 -1.71181 0
M  V30 1535 C 149.572 1.83262 -0.70068 0
M  V30 1536 O 148.697 2.15946 0.140154 0
M  V30 1537 C 149.292 1.35859 -3.10367 0
M  V30 1538 C 147.851 1.86898 -3.2672 0
M  V30 1539 C 146.998 0.743942 -2.67134 0
M  V30 1540 H 149.949 -0.0434661 -1.5864 0
M  V30 1541 H 149.97 2.22817 -3.08436 0
M  V30 1542 H 149.482 0.566948 -3.83937 0
M  V30 1543 H 147.583 2.68738 -2.5809 0
M  V30 1544 H 147.696 2.02162 -4.34359 0
M  V30 1545 H 146.06 1.16169 -2.26665 0
M  V30 1546 H 146.843 -0.035676 -3.43281 0
M  V30 1547 N 149.288 1.51039 0.449983 0
M  V30 1548 C 150.513 1.6715 1.22783 0
M  V30 1549 C 150.938 0.363081 1.84563 0
M  V30 1550 O 150.296 -0.675433 1.68249 0
M  V30 1551 C 150.344 2.77985 2.29689 0
M  V30 1552 O 149.448 2.40707 3.34864 0
M  V30 1553 H 148.789 0.557746 0.360299 0
M  V30 1554 H 151.319 1.97535 0.533005 0
M  V30 1555 H 151.329 3.01693 2.74673 0
M  V30 1556 H 150.004 3.72935 1.84098 0
M  V30 1557 H 148.581 2.27523 2.95445 0
M  V30 1558 N 150.766 -0.704594 1.40972 0
M  V30 1559 C 151.996 -1.49138 1.42974 0
M  V30 1560 C 152.404 -1.89175 0.0308406 0
M  V30 1561 O 151.747 -1.56734 -0.958138 0
M  V30 1562 C 151.809 -2.79016 2.26694 0
M  V30 1563 C 151.473 -2.61236 3.74973 0
M  V30 1564 C 152.47 -2.27773 4.67349 0
M  V30 1565 C 150.155 -2.77158 4.18914 0
M  V30 1566 C 152.149 -2.10457 6.01653 0
M  V30 1567 C 149.836 -2.59459 5.53285 0
M  V30 1568 C 150.834 -2.26158 6.4447 0
M  V30 1569 O 150.522 -2.08605 7.76363 0
M  V30 1570 H 150.254 -0.466443 0.489292 0
M  V30 1571 H 152.808 -0.8758 1.85793 0
M  V30 1572 H 151.038 -3.42947 1.78673 0
M  V30 1573 H 152.727 -3.40782 2.20504 0
M  V30 1574 H 153.493 -2.15095 4.34694 0
M  V30 1575 H 149.372 -3.02064 3.48251 0
M  V30 1576 H 152.916 -1.84387 6.72791 0
M  V30 1577 H 148.813 -2.71725 5.85522 0
M  V30 1578 H 149.581 -2.23439 7.87412 0
M  V30 1579 N 152.244 -1.26651 -0.937939 0
M  V30 1580 C 153.484 -1.13611 -1.69917 0
M  V30 1581 C 153.848 0.314687 -1.89404 0
M  V30 1582 O 155.049 0.567285 -2.62746 0
M  V30 1583 C 153.32 -1.88742 -3.03498 0
M  V30 1584 S 154.879 -1.91794 -3.94665 0
M  V30 1585 H 151.697 -0.405767 -0.583844 0
M  V30 1586 H 154.299 -1.60416 -1.11745 0
M  V30 1587 H 153.003 -2.9336 -2.86999 0
M  V30 1588 H 152.534 -1.42391 -3.66727 0
M  V30 1589 H 154.549 -1.00698 -4.85875 0
M  V30 1590 N 153.722 1.14298 -1.08507 0
M  V30 1591 C 154.947 1.8976 -0.837001 0
M  V30 1592 C 155.372 1.78097 0.605228 0
M  V30 1593 O 154.73 1.12188 1.4242 0
M  V30 1594 C 154.778 3.37685 -1.26495 0
M  V30 1595 O 153.882 4.10281 -0.417514 0
M  V30 1596 H 153.223 0.590365 -0.303917 0
M  V30 1597 H 155.753 1.44672 -1.44676 0
M  V30 1598 H 155.763 3.88501 -1.24625 0
M  V30 1599 H 154.438 3.45492 -2.31534 0
M  V30 1600 H 153.015 3.69536 -0.499722 0
M  V30 1601 N 155.201 0.870884 1.31352 0
M  V30 1602 C 156.448 0.482273 1.96673 0
M  V30 1603 C 156.776 -0.965638 1.68836 0
M  V30 1604 O 156.031 -1.69514 0.977937 0
M  V30 1605 C 156.33 0.687157 3.50732 0
M  V30 1606 C 155.996 2.108 3.9859 0
M  V30 1607 C 154.658 2.49656 4.1137 0
M  V30 1608 C 157.01 3.03459 4.23748 0
M  V30 1609 C 154.338 3.80412 4.46659 0
M  V30 1610 C 156.69 4.3373 4.60501 0
M  V30 1611 C 155.354 4.725 4.71487 0
M  V30 1612 H 154.624 0.176476 0.719679 0
M  V30 1613 H 157.271 1.10405 1.56471 0
M  V30 1614 H 155.576 -0.0177476 3.91796 0
M  V30 1615 H 157.273 0.366284 3.99324 0
M  V30 1616 H 153.863 1.79633 3.8914 0
M  V30 1617 H 158.047 2.74665 4.13368 0
M  V30 1618 H 153.303 4.1021 4.53362 0
M  V30 1619 H 157.477 5.05578 4.78919 0
M  V30 1620 H 155.104 5.73859 4.98588 0
M  V30 1621 N 156.679 -1.44442 0.630414 0
M  V30 1622 C 157.927 -2.01653 0.134351 0
M  V30 1623 C 158.248 -1.49836 -1.24796 0
M  V30 1624 O 157.518 -0.701684 -1.82902 0
M  V30 1625 H 156.098 -0.74554 0.0466769 0
M  V30 1626 H 158.76 -1.76952 0.816955 0
M  V30 1627 H 157.856 -3.11935 0.101498 0
M  V30 1628 N 158.157 -0.370918 -1.53173 0
M  V30 1629 C 159.067 0.480823 -2.2962 0
M  V30 1630 C 160.083 1.08789 -1.35798 0
M  V30 1631 O 161.259 1.09768 -1.68858 0
M  V30 1632 C 158.324 1.60227 -3.07454 0
M  V30 1633 C 157.385 1.0222 -4.16953 0
M  V30 1634 C 156.618 2.0902 -4.91066 0
M  V30 1635 O 156.841 3.30222 -4.65091 0
M  V30 1636 O 155.775 1.71778 -5.76867 0
M  V30 1637 H 159.601 -0.141421 -3.03371 0
M  V30 1638 H 157.186 -0.135146 -1.48787 0
M  V30 1639 H 159.068 2.25417 -3.56041 0
M  V30 1640 H 157.743 2.20982 -2.36535 0
M  V30 1641 H 156.65 0.334064 -3.72605 0
M  V30 1642 H 157.983 0.459131 -4.90054 0
M  V30 1643 N 159.635 1.57281 -0.100228 0
M  V30 1644 C 160.568 2.09976 0.893612 0
M  V30 1645 C 161.546 1.01155 1.27304 0
M  V30 1646 O 162.73 1.28687 1.37739 0
M  V30 1647 C 159.857 2.58098 2.19324 0
M  V30 1648 C 158.903 3.78626 1.96328 0
M  V30 1649 S 159.736 5.21959 1.19662 0
M  V30 1650 C 160.892 5.73435 2.50844 0
M  V30 1651 H 161.125 2.93946 0.44534 0
M  V30 1652 H 158.658 1.53985 0.113167 0
M  V30 1653 H 160.616 2.8648 2.94005 0
M  V30 1654 H 159.277 1.74344 2.61272 0
M  V30 1655 H 158.47 4.10382 2.92579 0
M  V30 1656 H 158.072 3.50763 1.29775 0
M  V30 1657 H 160.364 5.82015 3.46792 0
M  V30 1658 H 161.307 6.7185 2.23659 0
M  V30 1659 H 161.715 5.01395 2.59352 0
M  V30 1660 N 161.113 -0.173488 1.56642 0
M  V30 1661 C 162.06 -1.21482 1.96242 0
M  V30 1662 C 163.03 -1.44104 0.826027 0
M  V30 1663 O 164.215 -1.5688 1.08597 0
M  V30 1664 C 161.355 -2.54964 2.32567 0
M  V30 1665 C 160.468 -2.39739 3.59373 0
M  V30 1666 C 159.603 -3.66072 3.84921 0
M  V30 1667 C 158.642 -3.45771 5.05083 0
M  V30 1668 N 157.779 -4.64169 5.26775 0
M  V30 1669 H 162.619 -0.870123 2.85014 0
M  V30 1670 H 160.156 -0.418245 1.41029 0
M  V30 1671 H 162.114 -3.32758 2.5165 0
M  V30 1672 H 160.744 -2.87433 1.46908 0
M  V30 1673 H 159.796 -1.53131 3.48217 0
M  V30 1674 H 161.108 -2.20683 4.47326 0
M  V30 1675 H 160.262 -4.52303 4.0436 0
M  V30 1676 H 159.001 -3.88105 2.9534 0
M  V30 1677 H 158.006 -2.57927 4.85545 0
M  V30 1678 H 159.231 -3.25163 5.96193 0
M  V30 1679 H 157.177 -4.86425 4.40144 0
M  V30 1680 H 157.094 -4.48019 6.08946 0
M  V30 1681 H 158.362 -5.51689 5.5069 0
M  V30 1682 N 162.591 -1.51276 -0.441967 0
M  V30 1683 C 163.501 -1.75092 -1.56141 0
M  V30 1684 C 164.517 -0.634963 -1.62001 0
M  V30 1685 O 165.693 -0.916686 -1.79329 0
M  V30 1686 C 162.758 -1.86666 -2.92158 0
M  V30 1687 C 161.819 -3.10506 -2.96453 0
M  V30 1688 C 161.052 -3.21519 -4.25982 0
M  V30 1689 O 161.275 -2.38586 -5.18105 0
M  V30 1690 O 160.209 -4.14465 -4.36466 0
M  V30 1691 H 164.035 -2.70044 -1.38961 0
M  V30 1692 H 161.62 -1.35722 -0.624499 0
M  V30 1693 H 163.502 -1.96292 -3.72891 0
M  V30 1694 H 162.177 -0.949014 -3.09476 0
M  V30 1695 H 161.084 -3.06363 -2.14692 0
M  V30 1696 H 162.417 -4.01945 -2.84079 0
M  V30 1697 O 164.108 0.587699 -1.50427 0
M  V30 1698 H 164.799 1.24259 -1.48592 0
M  V30 END ATOM
M  V30 BEGIN BOND
M  V30 END BOND
M  V30 END CTAB
M  END
$$$$
