drugbank_drug|DB00013 DB00013 sequence
 OpenBabel12092119113D

  0  0  0     0  0            999 V3000
M  V30 BEGIN CTAB
M  V30 COUNTS 4334 4389 0 0 0
M  V30 BEGIN ATOM
M  V30 1 H -0.908 1.98254 -0.117106 0
M  V30 2 N 0 1.576 0 0
M  V30 3 C 0.947 2.08422 0.991413 0
M  V30 4 C 1.917 0.979638 1.34135 0
M  V30 5 O 3.102 1.25206 1.43972 0
M  V30 6 C 0.242 2.5922 2.27813 0
M  V30 7 C -0.645 3.8358 1.98722 0
M  V30 8 C -1.51 4.2288 3.21475 0
M  V30 9 C -2.471 5.40076 2.8807 0
M  V30 10 N -3.334 5.74669 4.0336 0
M  V30 11 H 1.506 2.9286 0.55109 0
M  V30 12 H -0.957 1.44776 0.260458 0
M  V30 13 H 1.001 2.86751 3.03034 0
M  V30 14 H -0.369 1.77656 2.69514 0
M  V30 15 H -1.317 3.62957 1.13869 0
M  V30 16 H -0.005 4.689 1.701 0
M  V30 17 H -0.851 4.51692 4.05042 0
M  V30 18 H -2.112 3.36268 3.53235 0
M  V30 19 H -3.107 5.10987 2.02911 0
M  V30 20 H -1.882 6.28364 2.57558 0
M  V30 21 H -3.936 4.91016 4.35017 0
M  V30 22 H -4.019 6.54563 3.78263 0
M  V30 23 H -2.751 6.08074 4.87716 0
M  V30 24 N 1.4781 -0.272755 1.55222 0
M  V30 25 C 2.8891 -0.84378 1.66545 0
M  V30 26 C 3.2401 -1.87035 0.592641 0
M  V30 27 O 2.3651 -2.14761 -0.265818 0
M  V30 28 C 2.9601 -1.53723 3.01918 0
M  V30 29 C 1.5191 -2.05628 3.15268 0
M  V30 30 C 0.6661 -0.898424 2.62343 0
M  V30 31 H 3.6171 -0.0490998 1.58624 0
M  V30 32 H 3.6381 -2.40421 2.94921 0
M  V30 33 H 3.1501 -0.78983 3.79978 0
M  V30 34 H 1.2511 -2.83329 2.41983 0
M  V30 35 H 1.3641 -2.27142 4.21833 0
M  V30 36 H -0.2719 -1.29186 2.19506 0
M  V30 37 H 0.5111 -0.164528 3.42906 0
M  V30 38 N 2.9562 -1.48159 -0.537278 0
M  V30 39 C 4.1812 -1.59707 -1.32319 0
M  V30 40 C 4.6062 -0.254859 -1.86365 0
M  V30 41 O 3.9642 0.772378 -1.64024 0
M  V30 42 C 4.0122 -2.6412 -2.45505 0
M  V30 43 O 3.1162 -2.20774 -3.48328 0
M  V30 44 H 2.4572 -0.535791 -0.392204 0
M  V30 45 H 4.9872 -1.94092 -0.647268 0
M  V30 46 H 4.9972 -2.85166 -2.91795 0
M  V30 47 H 3.6722 -3.61567 -2.05528 0
M  V30 48 H 2.2492 -2.09911 -3.08207 0
M  V30 49 N 4.4343 0.785586 -1.36625 0
M  V30 50 C 5.6593 1.57963 -1.34397 0
M  V30 51 C 6.0843 1.87964 0.071526 0
M  V30 52 O 5.4423 1.48182 1.0446 0
M  V30 53 C 5.4903 2.87511 -2.17646 0
M  V30 54 O 4.5943 3.81281 -1.57158 0
M  V30 55 H 3.9353 0.479014 -0.459828 0
M  V30 56 H 6.4653 0.973411 -1.79961 0
M  V30 57 H 6.4753 3.36745 -2.30362 0
M  V30 58 H 5.1503 2.65002 -3.20541 0
M  V30 59 H 3.7273 3.39885 -1.53403 0
M  V30 60 N 5.9124 1.20967 1.01018 0
M  V30 61 C 7.3234 1.02319 1.56165 0
M  V30 62 C 7.6744 -0.418546 1.91684 0
M  V30 63 O 6.7994 -1.30096 1.72928 0
M  V30 64 C 7.3944 1.85109 2.8376 0
M  V30 65 C 5.9534 1.70809 3.35412 0
M  V30 66 C 5.1004 1.82643 2.08655 0
M  V30 67 H 8.0514 1.35065 0.833255 0
M  V30 68 H 8.0724 1.35827 3.55431 0
M  V30 69 H 7.5844 2.90035 2.57878 0
M  V30 70 H 5.6854 0.685464 3.66241 0
M  V30 71 H 5.7984 2.52467 4.07182 0
M  V30 72 H 4.1624 1.25896 2.21409 0
M  V30 73 H 4.9454 2.89066 1.85191 0
M  V30 74 N 7.3905 -1.2043 1.01659 0
M  V30 75 C 8.8015 -1.71517 0.737482 0
M  V30 76 C 9.1525 -1.81547 -0.743973 0
M  V30 77 O 8.2775 -1.47803 -1.58061 0
M  V30 78 C 8.8725 -3.11515 1.33206 0
M  V30 79 C 7.4315 -3.59912 1.10183 0
M  V30 80 C 6.5785 -2.37116 1.43776 0
M  V30 81 H 9.5295 -1.05444 1.18606 0
M  V30 82 H 9.5505 -3.73575 0.722636 0
M  V30 83 H 9.0625 -3.04182 2.41028 0
M  V30 84 H 7.1635 -3.72577 0.0412756 0
M  V30 85 H 7.2765 -4.44731 1.78188 0
M  V30 86 H 5.6405 -2.39857 0.856778 0
M  V30 87 H 6.4235 -2.32424 2.52654 0
M  V30 88 N 8.8686 -0.792821 -1.36206 0
M  V30 89 C 9.7786 -0.194808 -2.3379 0
M  V30 90 C 10.7946 0.654869 -1.61206 0
M  V30 91 O 11.9706 0.569856 -1.9317 0
M  V30 92 C 9.0356 0.657721 -3.40404 0
M  V30 93 C 8.0966 -0.210849 -4.28782 0
M  V30 94 C 7.3296 0.601086 -5.30304 0
M  V30 95 O 7.5526 1.83682 -5.40016 0
M  V30 96 O 6.4866 -0.000808277 -6.019 0
M  V30 97 H 10.3126 -1.00172 -2.86704 0
M  V30 98 H 7.8976 -0.554341 -1.38735 0
M  V30 99 H 9.7796 1.14375 -4.05581 0
M  V30 100 H 8.4546 1.44247 -2.89784 0
M  V30 101 H 7.3616 -0.743714 -3.66633 0
M  V30 102 H 8.6946 -0.959195 -4.82763 0
M  V30 103 N 10.3467 1.47872 -0.545128 0
M  V30 104 C 11.2567 2.33633 0.212746 0
M  V30 105 C 12.2727 1.4744 0.923983 0
M  V30 106 O 13.4487 1.80393 0.895572 0
M  V30 107 C 10.5137 3.23884 1.23693 0
M  V30 108 C 9.5747 4.25961 0.534417 0
M  V30 109 C 8.8077 5.11899 1.5098 0
M  V30 110 O 9.0307 5.00077 2.7437 0
M  V30 111 O 7.9647 5.92831 1.0409 0
M  V30 112 H 11.7907 2.99714 -0.490416 0
M  V30 113 H 9.3757 1.46235 -0.305871 0
M  V30 114 H 11.2577 3.79666 1.82843 0
M  V30 115 H 9.9327 2.60446 1.92222 0
M  V30 116 H 8.8397 3.73972 -0.0979679 0
M  V30 117 H 10.1727 4.92079 -0.109213 0
M  V30 118 N 11.8248 0.280983 1.55075 0
M  V30 119 C 12.7548 -0.597469 2.25727 0
M  V30 120 C 13.7358 -1.15417 1.24952 0
M  V30 121 O 14.9208 -1.18722 1.53684 0
M  V30 122 C 12.0508 -1.7789 2.98283 0
M  V30 123 C 11.0048 -1.35347 4.06036 0
M  V30 124 C 10.3308 -2.61846 4.66198 0
M  V30 125 C 11.6308 -0.499354 5.19907 0
M  V30 126 H 13.3248 -0.00824265 2.99399 0
M  V30 127 H 10.8708 -0.0025244 1.44 0
M  V30 128 H 12.8238 -2.39937 3.46422 0
M  V30 129 H 11.5478 -2.39405 2.22155 0
M  V30 130 H 10.2068 -0.756156 3.58717 0
M  V30 131 H 9.8548 -3.21632 3.86732 0
M  V30 132 H 9.5548 -2.3409 5.38958 0
M  V30 133 H 11.0788 -3.24732 5.1709 0
M  V30 134 H 12.4928 -1.02498 5.64063 0
M  V30 135 H 10.8898 -0.316424 5.99265 0
M  V30 136 H 11.9598 0.480459 4.82514 0
M  V30 137 N 13.3029 -1.57598 0.00835791 0
M  V30 138 C 14.2499 -2.08945 -0.980346 0
M  V30 139 C 15.2199 -0.986738 -1.33614 0
M  V30 140 O 16.4049 -1.25968 -1.43306 0
M  V30 141 C 13.5449 -2.60425 -2.26435 0
M  V30 142 C 12.6579 -3.84628 -1.96685 0
M  V30 143 C 11.7929 -4.24579 -3.19228 0
M  V30 144 C 10.8319 -5.41596 -2.85202 0
M  V30 145 N 9.9689 -5.768 -4.00307 0
M  V30 146 H 14.8089 -2.93148 -0.535551 0
M  V30 147 H 12.3459 -1.44912 -0.252776 0
M  V30 148 H 14.3039 -2.88354 -3.01509 0
M  V30 149 H 12.9339 -1.79083 -2.68568 0
M  V30 150 H 11.9859 -3.63556 -1.11942 0
M  V30 151 H 13.2979 -4.69796 -1.67611 0
M  V30 152 H 12.4519 -4.53834 -4.02641 0
M  V30 153 H 11.1909 -3.38137 -3.51447 0
M  V30 154 H 10.1959 -5.12056 -2.00198 0
M  V30 155 H 11.4209 -6.29721 -2.54222 0
M  V30 156 H 9.3669 -4.93316 -4.32407 0
M  V30 157 H 9.2839 -6.5656 -3.74786 0
M  V30 158 H 10.5519 -6.10652 -4.84484 0
M  V30 159 N 14.781 0.264519 -1.55364 0
M  V30 160 C 16.028 0.994986 -1.7637 0
M  V30 161 C 16.356 1.85976 -0.5695 0
M  V30 162 O 15.611 1.90509 0.44776 0
M  V30 163 C 15.91 1.9004 -3.02687 0
M  V30 164 C 15.576 1.19243 -4.34847 0
M  V30 165 C 14.238 0.996709 -4.70764 0
M  V30 166 C 16.59 0.689296 -5.16622 0
M  V30 167 C 13.918 0.285261 -5.86006 0
M  V30 168 C 16.27 -0.00860079 -6.32599 0
M  V30 169 C 14.934 -0.215963 -6.67151 0
M  V30 170 H 14.204 0.364091 -0.645383 0
M  V30 171 H 16.851 0.266543 -1.89636 0
M  V30 172 H 15.156 2.69533 -2.84357 0
M  V30 173 H 16.853 2.46695 -3.16137 0
M  V30 174 H 13.443 1.3549 -4.06621 0
M  V30 175 H 17.627 0.828108 -4.89342 0
M  V30 176 H 12.883 0.113961 -6.11294 0
M  V30 177 H 17.057 -0.406186 -6.95214 0
M  V30 178 H 14.684 -0.769217 -7.56298 0
M  V30 179 N 16.2591 1.48442 0.529413 0
M  V30 180 C 17.1911 1.59095 1.64989 0
M  V30 181 C 18.2041 0.475212 1.5571 0
M  V30 182 O 19.3931 0.746081 1.6216 0
M  V30 183 C 16.4931 1.50518 3.0364 0
M  V30 184 C 15.6661 2.77142 3.38395 0
M  V30 185 C 14.7251 2.62012 4.56329 0
M  V30 186 O 13.7511 3.35898 4.59522 0
M  V30 187 N 14.9531 1.71667 5.54536 0
M  V30 188 H 17.7181 2.55723 1.56287 0
M  V30 189 H 15.2791 1.45173 0.716697 0
M  V30 190 H 17.2711 1.38091 3.80412 0
M  V30 191 H 15.8411 0.618627 3.06418 0
M  V30 192 H 15.0611 3.0413 2.50796 0
M  V30 193 H 16.3491 3.61146 3.58401 0
M  V30 194 H 15.7471 1.10841 5.54735 0
M  V30 195 H 14.3041 1.65178 6.30523 0
M  V30 196 N 17.7372 -0.778329 1.37039 0
M  V30 197 C 18.9772 -1.54973 1.33276 0
M  V30 198 C 19.3412 -1.91816 -0.0839376 0
M  V30 199 O 20.5422 -2.6767 -0.246228 0
M  V30 200 C 18.8132 -2.78517 2.23971 0
M  V30 201 S 20.3722 -3.6865 2.37997 0
M  V30 202 H 17.1902 -0.530639 0.473226 0
M  V30 203 H 19.7922 -0.915806 1.72723 0
M  V30 204 H 18.4962 -2.4952 3.25835 0
M  V30 205 H 18.0272 -3.46875 1.85584 0
M  V30 206 H 20.0422 -4.70182 1.58567 0
M  V30 207 N 19.2153 -1.21501 -1.00376 0
M  V30 208 C 20.4633 -1.03095 -1.73827 0
M  V30 209 C 20.7843 0.436341 -1.90055 0
M  V30 210 O 20.0543 1.31466 -1.45236 0
M  V30 211 H 18.6343 -0.378487 -0.644016 0
M  V30 212 H 21.2963 -1.52831 -1.20949 0
M  V30 213 H 20.3923 -1.49991 -2.73695 0
M  V30 214 N 20.6934 1.19889 -1.02296 0
M  V30 215 C 21.6254 2.22334 -0.556787 0
M  V30 216 C 22.6384 1.58674 0.364199 0
M  V30 217 O 23.8274 1.77768 0.161533 0
M  V30 218 C 20.9274 3.38257 0.208694 0
M  V30 219 C 20.1004 4.31504 -0.71577 0
M  V30 220 C 19.1594 5.262 0.00325597 0
M  V30 221 O 18.1854 5.65798 -0.621357 0
M  V30 222 N 19.3874 5.66303 1.27599 0
M  V30 223 H 22.1524 2.62957 -1.43784 0
M  V30 224 H 19.7134 1.34495 -0.901261 0
M  V30 225 H 21.7054 3.98616 0.699111 0
M  V30 226 H 20.2754 2.96472 0.991102 0
M  V30 227 H 19.4954 3.69016 -1.38638 0
M  V30 228 H 20.7834 4.9072 -1.34428 0
M  V30 229 H 20.1814 5.36155 1.80429 0
M  V30 230 H 18.7384 6.28942 1.71102 0
M  V30 231 N 22.1715 0.800033 1.35784 0
M  V30 232 C 23.1185 0.203848 2.29898 0
M  V30 233 C 24.0885 -0.658375 1.52495 0
M  V30 234 O 25.2735 -0.604832 1.8096 0
M  V30 235 C 22.4135 -0.64688 3.38983 0
M  V30 236 C 21.5265 0.235054 4.3136 0
M  V30 237 C 20.6615 -0.623054 5.27533 0
M  V30 238 C 19.7005 0.259682 6.11549 0
M  V30 239 N 18.8375 -0.558019 6.99879 0
M  V30 240 H 23.6775 1.01186 2.80295 0
M  V30 241 H 21.2145 0.51053 1.37957 0
M  V30 242 H 23.1725 -1.15521 4.00887 0
M  V30 243 H 21.8025 -1.42021 2.89879 0
M  V30 244 H 20.8545 0.861438 3.70518 0
M  V30 245 H 22.1665 0.914768 4.9034 0
M  V30 246 H 21.3205 -1.19678 5.94779 0
M  V30 247 H 20.0595 -1.33636 4.69034 0
M  V30 248 H 19.0645 0.845726 5.43256 0
M  V30 249 H 20.2895 0.970748 6.72126 0
M  V30 250 H 18.2355 -1.25542 6.43875 0
M  V30 251 H 18.1525 0.0637872 7.55973 0
M  V30 252 H 19.4205 -1.11523 7.71481 0
M  V30 253 N 23.6496 -1.47581 0.552962 0
M  V30 254 C 24.8776 -2.06875 0.0320556 0
M  V30 255 C 25.2926 -1.40625 -1.25976 0
M  V30 256 O 24.6496 -0.501349 -1.75479 0
M  V30 257 C 24.7006 -3.61092 -0.17167 0
M  V30 258 O 24.4216 -4.24858 1.06899 0
M  V30 259 C 25.9226 -4.37242 -0.730344 0
M  V30 260 H 23.1426 -0.669561 0.043915 0
M  V30 261 H 25.6866 -1.89646 0.765163 0
M  V30 262 H 23.8416 -3.7785 -0.854894 0
M  V30 263 H 24.2556 -5.17334 0.864059 0
M  V30 264 H 25.7296 -5.45842 -0.822203 0
M  V30 265 H 26.2066 -4.03235 -1.74064 0
M  V30 266 H 26.8126 -4.25219 -0.0829543 0
M  V30 267 N 25.1277 -0.289203 -1.54924 0
M  V30 268 C 26.0577 0.58549 -2.2604 0
M  V30 269 C 27.0387 1.14753 -1.25562 0
M  V30 270 O 28.2237 1.17906 -1.54311 0
M  V30 271 C 25.3537 1.76305 -2.99222 0
M  V30 272 C 24.3077 1.33191 -4.06748 0
M  V30 273 C 23.6337 2.5937 -4.6758 0
M  V30 274 C 24.9337 0.471775 -5.20165 0
M  V30 275 H 26.6277 -0.00763532 -2.99399 0
M  V30 276 H 24.1737 -0.00511229 -1.43999 0
M  V30 277 H 26.1267 2.38097 -3.47689 0
M  V30 278 H 24.8507 2.38223 -2.23422 0
M  V30 279 H 23.5097 0.737121 -3.59113 0
M  V30 280 H 23.1577 3.19576 -3.88433 0
M  V30 281 H 22.8577 2.31228 -5.40192 0
M  V30 282 H 24.3817 3.21985 -5.18804 0
M  V30 283 H 25.7957 0.995056 -5.64599 0
M  V30 284 H 24.1927 0.284639 -5.99425 0
M  V30 285 H 25.2627 -0.506041 -4.82252 0
M  V30 286 N 26.6058 1.57591 -0.0167156 0
M  V30 287 C 28.0218 1.55946 0.339557 0
M  V30 288 C 28.2218 1.02109 1.73713 0
M  V30 289 O 27.2778 0.662303 2.43659 0
M  V30 290 C 28.5908 3.00037 0.199499 0
M  V30 291 C 30.1388 3.11805 0.273193 0
M  V30 292 C 30.6138 4.57713 0.162068 0
M  V30 293 N 32.1048 4.6268 0.219444 0
M  V30 294 C 32.8398 5.73185 0.157054 0
M  V30 295 N 32.3358 6.92786 0.0442936 0
M  V30 296 N 34.1288 5.61707 0.21014 0
M  V30 297 H 26.2798 1.90921 -0.930758 0
M  V30 298 H 28.5428 0.877674 -0.358319 0
M  V30 299 H 28.2488 3.4333 -0.76273 0
M  V30 300 H 28.1228 3.64387 0.974786 0
M  V30 301 H 30.5098 2.68433 1.22587 0
M  V30 302 H 30.5908 2.50201 -0.532256 0
M  V30 303 H 30.2348 5.01763 -0.78714 0
M  V30 304 H 30.1648 5.17283 0.986222 0
M  V30 305 H 32.6558 3.76649 0.307246 0
M  V30 306 H 32.9688 7.728 0.00304069 0
M  V30 307 H 31.3138 6.94999 0.00968457 0
M  V30 308 H 34.5048 4.6716 0.296546 0
M  V30 309 H 34.6778 6.47807 0.158054 0
M  V30 310 N 28.0839 -0.256276 1.55502 0
M  V30 311 C 29.4949 -0.826068 1.67431 0
M  V30 312 C 29.8459 -1.86396 0.612446 0
M  V30 313 O 28.9709 -2.15031 -0.243025 0
M  V30 314 C 29.5659 -1.50512 3.03532 0
M  V30 315 C 28.1249 -2.02273 3.17431 0
M  V30 316 C 27.2719 -0.870548 2.63281 0
M  V30 317 H 30.2229 -0.0322728 1.58667 0
M  V30 318 H 30.2439 -2.37279 2.97454 0
M  V30 319 H 29.7559 -0.749484 3.80794 0
M  V30 320 H 27.8569 -2.80746 2.44974 0
M  V30 321 H 27.9699 -2.22655 4.24219 0
M  V30 322 H 26.3339 -1.26851 2.20864 0
M  V30 323 H 27.1169 -0.128149 3.43061 0
M  V30 324 N 29.562 -1.4872 -0.521534 0
M  V30 325 C 30.978 -1.35028 -0.850855 0
M  V30 326 C 31.178 -0.367712 -1.98116 0
M  V30 327 O 30.234 0.208037 -2.51642 0
M  V30 328 C 31.547 -2.75263 -1.21041 0
M  V30 329 C 33.095 -2.83813 -1.31981 0
M  V30 330 C 33.57 -4.24769 -1.71276 0
M  V30 331 N 35.061 -4.27482 -1.78363 0
M  V30 332 C 35.796 -5.33494 -2.1017 0
M  V30 333 N 35.292 -6.49775 -2.40343 0
M  V30 334 N 37.085 -5.20894 -2.11248 0
M  V30 335 H 29.236 -2.11214 0.22413 0
M  V30 336 H 31.499 -0.947252 0.0376439 0
M  V30 337 H 31.205 -3.48765 -0.453415 0
M  V30 338 H 31.079 -3.09327 -2.15863 0
M  V30 339 H 33.466 -2.10561 -2.06756 0
M  V30 340 H 33.547 -2.53358 -0.352596 0
M  V30 341 H 33.191 -4.9854 -0.970588 0
M  V30 342 H 33.121 -4.52673 -2.69062 0
M  V30 343 H 35.612 -3.43611 -1.57288 0
M  V30 344 H 35.925 -7.26402 -2.63743 0
M  V30 345 H 34.27 -6.53035 -2.37844 0
M  V30 346 H 37.461 -4.29065 -1.87139 0
M  V30 347 H 37.634 -6.03612 -2.35704 0
M  V30 348 N 31.0401 0.771051 -1.3745 0
M  V30 349 C 32.2871 1.52963 -1.32697 0
M  V30 350 C 32.6151 1.94299 0.0883274 0
M  V30 351 O 31.8701 1.64397 1.0617 0
M  V30 352 C 32.1691 2.80676 -2.2126 0
M  V30 353 C 31.8351 2.58389 -3.69521 0
M  V30 354 C 30.4971 2.52019 -4.09927 0
M  V30 355 C 32.8491 2.38469 -4.63446 0
M  V30 356 C 30.1771 2.23721 -5.42371 0
M  V30 357 C 32.5291 2.11694 -5.96128 0
M  V30 358 C 31.1931 2.03769 -6.35637 0
M  V30 359 H 30.4631 0.559732 -0.485573 0
M  V30 360 H 33.1101 0.888083 -1.69662 0
M  V30 361 H 31.4151 3.49392 -1.77291 0
M  V30 362 H 33.1121 3.38557 -2.14895 0
M  V30 363 H 29.7021 2.6421 -3.37478 0
M  V30 364 H 33.8861 2.4238 -4.33089 0
M  V30 365 H 29.1421 2.16081 -5.71943 0
M  V30 366 H 33.3161 1.9528 -6.6846 0
M  V30 367 H 30.9431 1.81606 -7.38189 0
M  V30 368 N 32.5182 1.22032 0.997298 0
M  V30 369 C 33.4652 0.986467 2.08656 0
M  V30 370 C 34.4352 -0.0902671 1.65855 0
M  V30 371 O 35.6202 0.0584294 1.90711 0
M  V30 372 C 32.7602 0.565569 3.40434 0
M  V30 373 C 31.8732 1.71259 3.96604 0
M  V30 374 C 31.0082 1.24011 5.16522 0
M  V30 375 C 30.0472 2.35896 5.64818 0
M  V30 376 N 29.1842 1.89726 6.7598 0
M  V30 377 H 34.0242 1.91892 2.27994 0
M  V30 378 H 31.5612 0.956199 1.11782 0
M  V30 379 H 33.5192 0.302738 4.161 0
M  V30 380 H 32.1492 -0.329879 3.2111 0
M  V30 381 H 31.2012 2.08986 3.17851 0
M  V30 382 H 32.5132 2.55436 4.28432 0
M  V30 383 H 31.6672 0.934395 5.99461 0
M  V30 384 H 30.4062 0.368487 4.86306 0
M  V30 385 H 29.4112 2.67261 4.8047 0
M  V30 386 H 30.6362 3.23567 5.97061 0
M  V30 387 H 28.5822 1.0492 6.47555 0
M  V30 388 H 28.4992 2.67471 7.07103 0
M  V30 389 H 29.7672 1.62211 7.62435 0
M  V30 390 N 33.9963 -1.19345 1.0293 0
M  V30 391 C 35.2453 -1.88363 0.721256 0
M  V30 392 C 35.5583 -1.80514 -0.753254 0
M  V30 393 O 36.7643 -2.44788 -1.17436 0
M  V30 394 C 35.2203 -3.37872 1.23978 0
M  V30 395 C 34.8283 -3.54278 2.74211 0
M  V30 396 C 36.5723 -4.12365 1.00775 0
M  V30 397 C 34.4793 -4.97682 3.19479 0
M  V30 398 H 33.4093 -0.705484 0.266098 0
M  V30 399 H 36.0603 -1.34928 1.24365 0
M  V30 400 H 34.4423 -3.90707 0.6453 0
M  V30 401 H 35.6163 -3.11769 3.39318 0
M  V30 402 H 33.9313 -2.93174 2.95699 0
M  V30 403 H 36.5283 -5.18119 1.32123 0
M  V30 404 H 36.8713 -4.16263 -0.0554308 0
M  V30 405 H 37.4043 -3.65668 1.56625 0
M  V30 406 H 34.1433 -4.98945 4.25128 0
M  V30 407 H 33.6633 -5.4095 2.591 0
M  V30 408 H 35.3423 -5.66337 3.12845 0
M  V30 409 N 35.4744 -0.807222 -1.35358 0
M  V30 410 C 36.7234 -0.384376 -1.98004 0
M  V30 411 C 37.0364 1.0543 -1.64754 0
M  V30 412 O 38.2424 1.58029 -2.20769 0
M  V30 413 C 36.6984 -0.636326 -3.5423 0
M  V30 414 C 36.3064 -2.08759 -3.96388 0
M  V30 415 C 38.0504 -0.278869 -4.23583 0
M  V30 416 C 35.9574 -2.28525 -5.45463 0
M  V30 417 H 34.8874 -0.139986 -0.740891 0
M  V30 418 H 37.5384 -0.991369 -1.54415 0
M  V30 419 H 35.9204 0.0406256 -3.95979 0
M  V30 420 H 37.0944 -2.8024 -3.6579 0
M  V30 421 H 35.4094 -2.40497 -3.39926 0
M  V30 422 H 38.0064 -0.404599 -5.33167 0
M  V30 423 H 38.3494 0.775012 -4.09022 0
M  V30 424 H 38.8824 -0.909764 -3.87257 0
M  V30 425 H 35.6214 -3.32361 -5.64992 0
M  V30 426 H 35.1414 -1.61569 -5.77629 0
M  V30 427 H 36.8204 -2.10109 -6.11934 0
M  V30 428 N 36.9525 1.47285 -0.560781 0
M  V30 429 C 38.2005 2.02064 -0.0379868 0
M  V30 430 C 38.5215 1.43711 1.31803 0
M  V30 431 O 37.7915 0.61362 1.86042 0
M  V30 432 H 36.3715 0.746918 -0.0110531 0
M  V30 433 H 39.0335 1.80648 -0.731598 0
M  V30 434 H 38.1295 3.12064 0.0474463 0
M  V30 435 N 38.4306 0.297415 1.54768 0
M  V30 436 C 39.6786 -0.312295 1.99673 0
M  V30 437 C 39.9996 -1.54686 1.18732 0
M  V30 438 O 39.2696 -1.93854 0.282382 0
M  V30 439 H 37.8496 -0.118381 0.73756 0
M  V30 440 H 40.5116 0.407915 1.90583 0
M  V30 441 H 39.6076 -0.586813 3.06534 0
M  V30 442 N 39.9087 -1.5758 0.0250728 0
M  V30 443 C 40.8187 -2.1343 -0.973905 0
M  V30 444 C 41.8347 -1.08556 -1.35984 0
M  V30 445 O 43.0107 -1.40592 -1.44207 0
M  V30 446 C 40.0757 -2.64703 -2.23904 0
M  V30 447 C 39.1367 -3.84276 -1.91391 0
M  V30 448 C 38.3697 -4.33095 -3.11873 0
M  V30 449 O 38.5927 -3.81107 -4.24398 0
M  V30 450 O 37.5267 -5.24984 -2.94406 0
M  V30 451 H 41.3527 -2.99057 -0.529036 0
M  V30 452 H 38.9377 -1.48118 -0.195288 0
M  V30 453 H 40.8197 -2.97769 -2.98181 0
M  V30 454 H 39.4947 -1.82161 -2.6758 0
M  V30 455 H 38.4017 -3.56143 -1.14511 0
M  V30 456 H 39.7347 -4.67968 -1.52534 0
M  V30 457 N 41.3868 0.248026 -1.55636 0
M  V30 458 C 42.6338 0.976224 -1.77415 0
M  V30 459 C 42.9618 1.85361 -0.589193 0
M  V30 460 O 42.2168 1.90973 0.427529 0
M  V30 461 C 42.5158 1.86819 -3.04686 0
M  V30 462 C 42.1818 1.14625 -4.36087 0
M  V30 463 C 40.8438 0.946723 -4.71795 0
M  V30 464 C 43.1958 0.634463 -5.17324 0
M  V30 465 C 40.5238 0.223091 -5.86276 0
M  V30 466 C 42.8758 -0.0756959 -6.32555 0
M  V30 467 C 41.5398 -0.286711 -6.66884 0
M  V30 468 H 40.8098 0.357226 -0.649208 0
M  V30 469 H 43.4568 0.246415 -1.89908 0
M  V30 470 H 41.7618 2.66502 -2.872 0
M  V30 471 H 43.4588 2.43329 -3.18735 0
M  V30 472 H 40.0488 1.3117 -4.08035 0
M  V30 473 H 44.2328 0.77616 -4.90193 0
M  V30 474 H 39.4888 0.0491185 -6.1138 0
M  V30 475 H 43.6628 -0.479899 -6.94745 0
M  V30 476 H 41.2898 -0.849389 -7.5544 0
M  V30 477 N 42.8649 1.48995 0.513639 0
M  V30 478 C 44.0929 1.61531 1.29288 0
M  V30 479 C 44.5079 0.281801 1.86685 0
M  V30 480 O 43.8649 -0.731111 1.67215 0
M  V30 481 C 43.9159 2.67449 2.43215 0
M  V30 482 O 43.6369 3.95626 1.88179 0
M  V30 483 C 45.1379 2.90575 3.34785 0
M  V30 484 H 42.3579 0.544165 0.392588 0
M  V30 485 H 44.9019 1.9494 0.617956 0
M  V30 486 H 43.0569 2.36853 3.0656 0
M  V30 487 H 43.4709 4.53868 2.62876 0
M  V30 488 H 44.9449 3.68449 4.11035 0
M  V30 489 H 45.4219 2.00011 3.91015 0
M  V30 490 H 46.0279 3.22538 2.77218 0
M  V30 491 N 44.343 -0.763751 1.37857 0
M  V30 492 C 45.571 -1.55293 1.36718 0
M  V30 493 C 45.986 -1.88745 -0.0455434 0
M  V30 494 O 45.343 -1.52039 -1.00947 0
M  V30 495 C 45.394 -2.85831 2.2132 0
M  V30 496 O 45.115 -2.5381 3.57089 0
M  V30 497 C 46.616 -3.80023 2.28249 0
M  V30 498 H 43.836 -0.480841 0.468009 0
M  V30 499 H 46.38 -0.946009 1.81303 0
M  V30 500 H 44.535 -3.42926 1.80223 0
M  V30 501 H 44.949 -3.37459 4.01524 0
M  V30 502 H 46.423 -4.68599 2.91752 0
M  V30 503 H 46.9 -4.1973 1.2932 0
M  V30 504 H 47.506 -3.28855 2.69693 0
M  V30 505 N 45.8211 -1.22559 -0.990812 0
M  V30 506 C 47.0701 -1.04553 -1.72486 0
M  V30 507 C 47.3831 0.419349 -1.91052 0
M  V30 508 O 48.5891 0.719121 -2.61803 0
M  V30 509 C 47.0451 -1.82231 -3.10355 0
M  V30 510 C 46.6531 -3.32981 -2.99713 0
M  V30 511 C 48.3971 -1.7268 -3.87791 0
M  V30 512 C 46.3041 -4.03091 -4.32748 0
M  V30 513 H 45.2341 -0.387614 -0.646739 0
M  V30 514 H 47.8851 -1.46429 -1.10593 0
M  V30 515 H 46.2671 -1.33155 -3.72942 0
M  V30 516 H 47.4411 -3.89466 -2.46278 0
M  V30 517 H 45.7561 -3.43231 -2.35758 0
M  V30 518 H 48.3531 -2.22381 -4.86262 0
M  V30 519 H 48.6961 -0.687607 -4.10582 0
M  V30 520 H 49.2291 -2.1931 -3.31885 0
M  V30 521 H 45.9681 -5.07273 -4.15156 0
M  V30 522 H 45.4881 -3.51394 -4.86089 0
M  V30 523 H 47.1671 -4.08804 -5.01486 0
M  V30 524 N 47.2992 1.18797 -1.03562 0
M  V30 525 C 48.2092 2.25913 -0.632505 0
M  V30 526 C 49.2252 1.70668 0.338882 0
M  V30 527 O 50.4012 2.00453 0.195076 0
M  V30 528 C 47.4662 3.467 0.00350942 0
M  V30 529 C 46.5272 4.17098 -1.01624 0
M  V30 530 C 45.7602 5.32119 -0.410478 0
M  V30 531 O 45.9832 5.64976 0.784725 0
M  V30 532 O 44.9172 5.9107 -1.13667 0
M  V30 533 H 48.7432 2.62648 -1.52478 0
M  V30 534 H 46.3282 1.25781 -0.806195 0
M  V30 535 H 48.2102 4.19878 0.35781 0
M  V30 536 H 46.8852 3.11798 0.869686 0
M  V30 537 H 45.7922 3.4601 -1.42224 0
M  V30 538 H 47.1252 4.55987 -1.85301 0
M  V30 539 N 48.7773 0.814389 1.34928 0
M  V30 540 C 49.7253 0.218424 2.31572 0
M  V30 541 C 50.7193 -0.636128 1.57002 0
M  V30 542 O 51.9253 -0.52842 1.72069 0
M  V30 543 H 48.3003 0.0518799 0.750208 0
M  V30 544 H 50.2713 1.04852 2.79372 0
M  V30 545 C 49.0203 -0.61207 3.4227 0
M  V30 546 H 48.3433 0.0361578 3.99784 0
M  V30 547 H 49.7833 -0.995317 4.12152 0
M  V30 548 C 48.2423 -1.78087 2.85984 0
M  V30 549 O 48.7723 -2.8787 2.80168 0
M  V30 550 N 46.9783 -1.59488 2.42924 0
M  V30 551 H 46.5253 -0.701874 2.47854 0
M  V30 552 H 46.4833 -2.37846 2.05613 0
M  V30 553 N 50.2554 -1.46986 0.568584 0
M  V30 554 C 51.1874 -2.28233 -0.210337 0
M  V30 555 C 52.2004 -1.37682 -0.868767 0
M  V30 556 O 53.3894 -1.62406 -0.740705 0
M  V30 557 C 50.4894 -3.12293 -1.3163 0
M  V30 558 C 49.6624 -4.30878 -0.7525 0
M  V30 559 C 48.7214 -4.96445 -1.74439 0
M  V30 560 O 47.7474 -5.54482 -1.286 0
M  V30 561 N 48.9494 -4.92171 -3.07812 0
M  V30 562 H 51.7144 -2.95723 0.486648 0
M  V30 563 H 49.2754 -1.56742 0.405409 0
M  V30 564 H 51.2674 -3.53022 -1.97883 0
M  V30 565 H 49.8374 -2.46971 -1.91636 0
M  V30 566 H 49.0574 -3.94104 0.0871128 0
M  V30 567 H 50.3454 -5.07558 -0.35536 0
M  V30 568 H 49.7434 -4.46239 -3.47688 0
M  V30 569 H 48.3004 -5.36884 -3.69592 0
M  V30 570 N 51.7335 -0.305618 -1.54608 0
M  V30 571 C 53.1445 0.186098 -1.8577 0
M  V30 572 C 53.4955 1.53058 -1.22751 0
M  V30 573 O 52.6205 2.09888 -0.526893 0
M  V30 574 C 53.2155 0.344449 -3.37044 0
M  V30 575 C 51.7745 0.780384 -3.68221 0
M  V30 576 C 50.9215 -0.108554 -2.77087 0
M  V30 577 H 53.8725 -0.526485 -1.49712 0
M  V30 578 H 53.8935 1.17828 -3.61796 0
M  V30 579 H 53.4055 -0.634235 -3.82883 0
M  V30 580 H 51.5065 1.76945 -3.27904 0
M  V30 581 H 51.6195 0.596572 -4.75371 0
M  V30 582 H 49.9835 0.412931 -2.5133 0
M  V30 583 H 50.7665 -1.08368 -3.25747 0
M  V30 584 N 53.2116 1.57565 -0.0334293 0
M  V30 585 C 54.4576 1.93088 0.639417 0
M  V30 586 C 54.8126 0.910589 1.69488 0
M  V30 587 O 54.1056 -0.0727725 1.91462 0
M  V30 588 C 54.2996 3.33112 1.29504 0
M  V30 589 C 54.1286 4.48667 0.304604 0
M  V30 590 C 52.8986 5.05207 -0.0970777 0
M  V30 591 C 55.0966 5.1239 -0.442845 0
M  V30 592 N 53.0786 6.04286 -1.08223 0
M  V30 593 C 54.4496 6.06609 -1.28161 0
M  V30 594 C 56.5046 4.95352 -0.50308 0
M  V30 595 C 55.2076 6.85622 -2.17519 0
M  V30 596 C 57.2336 5.74978 -1.38401 0
M  V30 597 C 56.5956 6.68816 -2.21054 0
M  V30 598 H 52.6946 0.754335 0.206161 0
M  V30 599 H 55.2786 1.94435 -0.101613 0
M  V30 600 H 53.4496 3.32576 2.00618 0
M  V30 601 H 55.1816 3.55972 1.92525 0
M  V30 602 H 51.9366 4.72782 0.278255 0
M  V30 603 H 52.3606 6.58516 -1.57117 0
M  V30 604 H 57.0026 4.22625 0.121694 0
M  V30 605 H 54.7206 7.57652 -2.81049 0
M  V30 606 H 58.3066 5.63826 -1.43496 0
M  V30 607 H 57.1866 7.29355 -2.88116 0
M  V30 608 N 54.6897 -0.239769 1.55765 0
M  V30 609 C 55.9367 -0.966801 1.7793 0
M  V30 610 C 56.2647 -1.85046 0.599015 0
M  V30 611 O 55.5197 -1.91197 -0.417395 0
M  V30 612 C 55.8187 -1.852 3.05672 0
M  V30 613 C 55.4847 -1.1231 4.36689 0
M  V30 614 C 54.1467 -0.921689 4.72291 0
M  V30 615 C 56.4987 -0.607019 5.17653 0
M  V30 616 C 53.8267 -0.191996 5.86386 0
M  V30 617 C 56.1787 0.109241 6.32506 0
M  V30 618 C 54.8427 0.322073 6.66723 0
M  V30 619 H 54.1127 -0.353778 0.651093 0
M  V30 620 H 56.7597 -0.23634 1.90036 0
M  V30 621 H 55.0647 -2.64975 2.8861 0
M  V30 622 H 56.7617 -2.41635 3.20021 0
M  V30 623 H 53.3517 -1.29004 4.08725 0
M  V30 624 H 57.5357 -0.750153 4.90598 0
M  V30 625 H 52.7917 -0.0166949 6.11398 0
M  V30 626 H 56.9657 0.516737 6.9448 0
M  V30 627 H 54.5927 0.88944 7.54979 0
M  V30 628 N 56.1678 -1.49265 -0.50573 0
M  V30 629 C 57.1308 -1.65075 -1.59006 0
M  V30 630 C 58.1308 -0.522768 -1.52065 0
M  V30 631 O 59.3208 -0.789117 -1.55302 0
M  V30 632 C 56.4528 -1.64369 -2.98656 0
M  V30 633 H 57.6458 -2.61784 -1.46319 0
M  V30 634 H 55.1988 -1.38226 -0.729616 0
M  V30 635 H 55.9338 -0.692272 -3.16825 0
M  V30 636 H 55.7188 -2.46282 -3.05103 0
M  V30 637 H 57.2088 -1.78674 -3.77446 0
M  V30 638 N 57.6459 0.756429 -1.3826 0
M  V30 639 C 58.6089 1.85176 -1.35065 0
M  V30 640 C 59.6089 1.58818 -0.251703 0
M  V30 641 O 60.7989 1.66615 -0.508433 0
M  V30 642 C 57.9309 3.22596 -1.10201 0
M  V30 643 H 59.1239 1.89417 -2.3251 0
M  V30 644 H 56.6769 0.95783 -1.23512 0
M  V30 645 H 57.4119 3.24025 -0.133504 0
M  V30 646 H 57.1969 3.43122 -1.89762 0
M  V30 647 H 58.6869 4.02673 -1.10654 0
M  V30 648 N 59.124 1.23083 0.984299 0
M  V30 649 C 60.373 1.05466 1.71929 0
M  V30 650 C 60.686 -0.409211 1.91272 0
M  V30 651 O 61.892 -0.705226 2.62181 0
M  V30 652 C 60.348 1.83874 3.09384 0
M  V30 653 C 59.956 3.34566 2.97943 0
M  V30 654 C 61.7 1.74734 3.8687 0
M  V30 655 C 59.607 4.05381 4.30605 0
M  V30 656 H 58.537 0.391039 0.644674 0
M  V30 657 H 61.188 1.47013 1.09815 0
M  V30 658 H 59.57 1.35131 3.72231 0
M  V30 659 H 60.744 3.90767 2.44209 0
M  V30 660 H 59.059 3.44476 2.33934 0
M  V30 661 H 61.656 2.24957 4.85076 0
M  V30 662 H 61.999 0.709372 4.10212 0
M  V30 663 H 62.532 2.21067 3.30717 0
M  V30 664 H 59.271 5.09467 4.1246 0
M  V30 665 H 58.791 3.53967 4.84218 0
M  V30 666 H 60.47 4.11458 4.99311 0
M  V30 667 N 60.6021 -1.18246 1.0419 0
M  V30 668 C 61.8321 -1.91916 0.764961 0
M  V30 669 C 62.2401 -1.76485 -0.681898 0
M  V30 670 O 61.5831 -1.09275 -1.47664 0
M  V30 671 C 61.6451 -3.4373 1.05309 0
M  V30 672 C 61.3091 -3.8294 2.4941 0
M  V30 673 C 62.3061 -3.86621 3.47592 0
M  V30 674 C 59.9911 -4.142 2.84155 0
M  V30 675 C 61.9851 -4.21013 4.78568 0
M  V30 676 C 59.6721 -4.48262 4.15337 0
M  V30 677 C 60.6701 -4.51645 5.12353 0
M  V30 678 O 60.3581 -4.84911 6.41183 0
M  V30 679 H 60.0901 -0.61606 0.278292 0
M  V30 680 H 62.6441 -1.50947 1.39299 0
M  V30 681 H 60.8741 -3.84946 0.367933 0
M  V30 682 H 62.5631 -3.9865 0.763752 0
M  V30 683 H 63.3291 -3.62607 3.22089 0
M  V30 684 H 59.2081 -4.10743 2.09311 0
M  V30 685 H 62.7521 -4.23568 5.54289 0
M  V30 686 H 58.6491 -4.71737 4.40607 0
M  V30 687 H 59.4171 -5.02809 6.45852 0
M  V30 688 N 62.0802 -0.821533 -1.34494 0
M  V30 689 C 63.4962 -0.507117 -1.51329 0
M  V30 690 C 63.6962 0.968964 -1.76673 0
M  V30 691 O 62.7522 1.75348 -1.81685 0
M  V30 692 C 64.0652 -1.36544 -2.67911 0
M  V30 693 C 65.6132 -1.36242 -2.81793 0
M  V30 694 C 66.0882 -2.2052 -4.01416 0
M  V30 695 N 67.5792 -2.18136 -4.08621 0
M  V30 696 C 68.3142 -2.80095 -5.00334 0
M  V30 697 N 67.8102 -3.51039 -5.9728 0
M  V30 698 N 69.6032 -2.69656 -4.93196 0
M  V30 699 H 61.7542 -1.77729 -1.16302 0
M  V30 700 H 64.0172 -0.757291 -0.570276 0
M  V30 701 H 63.7232 -2.41361 -2.55808 0
M  V30 702 H 63.5972 -1.02917 -3.62888 0
M  V30 703 H 65.9842 -0.322041 -2.93338 0
M  V30 704 H 66.0652 -1.73866 -1.87628 0
M  V30 705 H 65.7092 -3.24607 -3.90631 0
M  V30 706 H 65.6392 -1.80247 -4.94791 0
M  V30 707 H 68.1302 -1.6653 -3.39229 0
M  V30 708 H 68.4432 -3.95565 -6.63889 0
M  V30 709 H 66.7882 -3.55145 -5.97409 0
M  V30 710 H 69.9792 -2.13808 -4.16418 0
M  V30 711 H 70.1522 -3.1823 -5.64476 0
M  V30 712 N 63.5583 1.46682 -0.576371 0
M  V30 713 C 64.9743 1.57822 -0.237562 0
M  V30 714 C 65.1743 1.57237 1.26011 0
M  V30 715 O 64.2303 1.48596 2.04146 0
M  V30 716 C 65.5433 2.87499 -0.881168 0
M  V30 717 C 67.0913 3.01119 -0.85417 0
M  V30 718 C 67.5663 4.33524 -1.4772 0
M  V30 719 N 69.0573 4.40207 -1.44125 0
M  V30 720 C 69.7923 5.4126 -1.89276 0
M  V30 721 N 69.2883 6.49021 -2.42371 0
M  V30 722 N 71.0813 5.32422 -1.80231 0
M  V30 723 H 63.2323 1.45306 -1.54919 0
M  V30 724 H 65.4953 0.692733 -0.647167 0
M  V30 725 H 65.2013 2.9372 -1.93447 0
M  V30 726 H 65.0753 3.75224 -0.385592 0
M  V30 727 H 67.4623 2.94485 0.190491 0
M  V30 728 H 67.5433 2.14887 -1.3877 0
M  V30 729 H 67.1873 4.40916 -2.52103 0
M  V30 730 H 67.1173 5.1852 -0.918947 0
M  V30 731 H 69.6083 3.62931 -1.05307 0
M  V30 732 H 69.9213 7.2233 -2.74698 0
M  V30 733 H 68.2663 6.49858 -2.46393 0
M  V30 734 H 71.4573 4.47137 -1.38514 0
M  V30 735 H 71.6303 6.11034 -2.15735 0
M  V30 736 N 65.0364 0.313813 1.54444 0
M  V30 737 C 65.9864 -0.571898 2.20711 0
M  V30 738 C 66.9704 -1.08913 1.18435 0
M  V30 739 O 68.1624 -1.02777 1.44104 0
M  V30 740 C 65.2914 -1.7371 2.96108 0
M  V30 741 C 64.3774 -1.23522 4.05713 0
M  V30 742 N 64.7684 -0.452288 5.03774 0
M  V30 743 C 63.0664 -1.51482 4.19487 0
M  V30 744 C 63.7674 -0.183438 5.81411 0
M  V30 745 N 62.7434 -0.766845 5.38164 0
M  V30 746 H 66.5454 0.0336802 2.93881 0
M  V30 747 H 64.0594 0.119192 1.61962 0
M  V30 748 H 66.0564 -2.38329 3.4206 0
M  V30 749 H 64.7164 -2.34625 2.24458 0
M  V30 750 H 65.7274 -0.0960131 5.17811 0
M  V30 751 H 62.4044 -2.13053 3.59047 0
M  V30 752 H 63.7944 0.446216 6.70417 0
M  V30 753 N 66.5145 -1.57545 0.0417849 0
M  V30 754 C 67.9305 -1.56467 -0.314704 0
M  V30 755 C 68.1305 -1.04859 -1.72066 0
M  V30 756 O 67.1865 -0.700983 -2.42575 0
M  V30 757 C 68.4995 -3.00317 -0.15174 0
M  V30 758 C 70.0475 -3.12201 -0.223553 0
M  V30 759 C 70.5225 -4.57913 -0.0892295 0
M  V30 760 N 72.0135 -4.6297 -0.145808 0
M  V30 761 C 72.7485 -5.73362 -0.0658459 0
M  V30 762 N 72.2445 -6.92769 0.0659282 0
M  V30 763 N 74.0375 -5.6197 -0.12075 0
M  V30 764 H 66.1885 -1.89416 0.961014 0
M  V30 765 H 68.4515 -0.871862 0.372237 0
M  V30 766 H 68.1575 -3.42073 0.817254 0
M  V30 767 H 68.0315 -3.65892 -0.916692 0
M  V30 768 H 70.4185 -2.70349 -1.18301 0
M  V30 769 H 70.4995 -2.49323 0.571994 0
M  V30 770 H 70.1435 -5.00448 0.866867 0
M  V30 771 H 70.0735 -5.18786 -0.903802 0
M  V30 772 H 72.5645 -3.7709 -0.247286 0
M  V30 773 H 72.8775 -7.72707 0.119905 0
M  V30 774 H 71.2225 -6.94927 0.100885 0
M  V30 775 H 74.4135 -4.67572 -0.222187 0
M  V30 776 H 74.5865 -6.47977 -0.0549735 0
M  V30 777 N 67.9926 0.231505 -1.5589 0
M  V30 778 C 69.2406 0.955461 -1.78088 0
M  V30 779 C 69.5616 1.85262 -0.608533 0
M  V30 780 O 68.8316 1.92277 0.375035 0
M  V30 781 H 67.4116 0.355787 -0.656829 0
M  V30 782 H 70.0736 0.245751 -1.93344 0
M  V30 783 H 69.1696 1.56814 -2.69844 0
M  V30 784 N 69.4707 1.49531 0.497807 0
M  V30 785 C 70.7187 1.58865 1.24926 0
M  V30 786 C 71.0397 0.278721 1.92998 0
M  V30 787 O 70.3097 -0.702144 1.82885 0
M  V30 788 H 68.8897 0.585343 0.464094 0
M  V30 789 H 71.5517 1.86174 0.57666 0
M  V30 790 H 70.6477 2.38633 2.01149 0
M  V30 791 N 70.9488 -0.749086 1.3866 0
M  V30 792 C 72.1738 -1.54344 1.38538 0
M  V30 793 C 72.5988 -1.88088 -0.0216655 0
M  V30 794 O 71.9568 -1.50899 -1.00494 0
M  V30 795 C 72.0048 -2.8164 2.25192 0
M  V30 796 O 71.1088 -3.7698 1.67212 0
M  V30 797 H 70.4498 -0.466654 0.472367 0
M  V30 798 H 72.9798 -0.925355 1.82478 0
M  V30 799 H 72.9898 -3.30519 2.3921 0
M  V30 800 H 71.6648 -2.56411 3.27454 0
M  V30 801 H 70.2418 -3.35699 1.6236 0
M  V30 802 N 72.4269 -1.23603 -0.977757 0
M  V30 803 C 73.6729 -1.07129 -1.72195 0
M  V30 804 C 74.0059 0.390501 -1.90233 0
M  V30 805 O 73.2809 1.28902 -1.45653 0
M  V30 806 C 73.5639 -1.80031 -3.11867 0
M  V30 807 C 73.4169 -3.33899 -3.01383 0
M  V30 808 C 74.7359 -1.56492 -4.11337 0
M  V30 809 H 71.8549 -0.390571 -0.624999 0
M  V30 810 H 74.4969 -1.52142 -1.13811 0
M  V30 811 H 72.6469 -1.41768 -3.6171 0
M  V30 812 H 74.3189 -3.81699 -2.59043 0
M  V30 813 H 72.5619 -3.62796 -2.37827 0
M  V30 814 H 73.2329 -3.801 -4.00285 0
M  V30 815 H 75.7089 -1.89757 -3.70313 0
M  V30 816 H 74.5849 -2.09973 -5.07151 0
M  V30 817 H 74.8459 -0.500874 -4.39254 0
M  V30 818 N 73.905 1.17692 -1.04816 0
M  V30 819 C 75.133 1.91786 -0.776254 0
M  V30 820 C 75.548 1.76604 0.667577 0
M  V30 821 O 74.905 1.10067 1.45573 0
M  V30 822 C 74.956 3.42967 -1.14263 0
M  V30 823 O 74.677 3.57678 -2.52978 0
M  V30 824 C 76.178 4.34144 -0.896311 0
M  V30 825 H 73.398 0.608624 -0.282519 0
M  V30 826 H 75.942 1.49268 -1.39783 0
M  V30 827 H 74.097 3.83245 -0.565874 0
M  V30 828 H 74.511 4.51319 -2.67229 0
M  V30 829 H 75.985 5.38744 -1.20244 0
M  V30 830 H 76.462 4.38876 0.168636 0
M  V30 831 H 77.068 3.99574 -1.45672 0
M  V30 832 N 75.3831 0.828654 1.34056 0
M  V30 833 C 76.6131 0.431993 2.02033 0
M  V30 834 C 77.0211 -0.96844 1.62536 0
M  V30 835 O 76.3641 -1.6391 0.829408 0
M  V30 836 C 76.4261 0.461224 3.56529 0
M  V30 837 C 76.0901 1.81599 4.1937 0
M  V30 838 C 77.0871 2.7777 4.39477 0
M  V30 839 C 74.7721 2.10604 4.56017 0
M  V30 840 C 76.7661 4.01115 4.95364 0
M  V30 841 C 74.4531 3.34207 5.11614 0
M  V30 842 C 75.4511 4.2928 5.31232 0
M  V30 843 O 75.1391 5.50699 5.8565 0
M  V30 844 H 74.8711 0.170943 0.654029 0
M  V30 845 H 77.4251 1.11988 1.72185 0
M  V30 846 H 75.6551 -0.283388 3.8566 0
M  V30 847 H 77.3441 0.0838149 4.05813 0
M  V30 848 H 78.1101 2.56659 4.11523 0
M  V30 849 H 73.9891 1.37402 4.40047 0
M  V30 850 H 77.5331 4.75333 5.10592 0
M  V30 851 H 73.4301 3.55179 5.38997 0
M  V30 852 H 74.1981 5.52298 6.04077 0
M  V30 853 N 76.8612 -1.46375 0.584142 0
M  V30 854 C 78.1072 -2.02678 0.0703716 0
M  V30 855 C 78.4402 -1.4545 -1.28678 0
M  V30 856 O 77.7152 -0.62014 -1.84349 0
M  V30 857 C 77.9982 -3.60099 0.00614674 0
M  V30 858 C 77.8512 -4.27709 1.3923 0
M  V30 859 C 79.1702 -4.34598 -0.693742 0
M  V30 860 H 76.2892 -0.736504 0.027047 0
M  V30 861 H 78.9312 -1.74501 0.751615 0
M  V30 862 H 77.0812 -3.84236 -0.574009 0
M  V30 863 H 78.7532 -4.14832 2.01773 0
M  V30 864 H 76.9962 -3.87016 1.95962 0
M  V30 865 H 77.6672 -5.36478 1.29982 0
M  V30 866 H 80.1432 -4.15615 -0.200869 0
M  V30 867 H 79.0192 -5.44318 -0.707714 0
M  V30 868 H 79.2802 -4.05759 -1.75533 0
M  V30 869 N 78.3393 -0.321999 -1.54275 0
M  V30 870 C 79.5793 0.281657 -2.0245 0
M  V30 871 C 79.9433 1.49468 -1.20513 0
M  V30 872 O 81.1443 2.17109 -1.58484 0
M  V30 873 C 79.4153 0.609014 -3.52173 0
M  V30 874 S 80.9743 1.19255 -4.22284 0
M  V30 875 H 77.7923 0.0852825 -0.705867 0
M  V30 876 H 80.3943 -0.454758 -1.90137 0
M  V30 877 H 79.0983 -0.281982 -4.0943 0
M  V30 878 H 78.6293 1.37567 -3.68563 0
M  V30 879 H 80.6443 2.47944 -4.29812 0
M  V30 880 N 79.8174 1.5752 -0.0501392 0
M  V30 881 C 81.0654 1.9227 0.622642 0
M  V30 882 C 81.3864 0.929083 1.71444 0
M  V30 883 O 80.6564 -0.0262186 1.95882 0
M  V30 884 H 79.2364 0.709739 0.232981 0
M  V30 885 H 81.8984 1.94628 -0.102898 0
M  V30 886 H 80.9944 2.93479 1.06191 0
M  V30 887 N 81.2955 -0.223234 1.56011 0
M  V30 888 C 82.5435 -0.946003 1.78592 0
M  V30 889 C 82.8645 -1.84936 0.618349 0
M  V30 890 O 82.1345 -1.92473 -0.364833 0
M  V30 891 H 80.7145 -0.352298 0.658707 0
M  V30 892 H 83.3765 -0.235494 1.93472 0
M  V30 893 H 82.4725 -1.55381 2.70672 0
M  V30 894 N 82.7736 -1.49793 -0.48987 0
M  V30 895 C 83.9986 -1.63836 -1.27172 0
M  V30 896 C 84.4236 -0.31402 -1.8546 0
M  V30 897 O 83.7816 0.719803 -1.66399 0
M  V30 898 C 83.8296 -2.71797 -2.36978 0
M  V30 899 O 82.9336 -2.31744 -3.41128 0
M  V30 900 H 82.2746 -0.547997 -0.37496 0
M  V30 901 H 84.8046 -1.96053 -0.585191 0
M  V30 902 H 84.8146 -2.94305 -2.82575 0
M  V30 903 H 83.4896 -3.67923 -1.93921 0
M  V30 904 H 82.0666 -2.1961 -3.01373 0
M  V30 905 N 84.2517 0.741722 -1.39055 0
M  V30 906 C 85.1817 1.869 -1.39966 0
M  V30 907 C 86.1627 1.6804 -0.26392 0
M  V30 908 O 87.3477 1.88458 -0.468755 0
M  V30 909 C 84.4777 3.24572 -1.23574 0
M  V30 910 C 83.4317 3.58056 -2.34477 0
M  V30 911 C 82.7577 4.94593 -2.0318 0
M  V30 912 C 84.0577 3.61716 -3.76774 0
M  V30 913 H 85.7517 1.86395 -2.34302 0
M  V30 914 H 83.2977 0.895361 -1.1278 0
M  V30 915 H 85.2507 4.031 -1.22834 0
M  V30 916 H 83.9747 3.25587 -0.257045 0
M  V30 917 H 82.6337 2.81854 -2.34423 0
M  V30 918 H 82.2817 4.92181 -1.03765 0
M  V30 919 H 81.9817 5.17964 -2.77465 0
M  V30 920 H 83.5057 5.75486 -2.04079 0
M  V30 921 H 84.9197 4.30335 -3.78794 0
M  V30 922 H 83.3167 3.96603 -4.50362 0
M  V30 923 H 84.3867 2.61672 -4.08235 0
M  V30 924 N 85.7298 1.2412 0.971189 0
M  V30 925 C 86.6628 0.97373 2.06382 0
M  V30 926 C 87.6408 -0.0912662 1.62344 0
M  V30 927 O 88.8248 0.0449365 1.88446 0
M  V30 928 C 85.9518 0.468746 3.35441 0
M  V30 929 C 84.9978 1.52176 3.98428 0
M  V30 930 S 85.8308 3.10203 4.36503 0
M  V30 931 C 86.9868 2.61398 5.68702 0
M  V30 932 H 87.2198 1.89893 2.28753 0
M  V30 933 H 84.7528 1.07466 1.10862 0
M  V30 934 H 86.7108 0.184012 4.10087 0
M  V30 935 H 85.3718 -0.435688 3.11064 0
M  V30 936 H 84.5648 1.11876 4.91426 0
M  V30 937 H 84.1668 1.75632 3.30196 0
M  V30 938 H 86.4588 2.03992 6.4606 0
M  V30 939 H 87.4018 3.52972 6.13854 0
M  V30 940 H 87.8098 2.01941 5.27143 0
M  V30 941 N 87.2079 -1.17134 1.05439 0
M  V30 942 C 88.4329 -1.91913 0.786396 0
M  V30 943 C 88.8579 -1.7643 -0.652234 0
M  V30 944 O 88.2159 -1.08372 -1.45345 0
M  V30 945 C 88.2639 -3.40921 1.17497 0
M  V30 946 O 87.3679 -4.11244 0.308589 0
M  V30 947 H 86.7089 -0.598215 0.288158 0
M  V30 948 H 89.2389 -1.48457 1.4079 0
M  V30 949 H 89.2489 -3.91668 1.14281 0
M  V30 950 H 87.9239 -3.5151 2.22292 0
M  V30 951 H 86.5009 -3.70731 0.40157 0
M  V30 952 N 88.686 -0.835752 -1.33615 0
M  V30 953 C 90.097 -0.487099 -1.80234 0
M  V30 954 C 90.448 0.993627 -1.69179 0
M  V30 955 O 89.573 1.77403 -1.23924 0
M  V30 956 C 90.168 -0.877385 -3.27242 0
M  V30 957 C 88.727 -0.580915 -3.7189 0
M  V30 958 C 87.874 -1.0874 -2.5509 0
M  V30 959 H 90.825 -1.02474 -1.2118 0
M  V30 960 H 90.846 -0.186195 -3.80044 0
M  V30 961 H 90.358 -1.95512 -3.35256 0
M  V30 962 H 88.459 0.486881 -3.69405 0
M  V30 963 H 88.572 -1.13396 -4.65487 0
M  V30 964 H 86.936 -0.508392 -2.49575 0
M  V30 965 H 87.719 -2.17184 -2.65868 0
M  V30 966 N 90.1641 1.46063 -0.591896 0
M  V30 967 C 91.4041 2.04228 -0.0838014 0
M  V30 968 C 91.7681 1.45231 1.25587 0
M  V30 969 O 92.9691 1.94653 1.85375 0
M  V30 970 C 91.2401 3.57389 -0.0286282 0
M  V30 971 S 92.7991 4.3678 0.420557 0
M  V30 972 H 89.6171 0.709762 -0.0419319 0
M  V30 973 H 92.2191 1.78983 -0.786465 0
M  V30 974 H 90.9231 3.97843 -1.00743 0
M  V30 975 H 90.4541 3.87185 0.69652 0
M  V30 976 H 92.4691 4.67131 1.67341 0
M  V30 977 N 91.6422 0.330177 1.54103 0
M  V30 978 C 92.8882 -0.263542 2.01685 0
M  V30 979 C 93.2432 -1.49258 1.21408 0
M  V30 980 O 92.5362 -1.89395 0.289852 0
M  V30 981 C 92.7302 -0.643134 3.51566 0
M  V30 982 C 92.5592 0.547571 4.46354 0
M  V30 983 C 91.3292 1.04873 4.94297 0
M  V30 984 C 93.5272 1.40184 4.94826 0
M  V30 985 N 91.5092 2.20316 5.73005 0
M  V30 986 C 92.8802 2.40335 5.71524 0
M  V30 987 C 94.9352 1.42884 4.76958 0
M  V30 988 C 93.6382 3.42998 6.32254 0
M  V30 989 C 95.6642 2.44421 5.38528 0
M  V30 990 C 95.0262 3.43298 6.15082 0
M  V30 991 H 91.1252 -0.0601026 0.779687 0
M  V30 992 H 93.7092 0.466714 1.89023 0
M  V30 993 H 91.8802 -1.34251 3.6446 0
M  V30 994 H 93.6122 -1.21889 3.85908 0
M  V30 995 H 90.3672 0.618956 4.69538 0
M  V30 996 H 90.7912 2.78565 6.17034 0
M  V30 997 H 95.4332 0.678049 4.17328 0
M  V30 998 H 93.1512 4.1898 6.91 0
M  V30 999 H 96.7372 2.4732 5.26616 0
M  V30 1000 H 95.6172 4.20579 6.61878 0
M  V30 1001 N 93.1203 -1.57491 0.0584922 0
M  V30 1002 C 94.3663 -1.93264 -0.614558 0
M  V30 1003 C 94.6993 -0.937717 -1.7006 0
M  V30 1004 O 93.9743 0.0351652 -1.94468 0
M  V30 1005 C 94.2573 -3.3938 -1.20386 0
M  V30 1006 C 94.1103 -4.49625 -0.125375 0
M  V30 1007 C 95.4293 -3.86039 -2.11334 0
M  V30 1008 H 92.5483 -0.702791 -0.221933 0
M  V30 1009 H 95.1903 -1.8961 0.12175 0
M  V30 1010 H 93.3403 -3.42626 -1.83139 0
M  V30 1011 H 95.0123 -4.58506 0.506971 0
M  V30 1012 H 93.2553 -4.30354 0.545672 0
M  V30 1013 H 93.9263 -5.48967 -0.577861 0
M  V30 1014 H 96.4023 -3.84716 -1.58534 0
M  V30 1015 H 95.2783 -4.88914 -2.49507 0
M  V30 1016 H 95.5393 -3.23215 -3.01636 0
M  V30 1017 N 94.5984 0.214957 -1.56127 0
M  V30 1018 C 95.8474 0.936451 -1.78643 0
M  V30 1019 C 96.1604 1.85237 -0.628229 0
M  V30 1020 O 97.3664 2.613 -0.737186 0
M  V30 1021 C 95.8224 1.7154 -3.16389 0
M  V30 1022 C 95.4304 0.845299 -4.39953 0
M  V30 1023 C 97.1744 2.42772 -3.48227 0
M  V30 1024 C 95.0814 1.62198 -5.68723 0
M  V30 1025 H 94.0114 0.353401 -0.666051 0
M  V30 1026 H 96.6624 0.190169 -1.82512 0
M  V30 1027 H 95.0444 2.50484 -3.06715 0
M  V30 1028 H 96.2184 0.0959353 -4.607 0
M  V30 1029 H 94.5334 0.244789 -4.1568 0
M  V30 1030 H 97.1304 3.01394 -4.41663 0
M  V30 1031 H 97.4734 3.15984 -2.71035 0
M  V30 1032 H 98.0064 1.70813 -3.5926 0
M  V30 1033 H 94.7454 0.933011 -6.48826 0
M  V30 1034 H 94.2654 2.34579 -5.52026 0
M  V30 1035 H 95.9444 2.18095 -6.09133 0
M  V30 1036 N 96.0765 1.50051 0.48192 0
M  V30 1037 C 97.3015 1.64508 1.26301 0
M  V30 1038 C 97.7265 0.323851 1.85291 0
M  V30 1039 O 97.0845 -0.710969 1.66778 0
M  V30 1040 C 97.1325 2.7305 2.35533 0
M  V30 1041 O 96.2365 2.3355 3.39895 0
M  V30 1042 H 95.5775 0.549978 0.372048 0
M  V30 1043 H 98.1075 1.9636 0.574786 0
M  V30 1044 H 98.1175 2.95799 2.8101 0
M  V30 1045 H 96.7925 3.68946 1.91967 0
M  V30 1046 H 95.3695 2.21205 3.00204 0
M  V30 1047 N 97.5546 -0.734337 1.39446 0
M  V30 1048 C 98.5176 -1.83004 1.37994 0
M  V30 1049 C 99.5176 -1.58397 0.276938 0
M  V30 1050 O 100.708 -1.65785 0.534875 0
M  V30 1051 C 97.8396 -3.20802 1.1532 0
M  V30 1052 H 99.0326 -1.85694 2.35494 0
M  V30 1053 H 96.5856 -0.938059 1.25021 0
M  V30 1054 H 97.3206 -3.23772 0.185036 0
M  V30 1055 H 97.1056 -3.4006 1.95197 0
M  V30 1056 H 98.5956 -4.00862 1.17046 0
M  V30 1057 N 99.0327 -1.24633 -0.964593 0
M  V30 1058 C 100.261 -1.11501 -1.74285 0
M  V30 1059 C 100.676 0.332165 -1.85855 0
M  V30 1060 O 100.033 1.22903 -1.34911 0
M  V30 1061 C 100.084 -1.75258 -3.16175 0
M  V30 1062 O 99.8047 -3.14318 -3.05182 0
M  V30 1063 C 101.306 -1.67776 -4.10324 0
M  V30 1064 H 98.5257 -0.389407 -0.546446 0
M  V30 1065 H 101.07 -1.64801 -1.21083 0
M  V30 1066 H 99.2247 -1.25954 -3.66353 0
M  V30 1067 H 99.6387 -3.4551 -3.94618 0
M  V30 1068 H 101.113 -2.17064 -5.0753 0
M  V30 1069 H 101.59 -0.639584 -4.34518 0
M  V30 1070 H 102.196 -2.16522 -3.66058 0
M  V30 1071 N 100.511 1.16574 -1.06058 0
M  V30 1072 C 101.461 2.18854 -0.63929 0
M  V30 1073 C 102.445 1.57505 0.328798 0
M  V30 1074 O 103.637 1.76408 0.144623 0
M  V30 1075 C 100.766 3.43291 -0.0247203 0
M  V30 1076 C 99.8518 4.11722 -1.01716 0
M  V30 1077 N 100.243 4.55841 -2.19186 0
M  V30 1078 C 98.5408 4.37872 -0.847569 0
M  V30 1079 C 99.2418 5.08751 -2.82042 0
M  V30 1080 N 98.2178 5.01489 -2.09784 0
M  V30 1081 H 102.02 2.5068 -1.53417 0
M  V30 1082 H 99.5338 1.32999 -0.931935 0
M  V30 1083 H 101.531 4.15856 0.294915 0
M  V30 1084 H 100.191 3.12954 0.865448 0
M  V30 1085 H 101.202 4.49649 -2.56975 0
M  V30 1086 H 97.8788 4.17499 -0.00918848 0
M  V30 1087 H 99.2688 5.52944 -3.81709 0
M  V30 1088 N 101.989 0.842826 1.3317 0
M  V30 1089 C 103.229 0.446574 1.99462 0
M  V30 1090 C 103.593 -0.976818 1.65295 0
M  V30 1091 O 104.794 -1.477 2.24584 0
M  V30 1092 C 103.065 0.665353 3.51152 0
M  V30 1093 S 104.624 0.364911 4.3728 0
M  V30 1094 H 101.442 0.167803 0.690915 0
M  V30 1095 H 104.044 1.09297 1.62094 0
M  V30 1096 H 102.748 1.7006 3.73507 0
M  V30 1097 H 102.279 0.00494568 3.934 0
M  V30 1098 H 104.294 -0.813761 4.89482 0
M  V30 1099 N 103.467 -1.45747 0.599634 0
M  V30 1100 C 104.714 -2.02292 0.0917284 0
M  V30 1101 C 105.042 -1.46906 -1.27472 0
M  V30 1102 O 104.297 -0.630652 -1.8526 0
M  V30 1103 C 104.596 -3.57399 -0.00602758 0
M  V30 1104 C 104.262 -4.31902 1.29503 0
M  V30 1105 C 102.924 -4.51974 1.65144 0
M  V30 1106 C 105.276 -4.74551 2.15525 0
M  V30 1107 C 102.604 -5.11949 2.86574 0
M  V30 1108 C 104.956 -5.35868 3.36196 0
M  V30 1109 C 103.62 -5.54165 3.72099 0
M  V30 1110 H 102.89 -0.740239 0.0335658 0
M  V30 1111 H 105.537 -1.7491 0.779661 0
M  V30 1112 H 103.842 -3.84014 -0.777183 0
M  V30 1113 H 105.539 -3.98846 -0.415038 0
M  V30 1114 H 102.129 -4.16588 1.00761 0
M  V30 1115 H 106.313 -4.58784 1.8929 0
M  V30 1116 H 101.569 -5.24305 3.14507 0
M  V30 1117 H 105.743 -5.6787 4.03109 0
M  V30 1118 H 103.37 -6.00406 4.6628 0
M  V30 1119 N 104.945 -0.338344 -1.53925 0
M  V30 1120 C 106.194 0.260732 -2.00008 0
M  V30 1121 C 106.507 1.52073 -1.23017 0
M  V30 1122 O 107.713 2.19672 -1.5955 0
M  V30 1123 C 106.169 0.51515 -3.56194 0
M  V30 1124 C 105.777 -0.728645 -4.42035 0
M  V30 1125 C 107.521 1.07337 -4.10706 0
M  V30 1126 C 105.428 -0.445315 -5.89721 0
M  V30 1127 H 104.358 0.101205 -0.747177 0
M  V30 1128 H 107.009 -0.452866 -1.77824 0
M  V30 1129 H 105.391 1.28932 -3.74423 0
M  V30 1130 H 106.565 -1.50352 -4.35581 0
M  V30 1131 H 104.88 -1.20813 -3.98489 0
M  V30 1132 H 107.477 1.30022 -5.18651 0
M  V30 1133 H 107.82 2.0273 -3.63602 0
M  V30 1134 H 108.353 0.360034 -3.96167 0
M  V30 1135 H 105.092 -1.36883 -6.41049 0
M  V30 1136 H 104.612 0.291569 -5.99091 0
M  V30 1137 H 106.291 -0.0606218 -6.46972 0
M  V30 1138 N 106.423 1.57458 -0.0668435 0
M  V30 1139 C 107.7 1.8469 0.644132 0
M  V30 1140 C 108.08 0.958343 1.88093 0
M  V30 1141 O 107.428 0.0233579 2.28488 0
M  V30 1142 C 107.638 3.34767 0.986509 0
M  V30 1143 C 108.986 4.02159 1.36212 0
M  V30 1144 O 110.01 3.39484 1.07839 0
M  V30 1145 O 108.869 5.12694 1.89227 0
M  V30 1146 H 105.963 0.762816 0.319437 0
M  V30 1147 H 108.509 1.6942 -0.0973986 0
M  V30 1148 H 107.281 3.91151 0.107883 0
M  V30 1149 H 106.904 3.55281 1.78497 0
M  V30 1150 N 107.901 -0.206675 1.56239 0
M  V30 1151 C 109.131 -0.943975 1.83773 0
M  V30 1152 C 109.539 -1.77841 0.645703 0
M  V30 1153 O 108.882 -1.79403 -0.395008 0
M  V30 1154 C 108.944 -1.899 3.05251 0
M  V30 1155 C 108.608 -1.24764 4.39639 0
M  V30 1156 C 109.605 -0.630216 5.16066 0
M  V30 1157 C 107.29 -1.25496 4.8637 0
M  V30 1158 C 109.284 -0.0287946 6.37393 0
M  V30 1159 C 106.971 -0.649698 6.07637 0
M  V30 1160 C 107.969 -0.0376845 6.8299 0
M  V30 1161 O 107.657 0.55812 8.0196 0
M  V30 1162 H 107.389 -0.281508 0.614597 0
M  V30 1163 H 109.943 -0.222458 2.04192 0
M  V30 1164 H 108.173 -2.6599 2.80689 0
M  V30 1165 H 109.862 -2.5031 3.1953 0
M  V30 1166 H 110.628 -0.616785 4.81062 0
M  V30 1167 H 106.507 -1.72072 4.27683 0
M  V30 1168 H 110.051 0.449518 6.9615 0
M  V30 1169 H 105.948 -0.660592 6.42111 0
M  V30 1170 H 106.716 0.453891 8.17241 0
M  V30 1171 N 109.379 -1.50304 -0.473955 0
M  V30 1172 C 110.79 -1.54042 -1.0549 0
M  V30 1173 C 111.141 -0.342248 -1.93192 0
M  V30 1174 O 110.266 0.545157 -2.09421 0
M  V30 1175 C 110.861 -2.79152 -1.91989 0
M  V30 1176 C 109.42 -2.8558 -2.45196 0
M  V30 1177 C 108.567 -2.48295 -1.2347 0
M  V30 1178 H 111.518 -1.5661 -0.256693 0
M  V30 1179 H 111.539 -2.60845 -2.7702 0
M  V30 1180 H 111.051 -3.66339 -1.28131 0
M  V30 1181 H 109.152 -2.02738 -3.12615 0
M  V30 1182 H 109.265 -3.88403 -2.80499 0
M  V30 1183 H 107.629 -2.00669 -1.56856 0
M  V30 1184 H 108.412 -3.37787 -0.612789 0
M  V30 1185 N 110.857 0.726932 -1.39834 0
M  V30 1186 C 111.804 1.841 -1.39197 0
M  V30 1187 C 112.774 1.642 -0.250502 0
M  V30 1188 O 113.959 1.85494 -0.446846 0
M  V30 1189 C 111.099 3.21697 -1.24919 0
M  V30 1190 C 110.212 3.53247 -2.48678 0
M  V30 1191 C 109.347 4.80289 -2.26928 0
M  V30 1192 C 108.386 5.04707 -3.4632 0
M  V30 1193 N 107.523 6.22956 -3.23836 0
M  V30 1194 H 112.363 1.83979 -2.34427 0
M  V30 1195 H 109.9 0.898876 -1.16442 0
M  V30 1196 H 111.858 4.01137 -1.1465 0
M  V30 1197 H 110.488 3.21076 -0.333153 0
M  V30 1198 H 109.54 2.68447 -2.69519 0
M  V30 1199 H 110.852 3.67205 -3.37582 0
M  V30 1200 H 110.006 5.67725 -2.13947 0
M  V30 1201 H 108.745 4.68519 -1.35431 0
M  V30 1202 H 107.75 4.1573 -3.5979 0
M  V30 1203 H 108.975 5.18357 -4.38729 0
M  V30 1204 H 106.921 6.12459 -2.35011 0
M  V30 1205 H 106.838 6.37539 -4.063 0
M  V30 1206 H 108.106 7.1321 -3.14566 0
M  V30 1207 N 112.336 1.25143 0.95797 0
M  V30 1208 C 113.283 1.05235 2.05412 0
M  V30 1209 C 114.253 -0.0374561 1.66058 0
M  V30 1210 O 115.438 0.119073 1.90428 0
M  V30 1211 C 112.578 0.673589 3.38462 0
M  V30 1212 C 111.691 1.8379 3.90954 0
M  V30 1213 C 110.826 1.40381 5.12315 0
M  V30 1214 C 109.865 2.53746 5.57027 0
M  V30 1215 N 109.002 2.11136 6.69601 0
M  V30 1216 H 113.842 1.99048 2.21774 0
M  V30 1217 H 111.379 0.991277 1.08683 0
M  V30 1218 H 113.337 0.434964 4.14926 0
M  V30 1219 H 111.967 -0.227554 3.21997 0
M  V30 1220 H 111.019 2.18992 3.11041 0
M  V30 1221 H 112.331 2.68937 4.20089 0
M  V30 1222 H 111.485 1.12464 5.96185 0
M  V30 1223 H 110.224 0.523015 4.84887 0
M  V30 1224 H 109.229 2.82412 4.71724 0
M  V30 1225 H 110.454 3.42398 5.86464 0
M  V30 1226 H 108.4 1.25468 6.4389 0
M  V30 1227 H 108.317 2.89832 6.98236 0
M  V30 1228 H 109.585 1.86385 7.56889 0
M  V30 1229 N 113.814 -1.1601 1.06675 0
M  V30 1230 C 114.724 -2.24156 0.692179 0
M  V30 1231 C 115.74 -1.71507 -0.293513 0
M  V30 1232 O 116.916 -2.009 -0.141861 0
M  V30 1233 C 113.981 -3.46587 0.0884131 0
M  V30 1234 C 113.042 -4.14257 1.12646 0
M  V30 1235 C 112.275 -5.30844 0.551416 0
M  V30 1236 O 112.498 -5.66858 -0.634656 0
M  V30 1237 O 111.432 -5.87848 1.29298 0
M  V30 1238 H 115.258 -2.58513 1.59388 0
M  V30 1239 H 112.843 -1.23599 0.83926 0
M  V30 1240 H 114.725 -4.20679 -0.246361 0
M  V30 1241 H 113.4 -3.13994 -0.786712 0
M  V30 1242 H 112.307 -3.42118 1.51348 0
M  V30 1243 H 113.64 -4.50914 1.97325 0
M  V30 1244 N 115.292 -0.849877 -1.32721 0
M  V30 1245 C 116.569 -0.372405 -1.92022 0
M  V30 1246 C 116.949 1.1435 -1.77447 0
M  V30 1247 O 116.297 1.96296 -1.16962 0
M  V30 1248 C 116.507 -0.831482 -3.3895 0
M  V30 1249 C 117.855 -0.845882 -4.16089 0
M  V30 1250 O 118.879 -0.775806 -3.47649 0
M  V30 1251 O 117.738 -0.943753 -5.38289 0
M  V30 1252 H 114.832 -0.107667 -0.819961 0
M  V30 1253 H 117.378 -0.93646 -1.41522 0
M  V30 1254 H 116.15 -1.87448 -3.4348 0
M  V30 1255 H 115.773 -0.24461 -3.96847 0
M  V30 1256 N 116.77 1.45427 -0.607355 0
M  V30 1257 C 118 2.06314 -0.108656 0
M  V30 1258 C 118.408 1.45269 1.21217 0
M  V30 1259 O 117.751 0.561115 1.74921 0
M  V30 1260 C 117.813 3.59345 0.105618 0
M  V30 1261 C 117.477 4.42723 -1.13337 0
M  V30 1262 C 118.474 4.77715 -2.05145 0
M  V30 1263 C 116.159 4.83478 -1.36213 0
M  V30 1264 C 118.153 5.52317 -3.18158 0
M  V30 1265 C 115.84 5.57835 -2.49527 0
M  V30 1266 C 116.838 5.92171 -3.40327 0
M  V30 1267 O 116.526 6.65019 -4.51669 0
M  V30 1268 H 116.258 0.672782 -0.0658842 0
M  V30 1269 H 118.812 1.87664 -0.834945 0
M  V30 1270 H 117.042 3.76394 0.886796 0
M  V30 1271 H 118.731 4.02076 0.555886 0
M  V30 1272 H 119.497 4.46787 -1.88697 0
M  V30 1273 H 115.376 4.56188 -0.664362 0
M  V30 1274 H 118.92 5.79036 -3.89054 0
M  V30 1275 H 114.817 5.88177 -2.65928 0
M  V30 1276 H 115.585 6.83469 -4.50348 0
M  V30 1277 N 118.248 0.346503 1.53744 0
M  V30 1278 C 119.497 -0.250122 2.00143 0
M  V30 1279 C 119.81 -1.51418 1.23822 0
M  V30 1280 O 121.016 -2.18823 1.60713 0
M  V30 1281 C 119.472 -0.496252 3.56462 0
M  V30 1282 C 119.08 0.752077 4.41642 0
M  V30 1283 C 120.824 -1.05157 4.11269 0
M  V30 1284 C 118.731 0.476583 5.89477 0
M  V30 1285 H 117.661 -0.0972409 0.747703 0
M  V30 1286 H 120.312 0.46229 1.77581 0
M  V30 1287 H 118.694 -1.26944 3.75102 0
M  V30 1288 H 119.868 1.5266 4.34778 0
M  V30 1289 H 118.183 1.22925 3.97842 0
M  V30 1290 H 120.78 -1.27269 5.19333 0
M  V30 1291 H 121.123 -2.00799 3.64672 0
M  V30 1292 H 121.656 -0.339019 3.96353 0
M  V30 1293 H 118.395 1.4028 6.40314 0
M  V30 1294 H 117.915 -0.259794 5.99237 0
M  V30 1295 H 119.594 0.0949315 6.4693 0
M  V30 1296 N 119.726 -1.57421 0.075193 0
M  V30 1297 C 120.972 -1.93905 -0.594025 0
M  V30 1298 C 121.305 -0.955701 -1.69056 0
M  V30 1299 O 120.58 0.0145373 -1.94495 0
M  V30 1300 C 120.863 -3.40638 -1.1678 0
M  V30 1301 C 120.716 -4.49733 -0.0776792 0
M  V30 1302 C 122.035 -3.88259 -2.07228 0
M  V30 1303 H 119.154 -0.705105 -0.214466 0
M  V30 1304 H 121.796 -1.8947 0.141854 0
M  V30 1305 H 119.946 -3.44549 -1.79494 0
M  V30 1306 H 121.618 -4.57942 0.555573 0
M  V30 1307 H 119.861 -4.29751 0.591286 0
M  V30 1308 H 120.532 -5.49549 -0.519603 0
M  V30 1309 H 123.008 -3.86376 -1.54445 0
M  V30 1310 H 121.884 -4.91533 -2.44308 0
M  V30 1311 H 122.145 -3.26396 -2.98191 0
M  V30 1312 N 121.204 0.198386 -1.56346 0
M  V30 1313 C 122.434 0.934215 -1.84271 0
M  V30 1314 C 122.842 1.77496 -0.655125 0
M  V30 1315 O 122.185 1.7961 0.385488 0
M  V30 1316 C 122.247 1.88278 -3.06254 0
M  V30 1317 C 121.911 1.22431 -4.40295 0
M  V30 1318 C 122.908 0.602839 -5.16393 0
M  V30 1319 C 120.593 1.22915 -4.87029 0
M  V30 1320 C 122.587 -0.0050083 -6.374 0
M  V30 1321 C 120.274 0.617465 -6.07973 0
M  V30 1322 C 121.272 0.00146341 -6.83 0
M  V30 1323 O 120.96 -0.600642 -8.01653 0
M  V30 1324 H 120.692 0.278245 -0.616081 0
M  V30 1325 H 123.246 0.211626 -2.04307 0
M  V30 1326 H 121.476 2.64498 -2.82095 0
M  V30 1327 H 123.165 2.48612 -3.20853 0
M  V30 1328 H 123.931 0.591265 -4.81382 0
M  V30 1329 H 119.81 1.69801 -4.28589 0
M  V30 1330 H 123.354 -0.48643 -6.95902 0
M  V30 1331 H 119.251 0.62653 -6.42452 0
M  V30 1332 H 120.019 -0.497225 -8.16988 0
M  V30 1333 N 122.682 1.50554 0.465978 0
M  V30 1334 C 123.612 1.72722 1.57128 0
M  V30 1335 C 124.593 0.576294 1.6004 0
M  V30 1336 O 125.778 0.81598 1.76225 0
M  V30 1337 C 122.908 1.82605 2.95419 0
M  V30 1338 C 121.862 2.97835 3.07373 0
M  V30 1339 C 121.188 2.92867 4.47363 0
M  V30 1340 C 122.488 4.38265 2.84114 0
M  V30 1341 H 124.182 2.65267 1.38829 0
M  V30 1342 H 121.728 1.2765 0.666441 0
M  V30 1343 H 123.681 1.96698 3.72677 0
M  V30 1344 H 122.405 0.866858 3.14886 0
M  V30 1345 H 121.064 2.83401 2.3255 0
M  V30 1346 H 120.712 1.94783 4.63755 0
M  V30 1347 H 120.412 3.70227 4.56296 0
M  V30 1348 H 121.936 3.09015 5.26633 0
M  V30 1349 H 123.35 4.53198 3.51118 0
M  V30 1350 H 121.747 5.17115 3.04487 0
M  V30 1351 H 122.817 4.50281 1.7993 0
M  V30 1352 N 124.16 -0.719506 1.40217 0
M  V30 1353 C 125.408 -1.47641 1.3801 0
M  V30 1354 C 125.729 -1.94992 -0.018145 0
M  V30 1355 O 124.999 -1.70073 -0.972207 0
M  V30 1356 H 123.579 -0.547744 0.507923 0
M  V30 1357 H 126.241 -0.853187 1.75233 0
M  V30 1358 H 125.337 -2.35112 2.05253 0
M  V30 1359 N 125.638 -1.25649 -0.95132 0
M  V30 1360 C 127.054 -1.02542 -1.223 0
M  V30 1361 C 127.254 0.255715 -1.99871 0
M  V30 1362 O 126.31 0.967558 -2.33226 0
M  V30 1363 C 127.623 -2.25065 -1.99415 0
M  V30 1364 C 129.171 -2.29861 -2.12446 0
M  V30 1365 C 129.646 -3.52048 -2.92961 0
M  V30 1366 N 131.137 -3.52465 -3.00538 0
M  V30 1367 C 131.872 -4.43672 -3.63239 0
M  V30 1368 N 131.368 -5.45157 -4.27523 0
M  V30 1369 N 133.161 -4.31346 -3.60412 0
M  V30 1370 H 125.312 -2.07951 -0.432471 0
M  V30 1371 H 127.575 -0.91339 -0.253816 0
M  V30 1372 H 127.281 -3.18194 -1.49817 0
M  V30 1373 H 127.155 -2.28502 -3.00111 0
M  V30 1374 H 129.542 -1.37252 -2.61239 0
M  V30 1375 H 129.623 -2.3044 -1.11044 0
M  V30 1376 H 129.267 -4.44981 -2.44856 0
M  V30 1377 H 129.197 -3.48715 -3.94596 0
M  V30 1378 H 131.688 -2.79056 -2.54826 0
M  V30 1379 H 132.001 -6.10958 -4.73234 0
M  V30 1380 H 130.346 -5.49025 -4.26141 0
M  V30 1381 H 133.537 -3.51288 -3.09377 0
M  V30 1382 H 133.71 -5.02624 -4.0899 0
M  V30 1383 N 127.117 1.15442 -1.07289 0
M  V30 1384 C 128.342 1.90638 -0.816828 0
M  V30 1385 C 128.767 1.77445 0.624083 0
M  V30 1386 O 128.125 1.10671 1.43602 0
M  V30 1387 C 128.173 3.39008 -1.22906 0
M  V30 1388 O 127.277 4.10701 -0.373975 0
M  V30 1389 H 126.618 0.593555 -0.297638 0
M  V30 1390 H 129.148 1.46198 -1.43134 0
M  V30 1391 H 129.158 3.89801 -1.20497 0
M  V30 1392 H 127.833 3.47929 -2.27856 0
M  V30 1393 H 126.41 3.70046 -0.460499 0
M  V30 1394 N 128.595 0.856903 1.32268 0
M  V30 1395 C 130.011 0.547061 1.49931 0
M  V30 1396 C 130.211 -0.921781 1.7918 0
M  V30 1397 O 129.267 -1.70469 1.8627 0
M  V30 1398 C 130.58 1.43599 2.64196 0
M  V30 1399 C 132.128 1.43665 2.78081 0
M  V30 1400 C 132.603 2.31085 3.95428 0
M  V30 1401 N 134.094 2.28893 4.02694 0
M  V30 1402 C 134.829 2.93262 4.92732 0
M  V30 1403 N 134.325 3.66751 5.87763 0
M  V30 1404 N 136.118 2.82638 4.85873 0
M  V30 1405 H 128.269 1.8075 1.11549 0
M  V30 1406 H 130.532 0.772144 0.549997 0
M  V30 1407 H 130.238 2.48058 2.49319 0
M  V30 1408 H 130.112 1.12502 3.60032 0
M  V30 1409 H 132.499 0.399701 2.92381 0
M  V30 1410 H 132.58 1.7878 1.82952 0
M  V30 1411 H 132.224 3.34849 3.81888 0
M  V30 1412 H 132.154 1.93302 4.89839 0
M  V30 1413 H 134.645 1.75466 3.34694 0
M  V30 1414 H 134.958 4.13027 6.53168 0
M  V30 1415 H 133.303 3.70859 5.87783 0
M  V30 1416 H 136.494 2.24774 4.10602 0
M  V30 1417 H 136.667 3.33084 5.55841 0
M  V30 1418 N 130.073 -1.45103 0.615059 0
M  V30 1419 C 131.003 -2.33339 -0.0865619 0
M  V30 1420 C 131.984 -1.4727 -0.851209 0
M  V30 1421 O 133.169 -1.76026 -0.820281 0
M  V30 1422 C 130.299 -3.30095 -1.07956 0
M  V30 1423 C 129.253 -4.25858 -0.427628 0
M  V30 1424 C 128.579 -5.12361 -1.5294 0
M  V30 1425 C 129.879 -5.18165 0.655944 0
M  V30 1426 H 131.573 -2.92254 0.650224 0
M  V30 1427 H 129.119 -1.40532 0.314138 0
M  V30 1428 H 131.072 -3.90698 -1.57901 0
M  V30 1429 H 129.796 -2.69355 -1.84703 0
M  V30 1430 H 128.455 -3.66564 0.0510292 0
M  V30 1431 H 128.103 -4.47984 -2.28734 0
M  V30 1432 H 127.803 -5.77238 -1.09865 0
M  V30 1433 H 129.327 -5.75833 -2.03098 0
M  V30 1434 H 130.741 -5.72796 0.240257 0
M  V30 1435 H 129.138 -5.91559 1.00888 0
M  V30 1436 H 130.208 -4.60144 1.52957 0
M  V30 1437 N 131.551 -0.354651 -1.53558 0
M  V30 1438 C 132.499 0.512195 -2.26891 0
M  V30 1439 C 133.493 1.09263 -1.29452 0
M  V30 1440 O 134.699 1.03709 -1.47121 0
M  V30 1441 H 131.074 0.183878 -0.729173 0
M  V30 1442 H 133.045 -0.128202 -2.98124 0
M  V30 1443 C 131.794 1.64563 -3.06291 0
M  V30 1444 H 131.117 1.20829 -3.81104 0
M  V30 1445 H 132.557 2.22711 -3.60799 0
M  V30 1446 C 131.016 2.58158 -2.16462 0
M  V30 1447 O 131.546 3.60695 -1.76811 0
M  V30 1448 N 129.752 2.27096 -1.81317 0
M  V30 1449 H 129.299 1.43751 -2.1376 0
M  V30 1450 H 129.257 2.89975 -1.21498 0
M  V30 1451 N 133.029 1.57378 -0.0835403 0
M  V30 1452 C 134.254 1.98682 0.594987 0
M  V30 1453 C 134.679 0.961969 1.61641 0
M  V30 1454 O 134.037 -0.0709989 1.81161 0
M  V30 1455 C 134.085 3.38988 1.2296 0
M  V30 1456 O 133.189 3.39208 2.34546 0
M  V30 1457 H 132.53 0.646368 0.152002 0
M  V30 1458 H 135.06 2.03961 -0.161533 0
M  V30 1459 H 135.07 3.76431 1.57366 0
M  V30 1460 H 133.745 4.13107 0.481228 0
M  V30 1461 H 132.322 3.13548 2.01846 0
M  V30 1462 N 134.507 -0.190092 1.56449 0
M  V30 1463 C 135.455 -1.25501 1.95837 0
M  V30 1464 C 136.449 -1.4685 0.844485 0
M  V30 1465 O 137.655 -1.47651 1.02952 0
M  V30 1466 H 134.03 -0.421447 0.622805 0
M  V30 1467 H 136.001 -0.895821 2.84636 0
M  V30 1468 C 134.75 -2.59124 2.31841 0
M  V30 1469 H 134.073 -2.43514 3.17082 0
M  V30 1470 H 135.513 -3.32371 2.6326 0
M  V30 1471 C 133.972 -3.16488 1.15486 0
M  V30 1472 O 134.502 -3.99365 0.432535 0
M  V30 1473 N 132.708 -2.75305 0.930349 0
M  V30 1474 H 132.255 -2.08013 1.51948 0
M  V30 1475 H 132.213 -3.14024 0.153634 0
M  V30 1476 N 135.985 -1.50799 -0.457987 0
M  V30 1477 C 137.213 -1.66218 -1.23203 0
M  V30 1478 C 137.628 -0.350894 -1.85511 0
M  V30 1479 O 136.985 0.668546 -1.69814 0
M  V30 1480 C 137.036 -2.76291 -2.33121 0
M  V30 1481 O 136.757 -4.02338 -1.73366 0
M  V30 1482 C 138.258 -3.028 -3.2377 0
M  V30 1483 H 135.478 -0.558361 -0.372121 0
M  V30 1484 H 138.022 -1.97099 -0.545179 0
M  V30 1485 H 136.177 -2.48068 -2.97558 0
M  V30 1486 H 136.591 -4.63312 -2.4585 0
M  V30 1487 H 138.065 -3.8345 -3.97077 0
M  V30 1488 H 138.542 -2.14385 -3.83322 0
M  V30 1489 H 139.148 -3.32604 -2.65056 0
M  V30 1490 N 137.463 0.71206 -1.40597 0
M  V30 1491 C 138.395 1.83704 -1.37061 0
M  V30 1492 C 139.408 1.60453 -0.275426 0
M  V30 1493 O 140.597 1.70262 -0.53602 0
M  V30 1494 C 137.697 3.20172 -1.11099 0
M  V30 1495 C 136.87 3.7059 -2.3234 0
M  V30 1496 C 135.929 4.85681 -2.02485 0
M  V30 1497 O 134.955 4.9815 -2.75382 0
M  V30 1498 N 136.157 5.71735 -1.00497 0
M  V30 1499 H 138.922 1.87235 -2.34016 0
M  V30 1500 H 136.483 0.893739 -1.34996 0
M  V30 1501 H 138.475 3.94768 -0.891064 0
M  V30 1502 H 137.045 3.11767 -0.227989 0
M  V30 1503 H 136.265 2.87085 -2.7014 0
M  V30 1504 H 137.553 4.01011 -3.13157 0
M  V30 1505 H 136.951 5.64275 -0.401298 0
M  V30 1506 H 135.508 6.463 -0.844942 0
M  V30 1507 N 138.941 1.26152 0.944643 0
M  V30 1508 C 140.189 1.11271 1.6871 0
M  V30 1509 C 140.51 -0.345166 1.91921 0
M  V30 1510 O 139.78 -1.24387 1.51343 0
M  V30 1511 H 138.36 0.408783 0.625224 0
M  V30 1512 H 141.022 1.58427 1.1352 0
M  V30 1513 H 140.118 1.62879 2.66227 0
M  V30 1514 N 140.419 -1.14872 1.07899 0
M  V30 1515 C 141.329 -2.2341 0.715915 0
M  V30 1516 C 142.345 -1.71808 -0.275306 0
M  V30 1517 O 143.521 -2.01039 -0.120545 0
M  V30 1518 C 140.586 -3.46474 0.125168 0
M  V30 1519 C 139.647 -4.13039 1.17034 0
M  V30 1520 C 138.88 -5.30229 0.607688 0
M  V30 1521 O 139.103 -5.675 -0.574497 0
M  V30 1522 O 138.037 -5.86444 1.35526 0
M  V30 1523 H 141.863 -2.56808 1.62121 0
M  V30 1524 H 139.448 -1.22702 0.852322 0
M  V30 1525 H 141.33 -4.20917 -0.201729 0
M  V30 1526 H 140.005 -3.14811 -0.753364 0
M  V30 1527 H 138.912 -3.40493 1.54968 0
M  V30 1528 H 140.245 -4.48796 2.02097 0
M  V30 1529 N 141.898 -0.863906 -1.31812 0
M  V30 1530 C 142.831 -0.259963 -2.26714 0
M  V30 1531 C 143.809 0.607392 -1.50829 0
M  V30 1532 O 144.993 0.562155 -1.79922 0
M  V30 1533 C 142.12 0.632456 -3.32743 0
M  V30 1534 C 141.166 -0.162743 -4.26189 0
M  V30 1535 S 141.999 -1.53726 -5.12961 0
M  V30 1536 C 143.155 -0.650803 -6.22507 0
M  V30 1537 H 143.388 -1.06445 -2.77591 0
M  V30 1538 H 140.921 -0.662071 -1.39485 0
M  V30 1539 H 142.879 1.14167 -3.94305 0
M  V30 1540 H 141.54 1.41083 -2.80632 0
M  V30 1541 H 140.733 0.517366 -5.01338 0
M  V30 1542 H 140.335 -0.60385 -3.69093 0
M  V30 1543 H 142.627 0.141134 -6.77353 0
M  V30 1544 H 143.57 -1.37322 -6.94657 0
M  V30 1545 H 143.978 -0.221041 -5.64067 0
M  V30 1546 N 143.376 1.44774 -0.622745 0
M  V30 1547 C 144.323 2.30635 0.0871679 0
M  V30 1548 C 145.293 1.42994 0.845097 0
M  V30 1549 O 146.478 1.71907 0.827812 0
M  V30 1550 C 143.618 3.28144 1.06844 0
M  V30 1551 C 142.731 4.30888 0.309809 0
M  V30 1552 C 141.866 5.15494 1.28215 0
M  V30 1553 C 140.905 6.09953 0.512198 0
M  V30 1554 N 140.042 6.87287 1.43458 0
M  V30 1555 H 144.882 2.90803 -0.650974 0
M  V30 1556 H 142.419 1.43286 -0.33281 0
M  V30 1557 H 144.377 3.83157 1.65066 0
M  V30 1558 H 143.007 2.69695 1.77382 0
M  V30 1559 H 142.059 3.78414 -0.388181 0
M  V30 1560 H 143.371 4.97955 -0.290254 0
M  V30 1561 H 142.525 5.74983 1.93596 0
M  V30 1562 H 141.264 4.48481 1.91614 0
M  V30 1563 H 140.269 5.49581 -0.155151 0
M  V30 1564 H 141.494 6.78999 -0.116958 0
M  V30 1565 H 139.44 6.2295 2.05594 0
M  V30 1566 H 139.357 7.50763 0.888335 0
M  V30 1567 H 140.625 7.51306 2.07749 0
M  V30 1568 N 144.854 0.36279 1.53368 0
M  V30 1569 C 146.101 -0.227776 2.01215 0
M  V30 1570 C 146.429 -1.49003 1.25014 0
M  V30 1571 O 145.684 -1.92876 0.331236 0
M  V30 1572 C 145.983 -0.568417 3.52851 0
M  V30 1573 C 145.649 0.59918 4.46901 0
M  V30 1574 C 144.311 0.919559 4.72332 0
M  V30 1575 C 146.663 1.38156 5.02556 0
M  V30 1576 C 143.991 2.02434 5.5067 0
M  V30 1577 C 146.343 2.47674 5.821 0
M  V30 1578 C 145.007 2.8025 6.05819 0
M  V30 1579 H 144.277 -0.083349 0.736297 0
M  V30 1580 H 146.924 0.494677 1.85001 0
M  V30 1581 H 145.229 -1.37185 3.66998 0
M  V30 1582 H 146.926 -1.03756 3.87344 0
M  V30 1583 H 143.516 0.339437 4.27254 0
M  V30 1584 H 147.7 1.14729 4.82857 0
M  V30 1585 H 142.956 2.28075 5.67267 0
M  V30 1586 H 147.13 3.08716 6.24234 0
M  V30 1587 H 144.757 3.65979 6.66306 0
M  V30 1588 N 146.332 -1.57332 0.0918853 0
M  V30 1589 C 147.242 -2.17368 -0.882505 0
M  V30 1590 C 148.258 -1.14226 -1.31257 0
M  V30 1591 O 149.434 -1.46582 -1.38115 0
M  V30 1592 C 146.499 -2.73962 -2.12476 0
M  V30 1593 C 145.56 -3.92048 -1.7492 0
M  V30 1594 C 144.793 -4.45933 -2.93223 0
M  V30 1595 O 145.016 -3.98764 -4.07852 0
M  V30 1596 O 143.95 -5.36999 -2.71875 0
M  V30 1597 H 147.776 -3.01031 -0.40172 0
M  V30 1598 H 145.361 -1.48813 -0.132291 0
M  V30 1599 H 147.243 -3.10147 -2.85283 0
M  V30 1600 H 145.918 -1.93347 -2.59613 0
M  V30 1601 H 144.825 -3.6068 -0.993025 0
M  V30 1602 H 146.158 -4.74017 -1.32548 0
M  V30 1603 N 147.81 0.181792 -1.56548 0
M  V30 1604 C 149.056 0.901431 -1.81665 0
M  V30 1605 C 149.389 1.82347 -0.668075 0
M  V30 1606 O 148.664 1.91669 0.330615 0
M  V30 1607 C 148.947 1.70618 -3.17115 0
M  V30 1608 C 148.8 0.807964 -4.42484 0
M  V30 1609 C 150.119 2.67605 -3.49393 0
M  V30 1610 H 147.238 0.32627 -0.660846 0
M  V30 1611 H 149.88 0.168134 -1.89255 0
M  V30 1612 H 148.03 2.33133 -3.10775 0
M  V30 1613 H 149.702 0.19649 -4.60881 0
M  V30 1614 H 147.945 0.115411 -4.33646 0
M  V30 1615 H 148.616 1.40632 -5.33785 0
M  V30 1616 H 151.092 2.15218 -3.56118 0
M  V30 1617 H 149.968 3.20985 -4.45264 0
M  V30 1618 H 150.229 3.47298 -2.73563 0
M  V30 1619 N 149.288 1.51039 0.449983 0
M  V30 1620 C 150.198 1.74261 1.57067 0
M  V30 1621 C 151.214 0.626363 1.62335 0
M  V30 1622 O 152.39 0.907162 1.79812 0
M  V30 1623 C 149.455 1.85114 2.93144 0
M  V30 1624 C 148.516 3.0893 2.98095 0
M  V30 1625 C 147.749 3.19256 4.27681 0
M  V30 1626 O 147.972 2.35835 5.19363 0
M  V30 1627 O 146.906 4.12144 4.38658 0
M  V30 1628 H 150.732 2.69303 1.40391 0
M  V30 1629 H 148.317 1.35389 0.631688 0
M  V30 1630 H 150.199 1.94311 3.73926 0
M  V30 1631 H 148.874 0.932588 3.09975 0
M  V30 1632 H 147.781 3.0522 2.16314 0
M  V30 1633 H 149.114 4.00433 2.86206 0
M  V30 1634 N 150.766 -0.704594 1.40972 0
M  V30 1635 C 151.714 -1.83994 1.42299 0
M  V30 1636 C 152.708 -1.66684 0.302111 0
M  V30 1637 O 153.914 -1.73655 0.473697 0
M  V30 1638 H 150.289 -0.606171 0.44504 0
M  V30 1639 H 152.26 -1.79992 2.38003 0
M  V30 1640 C 151.009 -3.21946 1.31323 0
M  V30 1641 H 150.332 -3.35878 2.16855 0
M  V30 1642 H 151.772 -4.01491 1.36311 0
M  V30 1643 C 150.231 -3.36891 0.0245977 0
M  V30 1644 O 150.761 -3.90687 -0.934153 0
M  V30 1645 N 148.967 -2.90559 -0.0485243 0
M  V30 1646 H 148.514 -2.46968 0.732419 0
M  V30 1647 H 148.472 -3.00937 -0.910171 0
M  V30 1648 N 152.244 -1.26651 -0.937939 0
M  V30 1649 C 153.174 -1.10993 -2.05433 0
M  V30 1650 C 154.155 -0.0142161 -1.70094 0
M  V30 1651 O 155.34 -0.186837 -1.93299 0
M  V30 1652 C 152.47 -0.745561 -3.39203 0
M  V30 1653 C 151.424 -1.79337 -3.88616 0
M  V30 1654 C 150.75 -1.28324 -5.19073 0
M  V30 1655 C 152.05 -3.19553 -4.13138 0
M  V30 1656 H 153.744 -2.0438 -2.1879 0
M  V30 1657 H 151.29 -0.984041 -1.05131 0
M  V30 1658 H 153.243 -0.622888 -4.16771 0
M  V30 1659 H 151.967 0.22401 -3.25831 0
M  V30 1660 H 150.626 -1.90477 -3.13231 0
M  V30 1661 H 150.274 -0.303414 -5.02084 0
M  V30 1662 H 149.974 -1.98369 -5.53103 0
M  V30 1663 H 151.498 -1.1733 -5.99221 0
M  V30 1664 H 152.912 -3.11471 -4.81309 0
M  V30 1665 H 151.309 -3.87218 -4.58457 0
M  V30 1666 H 152.379 -3.65368 -3.18801 0
M  V30 1667 N 153.722 1.14298 -1.08507 0
M  V30 1668 C 154.971 1.84708 -0.810305 0
M  V30 1669 C 155.284 1.83903 0.666271 0
M  V30 1670 O 156.49 2.50112 1.05624 0
M  V30 1671 C 154.946 3.31572 -1.39957 0
M  V30 1672 C 154.554 3.40791 -2.90801 0
M  V30 1673 C 156.298 4.07087 -1.20334 0
M  V30 1674 C 154.205 4.81872 -3.4286 0
M  V30 1675 H 153.135 0.691985 -0.299454 0
M  V30 1676 H 155.786 1.28841 -1.30661 0
M  V30 1677 H 154.168 3.87183 -0.830976 0
M  V30 1678 H 155.342 2.95225 -3.53806 0
M  V30 1679 H 153.657 2.78732 -3.0935 0
M  V30 1680 H 156.254 5.11225 -1.56693 0
M  V30 1681 H 156.597 4.16054 -0.143237 0
M  V30 1682 H 157.13 3.57779 -1.73893 0
M  V30 1683 H 153.869 4.78094 -4.48449 0
M  V30 1684 H 153.389 5.27972 -2.84615 0
M  V30 1685 H 155.068 5.50765 -3.39509 0
M  V30 1686 N 155.201 0.870884 1.31352 0
M  V30 1687 C 156.131 0.343096 2.30966 0
M  V30 1688 C 157.112 -0.566507 1.60389 0
M  V30 1689 O 158.297 -0.483336 1.88089 0
M  V30 1690 C 155.427 -0.455487 3.443 0
M  V30 1691 C 154.381 0.361103 4.26474 0
M  V30 1692 C 153.707 -0.563221 5.31725 0
M  V30 1693 C 155.007 1.59566 4.97329 0
M  V30 1694 H 156.701 1.17548 2.75359 0
M  V30 1695 H 154.247 0.566686 1.32381 0
M  V30 1696 H 156.2 -0.83525 4.13039 0
M  V30 1697 H 154.924 -1.32139 2.98675 0
M  V30 1698 H 153.583 0.722825 3.59403 0
M  V30 1699 H 153.231 -1.42643 4.82351 0
M  V30 1700 H 152.931 -0.0207409 5.87596 0
M  V30 1701 H 154.455 -0.939808 6.03324 0
M  V30 1702 H 155.869 1.28728 5.58661 0
M  V30 1703 H 154.266 2.07728 5.63 0
M  V30 1704 H 155.336 2.34798 4.24262 0
M  V30 1705 N 156.679 -1.44442 0.630414 0
M  V30 1706 C 157.629 -2.27794 -0.0968103 0
M  V30 1707 C 158.613 -1.38624 -0.816834 0
M  V30 1708 O 159.805 -1.62438 -0.70306 0
M  V30 1709 C 156.934 -3.25929 -1.07819 0
M  V30 1710 C 156.02 -4.22588 -0.357826 0
M  V30 1711 N 156.411 -5.0207 0.613169 0
M  V30 1712 C 154.709 -4.41914 -0.602365 0
M  V30 1713 C 155.41 -5.72351 1.03871 0
M  V30 1714 N 154.386 -5.42287 0.377642 0
M  V30 1715 H 158.188 -2.86653 0.648621 0
M  V30 1716 H 155.702 -1.55871 0.455862 0
M  V30 1717 H 157.699 -3.84399 -1.61378 0
M  V30 1718 H 156.359 -2.68631 -1.82393 0
M  V30 1719 H 157.37 -5.08331 0.990947 0
M  V30 1720 H 154.047 -3.95714 -1.33103 0
M  V30 1721 H 155.437 -6.4619 1.84086 0
M  V30 1722 N 158.157 -0.370918 -1.53173 0
M  V30 1723 C 159.104 0.473035 -2.259 0
M  V30 1724 C 160.074 1.07311 -1.26781 0
M  V30 1725 O 161.259 1.1046 -1.55574 0
M  V30 1726 C 158.399 1.60405 -3.05556 0
M  V30 1727 C 157.512 1.02863 -4.19575 0
M  V30 1728 C 156.647 2.12918 -4.86661 0
M  V30 1729 C 155.686 1.52869 -5.92704 0
M  V30 1730 N 154.823 2.56779 -6.53459 0
M  V30 1731 H 159.663 -0.153649 -2.97604 0
M  V30 1732 H 157.2 -0.0875946 -1.46839 0
M  V30 1733 H 159.158 2.27034 -3.50016 0
M  V30 1734 H 157.788 2.20131 -2.36097 0
M  V30 1735 H 156.84 0.252465 -3.79561 0
M  V30 1736 H 158.152 0.549642 -4.95762 0
M  V30 1737 H 157.306 2.87356 -5.34333 0
M  V30 1738 H 156.045 2.6417 -4.09958 0
M  V30 1739 H 155.05 0.769479 -5.44389 0
M  V30 1740 H 156.275 1.02435 -6.7133 0
M  V30 1741 H 154.221 3.07235 -5.79606 0
M  V30 1742 H 154.138 2.13583 -7.25202 0
M  V30 1743 H 155.406 3.30903 -7.05779 0
M  V30 1744 N 159.635 1.57281 -0.100228 0
M  V30 1745 C 160.912 1.86014 0.604812 0
M  V30 1746 C 161.292 0.998025 1.86018 0
M  V30 1747 O 160.64 0.0718184 2.28387 0
M  V30 1748 C 160.85 3.36784 0.915278 0
M  V30 1749 C 162.198 4.04957 1.27651 0
M  V30 1750 O 163.222 3.41695 1.00613 0
M  V30 1751 O 162.081 5.16593 1.7831 0
M  V30 1752 H 159.175 0.76942 0.303185 0
M  V30 1753 H 161.721 1.69176 -0.133313 0
M  V30 1754 H 160.493 3.91292 0.0248896 0
M  V30 1755 H 160.116 3.58987 1.70921 0
M  V30 1756 N 161.113 -0.173488 1.56642 0
M  V30 1757 C 162.343 -0.904781 1.85734 0
M  V30 1758 C 162.751 -1.76431 0.68328 0
M  V30 1759 O 162.094 -1.802 -0.356865 0
M  V30 1760 C 162.156 -1.83382 3.09211 0
M  V30 1761 C 161.82 -1.15411 4.42187 0
M  V30 1762 C 162.817 -0.520609 5.17287 0
M  V30 1763 C 160.502 -1.15151 4.88923 0
M  V30 1764 C 162.496 0.106412 6.37311 0
M  V30 1765 C 160.183 -0.520664 6.08878 0
M  V30 1766 C 161.181 0.107196 6.82916 0
M  V30 1767 O 160.869 0.728102 8.00596 0
M  V30 1768 H 160.601 -0.268408 0.62043 0
M  V30 1769 H 163.155 -0.179096 2.04618 0
M  V30 1770 H 161.385 -2.59976 2.86268 0
M  V30 1771 H 163.074 -2.43476 3.24768 0
M  V30 1772 H 163.84 -0.514606 4.82262 0
M  V30 1773 H 159.719 -1.62961 4.31236 0
M  V30 1774 H 163.263 0.597081 6.9504 0
M  V30 1775 H 159.16 -0.524242 6.43368 0
M  V30 1776 H 159.928 0.627138 8.16094 0
M  V30 1777 N 162.591 -1.51276 -0.441967 0
M  V30 1778 C 163.816 -1.67799 -1.21895 0
M  V30 1779 C 164.241 -0.372864 -1.84367 0
M  V30 1780 O 163.599 0.666501 -1.68604 0
M  V30 1781 C 163.647 -2.79199 -2.28211 0
M  V30 1782 O 162.751 -2.42479 -3.33583 0
M  V30 1783 H 162.092 -0.559649 -0.357336 0
M  V30 1784 H 164.622 -1.97815 -0.522522 0
M  V30 1785 H 164.632 -3.03146 -2.73069 0
M  V30 1786 H 163.307 -3.73906 -1.82118 0
M  V30 1787 H 161.884 -2.29087 -2.94234 0
M  V30 1788 N 164.069 0.697108 -1.41344 0
M  V30 1789 C 165.032 1.79281 -1.42797 0
M  V30 1790 C 166.032 1.57607 -0.318837 0
M  V30 1791 O 167.222 1.64309 -0.578642 0
M  V30 1792 C 164.354 3.17632 -1.23785 0
M  V30 1793 H 165.547 1.79385 -2.40335 0
M  V30 1794 H 163.1 0.904582 -1.27464 0
M  V30 1795 H 163.835 3.23167 -0.270814 0
M  V30 1796 H 163.62 3.34765 -2.04144 0
M  V30 1797 H 165.11 3.97617 -1.27633 0
M  V30 1798 N 165.547 1.27147 0.931209 0
M  V30 1799 C 166.824 1.0401 1.65654 0
M  V30 1800 C 167.204 -0.426297 2.06751 0
M  V30 1801 O 166.552 -1.40879 1.79904 0
M  V30 1802 C 166.762 1.99834 2.86125 0
M  V30 1803 C 168.11 2.29007 3.57549 0
M  V30 1804 O 169.134 1.97779 2.96246 0
M  V30 1805 O 167.993 2.82222 4.67989 0
M  V30 1806 H 165.087 0.396239 0.725895 0
M  V30 1807 H 167.633 1.38397 0.982056 0
M  V30 1808 H 166.405 2.98744 2.52721 0
M  V30 1809 H 166.028 1.65987 3.61295 0
M  V30 1810 N 167.025 -1.13721 1.09112 0
M  V30 1811 C 168.253 -1.88773 0.846899 0
M  V30 1812 C 168.668 -1.7896 -0.601572 0
M  V30 1813 O 168.025 -1.15394 -1.41388 0
M  V30 1814 C 168.076 -3.3849 1.26913 0
M  V30 1815 O 167.797 -3.48043 2.66079 0
M  V30 1816 C 169.298 -4.30518 1.05682 0
M  V30 1817 H 166.518 -0.59772 0.304914 0
M  V30 1818 H 169.062 -1.43977 1.45227 0
M  V30 1819 H 167.217 -3.80881 0.707723 0
M  V30 1820 H 167.631 -4.4109 2.83795 0
M  V30 1821 H 169.105 -5.3391 1.40156 0
M  V30 1822 H 169.582 -4.392 -0.00563416 0
M  V30 1823 H 170.188 -3.93893 1.60402 0
M  V30 1824 N 168.503 -0.877838 -1.30888 0
M  V30 1825 C 169.433 -0.35534 -2.3078 0
M  V30 1826 C 170.414 0.557994 -1.60687 0
M  V30 1827 O 171.599 0.473355 -1.88343 0
M  V30 1828 C 168.729 0.437221 -3.44537 0
M  V30 1829 C 167.683 -0.383715 -4.26276 0
M  V30 1830 C 167.009 0.535014 -5.32017 0
M  V30 1831 C 168.309 -1.62201 -4.96476 0
M  V30 1832 H 170.003 -1.19007 -2.74732 0
M  V30 1833 H 167.549 -0.573698 -1.32078 0
M  V30 1834 H 169.502 0.813334 -4.13477 0
M  V30 1835 H 168.226 1.30553 -2.99372 0
M  V30 1836 H 166.885 -0.741874 -3.59015 0
M  V30 1837 H 166.533 1.40083 -4.831 0
M  V30 1838 H 166.233 -0.0104211 -5.87599 0
M  V30 1839 H 167.757 0.907799 -6.03814 0
M  V30 1840 H 169.171 -1.31689 -5.5797 0
M  V30 1841 H 167.568 -2.10711 -5.61891 0
M  V30 1842 H 168.638 -2.37044 -4.23011 0
M  V30 1843 N 169.982 1.44106 -0.638065 0
M  V30 1844 C 170.945 2.29138 0.0531013 0
M  V30 1845 C 171.945 1.41409 0.765506 0
M  V30 1846 O 173.135 1.63206 0.609046 0
M  V30 1847 C 170.267 3.23144 1.08584 0
M  V30 1848 H 171.46 2.91739 -0.694883 0
M  V30 1849 H 169.013 1.51134 -0.398538 0
M  V30 1850 H 169.748 2.65408 1.86357 0
M  V30 1851 H 169.533 3.87804 0.578852 0
M  V30 1852 H 171.023 3.87004 1.56899 0
M  V30 1853 N 171.46 0.379036 1.52974 0
M  V30 1854 C 172.41 -0.477772 2.22938 0
M  V30 1855 C 173.394 -1.03792 1.22948 0
M  V30 1856 O 174.586 -0.965725 1.48333 0
M  V30 1857 C 171.715 -1.60994 3.03209 0
M  V30 1858 C 170.801 -1.06203 4.10587 0
M  V30 1859 N 171.192 -0.238214 5.05239 0
M  V30 1860 C 169.49 -1.33554 4.25534 0
M  V30 1861 C 170.191 0.0633235 5.81666 0
M  V30 1862 N 169.167 -0.537901 5.40932 0
M  V30 1863 H 172.969 0.158295 2.93473 0
M  V30 1864 H 170.483 0.187778 1.61311 0
M  V30 1865 H 172.48 -2.23607 3.5186 0
M  V30 1866 H 171.14 -2.24893 2.34207 0
M  V30 1867 H 172.151 0.123695 5.17752 0
M  V30 1868 H 168.828 -1.97632 3.6776 0
M  V30 1869 H 170.218 0.730161 6.67921 0
M  V30 1870 N 172.938 -1.57226 0.108567 0
M  V30 1871 C 173.888 -2.11305 -0.856396 0
M  V30 1872 C 174.872 -1.03129 -1.23504 0
M  V30 1873 O 176.064 -1.29381 -1.20787 0
M  V30 1874 C 173.193 -2.70771 -2.11041 0
M  V30 1875 C 172.279 -3.86011 -1.7566 0
M  V30 1876 N 172.67 -4.93492 -1.10902 0
M  V30 1877 C 170.968 -3.95999 -2.05185 0
M  V30 1878 C 171.669 -5.73984 -0.944308 0
M  V30 1879 N 170.645 -5.2346 -1.46596 0
M  V30 1880 H 174.447 -2.91784 -0.352002 0
M  V30 1881 H 171.961 -1.62126 -0.0942324 0
M  V30 1882 H 173.958 -3.07851 -2.81128 0
M  V30 1883 H 172.618 -1.91751 -2.62034 0
M  V30 1884 H 173.629 -5.1208 -0.774235 0
M  V30 1885 H 170.306 -3.28007 -2.58298 0
M  V30 1886 H 171.696 -6.70479 -0.436813 0
M  V30 1887 N 174.416 0.165178 -1.56732 0
M  V30 1888 C 175.364 1.22369 -1.97809 0
M  V30 1889 C 176.358 1.45488 -0.867741 0
M  V30 1890 O 177.564 1.45995 -1.05288 0
M  V30 1891 H 173.939 0.411486 -0.629431 0
M  V30 1892 H 175.91 0.850425 -2.86025 0
M  V30 1893 C 174.659 2.55403 -2.35934 0
M  V30 1894 H 173.982 2.38438 -3.20916 0
M  V30 1895 H 175.422 3.2814 -2.68514 0
M  V30 1896 C 173.881 3.14611 -1.20506 0
M  V30 1897 O 174.411 3.98626 -0.496016 0
M  V30 1898 N 172.617 2.7379 -0.97403 0
M  V30 1899 H 172.164 2.0557 -1.55238 0
M  V30 1900 H 172.122 3.1374 -0.203573 0
M  V30 1901 N 175.894 1.51508 0.433938 0
M  V30 1902 C 177.171 1.54888 1.19453 0
M  V30 1903 C 177.551 0.315154 2.08734 0
M  V30 1904 O 176.899 -0.699558 2.17528 0
M  V30 1905 C 177.109 2.86467 1.99342 0
M  V30 1906 C 178.457 3.38545 2.56267 0
M  V30 1907 O 179.481 2.88041 2.0955 0
M  V30 1908 O 178.34 4.26675 3.41483 0
M  V30 1909 H 175.434 0.622863 0.544032 0
M  V30 1910 H 177.98 1.63823 0.442732 0
M  V30 1911 H 176.752 3.67718 1.33788 0
M  V30 1912 H 176.375 2.8071 2.8158 0
M  V30 1913 N 177.372 -0.689602 1.41712 0
M  V30 1914 C 178.621 -1.44534 1.40686 0
M  V30 1915 C 178.934 -1.95588 0.0213352 0
M  V30 1916 O 180.14 -2.71271 -0.111534 0
M  V30 1917 C 178.596 -2.61387 2.47396 0
M  V30 1918 C 178.204 -2.17094 3.91885 0
M  V30 1919 C 179.948 -3.38986 2.55517 0
M  V30 1920 C 177.855 -3.3094 4.90135 0
M  V30 1921 H 176.785 -0.542925 0.52321 0
M  V30 1922 H 179.436 -0.748054 1.6756 0
M  V30 1923 H 177.818 -3.33412 2.13664 0
M  V30 1924 H 178.992 -1.52318 4.34897 0
M  V30 1925 H 177.307 -1.52473 3.8748 0
M  V30 1926 H 179.904 -4.23747 3.26102 0
M  V30 1927 H 180.247 -3.84578 1.59391 0
M  V30 1928 H 180.78 -2.74021 2.8837 0
M  V30 1929 H 177.519 -2.90355 5.87685 0
M  V30 1930 H 177.039 -3.94546 4.51767 0
M  V30 1931 H 178.718 -3.9663 5.11169 0
M  V30 1932 N 178.85 -1.27639 -0.924453 0
M  V30 1933 C 179.813 -1.10681 -2.00705 0
M  V30 1934 C 180.813 -0.0497823 -1.60723 0
M  V30 1935 O 182.003 -0.294654 -1.7169 0
M  V30 1936 C 179.135 -0.687164 -3.33902 0
M  V30 1937 H 180.328 -2.06817 -2.17179 0
M  V30 1938 H 177.881 -1.10473 -1.10569 0
M  V30 1939 H 178.616 0.275439 -3.23128 0
M  V30 1940 H 178.401 -1.45061 -3.6428 0
M  V30 1941 H 179.891 -0.590853 -4.13399 0
M  V30 1942 N 180.328 1.1314 -1.09713 0
M  V30 1943 C 181.258 2.20748 -0.761102 0
M  V30 1944 C 182.239 1.68061 0.262566 0
M  V30 1945 O 183.424 1.93765 0.129977 0
M  V30 1946 C 180.554 3.46812 -0.184054 0
M  V30 1947 C 179.508 4.12606 -1.13757 0
M  V30 1948 C 178.834 5.33031 -0.422083 0
M  V30 1949 C 180.134 4.59603 -2.48118 0
M  V30 1950 H 181.828 2.49113 -1.66082 0
M  V30 1951 H 179.374 1.19734 -0.799987 0
M  V30 1952 H 181.327 4.21353 0.0631215 0
M  V30 1953 H 180.051 3.17851 0.750868 0
M  V30 1954 H 178.71 3.40036 -1.37007 0
M  V30 1955 H 178.358 5.00335 0.517072 0
M  V30 1956 H 178.058 5.77999 -1.05788 0
M  V30 1957 H 179.582 6.10325 -0.183277 0
M  V30 1958 H 180.996 5.25552 -2.29059 0
M  V30 1959 H 179.393 5.15321 -3.07514 0
M  V30 1960 H 180.463 3.73971 -3.08665 0
M  V30 1961 N 181.806 0.884767 1.30421 0
M  V30 1962 C 182.736 0.367574 2.30589 0
M  V30 1963 C 183.717 -0.549464 1.60981 0
M  V30 1964 O 184.902 -0.46336 1.88591 0
M  V30 1965 C 182.032 -0.418944 3.44764 0
M  V30 1966 C 180.986 0.406316 4.26067 0
M  V30 1967 C 180.312 -0.506793 5.32293 0
M  V30 1968 C 181.612 1.64832 4.95608 0
M  V30 1969 H 183.306 1.20462 2.74097 0
M  V30 1970 H 180.852 0.580695 1.31772 0
M  V30 1971 H 182.805 -0.791395 4.13902 0
M  V30 1972 H 181.529 -1.28964 3.0006 0
M  V30 1973 H 180.188 0.760903 3.58617 0
M  V30 1974 H 179.836 -1.37519 4.83836 0
M  V30 1975 H 179.536 0.0415828 5.87585 0
M  V30 1976 H 181.06 -0.875764 6.04287 0
M  V30 1977 H 182.474 1.34646 5.57264 0
M  V30 1978 H 180.871 2.13688 5.60765 0
M  V30 1979 H 181.941 2.39284 4.21748 0
M  V30 1980 N 183.284 -1.43765 0.645699 0
M  V30 1981 C 184.231 -2.30745 -0.0504648 0
M  V30 1982 C 185.201 -1.4432 -0.822241 0
M  V30 1983 O 186.386 -1.73202 -0.800358 0
M  V30 1984 C 183.526 -3.29802 -1.0161 0
M  V30 1985 C 182.639 -4.31326 -0.241219 0
M  V30 1986 C 181.774 -5.17469 -1.19998 0
M  V30 1987 C 180.813 -6.10691 -0.415094 0
M  V30 1988 N 179.95 -6.89483 -1.32506 0
M  V30 1989 H 184.79 -2.8973 0.697155 0
M  V30 1990 H 182.327 -1.42738 0.355563 0
M  V30 1991 H 184.285 -3.85734 -1.58949 0
M  V30 1992 H 182.915 -2.72483 -1.73069 0
M  V30 1993 H 181.967 -3.77749 0.448334 0
M  V30 1994 H 183.279 -4.9743 0.369437 0
M  V30 1995 H 182.433 -5.7799 -1.84424 0
M  V30 1996 H 181.172 -4.51473 -1.84455 0
M  V30 1997 H 180.177 -5.49265 0.242565 0
M  V30 1998 H 181.402 -6.78727 0.224966 0
M  V30 1999 H 179.348 -6.26142 -1.95657 0
M  V30 2000 H 179.265 -7.52081 -0.768783 0
M  V30 2001 H 180.533 -7.54516 -1.9577 0
M  V30 2002 N 184.763 -0.387143 -1.52771 0
M  V30 2003 C 186.012 0.19697 -2.00736 0
M  V30 2004 C 186.325 1.48082 -1.27793 0
M  V30 2005 O 187.531 2.14485 -1.66458 0
M  V30 2006 C 185.987 0.401568 -3.57653 0
M  V30 2007 C 185.595 -0.868907 -4.39493 0
M  V30 2008 C 187.339 0.942164 -4.13912 0
M  V30 2009 C 185.246 -0.632705 -5.88006 0
M  V30 2010 H 184.176 0.0773827 -0.750019 0
M  V30 2011 H 186.827 -0.50921 -1.76293 0
M  V30 2012 H 185.209 1.16954 -3.78335 0
M  V30 2013 H 186.383 -1.64133 -4.30577 0
M  V30 2014 H 184.698 -1.33429 -3.94443 0
M  V30 2015 H 187.295 1.13455 -5.22525 0
M  V30 2016 H 187.638 1.9106 -3.69867 0
M  V30 2017 H 188.171 0.233814 -3.97112 0
M  V30 2018 H 184.91 -1.57208 -6.36369 0
M  V30 2019 H 184.43 0.100825 -5.99715 0
M  V30 2020 H 186.109 -0.26642 -6.46451 0
M  V30 2021 N 186.241 1.57166 -0.116904 0
M  V30 2022 C 187.657 1.5779 0.239693 0
M  V30 2023 C 187.857 1.1295 1.66867 0
M  V30 2024 O 186.913 0.81592 2.38954 0
M  V30 2025 C 188.226 3.00699 0.00828202 0
M  V30 2026 C 189.774 3.12912 0.0743438 0
M  V30 2027 C 190.249 4.57817 -0.129348 0
M  V30 2028 N 191.74 4.63139 -0.075247 0
M  V30 2029 C 192.475 5.73023 -0.207788 0
M  V30 2030 N 191.971 6.91665 -0.396382 0
M  V30 2031 N 193.764 5.61906 -0.14751 0
M  V30 2032 H 185.915 1.84615 -1.05029 0
M  V30 2033 H 188.178 0.85311 -0.41341 0
M  V30 2034 H 187.884 3.37784 -0.979531 0
M  V30 2035 H 187.758 3.69848 0.741077 0
M  V30 2036 H 190.145 2.75686 1.05268 0
M  V30 2037 H 190.226 2.4631 -0.690297 0
M  V30 2038 H 189.87 4.95742 -1.10465 0
M  V30 2039 H 189.8 5.22507 0.655253 0
M  V30 2040 H 192.291 3.7784 0.0670898 0
M  V30 2041 H 192.604 7.71255 -0.488437 0
M  V30 2042 H 190.949 6.93654 -0.432329 0
M  V30 2043 H 194.14 4.681 -0.00115036 0
M  V30 2044 H 194.313 6.47501 -0.254247 0
M  V30 2045 N 187.719 -0.156864 1.56817 0
M  V30 2046 C 188.944 -0.890331 1.87318 0
M  V30 2047 C 189.369 -1.74394 0.704855 0
M  V30 2048 O 188.727 -1.77972 -0.345786 0
M  V30 2049 C 188.775 -1.73102 3.16336 0
M  V30 2050 O 187.879 -2.83422 2.99576 0
M  V30 2051 H 187.22 -0.24857 0.615718 0
M  V30 2052 H 189.75 -0.150649 2.04045 0
M  V30 2053 H 189.76 -2.12803 3.48107 0
M  V30 2054 H 188.435 -1.10412 4.00976 0
M  V30 2055 H 187.012 -2.47199 2.7919 0
M  V30 2056 N 189.197 -1.51736 -0.425897 0
M  V30 2057 C 190.144 -1.73875 -1.51776 0
M  V30 2058 C 191.114 -0.580702 -1.55618 0
M  V30 2059 O 192.299 -0.81641 -1.72451 0
M  V30 2060 C 189.439 -1.88012 -2.89388 0
M  V30 2061 C 188.552 -3.15606 -2.94986 0
M  V30 2062 C 187.687 -3.20271 -4.23793 0
M  V30 2063 C 186.726 -4.42134 -4.23302 0
M  V30 2064 N 185.863 -4.44284 -5.43651 0
M  V30 2065 H 190.703 -2.67071 -1.32201 0
M  V30 2066 H 188.24 -1.32351 -0.642008 0
M  V30 2067 H 190.198 -1.9419 -3.69251 0
M  V30 2068 H 188.828 -0.98213 -3.07496 0
M  V30 2069 H 187.88 -3.18681 -2.07717 0
M  V30 2070 H 189.192 -4.05486 -2.90486 0
M  V30 2071 H 188.346 -3.25428 -5.12036 0
M  V30 2072 H 187.085 -2.28299 -4.30965 0
M  V30 2073 H 186.09 -4.3714 -3.3345 0
M  V30 2074 H 187.315 -5.35382 -4.17783 0
M  V30 2075 H 185.261 -3.55188 -5.51523 0
M  V30 2076 H 185.178 -5.27988 -5.41078 0
M  V30 2077 H 186.446 -4.53649 -6.33895 0
M  V30 2078 N 190.675 0.682077 -1.42076 0
M  V30 2079 C 191.585 1.82535 -1.47371 0
M  V30 2080 C 192.601 1.7017 -0.363079 0
M  V30 2081 O 193.777 1.91848 -0.612875 0
M  V30 2082 C 190.842 3.18624 -1.36674 0
M  V30 2083 C 189.903 3.42999 -2.58167 0
M  V30 2084 C 189.136 4.72595 -2.4797 0
M  V30 2085 O 189.359 5.50006 -1.5116 0
M  V30 2086 O 188.293 4.98054 -3.37974 0
M  V30 2087 H 192.119 1.81023 -2.43853 0
M  V30 2088 H 189.704 0.836887 -1.2376 0
M  V30 2089 H 191.586 3.99847 -1.33043 0
M  V30 2090 H 190.261 3.20789 -0.433138 0
M  V30 2091 H 189.168 2.61653 -2.67373 0
M  V30 2092 H 190.501 3.45659 -3.50401 0
M  V30 2093 N 192.153 1.28127 0.917671 0
M  V30 2094 C 193.401 1.14825 1.66312 0
M  V30 2095 C 193.722 -0.304379 1.9261 0
M  V30 2096 O 192.992 -1.21149 1.53947 0
M  V30 2097 H 191.572 0.421953 0.616413 0
M  V30 2098 H 194.234 1.608 1.10134 0
M  V30 2099 H 193.33 1.68489 2.62712 0
M  V30 2100 N 193.631 -1.12557 1.10312 0
M  V30 2101 C 195.047 -1.36036 0.834649 0
M  V30 2102 C 195.247 -1.93946 -0.546539 0
M  V30 2103 O 194.303 -2.16484 -1.29966 0
M  V30 2104 C 195.616 -2.30312 1.9333 0
M  V30 2105 C 197.164 -2.43906 1.9616 0
M  V30 2106 C 197.639 -3.41496 3.05195 0
M  V30 2107 N 199.13 -3.49053 3.04494 0
M  V30 2108 C 199.865 -4.24471 3.85502 0
M  V30 2109 N 199.361 -5.02966 4.76442 0
M  V30 2110 N 201.154 -4.19864 3.73725 0
M  V30 2111 H 193.305 -0.733246 1.99342 0
M  V30 2112 H 195.568 -0.385234 0.866198 0
M  V30 2113 H 195.274 -1.94933 2.92735 0
M  V30 2114 H 195.148 -3.30421 1.81939 0
M  V30 2115 H 197.535 -2.78567 0.973886 0
M  V30 2116 H 197.616 -1.4369 2.11629 0
M  V30 2117 H 197.26 -3.07565 4.04186 0
M  V30 2118 H 197.19 -4.41539 2.86968 0
M  V30 2119 H 199.681 -2.93053 2.38596 0
M  V30 2120 H 199.994 -5.57846 5.34815 0
M  V30 2121 H 198.339 -5.02167 4.80472 0
M  V30 2122 H 201.53 -3.57623 3.02032 0
M  V30 2123 H 201.703 -4.78386 4.37093 0
M  V30 2124 N 195.109 -0.891671 -1.2995 0
M  V30 2125 C 196.349 -0.520296 -1.97667 0
M  V30 2126 C 196.713 0.914797 -1.68806 0
M  V30 2127 O 197.914 1.39263 -2.29911 0
M  V30 2128 C 196.185 -0.795222 -3.48441 0
M  V30 2129 S 197.744 -0.526953 -4.35624 0
M  V30 2130 H 194.562 -0.19333 -0.684211 0
M  V30 2131 H 197.164 -1.15238 -1.57926 0
M  V30 2132 H 195.868 -1.83805 -3.66938 0
M  V30 2133 H 195.399 -0.15095 -3.9311 0
M  V30 2134 H 197.414 0.631533 -4.92165 0
M  V30 2135 N 196.587 1.43421 -0.653314 0
M  V30 2136 C 197.55 2.29182 0.0287951 0
M  V30 2137 C 198.55 1.42213 0.750465 0
M  V30 2138 O 199.74 1.63843 0.591701 0
M  V30 2139 C 196.872 3.24278 1.05151 0
M  V30 2140 H 198.065 2.90985 -0.725786 0
M  V30 2141 H 195.618 1.50702 -0.414545 0
M  V30 2142 H 196.353 2.6737 1.83532 0
M  V30 2143 H 196.138 3.88396 0.537687 0
M  V30 2144 H 197.628 3.88647 1.52786 0
M  V30 2145 N 198.065 0.39524 1.52563 0
M  V30 2146 C 198.997 -0.472201 2.24283 0
M  V30 2147 C 200.01 -1.02178 1.26742 0
M  V30 2148 O 201.199 -0.923097 1.52778 0
M  V30 2149 C 198.299 -1.66775 2.95024 0
M  V30 2150 C 197.472 -1.2445 4.19322 0
M  V30 2151 C 196.531 -2.30539 4.7301 0
M  V30 2152 O 195.557 -1.91702 5.35947 0
M  V30 2153 N 196.759 -3.6253 4.53379 0
M  V30 2154 H 199.524 0.142282 2.99362 0
M  V30 2155 H 197.085 0.2219 1.60372 0
M  V30 2156 H 199.077 -2.37283 3.27839 0
M  V30 2157 H 197.647 -2.18845 2.23217 0
M  V30 2158 H 196.867 -0.368069 3.92478 0
M  V30 2159 H 198.155 -0.938457 5.0007 0
M  V30 2160 H 197.553 -3.96841 4.03154 0
M  V30 2161 H 196.11 -4.29055 4.90668 0
M  V30 2162 N 199.544 -1.57102 0.125237 0
M  V30 2163 C 200.955 -1.82384 -0.399142 0
M  V30 2164 C 201.306 -1.04276 -1.66195 0
M  V30 2165 O 200.431 -0.281269 -2.14564 0
M  V30 2166 C 201.026 -3.30821 -0.730932 0
M  V30 2167 C 199.585 -3.56762 -1.19992 0
M  V30 2168 C 198.732 -2.7649 -0.211792 0
M  V30 2169 H 201.683 -1.54786 0.350277 0
M  V30 2170 H 201.704 -3.4579 -1.58775 0
M  V30 2171 H 201.216 -3.87643 0.188345 0
M  V30 2172 H 199.317 -3.05305 -2.13588 0
M  V30 2173 H 199.43 -4.65317 -1.14093 0
M  V30 2174 H 197.794 -2.4489 -0.700085 0
M  V30 2175 H 198.577 -3.36073 0.700691 0
M  V30 2176 N 201.022 0.148545 -1.56898 0
M  V30 2177 C 202.247 0.880385 -1.87787 0
M  V30 2178 C 202.672 1.74018 -0.714093 0
M  V30 2179 O 202.03 1.78153 0.336343 0
M  V30 2180 C 202.078 1.71422 -3.17249 0
M  V30 2181 O 201.182 2.8183 -3.01074 0
M  V30 2182 H 200.523 0.245301 -0.617028 0
M  V30 2183 H 203.053 0.139826 -2.04122 0
M  V30 2184 H 203.063 2.10954 -3.49231 0
M  V30 2185 H 201.738 1.08284 -4.01556 0
M  V30 2186 H 200.315 2.45715 -2.80497 0
M  V30 2187 N 202.5 1.5196 0.417844 0
M  V30 2188 C 203.916 1.40569 0.755816 0
M  V30 2189 C 204.116 0.503316 1.95113 0
M  V30 2190 O 203.172 -0.0341925 2.52477 0
M  V30 2191 C 204.485 2.82947 1.01791 0
M  V30 2192 C 206.033 2.92231 1.12116 0
M  V30 2193 C 206.508 4.35559 1.41608 0
M  V30 2194 N 207.999 4.38753 1.48491 0
M  V30 2195 C 208.734 5.46705 1.7292 0
M  V30 2196 N 208.23 6.64788 1.95011 0
M  V30 2197 N 210.023 5.34209 1.74863 0
M  V30 2198 H 202.174 2.09168 -0.369098 0
M  V30 2199 H 204.437 0.942409 -0.102809 0
M  V30 2200 H 204.143 3.5106 0.212081 0
M  V30 2201 H 204.017 3.23462 1.94042 0
M  V30 2202 H 206.404 2.24304 1.9176 0
M  V30 2203 H 206.485 2.55185 0.177225 0
M  V30 2204 H 206.129 5.04042 0.624848 0
M  V30 2205 H 206.059 4.70133 2.37239 0
M  V30 2206 H 208.55 3.5363 1.33244 0
M  V30 2207 H 208.863 7.42845 2.13076 0
M  V30 2208 H 207.208 6.67869 1.92293 0
M  V30 2209 H 210.399 4.40937 1.57137 0
M  V30 2210 H 210.572 6.18415 1.93563 0
M  V30 2211 N 203.978 -0.674533 1.42435 0
M  V30 2212 C 205.206 -1.46283 1.46317 0
M  V30 2213 C 205.621 -1.88653 0.0745836 0
M  V30 2214 O 204.978 -1.58151 -0.91074 0
M  V30 2215 C 205.029 -2.71178 2.3905 0
M  V30 2216 O 204.75 -2.30586 3.72507 0
M  V30 2217 C 206.251 -3.64738 2.51955 0
M  V30 2218 H 203.471 -0.450104 0.497642 0
M  V30 2219 H 206.015 -0.828792 1.86953 0
M  V30 2220 H 204.17 -3.3077 2.01667 0
M  V30 2221 H 204.584 -3.11241 4.22172 0
M  V30 2222 H 206.058 -4.49096 3.20962 0
M  V30 2223 H 206.535 -4.10656 1.55752 0
M  V30 2224 H 207.141 -3.11038 2.90061 0
M  V30 2225 N 205.456 -1.28612 -0.910864 0
M  V30 2226 C 206.705 -1.15311 -1.65488 0
M  V30 2227 C 207.018 0.296999 -1.93332 0
M  V30 2228 O 208.224 0.551168 -2.65847 0
M  V30 2229 C 206.68 -2.01599 -2.98137 0
M  V30 2230 C 206.288 -3.51367 -2.7793 0
M  V30 2231 C 208.032 -1.96993 -3.76024 0
M  V30 2232 C 205.939 -4.29797 -4.06237 0
M  V30 2233 H 204.869 -0.42796 -0.620779 0
M  V30 2234 H 207.52 -1.53166 -1.01057 0
M  V30 2235 H 205.902 -1.56603 -3.63719 0
M  V30 2236 H 207.076 -4.0434 -2.21011 0
M  V30 2237 H 205.391 -3.57529 -2.13452 0
M  V30 2238 H 207.988 -2.52856 -4.71135 0
M  V30 2239 H 208.331 -0.94733 -4.05378 0
M  V30 2240 H 208.864 -2.39973 -3.17266 0
M  V30 2241 H 205.603 -5.32648 -3.82055 0
M  V30 2242 H 205.123 -3.81596 -4.62757 0
M  V30 2243 H 206.802 -4.39869 -4.74473 0
M  V30 2244 N 206.934 1.1197 -1.10907 0
M  V30 2245 C 207.866 2.17592 -0.720175 0
M  V30 2246 C 208.879 1.60938 0.245495 0
M  V30 2247 O 210.068 1.78476 0.0292245 0
M  V30 2248 C 207.168 3.38873 -0.0427917 0
M  V30 2249 C 206.341 4.25006 -1.03388 0
M  V30 2250 C 205.4 5.24774 -0.387075 0
M  V30 2251 O 204.426 5.59631 -1.03934 0
M  V30 2252 N 205.628 5.74208 0.852407 0
M  V30 2253 H 208.393 2.51567 -1.62893 0
M  V30 2254 H 205.954 1.27439 -0.998543 0
M  V30 2255 H 207.946 4.02703 0.401501 0
M  V30 2256 H 206.516 3.03007 0.768456 0
M  V30 2257 H 205.736 3.57716 -1.65629 0
M  V30 2258 H 207.024 4.79397 -1.70458 0
M  V30 2259 H 206.422 5.48062 1.40161 0
M  V30 2260 H 204.979 6.39901 1.23977 0
M  V30 2261 N 208.412 0.89855 1.29475 0
M  V30 2262 C 209.64 0.539261 1.99749 0
M  V30 2263 C 210.055 -0.875716 1.67262 0
M  V30 2264 O 209.412 -1.57786 0.917049 0
M  V30 2265 C 209.463 0.72061 3.54245 0
M  V30 2266 O 209.184 2.07989 3.8558 0
M  V30 2267 C 210.685 0.366118 4.41786 0
M  V30 2268 H 207.905 0.207047 0.638258 0
M  V30 2269 H 210.449 1.20758 1.65039 0
M  V30 2270 H 208.604 0.0994862 3.87272 0
M  V30 2271 H 209.018 2.10841 4.80257 0
M  V30 2272 H 210.492 0.543848 5.49314 0
M  V30 2273 H 210.969 -0.696763 4.33638 0
M  V30 2274 H 211.575 0.964135 4.14228 0
M  V30 2275 N 209.89 -1.43072 0.660911 0
M  V30 2276 C 211.139 -2.00942 0.174735 0
M  V30 2277 C 211.452 -1.52797 -1.22117 0
M  V30 2278 O 212.658 -2.02991 -1.80297 0
M  V30 2279 C 211.114 -3.58948 0.261559 0
M  V30 2280 C 210.722 -4.16085 1.66064 0
M  V30 2281 C 212.466 -4.24173 -0.166617 0
M  V30 2282 C 210.373 -5.6641 1.70098 0
M  V30 2283 H 209.303 -0.751483 0.0615631 0
M  V30 2284 H 211.954 -1.63955 0.824069 0
M  V30 2285 H 210.336 -3.93372 -0.455421 0
M  V30 2286 H 211.51 -3.93147 2.40359 0
M  V30 2287 H 209.825 -3.6326 2.03546 0
M  V30 2288 H 212.422 -5.34471 -0.156433 0
M  V30 2289 H 212.765 -3.98647 -1.19943 0
M  V30 2290 H 213.298 -3.94659 0.498875 0
M  V30 2291 H 210.037 -5.96715 2.71315 0
M  V30 2292 H 209.557 -5.91382 1.00139 0
M  V30 2293 H 211.236 -6.30585 1.44816 0
M  V30 2294 N 211.368 -0.403325 -1.52352 0
M  V30 2295 C 212.608 0.173946 -2.03659 0
M  V30 2296 C 212.972 1.42869 -1.28267 0
M  V30 2297 O 214.173 2.08403 -1.69769 0
M  V30 2298 C 212.444 0.421478 -3.54906 0
M  V30 2299 S 214.003 0.967027 -4.28012 0
M  V30 2300 H 210.821 0.0477461 -0.709395 0
M  V30 2301 H 213.423 -0.554906 -1.87459 0
M  V30 2302 H 212.127 -0.498616 -4.0736 0
M  V30 2303 H 211.658 1.17837 -3.75337 0
M  V30 2304 H 213.673 2.24812 -4.4235 0
M  V30 2305 N 212.846 1.57033 -0.133567 0
M  V30 2306 C 213.776 2.1909 0.807567 0
M  V30 2307 C 214.757 1.13517 1.26681 0
M  V30 2308 O 215.942 1.41809 1.32679 0
M  V30 2309 C 213.072 2.80188 2.05212 0
M  V30 2310 C 212.026 3.91471 1.73015 0
M  V30 2311 C 211.352 4.39443 3.04622 0
M  V30 2312 C 212.652 5.12886 0.987168 0
M  V30 2313 H 214.346 2.97988 0.290403 0
M  V30 2314 H 211.892 1.43335 0.138239 0
M  V30 2315 H 213.845 3.22264 2.71521 0
M  V30 2316 H 212.569 1.98601 2.59278 0
M  V30 2317 H 211.228 3.49993 1.0909 0
M  V30 2318 H 210.876 3.54695 3.56651 0
M  V30 2319 H 210.576 5.14495 2.83847 0
M  V30 2320 H 212.1 4.8418 3.72024 0
M  V30 2321 H 213.514 5.51891 1.55208 0
M  V30 2322 H 211.911 5.93615 0.87985 0
M  V30 2323 H 212.981 4.84894 -0.0235286 0
M  V30 2324 N 214.325 -0.140222 1.56975 0
M  V30 2325 C 215.736 -0.699596 1.73097 0
M  V30 2326 C 216.087 -1.8134 0.749022 0
M  V30 2327 O 215.212 -2.16241 -0.0828503 0
M  V30 2328 C 215.807 -1.27582 3.1386 0
M  V30 2329 C 214.366 -1.78169 3.31561 0
M  V30 2330 C 213.513 -0.672855 2.69013 0
M  V30 2331 H 216.464 0.0855115 1.58469 0
M  V30 2332 H 216.485 -2.14561 3.14235 0
M  V30 2333 H 215.997 -0.464955 3.85305 0
M  V30 2334 H 214.098 -2.61801 2.65124 0
M  V30 2335 H 214.211 -1.90574 4.39566 0
M  V30 2336 H 212.575 -1.10118 2.29665 0
M  V30 2337 H 213.358 0.126679 3.43066 0
M  V30 2338 N 215.803 -1.52179 -0.40978 0
M  V30 2339 C 217.028 -1.70347 -1.18308 0
M  V30 2340 C 217.453 -0.411887 -1.83535 0
M  V30 2341 O 216.811 0.630587 -1.6998 0
M  V30 2342 C 216.859 -2.83977 -2.22238 0
M  V30 2343 O 215.963 -2.495 -3.28365 0
M  V30 2344 H 215.304 -0.567103 -0.345384 0
M  V30 2345 H 217.834 -1.98879 -0.480445 0
M  V30 2346 H 217.844 -3.0887 -2.66577 0
M  V30 2347 H 216.519 -3.77685 -1.74146 0
M  V30 2348 H 215.096 -2.35277 -2.89308 0
M  V30 2349 N 217.281 0.66697 -1.42791 0
M  V30 2350 C 218.214 1.79177 -1.41318 0
M  V30 2351 C 219.192 1.60234 -0.276401 0
M  V30 2352 O 220.376 1.82602 -0.46785 0
M  V30 2353 C 217.503 3.16289 -1.21157 0
M  V30 2354 C 216.549 3.53964 -2.37932 0
M  V30 2355 S 217.382 3.55501 -4.00474 0
M  V30 2356 C 218.538 4.95292 -3.8267 0
M  V30 2357 H 218.771 1.80153 -2.365 0
M  V30 2358 H 216.304 0.838357 -1.29657 0
M  V30 2359 H 218.262 3.95428 -1.10212 0
M  V30 2360 H 216.923 3.1289 -0.275481 0
M  V30 2361 H 216.116 4.53646 -2.19594 0
M  V30 2362 H 215.718 2.82204 -2.45432 0
M  V30 2363 H 218.01 5.83584 -3.44145 0
M  V30 2364 H 218.953 5.18679 -4.82055 0
M  V30 2365 H 219.361 4.68179 -3.15386 0
M  V30 2366 N 218.759 1.29093 0.90403 0
M  V30 2367 C 219.989 1.19516 1.68522 0
M  V30 2368 C 220.397 -0.24738 1.87576 0
M  V30 2369 O 219.74 -1.17798 1.40959 0
M  V30 2370 C 219.802 1.83249 3.0929 0
M  V30 2371 C 219.466 3.32531 3.13484 0
M  V30 2372 C 220.463 4.28821 2.93953 0
M  V30 2373 C 218.148 3.73656 3.35688 0
M  V30 2374 C 220.142 5.64212 2.96553 0
M  V30 2375 C 217.829 5.0917 3.37919 0
M  V30 2376 C 218.827 6.04258 3.18373 0
M  V30 2377 O 218.515 7.37298 3.20385 0
M  V30 2378 H 218.247 0.415467 0.533257 0
M  V30 2379 H 220.801 1.70912 1.13922 0
M  V30 2380 H 219.031 1.26358 3.65473 0
M  V30 2381 H 220.72 1.68054 3.69476 0
M  V30 2382 H 221.486 3.98382 2.76616 0
M  V30 2383 H 217.365 3.00101 3.49943 0
M  V30 2384 H 220.909 6.38407 2.81216 0
M  V30 2385 H 216.806 5.39256 3.54787 0
M  V30 2386 H 217.574 7.46048 3.36681 0
M  V30 2387 N 220.237 -1.11381 1.11499 0
M  V30 2388 C 221.185 -2.19522 0.768956 0
M  V30 2389 C 222.179 -1.67693 -0.239857 0
M  V30 2390 O 223.385 -1.79727 -0.0990755 0
M  V30 2391 H 219.76 -0.715711 0.230786 0
M  V30 2392 H 221.731 -2.45954 1.68964 0
M  V30 2393 C 220.48 -3.46945 0.229073 0
M  V30 2394 H 219.803 -3.8718 0.996596 0
M  V30 2395 H 221.243 -4.23993 0.0251441 0
M  V30 2396 C 219.702 -3.2042 -1.04079 0
M  V30 2397 O 220.232 -3.41178 -2.12038 0
M  V30 2398 N 218.438 -2.74151 -0.963823 0
M  V30 2399 H 217.985 -2.57459 -0.0851722 0
M  V30 2400 H 217.943 -2.56781 -1.81414 0
M  V30 2401 N 221.715 -0.905404 -1.28997 0
M  V30 2402 C 222.992 -0.453513 -1.9027 0
M  V30 2403 C 223.372 1.06721 -1.82137 0
M  V30 2404 O 222.72 1.91159 -1.25182 0
M  V30 2405 C 222.93 -0.974494 -3.35119 0
M  V30 2406 C 224.278 -1.0216 -4.12127 0
M  V30 2407 O 225.302 -0.922557 -3.44046 0
M  V30 2408 O 224.161 -1.17121 -5.33802 0
M  V30 2409 H 221.255 -0.142347 -0.814657 0
M  V30 2410 H 223.801 -0.995642 -1.37423 0
M  V30 2411 H 222.573 -2.01848 -3.35221 0
M  V30 2412 H 222.196 -0.412706 -3.95452 0
M  V30 2413 N 223.193 1.4272 -0.668489 0
M  V30 2414 C 224.604 1.84793 -0.266151 0
M  V30 2415 C 224.955 1.55959 1.19043 0
M  V30 2416 O 224.08 1.01622 1.91055 0
M  V30 2417 C 224.675 3.35436 -0.476271 0
M  V30 2418 C 223.234 3.76182 -0.128113 0
M  V30 2419 C 222.381 2.66344 -0.771777 0
M  V30 2420 H 225.332 1.32656 -0.871098 0
M  V30 2421 H 225.353 3.79515 0.273561 0
M  V30 2422 H 224.865 3.5639 -1.53647 0
M  V30 2423 H 222.966 3.60836 0.928891 0
M  V30 2424 H 223.079 4.75766 -0.564231 0
M  V30 2425 H 221.443 2.53885 -0.203652 0
M  V30 2426 H 222.226 2.90123 -1.83531 0
M  V30 2427 N 224.671 0.411399 1.52136 0
M  V30 2428 C 225.603 -0.448386 2.24771 0
M  V30 2429 C 226.616 -1.00828 1.27818 0
M  V30 2430 O 227.805 -0.906841 1.53749 0
M  V30 2431 C 224.905 -1.63636 2.96777 0
M  V30 2432 C 224.078 -1.19995 4.20618 0
M  V30 2433 C 223.137 -2.25509 4.75428 0
M  V30 2434 O 222.163 -1.86007 5.3795 0
M  V30 2435 N 223.365 -3.577 4.57199 0
M  V30 2436 H 226.13 0.174025 2.99194 0
M  V30 2437 H 223.691 0.238897 1.60128 0
M  V30 2438 H 225.683 -2.33793 3.30338 0
M  V30 2439 H 224.253 -2.16465 2.25526 0
M  V30 2440 H 223.473 -0.326421 3.92846 0
M  V30 2441 H 224.761 -0.885365 5.01038 0
M  V30 2442 H 224.159 -3.92543 4.07341 0
M  V30 2443 H 222.716 -4.23827 4.95191 0
M  V30 2444 N 226.149 -1.5696 0.141893 0
M  V30 2445 C 227.396 -1.9596 -0.510492 0
M  V30 2446 C 227.724 -1.02648 -1.65208 0
M  V30 2447 O 226.979 -0.0546947 -1.95624 0
M  V30 2448 C 227.278 -3.41242 -1.06249 0
M  V30 2449 C 226.944 -4.50882 -0.0398791 0
M  V30 2450 C 225.606 -4.80595 0.241247 0
M  V30 2451 C 227.958 -5.17058 0.65578 0
M  V30 2452 C 225.286 -5.73792 1.22393 0
M  V30 2453 C 227.638 -6.11313 1.62724 0
M  V30 2454 C 226.302 -6.39407 1.91612 0
M  V30 2455 H 225.572 -0.717068 -0.186802 0
M  V30 2456 H 228.219 -1.90142 0.227643 0
M  V30 2457 H 226.524 -3.43866 -1.87785 0
M  V30 2458 H 228.221 -3.68742 -1.57576 0
M  V30 2459 H 224.811 -4.27754 -0.269174 0
M  V30 2460 H 228.995 -4.94239 0.451779 0
M  V30 2461 H 224.251 -5.93853 1.45424 0
M  V30 2462 H 228.425 -6.61668 2.17183 0
M  V30 2463 H 226.052 -7.11427 2.6791 0
M  V30 2464 N 227.627 0.131896 -1.57047 0
M  V30 2465 C 228.875 0.840269 -1.83804 0
M  V30 2466 C 229.196 1.81017 -0.72512 0
M  V30 2467 O 228.466 1.94272 0.251995 0
M  V30 2468 H 227.046 0.313294 -0.678127 0
M  V30 2469 H 229.708 0.122294 -1.94516 0
M  V30 2470 H 228.804 1.39335 -2.79271 0
M  V30 2471 N 229.106 1.52395 0.401703 0
M  V30 2472 C 230.334 1.70676 1.16949 0
M  V30 2473 C 230.749 0.419503 1.8408 0
M  V30 2474 O 230.106 -0.605061 1.72178 0
M  V30 2475 C 230.157 2.84753 2.22706 0
M  V30 2476 O 229.878 4.08495 1.58314 0
M  V30 2477 C 231.379 3.14608 3.12309 0
M  V30 2478 H 228.599 0.571787 0.351142 0
M  V30 2479 H 231.143 1.98987 0.471652 0
M  V30 2480 H 229.298 2.58941 2.88147 0
M  V30 2481 H 229.712 4.72117 2.28485 0
M  V30 2482 H 231.186 3.97923 3.82572 0
M  V30 2483 H 231.663 2.28464 3.75101 0
M  V30 2484 H 232.269 3.42212 2.52529 0
M  V30 2485 N 230.584 -0.659388 1.43143 0
M  V30 2486 C 231.809 -1.45221 1.48073 0
M  V30 2487 C 232.234 -1.87845 0.097995 0
M  V30 2488 O 231.592 -1.56985 -0.90694 0
M  V30 2489 C 231.64 -2.66748 2.42647 0
M  V30 2490 O 230.744 -3.65583 1.90848 0
M  V30 2491 H 230.085 -0.435669 0.501088 0
M  V30 2492 H 232.615 -0.807432 1.87994 0
M  V30 2493 H 232.625 -3.14637 2.59745 0
M  V30 2494 H 231.3 -2.35067 3.43098 0
M  V30 2495 H 229.877 -3.24693 1.83381 0
M  V30 2496 N 232.062 -1.29571 -0.897171 0
M  V30 2497 C 233.302 -1.18959 -1.66217 0
M  V30 2498 C 233.666 0.254271 -1.90309 0
M  V30 2499 O 234.867 0.483407 -2.64417 0
M  V30 2500 C 233.138 -1.98302 -2.9734 0
M  V30 2501 S 234.697 -2.04253 -3.88364 0
M  V30 2502 H 231.515 -0.424137 -0.570639 0
M  V30 2503 H 234.117 -1.6389 -1.06585 0
M  V30 2504 H 232.821 -3.02342 -2.77521 0
M  V30 2505 H 232.352 -1.53986 -3.62011 0
M  V30 2506 H 234.367 -1.16105 -4.82425 0
M  V30 2507 N 233.54 1.10788 -1.12088 0
M  V30 2508 C 234.45 2.20599 -0.798338 0
M  V30 2509 C 235.466 1.72712 0.21135 0
M  V30 2510 O 236.642 2.01348 0.0458477 0
M  V30 2511 C 233.707 3.45771 -0.253674 0
M  V30 2512 C 232.768 4.08411 -1.32283 0
M  V30 2513 C 232.001 5.27608 -0.80406 0
M  V30 2514 O 232.224 5.69241 0.363478 0
M  V30 2515 O 231.158 5.8101 -1.57198 0
M  V30 2516 H 234.984 2.50614 -1.7154 0
M  V30 2517 H 232.569 1.19454 -0.897275 0
M  V30 2518 H 234.451 4.21376 0.0453691 0
M  V30 2519 H 233.126 3.1739 0.636005 0
M  V30 2520 H 232.033 3.34507 -1.67499 0
M  V30 2521 H 233.366 4.40986 -2.18614 0
M  V30 2522 N 235.018 0.912232 1.28515 0
M  V30 2523 C 236.267 0.540504 1.94323 0
M  V30 2524 C 236.58 -0.920044 1.72611 0
M  V30 2525 O 237.786 -1.39986 2.32629 0
M  V30 2526 C 236.242 0.915803 3.48053 0
M  V30 2527 C 235.85 2.39598 3.78546 0
M  V30 2528 C 237.594 0.614588 4.20027 0
M  V30 2529 C 235.501 2.71148 5.25578 0
M  V30 2530 H 234.431 0.198418 0.727424 0
M  V30 2531 H 237.082 1.11094 1.46049 0
M  V30 2532 H 235.464 0.274168 3.9505 0
M  V30 2533 H 236.638 3.08422 3.42364 0
M  V30 2534 H 234.953 2.66749 3.1974 0
M  V30 2535 H 237.55 0.827002 5.28266 0
M  V30 2536 H 237.893 -0.447531 4.13887 0
M  V30 2537 H 238.426 1.21462 3.78803 0
M  V30 2538 H 235.165 3.76207 5.36794 0
M  V30 2539 H 234.685 2.0696 5.62963 0
M  V30 2540 H 236.364 2.58072 5.93302 0
M  V30 2541 N 236.496 -1.42363 0.676048 0
M  V30 2542 C 237.724 -2.05859 0.207268 0
M  V30 2543 C 238.139 -1.50796 -1.13605 0
M  V30 2544 O 237.496 -0.648265 -1.70598 0
M  V30 2545 C 237.547 -3.61248 0.134975 0
M  V30 2546 O 237.268 -4.1427 1.42521 0
M  V30 2547 C 238.769 -4.41859 -0.357151 0
M  V30 2548 H 235.989 -0.663431 0.100503 0
M  V30 2549 H 238.533 -1.82479 0.923136 0
M  V30 2550 H 236.688 -3.83735 -0.531588 0
M  V30 2551 H 237.102 -5.0815 1.29939 0
M  V30 2552 H 238.576 -5.50847 -0.356641 0
M  V30 2553 H 239.053 -4.16536 -1.39264 0
M  V30 2554 H 239.659 -4.24392 0.27772 0
M  V30 2555 N 237.974 -0.419461 -1.51915 0
M  V30 2556 C 239.222 0.152637 -2.01523 0
M  V30 2557 C 239.543 1.44762 -1.30649 0
M  V30 2558 O 238.813 1.90997 -0.435535 0
M  V30 2559 H 237.393 0.0593966 -0.744635 0
M  V30 2560 H 240.055 -0.558073 -1.86739 0
M  V30 2561 H 239.151 0.341369 -3.10227 0
M  V30 2562 N 239.452 1.56882 -0.150215 0
M  V30 2563 C 240.699 1.96228 0.500093 0
M  V30 2564 C 241.027 1.03522 1.64661 0
M  V30 2565 O 240.282 0.0650683 1.95592 0
M  V30 2566 C 240.581 3.41801 1.04437 0
M  V30 2567 C 240.247 4.50897 0.0159671 0
M  V30 2568 C 238.909 4.8046 -0.266731 0
M  V30 2569 C 241.261 5.16703 -0.683192 0
M  V30 2570 C 238.589 5.73135 -1.25434 0
M  V30 2571 C 240.941 6.10441 -1.65964 0
M  V30 2572 C 239.605 6.38382 -1.95 0
M  V30 2573 H 238.875 0.718048 0.182997 0
M  V30 2574 H 241.522 1.90019 -0.237724 0
M  V30 2575 H 239.827 3.44857 1.85959 0
M  V30 2576 H 241.524 3.69573 1.55618 0
M  V30 2577 H 238.114 4.27891 0.246485 0
M  V30 2578 H 242.298 4.93993 -0.477983 0
M  V30 2579 H 237.554 5.93074 -1.48571 0
M  V30 2580 H 241.728 6.60507 -2.20689 0
M  V30 2581 H 239.355 7.09996 -2.71679 0
M  V30 2582 N 240.93 -0.123565 1.57115 0
M  V30 2583 C 242.178 -0.83051 1.84247 0
M  V30 2584 C 242.499 -1.80629 0.73471 0
M  V30 2585 O 241.769 -1.94403 -0.241688 0
M  V30 2586 H 240.349 -0.309694 0.679778 0
M  V30 2587 H 243.011 -0.111976 1.94578 0
M  V30 2588 H 242.107 -1.37852 2.80006 0
M  V30 2589 N 242.408 -1.52605 -0.393616 0
M  V30 2590 C 243.355 -1.77055 -1.48054 0
M  V30 2591 C 244.325 -0.61358 -1.54352 0
M  V30 2592 O 245.51 -0.852806 -1.70681 0
M  V30 2593 C 242.65 -1.94108 -2.85335 0
M  V30 2594 C 241.763 -3.21792 -2.88226 0
M  V30 2595 C 240.898 -3.29188 -4.16904 0
M  V30 2596 C 239.937 -4.51013 -4.13828 0
M  V30 2597 N 239.074 -4.55716 -5.34105 0
M  V30 2598 H 243.914 -2.69815 -1.26506 0
M  V30 2599 H 241.451 -1.33683 -0.61379 0
M  V30 2600 H 243.409 -2.01979 -3.65049 0
M  V30 2601 H 242.039 -1.04713 -3.05344 0
M  V30 2602 H 241.091 -3.23015 -2.00911 0
M  V30 2603 H 242.403 -4.11557 -2.8182 0
M  V30 2604 H 241.557 -3.36216 -5.05018 0
M  V30 2605 H 240.296 -2.37389 -4.26026 0
M  V30 2606 H 239.301 -4.44115 -3.24102 0
M  V30 2607 H 240.526 -5.44123 -4.06333 0
M  V30 2608 H 238.472 -3.66807 -5.43865 0
M  V30 2609 H 238.389 -5.39346 -5.29756 0
M  V30 2610 H 239.657 -4.66993 -6.2413 0
M  V30 2611 N 243.887 0.651787 -1.4349 0
M  V30 2612 C 244.797 1.79368 -1.5121 0
M  V30 2613 C 245.813 1.69361 -0.399093 0
M  V30 2614 O 246.989 1.90505 -0.653431 0
M  V30 2615 C 244.054 3.15653 -1.43401 0
M  V30 2616 C 243.115 3.37446 -2.65384 0
M  V30 2617 C 242.348 4.67229 -2.57939 0
M  V30 2618 O 242.571 5.46676 -1.62792 0
M  V30 2619 O 241.505 4.90773 -3.48462 0
M  V30 2620 H 245.331 1.7581 -2.47638 0
M  V30 2621 H 242.916 0.810447 -1.25507 0
M  V30 2622 H 244.798 3.96935 -1.41494 0
M  V30 2623 H 243.473 3.19798 -0.501085 0
M  V30 2624 H 242.38 2.55923 -2.72863 0
M  V30 2625 H 243.713 3.38148 -3.57654 0
M  V30 2626 N 245.365 1.30045 0.890287 0
M  V30 2627 C 246.313 1.15873 2.01683 0
M  V30 2628 C 247.307 0.0719403 1.69247 0
M  V30 2629 O 248.513 0.232414 1.78493 0
M  V30 2630 H 244.888 0.358203 0.661207 0
M  V30 2631 H 246.859 2.11229 2.10772 0
M  V30 2632 C 245.608 0.861842 3.36849 0
M  V30 2633 H 244.931 1.69016 3.62317 0
M  V30 2634 H 246.371 0.802762 4.16331 0
M  V30 2635 C 244.83 -0.435132 3.34078 0
M  V30 2636 O 245.36 -1.4583 3.74295 0
M  V30 2637 N 243.566 -0.444377 2.87182 0
M  V30 2638 H 243.113 0.388723 2.5465 0
M  V30 2639 H 243.071 -1.31213 2.85711 0
M  V30 2640 N 246.843 -1.10192 1.12674 0
M  V30 2641 C 248.068 -1.86523 0.906853 0
M  V30 2642 C 248.493 -1.80221 -0.538711 0
M  V30 2643 O 247.851 -1.17396 -1.38158 0
M  V30 2644 C 247.899 -3.32758 1.3894 0
M  V30 2645 O 247.003 -4.08449 0.5695 0
M  V30 2646 H 246.344 -0.578678 0.325619 0
M  V30 2647 H 248.874 -1.39203 1.49946 0
M  V30 2648 H 248.884 -3.83608 1.38958 0
M  V30 2649 H 247.559 -3.36661 2.44197 0
M  V30 2650 H 246.136 -3.67427 0.636528 0
M  V30 2651 N 248.321 -0.919034 -1.28029 0
M  V30 2652 C 249.549 -0.570971 -1.98866 0
M  V30 2653 C 249.964 0.848996 -1.68634 0
M  V30 2654 O 249.321 1.56307 -0.942036 0
M  V30 2655 C 249.372 -0.776876 -3.53054 0
M  V30 2656 O 249.093 -2.14097 -3.82222 0
M  V30 2657 C 250.594 -0.436356 -4.41147 0
M  V30 2658 H 247.814 -0.217175 -0.634883 0
M  V30 2659 H 250.358 -1.23368 -1.63097 0
M  V30 2660 H 248.513 -0.161085 -3.87065 0
M  V30 2661 H 248.927 -2.18455 -4.76841 0
M  V30 2662 H 250.401 -0.63117 -5.4838 0
M  V30 2663 H 250.878 0.627686 -4.34692 0
M  V30 2664 H 251.484 -1.02991 -4.12641 0
M  V30 2665 N 249.799 1.42003 -0.683588 0
M  V30 2666 C 251.076 1.95112 -0.138075 0
M  V30 2667 C 251.456 1.62359 1.34918 0
M  V30 2668 O 250.804 0.924311 2.08971 0
M  V30 2669 C 251.014 3.46505 -0.416581 0
M  V30 2670 C 252.362 4.23254 -0.337834 0
M  V30 2671 O 253.386 3.54468 -0.35082 0
M  V30 2672 O 252.245 5.45743 -0.287596 0
M  V30 2673 H 249.339 0.826961 -0.00797996 0
M  V30 2674 H 251.885 1.51784 -0.758924 0
M  V30 2675 H 250.657 3.63582 -1.4465 0
M  V30 2676 H 250.28 3.969 0.235839 0
M  V30 2677 N 251.277 0.427512 1.51691 0
M  V30 2678 C 252.507 -0.140986 2.06118 0
M  V30 2679 C 252.915 -1.37854 1.29588 0
M  V30 2680 O 252.258 -1.80411 0.346036 0
M  V30 2681 C 252.32 -0.538276 3.55447 0
M  V30 2682 C 251.984 0.591095 4.53161 0
M  V30 2683 C 252.981 1.46027 4.98971 0
M  V30 2684 C 250.666 0.769028 4.96378 0
M  V30 2685 C 252.66 2.49216 5.8666 0
M  V30 2686 C 250.347 1.80421 5.83859 0
M  V30 2687 C 251.345 2.66417 6.28897 0
M  V30 2688 O 251.033 3.68159 7.14643 0
M  V30 2689 H 250.765 -0.0157455 0.675817 0
M  V30 2690 H 253.319 0.602495 1.96365 0
M  V30 2691 H 251.549 -1.33432 3.6295 0
M  V30 2692 H 253.238 -1.0368 3.92435 0
M  V30 2693 H 254.004 1.33429 4.66285 0
M  V30 2694 H 249.883 0.109273 4.6087 0
M  V30 2695 H 253.427 3.16372 6.21735 0
M  V30 2696 H 249.324 1.93042 6.15959 0
M  V30 2697 H 250.092 3.64622 7.32798 0
M  V30 2698 N 252.755 -1.56801 0.158532 0
M  V30 2699 C 253.685 -2.20347 -0.772609 0
M  V30 2700 C 254.666 -1.15518 -1.24859 0
M  V30 2701 O 255.851 -1.43902 -1.30406 0
M  V30 2702 C 252.981 -2.83417 -2.00729 0
M  V30 2703 C 251.935 -3.94174 -1.66765 0
M  V30 2704 C 251.261 -4.44233 -2.97592 0
M  V30 2705 C 252.561 -5.14392 -0.905447 0
M  V30 2706 H 254.255 -2.98413 -0.242959 0
M  V30 2707 H 251.801 -1.43537 -0.115419 0
M  V30 2708 H 253.754 -3.26543 -2.6636 0
M  V30 2709 H 252.478 -2.02701 -2.56086 0
M  V30 2710 H 251.137 -3.51684 -1.03508 0
M  V30 2711 H 250.785 -3.60325 -3.50963 0
M  V30 2712 H 250.485 -5.18945 -2.75626 0
M  V30 2713 H 252.009 -4.90037 -3.64274 0
M  V30 2714 H 253.423 -5.5429 -1.46408 0
M  V30 2715 H 251.82 -5.9494 -0.7853 0
M  V30 2716 H 252.89 -4.84795 0.100668 0
M  V30 2717 N 254.233 0.115231 -1.57178 0
M  V30 2718 C 255.463 0.835224 -1.88964 0
M  V30 2719 C 255.871 1.73774 -0.74829 0
M  V30 2720 O 255.214 1.81401 0.289739 0
M  V30 2721 C 255.276 1.7178 -3.15804 0
M  V30 2722 C 254.94 0.989198 -4.46166 0
M  V30 2723 C 255.937 0.328263 -5.18863 0
M  V30 2724 C 253.622 0.969256 -4.9286 0
M  V30 2725 C 255.616 -0.342873 -6.36477 0
M  V30 2726 C 253.303 0.294324 -6.10391 0
M  V30 2727 C 254.301 -0.360582 -6.82048 0
M  V30 2728 O 253.989 -1.02474 -7.97342 0
M  V30 2729 H 253.721 0.245197 -0.629964 0
M  V30 2730 H 256.275 0.10303 -2.05141 0
M  V30 2731 H 254.505 2.49173 -2.95719 0
M  V30 2732 H 256.194 2.31255 -3.33581 0
M  V30 2733 H 256.96 0.335263 -4.8384 0
M  V30 2734 H 252.839 1.46844 -4.36987 0
M  V30 2735 H 256.383 -0.854629 -6.92345 0
M  V30 2736 H 252.28 0.285099 -6.4487 0
M  V30 2737 H 253.048 -0.929594 -8.13204 0
M  V30 2738 N 255.711 1.52812 0.385517 0
M  V30 2739 C 257.122 1.5993 0.963293 0
M  V30 2740 C 257.473 0.454302 1.90868 0
M  V30 2741 O 256.598 -0.422132 2.12243 0
M  V30 2742 C 257.193 2.89871 1.75387 0
M  V30 2743 C 255.752 2.99389 2.28129 0
M  V30 2744 C 254.899 2.55071 1.08783 0
M  V30 2745 H 257.85 1.5784 0.164948 0
M  V30 2746 H 257.871 2.76553 2.61341 0
M  V30 2747 H 257.383 3.73186 1.06554 0
M  V30 2748 H 255.484 2.20619 3.00263 0
M  V30 2749 H 255.597 4.04096 2.57377 0
M  V30 2750 H 253.961 2.09473 1.4489 0
M  V30 2751 H 254.744 3.40785 0.414807 0
M  V30 2752 N 257.189 -0.644168 1.43834 0
M  V30 2753 C 258.099 -1.78563 1.52159 0
M  V30 2754 C 259.115 -1.69147 0.408069 0
M  V30 2755 O 260.291 -1.90156 0.663524 0
M  V30 2756 C 257.356 -3.14888 1.45073 0
M  V30 2757 C 256.417 -3.36034 2.6717 0
M  V30 2758 C 255.65 -4.65855 2.60413 0
M  V30 2759 O 255.873 -5.45805 1.65689 0
M  V30 2760 O 254.807 -4.88918 3.5106 0
M  V30 2761 H 258.633 -1.74494 2.48567 0
M  V30 2762 H 256.218 -0.80378 1.25935 0
M  V30 2763 H 258.1 -3.96179 1.43597 0
M  V30 2764 H 256.775 -3.19528 0.518037 0
M  V30 2765 H 255.682 -2.54472 2.74217 0
M  V30 2766 H 257.015 -3.36247 3.59442 0
M  V30 2767 N 258.668 -1.30515 -0.883378 0
M  V30 2768 C 259.6 -1.12846 -1.99496 0
M  V30 2769 C 260.613 -0.0712571 -1.62644 0
M  V30 2770 O 261.802 -0.317432 -1.75655 0
M  V30 2771 C 258.902 -0.699123 -3.3161 0
M  V30 2772 C 258.075 -1.83842 -3.96889 0
M  V30 2773 C 257.134 -1.39737 -5.07307 0
M  V30 2774 O 256.16 -2.10485 -5.28852 0
M  V30 2775 N 257.362 -0.277279 -5.79837 0
M  V30 2776 H 260.127 -2.08585 -2.15203 0
M  V30 2777 H 257.688 -1.22672 -1.05656 0
M  V30 2778 H 259.68 -0.387044 -4.02845 0
M  V30 2779 H 258.25 0.166276 -3.12157 0
M  V30 2780 H 257.47 -2.31853 -3.18807 0
M  V30 2781 H 258.758 -2.60187 -4.37241 0
M  V30 2782 H 258.156 0.3122 -5.64838 0
M  V30 2783 H 256.713 -0.0246623 -6.51795 0
M  V30 2784 N 260.146 1.09593 -1.13257 0
M  V30 2785 C 261.076 2.18214 -0.830946 0
M  V30 2786 C 262.057 1.68812 0.208966 0
M  V30 2787 O 263.242 1.9408 0.0682666 0
M  V30 2788 C 260.372 3.46051 -0.294296 0
M  V30 2789 C 259.326 4.08778 -1.26826 0
M  V30 2790 C 258.652 5.31419 -0.591449 0
M  V30 2791 C 259.952 4.51476 -2.62615 0
M  V30 2792 H 261.646 2.43703 -1.73923 0
M  V30 2793 H 259.192 1.17128 -0.837675 0
M  V30 2794 H 261.145 4.2134 -0.0709606 0
M  V30 2795 H 259.869 3.20079 0.649366 0
M  V30 2796 H 258.528 3.35505 -1.47756 0
M  V30 2797 H 258.176 5.01727 0.357633 0
M  V30 2798 H 257.876 5.74341 -1.24123 0
M  V30 2799 H 259.4 6.09433 -0.377355 0
M  V30 2800 H 260.814 5.17999 -2.45663 0
M  V30 2801 H 259.211 5.05277 -3.23752 0
M  V30 2802 H 260.281 3.63962 -3.20406 0
M  V30 2803 N 261.624 0.925811 1.2754 0
M  V30 2804 C 262.571 0.422045 2.26908 0
M  V30 2805 C 263.541 -0.510029 1.58076 0
M  V30 2806 O 264.726 -0.429599 1.85901 0
M  V30 2807 C 261.866 -0.320837 3.43605 0
M  V30 2808 C 260.979 0.64513 4.27156 0
M  V30 2809 C 260.114 -0.117405 5.3107 0
M  V30 2810 C 259.153 0.841391 6.0629 0
M  V30 2811 N 258.29 0.111604 7.02011 0
M  V30 2812 H 263.13 1.27441 2.69375 0
M  V30 2813 H 260.667 0.639697 1.32462 0
M  V30 2814 H 262.625 -0.76785 4.10073 0
M  V30 2815 H 261.255 -1.13745 3.02096 0
M  V30 2816 H 260.307 1.21067 3.6062 0
M  V30 2817 H 261.619 1.37797 4.79389 0
M  V30 2818 H 260.773 -0.624422 6.03478 0
M  V30 2819 H 259.512 -0.883219 4.79636 0
M  V30 2820 H 258.517 1.35967 5.32722 0
M  V30 2821 H 259.742 1.60696 6.59813 0
M  V30 2822 H 257.688 -0.635999 6.5291 0
M  V30 2823 H 257.605 0.784044 7.51923 0
M  V30 2824 H 258.873 -0.374823 7.78598 0
M  V30 2825 N 263.102 -1.41638 0.69111 0
M  V30 2826 C 264.035 -2.28183 -0.0274913 0
M  V30 2827 C 265.013 -1.41984 -0.792424 0
M  V30 2828 O 266.197 -1.71415 -0.784169 0
M  V30 2829 C 263.324 -3.22135 -1.04628 0
M  V30 2830 C 262.37 -4.24848 -0.375037 0
M  V30 2831 S 263.203 -5.28231 0.879321 0
M  V30 2832 C 264.359 -6.25748 -0.137983 0
M  V30 2833 H 264.592 -2.88782 0.706553 0
M  V30 2834 H 262.125 -1.46709 0.481222 0
M  V30 2835 H 264.083 -3.76797 -1.62894 0
M  V30 2836 H 262.744 -2.6064 -1.75287 0
M  V30 2837 H 261.937 -4.90837 -1.14433 0
M  V30 2838 H 261.539 -3.73758 0.134434 0
M  V30 2839 H 263.831 -6.70188 -0.992659 0
M  V30 2840 H 264.774 -7.06417 0.487867 0
M  V30 2841 H 265.182 -5.62363 -0.490762 0
M  V30 2842 N 264.58 -0.43555 -1.51462 0
M  V30 2843 C 265.808 0.130242 -2.0649 0
M  V30 2844 C 266.223 1.36614 -1.30315 0
M  V30 2845 O 265.58 1.78869 -0.362223 0
M  V30 2846 C 265.631 0.454253 -3.58635 0
M  V30 2847 O 265.352 -0.73259 -4.31931 0
M  V30 2848 C 266.853 1.07091 -4.3017 0
M  V30 2849 H 264.073 0.00871669 -0.670943 0
M  V30 2850 H 266.617 -0.614117 -1.95061 0
M  V30 2851 H 264.772 1.14851 -3.69984 0
M  V30 2852 H 265.186 -0.455787 -5.22516 0
M  V30 2853 H 266.66 1.24764 -5.37716 0
M  V30 2854 H 267.137 2.05144 -3.88346 0
M  V30 2855 H 267.743 0.416089 -4.2326 0
M  V30 2856 N 266.058 1.56714 -0.166846 0
M  V30 2857 C 267.304 1.97039 0.479962 0
M  V30 2858 C 267.637 1.05264 1.63197 0
M  V30 2859 O 266.912 0.0988833 1.94248 0
M  V30 2860 C 267.195 3.46867 0.967212 0
M  V30 2861 C 267.048 4.49421 -0.18466 0
M  V30 2862 C 268.367 3.9968 1.84238 0
M  V30 2863 H 265.486 0.71641 0.172992 0
M  V30 2864 H 268.128 1.8832 -0.252079 0
M  V30 2865 H 266.278 3.54428 1.59101 0
M  V30 2866 H 267.95 4.53924 -0.821621 0
M  V30 2867 H 266.193 4.25573 -0.840837 0
M  V30 2868 H 266.864 5.51644 0.198317 0
M  V30 2869 H 269.34 3.94723 1.31655 0
M  V30 2870 H 268.216 5.04941 2.15234 0
M  V30 2871 H 268.477 3.43226 2.78654 0
M  V30 2872 N 267.536 -0.106894 1.57237 0
M  V30 2873 C 268.782 -0.81373 1.85759 0
M  V30 2874 C 269.115 -1.78952 0.754315 0
M  V30 2875 O 268.39 -1.93029 -0.23879 0
M  V30 2876 C 268.673 -1.55293 3.24894 0
M  V30 2877 C 268.526 -0.595929 4.45835 0
M  V30 2878 C 269.845 -2.5063 3.61763 0
M  V30 2879 H 266.964 -0.294369 0.67566 0
M  V30 2880 H 269.606 -0.0776472 1.89841 0
M  V30 2881 H 267.756 -2.1804 3.21544 0
M  V30 2882 H 269.428 0.0236262 4.61294 0
M  V30 2883 H 267.671 0.0916191 4.33703 0
M  V30 2884 H 268.342 -1.15004 5.39887 0
M  V30 2885 H 270.818 -1.97982 3.65981 0
M  V30 2886 H 269.694 -2.99376 4.60071 0
M  V30 2887 H 269.955 -3.3385 2.89821 0
M  V30 2888 N 269.014 -1.53014 -0.377408 0
M  V30 2889 C 269.961 -1.78616 -1.46168 0
M  V30 2890 C 270.931 -0.629917 -1.53692 0
M  V30 2891 O 272.116 -0.870861 -1.69766 0
M  V30 2892 C 269.256 -1.97123 -2.8326 0
M  V30 2893 C 268.369 -3.24831 -2.84796 0
M  V30 2894 C 267.504 -3.33591 -4.13389 0
M  V30 2895 C 266.543 -4.55377 -4.09021 0
M  V30 2896 N 265.68 -4.61355 -5.29241 0
M  V30 2897 H 270.52 -2.71142 -1.23637 0
M  V30 2898 H 268.057 -1.34326 -0.599577 0
M  V30 2899 H 270.015 -2.05839 -3.62886 0
M  V30 2900 H 268.645 -1.07946 -3.04216 0
M  V30 2901 H 267.697 -3.25128 -1.97474 0
M  V30 2902 H 269.009 -4.14523 -2.77439 0
M  V30 2903 H 268.163 -3.41554 -5.01424 0
M  V30 2904 H 266.902 -2.41894 -4.23484 0
M  V30 2905 H 265.907 -4.47527 -3.19373 0
M  V30 2906 H 267.132 -5.48402 -4.00539 0
M  V30 2907 H 265.078 -3.72554 -5.39944 0
M  V30 2908 H 264.995 -5.44935 -5.24006 0
M  V30 2909 H 266.263 -4.73586 -6.19141 0
M  V30 2910 N 270.492 0.636531 -1.44174 0
M  V30 2911 C 271.422 1.76003 -1.53444 0
M  V30 2912 C 272.403 1.65619 -0.387841 0
M  V30 2913 O 273.588 1.84461 -0.607257 0
M  V30 2914 C 270.718 3.14511 -1.4731 0
M  V30 2915 C 269.672 3.39677 -2.60391 0
M  V30 2916 C 268.998 4.78159 -2.39308 0
M  V30 2917 C 270.298 3.32772 -4.02567 0
M  V30 2918 H 271.992 1.68501 -2.47483 0
M  V30 2919 H 269.538 0.809237 -1.19111 0
M  V30 2920 H 271.491 3.92878 -1.52397 0
M  V30 2921 H 270.215 3.22783 -0.49785 0
M  V30 2922 H 268.874 2.63688 -2.54684 0
M  V30 2923 H 268.522 4.83128 -1.39988 0
M  V30 2924 H 268.222 4.95956 -3.15122 0
M  V30 2925 H 269.746 5.58762 -2.46205 0
M  V30 2926 H 271.16 4.01051 -4.09672 0
M  V30 2927 H 269.557 3.62104 -4.7854 0
M  V30 2928 H 270.627 2.30669 -4.2652 0
M  V30 2929 N 271.97 1.30982 0.876444 0
M  V30 2930 C 273.219 1.19658 1.62373 0
M  V30 2931 C 273.532 -0.245636 1.94052 0
M  V30 2932 O 274.738 -0.48049 2.67214 0
M  V30 2933 C 273.194 2.09433 2.92687 0
M  V30 2934 C 272.802 3.58613 2.68516 0
M  V30 2935 C 274.546 2.06893 3.70669 0
M  V30 2936 C 272.453 4.40416 3.94699 0
M  V30 2937 H 271.383 0.444268 0.609214 0
M  V30 2938 H 274.034 1.55791 0.969605 0
M  V30 2939 H 272.416 1.66191 3.59439 0
M  V30 2940 H 273.59 4.10058 2.10212 0
M  V30 2941 H 271.905 3.63063 2.03898 0
M  V30 2942 H 274.502 2.65258 4.64265 0
M  V30 2943 H 274.845 1.05448 4.02724 0
M  V30 2944 H 275.378 2.48301 3.10792 0
M  V30 2945 H 272.117 5.42591 3.67798 0
M  V30 2946 H 271.637 3.93731 4.52477 0
M  V30 2947 H 273.316 4.52294 4.62644 0
M  V30 2948 N 273.449 -1.08991 1.13837 0
M  V30 2949 C 274.674 -1.85551 0.926585 0
M  V30 2950 C 275.099 -1.80782 -0.519566 0
M  V30 2951 O 274.457 -1.18855 -1.36906 0
M  V30 2952 C 274.505 -3.31266 1.42462 0
M  V30 2953 O 273.609 -4.07822 0.612789 0
M  V30 2954 H 272.95 -0.575192 0.331738 0
M  V30 2955 H 275.48 -1.37604 1.51414 0
M  V30 2956 H 275.49 -3.82112 1.43019 0
M  V30 2957 H 274.165 -3.34052 2.47754 0
M  V30 2958 H 272.742 -3.66731 0.675463 0
M  V30 2959 N 274.927 -0.932562 -1.27047 0
M  V30 2960 C 275.877 -0.406392 -2.24349 0
M  V30 2961 C 276.861 0.492066 -1.53191 0
M  V30 2962 O 278.053 0.328717 -1.73921 0
M  V30 2963 C 275.182 0.335214 -3.41659 0
M  V30 2964 C 274.268 -0.58004 -4.20115 0
M  V30 2965 N 274.659 -1.70203 -4.76303 0
M  V30 2966 C 272.957 -0.383974 -4.44344 0
M  V30 2967 C 273.658 -2.27167 -5.35509 0
M  V30 2968 N 272.634 -1.56068 -5.20715 0
M  V30 2969 H 276.436 -1.26299 -2.65378 0
M  V30 2970 H 273.95 -0.787408 -1.42034 0
M  V30 2971 H 275.947 0.729142 -4.10474 0
M  V30 2972 H 274.607 1.18868 -3.0216 0
M  V30 2973 H 275.618 -2.08433 -4.74106 0
M  V30 2974 H 272.295 0.428436 -4.15296 0
M  V30 2975 H 273.685 -3.21654 -5.89905 0
M  V30 2976 N 276.405 1.4127 -0.698611 0
M  V30 2977 C 277.821 1.55241 -0.370462 0
M  V30 2978 C 278.021 1.67351 1.12231 0
M  V30 2979 O 277.077 1.65363 1.90818 0
M  V30 2980 C 278.39 2.78997 -1.12165 0
M  V30 2981 C 279.938 2.92797 -1.1063 0
M  V30 2982 C 280.413 4.19445 -1.8393 0
M  V30 2983 N 281.904 4.26409 -1.80914 0
M  V30 2984 C 282.639 5.23271 -2.34467 0
M  V30 2985 N 282.135 6.26145 -2.96504 0
M  V30 2986 N 283.928 5.15232 -2.24706 0
M  V30 2987 H 276.079 1.31654 -1.66676 0
M  V30 2988 H 278.342 0.635393 -0.703548 0
M  V30 2989 H 278.048 2.76268 -2.17644 0
M  V30 2990 H 277.922 3.70606 -0.702209 0
M  V30 2991 H 280.309 2.95039 -0.0597713 0
M  V30 2992 H 280.39 2.02353 -1.56483 0
M  V30 2993 H 280.034 4.17964 -2.88563 0
M  V30 2994 H 279.964 5.08866 -1.35509 0
M  V30 2995 H 282.455 3.527 -1.35687 0
M  V30 2996 H 282.768 6.96451 -3.34927 0
M  V30 2997 H 281.113 6.26638 -3.00583 0
M  V30 2998 H 284.304 4.33789 -1.7591 0
M  V30 2999 H 284.477 5.90552 -2.66745 0
M  V30 3000 N 277.883 0.443576 1.51229 0
M  V30 3001 C 278.793 -0.370721 2.31652 0
M  V30 3002 C 279.809 -1.02186 1.40833 0
M  V30 3003 O 280.985 -1.01586 1.73903 0
M  V30 3004 C 278.05 -1.45376 3.14749 0
M  V30 3005 C 277.111 -0.822099 4.21355 0
M  V30 3006 C 276.344 -1.85353 5.0048 0
M  V30 3007 O 276.567 -3.07656 4.80316 0
M  V30 3008 O 275.501 -1.4406 5.84406 0
M  V30 3009 H 279.327 0.286002 3.0235 0
M  V30 3010 H 276.912 0.20598 1.47973 0
M  V30 3011 H 278.794 -2.08173 3.66391 0
M  V30 3012 H 277.469 -2.09445 2.46809 0
M  V30 3013 H 276.376 -0.155909 3.73775 0
M  V30 3014 H 277.709 -0.224797 4.91686 0
M  V30 3015 N 279.361 -1.56624 0.175154 0
M  V30 3016 C 280.601 -1.98894 -0.471221 0
M  V30 3017 C 280.965 -1.05889 -1.60161 0
M  V30 3018 O 282.166 -1.37315 -2.3108 0
M  V30 3019 C 280.437 -3.44865 -0.938241 0
M  V30 3020 S 281.996 -4.09164 -1.58526 0
M  V30 3021 H 278.814 -0.694686 -0.151434 0
M  V30 3022 H 281.416 -1.93577 0.27352 0
M  V30 3023 H 280.12 -4.10265 -0.10518 0
M  V30 3024 H 279.651 -3.53956 -1.71693 0
M  V30 3025 H 281.666 -4.04528 -2.87352 0
M  V30 3026 N 280.839 0.0985539 -1.57292 0
M  V30 3027 C 281.771 1.14595 -1.98496 0
M  V30 3028 C 282.784 1.36512 -0.887031 0
M  V30 3029 O 283.973 1.35225 -1.16518 0
M  V30 3030 C 281.073 2.50216 -2.28572 0
M  V30 3031 C 280.246 2.48624 -3.59868 0
M  V30 3032 C 279.305 3.66146 -3.7792 0
M  V30 3033 O 278.331 3.48795 -4.49812 0
M  V30 3034 N 279.533 4.85496 -3.18235 0
M  V30 3035 H 282.298 0.795277 -2.88956 0
M  V30 3036 H 279.859 0.287579 -1.59325 0
M  V30 3037 H 281.851 3.27432 -2.37845 0
M  V30 3038 H 280.421 2.77387 -1.44136 0
M  V30 3039 H 279.641 1.56978 -3.61596 0
M  V30 3040 H 280.929 2.44635 -4.46129 0
M  V30 3041 H 280.327 5.02497 -2.59833 0
M  V30 3042 H 278.884 5.60317 -3.32999 0
M  V30 3043 N 282.317 1.53212 0.369288 0
M  V30 3044 C 283.249 1.75668 1.47219 0
M  V30 3045 C 284.262 0.637387 1.49804 0
M  V30 3046 O 285.451 0.913561 1.5335 0
M  V30 3047 C 282.551 1.81818 2.85999 0
M  V30 3048 C 281.724 3.11409 3.07153 0
M  V30 3049 C 280.783 3.08849 4.26026 0
M  V30 3050 O 279.809 3.82659 4.2138 0
M  V30 3051 N 281.011 2.29409 5.33246 0
M  V30 3052 H 283.776 2.70832 1.28337 0
M  V30 3053 H 281.337 1.51944 0.55898 0
M  V30 3054 H 283.329 1.77588 3.63655 0
M  V30 3055 H 281.899 0.939544 2.98146 0
M  V30 3056 H 281.119 3.28971 2.1719 0
M  V30 3057 H 282.407 3.97059 3.18154 0
M  V30 3058 H 281.805 1.68946 5.39883 0
M  V30 3059 H 280.362 2.31001 6.09493 0
M  V30 3060 N 283.795 -0.628877 1.44509 0
M  V30 3061 C 285.206 -1.21054 1.42137 0
M  V30 3062 C 285.557 -1.95715 0.137881 0
M  V30 3063 O 284.682 -2.02554 -0.761645 0
M  V30 3064 C 285.277 -2.20189 2.57493 0
M  V30 3065 C 283.836 -2.73777 2.58308 0
M  V30 3066 C 282.983 -1.48813 2.33987 0
M  V30 3067 H 285.934 -0.41942 1.53057 0
M  V30 3068 H 285.955 -3.02833 2.30375 0
M  V30 3069 H 285.467 -1.6582 3.50892 0
M  V30 3070 H 283.568 -3.32142 1.68856 0
M  V30 3071 H 283.681 -3.19662 3.56865 0
M  V30 3072 H 282.045 -1.77024 1.83124 0
M  V30 3073 H 282.828 -0.963442 3.29504 0
M  V30 3074 N 285.273 -1.31445 -0.869486 0
M  V30 3075 C 286.223 -1.15731 -1.96444 0
M  V30 3076 C 287.207 -0.0681855 -1.60755 0
M  V30 3077 O 288.399 -0.293154 -1.74555 0
M  V30 3078 C 285.528 -0.867255 -3.32165 0
M  V30 3079 C 284.614 -1.99738 -3.74119 0
M  V30 3080 N 285.005 -3.24447 -3.88031 0
M  V30 3081 C 283.303 -1.89723 -4.03635 0
M  V30 3082 C 284.004 -3.98374 -4.23879 0
M  V30 3083 N 282.98 -3.26547 -4.3459 0
M  V30 3084 H 286.782 -2.10296 -2.05312 0
M  V30 3085 H 284.296 -1.23009 -1.06031 0
M  V30 3086 H 286.293 -0.735668 -4.10358 0
M  V30 3087 H 284.953 0.0701614 -3.24624 0
M  V30 3088 H 285.964 -3.59557 -3.72746 0
M  V30 3089 H 282.641 -1.03449 -4.04481 0
M  V30 3090 H 284.031 -5.05844 -4.42235 0
M  V30 3091 N 286.751 1.08385 -1.14413 0
M  V30 3092 C 287.981 1.8425 -0.934644 0
M  V30 3093 C 288.389 1.81907 0.520234 0
M  V30 3094 O 287.732 1.22126 1.37226 0
M  V30 3095 C 287.794 3.32853 -1.35828 0
M  V30 3096 C 287.458 3.5893 -2.82875 0
M  V30 3097 C 288.455 3.53756 -3.80989 0
M  V30 3098 C 286.14 3.86934 -3.20293 0
M  V30 3099 C 288.134 3.76216 -5.14529 0
M  V30 3100 C 285.821 4.09047 -4.54008 0
M  V30 3101 C 286.819 4.03682 -5.50936 0
M  V30 3102 O 286.507 4.25214 -6.82238 0
M  V30 3103 H 286.239 0.588502 -0.332628 0
M  V30 3104 H 288.793 1.37792 -1.52324 0
M  V30 3105 H 287.023 3.8007 -0.713019 0
M  V30 3106 H 288.712 3.90154 -1.11957 0
M  V30 3107 H 289.478 3.32135 -3.53428 0
M  V30 3108 H 285.357 3.9023 -2.45442 0
M  V30 3109 H 288.901 3.71943 -5.90173 0
M  V30 3110 H 284.798 4.30151 -4.8129 0
M  V30 3111 H 285.566 4.42619 -6.88499 0
M  V30 3112 N 288.23 0.939286 1.26551 0
M  V30 3113 C 289.46 0.601663 1.97645 0
M  V30 3114 C 289.868 -0.827206 1.70159 0
M  V30 3115 O 289.211 -1.56291 0.965338 0
M  V30 3116 C 289.273 0.761725 3.51337 0
M  V30 3117 C 288.937 2.16487 4.0247 0
M  V30 3118 C 289.934 3.14016 4.14355 0
M  V30 3119 C 287.619 2.48494 4.36527 0
M  V30 3120 C 289.613 4.41654 4.59587 0
M  V30 3121 C 287.3 3.76364 4.81449 0
M  V30 3122 C 288.298 4.72758 4.92939 0
M  V30 3123 O 287.986 5.98352 5.36871 0
M  V30 3124 H 287.718 0.225758 0.637189 0
M  V30 3125 H 290.272 1.26178 1.62075 0
M  V30 3126 H 288.502 0.0444808 3.86674 0
M  V30 3127 H 290.191 0.427442 4.03643 0
M  V30 3128 H 290.957 2.90613 3.8829 0
M  V30 3129 H 286.836 1.74202 4.26819 0
M  V30 3130 H 290.38 5.16896 4.68471 0
M  V30 3131 H 286.277 3.99582 5.06956 0
M  V30 3132 H 287.045 6.01507 5.55096 0
M  V30 3133 N 289.708 -1.40897 0.706093 0
M  V30 3134 C 290.956 -2.00657 0.241054 0
M  V30 3135 C 291.277 -1.56241 -1.16678 0
M  V30 3136 O 290.547 -0.79765 -1.78926 0
M  V30 3137 H 289.127 -0.742018 0.0861308 0
M  V30 3138 H 291.789 -1.72372 0.909604 0
M  V30 3139 H 290.885 -3.10958 0.266705 0
M  V30 3140 N 291.186 -0.45159 -1.50991 0
M  V30 3141 C 292.411 0.110667 -2.07105 0
M  V30 3142 C 292.836 1.3446 -1.31538 0
M  V30 3143 O 292.194 1.77743 -0.357365 0
M  V30 3144 C 292.242 0.397238 -3.58405 0
M  V30 3145 O 291.346 1.48124 -3.84881 0
M  V30 3146 H 290.687 -0.00439271 -0.663985 0
M  V30 3147 H 293.217 -0.637026 -1.9443 0
M  V30 3148 H 293.227 0.64351 -4.02893 0
M  V30 3149 H 291.902 -0.504553 -4.12828 0
M  V30 3150 H 290.479 1.22381 -3.52246 0
M  V30 3151 N 292.664 1.56529 -0.183458 0
M  V30 3152 C 293.574 2.22144 0.754272 0
M  V30 3153 C 294.59 1.21684 1.24374 0
M  V30 3154 O 295.766 1.54385 1.29333 0
M  V30 3155 C 292.831 2.85884 1.96141 0
M  V30 3156 C 291.892 4.01579 1.51765 0
M  V30 3157 C 291.125 4.6227 2.66725 0
M  V30 3158 O 291.348 4.21865 3.83909 0
M  V30 3159 O 290.282 5.51936 2.40104 0
M  V30 3160 H 294.108 3.02861 0.225527 0
M  V30 3161 H 291.693 1.49331 0.0453032 0
M  V30 3162 H 293.575 3.26253 2.66715 0
M  V30 3163 H 292.25 2.08154 2.47899 0
M  V30 3164 H 291.157 3.65856 0.781049 0
M  V30 3165 H 292.49 4.80938 1.04686 0
M  V30 3166 N 294.142 -0.090211 1.57342 0
M  V30 3167 C 295.388 -0.793982 1.86611 0
M  V30 3168 C 295.721 -1.78142 0.773252 0
M  V30 3169 O 294.996 -1.93271 -0.218304 0
M  V30 3170 C 295.279 -1.51839 3.26523 0
M  V30 3171 C 295.132 -0.548609 4.46442 0
M  V30 3172 C 296.451 -2.46779 3.64401 0
M  V30 3173 H 293.57 -0.287186 0.678744 0
M  V30 3174 H 296.212 -0.0575076 1.89913 0
M  V30 3175 H 294.362 -2.14617 3.23839 0
M  V30 3176 H 296.034 0.0725513 4.61243 0
M  V30 3177 H 294.277 0.137614 4.33582 0
M  V30 3178 H 294.948 -1.09271 5.41076 0
M  V30 3179 H 297.424 -1.94089 3.68061 0
M  V30 3180 H 296.3 -2.94479 4.63221 0
M  V30 3181 H 296.561 -3.30758 2.93346 0
M  V30 3182 N 295.62 -1.53406 -0.361157 0
M  V30 3183 C 296.848 -1.73717 -1.12383 0
M  V30 3184 C 297.263 -0.468161 -1.82904 0
M  V30 3185 O 296.62 0.559198 -1.73722 0
M  V30 3186 C 296.671 -2.90558 -2.15078 0
M  V30 3187 O 296.392 -4.12549 -1.47428 0
M  V30 3188 C 297.893 -3.22777 -3.03858 0
M  V30 3189 H 295.113 -0.580896 -0.335858 0
M  V30 3190 H 297.657 -2.00167 -0.418728 0
M  V30 3191 H 295.812 -2.66489 -2.8118 0
M  V30 3192 H 296.226 -4.78009 -2.15887 0
M  V30 3193 H 297.7 -4.07927 -3.71887 0
M  V30 3194 H 298.177 -2.38329 -3.68912 0
M  V30 3195 H 298.783 -3.48787 -2.43367 0
M  V30 3196 N 297.098 0.621204 -1.44841 0
M  V30 3197 C 298.326 1.40752 -1.51646 0
M  V30 3198 C 298.741 1.88246 -0.144549 0
M  V30 3199 O 298.098 1.61422 0.851416 0
M  V30 3200 C 298.149 2.62119 -2.4895 0
M  V30 3201 O 297.87 2.16602 -3.80808 0
M  V30 3202 C 299.371 3.55135 -2.65319 0
M  V30 3203 H 296.591 0.431325 -0.514004 0
M  V30 3204 H 299.135 0.758835 -1.899 0
M  V30 3205 H 297.29 3.23058 -2.13805 0
M  V30 3206 H 297.704 2.95358 -4.33433 0
M  V30 3207 H 299.178 4.36874 -3.37409 0
M  V30 3208 H 299.655 4.04592 -1.70886 0
M  V30 3209 H 300.261 3.00058 -3.01405 0
M  V30 3210 N 298.576 1.31904 0.862503 0
M  V30 3211 C 299.523 1.20182 1.9704 0
M  V30 3212 C 300.493 0.0858247 1.65878 0
M  V30 3213 O 301.678 0.26 1.8902 0
M  V30 3214 C 298.818 0.922797 3.32533 0
M  V30 3215 C 297.931 2.12284 3.76244 0
M  V30 3216 C 297.066 1.77996 5.00491 0
M  V30 3217 C 296.105 2.94366 5.36671 0
M  V30 3218 N 295.242 2.60223 6.52095 0
M  V30 3219 H 300.082 2.14951 2.06398 0
M  V30 3220 H 297.619 1.06917 1.01031 0
M  V30 3221 H 299.577 0.741548 4.10557 0
M  V30 3222 H 298.207 0.0119227 3.22798 0
M  V30 3223 H 297.259 2.41461 2.9394 0
M  V30 3224 H 298.571 2.99357 3.98982 0
M  V30 3225 H 297.725 1.56377 5.862 0
M  V30 3226 H 296.464 0.881252 4.79672 0
M  V30 3227 H 295.469 3.16625 4.49476 0
M  V30 3228 H 296.694 3.84957 5.59451 0
M  V30 3229 H 294.64 1.72884 6.32809 0
M  V30 3230 H 294.557 3.40827 6.74814 0
M  V30 3231 H 295.825 2.42016 7.40978 0
M  V30 3232 N 300.054 -1.07777 1.14986 0
M  V30 3233 C 300.987 -2.14228 0.786243 0
M  V30 3234 C 301.965 -1.60888 -0.235347 0
M  V30 3235 O 303.149 -1.88099 -0.122909 0
M  V30 3236 C 300.276 -3.38281 0.168433 0
M  V30 3237 C 299.322 -4.10387 1.16123 0
M  V30 3238 S 300.155 -4.62371 2.70135 0
M  V30 3239 C 301.311 -5.89704 2.09762 0
M  V30 3240 H 301.544 -2.44741 1.68787 0
M  V30 3241 H 299.077 -1.19984 0.971756 0
M  V30 3242 H 301.035 -4.10098 -0.181588 0
M  V30 3243 H 299.696 -3.05953 -0.710725 0
M  V30 3244 H 298.889 -4.99431 0.677086 0
M  V30 3245 H 298.491 -3.44513 1.45556 0
M  V30 3246 H 300.783 -6.61648 1.45701 0
M  V30 3247 H 301.726 -6.42824 2.96955 0
M  V30 3248 H 302.134 -5.4302 1.54239 0
M  V30 3249 N 301.532 -0.945985 -1.26051 0
M  V30 3250 C 302.462 -0.477172 -2.28572 0
M  V30 3251 C 303.443 0.472032 -1.63419 0
M  V30 3252 O 304.628 0.372853 -1.90587 0
M  V30 3253 C 301.758 0.253975 -3.4637 0
M  V30 3254 C 300.712 -0.609135 -4.23643 0
M  V30 3255 C 300.038 0.252252 -5.34105 0
M  V30 3256 C 301.338 -1.8829 -4.8718 0
M  V30 3257 H 303.032 -1.33402 -2.68038 0
M  V30 3258 H 300.578 -0.642904 -1.28852 0
M  V30 3259 H 302.531 0.593016 -4.17207 0
M  V30 3260 H 301.255 1.145 -3.05871 0
M  V30 3261 H 299.914 -0.931138 -3.54578 0
M  V30 3262 H 299.562 1.14278 -4.89846 0
M  V30 3263 H 299.262 -0.32188 -5.86718 0
M  V30 3264 H 300.786 0.586454 -6.07777 0
M  V30 3265 H 302.2 -1.61081 -5.50205 0
M  V30 3266 H 300.597 -2.40199 -5.49931 0
M  V30 3267 H 301.667 -2.59134 -4.09851 0
M  V30 3268 N 303.011 1.40521 -0.713556 0
M  V30 3269 C 304.251 2.02783 -0.256584 0
M  V30 3270 C 304.615 1.55352 1.12827 0
M  V30 3271 O 305.816 2.09663 1.68211 0
M  V30 3272 C 304.087 3.5586 -0.331414 0
M  V30 3273 S 305.646 4.38773 0.0488703 0
M  V30 3274 H 302.464 0.703655 -0.101934 0
M  V30 3275 H 305.066 1.71674 -0.935325 0
M  V30 3276 H 303.77 3.87874 -1.34098 0
M  V30 3277 H 303.301 3.91695 0.365873 0
M  V30 3278 H 305.316 4.79633 1.2715 0
M  V30 3279 N 304.489 0.459591 1.5075 0
M  V30 3280 C 305.452 -0.329093 2.26825 0
M  V30 3281 C 306.452 -0.930481 1.31144 0
M  V30 3282 O 307.642 -0.801453 1.54669 0
M  V30 3283 C 304.774 -1.46768 3.07688 0
M  V30 3284 H 305.967 0.337924 2.9799 0
M  V30 3285 H 303.52 0.213336 1.54837 0
M  V30 3286 H 304.255 -2.17009 2.40993 0
M  V30 3287 H 304.04 -1.04238 3.77991 0
M  V30 3288 H 305.53 -2.02433 3.65254 0
M  V30 3289 N 305.967 -1.56429 0.191757 0
M  V30 3290 C 306.93 -2.17707 -0.716688 0
M  V30 3291 C 307.93 -1.13061 -1.14341 0
M  V30 3292 O 309.12 -1.38464 -1.05704 0
M  V30 3293 C 306.252 -2.77644 -1.97804 0
M  V30 3294 H 307.445 -2.99342 -0.1829 0
M  V30 3295 H 304.998 -1.56193 -0.0578566 0
M  V30 3296 H 305.733 -1.99799 -2.55443 0
M  V30 3297 H 305.518 -3.54246 -1.68083 0
M  V30 3298 H 307.008 -3.24708 -2.62592 0
M  V30 3299 N 307.445 0.0818655 -1.57387 0
M  V30 3300 C 308.722 0.815343 -1.77796 0
M  V30 3301 C 309.102 1.96289 -0.77679 0
M  V30 3302 O 308.45 2.27691 0.192106 0
M  V30 3303 C 308.66 1.29765 -3.23978 0
M  V30 3304 C 310.008 1.7351 -3.8753 0
M  V30 3305 O 311.032 1.39356 -3.27808 0
M  V30 3306 O 309.891 2.36708 -4.92576 0
M  V30 3307 H 306.985 0.389914 -0.729312 0
M  V30 3308 H 309.531 0.0627213 -1.69584 0
M  V30 3309 H 308.303 0.47608 -3.88393 0
M  V30 3310 H 307.926 2.11189 -3.36875 0
M  V30 3311 N 308.923 1.53595 0.353017 0
M  V30 3312 C 310.334 1.61937 0.929153 0
M  V30 3313 C 310.685 0.494686 1.89861 0
M  V30 3314 O 309.81 -0.377017 2.1309 0
M  V30 3315 C 310.405 2.93526 1.69199 0
M  V30 3316 C 308.964 3.04161 2.21727 0
M  V30 3317 C 308.111 2.57322 1.03348 0
M  V30 3318 H 311.062 1.58155 0.131431 0
M  V30 3319 H 311.083 2.82034 2.55416 0
M  V30 3320 H 310.595 3.75362 0.986144 0
M  V30 3321 H 308.696 2.26938 2.95516 0
M  V30 3322 H 308.809 4.09465 2.48748 0
M  V30 3323 H 307.173 2.12499 1.40414 0
M  V30 3324 H 307.956 3.41588 0.342428 0
M  V30 3325 N 310.401 -0.613514 1.45168 0
M  V30 3326 C 311.333 -1.73825 1.4939 0
M  V30 3327 C 312.346 -1.58175 0.385304 0
M  V30 3328 O 313.535 -1.66165 0.652036 0
M  V30 3329 C 310.635 -3.11758 1.32891 0
M  V30 3330 C 309.808 -3.53704 2.57317 0
M  V30 3331 C 308.867 -4.70579 2.35462 0
M  V30 3332 O 307.893 -4.77996 3.09044 0
M  V30 3333 N 309.095 -5.63454 1.39644 0
M  V30 3334 H 311.86 -1.70669 2.46358 0
M  V30 3335 H 309.421 -0.79862 1.40832 0
M  V30 3336 H 311.413 -3.87692 1.1609 0
M  V30 3337 H 309.983 -3.09456 0.442218 0
M  V30 3338 H 309.203 -2.67794 2.89275 0
M  V30 3339 H 310.491 -3.78486 3.40038 0
M  V30 3340 H 309.889 -5.6017 0.789062 0
M  V30 3341 H 308.446 -6.38944 1.28816 0
M  V30 3342 N 311.879 -1.3236 -0.855495 0
M  V30 3343 C 313.125 -1.24064 -1.61182 0
M  V30 3344 C 313.48 0.195914 -1.914 0
M  V30 3345 O 312.773 1.13345 -1.54478 0
M  V30 3346 C 312.967 -2.03275 -2.93963 0
M  V30 3347 C 312.796 -3.54486 -2.76712 0
M  V30 3348 C 311.566 -4.23824 -2.75139 0
M  V30 3349 C 313.764 -4.49154 -2.50531 0
M  V30 3350 N 311.746 -5.61095 -2.4909 0
M  V30 3351 C 313.117 -5.74195 -2.3388 0
M  V30 3352 C 315.172 -4.3842 -2.35992 0
M  V30 3353 C 313.875 -6.89716 -2.04168 0
M  V30 3354 C 315.901 -5.53739 -2.0767 0
M  V30 3355 C 315.263 -6.77779 -1.9182 0
M  V30 3356 H 311.362 -0.509139 -0.59355 0
M  V30 3357 H 313.946 -1.66715 -1.00569 0
M  V30 3358 H 312.117 -1.6297 -3.52555 0
M  V30 3359 H 313.849 -1.86881 -3.58967 0
M  V30 3360 H 310.604 -3.75934 -2.88047 0
M  V30 3361 H 311.028 -6.33411 -2.38996 0
M  V30 3362 H 315.67 -3.43172 -2.46967 0
M  V30 3363 H 313.388 -7.84977 -1.9193 0
M  V30 3364 H 316.974 -5.4736 -1.97201 0
M  V30 3365 H 315.854 -7.65504 -1.70217 0
M  V30 3366 N 313.357 1.07166 -1.15556 0
M  V30 3367 C 314.304 2.14417 -0.854055 0
M  V30 3368 C 315.274 1.64965 0.193806 0
M  V30 3369 O 316.459 1.90703 0.0609443 0
M  V30 3370 C 313.599 3.43304 -0.351574 0
M  V30 3371 C 312.712 4.06537 -1.46123 0
M  V30 3372 C 311.847 5.23266 -0.914677 0
M  V30 3373 C 310.886 5.78464 -2.00114 0
M  V30 3374 N 310.023 6.86521 -1.47083 0
M  V30 3375 H 314.863 2.39548 -1.77259 0
M  V30 3376 H 312.4 1.17543 -0.884425 0
M  V30 3377 H 314.358 4.17179 -0.0419409 0
M  V30 3378 H 312.988 3.18419 0.530037 0
M  V30 3379 H 312.04 3.30297 -1.88701 0
M  V30 3380 H 313.352 4.43567 -2.28144 0
M  V30 3381 H 312.506 6.04131 -0.557698 0
M  V30 3382 H 311.245 4.87658 -0.0636583 0
M  V30 3383 H 310.25 4.96243 -2.36692 0
M  V30 3384 H 311.475 6.16126 -2.85597 0
M  V30 3385 H 309.421 6.52849 -0.642198 0
M  V30 3386 H 309.338 7.22446 -2.22729 0
M  V30 3387 H 310.606 7.71087 -1.14215 0
M  V30 3388 N 314.835 0.952656 1.25548 0
M  V30 3389 C 316.063 0.623496 1.97282 0
M  V30 3390 C 316.478 -0.803987 1.70826 0
M  V30 3391 O 315.835 -1.53755 0.983147 0
M  V30 3392 C 315.886 0.870209 3.5087 0
M  V30 3393 O 315.607 2.24156 3.76412 0
M  V30 3394 C 317.108 0.553164 4.39835 0
M  V30 3395 H 314.328 0.233931 0.628902 0
M  V30 3396 H 316.872 1.27649 1.59768 0
M  V30 3397 H 315.027 0.263652 3.86502 0
M  V30 3398 H 315.441 2.31021 4.70882 0
M  V30 3399 H 316.915 0.776342 5.46513 0
M  V30 3400 H 317.392 -0.512215 4.36203 0
M  V30 3401 H 317.998 1.13896 4.09766 0
M  V30 3402 N 316.313 -1.40141 0.720998 0
M  V30 3403 C 317.59 -1.94677 0.189757 0
M  V30 3404 C 317.97 -1.65879 -1.30566 0
M  V30 3405 O 317.318 -0.979391 -2.06447 0
M  V30 3406 C 317.528 -3.45279 0.508304 0
M  V30 3407 C 318.876 -4.22209 0.449934 0
M  V30 3408 O 319.9 -3.53413 0.444677 0
M  V30 3409 O 318.759 -5.44788 0.432189 0
M  V30 3410 H 315.853 -0.826459 0.0299026 0
M  V30 3411 H 318.399 -1.49719 0.7989 0
M  V30 3412 H 317.171 -3.59619 1.54239 0
M  V30 3413 H 316.794 -3.97386 -0.130525 0
M  V30 3414 N 317.792 -0.46758 -1.50504 0
M  V30 3415 C 319.017 0.0886943 -2.0721 0
M  V30 3416 C 319.442 1.33057 -1.32956 0
M  V30 3417 O 318.8 1.77354 -0.376197 0
M  V30 3418 C 318.848 0.359202 -3.58806 0
M  V30 3419 O 317.952 1.44034 -3.8643 0
M  V30 3420 H 317.293 -0.0114349 -0.663902 0
M  V30 3421 H 319.823 -0.657613 -1.93744 0
M  V30 3422 H 319.833 0.600742 -4.03553 0
M  V30 3423 H 318.508 -0.548311 -4.1227 0
M  V30 3424 H 317.085 1.18638 -3.53524 0
M  V30 3425 N 319.27 1.56325 -0.20005 0
M  V30 3426 C 320.51 1.99619 0.439519 0
M  V30 3427 C 320.874 1.08423 1.58456 0
M  V30 3428 O 322.075 1.40973 2.28867 0
M  V30 3429 C 320.346 3.46314 0.883258 0
M  V30 3430 S 321.905 4.11634 1.51997 0
M  V30 3431 H 318.723 0.697007 0.140363 0
M  V30 3432 H 321.325 1.93118 -0.304282 0
M  V30 3433 H 320.029 4.10381 0.0398967 0
M  V30 3434 H 319.56 3.56643 1.6604 0
M  V30 3435 H 321.575 4.09049 2.8088 0
M  V30 3436 N 320.748 -0.0735177 1.57428 0
M  V30 3437 C 321.68 -1.11423 2.00294 0
M  V30 3438 C 322.693 -1.35084 0.908637 0
M  V30 3439 O 323.882 -1.33355 1.18654 0
M  V30 3440 C 320.982 -2.46548 2.32523 0
M  V30 3441 C 320.155 -2.42867 3.63778 0
M  V30 3442 C 319.214 -3.60087 3.83697 0
M  V30 3443 O 318.24 -3.41595 4.55304 0
M  V30 3444 N 319.442 -4.80372 3.25919 0
M  V30 3445 H 322.207 -0.749206 2.90184 0
M  V30 3446 H 319.768 -0.262195 1.59763 0
M  V30 3447 H 321.76 -3.23607 2.43024 0
M  V30 3448 H 320.33 -2.75059 1.48531 0
M  V30 3449 H 319.55 -1.51206 3.64047 0
M  V30 3450 H 320.838 -2.37506 4.49965 0
M  V30 3451 H 320.236 -4.983 2.67795 0
M  V30 3452 H 318.793 -5.54948 3.41871 0
M  V30 3453 N 322.226 -1.5378 -0.344866 0
M  V30 3454 C 323.474 -1.70625 -1.08311 0
M  V30 3455 C 323.795 -0.471447 -1.89215 0
M  V30 3456 O 323.065 0.514616 -1.8902 0
M  V30 3457 H 321.645 -0.629058 -0.402859 0
M  V30 3458 H 324.307 -1.9103 -0.386459 0
M  V30 3459 H 323.403 -2.57656 -1.76124 0
M  V30 3460 N 323.704 0.605807 -1.45491 0
M  V30 3461 C 324.981 1.36522 -1.40075 0
M  V30 3462 C 325.361 2.10976 -0.0722744 0
M  V30 3463 O 324.709 2.08007 0.945808 0
M  V30 3464 C 324.919 2.31056 -2.61561 0
M  V30 3465 C 326.267 2.93608 -3.06724 0
M  V30 3466 O 327.291 2.41376 -2.61946 0
M  V30 3467 O 326.15 3.88421 -3.84437 0
M  V30 3468 H 323.244 0.612248 -0.555951 0
M  V30 3469 H 325.79 0.628747 -1.57623 0
M  V30 3470 H 324.562 1.75311 -3.49831 0
M  V30 3471 H 324.185 3.12081 -2.46356 0
M  V30 3472 N 325.182 1.32811 0.848464 0
M  V30 3473 C 326.407 1.26882 1.6406 0
M  V30 3474 C 326.832 -0.15913 1.87426 0
M  V30 3475 O 326.19 -1.11258 1.43148 0
M  V30 3476 C 326.238 2.03997 2.97351 0
M  V30 3477 O 325.342 1.39201 3.88197 0
M  V30 3478 H 324.683 0.436982 0.499943 0
M  V30 3479 H 327.213 1.75224 1.0563 0
M  V30 3480 H 327.223 2.14403 3.47124 0
M  V30 3481 H 325.898 3.0783 2.79666 0
M  V30 3482 H 324.475 1.37381 3.46671 0
M  V30 3483 N 326.66 -1.06551 1.16123 0
M  V30 3484 C 327.908 -1.78947 0.939267 0
M  V30 3485 C 328.229 -1.87532 -0.534476 0
M  V30 3486 O 327.499 -1.38211 -1.38833 0
M  V30 3487 H 326.079 -0.662807 0.344523 0
M  V30 3488 H 328.741 -1.28725 1.46342 0
M  V30 3489 H 327.837 -2.81117 1.35572 0
M  V30 3490 N 328.138 -0.959301 -1.25041 0
M  V30 3491 C 329.386 -0.615393 -1.92503 0
M  V30 3492 C 329.707 0.850969 -1.75452 0
M  V30 3493 O 328.977 1.60658 -1.12098 0
M  V30 3494 H 327.557 -0.224613 -0.712431 0
M  V30 3495 H 330.219 -1.21855 -1.5211 0
M  V30 3496 H 329.315 -0.848738 -3.00338 0
M  V30 3497 N 329.616 1.39756 -0.72842 0
M  V30 3498 C 331.027 1.83498 -0.344289 0
M  V30 3499 C 331.378 1.60868 1.12321 0
M  V30 3500 O 330.503 1.09634 1.86573 0
M  V30 3501 C 331.098 3.33114 -0.618112 0
M  V30 3502 C 329.657 3.753 -0.287549 0
M  V30 3503 C 328.804 2.62831 -0.884048 0
M  V30 3504 H 331.755 1.28842 -0.926578 0
M  V30 3505 H 331.776 3.80334 0.112349 0
M  V30 3506 H 331.288 3.49553 -1.68625 0
M  V30 3507 H 329.389 3.64451 0.775012 0
M  V30 3508 H 329.502 4.72945 -0.765512 0
M  V30 3509 H 327.866 2.52792 -0.311149 0
M  V30 3510 H 328.649 2.82078 -1.95671 0
M  V30 3511 N 331.094 0.475555 1.50254 0
M  V30 3512 C 332.024 -0.30611 2.31485 0
M  V30 3513 C 333.005 -0.986228 1.38591 0
M  V30 3514 O 334.19 -0.982541 1.67511 0
M  V30 3515 C 331.32 -1.38588 3.1845 0
M  V30 3516 C 330.274 -0.827115 4.19932 0
M  V30 3517 C 329.6 -2.00551 4.95665 0
M  V30 3518 C 330.9 0.16463 5.2204 0
M  V30 3519 H 332.594 0.371866 2.97082 0
M  V30 3520 H 330.14 0.180282 1.42867 0
M  V30 3521 H 332.093 -1.94023 3.74076 0
M  V30 3522 H 330.817 -2.09269 2.50747 0
M  V30 3523 H 329.476 -0.294702 3.65414 0
M  V30 3524 H 329.124 -2.6994 4.2443 0
M  V30 3525 H 328.824 -1.63784 5.64313 0
M  V30 3526 H 330.348 -2.56468 5.54127 0
M  V30 3527 H 331.762 -0.300699 5.72511 0
M  V30 3528 H 330.159 0.446813 5.98434 0
M  V30 3529 H 331.229 1.08905 4.72512 0
M  V30 3530 N 332.573 -1.56217 0.208337 0
M  V30 3531 C 333.819 -1.98242 -0.427552 0
M  V30 3532 C 334.152 -1.09554 -1.60348 0
M  V30 3533 O 333.427 -0.15035 -1.93918 0
M  V30 3534 C 333.71 -3.4931 -0.874907 0
M  V30 3535 C 333.563 -4.48773 0.303751 0
M  V30 3536 C 334.882 -4.04424 -1.73577 0
M  V30 3537 H 332.001 -0.720744 -0.153936 0
M  V30 3538 H 334.643 -1.87586 0.30192 0
M  V30 3539 H 332.793 -3.58522 -1.49648 0
M  V30 3540 H 334.465 -4.51586 0.941682 0
M  V30 3541 H 332.708 -4.23194 0.953375 0
M  V30 3542 H 333.379 -5.51976 -0.0519883 0
M  V30 3543 H 335.855 -3.98075 -1.21143 0
M  V30 3544 H 334.731 -5.1047 -2.01771 0
M  V30 3545 H 334.992 -3.50494 -2.69456 0
M  V30 3546 N 334.051 0.0651679 -1.57465 0
M  V30 3547 C 335.291 0.768329 -1.8941 0
M  V30 3548 C 335.655 1.74406 -0.802894 0
M  V30 3549 O 336.856 2.49281 -1.0056 0
M  V30 3550 C 335.127 1.45199 -3.26576 0
M  V30 3551 S 336.686 2.1893 -3.80283 0
M  V30 3552 H 333.504 0.255359 -0.663561 0
M  V30 3553 H 336.106 0.024167 -1.95485 0
M  V30 3554 H 334.81 0.728123 -4.03889 0
M  V30 3555 H 334.341 2.23545 -3.23715 0
M  V30 3556 H 336.356 3.45551 -3.56102 0
M  V30 3557 N 335.529 1.53961 0.336706 0
M  V30 3558 C 336.754 1.75797 1.10046 0
M  V30 3559 C 337.179 0.498985 1.81361 0
M  V30 3560 O 336.537 -0.548769 1.72795 0
M  V30 3561 C 336.585 2.94257 2.08436 0
M  V30 3562 O 335.689 2.64883 3.16087 0
M  V30 3563 H 335.03 0.582936 0.317934 0
M  V30 3564 H 337.56 2.00945 0.38501 0
M  V30 3565 H 337.57 3.21237 2.51537 0
M  V30 3566 H 336.245 3.85564 1.55927 0
M  V30 3567 H 334.822 2.48812 2.77753 0
M  V30 3568 N 337.007 -0.598083 1.45811 0
M  V30 3569 C 337.937 -1.71873 1.58057 0
M  V30 3570 C 338.918 -1.64533 0.431615 0
M  V30 3571 O 340.103 -1.82787 0.65595 0
M  V30 3572 C 337.233 -3.10495 1.55597 0
M  V30 3573 C 336.187 -3.32654 2.69305 0
M  V30 3574 C 335.513 -4.71646 2.51902 0
M  V30 3575 C 336.813 -3.21981 4.11248 0
M  V30 3576 H 338.507 -1.61881 2.51863 0
M  V30 3577 H 336.053 -0.777372 1.21214 0
M  V30 3578 H 338.006 -3.88699 1.6276 0
M  V30 3579 H 336.73 -3.2135 0.583255 0
M  V30 3580 H 335.389 -2.56843 2.61586 0
M  V30 3581 H 335.037 -4.79246 1.52748 0
M  V30 3582 H 334.737 -4.87426 3.2816 0
M  V30 3583 H 336.261 -5.52038 2.60933 0
M  V30 3584 H 337.675 -3.90049 4.20161 0
M  V30 3585 H 336.072 -3.49289 4.87972 0
M  V30 3586 H 337.142 -2.1928 4.32486 0
M  V30 3587 N 338.485 -1.33259 -0.841409 0
M  V30 3588 C 339.417 -1.19136 -1.95804 0
M  V30 3589 C 340.43 -0.122965 -1.62335 0
M  V30 3590 O 341.619 -0.373154 -1.74556 0
M  V30 3591 C 338.719 -0.804268 -3.29218 0
M  V30 3592 C 337.892 -1.96376 -3.90839 0
M  V30 3593 C 336.951 -1.55806 -5.02604 0
M  V30 3594 O 335.977 -2.27203 -5.21888 0
M  V30 3595 N 337.179 -0.461609 -5.78662 0
M  V30 3596 H 339.944 -2.15326 -2.08458 0
M  V30 3597 H 337.505 -1.25971 -1.017 0
M  V30 3598 H 339.497 -0.51501 -4.0141 0
M  V30 3599 H 338.067 0.0668809 -3.12528 0
M  V30 3600 H 337.287 -2.41879 -3.11269 0
M  V30 3601 H 338.575 -2.73966 -4.28742 0
M  V30 3602 H 337.973 0.132343 -5.65545 0
M  V30 3603 H 336.53 -0.232013 -6.51387 0
M  V30 3604 N 339.963 1.05934 -1.16686 0
M  V30 3605 C 341.211 1.78447 -0.948744 0
M  V30 3606 C 341.532 1.87813 0.524523 0
M  V30 3607 O 340.802 1.38945 1.38098 0
M  V30 3608 H 339.382 0.660971 -0.348033 0
M  V30 3609 H 342.044 1.27947 -1.47022 0
M  V30 3610 H 341.14 2.80394 -1.37061 0
M  V30 3611 N 341.441 0.965919 1.2453 0
M  V30 3612 C 342.857 0.67216 1.44756 0
M  V30 3613 C 343.057 -0.766609 1.86347 0
M  V30 3614 O 342.113 -1.5407 2.00047 0
M  V30 3615 C 343.426 1.65473 2.51076 0
M  V30 3616 C 344.974 1.66716 2.64905 0
M  V30 3617 C 345.449 2.63766 3.74421 0
M  V30 3618 N 346.94 2.62198 3.81846 0
M  V30 3619 C 347.675 3.33966 4.66106 0
M  V30 3620 N 347.171 4.15245 5.54566 0
M  V30 3621 N 348.964 3.22799 4.60171 0
M  V30 3622 H 341.115 1.89553 0.958293 0
M  V30 3623 H 343.378 0.815979 0.482579 0
M  V30 3624 H 343.084 2.68296 2.27399 0
M  V30 3625 H 342.958 1.4261 3.49202 0
M  V30 3626 H 345.345 0.646057 2.87941 0
M  V30 3627 H 345.426 1.93642 1.67142 0
M  V30 3628 H 345.07 3.6601 3.52135 0
M  V30 3629 H 345 2.34121 4.71694 0
M  V30 3630 H 347.491 2.032 3.18619 0
M  V30 3631 H 347.804 4.66898 6.15814 0
M  V30 3632 H 346.149 4.1934 5.54237 0
M  V30 3633 H 349.34 2.58764 3.90075 0
M  V30 3634 H 349.513 3.78994 5.25612 0
M  V30 3635 N 342.919 -1.39368 0.735821 0
M  V30 3636 C 343.852 -2.28155 0.0451175 0
M  V30 3637 C 344.83 -1.44433 -0.746852 0
M  V30 3638 O 346.014 -1.73823 -0.729237 0
M  V30 3639 C 343.141 -3.253 -0.943266 0
M  V30 3640 C 342.187 -4.25826 -0.239685 0
M  V30 3641 S 343.02 -5.25166 1.04693 0
M  V30 3642 C 344.176 -6.2587 0.0611639 0
M  V30 3643 H 344.409 -2.86388 0.79807 0
M  V30 3644 H 341.942 -1.45104 0.527653 0
M  V30 3645 H 343.9 -3.81789 -1.50824 0
M  V30 3646 H 342.561 -2.66085 -1.66906 0
M  V30 3647 H 341.754 -4.94229 -0.987596 0
M  V30 3648 H 341.356 -3.73141 0.253274 0
M  V30 3649 H 343.648 -6.73007 -0.778941 0
M  V30 3650 H 344.591 -7.04508 0.712362 0
M  V30 3651 H 344.999 -5.63639 -0.311602 0
M  V30 3652 N 344.397 -0.483516 -1.5 0
M  V30 3653 C 345.625 0.0644831 -2.06799 0
M  V30 3654 C 346.04 1.32399 -1.34596 0
M  V30 3655 O 345.397 1.77626 -0.418946 0
M  V30 3656 C 345.448 0.339927 -3.59898 0
M  V30 3657 O 345.169 -0.869635 -4.29382 0
M  V30 3658 C 346.67 0.933515 -4.33359 0
M  V30 3659 H 343.89 -0.0126333 -0.670881 0
M  V30 3660 H 346.434 -0.675864 -1.93009 0
M  V30 3661 H 344.589 1.03022 -3.7345 0
M  V30 3662 H 345.003 -0.62179 -5.20801 0
M  V30 3663 H 346.477 1.07593 -5.41413 0
M  V30 3664 H 346.954 1.92685 -3.94676 0
M  V30 3665 H 347.56 0.281221 -4.24369 0
M  V30 3666 N 345.875 1.56104 -0.216619 0
M  V30 3667 C 346.805 2.23063 0.690296 0
M  V30 3668 C 347.786 1.20072 1.20485 0
M  V30 3669 O 348.971 1.48643 1.24976 0
M  V30 3670 C 346.101 2.90672 1.90072 0
M  V30 3671 C 345.055 4.00092 1.5202 0
M  V30 3672 C 344.381 4.54972 2.80899 0
M  V30 3673 C 345.681 5.17398 0.71391 0
M  V30 3674 H 347.375 2.99109 0.132038 0
M  V30 3675 H 344.921 1.43866 0.0620664 0
M  V30 3676 H 346.874 3.36204 2.54057 0
M  V30 3677 H 345.598 2.12066 2.48386 0
M  V30 3678 H 344.257 3.55283 0.903839 0
M  V30 3679 H 343.905 3.73102 3.37348 0
M  V30 3680 H 343.605 5.28817 2.56176 0
M  V30 3681 H 345.129 5.0322 3.45836 0
M  V30 3682 H 346.543 5.59342 1.25735 0
M  V30 3683 H 344.94 5.97444 0.563951 0
M  V30 3684 H 346.01 4.84088 -0.280527 0
M  V30 3685 N 347.353 -0.0568162 1.57498 0
M  V30 3686 C 348.581 -0.765626 1.92213 0
M  V30 3687 C 348.996 -1.70353 0.813961 0
M  V30 3688 O 348.353 -1.81268 -0.211701 0
M  V30 3689 C 348.404 -1.5465 3.2675 0
M  V30 3690 O 348.125 -0.646278 4.33307 0
M  V30 3691 C 349.626 -2.35497 3.75574 0
M  V30 3692 H 346.846 -0.216835 0.634999 0
M  V30 3693 H 349.39 -0.0226146 2.04487 0
M  V30 3694 H 347.545 -2.24165 3.15957 0
M  V30 3695 H 347.959 -1.19093 5.108 0
M  V30 3696 H 349.433 -2.85722 4.72299 0
M  V30 3697 H 349.91 -3.15692 3.05344 0
M  V30 3698 H 350.516 -1.7111 3.8936 0
M  V30 3699 N 348.832 -1.54138 -0.328536 0
M  V30 3700 C 350.08 -1.71765 -1.06496 0
M  V30 3701 C 350.401 -0.49149 -1.88704 0
M  V30 3702 O 349.671 0.494539 -1.89555 0
M  V30 3703 H 348.251 -0.633295 -0.396164 0
M  V30 3704 H 350.913 -1.91429 -0.366176 0
M  V30 3705 H 350.009 -2.5951 -1.73381 0
M  V30 3706 N 350.31 0.590341 -1.46126 0
M  V30 3707 C 351.559 1.34499 -1.50309 0
M  V30 3708 C 351.872 1.94977 -0.156021 0
M  V30 3709 O 353.078 2.71395 -0.0756037 0
M  V30 3710 C 351.534 2.43723 -2.64815 0
M  V30 3711 C 351.142 1.89582 -4.0591 0
M  V30 3712 C 352.886 3.20579 -2.78262 0
M  V30 3713 C 350.793 2.9639 -5.11769 0
M  V30 3714 H 349.723 0.505593 -0.559368 0
M  V30 3715 H 352.374 0.630848 -1.72315 0
M  V30 3716 H 350.756 3.17902 -2.36124 0
M  V30 3717 H 351.93 1.21997 -4.44357 0
M  V30 3718 H 350.245 1.25418 -3.97063 0
M  V30 3719 H 352.842 4.00276 -3.54519 0
M  V30 3720 H 353.185 3.72684 -1.85505 0
M  V30 3721 H 353.718 2.53505 -3.06562 0
M  V30 3722 H 350.457 2.49181 -6.06291 0
M  V30 3723 H 349.977 3.62487 -4.77873 0
M  V30 3724 H 351.656 3.60474 -5.37278 0
M  V30 3725 N 351.788 1.33704 0.83433 0
M  V30 3726 C 353.034 1.25603 1.59222 0
M  V30 3727 C 353.367 -0.176659 1.93395 0
M  V30 3728 O 352.642 -1.11915 1.59076 0
M  V30 3729 C 352.925 2.13576 2.89926 0
M  V30 3730 C 352.778 3.65326 2.62406 0
M  V30 3731 C 354.097 2.01238 3.91397 0
M  V30 3732 H 351.216 0.457613 0.577719 0
M  V30 3733 H 353.858 1.63848 0.961972 0
M  V30 3734 H 352.008 1.8109 3.43713 0
M  V30 3735 H 353.68 4.08124 2.15017 0
M  V30 3736 H 351.923 3.8698 1.96033 0
M  V30 3737 H 352.594 4.22232 3.55562 0
M  V30 3738 H 355.07 2.29738 3.46929 0
M  V30 3739 H 353.946 2.65036 4.80673 0
M  V30 3740 H 354.207 0.985951 4.30966 0
M  V30 3741 N 353.266 -1.05314 1.17247 0
M  V30 3742 C 354.491 -1.82509 0.985148 0
M  V30 3743 C 354.916 -1.82343 -0.461788 0
M  V30 3744 O 354.274 -1.23151 -1.33055 0
M  V30 3745 C 354.322 -3.26566 1.52929 0
M  V30 3746 O 353.426 -4.05666 0.742225 0
M  V30 3747 H 352.767 -0.564347 0.349869 0
M  V30 3748 H 355.297 -1.32718 1.55715 0
M  V30 3749 H 355.307 -3.77369 1.55103 0
M  V30 3750 H 353.982 -3.26001 2.58256 0
M  V30 3751 H 352.559 -3.64397 0.791794 0
M  V30 3752 N 354.744 -0.972509 -1.24016 0
M  V30 3753 C 355.99 -0.647583 -1.92816 0
M  V30 3754 C 356.345 0.809015 -1.74564 0
M  V30 3755 O 355.638 1.57502 -1.09103 0
M  V30 3756 C 355.832 -0.963694 -3.44162 0
M  V30 3757 C 355.661 -2.44947 -3.77135 0
M  V30 3758 C 354.431 -3.11012 -3.98246 0
M  V30 3759 C 356.629 -3.42978 -3.83237 0
M  V30 3760 N 354.611 -4.49277 -4.18358 0
M  V30 3761 C 355.982 -4.66619 -4.08248 0
M  V30 3762 C 358.037 -3.37569 -3.65994 0
M  V30 3763 C 356.74 -5.85516 -4.17808 0
M  V30 3764 C 358.766 -4.55822 -3.76802 0
M  V30 3765 C 358.128 -5.78256 -4.02243 0
M  V30 3766 H 354.227 -0.287894 -0.727077 0
M  V30 3767 H 356.811 -1.24835 -1.49413 0
M  V30 3768 H 354.982 -0.391692 -3.8642 0
M  V30 3769 H 356.714 -0.596849 -4.00275 0
M  V30 3770 H 353.469 -2.61529 -3.94841 0
M  V30 3771 H 353.893 -5.20935 -4.32384 0
M  V30 3772 H 358.535 -2.43945 -3.45327 0
M  V30 3773 H 356.253 -6.79564 -4.37285 0
M  V30 3774 H 359.839 -4.53204 -3.64825 0
M  V30 3775 H 358.719 -6.68231 -4.10411 0
M  V30 3776 N 356.222 1.38976 -0.743202 0
M  V30 3777 C 357.47 1.99948 -0.29417 0
M  V30 3778 C 357.791 1.59279 1.12495 0
M  V30 3779 O 357.061 0.844808 1.76748 0
M  V30 3780 H 355.641 0.739473 -0.105774 0
M  V30 3781 H 358.303 1.699 -0.954986 0
M  V30 3782 H 357.399 3.10142 -0.349056 0
M  V30 3783 N 357.7 0.491464 1.49741 0
M  V30 3784 C 359.116 0.146835 1.58923 0
M  V30 3785 C 359.316 -1.34804 1.49767 0
M  V30 3786 O 358.372 -2.12317 1.36667 0
M  V30 3787 C 359.685 0.715157 2.92072 0
M  V30 3788 C 361.233 0.680407 3.05515 0
M  V30 3789 C 361.708 1.22663 4.41269 0
M  V30 3790 N 363.199 1.18691 4.47735 0
M  V30 3791 C 363.934 1.57984 5.51207 0
M  V30 3792 N 363.43 2.04824 6.6183 0
M  V30 3793 N 365.223 1.49459 5.41866 0
M  V30 3794 H 357.374 1.46347 1.53936 0
M  V30 3795 H 359.637 0.606453 0.728642 0
M  V30 3796 H 359.343 1.76317 3.04311 0
M  V30 3797 H 359.217 0.17018 3.76816 0
M  V30 3798 H 361.604 -0.358743 2.92911 0
M  V30 3799 H 361.685 1.26242 2.22478 0
M  V30 3800 H 361.329 2.26451 4.54623 0
M  V30 3801 H 361.259 0.620637 5.2293 0
M  V30 3802 H 363.75 0.843605 3.68364 0
M  V30 3803 H 364.063 2.32901 7.3687 0
M  V30 3804 H 362.408 2.08791 6.62896 0
M  V30 3805 H 365.599 1.12692 4.54333 0
M  V30 3806 H 365.772 1.80406 6.22381 0
M  V30 3807 N 359.178 -1.55987 0.224894 0
M  V30 3808 C 360.426 -1.97998 -0.405099 0
M  V30 3809 C 360.747 -1.11387 -1.60056 0
M  V30 3810 O 360.017 -0.191645 -1.9496 0
M  V30 3811 H 358.597 -0.731235 -0.152658 0
M  V30 3812 H 361.259 -1.92279 0.318567 0
M  V30 3813 H 360.355 -3.03463 -0.729167 0
M  V30 3814 N 360.656 0.0484629 -1.57525 0
M  V30 3815 C 361.896 0.748196 -1.90214 0
M  V30 3816 C 362.26 1.73545 -0.821347 0
M  V30 3817 O 363.461 2.48201 -1.03198 0
M  V30 3818 C 361.732 1.41727 -3.28098 0
M  V30 3819 S 363.291 2.14884 -3.82584 0
M  V30 3820 H 360.109 0.248307 -0.666232 0
M  V30 3821 H 362.711 0.00343188 -1.955 0
M  V30 3822 H 361.415 0.685244 -4.04639 0
M  V30 3823 H 360.946 2.20099 -3.26068 0
M  V30 3824 H 362.961 3.41755 -3.59747 0
M  V30 3825 N 362.134 1.5431 0.320358 0
M  V30 3826 C 363.097 1.83195 1.3774 0
M  V30 3827 C 364.097 0.703906 1.44575 0
M  V30 3828 O 365.287 0.972214 1.44546 0
M  V30 3829 C 362.419 1.99487 2.76438 0
M  V30 3830 H 363.612 2.77642 1.1338 0
M  V30 3831 H 361.165 1.46076 0.556012 0
M  V30 3832 H 361.9 1.07262 3.06048 0
M  V30 3833 H 361.685 2.81575 2.7287 0
M  V30 3834 H 363.175 2.23271 3.52902 0
M  V30 3835 N 363.613 -0.582584 1.46437 0
M  V30 3836 C 364.543 -1.70187 1.59871 0
M  V30 3837 C 365.524 -1.64066 0.449042 0
M  V30 3838 O 366.709 -1.82081 0.6753 0
M  V30 3839 C 363.839 -3.08827 1.58881 0
M  V30 3840 C 362.793 -3.29779 2.72819 0
M  V30 3841 C 362.119 -4.68947 2.5689 0
M  V30 3842 C 363.419 -3.17601 4.1464 0
M  V30 3843 H 365.113 -1.592 2.53566 0
M  V30 3844 H 362.659 -0.764472 1.22032 0
M  V30 3845 H 364.612 -3.86951 1.66873 0
M  V30 3846 H 363.336 -3.20713 0.617306 0
M  V30 3847 H 361.995 -2.54054 2.64296 0
M  V30 3848 H 361.643 -4.77599 1.57823 0
M  V30 3849 H 361.343 -4.83919 3.33312 0
M  V30 3850 H 362.867 -5.4924 2.66773 0
M  V30 3851 H 364.281 -3.8557 4.24274 0
M  V30 3852 H 362.678 -3.44094 4.9165 0
M  V30 3853 H 363.748 -2.14681 4.34788 0
M  V30 3854 N 365.091 -1.34144 -0.827227 0
M  V30 3855 C 366.038 -1.25364 -1.93785 0
M  V30 3856 C 367.008 -0.129774 -1.65592 0
M  V30 3857 O 368.193 -0.310024 -1.88264 0
M  V30 3858 C 365.333 -1.01064 -3.2997 0
M  V30 3859 C 364.446 -2.22185 -3.70484 0
M  V30 3860 C 363.581 -1.91203 -4.95595 0
M  V30 3861 C 362.62 -3.08491 -5.28677 0
M  V30 3862 N 361.757 -2.77421 -6.44967 0
M  V30 3863 H 366.597 -2.20347 -2.00627 0
M  V30 3864 H 364.134 -1.09558 -0.981608 0
M  V30 3865 H 366.092 -0.850139 -4.08446 0
M  V30 3866 H 364.722 -0.0975026 -3.22653 0
M  V30 3867 H 363.774 -2.4917 -2.87434 0
M  V30 3868 H 365.086 -3.0983 -3.90905 0
M  V30 3869 H 364.24 -1.71864 -5.81848 0
M  V30 3870 H 362.979 -1.00812 -4.77167 0
M  V30 3871 H 361.984 -3.28431 -4.40923 0
M  V30 3872 H 363.209 -3.99655 -5.49047 0
M  V30 3873 H 361.155 -1.89601 -6.28003 0
M  V30 3874 H 361.072 -3.58598 -6.6554 0
M  V30 3875 H 362.34 -2.61577 -7.34301 0
M  V30 3876 N 366.569 1.04691 -1.17803 0
M  V30 3877 C 367.846 1.7472 -0.879328 0
M  V30 3878 C 368.226 2.01812 0.619271 0
M  V30 3879 O 367.574 1.65824 1.57209 0
M  V30 3880 C 367.784 3.03686 -1.71976 0
M  V30 3881 C 369.132 3.77542 -1.94286 0
M  V30 3882 O 370.156 3.13569 -1.68976 0
M  V30 3883 O 369.015 4.92506 -2.36855 0
M  V30 3884 H 366.109 0.760011 -0.326056 0
M  V30 3885 H 368.655 1.10813 -1.28525 0
M  V30 3886 H 367.427 2.79754 -2.73594 0
M  V30 3887 H 367.05 3.75332 -1.31194 0
M  V30 3888 N 368.047 0.979072 1.23499 0
M  V30 3889 C 368.994 0.517904 2.24914 0
M  V30 3890 C 369.964 -0.442525 1.60097 0
M  V30 3891 O 371.149 -0.350365 1.87556 0
M  V30 3892 C 368.289 -0.174813 3.44657 0
M  V30 3893 C 367.402 0.825721 4.24035 0
M  V30 3894 C 366.537 0.107946 5.3109 0
M  V30 3895 C 365.576 1.09778 6.02175 0
M  V30 3896 N 364.713 0.40925 7.00906 0
M  V30 3897 H 369.553 1.38751 2.63727 0
M  V30 3898 H 367.09 0.695303 1.2963 0
M  V30 3899 H 369.048 -0.593233 4.12961 0
M  V30 3900 H 367.678 -1.0083 3.06648 0
M  V30 3901 H 366.73 1.36253 3.55161 0
M  V30 3902 H 368.042 1.58005 4.73113 0
M  V30 3903 H 367.196 -0.367904 6.05583 0
M  V30 3904 H 365.935 -0.678994 4.8295 0
M  V30 3905 H 364.94 1.5844 5.26476 0
M  V30 3906 H 366.165 1.88536 6.52404 0
M  V30 3907 H 364.111 -0.358506 6.5502 0
M  V30 3908 H 364.028 1.10226 7.47921 0
M  V30 3909 H 365.296 -0.0442557 7.79487 0
M  V30 3910 N 369.525 -1.3858 0.750561 0
M  V30 3911 C 370.936 -1.82927 0.373438 0
M  V30 3912 C 371.287 -1.62634 -1.09748 0
M  V30 3913 O 370.412 -1.12588 -1.84805 0
M  V30 3914 C 371.007 -3.32088 0.671029 0
M  V30 3915 C 369.566 -3.74795 0.34722 0
M  V30 3916 C 368.713 -2.61391 0.92575 0
M  V30 3917 H 371.664 -1.27351 0.946958 0
M  V30 3918 H 371.685 -3.80465 -0.0518269 0
M  V30 3919 H 371.197 -3.46826 1.74164 0
M  V30 3920 H 369.298 -3.65638 -0.716933 0
M  V30 3921 H 369.411 -4.71667 0.840656 0
M  V30 3922 H 367.775 -2.52265 0.351327 0
M  V30 3923 H 368.558 -2.78929 2.00133 0
M  V30 3924 N 371.003 -0.499398 -1.49478 0
M  V30 3925 C 372.251 0.0455996 -2.02049 0
M  V30 3926 C 372.572 1.37633 -1.38138 0
M  V30 3927 O 371.842 1.8842 -0.536166 0
M  V30 3928 H 370.422 0.0198416 -0.746736 0
M  V30 3929 H 373.084 -0.656274 -1.83519 0
M  V30 3930 H 372.18 0.176445 -3.11601 0
M  V30 3931 N 372.481 1.55866 -0.233164 0
M  V30 3932 C 373.727 1.98897 0.395959 0
M  V30 3933 C 374.06 1.12091 1.58585 0
M  V30 3934 O 373.335 0.181182 1.93654 0
M  V30 3935 C 373.618 3.50658 0.819224 0
M  V30 3936 C 373.471 4.48233 -0.375109 0
M  V30 3937 C 374.79 4.07135 1.67121 0
M  V30 3938 H 371.909 0.723102 0.142451 0
M  V30 3939 H 374.551 1.87082 -0.331725 0
M  V30 3940 H 372.701 3.60857 1.43925 0
M  V30 3941 H 374.373 4.50031 -1.01341 0
M  V30 3942 H 372.616 4.21624 -1.02058 0
M  V30 3943 H 373.287 5.51988 -0.0358328 0
M  V30 3944 H 375.763 3.99952 1.14795 0
M  V30 3945 H 374.639 5.13615 1.93625 0
M  V30 3946 H 374.9 3.54736 2.63846 0
M  V30 3947 N 373.959 -0.0401083 1.57549 0
M  V30 3948 C 375.189 -0.744115 1.92734 0
M  V30 3949 C 375.597 -1.70005 0.830348 0
M  V30 3950 O 374.94 -1.82576 -0.20286 0
M  V30 3951 C 375.002 -1.56516 3.2364 0
M  V30 3952 C 374.666 -0.7752 4.50377 0
M  V30 3953 C 375.663 -0.0803326 5.19838 0
M  V30 3954 C 373.348 -0.733002 4.96923 0
M  V30 3955 C 375.342 0.646154 6.34116 0
M  V30 3956 C 373.029 -0.00276321 6.111 0
M  V30 3957 C 374.027 0.685585 6.7955 0
M  V30 3958 O 373.715 1.40399 7.91545 0
M  V30 3959 H 373.447 -0.214861 0.640945 0
M  V30 3960 H 376.001 -0.00503675 2.05399 0
M  V30 3961 H 374.231 -2.3478 3.07271 0
M  V30 3962 H 375.92 -2.15076 3.44234 0
M  V30 3963 H 376.686 -0.104035 4.84888 0
M  V30 3964 H 372.565 -1.25827 4.43496 0
M  V30 3965 H 376.109 1.18398 6.87479 0
M  V30 3966 H 372.006 0.0229012 6.45496 0
M  V30 3967 H 372.774 1.31653 8.07843 0
M  V30 3968 N 375.437 -1.54477 -0.31217 0
M  V30 3969 C 376.665 -1.77205 -1.068 0
M  V30 3970 C 377.08 -0.526114 -1.81321 0
M  V30 3971 O 376.437 0.503647 -1.75413 0
M  V30 3972 C 376.488 -2.97253 -2.05725 0
M  V30 3973 O 376.209 -4.1703 -1.34228 0
M  V30 3974 C 377.71 -3.32281 -2.93435 0
M  V30 3975 H 374.93 -0.591287 -0.317208 0
M  V30 3976 H 377.474 -2.01398 -0.354834 0
M  V30 3977 H 375.629 -2.753 -2.72559 0
M  V30 3978 H 376.043 -4.84636 -2.00571 0
M  V30 3979 H 377.517 -4.19551 -3.58721 0
M  V30 3980 H 377.994 -2.49945 -3.61143 0
M  V30 3981 H 378.6 -3.56353 -2.32147 0
M  V30 3982 N 376.915 0.57481 -1.46744 0
M  V30 3983 C 378.331 0.898981 -1.31873 0
M  V30 3984 C 378.531 1.99313 -0.29605 0
M  V30 3985 O 377.587 2.50728 0.298621 0
M  V30 3986 C 378.9 1.30886 -2.7072 0
M  V30 3987 C 380.448 1.42127 -2.78871 0
M  V30 3988 C 380.923 1.86478 -4.18318 0
M  V30 3989 N 382.414 1.93658 -4.20774 0
M  V30 3990 C 383.149 2.29267 -5.2557 0
M  V30 3991 N 382.645 2.63612 -6.40688 0
M  V30 3992 N 384.438 2.29889 -5.1294 0
M  V30 3993 H 376.589 -0.147839 -2.11885 0
M  V30 3994 H 378.852 -0.00347013 -0.947994 0
M  V30 3995 H 378.558 0.578853 -3.46904 0
M  V30 3996 H 378.432 2.26874 -3.01343 0
M  V30 3997 H 380.819 2.14213 -2.0297 0
M  V30 3998 H 380.9 0.443705 -2.51922 0
M  V30 3999 H 380.544 1.14968 -4.94717 0
M  V30 4000 H 380.474 2.85207 -4.42679 0
M  V30 4001 H 382.965 1.69574 -3.37718 0
M  V30 4002 H 383.278 2.89759 -7.16421 0
M  V30 4003 H 381.623 2.61232 -6.44036 0
M  V30 4004 H 384.814 2.02485 -4.22039 0
M  V30 4005 H 384.987 2.57312 -5.94722 0
M  V30 4006 N 378.394 1.34581 0.820102 0
M  V30 4007 C 379.64 1.27285 1.57881 0
M  V30 4008 C 379.973 -0.156137 1.93571 0
M  V30 4009 O 379.248 -1.10222 1.60254 0
M  V30 4010 C 379.531 2.16639 2.87645 0
M  V30 4011 C 379.384 3.68088 2.58517 0
M  V30 4012 C 380.703 2.05378 3.8924 0
M  V30 4013 H 377.822 0.463714 0.572833 0
M  V30 4014 H 380.464 1.64859 0.944539 0
M  V30 4015 H 378.614 1.84725 3.41773 0
M  V30 4016 H 380.286 4.10382 2.10676 0
M  V30 4017 H 378.529 3.89038 1.91917 0
M  V30 4018 H 379.2 4.2598 3.51063 0
M  V30 4019 H 381.676 2.33404 3.44473 0
M  V30 4020 H 380.552 2.7012 4.77835 0
M  V30 4021 H 380.813 1.0316 4.29896 0
M  V30 4022 N 379.872 -1.04064 1.18357 0
M  V30 4023 C 381.097 -1.81454 1.00445 0
M  V30 4024 C 381.522 -1.82823 -0.442423 0
M  V30 4025 O 380.88 -1.24555 -1.31741 0
M  V30 4026 C 380.928 -3.24925 1.56384 0
M  V30 4027 O 380.032 -4.04856 0.785209 0
M  V30 4028 H 379.373 -0.560604 0.355835 0
M  V30 4029 H 381.903 -1.31059 1.57114 0
M  V30 4030 H 381.913 -3.75702 1.59097 0
M  V30 4031 H 380.588 -3.23244 2.61699 0
M  V30 4032 H 379.165 -3.63537 0.830399 0
M  V30 4033 N 381.35 -0.985608 -1.22978 0
M  V30 4034 C 382.3 -0.50118 -2.22423 0
M  V30 4035 C 383.284 0.426649 -1.5514 0
M  V30 4036 O 384.476 0.254656 -1.75159 0
M  V30 4037 C 381.605 0.190003 -3.42774 0
M  V30 4038 C 380.691 -0.757703 -4.17276 0
M  V30 4039 N 381.082 -1.90251 -4.68656 0
M  V30 4040 C 379.38 -0.57209 -4.42316 0
M  V30 4041 C 380.081 -2.49676 -5.25392 0
M  V30 4042 N 379.057 -1.78013 -5.13627 0
M  V30 4043 H 382.859 -1.37441 -2.59783 0
M  V30 4044 H 380.373 -0.846941 -1.38567 0
M  V30 4045 H 382.37 0.55439 -4.13197 0
M  V30 4046 H 381.03 1.05946 -3.06929 0
M  V30 4047 H 382.041 -2.28354 -4.64839 0
M  V30 4048 H 378.718 0.251909 -4.16739 0
M  V30 4049 H 380.108 -3.46384 -5.75732 0
M  V30 4050 N 382.828 1.3818 -0.7579 0
M  V30 4051 C 384.075 2.00019 -0.315985 0
M  V30 4052 C 384.403 1.60163 1.10355 0
M  V30 4053 O 383.658 0.83264 1.77103 0
M  V30 4054 C 383.957 3.55252 -0.391218 0
M  V30 4055 C 383.623 4.14834 -1.76702 0
M  V30 4056 C 382.285 4.30821 -2.14353 0
M  V30 4057 C 384.637 4.47658 -2.66931 0
M  V30 4058 C 381.965 4.76928 -3.41696 0
M  V30 4059 C 384.317 4.95184 -3.93669 0
M  V30 4060 C 382.981 5.09377 -4.31383 0
M  V30 4061 H 382.251 0.731923 -0.115627 0
M  V30 4062 H 384.898 1.65161 -0.969223 0
M  V30 4063 H 383.203 3.90273 0.34558 0
M  V30 4064 H 384.9 4.00988 -0.030805 0
M  V30 4065 H 381.49 4.02808 -1.46435 0
M  V30 4066 H 385.674 4.34904 -2.39106 0
M  V30 4067 H 380.93 4.86103 -3.70829 0
M  V30 4068 H 385.104 5.19551 -4.63724 0
M  V30 4069 H 382.731 5.44865 -5.30119 0
M  V30 4070 N 384.306 0.507319 1.49211 0
M  V30 4071 C 385.236 -0.256939 2.32082 0
M  V30 4072 C 386.217 -0.956609 1.40652 0
M  V30 4073 O 387.402 -0.946788 1.69557 0
M  V30 4074 C 384.532 -1.31802 3.21318 0
M  V30 4075 C 383.486 -0.737855 4.21592 0
M  V30 4076 C 382.812 -1.89992 4.99807 0
M  V30 4077 C 384.112 0.275325 5.21574 0
M  V30 4078 H 385.806 0.434798 2.96226 0
M  V30 4079 H 383.352 0.210546 1.42452 0
M  V30 4080 H 385.305 -1.86045 3.78107 0
M  V30 4081 H 384.029 -2.03903 2.5513 0
M  V30 4082 H 382.688 -0.217126 3.65956 0
M  V30 4083 H 382.336 -2.60877 4.30061 0
M  V30 4084 H 382.036 -1.51777 5.6766 0
M  V30 4085 H 383.56 -2.44657 5.59442 0
M  V30 4086 H 384.974 -0.179193 5.7302 0
M  V30 4087 H 383.371 0.573649 5.97352 0
M  V30 4088 H 384.441 1.18903 4.70096 0
M  V30 4089 N 385.784 -1.5574 0.241426 0
M  V30 4090 C 387.195 -1.84842 -0.262755 0
M  V30 4091 C 387.546 -1.16317 -1.58003 0
M  V30 4092 O 386.671 -0.439653 -2.11887 0
M  V30 4093 C 387.266 -3.35332 -0.483523 0
M  V30 4094 C 385.825 -3.6468 -0.931977 0
M  V30 4095 C 384.972 -2.77299 -0.0061151 0
M  V30 4096 H 387.923 -1.51761 0.464129 0
M  V30 4097 H 387.944 -3.56615 -1.32688 0
M  V30 4098 H 387.456 -3.85178 0.47537 0
M  V30 4099 H 385.557 -3.20307 -1.90353 0
M  V30 4100 H 385.67 -4.72498 -0.792628 0
M  V30 4101 H 384.034 -2.49408 -0.516503 0
M  V30 4102 H 384.817 -3.2995 0.948052 0
M  V30 4103 N 387.262 0.0317525 -1.57568 0
M  V30 4104 C 388.508 0.718712 -1.90279 0
M  V30 4105 C 388.863 1.73108 -0.839727 0
M  V30 4106 O 388.156 1.90997 0.15188 0
M  V30 4107 C 388.35 1.43167 -3.27472 0
M  V30 4108 C 388.179 0.489869 -4.47024 0
M  V30 4109 C 386.949 0.111909 -5.05176 0
M  V30 4110 C 389.147 -0.230592 -5.13783 0
M  V30 4111 N 387.129 -0.831427 -6.08244 0
M  V30 4112 C 388.5 -1.02968 -6.1139 0
M  V30 4113 C 390.555 -0.297821 -4.97008 0
M  V30 4114 C 389.258 -1.88982 -6.9403 0
M  V30 4115 C 391.284 -1.14507 -5.80209 0
M  V30 4116 C 390.646 -1.9321 -6.77384 0
M  V30 4117 H 386.745 0.237177 -0.745165 0
M  V30 4118 H 389.329 -0.0211267 -1.94689 0
M  V30 4119 H 387.5 2.14199 -3.23996 0
M  V30 4120 H 389.232 2.0708 -3.47707 0
M  V30 4121 H 385.987 0.473513 -4.71227 0
M  V30 4122 H 386.411 -1.29752 -6.6445 0
M  V30 4123 H 391.053 0.296346 -4.2176 0
M  V30 4124 H 388.771 -2.4948 -7.68626 0
M  V30 4125 H 392.357 -1.20059 -5.69278 0
M  V30 4126 H 391.237 -2.57711 -7.40645 0
M  V30 4127 N 388.74 1.54641 0.303973 0
M  V30 4128 C 389.989 1.7299 1.03717 0
M  V30 4129 C 390.302 0.521168 1.88529 0
M  V30 4130 O 391.508 0.586408 2.65092 0
M  V30 4131 C 389.964 3.06051 1.89369 0
M  V30 4132 C 389.572 4.34393 1.09574 0
M  V30 4133 C 391.316 3.3376 2.62306 0
M  V30 4134 C 389.223 5.58506 1.94486 0
M  V30 4135 H 388.153 0.64473 0.390947 0
M  V30 4136 H 390.804 1.81124 0.294328 0
M  V30 4137 H 389.186 2.91874 2.67629 0
M  V30 4138 H 390.36 4.59396 0.359485 0
M  V30 4139 H 388.675 4.13597 0.482324 0
M  V30 4140 H 391.272 4.23687 3.26181 0
M  V30 4141 H 391.615 2.52503 3.3098 0
M  V30 4142 H 392.148 3.48894 1.91097 0
M  V30 4143 H 388.887 6.42422 1.30287 0
M  V30 4144 H 388.407 5.37694 2.65792 0
M  V30 4145 H 390.086 5.95651 2.52605 0
M  V30 4146 N 390.218 -0.567019 1.47046 0
M  V30 4147 C 391.634 -0.891975 1.32348 0
M  V30 4148 C 391.834 -1.99154 0.306616 0
M  V30 4149 O 390.89 -2.50883 -0.28532 0
M  V30 4150 C 392.203 -1.29449 2.7141 0
M  V30 4151 C 393.751 -1.40646 2.79621 0
M  V30 4152 C 394.226 -1.84257 4.19301 0
M  V30 4153 N 395.717 -1.91424 4.21795 0
M  V30 4154 C 396.452 -2.26476 5.26779 0
M  V30 4155 N 395.948 -2.60211 6.42077 0
M  V30 4156 N 397.741 -2.27166 5.14152 0
M  V30 4157 H 389.892 0.159074 2.11803 0
M  V30 4158 H 392.155 0.00849752 0.947962 0
M  V30 4159 H 391.861 -0.560448 3.47206 0
M  V30 4160 H 391.735 -2.25273 3.02542 0
M  V30 4161 H 394.122 -2.13133 2.04104 0
M  V30 4162 H 394.203 -0.430339 2.52154 0
M  V30 4163 H 393.847 -1.12343 4.95319 0
M  V30 4164 H 393.777 -2.82855 4.44185 0
M  V30 4165 H 396.268 -1.6778 3.38612 0
M  V30 4166 H 396.581 -2.85956 7.17948 0
M  V30 4167 H 394.926 -2.57813 6.45413 0
M  V30 4168 H 398.117 -2.00244 4.23107 0
M  V30 4169 H 398.29 -2.54154 5.96079 0
M  V30 4170 N 391.696 -1.35014 -0.812953 0
M  V30 4171 C 392.921 -1.31187 -1.60639 0
M  V30 4172 C 393.346 0.109382 -1.87782 0
M  V30 4173 O 392.704 1.07424 -1.46047 0
M  V30 4174 C 392.752 -2.11809 -2.91838 0
M  V30 4175 O 391.856 -1.49444 -3.8437 0
M  V30 4176 H 391.197 -0.450084 -0.488181 0
M  V30 4177 H 393.727 -1.77963 -1.00947 0
M  V30 4178 H 393.737 -2.23531 -3.41318 0
M  V30 4179 H 392.412 -3.15137 -2.71407 0
M  V30 4180 H 390.989 -1.46524 -3.42907 0
M  V30 4181 N 393.175 1.03435 -1.18907 0
M  V30 4182 C 394.125 2.09924 -0.889706 0
M  V30 4183 C 395.109 1.60261 0.143216 0
M  V30 4184 O 396.301 1.76892 -0.0617122 0
M  V30 4185 C 393.43 3.40669 -0.424168 0
M  V30 4186 C 392.516 3.97082 -1.48952 0
M  V30 4187 N 392.907 4.27227 -2.70759 0
M  V30 4188 C 391.205 4.25029 -1.35152 0
M  V30 4189 C 391.906 4.7246 -3.39347 0
M  V30 4190 N 390.882 4.7366 -2.66735 0
M  V30 4191 H 394.684 2.31116 -1.81555 0
M  V30 4192 H 392.198 1.21246 -1.08042 0
M  V30 4193 H 394.195 4.16461 -0.191176 0
M  V30 4194 H 392.855 3.20901 0.495263 0
M  V30 4195 H 393.866 4.16678 -3.0757 0
M  V30 4196 H 390.543 4.14554 -0.495126 0
M  V30 4197 H 391.933 5.04751 -4.43481 0
M  V30 4198 N 394.653 0.992116 1.22453 0
M  V30 4199 C 395.881 0.685944 1.95198 0
M  V30 4200 C 396.296 -0.749233 1.73297 0
M  V30 4201 O 395.653 -1.50549 1.03156 0
M  V30 4202 C 395.704 0.981395 3.47924 0
M  V30 4203 O 395.425 2.36018 3.6909 0
M  V30 4204 C 396.926 0.692815 4.37853 0
M  V30 4205 H 394.146 0.253821 0.621141 0
M  V30 4206 H 396.69 1.32668 1.55626 0
M  V30 4207 H 394.845 0.386481 3.85467 0
M  V30 4208 H 395.259 2.45884 4.63294 0
M  V30 4209 H 396.733 0.949818 5.43767 0
M  V30 4210 H 397.21 -0.373181 4.37612 0
M  V30 4211 H 397.816 1.26874 4.05935 0
M  V30 4212 N 396.131 -1.37776 0.765217 0
M  V30 4213 C 397.078 -2.30342 0.145274 0
M  V30 4214 C 398.048 -1.5077 -0.696971 0
M  V30 4215 O 399.233 -1.79362 -0.650689 0
M  V30 4216 C 396.373 -3.37227 -0.732939 0
M  V30 4217 C 395.486 -4.31819 0.125199 0
M  V30 4218 C 394.621 -5.25777 -0.757107 0
M  V30 4219 C 393.66 -6.12012 0.103963 0
M  V30 4220 N 392.797 -6.98232 -0.735953 0
M  V30 4221 H 397.637 -2.8278 0.940195 0
M  V30 4222 H 395.174 -1.39211 0.475255 0
M  V30 4223 H 397.132 -3.97818 -1.25686 0
M  V30 4224 H 395.762 -2.86171 -1.49353 0
M  V30 4225 H 394.814 -3.7259 0.766865 0
M  V30 4226 H 396.126 -4.92509 0.789683 0
M  V30 4227 H 395.28 -5.91541 -1.34776 0
M  V30 4228 H 394.019 -4.65481 -1.45529 0
M  V30 4229 H 393.024 -5.45233 0.707197 0
M  V30 4230 H 394.249 -6.74379 0.799381 0
M  V30 4231 H 392.195 -6.40472 -1.41887 0
M  V30 4232 H 392.112 -7.55891 -0.128624 0
M  V30 4233 H 393.38 -7.68393 -1.31121 0
M  V30 4234 N 397.609 -0.515225 -1.4894 0
M  V30 4235 C 398.519 0.259774 -2.33157 0
M  V30 4236 C 399.535 0.953501 -1.45548 0
M  V30 4237 O 400.711 0.931735 -1.78552 0
M  V30 4238 C 397.776 1.30193 -3.21326 0
M  V30 4239 C 396.837 0.620129 -4.24797 0
M  V30 4240 C 396.07 1.61263 -5.08753 0
M  V30 4241 O 396.293 2.84389 -4.94448 0
M  V30 4242 O 395.227 1.16013 -5.90614 0
M  V30 4243 H 399.053 -0.429932 -3.00641 0
M  V30 4244 H 396.638 -0.276346 -1.46822 0
M  V30 4245 H 398.52 1.90455 -3.75905 0
M  V30 4246 H 397.195 1.97431 -2.56521 0
M  V30 4247 H 396.102 -0.0226019 -3.74093 0
M  V30 4248 H 397.435 -0.0100493 -4.92199 0
M  V30 4249 N 399.087 1.5561 -0.249682 0
M  V30 4250 C 399.997 2.25143 0.659375 0
M  V30 4251 C 401.013 1.2685 1.19101 0
M  V30 4252 O 402.189 1.59732 1.22669 0
M  V30 4253 C 399.254 2.93945 1.8384 0
M  V30 4254 C 398.315 4.07655 1.34596 0
M  V30 4255 C 397.548 4.73167 2.46878 0
M  V30 4256 O 397.771 4.37768 3.65671 0
M  V30 4257 O 396.705 5.61623 2.16478 0
M  V30 4258 H 400.531 3.03545 0.0968698 0
M  V30 4259 H 398.116 1.49389 -0.018074 0
M  V30 4260 H 399.998 3.37271 2.52638 0
M  V30 4261 H 398.673 2.18481 2.38847 0
M  V30 4262 H 397.58 3.68839 0.625174 0
M  V30 4263 H 398.913 4.84946 0.841941 0
M  V30 4264 N 400.565 -0.0233959 1.57583 0
M  V30 4265 C 401.513 -1.04063 2.08023 0
M  V30 4266 C 402.507 -1.37084 0.995204 0
M  V30 4267 O 403.713 -1.35923 1.18004 0
M  V30 4268 H 400.088 -0.353144 0.663922 0
M  V30 4269 H 402.059 -0.589453 2.9252 0
M  V30 4270 C 400.808 -2.33123 2.57971 0
M  V30 4271 H 400.131 -2.08577 3.4108 0
M  V30 4272 H 401.571 -3.02632 2.96967 0
M  V30 4273 C 400.03 -3.02483 1.48342 0
M  V30 4274 O 400.56 -3.92541 0.852898 0
M  V30 4275 N 398.766 -2.63909 1.21658 0
M  V30 4276 H 398.313 -1.90758 1.73116 0
M  V30 4277 H 398.271 -3.10633 0.485218 0
M  V30 4278 N 402.043 -1.548 -0.295768 0
M  V30 4279 C 403.291 -1.73985 -1.02828 0
M  V30 4280 C 403.612 -0.531406 -1.87619 0
M  V30 4281 O 402.882 0.454221 -1.90561 0
M  V30 4282 H 401.462 -0.641556 -0.382642 0
M  V30 4283 H 404.124 -1.92163 -0.325489 0
M  V30 4284 H 403.22 -2.63129 -1.67838 0
M  V30 4285 N 403.521 0.559213 -1.47345 0
M  V30 4286 C 404.451 1.67622 -1.62558 0
M  V30 4287 C 405.432 1.63331 -0.475087 0
M  V30 4288 O 406.617 1.80983 -0.704182 0
M  V30 4289 C 403.747 3.0626 -1.63774 0
M  V30 4290 C 402.701 3.25397 -2.7803 0
M  V30 4291 C 402.027 4.64801 -2.64318 0
M  V30 4292 C 403.327 3.10965 -4.19641 0
M  V30 4293 H 405.021 1.55146 -2.56067 0
M  V30 4294 H 402.567 0.744961 -1.23233 0
M  V30 4295 H 404.52 3.84247 -1.73008 0
M  V30 4296 H 403.244 3.1969 -0.66825 0
M  V30 4297 H 401.903 2.49817 -2.68304 0
M  V30 4298 H 401.551 4.75028 -1.65401 0
M  V30 4299 H 401.251 4.78555 -3.40968 0
M  V30 4300 H 402.775 5.44926 -2.75478 0
M  V30 4301 H 404.189 3.78772 -4.30354 0
M  V30 4302 H 402.586 3.36229 -4.97062 0
M  V30 4303 H 403.656 2.07736 -4.38148 0
M  V30 4304 N 404.999 1.35443 0.805782 0
M  V30 4305 C 405.962 1.28301 1.89925 0
M  V30 4306 C 406.962 0.194285 1.59622 0
M  V30 4307 O 408.152 0.448036 1.6834 0
M  V30 4308 C 405.284 0.984997 3.2636 0
M  V30 4309 H 406.477 2.2553 1.97677 0
M  V30 4310 H 404.03 1.19979 1.00173 0
M  V30 4311 H 404.765 0.016603 3.24296 0
M  V30 4312 H 404.55 1.77269 3.4974 0
M  V30 4313 H 406.04 0.960651 4.064 0
M  V30 4314 N 406.477 -1.02803 1.19454 0
M  V30 4315 C 407.407 -2.12999 0.956758 0
M  V30 4316 C 408.388 -1.69743 -0.110188 0
M  V30 4317 O 409.573 -1.94148 0.0450038 0
M  V30 4318 C 406.703 -3.43746 0.495553 0
M  V30 4319 C 405.657 -4.00688 1.50443 0
M  V30 4320 C 404.983 -5.27067 0.900275 0
M  V30 4321 C 406.283 -4.35397 2.8849 0
M  V30 4322 H 407.977 -2.33148 1.87836 0
M  V30 4323 H 405.523 -1.12045 0.904539 0
M  V30 4324 H 407.476 -4.2021 0.316493 0
M  V30 4325 H 406.2 -3.23321 -0.461646 0
M  V30 4326 H 404.859 -3.2632 1.67065 0
M  V30 4327 H 404.507 -5.02959 -0.064503 0
M  V30 4328 H 404.207 -5.66127 1.57397 0
M  V30 4329 H 405.731 -6.06196 0.73203 0
M  V30 4330 H 407.145 -5.02795 2.75446 0
M  V30 4331 H 405.542 -4.85541 3.52661 0
M  V30 4332 H 406.612 -3.44662 3.41081 0
M  V30 4333 O 407.994 -1.12654 -1.15721 0
M  V30 4334 H 408.685 -0.83899 -1.74587 0
M  V30 END ATOM
M  V30 BEGIN BOND
M  V30 END BOND
M  V30 END CTAB
M  END
$$$$
