drugbank_drug|DB00054 pdb|6V4P|C Chain C, Abciximab, heavy chain
 OpenBabel12092119123D

  0  0  0     0  0            999 V3000
M  V30 BEGIN CTAB
M  V30 COUNTS 3363 3408 0 0 0
M  V30 BEGIN ATOM
M  V30 1 H -0.908 1.98254 -0.117106 0
M  V30 2 N 0 1.576 0 0
M  V30 3 C 0.91 2.11853 1.00774 0
M  V30 4 C 1.926 1.06379 1.37693 0
M  V30 5 O 3.102 1.3828 1.46426 0
M  V30 6 C 0.167 2.61108 2.28087 0
M  V30 7 C -0.772 3.81183 1.9748 0
M  V30 8 C -1.539 4.28079 3.18723 0
M  V30 9 O -1.316 3.74307 4.30407 0
M  V30 10 O -2.382 5.20234 3.02721 0
M  V30 11 H 1.444 2.98177 0.576547 0
M  V30 12 H -0.971 1.47789 0.218828 0
M  V30 13 H 0.911 2.92987 3.0288 0
M  V30 14 H -0.414 1.77881 2.70444 0
M  V30 15 H -1.507 3.54277 1.20162 0
M  V30 16 H -0.174 4.65482 1.5996 0
M  V30 17 N 1.4781 -0.272755 1.55222 0
M  V30 18 C 2.7241 -1.00581 1.761 0
M  V30 19 C 3.0571 -1.85932 0.560625 0
M  V30 20 O 2.3321 -1.89416 -0.441801 0
M  V30 21 C 2.6151 -1.88816 3.06628 0
M  V30 22 C 2.4681 -1.06457 4.37021 0
M  V30 23 C 3.7871 -2.8752 3.33197 0
M  V30 24 H 0.9061 -0.364244 0.640699 0
M  V30 25 H 3.5481 -0.278189 1.87952 0
M  V30 26 H 1.6981 -2.50856 2.96654 0
M  V30 27 H 3.3701 -0.464863 4.58952 0
M  V30 28 H 1.6131 -0.368043 4.32236 0
M  V30 29 H 2.2841 -1.71514 5.24678 0
M  V30 30 H 4.7601 -2.35615 3.42965 0
M  V30 31 H 3.6361 -3.46399 4.25792 0
M  V30 32 H 3.8971 -3.62657 2.52849 0
M  V30 33 N 2.9562 -1.48159 -0.537278 0
M  V30 34 C 3.8882 -1.58218 -1.65831 0
M  V30 35 C 4.9012 -0.466948 -1.5596 0
M  V30 36 O 6.0902 -0.73747 -1.62553 0
M  V30 37 C 3.1902 -1.48906 -3.04434 0
M  V30 38 C 2.3632 -2.75343 -3.3986 0
M  V30 39 C 1.4222 -2.59588 -4.57712 0
M  V30 40 O 0.4482 -3.33457 -4.61297 0
M  V30 41 N 1.6502 -1.68724 -5.55439 0
M  V30 42 H 4.4152 -2.54891 -1.57641 0
M  V30 43 H 1.9762 -1.4479 -0.724386 0
M  V30 44 H 3.9682 -1.36072 -3.81139 0
M  V30 45 H 2.5382 -0.602368 -3.06741 0
M  V30 46 H 1.7582 -3.02795 -2.52406 0
M  V30 47 H 3.0462 -3.5924 -3.60311 0
M  V30 48 H 2.4442 -1.07898 -5.55315 0
M  V30 49 H 1.0012 -1.61832 -6.3139 0
M  V30 50 N 4.4343 0.785586 -1.36625 0
M  V30 51 C 5.3643 1.91259 -1.33949 0
M  V30 52 C 6.3453 1.68795 -0.210325 0
M  V30 53 O 7.5303 1.89854 -0.408561 0
M  V30 54 C 4.6603 3.28339 -1.13186 0
M  V30 55 C 3.6143 3.65335 -2.22967 0
M  V30 56 C 2.9403 5.00806 -1.87342 0
M  V30 57 C 4.2403 3.7352 -3.65075 0
M  V30 58 H 5.9343 1.93755 -2.28253 0
M  V30 59 H 3.4803 0.930788 -1.09874 0
M  V30 60 H 5.4333 4.06804 -1.09948 0
M  V30 61 H 4.1573 3.2624 -0.153332 0
M  V30 62 H 2.8163 2.89169 -2.25337 0
M  V30 63 H 2.4643 4.95233 -0.880545 0
M  V30 64 H 2.1643 5.26529 -2.60846 0
M  V30 65 H 3.6883 5.81687 -1.85667 0
M  V30 66 H 5.1023 4.42168 -3.64911 0
M  V30 67 H 3.4993 4.10731 -4.37516 0
M  V30 68 H 4.5693 2.74527 -3.99703 0
M  V30 69 N 5.9124 1.20967 1.01018 0
M  V30 70 C 6.8444 0.922059 2.09835 0
M  V30 71 C 7.8574 -0.0927106 1.62536 0
M  V30 72 O 9.0464 0.139127 1.77957 0
M  V30 73 C 6.1464 0.362004 3.36961 0
M  V30 74 C 5.3194 1.42986 4.13369 0
M  V30 75 C 4.3784 0.879976 5.1879 0
M  V30 76 O 3.4044 1.56219 5.47343 0
M  V30 77 N 4.6064 -0.307396 5.79686 0
M  V30 78 H 7.3714 1.8588 2.35093 0
M  V30 79 H 4.9324 1.11422 1.1746 0
M  V30 80 H 6.9244 -0.0201474 4.04695 0
M  V30 81 H 5.4944 -0.479437 3.08902 0
M  V30 82 H 4.7144 1.98608 3.40512 0
M  V30 83 H 6.0024 2.14885 4.61196 0
M  V30 84 H 5.4004 -0.878796 5.58832 0
M  V30 85 H 3.9574 -0.631115 6.48737 0
M  V30 86 N 7.3905 -1.2043 1.01659 0
M  V30 87 C 8.3225 -2.22626 0.544988 0
M  V30 88 C 9.3355 -1.58479 -0.372609 0
M  V30 89 O 10.5245 -1.77679 -0.170958 0
M  V30 90 C 7.6245 -3.38141 -0.22663 0
M  V30 91 C 6.7975 -4.31877 0.692876 0
M  V30 92 C 5.8565 -5.26191 -0.0311616 0
M  V30 93 O 4.8825 -5.6612 0.591343 0
M  V30 94 N 6.0845 -5.65618 -1.30601 0
M  V30 95 H 8.8495 -2.63716 1.42388 0
M  V30 96 H 6.4105 -1.34971 0.894116 0
M  V30 97 H 8.4025 -3.98239 -0.72024 0
M  V30 98 H 6.9725 -2.95943 -1.00681 0
M  V30 99 H 6.1925 -3.69746 1.36679 0
M  V30 100 H 7.4805 -4.91426 1.31824 0
M  V30 101 H 6.8785 -5.3519 -1.83269 0
M  V30 102 H 5.4355 -6.28025 -1.74435 0
M  V30 103 N 8.8686 -0.792821 -1.36206 0
M  V30 104 C 10.0936 -0.377701 -2.03932 0
M  V30 105 C 10.5186 0.998947 -1.59382 0
M  V30 106 O 9.8766 1.64421 -0.763903 0
M  V30 107 C 9.9246 -0.453635 -3.57735 0
M  V30 108 O 9.0286 0.538151 -4.08874 0
M  V30 109 H 8.3696 -0.159855 -0.644471 0
M  V30 110 H 10.8996 -1.07488 -1.7409 0
M  V30 111 H 10.9096 -0.318464 -4.06755 0
M  V30 112 H 9.5846 -1.45784 -3.89512 0
M  V30 113 H 8.1616 0.364359 -3.71116 0
M  V30 114 N 10.3467 1.47872 -0.545128 0
M  V30 115 C 11.5947 2.02093 -0.016553 0
M  V30 116 C 11.9157 1.42305 1.3332 0
M  V30 117 O 11.1857 0.593853 1.86682 0
M  V30 118 H 9.7657 0.746993 -0.00313038 0
M  V30 119 H 12.4277 1.81414 -0.712397 0
M  V30 120 H 11.5237 3.11996 0.0805422 0
M  V30 121 N 11.8248 0.280983 1.55075 0
M  V30 122 C 13.0528 -0.337293 2.04132 0
M  V30 123 C 13.4678 -1.4903 1.15912 0
M  V30 124 O 12.8248 -1.81606 0.180459 0
M  V30 125 C 12.8758 -0.812706 3.52246 0
M  V30 126 O 12.5968 0.294387 4.3711 0
M  V30 127 C 14.0978 -1.4982 4.17216 0
M  V30 128 H 11.3178 -0.0761638 0.666663 0
M  V30 129 H 13.8618 0.414787 2.00249 0
M  V30 130 H 12.0168 -1.51486 3.56554 0
M  V30 131 H 12.4308 -0.0721325 5.2445 0
M  V30 132 H 13.9048 -1.7822 5.22438 0
M  V30 133 H 14.3818 -2.43168 3.65741 0
M  V30 134 H 14.9878 -0.839742 4.16927 0
M  V30 135 N 13.3029 -1.57598 0.00835791 0
M  V30 136 C 14.5489 -1.91211 -0.675732 0
M  V30 137 C 14.8819 -0.883139 -1.72958 0
M  V30 138 O 14.1569 0.097016 -1.94258 0
M  V30 139 C 14.4399 -3.35379 -1.31123 0
M  V30 140 C 14.2929 -4.48999 -0.268356 0
M  V30 141 C 15.6119 -3.7912 -2.23508 0
M  V30 142 H 12.7309 -0.695374 -0.244179 0
M  V30 143 H 15.3729 -1.89901 0.0613655 0
M  V30 144 H 13.5229 -3.36626 -1.93946 0
M  V30 145 H 15.1949 -4.59887 0.360844 0
M  V30 146 H 13.4379 -4.31873 0.408482 0
M  V30 147 H 14.1089 -5.46851 -0.752218 0
M  V30 148 H 16.5849 -3.79477 -1.70693 0
M  V30 149 H 15.4609 -4.80729 -2.64936 0
M  V30 150 H 15.7219 -3.13455 -3.11766 0
M  V30 151 N 14.781 0.264519 -1.55364 0
M  V30 152 C 15.711 1.33121 -1.91836 0
M  V30 153 C 16.692 1.51101 -0.781192 0
M  V30 154 O 17.877 1.64003 -1.04003 0
M  V30 155 C 15.007 2.68921 -2.19769 0
M  V30 156 C 13.961 2.65661 -3.35571 0
M  V30 157 C 13.287 4.05093 -3.49004 0
M  V30 158 C 14.587 2.24187 -4.71739 0
M  V30 159 H 16.281 1.02844 -2.81182 0
M  V30 160 H 13.827 0.493286 -1.35287 0
M  V30 161 H 15.78 3.43663 -2.43872 0
M  V30 162 H 14.504 3.00799 -1.27231 0
M  V30 163 H 13.163 1.93377 -3.1145 0
M  V30 164 H 12.811 4.34206 -2.53917 0
M  V30 165 H 12.511 4.03804 -4.26868 0
M  V30 166 H 14.035 4.81561 -3.75408 0
M  V30 167 H 15.449 2.88654 -4.9533 0
M  V30 168 H 13.846 2.34044 -5.52579 0
M  V30 169 H 14.916 1.19327 -4.69988 0
M  V30 170 N 16.2591 1.48442 0.529413 0
M  V30 171 C 17.2221 1.62524 1.61612 0
M  V30 172 C 18.2221 0.498509 1.52877 0
M  V30 173 O 19.4121 0.76431 1.56537 0
M  V30 174 C 16.5441 1.59597 3.01233 0
M  V30 175 H 17.7371 2.59423 1.50465 0
M  V30 176 H 15.2901 1.37047 0.751514 0
M  V30 177 H 16.0251 0.641781 3.17886 0
M  V30 178 H 15.8101 2.41397 3.08982 0
M  V30 179 H 17.3001 1.72646 3.80241 0
M  V30 180 N 17.7372 -0.778329 1.37039 0
M  V30 181 C 19.1532 -1.07796 1.17695 0
M  V30 182 C 19.3532 -2.01498 0.00860115 0
M  V30 183 O 18.4092 -2.43901 -0.653352 0
M  V30 184 C 19.7222 -1.68178 2.49272 0
M  V30 185 C 21.2702 -1.80467 2.55735 0
M  V30 186 C 21.7452 -2.44263 3.87427 0
M  V30 187 N 23.2362 -2.51721 3.88833 0
M  V30 188 C 23.9712 -3.01919 4.87476 0
M  V30 189 N 23.4672 -3.5234 5.96513 0
M  V30 190 N 25.2602 -3.00733 4.74885 0
M  V30 191 H 17.4112 -0.156032 2.11826 0
M  V30 192 H 19.6742 -0.131844 0.938787 0
M  V30 193 H 19.3802 -1.06796 3.35093 0
M  V30 194 H 19.2542 -2.67554 2.65885 0
M  V30 195 H 21.6412 -2.40984 1.70325 0
M  V30 196 H 21.7222 -0.798656 2.43013 0
M  V30 197 H 21.3662 -1.84388 4.73248 0
M  V30 198 H 21.2962 -3.45458 3.9745 0
M  V30 199 H 23.7872 -2.1603 3.10063 0
M  V30 200 H 24.1002 -3.89027 6.67741 0
M  V30 201 H 22.4452 -3.50462 6.00168 0
M  V30 202 H 25.6362 -2.60638 3.88826 0
M  V30 203 H 25.8092 -3.39545 5.51918 0
M  V30 204 N 19.2153 -1.21501 -1.00376 0
M  V30 205 C 20.6263 -1.03146 -1.55621 0
M  V30 206 C 20.9773 0.408375 -1.91903 0
M  V30 207 O 20.1023 1.29177 -1.73616 0
M  V30 208 C 20.6973 -1.86612 -2.82775 0
M  V30 209 C 19.2563 -1.72586 -3.34501 0
M  V30 210 C 18.4033 -1.83747 -2.07683 0
M  V30 211 H 21.3543 -1.35505 -0.826081 0
M  V30 212 H 21.3753 -1.3771 -3.54706 0
M  V30 213 H 20.8873 -2.91399 -2.56336 0
M  V30 214 H 18.9883 -0.704877 -3.65872 0
M  V30 215 H 19.1013 -2.54623 -4.05837 0
M  V30 216 H 17.4653 -1.27069 -2.20739 0
M  V30 217 H 18.2483 -2.90044 -1.83655 0
M  V30 218 N 20.6934 1.19889 -1.02296 0
M  V30 219 C 21.9414 1.89046 -0.714558 0
M  V30 220 C 22.2624 1.79636 0.758681 0
M  V30 221 O 21.5324 1.20292 1.54618 0
M  V30 222 H 20.1124 0.699802 -0.261317 0
M  V30 223 H 22.7744 1.45574 -1.29592 0
M  V30 224 H 21.8704 2.95524 -1.0036 0
M  V30 225 N 22.1715 0.800033 1.35784 0
M  V30 226 C 23.1345 0.211565 2.28221 0
M  V30 227 C 24.1345 -0.59728 1.49296 0
M  V30 228 O 25.3245 -0.416721 1.69142 0
M  V30 229 C 22.4565 -0.705846 3.33513 0
M  V30 230 H 23.6495 1.02677 2.81776 0
M  V30 231 H 21.2025 0.570211 1.45528 0
M  V30 232 H 21.9375 -1.54498 2.85133 0
M  V30 233 H 21.7225 -0.127655 3.91892 0
M  V30 234 H 23.2125 -1.11211 4.02519 0
M  V30 235 N 23.6496 -1.47581 0.552962 0
M  V30 236 C 24.8746 -2.07378 0.0300593 0
M  V30 237 C 25.2996 -1.40355 -1.25229 0
M  V30 238 O 24.6576 -0.477099 -1.7491 0
M  V30 239 C 24.7056 -3.60274 -0.153231 0
M  V30 240 O 23.8096 -3.94041 -1.21678 0
M  V30 241 H 23.1506 -0.662158 0.0494182 0
M  V30 242 H 25.6806 -1.89662 0.767434 0
M  V30 243 H 25.6906 -4.0633 -0.368761 0
M  V30 244 H 24.3656 -4.08455 0.783397 0
M  V30 245 H 22.9426 -3.59735 -0.982079 0
M  V30 246 N 25.1277 -0.289203 -1.54924 0
M  V30 247 C 26.3737 0.323998 -2.00195 0
M  V30 248 C 26.7067 1.54441 -1.17735 0
M  V30 249 O 25.9817 1.92875 -0.250878 0
M  V30 250 C 26.2647 0.692276 -3.53383 0
M  V30 251 C 26.1177 -0.536457 -4.46589 0
M  V30 252 C 27.4367 1.52335 -4.12895 0
M  V30 253 H 24.5557 0.116289 -0.727768 0
M  V30 254 H 27.1977 -0.398954 -1.85764 0
M  V30 255 H 25.3477 1.30822 -3.65811 0
M  V30 256 H 27.0197 -1.17499 -4.46085 0
M  V30 257 H 25.2627 -1.17192 -4.1767 0
M  V30 258 H 25.9337 -0.234806 -5.515 0
M  V30 259 H 28.4097 1.00302 -4.0383 0
M  V30 260 H 27.2857 1.74982 -5.20262 0
M  V30 261 H 27.5467 2.50886 -3.64018 0
M  V30 262 N 26.6058 1.57591 -0.0167156 0
M  V30 263 C 27.5528 2.09462 0.969251 0
M  V30 264 C 28.5228 0.99381 1.33089 0
M  V30 265 O 29.7078 1.26726 1.42636 0
M  V30 266 C 26.8478 2.61622 2.25051 0
M  V30 267 C 25.9608 3.85666 1.94642 0
M  V30 268 C 25.0958 4.26266 3.16972 0
M  V30 269 C 24.1348 5.43101 2.82326 0
M  V30 270 N 23.2718 5.78915 3.97243 0
M  V30 271 H 28.1118 2.93428 0.519997 0
M  V30 272 H 25.6488 1.45044 0.245087 0
M  V30 273 H 27.6068 2.89949 2.99976 0
M  V30 274 H 26.2368 1.80505 2.67615 0
M  V30 275 H 25.2888 3.64145 1.10013 0
M  V30 276 H 26.6008 4.70678 1.65117 0
M  V30 277 H 25.7548 4.55963 4.00228 0
M  V30 278 H 24.4938 3.39996 3.49648 0
M  V30 279 H 23.4988 5.1311 1.97479 0
M  V30 280 H 24.7238 6.3106 2.50879 0
M  V30 281 H 22.6698 4.95602 4.29785 0
M  V30 282 H 22.5868 6.58539 3.71299 0
M  V30 283 H 23.8548 6.13212 4.81239 0
M  V30 284 N 28.0839 -0.256276 1.55502 0
M  V30 285 C 29.0169 -1.34321 1.84481 0
M  V30 286 C 29.9949 -1.46802 0.699131 0
M  V30 287 O 31.1789 -1.63165 0.943904 0
M  V30 288 C 28.3059 -2.71779 2.02123 0
M  V30 289 C 27.3519 -2.76496 3.24734 0
M  V30 290 S 28.1849 -2.3405 4.81644 0
M  V30 291 C 29.3409 -3.73452 5.02279 0
M  V30 292 H 29.5739 -1.09539 2.76385 0
M  V30 293 H 27.1069 -0.45678 1.47489 0
M  V30 294 H 29.0649 -3.50932 2.12972 0
M  V30 295 H 27.7259 -2.93803 1.11078 0
M  V30 296 H 26.9189 -3.77424 3.34016 0
M  V30 297 H 26.5209 -2.05379 3.12563 0
M  V30 298 H 28.8129 -4.6887 4.89047 0
M  V30 299 H 29.7559 -3.6911 6.04287 0
M  V30 300 H 30.1639 -3.6553 4.30172 0
M  V30 301 N 29.562 -1.4872 -0.521534 0
M  V30 302 C 30.787 -1.61101 -1.30618 0
M  V30 303 C 31.212 -0.274611 -1.86085 0
M  V30 304 O 30.57 0.754937 -1.64834 0
M  V30 305 C 30.618 -2.66709 -2.4269 0
M  V30 306 O 29.722 -2.24456 -3.45967 0
M  V30 307 H 29.063 -0.539921 -0.386499 0
M  V30 308 H 31.593 -1.94767 -0.626645 0
M  V30 309 H 31.603 -2.88245 -2.88754 0
M  V30 310 H 30.278 -3.63727 -2.01682 0
M  V30 311 H 28.855 -2.13168 -3.05964 0
M  V30 312 N 31.0401 0.771051 -1.3745 0
M  V30 313 C 32.2801 1.54264 -1.34096 0
M  V30 314 C 32.6441 1.91858 0.0737639 0
M  V30 315 O 33.8451 2.67797 0.23203 0
M  V30 316 C 32.1161 2.77326 -2.25445 0
M  V30 317 S 33.6751 3.67383 -2.39948 0
M  V30 318 H 30.4931 0.528122 -0.476034 0
M  V30 319 H 33.0951 0.906633 -1.73206 0
M  V30 320 H 31.7991 2.47788 -3.27153 0
M  V30 321 H 31.3301 3.45886 -1.87421 0
M  V30 322 H 33.3451 4.69334 -1.61059 0
M  V30 323 N 32.5182 1.22032 0.997298 0
M  V30 324 C 33.4282 1.00271 2.12092 0
M  V30 325 C 34.4442 -0.047621 1.73935 0
M  V30 326 O 35.6202 0.144136 2.00884 0
M  V30 327 C 32.6852 0.578449 3.4184 0
M  V30 328 C 31.7462 1.70189 3.94125 0
M  V30 329 C 30.9792 1.29778 5.17681 0
M  V30 330 O 31.2022 0.174676 5.70132 0
M  V30 331 O 30.1362 2.11261 5.63607 0
M  V30 332 H 33.9622 1.94398 2.3333 0
M  V30 333 H 31.5472 1.00587 1.10465 0
M  V30 334 H 33.4292 0.351998 4.19927 0
M  V30 335 H 32.1042 -0.334019 3.21972 0
M  V30 336 H 31.0112 1.98282 3.1723 0
M  V30 337 H 32.3442 2.59206 4.18417 0
M  V30 338 N 33.9963 -1.19345 1.0293 0
M  V30 339 C 34.9593 -2.20793 0.615069 0
M  V30 340 C 35.9593 -1.57553 -0.321533 0
M  V30 341 O 37.1493 -1.73862 -0.108483 0
M  V30 342 C 34.2813 -3.40754 -0.0999222 0
M  V30 343 H 35.4743 -2.58955 1.51269 0
M  V30 344 H 33.0273 -1.3303 0.820534 0
M  V30 345 H 33.7623 -3.0811 -1.01187 0
M  V30 346 H 33.5473 -3.87889 0.57309 0
M  V30 347 H 35.0373 -4.15898 -0.376645 0
M  V30 348 N 35.4744 -0.807222 -1.35358 0
M  V30 349 C 36.6994 -0.399309 -2.0352 0
M  V30 350 C 37.1244 0.981986 -1.60433 0
M  V30 351 O 36.4824 1.63601 -0.781299 0
M  V30 352 C 36.5304 -0.491552 -3.57234 0
M  V30 353 O 35.6344 0.494754 -4.09421 0
M  V30 354 H 34.9754 -0.166682 -0.642739 0
M  V30 355 H 37.5054 -1.09328 -1.72941 0
M  V30 356 H 37.5154 -0.361588 -4.06395 0
M  V30 357 H 36.1904 -1.49907 -3.87944 0
M  V30 358 H 34.7674 0.324977 -3.71481 0
M  V30 359 N 36.9525 1.47285 -0.560781 0
M  V30 360 C 38.2005 2.02064 -0.0379868 0
M  V30 361 C 38.5215 1.43711 1.31803 0
M  V30 362 O 37.7915 0.61362 1.86042 0
M  V30 363 H 36.3715 0.746918 -0.0110531 0
M  V30 364 H 39.0335 1.80648 -0.731598 0
M  V30 365 H 38.1295 3.12064 0.0474463 0
M  V30 366 N 38.4306 0.297415 1.54768 0
M  V30 367 C 39.6606 -0.315165 2.04182 0
M  V30 368 C 40.0686 -1.4834 1.17439 0
M  V30 369 O 39.4116 -1.82695 0.191891 0
M  V30 370 C 39.4736 -0.837583 3.49607 0
M  V30 371 C 39.1376 0.204912 4.5654 0
M  V30 372 C 40.1346 1.03214 5.09552 0
M  V30 373 C 37.8196 0.345578 5.0111 0
M  V30 374 C 39.8136 1.986 6.05671 0
M  V30 375 C 37.5006 1.30289 5.97049 0
M  V30 376 C 38.4986 2.12159 6.49213 0
M  V30 377 O 38.1866 3.06268 7.43273 0
M  V30 378 H 37.9186 -0.0729646 0.672051 0
M  V30 379 H 40.4726 0.433907 2.00765 0
M  V30 380 H 38.7026 -1.63712 3.50336 0
M  V30 381 H 40.3916 -1.36566 3.82236 0
M  V30 382 H 41.1576 0.934312 4.75916 0
M  V30 383 H 37.0366 -0.28171 4.60138 0
M  V30 384 H 40.5806 2.62542 6.46311 0
M  V30 385 H 36.4776 1.40145 6.30103 0
M  V30 386 H 37.2456 3.01205 7.61064 0
M  V30 387 N 39.9087 -1.5758 0.0250728 0
M  V30 388 C 41.1367 -1.9593 -0.664747 0
M  V30 389 C 41.5517 -0.901352 -1.65895 0
M  V30 390 O 40.9087 0.117255 -1.82123 0
M  V30 391 C 40.9597 -3.34342 -1.37468 0
M  V30 392 O 40.6807 -4.36079 -0.420324 0
M  V30 393 C 42.1817 -3.873 -2.1567 0
M  V30 394 H 39.4017 -0.645405 -0.183557 0
M  V30 395 H 41.9457 -2.04329 0.0836372 0
M  V30 396 H 40.1007 -3.27175 -2.0745 0
M  V30 397 H 40.5147 -5.16297 -0.923991 0
M  V30 398 H 41.9887 -4.86504 -2.60803 0
M  V30 399 H 42.4657 -3.21331 -2.99405 0
M  V30 400 H 43.0717 -3.97723 -1.50654 0
M  V30 401 N 41.3868 0.248026 -1.55636 0
M  V30 402 C 42.6338 0.976224 -1.77415 0
M  V30 403 C 42.9618 1.85361 -0.589193 0
M  V30 404 O 42.2168 1.90973 0.427529 0
M  V30 405 C 42.5158 1.86819 -3.04686 0
M  V30 406 C 42.1818 1.14625 -4.36087 0
M  V30 407 C 40.8438 0.946723 -4.71795 0
M  V30 408 C 43.1958 0.634463 -5.17324 0
M  V30 409 C 40.5238 0.223091 -5.86276 0
M  V30 410 C 42.8758 -0.0756959 -6.32555 0
M  V30 411 C 41.5398 -0.286711 -6.66884 0
M  V30 412 H 40.8098 0.357226 -0.649208 0
M  V30 413 H 43.4568 0.246415 -1.89908 0
M  V30 414 H 41.7618 2.66502 -2.872 0
M  V30 415 H 43.4588 2.43329 -3.18735 0
M  V30 416 H 40.0488 1.3117 -4.08035 0
M  V30 417 H 44.2328 0.77616 -4.90193 0
M  V30 418 H 39.4888 0.0491185 -6.1138 0
M  V30 419 H 43.6628 -0.479899 -6.94745 0
M  V30 420 H 41.2898 -0.849389 -7.5544 0
M  V30 421 N 42.8649 1.48995 0.513639 0
M  V30 422 C 44.0929 1.61531 1.29288 0
M  V30 423 C 44.5079 0.281801 1.86685 0
M  V30 424 O 43.8649 -0.731111 1.67215 0
M  V30 425 C 43.9159 2.67449 2.43215 0
M  V30 426 O 43.6369 3.95626 1.88179 0
M  V30 427 C 45.1379 2.90575 3.34785 0
M  V30 428 H 42.3579 0.544165 0.392588 0
M  V30 429 H 44.9019 1.9494 0.617956 0
M  V30 430 H 43.0569 2.36853 3.0656 0
M  V30 431 H 43.4709 4.53868 2.62876 0
M  V30 432 H 44.9449 3.68449 4.11035 0
M  V30 433 H 45.4219 2.00011 3.91015 0
M  V30 434 H 46.0279 3.22538 2.77218 0
M  V30 435 N 44.343 -0.763751 1.37857 0
M  V30 436 C 45.291 -1.89864 1.34367 0
M  V30 437 C 46.285 -1.67816 0.231143 0
M  V30 438 O 47.491 -1.75508 0.399617 0
M  V30 439 H 43.866 -0.624501 0.41893 0
M  V30 440 H 45.837 -1.89925 2.30155 0
M  V30 441 C 44.586 -3.27227 1.1755 0
M  V30 442 H 43.909 -3.44773 2.02414 0
M  V30 443 H 45.349 -4.06911 1.1916 0
M  V30 444 C 43.808 -3.36692 -0.118311 0
M  V30 445 O 44.338 -3.86374 -1.09902 0
M  V30 446 N 42.544 -2.90092 -0.171717 0
M  V30 447 H 42.091 -2.49853 0.627012 0
M  V30 448 H 42.049 -2.96806 -1.03699 0
M  V30 449 N 45.8211 -1.22559 -0.990812 0
M  V30 450 C 47.0511 -1.07623 -1.76355 0
M  V30 451 C 47.4591 0.37601 -1.85426 0
M  V30 452 O 46.8021 1.27228 -1.32509 0
M  V30 453 C 46.8641 -1.61507 -3.21179 0
M  V30 454 C 46.5281 -3.10146 -3.35646 0
M  V30 455 C 47.5251 -4.07553 -3.22796 0
M  V30 456 C 45.2101 -3.49644 -3.60631 0
M  V30 457 C 47.2041 -5.42442 -3.34716 0
M  V30 458 C 44.8911 -4.84682 -3.72192 0
M  V30 459 C 45.8891 -5.8089 -3.59243 0
M  V30 460 O 45.5771 -7.13476 -3.70415 0
M  V30 461 H 45.3091 -0.377745 -0.560611 0
M  V30 462 H 47.8631 -1.62658 -1.25425 0
M  V30 463 H 46.0931 -1.00881 -3.73309 0
M  V30 464 H 47.7821 -1.42202 -3.80175 0
M  V30 465 H 48.5481 -3.78381 -3.03403 0
M  V30 466 H 44.4271 -2.75282 -3.69785 0
M  V30 467 H 47.9711 -6.17518 -3.24526 0
M  V30 468 H 43.8681 -5.13534 -3.91092 0
M  V30 469 H 44.6361 -7.21083 -3.87275 0
M  V30 470 N 47.2992 1.18797 -1.03562 0
M  V30 471 C 48.5452 1.89192 -0.746867 0
M  V30 472 C 48.9002 1.78531 0.717245 0
M  V30 473 O 48.1932 1.17137 1.51622 0
M  V30 474 C 48.3872 3.38692 -1.14117 0
M  V30 475 C 48.2162 3.63902 -2.64207 0
M  V30 476 C 46.9862 3.81553 -3.31279 0
M  V30 477 C 49.1842 3.64903 -3.62423 0
M  V30 478 N 47.1662 3.94455 -4.70402 0
M  V30 479 C 48.5372 3.83458 -4.87196 0
M  V30 480 C 50.5922 3.47965 -3.56125 0
M  V30 481 C 49.2952 3.86829 -6.06429 0
M  V30 482 C 51.3212 3.52616 -4.7478 0
M  V30 483 C 50.6832 3.71663 -5.9837 0
M  V30 484 H 46.7822 0.711141 -0.325273 0
M  V30 485 H 49.3662 1.42727 -1.32428 0
M  V30 486 H 47.5372 3.83864 -0.591889 0
M  V30 487 H 49.2692 3.96634 -0.803966 0
M  V30 488 H 46.0242 3.80723 -2.81686 0
M  V30 489 H 46.4482 4.0474 -5.42692 0
M  V30 490 H 51.0902 3.32189 -2.61553 0
M  V30 491 H 48.8082 4.01395 -7.01362 0
M  V30 492 H 52.3942 3.40791 -4.71543 0
M  V30 493 H 51.2742 3.75145 -6.88648 0
M  V30 494 N 48.7773 0.814389 1.34928 0
M  V30 495 C 49.7103 0.175641 2.27523 0
M  V30 496 C 50.6883 -0.662953 1.48471 0
M  V30 497 O 51.8723 -0.628545 1.77712 0
M  V30 498 C 48.9993 -0.755516 3.30166 0
M  V30 499 C 48.0453 0.00445305 4.265 0
M  V30 500 S 48.8783 1.34582 5.18313 0
M  V30 501 C 50.0343 0.419315 6.24494 0
M  V30 502 H 50.2673 0.960691 2.8135 0
M  V30 503 H 47.8003 0.609846 1.41846 0
M  V30 504 H 49.7583 -1.28723 3.89796 0
M  V30 505 H 48.4193 -1.51402 2.75202 0
M  V30 506 H 47.6123 -0.703077 4.99072 0
M  V30 507 H 47.2143 0.466447 3.7108 0
M  V30 508 H 49.5063 -0.392432 6.76362 0
M  V30 509 H 50.4493 1.11446 6.99275 0
M  V30 510 H 50.8573 0.0115389 5.64499 0
M  V30 511 N 50.2554 -1.46986 0.568584 0
M  V30 512 C 51.2054 -2.27179 -0.193339 0
M  V30 513 C 52.1894 -1.35035 -0.874895 0
M  V30 514 O 53.3814 -1.5931 -0.771322 0
M  V30 515 C 50.5104 -3.21063 -1.21546 0
M  V30 516 C 49.5964 -4.2069 -0.536738 0
M  V30 517 N 49.9874 -5.04218 0.399673 0
M  V30 518 C 48.2854 -4.38961 -0.789254 0
M  V30 519 C 48.9864 -5.76242 0.795017 0
M  V30 520 N 47.9624 -5.434 0.1473 0
M  V30 521 H 51.7644 -2.89146 0.526458 0
M  V30 522 H 49.2784 -1.57664 0.389342 0
M  V30 523 H 51.2754 -3.77209 -1.77536 0
M  V30 524 H 49.9354 -2.60654 -1.93623 0
M  V30 525 H 50.9464 -5.12077 0.774454 0
M  V30 526 H 47.6234 -3.89713 -1.49767 0
M  V30 527 H 49.0134 -6.53417 1.56513 0
M  V30 528 N 51.7335 -0.305618 -1.54608 0
M  V30 529 C 52.9795 0.295595 -2.01241 0
M  V30 530 C 53.3345 1.51171 -1.19018 0
M  V30 531 O 52.6275 1.89832 -0.259684 0
M  V30 532 C 52.8215 0.698983 -3.50498 0
M  V30 533 C 52.6505 -0.476491 -4.47168 0
M  V30 534 C 51.4205 -0.969963 -4.95903 0
M  V30 535 C 53.6185 -1.32294 -4.96994 0
M  V30 536 N 51.6005 -2.11172 -5.76437 0
M  V30 537 C 52.9715 -2.31212 -5.75275 0
M  V30 538 C 55.0265 -1.35278 -4.7917 0
M  V30 539 C 53.7295 -3.32896 -6.37631 0
M  V30 540 C 55.7555 -2.35823 -5.42348 0
M  V30 541 C 55.1175 -3.33469 -6.20466 0
M  V30 542 H 51.2165 0.0724992 -0.778632 0
M  V30 543 H 53.8005 -0.436583 -1.89742 0
M  V30 544 H 51.9715 1.40032 -3.62278 0
M  V30 545 H 53.7035 1.28013 -3.8392 0
M  V30 546 H 50.4585 -0.544178 -4.70463 0
M  V30 547 H 50.8825 -2.68714 -6.21387 0
M  V30 548 H 55.5245 -0.61157 -4.18354 0
M  V30 549 H 53.2425 -4.07933 -6.97579 0
M  V30 550 H 56.8285 -2.38911 -5.30484 0
M  V30 551 H 55.7085 -4.09996 -6.68485 0
M  V30 552 N 53.2116 1.57565 -0.0334293 0
M  V30 553 C 54.4576 1.92262 0.645226 0
M  V30 554 C 54.7906 0.910543 1.71531 0
M  V30 555 O 54.0656 -0.066099 1.94388 0
M  V30 556 C 54.3486 3.37422 1.2577 0
M  V30 557 C 54.2016 4.49369 0.196891 0
M  V30 558 C 55.5206 3.82628 2.17449 0
M  V30 559 H 52.6396 0.699171 0.233085 0
M  V30 560 H 55.2816 1.89779 -0.0915694 0
M  V30 561 H 53.4316 3.39669 1.88566 0
M  V30 562 H 55.1036 4.59254 -0.433962 0
M  V30 563 H 53.3466 4.31168 -0.477137 0
M  V30 564 H 54.0176 5.47978 0.665124 0
M  V30 565 H 56.4936 3.82145 1.64634 0
M  V30 566 H 55.3696 4.84883 2.57254 0
M  V30 567 H 55.6306 3.18376 3.0674 0
M  V30 568 N 54.6897 -0.239769 1.55765 0
M  V30 569 C 55.6367 -1.29696 1.90913 0
M  V30 570 C 56.6067 -1.47478 0.764164 0
M  V30 571 O 57.7917 -1.61345 1.01845 0
M  V30 572 C 54.9317 -2.64598 2.21544 0
M  V30 573 C 54.0447 -2.54765 3.48882 0
M  V30 574 C 53.1797 -3.82069 3.69049 0
M  V30 575 C 52.2187 -3.66883 4.89963 0
M  V30 576 N 51.3557 -4.86094 5.06614 0
M  V30 577 H 56.1957 -0.990224 2.81067 0
M  V30 578 H 53.7327 -0.477684 1.39128 0
M  V30 579 H 55.6907 -3.43132 2.3731 0
M  V30 580 H 54.3207 -2.93405 1.34585 0
M  V30 581 H 53.3727 -1.67763 3.41409 0
M  V30 582 H 54.6847 -2.39457 4.37563 0
M  V30 583 H 53.8387 -4.69046 3.84812 0
M  V30 584 H 52.5777 -4.00282 2.78614 0
M  V30 585 H 51.5827 -2.78289 4.74168 0
M  V30 586 H 52.8077 -3.50157 5.81865 0
M  V30 587 H 50.7537 -5.04655 4.19117 0
M  V30 588 H 50.6707 -4.73443 5.89396 0
M  V30 589 H 51.9387 -5.74549 5.26795 0
M  V30 590 N 56.1678 -1.49265 -0.50573 0
M  V30 591 C 57.0998 -1.617 -1.62437 0
M  V30 592 C 58.1128 -0.499924 -1.54934 0
M  V30 593 O 59.3018 -0.771785 -1.60953 0
M  V30 594 C 56.4018 -1.5533 -3.01207 0
M  V30 595 C 55.5748 -2.8249 -3.33943 0
M  V30 596 C 54.6338 -2.69238 -4.52103 0
M  V30 597 O 53.6598 -3.43167 -4.5412 0
M  V30 598 N 54.8618 -1.80468 -5.51735 0
M  V30 599 H 57.6268 -2.58177 -1.52199 0
M  V30 600 H 55.1878 -1.46294 -0.693511 0
M  V30 601 H 57.1798 -1.44125 -3.78167 0
M  V30 602 H 55.7498 -0.667297 -3.05395 0
M  V30 603 H 54.9698 -3.08081 -2.45926 0
M  V30 604 H 56.2578 -3.66802 -3.5261 0
M  V30 605 H 55.6558 -1.19653 -5.52901 0
M  V30 606 H 54.2128 -1.75188 -6.27816 0
M  V30 607 N 57.6459 0.756429 -1.3826 0
M  V30 608 C 59.0619 1.0591 -1.19395 0
M  V30 609 C 59.2619 2.01459 -0.0406567 0
M  V30 610 O 58.3179 2.44909 0.614467 0
M  V30 611 C 59.6309 1.64191 -2.51916 0
M  V30 612 C 61.1789 1.76376 -2.58574 0
M  V30 613 C 61.6539 2.38069 -3.91264 0
M  V30 614 N 63.1449 2.45503 -3.92788 0
M  V30 615 C 63.8799 2.94126 -4.92217 0
M  V30 616 N 63.3759 3.42805 -6.02043 0
M  V30 617 N 65.1689 2.9314 -4.7961 0
M  V30 618 H 57.3199 0.122313 -2.12048 0
M  V30 619 H 59.5829 0.116892 -0.940766 0
M  V30 620 H 59.2889 1.01451 -3.3675 0
M  V30 621 H 59.1629 2.6329 -2.70108 0
M  V30 622 H 61.5499 2.38244 -1.74137 0
M  V30 623 H 61.6309 0.759894 -2.44252 0
M  V30 624 H 61.2749 1.76835 -4.76121 0
M  V30 625 H 61.2049 3.39091 -4.02895 0
M  V30 626 H 63.6959 2.1107 -3.13461 0
M  V30 627 H 64.0089 3.78354 -6.73846 0
M  V30 628 H 62.3539 3.4087 -6.05667 0
M  V30 629 H 65.5449 2.54419 -3.92923 0
M  V30 630 H 65.7179 3.30721 -5.5725 0
M  V30 631 N 59.124 1.23083 0.984299 0
M  V30 632 C 60.535 1.05609 1.5396 0
M  V30 633 C 60.886 -0.377793 1.92528 0
M  V30 634 O 60.011 -1.26398 1.75649 0
M  V30 635 C 60.606 1.91087 2.7977 0
M  V30 636 C 59.165 1.77885 3.31713 0
M  V30 637 C 58.312 1.87028 2.04733 0
M  V30 638 H 61.263 1.36802 0.804419 0
M  V30 639 H 61.284 1.43336 3.5247 0
M  V30 640 H 60.796 2.9544 2.51668 0
M  V30 641 H 58.897 0.762995 3.64704 0
M  V30 642 H 59.01 2.61047 4.01735 0
M  V30 643 H 57.374 1.30565 2.18689 0
M  V30 644 H 58.157 2.92929 1.79017 0
M  V30 645 N 60.6021 -1.18246 1.0419 0
M  V30 646 C 61.8501 -1.87886 0.744543 0
M  V30 647 C 62.1711 -1.8082 -0.730006 0
M  V30 648 O 61.4411 -1.22736 -1.52685 0
M  V30 649 H 60.0211 -0.695556 0.272417 0
M  V30 650 H 62.6831 -1.43494 1.31892 0
M  V30 651 H 61.7791 -2.9389 1.05049 0
M  V30 652 N 62.0802 -0.821533 -1.34494 0
M  V30 653 C 63.0122 -0.199946 -2.28326 0
M  V30 654 C 64.0252 0.609377 -1.50965 0
M  V30 655 O 65.2142 0.439285 -1.7301 0
M  V30 656 C 62.3142 0.738431 -3.30757 0
M  V30 657 C 61.4872 -0.0277632 -4.37391 0
M  V30 658 C 60.5462 0.831332 -5.19591 0
M  V30 659 O 59.5722 0.276822 -5.68526 0
M  V30 660 N 60.7742 2.15132 -5.39165 0
M  V30 661 H 63.5392 -1.00609 -2.82308 0
M  V30 662 H 61.1002 -0.678366 -1.47003 0
M  V30 663 H 63.0922 1.31773 -3.82646 0
M  V30 664 H 61.6622 1.44533 -2.7718 0
M  V30 665 H 60.8822 -0.788359 -3.86236 0
M  V30 666 H 62.1702 -0.555251 -5.05761 0
M  V30 667 H 61.5682 2.62559 -5.01078 0
M  V30 668 H 60.1252 2.6795 -5.94177 0
M  V30 669 N 63.5583 1.46682 -0.576371 0
M  V30 670 C 64.8063 2.02013 -0.0594163 0
M  V30 671 C 65.1273 1.45101 1.30271 0
M  V30 672 O 64.3973 0.633317 1.8538 0
M  V30 673 H 62.9773 0.746759 -0.0189745 0
M  V30 674 H 65.6393 1.79862 -0.750717 0
M  V30 675 H 64.7353 3.12097 0.014345 0
M  V30 676 N 65.0364 0.313813 1.54444 0
M  V30 677 C 65.9664 -0.549454 2.26943 0
M  V30 678 C 66.9474 -1.12741 1.27372 0
M  V30 679 O 68.1324 -1.15436 1.56167 0
M  V30 680 C 65.2624 -1.71523 3.01989 0
M  V30 681 C 64.2164 -1.26703 4.08816 0
M  V30 682 C 63.5424 -2.51898 4.71647 0
M  V30 683 C 64.8424 -0.388962 5.2085 0
M  V30 684 H 66.5364 0.0552661 2.99349 0
M  V30 685 H 64.0824 0.0280207 1.43973 0
M  V30 686 H 66.0354 -2.32535 3.51433 0
M  V30 687 H 64.7594 -2.34639 2.27183 0
M  V30 688 H 63.4184 -0.679896 3.6024 0
M  V30 689 H 63.0664 -3.13356 3.93468 0
M  V30 690 H 62.7664 -2.22605 5.43802 0
M  V30 691 H 64.2904 -3.1369 5.23861 0
M  V30 692 H 65.7044 -0.905107 5.6611 0
M  V30 693 H 64.1014 -0.18924 5.99802 0
M  V30 694 H 65.1714 0.582699 4.81386 0
M  V30 695 N 66.5145 -1.57545 0.0417849 0
M  V30 696 C 67.4245 -2.14451 -0.951213 0
M  V30 697 C 68.4405 -1.09992 -1.34825 0
M  V30 698 O 69.6165 -1.42114 -1.42708 0
M  V30 699 C 66.6815 -2.67063 -2.21084 0
M  V30 700 C 65.7425 -3.86284 -1.87304 0
M  V30 701 C 64.9755 -4.36378 -3.07261 0
M  V30 702 O 65.1985 -3.85587 -4.20332 0
M  V30 703 O 64.1325 -5.28077 -2.88822 0
M  V30 704 H 67.9585 -2.99601 -0.497287 0
M  V30 705 H 65.5435 -1.48317 -0.179567 0
M  V30 706 H 67.4255 -3.00914 -2.95006 0
M  V30 707 H 66.1005 -1.84989 -2.65633 0
M  V30 708 H 65.0075 -3.57338 -1.10727 0
M  V30 709 H 66.3405 -4.6956 -1.47562 0
M  V30 710 N 67.9926 0.231505 -1.5589 0
M  V30 711 C 69.2386 0.954429 -1.79617 0
M  V30 712 C 69.5936 1.82367 -0.613199 0
M  V30 713 O 68.8866 1.87524 0.393094 0
M  V30 714 C 69.0806 1.83577 -3.0665 0
M  V30 715 C 68.9096 1.05334 -4.3719 0
M  V30 716 C 67.6796 0.75225 -4.99669 0
M  V30 717 C 69.8776 0.423444 -5.12554 0
M  V30 718 N 67.8596 -0.052627 -6.13877 0
M  V30 719 C 69.2306 -0.245287 -6.19515 0
M  V30 720 C 71.2856 0.335466 -4.96769 0
M  V30 721 C 69.9886 -0.993566 -7.12405 0
M  V30 722 C 72.0146 -0.399321 -5.9005 0
M  V30 723 C 71.3766 -1.05663 -6.9643 0
M  V30 724 H 67.4756 0.329846 -0.709031 0
M  V30 725 H 70.0596 0.226172 -1.93382 0
M  V30 726 H 68.2306 2.53592 -2.94186 0
M  V30 727 H 69.9626 2.49541 -3.18608 0
M  V30 728 H 66.7176 1.06783 -4.61405 0
M  V30 729 H 67.1416 -0.443609 -6.75545 0
M  V30 730 H 71.7836 0.829311 -4.14587 0
M  V30 731 H 69.5016 -1.49896 -7.94076 0
M  V30 732 H 73.0876 -0.468265 -5.79913 0
M  V30 733 H 71.9676 -1.61612 -7.67366 0
M  V30 734 N 69.4707 1.49531 0.497807 0
M  V30 735 C 70.7197 1.58426 1.24837 0
M  V30 736 C 71.0327 0.277643 1.93619 0
M  V30 737 O 72.2387 0.24517 2.70391 0
M  V30 738 C 70.6947 2.79538 2.26686 0
M  V30 739 C 70.3027 4.16971 1.63828 0
M  V30 740 C 72.0467 2.97764 3.0255 0
M  V30 741 C 69.9537 5.29301 2.63807 0
M  V30 742 H 68.8837 0.58989 0.469623 0
M  V30 743 H 71.5347 1.75923 0.521857 0
M  V30 744 H 69.9167 2.55542 3.02514 0
M  V30 745 H 71.0907 4.51116 0.939711 0
M  V30 746 H 69.4057 4.04129 1.00342 0
M  V30 747 H 72.0027 3.78856 3.77323 0
M  V30 748 H 72.3457 2.08448 3.60354 0
M  V30 749 H 72.8787 3.21815 2.33838 0
M  V30 750 H 69.6177 6.20687 2.10779 0
M  V30 751 H 69.1377 4.99606 3.31894 0
M  V30 752 H 70.8167 5.58768 3.2617 0
M  V30 753 N 70.9488 -0.749086 1.3866 0
M  V30 754 C 72.1968 -1.50535 1.34847 0
M  V30 755 C 72.5178 -1.94909 -0.0595016 0
M  V30 756 O 71.7878 -1.67973 -1.00806 0
M  V30 757 H 70.3678 -0.558395 0.49619 0
M  V30 758 H 73.0298 -0.890165 1.73384 0
M  V30 759 H 72.1258 -2.39413 2.00219 0
M  V30 760 N 72.4269 -1.23603 -0.977757 0
M  V30 761 C 73.3899 -1.02069 -2.05218 0
M  V30 762 C 74.3899 0.0184305 -1.60789 0
M  V30 763 O 75.5799 -0.221569 -1.72785 0
M  V30 764 C 72.7119 -0.544926 -3.36517 0
M  V30 765 H 73.9049 -1.9742 -2.25755 0
M  V30 766 H 71.4579 -1.05684 -1.15155 0
M  V30 767 H 72.1929 0.412241 -3.21669 0
M  V30 768 H 71.9779 -1.2948 -3.70105 0
M  V30 769 H 73.4679 -0.414985 -4.15533 0
M  V30 770 N 73.905 1.17692 -1.04816 0
M  V30 771 C 75.154 1.87192 -0.751132 0
M  V30 772 C 75.467 1.8169 0.724441 0
M  V30 773 O 76.673 2.46625 1.13527 0
M  V30 774 C 75.129 3.35857 -1.29338 0
M  V30 775 C 74.737 3.4987 -2.79812 0
M  V30 776 C 76.481 4.10709 -1.07322 0
M  V30 777 C 74.388 4.92536 -3.27356 0
M  V30 778 H 73.318 0.701162 -0.277288 0
M  V30 779 H 75.969 1.32932 -1.26496 0
M  V30 780 H 74.351 3.89631 -0.707376 0
M  V30 781 H 75.525 3.06332 -3.44235 0
M  V30 782 H 73.84 2.88433 -3.00325 0
M  V30 783 H 76.437 5.15952 -1.4035 0
M  V30 784 H 76.78 4.16299 -0.0108001 0
M  V30 785 H 77.313 3.6313 -1.62423 0
M  V30 786 H 74.052 4.92119 -4.33012 0
M  V30 787 H 73.572 5.3676 -2.67673 0
M  V30 788 H 75.251 5.61288 -3.21815 0
M  V30 789 N 75.3831 0.828654 1.34056 0
M  V30 790 C 76.6131 0.431993 2.02033 0
M  V30 791 C 77.0211 -0.96844 1.62536 0
M  V30 792 O 76.3641 -1.6391 0.829408 0
M  V30 793 C 76.4261 0.461224 3.56529 0
M  V30 794 C 76.0901 1.81599 4.1937 0
M  V30 795 C 77.0871 2.7777 4.39477 0
M  V30 796 C 74.7721 2.10604 4.56017 0
M  V30 797 C 76.7661 4.01115 4.95364 0
M  V30 798 C 74.4531 3.34207 5.11614 0
M  V30 799 C 75.4511 4.2928 5.31232 0
M  V30 800 O 75.1391 5.50699 5.8565 0
M  V30 801 H 74.8711 0.170943 0.654029 0
M  V30 802 H 77.4251 1.11988 1.72185 0
M  V30 803 H 75.6551 -0.283388 3.8566 0
M  V30 804 H 77.3441 0.0838149 4.05813 0
M  V30 805 H 78.1101 2.56659 4.11523 0
M  V30 806 H 73.9891 1.37402 4.40047 0
M  V30 807 H 77.5331 4.75333 5.10592 0
M  V30 808 H 73.4301 3.55179 5.38997 0
M  V30 809 H 74.1981 5.52298 6.04077 0
M  V30 810 N 76.8612 -1.46375 0.584142 0
M  V30 811 C 78.2722 -1.86031 0.157959 0
M  V30 812 C 78.6232 -1.48753 -1.27933 0
M  V30 813 O 77.7482 -0.903098 -1.96655 0
M  V30 814 C 78.3432 -3.37642 0.279892 0
M  V30 815 C 76.9022 -3.76289 -0.09143 0
M  V30 816 C 76.0492 -2.7039 0.615178 0
M  V30 817 H 79.0002 -1.37509 0.792274 0
M  V30 818 H 79.0212 -3.77275 -0.494364 0
M  V30 819 H 78.5332 -3.64742 1.32607 0
M  V30 820 H 76.6342 -3.54806 -1.13769 0
M  V30 821 H 76.7472 -4.78246 0.285886 0
M  V30 822 H 75.1112 -2.5464 0.0552833 0
M  V30 823 H 75.8942 -3.0033 1.66303 0
M  V30 824 N 78.3393 -0.321999 -1.54275 0
M  V30 825 C 79.5873 0.280489 -2.00144 0
M  V30 826 C 79.9083 1.52777 -1.21178 0
M  V30 827 O 79.1783 1.9338 -0.313187 0
M  V30 828 H 77.7583 0.106632 -0.73935 0
M  V30 829 H 80.4203 -0.438184 -1.8991 0
M  V30 830 H 79.5163 0.537972 -3.07428 0
M  V30 831 N 79.8174 1.5752 -0.0501392 0
M  V30 832 C 80.7654 2.12651 0.942459 0
M  V30 833 C 81.7594 1.05807 1.32292 0
M  V30 834 O 82.9654 1.24217 1.3027 0
M  V30 835 H 79.3404 0.679673 0.321789 0
M  V30 836 H 81.3114 2.94951 0.452356 0
M  V30 837 C 80.0604 2.68565 2.20836 0
M  V30 838 H 79.3834 3.50439 1.92439 0
M  V30 839 H 80.8234 3.10761 2.8845 0
M  V30 840 C 79.2824 1.62291 2.95234 0
M  V30 841 O 79.8124 1.03508 3.88135 0
M  V30 842 N 78.0184 1.33836 2.57946 0
M  V30 843 H 77.5654 1.81826 1.82475 0
M  V30 844 H 77.5234 0.629595 3.08032 0
M  V30 845 N 81.2955 -0.223234 1.56011 0
M  V30 846 C 82.5205 -0.968978 1.83373 0
M  V30 847 C 82.9455 -1.77227 0.630254 0
M  V30 848 O 82.3035 -1.76345 -0.420959 0
M  V30 849 C 82.3515 -1.86363 3.08709 0
M  V30 850 O 81.4555 -2.95873 2.87285 0
M  V30 851 H 80.7965 -0.274461 0.604622 0
M  V30 852 H 83.3265 -0.237056 2.03222 0
M  V30 853 H 83.3365 -2.27376 3.38768 0
M  V30 854 H 82.0115 -1.27319 3.95933 0
M  V30 855 H 80.5885 -2.58818 2.68454 0
M  V30 856 N 82.7736 -1.49793 -0.48987 0
M  V30 857 C 84.0506 -1.50348 -1.25119 0
M  V30 858 C 84.4306 -0.237466 -2.0976 0
M  V30 859 O 83.7786 0.77981 -2.14782 0
M  V30 860 C 83.9886 -2.78872 -2.09837 0
M  V30 861 C 85.3366 -3.288 -2.68655 0
M  V30 862 O 86.3606 -2.80065 -2.20096 0
M  V30 863 O 85.2196 -4.13707 -3.57083 0
M  V30 864 H 82.3136 -0.602242 -0.566775 0
M  V30 865 H 84.8596 -1.62067 -0.503229 0
M  V30 866 H 83.6316 -3.62499 -1.47343 0
M  V30 867 H 83.2546 -2.70066 -2.91805 0
M  V30 868 N 84.2517 0.741722 -1.39055 0
M  V30 869 C 85.4797 1.53098 -1.39171 0
M  V30 870 C 85.8947 1.88794 0.0155099 0
M  V30 871 O 85.2517 1.53626 0.985159 0
M  V30 872 C 85.3027 2.82274 -2.2584 0
M  V30 873 O 85.0237 2.48097 -3.61081 0
M  V30 874 C 86.5247 3.76343 -2.34266 0
M  V30 875 H 83.7447 0.473335 -0.4756 0
M  V30 876 H 86.2887 0.917045 -1.82785 0
M  V30 877 H 84.4437 3.40015 -1.85656 0
M  V30 878 H 84.8577 3.31029 -4.06842 0
M  V30 879 H 86.3317 4.63898 -2.9917 0
M  V30 880 H 86.8087 4.17619 -1.35982 0
M  V30 881 H 87.4147 3.24523 -2.74891 0
M  V30 882 N 85.7298 1.2412 0.971189 0
M  V30 883 C 86.9548 1.10667 1.75407 0
M  V30 884 C 87.3798 -0.337048 1.85056 0
M  V30 885 O 86.7378 -1.24396 1.31892 0
M  V30 886 C 86.7858 1.74726 3.15441 0
M  V30 887 O 85.8898 1.01566 3.99697 0
M  V30 888 H 85.2308 0.387341 0.539317 0
M  V30 889 H 87.7608 1.64358 1.2185 0
M  V30 890 H 87.7708 1.80341 3.6598 0
M  V30 891 H 86.4458 2.79773 3.07734 0
M  V30 892 H 85.0228 1.03713 3.58187 0
M  V30 893 N 87.2079 -1.17134 1.05439 0
M  V30 894 C 88.4379 -1.91094 0.785274 0
M  V30 895 C 88.8459 -1.77198 -0.663142 0
M  V30 896 O 88.1889 -1.10835 -1.46497 0
M  V30 897 C 88.2509 -3.42594 1.08949 0
M  V30 898 C 87.9149 -3.80274 2.53458 0
M  V30 899 C 88.9119 -3.82912 3.51673 0
M  V30 900 C 86.5969 -4.11162 2.88532 0
M  V30 901 C 88.5909 -4.15913 4.83006 0
M  V30 902 C 86.2779 -4.43831 4.20068 0
M  V30 903 C 87.2759 -4.46185 5.17115 0
M  V30 904 O 86.9639 -4.78083 6.46291 0
M  V30 905 H 86.6959 -0.613073 0.284811 0
M  V30 906 H 89.2499 -1.49461 1.40893 0
M  V30 907 H 87.4799 -3.84534 0.408741 0
M  V30 908 H 89.1689 -3.97817 0.805991 0
M  V30 909 H 89.9349 -3.5917 3.25917 0
M  V30 910 H 85.8139 -4.085 2.13656 0
M  V30 911 H 89.3579 -4.17665 5.5875 0
M  V30 912 H 85.2549 -4.67037 4.45586 0
M  V30 913 H 86.0229 -4.9593 6.51149 0
M  V30 914 N 88.686 -0.835752 -1.33615 0
M  V30 915 C 89.935 -0.426289 -1.97144 0
M  V30 916 C 90.248 1.01912 -1.66953 0
M  V30 917 O 91.454 1.53311 -2.24072 0
M  V30 918 C 89.91 -0.711321 -3.52801 0
M  V30 919 C 89.518 -2.1712 -3.91871 0
M  V30 920 C 91.262 -0.368654 -4.22896 0
M  V30 921 C 89.169 -2.40044 -5.40493 0
M  V30 922 H 88.099 -0.15567 -0.737755 0
M  V30 923 H 90.75 -1.0239 -1.52278 0
M  V30 924 H 89.132 -0.0433766 -3.95976 0
M  V30 925 H 90.306 -2.87936 -3.59763 0
M  V30 926 H 88.621 -2.47654 -3.34749 0
M  V30 927 H 91.218 -0.517601 -5.32189 0
M  V30 928 H 91.561 0.688078 -4.10574 0
M  V30 929 H 92.094 -0.991702 -3.8524 0
M  V30 930 H 88.833 -3.44271 -5.57815 0
M  V30 931 H 88.353 -1.73785 -5.74072 0
M  V30 932 H 90.032 -2.23042 -6.0734 0
M  V30 933 N 90.1641 1.46063 -0.591896 0
M  V30 934 C 91.0961 2.28539 0.174001 0
M  V30 935 C 92.1091 1.39047 0.846753 0
M  V30 936 O 93.2981 1.63564 0.714774 0
M  V30 937 C 90.3981 3.14347 1.26645 0
M  V30 938 C 89.5711 4.32021 0.683856 0
M  V30 939 C 88.6301 4.99157 1.66518 0
M  V30 940 O 87.6561 5.56458 1.19763 0
M  V30 941 N 88.8581 4.97005 2.99943 0
M  V30 942 H 91.6231 2.94911 -0.533633 0
M  V30 943 H 89.1841 1.56077 -0.430294 0
M  V30 944 H 91.1761 3.56125 1.92242 0
M  V30 945 H 89.7461 2.49988 1.87682 0
M  V30 946 H 88.9661 3.93915 -0.1498 0
M  V30 947 H 90.2541 5.08059 0.274567 0
M  V30 948 H 89.6521 4.51714 3.40545 0
M  V30 949 H 88.2091 5.42696 3.61004 0
M  V30 950 N 91.6422 0.330177 1.54103 0
M  V30 951 C 92.5892 -0.532762 2.24567 0
M  V30 952 C 93.5592 -1.10635 1.23892 0
M  V30 953 O 94.7442 -1.14546 1.5259 0
M  V30 954 C 91.8842 -1.6845 3.01195 0
M  V30 955 C 90.9972 -1.13951 4.167 0
M  V30 956 C 90.1322 -2.25746 4.80845 0
M  V30 957 C 89.1712 -1.6853 5.88442 0
M  V30 958 N 88.3082 -2.74014 6.46421 0
M  V30 959 H 93.1482 0.0746905 2.97906 0
M  V30 960 H 90.6852 0.048632 1.4702 0
M  V30 961 H 92.6432 -2.36234 3.43874 0
M  V30 962 H 91.2732 -2.26314 2.30178 0
M  V30 963 H 90.3252 -0.35301 3.78758 0
M  V30 964 H 91.6372 -0.680892 4.94131 0
M  V30 965 H 90.7912 -3.01422 5.26526 0
M  V30 966 H 89.5302 -2.74947 4.0281 0
M  V30 967 H 88.5352 -0.913543 5.42157 0
M  V30 968 H 89.7602 -1.20198 6.68378 0
M  V30 969 H 87.7062 -3.22494 5.71256 0
M  V30 970 H 87.6232 -2.32735 7.19285 0
M  V30 971 H 88.8912 -3.49499 6.96757 0
M  V30 972 N 93.1203 -1.57491 0.0584922 0
M  V30 973 C 94.3673 -1.92978 -0.613648 0
M  V30 974 C 94.6953 -0.937461 -1.70417 0
M  V30 975 O 93.9503 0.049078 -1.95638 0
M  V30 976 C 94.2493 -3.3513 -1.24188 0
M  V30 977 C 93.9153 -4.50037 -0.278826 0
M  V30 978 C 92.5773 -4.81198 -0.0138447 0
M  V30 979 C 94.9293 -5.19807 0.380777 0
M  V30 980 C 92.2573 -5.79473 0.918052 0
M  V30 981 C 94.6093 -6.19079 1.30091 0
M  V30 982 C 93.2733 -6.48665 1.57449 0
M  V30 983 H 92.5433 -0.706157 -0.22455 0
M  V30 984 H 95.1903 -1.91082 0.126533 0
M  V30 985 H 93.4953 -3.33429 -2.05749 0
M  V30 986 H 95.1923 -3.59871 -1.769 0
M  V30 987 H 91.7823 -4.25726 -0.495539 0
M  V30 988 H 95.9663 -4.95939 0.189158 0
M  V30 989 H 91.2223 -6.00727 1.1374 0
M  V30 990 H 95.3963 -6.7225 1.81804 0
M  V30 991 H 93.0233 -7.24628 2.29822 0
M  V30 992 N 94.5984 0.214957 -1.56127 0
M  V30 993 C 95.5454 1.26642 -1.92952 0
M  V30 994 C 96.5154 1.46244 -0.78753 0
M  V30 995 O 97.7004 1.59704 -1.04399 0
M  V30 996 C 94.8404 2.6104 -2.25726 0
M  V30 997 C 93.9534 2.49183 -3.52891 0
M  V30 998 C 93.0884 3.76149 -3.7508 0
M  V30 999 C 92.1274 3.59041 -4.95738 0
M  V30 1000 N 91.2644 4.77972 -5.14283 0
M  V30 1001 H 96.1044 0.945384 -2.82607 0
M  V30 1002 H 93.6414 0.455489 -1.3987 0
M  V30 1003 H 95.5994 3.39313 -2.42739 0
M  V30 1004 H 94.2294 2.91227 -1.39236 0
M  V30 1005 H 93.2814 1.6231 -3.44034 0
M  V30 1006 H 94.5934 2.32466 -4.41318 0
M  V30 1007 H 93.7474 4.62865 -3.92226 0
M  V30 1008 H 92.4864 3.95799 -2.84947 0
M  V30 1009 H 91.4914 2.7071 -4.78535 0
M  V30 1010 H 92.7164 3.40856 -5.87362 0
M  V30 1011 H 90.6624 4.97923 -4.27093 0
M  V30 1012 H 90.5794 4.64006 -5.96853 0
M  V30 1013 H 91.8474 5.66096 -5.35869 0
M  V30 1014 N 96.0765 1.50051 0.48192 0
M  V30 1015 C 97.3245 1.60181 1.23234 0
M  V30 1016 C 97.6455 0.299176 1.92691 0
M  V30 1017 O 96.9155 -0.682708 1.83619 0
M  V30 1018 H 95.4955 0.590232 0.457859 0
M  V30 1019 H 98.1575 1.86775 0.556881 0
M  V30 1020 H 97.2535 2.40753 1.98607 0
M  V30 1021 N 97.5546 -0.734337 1.39446 0
M  V30 1022 C 98.5016 -1.84835 1.38219 0
M  V30 1023 C 99.4716 -1.64331 0.24179 0
M  V30 1024 O 100.657 -1.85728 0.437002 0
M  V30 1025 C 97.7966 -3.22355 1.23212 0
M  V30 1026 C 96.9096 -3.5456 2.46801 0
M  V30 1027 C 96.0446 -4.81485 2.24377 0
M  V30 1028 C 95.0836 -5.06536 3.43639 0
M  V30 1029 N 94.2206 -6.24665 3.20528 0
M  V30 1030 H 99.0606 -1.85219 2.33448 0
M  V30 1031 H 96.5976 -0.905039 1.15963 0
M  V30 1032 H 98.5556 -4.0174 1.12522 0
M  V30 1033 H 97.1856 -3.21248 0.316121 0
M  V30 1034 H 96.2376 -2.69872 2.68092 0
M  V30 1035 H 97.5496 -3.6899 3.3563 0
M  V30 1036 H 96.7036 -5.68852 2.10933 0
M  V30 1037 H 95.4426 -4.6923 1.32944 0
M  V30 1038 H 94.4476 -4.17632 3.5758 0
M  V30 1039 H 95.6726 -5.20676 4.35974 0
M  V30 1040 H 93.6186 -6.13696 2.3176 0
M  V30 1041 H 93.5356 -6.39685 4.02913 0
M  V30 1042 H 94.8036 -7.14868 3.10779 0
M  V30 1043 N 99.0327 -1.24633 -0.964593 0
M  V30 1044 C 99.9957 -1.0424 -2.04124 0
M  V30 1045 C 100.996 0.00137563 -1.608 0
M  V30 1046 O 102.186 -0.239883 -1.7254 0
M  V30 1047 C 99.3177 -0.580588 -3.3592 0
M  V30 1048 H 100.511 -1.99803 -2.23649 0
M  V30 1049 H 98.0637 -1.06899 -1.14027 0
M  V30 1050 H 98.7987 0.3781 -3.22088 0
M  V30 1051 H 98.5837 -1.33398 -3.6871 0
M  V30 1052 H 100.074 -0.459034 -4.15069 0
M  V30 1053 N 100.511 1.16574 -1.06058 0
M  V30 1054 C 101.458 2.20883 -0.669263 0
M  V30 1055 C 102.428 1.62729 0.332918 0
M  V30 1056 O 103.613 1.895 0.222346 0
M  V30 1057 C 100.753 3.45049 -0.0593572 0
M  V30 1058 C 99.8658 4.17458 -1.11143 0
M  V30 1059 C 99.0008 5.29135 -0.467916 0
M  V30 1060 C 98.0398 5.93343 -1.50369 0
M  V30 1061 N 97.1768 6.96516 -0.883706 0
M  V30 1062 H 102.017 2.53709 -1.5632 0
M  V30 1063 H 99.5538 1.24616 -0.781625 0
M  V30 1064 H 101.512 4.16033 0.311771 0
M  V30 1065 H 100.142 3.12781 0.797992 0
M  V30 1066 H 99.1938 3.45101 -1.60029 0
M  V30 1067 H 100.506 4.61307 -1.89731 0
M  V30 1068 H 99.6598 6.06684 -0.0436871 0
M  V30 1069 H 98.3988 4.86443 0.349864 0
M  V30 1070 H 97.4038 5.14517 -1.93784 0
M  V30 1071 H 98.6288 6.38114 -2.32352 0
M  V30 1072 H 96.5748 6.55943 -0.086595 0
M  V30 1073 H 96.4918 7.38723 -1.607 0
M  V30 1074 H 97.7598 7.77993 -0.484543 0
M  V30 1075 N 101.989 0.842826 1.3317 0
M  V30 1076 C 102.919 0.294028 2.31641 0
M  V30 1077 C 103.9 -0.600401 1.59151 0
M  V30 1078 O 105.085 -0.523124 1.87022 0
M  V30 1079 C 102.215 -0.528416 3.43257 0
M  V30 1080 C 101.169 0.27056 4.27144 0
M  V30 1081 C 100.495 -0.675881 5.30411 0
M  V30 1082 C 101.795 1.48981 5.00602 0
M  V30 1083 H 103.489 1.11681 2.77791 0
M  V30 1084 H 101.035 0.538478 1.33553 0
M  V30 1085 H 102.988 -0.922674 4.11175 0
M  V30 1086 H 101.712 -1.38445 2.95805 0
M  V30 1087 H 100.371 0.646427 3.60856 0
M  V30 1088 H 100.019 -1.52842 4.79216 0
M  V30 1089 H 99.7189 -0.145374 5.8742 0
M  V30 1090 H 101.243 -1.06757 6.01195 0
M  V30 1091 H 102.657 1.16849 5.61266 0
M  V30 1092 H 101.054 1.95739 5.6728 0
M  V30 1093 H 102.124 2.25746 4.29147 0
M  V30 1094 N 103.467 -1.45747 0.599634 0
M  V30 1095 C 104.695 -2.06668 0.0978551 0
M  V30 1096 C 105.11 -1.44562 -1.21439 0
M  V30 1097 O 104.467 -0.556923 -1.73795 0
M  V30 1098 C 104.518 -3.61456 -0.0567044 0
M  V30 1099 O 104.239 -4.21242 1.20361 0
M  V30 1100 C 105.74 -4.39345 -0.590869 0
M  V30 1101 H 102.96 -0.667825 0.0651943 0
M  V30 1102 H 105.504 -1.87115 0.82511 0
M  V30 1103 H 103.659 -3.80378 -0.734251 0
M  V30 1104 H 104.073 -5.14323 1.02821 0
M  V30 1105 H 105.547 -5.48182 -0.648131 0
M  V30 1106 H 106.024 -4.08568 -1.61147 0
M  V30 1107 H 106.63 -4.25268 0.0523679 0
M  V30 1108 N 104.945 -0.338344 -1.53925 0
M  V30 1109 C 105.908 0.508299 -2.23493 0
M  V30 1110 C 106.908 1.03175 -1.23335 0
M  V30 1111 O 108.098 0.921826 -1.47811 0
M  V30 1112 C 105.23 1.70754 -2.95052 0
M  V30 1113 H 106.423 -0.100058 -2.99733 0
M  V30 1114 H 103.976 -0.0896198 -1.56043 0
M  V30 1115 H 104.711 2.35474 -2.22986 0
M  V30 1116 H 104.496 1.33946 -3.68512 0
M  V30 1117 H 105.986 2.30818 -3.48013 0
M  V30 1118 N 106.423 1.57458 -0.0668435 0
M  V30 1119 C 107.669 1.93587 0.6043 0
M  V30 1120 C 108.002 0.946722 1.69561 0
M  V30 1121 O 107.277 -0.0248516 1.94484 0
M  V30 1122 C 107.56 3.40014 1.18585 0
M  V30 1123 C 107.413 4.49685 0.101529 0
M  V30 1124 C 108.732 3.87154 2.09284 0
M  V30 1125 H 105.851 0.703958 0.218202 0
M  V30 1126 H 108.493 1.89542 -0.131804 0
M  V30 1127 H 106.643 3.43592 1.81319 0
M  V30 1128 H 108.315 4.5823 -0.531279 0
M  V30 1129 H 106.558 4.30059 -0.568487 0
M  V30 1130 H 107.229 5.49266 0.54874 0
M  V30 1131 H 109.705 3.85551 1.56491 0
M  V30 1132 H 108.581 4.90231 2.46911 0
M  V30 1133 H 108.842 3.2481 2.99918 0
M  V30 1134 N 107.901 -0.206675 1.56239 0
M  V30 1135 C 109.129 -0.945345 1.8404 0
M  V30 1136 C 109.544 -1.77336 0.647885 0
M  V30 1137 O 108.901 -1.78425 -0.383511 0
M  V30 1138 C 108.952 -1.8509 3.10522 0
M  V30 1139 O 108.673 -1.05634 4.25174 0
M  V30 1140 C 110.174 -2.70222 3.51418 0
M  V30 1141 H 107.394 -0.276372 0.61144 0
M  V30 1142 H 109.938 -0.217417 2.03341 0
M  V30 1143 H 108.093 -2.53259 2.93153 0
M  V30 1144 H 108.507 -1.67238 4.97124 0
M  V30 1145 H 109.981 -3.29438 4.42916 0
M  V30 1146 H 110.458 -3.43358 2.73864 0
M  V30 1147 H 111.064 -2.07443 3.71278 0
M  V30 1148 N 109.379 -1.50304 -0.473955 0
M  V30 1149 C 110.604 -1.65175 -1.25427 0
M  V30 1150 C 111.029 -0.333673 -1.85117 0
M  V30 1151 O 110.387 0.702114 -1.67153 0
M  V30 1152 C 110.435 -2.74295 -2.34082 0
M  V30 1153 O 109.539 -2.35349 -3.38651 0
M  V30 1154 H 108.88 -0.551944 -0.369126 0
M  V30 1155 H 111.41 -1.96662 -0.564364 0
M  V30 1156 H 111.42 -2.97285 -2.79438 0
M  V30 1157 H 110.095 -3.69959 -1.90008 0
M  V30 1158 H 108.672 -2.22794 -2.99027 0
M  V30 1159 N 110.857 0.726932 -1.39834 0
M  V30 1160 C 112.085 1.51613 -1.40787 0
M  V30 1161 C 112.5 1.88799 -0.00451505 0
M  V30 1162 O 111.857 1.54662 0.968809 0
M  V30 1163 C 111.908 2.79863 -2.28821 0
M  V30 1164 O 111.629 2.44253 -3.63692 0
M  V30 1165 C 113.13 3.73837 -2.38245 0
M  V30 1166 H 110.35 0.468264 -0.480593 0
M  V30 1167 H 112.894 0.897607 -1.83748 0
M  V30 1168 H 111.049 3.38027 -1.89252 0
M  V30 1169 H 111.463 3.26695 -4.1033 0
M  V30 1170 H 112.937 4.60699 -3.04073 0
M  V30 1171 H 113.414 4.16153 -1.40403 0
M  V30 1172 H 114.02 3.21589 -2.78317 0
M  V30 1173 N 112.336 1.25143 0.95797 0
M  V30 1174 C 113.564 1.12424 1.73691 0
M  V30 1175 C 113.979 -0.322304 1.86029 0
M  V30 1176 O 113.336 -1.22186 1.35561 0
M  V30 1177 C 113.387 1.76933 3.15241 0
M  V30 1178 O 113.108 3.15932 3.03511 0
M  V30 1179 C 114.609 1.6995 4.09429 0
M  V30 1180 H 111.829 0.3923 0.544373 0
M  V30 1181 H 114.373 1.6544 1.20207 0
M  V30 1182 H 112.528 1.27895 3.6568 0
M  V30 1183 H 112.942 3.47598 3.9278 0
M  V30 1184 H 114.416 2.19753 5.06372 0
M  V30 1185 H 114.893 0.662619 4.34173 0
M  V30 1186 H 115.499 2.18461 3.64904 0
M  V30 1187 N 113.814 -1.1601 1.06675 0
M  V30 1188 C 115.039 -1.91068 0.806706 0
M  V30 1189 C 115.464 -1.77112 -0.633485 0
M  V30 1190 O 114.822 -1.09908 -1.44187 0
M  V30 1191 C 114.87 -3.39655 1.21106 0
M  V30 1192 O 113.974 -4.10893 0.352189 0
M  V30 1193 H 113.315 -0.595125 0.294486 0
M  V30 1194 H 115.845 -1.46955 1.42356 0
M  V30 1195 H 115.855 -3.90434 1.18428 0
M  V30 1196 H 114.53 -3.49132 2.26008 0
M  V30 1197 H 113.107 -3.70285 0.440868 0
M  V30 1198 N 115.292 -0.849877 -1.32721 0
M  V30 1199 C 116.538 -0.451591 -1.97708 0
M  V30 1200 C 116.871 0.989175 -1.6712 0
M  V30 1201 O 116.146 1.69334 -0.956891 0
M  V30 1202 C 116.429 -0.685598 -3.53513 0
M  V30 1203 C 116.282 -2.17444 -3.93749 0
M  V30 1204 C 117.601 -0.138874 -4.39881 0
M  V30 1205 H 114.72 -0.16555 -0.718166 0
M  V30 1206 H 117.362 -1.06742 -1.57182 0
M  V30 1207 H 115.512 -0.161416 -3.88165 0
M  V30 1208 H 117.184 -2.76433 -3.693 0
M  V30 1209 H 115.427 -2.65476 -3.43081 0
M  V30 1210 H 116.098 -2.28888 -5.02309 0
M  V30 1211 H 118.574 -0.587068 -4.11938 0
M  V30 1212 H 117.45 -0.332213 -5.47894 0
M  V30 1213 H 117.711 0.95806 -4.31594 0
M  V30 1214 N 116.77 1.45427 -0.607355 0
M  V30 1215 C 118 2.06314 -0.108656 0
M  V30 1216 C 118.408 1.45269 1.21217 0
M  V30 1217 O 117.751 0.561115 1.74921 0
M  V30 1218 C 117.813 3.59345 0.105618 0
M  V30 1219 C 117.477 4.42723 -1.13337 0
M  V30 1220 C 118.474 4.77715 -2.05145 0
M  V30 1221 C 116.159 4.83478 -1.36213 0
M  V30 1222 C 118.153 5.52317 -3.18158 0
M  V30 1223 C 115.84 5.57835 -2.49527 0
M  V30 1224 C 116.838 5.92171 -3.40327 0
M  V30 1225 O 116.526 6.65019 -4.51669 0
M  V30 1226 H 116.258 0.672782 -0.0658842 0
M  V30 1227 H 118.812 1.87664 -0.834945 0
M  V30 1228 H 117.042 3.76394 0.886796 0
M  V30 1229 H 118.731 4.02076 0.555886 0
M  V30 1230 H 119.497 4.46787 -1.88697 0
M  V30 1231 H 115.376 4.56188 -0.664362 0
M  V30 1232 H 118.92 5.79036 -3.89054 0
M  V30 1233 H 114.817 5.88177 -2.65928 0
M  V30 1234 H 115.585 6.83469 -4.50348 0
M  V30 1235 N 118.248 0.346503 1.53744 0
M  V30 1236 C 119.181 -0.552023 2.21423 0
M  V30 1237 C 120.159 -1.09798 1.19929 0
M  V30 1238 O 121.343 -1.1577 1.4876 0
M  V30 1239 C 118.47 -1.75972 2.89398 0
M  V30 1240 C 117.516 -1.34295 4.04805 0
M  V30 1241 S 118.349 -0.360263 5.34287 0
M  V30 1242 C 119.505 -1.57473 6.05767 0
M  V30 1243 H 119.738 0.0228119 2.97291 0
M  V30 1244 H 117.271 0.130579 1.53847 0
M  V30 1245 H 119.229 -2.45256 3.2918 0
M  V30 1246 H 117.89 -2.30578 2.1329 0
M  V30 1247 H 117.083 -2.24349 4.51313 0
M  V30 1248 H 116.685 -0.729555 3.66815 0
M  V30 1249 H 118.977 -2.50875 6.29339 0
M  V30 1250 H 119.92 -1.15138 6.98676 0
M  V30 1251 H 120.328 -1.77212 5.35963 0
M  V30 1252 N 119.726 -1.57421 0.075193 0
M  V30 1253 C 120.636 -2.1642 -0.905511 0
M  V30 1254 C 121.652 -1.12828 -1.32461 0
M  V30 1255 O 122.828 -1.45109 -1.39661 0
M  V30 1256 C 119.893 -2.71693 -2.15369 0
M  V30 1257 C 118.954 -3.90171 -1.79068 0
M  V30 1258 C 118.187 -4.42798 -2.97936 0
M  V30 1259 O 118.41 -3.94416 -4.12058 0
M  V30 1260 O 117.344 -5.34085 -2.77555 0
M  V30 1261 H 121.17 -3.00588 -0.433626 0
M  V30 1262 H 118.755 -1.48664 -0.148067 0
M  V30 1263 H 120.637 -3.07104 -2.88557 0
M  V30 1264 H 119.312 -1.90582 -2.61649 0
M  V30 1265 H 118.219 -3.59606 -1.03122 0
M  V30 1266 H 119.552 -4.72584 -1.37569 0
M  V30 1267 N 121.204 0.198386 -1.56346 0
M  V30 1268 C 122.134 1.24865 -1.9731 0
M  V30 1269 C 123.115 1.47651 -0.844576 0
M  V30 1270 O 124.3 1.59444 -1.10866 0
M  V30 1271 C 121.43 2.59358 -2.30977 0
M  V30 1272 C 120.384 2.5119 -3.46537 0
M  V30 1273 C 119.71 3.89926 -3.65871 0
M  V30 1274 C 121.01 2.03977 -4.80823 0
M  V30 1275 H 122.704 0.908252 -2.85291 0
M  V30 1276 H 120.25 0.435462 -1.37258 0
M  V30 1277 H 122.203 3.33011 -2.58228 0
M  V30 1278 H 120.927 2.95132 -1.39874 0
M  V30 1279 H 119.586 1.79993 -3.19371 0
M  V30 1280 H 119.234 4.23046 -2.72105 0
M  V30 1281 H 118.934 3.85336 -4.4361 0
M  V30 1282 H 120.458 4.65205 -3.95495 0
M  V30 1283 H 121.872 2.67386 -5.07127 0
M  V30 1284 H 120.269 2.10397 -5.62008 0
M  V30 1285 H 121.339 0.992861 -4.74626 0
M  V30 1286 N 122.682 1.50554 0.465978 0
M  V30 1287 C 123.907 1.65838 1.24549 0
M  V30 1288 C 124.332 0.343486 1.84937 0
M  V30 1289 O 123.69 -0.69324 1.67523 0
M  V30 1290 C 123.738 2.75533 2.32624 0
M  V30 1291 O 122.842 2.37142 3.37398 0
M  V30 1292 H 122.183 0.553893 0.366194 0
M  V30 1293 H 124.713 1.96959 0.553927 0
M  V30 1294 H 124.723 2.98763 2.77857 0
M  V30 1295 H 123.398 3.70962 1.88043 0
M  V30 1296 H 121.975 2.24377 2.97841 0
M  V30 1297 N 124.16 -0.719506 1.40217 0
M  V30 1298 C 125.385 -1.51371 1.4178 0
M  V30 1299 C 125.81 -1.88091 0.0182355 0
M  V30 1300 O 125.168 -1.52997 -0.972707 0
M  V30 1301 C 125.216 -2.768 2.31115 0
M  V30 1302 O 124.32 -3.73349 1.7517 0
M  V30 1303 H 123.661 -0.456529 0.482159 0
M  V30 1304 H 126.191 -0.88644 1.844 0
M  V30 1305 H 126.201 -3.25371 2.46167 0
M  V30 1306 H 124.876 -2.49407 3.3282 0
M  V30 1307 H 123.453 -3.32179 1.69444 0
M  V30 1308 N 125.638 -1.25649 -0.95132 0
M  V30 1309 C 126.568 -1.08808 -2.06599 0
M  V30 1310 C 127.549 0.00382547 -1.701 0
M  V30 1311 O 128.734 -0.166325 -1.93486 0
M  V30 1312 C 125.864 -0.709542 -3.39975 0
M  V30 1313 C 124.818 -1.75206 -3.90496 0
M  V30 1314 C 124.144 -1.22811 -5.20405 0
M  V30 1315 C 125.444 -3.15153 -4.16504 0
M  V30 1316 H 127.138 -2.02048 -2.20946 0
M  V30 1317 H 124.684 -0.972835 -1.06169 0
M  V30 1318 H 126.637 -0.578649 -4.17408 0
M  V30 1319 H 125.361 0.258556 -3.25575 0
M  V30 1320 H 124.02 -1.87145 -3.15234 0
M  V30 1321 H 123.668 -0.250145 -5.02378 0
M  V30 1322 H 123.368 -1.92492 -5.55176 0
M  V30 1323 H 124.892 -1.10968 -6.00432 0
M  V30 1324 H 126.306 -3.06349 -4.84586 0
M  V30 1325 H 124.703 -3.82333 -4.62538 0
M  V30 1326 H 125.773 -3.61966 -3.22658 0
M  V30 1327 N 127.117 1.15442 -1.07289 0
M  V30 1328 C 128.345 1.90096 -0.81676 0
M  V30 1329 C 128.76 1.7798 0.629966 0
M  V30 1330 O 128.117 1.1313 1.43206 0
M  V30 1331 C 128.168 3.40466 -1.21512 0
M  V30 1332 O 127.889 3.52232 -2.60508 0
M  V30 1333 C 129.39 4.32145 -0.988198 0
M  V30 1334 H 126.61 0.602495 -0.295366 0
M  V30 1335 H 129.154 1.4627 -1.42918 0
M  V30 1336 H 127.309 3.81958 -0.647039 0
M  V30 1337 H 127.723 4.45549 -2.76742 0
M  V30 1338 H 129.197 5.36072 -1.31645 0
M  V30 1339 H 129.674 4.39135 0.0755063 0
M  V30 1340 H 130.28 3.96395 -1.54115 0
M  V30 1341 N 128.595 0.856903 1.32268 0
M  V30 1342 C 129.543 0.291987 2.3076 0
M  V30 1343 C 130.537 -0.585857 1.58947 0
M  V30 1344 O 131.743 -0.47341 1.73663 0
M  V30 1345 H 128.118 0.075721 0.748178 0
M  V30 1346 H 130.089 1.13687 2.75895 0
M  V30 1347 C 128.838 -0.502869 3.44044 0
M  V30 1348 H 128.161 0.163328 3.99466 0
M  V30 1349 H 129.601 -0.863691 4.1511 0
M  V30 1350 C 128.06 -1.68898 2.91505 0
M  V30 1351 O 128.59 -2.78811 2.89184 0
M  V30 1352 N 126.796 -1.51679 2.47875 0
M  V30 1353 H 126.343 -0.622666 2.49961 0
M  V30 1354 H 126.301 -2.31184 2.13076 0
M  V30 1355 N 130.073 -1.45103 0.615059 0
M  V30 1356 C 130.983 -2.34382 -0.101034 0
M  V30 1357 C 131.999 -1.51681 -0.852585 0
M  V30 1358 O 133.175 -1.8446 -0.808484 0
M  V30 1359 C 130.24 -3.29417 -1.08099 0
M  V30 1360 C 129.301 -4.28025 -0.330577 0
M  V30 1361 C 128.534 -5.1852 -1.26385 0
M  V30 1362 O 128.757 -5.12598 -2.50198 0
M  V30 1363 O 127.691 -5.97122 -0.756866 0
M  V30 1364 H 131.517 -2.97033 0.632855 0
M  V30 1365 H 129.102 -1.4461 0.375293 0
M  V30 1366 H 130.984 -3.87958 -1.6452 0
M  V30 1367 H 129.659 -2.69321 -1.79577 0
M  V30 1368 H 128.566 -3.73078 0.276283 0
M  V30 1369 H 129.899 -4.90997 0.343866 0
M  V30 1370 N 131.551 -0.354651 -1.53558 0
M  V30 1371 C 132.828 0.294281 -1.93374 0
M  V30 1372 C 133.208 1.67313 -1.28723 0
M  V30 1373 O 132.556 2.24179 -0.442247 0
M  V30 1374 C 132.766 0.355445 -3.47185 0
M  V30 1375 C 134.114 0.601007 -4.20325 0
M  V30 1376 O 135.138 0.437106 -3.53508 0
M  V30 1377 O 133.997 0.919322 -5.38712 0
M  V30 1378 H 131.091 0.174033 -0.808481 0
M  V30 1379 H 133.637 -0.406638 -1.64756 0
M  V30 1380 H 132.409 -0.611729 -3.86489 0
M  V30 1381 H 132.032 1.1027 -3.82003 0
M  V30 1382 N 133.029 1.57378 -0.0835403 0
M  V30 1383 C 134.254 1.98682 0.594987 0
M  V30 1384 C 134.679 0.961969 1.61641 0
M  V30 1385 O 134.037 -0.0709989 1.81161 0
M  V30 1386 C 134.085 3.38988 1.2296 0
M  V30 1387 O 133.189 3.39208 2.34546 0
M  V30 1388 H 132.53 0.646368 0.152002 0
M  V30 1389 H 135.06 2.03961 -0.161533 0
M  V30 1390 H 135.07 3.76431 1.57366 0
M  V30 1391 H 133.745 4.13107 0.481228 0
M  V30 1392 H 132.322 3.13548 2.01846 0
M  V30 1393 N 134.507 -0.190092 1.56449 0
M  V30 1394 C 135.47 -1.21925 1.9408 0
M  V30 1395 C 136.47 -1.38176 0.822431 0
M  V30 1396 O 137.66 -1.35903 1.08977 0
M  V30 1397 C 134.792 -2.58773 2.21922 0
M  V30 1398 H 135.985 -0.897464 2.86157 0
M  V30 1399 H 133.538 -0.43181 1.50217 0
M  V30 1400 H 134.273 -2.95998 1.32499 0
M  V30 1401 H 134.058 -2.48348 3.03424 0
M  V30 1402 H 135.548 -3.32978 2.52022 0
M  V30 1403 N 135.985 -1.50799 -0.457987 0
M  V30 1404 C 137.231 -1.62683 -1.21088 0
M  V30 1405 C 137.564 -0.332268 -1.91336 0
M  V30 1406 O 136.839 0.667043 -1.82704 0
M  V30 1407 C 137.122 -2.81615 -2.24422 0
M  V30 1408 C 136.975 -4.20989 -1.58392 0
M  V30 1409 C 138.294 -2.96085 -3.2561 0
M  V30 1410 H 135.413 -0.592087 -0.438864 0
M  V30 1411 H 138.055 -1.83225 -0.50286 0
M  V30 1412 H 136.205 -2.64231 -2.84806 0
M  V30 1413 H 137.877 -4.49994 -1.01504 0
M  V30 1414 H 136.12 -4.24641 -0.886704 0
M  V30 1415 H 136.791 -5.0016 -2.33547 0
M  V30 1416 H 139.267 -3.12042 -2.75262 0
M  V30 1417 H 138.143 -3.80902 -3.95228 0
M  V30 1418 H 138.404 -2.0726 -3.90507 0
M  V30 1419 N 137.463 0.71206 -1.40597 0
M  V30 1420 C 138.693 1.49894 -1.42181 0
M  V30 1421 C 139.101 1.89189 -0.0208078 0
M  V30 1422 O 138.444 1.56223 0.966436 0
M  V30 1423 C 138.506 2.80215 -2.25211 0
M  V30 1424 C 138.17 2.63221 -3.73582 0
M  V30 1425 C 139.167 2.30249 -4.66135 0
M  V30 1426 C 136.852 2.79376 -4.17438 0
M  V30 1427 C 138.846 2.13645 -6.00529 0
M  V30 1428 C 136.533 2.6239 -5.51901 0
M  V30 1429 C 137.531 2.29573 -6.43262 0
M  V30 1430 O 137.219 2.12719 -7.75246 0
M  V30 1431 H 136.951 0.469031 -0.486812 0
M  V30 1432 H 139.505 0.88564 -1.85326 0
M  V30 1433 H 137.735 3.4389 -1.76852 0
M  V30 1434 H 139.424 3.41947 -2.18694 0
M  V30 1435 H 140.19 2.17398 -4.33547 0
M  V30 1436 H 136.069 3.03906 -3.46644 0
M  V30 1437 H 139.613 1.87953 -6.71803 0
M  V30 1438 H 135.51 2.74826 -5.84073 0
M  V30 1439 H 136.278 2.27611 -7.86216 0
M  V30 1440 N 138.941 1.26152 0.944643 0
M  V30 1441 C 140.171 1.14094 1.72239 0
M  V30 1442 C 140.579 -0.306931 1.86694 0
M  V30 1443 O 139.922 -1.22222 1.3714 0
M  V30 1444 C 139.984 1.73316 3.14963 0
M  V30 1445 C 139.648 3.2239 3.23904 0
M  V30 1446 C 140.645 4.19252 3.07447 0
M  V30 1447 C 138.33 3.62788 3.47405 0
M  V30 1448 C 140.324 5.54491 3.14353 0
M  V30 1449 C 138.011 4.98162 3.53947 0
M  V30 1450 C 139.009 5.93823 3.37436 0
M  V30 1451 O 138.697 7.26732 3.43679 0
M  V30 1452 H 138.429 0.398292 0.546205 0
M  V30 1453 H 140.983 1.67201 1.19301 0
M  V30 1454 H 139.213 1.14667 3.69308 0
M  V30 1455 H 140.902 1.56214 3.74636 0
M  V30 1456 H 141.668 3.8938 2.8915 0
M  V30 1457 H 137.547 2.88816 3.59313 0
M  V30 1458 H 141.091 6.29137 3.01384 0
M  V30 1459 H 136.988 5.27695 3.71763 0
M  V30 1460 H 137.756 7.3496 3.60245 0
M  V30 1461 N 140.419 -1.14872 1.07899 0
M  V30 1462 C 141.659 -1.8745 0.814965 0
M  V30 1463 C 142.023 -1.80758 -0.64733 0
M  V30 1464 O 143.224 -2.48422 -1.02664 0
M  V30 1465 C 141.495 -3.32286 1.31607 0
M  V30 1466 S 143.054 -4.22537 1.18357 0
M  V30 1467 H 139.872 -0.646833 0.295174 0
M  V30 1468 H 142.474 -1.38555 1.37923 0
M  V30 1469 H 141.178 -3.34703 2.37491 0
M  V30 1470 H 140.709 -3.86238 0.747261 0
M  V30 1471 H 142.724 -4.96044 0.124586 0
M  V30 1472 N 141.898 -0.863906 -1.31812 0
M  V30 1473 C 143.126 -0.486111 -2.01108 0
M  V30 1474 C 143.541 0.919755 -1.64882 0
M  V30 1475 O 142.898 1.60162 -0.874893 0
M  V30 1476 C 142.949 -0.626435 -3.56031 0
M  V30 1477 O 142.67 -1.97693 -3.90959 0
M  V30 1478 C 144.171 -0.248857 -4.42601 0
M  V30 1479 H 141.391 -0.190052 -0.643523 0
M  V30 1480 H 143.935 -1.1634 -1.68182 0
M  V30 1481 H 142.09 0.00322717 -3.874 0
M  V30 1482 H 142.504 -1.98034 -4.85678 0
M  V30 1483 H 143.978 -0.398016 -5.50563 0
M  V30 1484 H 144.455 0.811489 -4.31638 0
M  V30 1485 H 145.061 -0.853971 -4.16638 0
M  V30 1486 N 143.376 1.44774 -0.622745 0
M  V30 1487 C 144.306 2.33382 0.0741861 0
M  V30 1488 C 145.287 1.47719 0.843387 0
M  V30 1489 O 146.472 1.76458 0.810934 0
M  V30 1490 C 143.602 3.30663 1.06204 0
M  V30 1491 C 142.556 4.26079 0.405037 0
M  V30 1492 C 141.882 5.13165 1.5022 0
M  V30 1493 C 143.182 5.1781 -0.683414 0
M  V30 1494 H 144.876 2.91905 -0.665713 0
M  V30 1495 H 142.422 1.40363 -0.321587 0
M  V30 1496 H 144.375 3.9153 1.55827 0
M  V30 1497 H 143.099 2.70331 1.83272 0
M  V30 1498 H 141.758 3.66532 -0.0704683 0
M  V30 1499 H 141.406 4.49191 2.26355 0
M  V30 1500 H 141.106 5.77812 1.06803 0
M  V30 1501 H 142.63 5.76902 2.00041 0
M  V30 1502 H 144.044 5.72661 -0.270631 0
M  V30 1503 H 142.441 5.91015 -1.04023 0
M  V30 1504 H 143.511 4.59326 -1.55395 0
M  V30 1505 N 144.854 0.36279 1.53368 0
M  V30 1506 C 146.084 -0.228281 2.05335 0
M  V30 1507 C 146.492 -1.43226 1.23625 0
M  V30 1508 O 145.835 -1.81717 0.269206 0
M  V30 1509 C 145.897 -0.688549 3.52845 0
M  V30 1510 C 145.561 0.398362 4.5526 0
M  V30 1511 C 146.558 1.24732 5.04716 0
M  V30 1512 C 144.243 0.557805 4.99193 0
M  V30 1513 C 146.237 2.2411 5.96702 0
M  V30 1514 C 143.924 1.55495 5.90986 0
M  V30 1515 C 144.922 2.39503 6.39631 0
M  V30 1516 O 144.61 3.37517 7.29615 0
M  V30 1517 H 144.342 -0.044395 0.674541 0
M  V30 1518 H 146.896 0.518668 1.98744 0
M  V30 1519 H 145.126 -1.48706 3.56964 0
M  V30 1520 H 146.815 -1.20231 3.87685 0
M  V30 1521 H 147.581 1.13532 4.71525 0
M  V30 1522 H 143.46 -0.0862959 4.60919 0
M  V30 1523 H 147.004 2.89718 6.34594 0
M  V30 1524 H 142.901 1.66744 6.23592 0
M  V30 1525 H 143.669 3.33213 7.47604 0
M  V30 1526 N 146.332 -1.57332 0.0918853 0
M  V30 1527 C 147.609 -1.85691 -0.614668 0
M  V30 1528 C 147.989 -0.988146 -1.86545 0
M  V30 1529 O 147.337 -0.0597055 -2.28422 0
M  V30 1530 C 147.547 -3.36294 -0.933126 0
M  V30 1531 C 148.895 -4.04275 -1.29796 0
M  V30 1532 O 149.919 -3.41157 -1.02424 0
M  V30 1533 O 148.778 -5.1564 -1.81047 0
M  V30 1534 H 145.872 -0.767802 -0.307261 0
M  V30 1535 H 148.418 -1.69244 0.12434 0
M  V30 1536 H 147.19 -3.91273 -0.0456404 0
M  V30 1537 H 146.813 -3.58076 -1.72822 0
M  V30 1538 N 147.81 0.181792 -1.56548 0
M  V30 1539 C 149.058 0.89832 -1.81038 0
M  V30 1540 C 149.379 1.83232 -0.667164 0
M  V30 1541 O 148.649 1.93372 0.313673 0
M  V30 1542 H 147.229 0.33471 -0.667816 0
M  V30 1543 H 149.891 0.184116 -1.94028 0
M  V30 1544 H 148.987 1.4815 -2.74696 0
M  V30 1545 N 149.288 1.51039 0.449983 0
M  V30 1546 C 150.518 1.66627 1.22143 0
M  V30 1547 C 150.926 0.357776 1.85786 0
M  V30 1548 O 150.269 -0.672424 1.70951 0
M  V30 1549 C 150.331 2.71562 2.35573 0
M  V30 1550 C 149.995 4.14526 1.92399 0
M  V30 1551 C 150.992 4.99717 1.43453 0
M  V30 1552 C 148.677 4.60559 2.00475 0
M  V30 1553 C 150.671 6.28998 1.03155 0
M  V30 1554 C 148.358 5.8984 1.59788 0
M  V30 1555 C 149.356 6.73886 1.11208 0
M  V30 1556 O 149.044 8.0075 0.710935 0
M  V30 1557 H 148.776 0.562635 0.374724 0
M  V30 1558 H 151.33 1.98146 0.541036 0
M  V30 1559 H 149.56 2.3533 3.06849 0
M  V30 1560 H 151.249 2.76156 2.97478 0
M  V30 1561 H 152.015 4.65361 1.36618 0
M  V30 1562 H 147.894 3.95273 2.37235 0
M  V30 1563 H 151.438 6.9455 0.651663 0
M  V30 1564 H 147.335 6.23713 1.66289 0
M  V30 1565 H 148.103 8.142 0.837913 0
M  V30 1566 N 150.766 -0.704594 1.40972 0
M  V30 1567 C 151.996 -1.49138 1.42974 0
M  V30 1568 C 152.404 -1.89175 0.0308406 0
M  V30 1569 O 151.747 -1.56734 -0.958138 0
M  V30 1570 C 151.809 -2.79016 2.26694 0
M  V30 1571 C 151.473 -2.61236 3.74973 0
M  V30 1572 C 152.47 -2.27773 4.67349 0
M  V30 1573 C 150.155 -2.77158 4.18914 0
M  V30 1574 C 152.149 -2.10457 6.01653 0
M  V30 1575 C 149.836 -2.59459 5.53285 0
M  V30 1576 C 150.834 -2.26158 6.4447 0
M  V30 1577 O 150.522 -2.08605 7.76363 0
M  V30 1578 H 150.254 -0.466443 0.489292 0
M  V30 1579 H 152.808 -0.8758 1.85793 0
M  V30 1580 H 151.038 -3.42947 1.78673 0
M  V30 1581 H 152.727 -3.40782 2.20504 0
M  V30 1582 H 153.493 -2.15095 4.34694 0
M  V30 1583 H 149.372 -3.02064 3.48251 0
M  V30 1584 H 152.916 -1.84387 6.72791 0
M  V30 1585 H 148.813 -2.71725 5.85522 0
M  V30 1586 H 149.581 -2.23439 7.87412 0
M  V30 1587 N 152.244 -1.26651 -0.937939 0
M  V30 1588 C 153.49 -1.12553 -1.687 0
M  V30 1589 C 153.823 0.329782 -1.91379 0
M  V30 1590 O 153.098 1.24202 -1.4968 0
M  V30 1591 C 153.381 -1.89862 -3.05981 0
M  V30 1592 C 153.234 -3.43318 -2.90607 0
M  V30 1593 C 154.553 -1.69499 -4.0615 0
M  V30 1594 H 151.672 -0.410257 -0.612257 0
M  V30 1595 H 154.314 -1.55685 -1.08913 0
M  V30 1596 H 152.464 -1.53204 -3.57017 0
M  V30 1597 H 154.136 -3.89747 -2.46769 0
M  V30 1598 H 152.379 -3.70179 -2.26164 0
M  V30 1599 H 153.05 -3.92642 -3.8799 0
M  V30 1600 H 155.526 -2.01442 -3.64088 0
M  V30 1601 H 154.402 -2.26002 -5.00214 0
M  V30 1602 H 154.663 -0.640365 -4.37438 0
M  V30 1603 N 153.722 1.14298 -1.08507 0
M  V30 1604 C 154.969 1.85359 -0.815373 0
M  V30 1605 C 155.297 1.83001 0.658865 0
M  V30 1606 O 154.552 1.25655 1.50031 0
M  V30 1607 C 154.851 3.33547 -1.28379 0
M  V30 1608 C 154.517 3.56093 -2.76602 0
M  V30 1609 C 153.179 3.61955 -3.17084 0
M  V30 1610 C 155.531 3.64834 -3.72217 0
M  V30 1611 C 152.859 3.74082 -4.51973 0
M  V30 1612 C 155.211 3.78487 -5.06883 0
M  V30 1613 C 153.875 3.82598 -5.46969 0
M  V30 1614 H 153.145 0.678276 -0.298366 0
M  V30 1615 H 155.792 1.35002 -1.35819 0
M  V30 1616 H 154.097 3.86191 -0.660593 0
M  V30 1617 H 155.794 3.86959 -1.05186 0
M  V30 1618 H 152.384 3.52179 -2.4427 0
M  V30 1619 H 156.568 3.59595 -3.42061 0
M  V30 1620 H 151.824 3.75527 -4.82483 0
M  V30 1621 H 155.998 3.84193 -5.80834 0
M  V30 1622 H 153.625 3.91747 -6.51489 0
M  V30 1623 N 155.201 0.870884 1.31352 0
M  V30 1624 C 156.164 0.332243 2.26779 0
M  V30 1625 C 157.164 -0.517302 1.52252 0
M  V30 1626 O 158.354 -0.326477 1.71113 0
M  V30 1627 C 155.486 -0.528066 3.36785 0
M  V30 1628 H 156.679 1.17469 2.75937 0
M  V30 1629 H 154.232 0.64655 1.423 0
M  V30 1630 H 154.967 -1.39167 2.92922 0
M  V30 1631 H 154.752 0.0802582 3.92018 0
M  V30 1632 H 156.242 -0.897179 4.07849 0
M  V30 1633 N 156.679 -1.44442 0.630414 0
M  V30 1634 C 157.909 -2.06115 0.141465 0
M  V30 1635 C 158.317 -1.47179 -1.1889 0
M  V30 1636 O 157.66 -0.588873 -1.74006 0
M  V30 1637 C 157.722 -3.59467 -0.0484355 0
M  V30 1638 C 157.386 -4.40864 1.20366 0
M  V30 1639 C 158.383 -4.74391 2.12719 0
M  V30 1640 C 156.068 -4.8125 1.43887 0
M  V30 1641 C 158.062 -5.47186 3.26904 0
M  V30 1642 C 155.749 -5.53795 2.5837 0
M  V30 1643 C 156.747 -5.86682 3.49705 0
M  V30 1644 O 156.435 -6.57749 4.62191 0
M  V30 1645 H 156.167 -0.671648 0.0765792 0
M  V30 1646 H 158.721 -1.86312 0.864695 0
M  V30 1647 H 156.951 -3.77758 -0.826803 0
M  V30 1648 H 158.64 -4.02909 -0.491849 0
M  V30 1649 H 159.406 -4.43728 1.95781 0
M  V30 1650 H 155.285 -4.55073 0.736853 0
M  V30 1651 H 158.829 -5.72773 3.98217 0
M  V30 1652 H 154.726 -5.83872 2.75251 0
M  V30 1653 H 155.494 -6.76217 4.61164 0
M  V30 1654 N 158.157 -0.370918 -1.53173 0
M  V30 1655 C 159.403 0.209976 -2.02313 0
M  V30 1656 C 159.758 1.45987 -1.25322 0
M  V30 1657 O 159.051 1.8856 -0.339965 0
M  V30 1658 C 159.245 0.549696 -3.53147 0
M  V30 1659 C 159.074 -0.665721 -4.44745 0
M  V30 1660 C 157.844 -1.17942 -4.91343 0
M  V30 1661 C 160.042 -1.53255 -4.90935 0
M  V30 1662 N 158.024 -2.35431 -5.66962 0
M  V30 1663 C 159.395 -2.55403 -5.64951 0
M  V30 1664 C 161.45 -1.5548 -4.73002 0
M  V30 1665 C 160.153 -3.5964 -6.22938 0
M  V30 1666 C 162.179 -2.58613 -5.31858 0
M  V30 1667 C 161.541 -3.59485 -6.05764 0
M  V30 1668 H 157.64 0.0394095 -0.781006 0
M  V30 1669 H 160.224 -0.516666 -1.8772 0
M  V30 1670 H 158.395 1.24541 -3.67891 0
M  V30 1671 H 160.127 1.11614 -3.89004 0
M  V30 1672 H 156.882 -0.743228 -4.67732 0
M  V30 1673 H 157.306 -2.94827 -6.09431 0
M  V30 1674 H 161.948 -0.788457 -4.15383 0
M  V30 1675 H 159.666 -4.37153 -6.79649 0
M  V30 1676 H 163.252 -2.61195 -5.19873 0
M  V30 1677 H 162.132 -4.3798 -6.50495 0
M  V30 1678 N 159.635 1.57281 -0.100228 0
M  V30 1679 C 160.883 1.94153 0.561157 0
M  V30 1680 C 161.204 0.983157 1.68401 0
M  V30 1681 O 160.474 0.0361132 1.95867 0
M  V30 1682 H 159.054 0.716791 0.210283 0
M  V30 1683 H 161.716 1.94202 -0.164765 0
M  V30 1684 H 160.812 2.96709 0.968008 0
M  V30 1685 N 161.113 -0.173488 1.56642 0
M  V30 1686 C 162.045 -1.23935 1.92802 0
M  V30 1687 C 163.058 -1.40589 0.820889 0
M  V30 1688 O 164.247 -1.40631 1.09933 0
M  V30 1689 C 161.347 -2.60837 2.16373 0
M  V30 1690 C 160.52 -2.6551 3.47596 0
M  V30 1691 C 159.579 -3.8376 3.60021 0
M  V30 1692 O 158.605 -3.69859 4.32658 0
M  V30 1693 N 159.807 -5.00127 2.94709 0
M  V30 1694 H 162.572 -0.932236 2.84832 0
M  V30 1695 H 160.133 -0.363268 1.57772 0
M  V30 1696 H 162.125 -3.38407 2.21952 0
M  V30 1697 H 160.695 -2.83948 1.30738 0
M  V30 1698 H 159.915 -1.74052 3.53694 0
M  V30 1699 H 161.203 -2.65641 4.33949 0
M  V30 1700 H 160.601 -5.14322 2.35563 0
M  V30 1701 H 159.158 -5.75567 3.05886 0
M  V30 1702 N 162.591 -1.51276 -0.441967 0
M  V30 1703 C 163.839 -1.63392 -1.18943 0
M  V30 1704 C 164.16 -0.350159 -1.9183 0
M  V30 1705 O 163.43 0.633784 -1.85364 0
M  V30 1706 H 162.01 -0.602164 -0.442049 0
M  V30 1707 H 164.672 -1.88186 -0.507165 0
M  V30 1708 H 163.768 -2.45934 -1.92154 0
M  V30 1709 N 164.069 0.697108 -1.41344 0
M  V30 1710 C 165.297 1.48593 -1.43972 0
M  V30 1711 C 165.712 1.88747 -0.0445612 0
M  V30 1712 O 165.069 1.56682 0.935785 0
M  V30 1713 C 165.12 2.74946 -2.34706 0
M  V30 1714 O 164.841 2.36484 -3.68791 0
M  V30 1715 C 166.342 3.687 -2.46121 0
M  V30 1716 H 163.562 0.457964 -0.490418 0
M  V30 1717 H 166.106 0.858429 -1.8561 0
M  V30 1718 H 164.261 3.33937 -1.9638 0
M  V30 1719 H 164.675 3.17918 -4.17167 0
M  V30 1720 H 166.149 4.54145 -3.13777 0
M  V30 1721 H 166.626 4.13081 -1.49199 0
M  V30 1722 H 167.232 3.15613 -2.85076 0
M  V30 1723 N 165.547 1.27147 0.931209 0
M  V30 1724 C 166.477 1.12081 2.04842 0
M  V30 1725 C 167.458 0.0232364 1.70084 0
M  V30 1726 O 168.643 0.197085 1.93197 0
M  V30 1727 C 165.773 0.76354 3.38803 0
M  V30 1728 C 164.727 1.81396 3.87659 0
M  V30 1729 C 164.053 1.31075 5.18385 0
M  V30 1730 C 165.353 3.21739 4.11438 0
M  V30 1731 H 167.047 2.05537 2.17703 0
M  V30 1732 H 164.593 0.989603 1.04608 0
M  V30 1733 H 166.546 0.644982 4.16435 0
M  V30 1734 H 165.27 -0.206727 3.25945 0
M  V30 1735 H 163.929 1.92136 3.12217 0
M  V30 1736 H 163.577 0.330037 5.01916 0
M  V30 1737 H 163.277 2.013 5.52044 0
M  V30 1738 H 164.801 1.20506 5.98591 0
M  V30 1739 H 166.215 3.14019 4.79651 0
M  V30 1740 H 164.612 3.89644 4.56397 0
M  V30 1741 H 165.682 3.67054 3.16859 0
M  V30 1742 N 167.025 -1.13721 1.09112 0
M  V30 1743 C 168.271 -1.85198 0.826414 0
M  V30 1744 C 168.604 -1.83129 -0.646319 0
M  V30 1745 O 167.879 -1.2671 -1.47563 0
M  V30 1746 C 168.162 -3.33507 1.35812 0
M  V30 1747 C 168.015 -3.44108 2.89672 0
M  V30 1748 C 169.334 -4.28838 0.989256 0
M  V30 1749 H 166.453 -0.67243 0.301675 0
M  V30 1750 H 169.095 -1.33499 1.35197 0
M  V30 1751 H 167.245 -3.77666 0.911082 0
M  V30 1752 H 168.917 -3.08684 3.428 0
M  V30 1753 H 167.16 -2.85087 3.26967 0
M  V30 1754 H 167.831 -4.48388 3.21951 0
M  V30 1755 H 170.307 -3.92734 1.37475 0
M  V30 1756 H 169.183 -5.31051 1.38838 0
M  V30 1757 H 169.444 -4.4198 -0.102924 0
M  V30 1758 N 168.503 -0.877838 -1.30888 0
M  V30 1759 C 169.731 -0.507414 -2.00581 0
M  V30 1760 C 170.146 0.902216 -1.65848 0
M  V30 1761 O 169.503 1.59225 -0.891831 0
M  V30 1762 C 169.554 -0.664162 -3.55347 0
M  V30 1763 O 169.275 -2.01829 -3.8884 0
M  V30 1764 C 170.776 -0.295787 -4.42312 0
M  V30 1765 H 167.996 -0.196866 -0.641471 0
M  V30 1766 H 170.54 -1.18117 -1.66939 0
M  V30 1767 H 168.695 -0.0378619 -3.87381 0
M  V30 1768 H 169.109 -2.03174 -4.8355 0
M  V30 1769 H 170.583 -0.456388 -5.5011 0
M  V30 1770 H 171.06 0.765663 -4.32475 0
M  V30 1771 H 171.666 -0.898113 -4.15709 0
M  V30 1772 N 169.982 1.44106 -0.638065 0
M  V30 1773 C 171.228 2.02277 -0.145546 0
M  V30 1774 C 171.561 1.50125 1.23191 0
M  V30 1775 O 170.836 0.688133 1.8192 0
M  V30 1776 C 171.119 3.59829 -0.139791 0
M  V30 1777 C 170.972 4.22247 -1.55008 0
M  V30 1778 C 172.291 4.36873 0.531966 0
M  V30 1779 H 169.41 0.734992 -0.0543632 0
M  V30 1780 H 172.052 1.71592 -0.815863 0
M  V30 1781 H 170.202 3.86102 0.431007 0
M  V30 1782 H 171.874 4.07057 -2.1703 0
M  V30 1783 H 170.117 3.79476 -2.10191 0
M  V30 1784 H 170.788 5.31284 -1.49804 0
M  V30 1785 H 173.264 4.16074 0.0464781 0
M  V30 1786 H 172.14 5.4657 0.505206 0
M  V30 1787 H 172.401 4.11995 1.60352 0
M  V30 1788 N 171.46 0.379036 1.52974 0
M  V30 1789 C 172.685 -0.209353 2.06341 0
M  V30 1790 C 173.11 -1.40583 1.24972 0
M  V30 1791 O 172.468 -1.79246 0.272155 0
M  V30 1792 C 172.516 -0.567786 3.56102 0
M  V30 1793 O 171.62 -1.66318 3.77375 0
M  V30 1794 H 170.961 -0.0272919 0.663439 0
M  V30 1795 H 173.491 0.543536 1.97248 0
M  V30 1796 H 173.501 -0.835003 3.99364 0
M  V30 1797 H 172.176 0.307013 4.14765 0
M  V30 1798 H 170.753 -1.39048 3.46006 0
M  V30 1799 N 172.938 -1.57226 0.108567 0
M  V30 1800 C 173.901 -2.13602 -0.831082 0
M  V30 1801 C 174.901 -1.06841 -1.20173 0
M  V30 1802 O 176.091 -1.32666 -1.12895 0
M  V30 1803 C 173.223 -2.66769 -2.12243 0
M  V30 1804 H 174.416 -2.97951 -0.341317 0
M  V30 1805 H 171.969 -1.55667 -0.14057 0
M  V30 1806 H 172.704 -1.85977 -2.65675 0
M  V30 1807 H 172.489 -3.44839 -1.86625 0
M  V30 1808 H 173.979 -3.10332 -2.79435 0
M  V30 1809 N 174.416 0.165178 -1.56732 0
M  V30 1810 C 175.379 1.18822 -1.95995 0
M  V30 1811 C 176.379 1.3685 -0.84431 0
M  V30 1812 O 177.569 1.34152 -1.11126 0
M  V30 1813 C 174.701 2.5521 -2.26011 0
M  V30 1814 H 175.894 0.851825 -2.87548 0
M  V30 1815 H 173.447 0.407857 -1.50885 0
M  V30 1816 H 174.182 2.93852 -1.37191 0
M  V30 1817 H 173.967 2.43489 -3.07336 0
M  V30 1818 H 175.457 3.28927 -2.57288 0
M  V30 1819 N 175.894 1.51508 0.433938 0
M  V30 1820 C 177.119 1.68443 1.21003 0
M  V30 1821 C 177.544 0.382636 1.84167 0
M  V30 1822 O 176.902 -0.65755 1.68956 0
M  V30 1823 C 176.95 2.80405 2.26727 0
M  V30 1824 O 176.054 2.44245 3.32292 0
M  V30 1825 H 175.395 0.561536 0.354363 0
M  V30 1826 H 177.925 1.9809 0.512024 0
M  V30 1827 H 177.935 3.0459 2.71457 0
M  V30 1828 H 176.61 3.74867 1.80132 0
M  V30 1829 H 175.187 2.30644 2.93015 0
M  V30 1830 N 177.372 -0.689602 1.41712 0
M  V30 1831 C 178.6 -1.47827 1.44758 0
M  V30 1832 C 179.015 -1.88721 0.0545703 0
M  V30 1833 O 178.372 -1.57176 -0.927463 0
M  V30 1834 C 178.423 -2.73698 2.3616 0
M  V30 1835 O 178.144 -2.34524 3.7004 0
M  V30 1836 C 179.645 -3.67389 2.48072 0
M  V30 1837 H 176.865 -0.455357 0.49284 0
M  V30 1838 H 179.409 -0.848574 1.86063 0
M  V30 1839 H 177.564 -3.32891 1.98148 0
M  V30 1840 H 177.978 -3.15701 4.18847 0
M  V30 1841 H 179.452 -4.52475 3.16181 0
M  V30 1842 H 179.929 -4.12284 1.51388 0
M  V30 1843 H 180.535 -3.14097 2.86746 0
M  V30 1844 N 178.85 -1.27639 -0.924453 0
M  V30 1845 C 179.797 -1.10644 -2.0255 0
M  V30 1846 C 180.767 -0.00658438 -1.66099 0
M  V30 1847 O 181.952 -0.16952 -1.90045 0
M  V30 1848 C 179.092 -0.76309 -3.36557 0
M  V30 1849 C 178.205 -1.94091 -3.85944 0
M  V30 1850 C 177.34 -1.53914 -5.08413 0
M  V30 1851 C 176.379 -2.68425 -5.50104 0
M  V30 1852 N 175.516 -2.28815 -6.63768 0
M  V30 1853 H 180.356 -2.04858 -2.16419 0
M  V30 1854 H 177.893 -1.01974 -1.06017 0
M  V30 1855 H 179.851 -0.544822 -4.13627 0
M  V30 1856 H 178.481 0.142102 -3.22487 0
M  V30 1857 H 177.533 -2.27162 -3.05125 0
M  V30 1858 H 178.845 -2.7998 -4.12811 0
M  V30 1859 H 177.999 -1.28231 -5.92994 0
M  V30 1860 H 176.738 -0.651391 -4.8333 0
M  V30 1861 H 175.743 -2.94819 -4.64071 0
M  V30 1862 H 176.968 -3.57826 -5.7718 0
M  V30 1863 H 174.914 -1.42495 -6.40337 0
M  V30 1864 H 174.831 -3.08242 -6.90306 0
M  V30 1865 H 176.099 -2.06387 -7.51681 0
M  V30 1866 N 180.328 1.1314 -1.09713 0
M  V30 1867 C 181.576 1.84119 -0.833338 0
M  V30 1868 C 181.897 1.84097 0.642904 0
M  V30 1869 O 181.167 1.29881 1.46655 0
M  V30 1870 H 179.747 0.681766 -0.305293 0
M  V30 1871 H 182.409 1.37038 -1.38588 0
M  V30 1872 H 181.505 2.88543 -1.18951 0
M  V30 1873 N 181.806 0.884767 1.30421 0
M  V30 1874 C 183.217 0.553656 1.78302 0
M  V30 1875 C 183.568 -0.930153 1.7275 0
M  V30 1876 O 182.693 -1.72681 1.30423 0
M  V30 1877 C 183.288 0.998234 3.2376 0
M  V30 1878 C 181.847 0.71854 3.69478 0
M  V30 1879 C 180.994 1.18132 2.50879 0
M  V30 1880 H 183.945 1.06901 1.17294 0
M  V30 1881 H 183.966 0.327118 3.79091 0
M  V30 1882 H 183.478 2.0782 3.27769 0
M  V30 1883 H 181.579 -0.349444 3.70958 0
M  V30 1884 H 181.692 1.30595 4.60958 0
M  V30 1885 H 180.056 0.600669 2.47516 0
M  V30 1886 H 180.839 2.26902 2.57624 0
M  V30 1887 N 183.284 -1.43765 0.645699 0
M  V30 1888 C 184.509 -2.06767 0.161883 0
M  V30 1889 C 184.934 -1.48034 -1.16049 0
M  V30 1890 O 184.292 -0.587369 -1.71522 0
M  V30 1891 C 184.34 -3.60519 0.0762003 0
M  V30 1892 O 183.444 -4.00982 -0.963721 0
M  V30 1893 H 182.785 -0.657675 0.091429 0
M  V30 1894 H 185.315 -1.84397 0.886499 0
M  V30 1895 H 185.325 -4.07853 -0.109604 0
M  V30 1896 H 184 -4.02646 1.04157 0
M  V30 1897 H 182.577 -3.65253 -0.751312 0
M  V30 1898 N 184.763 -0.387143 -1.52771 0
M  V30 1899 C 186.009 0.196025 -2.0185 0
M  V30 1900 C 186.342 1.46641 -1.27319 0
M  V30 1901 O 185.617 1.90889 -0.373032 0
M  V30 1902 C 185.9 0.466136 -3.5707 0
M  V30 1903 C 185.753 -0.819385 -4.42274 0
M  V30 1904 C 187.072 1.25768 -4.21747 0
M  V30 1905 H 184.191 0.0697708 -0.73369 0
M  V30 1906 H 186.833 -0.516286 -1.82851 0
M  V30 1907 H 184.983 1.07293 -3.7339 0
M  V30 1908 H 186.655 -1.4563 -4.37709 0
M  V30 1909 H 184.898 -1.43517 -4.09372 0
M  V30 1910 H 185.569 -0.585065 -5.48891 0
M  V30 1911 H 188.045 0.744167 -4.09391 0
M  V30 1912 H 186.921 1.41541 -5.30337 0
M  V30 1913 H 187.182 2.27228 -3.79236 0
M  V30 1914 N 186.241 1.57166 -0.116904 0
M  V30 1915 C 187.488 1.95123 0.541603 0
M  V30 1916 C 187.816 1.00006 1.6682 0
M  V30 1917 O 187.071 0.0235658 1.95686 0
M  V30 1918 C 187.37 3.39508 1.11664 0
M  V30 1919 C 187.036 4.50762 0.111606 0
M  V30 1920 C 185.698 4.80918 -0.164758 0
M  V30 1921 C 188.05 5.18036 -0.573438 0
M  V30 1922 C 185.378 5.75666 -1.13249 0
M  V30 1923 C 187.73 6.13824 -1.52978 0
M  V30 1924 C 186.394 6.42374 -1.81415 0
M  V30 1925 H 185.664 0.714005 0.198187 0
M  V30 1926 H 188.311 1.9048 -0.197365 0
M  V30 1927 H 186.616 3.40835 1.93232 0
M  V30 1928 H 188.313 3.66189 1.63422 0
M  V30 1929 H 184.903 4.27272 0.337192 0
M  V30 1930 H 189.087 4.94896 -0.373092 0
M  V30 1931 H 184.343 5.96092 -1.35958 0
M  V30 1932 H 188.517 6.65039 -2.06629 0
M  V30 1933 H 186.144 7.15599 -2.56557 0
M  V30 1934 N 187.719 -0.156864 1.56817 0
M  V30 1935 C 189.13 -0.717916 1.72345 0
M  V30 1936 C 189.481 -1.82124 0.729747 0
M  V30 1937 O 188.606 -2.16141 -0.105781 0
M  V30 1938 C 189.201 -1.30904 3.12489 0
M  V30 1939 C 187.76 -1.81676 3.29653 0
M  V30 1940 C 186.907 -0.701349 2.68284 0
M  V30 1941 H 189.858 0.0686989 1.58551 0
M  V30 1942 H 189.879 -2.17882 3.11942 0
M  V30 1943 H 189.391 -0.505796 3.8479 0
M  V30 1944 H 187.492 -2.64598 2.62333 0
M  V30 1945 H 187.605 -1.95226 4.3752 0
M  V30 1946 H 185.969 -1.12548 2.28484 0
M  V30 1947 H 186.752 0.0902846 3.43181 0
M  V30 1948 N 189.197 -1.51736 -0.425897 0
M  V30 1949 C 190.127 -1.76827 -1.52494 0
M  V30 1950 C 191.108 -0.618524 -1.58456 0
M  V30 1951 O 192.293 -0.862416 -1.74 0
M  V30 1952 C 189.423 -1.90374 -2.90474 0
M  V30 1953 C 188.377 -3.0588 -2.99369 0
M  V30 1954 C 187.703 -3.04625 -4.3944 0
M  V30 1955 C 189.003 -4.45644 -2.72394 0
M  V30 1956 H 190.697 -2.68855 -1.31748 0
M  V30 1957 H 188.243 -1.29372 -0.632362 0
M  V30 1958 H 190.196 -2.0651 -3.6733 0
M  V30 1959 H 188.92 -0.95004 -3.12477 0
M  V30 1960 H 187.579 -2.89467 -2.24954 0
M  V30 1961 H 187.227 -2.0701 -4.58428 0
M  V30 1962 H 186.927 -3.82195 -4.46319 0
M  V30 1963 H 188.451 -3.22869 -5.18255 0
M  V30 1964 H 189.865 -4.62348 -3.38979 0
M  V30 1965 H 188.262 -5.25006 -2.9067 0
M  V30 1966 H 189.332 -4.54893 -1.67929 0
M  V30 1967 N 190.675 0.682077 -1.42076 0
M  V30 1968 C 191.638 1.77756 -1.44691 0
M  V30 1969 C 192.638 1.5726 -0.335535 0
M  V30 1970 O 193.828 1.63686 -0.596037 0
M  V30 1971 C 190.96 3.16301 -1.27146 0
M  V30 1972 H 192.153 1.76826 -2.42224 0
M  V30 1973 H 189.706 0.891012 -1.28416 0
M  V30 1974 H 190.441 3.22862 -0.305075 0
M  V30 1975 H 190.226 3.32581 -2.07683 0
M  V30 1976 H 191.716 3.96241 -1.31843 0
M  V30 1977 N 192.153 1.28127 0.917671 0
M  V30 1978 C 193.564 1.13622 1.48145 0
M  V30 1979 C 193.915 -0.275207 1.9426 0
M  V30 1980 O 193.04 -1.1691 1.82102 0
M  V30 1981 C 193.635 2.05648 2.69248 0
M  V30 1982 C 192.194 1.95219 3.21818 0
M  V30 1983 C 191.341 1.97618 1.94532 0
M  V30 1984 H 194.292 1.40874 0.730772 0
M  V30 1985 H 194.313 1.61818 3.44377 0
M  V30 1986 H 193.825 3.08365 2.35653 0
M  V30 1987 H 191.926 0.955244 3.60147 0
M  V30 1988 H 192.039 2.81976 3.87333 0
M  V30 1989 H 190.403 1.41973 2.11461 0
M  V30 1990 H 191.186 3.02007 1.63238 0
M  V30 1991 N 193.631 -1.12557 1.10312 0
M  V30 1992 C 194.856 -1.88405 0.867085 0
M  V30 1993 C 195.281 -1.79038 -0.576817 0
M  V30 1994 O 194.639 -1.14439 -1.40618 0
M  V30 1995 C 194.687 -3.3563 1.31851 0
M  V30 1996 O 193.791 -4.09565 0.482734 0
M  V30 1997 H 193.132 -0.585455 0.313271 0
M  V30 1998 H 195.662 -1.42352 1.4696 0
M  V30 1999 H 195.672 -3.86469 1.3079 0
M  V30 2000 H 194.347 -3.41765 2.37001 0
M  V30 2001 H 192.924 -3.68695 0.558448 0
M  V30 2002 N 195.109 -0.891671 -1.2995 0
M  V30 2003 C 196.334 -0.527932 -2.00568 0
M  V30 2004 C 196.759 0.877969 -1.66353 0
M  V30 2005 O 196.117 1.58301 -0.883762 0
M  V30 2006 C 196.165 -0.717745 -3.53385 0
M  V30 2007 O 195.269 0.233376 -4.11739 0
M  V30 2008 H 194.61 -0.20722 -0.630837 0
M  V30 2009 H 197.14 -1.20105 -1.65638 0
M  V30 2010 H 197.15 -0.619307 -4.03272 0
M  V30 2011 H 195.825 -1.74276 -3.77625 0
M  V30 2012 H 194.402 0.0880706 -3.72796 0
M  V30 2013 N 196.587 1.43421 -0.653314 0
M  V30 2014 C 197.534 2.30768 0.0382271 0
M  V30 2015 C 198.504 1.44755 0.814576 0
M  V30 2016 O 199.689 1.73624 0.791162 0
M  V30 2017 C 196.829 3.30336 0.998599 0
M  V30 2018 C 195.942 4.31448 0.218342 0
M  V30 2019 C 195.077 5.18098 1.17252 0
M  V30 2020 C 194.116 6.10902 0.382702 0
M  V30 2021 N 193.253 6.90176 1.28848 0
M  V30 2022 H 198.093 2.89357 -0.712511 0
M  V30 2023 H 195.63 1.42548 -0.363128 0
M  V30 2024 H 197.588 3.86572 1.56901 0
M  V30 2025 H 196.218 2.73397 1.71621 0
M  V30 2026 H 195.27 3.77506 -0.46836 0
M  V30 2027 H 196.582 4.97227 -0.395812 0
M  V30 2028 H 195.736 5.7896 1.81356 0
M  V30 2029 H 194.475 4.52444 1.82058 0
M  V30 2030 H 193.48 5.49128 -0.27169 0
M  V30 2031 H 194.705 6.78598 -0.260957 0
M  V30 2032 H 192.651 6.27171 1.92334 0
M  V30 2033 H 192.568 7.52478 0.728887 0
M  V30 2034 H 193.836 7.55543 1.91766 0
M  V30 2035 N 198.065 0.39524 1.52563 0
M  V30 2036 C 199.29 -0.187456 2.06551 0
M  V30 2037 C 199.715 -1.39249 1.26457 0
M  V30 2038 O 199.073 -1.78947 0.291151 0
M  V30 2039 C 199.121 -0.529985 3.56684 0
M  V30 2040 O 198.225 -1.62307 3.79118 0
M  V30 2041 H 197.566 -0.0202537 0.663691 0
M  V30 2042 H 200.096 0.564426 1.96661 0
M  V30 2043 H 200.106 -0.792598 4.00227 0
M  V30 2044 H 198.781 0.350987 4.14416 0
M  V30 2045 H 197.358 -1.3537 3.47461 0
M  V30 2046 N 199.544 -1.57102 0.125237 0
M  V30 2047 C 200.772 -1.99761 -0.538797 0
M  V30 2048 C 201.187 -1.00503 -1.59827 0
M  V30 2049 O 200.544 0.00119474 -1.825 0
M  V30 2050 C 200.595 -3.42408 -1.15927 0
M  V30 2051 O 200.316 -4.37869 -0.142143 0
M  V30 2052 C 201.817 -4.00232 -1.90602 0
M  V30 2053 H 199.037 -0.655772 -0.14214 0
M  V30 2054 H 201.581 -2.03383 0.213413 0
M  V30 2055 H 199.736 -3.39706 -1.86223 0
M  V30 2056 H 200.15 -5.21128 -0.593775 0
M  V30 2057 H 201.624 -5.02105 -2.29335 0
M  V30 2058 H 202.101 -3.39721 -2.78363 0
M  V30 2059 H 202.707 -4.06499 -1.25055 0
M  V30 2060 N 201.022 0.148545 -1.56898 0
M  V30 2061 C 202.247 0.880385 -1.87787 0
M  V30 2062 C 202.672 1.74018 -0.714093 0
M  V30 2063 O 202.03 1.78153 0.336343 0
M  V30 2064 C 202.078 1.71422 -3.17249 0
M  V30 2065 O 201.182 2.8183 -3.01074 0
M  V30 2066 H 200.523 0.245301 -0.617028 0
M  V30 2067 H 203.053 0.139826 -2.04122 0
M  V30 2068 H 203.063 2.10954 -3.49231 0
M  V30 2069 H 201.738 1.08284 -4.01556 0
M  V30 2070 H 200.315 2.45715 -2.80497 0
M  V30 2071 N 202.5 1.5196 0.417844 0
M  V30 2072 C 203.748 1.65263 1.16329 0
M  V30 2073 C 204.069 0.380634 1.91249 0
M  V30 2074 O 203.339 -0.604214 1.86349 0
M  V30 2075 H 201.919 0.60912 0.432414 0
M  V30 2076 H 204.581 1.88969 0.477162 0
M  V30 2077 H 203.677 2.4896 1.88217 0
M  V30 2078 N 203.978 -0.674533 1.42435 0
M  V30 2079 C 205.226 -1.43175 1.42637 0
M  V30 2080 C 205.547 -1.94951 0.0438992 0
M  V30 2081 O 204.817 -1.7308 -0.917607 0
M  V30 2082 H 203.397 -0.531307 0.525092 0
M  V30 2083 H 206.059 -0.797006 1.77859 0
M  V30 2084 H 205.155 -2.28463 2.12629 0
M  V30 2085 N 205.456 -1.28612 -0.910864 0
M  V30 2086 C 206.684 -1.18792 -1.69399 0
M  V30 2087 C 207.099 0.253039 -1.87097 0
M  V30 2088 O 206.456 1.17071 -1.40003 0
M  V30 2089 C 206.507 -1.88511 -3.08457 0
M  V30 2090 O 206.228 -3.26979 -2.91576 0
M  V30 2091 C 207.729 -1.85029 -4.02839 0
M  V30 2092 H 204.949 -0.412233 -0.529438 0
M  V30 2093 H 207.493 -1.69788 -1.13984 0
M  V30 2094 H 205.648 -1.41379 -3.60681 0
M  V30 2095 H 206.062 -3.61936 -3.79608 0
M  V30 2096 H 207.536 -2.38395 -4.97867 0
M  V30 2097 H 208.013 -0.823303 -4.31414 0
M  V30 2098 H 208.619 -2.31853 -3.56545 0
M  V30 2099 N 206.934 1.1197 -1.10907 0
M  V30 2100 C 207.897 2.16031 -0.765707 0
M  V30 2101 C 208.897 1.59393 0.212235 0
M  V30 2102 O 210.087 1.74196 -0.0115441 0
M  V30 2103 C 207.219 3.40632 -0.135053 0
M  V30 2104 H 208.412 2.47919 -1.68748 0
M  V30 2105 H 205.965 1.27061 -0.910226 0
M  V30 2106 H 206.7 3.14348 0.797218 0
M  V30 2107 H 206.485 3.8302 -0.838937 0
M  V30 2108 H 207.975 4.17505 0.0892469 0
M  V30 2109 N 208.412 0.89855 1.29475 0
M  V30 2110 C 209.375 0.380272 2.26023 0
M  V30 2111 C 210.375 -0.484891 1.53315 0
M  V30 2112 O 211.565 -0.290108 1.71767 0
M  V30 2113 C 208.697 -0.45651 3.3783 0
M  V30 2114 H 209.89 1.23295 2.73383 0
M  V30 2115 H 207.443 0.676589 1.40897 0
M  V30 2116 H 208.178 -1.32922 2.95808 0
M  V30 2117 H 207.963 0.163393 3.91759 0
M  V30 2118 H 209.453 -0.810466 4.0966 0
M  V30 2119 N 209.89 -1.43072 0.660911 0
M  V30 2120 C 210.82 -2.33497 -0.0122829 0
M  V30 2121 C 211.801 -1.49903 -0.803925 0
M  V30 2122 O 212.986 -1.78546 -0.763864 0
M  V30 2123 C 210.116 -3.33363 -0.973994 0
M  V30 2124 C 209.07 -4.27003 -0.291928 0
M  V30 2125 C 208.396 -5.16967 -1.36562 0
M  V30 2126 C 209.696 -5.15816 0.820462 0
M  V30 2127 H 211.39 -2.90038 0.742873 0
M  V30 2128 H 208.936 -1.39461 0.358688 0
M  V30 2129 H 210.889 -3.95524 -1.45392 0
M  V30 2130 H 209.613 -2.75095 -1.7604 0
M  V30 2131 H 208.272 -3.66217 0.167623 0
M  V30 2132 H 207.92 -4.55034 -2.14366 0
M  V30 2133 H 207.62 -5.80441 -0.914454 0
M  V30 2134 H 209.144 -5.82003 -1.84675 0
M  V30 2135 H 210.558 -5.71742 0.422366 0
M  V30 2136 H 208.955 -5.8805 1.19656 0
M  V30 2137 H 210.025 -4.55045 1.67518 0
M  V30 2138 N 211.368 -0.403325 -1.52352 0
M  V30 2139 C 212.616 0.174003 -2.0135 0
M  V30 2140 C 212.937 1.46139 -1.29106 0
M  V30 2141 O 212.207 1.91448 -0.415253 0
M  V30 2142 H 210.787 0.0672911 -0.743963 0
M  V30 2143 H 213.449 -0.538235 -1.87321 0
M  V30 2144 H 212.545 0.374254 -3.09848 0
M  V30 2145 N 212.846 1.57033 -0.133567 0
M  V30 2146 C 214.086 1.97575 0.523789 0
M  V30 2147 C 214.45 1.01605 1.62912 0
M  V30 2148 O 215.651 1.3114 2.3464 0
M  V30 2149 C 213.922 3.42256 1.02935 0
M  V30 2150 S 215.481 4.04817 1.69319 0
M  V30 2151 H 212.299 0.690427 0.169799 0
M  V30 2152 H 214.901 1.94234 -0.222101 0
M  V30 2153 H 213.605 4.09842 0.213917 0
M  V30 2154 H 213.136 3.4928 1.81017 0
M  V30 2155 H 215.151 3.96767 2.97977 0
M  V30 2156 N 214.325 -0.140222 1.56975 0
M  V30 2157 C 215.255 -1.17456 2.01808 0
M  V30 2158 C 216.236 -1.44415 0.898794 0
M  V30 2159 O 217.421 -1.5522 1.16707 0
M  V30 2160 C 214.551 -2.50607 2.40444 0
M  V30 2161 C 213.505 -2.38155 3.55621 0
M  V30 2162 C 212.831 -3.76078 3.80091 0
M  V30 2163 C 214.131 -1.85991 4.88062 0
M  V30 2164 H 215.825 -0.801743 2.88466 0
M  V30 2165 H 213.371 -0.38422 1.38779 0
M  V30 2166 H 215.324 -3.23197 2.7041 0
M  V30 2167 H 214.048 -2.89737 1.50732 0
M  V30 2168 H 212.707 -1.68016 3.25832 0
M  V30 2169 H 212.355 -4.12656 2.87618 0
M  V30 2170 H 212.055 -3.68606 4.57606 0
M  V30 2171 H 213.579 -4.50206 4.12488 0
M  V30 2172 H 214.993 -2.4838 5.16701 0
M  V30 2173 H 213.39 -1.89393 5.6943 0
M  V30 2174 H 214.46 -0.816023 4.77984 0
M  V30 2175 N 215.803 -1.52179 -0.40978 0
M  V30 2176 C 217.049 -1.66453 -1.15851 0
M  V30 2177 C 217.382 -0.392972 -1.90182 0
M  V30 2178 O 216.657 0.608579 -1.84734 0
M  V30 2179 C 216.94 -2.88612 -2.15349 0
M  V30 2180 C 216.793 -4.25815 -1.44918 0
M  V30 2181 C 218.112 -3.06294 -3.16026 0
M  V30 2182 H 215.231 -0.60575 -0.419805 0
M  V30 2183 H 217.873 -1.84732 -0.444314 0
M  V30 2184 H 216.023 -2.73158 -2.76255 0
M  V30 2185 H 217.695 -4.52995 -0.871365 0
M  V30 2186 H 215.938 -4.27247 -0.751159 0
M  V30 2187 H 216.609 -5.07337 -2.17516 0
M  V30 2188 H 219.085 -3.20641 -2.65195 0
M  V30 2189 H 217.961 -3.93283 -3.8291 0
M  V30 2190 H 218.222 -2.19579 -3.83715 0
M  V30 2191 N 217.281 0.66697 -1.42791 0
M  V30 2192 C 218.228 1.7803 -1.4688 0
M  V30 2193 C 219.198 1.6299 -0.319919 0
M  V30 2194 O 220.383 1.83432 -0.525118 0
M  V30 2195 C 217.523 3.1611 -1.38451 0
M  V30 2196 C 216.636 3.42381 -2.63437 0
M  V30 2197 C 215.771 4.70232 -2.47094 0
M  V30 2198 C 214.81 4.89564 -3.67415 0
M  V30 2199 N 213.947 6.08661 -3.49966 0
M  V30 2200 H 218.787 1.7387 -2.42019 0
M  V30 2201 H 216.324 0.84868 -1.20149 0
M  V30 2202 H 218.282 3.95914 -1.31561 0
M  V30 2203 H 216.912 3.19374 -0.469033 0
M  V30 2204 H 215.964 2.56774 -2.80662 0
M  V30 2205 H 217.276 3.52557 -3.52853 0
M  V30 2206 H 216.43 5.5814 -2.37834 0
M  V30 2207 H 215.169 4.62353 -1.5518 0
M  V30 2208 H 214.174 4.00096 -3.77099 0
M  V30 2209 H 215.399 4.99282 -4.6032 0
M  V30 2210 H 213.345 6.0194 -2.60776 0
M  V30 2211 H 213.262 6.19733 -4.32975 0
M  V30 2212 H 214.53 6.99226 -3.44532 0
M  V30 2213 N 218.759 1.29093 0.90403 0
M  V30 2214 C 220.036 1.075 1.63411 0
M  V30 2215 C 220.416 -0.382346 2.07609 0
M  V30 2216 O 219.764 -1.37031 1.82851 0
M  V30 2217 C 219.974 2.05858 2.81822 0
M  V30 2218 C 221.322 2.36539 3.52611 0
M  V30 2219 O 222.346 2.04019 2.91984 0
M  V30 2220 O 221.205 2.92085 4.61897 0
M  V30 2221 H 218.299 0.411547 0.717327 0
M  V30 2222 H 220.845 1.40449 0.952479 0
M  V30 2223 H 219.617 3.04037 2.46327 0
M  V30 2224 H 219.24 1.73613 3.57693 0
M  V30 2225 N 220.237 -1.11381 1.11499 0
M  V30 2226 C 221.467 -1.86663 0.885464 0
M  V30 2227 C 221.875 -1.80464 -0.568281 0
M  V30 2228 O 221.218 -1.18445 -1.40415 0
M  V30 2229 C 221.28 -3.36337 1.26956 0
M  V30 2230 C 220.944 -3.66304 2.73259 0
M  V30 2231 C 221.941 -3.63733 3.71476 0
M  V30 2232 C 219.626 -3.9529 3.09921 0
M  V30 2233 C 221.62 -3.89725 5.04374 0
M  V30 2234 C 219.307 -4.20941 4.43004 0
M  V30 2235 C 220.305 -4.18147 5.40039 0
M  V30 2236 O 219.993 -4.43153 6.70724 0
M  V30 2237 H 219.725 -0.597114 0.316908 0
M  V30 2238 H 222.279 -1.41782 1.48617 0
M  V30 2239 H 220.509 -3.81826 0.611999 0
M  V30 2240 H 222.198 -3.92986 1.01573 0
M  V30 2241 H 222.964 -3.41389 3.44498 0
M  V30 2242 H 218.843 -3.966 2.35009 0
M  V30 2243 H 222.387 -3.8746 5.80104 0
M  V30 2244 H 218.284 -4.42761 4.69716 0
M  V30 2245 H 219.052 -4.60717 6.76522 0
M  V30 2246 N 221.715 -0.905404 -1.28997 0
M  V30 2247 C 222.962 -0.534248 -1.95325 0
M  V30 2248 C 223.29 0.920535 -1.71337 0
M  V30 2249 O 222.545 1.66861 -1.02254 0
M  V30 2250 C 222.844 -0.779906 -3.48787 0
M  V30 2251 C 222.51 -2.21293 -3.92861 0
M  V30 2252 C 221.172 -2.60475 -4.04606 0
M  V30 2253 C 223.524 -3.14587 -4.15553 0
M  V30 2254 C 220.852 -3.9212 -4.36416 0
M  V30 2255 C 223.204 -4.45787 -4.48839 0
M  V30 2256 C 221.868 -4.84834 -4.58794 0
M  V30 2257 H 221.138 -0.195495 -0.714747 0
M  V30 2258 H 223.785 -1.14514 -1.53488 0
M  V30 2259 H 222.09 -0.0861365 -3.91705 0
M  V30 2260 H 223.787 -0.472029 -3.98212 0
M  V30 2261 H 220.377 -1.89887 -3.84241 0
M  V30 2262 H 224.561 -2.85528 -4.0594 0
M  V30 2263 H 219.817 -4.22086 -4.42327 0
M  V30 2264 H 223.991 -5.18098 -4.65346 0
M  V30 2265 H 221.618 -5.86877 -4.83197 0
M  V30 2266 N 223.193 1.4272 -0.668489 0
M  V30 2267 C 224.604 1.84793 -0.266151 0
M  V30 2268 C 224.955 1.55959 1.19043 0
M  V30 2269 O 224.08 1.01622 1.91055 0
M  V30 2270 C 224.675 3.35436 -0.476271 0
M  V30 2271 C 223.234 3.76182 -0.128113 0
M  V30 2272 C 222.381 2.66344 -0.771777 0
M  V30 2273 H 225.332 1.32656 -0.871098 0
M  V30 2274 H 225.353 3.79515 0.273561 0
M  V30 2275 H 224.865 3.5639 -1.53647 0
M  V30 2276 H 222.966 3.60836 0.928891 0
M  V30 2277 H 223.079 4.75766 -0.564231 0
M  V30 2278 H 221.443 2.53885 -0.203652 0
M  V30 2279 H 222.226 2.90123 -1.83531 0
M  V30 2280 N 224.671 0.411399 1.52136 0
M  V30 2281 C 225.581 -0.419774 2.30814 0
M  V30 2282 C 226.597 -1.0515 1.38634 0
M  V30 2283 O 227.773 -1.05252 1.71709 0
M  V30 2284 C 224.838 -1.52019 3.11594 0
M  V30 2285 C 223.899 -0.91129 4.19516 0
M  V30 2286 C 223.132 -1.95927 4.96436 0
M  V30 2287 O 223.355 -3.17775 4.73683 0
M  V30 2288 O 222.289 -1.56423 5.81219 0
M  V30 2289 H 226.115 0.221805 3.02889 0
M  V30 2290 H 223.7 0.174547 1.48377 0
M  V30 2291 H 225.582 -2.15898 3.61892 0
M  V30 2292 H 224.257 -2.14633 2.42311 0
M  V30 2293 H 223.164 -0.235157 3.7336 0
M  V30 2294 H 224.497 -0.32904 4.91099 0
M  V30 2295 N 226.149 -1.5696 0.141893 0
M  V30 2296 C 227.56 -1.82797 -0.379776 0
M  V30 2297 C 227.911 -1.06033 -1.6508 0
M  V30 2298 O 227.036 -0.304011 -2.14254 0
M  V30 2299 C 227.631 -3.31578 -0.695802 0
M  V30 2300 C 226.19 -3.58014 -1.16201 0
M  V30 2301 C 225.337 -2.76699 -0.182455 0
M  V30 2302 H 228.288 -1.54406 0.366675 0
M  V30 2303 H 228.309 -3.47454 -1.55099 0
M  V30 2304 H 227.821 -3.87421 0.229449 0
M  V30 2305 H 225.922 -3.07553 -2.10338 0
M  V30 2306 H 226.035 -4.66501 -1.09151 0
M  V30 2307 H 224.399 -2.45618 -0.674072 0
M  V30 2308 H 225.182 -3.35311 0.736297 0
M  V30 2309 N 227.627 0.131896 -1.57047 0
M  V30 2310 C 228.873 0.843179 -1.84441 0
M  V30 2311 C 229.206 1.80129 -0.725749 0
M  V30 2312 O 228.481 1.92624 0.269469 0
M  V30 2313 C 228.764 1.60442 -3.22382 0
M  V30 2314 C 228.617 0.666782 -4.4483 0
M  V30 2315 C 229.936 2.56354 -3.5773 0
M  V30 2316 H 227.055 0.305081 -0.670891 0
M  V30 2317 H 229.697 0.107839 -1.89694 0
M  V30 2318 H 227.847 2.23128 -3.18035 0
M  V30 2319 H 229.519 0.0497646 -4.61273 0
M  V30 2320 H 227.762 -0.022609 -4.33794 0
M  V30 2321 H 228.433 1.23579 -5.37989 0
M  V30 2322 H 230.909 2.0378 -3.62785 0
M  V30 2323 H 229.785 3.06657 -4.5525 0
M  V30 2324 H 230.046 3.38419 -2.84473 0
M  V30 2325 N 229.106 1.52395 0.401703 0
M  V30 2326 C 230.334 1.70676 1.16949 0
M  V30 2327 C 230.749 0.419503 1.8408 0
M  V30 2328 O 230.106 -0.605061 1.72178 0
M  V30 2329 C 230.157 2.84753 2.22706 0
M  V30 2330 O 229.878 4.08495 1.58314 0
M  V30 2331 C 231.379 3.14608 3.12309 0
M  V30 2332 H 228.599 0.571787 0.351142 0
M  V30 2333 H 231.143 1.98987 0.471652 0
M  V30 2334 H 229.298 2.58941 2.88147 0
M  V30 2335 H 229.712 4.72117 2.28485 0
M  V30 2336 H 231.186 3.97923 3.82572 0
M  V30 2337 H 231.663 2.28464 3.75101 0
M  V30 2338 H 232.269 3.42212 2.52529 0
M  V30 2339 N 230.584 -0.659388 1.43143 0
M  V30 2340 C 231.83 -1.42145 1.44647 0
M  V30 2341 C 232.163 -1.9408 0.0681907 0
M  V30 2342 O 231.438 -1.71899 -0.910007 0
M  V30 2343 C 231.721 -2.60735 2.48373 0
M  V30 2344 C 231.574 -2.14332 3.95451 0
M  V30 2345 C 232.893 -3.62951 2.48906 0
M  V30 2346 H 230.012 -0.51552 0.526696 0
M  V30 2347 H 232.654 -0.748069 1.74654 0
M  V30 2348 H 230.804 -3.18184 2.22916 0
M  V30 2349 H 232.476 -1.61932 4.31944 0
M  V30 2350 H 230.719 -1.4576 4.08578 0
M  V30 2351 H 231.39 -2.99583 4.63631 0
M  V30 2352 H 233.866 -3.1525 2.71582 0
M  V30 2353 H 232.742 -4.43487 3.23435 0
M  V30 2354 H 233.003 -4.15126 1.52061 0
M  V30 2355 N 232.062 -1.29571 -0.897171 0
M  V30 2356 C 233.287 -1.20705 -1.68656 0
M  V30 2357 C 233.712 0.228582 -1.86706 0
M  V30 2358 O 233.07 1.16494 -1.3892 0
M  V30 2359 C 233.118 -1.9282 -3.04717 0
M  V30 2360 O 232.222 -1.24697 -3.93096 0
M  V30 2361 H 231.563 -0.418126 -0.515816 0
M  V30 2362 H 234.093 -1.71183 -1.12061 0
M  V30 2363 H 234.103 -2.01372 -3.54843 0
M  V30 2364 H 232.778 -2.97239 -2.90899 0
M  V30 2365 H 231.355 -1.2442 -3.51531 0
M  V30 2366 N 233.54 1.10788 -1.12088 0
M  V30 2367 C 234.786 1.8313 -0.885148 0
M  V30 2368 C 235.141 1.8336 0.582839 0
M  V30 2369 O 234.434 1.28062 1.42516 0
M  V30 2370 C 234.628 3.29294 -1.38926 0
M  V30 2371 C 234.457 3.43302 -2.90472 0
M  V30 2372 C 233.227 3.55928 -3.58669 0
M  V30 2373 C 235.425 3.37014 -3.88492 0
M  V30 2374 N 233.407 3.58475 -4.98366 0
M  V30 2375 C 234.778 3.46263 -5.14298 0
M  V30 2376 C 236.833 3.20589 -3.80955 0
M  V30 2377 C 235.536 3.4078 -6.33452 0
M  V30 2378 C 237.562 3.16427 -4.99628 0
M  V30 2379 C 236.924 3.26253 -6.2429 0
M  V30 2380 H 233.023 0.685054 -0.377128 0
M  V30 2381 H 235.607 1.3251 -1.4265 0
M  V30 2382 H 233.778 3.78416 -0.874999 0
M  V30 2383 H 235.51 3.89578 -1.09596 0
M  V30 2384 H 232.265 3.58779 -3.09151 0
M  V30 2385 H 232.689 3.6337 -5.71219 0
M  V30 2386 H 237.331 3.11873 -2.85474 0
M  V30 2387 H 235.049 3.48263 -7.29204 0
M  V30 2388 H 238.635 3.04874 -4.95523 0
M  V30 2389 H 237.515 3.2303 -7.14578 0
M  V30 2390 N 235.018 0.912232 1.28515 0
M  V30 2391 C 235.966 0.389597 2.29314 0
M  V30 2392 C 236.96 -0.517915 1.61289 0
M  V30 2393 O 238.166 -0.399328 1.75515 0
M  V30 2394 H 234.541 0.107386 0.744293 0
M  V30 2395 H 236.512 1.25286 2.70825 0
M  V30 2396 C 235.261 -0.356496 3.45868 0
M  V30 2397 H 234.584 0.332608 3.98414 0
M  V30 2398 H 236.024 -0.686851 4.184 0
M  V30 2399 C 234.483 -1.56383 2.98406 0
M  V30 2400 O 235.013 -2.66294 3.00749 0
M  V30 2401 N 233.219 -1.41029 2.54085 0
M  V30 2402 H 232.766 -0.516089 2.52377 0
M  V30 2403 H 232.724 -2.21939 2.22689 0
M  V30 2404 N 236.496 -1.42363 0.676048 0
M  V30 2405 C 237.721 -2.06377 0.205705 0
M  V30 2406 C 238.146 -1.50463 -1.12883 0
M  V30 2407 O 237.504 -0.623619 -1.70237 0
M  V30 2408 C 237.552 -3.60277 0.152655 0
M  V30 2409 O 236.656 -4.02935 -0.87845 0
M  V30 2410 H 235.997 -0.655588 0.105359 0
M  V30 2411 H 238.527 -1.82475 0.925412 0
M  V30 2412 H 238.537 -4.07993 -0.0230675 0
M  V30 2413 H 237.212 -4.00346 1.12675 0
M  V30 2414 H 235.789 -3.66764 -0.673668 0
M  V30 2415 N 237.974 -0.419461 -1.51915 0
M  V30 2416 C 239.222 0.152637 -2.01523 0
M  V30 2417 C 239.543 1.44762 -1.30649 0
M  V30 2418 O 238.813 1.90997 -0.435535 0
M  V30 2419 H 237.393 0.0593966 -0.744635 0
M  V30 2420 H 240.055 -0.558073 -1.86739 0
M  V30 2421 H 239.151 0.341369 -3.10227 0
M  V30 2422 N 239.452 1.56882 -0.150215 0
M  V30 2423 C 240.415 2.1573 0.774157 0
M  V30 2424 C 241.415 1.0999 1.17298 0
M  V30 2425 O 242.605 1.35613 1.09338 0
M  V30 2426 C 239.737 2.72302 2.05096 0
M  V30 2427 H 240.93 2.98752 0.262201 0
M  V30 2428 H 238.483 1.55985 0.099248 0
M  V30 2429 H 239.218 1.92956 2.6065 0
M  V30 2430 H 239.003 3.49665 1.77416 0
M  V30 2431 H 240.493 3.17632 2.71109 0
M  V30 2432 N 240.93 -0.123565 1.57115 0
M  V30 2433 C 241.86 -1.15309 2.03042 0
M  V30 2434 C 242.841 -1.43454 0.914061 0
M  V30 2435 O 244.026 -1.53973 1.18347 0
M  V30 2436 C 241.156 -2.48043 2.43089 0
M  V30 2437 C 240.11 -2.3437 3.58127 0
M  V30 2438 C 239.436 -3.72026 3.84059 0
M  V30 2439 C 240.736 -1.80804 4.90007 0
M  V30 2440 H 242.43 -0.771102 2.893 0
M  V30 2441 H 239.976 -0.369479 1.39179 0
M  V30 2442 H 241.929 -3.20311 2.73823 0
M  V30 2443 H 240.653 -2.88122 1.53796 0
M  V30 2444 H 239.312 -1.64551 3.27595 0
M  V30 2445 H 238.96 -4.09582 2.91979 0
M  V30 2446 H 238.66 -3.63732 4.6149 0
M  V30 2447 H 240.184 -4.45806 4.1724 0
M  V30 2448 H 241.598 -2.42886 5.19307 0
M  V30 2449 H 239.995 -1.83343 5.71407 0
M  V30 2450 H 241.065 -0.76528 4.78823 0
M  V30 2451 N 242.408 -1.52605 -0.393616 0
M  V30 2452 C 243.636 -1.71294 -1.16043 0
M  V30 2453 C 244.051 -0.429259 -1.83855 0
M  V30 2454 O 243.408 0.595921 -1.72496 0
M  V30 2455 C 243.459 -2.8593 -2.21193 0
M  V30 2456 O 243.18 -4.09329 -1.56146 0
M  V30 2457 C 244.681 -3.16259 -3.10636 0
M  V30 2458 H 241.901 -0.573641 -0.348104 0
M  V30 2459 H 244.445 -1.99234 -0.461092 0
M  V30 2460 H 242.6 -2.60465 -2.86769 0
M  V30 2461 H 243.014 -4.73323 -2.25978 0
M  V30 2462 H 244.488 -3.99946 -3.80456 0
M  V30 2463 H 244.965 -2.3045 -3.73884 0
M  V30 2464 H 245.571 -3.43547 -2.50711 0
M  V30 2465 N 243.887 0.651787 -1.4349 0
M  V30 2466 C 245.112 1.44434 -1.48841 0
M  V30 2467 C 245.537 1.8779 -0.107955 0
M  V30 2468 O 244.895 1.57464 0.898602 0
M  V30 2469 C 244.943 2.65458 -2.44059 0
M  V30 2470 O 244.047 3.64566 -1.92784 0
M  V30 2471 H 243.388 0.433005 -0.503391 0
M  V30 2472 H 245.918 0.797451 -1.88419 0
M  V30 2473 H 245.928 3.13255 -2.6141 0
M  V30 2474 H 244.603 2.33244 -3.4434 0
M  V30 2475 H 243.18 3.23716 -1.851 0
M  V30 2476 N 245.365 1.30045 0.890287 0
M  V30 2477 C 246.613 1.18327 1.63839 0
M  V30 2478 C 246.934 -0.263455 1.93212 0
M  V30 2479 O 246.204 -1.17856 1.56482 0
M  V30 2480 H 244.784 0.434933 0.607324 0
M  V30 2481 H 247.446 1.631 1.06698 0
M  V30 2482 H 246.542 1.74024 2.59079 0
M  V30 2483 N 246.843 -1.10192 1.12674 0
M  V30 2484 C 248.089 -1.82475 0.884915 0
M  V30 2485 C 248.422 -1.85093 -0.58773 0
M  V30 2486 O 247.697 -1.3134 -1.43457 0
M  V30 2487 C 247.98 -3.29018 1.46353 0
M  V30 2488 C 247.833 -3.34718 3.00473 0
M  V30 2489 C 249.152 -4.25473 1.12519 0
M  V30 2490 H 246.271 -0.662492 0.322915 0
M  V30 2491 H 248.913 -1.2913 1.39375 0
M  V30 2492 H 247.063 -3.74576 1.03077 0
M  V30 2493 H 248.735 -2.97622 3.52447 0
M  V30 2494 H 246.978 -2.74541 3.35872 0
M  V30 2495 H 247.649 -4.37918 3.36053 0
M  V30 2496 H 250.125 -3.88161 1.499 0
M  V30 2497 H 249.001 -5.26365 1.55663 0
M  V30 2498 H 249.262 -4.42084 0.0377407 0
M  V30 2499 N 248.321 -0.919034 -1.28029 0
M  V30 2500 C 249.271 -0.382574 -2.24767 0
M  V30 2501 C 250.255 0.508286 -1.52661 0
M  V30 2502 O 251.447 0.347145 -1.73562 0
M  V30 2503 C 248.576 0.371432 -3.41285 0
M  V30 2504 C 247.662 -0.535449 -4.20706 0
M  V30 2505 N 248.053 -1.65141 -4.78082 0
M  V30 2506 C 246.351 -0.336824 -4.44726 0
M  V30 2507 C 247.052 -2.21475 -5.37888 0
M  V30 2508 N 246.028 -1.50537 -5.22341 0
M  V30 2509 H 249.83 -1.23477 -2.66703 0
M  V30 2510 H 247.344 -0.772299 -1.42861 0
M  V30 2511 H 249.341 0.772638 -4.09678 0
M  V30 2512 H 248.001 1.22066 -3.00882 0
M  V30 2513 H 249.012 -2.03392 -4.7629 0
M  V30 2514 H 245.689 0.47246 -4.14818 0
M  V30 2515 H 247.079 -3.15379 -5.93284 0
M  V30 2516 N 249.799 1.42003 -0.683588 0
M  V30 2517 C 251.027 2.05746 -0.218182 0
M  V30 2518 C 251.442 1.51396 1.12804 0
M  V30 2519 O 250.799 0.657303 1.70252 0
M  V30 2520 C 250.85 3.61171 -0.154131 0
M  V30 2521 O 250.571 4.13508 -1.44716 0
M  V30 2522 C 252.072 4.42042 0.333713 0
M  V30 2523 H 249.292 0.662888 -0.10402 0
M  V30 2524 H 251.836 1.81987 -0.9328 0
M  V30 2525 H 249.991 3.84012 0.511231 0
M  V30 2526 H 250.405 5.07453 -1.32632 0
M  V30 2527 H 251.879 5.51028 0.327423 0
M  V30 2528 H 252.356 4.17269 1.37053 0
M  V30 2529 H 252.962 4.24239 -0.300222 0
M  V30 2530 N 251.277 0.427512 1.51691 0
M  V30 2531 C 252.524 -0.142229 2.02 0
M  V30 2532 C 252.852 -1.43566 1.31221 0
M  V30 2533 O 252.107 -1.91298 0.412744 0
M  V30 2534 C 252.406 -0.418249 3.54944 0
M  V30 2535 C 252.072 0.788187 4.43958 0
M  V30 2536 C 250.734 1.11906 4.68007 0
M  V30 2537 C 253.086 1.59347 4.96244 0
M  V30 2538 C 250.414 2.25608 5.41588 0
M  V30 2539 C 252.766 2.7214 5.71072 0
M  V30 2540 C 251.43 3.05692 5.93387 0
M  V30 2541 H 250.7 -0.0520451 0.73917 0
M  V30 2542 H 253.347 0.572697 1.82736 0
M  V30 2543 H 251.652 -1.21496 3.72486 0
M  V30 2544 H 253.349 -0.872339 3.91397 0
M  V30 2545 H 249.939 0.520344 4.2543 0
M  V30 2546 H 254.123 1.35106 4.77556 0
M  V30 2547 H 249.379 2.51929 5.57083 0
M  V30 2548 H 253.553 3.34914 6.10578 0
M  V30 2549 H 251.18 3.9391 6.50184 0
M  V30 2550 N 252.755 -1.56801 0.158532 0
M  V30 2551 C 254.166 -1.83189 -0.360366 0
M  V30 2552 C 254.517 -1.07778 -1.63946 0
M  V30 2553 O 253.642 -0.326718 -2.13919 0
M  V30 2554 C 254.237 -3.32297 -0.660595 0
M  V30 2555 C 252.796 -3.59227 -1.12398 0
M  V30 2556 C 251.943 -2.76877 -0.153097 0
M  V30 2557 H 254.894 -1.54008 0.383031 0
M  V30 2558 H 254.915 -3.4908 -1.51405 0
M  V30 2559 H 254.427 -3.87156 0.270527 0
M  V30 2560 H 252.528 -3.09766 -2.07064 0
M  V30 2561 H 252.641 -4.67632 -1.04197 0
M  V30 2562 H 251.005 -2.46319 -0.647983 0
M  V30 2563 H 251.788 -3.34511 0.77182 0
M  V30 2564 N 254.233 0.115231 -1.57178 0
M  V30 2565 C 255.196 1.12526 -1.99676 0
M  V30 2566 C 256.196 1.34095 -0.88742 0
M  V30 2567 O 257.386 1.30548 -1.15337 0
M  V30 2568 C 254.518 2.4789 -2.34015 0
M  V30 2569 H 255.711 0.759912 -2.90113 0
M  V30 2570 H 253.264 0.359648 -1.52106 0
M  V30 2571 H 253.999 2.89339 -1.4647 0
M  V30 2572 H 253.784 2.33588 -3.14927 0
M  V30 2573 H 255.274 3.20575 -2.67622 0
M  V30 2574 N 255.711 1.52812 0.385517 0
M  V30 2575 C 256.957 1.68275 1.13188 0
M  V30 2576 C 257.29 0.423179 1.89533 0
M  V30 2577 O 256.565 -0.579113 1.85679 0
M  V30 2578 C 256.848 2.92001 2.1073 0
M  V30 2579 C 256.701 4.28067 1.38125 0
M  V30 2580 C 258.02 3.11283 3.11113 0
M  V30 2581 H 255.139 0.612352 0.410115 0
M  V30 2582 H 257.781 1.85415 0.414869 0
M  V30 2583 H 255.931 2.77519 2.71874 0
M  V30 2584 H 257.603 4.54324 0.799187 0
M  V30 2585 H 255.846 4.28388 0.683092 0
M  V30 2586 H 256.517 5.10733 2.09417 0
M  V30 2587 H 258.993 3.2482 2.6006 0
M  V30 2588 H 257.869 3.99325 3.76605 0
M  V30 2589 H 258.13 2.25656 3.80173 0
M  V30 2590 N 257.189 -0.644168 1.43834 0
M  V30 2591 C 258.119 -1.76814 1.52509 0
M  V30 2592 C 259.1 -1.65823 0.379052 0
M  V30 2593 O 260.285 -1.84781 0.597466 0
M  V30 2594 C 257.415 -3.15288 1.4564 0
M  V30 2595 C 256.369 -3.41053 2.58586 0
M  V30 2596 C 255.695 -4.79421 2.36769 0
M  V30 2597 C 256.995 -3.34902 4.00797 0
M  V30 2598 H 258.689 -1.69812 2.46586 0
M  V30 2599 H 256.235 -0.815542 1.1868 0
M  V30 2600 H 258.188 -3.93681 1.50311 0
M  V30 2601 H 256.912 -3.23043 0.480725 0
M  V30 2602 H 255.571 -2.65035 2.53282 0
M  V30 2603 H 255.219 -4.83863 1.37424 0
M  V30 2604 H 254.919 -4.9762 3.12487 0
M  V30 2605 H 256.443 -5.6006 2.43238 0
M  V30 2606 H 257.857 -4.03218 4.07539 0
M  V30 2607 H 256.254 -3.64637 4.76613 0
M  V30 2608 H 257.324 -2.32928 4.25291 0
M  V30 2609 N 258.668 -1.30515 -0.883378 0
M  V30 2610 C 259.6 -1.12846 -1.99496 0
M  V30 2611 C 260.613 -0.0712571 -1.62644 0
M  V30 2612 O 261.802 -0.317432 -1.75655 0
M  V30 2613 C 258.902 -0.699123 -3.3161 0
M  V30 2614 C 258.075 -1.83842 -3.96889 0
M  V30 2615 C 257.134 -1.39737 -5.07307 0
M  V30 2616 O 256.16 -2.10485 -5.28852 0
M  V30 2617 N 257.362 -0.277279 -5.79837 0
M  V30 2618 H 260.127 -2.08585 -2.15203 0
M  V30 2619 H 257.688 -1.22672 -1.05656 0
M  V30 2620 H 259.68 -0.387044 -4.02845 0
M  V30 2621 H 258.25 0.166276 -3.12157 0
M  V30 2622 H 257.47 -2.31853 -3.18807 0
M  V30 2623 H 258.758 -2.60187 -4.37241 0
M  V30 2624 H 258.156 0.3122 -5.64838 0
M  V30 2625 H 256.713 -0.0246623 -6.51795 0
M  V30 2626 N 260.146 1.09593 -1.13257 0
M  V30 2627 C 261.371 1.8604 -0.916732 0
M  V30 2628 C 261.796 1.80504 0.529146 0
M  V30 2629 O 261.154 1.18127 1.37534 0
M  V30 2630 C 261.202 3.32017 -1.40703 0
M  V30 2631 O 260.306 4.08141 -0.591153 0
M  V30 2632 H 259.647 0.576943 -0.328683 0
M  V30 2633 H 262.177 1.38405 -1.50682 0
M  V30 2634 H 262.187 3.82865 -1.4099 0
M  V30 2635 H 260.862 3.35361 -2.45979 0
M  V30 2636 H 259.439 3.67084 -0.656005 0
M  V30 2637 N 261.624 0.925811 1.2754 0
M  V30 2638 C 262.849 0.580924 1.99098 0
M  V30 2639 C 263.274 -0.833555 1.68622 0
M  V30 2640 O 262.632 -1.55903 0.925422 0
M  V30 2641 C 262.68 0.811186 3.51358 0
M  V30 2642 O 261.784 -0.124129 4.12213 0
M  V30 2643 H 261.125 0.223873 0.625122 0
M  V30 2644 H 263.655 1.24455 1.62395 0
M  V30 2645 H 263.665 0.72601 4.01489 0
M  V30 2646 H 262.34 1.84227 3.72872 0
M  V30 2647 H 260.917 0.0108006 3.72898 0
M  V30 2648 N 263.102 -1.41638 0.69111 0
M  V30 2649 C 264.35 -2.00902 0.219758 0
M  V30 2650 C 264.671 -1.54994 -1.18329 0
M  V30 2651 O 263.941 -0.778628 -1.79762 0
M  V30 2652 H 262.521 -0.74289 0.0782558 0
M  V30 2653 H 265.183 -1.73327 0.891271 0
M  V30 2654 H 264.279 -3.11224 0.233708 0
M  V30 2655 N 264.58 -0.43555 -1.51462 0
M  V30 2656 C 265.51 0.367376 -2.30592 0
M  V30 2657 C 266.491 1.02263 -1.35928 0
M  V30 2658 O 267.676 1.02661 -1.64847 0
M  V30 2659 C 264.806 1.46983 -3.14664 0
M  V30 2660 C 263.76 0.938161 -4.17591 0
M  V30 2661 C 263.086 2.13622 -4.90173 0
M  V30 2662 C 264.386 -0.0261621 -5.22293 0
M  V30 2663 H 266.08 -0.292969 -2.97963 0
M  V30 2664 H 263.626 -0.14234 -1.43295 0
M  V30 2665 H 265.579 2.03873 -3.688 0
M  V30 2666 H 264.303 2.15843 -2.4511 0
M  V30 2667 H 262.962 0.391481 -3.64504 0
M  V30 2668 H 262.61 2.81098 -4.17124 0
M  V30 2669 H 262.31 1.78688 -5.59772 0
M  V30 2670 H 263.834 2.7107 -5.47132 0
M  V30 2671 H 265.248 0.452384 -5.71512 0
M  V30 2672 H 263.645 -0.287992 -5.99409 0
M  V30 2673 H 264.715 -0.963391 -4.75233 0
M  V30 2674 N 266.058 1.56714 -0.166846 0
M  V30 2675 C 267.288 2.00828 0.48494 0
M  V30 2676 C 267.696 1.04612 1.57648 0
M  V30 2677 O 267.039 0.0383201 1.8366 0
M  V30 2678 C 267.101 3.4137 1.12723 0
M  V30 2679 C 266.765 4.56654 0.177886 0
M  V30 2680 C 267.762 5.16402 -0.60207 0
M  V30 2681 C 265.447 5.02244 0.0750139 0
M  V30 2682 C 267.441 6.20167 -1.47215 0
M  V30 2683 C 265.128 6.05859 -0.798649 0
M  V30 2684 C 266.126 6.64691 -1.57082 0
M  V30 2685 O 265.814 7.66297 -2.42989 0
M  V30 2686 H 265.546 0.663587 0.128953 0
M  V30 2687 H 268.1 2.03692 -0.264365 0
M  V30 2688 H 266.33 3.35406 1.92457 0
M  V30 2689 H 268.019 3.69466 1.68076 0
M  V30 2690 H 268.785 4.82065 -0.53274 0
M  V30 2691 H 264.664 4.56167 0.665812 0
M  V30 2692 H 268.208 6.66016 -2.07531 0
M  V30 2693 H 264.105 6.39621 -0.869199 0
M  V30 2694 H 264.873 7.83601 -2.36455 0
M  V30 2695 N 267.536 -0.106894 1.57237 0
M  V30 2696 C 268.761 -0.830287 1.90055 0
M  V30 2697 C 269.186 -1.72064 0.75998 0
M  V30 2698 O 268.544 -1.78982 -0.288991 0
M  V30 2699 C 268.592 -1.6295 3.21683 0
M  V30 2700 O 267.696 -2.73748 3.08441 0
M  V30 2701 H 267.037 -0.228855 0.623315 0
M  V30 2702 H 269.567 -0.085658 2.04421 0
M  V30 2703 H 269.577 -2.01621 3.54701 0
M  V30 2704 H 268.252 -0.975989 4.04286 0
M  V30 2705 H 266.829 -2.38192 2.86913 0
M  V30 2706 N 269.014 -1.53014 -0.377408 0
M  V30 2707 C 269.944 -1.81589 -1.46791 0
M  V30 2708 C 270.925 -0.668622 -1.56408 0
M  V30 2709 O 272.11 -0.917337 -1.71168 0
M  V30 2710 C 269.24 -1.99519 -2.8427 0
M  V30 2711 C 268.194 -3.15249 -2.89486 0
M  V30 2712 C 267.52 -3.18451 -4.29527 0
M  V30 2713 C 268.82 -4.54084 -2.58079 0
M  V30 2714 H 270.514 -2.7291 -1.23127 0
M  V30 2715 H 268.06 -1.31319 -0.590883 0
M  V30 2716 H 270.013 -2.18092 -3.60575 0
M  V30 2717 H 268.737 -1.04897 -3.09296 0
M  V30 2718 H 267.396 -2.96477 -2.15631 0
M  V30 2719 H 267.044 -2.2149 -4.5161 0
M  V30 2720 H 266.744 -3.962 -4.33934 0
M  V30 2721 H 268.268 -3.39193 -5.07721 0
M  V30 2722 H 269.682 -4.72899 -3.24098 0
M  V30 2723 H 268.079 -5.33987 -2.7382 0
M  V30 2724 H 269.149 -4.60006 -1.53372 0
M  V30 2725 N 270.492 0.636531 -1.44174 0
M  V30 2726 C 271.717 1.42847 -1.50364 0
M  V30 2727 C 272.142 1.87665 -0.127867 0
M  V30 2728 O 271.5 1.58408 0.88185 0
M  V30 2729 C 271.548 2.62854 -2.4686 0
M  V30 2730 O 270.652 3.62501 -1.9664 0
M  V30 2731 H 269.993 0.427642 -0.507955 0
M  V30 2732 H 272.523 0.777422 -1.89255 0
M  V30 2733 H 272.533 3.10465 -2.64718 0
M  V30 2734 H 271.208 2.29578 -3.46795 0
M  V30 2735 H 269.785 3.21735 -1.88523 0
M  V30 2736 N 271.97 1.30982 0.876444 0
M  V30 2737 C 273.195 1.23373 1.66715 0
M  V30 2738 C 273.62 -0.19885 1.87046 0
M  V30 2739 O 272.978 -1.1427 1.40756 0
M  V30 2740 C 273.026 1.97644 3.01611 0
M  V30 2741 O 272.13 1.30935 3.91062 0
M  V30 2742 H 271.471 0.426279 0.509099 0
M  V30 2743 H 274.001 1.72944 1.09323 0
M  V30 2744 H 274.011 2.06992 3.51594 0
M  V30 2745 H 272.686 3.01829 2.86133 0
M  V30 2746 H 271.263 1.29996 3.49507 0
M  V30 2747 N 273.449 -1.08991 1.13837 0
M  V30 2748 C 274.695 -1.81526 0.90422 0
M  V30 2749 C 275.028 -1.85706 -0.568066 0
M  V30 2750 O 274.303 -1.32855 -1.42056 0
M  V30 2751 C 274.586 -3.27447 1.49835 0
M  V30 2752 C 274.439 -3.31512 3.04006 0
M  V30 2753 C 275.758 -4.24256 1.17025 0
M  V30 2754 H 272.877 -0.659029 0.329923 0
M  V30 2755 H 275.519 -1.27644 1.40737 0
M  V30 2756 H 273.669 -3.73462 1.07044 0
M  V30 2757 H 275.341 -2.93867 3.55584 0
M  V30 2758 H 273.584 -2.70963 3.38765 0
M  V30 2759 H 274.255 -4.34329 3.40679 0
M  V30 2760 H 276.731 -3.86549 1.54009 0
M  V30 2761 H 275.607 -5.24684 1.61237 0
M  V30 2762 H 275.868 -4.42019 0.0846274 0
M  V30 2763 N 274.927 -0.932562 -1.27047 0
M  V30 2764 C 276.173 -0.576412 -1.94436 0
M  V30 2765 C 276.506 0.880891 -1.73072 0
M  V30 2766 O 275.781 1.62905 -1.06264 0
M  V30 2767 C 276.064 -0.909031 -3.48437 0
M  V30 2768 C 275.917 -2.42044 -3.79123 0
M  V30 2769 C 277.236 -0.418341 -4.38107 0
M  V30 2770 H 274.355 -0.210888 -0.706184 0
M  V30 2771 H 276.997 -1.16522 -1.50075 0
M  V30 2772 H 275.147 -0.407947 -3.86352 0
M  V30 2773 H 276.819 -2.99359 -3.50973 0
M  V30 2774 H 275.062 -2.86758 -3.25503 0
M  V30 2775 H 275.733 -2.6037 -4.86736 0
M  V30 2776 H 278.209 -0.847856 -4.0737 0
M  V30 2777 H 277.085 -0.679981 -5.44672 0
M  V30 2778 H 277.346 0.681642 -4.36814 0
M  V30 2779 N 276.405 1.4127 -0.698611 0
M  V30 2780 C 277.633 2.05503 -0.239992 0
M  V30 2781 C 278.048 1.52584 1.11191 0
M  V30 2782 O 277.405 0.675323 1.69545 0
M  V30 2783 C 277.456 3.60987 -0.192429 0
M  V30 2784 O 277.177 4.1195 -1.49094 0
M  V30 2785 C 278.678 4.42371 0.28681 0
M  V30 2786 H 275.898 0.661748 -0.111045 0
M  V30 2787 H 278.442 1.80987 -0.95205 0
M  V30 2788 H 276.597 3.84533 0.470472 0
M  V30 2789 H 277.011 5.06018 -1.38007 0
M  V30 2790 H 278.485 5.51344 0.26896 0
M  V30 2791 H 278.962 4.18699 1.32619 0
M  V30 2792 H 279.568 4.23897 -0.345201 0
M  V30 2793 N 277.883 0.443576 1.51229 0
M  V30 2794 C 279.129 -0.120975 2.02439 0
M  V30 2795 C 279.462 -1.41815 1.32674 0
M  V30 2796 O 278.737 -1.89373 0.443622 0
M  V30 2797 C 279.02 -0.333291 3.58554 0
M  V30 2798 C 278.873 0.982968 4.38928 0
M  V30 2799 C 280.192 -1.10028 4.26124 0
M  V30 2800 H 277.311 -0.0424923 0.735774 0
M  V30 2801 H 279.953 0.583794 1.80809 0
M  V30 2802 H 278.103 -0.933614 3.77115 0
M  V30 2803 H 279.775 1.61775 4.32003 0
M  V30 2804 H 278.018 1.58611 4.03763 0
M  V30 2805 H 278.689 0.788379 5.46341 0
M  V30 2806 H 281.165 -0.591711 4.11871 0
M  V30 2807 H 280.041 -1.21761 5.35225 0
M  V30 2808 H 280.302 -2.12996 3.87408 0
M  V30 2809 N 279.361 -1.56624 0.175154 0
M  V30 2810 C 280.772 -1.83561 -0.340916 0
M  V30 2811 C 281.123 -1.09511 -1.62794 0
M  V30 2812 O 280.248 -0.349389 -2.13561 0
M  V30 2813 C 280.843 -3.32979 -0.625313 0
M  V30 2814 C 279.402 -3.60399 -1.08581 0
M  V30 2815 C 278.549 -2.77024 -0.123722 0
M  V30 2816 H 281.5 -1.53593 0.399344 0
M  V30 2817 H 281.521 -3.50666 -1.47694 0
M  V30 2818 H 281.033 -3.86847 0.311575 0
M  V30 2819 H 279.134 -3.11945 -2.03767 0
M  V30 2820 H 279.247 -4.68711 -0.992317 0
M  V30 2821 H 277.611 -2.46993 -0.621821 0
M  V30 2822 H 278.394 -3.33674 0.807256 0
M  V30 2823 N 280.839 0.0985539 -1.57292 0
M  V30 2824 C 282.064 0.820196 -1.90493 0
M  V30 2825 C 282.489 1.71658 -0.769094 0
M  V30 2826 O 281.847 1.79133 0.279495 0
M  V30 2827 C 281.895 1.61242 -3.22542 0
M  V30 2828 O 280.999 2.72108 -3.09888 0
M  V30 2829 H 280.34 0.225547 -0.62452 0
M  V30 2830 H 282.87 0.0748159 -2.04463 0
M  V30 2831 H 282.88 1.99737 -3.55766 0
M  V30 2832 H 281.555 0.954535 -4.04798 0
M  V30 2833 H 280.132 2.36667 -2.88172 0
M  V30 2834 N 282.317 1.53212 0.369288 0
M  V30 2835 C 283.542 1.73423 1.1375 0
M  V30 2836 C 283.967 0.460404 1.82378 0
M  V30 2837 O 283.325 -0.585298 1.71592 0
M  V30 2838 C 283.373 2.89769 2.1463 0
M  V30 2839 O 282.477 2.58119 3.21634 0
M  V30 2840 H 281.818 0.576061 0.330227 0
M  V30 2841 H 284.348 2.00083 0.427547 0
M  V30 2842 H 284.358 3.15829 2.58294 0
M  V30 2843 H 283.033 3.8217 1.64071 0
M  V30 2844 H 281.61 2.42864 2.82969 0
M  V30 2845 N 283.795 -0.628877 1.44509 0
M  V30 2846 C 285.02 -1.42048 1.5112 0
M  V30 2847 C 285.445 -1.87594 0.137818 0
M  V30 2848 O 284.803 -1.58873 -0.873437 0
M  V30 2849 C 284.851 -2.61541 2.48251 0
M  V30 2850 O 283.955 -3.61453 1.98559 0
M  V30 2851 H 283.296 -0.424942 0.510216 0
M  V30 2852 H 285.826 -0.767374 1.89664 0
M  V30 2853 H 285.836 -3.09057 2.66361 0
M  V30 2854 H 284.511 -2.27736 3.48007 0
M  V30 2855 H 283.088 -3.20731 1.90227 0
M  V30 2856 N 285.273 -1.31445 -0.869486 0
M  V30 2857 C 286.203 -1.21727 -1.99261 0
M  V30 2858 C 287.184 -0.104359 -1.6978 0
M  V30 2859 O 288.369 -0.289038 -1.92037 0
M  V30 2860 C 285.499 -0.924317 -3.34774 0
M  V30 2861 C 284.453 -1.99685 -3.78563 0
M  V30 2862 C 283.779 -1.55658 -5.11541 0
M  V30 2863 C 285.079 -3.41003 -3.95619 0
M  V30 2864 H 286.773 -2.1569 -2.07649 0
M  V30 2865 H 284.319 -1.03839 -0.997675 0
M  V30 2866 H 286.272 -0.842934 -4.12883 0
M  V30 2867 H 284.996 0.0509793 -3.2656 0
M  V30 2868 H 283.655 -2.06813 -3.02694 0
M  V30 2869 H 283.303 -0.569132 -4.9977 0
M  V30 2870 H 283.003 -2.27409 -5.41811 0
M  V30 2871 H 284.527 -1.48928 -5.92159 0
M  V30 2872 H 285.941 -3.36547 -4.64122 0
M  V30 2873 H 284.338 -4.10975 -4.37286 0
M  V30 2874 H 285.408 -3.81754 -2.98985 0
M  V30 2875 N 286.751 1.08385 -1.14413 0
M  V30 2876 C 287.999 1.80419 -0.910679 0
M  V30 2877 C 288.32 1.86658 0.564243 0
M  V30 2878 O 287.59 1.35985 1.41014 0
M  V30 2879 H 286.17 0.668204 -0.333934 0
M  V30 2880 H 288.832 1.31037 -1.44275 0
M  V30 2881 H 287.928 2.83238 -1.31082 0
M  V30 2882 N 288.23 0.939286 1.26551 0
M  V30 2883 C 289.458 0.602536 1.97932 0
M  V30 2884 C 289.873 -0.82206 1.69964 0
M  V30 2885 O 289.23 -1.54789 0.966784 0
M  V30 2886 C 289.281 0.832946 3.51773 0
M  V30 2887 O 289.002 2.20151 3.78768 0
M  V30 2888 C 290.503 0.506483 4.40397 0
M  V30 2889 H 287.723 0.227248 0.631347 0
M  V30 2890 H 290.267 1.25948 1.61113 0
M  V30 2891 H 288.422 0.222644 3.8676 0
M  V30 2892 H 288.836 2.26013 4.73306 0
M  V30 2893 H 290.31 0.718333 5.47306 0
M  V30 2894 H 290.787 -0.558451 4.35635 0
M  V30 2895 H 291.393 1.09543 4.10951 0
M  V30 2896 N 289.708 -1.40897 0.706093 0
M  V30 2897 C 290.64 -2.29199 0.00815776 0
M  V30 2898 C 291.653 -1.45336 -0.733582 0
M  V30 2899 O 292.842 -1.68727 -0.582537 0
M  V30 2900 C 289.942 -3.23417 -1.01265 0
M  V30 2901 C 289.115 -4.36089 -0.338387 0
M  V30 2902 C 288.174 -5.10811 -1.26326 0
M  V30 2903 O 287.2 -5.64215 -0.751651 0
M  V30 2904 N 288.402 -5.19269 -2.595 0
M  V30 2905 H 291.167 -2.89738 0.766297 0
M  V30 2906 H 288.728 -1.52164 0.55296 0
M  V30 2907 H 290.72 -3.70276 -1.63334 0
M  V30 2908 H 289.29 -2.64112 -1.67223 0
M  V30 2909 H 288.51 -3.91479 0.462352 0
M  V30 2910 H 289.798 -5.08634 0.130031 0
M  V30 2911 H 289.196 -4.77347 -3.03573 0
M  V30 2912 H 287.753 -5.69667 -3.16737 0
M  V30 2913 N 291.186 -0.45159 -1.50991 0
M  V30 2914 C 292.414 0.108334 -2.06616 0
M  V30 2915 C 292.829 1.35224 -1.31757 0
M  V30 2916 O 292.186 1.78475 -0.381174 0
M  V30 2917 C 292.237 0.41619 -3.59096 0
M  V30 2918 O 291.958 -0.778361 -4.3113 0
M  V30 2919 C 293.459 1.02523 -4.31282 0
M  V30 2920 H 290.679 0.00159995 -0.670998 0
M  V30 2921 H 293.223 -0.634771 -1.94399 0
M  V30 2922 H 291.378 1.10921 -3.71181 0
M  V30 2923 H 291.792 -0.511181 -5.22003 0
M  V30 2924 H 293.266 1.19053 -5.39009 0
M  V30 2925 H 293.743 2.01013 -3.905 0
M  V30 2926 H 294.349 0.371173 -4.23677 0
M  V30 2927 N 292.664 1.56529 -0.183458 0
M  V30 2928 C 293.894 2.01331 0.463612 0
M  V30 2929 C 294.302 1.06278 1.5653 0
M  V30 2930 O 293.645 0.0577976 1.83609 0
M  V30 2931 C 293.707 3.42547 1.09096 0
M  V30 2932 C 293.371 4.56817 0.129442 0
M  V30 2933 C 294.368 5.15734 -0.656807 0
M  V30 2934 C 292.053 5.02295 0.02174 0
M  V30 2935 C 294.047 6.1857 -1.53784 0
M  V30 2936 C 291.734 6.04978 -0.862864 0
M  V30 2937 C 292.732 6.62988 -1.64123 0
M  V30 2938 O 292.42 7.63677 -2.51103 0
M  V30 2939 H 292.152 0.664917 0.121907 0
M  V30 2940 H 294.706 2.034 -0.285954 0
M  V30 2941 H 292.936 3.37428 1.88889 0
M  V30 2942 H 294.625 3.71228 1.64148 0
M  V30 2943 H 295.391 4.81473 -0.583839 0
M  V30 2944 H 291.27 4.56847 0.617392 0
M  V30 2945 H 294.814 6.63777 -2.14583 0
M  V30 2946 H 290.711 6.38663 -0.93699 0
M  V30 2947 H 291.479 7.81049 -2.44753 0
M  V30 2948 N 294.142 -0.090211 1.57342 0
M  V30 2949 C 295.391 -0.791531 1.8552 0
M  V30 2950 C 295.704 -1.79659 0.773441 0
M  V30 2951 O 296.91 -2.54616 0.942497 0
M  V30 2952 C 295.366 -1.45856 3.2902 0
M  V30 2953 C 294.974 -0.493017 4.45279 0
M  V30 2954 C 296.718 -2.14332 3.66418 0
M  V30 2955 C 294.625 -1.16491 5.79814 0
M  V30 2956 H 293.555 -0.299356 0.692027 0
M  V30 2957 H 296.206 -0.0445343 1.83446 0
M  V30 2958 H 294.588 -2.25318 3.2565 0
M  V30 2959 H 295.762 0.270464 4.60006 0
M  V30 2960 H 294.077 0.0863061 4.16311 0
M  V30 2961 H 296.674 -2.65344 4.64216 0
M  V30 2962 H 297.017 -2.93447 2.95287 0
M  V30 2963 H 297.55 -1.41724 3.71698 0
M  V30 2964 H 294.289 -0.41447 6.54188 0
M  V30 2965 H 293.809 -1.8997 5.68921 0
M  V30 2966 H 295.488 -1.69001 6.24538 0
M  V30 2967 N 295.62 -1.53406 -0.361157 0
M  V30 2968 C 296.86 -1.71507 -1.11197 0
M  V30 2969 C 297.224 -0.459337 -1.86425 0
M  V30 2970 O 298.425 -0.517102 -2.63779 0
M  V30 2971 C 296.696 -2.93307 -2.0422 0
M  V30 2972 S 298.255 -3.32135 -2.86761 0
M  V30 2973 H 295.073 -0.603448 -0.375995 0
M  V30 2974 H 297.675 -1.91516 -0.392642 0
M  V30 2975 H 296.379 -3.82891 -1.47724 0
M  V30 2976 H 295.91 -2.75712 -2.80618 0
M  V30 2977 H 297.925 -2.84493 -4.06544 0
M  V30 2978 N 297.098 0.621204 -1.44841 0
M  V30 2979 C 298.046 1.75385 -1.52784 0
M  V30 2980 C 299.04 1.64639 -0.398779 0
M  V30 2981 O 300.246 1.70598 -0.574137 0
M  V30 2982 H 296.621 0.579193 -0.479625 0
M  V30 2983 H 298.592 1.6581 -2.48092 0
M  V30 2984 C 297.341 3.13742 -1.4987 0
M  V30 2985 H 296.664 3.22663 -2.36069 0
M  V30 2986 H 298.104 3.92861 -1.59487 0
M  V30 2987 C 296.563 3.36175 -0.220973 0
M  V30 2988 O 297.093 3.95469 0.704782 0
M  V30 2989 N 295.299 2.90348 -0.120963 0
M  V30 2990 H 294.846 2.42278 -0.875162 0
M  V30 2991 H 294.804 3.05732 0.733168 0
M  V30 2992 N 298.576 1.31904 0.862503 0
M  V30 2993 C 299.822 1.22197 1.61851 0
M  V30 2994 C 300.155 -0.217641 1.92977 0
M  V30 2995 O 299.43 -1.15264 1.56666 0
M  V30 2996 C 299.713 2.07378 2.94391 0
M  V30 2997 C 299.566 3.59678 2.70096 0
M  V30 2998 C 300.885 1.92891 3.95577 0
M  V30 2999 H 298.004 0.445255 0.587296 0
M  V30 3000 H 300.646 1.6177 0.99651 0
M  V30 3001 H 298.796 1.73758 3.47477 0
M  V30 3002 H 300.468 4.03472 2.23625 0
M  V30 3003 H 298.711 3.82735 2.04197 0
M  V30 3004 H 299.382 4.14595 3.64438 0
M  V30 3005 H 301.858 2.22327 3.51724 0
M  V30 3006 H 300.734 2.54781 4.86187 0
M  V30 3007 H 300.995 0.894315 4.3296 0
M  V30 3008 N 300.054 -1.07777 1.14986 0
M  V30 3009 C 301.002 -2.16964 0.838406 0
M  V30 3010 C 301.996 -1.68372 -0.186386 0
M  V30 3011 O 303.202 -1.79951 -0.0418465 0
M  V30 3012 H 299.577 -0.708006 0.253439 0
M  V30 3013 H 301.548 -2.40454 1.76704 0
M  V30 3014 C 300.297 -3.4604 0.339335 0
M  V30 3015 H 299.62 -3.83813 1.11927 0
M  V30 3016 H 301.06 -4.23698 0.160021 0
M  V30 3017 C 299.519 -3.23569 -0.938325 0
M  V30 3018 O 300.049 -3.47752 -2.01077 0
M  V30 3019 N 298.255 -2.77079 -0.876117 0
M  V30 3020 H 297.802 -2.576 -0.00322037 0
M  V30 3021 H 297.76 -2.62422 -1.73153 0
M  V30 3022 N 301.532 -0.945985 -1.26051 0
M  V30 3023 C 302.482 -0.430164 -2.23905 0
M  V30 3024 C 303.466 0.47579 -1.53704 0
M  V30 3025 O 304.658 0.310252 -1.7426 0
M  V30 3026 C 301.787 0.298957 -3.41996 0
M  V30 3027 C 300.873 -0.624566 -4.19476 0
M  V30 3028 N 301.264 -1.75245 -4.74471 0
M  V30 3029 C 299.562 -0.431082 -4.43912 0
M  V30 3030 C 300.263 -2.32834 -5.3307 0
M  V30 3031 N 299.239 -1.61583 -5.1903 0
M  V30 3032 H 303.041 -1.29107 -2.64024 0
M  V30 3033 H 300.555 -0.802428 -1.41191 0
M  V30 3034 H 302.552 0.685565 -4.11225 0
M  V30 3035 H 301.212 1.15657 -3.03403 0
M  V30 3036 H 302.223 -2.13449 -4.71868 0
M  V30 3037 H 298.9 0.384364 -4.15727 0
M  V30 3038 H 300.29 -3.27893 -5.86461 0
M  V30 3039 N 303.011 1.40521 -0.713556 0
M  V30 3040 C 303.958 2.30723 -0.059684 0
M  V30 3041 C 304.928 1.48079 0.752448 0
M  V30 3042 O 306.113 1.76823 0.71681 0
M  V30 3043 C 303.253 3.34274 0.857594 0
M  V30 3044 C 302.366 4.31986 0.0351536 0
M  V30 3045 C 301.501 5.22605 0.951724 0
M  V30 3046 C 300.54 6.11976 0.123253 0
M  V30 3047 N 299.677 6.9502 0.99459 0
M  V30 3048 H 304.517 2.86074 -0.834596 0
M  V30 3049 H 302.054 1.40879 -0.42326 0
M  V30 3050 H 304.012 3.92879 1.40364 0
M  V30 3051 H 302.642 2.8043 1.59871 0
M  V30 3052 H 301.694 3.7518 -0.628052 0
M  V30 3053 H 303.006 4.95101 -0.606347 0
M  V30 3054 H 302.16 5.86131 1.56638 0
M  V30 3055 H 300.899 4.59759 1.62705 0
M  V30 3056 H 299.904 5.47482 -0.50435 0
M  V30 3057 H 301.129 6.76881 -0.548539 0
M  V30 3058 H 299.075 6.34764 1.6556 0
M  V30 3059 H 298.992 7.54892 0.40908 0
M  V30 3060 H 300.26 7.62997 1.59549 0
M  V30 3061 N 304.489 0.459591 1.5075 0
M  V30 3062 C 305.9 0.00171547 1.867 0
M  V30 3063 C 306.251 -1.39934 1.37525 0
M  V30 3064 O 305.376 -2.03523 0.735349 0
M  V30 3065 C 305.971 -0.00366298 3.388 0
M  V30 3066 C 304.53 -0.406026 3.74204 0
M  V30 3067 C 303.677 0.38673 2.7459 0
M  V30 3068 H 306.628 0.674413 1.43657 0
M  V30 3069 H 306.649 -0.808371 3.71814 0
M  V30 3070 H 306.161 1.01617 3.74561 0
M  V30 3071 H 304.262 -1.43063 3.4404 0
M  V30 3072 H 304.375 -0.115362 4.78961 0
M  V30 3073 H 302.739 -0.158019 2.54209 0
M  V30 3074 H 303.522 1.40585 3.13194 0
M  V30 3075 N 305.967 -1.56429 0.191757 0
M  V30 3076 C 307.192 -2.02309 -0.456706 0
M  V30 3077 C 307.617 -1.07103 -1.5463 0
M  V30 3078 O 306.975 -0.0539677 -1.8122 0
M  V30 3079 C 307.023 -3.46654 -0.993159 0
M  V30 3080 O 306.127 -3.54559 -2.10622 0
M  V30 3081 H 305.468 -0.655303 -0.107114 0
M  V30 3082 H 307.998 -2.02364 0.301653 0
M  V30 3083 H 308.008 -3.86377 -1.31061 0
M  V30 3084 H 306.683 -4.1544 -0.195504 0
M  V30 3085 H 305.26 -3.26708 -1.79767 0
M  V30 3086 N 307.445 0.0818655 -1.57387 0
M  V30 3087 C 308.393 1.11712 -2.04018 0
M  V30 3088 C 309.387 1.40683 -0.94364 0
M  V30 3089 O 310.593 1.40209 -1.12878 0
M  V30 3090 H 306.968 0.377542 -0.650358 0
M  V30 3091 H 308.939 0.697614 -2.90131 0
M  V30 3092 C 307.688 2.42537 -2.49141 0
M  V30 3093 H 307.011 2.21092 -3.33104 0
M  V30 3094 H 308.451 3.13446 -2.85531 0
M  V30 3095 C 306.91 3.0778 -1.37014 0
M  V30 3096 O 307.44 3.95436 -0.706621 0
M  V30 3097 N 305.646 2.68242 -1.11779 0
M  V30 3098 H 305.193 1.97052 -1.65917 0
M  V30 3099 H 305.151 3.1222 -0.369594 0
M  V30 3100 N 308.923 1.53595 0.353017 0
M  V30 3101 C 310.151 1.74311 1.1146 0
M  V30 3102 C 310.566 0.477854 1.82653 0
M  V30 3103 O 309.923 -0.549977 1.74016 0
M  V30 3104 C 309.974 2.91694 2.13534 0
M  V30 3105 O 309.695 4.13325 1.45238 0
M  V30 3106 C 311.196 3.24384 3.02142 0
M  V30 3107 H 308.416 0.582669 0.332773 0
M  V30 3108 H 310.96 2.00386 0.408107 0
M  V30 3109 H 309.115 2.67977 2.79763 0
M  V30 3110 H 309.529 4.79148 2.13349 0
M  V30 3111 H 311.003 4.09893 3.69718 0
M  V30 3112 H 311.48 2.40282 3.67643 0
M  V30 3113 H 312.086 3.50073 2.41514 0
M  V30 3114 N 310.401 -0.613514 1.45168 0
M  V30 3115 C 311.348 -1.72456 1.53387 0
M  V30 3116 C 312.318 -1.6169 0.380191 0
M  V30 3117 O 313.503 -1.81356 0.592836 0
M  V30 3118 C 310.643 -3.10753 1.50088 0
M  V30 3119 C 309.756 -3.32368 2.75963 0
M  V30 3120 C 308.891 -4.60737 2.64376 0
M  V30 3121 C 307.93 -4.7559 3.85332 0
M  V30 3122 N 307.067 -5.95253 3.72315 0
M  V30 3123 H 311.907 -1.64768 2.48305 0
M  V30 3124 H 309.444 -0.803503 1.23216 0
M  V30 3125 H 311.402 -3.90758 1.46164 0
M  V30 3126 H 310.032 -3.17413 0.587243 0
M  V30 3127 H 309.084 -2.4618 2.89999 0
M  V30 3128 H 310.396 -3.39218 3.65695 0
M  V30 3129 H 309.55 -5.48928 2.58385 0
M  V30 3130 H 308.289 -4.56275 1.72233 0
M  V30 3131 H 307.294 -3.85824 3.91688 0
M  V30 3132 H 308.519 -4.81854 4.78533 0
M  V30 3133 H 306.465 -5.91847 2.82937 0
M  V30 3134 H 306.382 -6.03236 4.55677 0
M  V30 3135 H 307.65 -6.85958 3.70246 0
M  V30 3136 N 311.879 -1.3236 -0.855495 0
M  V30 3137 C 313.125 -1.23054 -1.612 0
M  V30 3138 C 313.458 0.207404 -1.93089 0
M  V30 3139 O 312.733 1.14432 -1.57275 0
M  V30 3140 C 313.016 -2.08937 -2.93287 0
M  V30 3141 C 312.869 -3.61105 -2.68185 0
M  V30 3142 C 314.188 -1.94986 -3.94549 0
M  V30 3143 H 311.307 -0.448364 -0.584926 0
M  V30 3144 H 313.949 -1.62297 -0.987917 0
M  V30 3145 H 312.099 -1.75599 -3.46551 0
M  V30 3146 H 313.771 -4.04652 -2.21483 0
M  V30 3147 H 312.014 -3.83813 -2.02164 0
M  V30 3148 H 312.685 -4.16522 -3.62234 0
M  V30 3149 H 315.161 -2.24189 -3.5054 0
M  V30 3150 H 314.037 -2.57356 -4.84829 0
M  V30 3151 H 314.298 -0.917263 -4.3248 0
M  V30 3152 N 313.357 1.07166 -1.15556 0
M  V30 3153 C 314.634 1.76546 -0.842069 0
M  V30 3154 C 315.014 2.00453 0.661939 0
M  V30 3155 O 314.362 1.62452 1.60691 0
M  V30 3156 C 314.572 3.07266 -1.65495 0
M  V30 3157 C 315.92 3.81578 -1.86234 0
M  V30 3158 O 316.944 3.17083 -1.62287 0
M  V30 3159 O 315.803 4.97419 -2.26355 0
M  V30 3160 H 312.897 0.766756 -0.309862 0
M  V30 3161 H 315.443 1.13514 -1.26145 0
M  V30 3162 H 314.215 2.85494 -2.67598 0
M  V30 3163 H 313.838 3.7803 -1.23203 0
M  V30 3164 N 314.835 0.952656 1.25548 0
M  V30 3165 C 315.782 0.47008 2.25962 0
M  V30 3166 C 316.752 -0.476384 1.59122 0
M  V30 3167 O 317.937 -0.39007 1.8677 0
M  V30 3168 C 315.077 -0.247881 3.44209 0
M  V30 3169 C 314.19 0.735591 4.25691 0
M  V30 3170 C 313.325 -0.0047306 5.312 0
M  V30 3171 C 312.364 0.969805 6.04368 0
M  V30 3172 N 311.501 0.260486 7.01617 0
M  V30 3173 H 316.341 1.33126 2.66611 0
M  V30 3174 H 313.878 0.66765 1.31076 0
M  V30 3175 H 315.836 -0.680695 4.1161 0
M  V30 3176 H 314.466 -1.07312 3.0444 0
M  V30 3177 H 313.518 1.28689 3.57971 0
M  V30 3178 H 314.83 1.47934 4.76358 0
M  V30 3179 H 313.984 -0.496275 6.04667 0
M  V30 3180 H 312.723 -0.781282 4.81401 0
M  V30 3181 H 311.728 1.47237 5.29718 0
M  V30 3182 H 312.953 1.74655 6.56256 0
M  V30 3183 H 310.899 -0.497364 6.54112 0
M  V30 3184 H 310.816 0.943362 7.50091 0
M  V30 3185 H 312.084 -0.209587 7.79218 0
M  V30 3186 N 316.313 -1.40141 0.720998 0
M  V30 3187 C 317.26 -2.30688 0.071919 0
M  V30 3188 C 318.23 -1.48476 -0.744584 0
M  V30 3189 O 319.415 -1.77201 -0.707423 0
M  V30 3190 C 316.555 -3.34724 -0.839855 0
M  V30 3191 C 315.668 -4.31998 -0.0122438 0
M  V30 3192 C 314.803 -5.23102 -0.923995 0
M  V30 3193 C 313.842 -6.12033 -0.0907969 0
M  V30 3194 N 312.979 -6.95537 -0.957718 0
M  V30 3195 H 317.819 -2.85628 0.849755 0
M  V30 3196 H 315.356 -1.40653 0.430726 0
M  V30 3197 H 317.314 -3.93618 -1.38279 0
M  V30 3198 H 315.944 -2.81274 -1.58381 0
M  V30 3199 H 314.996 -3.74841 0.64794 0
M  V30 3200 H 316.308 -4.94772 0.632595 0
M  V30 3201 H 315.462 -5.86953 -1.53527 0
M  V30 3202 H 314.201 -4.60615 -1.60264 0
M  V30 3203 H 313.206 -5.47207 0.533377 0
M  V30 3204 H 314.431 -6.76581 0.584428 0
M  V30 3205 H 312.377 -6.35633 -1.62192 0
M  V30 3206 H 312.294 -7.55099 -0.36904 0
M  V30 3207 H 313.562 -7.63832 -1.555 0
M  V30 3208 N 317.792 -0.46758 -1.50504 0
M  V30 3209 C 319.038 0.0887532 -2.02606 0
M  V30 3210 C 319.371 1.39686 -1.34913 0
M  V30 3211 O 318.646 1.88644 -0.473694 0
M  V30 3212 C 318.929 0.276206 -3.59039 0
M  V30 3213 C 318.782 -1.05267 -4.37309 0
M  V30 3214 C 320.101 1.03235 -4.27821 0
M  V30 3215 H 317.22 0.0307814 -0.736357 0
M  V30 3216 H 319.862 -0.612485 -1.79857 0
M  V30 3217 H 318.012 0.8735 -3.78553 0
M  V30 3218 H 319.684 -1.68628 -4.29374 0
M  V30 3219 H 317.927 -1.65015 -4.01189 0
M  V30 3220 H 318.598 -0.875197 -5.45018 0
M  V30 3221 H 321.074 0.526111 -4.12761 0
M  V30 3222 H 319.95 1.1323 -5.37094 0
M  V30 3223 H 320.211 2.06806 -3.90748 0
M  V30 3224 N 319.27 1.56325 -0.20005 0
M  V30 3225 C 320.18 2.22931 0.730668 0
M  V30 3226 C 321.196 1.22997 1.23076 0
M  V30 3227 O 322.372 1.55748 1.27689 0
M  V30 3228 C 319.437 2.87948 1.93098 0
M  V30 3229 C 318.498 4.03166 1.47497 0
M  V30 3230 C 317.731 4.65073 2.61807 0
M  V30 3231 O 317.954 4.25913 3.79413 0
M  V30 3232 O 316.888 5.54452 2.34237 0
M  V30 3233 H 320.714 3.03084 0.193391 0
M  V30 3234 H 318.299 1.49371 0.0294621 0
M  V30 3235 H 320.181 3.29063 2.6324 0
M  V30 3236 H 318.856 2.10771 2.45677 0
M  V30 3237 H 317.763 3.66664 0.742201 0
M  V30 3238 H 319.096 4.82022 0.995796 0
M  V30 3239 N 320.748 -0.0735177 1.57428 0
M  V30 3240 C 322.159 -0.625551 1.75908 0
M  V30 3241 C 322.51 -1.78 0.825261 0
M  V30 3242 O 321.635 -2.16398 0.00893964 0
M  V30 3243 C 322.23 -1.14155 3.18989 0
M  V30 3244 C 320.789 -1.63946 3.38819 0
M  V30 3245 C 319.936 -0.558151 2.71625 0
M  V30 3246 H 322.887 0.152647 1.57964 0
M  V30 3247 H 322.908 -2.0104 3.23053 0
M  V30 3248 H 322.42 -0.301116 3.8693 0
M  V30 3249 H 320.521 -2.50321 2.7599 0
M  V30 3250 H 320.634 -1.71759 4.47253 0
M  V30 3251 H 318.998 -1.00278 2.34129 0
M  V30 3252 H 319.781 0.272071 3.4222 0
M  V30 3253 N 322.226 -1.5378 -0.344866 0
M  V30 3254 C 323.173 -1.81676 -1.42346 0
M  V30 3255 C 324.143 -0.662376 -1.52321 0
M  V30 3256 O 325.328 -0.906675 -1.67881 0
M  V30 3257 C 322.468 -2.03087 -2.79015 0
M  V30 3258 C 321.581 -3.30799 -2.77842 0
M  V30 3259 C 320.716 -3.42285 -4.0622 0
M  V30 3260 C 319.755 -4.6395 -3.9927 0
M  V30 3261 N 318.892 -4.72477 -5.19336 0
M  V30 3262 H 323.732 -2.73703 -1.17858 0
M  V30 3263 H 321.269 -1.35568 -0.570949 0
M  V30 3264 H 323.227 -2.1349 -3.58438 0
M  V30 3265 H 321.857 -1.14375 -3.01858 0
M  V30 3266 H 320.909 -3.29244 -1.90533 0
M  V30 3267 H 322.221 -4.20314 -2.68584 0
M  V30 3268 H 321.375 -3.52113 -4.94066 0
M  V30 3269 H 320.114 -2.50823 -4.18258 0
M  V30 3270 H 319.119 -4.54201 -3.09809 0
M  V30 3271 H 320.344 -5.56775 -3.88817 0
M  V30 3272 H 318.29 -3.83924 -5.3192 0
M  V30 3273 H 318.207 -5.55927 -5.12329 0
M  V30 3274 H 319.475 -4.86613 -6.08957 0
M  V30 3275 N 323.704 0.605807 -1.45491 0
M  V30 3276 C 324.929 1.39625 -1.53361 0
M  V30 3277 C 325.354 1.87351 -0.167645 0
M  V30 3278 O 324.712 1.60243 0.848051 0
M  V30 3279 C 324.76 2.57559 -2.5238 0
M  V30 3280 O 323.864 3.58248 -2.04285 0
M  V30 3281 H 323.205 0.416771 -0.516912 0
M  V30 3282 H 325.735 0.737103 -1.90861 0
M  V30 3283 H 325.745 3.0478 -2.71244 0
M  V30 3284 H 324.42 2.22171 -3.51586 0
M  V30 3285 H 322.997 3.17664 -1.95305 0
M  V30 3286 N 325.182 1.32811 0.848464 0
M  V30 3287 C 326.422 1.25046 1.61687 0
M  V30 3288 C 326.786 -0.183464 1.91121 0
M  V30 3289 O 327.987 -0.384937 2.66029 0
M  V30 3290 C 326.258 2.09201 2.89775 0
M  V30 3291 S 327.817 2.18526 3.80515 0
M  V30 3292 H 324.635 0.445023 0.554505 0
M  V30 3293 H 327.237 1.67733 1.00429 0
M  V30 3294 H 325.941 3.12433 2.66108 0
M  V30 3295 H 325.472 1.67315 3.56047 0
M  V30 3296 H 327.487 1.3393 4.77784 0
M  V30 3297 N 326.66 -1.06551 1.16123 0
M  V30 3298 C 327.937 -1.76097 0.85142 0
M  V30 3299 C 328.317 -2.00802 -0.6513 0
M  V30 3300 O 327.665 -1.63302 -1.59827 0
M  V30 3301 C 327.875 -3.06384 1.67122 0
M  V30 3302 C 329.223 -3.80585 1.88255 0
M  V30 3303 O 330.247 -3.16218 1.63966 0
M  V30 3304 O 329.106 -4.96212 2.2899 0
M  V30 3305 H 326.2 -0.765102 0.313923 0
M  V30 3306 H 328.746 -1.12844 1.26745 0
M  V30 3307 H 327.518 -2.84071 2.69108 0
M  V30 3308 H 327.141 -3.77371 1.25206 0
M  V30 3309 N 328.138 -0.959301 -1.25041 0
M  V30 3310 C 329.085 -0.482057 -2.2571 0
M  V30 3311 C 330.055 0.467939 -1.59372 0
M  V30 3312 O 331.24 0.380159 -1.86974 0
M  V30 3313 C 328.38 0.229623 -3.44335 0
M  V30 3314 C 327.493 -0.758156 -4.25295 0
M  V30 3315 C 326.628 -0.0234403 -5.31195 0
M  V30 3316 C 325.667 -1.00184 -6.03846 0
M  V30 3317 N 324.804 -0.29769 -7.01469 0
M  V30 3318 H 329.644 -1.34538 -2.65901 0
M  V30 3319 H 327.181 -0.674592 -1.3072 0
M  V30 3320 H 329.139 0.658856 -4.11965 0
M  V30 3321 H 327.769 1.05696 -3.05005 0
M  V30 3322 H 326.821 -1.30586 -3.57284 0
M  V30 3323 H 328.133 -1.50458 -4.75567 0
M  V30 3324 H 327.287 0.464201 -6.04922 0
M  V30 3325 H 326.026 0.755741 -4.81809 0
M  V30 3326 H 325.031 -1.50044 -5.2893 0
M  V30 3327 H 326.256 -1.78133 -6.55321 0
M  V30 3328 H 324.202 0.462668 -6.54366 0
M  V30 3329 H 324.119 -0.983128 -7.4958 0
M  V30 3330 H 325.387 0.16826 -7.79318 0
M  V30 3331 N 329.616 1.39756 -0.72842 0
M  V30 3332 C 330.844 2.04948 -0.283528 0
M  V30 3333 C 331.259 1.54908 1.0793 0
M  V30 3334 O 330.616 0.711135 1.68075 0
M  V30 3335 C 330.667 3.60498 -0.268957 0
M  V30 3336 O 330.388 4.08695 -1.57798 0
M  V30 3337 C 331.889 4.4288 0.192912 0
M  V30 3338 H 329.109 0.659243 -0.125056 0
M  V30 3339 H 331.653 1.78927 -0.990226 0
M  V30 3340 H 329.808 3.85444 0.388801 0
M  V30 3341 H 330.222 5.02977 -1.48709 0
M  V30 3342 H 331.696 5.51791 0.151952 0
M  V30 3343 H 332.173 4.21418 1.23708 0
M  V30 3344 H 332.779 4.23069 -0.435039 0
M  V30 3345 N 331.094 0.475555 1.50254 0
M  V30 3346 C 332.044 -0.335025 2.25525 0
M  V30 3347 C 333.028 -0.957625 1.29299 0
M  V30 3348 O 334.22 -0.869436 1.54175 0
M  V30 3349 C 331.349 -1.41385 3.12834 0
M  V30 3350 C 330.435 -0.798762 4.1651 0
M  V30 3351 N 330.826 0.0835815 5.05731 0
M  V30 3352 C 329.124 -1.06221 4.33166 0
M  V30 3353 C 329.825 0.433113 5.80085 0
M  V30 3354 N 328.801 -0.1928 5.43258 0
M  V30 3355 H 332.603 0.344612 2.91873 0
M  V30 3356 H 330.117 0.289986 1.5979 0
M  V30 3357 H 332.114 -2.00777 3.65368 0
M  V30 3358 H 330.774 -2.09543 2.48036 0
M  V30 3359 H 331.785 0.452715 5.15918 0
M  V30 3360 H 328.462 -1.73844 3.79585 0
M  V30 3361 H 329.852 1.15346 6.61925 0
M  V30 3362 O 332.611 -1.57666 0.349795 0
M  V30 3363 H 333.302 -1.92619 -0.204318 0
M  V30 END ATOM
M  V30 BEGIN BOND
M  V30 END BOND
M  V30 END CTAB
M  END
$$$$
