drugbank_drug|DB00113 1clo:Anti-CEA heavy chain 1
 OpenBabel12092119113D

  0  0  0     0  0            999 V3000
M  V30 BEGIN CTAB
M  V30 COUNTS 6841 6933 0 0 0
M  V30 BEGIN ATOM
M  V30 1 H -0.908 1.98254 -0.117106 0
M  V30 2 N 0 1.576 0 0
M  V30 3 C 0.91 2.11853 1.00774 0
M  V30 4 C 1.926 1.06379 1.37693 0
M  V30 5 O 3.102 1.3828 1.46426 0
M  V30 6 C 0.167 2.61108 2.28087 0
M  V30 7 C -0.772 3.81183 1.9748 0
M  V30 8 C -1.539 4.28079 3.18723 0
M  V30 9 O -1.316 3.74307 4.30407 0
M  V30 10 O -2.382 5.20234 3.02721 0
M  V30 11 H 1.444 2.98177 0.576547 0
M  V30 12 H -0.971 1.47789 0.218828 0
M  V30 13 H 0.911 2.92987 3.0288 0
M  V30 14 H -0.414 1.77881 2.70444 0
M  V30 15 H -1.507 3.54277 1.20162 0
M  V30 16 H -0.174 4.65482 1.5996 0
M  V30 17 N 1.4781 -0.272755 1.55222 0
M  V30 18 C 2.7241 -1.00581 1.761 0
M  V30 19 C 3.0571 -1.85932 0.560625 0
M  V30 20 O 2.3321 -1.89416 -0.441801 0
M  V30 21 C 2.6151 -1.88816 3.06628 0
M  V30 22 C 2.4681 -1.06457 4.37021 0
M  V30 23 C 3.7871 -2.8752 3.33197 0
M  V30 24 H 0.9061 -0.364244 0.640699 0
M  V30 25 H 3.5481 -0.278189 1.87952 0
M  V30 26 H 1.6981 -2.50856 2.96654 0
M  V30 27 H 3.3701 -0.464863 4.58952 0
M  V30 28 H 1.6131 -0.368043 4.32236 0
M  V30 29 H 2.2841 -1.71514 5.24678 0
M  V30 30 H 4.7601 -2.35615 3.42965 0
M  V30 31 H 3.6361 -3.46399 4.25792 0
M  V30 32 H 3.8971 -3.62657 2.52849 0
M  V30 33 N 2.9562 -1.48159 -0.537278 0
M  V30 34 C 3.9032 -1.62138 -1.64256 0
M  V30 35 C 4.8732 -0.463668 -1.59497 0
M  V30 36 O 6.0582 -0.686241 -1.78032 0
M  V30 37 C 3.1982 -1.66028 -3.02537 0
M  V30 38 C 2.3112 -2.92855 -3.17585 0
M  V30 39 C 1.4462 -2.87952 -4.46382 0
M  V30 40 C 0.4852 -4.09516 -4.54932 0
M  V30 41 N -0.3778 -4.02733 -5.75109 0
M  V30 42 H 4.4622 -2.56529 -1.51647 0
M  V30 43 H 1.9992 -1.27224 -0.738414 0
M  V30 44 H 3.9572 -1.66265 -3.82638 0
M  V30 45 H 2.5872 -0.751331 -3.13934 0
M  V30 46 H 1.6392 -3.02395 -2.30784 0
M  V30 47 H 2.9512 -3.82822 -3.19764 0
M  V30 48 H 2.1052 -2.8655 -5.34765 0
M  V30 49 H 0.8442 -1.95702 -4.46712 0
M  V30 50 H -0.1508 -4.11201 -3.64957 0
M  V30 51 H 1.0742 -5.02917 -4.56346 0
M  V30 52 H -0.9798 -3.13299 -5.76351 0
M  V30 53 H -1.0628 -4.86397 -5.78752 0
M  V30 54 H 0.2052 -4.05379 -6.65799 0
M  V30 55 N 4.4343 0.785586 -1.36625 0
M  V30 56 C 5.3643 1.91259 -1.33949 0
M  V30 57 C 6.3453 1.68795 -0.210325 0
M  V30 58 O 7.5303 1.89854 -0.408561 0
M  V30 59 C 4.6603 3.28339 -1.13186 0
M  V30 60 C 3.6143 3.65335 -2.22967 0
M  V30 61 C 2.9403 5.00806 -1.87342 0
M  V30 62 C 4.2403 3.7352 -3.65075 0
M  V30 63 H 5.9343 1.93755 -2.28253 0
M  V30 64 H 3.4803 0.930788 -1.09874 0
M  V30 65 H 5.4333 4.06804 -1.09948 0
M  V30 66 H 4.1573 3.2624 -0.153332 0
M  V30 67 H 2.8163 2.89169 -2.25337 0
M  V30 68 H 2.4643 4.95233 -0.880545 0
M  V30 69 H 2.1643 5.26529 -2.60846 0
M  V30 70 H 3.6883 5.81687 -1.85667 0
M  V30 71 H 5.1023 4.42168 -3.64911 0
M  V30 72 H 3.4993 4.10731 -4.37516 0
M  V30 73 H 4.5693 2.74527 -3.99703 0
M  V30 74 N 5.9124 1.20967 1.01018 0
M  V30 75 C 7.1584 1.02526 1.74975 0
M  V30 76 C 7.4914 -0.4408 1.89131 0
M  V30 77 O 6.7664 -1.32718 1.42184 0
M  V30 78 C 7.0494 1.71699 3.1653 0
M  V30 79 C 6.9024 3.25791 3.10129 0
M  V30 80 C 8.2214 1.45531 4.15342 0
M  V30 81 H 5.3404 0.373863 0.635134 0
M  V30 82 H 7.9824 1.49071 1.17805 0
M  V30 83 H 6.1324 1.32128 3.65341 0
M  V30 84 H 7.8044 3.74697 2.69072 0
M  V30 85 H 6.0474 3.56363 2.47362 0
M  V30 86 H 6.7184 3.69353 4.10222 0
M  V30 87 H 9.1944 1.79872 3.75213 0
M  V30 88 H 8.0704 1.96453 5.1254 0
M  V30 89 H 8.3314 0.384237 4.40427 0
M  V30 90 N 7.3905 -1.2043 1.01659 0
M  V30 91 C 8.3005 -2.2689 0.596484 0
M  V30 92 C 9.3165 -1.70107 -0.36599 0
M  V30 93 O 10.4925 -2.00117 -0.226942 0
M  V30 94 C 7.5575 -3.4665 -0.0586659 0
M  V30 95 C 6.6185 -4.18662 0.949751 0
M  V30 96 C 5.8515 -5.32705 0.32577 0
M  V30 97 O 6.0745 -5.63656 -0.874509 0
M  V30 98 O 5.0085 -5.92803 1.04249 0
M  V30 99 H 8.8345 -2.65041 1.4828 0
M  V30 100 H 6.4195 -1.27048 0.786082 0
M  V30 101 H 8.3015 -4.19256 -0.424564 0
M  V30 102 H 6.9765 -3.10375 -0.91918 0
M  V30 103 H 5.8835 -3.48229 1.36702 0
M  V30 104 H 7.2165 -4.58878 1.78023 0
M  V30 105 N 8.8686 -0.792821 -1.36206 0
M  V30 106 C 10.0936 -0.377701 -2.03932 0
M  V30 107 C 10.5186 0.998947 -1.59382 0
M  V30 108 O 9.8766 1.64421 -0.763903 0
M  V30 109 C 9.9246 -0.453635 -3.57735 0
M  V30 110 O 9.0286 0.538151 -4.08874 0
M  V30 111 H 8.3696 -0.159855 -0.644471 0
M  V30 112 H 10.8996 -1.07488 -1.7409 0
M  V30 113 H 10.9096 -0.318464 -4.06755 0
M  V30 114 H 9.5846 -1.45784 -3.89512 0
M  V30 115 H 8.1616 0.364359 -3.71116 0
M  V30 116 N 10.3467 1.47872 -0.545128 0
M  V30 117 C 11.5947 2.02093 -0.016553 0
M  V30 118 C 11.9157 1.42305 1.3332 0
M  V30 119 O 11.1857 0.593853 1.86682 0
M  V30 120 H 9.7657 0.746993 -0.00313038 0
M  V30 121 H 12.4277 1.81414 -0.712397 0
M  V30 122 H 11.5237 3.11996 0.0805422 0
M  V30 123 N 11.8248 0.280983 1.55075 0
M  V30 124 C 13.0728 -0.333455 1.9933 0
M  V30 125 C 13.3938 -1.55937 1.17085 0
M  V30 126 O 12.6638 -1.94143 0.261805 0
M  V30 127 H 11.2438 -0.126197 0.736263 0
M  V30 128 H 13.9058 0.387678 1.91005 0
M  V30 129 H 13.0018 -0.619292 3.05894 0
M  V30 130 N 13.3029 -1.57598 0.00835791 0
M  V30 131 C 14.5509 -1.90551 -0.6734 0
M  V30 132 C 14.8719 -0.883301 -1.73847 0
M  V30 133 O 14.1419 0.0781442 -1.95744 0
M  V30 134 H 12.7219 -0.703312 -0.251717 0
M  V30 135 H 15.3839 -1.94833 0.0512592 0
M  V30 136 H 14.4799 -2.9056 -1.13935 0
M  V30 137 N 14.781 0.264519 -1.55364 0
M  V30 138 C 15.711 1.33121 -1.91836 0
M  V30 139 C 16.692 1.51101 -0.781192 0
M  V30 140 O 17.877 1.64003 -1.04003 0
M  V30 141 C 15.007 2.68921 -2.19769 0
M  V30 142 C 13.961 2.65661 -3.35571 0
M  V30 143 C 13.287 4.05093 -3.49004 0
M  V30 144 C 14.587 2.24187 -4.71739 0
M  V30 145 H 16.281 1.02844 -2.81182 0
M  V30 146 H 13.827 0.493286 -1.35287 0
M  V30 147 H 15.78 3.43663 -2.43872 0
M  V30 148 H 14.504 3.00799 -1.27231 0
M  V30 149 H 13.163 1.93377 -3.1145 0
M  V30 150 H 12.811 4.34206 -2.53917 0
M  V30 151 H 12.511 4.03804 -4.26868 0
M  V30 152 H 14.035 4.81561 -3.75408 0
M  V30 153 H 15.449 2.88654 -4.9533 0
M  V30 154 H 13.846 2.34044 -5.52579 0
M  V30 155 H 14.916 1.19327 -4.69988 0
M  V30 156 N 16.2591 1.48442 0.529413 0
M  V30 157 C 17.5051 1.5672 1.28711 0
M  V30 158 C 17.8381 0.2406 1.92704 0
M  V30 159 O 17.1131 -0.753454 1.79313 0
M  V30 160 C 17.3961 2.70587 2.37603 0
M  V30 161 C 17.2491 4.12953 1.78297 0
M  V30 162 C 18.5681 2.80212 3.39366 0
M  V30 163 H 15.6871 0.570474 0.466613 0
M  V30 164 H 18.3291 1.80617 0.589706 0
M  V30 165 H 16.4791 2.50342 2.97088 0
M  V30 166 H 18.1511 4.44639 1.22858 0
M  V30 167 H 16.3941 4.19927 1.0883 0
M  V30 168 H 17.0651 4.88448 2.57144 0
M  V30 169 H 19.5411 2.98553 2.89836 0
M  V30 170 H 18.4171 3.61611 4.12951 0
M  V30 171 H 18.6781 1.88393 3.99951 0
M  V30 172 N 17.7372 -0.778329 1.37039 0
M  V30 173 C 18.6692 -1.90034 1.2814 0
M  V30 174 C 19.6822 -1.61585 0.198558 0
M  V30 175 O 20.8712 -1.72625 0.454175 0
M  V30 176 C 17.9712 -3.25108 0.956968 0
M  V30 177 C 17.1442 -3.81253 2.14394 0
M  V30 178 C 16.2032 -4.94789 1.79082 0
M  V30 179 O 15.2292 -5.10721 2.51301 0
M  V30 180 N 16.4312 -5.75878 0.731043 0
M  V30 181 H 19.1962 -1.98186 2.24816 0
M  V30 182 H 16.7572 -0.957129 1.30578 0
M  V30 183 H 18.7492 -3.9857 0.701701 0
M  V30 184 H 17.3192 -3.125 0.0789812 0
M  V30 185 H 16.5392 -2.99647 2.56135 0
M  V30 186 H 17.8272 -4.15495 2.93668 0
M  V30 187 H 17.2252 -5.65547 0.131618 0
M  V30 188 H 15.7822 -6.49596 0.535622 0
M  V30 189 N 19.2153 -1.21501 -1.00376 0
M  V30 190 C 20.6263 -1.03146 -1.55621 0
M  V30 191 C 20.9773 0.408375 -1.91903 0
M  V30 192 O 20.1023 1.29177 -1.73616 0
M  V30 193 C 20.6973 -1.86612 -2.82775 0
M  V30 194 C 19.2563 -1.72586 -3.34501 0
M  V30 195 C 18.4033 -1.83747 -2.07683 0
M  V30 196 H 21.3543 -1.35505 -0.826081 0
M  V30 197 H 21.3753 -1.3771 -3.54706 0
M  V30 198 H 20.8873 -2.91399 -2.56336 0
M  V30 199 H 18.9883 -0.704877 -3.65872 0
M  V30 200 H 19.1013 -2.54623 -4.05837 0
M  V30 201 H 17.4653 -1.27069 -2.20739 0
M  V30 202 H 18.2483 -2.90044 -1.83655 0
M  V30 203 N 20.6934 1.19889 -1.02296 0
M  V30 204 C 21.9414 1.89046 -0.714558 0
M  V30 205 C 22.2624 1.79636 0.758681 0
M  V30 206 O 21.5324 1.20292 1.54618 0
M  V30 207 H 20.1124 0.699802 -0.261317 0
M  V30 208 H 22.7744 1.45574 -1.29592 0
M  V30 209 H 21.8704 2.95524 -1.0036 0
M  V30 210 N 22.1715 0.800033 1.35784 0
M  V30 211 C 23.4195 0.376597 1.9856 0
M  V30 212 C 23.7405 -1.05812 1.63795 0
M  V30 213 O 23.0105 -1.73103 0.917171 0
M  V30 214 H 21.5905 0.136261 0.734467 0
M  V30 215 H 24.2525 1.02442 1.65806 0
M  V30 216 H 23.3485 0.477002 3.08433 0
M  V30 217 N 23.6496 -1.47581 0.552962 0
M  V30 218 C 24.8746 -2.07378 0.0300593 0
M  V30 219 C 25.2996 -1.40355 -1.25229 0
M  V30 220 O 24.6576 -0.477099 -1.7491 0
M  V30 221 C 24.7056 -3.60274 -0.153231 0
M  V30 222 O 23.8096 -3.94041 -1.21678 0
M  V30 223 H 23.1506 -0.662158 0.0494182 0
M  V30 224 H 25.6806 -1.89662 0.767434 0
M  V30 225 H 25.6906 -4.0633 -0.368761 0
M  V30 226 H 24.3656 -4.08455 0.783397 0
M  V30 227 H 22.9426 -3.59735 -0.982079 0
M  V30 228 N 25.1277 -0.289203 -1.54924 0
M  V30 229 C 26.0577 0.58549 -2.2604 0
M  V30 230 C 27.0387 1.14753 -1.25562 0
M  V30 231 O 28.2237 1.17906 -1.54311 0
M  V30 232 C 25.3537 1.76305 -2.99222 0
M  V30 233 C 24.3077 1.33191 -4.06748 0
M  V30 234 C 23.6337 2.5937 -4.6758 0
M  V30 235 C 24.9337 0.471775 -5.20165 0
M  V30 236 H 26.6277 -0.00763532 -2.99399 0
M  V30 237 H 24.1737 -0.00511229 -1.43999 0
M  V30 238 H 26.1267 2.38097 -3.47689 0
M  V30 239 H 24.8507 2.38223 -2.23422 0
M  V30 240 H 23.5097 0.737121 -3.59113 0
M  V30 241 H 23.1577 3.19576 -3.88433 0
M  V30 242 H 22.8577 2.31228 -5.40192 0
M  V30 243 H 24.3817 3.21985 -5.18804 0
M  V30 244 H 25.7957 0.995056 -5.64599 0
M  V30 245 H 24.1927 0.284639 -5.99425 0
M  V30 246 H 25.2627 -0.506041 -4.82252 0
M  V30 247 N 26.6058 1.57591 -0.0167156 0
M  V30 248 C 28.0218 1.55946 0.339557 0
M  V30 249 C 28.2218 1.02109 1.73713 0
M  V30 250 O 27.2778 0.662303 2.43659 0
M  V30 251 C 28.5908 3.00037 0.199499 0
M  V30 252 C 30.1388 3.11805 0.273193 0
M  V30 253 C 30.6138 4.57713 0.162068 0
M  V30 254 N 32.1048 4.6268 0.219444 0
M  V30 255 C 32.8398 5.73185 0.157054 0
M  V30 256 N 32.3358 6.92786 0.0442936 0
M  V30 257 N 34.1288 5.61707 0.21014 0
M  V30 258 H 26.2798 1.90921 -0.930758 0
M  V30 259 H 28.5428 0.877674 -0.358319 0
M  V30 260 H 28.2488 3.4333 -0.76273 0
M  V30 261 H 28.1228 3.64387 0.974786 0
M  V30 262 H 30.5098 2.68433 1.22587 0
M  V30 263 H 30.5908 2.50201 -0.532256 0
M  V30 264 H 30.2348 5.01763 -0.78714 0
M  V30 265 H 30.1648 5.17283 0.986222 0
M  V30 266 H 32.6558 3.76649 0.307246 0
M  V30 267 H 32.9688 7.728 0.00304069 0
M  V30 268 H 31.3138 6.94999 0.00968457 0
M  V30 269 H 34.5048 4.6716 0.296546 0
M  V30 270 H 34.6778 6.47807 0.158054 0
M  V30 271 N 28.0839 -0.256276 1.55502 0
M  V30 272 C 29.0139 -1.32102 1.92539 0
M  V30 273 C 29.9949 -1.50684 0.789194 0
M  V30 274 O 31.1799 -1.63449 1.04872 0
M  V30 275 C 28.3099 -2.67752 2.21192 0
M  V30 276 C 27.2639 -2.63878 3.36975 0
M  V30 277 C 26.5899 -4.03236 3.51147 0
M  V30 278 C 27.8899 -2.21682 4.72921 0
M  V30 279 H 29.5839 -1.01351 2.81724 0
M  V30 280 H 27.1299 -0.486105 1.35547 0
M  V30 281 H 29.0829 -3.42365 2.45691 0
M  V30 282 H 27.8069 -3.0012 1.28824 0
M  V30 283 H 26.4659 -1.91722 3.12471 0
M  V30 284 H 26.1139 -4.32854 2.56216 0
M  V30 285 H 25.8139 -4.01535 4.29003 0
M  V30 286 H 27.3379 -4.79563 3.77957 0
M  V30 287 H 28.7519 -2.86023 4.96854 0
M  V30 288 H 27.1489 -2.3111 5.53812 0
M  V30 289 H 28.2189 -1.16833 4.70615 0
M  V30 290 N 29.562 -1.4872 -0.521534 0
M  V30 291 C 30.787 -1.61101 -1.30618 0
M  V30 292 C 31.212 -0.274611 -1.86085 0
M  V30 293 O 30.57 0.754937 -1.64834 0
M  V30 294 C 30.618 -2.66709 -2.4269 0
M  V30 295 O 29.722 -2.24456 -3.45967 0
M  V30 296 H 29.063 -0.539921 -0.386499 0
M  V30 297 H 31.593 -1.94767 -0.626645 0
M  V30 298 H 31.603 -2.88245 -2.88754 0
M  V30 299 H 30.278 -3.63727 -2.01682 0
M  V30 300 H 28.855 -2.13168 -3.05964 0
M  V30 301 N 31.0401 0.771051 -1.3745 0
M  V30 302 C 32.2801 1.54264 -1.34096 0
M  V30 303 C 32.6441 1.91858 0.0737639 0
M  V30 304 O 33.8451 2.67797 0.23203 0
M  V30 305 C 32.1161 2.77326 -2.25445 0
M  V30 306 S 33.6751 3.67383 -2.39948 0
M  V30 307 H 30.4931 0.528122 -0.476034 0
M  V30 308 H 33.0951 0.906633 -1.73206 0
M  V30 309 H 31.7991 2.47788 -3.27153 0
M  V30 310 H 31.3301 3.45886 -1.87421 0
M  V30 311 H 33.3451 4.69334 -1.61059 0
M  V30 312 N 32.5182 1.22032 0.997298 0
M  V30 313 C 33.4812 0.987909 2.06816 0
M  V30 314 C 34.4812 -0.0440084 1.6074 0
M  V30 315 O 35.6712 0.194053 1.73116 0
M  V30 316 C 32.8032 0.49132 3.37341 0
M  V30 317 H 33.9962 1.93803 2.28868 0
M  V30 318 H 31.5492 1.03838 1.16822 0
M  V30 319 H 32.2842 -0.463364 3.20973 0
M  V30 320 H 32.0692 1.23575 3.72118 0
M  V30 321 H 33.5592 0.348824 4.16141 0
M  V30 322 N 33.9963 -1.19345 1.0293 0
M  V30 323 C 35.2243 -1.92997 0.745644 0
M  V30 324 C 35.6393 -1.75519 -0.695589 0
M  V30 325 O 34.9963 -1.07737 -1.47306 0
M  V30 326 C 35.0473 -3.44741 1.08792 0
M  V30 327 O 34.7683 -3.61658 2.47256 0
M  V30 328 C 36.2693 -4.35515 0.827129 0
M  V30 329 H 33.4893 -0.613042 0.272801 0
M  V30 330 H 36.0333 -1.51473 1.3739 0
M  V30 331 H 34.1883 -3.84097 0.504832 0
M  V30 332 H 34.6023 -4.55514 2.60015 0
M  V30 333 H 36.0763 -5.40589 1.11658 0
M  V30 334 H 36.5533 -4.38552 -0.238436 0
M  V30 335 H 37.1593 -4.01841 1.39297 0
M  V30 336 N 35.4744 -0.807222 -1.35358 0
M  V30 337 C 36.6994 -0.399309 -2.0352 0
M  V30 338 C 37.1244 0.981986 -1.60433 0
M  V30 339 O 36.4824 1.63601 -0.781299 0
M  V30 340 C 36.5304 -0.491552 -3.57234 0
M  V30 341 O 35.6344 0.494754 -4.09421 0
M  V30 342 H 34.9754 -0.166682 -0.642739 0
M  V30 343 H 37.5054 -1.09328 -1.72941 0
M  V30 344 H 37.5154 -0.361588 -4.06395 0
M  V30 345 H 36.1904 -1.49907 -3.87944 0
M  V30 346 H 34.7674 0.324977 -3.71481 0
M  V30 347 N 36.9525 1.47285 -0.560781 0
M  V30 348 C 38.2005 2.02064 -0.0379868 0
M  V30 349 C 38.5215 1.43711 1.31803 0
M  V30 350 O 37.7915 0.61362 1.86042 0
M  V30 351 H 36.3715 0.746918 -0.0110531 0
M  V30 352 H 39.0335 1.80648 -0.731598 0
M  V30 353 H 38.1295 3.12064 0.0474463 0
M  V30 354 N 38.4306 0.297415 1.54768 0
M  V30 355 C 39.6776 -0.312913 2.00068 0
M  V30 356 C 40.0056 -1.54171 1.18582 0
M  V30 357 O 39.2606 -1.94108 0.249133 0
M  V30 358 C 39.5596 -0.717561 3.50123 0
M  V30 359 C 39.2256 0.409095 4.4904 0
M  V30 360 C 37.8876 0.718399 4.75807 0
M  V30 361 C 40.2396 1.16717 5.07963 0
M  V30 362 C 37.5676 1.78896 5.5876 0
M  V30 363 C 39.9196 2.22762 5.92081 0
M  V30 364 C 38.5836 2.54303 6.1716 0
M  V30 365 H 37.8536 -0.114503 0.7321 0
M  V30 366 H 40.5006 0.415767 1.86932 0
M  V30 367 H 38.8056 -1.52627 3.60849 0
M  V30 368 H 40.5026 -1.20091 3.82595 0
M  V30 369 H 37.0926 0.157918 4.28309 0
M  V30 370 H 41.2766 0.941466 4.87289 0
M  V30 371 H 36.5326 2.0381 5.7643 0
M  V30 372 H 40.7066 2.81962 6.36765 0
M  V30 373 H 38.3336 3.3739 6.81229 0
M  V30 374 N 39.9087 -1.5758 0.0250728 0
M  V30 375 C 41.1367 -1.9593 -0.664747 0
M  V30 376 C 41.5517 -0.901352 -1.65895 0
M  V30 377 O 40.9087 0.117255 -1.82123 0
M  V30 378 C 40.9597 -3.34342 -1.37468 0
M  V30 379 O 40.6807 -4.36079 -0.420324 0
M  V30 380 C 42.1817 -3.873 -2.1567 0
M  V30 381 H 39.4017 -0.645405 -0.183557 0
M  V30 382 H 41.9457 -2.04329 0.0836372 0
M  V30 383 H 40.1007 -3.27175 -2.0745 0
M  V30 384 H 40.5147 -5.16297 -0.923991 0
M  V30 385 H 41.9887 -4.86504 -2.60803 0
M  V30 386 H 42.4657 -3.21331 -2.99405 0
M  V30 387 H 43.0717 -3.97723 -1.50654 0
M  V30 388 N 41.3868 0.248026 -1.55636 0
M  V30 389 C 42.6338 0.976224 -1.77415 0
M  V30 390 C 42.9618 1.85361 -0.589193 0
M  V30 391 O 42.2168 1.90973 0.427529 0
M  V30 392 C 42.5158 1.86819 -3.04686 0
M  V30 393 C 42.1818 1.14625 -4.36087 0
M  V30 394 C 40.8438 0.946723 -4.71795 0
M  V30 395 C 43.1958 0.634463 -5.17324 0
M  V30 396 C 40.5238 0.223091 -5.86276 0
M  V30 397 C 42.8758 -0.0756959 -6.32555 0
M  V30 398 C 41.5398 -0.286711 -6.66884 0
M  V30 399 H 40.8098 0.357226 -0.649208 0
M  V30 400 H 43.4568 0.246415 -1.89908 0
M  V30 401 H 41.7618 2.66502 -2.872 0
M  V30 402 H 43.4588 2.43329 -3.18735 0
M  V30 403 H 40.0488 1.3117 -4.08035 0
M  V30 404 H 44.2328 0.77616 -4.90193 0
M  V30 405 H 39.4888 0.0491185 -6.1138 0
M  V30 406 H 43.6628 -0.479899 -6.94745 0
M  V30 407 H 41.2898 -0.849389 -7.5544 0
M  V30 408 N 42.8649 1.48995 0.513639 0
M  V30 409 C 44.0929 1.61531 1.29288 0
M  V30 410 C 44.5079 0.281801 1.86685 0
M  V30 411 O 43.8649 -0.731111 1.67215 0
M  V30 412 C 43.9159 2.67449 2.43215 0
M  V30 413 O 43.6369 3.95626 1.88179 0
M  V30 414 C 45.1379 2.90575 3.34785 0
M  V30 415 H 42.3579 0.544165 0.392588 0
M  V30 416 H 44.9019 1.9494 0.617956 0
M  V30 417 H 43.0569 2.36853 3.0656 0
M  V30 418 H 43.4709 4.53868 2.62876 0
M  V30 419 H 44.9449 3.68449 4.11035 0
M  V30 420 H 45.4219 2.00011 3.91015 0
M  V30 421 H 46.0279 3.22538 2.77218 0
M  V30 422 N 44.343 -0.763751 1.37857 0
M  V30 423 C 45.62 -1.51244 1.24035 0
M  V30 424 C 46 -2.10472 -0.162649 0
M  V30 425 O 45.348 -1.96206 -1.17112 0
M  V30 426 C 45.558 -2.58694 2.34261 0
M  V30 427 C 46.906 -3.25878 2.72193 0
M  V30 428 O 47.93 -2.68993 2.33497 0
M  V30 429 O 46.789 -4.2874 3.38887 0
M  V30 430 H 43.883 -0.670243 0.484462 0
M  V30 431 H 46.429 -0.800031 1.49658 0
M  V30 432 H 45.201 -2.13105 3.2818 0
M  V30 433 H 44.824 -3.37527 2.10146 0
M  V30 434 N 45.8211 -1.22559 -0.990812 0
M  V30 435 C 47.0511 -1.07623 -1.76355 0
M  V30 436 C 47.4591 0.37601 -1.85426 0
M  V30 437 O 46.8021 1.27228 -1.32509 0
M  V30 438 C 46.8641 -1.61507 -3.21179 0
M  V30 439 C 46.5281 -3.10146 -3.35646 0
M  V30 440 C 47.5251 -4.07553 -3.22796 0
M  V30 441 C 45.2101 -3.49644 -3.60631 0
M  V30 442 C 47.2041 -5.42442 -3.34716 0
M  V30 443 C 44.8911 -4.84682 -3.72192 0
M  V30 444 C 45.8891 -5.8089 -3.59243 0
M  V30 445 O 45.5771 -7.13476 -3.70415 0
M  V30 446 H 45.3091 -0.377745 -0.560611 0
M  V30 447 H 47.8631 -1.62658 -1.25425 0
M  V30 448 H 46.0931 -1.00881 -3.73309 0
M  V30 449 H 47.7821 -1.42202 -3.80175 0
M  V30 450 H 48.5481 -3.78381 -3.03403 0
M  V30 451 H 44.4271 -2.75282 -3.69785 0
M  V30 452 H 47.9711 -6.17518 -3.24526 0
M  V30 453 H 43.8681 -5.13534 -3.91092 0
M  V30 454 H 44.6361 -7.21083 -3.87275 0
M  V30 455 N 47.2992 1.18797 -1.03562 0
M  V30 456 C 48.5292 1.92319 -0.754773 0
M  V30 457 C 48.9372 1.7612 0.691248 0
M  V30 458 O 48.2802 1.08491 1.48241 0
M  V30 459 C 48.3422 3.44284 -1.03484 0
M  V30 460 C 48.0062 3.84258 -2.47376 0
M  V30 461 C 49.0032 3.88459 -3.45537 0
M  V30 462 C 46.6882 4.15701 -2.81954 0
M  V30 463 C 48.6822 4.23545 -4.76328 0
M  V30 464 C 46.3692 4.50458 -4.12954 0
M  V30 465 C 47.3672 4.54356 -5.09951 0
M  V30 466 O 47.0552 4.88305 -6.38603 0
M  V30 467 H 46.7872 0.617527 -0.275021 0
M  V30 468 H 49.3412 1.51683 -1.38497 0
M  V30 469 H 47.5712 3.85135 -0.347513 0
M  V30 470 H 49.2602 3.99049 -0.7426 0
M  V30 471 H 50.0262 3.6431 -3.20162 0
M  V30 472 H 45.9052 4.11847 -2.0713 0
M  V30 473 H 49.4492 4.26502 -5.52035 0
M  V30 474 H 45.3462 4.74067 -4.38099 0
M  V30 475 H 46.1142 5.06227 -6.43177 0
M  V30 476 N 48.7773 0.814389 1.34928 0
M  V30 477 C 49.7103 0.175641 2.27523 0
M  V30 478 C 50.6883 -0.662953 1.48471 0
M  V30 479 O 51.8723 -0.628545 1.77712 0
M  V30 480 C 48.9993 -0.755516 3.30166 0
M  V30 481 C 48.0453 0.00445305 4.265 0
M  V30 482 S 48.8783 1.34582 5.18313 0
M  V30 483 C 50.0343 0.419315 6.24494 0
M  V30 484 H 50.2673 0.960691 2.8135 0
M  V30 485 H 47.8003 0.609846 1.41846 0
M  V30 486 H 49.7583 -1.28723 3.89796 0
M  V30 487 H 48.4193 -1.51402 2.75202 0
M  V30 488 H 47.6123 -0.703077 4.99072 0
M  V30 489 H 47.2143 0.466447 3.7108 0
M  V30 490 H 49.5063 -0.392432 6.76362 0
M  V30 491 H 50.4493 1.11446 6.99275 0
M  V30 492 H 50.8573 0.0115389 5.64499 0
M  V30 493 N 50.2554 -1.46986 0.568584 0
M  V30 494 C 51.2034 -2.31858 -0.185649 0
M  V30 495 C 52.1974 -1.43624 -0.898249 0
M  V30 496 O 53.4034 -1.60327 -0.818242 0
M  V30 497 H 49.7784 -0.747866 -0.0787399 0
M  V30 498 H 51.7494 -2.93303 0.549191 0
M  V30 499 C 50.4984 -3.26513 -1.19519 0
M  V30 500 H 49.8214 -3.94377 -0.656285 0
M  V30 501 H 51.2614 -3.88707 -1.6936 0
M  V30 502 C 49.7204 -2.50847 -2.24894 0
M  V30 503 O 50.2504 -2.26119 -3.32014 0
M  V30 504 N 48.4564 -2.11656 -1.99124 0
M  V30 505 H 48.0034 -2.31966 -1.12024 0
M  V30 506 H 47.9614 -1.61347 -2.69842 0
M  V30 507 N 51.7335 -0.305618 -1.54608 0
M  V30 508 C 52.9795 0.295595 -2.01241 0
M  V30 509 C 53.3345 1.51171 -1.19018 0
M  V30 510 O 52.6275 1.89832 -0.259684 0
M  V30 511 C 52.8215 0.698983 -3.50498 0
M  V30 512 C 52.6505 -0.476491 -4.47168 0
M  V30 513 C 51.4205 -0.969963 -4.95903 0
M  V30 514 C 53.6185 -1.32294 -4.96994 0
M  V30 515 N 51.6005 -2.11172 -5.76437 0
M  V30 516 C 52.9715 -2.31212 -5.75275 0
M  V30 517 C 55.0265 -1.35278 -4.7917 0
M  V30 518 C 53.7295 -3.32896 -6.37631 0
M  V30 519 C 55.7555 -2.35823 -5.42348 0
M  V30 520 C 55.1175 -3.33469 -6.20466 0
M  V30 521 H 51.2165 0.0724992 -0.778632 0
M  V30 522 H 53.8005 -0.436583 -1.89742 0
M  V30 523 H 51.9715 1.40032 -3.62278 0
M  V30 524 H 53.7035 1.28013 -3.8392 0
M  V30 525 H 50.4585 -0.544178 -4.70463 0
M  V30 526 H 50.8825 -2.68714 -6.21387 0
M  V30 527 H 55.5245 -0.61157 -4.18354 0
M  V30 528 H 53.2425 -4.07933 -6.97579 0
M  V30 529 H 56.8285 -2.38911 -5.30484 0
M  V30 530 H 55.7085 -4.09996 -6.68485 0
M  V30 531 N 53.2116 1.57565 -0.0334293 0
M  V30 532 C 54.4576 1.92262 0.645226 0
M  V30 533 C 54.7906 0.910543 1.71531 0
M  V30 534 O 54.0656 -0.066099 1.94388 0
M  V30 535 C 54.3486 3.37422 1.2577 0
M  V30 536 C 54.2016 4.49369 0.196891 0
M  V30 537 C 55.5206 3.82628 2.17449 0
M  V30 538 H 52.6396 0.699171 0.233085 0
M  V30 539 H 55.2816 1.89779 -0.0915694 0
M  V30 540 H 53.4316 3.39669 1.88566 0
M  V30 541 H 55.1036 4.59254 -0.433962 0
M  V30 542 H 53.3466 4.31168 -0.477137 0
M  V30 543 H 54.0176 5.47978 0.665124 0
M  V30 544 H 56.4936 3.82145 1.64634 0
M  V30 545 H 55.3696 4.84883 2.57254 0
M  V30 546 H 55.6306 3.18376 3.0674 0
M  V30 547 N 54.6897 -0.239769 1.55765 0
M  V30 548 C 56.1057 -0.588624 1.48349 0
M  V30 549 C 56.3057 -1.88005 0.72502 0
M  V30 550 O 55.3617 -2.51186 0.257269 0
M  V30 551 C 56.6747 -0.68474 2.928 0
M  V30 552 C 58.2227 -0.77659 3.03213 0
M  V30 553 C 58.6977 -0.904207 4.48986 0
M  V30 554 N 60.1887 -0.968896 4.52953 0
M  V30 555 C 60.9237 -1.08703 5.63002 0
M  V30 556 N 60.4197 -1.17026 6.82845 0
M  V30 557 N 62.2127 -1.12074 5.50814 0
M  V30 558 H 54.3637 0.607911 2.03515 0
M  V30 559 H 56.6267 0.21083 0.924259 0
M  V30 560 H 56.3327 0.194284 3.51163 0
M  V30 561 H 56.2067 -1.55435 3.43686 0
M  V30 562 H 58.5937 -1.64606 2.44926 0
M  V30 563 H 58.6747 0.118315 2.55526 0
M  V30 564 H 58.3187 -0.0392633 5.07885 0
M  V30 565 H 58.2487 -1.81426 4.9436 0
M  V30 566 H 60.7397 -0.915633 3.6664 0
M  V30 567 H 61.0527 -1.25966 7.62465 0
M  V30 568 H 59.3977 -1.13971 6.85591 0
M  V30 569 H 62.5887 -1.05226 4.5612 0
M  V30 570 H 62.7617 -1.20936 6.36615 0
M  V30 571 N 56.1678 -1.49265 -0.50573 0
M  V30 572 C 57.0998 -1.617 -1.62437 0
M  V30 573 C 58.1128 -0.499924 -1.54934 0
M  V30 574 O 59.3018 -0.771785 -1.60953 0
M  V30 575 C 56.4018 -1.5533 -3.01207 0
M  V30 576 C 55.5748 -2.8249 -3.33943 0
M  V30 577 C 54.6338 -2.69238 -4.52103 0
M  V30 578 O 53.6598 -3.43167 -4.5412 0
M  V30 579 N 54.8618 -1.80468 -5.51735 0
M  V30 580 H 57.6268 -2.58177 -1.52199 0
M  V30 581 H 55.1878 -1.46294 -0.693511 0
M  V30 582 H 57.1798 -1.44125 -3.78167 0
M  V30 583 H 55.7498 -0.667297 -3.05395 0
M  V30 584 H 54.9698 -3.08081 -2.45926 0
M  V30 585 H 56.2578 -3.66802 -3.5261 0
M  V30 586 H 55.6558 -1.19653 -5.52901 0
M  V30 587 H 54.2128 -1.75188 -6.27816 0
M  V30 588 N 57.6459 0.756429 -1.3826 0
M  V30 589 C 59.0569 1.33359 -1.30661 0
M  V30 590 C 59.4079 1.96161 0.0388875 0
M  V30 591 O 58.5329 1.94874 0.940918 0
M  V30 592 C 59.1279 2.42477 -2.36622 0
M  V30 593 C 57.6869 2.95922 -2.3261 0
M  V30 594 C 56.8339 1.69275 -2.19639 0
M  V30 595 H 59.7849 0.55552 -1.4866 0
M  V30 596 H 59.8059 3.22345 -2.02174 0
M  V30 597 H 59.3179 1.96739 -3.34538 0
M  V30 598 H 57.4189 3.45996 -1.38267 0
M  V30 599 H 57.5319 3.50494 -3.26636 0
M  V30 600 H 55.8959 1.92793 -1.66442 0
M  V30 601 H 56.6789 1.25619 -3.19491 0
M  V30 602 N 59.124 1.23083 0.984299 0
M  V30 603 C 60.535 1.05609 1.5396 0
M  V30 604 C 60.886 -0.377793 1.92528 0
M  V30 605 O 60.011 -1.26398 1.75649 0
M  V30 606 C 60.606 1.91087 2.7977 0
M  V30 607 C 59.165 1.77885 3.31713 0
M  V30 608 C 58.312 1.87028 2.04733 0
M  V30 609 H 61.263 1.36802 0.804419 0
M  V30 610 H 61.284 1.43336 3.5247 0
M  V30 611 H 60.796 2.9544 2.51668 0
M  V30 612 H 58.897 0.762995 3.64704 0
M  V30 613 H 59.01 2.61047 4.01735 0
M  V30 614 H 57.374 1.30565 2.18689 0
M  V30 615 H 58.157 2.92929 1.79017 0
M  V30 616 N 60.6021 -1.18246 1.0419 0
M  V30 617 C 61.8501 -1.87886 0.744543 0
M  V30 618 C 62.1711 -1.8082 -0.730006 0
M  V30 619 O 61.4411 -1.22736 -1.52685 0
M  V30 620 H 60.0211 -0.695556 0.272417 0
M  V30 621 H 62.6831 -1.43494 1.31892 0
M  V30 622 H 61.7791 -2.9389 1.05049 0
M  V30 623 N 62.0802 -0.821533 -1.34494 0
M  V30 624 C 63.0272 -0.240397 -2.29545 0
M  V30 625 C 63.9972 0.634031 -1.53523 0
M  V30 626 O 65.1822 0.575966 -1.81899 0
M  V30 627 C 62.3222 0.592869 -3.39969 0
M  V30 628 C 61.4352 -0.30365 -4.30932 0
M  V30 629 C 60.5702 0.539049 -5.28458 0
M  V30 630 C 59.6092 -0.356942 -6.11058 0
M  V30 631 N 58.7462 0.446603 -7.00678 0
M  V30 632 H 63.5862 -1.05632 -2.7865 0
M  V30 633 H 61.1232 -0.532413 -1.37127 0
M  V30 634 H 63.0812 1.09129 -4.02675 0
M  V30 635 H 61.7112 1.37392 -2.92102 0
M  V30 636 H 60.7632 -0.920276 -3.691 0
M  V30 637 H 62.0752 -0.992661 -4.88823 0
M  V30 638 H 61.2292 1.102 -5.96608 0
M  V30 639 H 59.9682 1.26157 -4.71101 0
M  V30 640 H 58.9732 -0.932047 -5.41842 0
M  V30 641 H 60.1982 -1.07755 -6.70497 0
M  V30 642 H 58.1442 1.15282 -6.45791 0
M  V30 643 H 58.0612 -0.184048 -7.55776 0
M  V30 644 H 59.3292 0.992352 -7.73158 0
M  V30 645 N 63.5583 1.46682 -0.576371 0
M  V30 646 C 64.5213 2.28707 0.150239 0
M  V30 647 C 65.5213 1.38035 0.824794 0
M  V30 648 O 66.7113 1.60476 0.677719 0
M  V30 649 C 63.8433 3.18248 1.22192 0
M  V30 650 H 65.0363 2.94423 -0.570521 0
M  V30 651 H 62.5893 1.52688 -0.334078 0
M  V30 652 H 63.3243 2.57265 1.97447 0
M  V30 653 H 63.1093 3.85 0.742812 0
M  V30 654 H 64.5993 3.80001 1.73172 0
M  V30 655 N 65.0364 0.313813 1.54444 0
M  V30 656 C 65.9664 -0.549454 2.26943 0
M  V30 657 C 66.9474 -1.12741 1.27372 0
M  V30 658 O 68.1324 -1.15436 1.56167 0
M  V30 659 C 65.2624 -1.71523 3.01989 0
M  V30 660 C 64.2164 -1.26703 4.08816 0
M  V30 661 C 63.5424 -2.51898 4.71647 0
M  V30 662 C 64.8424 -0.388962 5.2085 0
M  V30 663 H 66.5364 0.0552661 2.99349 0
M  V30 664 H 64.0824 0.0280207 1.43973 0
M  V30 665 H 66.0354 -2.32535 3.51433 0
M  V30 666 H 64.7594 -2.34639 2.27183 0
M  V30 667 H 63.4184 -0.679896 3.6024 0
M  V30 668 H 63.0664 -3.13356 3.93468 0
M  V30 669 H 62.7664 -2.22605 5.43802 0
M  V30 670 H 64.2904 -3.1369 5.23861 0
M  V30 671 H 65.7044 -0.905107 5.6611 0
M  V30 672 H 64.1014 -0.18924 5.99802 0
M  V30 673 H 65.1714 0.582699 4.81386 0
M  V30 674 N 66.5145 -1.57545 0.0417849 0
M  V30 675 C 67.4245 -2.14451 -0.951213 0
M  V30 676 C 68.4405 -1.09992 -1.34825 0
M  V30 677 O 69.6165 -1.42114 -1.42708 0
M  V30 678 C 66.6815 -2.67063 -2.21084 0
M  V30 679 C 65.7425 -3.86284 -1.87304 0
M  V30 680 C 64.9755 -4.36378 -3.07261 0
M  V30 681 O 65.1985 -3.85587 -4.20332 0
M  V30 682 O 64.1325 -5.28077 -2.88822 0
M  V30 683 H 67.9585 -2.99601 -0.497287 0
M  V30 684 H 65.5435 -1.48317 -0.179567 0
M  V30 685 H 67.4255 -3.00914 -2.95006 0
M  V30 686 H 66.1005 -1.84989 -2.65633 0
M  V30 687 H 65.0075 -3.57338 -1.10727 0
M  V30 688 H 66.3405 -4.6956 -1.47562 0
M  V30 689 N 67.9926 0.231505 -1.5589 0
M  V30 690 C 69.2386 0.954429 -1.79617 0
M  V30 691 C 69.5936 1.82367 -0.613199 0
M  V30 692 O 68.8866 1.87524 0.393094 0
M  V30 693 C 69.0806 1.83577 -3.0665 0
M  V30 694 C 68.9096 1.05334 -4.3719 0
M  V30 695 C 67.6796 0.75225 -4.99669 0
M  V30 696 C 69.8776 0.423444 -5.12554 0
M  V30 697 N 67.8596 -0.052627 -6.13877 0
M  V30 698 C 69.2306 -0.245287 -6.19515 0
M  V30 699 C 71.2856 0.335466 -4.96769 0
M  V30 700 C 69.9886 -0.993566 -7.12405 0
M  V30 701 C 72.0146 -0.399321 -5.9005 0
M  V30 702 C 71.3766 -1.05663 -6.9643 0
M  V30 703 H 67.4756 0.329846 -0.709031 0
M  V30 704 H 70.0596 0.226172 -1.93382 0
M  V30 705 H 68.2306 2.53592 -2.94186 0
M  V30 706 H 69.9626 2.49541 -3.18608 0
M  V30 707 H 66.7176 1.06783 -4.61405 0
M  V30 708 H 67.1416 -0.443609 -6.75545 0
M  V30 709 H 71.7836 0.829311 -4.14587 0
M  V30 710 H 69.5016 -1.49896 -7.94076 0
M  V30 711 H 73.0876 -0.468265 -5.79913 0
M  V30 712 H 71.9676 -1.61612 -7.67366 0
M  V30 713 N 69.4707 1.49531 0.497807 0
M  V30 714 C 70.4007 1.6935 1.60757 0
M  V30 715 C 71.3817 0.542218 1.61227 0
M  V30 716 O 72.5667 0.778417 1.77917 0
M  V30 717 C 69.6967 1.76298 2.99226 0
M  V30 718 C 68.6507 2.91248 3.13622 0
M  V30 719 C 67.9767 2.83312 4.53474 0
M  V30 720 C 69.2767 4.3214 2.93346 0
M  V30 721 H 70.9707 2.62263 1.44425 0
M  V30 722 H 68.5167 1.26208 0.693367 0
M  V30 723 H 70.4697 1.88749 3.76765 0
M  V30 724 H 69.1937 0.799871 3.16654 0
M  V30 725 H 67.8527 2.78404 2.38509 0
M  V30 726 H 67.5007 1.84902 4.67782 0
M  V30 727 H 67.2007 3.60465 4.64046 0
M  V30 728 H 68.7247 2.97775 5.33069 0
M  V30 729 H 70.1387 4.45649 3.60652 0
M  V30 730 H 68.5357 5.1054 3.15387 0
M  V30 731 H 69.6057 4.46363 1.89441 0
M  V30 732 N 70.9488 -0.749086 1.3866 0
M  V30 733 C 72.1968 -1.50535 1.34847 0
M  V30 734 C 72.5178 -1.94909 -0.0595016 0
M  V30 735 O 71.7878 -1.67973 -1.00806 0
M  V30 736 H 70.3678 -0.558395 0.49619 0
M  V30 737 H 73.0298 -0.890165 1.73384 0
M  V30 738 H 72.1258 -2.39413 2.00219 0
M  V30 739 N 72.4269 -1.23603 -0.977757 0
M  V30 740 C 73.6739 -1.06971 -1.71941 0
M  V30 741 C 74.0019 0.393009 -1.90488 0
M  V30 742 O 73.2569 1.30719 -1.4564 0
M  V30 743 C 73.5559 -1.7433 -3.11999 0
M  V30 744 C 73.2219 -3.24252 -3.13323 0
M  V30 745 C 71.8839 -3.65156 -3.13392 0
M  V30 746 C 74.2359 -4.20141 -3.08433 0
M  V30 747 C 71.5639 -5.00403 -3.0629 0
M  V30 748 C 73.9159 -5.55384 -3.02873 0
M  V30 749 C 72.5799 -5.95647 -3.01265 0
M  V30 750 H 71.8499 -0.391433 -0.629175 0
M  V30 751 H 74.4969 -1.53572 -1.14403 0
M  V30 752 H 72.8019 -1.20096 -3.7294 0
M  V30 753 H 74.4989 -1.58936 -3.68158 0
M  V30 754 H 71.0889 -2.91692 -3.14029 0
M  V30 755 H 75.2729 -3.89547 -3.07517 0
M  V30 756 H 70.5289 -5.3081 -3.03399 0
M  V30 757 H 74.7029 -6.29398 -2.98046 0
M  V30 758 H 72.3299 -7.0041 -2.95516 0
M  V30 759 N 73.905 1.17692 -1.04816 0
M  V30 760 C 75.154 1.87192 -0.751132 0
M  V30 761 C 75.467 1.8169 0.724441 0
M  V30 762 O 76.673 2.46625 1.13527 0
M  V30 763 C 75.129 3.35857 -1.29338 0
M  V30 764 C 74.737 3.4987 -2.79812 0
M  V30 765 C 76.481 4.10709 -1.07322 0
M  V30 766 C 74.388 4.92536 -3.27356 0
M  V30 767 H 73.318 0.701162 -0.277288 0
M  V30 768 H 75.969 1.32932 -1.26496 0
M  V30 769 H 74.351 3.89631 -0.707376 0
M  V30 770 H 75.525 3.06332 -3.44235 0
M  V30 771 H 73.84 2.88433 -3.00325 0
M  V30 772 H 76.437 5.15952 -1.4035 0
M  V30 773 H 76.78 4.16299 -0.0108001 0
M  V30 774 H 77.313 3.6313 -1.62423 0
M  V30 775 H 74.052 4.92119 -4.33012 0
M  V30 776 H 73.572 5.3676 -2.67673 0
M  V30 777 H 75.251 5.61288 -3.21815 0
M  V30 778 N 75.3831 0.828654 1.34056 0
M  V30 779 C 76.6311 0.41863 1.97717 0
M  V30 780 C 76.9521 -1.02314 1.66002 0
M  V30 781 O 76.2221 -1.71119 0.953683 0
M  V30 782 H 74.8021 0.151809 0.731412 0
M  V30 783 H 77.4641 1.05936 1.63596 0
M  V30 784 H 76.5601 0.542318 3.07352 0
M  V30 785 N 76.8612 -1.46375 0.584142 0
M  V30 786 C 77.8092 -2.32042 -0.161047 0
M  V30 787 C 78.8032 -1.44569 -0.882966 0
M  V30 788 O 80.0092 -1.61186 -0.801191 0
M  V30 789 H 76.3842 -0.748659 -0.0708033 0
M  V30 790 H 78.3552 -2.92704 0.580269 0
M  V30 791 C 77.1042 -3.27762 -1.1605 0
M  V30 792 H 76.4272 -3.95051 -0.614419 0
M  V30 793 H 77.8672 -3.90481 -1.65228 0
M  V30 794 C 76.3262 -2.53218 -2.22221 0
M  V30 795 O 76.8562 -2.29628 -3.29597 0
M  V30 796 N 75.0622 -2.13756 -1.96868 0
M  V30 797 H 74.6092 -2.33142 -1.09557 0
M  V30 798 H 74.5672 -1.642 -2.68115 0
M  V30 799 N 78.3393 -0.321999 -1.54275 0
M  V30 800 C 79.2863 0.544664 -2.24281 0
M  V30 801 C 80.2563 1.1129 -1.23303 0
M  V30 802 O 81.4413 1.15354 -1.51981 0
M  V30 803 C 78.5813 1.70045 -3.00298 0
M  V30 804 C 77.6943 1.16159 -4.1609 0
M  V30 805 C 76.8293 2.28293 -4.79641 0
M  V30 806 C 75.8683 1.71648 -5.8754 0
M  V30 807 N 75.0053 2.77438 -6.44959 0
M  V30 808 H 79.8453 -0.0588907 -2.97942 0
M  V30 809 H 77.3823 -0.0408345 -1.47043 0
M  V30 810 H 79.3403 2.38054 -3.42616 0
M  V30 811 H 77.9703 2.27531 -2.28975 0
M  V30 812 H 77.0223 0.373092 -3.78566 0
M  V30 813 H 78.3343 0.707087 -4.93763 0
M  V30 814 H 77.4883 3.0421 -5.2492 0
M  V30 815 H 76.2273 2.77079 -4.01346 0
M  V30 816 H 75.2323 0.942282 -5.41665 0
M  V30 817 H 76.4573 1.23741 -6.67731 0
M  V30 818 H 74.4033 3.25519 -5.69538 0
M  V30 819 H 74.3203 2.36547 -7.1804 0
M  V30 820 H 75.5883 3.53189 -6.94894 0
M  V30 821 N 79.8174 1.5752 -0.0501392 0
M  V30 822 C 80.7804 2.1037 0.909786 0
M  V30 823 C 81.7804 1.02308 1.24056 0
M  V30 824 O 82.9704 1.28385 1.17741 0
M  V30 825 C 80.1024 2.58708 2.21998 0
M  V30 826 H 81.2954 2.96479 0.451665 0
M  V30 827 H 78.8484 1.55038 0.198248 0
M  V30 828 H 79.5834 1.75989 2.72394 0
M  V30 829 H 79.3684 3.37675 1.99295 0
M  V30 830 H 80.8584 2.99747 2.9076 0
M  V30 831 N 81.2955 -0.223234 1.56011 0
M  V30 832 C 82.2435 -1.29627 1.93131 0
M  V30 833 C 83.2375 -1.48608 0.813146 0
M  V30 834 O 84.4435 -1.49802 0.997966 0
M  V30 835 H 80.8185 -0.434563 0.613726 0
M  V30 836 H 82.7895 -0.955995 2.82672 0
M  V30 837 C 81.5385 -2.63983 2.26292 0
M  V30 838 H 80.8615 -2.50185 3.11846 0
M  V30 839 H 82.3015 -3.3788 2.56151 0
M  V30 840 C 80.7605 -3.18866 1.08747 0
M  V30 841 O 81.2905 -4.00192 0.347727 0
M  V30 842 N 79.4965 -2.77217 0.871743 0
M  V30 843 H 79.0435 -2.1119 1.47501 0
M  V30 844 H 79.0015 -3.1428 0.0869905 0
M  V30 845 N 82.7736 -1.49793 -0.48987 0
M  V30 846 C 84.0216 -1.59525 -1.24081 0
M  V30 847 C 84.3426 -0.288953 -1.92847 0
M  V30 848 O 83.6126 0.692436 -1.83254 0
M  V30 849 H 82.1926 -0.587796 -0.460983 0
M  V30 850 H 84.8546 -1.86477 -0.566778 0
M  V30 851 H 83.9506 -2.39696 -1.99881 0
M  V30 852 N 84.2517 0.741722 -1.39055 0
M  V30 853 C 85.4817 1.52876 -1.3897 0
M  V30 854 C 85.8897 1.8919 0.0193266 0
M  V30 855 O 85.2327 1.54138 0.999356 0
M  V30 856 C 85.2947 2.84929 -2.19216 0
M  V30 857 C 84.9587 2.71086 -3.67915 0
M  V30 858 C 85.9557 2.40084 -4.61146 0
M  V30 859 C 83.6407 2.88168 -4.11418 0
M  V30 860 C 85.6347 2.26335 -5.95862 0
M  V30 861 C 83.3217 2.74037 -5.46211 0
M  V30 862 C 84.3197 2.43166 -6.38247 0
M  V30 863 O 84.0077 2.29115 -7.70559 0
M  V30 864 H 83.7397 0.479252 -0.476753 0
M  V30 865 H 86.2937 0.924751 -1.83405 0
M  V30 866 H 84.5237 3.47564 -1.69518 0
M  V30 867 H 86.2127 3.46509 -2.11392 0
M  V30 868 H 86.9787 2.26545 -4.28838 0
M  V30 869 H 82.8577 3.11191 -3.40119 0
M  V30 870 H 86.4017 2.0216 -6.67665 0
M  V30 871 H 82.2987 2.87153 -5.78112 0
M  V30 872 H 83.0667 2.44237 -7.81211 0
M  V30 873 N 85.7298 1.2412 0.971189 0
M  V30 874 C 86.9578 1.10575 1.74874 0
M  V30 875 C 87.3728 -0.342017 1.85676 0
M  V30 876 O 86.7298 -1.23617 1.34258 0
M  V30 877 C 86.7808 1.73579 3.171 0
M  V30 878 O 86.5018 3.12695 3.06844 0
M  V30 879 C 88.0028 1.65598 4.11208 0
M  V30 880 H 85.2228 0.386504 0.548503 0
M  V30 881 H 87.7668 1.64156 1.21955 0
M  V30 882 H 85.9218 1.24009 3.67016 0
M  V30 883 H 86.3358 3.43412 3.96445 0
M  V30 884 H 87.8098 2.1437 5.08674 0
M  V30 885 H 88.2868 0.616532 4.34851 0
M  V30 886 H 88.8928 2.14578 3.67201 0
M  V30 887 N 87.2079 -1.17134 1.05439 0
M  V30 888 C 88.4359 -1.91372 0.786414 0
M  V30 889 C 88.8509 -1.76955 -0.658202 0
M  V30 890 O 88.2079 -1.10838 -1.44987 0
M  V30 891 C 88.2589 -3.42356 1.1608 0
M  V30 892 O 87.9799 -3.56332 2.54871 0
M  V30 893 C 89.4809 -4.33663 0.919322 0
M  V30 894 H 86.7009 -0.607118 0.285743 0
M  V30 895 H 89.2449 -1.48525 1.40572 0
M  V30 896 H 87.3999 -3.82939 0.586191 0
M  V30 897 H 87.8139 -4.49896 2.69618 0
M  V30 898 H 89.2879 -5.38099 1.231 0
M  V30 899 H 89.7649 -4.38959 -0.145359 0
M  V30 900 H 90.3709 -3.98796 1.47789 0
M  V30 901 N 88.686 -0.835752 -1.33615 0
M  V30 902 C 89.596 -0.269088 -2.33052 0
M  V30 903 C 90.612 0.603251 -1.63208 0
M  V30 904 O 91.788 0.508112 -1.94885 0
M  V30 905 C 88.853 0.549091 -3.42324 0
M  V30 906 C 87.914 -0.347156 -4.27894 0
M  V30 907 C 87.147 0.43207 -5.31948 0
M  V30 908 O 87.37 1.66409 -5.45586 0
M  V30 909 O 86.304 -0.192298 -6.01593 0
M  V30 910 H 90.13 -1.09243 -2.83372 0
M  V30 911 H 87.715 -0.598198 -1.36901 0
M  V30 912 H 89.597 1.01414 -4.09015 0
M  V30 913 H 88.272 1.34955 -2.94226 0
M  V30 914 H 87.179 -0.859979 -3.64081 0
M  V30 915 H 88.512 -1.1123 -4.79467 0
M  V30 916 N 90.1641 1.46063 -0.591896 0
M  V30 917 C 91.3941 2.06418 -0.0867676 0
M  V30 918 C 91.8021 1.43975 1.22751 0
M  V30 919 O 91.1451 0.542531 1.75506 0
M  V30 920 C 91.2071 3.59213 0.143725 0
M  V30 921 C 90.8711 4.439 -1.08635 0
M  V30 922 C 91.8681 4.79864 -2.00067 0
M  V30 923 C 89.5531 4.84896 -1.31077 0
M  V30 924 C 91.5471 5.55661 -3.12282 0
M  V30 925 C 89.2341 5.6045 -2.43596 0
M  V30 926 C 90.2321 5.95747 -3.34027 0
M  V30 927 O 89.9201 6.69772 -4.4459 0
M  V30 928 H 89.6521 0.673443 -0.0587447 0
M  V30 929 H 92.2061 1.88539 -0.814994 0
M  V30 930 H 90.4361 3.75433 0.926668 0
M  V30 931 H 92.1251 4.01463 0.5985 0
M  V30 932 H 92.8911 4.48763 -1.83947 0
M  V30 933 H 88.7701 4.56867 -0.61594 0
M  V30 934 H 92.3141 5.8313 -3.82891 0
M  V30 935 H 88.2111 5.90965 -2.59674 0
M  V30 936 H 88.9791 6.88207 -4.43073 0
M  V30 937 N 91.6422 0.330177 1.54103 0
M  V30 938 C 92.8672 -0.274893 2.0557 0
M  V30 939 C 93.2922 -1.44487 1.20437 0
M  V30 940 O 92.6502 -1.80021 0.214991 0
M  V30 941 C 92.6982 -0.68079 3.54115 0
M  V30 942 O 91.8022 -1.7824 3.71893 0
M  V30 943 H 91.1432 -0.0483849 0.662235 0
M  V30 944 H 93.6732 0.480508 1.98878 0
M  V30 945 H 93.6832 -0.961635 3.96505 0
M  V30 946 H 92.3582 0.174903 4.15532 0
M  V30 947 H 90.9352 -1.49985 3.41407 0
M  V30 948 N 93.1203 -1.57491 0.0584922 0
M  V30 949 C 94.0833 -2.1085 -0.898617 0
M  V30 950 C 95.0833 -1.02964 -1.23511 0
M  V30 951 O 96.2733 -1.29007 -1.17059 0
M  V30 952 C 93.4053 -2.59881 -2.20623 0
M  V30 953 H 94.5983 -2.96715 -0.435936 0
M  V30 954 H 92.1513 -1.55141 -0.190023 0
M  V30 955 H 92.8863 -1.77431 -2.71457 0
M  V30 956 H 92.6713 -3.38727 -1.97501 0
M  V30 957 H 94.1613 -3.01285 -2.89166 0
M  V30 958 N 94.5984 0.214957 -1.56127 0
M  V30 959 C 95.8234 0.95924 -1.83884 0
M  V30 960 C 96.2484 1.7689 -0.639644 0
M  V30 961 O 95.6064 1.76566 0.411601 0
M  V30 962 C 95.6544 1.84723 -3.09693 0
M  V30 963 O 94.7584 2.94346 -2.8885 0
M  V30 964 H 94.0994 0.27125 -0.606069 0
M  V30 965 H 96.6294 0.226276 -2.03345 0
M  V30 966 H 96.6394 2.25576 -3.39969 0
M  V30 967 H 95.3144 1.25218 -3.96602 0
M  V30 968 H 93.8914 2.57391 -2.69823 0
M  V30 969 N 96.0765 1.50051 0.48192 0
M  V30 970 C 97.3225 1.60736 1.2366 0
M  V30 971 C 97.6555 0.301786 1.91841 0
M  V30 972 O 96.9305 -0.696025 1.8162 0
M  V30 973 C 97.2135 2.78009 2.28874 0
M  V30 974 C 97.0665 4.18416 1.65069 0
M  V30 975 C 98.3855 2.90867 3.30279 0
M  V30 976 H 95.5045 0.585031 0.448228 0
M  V30 977 H 98.1465 1.82402 0.531946 0
M  V30 978 H 96.2965 2.59667 2.88973 0
M  V30 979 H 97.9685 4.48322 1.0865 0
M  V30 980 H 96.2115 4.23177 0.954148 0
M  V30 981 H 96.8825 4.96381 2.41474 0
M  V30 982 H 99.3585 3.07623 2.80191 0
M  V30 983 H 98.2345 3.74566 4.01238 0
M  V30 984 H 98.4955 2.01021 3.93755 0
M  V30 985 N 97.5546 -0.734337 1.39446 0
M  V30 986 C 98.5016 -1.84835 1.38219 0
M  V30 987 C 99.4716 -1.64331 0.24179 0
M  V30 988 O 100.657 -1.85728 0.437002 0
M  V30 989 C 97.7966 -3.22355 1.23212 0
M  V30 990 C 96.9096 -3.5456 2.46801 0
M  V30 991 C 96.0446 -4.81485 2.24377 0
M  V30 992 C 95.0836 -5.06536 3.43639 0
M  V30 993 N 94.2206 -6.24665 3.20528 0
M  V30 994 H 99.0606 -1.85219 2.33448 0
M  V30 995 H 96.5976 -0.905039 1.15963 0
M  V30 996 H 98.5556 -4.0174 1.12522 0
M  V30 997 H 97.1856 -3.21248 0.316121 0
M  V30 998 H 96.2376 -2.69872 2.68092 0
M  V30 999 H 97.5496 -3.6899 3.3563 0
M  V30 1000 H 96.7036 -5.68852 2.10933 0
M  V30 1001 H 95.4426 -4.6923 1.32944 0
M  V30 1002 H 94.4476 -4.17632 3.5758 0
M  V30 1003 H 95.6726 -5.20676 4.35974 0
M  V30 1004 H 93.6186 -6.13696 2.3176 0
M  V30 1005 H 93.5356 -6.39685 4.02913 0
M  V30 1006 H 94.8036 -7.14868 3.10779 0
M  V30 1007 N 99.0327 -1.24633 -0.964593 0
M  V30 1008 C 100.281 -1.08573 -1.70459 0
M  V30 1009 C 100.602 0.375655 -1.91347 0
M  V30 1010 O 99.8717 1.26779 -1.49345 0
M  V30 1011 H 98.4517 -0.398784 -0.631649 0
M  V30 1012 H 101.114 -1.56601 -1.16026 0
M  V30 1013 H 100.21 -1.58623 -2.68785 0
M  V30 1014 N 100.511 1.16574 -1.06058 0
M  V30 1015 C 101.927 1.3904 -0.783585 0
M  V30 1016 C 102.127 1.91784 0.618145 0
M  V30 1017 O 101.183 2.11511 1.37911 0
M  V30 1018 C 102.496 2.37329 -1.84649 0
M  V30 1019 C 104.044 2.51018 -1.86973 0
M  V30 1020 C 104.519 3.52588 -2.92311 0
M  V30 1021 N 106.01 3.60113 -2.91329 0
M  V30 1022 C 106.745 4.38486 -3.69482 0
M  V30 1023 N 106.241 5.20302 -4.57447 0
M  V30 1024 N 108.034 4.33446 -3.57885 0
M  V30 1025 H 100.185 0.806725 -1.96483 0
M  V30 1026 H 102.448 0.417117 -0.851303 0
M  V30 1027 H 102.154 2.05663 -2.85299 0
M  V30 1028 H 102.028 3.36946 -1.6955 0
M  V30 1029 H 104.415 2.81989 -0.869827 0
M  V30 1030 H 104.496 1.51445 -2.0615 0
M  V30 1031 H 104.14 3.22354 -3.92492 0
M  V30 1032 H 104.07 4.51886 -2.70383 0
M  V30 1033 H 106.561 3.01707 -2.27555 0
M  V30 1034 H 106.874 5.77311 -5.13743 0
M  V30 1035 H 105.219 5.19653 -4.61503 0
M  V30 1036 H 108.41 3.68586 -2.88551 0
M  V30 1037 H 108.583 4.94279 -4.19037 0
M  V30 1038 N 101.989 0.842826 1.3317 0
M  V30 1039 C 103.236 0.440447 1.97652 0
M  V30 1040 C 103.564 -1.00123 1.6675 0
M  V30 1041 O 102.819 -1.7155 0.941761 0
M  V30 1042 C 103.118 0.612607 3.52111 0
M  V30 1043 C 102.784 2.02297 4.02972 0
M  V30 1044 C 101.446 2.40874 4.16573 0
M  V30 1045 C 103.798 2.94402 4.30089 0
M  V30 1046 C 101.126 3.70852 4.54627 0
M  V30 1047 C 103.478 4.23865 4.69597 0
M  V30 1048 C 102.142 4.62392 4.81404 0
M  V30 1049 H 101.412 0.161171 0.72326 0
M  V30 1050 H 104.059 1.07061 1.58777 0
M  V30 1051 H 102.364 -0.100849 3.9167 0
M  V30 1052 H 104.061 0.2815 4.00011 0
M  V30 1053 H 100.651 1.71338 3.92863 0
M  V30 1054 H 104.835 2.65835 4.19101 0
M  V30 1055 H 100.091 4.00501 4.61962 0
M  V30 1056 H 104.265 4.95306 4.89536 0
M  V30 1057 H 101.892 5.63154 5.10648 0
M  V30 1058 N 103.467 -1.45747 0.599634 0
M  V30 1059 C 104.695 -2.06668 0.0978551 0
M  V30 1060 C 105.11 -1.44562 -1.21439 0
M  V30 1061 O 104.467 -0.556923 -1.73795 0
M  V30 1062 C 104.518 -3.61456 -0.0567044 0
M  V30 1063 O 104.239 -4.21242 1.20361 0
M  V30 1064 C 105.74 -4.39345 -0.590869 0
M  V30 1065 H 102.96 -0.667825 0.0651943 0
M  V30 1066 H 105.504 -1.87115 0.82511 0
M  V30 1067 H 103.659 -3.80378 -0.734251 0
M  V30 1068 H 104.073 -5.14323 1.02821 0
M  V30 1069 H 105.547 -5.48182 -0.648131 0
M  V30 1070 H 106.024 -4.08568 -1.61147 0
M  V30 1071 H 106.63 -4.25268 0.0523679 0
M  V30 1072 N 104.945 -0.338344 -1.53925 0
M  V30 1073 C 106.194 0.260732 -2.00008 0
M  V30 1074 C 106.507 1.52073 -1.23017 0
M  V30 1075 O 107.713 2.19672 -1.5955 0
M  V30 1076 C 106.169 0.51515 -3.56194 0
M  V30 1077 C 105.777 -0.728645 -4.42035 0
M  V30 1078 C 107.521 1.07337 -4.10706 0
M  V30 1079 C 105.428 -0.445315 -5.89721 0
M  V30 1080 H 104.358 0.101205 -0.747177 0
M  V30 1081 H 107.009 -0.452866 -1.77824 0
M  V30 1082 H 105.391 1.28932 -3.74423 0
M  V30 1083 H 106.565 -1.50352 -4.35581 0
M  V30 1084 H 104.88 -1.20813 -3.98489 0
M  V30 1085 H 107.477 1.30022 -5.18651 0
M  V30 1086 H 107.82 2.0273 -3.63602 0
M  V30 1087 H 108.353 0.360034 -3.96167 0
M  V30 1088 H 105.092 -1.36883 -6.41049 0
M  V30 1089 H 104.612 0.291569 -5.99091 0
M  V30 1090 H 106.291 -0.0606218 -6.46972 0
M  V30 1091 N 106.423 1.57458 -0.0668435 0
M  V30 1092 C 107.648 1.9804 0.616027 0
M  V30 1093 C 108.073 0.944771 1.62652 0
M  V30 1094 O 107.431 -0.0902094 1.81075 0
M  V30 1095 C 107.479 3.37665 1.26549 0
M  V30 1096 O 106.583 3.36701 2.38131 0
M  V30 1097 H 105.924 0.644719 0.158849 0
M  V30 1098 H 108.454 2.04121 -0.139891 0
M  V30 1099 H 108.464 3.7474 1.6135 0
M  V30 1100 H 107.139 4.12573 0.525016 0
M  V30 1101 H 105.716 3.1139 2.0516 0
M  V30 1102 N 107.901 -0.206675 1.56239 0
M  V30 1103 C 109.317 -0.557025 1.49564 0
M  V30 1104 C 109.517 -1.86424 0.764735 0
M  V30 1105 O 108.573 -2.50584 0.310491 0
M  V30 1106 C 109.886 -0.622478 2.94186 0
M  V30 1107 C 111.434 -0.712099 3.04792 0
M  V30 1108 C 111.909 -0.808767 4.50803 0
M  V30 1109 N 113.4 -0.8726 4.54907 0
M  V30 1110 C 114.135 -0.967365 5.65181 0
M  V30 1111 N 113.631 -1.02515 6.85173 0
M  V30 1112 N 115.424 -1.00366 5.53067 0
M  V30 1113 H 107.575 0.650943 2.02179 0
M  V30 1114 H 109.838 0.230387 0.919579 0
M  V30 1115 H 109.544 0.268727 3.50672 0
M  V30 1116 H 109.418 -1.4811 3.46905 0
M  V30 1117 H 111.805 -1.59374 2.48363 0
M  V30 1118 H 111.886 0.172489 2.55218 0
M  V30 1119 H 111.53 0.0684754 5.07854 0
M  V30 1120 H 111.46 -1.70899 4.98098 0
M  V30 1121 H 113.951 -0.837657 3.68499 0
M  V30 1122 H 114.264 -1.09765 7.64965 0
M  V30 1123 H 112.609 -0.994026 6.87855 0
M  V30 1124 H 115.8 -0.95527 4.58249 0
M  V30 1125 H 115.973 -1.07405 6.39037 0
M  V30 1126 N 109.379 -1.50304 -0.473955 0
M  V30 1127 C 110.656 -1.51667 -1.23518 0
M  V30 1128 C 111.036 -0.259701 -2.09496 0
M  V30 1129 O 110.384 0.756986 -2.15597 0
M  V30 1130 C 110.594 -2.81082 -2.06868 0
M  V30 1131 C 111.942 -3.31631 -2.65153 0
M  V30 1132 O 112.966 -2.82384 -2.17113 0
M  V30 1133 O 111.825 -4.17471 -3.52675 0
M  V30 1134 H 108.919 -0.60822 -0.560355 0
M  V30 1135 H 111.465 -1.62592 -0.486011 0
M  V30 1136 H 110.237 -3.64041 -1.4349 0
M  V30 1137 H 109.86 -2.73146 -2.88924 0
M  V30 1138 N 110.857 0.726932 -1.39834 0
M  V30 1139 C 111.804 1.841 -1.39197 0
M  V30 1140 C 112.774 1.642 -0.250502 0
M  V30 1141 O 113.959 1.85494 -0.446846 0
M  V30 1142 C 111.099 3.21697 -1.24919 0
M  V30 1143 C 110.212 3.53247 -2.48678 0
M  V30 1144 C 109.347 4.80289 -2.26928 0
M  V30 1145 C 108.386 5.04707 -3.4632 0
M  V30 1146 N 107.523 6.22956 -3.23836 0
M  V30 1147 H 112.363 1.83979 -2.34427 0
M  V30 1148 H 109.9 0.898876 -1.16442 0
M  V30 1149 H 111.858 4.01137 -1.1465 0
M  V30 1150 H 110.488 3.21076 -0.333153 0
M  V30 1151 H 109.54 2.68447 -2.69519 0
M  V30 1152 H 110.852 3.67205 -3.37582 0
M  V30 1153 H 110.006 5.67725 -2.13947 0
M  V30 1154 H 108.745 4.68519 -1.35431 0
M  V30 1155 H 107.75 4.1573 -3.5979 0
M  V30 1156 H 108.975 5.18357 -4.38729 0
M  V30 1157 H 106.921 6.12459 -2.35011 0
M  V30 1158 H 106.838 6.37539 -4.063 0
M  V30 1159 H 108.106 7.1321 -3.14566 0
M  V30 1160 N 112.336 1.25143 0.95797 0
M  V30 1161 C 113.561 1.12521 1.74223 0
M  V30 1162 C 113.986 -0.317402 1.85403 0
M  V30 1163 O 113.344 -1.2299 1.33204 0
M  V30 1164 C 113.392 1.78062 3.1357 0
M  V30 1165 O 112.496 1.058 3.98598 0
M  V30 1166 H 111.837 0.39304 0.535178 0
M  V30 1167 H 114.367 1.65641 1.201 0
M  V30 1168 H 114.377 1.84213 3.64046 0
M  V30 1169 H 113.052 2.83021 3.04749 0
M  V30 1170 H 111.629 1.07506 3.57067 0
M  V30 1171 N 113.814 -1.1601 1.06675 0
M  V30 1172 C 114.746 -2.20115 0.638921 0
M  V30 1173 C 115.759 -1.59916 -0.305057 0
M  V30 1174 O 116.948 -1.78245 -0.0954446 0
M  V30 1175 C 114.048 -3.38798 -0.0830083 0
M  V30 1176 C 113.221 -4.2855 0.875426 0
M  V30 1177 C 112.28 -5.25849 0.192042 0
M  V30 1178 O 111.306 -5.63102 0.830921 0
M  V30 1179 N 112.508 -5.70648 -1.06493 0
M  V30 1180 H 115.273 -2.57439 1.53444 0
M  V30 1181 H 112.834 -1.31057 0.950557 0
M  V30 1182 H 114.826 -4.00936 -0.550685 0
M  V30 1183 H 113.396 -2.99947 -0.880386 0
M  V30 1184 H 112.616 -3.63617 1.52238 0
M  V30 1185 H 113.904 -4.85393 1.52548 0
M  V30 1186 H 113.302 -5.42482 -1.60405 0
M  V30 1187 H 111.859 -6.34859 -1.47641 0
M  V30 1188 N 115.292 -0.849877 -1.32721 0
M  V30 1189 C 116.517 -0.463856 -2.02146 0
M  V30 1190 C 116.942 0.930449 -1.63476 0
M  V30 1191 O 116.3 1.61033 -0.832952 0
M  V30 1192 C 116.348 -0.604955 -3.55489 0
M  V30 1193 O 115.452 0.36425 -4.10788 0
M  V30 1194 H 114.793 -0.187046 -0.637111 0
M  V30 1195 H 117.323 -1.14775 -1.69375 0
M  V30 1196 H 117.333 -0.490696 -4.05038 0
M  V30 1197 H 116.008 -1.62174 -3.82978 0
M  V30 1198 H 114.585 0.206628 -3.72327 0
M  V30 1199 N 116.77 1.45427 -0.607355 0
M  V30 1200 C 118.019 2.01452 -0.100036 0
M  V30 1201 C 118.332 1.48159 1.27704 0
M  V30 1202 O 119.538 1.96159 1.87707 0
M  V30 1203 C 117.994 3.59672 -0.128158 0
M  V30 1204 C 117.602 4.21962 -1.50507 0
M  V30 1205 C 119.346 4.23262 0.323932 0
M  V30 1206 C 117.253 5.72333 -1.48959 0
M  V30 1207 H 116.183 0.75325 -0.0336299 0
M  V30 1208 H 118.834 1.66901 -0.76265 0
M  V30 1209 H 117.216 3.91411 0.601105 0
M  V30 1210 H 118.39 4.01796 -2.25602 0
M  V30 1211 H 116.705 3.70565 -1.89923 0
M  V30 1212 H 119.302 5.33522 0.354691 0
M  V30 1213 H 119.645 3.93921 1.34656 0
M  V30 1214 H 120.178 3.96239 -0.352056 0
M  V30 1215 H 116.917 6.06373 -2.48981 0
M  V30 1216 H 116.437 5.94691 -0.781214 0
M  V30 1217 H 118.116 6.35525 -1.21313 0
M  V30 1218 N 118.248 0.346503 1.53744 0
M  V30 1219 C 119.178 -0.501193 2.28058 0
M  V30 1220 C 120.159 -1.10014 1.29734 0
M  V30 1221 O 121.344 -1.12097 1.58581 0
M  V30 1222 C 118.474 -1.65078 3.05559 0
M  V30 1223 C 117.428 -1.18003 4.11411 0
M  V30 1224 C 116.754 -2.41837 4.76884 0
M  V30 1225 C 118.054 -0.278394 5.21558 0
M  V30 1226 H 119.748 0.11875 2.99164 0
M  V30 1227 H 117.294 0.0585531 1.43881 0
M  V30 1228 H 119.247 -2.25028 3.56287 0
M  V30 1229 H 117.971 -2.29767 2.32109 0
M  V30 1230 H 116.63 -0.603331 3.61601 0
M  V30 1231 H 116.278 -3.0494 4.00026 0
M  V30 1232 H 115.978 -2.1102 5.48402 0
M  V30 1233 H 117.502 -3.02508 5.30397 0
M  V30 1234 H 118.916 -0.784823 5.67903 0
M  V30 1235 H 117.313 -0.0619707 6.00068 0
M  V30 1236 H 118.383 0.684677 4.80042 0
M  V30 1237 N 119.726 -1.57421 0.075193 0
M  V30 1238 C 120.956 -1.97659 -0.601203 0
M  V30 1239 C 121.364 -0.952427 -1.63479 0
M  V30 1240 O 120.707 0.0688241 -1.83571 0
M  V30 1241 C 120.769 -3.34218 -1.32434 0
M  V30 1242 C 120.433 -4.5484 -0.443826 0
M  V30 1243 C 121.43 -5.19034 0.299969 0
M  V30 1244 C 119.115 -5.00952 -0.367709 0
M  V30 1245 C 121.109 -6.27695 1.10807 0
M  V30 1246 C 118.796 -6.09484 0.444058 0
M  V30 1247 C 119.794 -6.72719 1.18061 0
M  V30 1248 O 119.482 -7.79161 1.97898 0
M  V30 1249 H 119.214 -0.65494 -0.167422 0
M  V30 1250 H 121.768 -2.04886 0.145157 0
M  V30 1251 H 119.998 -3.23615 -2.11685 0
M  V30 1252 H 121.687 -3.59038 -1.89331 0
M  V30 1253 H 122.453 -4.84351 0.250776 0
M  V30 1254 H 118.332 -4.51509 -0.930638 0
M  V30 1255 H 121.876 -6.76982 1.68347 0
M  V30 1256 H 117.773 -6.43601 0.494803 0
M  V30 1257 H 118.541 -7.96055 1.90367 0
M  V30 1258 N 121.204 0.198386 -1.56346 0
M  V30 1259 C 122.134 1.24865 -1.9731 0
M  V30 1260 C 123.115 1.47651 -0.844576 0
M  V30 1261 O 124.3 1.59444 -1.10866 0
M  V30 1262 C 121.43 2.59358 -2.30977 0
M  V30 1263 C 120.384 2.5119 -3.46537 0
M  V30 1264 C 119.71 3.89926 -3.65871 0
M  V30 1265 C 121.01 2.03977 -4.80823 0
M  V30 1266 H 122.704 0.908252 -2.85291 0
M  V30 1267 H 120.25 0.435462 -1.37258 0
M  V30 1268 H 122.203 3.33011 -2.58228 0
M  V30 1269 H 120.927 2.95132 -1.39874 0
M  V30 1270 H 119.586 1.79993 -3.19371 0
M  V30 1271 H 119.234 4.23046 -2.72105 0
M  V30 1272 H 118.934 3.85336 -4.4361 0
M  V30 1273 H 120.458 4.65205 -3.95495 0
M  V30 1274 H 121.872 2.67386 -5.07127 0
M  V30 1275 H 120.269 2.10397 -5.62008 0
M  V30 1276 H 121.339 0.992861 -4.74626 0
M  V30 1277 N 122.682 1.50554 0.465978 0
M  V30 1278 C 123.614 1.65949 1.58093 0
M  V30 1279 C 124.627 0.540827 1.53554 0
M  V30 1280 O 125.816 0.814187 1.5885 0
M  V30 1281 C 122.916 1.63261 2.96983 0
M  V30 1282 C 122.089 2.91245 3.26336 0
M  V30 1283 C 121.148 2.8113 4.44806 0
M  V30 1284 O 120.174 3.55086 4.44862 0
M  V30 1285 N 121.376 1.95032 5.46756 0
M  V30 1286 H 124.141 2.62122 1.45301 0
M  V30 1287 H 121.702 1.48082 0.65448 0
M  V30 1288 H 123.694 1.54101 3.74212 0
M  V30 1289 H 122.264 0.748032 3.03518 0
M  V30 1290 H 121.484 3.14493 2.37672 0
M  V30 1291 H 122.772 3.76022 3.42761 0
M  V30 1292 H 122.17 1.3427 5.49534 0
M  V30 1293 H 120.727 1.91772 6.2295 0
M  V30 1294 N 124.16 -0.719506 1.40217 0
M  V30 1295 C 125.093 -1.84298 1.34571 0
M  V30 1296 C 126.071 -1.61149 0.216741 0
M  V30 1297 O 127.255 -1.84212 0.399756 0
M  V30 1298 C 124.382 -3.20568 1.09335 0
M  V30 1299 C 123.428 -3.62551 2.24631 0
M  V30 1300 S 124.261 -3.7012 3.87004 0
M  V30 1301 C 125.417 -5.09154 3.64024 0
M  V30 1302 H 125.65 -1.88807 2.2965 0
M  V30 1303 H 123.183 -0.885901 1.26456 0
M  V30 1304 H 125.141 -3.99246 0.954602 0
M  V30 1305 H 123.802 -3.13696 0.159164 0
M  V30 1306 H 122.995 -4.61483 2.02606 0
M  V30 1307 H 122.597 -2.91119 2.34789 0
M  V30 1308 H 124.889 -5.95955 3.22248 0
M  V30 1309 H 125.832 -5.36213 4.62473 0
M  V30 1310 H 126.24 -4.79562 2.97793 0
M  V30 1311 N 125.638 -1.25649 -0.95132 0
M  V30 1312 C 126.586 -1.06118 -2.06982 0
M  V30 1313 C 127.58 0.00889169 -1.69398 0
M  V30 1314 O 128.786 -0.146988 -1.79399 0
M  V30 1315 H 125.161 -0.326248 -0.677544 0
M  V30 1316 H 127.132 -2.00932 -2.2061 0
M  V30 1317 C 125.881 -0.700145 -3.40578 0
M  V30 1318 H 125.204 -1.51537 -3.69968 0
M  V30 1319 H 126.644 -0.603211 -4.19687 0
M  V30 1320 C 125.103 0.59403 -3.31622 0
M  V30 1321 O 125.633 1.63522 -3.66911 0
M  V30 1322 N 123.839 0.58089 -2.84735 0
M  V30 1323 H 123.386 -0.266783 -2.56215 0
M  V30 1324 H 123.344 1.44695 -2.79125 0
M  V30 1325 N 127.117 1.15442 -1.07289 0
M  V30 1326 C 128.345 1.90096 -0.81676 0
M  V30 1327 C 128.76 1.7798 0.629966 0
M  V30 1328 O 128.117 1.1313 1.43206 0
M  V30 1329 C 128.168 3.40466 -1.21512 0
M  V30 1330 O 127.889 3.52232 -2.60508 0
M  V30 1331 C 129.39 4.32145 -0.988198 0
M  V30 1332 H 126.61 0.602495 -0.295366 0
M  V30 1333 H 129.154 1.4627 -1.42918 0
M  V30 1334 H 127.309 3.81958 -0.647039 0
M  V30 1335 H 127.723 4.45549 -2.76742 0
M  V30 1336 H 129.197 5.36072 -1.31645 0
M  V30 1337 H 129.674 4.39135 0.0755063 0
M  V30 1338 H 130.28 3.96395 -1.54115 0
M  V30 1339 N 128.595 0.856903 1.32268 0
M  V30 1340 C 129.525 0.31858 2.31316 0
M  V30 1341 C 130.506 -0.583487 1.59779 0
M  V30 1342 O 131.691 -0.503259 1.87566 0
M  V30 1343 C 128.821 -0.491979 3.43798 0
M  V30 1344 C 127.775 0.315849 4.26833 0
M  V30 1345 C 127.101 -0.619586 5.31098 0
M  V30 1346 C 128.401 1.54282 4.98993 0
M  V30 1347 H 130.095 1.14621 2.76591 0
M  V30 1348 H 127.641 0.552613 1.32974 0
M  V30 1349 H 129.594 -0.879012 4.1213 0
M  V30 1350 H 128.318 -1.35299 2.97257 0
M  V30 1351 H 126.977 0.684664 3.6015 0
M  V30 1352 H 126.625 -1.47751 4.8081 0
M  V30 1353 H 126.325 -0.0830621 5.87541 0
M  V30 1354 H 127.849 -1.00375 6.02293 0
M  V30 1355 H 129.263 1.22796 5.59995 0
M  V30 1356 H 127.66 2.01745 5.65172 0
M  V30 1357 H 128.73 2.30285 4.26728 0
M  V30 1358 N 130.073 -1.45103 0.615059 0
M  V30 1359 C 131.489 -1.57137 0.279322 0
M  V30 1360 C 131.689 -1.60523 -1.21797 0
M  V30 1361 O 130.745 -1.53956 -2.00134 0
M  V30 1362 C 132.058 -2.85062 0.957083 0
M  V30 1363 C 133.606 -2.98749 0.933706 0
M  V30 1364 C 134.081 -4.29455 1.59162 0
M  V30 1365 N 135.572 -4.36231 1.55746 0
M  V30 1366 C 136.307 -5.36051 2.0356 0
M  V30 1367 N 135.803 -6.42367 2.59494 0
M  V30 1368 N 137.596 -5.27456 1.94284 0
M  V30 1369 H 129.747 -1.41148 1.58717 0
M  V30 1370 H 132.01 -0.675331 0.665306 0
M  V30 1371 H 131.716 -2.88488 2.01166 0
M  V30 1372 H 131.59 -3.7407 0.48494 0
M  V30 1373 H 133.977 -2.94886 -0.112347 0
M  V30 1374 H 134.058 -2.11132 1.44419 0
M  V30 1375 H 133.702 -4.34077 2.63704 0
M  V30 1376 H 133.632 -5.15901 1.0561 0
M  V30 1377 H 136.123 -3.60011 1.14893 0
M  V30 1378 H 136.436 -7.14793 2.93752 0
M  V30 1379 H 134.781 -6.43097 2.63537 0
M  V30 1380 H 137.972 -4.43308 1.5032 0
M  V30 1381 H 138.145 -6.05099 2.3186 0
M  V30 1382 N 131.551 -0.354651 -1.53558 0
M  V30 1383 C 132.514 0.484566 -2.24019 0
M  V30 1384 C 133.514 1.01861 -1.24422 0
M  V30 1385 O 134.704 0.906097 -1.4878 0
M  V30 1386 C 131.836 1.67615 -2.96847 0
M  V30 1387 H 133.029 -0.131843 -2.9961 0
M  V30 1388 H 130.582 -0.106165 -1.55939 0
M  V30 1389 H 131.317 2.33095 -2.25471 0
M  V30 1390 H 131.102 1.30029 -3.69912 0
M  V30 1391 H 132.592 2.27114 -3.50441 0
M  V30 1392 N 133.029 1.57378 -0.0835403 0
M  V30 1393 C 133.939 2.16897 0.894021 0
M  V30 1394 C 134.955 1.13528 1.31861 0
M  V30 1395 O 136.131 1.45848 1.3889 0
M  V30 1396 C 133.196 2.72831 2.13925 0
M  V30 1397 C 132.257 3.91115 1.76997 0
M  V30 1398 C 131.49 4.44371 2.95584 0
M  V30 1399 O 131.713 3.96596 4.09961 0
M  V30 1400 O 130.647 5.35549 2.74719 0
M  V30 1401 H 134.473 3.00814 0.417679 0
M  V30 1402 H 132.058 1.48741 0.140181 0
M  V30 1403 H 133.94 3.0863 2.86924 0
M  V30 1404 H 132.615 1.91967 2.60635 0
M  V30 1405 H 131.522 3.60148 1.01214 0
M  V30 1406 H 132.855 4.73307 1.3506 0
M  V30 1407 N 134.507 -0.190092 1.56449 0
M  V30 1408 C 135.784 -0.935886 1.71757 0
M  V30 1409 C 136.164 -2.01173 0.639726 0
M  V30 1410 O 135.512 -2.25827 -0.348502 0
M  V30 1411 C 135.722 -1.51775 3.1427 0
M  V30 1412 C 137.07 -1.99794 3.74656 0
M  V30 1413 O 138.094 -1.61607 3.1743 0
M  V30 1414 O 136.953 -2.70079 4.751 0
M  V30 1415 H 134.047 -0.439229 0.700719 0
M  V30 1416 H 136.593 -0.179395 1.68749 0
M  V30 1417 H 135.365 -0.742505 3.84191 0
M  V30 1418 H 134.988 -2.33894 3.21527 0
M  V30 1419 N 135.985 -1.50799 -0.457987 0
M  V30 1420 C 137.21 -1.66496 -1.23668 0
M  V30 1421 C 137.635 -0.353288 -1.84752 0
M  V30 1422 O 136.993 0.684346 -1.67888 0
M  V30 1423 C 137.041 -2.76763 -2.3116 0
M  V30 1424 O 136.145 -2.38928 -3.36136 0
M  V30 1425 H 135.486 -0.555828 -0.363252 0
M  V30 1426 H 138.016 -1.9725 -0.543474 0
M  V30 1427 H 138.026 -3.00232 -2.76269 0
M  V30 1428 H 136.701 -3.71954 -1.86073 0
M  V30 1429 H 135.278 -2.25953 -2.96647 0
M  V30 1430 N 137.463 0.71206 -1.40597 0
M  V30 1431 C 138.426 1.80785 -1.40888 0
M  V30 1432 C 139.426 1.57937 -0.302103 0
M  V30 1433 O 140.616 1.64913 -0.561182 0
M  V30 1434 C 137.748 3.18927 -1.20409 0
M  V30 1435 H 138.941 1.81924 -2.38419 0
M  V30 1436 H 136.494 0.91805 -1.26497 0
M  V30 1437 H 137.229 3.23436 -0.236522 0
M  V30 1438 H 137.014 3.36911 -2.00582 0
M  V30 1439 H 138.504 3.98949 -1.23408 0
M  V30 1440 N 138.941 1.26152 0.944643 0
M  V30 1441 C 140.169 1.14259 1.72489 0
M  V30 1442 C 140.584 -0.302555 1.8636 0
M  V30 1443 O 139.941 -1.20741 1.36849 0
M  V30 1444 C 139.992 1.80266 3.13347 0
M  V30 1445 O 139.713 3.19133 3.00143 0
M  V30 1446 C 141.214 1.74283 4.07603 0
M  V30 1447 H 138.434 0.398051 0.540181 0
M  V30 1448 H 140.978 1.66706 1.18446 0
M  V30 1449 H 139.133 1.31766 3.64303 0
M  V30 1450 H 139.547 3.51744 3.89071 0
M  V30 1451 H 141.021 2.25111 5.04013 0
M  V30 1452 H 141.498 0.708631 4.33446 0
M  V30 1453 H 142.104 2.22319 3.62567 0
M  V30 1454 N 140.419 -1.14872 1.07899 0
M  V30 1455 C 141.649 -1.89386 0.825631 0
M  V30 1456 C 142.057 -1.78565 -0.625406 0
M  V30 1457 O 141.4 -1.13918 -1.44113 0
M  V30 1458 C 141.462 -3.40206 1.16191 0
M  V30 1459 C 141.126 -3.74812 2.61467 0
M  V30 1460 C 142.123 -3.75367 3.59716 0
M  V30 1461 C 139.808 -4.0495 2.97189 0
M  V30 1462 C 141.802 -4.05574 4.9172 0
M  V30 1463 C 139.489 -4.34821 4.29388 0
M  V30 1464 C 140.487 -4.35116 5.26463 0
M  V30 1465 O 140.175 -4.64267 6.56286 0
M  V30 1466 H 139.907 -0.606894 0.297751 0
M  V30 1467 H 142.461 -1.46438 1.44031 0
M  V30 1468 H 140.691 -3.8358 0.490214 0
M  V30 1469 H 142.38 -3.96018 0.890193 0
M  V30 1470 H 143.146 -3.52176 3.33462 0
M  V30 1471 H 139.025 -4.03876 2.22273 0
M  V30 1472 H 142.569 -4.05719 5.67484 0
M  V30 1473 H 138.466 -4.5748 4.55392 0
M  V30 1474 H 139.234 -4.82007 6.61522 0
M  V30 1475 N 141.898 -0.863906 -1.31812 0
M  V30 1476 C 143.128 -0.485406 -2.00817 0
M  V30 1477 C 143.536 0.925007 -1.65046 0
M  V30 1478 O 142.879 1.61653 -0.872574 0
M  V30 1479 C 142.941 -0.555589 -3.55181 0
M  V30 1480 C 142.605 -1.92654 -4.14407 0
M  V30 1481 C 143.602 -2.89324 -4.31958 0
M  V30 1482 C 141.287 -2.2262 -4.50273 0
M  V30 1483 C 143.281 -4.14108 -4.84555 0
M  V30 1484 C 140.968 -3.47654 -5.02573 0
M  V30 1485 C 141.966 -4.43214 -5.19664 0
M  V30 1486 O 141.654 -5.66033 -5.70843 0
M  V30 1487 H 141.386 -0.188224 -0.649267 0
M  V30 1488 H 143.94 -1.16514 -1.69156 0
M  V30 1489 H 142.17 0.181037 -3.86276 0
M  V30 1490 H 143.859 -0.19138 -4.05449 0
M  V30 1491 H 144.625 -2.6748 -4.04573 0
M  V30 1492 H 140.504 -1.4902 -4.3625 0
M  V30 1493 H 144.048 -4.88703 -4.9781 0
M  V30 1494 H 139.945 -3.69345 -5.29391 0
M  V30 1495 H 140.713 -5.6812 -5.89222 0
M  V30 1496 N 143.376 1.44774 -0.622745 0
M  V30 1497 C 144.616 2.04004 -0.127102 0
M  V30 1498 C 144.98 1.47862 1.22478 0
M  V30 1499 O 146.181 1.98541 1.81204 0
M  V30 1500 C 144.452 3.57247 -0.104429 0
M  V30 1501 S 146.011 4.37574 0.327814 0
M  V30 1502 H 142.829 0.708713 -0.0569776 0
M  V30 1503 H 145.431 1.77275 -0.824253 0
M  V30 1504 H 144.135 3.95616 -1.09159 0
M  V30 1505 H 143.666 3.88575 0.614236 0
M  V30 1506 H 145.681 4.70575 1.57395 0
M  V30 1507 N 144.854 0.36279 1.53368 0
M  V30 1508 C 146.082 -0.228613 2.05633 0
M  V30 1509 C 146.497 -1.42676 1.23649 0
M  V30 1510 O 145.854 -1.80394 0.27647 0
M  V30 1511 C 145.905 -0.624845 3.56059 0
M  V30 1512 O 145.626 0.525675 4.34935 0
M  V30 1513 C 147.127 -1.27493 4.24571 0
M  V30 1514 H 144.347 -0.0407183 0.669763 0
M  V30 1515 H 146.891 0.520352 1.97769 0
M  V30 1516 H 145.046 -1.32373 3.64083 0
M  V30 1517 H 145.46 0.205969 5.24095 0
M  V30 1518 H 146.934 -1.50277 5.31151 0
M  V30 1519 H 147.411 -2.23439 3.78116 0
M  V30 1520 H 148.017 -0.617558 4.20792 0
M  V30 1521 N 146.332 -1.57332 0.0918853 0
M  V30 1522 C 147.748 -1.57389 -0.264766 0
M  V30 1523 C 147.948 -1.10281 -1.68643 0
M  V30 1524 O 147.004 -0.777801 -2.40222 0
M  V30 1525 C 148.317 -3.00648 -0.0561195 0
M  V30 1526 C 149.865 -3.12754 -0.124116 0
M  V30 1527 C 150.34 -4.57965 0.0564972 0
M  V30 1528 N 151.831 -4.632 0.00155611 0
M  V30 1529 C 152.566 -5.73281 0.116598 0
M  V30 1530 N 152.062 -6.92208 0.286294 0
M  V30 1531 N 153.855 -5.6207 0.0580973 0
M  V30 1532 H 146.006 -1.86262 1.02079 0
M  V30 1533 H 148.269 -0.859579 0.399786 0
M  V30 1534 H 147.975 -3.393 0.925669 0
M  V30 1535 H 147.849 -3.68623 -0.799823 0
M  V30 1536 H 150.236 -2.73976 -1.09641 0
M  V30 1537 H 150.317 -2.47377 0.651024 0
M  V30 1538 H 149.961 -4.97436 1.02564 0
M  V30 1539 H 149.891 -5.21399 -0.738297 0
M  V30 1540 H 152.382 -3.77686 -0.127192 0
M  V30 1541 H 152.695 -7.71934 0.365676 0
M  V30 1542 H 151.04 -6.94254 0.32192 0
M  V30 1543 H 154.231 -4.68043 -0.0733204 0
M  V30 1544 H 154.404 -6.47824 0.151203 0
M  V30 1545 N 147.81 0.181792 -1.56548 0
M  V30 1546 C 149.087 0.926765 -1.72251 0
M  V30 1547 C 149.467 2.00831 -0.650386 0
M  V30 1548 O 148.815 2.26008 0.336521 0
M  V30 1549 C 149.025 1.50106 -3.1507 0
M  V30 1550 C 150.373 1.97805 -3.75711 0
M  V30 1551 O 151.397 1.59922 -3.18282 0
M  V30 1552 O 150.256 2.67555 -4.76525 0
M  V30 1553 H 147.35 0.435506 -0.703039 0
M  V30 1554 H 149.896 0.170443 -1.68842 0
M  V30 1555 H 148.668 0.72212 -3.84579 0
M  V30 1556 H 148.291 2.32186 -3.22763 0
M  V30 1557 N 149.288 1.51039 0.449983 0
M  V30 1558 C 150.704 1.38934 0.785462 0
M  V30 1559 C 150.904 0.461817 1.96136 0
M  V30 1560 O 149.96 -0.0877389 2.52348 0
M  V30 1561 C 151.273 2.80724 1.0777 0
M  V30 1562 C 152.821 2.89787 1.1829 0
M  V30 1563 C 153.296 4.32457 1.50815 0
M  V30 1564 N 154.787 4.35505 1.57764 0
M  V30 1565 C 155.522 5.42914 1.84477 0
M  V30 1566 N 155.018 6.60502 2.09068 0
M  V30 1567 N 156.811 5.3038 1.86155 0
M  V30 1568 H 148.962 2.09904 -0.324647 0
M  V30 1569 H 151.225 0.944378 -0.0827957 0
M  V30 1570 H 150.931 3.50531 0.286498 0
M  V30 1571 H 150.805 3.19273 2.00859 0
M  V30 1572 H 153.192 2.20186 1.96474 0
M  V30 1573 H 153.273 2.54752 0.231314 0
M  V30 1574 H 152.917 5.02603 0.731622 0
M  V30 1575 H 152.847 4.64995 2.47158 0
M  V30 1576 H 155.338 3.50724 1.40715 0
M  V30 1577 H 155.651 7.38158 2.28785 0
M  V30 1578 H 153.996 6.63639 2.06416 0
M  V30 1579 H 157.187 4.37505 1.66454 0
M  V30 1580 H 157.36 6.1417 2.06637 0
M  V30 1581 N 150.766 -0.704594 1.40972 0
M  V30 1582 C 152.014 -1.46169 1.39568 0
M  V30 1583 C 152.335 -1.95 0.00253745 0
M  V30 1584 O 151.605 -1.71095 -0.954114 0
M  V30 1585 H 150.185 -0.542326 0.513704 0
M  V30 1586 H 152.847 -0.834553 1.76128 0
M  V30 1587 H 151.943 -2.32922 2.07735 0
M  V30 1588 N 152.244 -1.26651 -0.937939 0
M  V30 1589 C 153.174 -1.10993 -2.05433 0
M  V30 1590 C 154.155 -0.0142161 -1.70094 0
M  V30 1591 O 155.34 -0.186837 -1.93299 0
M  V30 1592 C 152.47 -0.745561 -3.39203 0
M  V30 1593 C 151.424 -1.79337 -3.88616 0
M  V30 1594 C 150.75 -1.28324 -5.19073 0
M  V30 1595 C 152.05 -3.19553 -4.13138 0
M  V30 1596 H 153.744 -2.0438 -2.1879 0
M  V30 1597 H 151.29 -0.984041 -1.05131 0
M  V30 1598 H 153.243 -0.622888 -4.16771 0
M  V30 1599 H 151.967 0.22401 -3.25831 0
M  V30 1600 H 150.626 -1.90477 -3.13231 0
M  V30 1601 H 150.274 -0.303414 -5.02084 0
M  V30 1602 H 149.974 -1.98369 -5.53103 0
M  V30 1603 H 151.498 -1.1733 -5.99221 0
M  V30 1604 H 152.912 -3.11471 -4.81309 0
M  V30 1605 H 151.309 -3.87218 -4.58457 0
M  V30 1606 H 152.379 -3.65368 -3.18801 0
M  V30 1607 N 153.722 1.14298 -1.08507 0
M  V30 1608 C 155.138 1.37347 -0.812901 0
M  V30 1609 C 155.338 1.93052 0.577325 0
M  V30 1610 O 154.394 2.14389 1.33393 0
M  V30 1611 C 155.707 2.33359 -1.89642 0
M  V30 1612 C 157.255 2.46996 -1.92255 0
M  V30 1613 C 157.73 3.46309 -2.99724 0
M  V30 1614 N 159.221 3.53853 -2.98902 0
M  V30 1615 C 159.956 4.3055 -3.787 0
M  V30 1616 N 159.452 5.10482 -4.6838 0
M  V30 1617 N 161.245 4.25757 -3.66998 0
M  V30 1618 H 153.396 0.764867 -1.9815 0
M  V30 1619 H 155.659 0.398966 -0.859959 0
M  V30 1620 H 155.365 1.99565 -2.89597 0
M  V30 1621 H 155.239 3.33274 -1.76659 0
M  V30 1622 H 157.626 2.80081 -0.929445 0
M  V30 1623 H 157.707 1.47039 -2.09316 0
M  V30 1624 H 157.351 3.13957 -3.99241 0
M  V30 1625 H 157.281 4.46049 -2.79907 0
M  V30 1626 H 159.772 2.96812 -2.33904 0
M  V30 1627 H 160.085 5.66284 -5.25873 0
M  V30 1628 H 158.43 5.09747 -4.72422 0
M  V30 1629 H 161.621 3.62383 -2.96304 0
M  V30 1630 H 161.794 4.85279 -4.29427 0
M  V30 1631 N 155.201 0.870884 1.31352 0
M  V30 1632 C 156.448 0.482273 1.96673 0
M  V30 1633 C 156.776 -0.965638 1.68836 0
M  V30 1634 O 156.031 -1.69514 0.977937 0
M  V30 1635 C 156.33 0.687157 3.50732 0
M  V30 1636 C 155.996 2.108 3.9859 0
M  V30 1637 C 154.658 2.49656 4.1137 0
M  V30 1638 C 157.01 3.03459 4.23748 0
M  V30 1639 C 154.338 3.80412 4.46659 0
M  V30 1640 C 156.69 4.3373 4.60501 0
M  V30 1641 C 155.354 4.725 4.71487 0
M  V30 1642 H 154.624 0.176476 0.719679 0
M  V30 1643 H 157.271 1.10405 1.56471 0
M  V30 1644 H 155.576 -0.0177476 3.91796 0
M  V30 1645 H 157.273 0.366284 3.99324 0
M  V30 1646 H 153.863 1.79633 3.8914 0
M  V30 1647 H 158.047 2.74665 4.13368 0
M  V30 1648 H 153.303 4.1021 4.53362 0
M  V30 1649 H 157.477 5.05578 4.78919 0
M  V30 1650 H 155.104 5.73859 4.98588 0
M  V30 1651 N 156.679 -1.44442 0.630414 0
M  V30 1652 C 157.909 -2.06115 0.141465 0
M  V30 1653 C 158.317 -1.47179 -1.1889 0
M  V30 1654 O 157.66 -0.588873 -1.74006 0
M  V30 1655 C 157.722 -3.59467 -0.0484355 0
M  V30 1656 C 157.386 -4.40864 1.20366 0
M  V30 1657 C 158.383 -4.74391 2.12719 0
M  V30 1658 C 156.068 -4.8125 1.43887 0
M  V30 1659 C 158.062 -5.47186 3.26904 0
M  V30 1660 C 155.749 -5.53795 2.5837 0
M  V30 1661 C 156.747 -5.86682 3.49705 0
M  V30 1662 O 156.435 -6.57749 4.62191 0
M  V30 1663 H 156.167 -0.671648 0.0765792 0
M  V30 1664 H 158.721 -1.86312 0.864695 0
M  V30 1665 H 156.951 -3.77758 -0.826803 0
M  V30 1666 H 158.64 -4.02909 -0.491849 0
M  V30 1667 H 159.406 -4.43728 1.95781 0
M  V30 1668 H 155.285 -4.55073 0.736853 0
M  V30 1669 H 158.829 -5.72773 3.98217 0
M  V30 1670 H 154.726 -5.83872 2.75251 0
M  V30 1671 H 155.494 -6.76217 4.61164 0
M  V30 1672 N 158.157 -0.370918 -1.53173 0
M  V30 1673 C 159.404 0.217102 -2.01333 0
M  V30 1674 C 159.732 1.48338 -1.25802 0
M  V30 1675 O 158.987 1.92698 -0.34146 0
M  V30 1676 C 159.286 0.549696 -3.53147 0
M  V30 1677 C 158.952 -0.622872 -4.46577 0
M  V30 1678 C 157.614 -0.944595 -4.71838 0
M  V30 1679 C 159.966 -1.40819 -5.01816 0
M  V30 1680 C 157.294 -2.05351 -5.49589 0
M  V30 1681 C 159.646 -2.50757 -5.80778 0
M  V30 1682 C 158.31 -2.83458 -6.04324 0
M  V30 1683 H 157.58 0.0794431 -0.736729 0
M  V30 1684 H 160.227 -0.504481 -1.84736 0
M  V30 1685 H 158.532 1.35237 -3.6772 0
M  V30 1686 H 160.229 1.017 -3.87889 0
M  V30 1687 H 156.819 -0.36209 -4.27068 0
M  V30 1688 H 161.003 -1.17289 -4.82242 0
M  V30 1689 H 156.259 -2.3108 -5.6605 0
M  V30 1690 H 160.433 -3.12022 -6.22588 0
M  V30 1691 H 158.06 -3.69508 -6.64355 0
M  V30 1692 N 159.635 1.57281 -0.100228 0
M  V30 1693 C 160.912 1.86014 0.604812 0
M  V30 1694 C 161.292 0.998025 1.86018 0
M  V30 1695 O 160.64 0.0718184 2.28387 0
M  V30 1696 C 160.85 3.36784 0.915278 0
M  V30 1697 C 162.198 4.04957 1.27651 0
M  V30 1698 O 163.222 3.41695 1.00613 0
M  V30 1699 O 162.081 5.16593 1.7831 0
M  V30 1700 H 159.175 0.76942 0.303185 0
M  V30 1701 H 161.721 1.69176 -0.133313 0
M  V30 1702 H 160.493 3.91292 0.0248896 0
M  V30 1703 H 160.116 3.58987 1.70921 0
M  V30 1704 N 161.113 -0.173488 1.56642 0
M  V30 1705 C 162.343 -0.904781 1.85734 0
M  V30 1706 C 162.751 -1.76431 0.68328 0
M  V30 1707 O 162.094 -1.802 -0.356865 0
M  V30 1708 C 162.156 -1.83382 3.09211 0
M  V30 1709 C 161.82 -1.15411 4.42187 0
M  V30 1710 C 162.817 -0.520609 5.17287 0
M  V30 1711 C 160.502 -1.15151 4.88923 0
M  V30 1712 C 162.496 0.106412 6.37311 0
M  V30 1713 C 160.183 -0.520664 6.08878 0
M  V30 1714 C 161.181 0.107196 6.82916 0
M  V30 1715 O 160.869 0.728102 8.00596 0
M  V30 1716 H 160.601 -0.268408 0.62043 0
M  V30 1717 H 163.155 -0.179096 2.04618 0
M  V30 1718 H 161.385 -2.59976 2.86268 0
M  V30 1719 H 163.074 -2.43476 3.24768 0
M  V30 1720 H 163.84 -0.514606 4.82262 0
M  V30 1721 H 159.719 -1.62961 4.31236 0
M  V30 1722 H 163.263 0.597081 6.9504 0
M  V30 1723 H 159.16 -0.524242 6.43368 0
M  V30 1724 H 159.928 0.627138 8.16094 0
M  V30 1725 N 162.591 -1.51276 -0.441967 0
M  V30 1726 C 163.837 -1.6492 -1.1905 0
M  V30 1727 C 164.192 -0.358731 -1.89026 0
M  V30 1728 O 163.485 0.645193 -1.8041 0
M  V30 1729 C 163.679 -2.78746 -2.23686 0
M  V30 1730 C 163.508 -4.18737 -1.63979 0
M  V30 1731 C 162.278 -4.84739 -1.42674 0
M  V30 1732 C 164.476 -5.01988 -1.11858 0
M  V30 1733 N 162.458 -6.08858 -0.785159 0
M  V30 1734 C 163.829 -6.17071 -0.601989 0
M  V30 1735 C 165.884 -4.87551 -1.0099 0
M  V30 1736 C 164.587 -7.19299 0.0126012 0
M  V30 1737 C 166.613 -5.89983 -0.409206 0
M  V30 1738 C 165.975 -7.04333 0.0968651 0
M  V30 1739 H 162.074 -0.657416 -0.423471 0
M  V30 1740 H 164.658 -1.8849 -0.48782 0
M  V30 1741 H 162.829 -2.56848 -2.91348 0
M  V30 1742 H 164.561 -2.81595 -2.90666 0
M  V30 1743 H 161.316 -4.42528 -1.68719 0
M  V30 1744 H 161.74 -6.75282 -0.481942 0
M  V30 1745 H 166.382 -3.99401 -1.38703 0
M  V30 1746 H 164.1 -8.071 0.401879 0
M  V30 1747 H 167.686 -5.8088 -0.327079 0
M  V30 1748 H 166.566 -7.82238 0.554373 0
M  V30 1749 N 164.069 0.697108 -1.41344 0
M  V30 1750 C 165.317 1.45426 -1.40341 0
M  V30 1751 C 165.638 1.94996 -0.0128787 0
M  V30 1752 O 164.908 1.71599 0.945027 0
M  V30 1753 H 163.488 0.539594 -0.516573 0
M  V30 1754 H 166.15 0.825201 -1.76569 0
M  V30 1755 H 165.246 2.31817 -2.08967 0
M  V30 1756 N 165.547 1.27147 0.931209 0
M  V30 1757 C 166.479 1.05364 2.03546 0
M  V30 1758 C 167.492 0.0108438 1.62796 0
M  V30 1759 O 168.681 0.25202 1.76712 0
M  V30 1760 C 165.781 0.575566 3.33977 0
M  V30 1761 C 164.954 1.68985 4.03439 0
M  V30 1762 C 164.013 1.20813 5.12143 0
M  V30 1763 O 163.039 1.90712 5.363 0
M  V30 1764 N 164.241 0.0618851 5.80467 0
M  V30 1765 H 167.006 2.00454 2.22796 0
M  V30 1766 H 164.567 1.18666 1.10136 0
M  V30 1767 H 166.559 0.237264 4.04004 0
M  V30 1768 H 165.129 -0.282016 3.11325 0
M  V30 1769 H 164.349 2.19861 3.27192 0
M  V30 1770 H 165.637 2.4378 4.46597 0
M  V30 1771 H 165.035 -0.521621 5.6329 0
M  V30 1772 H 163.592 -0.217264 6.51438 0
M  V30 1773 N 167.025 -1.13721 1.09112 0
M  V30 1774 C 168.273 -1.84559 0.823562 0
M  V30 1775 C 168.594 -1.83754 -0.652658 0
M  V30 1776 O 167.864 -1.29102 -1.47342 0
M  V30 1777 H 166.444 -0.683376 0.301673 0
M  V30 1778 H 169.106 -1.37771 1.37859 0
M  V30 1779 H 168.202 -2.8917 1.17419 0
M  V30 1780 N 168.503 -0.877838 -1.30888 0
M  V30 1781 C 169.731 -0.507414 -2.00581 0
M  V30 1782 C 170.146 0.902216 -1.65848 0
M  V30 1783 O 169.503 1.59225 -0.891831 0
M  V30 1784 C 169.554 -0.664162 -3.55347 0
M  V30 1785 O 169.275 -2.01829 -3.8884 0
M  V30 1786 C 170.776 -0.295787 -4.42312 0
M  V30 1787 H 167.996 -0.196866 -0.641471 0
M  V30 1788 H 170.54 -1.18117 -1.66939 0
M  V30 1789 H 168.695 -0.0378619 -3.87381 0
M  V30 1790 H 169.109 -2.03174 -4.8355 0
M  V30 1791 H 170.583 -0.456388 -5.5011 0
M  V30 1792 H 171.06 0.765663 -4.32475 0
M  V30 1793 H 171.666 -0.898113 -4.15709 0
M  V30 1794 N 169.982 1.44106 -0.638065 0
M  V30 1795 C 171.21 2.06336 -0.152615 0
M  V30 1796 C 171.625 1.47731 1.17563 0
M  V30 1797 O 170.982 0.602806 1.72257 0
M  V30 1798 C 171.033 3.61479 -0.0391491 0
M  V30 1799 O 170.754 4.17903 -1.31487 0
M  V30 1800 C 172.255 4.40757 0.474176 0
M  V30 1801 H 169.475 0.665862 -0.0828776 0
M  V30 1802 H 172.019 1.84862 -0.87443 0
M  V30 1803 H 170.174 3.82191 0.633142 0
M  V30 1804 H 170.588 5.11416 -1.16421 0
M  V30 1805 H 172.062 5.49707 0.502562 0
M  V30 1806 H 172.539 4.12697 1.50258 0
M  V30 1807 H 173.145 4.24979 -0.165102 0
M  V30 1808 N 171.46 0.379036 1.52974 0
M  V30 1809 C 172.39 -0.452706 2.29069 0
M  V30 1810 C 173.371 -1.07237 1.32039 0
M  V30 1811 O 174.556 -1.08708 1.60923 0
M  V30 1812 C 171.686 -1.5856 3.08992 0
M  V30 1813 C 170.64 -1.0925 4.13822 0
M  V30 1814 C 169.966 -2.31668 4.81907 0
M  V30 1815 C 171.266 -0.167702 5.22031 0
M  V30 1816 H 172.96 0.182181 2.98845 0
M  V30 1817 H 170.506 0.0890592 1.43724 0
M  V30 1818 H 172.459 -2.1742 3.6098 0
M  V30 1819 H 171.183 -2.24792 2.36931 0
M  V30 1820 H 169.842 -0.526494 3.628 0
M  V30 1821 H 169.49 -2.96386 4.06404 0
M  V30 1822 H 169.19 -1.9934 5.52754 0
M  V30 1823 H 170.714 -2.91189 5.36695 0
M  V30 1824 H 172.128 -0.664186 5.6944 0
M  V30 1825 H 170.525 0.0653265 6.00064 0
M  V30 1826 H 171.595 0.786347 4.78482 0
M  V30 1827 N 172.938 -1.57226 0.108567 0
M  V30 1828 C 174.166 -1.99179 -0.559954 0
M  V30 1829 C 174.581 -0.988022 -1.60884 0
M  V30 1830 O 173.938 0.0205512 -1.82488 0
M  V30 1831 C 173.989 -3.41159 -1.19552 0
M  V30 1832 O 173.71 -4.37694 -0.188577 0
M  V30 1833 C 175.211 -3.98188 -1.94837 0
M  V30 1834 H 172.431 -0.654228 -0.149088 0
M  V30 1835 H 174.975 -2.03598 0.19183 0
M  V30 1836 H 173.13 -3.37711 -1.89815 0
M  V30 1837 H 173.544 -5.20469 -0.649014 0
M  V30 1838 H 175.018 -4.99644 -2.34648 0
M  V30 1839 H 175.495 -3.3675 -2.81951 0
M  V30 1840 H 176.101 -4.0515 -1.2936 0
M  V30 1841 N 174.416 0.165178 -1.56732 0
M  V30 1842 C 175.662 0.882112 -1.82611 0
M  V30 1843 C 175.995 1.81628 -0.687378 0
M  V30 1844 O 175.27 1.92009 0.310267 0
M  V30 1845 C 175.553 1.67245 -3.18906 0
M  V30 1846 C 175.406 0.760987 -4.43316 0
M  V30 1847 C 176.725 2.63884 -3.52212 0
M  V30 1848 H 173.844 0.319242 -0.664269 0
M  V30 1849 H 176.486 0.148052 -1.89422 0
M  V30 1850 H 174.636 2.29824 -3.1323 0
M  V30 1851 H 176.308 0.147596 -4.61064 0
M  V30 1852 H 174.551 0.0694102 -4.33744 0
M  V30 1853 H 175.222 1.34962 -5.35247 0
M  V30 1854 H 177.698 2.11429 -3.58381 0
M  V30 1855 H 176.574 3.16245 -4.48643 0
M  V30 1856 H 176.835 3.44377 -2.77231 0
M  V30 1857 N 175.894 1.51508 0.433938 0
M  V30 1858 C 177.119 1.68443 1.21003 0
M  V30 1859 C 177.544 0.382636 1.84167 0
M  V30 1860 O 176.902 -0.65755 1.68956 0
M  V30 1861 C 176.95 2.80405 2.26727 0
M  V30 1862 O 176.054 2.44245 3.32292 0
M  V30 1863 H 175.395 0.561536 0.354363 0
M  V30 1864 H 177.925 1.9809 0.512024 0
M  V30 1865 H 177.935 3.0459 2.71457 0
M  V30 1866 H 176.61 3.74867 1.80132 0
M  V30 1867 H 175.187 2.30644 2.93015 0
M  V30 1868 N 177.372 -0.689602 1.41712 0
M  V30 1869 C 178.597 -1.48329 1.44959 0
M  V30 1870 C 179.022 -1.8801 0.0581283 0
M  V30 1871 O 178.38 -1.55026 -0.940035 0
M  V30 1872 C 178.428 -2.71835 2.36935 0
M  V30 1873 O 177.532 -3.69549 1.8305 0
M  V30 1874 H 176.873 -0.446199 0.491734 0
M  V30 1875 H 179.403 -0.847127 1.86239 0
M  V30 1876 H 179.413 -3.20076 2.53013 0
M  V30 1877 H 178.088 -2.42291 3.38035 0
M  V30 1878 H 176.665 -3.2851 1.76452 0
M  V30 1879 N 178.85 -1.27639 -0.924453 0
M  V30 1880 C 179.813 -1.10681 -2.00705 0
M  V30 1881 C 180.813 -0.0497823 -1.60723 0
M  V30 1882 O 182.003 -0.294654 -1.7169 0
M  V30 1883 C 179.135 -0.687164 -3.33902 0
M  V30 1884 H 180.328 -2.06817 -2.17179 0
M  V30 1885 H 177.881 -1.10473 -1.10569 0
M  V30 1886 H 178.616 0.275439 -3.23128 0
M  V30 1887 H 178.401 -1.45061 -3.6428 0
M  V30 1888 H 179.891 -0.590853 -4.13399 0
M  V30 1889 N 180.328 1.1314 -1.09713 0
M  V30 1890 C 181.275 2.18642 -0.739196 0
M  V30 1891 C 182.245 1.63706 0.280978 0
M  V30 1892 O 183.43 1.90111 0.161946 0
M  V30 1893 C 180.57 3.44685 -0.169102 0
M  V30 1894 C 179.683 4.13711 -1.24367 0
M  V30 1895 C 178.818 5.27379 -0.636019 0
M  V30 1896 C 177.857 5.88259 -1.69169 0
M  V30 1897 N 176.994 6.93352 -1.10485 0
M  V30 1898 H 181.834 2.48607 -1.64312 0
M  V30 1899 H 179.371 1.22066 -0.820875 0
M  V30 1900 H 181.329 4.16815 0.179256 0
M  V30 1901 H 179.959 3.15161 0.698079 0
M  V30 1902 H 179.011 3.39835 -1.70927 0
M  V30 1903 H 180.323 4.55037 -2.04311 0
M  V30 1904 H 179.477 6.06238 -0.236677 0
M  V30 1905 H 178.216 4.8731 0.194928 0
M  V30 1906 H 177.221 5.08092 -2.10055 0
M  V30 1907 H 178.446 6.30399 -2.52536 0
M  V30 1908 H 176.392 6.55335 -0.295234 0
M  V30 1909 H 176.309 7.33236 -1.84121 0
M  V30 1910 H 177.577 7.76057 -0.73181 0
M  V30 1911 N 181.806 0.884767 1.30421 0
M  V30 1912 C 183.034 0.518044 2.0031 0
M  V30 1913 C 183.449 -0.893408 1.66324 0
M  V30 1914 O 182.806 -1.5875 0.900262 0
M  V30 1915 C 182.857 0.682997 3.54989 0
M  V30 1916 O 182.578 2.03888 3.87764 0
M  V30 1917 C 184.079 0.31924 4.42149 0
M  V30 1918 H 181.299 0.200265 0.640418 0
M  V30 1919 H 183.843 1.19001 1.6631 0
M  V30 1920 H 181.998 0.0584052 3.87356 0
M  V30 1921 H 182.412 2.05735 4.82466 0
M  V30 1922 H 183.886 0.485555 5.4986 0
M  V30 1923 H 184.363 -0.742717 4.32875 0
M  V30 1924 H 184.969 0.920147 4.15227 0
M  V30 1925 N 183.284 -1.43765 0.645699 0
M  V30 1926 C 184.512 -2.06253 0.163556 0
M  V30 1927 C 184.927 -1.48352 -1.16778 0
M  V30 1928 O 184.284 -0.611932 -1.71935 0
M  V30 1929 C 184.335 -3.61453 0.0583186 0
M  V30 1930 O 184.056 -4.172 1.33702 0
M  V30 1931 C 185.557 -4.41002 -0.450795 0
M  V30 1932 H 182.777 -0.665413 0.0864077 0
M  V30 1933 H 185.321 -1.84396 0.884222 0
M  V30 1934 H 183.476 -3.82522 -0.612865 0
M  V30 1935 H 183.89 -5.10791 1.19131 0
M  V30 1936 H 185.364 -5.49966 -0.473403 0
M  V30 1937 H 185.841 -4.13488 -1.48068 0
M  V30 1938 H 186.447 -4.24886 0.187637 0
M  V30 1939 N 184.763 -0.387143 -1.52771 0
M  V30 1940 C 186.174 0.0873634 -1.86495 0
M  V30 1941 C 186.525 1.46336 -1.30691 0
M  V30 1942 O 185.65 2.068 -0.637409 0
M  V30 1943 C 186.245 0.165305 -3.38396 0
M  V30 1944 C 184.804 0.584101 -3.7184 0
M  V30 1945 C 183.951 -0.255279 -2.76122 0
M  V30 1946 H 186.902 -0.605104 -1.46711 0
M  V30 1947 H 186.923 0.984848 -3.67534 0
M  V30 1948 H 186.435 -0.836301 -3.78982 0
M  V30 1949 H 184.536 1.59315 -3.36823 0
M  V30 1950 H 184.649 0.343749 -4.77865 0
M  V30 1951 H 183.013 0.279126 -2.53166 0
M  V30 1952 H 183.796 -1.25482 -3.19545 0
M  V30 1953 N 186.241 1.57166 -0.116904 0
M  V30 1954 C 187.652 1.82169 0.408809 0
M  V30 1955 C 188.003 1.03393 1.66746 0
M  V30 1956 O 187.128 0.269886 2.1471 0
M  V30 1957 C 187.723 3.30429 0.748466 0
M  V30 1958 C 186.282 3.5612 1.21882 0
M  V30 1959 C 185.429 2.76374 0.226452 0
M  V30 1960 H 188.38 1.5497 -0.342063 0
M  V30 1961 H 188.401 3.44943 1.60607 0
M  V30 1962 H 187.913 3.87737 -0.167784 0
M  V30 1963 H 186.014 3.04168 2.15204 0
M  V30 1964 H 186.127 4.64705 1.16559 0
M  V30 1965 H 184.491 2.44515 0.713063 0
M  V30 1966 H 185.274 3.3644 -0.682859 0
M  V30 1967 N 187.719 -0.156864 1.56817 0
M  V30 1968 C 188.944 -0.890331 1.87318 0
M  V30 1969 C 189.369 -1.74394 0.704855 0
M  V30 1970 O 188.727 -1.77972 -0.345786 0
M  V30 1971 C 188.775 -1.73102 3.16336 0
M  V30 1972 O 187.879 -2.83422 2.99576 0
M  V30 1973 H 187.22 -0.24857 0.615718 0
M  V30 1974 H 189.75 -0.150649 2.04045 0
M  V30 1975 H 189.76 -2.12803 3.48107 0
M  V30 1976 H 188.435 -1.10412 4.00976 0
M  V30 1977 H 187.012 -2.47199 2.7919 0
M  V30 1978 N 189.197 -1.51736 -0.425897 0
M  V30 1979 C 190.443 -1.65214 -1.1761 0
M  V30 1980 C 190.776 -0.372778 -1.90589 0
M  V30 1981 O 190.051 0.628139 -1.84078 0
M  V30 1982 C 190.334 -2.86312 -2.18398 0
M  V30 1983 C 190.187 -4.24254 -1.49426 0
M  V30 1984 C 191.506 -3.02925 -3.19256 0
M  V30 1985 H 188.625 -0.601263 -0.426206 0
M  V30 1986 H 191.267 -1.8425 -0.463882 0
M  V30 1987 H 189.417 -2.70213 -2.79137 0
M  V30 1988 H 191.089 -4.52046 -0.919362 0
M  V30 1989 H 189.332 -4.26426 -0.796432 0
M  V30 1990 H 190.003 -5.05001 -2.22885 0
M  V30 1991 H 192.479 -3.1781 -2.68581 0
M  V30 1992 H 191.355 -3.89199 -3.8706 0
M  V30 1993 H 191.616 -2.15497 -3.86023 0
M  V30 1994 N 190.675 0.682077 -1.42076 0
M  V30 1995 C 191.905 1.46844 -1.45329 0
M  V30 1996 C 192.313 1.89102 -0.0609328 0
M  V30 1997 O 191.656 1.58238 0.933082 0
M  V30 1998 C 191.718 2.75375 -2.31104 0
M  V30 1999 C 191.382 2.55238 -3.79081 0
M  V30 2000 C 192.379 2.20309 -4.70914 0
M  V30 2001 C 190.064 2.70459 -4.2327 0
M  V30 2002 C 192.058 2.00859 -6.04925 0
M  V30 2003 C 189.745 2.50624 -5.57343 0
M  V30 2004 C 190.743 2.15876 -6.47986 0
M  V30 2005 O 190.431 1.96227 -7.79583 0
M  V30 2006 H 190.163 0.4586 -0.496651 0
M  V30 2007 H 192.717 0.846131 -1.87162 0
M  V30 2008 H 190.947 3.40061 -1.84107 0
M  V30 2009 H 192.636 3.37231 -2.25898 0
M  V30 2010 H 193.402 2.08153 -4.38061 0
M  V30 2011 H 189.281 2.96485 -3.53012 0
M  V30 2012 H 192.825 1.7366 -6.75639 0
M  V30 2013 H 188.722 2.62375 -5.89771 0
M  V30 2014 H 189.49 2.10883 -7.90867 0
M  V30 2015 N 192.153 1.28127 0.917671 0
M  V30 2016 C 193.564 1.13622 1.48145 0
M  V30 2017 C 193.915 -0.275207 1.9426 0
M  V30 2018 O 193.04 -1.1691 1.82102 0
M  V30 2019 C 193.635 2.05648 2.69248 0
M  V30 2020 C 192.194 1.95219 3.21818 0
M  V30 2021 C 191.341 1.97618 1.94532 0
M  V30 2022 H 194.292 1.40874 0.730772 0
M  V30 2023 H 194.313 1.61818 3.44377 0
M  V30 2024 H 193.825 3.08365 2.35653 0
M  V30 2025 H 191.926 0.955244 3.60147 0
M  V30 2026 H 192.039 2.81976 3.87333 0
M  V30 2027 H 190.403 1.41973 2.11461 0
M  V30 2028 H 191.186 3.02007 1.63238 0
M  V30 2029 N 193.631 -1.12557 1.10312 0
M  V30 2030 C 194.561 -2.20341 0.772798 0
M  V30 2031 C 195.542 -1.68198 -0.25365 0
M  V30 2032 O 196.727 -1.93831 -0.119699 0
M  V30 2033 C 193.857 -3.46709 0.202443 0
M  V30 2034 C 192.811 -4.11996 1.15943 0
M  V30 2035 C 192.137 -5.328 0.450345 0
M  V30 2036 C 193.437 -4.5828 2.50552 0
M  V30 2037 H 195.131 -2.48229 1.674 0
M  V30 2038 H 192.677 -1.19308 0.806326 0
M  V30 2039 H 194.63 -4.2138 -0.0407752 0
M  V30 2040 H 193.354 -3.18245 -0.734001 0
M  V30 2041 H 192.013 -3.39305 1.38808 0
M  V30 2042 H 191.661 -5.00602 -0.490531 0
M  V30 2043 H 191.361 -5.7743 1.08851 0
M  V30 2044 H 192.885 -6.10219 0.215642 0
M  V30 2045 H 194.299 -5.2433 2.31843 0
M  V30 2046 H 192.696 -5.13683 3.10242 0
M  V30 2047 H 193.766 -3.72329 3.10643 0
M  V30 2048 N 195.109 -0.891671 -1.2995 0
M  V30 2049 C 196.072 -0.36828 -2.26222 0
M  V30 2050 C 197.072 0.493014 -1.53056 0
M  V30 2051 O 198.262 0.299213 -1.71611 0
M  V30 2052 C 195.394 0.47442 -3.37583 0
M  V30 2053 H 196.587 -1.21844 -2.74033 0
M  V30 2054 H 194.14 -0.669107 -1.41254 0
M  V30 2055 H 194.875 1.34489 -2.95099 0
M  V30 2056 H 194.66 -0.142615 -3.91841 0
M  V30 2057 H 196.15 0.83218 -4.09224 0
M  V30 2058 N 196.587 1.43421 -0.653314 0
M  V30 2059 C 197.998 1.85065 -0.246537 0
M  V30 2060 C 198.349 1.54688 1.2069 0
M  V30 2061 O 197.474 0.995896 1.92122 0
M  V30 2062 C 198.069 3.35922 -0.440666 0
M  V30 2063 C 196.628 3.76297 -0.0882064 0
M  V30 2064 C 195.775 2.67147 -0.743484 0
M  V30 2065 H 198.726 1.33572 -0.856979 0
M  V30 2066 H 198.747 3.79204 0.313798 0
M  V30 2067 H 198.259 3.58 -1.49858 0
M  V30 2068 H 196.36 3.5983 0.96711 0
M  V30 2069 H 196.473 4.76338 -0.513738 0
M  V30 2070 H 194.837 2.54086 -0.176712 0
M  V30 2071 H 195.62 2.92053 -1.80443 0
M  V30 2072 N 198.065 0.39524 1.52563 0
M  V30 2073 C 199.313 -0.184678 2.01254 0
M  V30 2074 C 199.634 -1.46822 1.28329 0
M  V30 2075 O 198.904 -1.91666 0.405094 0
M  V30 2076 H 197.484 -0.0712355 0.743596 0
M  V30 2077 H 200.146 0.528293 1.87603 0
M  V30 2078 H 199.242 -0.390681 3.09645 0
M  V30 2079 N 199.544 -1.57102 0.125237 0
M  V30 2080 C 200.769 -2.0019 -0.542101 0
M  V30 2081 C 201.194 -1.00449 -1.59034 0
M  V30 2082 O 200.552 0.0229423 -1.81285 0
M  V30 2083 C 200.6 -3.42129 -1.13929 0
M  V30 2084 O 199.704 -3.45307 -2.2547 0
M  V30 2085 H 199.045 -0.650171 -0.134812 0
M  V30 2086 H 201.575 -2.03461 0.215553 0
M  V30 2087 H 201.585 -3.80471 -1.4733 0
M  V30 2088 H 200.26 -4.14237 -0.371531 0
M  V30 2089 H 198.837 -3.1879 -1.93462 0
M  V30 2090 N 201.022 0.148545 -1.56898 0
M  V30 2091 C 201.985 1.16736 -1.97244 0
M  V30 2092 C 202.985 1.35947 -0.858777 0
M  V30 2093 O 204.175 1.32966 -1.12542 0
M  V30 2094 C 201.307 2.52798 -2.28705 0
M  V30 2095 H 202.5 0.821279 -2.88435 0
M  V30 2096 H 200.053 0.391831 -1.51309 0
M  V30 2097 H 200.788 2.92381 -1.403 0
M  V30 2098 H 200.573 2.40216 -3.09901 0
M  V30 2099 H 202.063 3.26179 -2.60762 0
M  V30 2100 N 202.5 1.5196 0.417844 0
M  V30 2101 C 203.463 1.74065 1.49111 0
M  V30 2102 C 204.463 0.610537 1.48758 0
M  V30 2103 O 205.653 0.87832 1.50437 0
M  V30 2104 C 202.785 1.81502 2.88565 0
M  V30 2105 H 203.978 2.69869 1.30807 0
M  V30 2106 H 201.531 1.42244 0.647785 0
M  V30 2107 H 202.266 0.875813 3.1225 0
M  V30 2108 H 202.051 2.63651 2.90225 0
M  V30 2109 H 203.541 2.00376 3.66387 0
M  V30 2110 N 203.978 -0.674533 1.42435 0
M  V30 2111 C 204.91 -1.80005 1.41883 0
M  V30 2112 C 205.923 -1.59667 0.31787 0
M  V30 2113 O 207.112 -1.68781 0.580973 0
M  V30 2114 C 204.212 -3.17114 1.19549 0
M  V30 2115 C 203.385 -3.64299 2.42084 0
M  V30 2116 C 202.444 -4.80142 2.15291 0
M  V30 2117 O 201.47 -4.90673 2.88493 0
M  V30 2118 N 202.672 -5.68869 1.1562 0
M  V30 2119 H 205.437 -1.80964 2.38898 0
M  V30 2120 H 202.998 -0.857633 1.37318 0
M  V30 2121 H 204.99 -3.92267 0.995417 0
M  V30 2122 H 203.56 -3.11053 0.310569 0
M  V30 2123 H 202.78 -2.79822 2.77657 0
M  V30 2124 H 204.068 -3.92567 3.23679 0
M  V30 2125 H 203.466 -5.63012 0.550765 0
M  V30 2126 H 202.023 -6.43833 1.016 0
M  V30 2127 N 205.456 -1.28612 -0.910864 0
M  V30 2128 C 206.684 -1.18792 -1.69399 0
M  V30 2129 C 207.099 0.253039 -1.87097 0
M  V30 2130 O 206.456 1.17071 -1.40003 0
M  V30 2131 C 206.507 -1.88511 -3.08457 0
M  V30 2132 O 206.228 -3.26979 -2.91576 0
M  V30 2133 C 207.729 -1.85029 -4.02839 0
M  V30 2134 H 204.949 -0.412233 -0.529438 0
M  V30 2135 H 207.493 -1.69788 -1.13984 0
M  V30 2136 H 205.648 -1.41379 -3.60681 0
M  V30 2137 H 206.062 -3.61936 -3.79608 0
M  V30 2138 H 207.536 -2.38395 -4.97867 0
M  V30 2139 H 208.013 -0.823303 -4.31414 0
M  V30 2140 H 208.619 -2.31853 -3.56545 0
M  V30 2141 N 206.934 1.1197 -1.10907 0
M  V30 2142 C 207.882 2.19927 -0.757303 0
M  V30 2143 C 208.876 1.67564 0.248747 0
M  V30 2144 O 210.082 1.79672 0.108605 0
M  V30 2145 H 206.457 0.716925 -0.226987 0
M  V30 2146 H 208.428 2.46847 -1.67658 0
M  V30 2147 C 207.177 3.47061 -0.210671 0
M  V30 2148 H 206.5 3.87703 -0.976049 0
M  V30 2149 H 207.94 4.24 -0.0026584 0
M  V30 2150 C 206.399 3.19864 1.05777 0
M  V30 2151 O 206.929 3.40049 2.13845 0
M  V30 2152 N 205.135 2.73636 0.978349 0
M  V30 2153 H 204.682 2.5741 0.0988246 0
M  V30 2154 H 204.64 2.55815 1.82773 0
M  V30 2155 N 208.412 0.89855 1.29475 0
M  V30 2156 C 209.637 0.538561 2.00285 0
M  V30 2157 C 210.062 -0.869135 1.66816 0
M  V30 2158 O 209.42 -1.57831 0.892145 0
M  V30 2159 C 209.468 0.736475 3.52999 0
M  V30 2160 O 208.572 -0.211537 4.11857 0
M  V30 2161 H 207.913 0.210563 0.62973 0
M  V30 2162 H 210.443 1.20982 1.64998 0
M  V30 2163 H 210.453 0.640685 4.02938 0
M  V30 2164 H 209.128 1.76276 3.76696 0
M  V30 2165 H 207.705 -0.0682991 3.72837 0
M  V30 2166 N 209.89 -1.43072 0.660911 0
M  V30 2167 C 210.823 -2.28074 -0.0758862 0
M  V30 2168 C 211.801 -1.40271 -0.822362 0
M  V30 2169 O 212.985 -1.69713 -0.820352 0
M  V30 2170 C 210.112 -3.19843 -1.11437 0
M  V30 2171 C 209.158 -4.23957 -0.465069 0
M  V30 2172 S 209.991 -5.29978 0.767078 0
M  V30 2173 C 211.147 -6.25314 -0.270682 0
M  V30 2174 H 211.38 -2.90216 0.645139 0
M  V30 2175 H 208.913 -1.47697 0.449995 0
M  V30 2176 H 210.871 -3.73257 -1.70849 0
M  V30 2177 H 209.532 -2.56863 -1.80776 0
M  V30 2178 H 208.725 -4.88299 -1.24819 0
M  V30 2179 H 208.327 -3.73959 0.0551242 0
M  V30 2180 H 210.619 -6.67932 -1.13459 0
M  V30 2181 H 211.562 -7.07293 0.337916 0
M  V30 2182 H 211.97 -5.61195 -0.609937 0
M  V30 2183 N 211.368 -0.403325 -1.52352 0
M  V30 2184 C 212.614 0.174605 -2.02047 0
M  V30 2185 C 212.947 1.45282 -1.28867 0
M  V30 2186 O 212.222 1.90483 -0.393257 0
M  V30 2187 C 212.505 0.428238 -3.57545 0
M  V30 2188 C 212.358 -0.866248 -4.4138 0
M  V30 2189 C 213.677 1.21287 -4.23057 0
M  V30 2190 H 210.796 0.0619851 -0.734389 0
M  V30 2191 H 213.438 -0.53565 -1.82293 0
M  V30 2192 H 211.588 1.03327 -3.74507 0
M  V30 2193 H 213.26 -1.50265 -4.3614 0
M  V30 2194 H 211.503 -1.47851 -4.07827 0
M  V30 2195 H 212.174 -0.643249 -5.48239 0
M  V30 2196 H 214.65 0.700703 -4.10158 0
M  V30 2197 H 213.526 1.35909 -5.31808 0
M  V30 2198 H 213.787 2.23193 -3.81625 0
M  V30 2199 N 212.846 1.57033 -0.133567 0
M  V30 2200 C 214.074 2.00044 0.528195 0
M  V30 2201 C 214.489 1.01349 1.59291 0
M  V30 2202 O 213.846 0.00848369 1.82498 0
M  V30 2203 C 213.897 3.43018 1.1411 0
M  V30 2204 O 213.618 4.37939 0.11892 0
M  V30 2205 C 215.119 4.01237 1.88477 0
M  V30 2206 H 212.339 0.656517 0.138661 0
M  V30 2207 H 214.883 2.03267 -0.224196 0
M  V30 2208 H 213.038 3.40688 1.84418 0
M  V30 2209 H 213.452 5.21436 0.56613 0
M  V30 2210 H 214.926 5.03314 2.26669 0
M  V30 2211 H 215.403 3.41193 2.76558 0
M  V30 2212 H 216.009 4.07156 1.22898 0
M  V30 2213 N 214.325 -0.140222 1.56975 0
M  V30 2214 C 215.255 -1.17456 2.01808 0
M  V30 2215 C 216.236 -1.44415 0.898794 0
M  V30 2216 O 217.421 -1.5522 1.16707 0
M  V30 2217 C 214.551 -2.50607 2.40444 0
M  V30 2218 C 213.505 -2.38155 3.55621 0
M  V30 2219 C 212.831 -3.76078 3.80091 0
M  V30 2220 C 214.131 -1.85991 4.88062 0
M  V30 2221 H 215.825 -0.801743 2.88466 0
M  V30 2222 H 213.371 -0.38422 1.38779 0
M  V30 2223 H 215.324 -3.23197 2.7041 0
M  V30 2224 H 214.048 -2.89737 1.50732 0
M  V30 2225 H 212.707 -1.68016 3.25832 0
M  V30 2226 H 212.355 -4.12656 2.87618 0
M  V30 2227 H 212.055 -3.68606 4.57606 0
M  V30 2228 H 213.579 -4.50206 4.12488 0
M  V30 2229 H 214.993 -2.4838 5.16701 0
M  V30 2230 H 213.39 -1.89393 5.6943 0
M  V30 2231 H 214.46 -0.816023 4.77984 0
M  V30 2232 N 215.803 -1.52179 -0.40978 0
M  V30 2233 C 217.051 -1.65878 -1.15451 0
M  V30 2234 C 217.372 -0.390771 -1.91044 0
M  V30 2235 O 216.642 0.594323 -1.86667 0
M  V30 2236 H 215.222 -0.611405 -0.429177 0
M  V30 2237 H 217.884 -1.89219 -0.467134 0
M  V30 2238 H 216.98 -2.49954 -1.86894 0
M  V30 2239 N 217.281 0.66697 -1.42791 0
M  V30 2240 C 218.521 1.43892 -1.4517 0
M  V30 2241 C 218.885 1.91877 -0.0687551 0
M  V30 2242 O 220.086 2.6878 0.0327455 0
M  V30 2243 C 218.357 2.59839 -2.45395 0
M  V30 2244 S 219.916 3.48572 -2.66539 0
M  V30 2245 H 216.734 0.491356 -0.513897 0
M  V30 2246 H 219.336 0.775656 -1.79454 0
M  V30 2247 H 218.04 2.22838 -3.44632 0
M  V30 2248 H 217.571 3.3103 -2.12562 0
M  V30 2249 H 219.586 4.56094 -1.95429 0
M  V30 2250 N 218.759 1.29093 0.90403 0
M  V30 2251 C 219.689 1.16401 2.02418 0
M  V30 2252 C 220.67 0.0593085 1.69997 0
M  V30 2253 O 221.855 0.238021 1.92736 0
M  V30 2254 C 218.985 0.835233 3.37107 0
M  V30 2255 C 217.939 1.89578 3.83724 0
M  V30 2256 C 217.265 1.42041 5.15489 0
M  V30 2257 C 218.565 3.30394 4.04521 0
M  V30 2258 H 220.259 2.10109 2.13295 0
M  V30 2259 H 217.805 1.01157 1.02486 0
M  V30 2260 H 219.758 0.733169 4.14973 0
M  V30 2261 H 218.482 -0.137543 3.2631 0
M  V30 2262 H 217.141 1.98715 3.08071 0
M  V30 2263 H 216.789 0.436426 5.01103 0
M  V30 2264 H 216.489 2.12964 5.4765 0
M  V30 2265 H 218.013 1.33176 5.959 0
M  V30 2266 H 219.427 3.24123 4.72882 0
M  V30 2267 H 217.824 3.99237 4.48029 0
M  V30 2268 H 218.894 3.73692 3.09002 0
M  V30 2269 N 220.237 -1.11381 1.11499 0
M  V30 2270 C 221.483 -1.83403 0.865512 0
M  V30 2271 C 221.816 -1.84459 -0.607329 0
M  V30 2272 O 221.091 -1.29811 -1.44842 0
M  V30 2273 C 221.374 -3.30552 1.42855 0
M  V30 2274 C 221.227 -3.37886 2.96906 0
M  V30 2275 C 222.546 -4.26643 1.08 0
M  V30 2276 H 219.665 -0.665879 0.31587 0
M  V30 2277 H 222.307 -1.30601 1.37998 0
M  V30 2278 H 220.457 -3.75648 0.990985 0
M  V30 2279 H 222.129 -3.01343 3.49271 0
M  V30 2280 H 220.372 -2.78088 3.32941 0
M  V30 2281 H 221.043 -4.41458 3.31389 0
M  V30 2282 H 223.519 -3.89729 1.45775 0
M  V30 2283 H 222.395 -5.27986 1.50072 0
M  V30 2284 H 222.656 -4.42099 -0.00915037 0
M  V30 2285 N 221.715 -0.905404 -1.28997 0
M  V30 2286 C 222.662 -0.385892 -2.27551 0
M  V30 2287 C 223.632 0.535113 -1.57244 0
M  V30 2288 O 224.817 0.459119 -1.85194 0
M  V30 2289 C 221.957 0.375461 -3.43051 0
M  V30 2290 C 221.07 -0.577092 -4.28128 0
M  V30 2291 C 220.205 0.201879 -5.30816 0
M  V30 2292 C 219.244 -0.744829 -6.07551 0
M  V30 2293 N 218.381 9.42587e-05 -7.021 0
M  V30 2294 H 223.221 -1.23139 -2.71368 0
M  V30 2295 H 220.758 -0.618542 -1.33463 0
M  V30 2296 H 222.716 0.832992 -4.088 0
M  V30 2297 H 221.346 1.18537 -3.00248 0
M  V30 2298 H 220.398 -1.15315 -3.62501 0
M  V30 2299 H 221.71 -1.30152 -4.8152 0
M  V30 2300 H 220.864 0.720351 -6.02408 0
M  V30 2301 H 219.603 0.959413 -4.7817 0
M  V30 2302 H 218.608 -1.27475 -5.34818 0
M  V30 2303 H 219.833 -1.50178 -6.62286 0
M  V30 2304 H 217.779 0.739791 -6.51815 0
M  V30 2305 H 217.696 -0.664321 -7.53076 0
M  V30 2306 H 218.964 0.498644 -7.77903 0
M  V30 2307 N 223.193 1.4272 -0.668489 0
M  V30 2308 C 224.441 2.01226 -0.187769 0
M  V30 2309 C 224.762 1.53092 1.2078 0
M  V30 2310 O 224.032 0.74993 1.80977 0
M  V30 2311 H 222.612 0.744041 -0.0664272 0
M  V30 2312 H 225.274 1.74723 -0.863583 0
M  V30 2313 H 224.37 3.11556 -0.184166 0
M  V30 2314 N 224.671 0.411399 1.52136 0
M  V30 2315 C 225.901 -0.16284 2.05957 0
M  V30 2316 C 226.309 -1.3922 1.28119 0
M  V30 2317 O 225.652 -1.80768 0.326881 0
M  V30 2318 C 225.714 -0.575946 3.54856 0
M  V30 2319 C 225.378 0.542998 4.53763 0
M  V30 2320 C 226.375 1.40726 5.00492 0
M  V30 2321 C 224.06 0.716337 4.97166 0
M  V30 2322 C 226.054 2.4298 5.8927 0
M  V30 2323 C 223.741 1.74218 5.8574 0
M  V30 2324 C 224.739 2.59731 6.31687 0
M  V30 2325 O 224.427 3.60558 7.18507 0
M  V30 2326 H 224.159 -0.0229125 0.675612 0
M  V30 2327 H 226.713 0.581634 1.96993 0
M  V30 2328 H 224.943 -1.37274 3.61515 0
M  V30 2329 H 226.632 -1.07836 3.91313 0
M  V30 2330 H 227.398 1.28476 4.67674 0
M  V30 2331 H 223.277 0.0603857 4.6096 0
M  V30 2332 H 226.821 3.0976 6.25055 0
M  V30 2333 H 222.718 1.86498 6.17971 0
M  V30 2334 H 223.486 3.56829 7.36624 0
M  V30 2335 N 226.149 -1.5696 0.141893 0
M  V30 2336 C 227.396 -1.9596 -0.510492 0
M  V30 2337 C 227.724 -1.02648 -1.65208 0
M  V30 2338 O 226.979 -0.0546947 -1.95624 0
M  V30 2339 C 227.278 -3.41242 -1.06249 0
M  V30 2340 C 226.944 -4.50882 -0.0398791 0
M  V30 2341 C 225.606 -4.80595 0.241247 0
M  V30 2342 C 227.958 -5.17058 0.65578 0
M  V30 2343 C 225.286 -5.73792 1.22393 0
M  V30 2344 C 227.638 -6.11313 1.62724 0
M  V30 2345 C 226.302 -6.39407 1.91612 0
M  V30 2346 H 225.572 -0.717068 -0.186802 0
M  V30 2347 H 228.219 -1.90142 0.227643 0
M  V30 2348 H 226.524 -3.43866 -1.87785 0
M  V30 2349 H 228.221 -3.68742 -1.57576 0
M  V30 2350 H 224.811 -4.27754 -0.269174 0
M  V30 2351 H 228.995 -4.94239 0.451779 0
M  V30 2352 H 224.251 -5.93853 1.45424 0
M  V30 2353 H 228.425 -6.61668 2.17183 0
M  V30 2354 H 226.052 -7.11427 2.6791 0
M  V30 2355 N 227.627 0.131896 -1.57047 0
M  V30 2356 C 229.038 0.690407 -1.73465 0
M  V30 2357 C 229.389 1.8094 -0.758629 0
M  V30 2358 O 228.514 2.16282 0.0713813 0
M  V30 2359 C 229.109 1.25916 -3.14532 0
M  V30 2360 C 227.668 1.76409 -3.32501 0
M  V30 2361 C 226.815 0.658579 -2.69366 0
M  V30 2362 H 229.766 -0.0939144 -1.58422 0
M  V30 2363 H 229.787 2.12892 -3.15369 0
M  V30 2364 H 229.299 0.444515 -3.85546 0
M  V30 2365 H 227.4 2.60391 -2.66509 0
M  V30 2366 H 227.513 1.88241 -4.4057 0
M  V30 2367 H 225.877 1.08899 -2.30246 0
M  V30 2368 H 226.66 -0.14487 -3.42994 0
M  V30 2369 N 229.106 1.52395 0.401703 0
M  V30 2370 C 230.016 1.7917 1.51444 0
M  V30 2371 C 231.032 0.677691 1.6026 0
M  V30 2372 O 232.208 0.963909 1.76835 0
M  V30 2373 C 229.273 1.94347 2.87107 0
M  V30 2374 C 228.334 3.18257 2.88116 0
M  V30 2375 C 227.567 3.32701 4.17308 0
M  V30 2376 O 227.79 2.52238 5.11598 0
M  V30 2377 O 226.724 4.25891 4.25324 0
M  V30 2378 H 230.55 2.73633 1.31752 0
M  V30 2379 H 228.135 1.3733 0.588296 0
M  V30 2380 H 230.017 2.06109 3.67555 0
M  V30 2381 H 228.692 1.03073 3.06851 0
M  V30 2382 H 227.599 3.11947 2.06494 0
M  V30 2383 H 228.932 4.09336 2.73322 0
M  V30 2384 N 230.584 -0.659388 1.43143 0
M  V30 2385 C 231.995 -1.24041 1.39537 0
M  V30 2386 C 232.346 -1.95963 0.0963364 0
M  V30 2387 O 231.471 -2.00892 -0.804438 0
M  V30 2388 C 232.066 -2.25601 2.52764 0
M  V30 2389 C 230.625 -2.79195 2.52443 0
M  V30 2390 C 229.772 -1.53743 2.30778 0
M  V30 2391 H 232.723 -0.451792 1.52133 0
M  V30 2392 H 232.744 -3.07651 2.23899 0
M  V30 2393 H 232.256 -1.73226 3.47296 0
M  V30 2394 H 230.357 -3.35649 1.61773 0
M  V30 2395 H 230.47 -3.2716 3.50004 0
M  V30 2396 H 228.834 -1.80869 1.79328 0
M  V30 2397 H 229.617 -1.03312 3.27386 0
M  V30 2398 N 232.062 -1.29571 -0.897171 0
M  V30 2399 C 233.308 -1.17863 -1.65034 0
M  V30 2400 C 233.641 0.268729 -1.92332 0
M  V30 2401 O 232.916 1.19378 -1.53555 0
M  V30 2402 C 233.199 -1.995 -2.99786 0
M  V30 2403 C 233.052 -3.5239 -2.79538 0
M  V30 2404 C 234.371 -1.82335 -4.00552 0
M  V30 2405 H 231.49 -0.429528 -0.598895 0
M  V30 2406 H 234.132 -1.59072 -1.03905 0
M  V30 2407 H 232.282 -1.64485 -3.51962 0
M  V30 2408 H 233.954 -3.97401 -2.34244 0
M  V30 2409 H 232.197 -3.77187 -2.14273 0
M  V30 2410 H 232.868 -4.04787 -3.75302 0
M  V30 2411 H 235.344 -2.12924 -3.57495 0
M  V30 2412 H 234.22 -2.41801 -4.92771 0
M  V30 2413 H 234.481 -0.779209 -4.35179 0
M  V30 2414 N 233.54 1.10788 -1.12088 0
M  V30 2415 C 234.768 1.86461 -0.896651 0
M  V30 2416 C 235.183 1.80492 0.553912 0
M  V30 2417 O 234.54 1.19102 1.38278 0
M  V30 2418 C 234.591 3.35006 -1.35843 0
M  V30 2419 O 234.312 3.40866 -2.75213 0
M  V30 2420 C 235.813 4.27565 -1.1706 0
M  V30 2421 H 233.033 0.589425 -0.320654 0
M  V30 2422 H 235.577 1.40076 -1.48993 0
M  V30 2423 H 233.732 3.7887 -0.808458 0
M  V30 2424 H 234.146 4.33411 -2.9539 0
M  V30 2425 H 235.62 5.30007 -1.54263 0
M  V30 2426 H 236.097 4.3906 -0.110814 0
M  V30 2427 H 236.703 3.89501 -1.70789 0
M  V30 2428 N 235.018 0.912232 1.28515 0
M  V30 2429 C 236.264 0.545405 1.95328 0
M  V30 2430 C 236.597 -0.908313 1.71649 0
M  V30 2431 O 235.872 -1.64575 1.03659 0
M  V30 2432 C 236.155 0.853483 3.4984 0
M  V30 2433 C 236.008 2.35982 3.82926 0
M  V30 2434 C 237.327 0.348589 4.38717 0
M  V30 2435 H 234.446 0.199626 0.709449 0
M  V30 2436 H 237.088 1.1412 1.5191 0
M  V30 2437 H 235.238 0.34643 3.86952 0
M  V30 2438 H 236.91 2.93738 3.55691 0
M  V30 2439 H 235.153 2.81543 3.30024 0
M  V30 2440 H 235.824 2.52593 4.90816 0
M  V30 2441 H 238.3 0.78294 4.08668 0
M  V30 2442 H 237.176 0.593242 5.45685 0
M  V30 2443 H 237.437 -0.751049 4.35674 0
M  V30 2444 N 236.496 -1.42363 0.676048 0
M  V30 2445 C 237.724 -2.05859 0.207268 0
M  V30 2446 C 238.139 -1.50796 -1.13605 0
M  V30 2447 O 237.496 -0.648265 -1.70598 0
M  V30 2448 C 237.547 -3.61248 0.134975 0
M  V30 2449 O 237.268 -4.1427 1.42521 0
M  V30 2450 C 238.769 -4.41859 -0.357151 0
M  V30 2451 H 235.989 -0.663431 0.100503 0
M  V30 2452 H 238.533 -1.82479 0.923136 0
M  V30 2453 H 236.688 -3.83735 -0.531588 0
M  V30 2454 H 237.102 -5.0815 1.29939 0
M  V30 2455 H 238.576 -5.50847 -0.356641 0
M  V30 2456 H 239.053 -4.16536 -1.39264 0
M  V30 2457 H 239.659 -4.24392 0.27772 0
M  V30 2458 N 237.974 -0.419461 -1.51915 0
M  V30 2459 C 239.22 0.145505 -2.02879 0
M  V30 2460 C 239.575 1.41926 -1.29903 0
M  V30 2461 O 238.868 1.87383 -0.399782 0
M  V30 2462 C 239.062 0.437067 -3.54717 0
M  V30 2463 C 238.891 -0.806877 -4.42402 0
M  V30 2464 C 237.661 -1.33514 -4.87342 0
M  V30 2465 C 239.859 -1.68796 -4.85811 0
M  V30 2466 N 237.841 -2.53349 -5.59185 0
M  V30 2467 C 239.212 -2.73247 -5.56539 0
M  V30 2468 C 241.267 -1.70449 -4.67816 0
M  V30 2469 C 239.97 -3.79276 -6.11181 0
M  V30 2470 C 241.996 -2.75403 -5.23361 0
M  V30 2471 C 241.358 -3.78575 -5.9402 0
M  V30 2472 H 237.457 0.0145424 -0.781865 0
M  V30 2473 H 240.041 -0.576126 -1.85981 0
M  V30 2474 H 238.212 1.12774 -3.71667 0
M  V30 2475 H 239.944 0.99182 -3.92358 0
M  V30 2476 H 236.699 -0.891657 -4.65131 0
M  V30 2477 H 237.123 -3.14066 -5.99743 0
M  V30 2478 H 241.765 -0.920209 -4.12664 0
M  V30 2479 H 239.483 -4.58554 -6.65397 0
M  V30 2480 H 243.069 -2.77603 -5.113 0
M  V30 2481 H 241.949 -4.58453 -6.36231 0
M  V30 2482 N 239.452 1.56882 -0.150215 0
M  V30 2483 C 240.4 2.18214 0.805313 0
M  V30 2484 C 241.394 1.14006 1.25296 0
M  V30 2485 O 242.6 1.3225 1.22107 0
M  V30 2486 H 238.975 0.698762 0.277913 0
M  V30 2487 H 240.946 2.97231 0.263862 0
M  V30 2488 C 239.695 2.82065 2.03309 0
M  V30 2489 H 239.018 3.61968 1.69763 0
M  V30 2490 H 240.458 3.28477 2.68103 0
M  V30 2491 C 238.917 1.80739 2.84315 0
M  V30 2492 O 239.447 1.27983 3.80767 0
M  V30 2493 N 237.653 1.4997 2.48913 0
M  V30 2494 H 237.2 1.93062 1.70542 0
M  V30 2495 H 237.158 0.824217 3.03404 0
M  V30 2496 N 240.93 -0.123565 1.57115 0
M  V30 2497 C 242.155 -0.850398 1.89164 0
M  V30 2498 C 242.58 -1.7286 0.741688 0
M  V30 2499 O 241.938 -1.78665 -0.307958 0
M  V30 2500 C 241.986 -1.66353 3.19936 0
M  V30 2501 O 241.09 -2.77004 3.0552 0
M  V30 2502 H 240.431 -0.235454 0.620852 0
M  V30 2503 H 242.961 -0.107335 2.04318 0
M  V30 2504 H 242.971 -2.05372 3.52543 0
M  V30 2505 H 241.646 -1.01881 4.03228 0
M  V30 2506 H 240.223 -2.41221 2.84371 0
M  V30 2507 N 242.408 -1.52605 -0.393616 0
M  V30 2508 C 243.656 -1.67093 -1.13685 0
M  V30 2509 C 243.977 -0.411011 -1.90619 0
M  V30 2510 O 243.247 0.574491 -1.87287 0
M  V30 2511 H 241.827 -0.615923 -0.422668 0
M  V30 2512 H 244.489 -1.89704 -0.447039 0
M  V30 2513 H 243.585 -2.51922 -1.84232 0
M  V30 2514 N 243.887 0.651787 -1.4349 0
M  V30 2515 C 245.112 1.44434 -1.48841 0
M  V30 2516 C 245.537 1.8779 -0.107955 0
M  V30 2517 O 244.895 1.57464 0.898602 0
M  V30 2518 C 244.943 2.65458 -2.44059 0
M  V30 2519 O 244.047 3.64566 -1.92784 0
M  V30 2520 H 243.388 0.433005 -0.503391 0
M  V30 2521 H 245.918 0.797451 -1.88419 0
M  V30 2522 H 245.928 3.13255 -2.6141 0
M  V30 2523 H 244.603 2.33244 -3.4434 0
M  V30 2524 H 243.18 3.23716 -1.851 0
M  V30 2525 N 245.365 1.30045 0.890287 0
M  V30 2526 C 246.295 1.18541 2.01172 0
M  V30 2527 C 247.276 0.0773356 1.69924 0
M  V30 2528 O 248.461 0.25845 1.92473 0
M  V30 2529 C 245.591 0.870941 3.36202 0
M  V30 2530 C 244.545 1.93637 3.81692 0
M  V30 2531 C 243.871 1.475 5.13953 0
M  V30 2532 C 245.171 3.34666 4.00994 0
M  V30 2533 H 246.865 2.12359 2.11054 0
M  V30 2534 H 244.411 1.02238 1.01407 0
M  V30 2535 H 246.364 0.777141 4.14172 0
M  V30 2536 H 245.088 -0.102926 3.26438 0
M  V30 2537 H 243.747 2.01972 3.05946 0
M  V30 2538 H 243.395 0.489551 5.00612 0
M  V30 2539 H 243.095 2.1876 5.4536 0
M  V30 2540 H 244.619 1.39489 5.94454 0
M  V30 2541 H 246.033 3.2912 4.69417 0
M  V30 2542 H 244.43 4.03966 4.43769 0
M  V30 2543 H 245.5 3.76949 3.05021 0
M  V30 2544 N 246.843 -1.10192 1.12674 0
M  V30 2545 C 248.068 -1.86523 0.906853 0
M  V30 2546 C 248.493 -1.80221 -0.538711 0
M  V30 2547 O 247.851 -1.17396 -1.38158 0
M  V30 2548 C 247.899 -3.32758 1.3894 0
M  V30 2549 O 247.003 -4.08449 0.5695 0
M  V30 2550 H 246.344 -0.578678 0.325619 0
M  V30 2551 H 248.874 -1.39203 1.49946 0
M  V30 2552 H 248.884 -3.83608 1.38958 0
M  V30 2553 H 247.559 -3.36661 2.44197 0
M  V30 2554 H 246.136 -3.67427 0.636528 0
M  V30 2555 N 248.321 -0.919034 -1.28029 0
M  V30 2556 C 249.546 -0.570357 -1.99403 0
M  V30 2557 C 249.971 0.842486 -1.68178 0
M  V30 2558 O 249.329 1.56391 -0.917141 0
M  V30 2559 C 249.377 -0.792541 -3.51783 0
M  V30 2560 O 248.481 0.145988 -4.12142 0
M  V30 2561 H 247.822 -0.220555 -0.6263 0
M  V30 2562 H 250.352 -1.23592 -1.63053 0
M  V30 2563 H 250.362 -0.704708 -4.01868 0
M  V30 2564 H 249.037 -1.82247 -3.73844 0
M  V30 2565 H 247.614 0.00897528 -3.72899 0
M  V30 2566 N 249.799 1.42003 -0.683588 0
M  V30 2567 C 251.047 2.01015 -0.209101 0
M  V30 2568 C 251.368 1.54365 1.19149 0
M  V30 2569 O 250.638 0.769083 1.80172 0
M  V30 2570 H 249.218 0.743294 -0.074315 0
M  V30 2571 H 251.88 1.73798 -0.882066 0
M  V30 2572 H 250.976 3.11343 -0.2172 0
M  V30 2573 N 251.277 0.427512 1.51691 0
M  V30 2574 C 252.523 -0.142439 2.02299 0
M  V30 2575 C 252.856 -1.43214 1.31162 0
M  V30 2576 O 252.131 -1.89833 0.423511 0
M  V30 2577 C 252.414 -0.371301 3.58181 0
M  V30 2578 C 252.267 0.936358 4.39946 0
M  V30 2579 C 253.586 -1.14542 4.24933 0
M  V30 2580 H 250.705 -0.0502937 0.735282 0
M  V30 2581 H 253.347 0.564584 1.81418 0
M  V30 2582 H 251.497 -0.973559 3.76104 0
M  V30 2583 H 253.169 1.57184 4.33694 0
M  V30 2584 H 251.412 1.5432 4.05423 0
M  V30 2585 H 252.083 0.730388 5.47147 0
M  V30 2586 H 254.559 -0.635362 4.11221 0
M  V30 2587 H 253.435 -1.27431 5.33903 0
M  V30 2588 H 253.696 -2.17093 3.85127 0
M  V30 2589 N 252.755 -1.56801 0.158532 0
M  V30 2590 C 253.705 -2.13923 -0.788738 0
M  V30 2591 C 254.689 -1.07006 -1.2016 0
M  V30 2592 O 255.881 -1.33159 -1.1661 0
M  V30 2593 C 253.01 -2.77348 -2.02319 0
M  V30 2594 C 252.096 -3.91404 -1.6329 0
M  V30 2595 N 252.487 -4.9677 -0.951463 0
M  V30 2596 C 250.785 -4.02326 -1.92482 0
M  V30 2597 C 251.486 -5.76698 -0.761221 0
M  V30 2598 N 250.462 -5.27859 -1.29869 0
M  V30 2599 H 254.264 -2.92757 -0.258995 0
M  V30 2600 H 251.778 -1.62344 -0.0426055 0
M  V30 2601 H 253.775 -3.16639 -2.71192 0
M  V30 2602 H 252.435 -1.99991 -2.558 0
M  V30 2603 H 253.446 -5.14284 -0.610928 0
M  V30 2604 H 250.123 -3.36059 -2.47732 0
M  V30 2605 H 251.513 -6.71529 -0.223284 0
M  V30 2606 N 254.233 0.115231 -1.57178 0
M  V30 2607 C 255.461 0.836437 -1.89239 0
M  V30 2608 C 255.876 1.73256 -0.750175 0
M  V30 2609 O 255.233 1.80357 0.278832 0
M  V30 2610 C 255.284 1.66671 -3.20785 0
M  V30 2611 O 255.005 0.806652 -4.3061 0
M  V30 2612 C 256.506 2.49274 -3.66575 0
M  V30 2613 H 253.726 0.240253 -0.626514 0
M  V30 2614 H 256.27 0.0984932 -2.04263 0
M  V30 2615 H 254.425 2.35737 -3.0742 0
M  V30 2616 H 254.839 1.37969 -5.06028 0
M  V30 2617 H 256.313 3.03055 -4.6137 0
M  V30 2618 H 256.79 3.26807 -2.93417 0
M  V30 2619 H 257.396 1.85443 -3.82741 0
M  V30 2620 N 255.711 1.52812 0.385517 0
M  V30 2621 C 256.958 1.68026 1.1302 0
M  V30 2622 C 257.286 0.421934 1.89868 0
M  V30 2623 O 256.541 -0.595749 1.86412 0
M  V30 2624 C 256.84 2.86856 2.13187 0
M  V30 2625 C 256.506 4.24159 1.5297 0
M  V30 2626 C 255.168 4.61501 1.36274 0
M  V30 2627 C 257.52 5.09627 1.09223 0
M  V30 2628 C 254.848 5.81966 0.743837 0
M  V30 2629 C 257.2 6.30719 0.487411 0
M  V30 2630 C 255.864 6.6679 0.307777 0
M  V30 2631 H 255.134 0.614849 0.413571 0
M  V30 2632 H 257.781 1.86962 0.414405 0
M  V30 2633 H 256.086 2.6235 2.90998 0
M  V30 2634 H 257.783 2.95821 2.70722 0
M  V30 2635 H 254.373 3.94746 1.66954 0
M  V30 2636 H 258.557 4.81343 1.20922 0
M  V30 2637 H 253.813 6.08519 0.592891 0
M  V30 2638 H 257.987 6.96259 0.140143 0
M  V30 2639 H 255.614 7.60001 -0.173879 0
M  V30 2640 N 257.189 -0.644168 1.43834 0
M  V30 2641 C 258.6 -1.22554 1.40845 0
M  V30 2642 C 258.951 -1.9585 0.117115 0
M  V30 2643 O 258.076 -2.01734 -0.783086 0
M  V30 2644 C 258.671 -2.22907 2.55143 0
M  V30 2645 C 257.23 -2.76501 2.5539 0
M  V30 2646 C 256.377 -1.51287 2.32396 0
M  V30 2647 H 259.328 -0.43563 1.52604 0
M  V30 2648 H 259.349 -3.05259 2.2715 0
M  V30 2649 H 258.861 -1.69533 3.49114 0
M  V30 2650 H 256.962 -3.33914 1.65324 0
M  V30 2651 H 257.075 -3.23429 3.53455 0
M  V30 2652 H 255.439 -1.78957 1.81236 0
M  V30 2653 H 256.222 -0.998336 3.28463 0
M  V30 2654 N 258.668 -1.30515 -0.883378 0
M  V30 2655 C 259.631 -1.1701 -1.97082 0
M  V30 2656 C 260.631 -0.10089 -1.60483 0
M  V30 2657 O 261.821 -0.349127 -1.70666 0
M  V30 2658 C 258.953 -0.793045 -3.31547 0
M  V30 2659 H 260.146 -2.13622 -2.10489 0
M  V30 2660 H 257.699 -1.13935 -1.06998 0
M  V30 2661 H 258.434 0.172499 -3.23841 0
M  V30 2662 H 258.219 -1.56576 -3.5948 0
M  V30 2663 H 259.709 -0.722073 -4.1131 0
M  V30 2664 N 260.146 1.09593 -1.13257 0
M  V30 2665 C 261.392 1.82003 -0.89458 0
M  V30 2666 C 261.725 1.85402 0.577906 0
M  V30 2667 O 261 1.32099 1.42759 0
M  V30 2668 C 261.283 3.28237 -1.48096 0
M  V30 2669 C 261.136 3.3312 -3.02244 0
M  V30 2670 C 262.455 4.24871 -1.14774 0
M  V30 2671 H 259.574 0.66077 -0.326424 0
M  V30 2672 H 262.216 1.28389 -1.40058 0
M  V30 2673 H 260.366 3.74024 -1.05062 0
M  V30 2674 H 262.038 2.95748 -3.54021 0
M  V30 2675 H 260.281 2.72756 -3.37323 0
M  V30 2676 H 260.952 4.3613 -3.38371 0
M  V30 2677 H 263.428 3.87361 -1.51957 0
M  V30 2678 H 262.304 5.25532 -1.58452 0
M  V30 2679 H 262.565 4.42058 -0.0611849 0
M  V30 2680 N 261.624 0.925811 1.2754 0
M  V30 2681 C 262.554 0.440748 2.29303 0
M  V30 2682 C 263.535 -0.497971 1.62648 0
M  V30 2683 O 264.72 -0.403126 1.8997 0
M  V30 2684 C 261.85 -0.309048 3.45922 0
M  V30 2685 C 260.804 0.54166 4.24559 0
M  V30 2686 C 260.13 -0.337191 5.33636 0
M  V30 2687 C 261.43 1.80516 4.90114 0
M  V30 2688 H 263.124 1.29121 2.70126 0
M  V30 2689 H 260.67 0.622323 1.29858 0
M  V30 2690 H 262.623 -0.659315 4.1621 0
M  V30 2691 H 261.347 -1.19352 3.04011 0
M  V30 2692 H 260.006 0.874609 3.56014 0
M  V30 2693 H 259.654 -1.22056 4.87966 0
M  V30 2694 H 259.354 0.228497 5.87156 0
M  V30 2695 H 260.878 -0.683072 6.06767 0
M  V30 2696 H 262.292 1.52307 5.52698 0
M  V30 2697 H 260.689 2.3142 5.53683 0
M  V30 2698 H 261.759 2.52581 4.13921 0
M  V30 2699 N 263.102 -1.41638 0.69111 0
M  V30 2700 C 264.034 -2.29194 -0.0161523 0
M  V30 2701 C 265.047 -1.44549 -0.748955 0
M  V30 2702 O 266.236 -1.681 -0.6004 0
M  V30 2703 C 263.336 -3.22325 -1.0469 0
M  V30 2704 C 262.509 -4.35706 -0.384621 0
M  V30 2705 C 261.568 -5.09443 -1.31737 0
M  V30 2706 O 260.594 -5.63386 -0.811451 0
M  V30 2707 N 261.796 -5.16487 -2.64993 0
M  V30 2708 H 264.561 -2.90534 0.735523 0
M  V30 2709 H 262.122 -1.52742 0.53679 0
M  V30 2710 H 264.114 -3.68522 -1.67252 0
M  V30 2711 H 262.684 -2.62323 -1.70015 0
M  V30 2712 H 261.904 -3.91948 0.420804 0
M  V30 2713 H 263.192 -5.08743 0.0760765 0
M  V30 2714 H 262.59 -4.741 -3.08619 0
M  V30 2715 H 261.147 -5.66276 -3.22761 0
M  V30 2716 N 264.58 -0.43555 -1.51462 0
M  V30 2717 C 265.805 0.132627 -2.06976 0
M  V30 2718 C 266.23 1.35848 -1.30104 0
M  V30 2719 O 265.588 1.78112 -0.338493 0
M  V30 2720 C 265.636 0.43523 -3.57964 0
M  V30 2721 O 264.74 1.52198 -3.83288 0
M  V30 2722 H 264.081 0.00265 -0.663995 0
M  V30 2723 H 266.611 -0.616369 -1.95095 0
M  V30 2724 H 266.621 0.686206 -4.02188 0
M  V30 2725 H 265.296 -0.460739 -4.1334 0
M  V30 2726 H 263.873 1.2611 -3.50928 0
M  V30 2727 N 266.058 1.56714 -0.166846 0
M  V30 2728 C 267.335 1.88412 0.525373 0
M  V30 2729 C 267.715 1.07602 1.81618 0
M  V30 2730 O 267.063 0.168621 2.27877 0
M  V30 2731 C 267.273 3.40363 0.771613 0
M  V30 2732 C 268.621 4.10007 1.1036 0
M  V30 2733 O 269.645 3.45655 0.860304 0
M  V30 2734 O 268.504 5.2369 1.56239 0
M  V30 2735 H 265.598 0.781587 0.270278 0
M  V30 2736 H 268.144 1.68458 -0.204946 0
M  V30 2737 H 266.916 3.91046 -0.141093 0
M  V30 2738 H 266.539 3.65914 1.55541 0
M  V30 2739 N 267.536 -0.106894 1.57237 0
M  V30 2740 C 268.466 -1.13148 2.04254 0
M  V30 2741 C 269.447 -1.42476 0.929224 0
M  V30 2742 O 270.632 -1.52709 1.19973 0
M  V30 2743 C 267.762 -2.4545 2.45706 0
M  V30 2744 C 266.716 -2.30558 3.60592 0
M  V30 2745 C 266.042 -3.67931 3.87983 0
M  V30 2746 C 267.342 -1.75597 4.91897 0
M  V30 2747 H 269.036 -0.740374 2.90101 0
M  V30 2748 H 266.582 -0.354696 1.39563 0
M  V30 2749 H 268.535 -3.17389 2.77205 0
M  V30 2750 H 267.259 -2.86475 1.56843 0
M  V30 2751 H 265.918 -1.61067 3.29322 0
M  V30 2752 H 265.566 -4.06462 2.96306 0
M  V30 2753 H 265.266 -3.58817 4.65322 0
M  V30 2754 H 266.79 -4.41356 4.21945 0
M  V30 2755 H 268.204 -2.37364 5.21854 0
M  V30 2756 H 266.601 -1.77272 5.73319 0
M  V30 2757 H 267.671 -0.714451 4.79608 0
M  V30 2758 N 269.014 -1.53014 -0.377408 0
M  V30 2759 C 270.244 -1.72265 -1.14054 0
M  V30 2760 C 270.652 -0.44601 -1.83868 0
M  V30 2761 O 269.995 0.590095 -1.73964 0
M  V30 2762 C 270.057 -2.82492 -2.22348 0
M  V30 2763 C 269.721 -4.23233 -1.72402 0
M  V30 2764 C 270.718 -5.05992 -1.19448 0
M  V30 2765 C 268.403 -4.696 -1.78273 0
M  V30 2766 C 270.397 -6.33203 -0.730268 0
M  V30 2767 C 268.084 -5.96792 -1.31464 0
M  V30 2768 C 269.082 -6.78424 -0.789297 0
M  V30 2769 O 268.77 -8.0323 -0.328077 0
M  V30 2770 H 268.502 -0.579873 -0.347453 0
M  V30 2771 H 271.056 -2.00502 -0.445882 0
M  V30 2772 H 269.286 -2.49702 -2.95272 0
M  V30 2773 H 270.975 -2.90034 -2.83963 0
M  V30 2774 H 271.741 -4.71349 -1.14259 0
M  V30 2775 H 267.62 -4.06142 -2.18106 0
M  V30 2776 H 271.164 -6.96868 -0.319542 0
M  V30 2777 H 267.061 -6.30937 -1.36342 0
M  V30 2778 H 267.829 -8.1727 -0.448493 0
M  V30 2779 N 270.492 0.636531 -1.44174 0
M  V30 2780 C 271.72 1.42353 -1.50144 0
M  V30 2781 C 272.135 1.88389 -0.124575 0
M  V30 2782 O 271.492 1.6051 0.868489 0
M  V30 2783 C 271.543 2.64744 -2.46156 0
M  V30 2784 O 271.264 2.20629 -3.7849 0
M  V30 2785 C 272.765 3.57929 -2.61537 0
M  V30 2786 H 269.985 0.436752 -0.5094 0
M  V30 2787 H 272.529 0.778933 -1.89084 0
M  V30 2788 H 270.684 3.25307 -2.10366 0
M  V30 2789 H 271.098 2.99938 -4.30276 0
M  V30 2790 H 272.572 4.40428 -3.32757 0
M  V30 2791 H 273.049 4.06382 -1.66585 0
M  V30 2792 H 273.655 3.03238 -2.98206 0
M  V30 2793 N 271.97 1.30982 0.876444 0
M  V30 2794 C 272.9 1.20668 1.99903 0
M  V30 2795 C 273.881 0.095354 1.69833 0
M  V30 2796 O 275.066 0.27885 1.92188 0
M  V30 2797 C 272.196 0.90655 3.3526 0
M  V30 2798 C 271.15 1.97675 3.79617 0
M  V30 2799 C 270.476 1.52943 5.1236 0
M  V30 2800 C 271.776 3.389 3.97422 0
M  V30 2801 H 273.47 2.14586 2.0879 0
M  V30 2802 H 271.016 1.03308 1.00317 0
M  V30 2803 H 272.969 0.821025 4.13324 0
M  V30 2804 H 271.693 -0.0682969 3.26529 0
M  V30 2805 H 270.352 2.05205 3.03787 0
M  V30 2806 H 270 0.54262 5.00065 0
M  V30 2807 H 269.7 2.24532 5.43009 0
M  V30 2808 H 271.224 1.45786 5.92941 0
M  V30 2809 H 272.638 3.34081 4.659 0
M  V30 2810 H 271.035 4.0865 4.3946 0
M  V30 2811 H 272.105 3.80163 3.01006 0
M  V30 2812 N 273.449 -1.08991 1.13837 0
M  V30 2813 C 274.674 -1.85551 0.926585 0
M  V30 2814 C 275.099 -1.80782 -0.519566 0
M  V30 2815 O 274.457 -1.18855 -1.36906 0
M  V30 2816 C 274.505 -3.31266 1.42462 0
M  V30 2817 O 273.609 -4.07822 0.612789 0
M  V30 2818 H 272.95 -0.575192 0.331738 0
M  V30 2819 H 275.48 -1.37604 1.51414 0
M  V30 2820 H 275.49 -3.82112 1.43019 0
M  V30 2821 H 274.165 -3.34052 2.47754 0
M  V30 2822 H 272.742 -3.66731 0.675463 0
M  V30 2823 N 274.927 -0.932562 -1.27047 0
M  V30 2824 C 276.152 -0.591474 -1.98787 0
M  V30 2825 C 276.577 0.824601 -1.69062 0
M  V30 2826 O 275.935 1.5541 -0.933677 0
M  V30 2827 C 275.983 -0.829808 -3.50922 0
M  V30 2828 O 275.087 0.102266 -4.12273 0
M  V30 2829 H 274.428 -0.227185 -0.623926 0
M  V30 2830 H 276.958 -1.25314 -1.61733 0
M  V30 2831 H 276.968 -0.747292 -4.01098 0
M  V30 2832 H 275.643 -1.86201 -3.7189 0
M  V30 2833 H 274.22 -0.0305761 -3.72887 0
M  V30 2834 N 276.405 1.4127 -0.698611 0
M  V30 2835 C 277.63 2.06024 -0.238512 0
M  V30 2836 C 278.055 1.5224 1.10475 0
M  V30 2837 O 277.413 0.650623 1.69223 0
M  V30 2838 C 277.461 3.59988 -0.209952 0
M  V30 2839 O 276.565 4.04282 0.814235 0
M  V30 2840 H 275.906 0.653829 -0.115775 0
M  V30 2841 H 278.436 1.8098 -0.954326 0
M  V30 2842 H 278.446 4.07979 -0.0418436 0
M  V30 2843 H 277.121 3.98503 -1.1903 0
M  V30 2844 H 275.698 3.6779 0.615234 0
M  V30 2845 N 277.883 0.443576 1.51229 0
M  V30 2846 C 279.129 -0.120975 2.02439 0
M  V30 2847 C 279.462 -1.41815 1.32674 0
M  V30 2848 O 278.737 -1.89373 0.443622 0
M  V30 2849 C 279.02 -0.333291 3.58554 0
M  V30 2850 C 278.873 0.982968 4.38928 0
M  V30 2851 C 280.192 -1.10028 4.26124 0
M  V30 2852 H 277.311 -0.0424923 0.735774 0
M  V30 2853 H 279.953 0.583794 1.80809 0
M  V30 2854 H 278.103 -0.933614 3.77115 0
M  V30 2855 H 279.775 1.61775 4.32003 0
M  V30 2856 H 278.018 1.58611 4.03763 0
M  V30 2857 H 278.689 0.788379 5.46341 0
M  V30 2858 H 281.165 -0.591711 4.11871 0
M  V30 2859 H 280.041 -1.21761 5.35225 0
M  V30 2860 H 280.302 -2.12996 3.87408 0
M  V30 2861 N 279.361 -1.56624 0.175154 0
M  V30 2862 C 280.589 -2.01374 -0.474971 0
M  V30 2863 C 281.004 -1.05537 -1.56548 0
M  V30 2864 O 280.361 -0.0568668 -1.82411 0
M  V30 2865 C 280.412 -3.45923 -1.04975 0
M  V30 2866 O 280.133 -4.381 -0.00276605 0
M  V30 2867 C 281.634 -4.06093 -1.77773 0
M  V30 2868 H 278.854 -0.659962 -0.121206 0
M  V30 2869 H 281.398 -2.02601 0.27801 0
M  V30 2870 H 279.553 -3.45458 -1.75321 0
M  V30 2871 H 279.967 -5.22753 -0.427681 0
M  V30 2872 H 281.441 -5.09147 -2.13245 0
M  V30 2873 H 281.918 -3.48405 -2.67414 0
M  V30 2874 H 282.524 -4.10272 -1.12059 0
M  V30 2875 N 280.839 0.0985539 -1.57292 0
M  V30 2876 C 282.085 0.803867 -1.86188 0
M  V30 2877 C 282.418 1.78549 -0.763794 0
M  V30 2878 O 281.693 1.93153 0.22855 0
M  V30 2879 C 281.976 1.53568 -3.25713 0
M  V30 2880 C 281.829 0.572277 -4.46145 0
M  V30 2881 C 283.148 2.48708 -3.63087 0
M  V30 2882 H 280.267 0.290781 -0.677211 0
M  V30 2883 H 282.909 0.0675783 -1.8988 0
M  V30 2884 H 281.059 2.16332 -3.22696 0
M  V30 2885 H 282.731 -0.0480894 -4.61275 0
M  V30 2886 H 280.974 -0.114618 -4.33649 0
M  V30 2887 H 281.645 1.12139 -5.40489 0
M  V30 2888 H 284.121 1.96039 -3.67026 0
M  V30 2889 H 282.997 2.96932 -4.61652 0
M  V30 2890 H 283.258 3.32309 -2.91588 0
M  V30 2891 N 282.317 1.53212 0.369288 0
M  V30 2892 C 283.728 1.60943 0.946276 0
M  V30 2893 C 284.079 0.47452 1.90375 0
M  V30 2894 O 283.204 -0.399597 2.12679 0
M  V30 2895 C 283.799 2.91715 1.72302 0
M  V30 2896 C 282.358 3.01792 2.24941 0
M  V30 2897 C 281.505 2.56211 1.06072 0
M  V30 2898 H 284.456 1.58007 0.148198 0
M  V30 2899 H 284.477 2.79309 2.58393 0
M  V30 2900 H 283.989 3.74295 1.0259 0
M  V30 2901 H 282.09 2.23791 2.97906 0
M  V30 2902 H 282.203 4.06803 2.53077 0
M  V30 2903 H 280.567 2.10998 1.4266 0
M  V30 2904 H 281.35 3.41206 0.378639 0
M  V30 2905 N 283.795 -0.628877 1.44509 0
M  V30 2906 C 285.02 -1.42048 1.5112 0
M  V30 2907 C 285.445 -1.87594 0.137818 0
M  V30 2908 O 284.803 -1.58873 -0.873437 0
M  V30 2909 C 284.851 -2.61541 2.48251 0
M  V30 2910 O 283.955 -3.61453 1.98559 0
M  V30 2911 H 283.296 -0.424942 0.510216 0
M  V30 2912 H 285.826 -0.767374 1.89664 0
M  V30 2913 H 285.836 -3.09057 2.66361 0
M  V30 2914 H 284.511 -2.27736 3.48007 0
M  V30 2915 H 283.088 -3.20731 1.90227 0
M  V30 2916 N 285.273 -1.31445 -0.869486 0
M  V30 2917 C 286.498 -1.24256 -1.66058 0
M  V30 2918 C 286.923 0.188928 -1.87149 0
M  V30 2919 O 286.281 1.13522 -1.4136 0
M  V30 2920 C 286.329 -1.9924 -3.00559 0
M  V30 2921 O 285.433 -1.33007 -3.90362 0
M  V30 2922 H 284.774 -0.428973 -0.506831 0
M  V30 2923 H 287.304 -1.73521 -1.08404 0
M  V30 2924 H 287.314 -2.08854 -3.50491 0
M  V30 2925 H 285.989 -3.03342 -2.84528 0
M  V30 2926 H 284.566 -1.31848 -3.48813 0
M  V30 2927 N 286.751 1.08385 -1.14413 0
M  V30 2928 C 288.162 1.62258 -0.923535 0
M  V30 2929 C 288.513 1.88691 0.537595 0
M  V30 2930 O 287.638 1.64454 1.40655 0
M  V30 2931 C 288.233 2.94781 -1.67002 0
M  V30 2932 C 286.792 3.45437 -1.495 0
M  V30 2933 C 285.939 2.19668 -1.69238 0
M  V30 2934 H 288.89 0.916086 -1.2959 0
M  V30 2935 H 288.911 3.63229 -1.13334 0
M  V30 2936 H 288.423 2.7551 -2.73342 0
M  V30 2937 H 286.524 3.6981 -0.455097 0
M  V30 2938 H 286.637 4.22173 -2.2651 0
M  V30 2939 H 285.001 2.28849 -1.11804 0
M  V30 2940 H 285.784 2.02905 -2.7692 0
M  V30 2941 N 288.23 0.939286 1.26551 0
M  V30 2942 C 289.646 0.641304 1.46149 0
M  V30 2943 C 289.846 -0.805964 1.84679 0
M  V30 2944 O 288.902 -1.58278 1.96734 0
M  V30 2945 C 290.215 1.6011 2.54529 0
M  V30 2946 C 291.763 1.6106 2.68382 0
M  V30 2947 C 292.238 2.55765 3.79932 0
M  V30 2948 N 293.729 2.5404 3.87322 0
M  V30 2949 C 294.464 3.24004 4.73085 0
M  V30 2950 N 293.96 4.03388 5.63249 0
M  V30 2951 N 295.753 3.12965 4.66914 0
M  V30 2952 H 287.904 1.87478 0.998285 0
M  V30 2953 H 290.167 0.805559 0.499779 0
M  V30 2954 H 289.873 2.63412 2.33039 0
M  V30 2955 H 289.747 1.35171 3.52149 0
M  V30 2956 H 292.134 0.584835 2.89247 0
M  V30 2957 H 292.215 1.90053 1.71212 0
M  V30 2958 H 291.859 3.58458 3.5982 0
M  V30 2959 H 291.789 2.24063 4.76554 0
M  V30 2960 H 294.28 1.96396 3.22858 0
M  V30 2961 H 294.593 4.5373 6.25579 0
M  V30 2962 H 292.938 4.07489 5.63008 0
M  V30 2963 H 296.129 2.50432 3.95476 0
M  V30 2964 H 296.302 3.67759 5.33533 0
M  V30 2965 N 289.708 -1.40897 0.706093 0
M  V30 2966 C 291.119 -1.84023 0.315052 0
M  V30 2967 C 291.47 -1.5906 -1.14866 0
M  V30 2968 O 290.595 -1.06651 -1.88293 0
M  V30 2969 C 291.19 -3.34055 0.565038 0
M  V30 2970 C 289.749 -3.7571 0.227806 0
M  V30 2971 C 288.896 -2.64204 0.842122 0
M  V30 2972 H 291.847 -1.303 0.905963 0
M  V30 2973 H 291.868 -3.80107 -0.172843 0
M  V30 2974 H 291.38 -3.52192 1.63042 0
M  V30 2975 H 289.481 -3.63172 -0.832895 0
M  V30 2976 H 289.594 -4.74103 0.690174 0
M  V30 2977 H 287.958 -2.53255 0.270893 0
M  V30 2978 H 288.741 -2.85155 1.91158 0
M  V30 2979 N 291.186 -0.45159 -1.50991 0
M  V30 2980 C 292.411 0.110667 -2.07105 0
M  V30 2981 C 292.836 1.3446 -1.31538 0
M  V30 2982 O 292.194 1.77743 -0.357365 0
M  V30 2983 C 292.242 0.397238 -3.58405 0
M  V30 2984 O 291.346 1.48124 -3.84881 0
M  V30 2985 H 290.687 -0.00439271 -0.663985 0
M  V30 2986 H 293.217 -0.637026 -1.9443 0
M  V30 2987 H 293.227 0.64351 -4.02893 0
M  V30 2988 H 291.902 -0.504553 -4.12828 0
M  V30 2989 H 290.479 1.22381 -3.52246 0
M  V30 2990 N 292.664 1.56529 -0.183458 0
M  V30 2991 C 293.574 2.22144 0.754272 0
M  V30 2992 C 294.59 1.21684 1.24374 0
M  V30 2993 O 295.766 1.54385 1.29333 0
M  V30 2994 C 292.831 2.85884 1.96141 0
M  V30 2995 C 291.892 4.01579 1.51765 0
M  V30 2996 C 291.125 4.6227 2.66725 0
M  V30 2997 O 291.348 4.21865 3.83909 0
M  V30 2998 O 290.282 5.51936 2.40104 0
M  V30 2999 H 294.108 3.02861 0.225527 0
M  V30 3000 H 291.693 1.49331 0.0453032 0
M  V30 3001 H 293.575 3.26253 2.66715 0
M  V30 3002 H 292.25 2.08154 2.47899 0
M  V30 3003 H 291.157 3.65856 0.781049 0
M  V30 3004 H 292.49 4.80938 1.04686 0
M  V30 3005 N 294.142 -0.090211 1.57342 0
M  V30 3006 C 295.37 -0.806224 1.90546 0
M  V30 3007 C 295.785 -1.72041 0.777644 0
M  V30 3008 O 295.142 -1.80778 -0.250103 0
M  V30 3009 C 295.193 -1.61546 3.23396 0
M  V30 3010 O 294.914 -0.738043 4.31839 0
M  V30 3011 C 296.415 -2.4341 3.70495 0
M  V30 3012 H 293.635 -0.230256 0.630257 0
M  V30 3013 H 296.179 -0.0659843 2.04394 0
M  V30 3014 H 294.334 -2.30816 3.11131 0
M  V30 3015 H 294.748 -1.29901 5.08159 0
M  V30 3016 H 296.222 -2.95676 4.66133 0
M  V30 3017 H 296.699 -3.22098 2.98579 0
M  V30 3018 H 297.305 -1.79331 3.85643 0
M  V30 3019 N 295.62 -1.53406 -0.361157 0
M  V30 3020 C 296.866 -1.70054 -1.10496 0
M  V30 3021 C 297.199 -0.453278 -1.88836 0
M  V30 3022 O 296.474 0.5495 -1.86576 0
M  V30 3023 C 296.757 -2.95317 -2.06058 0
M  V30 3024 C 296.61 -4.3021 -1.31298 0
M  V30 3025 C 297.929 -3.16193 -3.06121 0
M  V30 3026 H 295.048 -0.618799 -0.400321 0
M  V30 3027 H 297.69 -1.86052 -0.385318 0
M  V30 3028 H 295.84 -2.81809 -2.67425 0
M  V30 3029 H 297.512 -4.55538 -0.726807 0
M  V30 3030 H 295.755 -4.29421 -0.614853 0
M  V30 3031 H 296.426 -5.14 -2.01265 0
M  V30 3032 H 298.902 -3.28916 -2.5486 0
M  V30 3033 H 297.778 -4.05266 -3.70204 0
M  V30 3034 H 298.039 -2.31676 -3.76535 0
M  V30 3035 N 297.098 0.621204 -1.44841 0
M  V30 3036 C 298.326 1.40752 -1.51646 0
M  V30 3037 C 298.741 1.88246 -0.144549 0
M  V30 3038 O 298.098 1.61422 0.851416 0
M  V30 3039 C 298.149 2.62119 -2.4895 0
M  V30 3040 O 297.87 2.16602 -3.80808 0
M  V30 3041 C 299.371 3.55135 -2.65319 0
M  V30 3042 H 296.591 0.431325 -0.514004 0
M  V30 3043 H 299.135 0.758835 -1.899 0
M  V30 3044 H 297.29 3.23058 -2.13805 0
M  V30 3045 H 297.704 2.95358 -4.33433 0
M  V30 3046 H 299.178 4.36874 -3.37409 0
M  V30 3047 H 299.655 4.04592 -1.70886 0
M  V30 3048 H 300.261 3.00058 -3.01405 0
M  V30 3049 N 298.576 1.31904 0.862503 0
M  V30 3050 C 299.816 1.23324 1.63004 0
M  V30 3051 C 300.18 -0.203724 1.90916 0
M  V30 3052 O 301.381 -0.413132 2.65606 0
M  V30 3053 C 299.652 2.06116 2.91978 0
M  V30 3054 S 301.211 2.14478 3.82812 0
M  V30 3055 H 298.029 0.439117 0.559193 0
M  V30 3056 H 300.631 1.66658 1.02202 0
M  V30 3057 H 299.335 3.09593 2.69407 0
M  V30 3058 H 298.866 1.6353 3.57801 0
M  V30 3059 H 300.881 1.28855 4.79177 0
M  V30 3060 N 300.054 -1.07777 1.14986 0
M  V30 3061 C 301.002 -2.16964 0.838406 0
M  V30 3062 C 301.996 -1.68372 -0.186386 0
M  V30 3063 O 303.202 -1.79951 -0.0418465 0
M  V30 3064 H 299.577 -0.708006 0.253439 0
M  V30 3065 H 301.548 -2.40454 1.76704 0
M  V30 3066 C 300.297 -3.4604 0.339335 0
M  V30 3067 H 299.62 -3.83813 1.11927 0
M  V30 3068 H 301.06 -4.23698 0.160021 0
M  V30 3069 C 299.519 -3.23569 -0.938325 0
M  V30 3070 O 300.049 -3.47752 -2.01077 0
M  V30 3071 N 298.255 -2.77079 -0.876117 0
M  V30 3072 H 297.802 -2.576 -0.00322037 0
M  V30 3073 H 297.76 -2.62422 -1.73153 0
M  V30 3074 N 301.532 -0.945985 -1.26051 0
M  V30 3075 C 302.778 -0.597002 -1.93814 0
M  V30 3076 C 303.111 0.862484 -1.73997 0
M  V30 3077 O 302.386 1.61769 -1.07986 0
M  V30 3078 C 302.669 -0.945937 -3.47454 0
M  V30 3079 C 302.522 -2.46052 -3.76535 0
M  V30 3080 C 303.841 -0.464785 -4.37639 0
M  V30 3081 H 300.96 -0.218366 -0.703907 0
M  V30 3082 H 303.602 -1.18107 -1.48831 0
M  V30 3083 H 301.752 -0.448902 -3.85898 0
M  V30 3084 H 303.424 -3.03065 -3.47778 0
M  V30 3085 H 301.667 -2.90194 -3.22444 0
M  V30 3086 H 302.338 -2.65517 -4.83947 0
M  V30 3087 H 304.814 -0.891016 -4.06448 0
M  V30 3088 H 303.69 -0.737712 -5.4392 0
M  V30 3089 H 303.951 0.635274 -4.37512 0
M  V30 3090 N 303.011 1.40521 -0.713556 0
M  V30 3091 C 303.974 2.29098 -0.0684347 0
M  V30 3092 C 304.974 1.45268 0.689472 0
M  V30 3093 O 306.164 1.66205 0.521677 0
M  V30 3094 C 303.296 3.28446 0.913024 0
M  V30 3095 H 304.489 2.87645 -0.84855 0
M  V30 3096 H 302.042 1.48809 -0.47809 0
M  V30 3097 H 302.777 2.74913 1.72027 0
M  V30 3098 H 302.562 3.90327 0.372472 0
M  V30 3099 H 304.052 3.94777 1.36165 0
M  V30 3100 N 304.489 0.459591 1.5075 0
M  V30 3101 C 305.439 -0.358926 2.25157 0
M  V30 3102 C 306.423 -0.971285 1.28276 0
M  V30 3103 O 307.615 -0.885739 1.53244 0
M  V30 3104 C 304.744 -1.44695 3.11317 0
M  V30 3105 C 303.83 -0.842894 4.15639 0
M  V30 3106 N 304.221 0.0299373 5.05791 0
M  V30 3107 C 302.519 -1.10809 4.32015 0
M  V30 3108 C 303.22 0.371563 5.80512 0
M  V30 3109 N 302.196 -0.250409 5.43023 0
M  V30 3110 H 305.998 0.313636 2.92222 0
M  V30 3111 H 303.512 0.273021 1.60089 0
M  V30 3112 H 305.509 -2.04641 3.63218 0
M  V30 3113 H 304.169 -2.12162 2.45799 0
M  V30 3114 H 305.18 0.39797 5.16369 0
M  V30 3115 H 301.857 -1.7786 3.77719 0
M  V30 3116 H 303.247 1.08319 6.63111 0
M  V30 3117 N 305.967 -1.56429 0.191757 0
M  V30 3118 C 307.378 -1.83912 -0.321428 0
M  V30 3119 C 307.729 -1.11231 -1.61623 0
M  V30 3120 O 306.854 -0.37202 -2.13178 0
M  V30 3121 C 307.449 -3.33624 -0.589961 0
M  V30 3122 C 306.008 -3.6153 -1.04753 0
M  V30 3123 C 305.155 -2.7714 -0.0943327 0
M  V30 3124 H 308.106 -1.53161 0.415612 0
M  V30 3125 H 308.127 -3.52213 -1.43966 0
M  V30 3126 H 307.639 -3.86495 0.352588 0
M  V30 3127 H 305.74 -3.14089 -2.00447 0
M  V30 3128 H 305.853 -4.69737 -0.942549 0
M  V30 3129 H 304.217 -2.47638 -0.595589 0
M  V30 3130 H 305 -3.32799 0.842601 0
M  V30 3131 N 307.445 0.0818655 -1.57387 0
M  V30 3132 C 308.408 1.08265 -2.02018 0
M  V30 3133 C 309.408 1.32183 -0.915664 0
M  V30 3134 O 310.598 1.28073 -1.18081 0
M  V30 3135 C 307.73 2.42871 -2.39221 0
M  V30 3136 H 308.923 0.698204 -2.91659 0
M  V30 3137 H 306.476 0.327303 -1.52835 0
M  V30 3138 H 307.211 2.86167 -1.52575 0
M  V30 3139 H 306.996 2.26855 -3.19811 0
M  V30 3140 H 308.486 3.14826 -2.74362 0
M  V30 3141 N 308.923 1.53595 0.353017 0
M  V30 3142 C 310.148 1.7462 1.11904 0
M  V30 3143 C 310.573 0.479721 1.8188 0
M  V30 3144 O 309.931 -0.567066 1.72204 0
M  V30 3145 C 309.979 2.92029 2.11545 0
M  V30 3146 O 309.083 2.61516 3.18878 0
M  V30 3147 H 308.424 0.579531 0.324099 0
M  V30 3148 H 310.954 2.00525 0.406301 0
M  V30 3149 H 310.964 3.18551 2.5493 0
M  V30 3150 H 309.639 3.83888 1.60008 0
M  V30 3151 H 308.216 2.45852 2.80377 0
M  V30 3152 N 310.401 -0.613514 1.45168 0
M  V30 3153 C 311.626 -1.40437 1.52618 0
M  V30 3154 C 312.051 -1.87438 0.157707 0
M  V30 3155 O 311.409 -1.59791 -0.856537 0
M  V30 3156 C 311.457 -2.58894 2.51011 0
M  V30 3157 O 310.561 -3.59326 2.02382 0
M  V30 3158 H 309.902 -0.419506 0.514695 0
M  V30 3159 H 312.432 -0.747215 1.90467 0
M  V30 3160 H 312.442 -3.06214 2.69624 0
M  V30 3161 H 311.117 -2.24032 3.50403 0
M  V30 3162 H 309.694 -3.18695 1.93618 0
M  V30 3163 N 311.879 -1.3236 -0.855495 0
M  V30 3164 C 313.107 -1.2587 -1.64208 0
M  V30 3165 C 313.522 0.173457 -1.88002 0
M  V30 3166 O 312.879 1.11027 -1.44842 0
M  V30 3167 C 312.93 -2.01424 -3.00184 0
M  V30 3168 O 312.651 -3.39051 -2.77445 0
M  V30 3169 C 314.152 -2.01948 -3.94629 0
M  V30 3170 H 311.372 -0.434318 -0.511477 0
M  V30 3171 H 313.916 -1.74469 -1.0668 0
M  V30 3172 H 312.071 -1.56549 -3.5436 0
M  V30 3173 H 312.485 -3.77711 -3.63916 0
M  V30 3174 H 313.959 -2.59297 -4.87308 0
M  V30 3175 H 314.436 -1.00554 -4.27534 0
M  V30 3176 H 315.042 -2.46767 -3.4639 0
M  V30 3177 N 313.357 1.07166 -1.15556 0
M  V30 3178 C 314.304 2.14417 -0.854055 0
M  V30 3179 C 315.274 1.64965 0.193806 0
M  V30 3180 O 316.459 1.90703 0.0609443 0
M  V30 3181 C 313.599 3.43304 -0.351574 0
M  V30 3182 C 312.712 4.06537 -1.46123 0
M  V30 3183 C 311.847 5.23266 -0.914677 0
M  V30 3184 C 310.886 5.78464 -2.00114 0
M  V30 3185 N 310.023 6.86521 -1.47083 0
M  V30 3186 H 314.863 2.39548 -1.77259 0
M  V30 3187 H 312.4 1.17543 -0.884425 0
M  V30 3188 H 314.358 4.17179 -0.0419409 0
M  V30 3189 H 312.988 3.18419 0.530037 0
M  V30 3190 H 312.04 3.30297 -1.88701 0
M  V30 3191 H 313.352 4.43567 -2.28144 0
M  V30 3192 H 312.506 6.04131 -0.557698 0
M  V30 3193 H 311.245 4.87658 -0.0636583 0
M  V30 3194 H 310.25 4.96243 -2.36692 0
M  V30 3195 H 311.475 6.16126 -2.85597 0
M  V30 3196 H 309.421 6.52849 -0.642198 0
M  V30 3197 H 309.338 7.22446 -2.22729 0
M  V30 3198 H 310.606 7.71087 -1.14215 0
M  V30 3199 N 314.835 0.952656 1.25548 0
M  V30 3200 C 316.081 0.607272 1.93494 0
M  V30 3201 C 316.414 -0.853245 1.74452 0
M  V30 3202 O 315.689 -1.61194 1.08843 0
M  V30 3203 C 315.972 0.96435 3.46947 0
M  V30 3204 C 315.825 2.48045 3.75225 0
M  V30 3205 C 317.144 0.487987 4.37386 0
M  V30 3206 H 314.263 0.222096 0.702739 0
M  V30 3207 H 316.905 1.18895 1.48203 0
M  V30 3208 H 315.055 0.469361 3.85654 0
M  V30 3209 H 316.727 3.04905 3.46166 0
M  V30 3210 H 314.97 2.919 3.209 0
M  V30 3211 H 315.641 2.6808 4.82532 0
M  V30 3212 H 318.117 0.912558 4.0597 0
M  V30 3213 H 316.993 0.766547 5.43521 0
M  V30 3214 H 317.254 -0.612063 4.37843 0
M  V30 3215 N 316.313 -1.40141 0.720998 0
M  V30 3216 C 317.59 -1.94677 0.189757 0
M  V30 3217 C 317.97 -1.65879 -1.30566 0
M  V30 3218 O 317.318 -0.979391 -2.06447 0
M  V30 3219 C 317.528 -3.45279 0.508304 0
M  V30 3220 C 318.876 -4.22209 0.449934 0
M  V30 3221 O 319.9 -3.53413 0.444677 0
M  V30 3222 O 318.759 -5.44788 0.432189 0
M  V30 3223 H 315.853 -0.826459 0.0299026 0
M  V30 3224 H 318.399 -1.49719 0.7989 0
M  V30 3225 H 317.171 -3.59619 1.54239 0
M  V30 3226 H 316.794 -3.97386 -0.130525 0
M  V30 3227 N 317.792 -0.46758 -1.50504 0
M  V30 3228 C 318.739 0.328413 -2.28452 0
M  V30 3229 C 319.709 0.990313 -1.33349 0
M  V30 3230 O 320.894 1.00343 -1.62284 0
M  V30 3231 C 318.034 1.40648 -3.15138 0
M  V30 3232 C 317.147 0.759709 -4.25267 0
M  V30 3233 C 316.282 1.81537 -4.99217 0
M  V30 3234 C 315.321 1.14866 -6.01226 0
M  V30 3235 N 314.458 2.14702 -6.68467 0
M  V30 3236 H 319.298 -0.342603 -2.96024 0
M  V30 3237 H 316.835 -0.180801 -1.45985 0
M  V30 3238 H 318.793 2.04315 -3.63746 0
M  V30 3239 H 317.423 2.04671 -2.49619 0
M  V30 3240 H 316.475 0.0105671 -3.80399 0
M  V30 3241 H 317.787 0.233243 -4.98254 0
M  V30 3242 H 316.941 2.52793 -5.51526 0
M  V30 3243 H 315.68 2.37564 -4.25928 0
M  V30 3244 H 314.685 0.42171 -5.4818 0
M  V30 3245 H 315.91 0.595334 -6.76485 0
M  V30 3246 H 313.856 2.69752 -5.97972 0
M  V30 3247 H 313.773 1.6703 -7.37317 0
M  V30 3248 H 315.041 2.85348 -7.25394 0
M  V30 3249 N 319.27 1.56325 -0.20005 0
M  V30 3250 C 320.217 2.1932 0.718833 0
M  V30 3251 C 321.187 1.14198 1.20615 0
M  V30 3252 O 322.372 1.42469 1.26914 0
M  V30 3253 C 319.512 2.86041 1.93066 0
M  V30 3254 C 318.625 4.05702 1.48425 0
M  V30 3255 C 317.76 4.60266 2.65196 0
M  V30 3256 C 316.799 5.72273 2.17185 0
M  V30 3257 N 315.936 6.21221 3.27152 0
M  V30 3258 H 320.776 2.97486 0.17489 0
M  V30 3259 H 318.313 1.46911 0.0745794 0
M  V30 3260 H 320.271 3.22897 2.64184 0
M  V30 3261 H 318.901 2.1043 2.44783 0
M  V30 3262 H 317.953 3.74475 0.668755 0
M  V30 3263 H 319.265 4.86699 1.09204 0
M  V30 3264 H 318.419 4.99453 3.4443 0
M  V30 3265 H 317.158 3.78386 3.07693 0
M  V30 3266 H 316.163 5.3261 1.36407 0
M  V30 3267 H 317.388 6.55974 1.75713 0
M  V30 3268 H 315.334 5.42263 3.69171 0
M  V30 3269 H 315.251 6.97284 2.92116 0
M  V30 3270 H 316.519 6.65063 4.06585 0
M  V30 3271 N 320.748 -0.0735177 1.57428 0
M  V30 3272 C 321.997 -0.771809 1.86349 0
M  V30 3273 C 322.31 -1.78828 0.792452 0
M  V30 3274 O 323.516 -2.53602 0.96945 0
M  V30 3275 C 321.972 -1.42358 3.30548 0
M  V30 3276 C 321.58 -0.445761 4.45777 0
M  V30 3277 C 323.324 -2.10434 3.6867 0
M  V30 3278 C 321.231 -1.10335 5.81016 0
M  V30 3279 H 320.161 -0.291999 0.695164 0
M  V30 3280 H 322.812 -0.0250749 1.83483 0
M  V30 3281 H 321.194 -2.21852 3.28021 0
M  V30 3282 H 322.368 0.319239 4.59693 0
M  V30 3283 H 320.683 0.130457 4.16196 0
M  V30 3284 H 323.28 -2.60405 4.67004 0
M  V30 3285 H 323.623 -2.90298 2.98383 0
M  V30 3286 H 324.156 -1.37773 3.7318 0
M  V30 3287 H 320.895 -0.345061 6.54591 0
M  V30 3288 H 320.415 -1.83925 5.70904 0
M  V30 3289 H 322.094 -1.62367 6.26295 0
M  V30 3290 N 322.226 -1.5378 -0.344866 0
M  V30 3291 C 323.472 -1.71216 -1.08687 0
M  V30 3292 C 323.805 -0.473281 -1.88345 0
M  V30 3293 O 323.08 0.52968 -1.87149 0
M  V30 3294 C 323.363 -2.97486 -2.02914 0
M  V30 3295 C 323.216 -4.31579 -1.26727 0
M  V30 3296 C 324.535 -3.19422 -3.0275 0
M  V30 3297 H 321.654 -0.62301 -0.393735 0
M  V30 3298 H 324.296 -1.8645 -0.365563 0
M  V30 3299 H 322.446 -2.84629 -2.64421 0
M  V30 3300 H 324.118 -4.56284 -0.67845 0
M  V30 3301 H 322.361 -4.30049 -0.569273 0
M  V30 3302 H 323.032 -5.16106 -1.95803 0
M  V30 3303 H 325.508 -3.316 -2.51357 0
M  V30 3304 H 324.384 -4.09169 -3.65885 0
M  V30 3305 H 324.645 -2.35656 -3.74057 0
M  V30 3306 N 323.704 0.605807 -1.45491 0
M  V30 3307 C 325.115 1.18777 -1.44045 0
M  V30 3308 C 325.466 1.95471 -0.169001 0
M  V30 3309 O 324.591 2.0374 0.729324 0
M  V30 3310 C 325.186 2.16064 -2.60963 0
M  V30 3311 C 323.745 2.69633 -2.62631 0
M  V30 3312 C 322.892 1.45072 -2.36325 0
M  V30 3313 H 325.843 0.395017 -1.53705 0
M  V30 3314 H 325.864 2.9913 -2.35163 0
M  V30 3315 H 325.376 1.60217 -3.53486 0
M  V30 3316 H 323.477 3.29414 -1.74119 0
M  V30 3317 H 323.59 3.13944 -3.61906 0
M  V30 3318 H 321.954 1.74089 -1.85917 0
M  V30 3319 H 322.737 0.910899 -3.30995 0
M  V30 3320 N 325.182 1.32811 0.848464 0
M  V30 3321 C 326.598 1.11937 1.13764 0
M  V30 3322 C 326.798 -0.0960789 2.01271 0
M  V30 3323 O 325.854 -0.779165 2.40178 0
M  V30 3324 C 327.167 2.402 1.809 0
M  V30 3325 C 328.715 2.46016 1.93508 0
M  V30 3326 C 329.19 3.74215 2.64059 0
M  V30 3327 N 330.681 3.75232 2.71579 0
M  V30 3328 C 331.416 4.71134 3.26833 0
M  V30 3329 N 330.912 5.77406 3.8285 0
M  V30 3330 N 332.705 4.58623 3.24995 0
M  V30 3331 H 324.856 2.1073 0.265855 0
M  V30 3332 H 327.119 0.930671 0.180431 0
M  V30 3333 H 326.825 3.29093 1.24058 0
M  V30 3334 H 326.699 2.51628 2.81004 0
M  V30 3335 H 329.086 1.57577 2.49506 0
M  V30 3336 H 329.167 2.38536 0.923811 0
M  V30 3337 H 328.811 4.63031 2.08722 0
M  V30 3338 H 328.741 3.78968 3.65637 0
M  V30 3339 H 331.232 2.98423 2.31845 0
M  V30 3340 H 331.545 6.46632 4.23187 0
M  V30 3341 H 329.89 5.81152 3.81165 0
M  V30 3342 H 333.081 3.74762 2.80484 0
M  V30 3343 H 333.254 5.33535 3.67756 0
M  V30 3344 N 326.66 -1.06551 1.16123 0
M  V30 3345 C 327.937 -1.76097 0.85142 0
M  V30 3346 C 328.317 -2.00802 -0.6513 0
M  V30 3347 O 327.665 -1.63302 -1.59827 0
M  V30 3348 C 327.875 -3.06384 1.67122 0
M  V30 3349 C 329.223 -3.80585 1.88255 0
M  V30 3350 O 330.247 -3.16218 1.63966 0
M  V30 3351 O 329.106 -4.96212 2.2899 0
M  V30 3352 H 326.2 -0.765102 0.313923 0
M  V30 3353 H 328.746 -1.12844 1.26745 0
M  V30 3354 H 327.518 -2.84071 2.69108 0
M  V30 3355 H 327.141 -3.77371 1.25206 0
M  V30 3356 N 328.138 -0.959301 -1.25041 0
M  V30 3357 C 329.378 -0.624343 -1.94631 0
M  V30 3358 C 329.742 0.82403 -1.73418 0
M  V30 3359 O 330.943 1.26881 -2.3697 0
M  V30 3360 C 329.214 -0.978805 -3.43736 0
M  V30 3361 S 330.773 -0.757127 -4.32219 0
M  V30 3362 H 327.591 -0.229327 -0.673001 0
M  V30 3363 H 330.193 -1.23447 -1.51595 0
M  V30 3364 H 328.897 -2.02997 -3.56679 0
M  V30 3365 H 328.428 -0.359117 -3.91757 0
M  V30 3366 H 330.443 0.369759 -4.9482 0
M  V30 3367 N 329.616 1.39756 -0.72842 0
M  V30 3368 C 331.027 1.83498 -0.344289 0
M  V30 3369 C 331.378 1.60868 1.12321 0
M  V30 3370 O 330.503 1.09634 1.86573 0
M  V30 3371 C 331.098 3.33114 -0.618112 0
M  V30 3372 C 329.657 3.753 -0.287549 0
M  V30 3373 C 328.804 2.62831 -0.884048 0
M  V30 3374 H 331.755 1.28842 -0.926578 0
M  V30 3375 H 331.776 3.80334 0.112349 0
M  V30 3376 H 331.288 3.49553 -1.68625 0
M  V30 3377 H 329.389 3.64451 0.775012 0
M  V30 3378 H 329.502 4.72945 -0.765512 0
M  V30 3379 H 327.866 2.52792 -0.311149 0
M  V30 3380 H 328.649 2.82078 -1.95671 0
M  V30 3381 N 331.094 0.475555 1.50254 0
M  V30 3382 C 332.505 0.0215174 1.86688 0
M  V30 3383 C 332.856 -1.38467 1.39001 0
M  V30 3384 O 331.981 -2.02732 0.756894 0
M  V30 3385 C 332.576 0.0322715 3.38785 0
M  V30 3386 C 331.135 -0.366314 3.74613 0
M  V30 3387 C 330.282 0.415832 2.74164 0
M  V30 3388 H 333.233 0.689612 1.42934 0
M  V30 3389 H 333.254 -0.76889 3.7265 0
M  V30 3390 H 332.766 1.05584 3.73462 0
M  V30 3391 H 330.867 -1.39406 3.45538 0
M  V30 3392 H 330.98 -0.064555 4.79057 0
M  V30 3393 H 329.344 -0.131048 2.54363 0
M  V30 3394 H 330.127 1.43899 3.11686 0
M  V30 3395 N 332.573 -1.56217 0.208337 0
M  V30 3396 C 333.813 -1.99849 -0.428927 0
M  V30 3397 C 334.177 -1.09262 -1.57879 0
M  V30 3398 O 335.378 -1.42185 -2.28116 0
M  V30 3399 C 333.649 -3.46777 -0.864879 0
M  V30 3400 S 335.208 -4.12434 -1.49811 0
M  V30 3401 H 332.026 -0.697742 -0.136665 0
M  V30 3402 H 334.628 -1.92953 0.314519 0
M  V30 3403 H 333.332 -4.10396 -0.0181326 0
M  V30 3404 H 332.863 -3.57518 -1.64147 0
M  V30 3405 H 334.878 -4.10532 -2.78707 0
M  V30 3406 N 334.051 0.0651679 -1.57465 0
M  V30 3407 C 334.998 1.07675 -2.04144 0
M  V30 3408 C 335.968 1.38071 -0.923335 0
M  V30 3409 O 337.153 1.49026 -1.19146 0
M  V30 3410 C 334.293 2.38337 -2.49579 0
M  V30 3411 C 333.406 2.14413 -3.75035 0
M  V30 3412 C 332.541 3.38686 -4.09225 0
M  V30 3413 C 331.58 3.10156 -5.27702 0
M  V30 3414 N 330.717 4.26778 -5.57499 0
M  V30 3415 H 335.557 0.671716 -2.90331 0
M  V30 3416 H 333.094 0.3201 -1.43575 0
M  V30 3417 H 335.052 3.14632 -2.73975 0
M  V30 3418 H 333.682 2.7663 -1.6636 0
M  V30 3419 H 332.734 1.2878 -3.57939 0
M  V30 3420 H 334.046 1.89344 -4.61466 0
M  V30 3421 H 333.2 4.23373 -4.34558 0
M  V30 3422 H 331.939 3.66837 -3.21374 0
M  V30 3423 H 330.944 2.23866 -5.02159 0
M  V30 3424 H 332.169 2.8332 -6.17176 0
M  V30 3425 H 330.115 4.54948 -4.72608 0
M  V30 3426 H 330.032 4.05005 -6.38362 0
M  V30 3427 H 331.3 5.12443 -5.87386 0
M  V30 3428 N 335.529 1.53961 0.336706 0
M  V30 3429 C 336.769 1.73254 1.08454 0
M  V30 3430 C 337.133 0.488937 1.8567 0
M  V30 3431 O 338.334 0.559001 2.62923 0
M  V30 3432 C 336.605 2.96519 1.99528 0
M  V30 3433 S 338.164 3.36655 2.81441 0
M  V30 3434 H 334.982 0.609353 0.366347 0
M  V30 3435 H 337.584 1.92117 0.362124 0
M  V30 3436 H 336.288 3.85193 1.41614 0
M  V30 3437 H 335.819 2.80142 2.76196 0
M  V30 3438 H 337.834 2.90925 4.01967 0
M  V30 3439 N 337.007 -0.598083 1.45811 0
M  V30 3440 C 338.418 -1.18011 1.44673 0
M  V30 3441 C 338.769 -1.95378 0.179364 0
M  V30 3442 O 337.894 -2.04124 -0.718509 0
M  V30 3443 C 338.489 -2.14677 2.62105 0
M  V30 3444 C 337.048 -2.68236 2.64057 0
M  V30 3445 C 336.195 -1.43816 2.37091 0
M  V30 3446 H 339.146 -0.38686 1.53913 0
M  V30 3447 H 339.167 -2.97878 2.36746 0
M  V30 3448 H 338.679 -1.5834 3.5433 0
M  V30 3449 H 336.78 -3.28486 1.75864 0
M  V30 3450 H 336.893 -3.12021 3.63566 0
M  V30 3451 H 335.257 -1.731 1.86838 0
M  V30 3452 H 336.04 -0.893333 3.31473 0
M  V30 3453 N 338.485 -1.33259 -0.841409 0
M  V30 3454 C 339.448 -1.23221 -1.9326 0
M  V30 3455 C 340.448 -0.151895 -1.60081 0
M  V30 3456 O 341.638 -0.403246 -1.69468 0
M  V30 3457 C 338.77 -0.898123 -3.28856 0
M  V30 3458 H 339.963 -2.2021 -2.03587 0
M  V30 3459 H 337.516 -1.17281 -1.03319 0
M  V30 3460 H 338.251 0.0693841 -3.24226 0
M  V30 3461 H 338.036 -1.67934 -3.54317 0
M  V30 3462 H 339.526 -0.852563 -4.08805 0
M  V30 3463 N 339.963 1.05934 -1.16686 0
M  V30 3464 C 341.374 1.60263 -0.957745 0
M  V30 3465 C 341.725 1.89789 0.49745 0
M  V30 3466 O 340.85 1.67401 1.37135 0
M  V30 3467 C 341.445 2.91172 -1.73218 0
M  V30 3468 C 340.004 3.42188 -1.56794 0
M  V30 3469 C 339.151 2.16028 -1.73859 0
M  V30 3470 H 342.102 0.888392 -1.31504 0
M  V30 3471 H 342.123 3.60744 -1.21014 0
M  V30 3472 H 341.635 2.6965 -2.79124 0
M  V30 3473 H 339.736 3.68762 -0.533437 0
M  V30 3474 H 339.849 4.17273 -2.35414 0
M  V30 3475 H 338.213 2.26426 -1.16633 0
M  V30 3476 H 338.996 1.96985 -2.81161 0
M  V30 3477 N 341.441 0.965919 1.2453 0
M  V30 3478 C 342.389 0.486506 2.27455 0
M  V30 3479 C 343.383 -0.449041 1.6334 0
M  V30 3480 O 344.589 -0.324527 1.7705 0
M  V30 3481 H 340.964 0.138857 0.739069 0
M  V30 3482 H 342.935 1.3666 2.65267 0
M  V30 3483 C 341.684 -0.209481 3.47068 0
M  V30 3484 H 341.007 0.50129 3.96645 0
M  V30 3485 H 342.447 -0.508775 4.20936 0
M  V30 3486 C 340.906 -1.43586 3.0477 0
M  V30 3487 O 341.436 -2.53299 3.11773 0
M  V30 3488 N 339.642 -1.30126 2.59838 0
M  V30 3489 H 339.189 -0.408583 2.54339 0
M  V30 3490 H 339.147 -2.12294 2.31902 0
M  V30 3491 N 342.919 -1.39368 0.735821 0
M  V30 3492 C 343.849 -2.33234 0.111506 0
M  V30 3493 C 344.83 -1.53954 -0.723334 0
M  V30 3494 O 346.015 -1.82344 -0.668147 0
M  V30 3495 C 343.145 -3.38057 -0.795917 0
M  V30 3496 C 342.099 -4.2795 -0.065172 0
M  V30 3497 C 341.425 -5.23479 -1.08967 0
M  V30 3498 C 342.725 -5.10741 1.09273 0
M  V30 3499 H 344.419 -2.85692 0.895571 0
M  V30 3500 H 341.965 -1.37364 0.432109 0
M  V30 3501 H 343.918 -4.02675 -1.24221 0
M  V30 3502 H 342.642 -2.8404 -1.61211 0
M  V30 3503 H 341.301 -3.64813 0.361511 0
M  V30 3504 H 340.949 -4.65758 -1.89944 0
M  V30 3505 H 340.649 -5.84472 -0.605489 0
M  V30 3506 H 342.173 -5.90974 -1.53565 0
M  V30 3507 H 343.587 -5.68699 0.724841 0
M  V30 3508 H 341.984 -5.8088 1.50659 0
M  V30 3509 H 343.054 -4.45525 1.91404 0
M  V30 3510 N 344.397 -0.483516 -1.5 0
M  V30 3511 C 345.327 0.293829 -2.31644 0
M  V30 3512 C 346.308 0.978864 -1.39112 0
M  V30 3513 O 347.493 0.973644 -1.68029 0
M  V30 3514 C 344.623 1.36897 -3.19181 0
M  V30 3515 C 343.577 0.804833 -4.20365 0
M  V30 3516 C 342.903 1.9792 -4.96721 0
M  V30 3517 C 344.203 -0.192313 -5.21946 0
M  V30 3518 H 345.897 -0.387616 -2.9688 0
M  V30 3519 H 343.443 -0.187856 -1.42769 0
M  V30 3520 H 345.396 1.92037 -3.751 0
M  V30 3521 H 344.12 2.07936 -2.51853 0
M  V30 3522 H 342.779 0.275319 -3.65565 0
M  V30 3523 H 342.427 2.67686 -4.25856 0
M  V30 3524 H 342.127 1.60789 -5.65173 0
M  V30 3525 H 343.651 2.53526 -5.55479 0
M  V30 3526 H 345.065 0.270333 -5.72662 0
M  V30 3527 H 343.462 -0.478543 -5.98189 0
M  V30 3528 H 344.532 -1.11409 -4.71928 0
M  V30 3529 N 345.875 1.56104 -0.216619 0
M  V30 3530 C 347.123 1.97781 0.415593 0
M  V30 3531 C 347.444 1.10536 1.60645 0
M  V30 3532 O 346.714 0.181303 1.95059 0
M  V30 3533 H 345.294 0.730415 0.156534 0
M  V30 3534 H 347.956 1.92445 -0.308366 0
M  V30 3535 H 347.052 3.03072 0.74525 0
M  V30 3536 N 347.353 -0.0568162 1.57498 0
M  V30 3537 C 348.601 -0.751617 1.87604 0
M  V30 3538 C 348.922 -1.77351 0.81066 0
M  V30 3539 O 348.192 -1.95254 -0.159018 0
M  V30 3540 H 346.772 -0.280583 0.692302 0
M  V30 3541 H 349.434 -0.0293483 1.94878 0
M  V30 3542 H 348.53 -1.25852 2.856 0
M  V30 3543 N 348.832 -1.54138 -0.328536 0
M  V30 3544 C 350.243 -1.63395 -0.903272 0
M  V30 3545 C 350.594 -0.524828 -1.8905 0
M  V30 3546 O 349.719 0.343068 -2.13663 0
M  V30 3547 C 350.314 -2.9618 -1.64507 0
M  V30 3548 C 348.873 -3.0765 -2.1686 0
M  V30 3549 C 348.02 -2.58933 -0.992416 0
M  V30 3550 H 350.971 -1.58344 -0.106253 0
M  V30 3551 H 350.992 -2.86061 -2.50897 0
M  V30 3552 H 350.504 -3.76884 -0.926302 0
M  V30 3553 H 348.605 -2.31611 -2.91868 0
M  V30 3554 H 348.718 -4.1337 -2.42202 0
M  V30 3555 H 347.082 -2.14706 -1.37016 0
M  V30 3556 H 347.865 -3.42089 -0.288041 0
M  V30 3557 N 350.31 0.590341 -1.46126 0
M  V30 3558 C 351.535 1.37991 -1.54833 0
M  V30 3559 C 351.96 1.87163 -0.187506 0
M  V30 3560 O 351.318 1.61133 0.831008 0
M  V30 3561 C 351.366 2.54867 -2.55098 0
M  V30 3562 O 350.47 3.56061 -2.08073 0
M  V30 3563 H 349.811 0.411265 -0.521303 0
M  V30 3564 H 352.341 0.716819 -1.91632 0
M  V30 3565 H 352.351 3.01886 -2.74461 0
M  V30 3566 H 351.026 2.18429 -3.53923 0
M  V30 3567 H 349.603 3.15574 -1.98664 0
M  V30 3568 N 351.788 1.33704 0.83433 0
M  V30 3569 C 353.034 1.25603 1.59222 0
M  V30 3570 C 353.367 -0.176659 1.93395 0
M  V30 3571 O 352.642 -1.11915 1.59076 0
M  V30 3572 C 352.925 2.13576 2.89926 0
M  V30 3573 C 352.778 3.65326 2.62406 0
M  V30 3574 C 354.097 2.01238 3.91397 0
M  V30 3575 H 351.216 0.457613 0.577719 0
M  V30 3576 H 353.858 1.63848 0.961972 0
M  V30 3577 H 352.008 1.8109 3.43713 0
M  V30 3578 H 353.68 4.08124 2.15017 0
M  V30 3579 H 351.923 3.8698 1.96033 0
M  V30 3580 H 352.594 4.22232 3.55562 0
M  V30 3581 H 355.07 2.29738 3.46929 0
M  V30 3582 H 353.946 2.65036 4.80673 0
M  V30 3583 H 354.207 0.985951 4.30966 0
M  V30 3584 N 353.266 -1.05314 1.17247 0
M  V30 3585 C 354.513 -1.78293 0.960091 0
M  V30 3586 C 354.841 -1.87658 -0.51136 0
M  V30 3587 O 354.096 -1.3718 -1.39571 0
M  V30 3588 C 354.395 -3.2229 1.54479 0
M  V30 3589 C 354.061 -3.32987 3.04024 0
M  V30 3590 C 352.723 -3.35613 3.44844 0
M  V30 3591 C 355.075 -3.34102 4.00031 0
M  V30 3592 C 352.403 -3.36982 4.8027 0
M  V30 3593 C 354.755 -3.3701 5.35357 0
M  V30 3594 C 353.419 -3.37923 5.75642 0
M  V30 3595 H 352.689 -0.652422 0.351322 0
M  V30 3596 H 355.336 -1.23782 1.46117 0
M  V30 3597 H 353.641 -3.7972 0.965391 0
M  V30 3598 H 355.338 -3.77376 1.35603 0
M  V30 3599 H 351.928 -3.31655 2.71483 0
M  V30 3600 H 356.112 -3.31276 3.69554 0
M  V30 3601 H 351.368 -3.35999 5.10798 0
M  V30 3602 H 355.542 -3.36822 6.09528 0
M  V30 3603 H 353.169 -3.38738 6.80559 0
M  V30 3604 N 354.744 -0.972509 -1.24016 0
M  V30 3605 C 355.993 -0.632603 -1.91523 0
M  V30 3606 C 356.306 0.836641 -1.76804 0
M  V30 3607 O 357.512 1.28728 -2.39043 0
M  V30 3608 C 355.968 -1.08082 -3.43287 0
M  V30 3609 C 355.576 -2.57386 -3.66683 0
M  V30 3610 C 357.32 -0.814288 -4.16617 0
M  V30 3611 C 355.227 -2.95915 -5.12043 0
M  V30 3612 H 354.157 -0.232898 -0.717129 0
M  V30 3613 H 356.808 -1.17936 -1.40582 0
M  V30 3614 H 355.19 -0.462339 -3.93292 0
M  V30 3615 H 356.364 -3.24405 -3.27258 0
M  V30 3616 H 354.679 -2.81701 -3.06649 0
M  V30 3617 H 357.276 -1.0781 -5.23718 0
M  V30 3618 H 357.619 0.24955 -4.15551 0
M  V30 3619 H 358.152 -1.39397 -3.72577 0
M  V30 3620 H 354.891 -4.0139 -5.18234 0
M  V30 3621 H 354.411 -2.33584 -5.52448 0
M  V30 3622 H 356.09 -2.86086 -5.80314 0
M  V30 3623 N 356.222 1.38976 -0.743202 0
M  V30 3624 C 357.469 2.00343 -0.294752 0
M  V30 3625 C 357.797 1.58983 1.12047 0
M  V30 3626 O 357.052 0.813809 1.77977 0
M  V30 3627 C 357.351 3.55647 -0.353517 0
M  V30 3628 C 357.017 4.16685 -1.72292 0
M  V30 3629 C 355.679 4.3307 -2.09771 0
M  V30 3630 C 358.031 4.50464 -2.62168 0
M  V30 3631 C 355.359 4.80526 -3.36618 0
M  V30 3632 C 357.711 4.99332 -3.88395 0
M  V30 3633 C 356.375 5.13924 -4.25956 0
M  V30 3634 H 355.645 0.733108 -0.107857 0
M  V30 3635 H 358.292 1.6618 -0.951651 0
M  V30 3636 H 356.597 3.89884 0.386954 0
M  V30 3637 H 358.294 4.00998 0.0117269 0
M  V30 3638 H 354.884 4.04339 -1.42155 0
M  V30 3639 H 359.068 4.37416 -2.3448 0
M  V30 3640 H 354.324 4.90008 -3.65653 0
M  V30 3641 H 358.498 5.2444 -4.58187 0
M  V30 3642 H 356.125 5.50457 -5.2431 0
M  V30 3643 N 357.7 0.491464 1.49741 0
M  V30 3644 C 359.111 0.0413169 1.86654 0
M  V30 3645 C 359.462 -1.36985 1.40462 0
M  V30 3646 O 358.587 -2.01917 0.778354 0
M  V30 3647 C 359.182 0.0682023 3.38731 0
M  V30 3648 C 357.741 -0.32656 3.74981 0
M  V30 3649 C 356.888 0.444888 2.73708 0
M  V30 3650 H 359.839 0.704733 1.42194 0
M  V30 3651 H 359.86 -0.729322 3.73445 0
M  V30 3652 H 359.372 1.09539 3.72321 0
M  V30 3653 H 357.473 -1.35734 3.46997 0
M  V30 3654 H 357.586 -0.013741 4.79098 0
M  V30 3655 H 355.95 -0.104062 2.54487 0
M  V30 3656 H 356.733 1.47197 3.10142 0
M  V30 3657 N 359.178 -1.55987 0.224894 0
M  V30 3658 C 360.589 -1.84553 -0.282345 0
M  V30 3659 C 360.94 -1.14634 -1.59227 0
M  V30 3660 O 360.065 -0.417155 -2.12341 0
M  V30 3661 C 360.66 -3.348 -0.519062 0
M  V30 3662 C 359.219 -3.63671 -0.970604 0
M  V30 3663 C 358.366 -2.77277 -0.0355261 0
M  V30 3664 H 361.317 -1.52245 0.448006 0
M  V30 3665 H 361.338 -3.55187 -1.36463 0
M  V30 3666 H 360.85 -3.8566 0.43449 0
M  V30 3667 H 358.951 -3.1827 -1.9374 0
M  V30 3668 H 359.064 -4.71631 -0.842698 0
M  V30 3669 H 357.428 -2.48846 -0.542927 0
M  V30 3670 H 358.211 -3.30937 0.913003 0
M  V30 3671 N 360.656 0.0484629 -1.57525 0
M  V30 3672 C 361.603 1.05504 -2.05275 0
M  V30 3673 C 362.573 1.37084 -0.937927 0
M  V30 3674 O 363.758 1.47754 -1.2072 0
M  V30 3675 C 360.898 2.35676 -2.52093 0
M  V30 3676 C 360.011 2.10423 -3.77288 0
M  V30 3677 C 359.146 3.34327 -4.12794 0
M  V30 3678 C 358.185 3.04542 -5.30962 0
M  V30 3679 N 357.322 4.20841 -5.61994 0
M  V30 3680 H 362.162 0.640885 -2.91027 0
M  V30 3681 H 359.699 0.304854 -1.43906 0
M  V30 3682 H 361.657 3.11709 -2.77297 0
M  V30 3683 H 360.287 2.7485 -1.69285 0
M  V30 3684 H 359.339 1.24976 -3.59284 0
M  V30 3685 H 360.651 1.84438 -4.63448 0
M  V30 3686 H 359.805 4.1874 -4.39024 0
M  V30 3687 H 358.544 3.63408 -3.25247 0
M  V30 3688 H 357.549 2.18528 -5.04505 0
M  V30 3689 H 358.774 2.76758 -6.20146 0
M  V30 3690 H 356.72 4.4991 -4.77406 0
M  V30 3691 H 356.637 3.98212 -6.42622 0
M  V30 3692 H 357.905 5.06184 -5.92789 0
M  V30 3693 N 362.134 1.5431 0.320358 0
M  V30 3694 C 363.383 1.7188 1.05546 0
M  V30 3695 C 363.696 0.501143 1.89071 0
M  V30 3696 O 364.902 0.558258 2.65699 0
M  V30 3697 C 363.358 3.04025 1.92605 0
M  V30 3698 C 362.966 4.33207 1.14176 0
M  V30 3699 C 364.71 3.30959 2.65832 0
M  V30 3700 C 362.617 5.56412 2.00399 0
M  V30 3701 H 361.547 0.640547 0.397763 0
M  V30 3702 H 364.198 1.80802 0.313522 0
M  V30 3703 H 362.58 2.89019 2.7071 0
M  V30 3704 H 363.754 4.58989 0.40819 0
M  V30 3705 H 362.069 4.13062 0.526165 0
M  V30 3706 H 364.666 4.20203 3.30656 0
M  V30 3707 H 365.009 2.48979 3.33639 0
M  V30 3708 H 365.542 3.46847 1.94787 0
M  V30 3709 H 362.281 6.41004 1.37094 0
M  V30 3710 H 361.801 5.34844 2.7148 0
M  V30 3711 H 363.48 5.92938 2.58908 0
M  V30 3712 N 363.613 -0.582584 1.46437 0
M  V30 3713 C 364.56 -1.69164 1.5701 0
M  V30 3714 C 365.53 -1.60847 0.414403 0
M  V30 3715 O 366.715 -1.80058 0.631171 0
M  V30 3716 C 363.855 -3.075 1.56646 0
M  V30 3717 C 362.968 -3.2644 2.82951 0
M  V30 3718 C 362.103 -4.55026 2.7409 0
M  V30 3719 C 361.142 -4.6731 3.95333 0
M  V30 3720 N 360.279 -5.87221 3.84858 0
M  V30 3721 H 365.119 -1.59464 2.51744 0
M  V30 3722 H 362.656 -0.777186 1.24893 0
M  V30 3723 H 364.614 -3.8757 1.5442 0
M  V30 3724 H 363.244 -3.16096 0.654439 0
M  V30 3725 H 362.296 -2.39974 2.95155 0
M  V30 3726 H 363.608 -3.31385 3.72808 0
M  V30 3727 H 362.762 -5.43324 2.6997 0
M  V30 3728 H 361.501 -4.52519 1.81873 0
M  V30 3729 H 360.506 -3.77429 3.99784 0
M  V30 3730 H 361.731 -4.71595 4.88646 0
M  V30 3731 H 359.677 -5.85712 2.95427 0
M  V30 3732 H 359.594 -5.93435 4.6837 0
M  V30 3733 H 360.862 -6.7795 3.84713 0
M  V30 3734 N 365.091 -1.34144 -0.827227 0
M  V30 3735 C 366.368 -1.16844 -1.56865 0
M  V30 3736 C 366.748 0.260654 -2.09485 0
M  V30 3737 O 366.096 1.26138 -1.9053 0
M  V30 3738 C 366.306 -2.21939 -2.6934 0
M  V30 3739 C 367.654 -2.56695 -3.3822 0
M  V30 3740 O 368.678 -2.20695 -2.79593 0
M  V30 3741 O 367.537 -3.18518 -4.44082 0
M  V30 3742 H 364.631 -0.452669 -0.692112 0
M  V30 3743 H 367.177 -1.45763 -0.868973 0
M  V30 3744 H 365.949 -3.17882 -2.28182 0
M  V30 3745 H 365.572 -1.94172 -3.46962 0
M  V30 3746 N 366.569 1.04691 -1.17803 0
M  V30 3747 C 367.815 1.78045 -0.970969 0
M  V30 3748 C 368.148 1.87686 0.498751 0
M  V30 3749 O 367.423 1.38035 1.37027 0
M  V30 3750 C 367.706 3.2166 -1.61884 0
M  V30 3751 C 367.559 3.20001 -3.161 0
M  V30 3752 C 368.878 4.1962 -1.3269 0
M  V30 3753 H 365.997 0.64633 -0.354155 0
M  V30 3754 H 368.639 1.22333 -1.45378 0
M  V30 3755 H 366.789 3.69232 -1.20831 0
M  V30 3756 H 368.461 2.80467 -3.66246 0
M  V30 3757 H 366.704 2.58203 -3.48588 0
M  V30 3758 H 367.375 4.21386 -3.56564 0
M  V30 3759 H 369.851 3.80567 -1.68249 0
M  V30 3760 H 368.727 5.18339 -1.80599 0
M  V30 3761 H 368.988 4.414 -0.248622 0
M  V30 3762 N 368.047 0.979072 1.23499 0
M  V30 3763 C 368.977 0.537606 2.27227 0
M  V30 3764 C 369.958 -0.428539 1.64613 0
M  V30 3765 O 371.143 -0.322191 1.91509 0
M  V30 3766 C 368.273 -0.162052 3.46922 0
M  V30 3767 C 367.227 0.721242 4.21879 0
M  V30 3768 C 366.553 -0.110555 5.34586 0
M  V30 3769 C 367.853 2.01141 4.82016 0
M  V30 3770 H 369.547 1.40462 2.64406 0
M  V30 3771 H 367.093 0.67684 1.27102 0
M  V30 3772 H 369.046 -0.482192 4.18632 0
M  V30 3773 H 367.77 -1.06351 3.08799 0
M  V30 3774 H 366.429 1.02482 3.51984 0
M  V30 3775 H 366.077 -1.0125 4.92704 0
M  V30 3776 H 365.777 0.477325 5.85658 0
M  V30 3777 H 367.301 -0.425107 6.09118 0
M  V30 3778 H 368.715 1.75612 5.45741 0
M  V30 3779 H 367.112 2.54695 5.43369 0
M  V30 3780 H 368.182 2.69909 4.02836 0
M  V30 3781 N 369.525 -1.3858 0.750561 0
M  V30 3782 C 370.458 -2.28095 0.0693139 0
M  V30 3783 C 371.436 -1.45217 -0.731491 0
M  V30 3784 O 372.62 -1.74587 -0.71076 0
M  V30 3785 C 369.747 -3.26282 -0.90871 0
M  V30 3786 C 368.793 -4.26056 -0.194507 0
M  V30 3787 S 369.626 -5.24026 1.10257 0
M  V30 3788 C 370.782 -6.2577 0.127542 0
M  V30 3789 H 371.015 -2.85526 0.8284 0
M  V30 3790 H 368.548 -1.44536 0.543014 0
M  V30 3791 H 370.506 -3.83367 -1.46766 0
M  V30 3792 H 369.167 -2.6784 -1.64075 0
M  V30 3793 H 368.36 -4.95249 -0.93512 0
M  V30 3794 H 367.962 -3.72852 0.292837 0
M  V30 3795 H 370.254 -6.73796 -0.707516 0
M  V30 3796 H 371.197 -7.03712 0.787044 0
M  V30 3797 H 371.605 -5.63938 -0.251803 0
M  V30 3798 N 371.003 -0.499398 -1.49478 0
M  V30 3799 C 372.252 0.0475259 -2.01644 0
M  V30 3800 C 372.565 1.38195 -1.38425 0
M  V30 3801 O 373.771 2.01547 -1.8191 0
M  V30 3802 C 372.227 0.135164 -3.59646 0
M  V30 3803 C 371.835 -1.19252 -4.31837 0
M  V30 3804 C 373.579 0.632538 -4.19761 0
M  V30 3805 C 371.486 -1.06713 -5.81693 0
M  V30 3806 H 370.416 0.0215349 -0.753692 0
M  V30 3807 H 373.067 -0.638577 -1.7203 0
M  V30 3808 H 371.449 0.885681 -3.85969 0
M  V30 3809 H 372.623 -1.9562 -4.17216 0
M  V30 3810 H 370.938 -1.62321 -3.83459 0
M  V30 3811 H 373.535 0.743833 -5.29501 0
M  V30 3812 H 373.878 1.63098 -3.83021 0
M  V30 3813 H 374.411 -0.0613987 -3.97753 0
M  V30 3814 H 371.15 -2.03979 -6.22955 0
M  V30 3815 H 370.67 -0.344307 -5.98811 0
M  V30 3816 H 372.349 -0.745208 -6.42694 0
M  V30 3817 N 372.481 1.55866 -0.233164 0
M  V30 3818 C 373.706 2.03449 0.402906 0
M  V30 3819 C 374.131 1.11166 1.51736 0
M  V30 3820 O 373.489 0.101996 1.81013 0
M  V30 3821 C 373.537 3.49165 0.9009 0
M  V30 3822 O 372.641 3.60019 2.01147 0
M  V30 3823 H 371.982 0.657913 0.0897025 0
M  V30 3824 H 374.512 2.01493 -0.355201 0
M  V30 3825 H 374.522 3.89716 1.2077 0
M  V30 3826 H 373.197 4.15813 0.0852889 0
M  V30 3827 H 371.774 3.3136 1.71042 0
M  V30 3828 N 373.959 -0.0401083 1.57549 0
M  V30 3829 C 374.889 -1.04384 2.08869 0
M  V30 3830 C 375.87 -1.38407 0.988817 0
M  V30 3831 O 377.055 -1.47483 1.26342 0
M  V30 3832 C 374.185 -2.34808 2.55895 0
M  V30 3833 C 373.139 -2.15057 3.70047 0
M  V30 3834 C 372.465 -3.51145 4.03239 0
M  V30 3835 C 373.765 -1.54576 4.98902 0
M  V30 3836 H 375.459 -0.616666 2.92981 0
M  V30 3837 H 373.005 -0.295184 1.40942 0
M  V30 3838 H 374.958 -3.05346 2.90417 0
M  V30 3839 H 373.682 -2.79565 1.68853 0
M  V30 3840 H 372.341 -1.46954 3.35857 0
M  V30 3841 H 371.989 -3.93529 3.13279 0
M  V30 3842 H 371.689 -3.38758 4.80122 0
M  V30 3843 H 373.213 -4.23062 4.40285 0
M  V30 3844 H 374.627 -2.15017 5.31451 0
M  V30 3845 H 373.024 -1.52796 5.80322 0
M  V30 3846 H 374.094 -0.51039 4.82206 0
M  V30 3847 N 375.437 -1.54477 -0.31217 0
M  V30 3848 C 376.662 -1.77526 -1.07235 0
M  V30 3849 C 377.087 -0.527775 -1.80544 0
M  V30 3850 O 376.445 0.52121 -1.73646 0
M  V30 3851 C 376.493 -2.97535 -2.03728 0
M  V30 3852 O 375.597 -2.69878 -3.11833 0
M  V30 3853 H 374.938 -0.58792 -0.30862 0
M  V30 3854 H 377.468 -2.01532 -0.352993 0
M  V30 3855 H 377.478 -3.25198 -2.46395 0
M  V30 3856 H 376.153 -3.87996 -1.49774 0
M  V30 3857 H 374.73 -2.53199 -2.7376 0
M  V30 3858 N 376.915 0.57481 -1.46744 0
M  V30 3859 C 378.326 1.15695 -1.46532 0
M  V30 3860 C 378.677 1.95068 -0.210425 0
M  V30 3861 O 377.802 2.05241 0.685944 0
M  V30 3862 C 378.397 2.1048 -2.65487 0
M  V30 3863 C 376.956 2.64002 -2.68291 0
M  V30 3864 C 376.103 1.40026 -2.39349 0
M  V30 3865 H 379.054 0.362325 -1.54509 0
M  V30 3866 H 379.075 2.94074 -2.41455 0
M  V30 3867 H 378.587 1.52683 -3.56805 0
M  V30 3868 H 376.688 3.25646 -1.81067 0
M  V30 3869 H 376.801 3.06197 -3.68483 0
M  V30 3870 H 375.165 1.70106 -1.89568 0
M  V30 3871 H 375.948 0.840485 -3.32852 0
M  V30 3872 N 378.394 1.34581 0.820102 0
M  V30 3873 C 379.643 1.26437 1.57151 0
M  V30 3874 C 379.956 -0.163111 1.94919 0
M  V30 3875 O 381.162 -0.366722 2.69012 0
M  V30 3876 C 379.618 2.21658 2.83541 0
M  V30 3877 C 379.226 3.69679 2.53065 0
M  V30 3878 C 380.97 2.22428 3.61561 0
M  V30 3879 C 378.877 4.56761 3.75664 0
M  V30 3880 H 377.807 0.469707 0.589823 0
M  V30 3881 H 380.458 1.59763 0.902656 0
M  V30 3882 H 378.84 1.81287 3.52067 0
M  V30 3883 H 380.014 4.18605 1.92631 0
M  V30 3884 H 378.329 3.71384 1.88316 0
M  V30 3885 H 380.926 2.8471 4.52597 0
M  V30 3886 H 381.269 1.22434 3.97889 0
M  V30 3887 H 381.802 2.61259 2.99981 0
M  V30 3888 H 378.541 5.57702 3.44454 0
M  V30 3889 H 378.061 4.12568 4.35371 0
M  V30 3890 H 379.74 4.71509 4.43044 0
M  V30 3891 N 379.872 -1.04064 1.18357 0
M  V30 3892 C 381.118 -1.77528 0.980397 0
M  V30 3893 C 381.451 -1.87948 -0.48879 0
M  V30 3894 O 380.726 -1.3876 -1.36293 0
M  V30 3895 C 381.009 -3.20797 1.63588 0
M  V30 3896 C 380.862 -3.1832 3.17793 0
M  V30 3897 C 382.181 -4.18911 1.34914 0
M  V30 3898 H 379.3 -0.644443 0.357578 0
M  V30 3899 H 381.942 -1.2156 1.46024 0
M  V30 3900 H 380.092 -3.68586 1.22788 0
M  V30 3901 H 381.764 -2.78521 3.67728 0
M  V30 3902 H 380.007 -2.56351 3.49952 0
M  V30 3903 H 380.678 -4.19489 3.58794 0
M  V30 3904 H 383.154 -3.7967 1.70265 0
M  V30 3905 H 382.03 -5.17374 1.83346 0
M  V30 3906 H 382.291 -4.41262 0.272027 0
M  V30 3907 N 381.35 -0.985608 -1.22978 0
M  V30 3908 C 382.578 -0.675582 -1.95559 0
M  V30 3909 C 382.993 0.758413 -1.72897 0
M  V30 3910 O 382.35 1.51094 -1.02357 0
M  V30 3911 C 382.401 -0.96293 -3.48439 0
M  V30 3912 O 382.122 -2.34057 -3.70336 0
M  V30 3913 C 383.623 -0.669585 -4.38214 0
M  V30 3914 H 380.843 -0.250523 -0.622478 0
M  V30 3915 H 383.387 -1.3184 -1.56328 0
M  V30 3916 H 381.542 -0.366033 -3.85667 0
M  V30 3917 H 381.956 -2.43424 -4.64591 0
M  V30 3918 H 383.43 -0.920967 -5.44263 0
M  V30 3919 H 383.907 0.396383 -4.37408 0
M  V30 3920 H 384.513 -1.2472 -4.06602 0
M  V30 3921 N 382.828 1.3818 -0.7579 0
M  V30 3922 C 384.068 2.01864 -0.320968 0
M  V30 3923 C 384.432 1.58863 1.07827 0
M  V30 3924 O 385.633 2.14908 1.61456 0
M  V30 3925 C 383.904 3.54626 -0.44446 0
M  V30 3926 S 385.463 4.38706 -0.0907467 0
M  V30 3927 H 382.281 0.700056 -0.124268 0
M  V30 3928 H 384.883 1.68611 -0.989468 0
M  V30 3929 H 383.587 3.83411 -1.4637 0
M  V30 3930 H 383.118 3.92661 0.241073 0
M  V30 3931 H 385.133 4.83435 1.11826 0
M  V30 3932 N 384.306 0.507319 1.49211 0
M  V30 3933 C 385.552 -0.0350047 2.0277 0
M  V30 3934 C 385.885 -1.3606 1.38569 0
M  V30 3935 O 385.16 -1.87321 0.523542 0
M  V30 3936 C 385.443 -0.180916 3.59645 0
M  V30 3937 C 385.296 1.16825 4.34364 0
M  V30 3938 C 386.615 -0.918558 4.30407 0
M  V30 3939 H 383.734 -0.0112473 0.736914 0
M  V30 3940 H 386.376 0.659956 1.7817 0
M  V30 3941 H 384.526 -0.772826 3.80736 0
M  V30 3942 H 386.198 1.79952 4.24753 0
M  V30 3943 H 384.441 1.75594 3.96673 0
M  V30 3944 H 385.112 1.01939 5.42506 0
M  V30 3945 H 387.588 -0.41649 4.1401 0
M  V30 3946 H 386.464 -0.989505 5.39907 0
M  V30 3947 H 386.725 -1.96373 3.96093 0
M  V30 3948 N 385.784 -1.5574 0.241426 0
M  V30 3949 C 387.03 -1.99104 -0.385406 0
M  V30 3950 C 387.363 -1.1293 -1.57988 0
M  V30 3951 O 386.638 -0.191449 -1.93555 0
M  V30 3952 C 386.921 -3.51087 -0.800616 0
M  V30 3953 C 386.774 -4.48028 0.398874 0
M  V30 3954 C 388.093 -4.08015 -1.64959 0
M  V30 3955 H 385.212 -0.723848 -0.138614 0
M  V30 3956 H 387.854 -1.86903 0.341642 0
M  V30 3957 H 386.004 -3.61615 -1.4201 0
M  V30 3958 H 387.676 -4.49487 1.03726 0
M  V30 3959 H 385.919 -4.21077 1.04293 0
M  V30 3960 H 386.59 -5.51962 0.0651056 0
M  V30 3961 H 389.066 -4.00555 -1.12672 0
M  V30 3962 H 387.942 -5.14635 -1.90898 0
M  V30 3963 H 388.203 -3.56131 -2.61961 0
M  V30 3964 N 387.262 0.0317525 -1.57568 0
M  V30 3965 C 388.508 0.724175 -1.8943 0
M  V30 3966 C 388.841 1.75149 -0.838836 0
M  V30 3967 O 388.116 1.93948 0.146422 0
M  V30 3968 C 388.399 1.39615 -3.31933 0
M  V30 3969 C 388.252 0.382537 -4.4817 0
M  V30 3970 C 389.571 2.33084 -3.73309 0
M  V30 3971 H 386.69 0.261797 -0.688935 0
M  V30 3972 H 389.332 -0.013017 -1.89996 0
M  V30 3973 H 387.482 2.02451 -3.31581 0
M  V30 3974 H 389.154 -0.243689 -4.60656 0
M  V30 3975 H 387.397 -0.29844 -4.32772 0
M  V30 3976 H 388.068 0.891145 -5.44759 0
M  V30 3977 H 390.544 1.80295 -3.7501 0
M  V30 3978 H 389.42 2.77084 -4.73831 0
M  V30 3979 H 389.681 3.19643 -3.05419 0
M  V30 3980 N 388.74 1.54641 0.303973 0
M  V30 3981 C 390.017 1.64455 1.05896 0
M  V30 3982 C 390.397 0.490923 2.05312 0
M  V30 3983 O 389.745 -0.512685 2.22674 0
M  V30 3984 C 389.955 3.02331 1.74347 0
M  V30 3985 C 391.303 3.59045 2.26653 0
M  V30 3986 O 392.327 3.04764 1.84384 0
M  V30 3987 O 391.186 4.54081 3.04093 0
M  V30 3988 H 388.28 0.666729 0.489287 0
M  V30 3989 H 390.826 1.66986 0.302298 0
M  V30 3990 H 389.598 3.77734 1.02142 0
M  V30 3991 H 389.221 3.03565 2.56777 0
M  V30 3992 N 390.218 -0.567019 1.47046 0
M  V30 3993 C 391.464 -1.32658 1.53394 0
M  V30 3994 C 391.797 -1.93254 0.19148 0
M  V30 3995 O 391.072 -1.77338 -0.798844 0
M  V30 3996 C 391.355 -2.44412 2.64452 0
M  V30 3997 C 391.208 -1.88749 4.08282 0
M  V30 3998 C 392.527 -3.46387 2.71485 0
M  V30 3999 H 389.646 -0.48098 0.558415 0
M  V30 4000 H 392.288 -0.635481 1.79058 0
M  V30 4001 H 390.438 -3.03363 2.427 0
M  V30 4002 H 392.11 -1.34134 4.41368 0
M  V30 4003 H 390.353 -1.19481 4.17021 0
M  V30 4004 H 391.024 -2.69491 4.81745 0
M  V30 4005 H 393.5 -2.9734 2.91081 0
M  V30 4006 H 392.376 -4.2202 3.50985 0
M  V30 4007 H 392.637 -4.04616 1.78153 0
M  V30 4008 N 391.696 -1.35014 -0.812953 0
M  V30 4009 C 392.921 -1.31187 -1.60639 0
M  V30 4010 C 393.346 0.109382 -1.87782 0
M  V30 4011 O 392.704 1.07424 -1.46047 0
M  V30 4012 C 392.752 -2.11809 -2.91838 0
M  V30 4013 O 391.856 -1.49444 -3.8437 0
M  V30 4014 H 391.197 -0.450084 -0.488181 0
M  V30 4015 H 393.727 -1.77963 -1.00947 0
M  V30 4016 H 393.737 -2.23531 -3.41318 0
M  V30 4017 H 392.412 -3.15137 -2.71407 0
M  V30 4018 H 390.989 -1.46524 -3.42907 0
M  V30 4019 N 393.175 1.03435 -1.18907 0
M  V30 4020 C 394.085 2.15075 -0.937015 0
M  V30 4021 C 395.101 1.73706 0.101085 0
M  V30 4022 O 396.277 2.01232 -0.0822948 0
M  V30 4023 C 393.342 3.43458 -0.473057 0
M  V30 4024 C 392.403 3.99172 -1.57989 0
M  V30 4025 C 391.636 5.21427 -1.13797 0
M  V30 4026 O 391.859 5.704 0.000725941 0
M  V30 4027 O 390.793 5.69837 -1.9383 0
M  V30 4028 H 394.619 2.39198 -1.87131 0
M  V30 4029 H 392.204 1.13506 -0.971427 0
M  V30 4030 H 394.086 4.20811 -0.222702 0
M  V30 4031 H 392.761 3.20793 0.432869 0
M  V30 4032 H 391.668 3.23178 -1.88433 0
M  V30 4033 H 393.001 4.2619 -2.46217 0
M  V30 4034 N 394.653 0.992116 1.22453 0
M  V30 4035 C 395.93 0.583508 1.86694 0
M  V30 4036 C 396.31 -0.9392 1.89056 0
M  V30 4037 O 395.658 -1.82081 1.38053 0
M  V30 4038 C 395.868 1.20304 3.2761 0
M  V30 4039 C 397.216 1.30308 4.0411 0
M  V30 4040 O 398.24 1.15737 3.36873 0
M  V30 4041 O 397.099 1.53615 5.24466 0
M  V30 4042 H 394.193 0.198129 0.802916 0
M  V30 4043 H 396.739 1.08794 1.30238 0
M  V30 4044 H 395.511 2.24461 3.2052 0
M  V30 4045 H 395.134 0.684144 3.9167 0
M  V30 4046 N 396.131 -1.37776 0.765217 0
M  V30 4047 C 397.408 -1.93975 0.251596 0
M  V30 4048 C 397.788 -1.69949 -1.25222 0
M  V30 4049 O 397.136 -1.04457 -2.03226 0
M  V30 4050 C 397.346 -3.43487 0.617895 0
M  V30 4051 C 398.694 -4.20564 0.584029 0
M  V30 4052 O 399.718 -3.5182 0.556888 0
M  V30 4053 O 398.577 -5.43138 0.605291 0
M  V30 4054 H 395.671 -0.82509 0.0561806 0
M  V30 4055 H 398.217 -1.47101 0.846128 0
M  V30 4056 H 396.989 -3.5453 1.65602 0
M  V30 4057 H 396.612 -3.976 -0.00403411 0
M  V30 4058 N 397.609 -0.515225 -1.4894 0
M  V30 4059 C 399.02 -0.0710067 -1.86565 0
M  V30 4060 C 399.371 1.34733 -1.42623 0
M  V30 4061 O 398.496 2.00653 -0.810379 0
M  V30 4062 C 399.091 -0.122083 -3.3858 0
M  V30 4063 C 397.65 0.266863 -3.75453 0
M  V30 4064 C 396.797 -0.488376 -2.72966 0
M  V30 4065 H 399.748 -0.727266 -1.41055 0
M  V30 4066 H 399.769 0.669818 -3.74558 0
M  V30 4067 H 399.281 -1.15448 -3.70531 0
M  V30 4068 H 397.382 1.30196 -3.49113 0
M  V30 4069 H 397.495 -0.0624811 -4.79059 0
M  V30 4070 H 395.859 0.0635622 -2.54621 0
M  V30 4071 H 396.642 -1.52113 -3.07761 0
M  V30 4072 N 399.087 1.5561 -0.249682 0
M  V30 4073 C 400.364 1.90932 0.424761 0
M  V30 4074 C 400.744 1.17078 1.75658 0
M  V30 4075 O 400.092 0.289176 2.26663 0
M  V30 4076 C 400.302 3.43975 0.590109 0
M  V30 4077 C 401.65 4.15281 0.884714 0
M  V30 4078 O 402.674 3.49729 0.67587 0
M  V30 4079 O 401.533 5.31236 1.28259 0
M  V30 4080 H 398.627 0.794815 0.228468 0
M  V30 4081 H 401.173 1.67135 -0.293954 0
M  V30 4082 H 399.945 3.89748 -0.34818 0
M  V30 4083 H 399.568 3.73644 1.35926 0
M  V30 4084 N 400.565 -0.0233959 1.57583 0
M  V30 4085 C 401.811 -0.714119 1.89811 0
M  V30 4086 C 402.144 -1.74702 0.848113 0
M  V30 4087 O 401.419 -1.94023 -0.136135 0
M  V30 4088 C 401.702 -1.37853 3.32669 0
M  V30 4089 C 401.555 -0.358764 4.48367 0
M  V30 4090 C 402.874 -2.31101 3.7454 0
M  V30 4091 H 399.993 -0.25814 0.690314 0
M  V30 4092 H 402.635 0.0230927 1.89986 0
M  V30 4093 H 400.785 -2.00689 3.3265 0
M  V30 4094 H 402.457 0.268115 4.6052 0
M  V30 4095 H 400.7 0.321387 4.32608 0
M  V30 4096 H 401.371 -0.862242 5.45224 0
M  V30 4097 H 403.847 -1.78304 3.75961 0
M  V30 4098 H 402.723 -2.74567 4.75294 0
M  V30 4099 H 402.984 -3.18018 3.0711 0
M  V30 4100 N 402.043 -1.548 -0.295768 0
M  V30 4101 C 402.975 -1.82492 -1.3867 0
M  V30 4102 C 403.988 -0.708134 -1.46592 0
M  V30 4103 O 405.177 -0.985686 -1.48817 0
M  V30 4104 C 402.277 -1.95256 -2.76999 0
M  V30 4105 C 401.45 -3.25709 -2.91946 0
M  V30 4106 C 400.509 -3.28824 -4.10806 0
M  V30 4107 O 399.535 -4.02328 -4.02643 0
M  V30 4108 N 400.737 -2.5459 -5.21694 0
M  V30 4109 H 403.502 -2.76646 -1.15269 0
M  V30 4110 H 401.063 -1.54438 -0.485849 0
M  V30 4111 H 403.055 -1.94736 -3.54768 0
M  V30 4112 H 401.625 -1.08072 -2.93324 0
M  V30 4113 H 400.845 -3.38959 -2.01247 0
M  V30 4114 H 402.133 -4.11786 -2.98847 0
M  V30 4115 H 401.531 -1.94512 -5.31208 0
M  V30 4116 H 400.088 -2.59818 -5.97778 0
M  V30 4117 N 403.521 0.559213 -1.47345 0
M  V30 4118 C 404.77 1.31281 -1.53128 0
M  V30 4119 C 405.083 1.94602 -0.197344 0
M  V30 4120 O 406.289 2.71173 -0.133154 0
M  V30 4121 C 404.745 2.38051 -2.69925 0
M  V30 4122 C 404.353 1.8093 -4.0984 0
M  V30 4123 C 406.097 3.14604 -2.84999 0
M  V30 4124 C 404.004 2.85468 -5.1794 0
M  V30 4125 H 402.934 0.493614 -0.569966 0
M  V30 4126 H 405.585 0.594155 -1.73615 0
M  V30 4127 H 403.967 3.12822 -2.42814 0
M  V30 4128 H 405.141 1.12544 -4.46845 0
M  V30 4129 H 403.456 1.16967 -3.99634 0
M  V30 4130 H 406.053 3.92666 -3.62929 0
M  V30 4131 H 406.396 3.68665 -1.93369 0
M  V30 4132 H 406.929 2.46945 -3.1187 0
M  V30 4133 H 403.668 2.36264 -6.1144 0
M  V30 4134 H 403.188 3.52269 -4.85455 0
M  V30 4135 H 404.867 3.48996 -5.44803 0
M  V30 4136 N 404.999 1.35443 0.805782 0
M  V30 4137 C 406.224 1.32037 1.59941 0
M  V30 4138 C 406.649 -0.0994215 1.87837 0
M  V30 4139 O 406.007 -1.06648 1.46615 0
M  V30 4140 C 406.055 2.13354 2.90711 0
M  V30 4141 O 405.159 1.5148 3.83572 0
M  V30 4142 H 404.5 0.452666 0.485787 0
M  V30 4143 H 407.03 1.78496 1.00002 0
M  V30 4144 H 407.04 2.25338 3.40128 0
M  V30 4145 H 405.715 3.16572 2.69732 0
M  V30 4146 H 404.292 1.4834 3.42125 0
M  V30 4147 N 406.477 -1.02803 1.19454 0
M  V30 4148 C 407.723 -1.76598 1.0092 0
M  V30 4149 C 408.078 -1.86939 -0.455142 0
M  V30 4150 O 407.371 -1.37575 -1.33355 0
M  V30 4151 C 407.565 -3.18941 1.6128 0
M  V30 4152 C 407.394 -3.22476 3.13431 0
M  V30 4153 C 406.164 -3.30375 3.82336 0
M  V30 4154 C 408.362 -3.09451 4.10785 0
M  V30 4155 N 406.344 -3.23292 5.21877 0
M  V30 4156 C 407.715 -3.10012 5.36929 0
M  V30 4157 C 409.77 -2.93585 4.02135 0
M  V30 4158 C 408.473 -2.96334 6.55423 0
M  V30 4159 C 410.499 -2.81256 5.20239 0
M  V30 4160 C 409.861 -2.82472 6.45282 0
M  V30 4161 H 405.96 -0.657447 0.423424 0
M  V30 4162 H 408.544 -1.22369 1.5144 0
M  V30 4163 H 406.715 -3.71489 1.1336 0
M  V30 4164 H 408.447 -3.81102 1.36173 0
M  V30 4165 H 405.202 -3.3663 3.33132 0
M  V30 4166 H 405.626 -3.23156 5.94894 0
M  V30 4167 H 410.268 -2.91466 3.0628 0
M  V30 4168 H 407.986 -2.97203 7.51463 0
M  V30 4169 H 411.572 -2.70014 5.15348 0
M  V30 4170 H 410.452 -2.73036 7.35133 0
M  V30 4171 N 407.956 -0.998596 -1.21925 0
M  V30 4172 C 409.203 -0.677663 -1.90824 0
M  V30 4173 C 409.531 0.790905 -1.77693 0
M  V30 4174 O 408.786 1.58817 -1.14349 0
M  V30 4175 C 409.085 -1.03648 -3.42041 0
M  V30 4176 C 408.751 -2.49825 -3.75364 0
M  V30 4177 C 407.413 -2.8977 -3.8417 0
M  V30 4178 C 409.765 -3.44545 -3.91073 0
M  V30 4179 C 407.093 -4.23412 -4.06127 0
M  V30 4180 C 409.445 -4.77853 -4.14535 0
M  V30 4181 C 408.109 -5.17531 -4.21566 0
M  V30 4182 H 407.379 -0.247975 -0.698276 0
M  V30 4183 H 410.026 -1.25584 -1.44571 0
M  V30 4184 H 408.331 -0.376457 -3.89987 0
M  V30 4185 H 410.028 -0.766113 -3.93614 0
M  V30 4186 H 406.618 -2.17866 -3.69097 0
M  V30 4187 H 410.802 -3.14853 -3.83642 0
M  V30 4188 H 406.058 -4.53734 -4.09799 0
M  V30 4189 H 410.232 -5.51189 -4.25633 0
M  V30 4190 H 407.859 -6.21102 -4.38333 0
M  V30 4191 N 409.434 1.37368 -0.772513 0
M  V30 4192 C 410.68 1.99969 -0.337681 0
M  V30 4193 C 411.013 1.61184 1.08321 0
M  V30 4194 O 410.288 0.858395 1.74533 0
M  V30 4195 C 410.571 3.56858 -0.482121 0
M  V30 4196 C 410.424 4.0555 -1.94549 0
M  V30 4197 C 411.743 4.39955 0.113143 0
M  V30 4198 H 408.862 0.726464 -0.124171 0
M  V30 4199 H 411.504 1.63034 -0.975699 0
M  V30 4200 H 409.654 3.88452 0.0610361 0
M  V30 4201 H 411.326 3.84518 -2.54841 0
M  V30 4202 H 409.569 3.57715 -2.45403 0
M  V30 4203 H 410.24 5.14587 -1.9976 0
M  V30 4204 H 412.716 4.14623 -0.35031 0
M  V30 4205 H 411.592 5.48897 -0.0180514 0
M  V30 4206 H 411.853 4.25403 1.20354 0
M  V30 4207 N 410.912 0.523116 1.48665 0
M  V30 4208 C 411.86 -0.256859 2.31177 0
M  V30 4209 C 412.854 -0.94199 1.40794 0
M  V30 4210 O 414.06 -0.867157 1.57735 0
M  V30 4211 H 410.435 -0.1017 0.745091 0
M  V30 4212 H 412.406 0.458739 2.94853 0
M  V30 4213 C 411.155 -1.29503 3.22683 0
M  V30 4214 H 410.478 -0.777248 3.92172 0
M  V30 4215 H 411.918 -1.81233 3.83315 0
M  V30 4216 C 410.377 -2.32501 2.43813 0
M  V30 4217 O 410.907 -3.3881 2.15803 0
M  V30 4218 N 409.113 -2.05538 2.05432 0
M  V30 4219 H 408.66 -1.19104 2.28412 0
M  V30 4220 H 408.618 -2.74676 1.52973 0
M  V30 4221 N 412.39 -1.55475 0.257931 0
M  V30 4222 C 413.338 -2.23244 -0.653076 0
M  V30 4223 C 414.332 -1.22366 -1.17144 0
M  V30 4224 O 415.538 -1.40347 -1.12706 0
M  V30 4225 H 411.913 -0.716247 -0.229117 0
M  V30 4226 H 413.884 -2.98343 -0.0584788 0
M  V30 4227 C 412.633 -2.95401 -1.83395 0
M  V30 4228 H 411.956 -3.72802 -1.44424 0
M  V30 4229 H 413.396 -3.46165 -2.44838 0
M  V30 4230 C 411.855 -1.99895 -2.71189 0
M  V30 4231 O 412.385 -1.53909 -3.71046 0
M  V30 4232 N 410.591 -1.6676 -2.3799 0
M  V30 4233 H 410.138 -2.04352 -1.56837 0
M  V30 4234 H 410.096 -1.03127 -2.97005 0
M  V30 4235 N 413.868 0.0150385 -1.57593 0
M  V30 4236 C 415.114 0.704043 -1.90187 0
M  V30 4237 C 415.447 1.74249 -0.857366 0
M  V30 4238 O 414.722 1.94092 0.125843 0
M  V30 4239 C 415.005 1.36087 -3.33395 0
M  V30 4240 C 414.858 0.334981 -4.48551 0
M  V30 4241 C 416.177 2.29112 -3.7576 0
M  V30 4242 H 413.296 0.254475 -0.691673 0
M  V30 4243 H 415.938 -0.0331678 -1.89971 0
M  V30 4244 H 414.088 1.98922 -3.3371 0
M  V30 4245 H 415.76 -0.292534 -4.60372 0
M  V30 4246 H 414.003 -0.344325 -4.32431 0
M  V30 4247 H 414.674 0.833316 -5.45674 0
M  V30 4248 H 417.15 1.76308 -3.76902 0
M  V30 4249 H 416.026 2.72043 -4.76743 0
M  V30 4250 H 416.287 3.16385 -3.08793 0
M  V30 4251 N 415.346 1.54954 0.287554 0
M  V30 4252 C 416.256 1.8991 1.37736 0
M  V30 4253 C 417.272 0.794701 1.54792 0
M  V30 4254 O 418.448 1.09243 1.69198 0
M  V30 4255 C 415.513 2.15108 2.71899 0
M  V30 4256 C 414.574 3.38752 2.63715 0
M  V30 4257 C 413.807 3.62739 3.91479 0
M  V30 4258 O 414.03 2.89492 4.91478 0
M  V30 4259 O 412.964 4.56267 3.92561 0
M  V30 4260 H 416.79 2.82652 1.11092 0
M  V30 4261 H 414.375 1.41315 0.484807 0
M  V30 4262 H 416.257 2.32806 3.51254 0
M  V30 4263 H 414.932 1.25551 2.9836 0
M  V30 4264 H 413.839 3.26405 1.82786 0
M  V30 4265 H 415.172 4.28483 2.42205 0
M  V30 4266 N 416.824 -0.551391 1.4764 0
M  V30 4267 C 418.07 -1.31024 1.54792 0
M  V30 4268 C 418.403 -1.9304 0.211967 0
M  V30 4269 O 417.678 -1.78175 -0.77999 0
M  V30 4270 C 417.961 -2.41593 2.67029 0
M  V30 4271 C 417.814 -1.84408 4.10261 0
M  V30 4272 C 419.133 -3.43488 2.75143 0
M  V30 4273 H 416.252 -0.475031 0.563485 0
M  V30 4274 H 418.894 -0.616454 1.79722 0
M  V30 4275 H 417.044 -3.00772 2.45904 0
M  V30 4276 H 418.716 -1.29445 4.42766 0
M  V30 4277 H 416.959 -1.15051 4.18265 0
M  V30 4278 H 417.63 -2.64367 4.84576 0
M  V30 4279 H 420.106 -2.94236 2.94218 0
M  V30 4280 H 418.982 -4.18274 3.55441 0
M  V30 4281 H 419.243 -4.02703 1.82435 0
M  V30 4282 N 418.302 -1.35869 -0.798587 0
M  V30 4283 C 419.252 -1.25982 -1.90033 0
M  V30 4284 C 420.236 -0.153303 -1.60168 0
M  V30 4285 O 421.428 -0.38527 -1.72756 0
M  V30 4286 C 418.557 -1.04211 -3.27101 0
M  V30 4287 C 417.643 -2.19289 -3.63006 0
M  V30 4288 N 418.034 -3.44559 -3.70287 0
M  V30 4289 C 416.332 -2.10852 -3.93011 0
M  V30 4290 C 417.033 -4.20283 -4.02166 0
M  V30 4291 N 416.009 -3.49124 -4.16669 0
M  V30 4292 H 419.811 -2.20883 -1.93876 0
M  V30 4293 H 417.325 -1.28457 -0.993614 0
M  V30 4294 H 419.322 -0.952155 -4.05881 0
M  V30 4295 H 417.982 -0.102013 -3.2454 0
M  V30 4296 H 418.993 -3.7881 -3.53162 0
M  V30 4297 H 415.67 -1.24744 -3.98428 0
M  V30 4298 H 417.06 -5.28575 -4.14799 0
M  V30 4299 N 419.78 1.02168 -1.19998 0
M  V30 4300 C 421.008 1.79296 -1.03249 0
M  V30 4301 C 421.423 1.84103 0.418502 0
M  V30 4302 O 420.78 1.29031 1.29063 0
M  V30 4303 C 420.831 3.24007 -1.60319 0
M  V30 4304 O 420.552 3.19512 -2.99739 0
M  V30 4305 C 422.053 4.17704 -1.48453 0
M  V30 4306 H 419.273 0.564016 -0.363493 0
M  V30 4307 H 421.817 1.28639 -1.58973 0
M  V30 4308 H 419.972 3.7183 -1.08727 0
M  V30 4309 H 420.386 4.10306 -3.26725 0
M  V30 4310 H 421.86 5.17104 -1.93153 0
M  V30 4311 H 422.337 4.37029 -0.436193 0
M  V30 4312 H 422.943 3.7576 -1.99211 0
M  V30 4313 N 421.258 1.00505 1.21394 0
M  V30 4314 C 422.221 0.570459 2.21987 0
M  V30 4315 C 423.221 -0.353211 1.56873 0
M  V30 4316 O 424.411 -0.14349 1.73608 0
M  V30 4317 C 421.543 -0.168555 3.40483 0
M  V30 4318 H 422.736 1.46021 2.6195 0
M  V30 4319 H 420.289 0.793565 1.34656 0
M  V30 4320 H 421.024 -1.07374 3.06009 0
M  V30 4321 H 420.809 0.494823 3.88965 0
M  V30 4322 H 422.299 -0.460362 4.15055 0
M  V30 4323 N 422.737 -1.36956 0.779787 0
M  V30 4324 C 423.669 -2.28833 0.129639 0
M  V30 4325 C 424.682 -1.4902 -0.655511 0
M  V30 4326 O 425.871 -1.71578 -0.492279 0
M  V30 4327 C 422.971 -3.2833 -0.839792 0
M  V30 4328 C 422.144 -4.3727 -0.10675 0
M  V30 4329 C 421.203 -5.16789 -0.990717 0
M  V30 4330 O 420.229 -5.67406 -0.451516 0
M  V30 4331 N 421.431 -5.32294 -2.3161 0
M  V30 4332 H 424.196 -2.85268 0.918803 0
M  V30 4333 H 421.757 -1.49019 0.632841 0
M  V30 4334 H 423.749 -3.78413 -1.43477 0
M  V30 4335 H 422.319 -2.72605 -1.52988 0
M  V30 4336 H 421.539 -3.88478 0.669216 0
M  V30 4337 H 422.827 -5.07229 0.399464 0
M  V30 4338 H 422.225 -4.92768 -2.77843 0
M  V30 4339 H 420.782 -5.85656 -2.86095 0
M  V30 4340 N 424.215 -0.530993 -1.48385 0
M  V30 4341 C 425.443 -0.00134122 -2.069 0
M  V30 4342 C 425.858 1.2805 -1.3874 0
M  V30 4343 O 425.215 1.76204 -0.475244 0
M  V30 4344 C 425.266 0.225256 -3.60798 0
M  V30 4345 O 424.987 -1.0058 -4.26398 0
M  V30 4346 C 426.488 0.795172 -4.3611 0
M  V30 4347 H 423.708 -0.0339704 -0.67014 0
M  V30 4348 H 426.252 -0.736926 -1.90761 0
M  V30 4349 H 424.407 0.910891 -3.76539 0
M  V30 4350 H 424.821 -0.787165 -5.1856 0
M  V30 4351 H 426.295 0.903143 -5.44562 0
M  V30 4352 H 426.772 1.80031 -4.00606 0
M  V30 4353 H 427.378 0.146069 -4.25049 0
M  V30 4354 N 425.693 1.55336 -0.266172 0
M  V30 4355 C 426.625 2.19544 0.658247 0
M  V30 4356 C 427.638 1.17746 1.12427 0
M  V30 4357 O 428.827 1.44517 1.04772 0
M  V30 4358 C 425.927 2.80032 1.9088 0
M  V30 4359 C 425.1 4.07436 1.59106 0
M  V30 4360 C 424.159 4.52056 2.69317 0
M  V30 4361 O 423.185 5.18023 2.35883 0
M  V30 4362 N 424.387 4.21448 3.99201 0
M  V30 4363 H 427.152 2.99503 0.108754 0
M  V30 4364 H 424.713 1.61667 -0.0869059 0
M  V30 4365 H 426.705 3.06831 2.63888 0
M  V30 4366 H 425.275 2.04119 2.36758 0
M  V30 4367 H 424.495 3.88021 0.695243 0
M  V30 4368 H 425.783 4.90462 1.35367 0
M  V30 4369 H 425.181 3.68528 4.29189 0
M  V30 4370 H 423.738 4.53039 4.68614 0
M  V30 4371 N 427.171 -0.0066808 1.57599 0
M  V30 4372 C 428.399 -0.704087 1.94551 0
M  V30 4373 C 428.814 -1.67677 0.867746 0
M  V30 4374 O 428.171 -1.8185 -0.153925 0
M  V30 4375 C 428.222 -1.44177 3.31505 0
M  V30 4376 O 427.943 -0.508097 4.35144 0
M  V30 4377 C 429.444 -2.23429 3.82876 0
M  V30 4378 H 426.664 -0.196523 0.641576 0
M  V30 4379 H 429.208 0.042453 2.04456 0
M  V30 4380 H 427.363 -2.13999 3.22929 0
M  V30 4381 H 427.777 -1.02782 5.14331 0
M  V30 4382 H 429.251 -2.70552 4.8115 0
M  V30 4383 H 429.728 -3.05818 3.15233 0
M  V30 4384 H 430.334 -1.58636 3.94607 0
M  V30 4385 N 428.649 -1.55105 -0.279332 0
M  V30 4386 C 429.599 -1.83937 -1.34727 0
M  V30 4387 C 430.583 -0.69785 -1.44979 0
M  V30 4388 O 431.775 -0.95904 -1.48766 0
M  V30 4389 C 428.904 -2.1092 -2.70864 0
M  V30 4390 C 427.99 -3.31314 -2.64748 0
M  V30 4391 N 428.381 -4.51371 -2.2825 0
M  V30 4392 C 426.679 -3.33777 -2.95819 0
M  V30 4393 C 427.38 -5.33447 -2.31969 0
M  V30 4394 N 426.356 -4.71697 -2.7019 0
M  V30 4395 H 430.158 -2.74309 -1.05506 0
M  V30 4396 H 427.672 -1.54896 -0.487959 0
M  V30 4397 H 429.669 -2.2973 -3.47893 0
M  V30 4398 H 428.329 -1.21828 -3.00979 0
M  V30 4399 H 429.34 -4.77584 -2.00335 0
M  V30 4400 H 426.017 -2.54858 -3.30687 0
M  V30 4401 H 427.407 -6.39424 -2.06365 0
M  V30 4402 N 430.127 0.543554 -1.4793 0
M  V30 4403 C 431.543 0.870806 -1.3375 0
M  V30 4404 C 431.743 1.9864 -0.338261 0
M  V30 4405 O 430.799 2.51305 0.245371 0
M  V30 4406 C 432.112 1.25114 -2.73435 0
M  V30 4407 C 433.66 1.3618 -2.81823 0
M  V30 4408 C 434.135 1.77563 -4.22179 0
M  V30 4409 N 435.626 1.8469 -4.24787 0
M  V30 4410 C 436.361 2.18067 -5.30315 0
M  V30 4411 N 435.857 2.49963 -6.46135 0
M  V30 4412 N 437.65 2.18958 -5.17701 0
M  V30 4413 H 429.801 -0.19275 -2.11524 0
M  V30 4414 H 432.064 -0.0235777 -0.947707 0
M  V30 4415 H 431.77 0.50514 -3.48053 0
M  V30 4416 H 431.644 2.20431 -3.06088 0
M  V30 4417 H 434.031 2.09859 -2.07468 0
M  V30 4418 H 434.112 0.390169 -2.52807 0
M  V30 4419 H 433.756 1.04449 -4.97044 0
M  V30 4420 H 433.686 2.75753 -4.48629 0
M  V30 4421 H 436.177 1.62372 -3.41239 0
M  V30 4422 H 436.49 2.74497 -7.22406 0
M  V30 4423 H 434.835 2.47513 -6.49432 0
M  V30 4424 H 438.026 1.93488 -4.2624 0
M  V30 4425 H 438.199 2.44639 -6.00047 0
M  V30 4426 N 431.605 1.3629 0.791371 0
M  V30 4427 C 432.515 1.32606 1.93527 0
M  V30 4428 C 433.531 0.228541 1.72493 0
M  V30 4429 O 434.707 0.460571 1.96063 0
M  V30 4430 C 431.772 1.11271 3.28359 0
M  V30 4431 C 430.833 2.3048 3.62185 0
M  V30 4432 C 430.066 2.10154 4.90583 0
M  V30 4433 O 430.289 1.07572 5.60165 0
M  V30 4434 O 429.223 2.97884 5.23019 0
M  V30 4435 H 433.049 2.28909 1.99585 0
M  V30 4436 H 430.634 1.16818 0.931344 0
M  V30 4437 H 432.516 1.01283 4.09047 0
M  V30 4438 H 431.191 0.180292 3.23198 0
M  V30 4439 H 430.098 2.46036 2.81811 0
M  V30 4440 H 431.431 3.22221 3.72068 0
M  V30 4441 N 433.083 -1.0153 1.20538 0
M  V30 4442 C 434.36 -1.72327 0.925343 0
M  V30 4443 C 434.74 -2.03383 -0.565547 0
M  V30 4444 O 434.088 -1.69934 -1.52757 0
M  V30 4445 C 434.298 -2.9902 1.79967 0
M  V30 4446 C 435.646 -3.72258 2.04228 0
M  V30 4447 O 436.67 -3.08979 1.77231 0
M  V30 4448 O 435.529 -4.86053 2.4983 0
M  V30 4449 H 432.623 -0.751099 0.346092 0
M  V30 4450 H 435.169 -1.07366 1.31417 0
M  V30 4451 H 433.941 -2.72402 2.80915 0
M  V30 4452 H 433.564 -3.71721 1.41099 0
M  V30 4453 N 434.561 -1.01147 -1.20859 0
M  V30 4454 C 435.791 -0.715872 -1.93801 0
M  V30 4455 C 436.199 0.726592 -1.74692 0
M  V30 4456 O 435.542 1.50397 -1.05482 0
M  V30 4457 C 435.604 -0.965269 -3.46299 0
M  V30 4458 C 435.268 -2.39584 -3.89164 0
M  V30 4459 C 436.265 -3.3764 -3.95342 0
M  V30 4460 C 433.95 -2.73522 -4.21297 0
M  V30 4461 C 435.944 -4.67698 -4.33056 0
M  V30 4462 C 433.631 -4.03794 -4.58687 0
M  V30 4463 C 434.629 -5.00693 -4.64538 0
M  V30 4464 O 434.317 -6.28635 -5.01072 0
M  V30 4465 H 434.049 -0.262524 -0.622942 0
M  V30 4466 H 436.603 -1.35413 -1.54443 0
M  V30 4467 H 434.833 -0.269847 -3.85757 0
M  V30 4468 H 436.522 -0.662051 -4.00464 0
M  V30 4469 H 437.288 -3.12757 -3.70686 0
M  V30 4470 H 433.167 -1.9879 -4.15937 0
M  V30 4471 H 436.711 -5.4333 -4.37537 0
M  V30 4472 H 432.608 -4.28459 -4.82797 0
M  V30 4473 H 433.376 -6.32847 -5.19083 0
M  V30 4474 N 436.039 1.36541 -0.78704 0
M  V30 4475 C 436.987 2.31965 -0.171724 0
M  V30 4476 C 437.981 1.55689 0.667631 0
M  V30 4477 O 439.187 1.70969 0.562981 0
M  V30 4478 H 435.562 0.751101 -0.0367545 0
M  V30 4479 H 437.533 2.81428 -0.992017 0
M  V30 4480 C 436.282 3.40968 0.680904 0
M  V30 4481 H 435.605 3.99775 0.0443961 0
M  V30 4482 H 437.045 4.10063 1.07815 0
M  V30 4483 C 435.504 2.82338 1.83813 0
M  V30 4484 O 436.034 2.74311 2.93456 0
M  V30 4485 N 434.24 2.39661 1.6435 0
M  V30 4486 H 433.787 2.46389 0.751668 0
M  V30 4487 H 433.745 2.00779 2.4194 0
M  V30 4488 N 437.518 0.538854 1.48102 0
M  V30 4489 C 438.743 0.0102694 2.07397 0
M  V30 4490 C 439.168 -1.26562 1.39153 0
M  V30 4491 O 438.526 -1.75357 0.460387 0
M  V30 4492 C 438.574 -0.187602 3.60112 0
M  V30 4493 O 437.678 -1.25432 3.92862 0
M  V30 4494 H 437.019 0.0430975 0.6626 0
M  V30 4495 H 439.549 0.749301 1.90385 0
M  V30 4496 H 439.559 -0.407517 4.0596 0
M  V30 4497 H 438.234 0.744386 4.09184 0
M  V30 4498 H 436.811 -1.01636 3.58782 0
M  V30 4499 N 438.996 -1.55193 0.274407 0
M  V30 4500 C 440.224 -2.03987 -0.345943 0
M  V30 4501 C 440.639 -1.15279 -1.4952 0
M  V30 4502 O 439.996 -0.172759 -1.8168 0
M  V30 4503 C 440.047 -3.51898 -0.827631 0
M  V30 4504 O 439.768 -4.37231 0.275855 0
M  V30 4505 C 441.269 -4.16577 -1.51587 0
M  V30 4506 H 438.489 -0.666335 -0.0789892 0
M  V30 4507 H 441.033 -2.00423 0.406294 0
M  V30 4508 H 439.188 -3.55909 -1.52996 0
M  V30 4509 H 439.602 -5.24415 -0.0943638 0
M  V30 4510 H 441.076 -5.21678 -1.80433 0
M  V30 4511 H 441.553 -3.64707 -2.44716 0
M  V30 4512 H 442.159 -4.16568 -0.857409 0
M  V30 4513 N 440.474 -0.00167713 -1.576 0
M  V30 4514 C 441.404 0.988091 -2.11563 0
M  V30 4515 C 442.385 1.35736 -1.02517 0
M  V30 4516 O 443.57 1.44082 -1.30208 0
M  V30 4517 C 440.7 2.27941 -2.62031 0
M  V30 4518 C 439.654 2.0517 -3.75619 0
M  V30 4519 C 438.98 3.4033 -4.12407 0
M  V30 4520 C 440.28 1.41294 -5.02825 0
M  V30 4521 H 441.974 0.538771 -2.94513 0
M  V30 4522 H 439.52 0.257712 -1.41675 0
M  V30 4523 H 441.473 2.97539 -2.9841 0
M  V30 4524 H 440.197 2.74989 -1.76205 0
M  V30 4525 H 438.856 1.37998 -3.39635 0
M  V30 4526 H 438.504 3.85085 -3.23603 0
M  V30 4527 H 438.204 3.25909 -4.88935 0
M  V30 4528 H 439.728 4.1124 -4.51347 0
M  V30 4529 H 441.142 2.00851 -5.36965 0
M  V30 4530 H 439.539 1.37356 -5.84169 0
M  V30 4531 H 440.609 0.382362 -4.8339 0
M  V30 4532 N 441.952 1.55251 0.271103 0
M  V30 4533 C 443.368 1.47133 0.618393 0
M  V30 4534 C 443.568 0.686994 1.89427 0
M  V30 4535 O 442.624 0.206609 2.51653 0
M  V30 4536 C 443.937 2.91361 0.743593 0
M  V30 4537 C 445.485 3.01587 0.837522 0
M  V30 4538 C 445.96 4.47073 0.994483 0
M  V30 4539 N 447.451 4.50909 1.05996 0
M  V30 4540 C 448.186 5.60698 1.20024 0
M  V30 4541 N 447.682 6.80348 1.30759 0
M  V30 4542 N 449.475 5.48444 1.23149 0
M  V30 4543 H 441.626 2.04698 -0.566784 0
M  V30 4544 H 443.889 0.928319 -0.192165 0
M  V30 4545 H 443.595 3.51483 -0.123493 0
M  V30 4546 H 443.469 3.40484 1.62328 0
M  V30 4547 H 445.856 2.4156 1.69507 0
M  V30 4548 H 445.937 2.55713 -0.0668086 0
M  V30 4549 H 445.581 5.07703 0.141582 0
M  V30 4550 H 445.511 4.90605 1.91349 0
M  V30 4551 H 448.002 3.6472 0.989316 0
M  V30 4552 H 448.315 7.59772 1.41303 0
M  V30 4553 H 446.66 6.83156 1.27761 0
M  V30 4554 H 449.851 4.53907 1.14394 0
M  V30 4555 H 450.024 6.34049 1.33738 0
M  V30 4556 N 443.43 -0.535701 1.48216 0
M  V30 4557 C 444.676 -1.29375 1.56173 0
M  V30 4558 C 445.009 -1.92804 0.232429 0
M  V30 4559 O 444.284 -1.78992 -0.761048 0
M  V30 4560 C 444.567 -2.38747 2.69577 0
M  V30 4561 C 444.42 -1.80046 4.12193 0
M  V30 4562 C 445.739 -3.40551 2.78771 0
M  V30 4563 H 442.858 -0.469027 0.568491 0
M  V30 4564 H 445.5 -0.597358 1.80365 0
M  V30 4565 H 443.65 -2.98147 2.4908 0
M  V30 4566 H 445.322 -1.24742 4.44114 0
M  V30 4567 H 443.565 -1.10609 4.19462 0
M  V30 4568 H 444.236 -2.59212 4.87353 0
M  V30 4569 H 446.712 -2.91099 2.97322 0
M  V30 4570 H 445.588 -4.1448 3.59857 0
M  V30 4571 H 445.849 -4.00746 1.86696 0
M  V30 4572 N 444.908 -1.36708 -0.784132 0
M  V30 4573 C 446.154 -1.31426 -1.54451 0
M  V30 4574 C 446.487 0.10476 -1.93917 0
M  V30 4575 O 445.762 1.05934 -1.6312 0
M  V30 4576 C 446.045 -2.24189 -2.818 0
M  V30 4577 C 445.898 -3.74813 -2.48667 0
M  V30 4578 C 447.217 -2.15626 -3.83658 0
M  V30 4579 H 444.336 -0.478739 -0.560337 0
M  V30 4580 H 446.978 -1.67305 -0.900498 0
M  V30 4581 H 445.128 -1.93722 -3.36755 0
M  V30 4582 H 446.8 -4.15823 -1.99722 0
M  V30 4583 H 445.043 -3.93989 -1.81535 0
M  V30 4584 H 445.714 -4.35138 -3.39646 0
M  V30 4585 H 448.19 -2.42456 -3.38163 0
M  V30 4586 H 447.066 -2.82694 -4.70506 0
M  V30 4587 H 447.327 -1.14522 -4.27009 0
M  V30 4588 N 446.386 1.0089 -1.21074 0
M  V30 4589 C 447.611 1.78727 -1.05221 0
M  V30 4590 C 448.036 1.83932 0.393795 0
M  V30 4591 O 447.394 1.28004 1.28393 0
M  V30 4592 C 447.442 3.20665 -1.64944 0
M  V30 4593 O 446.546 4.02632 -0.892273 0
M  V30 4594 H 445.887 0.550973 -0.370574 0
M  V30 4595 H 448.417 1.26847 -1.60534 0
M  V30 4596 H 448.427 3.71352 -1.69002 0
M  V30 4597 H 447.102 3.16191 -2.70177 0
M  V30 4598 H 445.679 3.61207 -0.926492 0
M  V30 4599 N 447.864 1.01787 1.20321 0
M  V30 4600 C 448.827 0.593972 2.2137 0
M  V30 4601 C 449.827 -0.336553 1.57239 0
M  V30 4602 O 451.017 -0.125069 1.7375 0
M  V30 4603 C 448.149 -0.132433 3.40643 0
M  V30 4604 H 449.342 1.48791 2.60387 0
M  V30 4605 H 446.895 0.807803 1.33807 0
M  V30 4606 H 447.63 -1.04123 3.0713 0
M  V30 4607 H 447.415 0.53605 3.88418 0
M  V30 4608 H 448.905 -0.416314 4.1552 0
M  V30 4609 N 449.342 -1.36122 0.79427 0
M  V30 4610 C 450.272 -2.32551 0.210328 0
M  V30 4611 C 451.253 -1.56884 -0.657386 0
M  V30 4612 O 452.438 -1.85014 -0.590207 0
M  V30 4613 C 449.568 -3.41128 -0.651819 0
M  V30 4614 C 448.522 -4.27842 0.116395 0
M  V30 4615 C 447.848 -5.2763 -0.86666 0
M  V30 4616 C 449.148 -5.05647 1.30837 0
M  V30 4617 H 450.842 -2.81636 1.01594 0
M  V30 4618 H 448.388 -1.35407 0.489981 0
M  V30 4619 H 450.341 -4.07581 -1.07031 0
M  V30 4620 H 449.065 -2.90622 -1.49019 0
M  V30 4621 H 447.724 -3.62952 0.515915 0
M  V30 4622 H 447.372 -4.73395 -1.70019 0
M  V30 4623 H 447.072 -5.86514 -0.35705 0
M  V30 4624 H 448.596 -5.96955 -1.28361 0
M  V30 4625 H 450.01 -5.65113 0.965393 0
M  V30 4626 H 448.407 -5.73967 1.75161 0
M  V30 4627 H 449.477 -4.37006 2.10128 0
M  V30 4628 N 450.82 -0.546701 -1.47814 0
M  V30 4629 C 452.231 -0.110564 -1.86372 0
M  V30 4630 C 452.582 1.31678 -1.45449 0
M  V30 4631 O 451.707 1.98889 -0.852758 0
M  V30 4632 C 452.302 -0.193873 -3.38245 0
M  V30 4633 C 450.861 0.187164 -3.75934 0
M  V30 4634 C 450.008 -0.546166 -2.71868 0
M  V30 4635 H 452.959 -0.757022 -1.39481 0
M  V30 4636 H 452.98 0.590218 -3.75895 0
M  V30 4637 H 452.492 -1.23282 -3.67999 0
M  V30 4638 H 450.593 1.22762 -3.51796 0
M  V30 4639 H 450.706 -0.164083 -4.78819 0
M  V30 4640 H 449.07 0.00953904 -2.54698 0
M  V30 4641 H 449.853 -1.58606 -3.04465 0
M  V30 4642 N 452.299 1.55045 -0.282633 0
M  V30 4643 C 453.548 1.98938 0.332667 0
M  V30 4644 C 453.861 1.17455 1.56409 0
M  V30 4645 O 455.067 1.51527 2.25282 0
M  V30 4646 C 453.523 3.54105 0.643226 0
M  V30 4647 C 453.131 4.44374 -0.568814 0
M  V30 4648 C 454.875 4.06569 1.22074 0
M  V30 4649 C 452.782 5.90943 -0.232426 0
M  V30 4650 H 451.712 0.743043 0.128075 0
M  V30 4651 H 454.363 1.79341 -0.388464 0
M  V30 4652 H 452.745 3.69532 1.42346 0
M  V30 4653 H 453.919 4.40718 -1.34551 0
M  V30 4654 H 452.234 4.02585 -1.06369 0
M  V30 4655 H 454.831 5.13626 1.48635 0
M  V30 4656 H 455.174 3.56057 2.15707 0
M  V30 4657 H 455.707 3.94612 0.502621 0
M  V30 4658 H 452.446 6.45567 -1.13683 0
M  V30 4659 H 451.966 5.9765 0.507357 0
M  V30 4660 H 453.645 6.4677 0.172657 0
M  V30 4661 N 453.777 0.010035 1.57597 0
M  V30 4662 C 454.709 -1.00649 2.05918 0
M  V30 4663 C 455.722 -1.30077 0.978964 0
M  V30 4664 O 456.911 -1.26878 1.25556 0
M  V30 4665 C 454.011 -2.33876 2.45265 0
M  V30 4666 C 453.184 -2.23242 3.7614 0
M  V30 4667 C 452.243 -3.39242 4.02245 0
M  V30 4668 O 451.269 -3.1698 4.72771 0
M  V30 4669 N 452.471 -4.6242 3.50924 0
M  V30 4670 H 455.236 -0.594333 2.93748 0
M  V30 4671 H 452.797 -0.17714 1.60928 0
M  V30 4672 H 454.789 -3.1027 2.59836 0
M  V30 4673 H 453.359 -2.66799 1.62902 0
M  V30 4674 H 452.579 -1.31696 3.71551 0
M  V30 4675 H 453.867 -2.13321 4.61922 0
M  V30 4676 H 453.265 -4.83404 2.93832 0
M  V30 4677 H 451.822 -5.36046 3.70807 0
M  V30 4678 N 455.255 -1.55392 -0.262866 0
M  V30 4679 C 456.205 -1.85355 -1.32768 0
M  V30 4680 C 457.189 -0.713188 -1.44231 0
M  V30 4681 O 458.381 -0.974765 -1.47741 0
M  V30 4682 C 455.51 -2.13781 -2.68612 0
M  V30 4683 C 454.596 -3.34104 -2.61219 0
M  V30 4684 N 454.987 -4.53766 -2.2345 0
M  V30 4685 C 453.285 -3.36895 -2.92263 0
M  V30 4686 C 453.986 -5.35877 -2.26298 0
M  V30 4687 N 452.962 -4.74536 -2.65172 0
M  V30 4688 H 456.764 -2.75413 -1.02591 0
M  V30 4689 H 454.278 -1.55405 -0.471503 0
M  V30 4690 H 456.275 -2.33407 -3.45437 0
M  V30 4691 H 454.935 -1.25013 -2.99669 0
M  V30 4692 H 455.946 -4.79682 -1.95258 0
M  V30 4693 H 452.623 -2.58351 -3.27965 0
M  V30 4694 H 454.013 -6.41577 -1.99572 0
M  V30 4695 N 456.733 0.527833 -1.48498 0
M  V30 4696 C 457.665 1.6482 -1.5927 0
M  V30 4697 C 458.678 1.55659 -0.476869 0
M  V30 4698 O 459.867 1.62081 -0.747806 0
M  V30 4699 C 456.967 3.0348 -1.50842 0
M  V30 4700 C 456.14 3.381 -2.77502 0
M  V30 4701 C 455.199 4.5605 -2.62497 0
M  V30 4702 O 454.225 4.59165 -3.36387 0
M  V30 4703 N 455.427 5.54353 -1.72257 0
M  V30 4704 H 458.192 1.56015 -2.55889 0
M  V30 4705 H 455.753 0.715152 -1.45249 0
M  V30 4706 H 457.745 3.80264 -1.38496 0
M  V30 4707 H 456.315 3.06352 -0.621887 0
M  V30 4708 H 455.535 2.50473 -3.04396 0
M  V30 4709 H 456.823 3.58017 -3.61527 0
M  V30 4710 H 456.221 5.54617 -1.11431 0
M  V30 4711 H 454.778 6.30347 -1.65849 0
M  V30 4712 N 458.211 1.37122 0.776871 0
M  V30 4713 C 459.488 1.22586 1.52421 0
M  V30 4714 C 459.868 -0.182726 2.10308 0
M  V30 4715 O 459.216 -1.18979 1.9508 0
M  V30 4716 C 459.426 2.31782 2.60918 0
M  V30 4717 C 460.774 2.69071 3.2846 0
M  V30 4718 O 461.798 2.3092 2.71209 0
M  V30 4719 O 460.657 3.3478 4.31954 0
M  V30 4720 H 457.751 0.478045 0.674835 0
M  V30 4721 H 460.297 1.48888 0.814275 0
M  V30 4722 H 459.069 3.26131 2.16227 0
M  V30 4723 H 458.692 2.06916 3.39517 0
M  V30 4724 N 459.689 -1.00246 1.21608 0
M  V30 4725 C 460.935 -1.74417 1.04643 0
M  V30 4726 C 461.29 -1.87862 -0.415387 0
M  V30 4727 O 460.583 -1.40373 -1.30407 0
M  V30 4728 C 460.777 -3.15448 1.68009 0
M  V30 4729 C 460.606 -3.15755 3.20201 0
M  V30 4730 C 459.376 -3.2219 3.89258 0
M  V30 4731 C 461.574 -3.00668 4.17257 0
M  V30 4732 N 459.556 -3.1215 5.28617 0
M  V30 4733 C 460.927 -2.98553 5.43384 0
M  V30 4734 C 462.982 -2.84989 4.08272 0
M  V30 4735 C 461.685 -2.82364 6.61561 0
M  V30 4736 C 463.711 -2.70158 5.26088 0
M  V30 4737 C 463.073 -2.68721 6.51128 0
M  V30 4738 H 459.172 -0.648317 0.437274 0
M  V30 4739 H 461.756 -1.19129 1.54001 0
M  V30 4740 H 459.927 -3.69001 1.21215 0
M  V30 4741 H 461.659 -3.78128 1.44226 0
M  V30 4742 H 458.414 -3.29488 3.40198 0
M  V30 4743 H 458.838 -3.10465 6.01615 0
M  V30 4744 H 463.48 -2.84904 3.12393 0
M  V30 4745 H 461.198 -2.81196 7.57598 0
M  V30 4746 H 464.784 -2.59022 5.20959 0
M  V30 4747 H 463.664 -2.57382 7.40759 0
M  V30 4748 N 461.167 -1.02423 -1.1978 0
M  V30 4749 C 462.1 -0.545641 -2.21581 0
M  V30 4750 C 463.078 0.411024 -1.57319 0
M  V30 4751 O 464.262 0.329223 -1.85603 0
M  V30 4752 C 461.389 0.204973 -3.38079 0
M  V30 4753 C 460.435 -0.70241 -4.20676 0
M  V30 4754 S 461.268 -2.17595 -4.89298 0
M  V30 4755 C 462.424 -1.43572 -6.09211 0
M  V30 4756 H 462.657 -1.4082 -2.61834 0
M  V30 4757 H 460.19 -0.833771 -1.29952 0
M  V30 4758 H 462.148 0.631924 -4.05607 0
M  V30 4759 H 460.809 1.0432 -2.9627 0
M  V30 4760 H 460.002 -0.123193 -5.03849 0
M  V30 4761 H 459.604 -1.06747 -3.58442 0
M  V30 4762 H 461.896 -0.719806 -6.73665 0
M  V30 4763 H 462.839 -2.24388 -6.71607 0
M  V30 4764 H 463.247 -0.935252 -5.56699 0
M  V30 4765 N 462.645 1.35699 -0.801477 0
M  V30 4766 C 463.87 2.03687 -0.390678 0
M  V30 4767 C 464.295 1.60015 0.988778 0
M  V30 4768 O 463.653 0.774357 1.63931 0
M  V30 4769 C 463.701 3.57439 -0.476404 0
M  V30 4770 O 462.805 4.09208 0.512106 0
M  V30 4771 H 462.146 0.64344 -0.163956 0
M  V30 4772 H 464.676 1.73403 -1.08594 0
M  V30 4773 H 464.686 4.06544 -0.344357 0
M  V30 4774 H 463.361 3.88576 -1.48262 0
M  V30 4775 H 461.938 3.7134 0.340721 0
M  V30 4776 N 464.123 0.554532 1.47522 0
M  V30 4777 C 465.371 0.0294208 2.02079 0
M  V30 4778 C 465.692 -1.32411 1.43151 0
M  V30 4779 O 464.962 -1.863 0.605728 0
M  V30 4780 H 463.542 0.00788672 0.746958 0
M  V30 4781 H 466.204 0.723934 1.80956 0
M  V30 4782 H 465.3 -0.0606745 3.12041 0
M  V30 4783 N 465.601 -1.54893 0.290851 0
M  V30 4784 C 466.548 -2.23138 -0.58974 0
M  V30 4785 C 467.518 -1.21036 -1.13752 0
M  V30 4786 O 468.703 -1.49626 -1.18392 0
M  V30 4787 C 465.843 -2.96811 -1.76061 0
M  V30 4788 C 464.956 -4.13665 -1.24519 0
M  V30 4789 C 464.091 -4.74944 -2.3791 0
M  V30 4790 C 463.13 -5.83963 -1.83451 0
M  V30 4791 N 462.267 -6.39239 -2.90376 0
M  V30 4792 H 467.107 -2.98 -0.00114915 0
M  V30 4793 H 464.644 -1.47096 0.0112006 0
M  V30 4794 H 466.602 -3.37751 -2.44909 0
M  V30 4795 H 465.232 -2.24344 -2.32098 0
M  V30 4796 H 464.284 -3.77737 -0.449288 0
M  V30 4797 H 465.596 -4.92238 -0.806424 0
M  V30 4798 H 464.75 -5.18684 -3.14724 0
M  V30 4799 H 463.489 -3.95682 -2.85109 0
M  V30 4800 H 462.494 -5.39657 -1.05122 0
M  V30 4801 H 463.719 -6.65103 -1.37169 0
M  V30 4802 H 461.665 -5.62864 -3.36927 0
M  V30 4803 H 461.582 -7.13129 -2.50965 0
M  V30 4804 H 462.85 -6.87637 -3.67118 0
M  V30 4805 N 467.08 -0.0183926 -1.57589 0
M  V30 4806 C 467.99 0.982943 -2.13015 0
M  V30 4807 C 469.006 1.36443 -1.07979 0
M  V30 4808 O 470.182 1.44802 -1.3998 0
M  V30 4809 C 467.247 2.25024 -2.63752 0
M  V30 4810 C 466.308 1.93018 -3.83461 0
M  V30 4811 C 465.541 3.13706 -4.31769 0
M  V30 4812 O 465.764 4.2601 -3.79305 0
M  V30 4813 O 464.698 2.96629 -5.23732 0
M  V30 4814 H 468.524 0.541709 -2.9883 0
M  V30 4815 H 466.109 0.201565 -1.48034 0
M  V30 4816 H 467.991 2.99441 -2.96502 0
M  V30 4817 H 466.666 2.68349 -1.81026 0
M  V30 4818 H 465.573 1.16019 -3.55655 0
M  V30 4819 H 466.906 1.54516 -4.67317 0
M  V30 4820 N 468.558 1.5553 0.254621 0
M  V30 4821 C 469.805 1.77 0.983736 0
M  V30 4822 C 470.133 0.58133 1.85609 0
M  V30 4823 O 469.388 -0.435621 1.9079 0
M  V30 4824 C 469.687 3.03891 1.88109 0
M  V30 4825 C 469.353 4.35597 1.16472 0
M  V30 4826 C 468.015 4.7139 0.966714 0
M  V30 4827 C 470.367 5.1705 0.656387 0
M  V30 4828 C 467.695 5.86176 0.247942 0
M  V30 4829 C 470.047 6.32581 -0.0488807 0
M  V30 4830 C 468.711 6.67 -0.258438 0
M  V30 4831 H 467.981 0.647688 0.359974 0
M  V30 4832 H 470.628 1.89802 0.254463 0
M  V30 4833 H 468.933 2.86068 2.67717 0
M  V30 4834 H 470.63 3.17701 2.44677 0
M  V30 4835 H 467.22 4.07475 1.32899 0
M  V30 4836 H 471.404 4.8986 0.796933 0
M  V30 4837 H 466.66 6.11354 0.075035 0
M  V30 4838 H 470.834 6.94942 -0.450444 0
M  V30 4839 H 468.461 7.55793 -0.817358 0
M  V30 4840 N 470.036 -0.519951 1.48776 0
M  V30 4841 C 470.983 -1.62352 1.64044 0
M  V30 4842 C 471.953 -1.58945 0.482251 0
M  V30 4843 O 473.138 -1.77219 0.706971 0
M  V30 4844 C 470.278 -3.00579 1.69547 0
M  V30 4845 C 469.391 -3.14145 2.96541 0
M  V30 4846 C 468.526 -4.42991 2.93142 0
M  V30 4847 C 467.565 -4.50122 4.14797 0
M  V30 4848 N 466.702 -5.7037 4.09418 0
M  V30 4849 H 471.542 -1.48643 2.58281 0
M  V30 4850 H 469.079 -0.723516 1.28077 0
M  V30 4851 H 471.037 -3.80671 1.70719 0
M  V30 4852 H 469.667 -3.13036 0.787918 0
M  V30 4853 H 468.719 -2.27239 3.05068 0
M  V30 4854 H 470.031 -3.15275 3.86527 0
M  V30 4855 H 469.185 -5.31385 2.92772 0
M  V30 4856 H 467.924 -4.44398 2.00902 0
M  V30 4857 H 466.929 -3.60133 4.15433 0
M  V30 4858 H 468.154 -4.50445 5.08208 0
M  V30 4859 H 466.1 -5.72655 3.20004 0
M  V30 4860 H 466.017 -5.73036 4.93119 0
M  V30 4861 H 467.285 -6.61023 4.13121 0
M  V30 4862 N 471.514 -1.37532 -0.769588 0
M  V30 4863 C 472.754 -1.34261 -1.54122 0
M  V30 4864 C 473.118 0.0717222 -1.91866 0
M  V30 4865 O 474.319 0.22918 -2.67821 0
M  V30 4866 C 472.59 -2.2574 -2.77086 0
M  V30 4867 S 474.149 -2.40339 -3.67127 0
M  V30 4868 H 470.967 -0.476595 -0.527615 0
M  V30 4869 H 473.569 -1.73303 -0.90479 0
M  V30 4870 H 472.273 -3.27417 -2.4744 0
M  V30 4871 H 471.804 -1.87789 -3.45686 0
M  V30 4872 H 473.819 -1.61558 -4.69163 0
M  V30 4873 N 472.992 0.995999 -1.22138 0
M  V30 4874 C 473.939 2.08551 -0.988687 0
M  V30 4875 C 474.909 1.65864 0.0885021 0
M  V30 4876 O 476.094 1.90704 -0.0604589 0
M  V30 4877 C 473.234 3.40374 -0.569191 0
M  V30 4878 C 472.347 3.96421 -1.71681 0
M  V30 4879 C 471.482 5.1639 -1.2456 0
M  V30 4880 C 470.521 5.64567 -2.36497 0
M  V30 4881 N 469.658 6.75777 -1.90445 0
M  V30 4882 H 474.498 2.2779 -1.92135 0
M  V30 4883 H 472.035 1.1168 -0.957388 0
M  V30 4884 H 473.993 4.16068 -0.307166 0
M  V30 4885 H 472.623 3.21145 0.326462 0
M  V30 4886 H 471.675 3.17628 -2.09324 0
M  V30 4887 H 472.987 4.2816 -2.55891 0
M  V30 4888 H 472.141 5.99362 -0.940774 0
M  V30 4889 H 470.88 4.86266 -0.373662 0
M  V30 4890 H 469.885 4.80185 -2.67772 0
M  V30 4891 H 471.11 5.96716 -3.24202 0
M  V30 4892 H 469.056 6.47443 -1.05609 0
M  V30 4893 H 468.973 7.06818 -2.68223 0
M  V30 4894 H 470.241 7.62262 -1.63022 0
M  V30 4895 N 474.47 1.03057 1.19235 0
M  V30 4896 C 475.716 0.729098 1.89241 0
M  V30 4897 C 476.049 -0.740573 1.79525 0
M  V30 4898 O 475.324 -1.53946 1.18874 0
M  V30 4899 C 475.607 1.18304 3.40112 0
M  V30 4900 C 475.46 2.71406 3.5869 0
M  V30 4901 C 476.779 0.765161 4.33397 0
M  V30 4902 H 473.898 0.266338 0.687192 0
M  V30 4903 H 476.54 1.28079 1.40341 0
M  V30 4904 H 474.69 0.713672 3.81889 0
M  V30 4905 H 476.362 3.26303 3.26074 0
M  V30 4906 H 474.605 3.11717 3.01687 0
M  V30 4907 H 475.276 2.98225 4.64506 0
M  V30 4908 H 477.752 1.16889 3.99345 0
M  V30 4909 H 476.628 1.11065 5.37546 0
M  V30 4910 H 476.889 -0.332372 4.40849 0
M  V30 4911 N 475.948 -1.35272 0.808662 0
M  V30 4912 C 476.896 -2.31663 0.208606 0
M  V30 4913 C 477.89 -1.56731 -0.642778 0
M  V30 4914 O 479.096 -1.71843 -0.53571 0
M  V30 4915 H 475.471 -0.750421 0.0486993 0
M  V30 4916 H 477.442 -2.79814 1.03666 0
M  V30 4917 C 476.191 -3.42008 -0.626573 0
M  V30 4918 H 475.514 -3.99795 0.0192103 0
M  V30 4919 H 476.954 -4.11727 -1.01278 0
M  V30 4920 C 475.413 -2.85226 -1.79298 0
M  V30 4921 O 475.943 -2.78945 -2.89055 0
M  V30 4922 N 474.149 -2.42245 -1.60516 0
M  V30 4923 H 473.696 -2.47554 -0.712375 0
M  V30 4924 H 473.654 -2.04603 -2.38715 0
M  V30 4925 N 477.426 -0.562348 -1.47226 0
M  V30 4926 C 478.374 0.195476 -2.31777 0
M  V30 4927 C 479.368 0.90433 -1.43242 0
M  V30 4928 O 480.574 0.825031 -1.59979 0
M  V30 4929 H 476.949 0.0819095 -0.747526 0
M  V30 4930 H 478.92 -0.536753 -2.93533 0
M  V30 4931 C 477.669 1.20902 -3.26003 0
M  V30 4932 H 476.992 0.672997 -3.94095 0
M  V30 4933 H 478.432 1.71006 -3.87986 0
M  V30 4934 C 476.891 2.25955 -2.49891 0
M  V30 4935 O 477.421 3.32969 -2.2471 0
M  V30 4936 N 475.627 2.00019 -2.1081 0
M  V30 4937 H 475.174 1.13006 -2.31489 0
M  V30 4938 H 475.132 2.70523 -1.60201 0
M  V30 4939 N 478.904 1.54736 -0.299062 0
M  V30 4940 C 479.851 2.23448 0.577899 0
M  V30 4941 C 480.821 1.21637 1.13109 0
M  V30 4942 O 482.006 1.50252 1.17597 0
M  V30 4943 C 479.146 2.9774 1.74484 0
M  V30 4944 C 478.259 4.1432 1.22323 0
M  V30 4945 C 477.394 4.76199 2.35388 0
M  V30 4946 C 476.433 5.84927 1.80351 0
M  V30 4947 N 475.57 6.4077 2.86982 0
M  V30 4948 H 480.41 2.97996 -0.0146545 0
M  V30 4949 H 477.947 1.47088 -0.0190013 0
M  V30 4950 H 479.905 3.39045 2.43114 0
M  V30 4951 H 478.535 2.25572 2.30905 0
M  V30 4952 H 477.587 3.7797 0.429249 0
M  V30 4953 H 478.899 4.92659 0.780309 0
M  V30 4954 H 478.053 5.20346 3.11969 0
M  V30 4955 H 476.792 3.97188 2.83006 0
M  V30 4956 H 475.797 5.40207 1.02259 0
M  V30 4957 H 477.022 6.65821 1.3364 0
M  V30 4958 H 474.968 5.64643 3.33938 0
M  V30 4959 H 474.885 7.1445 2.4718 0
M  V30 4960 H 476.153 6.89574 3.63466 0
M  V30 4961 N 480.382 0.0267497 1.57577 0
M  V30 4962 C 481.659 -0.690926 1.82991 0
M  V30 4963 C 482.039 -1.90471 0.910164 0
M  V30 4964 O 481.387 -2.28474 -0.0347985 0
M  V30 4965 C 481.597 -1.07139 3.32148 0
M  V30 4966 C 482.945 -1.46402 3.98562 0
M  V30 4967 O 483.969 -1.16443 3.36629 0
M  V30 4968 O 482.828 -2.02214 5.07712 0
M  V30 4969 H 479.922 -0.338747 0.75444 0
M  V30 4970 H 482.468 0.0542506 1.69613 0
M  V30 4971 H 481.24 -0.207394 3.9075 0
M  V30 4972 H 480.863 -1.87481 3.50623 0
M  V30 4973 N 481.861 -1.55662 -0.24637 0
M  V30 4974 C 482.791 -1.93377 -1.30873 0
M  V30 4975 C 483.772 -0.798773 -1.50179 0
M  V30 4976 O 484.957 -1.0591 -1.62778 0
M  V30 4977 C 482.087 -2.22893 -2.66338 0
M  V30 4978 C 481.041 -3.38649 -2.61727 0
M  V30 4979 C 480.367 -3.53708 -4.00992 0
M  V30 4980 C 481.667 -4.74323 -2.18666 0
M  V30 4981 H 483.361 -2.82363 -0.995552 0
M  V30 4982 H 480.907 -1.35854 -0.477464 0
M  V30 4983 H 482.86 -2.47866 -3.40794 0
M  V30 4984 H 481.584 -1.30733 -2.99293 0
M  V30 4985 H 480.243 -3.13685 -1.89729 0
M  V30 4986 H 479.891 -2.58967 -4.31214 0
M  V30 4987 H 479.591 -4.31551 -3.98795 0
M  V30 4988 H 481.115 -3.81003 -4.77147 0
M  V30 4989 H 482.529 -4.98665 -2.82854 0
M  V30 4990 H 480.926 -5.55273 -2.27579 0
M  V30 4991 H 481.996 -4.71349 -1.13834 0
M  V30 4992 N 483.339 0.512053 -1.4905 0
M  V30 4993 C 484.75 1.09376 -1.51307 0
M  V30 4994 C 485.101 1.94 -0.292971 0
M  V30 4995 O 484.226 2.07965 0.598277 0
M  V30 4996 C 484.821 1.99031 -2.74176 0
M  V30 4997 C 483.38 2.52385 -2.79247 0
M  V30 4998 C 482.527 1.29749 -2.45073 0
M  V30 4999 H 485.478 0.296467 -1.55906 0
M  V30 5000 H 485.499 2.83569 -2.53711 0
M  V30 5001 H 485.011 1.37412 -3.62959 0
M  V30 5002 H 483.112 3.17673 -1.94716 0
M  V30 5003 H 483.225 2.90293 -3.81139 0
M  V30 5004 H 481.589 1.61912 -1.96612 0
M  V30 5005 H 482.372 0.698555 -3.36118 0
M  V30 5006 N 484.817 1.37938 0.762283 0
M  V30 5007 C 485.78 1.34279 1.85747 0
M  V30 5008 C 486.78 0.244969 1.58923 0
M  V30 5009 O 487.97 0.501365 1.66829 0
M  V30 5010 C 485.102 1.08833 3.23061 0
M  V30 5011 H 486.295 2.31705 1.90401 0
M  V30 5012 H 483.848 1.23105 0.963057 0
M  V30 5013 H 484.583 0.119767 3.24079 0
M  V30 5014 H 484.368 1.88306 3.43923 0
M  V30 5015 H 485.858 1.08946 4.03138 0
M  V30 5016 N 486.295 -0.989507 1.22664 0
M  V30 5017 C 487.706 -1.54406 1.04955 0
M  V30 5018 C 488.057 -1.92366 -0.385951 0
M  V30 5019 O 487.182 -1.75111 -1.27142 0
M  V30 5020 C 487.777 -2.80578 1.89899 0
M  V30 5021 C 486.336 -3.32464 1.76478 0
M  V30 5022 C 485.483 -2.05524 1.86159 0
M  V30 5023 H 488.434 -0.810211 1.3646 0
M  V30 5024 H 488.455 -3.53075 1.4184 0
M  V30 5025 H 487.967 -2.52918 2.94371 0
M  V30 5026 H 486.068 -3.65024 0.747528 0
M  V30 5027 H 486.181 -4.02838 2.59342 0
M  V30 5028 H 484.545 -2.19241 1.29636 0
M  V30 5029 H 485.328 -1.80258 2.92168 0
M  V30 5030 N 487.773 -1.03688 -1.18687 0
M  V30 5031 C 489.022 -0.733235 -1.879 0
M  V30 5032 C 489.335 0.741745 -1.8099 0
M  V30 5033 O 490.541 1.15875 -2.4553 0
M  V30 5034 C 488.997 -1.26127 -3.37076 0
M  V30 5035 C 488.605 -2.76461 -3.52524 0
M  V30 5036 C 490.349 -1.03398 -4.11715 0
M  V30 5037 C 488.256 -3.22642 -4.95637 0
M  V30 5038 H 487.186 -0.270584 -0.703776 0
M  V30 5039 H 489.837 -1.25222 -1.34133 0
M  V30 5040 H 488.219 -0.670165 -3.90288 0
M  V30 5041 H 489.393 -3.41296 -3.09602 0
M  V30 5042 H 487.708 -2.97559 -2.91286 0
M  V30 5043 H 490.305 -1.3542 -5.17267 0
M  V30 5044 H 490.648 0.0289246 -4.1629 0
M  V30 5045 H 491.181 -1.5895 -3.64664 0
M  V30 5046 H 487.92 -4.28296 -4.96228 0
M  V30 5047 H 487.44 -2.62539 -5.39289 0
M  V30 5048 H 489.119 -3.16444 -5.64333 0
M  V30 5049 N 489.251 1.34841 -0.815825 0
M  V30 5050 C 490.161 2.33425 -0.234462 0
M  V30 5051 C 491.177 1.62295 0.627413 0
M  V30 5052 O 492.353 1.94109 0.536987 0
M  V30 5053 C 489.418 3.41471 0.599849 0
M  V30 5054 C 488.479 4.28362 -0.283596 0
M  V30 5055 C 487.712 5.31248 0.51099 0
M  V30 5056 O 487.935 5.43056 1.7449 0
M  V30 5057 O 486.869 6.01812 -0.10297 0
M  V30 5058 H 490.695 2.84962 -1.05024 0
M  V30 5059 H 488.28 1.37774 -0.577809 0
M  V30 5060 H 490.162 4.07464 1.07475 0
M  V30 5061 H 488.837 2.9219 1.39308 0
M  V30 5062 H 487.744 3.65318 -0.805836 0
M  V30 5063 H 489.077 4.81066 -1.041 0
M  V30 5064 N 490.729 0.570148 1.46925 0
M  V30 5065 C 492.145 0.23087 1.57921 0
M  V30 5066 C 492.345 -1.26676 1.56702 0
M  V30 5067 O 491.401 -2.04774 1.47729 0
M  V30 5068 C 492.714 0.868973 2.8787 0
M  V30 5069 C 494.262 0.841397 3.01479 0
M  V30 5070 C 494.737 1.45881 4.34146 0
M  V30 5071 N 496.228 1.42258 4.40814 0
M  V30 5072 C 496.963 1.8698 5.42057 0
M  V30 5073 N 496.459 2.39618 6.50042 0
M  V30 5074 N 498.252 1.77972 5.33181 0
M  V30 5075 H 490.403 1.54301 1.45962 0
M  V30 5076 H 492.666 0.644224 0.69547 0
M  V30 5077 H 492.372 1.922 2.94537 0
M  V30 5078 H 492.246 0.369682 3.75384 0
M  V30 5079 H 494.633 -0.202973 2.94401 0
M  V30 5080 H 494.714 1.37858 2.15474 0
M  V30 5081 H 494.358 2.50231 4.4198 0
M  V30 5082 H 494.288 0.896958 5.18905 0
M  V30 5083 H 496.779 1.03768 3.63374 0
M  V30 5084 H 497.092 2.71633 7.23488 0
M  V30 5085 H 495.437 2.43636 6.50897 0
M  V30 5086 H 498.628 1.36617 4.4772 0
M  V30 5087 H 498.801 2.13143 6.11943 0
M  V30 5088 N 492.207 -1.54576 0.307264 0
M  V30 5089 C 493.435 -2.04675 -0.302597 0
M  V30 5090 C 493.85 -1.18425 -1.47041 0
M  V30 5091 O 493.207 -0.211257 -1.81273 0
M  V30 5092 C 493.258 -3.53575 -0.752801 0
M  V30 5093 O 492.979 -4.36547 0.368536 0
M  V30 5094 C 494.48 -4.19699 -1.42717 0
M  V30 5095 H 491.7 -0.66786 -0.0648374 0
M  V30 5096 H 494.244 -1.99516 0.448716 0
M  V30 5097 H 492.399 -3.59074 -1.45412 0
M  V30 5098 H 492.813 -5.24497 0.0168937 0
M  V30 5099 H 494.287 -5.25388 -1.69327 0
M  V30 5100 H 494.764 -3.69815 -2.36925 0
M  V30 5101 H 495.37 -4.18293 -0.768856 0
M  V30 5102 N 493.685 -0.035106 -1.57561 0
M  V30 5103 C 494.934 0.641604 -1.91223 0
M  V30 5104 C 495.247 1.72944 -0.913761 0
M  V30 5105 O 496.453 2.46321 -1.14185 0
M  V30 5106 C 494.909 1.19249 -3.3957 0
M  V30 5107 C 494.517 0.137616 -4.47789 0
M  V30 5108 C 496.261 1.84537 -3.82291 0
M  V30 5109 C 494.168 0.700478 -5.87237 0
M  V30 5110 H 493.098 0.243417 -0.713627 0
M  V30 5111 H 495.749 -0.101382 -1.8322 0
M  V30 5112 H 494.131 1.98728 -3.42525 0
M  V30 5113 H 495.305 -0.635153 -4.56402 0
M  V30 5114 H 493.62 -0.416855 -4.14308 0
M  V30 5115 H 496.217 2.27616 -4.83834 0
M  V30 5116 H 496.56 2.69054 -3.17672 0
M  V30 5117 H 497.093 1.11739 -3.81784 0
M  V30 5118 H 493.832 -0.106693 -6.55413 0
M  V30 5119 H 493.352 1.4416 -5.82218 0
M  V30 5120 H 495.031 1.18837 -6.35993 0
M  V30 5121 N 495.163 1.55791 0.238111 0
M  V30 5122 C 496.388 1.8244 0.986432 0
M  V30 5123 C 496.813 0.613314 1.7782 0
M  V30 5124 O 496.171 -0.437767 1.75935 0
M  V30 5125 C 496.219 3.06917 1.893 0
M  V30 5126 O 495.323 2.84449 2.98601 0
M  V30 5127 H 494.664 0.601975 0.280218 0
M  V30 5128 H 497.194 2.02987 0.256437 0
M  V30 5129 H 497.204 3.36583 2.30598 0
M  V30 5130 H 495.879 3.947 1.31091 0
M  V30 5131 H 494.456 2.65972 2.61368 0
M  V30 5132 N 496.642 -0.504142 1.49319 0
M  V30 5133 C 497.589 -1.60603 1.65756 0
M  V30 5134 C 498.559 -1.58425 0.499082 0
M  V30 5135 O 499.744 -1.76459 0.725728 0
M  V30 5136 C 496.884 -2.98764 1.72726 0
M  V30 5137 C 495.997 -3.10982 2.99857 0
M  V30 5138 C 495.132 -4.39857 2.97824 0
M  V30 5139 C 494.171 -4.45697 4.19548 0
M  V30 5140 N 493.308 -5.65995 4.15444 0
M  V30 5141 H 498.148 -1.45895 2.59843 0
M  V30 5142 H 495.685 -0.709891 1.28837 0
M  V30 5143 H 497.643 -3.78839 1.74747 0
M  V30 5144 H 496.273 -3.12183 0.821075 0
M  V30 5145 H 495.325 -2.23991 3.07461 0
M  V30 5146 H 496.637 -3.11157 3.89849 0
M  V30 5147 H 495.791 -5.2825 2.98391 0
M  V30 5148 H 494.53 -4.42242 2.05604 0
M  V30 5149 H 493.535 -3.55707 4.19229 0
M  V30 5150 H 494.76 -4.4503 5.12957 0
M  V30 5151 H 492.706 -5.69229 3.26059 0
M  V30 5152 H 492.623 -5.67773 4.99169 0
M  V30 5153 H 493.891 -6.56604 4.20109 0
M  V30 5154 N 498.12 -1.38341 -0.754957 0
M  V30 5155 C 499.531 -1.30803 -1.3322 0
M  V30 5156 C 499.882 0.0368 -1.96165 0
M  V30 5157 O 499.007 0.938844 -1.94974 0
M  V30 5158 C 499.602 -2.3688 -2.42225 0
M  V30 5159 C 498.161 -2.32925 -2.95674 0
M  V30 5160 C 497.308 -2.19819 -1.69042 0
M  V30 5161 H 500.259 -1.48719 -0.553937 0
M  V30 5162 H 500.28 -2.02517 -3.22129 0
M  V30 5163 H 499.792 -3.34747 -1.96383 0
M  V30 5164 H 497.893 -1.38635 -3.45848 0
M  V30 5165 H 498.006 -3.27008 -3.50146 0
M  V30 5166 H 496.37 -1.66648 -1.92615 0
M  V30 5167 H 497.153 -3.19625 -1.25279 0
M  V30 5168 N 499.598 0.982988 -1.23187 0
M  V30 5169 C 500.545 2.07491 -1.01075 0
M  V30 5170 C 501.515 1.65949 0.070905 0
M  V30 5171 O 502.7 1.90629 -0.0806822 0
M  V30 5172 C 499.84 3.39751 -0.605261 0
M  V30 5173 C 498.953 3.94578 -1.75876 0
M  V30 5174 C 498.088 5.15039 -1.3003 0
M  V30 5175 C 497.127 5.62027 -2.42472 0
M  V30 5176 N 496.264 6.73719 -1.97602 0
M  V30 5177 H 501.104 2.25739 -1.9454 0
M  V30 5178 H 498.641 1.10659 -0.969179 0
M  V30 5179 H 500.599 4.15719 -0.351279 0
M  V30 5180 H 499.229 3.21473 0.292382 0
M  V30 5181 H 498.281 3.1539 -2.12681 0
M  V30 5182 H 499.593 4.25422 -2.60418 0
M  V30 5183 H 498.747 5.9833 -1.00429 0
M  V30 5184 H 497.486 4.85843 -0.425216 0
M  V30 5185 H 496.491 4.77318 -2.7285 0
M  V30 5186 H 497.716 5.93244 -3.30512 0
M  V30 5187 H 495.662 6.46287 -1.1247 0
M  V30 5188 H 495.579 7.03934 -2.75705 0
M  V30 5189 H 496.847 7.6049 -1.71098 0
M  V30 5190 N 501.076 1.04316 1.18135 0
M  V30 5191 C 502.324 0.746542 1.87806 0
M  V30 5192 C 502.645 -0.728082 1.80898 0
M  V30 5193 O 501.915 -1.52554 1.22899 0
M  V30 5194 H 500.495 0.273157 0.695265 0
M  V30 5195 H 503.157 1.32044 1.43354 0
M  V30 5196 H 502.253 1.05362 2.93778 0
M  V30 5197 N 502.554 -1.34406 0.822964 0
M  V30 5198 C 503.779 -2.0304 0.423034 0
M  V30 5199 C 504.204 -1.61568 -0.963196 0
M  V30 5200 O 503.562 -0.800339 -1.62678 0
M  V30 5201 C 503.61 -3.56636 0.53321 0
M  V30 5202 O 502.714 -4.09971 -0.446939 0
M  V30 5203 H 502.055 -0.64075 0.174171 0
M  V30 5204 H 504.585 -1.71653 1.11339 0
M  V30 5205 H 504.595 -4.05945 0.408991 0
M  V30 5206 H 503.27 -3.86168 1.54425 0
M  V30 5207 H 501.847 -3.71835 -0.281601 0
M  V30 5208 N 504.032 -0.577932 -1.46621 0
M  V30 5209 C 505.278 -0.0617793 -2.02706 0
M  V30 5210 C 505.611 1.29294 -1.44903 0
M  V30 5211 O 504.886 1.8461 -0.61232 0
M  V30 5212 C 505.169 0.00911824 -3.60099 0
M  V30 5213 C 505.022 -1.37416 -4.28295 0
M  V30 5214 C 506.341 0.712159 -4.343 0
M  V30 5215 H 503.46 -0.0239246 -0.736612 0
M  V30 5216 H 506.102 -0.744211 -1.74818 0
M  V30 5217 H 504.252 0.590292 -3.83989 0
M  V30 5218 H 505.924 -2.00013 -4.15683 0
M  V30 5219 H 504.167 -1.94319 -3.87843 0
M  V30 5220 H 504.838 -1.27707 -5.37024 0
M  V30 5221 H 507.314 0.218486 -4.15526 0
M  V30 5222 H 506.19 0.730782 -5.44014 0
M  V30 5223 H 506.451 1.77251 -4.05012 0
M  V30 5224 N 505.51 1.54411 -0.315457 0
M  V30 5225 C 506.926 1.59556 0.037464 0
M  V30 5226 C 507.126 1.33217 1.5118 0
M  V30 5227 O 506.182 1.11264 2.26664 0
M  V30 5228 C 507.495 2.98372 -0.373477 0
M  V30 5229 C 509.043 3.11324 -0.323452 0
M  V30 5230 C 509.518 4.52472 -0.709433 0
M  V30 5231 N 511.009 4.58437 -0.662524 0
M  V30 5232 C 511.744 5.65751 -0.933474 0
M  V30 5233 N 511.24 6.81039 -1.27114 0
M  V30 5234 N 513.033 5.55489 -0.859573 0
M  V30 5235 H 505.184 1.6979 -1.27614 0
M  V30 5236 H 507.447 0.793732 -0.518356 0
M  V30 5237 H 507.153 3.22618 -1.40037 0
M  V30 5238 H 507.027 3.76264 0.265615 0
M  V30 5239 H 509.414 2.86818 0.694223 0
M  V30 5240 H 509.495 2.35555 -0.997367 0
M  V30 5241 H 509.139 4.7771 -1.72498 0
M  V30 5242 H 509.069 5.26598 -0.0132923 0
M  V30 5243 H 511.56 3.75636 -0.413065 0
M  V30 5244 H 511.873 7.58816 -1.46348 0
M  V30 5245 H 510.218 6.82555 -1.30932 0
M  V30 5246 H 513.409 4.64299 -0.595324 0
M  V30 5247 H 513.582 6.39036 -1.0741 0
M  V30 5248 N 506.988 0.0434614 1.5754 0
M  V30 5249 C 507.951 -0.918696 2.09982 0
M  V30 5250 C 508.951 -1.24488 1.01781 0
M  V30 5251 O 510.141 -1.18284 1.27885 0
M  V30 5252 C 507.273 -2.23093 2.57764 0
M  V30 5253 H 508.466 -0.464229 2.96285 0
M  V30 5254 H 506.019 -0.204818 1.54952 0
M  V30 5255 H 506.754 -2.73137 1.74832 0
M  V30 5256 H 506.539 -2.00724 3.36827 0
M  V30 5257 H 508.029 -2.92028 2.98512 0
M  V30 5258 N 508.466 -1.55915 -0.229846 0
M  V30 5259 C 509.877 -1.68809 -0.797531 0
M  V30 5260 C 510.228 -0.643995 -1.8533 0
M  V30 5261 O 509.353 0.206492 -2.15413 0
M  V30 5262 C 509.948 -3.06043 -1.45338 0
M  V30 5263 C 508.507 -3.20819 -1.96856 0
M  V30 5264 C 507.654 -2.6472 -0.825736 0
M  V30 5265 H 510.605 -1.58699 -0.00533733 0
M  V30 5266 H 510.626 -3.01438 -2.32196 0
M  V30 5267 H 510.138 -3.82012 -0.684743 0
M  V30 5268 H 508.239 -2.49704 -2.76548 0
M  V30 5269 H 508.352 -4.27937 -2.15423 0
M  V30 5270 H 506.716 -2.22985 -1.23084 0
M  V30 5271 H 507.499 -3.43229 -0.0699019 0
M  V30 5272 N 509.944 0.496216 -1.49584 0
M  V30 5273 C 510.876 1.61404 -1.62731 0
M  V30 5274 C 511.889 1.54613 -0.50978 0
M  V30 5275 O 513.078 1.60458 -0.782017 0
M  V30 5276 C 510.178 3.00212 -1.57245 0
M  V30 5277 C 509.351 3.32138 -2.84611 0
M  V30 5278 C 508.41 4.5038 -2.72112 0
M  V30 5279 O 507.436 4.51926 -3.46051 0
M  V30 5280 N 508.638 5.50575 -1.83977 0
M  V30 5281 H 511.403 1.50552 -2.59141 0
M  V30 5282 H 508.964 0.684182 -1.46733 0
M  V30 5283 H 510.956 3.77241 -1.4653 0
M  V30 5284 H 509.526 3.04964 -0.686729 0
M  V30 5285 H 508.746 2.4396 -3.09641 0
M  V30 5286 H 510.034 3.50268 -3.69039 0
M  V30 5287 H 509.432 5.52128 -1.23171 0
M  V30 5288 H 507.989 6.26687 -1.79182 0
M  V30 5289 N 511.423 1.38739 0.74761 0
M  V30 5290 C 512.669 1.35475 1.50912 0
M  V30 5291 C 513.002 -0.0533093 1.94127 0
M  V30 5292 O 512.277 -1.01572 1.65871 0
M  V30 5293 C 512.56 2.31582 2.75757 0
M  V30 5294 C 512.413 3.81274 2.38642 0
M  V30 5295 C 513.732 2.25722 3.77806 0
M  V30 5296 H 510.851 0.493427 0.547447 0
M  V30 5297 H 513.493 1.69634 0.855823 0
M  V30 5298 H 511.643 2.02582 3.31501 0
M  V30 5299 H 513.315 4.20972 1.88626 0
M  V30 5300 H 511.558 3.98664 1.71025 0
M  V30 5301 H 512.229 4.4399 3.27989 0
M  V30 5302 H 514.705 2.51336 3.31616 0
M  V30 5303 H 513.581 2.95069 4.62845 0
M  V30 5304 H 513.842 1.25803 4.23823 0
M  V30 5305 N 512.901 -0.976442 1.23707 0
M  V30 5306 C 514.131 -1.75087 1.09673 0
M  V30 5307 C 514.539 -1.85852 -0.354344 0
M  V30 5308 O 513.882 -1.33985 -1.25673 0
M  V30 5309 C 513.944 -3.19272 1.65245 0
M  V30 5310 C 513.608 -3.32004 3.14042 0
M  V30 5311 C 514.605 -3.18017 4.11292 0
M  V30 5312 C 512.29 -3.56525 3.53829 0
M  V30 5313 C 514.284 -3.28363 5.46312 0
M  V30 5314 C 511.971 -3.6651 4.88993 0
M  V30 5315 C 512.969 -3.52439 5.85043 0
M  V30 5316 O 512.657 -3.62063 7.1775 0
M  V30 5317 H 512.389 -0.556164 0.384262 0
M  V30 5318 H 514.943 -1.23518 1.64111 0
M  V30 5319 H 513.173 -3.72107 1.05231 0
M  V30 5320 H 514.862 -3.7849 1.46629 0
M  V30 5321 H 515.628 -2.98966 3.81896 0
M  V30 5322 H 511.507 -3.66547 2.79579 0
M  V30 5323 H 515.051 -3.17297 6.21263 0
M  V30 5324 H 510.948 -3.85072 5.18063 0
M  V30 5325 H 511.716 -3.78833 7.25553 0
M  V30 5326 N 514.379 -1.04941 -1.1758 0
M  V30 5327 C 515.625 -0.759112 -1.88057 0
M  V30 5328 C 515.958 0.711918 -1.8068 0
M  V30 5329 O 515.233 1.52035 -1.21308 0
M  V30 5330 C 515.516 -1.237 -3.38187 0
M  V30 5331 C 515.369 -2.77078 -3.54327 0
M  V30 5332 C 516.688 -0.834014 -4.32125 0
M  V30 5333 H 513.807 -0.277237 -0.682868 0
M  V30 5334 H 516.449 -1.30296 -1.38286 0
M  V30 5335 H 514.599 -0.774337 -3.80705 0
M  V30 5336 H 516.271 -3.31449 -3.20842 0
M  V30 5337 H 514.514 -3.16477 -2.96689 0
M  V30 5338 H 515.185 -3.05577 -4.59703 0
M  V30 5339 H 517.661 -1.23228 -3.97434 0
M  V30 5340 H 516.537 -1.19603 -5.35711 0
M  V30 5341 H 516.798 0.262195 -4.41322 0
M  V30 5342 N 515.857 1.33968 -0.830081 0
M  V30 5343 C 516.787 2.31911 -0.271911 0
M  V30 5344 C 517.768 1.58571 0.61556 0
M  V30 5345 O 518.953 1.86514 0.540946 0
M  V30 5346 C 516.083 3.42737 0.561146 0
M  V30 5347 C 515.037 4.27383 -0.229789 0
M  V30 5348 C 514.363 5.29742 0.726463 0
M  V30 5349 C 515.663 5.02 -1.44197 0
M  V30 5350 H 517.357 2.78844 -1.09025 0
M  V30 5351 H 514.903 1.34061 -0.52571 0
M  V30 5352 H 516.856 4.10276 0.961867 0
M  V30 5353 H 515.58 2.94471 1.41261 0
M  V30 5354 H 514.239 3.61456 -0.611964 0
M  V30 5355 H 513.887 4.77736 1.57408 0
M  V30 5356 H 513.587 5.87255 0.20142 0
M  V30 5357 H 515.111 6.00149 1.12489 0
M  V30 5358 H 516.525 5.62355 -1.11488 0
M  V30 5359 H 514.922 5.69122 -1.90317 0
M  V30 5360 H 515.992 4.31281 -2.2164 0
M  V30 5361 N 517.335 0.585699 1.46312 0
M  V30 5362 C 518.746 0.159938 1.86014 0
M  V30 5363 C 519.097 -1.27775 1.48889 0
M  V30 5364 O 518.222 -1.96559 0.90519 0
M  V30 5365 C 518.817 0.283485 3.37612 0
M  V30 5366 C 517.376 -0.0874256 3.76298 0
M  V30 5367 C 516.523 0.618055 2.70325 0
M  V30 5368 H 519.474 0.793737 1.37425 0
M  V30 5369 H 519.495 -0.490348 3.77327 0
M  V30 5370 H 519.007 1.32995 3.64601 0
M  V30 5371 H 517.108 -1.13391 3.54927 0
M  V30 5372 H 517.221 0.290975 4.78216 0
M  V30 5373 H 515.585 0.057993 2.54634 0
M  V30 5374 H 516.368 1.66623 3.00153 0
M  V30 5375 N 518.813 -1.54241 0.323641 0
M  V30 5376 C 520.224 -1.85975 -0.164405 0
M  V30 5377 C 520.575 -1.24529 -1.51615 0
M  V30 5378 O 519.7 -0.551351 -2.09258 0
M  V30 5379 C 520.295 -3.37424 -0.305091 0
M  V30 5380 C 518.854 -3.69107 -0.737358 0
M  V30 5381 C 518.001 -2.76942 0.140884 0
M  V30 5382 H 520.952 -1.49088 0.543922 0
M  V30 5383 H 520.973 -3.63147 -1.13598 0
M  V30 5384 H 520.485 -3.82116 0.678876 0
M  V30 5385 H 518.586 -3.29947 -1.73107 0
M  V30 5386 H 518.699 -4.76035 -0.541053 0
M  V30 5387 H 517.063 -2.51795 -0.383572 0
M  V30 5388 H 517.846 -3.24461 1.12162 0
M  V30 5389 N 520.291 -0.0518155 -1.57515 0
M  V30 5390 C 521.702 0.483787 -1.80323 0
M  V30 5391 C 522.053 1.70879 -0.964099 0
M  V30 5392 O 521.178 2.15643 -0.180872 0
M  V30 5393 C 521.773 0.884459 -3.27052 0
M  V30 5394 C 520.332 1.36504 -3.50776 0
M  V30 5395 C 519.479 0.340539 -2.75201 0
M  V30 5396 H 522.43 -0.277691 -1.56252 0
M  V30 5397 H 522.451 1.74733 -3.38007 0
M  V30 5398 H 521.963 -0.00731093 -3.88099 0
M  V30 5399 H 520.064 2.27598 -2.95009 0
M  V30 5400 H 520.177 1.35675 -4.59488 0
M  V30 5401 H 518.541 0.81356 -2.41357 0
M  V30 5402 H 519.324 -0.543156 -3.38976 0
M  V30 5403 N 521.769 1.56035 0.221574 0
M  V30 5404 C 522.679 1.95581 1.29558 0
M  V30 5405 C 523.695 0.859639 1.51282 0
M  V30 5406 O 524.871 1.16321 1.64413 0
M  V30 5407 C 521.936 2.26447 2.62531 0
M  V30 5408 C 520.997 3.49632 2.4911 0
M  V30 5409 C 520.23 3.79017 3.75742 0
M  V30 5410 O 520.453 3.10077 4.78757 0
M  V30 5411 O 519.387 4.72507 3.72855 0
M  V30 5412 H 523.213 2.8711 0.990035 0
M  V30 5413 H 520.798 1.43244 0.424434 0
M  V30 5414 H 522.68 2.47494 3.41064 0
M  V30 5415 H 521.355 1.38092 2.92766 0
M  V30 5416 H 520.262 3.33864 1.68777 0
M  V30 5417 H 521.595 4.3837 2.23814 0
M  V30 5418 N 523.247 -0.488276 1.49845 0
M  V30 5419 C 524.157 -1.61451 1.70207 0
M  V30 5420 C 525.173 -1.63877 0.584846 0
M  V30 5421 O 526.349 -1.82063 0.861107 0
M  V30 5422 C 523.414 -2.9776 1.77594 0
M  V30 5423 C 522.475 -3.05861 3.01243 0
M  V30 5424 C 521.708 -4.35668 3.08268 0
M  V30 5425 O 521.931 -5.25197 2.22541 0
M  V30 5426 O 520.865 -4.49005 4.00847 0
M  V30 5427 H 524.691 -1.47199 2.65643 0
M  V30 5428 H 522.276 -0.665939 1.33737 0
M  V30 5429 H 524.158 -3.7875 1.84732 0
M  V30 5430 H 522.833 -3.12248 0.8534 0
M  V30 5431 H 521.74 -2.24012 2.99616 0
M  V30 5432 H 523.073 -2.96304 3.9302 0
M  V30 5433 N 524.725 -1.39134 -0.740242 0
M  V30 5434 C 525.635 -1.39697 -1.88473 0
M  V30 5435 C 526.651 -0.292403 -1.71526 0
M  V30 5436 O 527.827 -0.533021 -1.94219 0
M  V30 5437 C 524.892 -1.23382 -3.24003 0
M  V30 5438 C 523.953 -2.43763 -3.53381 0
M  V30 5439 C 523.186 -2.28216 -4.82445 0
M  V30 5440 O 523.409 -1.28288 -5.55786 0
M  V30 5441 O 522.343 -3.1709 -5.11603 0
M  V30 5442 H 526.169 -2.36159 -1.90952 0
M  V30 5443 H 523.754 -1.20194 -0.887346 0
M  V30 5444 H 525.636 -1.16395 -4.05006 0
M  V30 5445 H 524.311 -0.300121 -3.22306 0
M  V30 5446 H 523.218 -2.56325 -2.72485 0
M  V30 5447 H 524.551 -3.35808 -3.59852 0
M  V30 5448 N 526.204 0.969867 -1.24223 0
M  V30 5449 C 527.137 2.06279 -0.975926 0
M  V30 5450 C 528.115 1.62353 0.0895385 0
M  V30 5451 O 529.299 1.88442 -0.0469418 0
M  V30 5452 C 526.426 3.35391 -0.472315 0
M  V30 5453 C 525.472 3.98266 -1.526 0
M  V30 5454 S 526.305 4.36172 -3.10667 0
M  V30 5455 C 527.461 5.68423 -2.62003 0
M  V30 5456 H 527.694 2.28551 -1.90137 0
M  V30 5457 H 525.227 1.10748 -1.07584 0
M  V30 5458 H 527.185 4.10068 -0.188376 0
M  V30 5459 H 525.846 3.1111 0.432378 0
M  V30 5460 H 525.039 4.91307 -1.12399 0
M  V30 5461 H 524.641 3.30009 -1.75983 0
M  V30 5462 H 526.933 6.45842 -2.0468 0
M  V30 5463 H 527.876 6.13478 -3.53625 0
M  V30 5464 H 528.284 5.26928 -2.02502 0
M  V30 5465 N 527.682 1.05563 1.17022 0
M  V30 5466 C 528.91 0.78845 1.91288 0
M  V30 5467 C 529.325 -0.656318 1.77025 0
M  V30 5468 O 528.682 -1.44869 1.10992 0
M  V30 5469 C 528.733 1.16444 3.42232 0
M  V30 5470 O 528.454 2.5525 3.5606 0
M  V30 5471 C 529.955 0.923937 4.33565 0
M  V30 5472 H 527.175 0.286389 0.606813 0
M  V30 5473 H 529.719 1.4073 1.48375 0
M  V30 5474 H 527.874 0.590266 3.82877 0
M  V30 5475 H 528.288 2.70097 4.49609 0
M  V30 5476 H 529.762 1.23672 5.37968 0
M  V30 5477 H 530.239 -0.140688 4.38975 0
M  V30 5478 H 530.845 1.48214 3.98639 0
M  V30 5479 N 529.16 -1.33526 0.837174 0
M  V30 5480 C 530.107 -2.29248 0.267169 0
M  V30 5481 C 531.077 -1.54252 -0.616071 0
M  V30 5482 O 532.262 -1.82559 -0.554699 0
M  V30 5483 C 529.402 -3.40638 -0.553152 0
M  V30 5484 C 528.515 -4.30548 0.353921 0
M  V30 5485 C 527.65 -5.29051 -0.477339 0
M  V30 5486 C 526.689 -6.106 0.42823 0
M  V30 5487 N 525.826 -7.01152 -0.364801 0
M  V30 5488 H 530.666 -2.77398 1.08877 0
M  V30 5489 H 528.203 -1.36496 0.54838 0
M  V30 5490 H 530.161 -4.03921 -1.04422 0
M  V30 5491 H 528.791 -2.93685 -1.33973 0
M  V30 5492 H 527.843 -3.68001 0.963289 0
M  V30 5493 H 529.155 -4.87631 1.04964 0
M  V30 5494 H 528.309 -5.97853 -1.0323 0
M  V30 5495 H 527.048 -4.72541 -1.2065 0
M  V30 5496 H 526.053 -5.40718 0.995219 0
M  V30 5497 H 527.278 -6.69193 1.15573 0
M  V30 5498 H 525.224 -6.47092 -1.07738 0
M  V30 5499 H 525.141 -7.5551 0.272238 0
M  V30 5500 H 526.409 -7.74263 -0.902054 0
M  V30 5501 N 530.638 -0.59345 -1.46 0
M  V30 5502 C 531.585 0.133618 -2.30413 0
M  V30 5503 C 532.555 0.873736 -1.41262 0
M  V30 5504 O 533.74 0.862279 -1.70204 0
M  V30 5505 C 530.88 1.13434 -3.25924 0
M  V30 5506 C 529.993 0.39656 -4.30176 0
M  V30 5507 C 529.128 1.38575 -5.12806 0
M  V30 5508 C 528.167 0.634984 -6.08797 0
M  V30 5509 N 527.304 1.57276 -6.84258 0
M  V30 5510 H 532.144 -0.592252 -2.92055 0
M  V30 5511 H 529.681 -0.303874 -1.43927 0
M  V30 5512 H 531.639 1.72752 -3.79753 0
M  V30 5513 H 530.269 1.82779 -2.66067 0
M  V30 5514 H 529.321 -0.311861 -3.79119 0
M  V30 5515 H 530.633 -0.189869 -4.98438 0
M  V30 5516 H 529.787 2.05141 -5.70966 0
M  V30 5517 H 528.526 2.00611 -4.44529 0
M  V30 5518 H 527.531 -0.0443925 -5.49782 0
M  V30 5519 H 528.756 0.0198678 -6.79097 0
M  V30 5520 H 526.702 2.18103 -6.18682 0
M  V30 5521 H 526.619 1.03941 -7.48821 0
M  V30 5522 H 527.887 2.22844 -7.46968 0
M  V30 5523 N 532.116 1.54067 -0.331816 0
M  V30 5524 C 533.048 2.22139 0.564538 0
M  V30 5525 C 534.061 1.22408 1.07332 0
M  V30 5526 O 535.25 1.4883 0.985481 0
M  V30 5527 C 532.35 2.87876 1.78831 0
M  V30 5528 C 531.523 4.13817 1.41682 0
M  V30 5529 C 530.582 4.63072 2.49901 0
M  V30 5530 O 529.608 5.27562 2.13699 0
M  V30 5531 N 530.81 4.38001 3.80967 0
M  V30 5532 H 533.575 2.99694 -0.0183736 0
M  V30 5533 H 531.136 1.61153 -0.155396 0
M  V30 5534 H 533.128 3.17747 2.50637 0
M  V30 5535 H 531.698 2.13977 2.27887 0
M  V30 5536 H 530.918 3.9062 0.530044 0
M  V30 5537 H 532.206 4.95762 1.14443 0
M  V30 5538 H 531.604 3.864 4.13173 0
M  V30 5539 H 530.161 4.72507 4.48977 0
M  V30 5540 N 533.594 0.0601682 1.57485 0
M  V30 5541 C 534.84 -0.612501 1.93329 0
M  V30 5542 C 535.173 -1.6996 0.939526 0
M  V30 5543 O 534.448 -1.94472 -0.0330957 0
M  V30 5544 C 534.731 -1.20025 3.39508 0
M  V30 5545 C 534.584 -0.12059 4.49638 0
M  V30 5546 C 535.903 -2.10923 3.86264 0
M  V30 5547 H 533.022 -0.221185 0.703027 0
M  V30 5548 H 535.664 0.123768 1.89596 0
M  V30 5549 H 533.814 -1.82774 3.42821 0
M  V30 5550 H 535.486 0.51185 4.58452 0
M  V30 5551 H 533.729 0.550251 4.30296 0
M  V30 5552 H 534.4 -0.572019 5.49028 0
M  V30 5553 H 536.876 -1.58124 3.84884 0
M  V30 5554 H 535.752 -2.48987 4.8918 0
M  V30 5555 H 536.013 -3.01292 3.23536 0
M  V30 5556 N 535.072 -1.5615 -0.213296 0
M  V30 5557 C 536.3 -1.83638 -0.953139 0
M  V30 5558 C 536.715 -0.640362 -1.77609 0
M  V30 5559 O 536.072 0.391071 -1.78261 0
M  V30 5560 C 536.123 -3.09735 -1.86405 0
M  V30 5561 O 535.844 -4.24723 -1.07435 0
M  V30 5562 C 537.345 -3.5027 -2.71709 0
M  V30 5563 H 534.565 -0.610263 -0.278962 0
M  V30 5564 H 537.109 -2.03247 -0.226035 0
M  V30 5565 H 535.264 -2.92077 -2.545 0
M  V30 5566 H 535.678 -4.9641 -1.69343 0
M  V30 5567 H 537.152 -4.41515 -3.31313 0
M  V30 5568 H 537.629 -2.72406 -3.44516 0
M  V30 5569 H 538.235 -3.70396 -2.09015 0
M  V30 5570 N 536.55 0.480323 -1.50102 0
M  V30 5571 C 537.48 1.58769 -1.71215 0
M  V30 5572 C 538.461 1.60583 -0.560997 0
M  V30 5573 O 539.646 1.76996 -0.799127 0
M  V30 5574 C 536.776 2.97148 -1.79778 0
M  V30 5575 C 535.73 3.10201 -2.94888 0
M  V30 5576 C 535.056 4.50137 -2.88584 0
M  V30 5577 C 536.356 2.88283 -4.35534 0
M  V30 5578 H 538.05 1.41354 -2.6393 0
M  V30 5579 H 535.596 0.678591 -1.27008 0
M  V30 5580 H 537.549 3.74536 -1.93133 0
M  V30 5581 H 536.273 3.15699 -0.836772 0
M  V30 5582 H 534.932 2.35244 -2.81169 0
M  V30 5583 H 534.58 4.65593 -1.90349 0
M  V30 5584 H 534.28 4.59808 -3.65856 0
M  V30 5585 H 535.804 5.29558 -3.03976 0
M  V30 5586 H 537.218 3.55427 -4.49827 0
M  V30 5587 H 535.615 3.09408 -5.14186 0
M  V30 5588 H 536.685 1.84219 -4.48544 0
M  V30 5589 N 538.028 1.39524 0.732853 0
M  V30 5590 C 539.256 1.40143 1.52209 0
M  V30 5591 C 539.671 -0.00348836 1.888 0
M  V30 5592 O 539.028 -0.975357 1.5425 0
M  V30 5593 C 539.079 2.27632 2.8083 0
M  V30 5594 O 538.8 3.62654 2.45792 0
M  V30 5595 C 540.301 2.36658 3.74844 0
M  V30 5596 H 537.521 0.478604 0.470297 0
M  V30 5597 H 540.065 1.83366 0.905388 0
M  V30 5598 H 538.22 1.87818 3.38826 0
M  V30 5599 H 538.634 4.08941 3.28431 0
M  V30 5600 H 540.108 3.02118 4.61984 0
M  V30 5601 H 540.585 1.38638 4.16745 0
M  V30 5602 H 541.191 2.76951 3.22766 0
M  V30 5603 N 539.506 -0.963266 1.24736 0
M  V30 5604 C 540.746 -1.72172 1.10165 0
M  V30 5605 C 541.11 -1.88731 -0.352784 0
M  V30 5606 O 542.311 -2.61549 -0.620107 0
M  V30 5607 C 540.582 -3.0724 1.82589 0
M  V30 5608 S 542.141 -3.98449 1.83803 0
M  V30 5609 H 538.959 -0.591901 0.393922 0
M  V30 5610 H 541.561 -1.14955 1.58132 0
M  V30 5611 H 540.265 -2.92851 2.87518 0
M  V30 5612 H 539.796 -3.69521 1.34973 0
M  V30 5613 H 541.811 -4.87805 0.908883 0
M  V30 5614 N 540.985 -1.06182 -1.16461 0
M  V30 5615 C 541.918 -0.615859 -2.19733 0
M  V30 5616 C 542.896 0.360766 -1.58547 0
M  V30 5617 O 544.08 0.270009 -1.86556 0
M  V30 5618 C 541.207 0.097312 -3.3856 0
M  V30 5619 C 540.253 -0.835889 -4.18229 0
M  V30 5620 S 541.086 -2.33052 -4.82128 0
M  V30 5621 C 542.242 -1.62881 -6.04335 0
M  V30 5622 H 542.475 -1.49079 -2.57221 0
M  V30 5623 H 540.008 -0.874692 -1.27234 0
M  V30 5624 H 541.966 0.502563 -4.07412 0
M  V30 5625 H 540.627 0.948418 -2.99439 0
M  V30 5626 H 539.82 -0.283426 -5.03202 0
M  V30 5627 H 539.422 -1.18097 -3.54865 0
M  V30 5628 H 541.714 -0.933764 -6.71034 0
M  V30 5629 H 542.657 -2.45641 -6.64128 0
M  V30 5630 H 543.065 -1.11189 -5.53441 0
M  V30 5631 N 542.463 1.3308 -0.844243 0
M  V30 5632 C 543.709 1.97898 -0.443206 0
M  V30 5633 C 544.042 1.66699 0.99625 0
M  V30 5634 O 543.317 0.949704 1.69738 0
M  V30 5635 C 543.6 3.53801 -0.670606 0
M  V30 5636 C 543.453 3.94667 -2.15772 0
M  V30 5637 C 544.772 4.39936 -0.120226 0
M  V30 5638 H 541.891 0.718861 -0.162504 0
M  V30 5639 H 544.533 1.57633 -1.06075 0
M  V30 5640 H 542.683 3.88229 -0.14496 0
M  V30 5641 H 544.355 3.70469 -2.74865 0
M  V30 5642 H 542.598 3.44203 -2.6402 0
M  V30 5643 H 543.269 5.03275 -2.26757 0
M  V30 5644 H 545.745 4.12183 -0.5696 0
M  V30 5645 H 544.621 5.4803 -0.308984 0
M  V30 5646 H 544.882 4.31184 0.976347 0
M  V30 5647 N 543.941 0.601185 1.45683 0
M  V30 5648 C 545.169 0.100054 2.06658 0
M  V30 5649 C 545.584 -1.21285 1.44691 0
M  V30 5650 O 544.941 -1.73735 0.558772 0
M  V30 5651 C 544.992 -0.0528579 3.61461 0
M  V30 5652 O 544.713 1.20809 4.21114 0
M  V30 5653 C 546.214 -0.586193 4.39407 0
M  V30 5654 H 543.434 0.065905 0.667756 0
M  V30 5655 H 545.978 0.827101 1.87028 0
M  V30 5656 H 544.133 -0.730203 3.80456 0
M  V30 5657 H 544.547 1.03368 5.14213 0
M  V30 5658 H 546.021 -0.642297 5.4825 0
M  V30 5659 H 546.498 -1.60713 4.0874 0
M  V30 5660 H 547.104 0.0568935 4.25262 0
M  V30 5661 N 545.419 -1.53889 0.339982 0
M  V30 5662 C 546.696 -1.93084 -0.312719 0
M  V30 5663 C 547.076 -1.2712 -1.68534 0
M  V30 5664 O 546.424 -0.420835 -2.24591 0
M  V30 5665 C 546.634 -3.4683 -0.388558 0
M  V30 5666 C 547.982 -4.19732 -0.641088 0
M  V30 5667 O 549.006 -3.53075 -0.470818 0
M  V30 5668 O 547.865 -5.3781 -0.970685 0
M  V30 5669 H 544.959 -0.806784 -0.18174 0
M  V30 5670 H 547.505 -1.65137 0.390898 0
M  V30 5671 H 546.277 -3.87055 0.574821 0
M  V30 5672 H 545.9 -3.80933 -1.1391 0
M  V30 5673 N 546.897 -0.0685191 -1.57451 0
M  V30 5674 C 548.144 0.601348 -1.93365 0
M  V30 5675 C 548.472 1.69816 -0.948294 0
M  V30 5676 O 547.727 1.95666 0.0366199 0
M  V30 5677 C 548.026 1.22051 -3.35914 0
M  V30 5678 C 547.692 0.250165 -4.50205 0
M  V30 5679 C 546.354 -0.0167954 -4.81197 0
M  V30 5680 C 548.706 -0.413867 -5.19554 0
M  V30 5681 C 546.034 -0.95493 -5.78876 0
M  V30 5682 C 548.386 -1.3403 -6.18238 0
M  V30 5683 C 547.05 -1.61576 -6.47649 0
M  V30 5684 H 546.32 0.220049 -0.707573 0
M  V30 5685 H 548.967 -0.138697 -1.90997 0
M  V30 5686 H 547.272 2.03622 -3.34732 0
M  V30 5687 H 548.969 1.74605 -3.6099 0
M  V30 5688 H 545.559 0.468421 -4.26033 0
M  V30 5689 H 549.743 -0.220733 -4.95809 0
M  V30 5690 H 544.999 -1.17563 -5.99991 0
M  V30 5691 H 549.173 -1.86081 -6.71079 0
M  V30 5692 H 546.8 -2.34431 -7.2315 0
M  V30 5693 N 548.375 1.56261 0.205012 0
M  V30 5694 C 549.308 1.88797 1.28183 0
M  V30 5695 C 550.286 0.747018 1.44424 0
M  V30 5696 O 551.47 0.997039 1.59973 0
M  V30 5697 C 548.597 2.10949 2.64987 0
M  V30 5698 C 547.643 3.33649 2.6567 0
M  V30 5699 S 548.476 4.89078 2.18088 0
M  V30 5700 C 549.632 5.14286 3.56736 0
M  V30 5701 H 549.865 2.79837 1.00393 0
M  V30 5702 H 547.398 1.48911 0.408042 0
M  V30 5703 H 549.356 2.24395 3.4374 0
M  V30 5704 H 548.017 1.20678 2.89993 0
M  V30 5705 H 547.21 3.46245 3.66239 0
M  V30 5706 H 546.812 3.19146 1.94992 0
M  V30 5707 H 549.104 5.04198 4.52537 0
M  V30 5708 H 550.047 6.16096 3.49043 0
M  V30 5709 H 550.455 4.41957 3.51189 0
M  V30 5710 N 549.853 -0.472356 1.50355 0
M  V30 5711 C 551.264 -1.05326 1.54154 0
M  V30 5712 C 551.615 -1.93155 0.344303 0
M  V30 5713 O 550.74 -2.09479 -0.542928 0
M  V30 5714 C 551.335 -1.91691 2.79356 0
M  V30 5715 C 549.894 -2.44892 2.8584 0
M  V30 5716 C 549.041 -1.23205 2.48426 0
M  V30 5717 H 551.992 -0.255027 1.56637 0
M  V30 5718 H 552.013 -2.76742 2.6114 0
M  V30 5719 H 551.525 -1.27741 3.66475 0
M  V30 5720 H 549.626 -3.12399 2.0307 0
M  V30 5721 H 549.739 -2.80086 3.88701 0
M  V30 5722 H 548.103 -1.56643 2.00836 0
M  V30 5723 H 548.886 -0.609194 3.37852 0
M  V30 5724 N 551.331 -1.39911 -0.725443 0
M  V30 5725 C 552.241 -1.41688 -1.8698 0
M  V30 5726 C 553.257 -0.310579 -1.71206 0
M  V30 5727 O 554.433 -0.55359 -1.93642 0
M  V30 5728 C 551.498 -1.26811 -3.22676 0
M  V30 5729 C 550.559 -2.47497 -3.50776 0
M  V30 5730 C 549.792 -2.3332 -4.79997 0
M  V30 5731 O 550.015 -1.34175 -5.54394 0
M  V30 5732 O 548.949 -3.22498 -5.08211 0
M  V30 5733 H 552.775 -2.38171 -1.88436 0
M  V30 5734 H 550.36 -1.21128 -0.874548 0
M  V30 5735 H 552.242 -1.20684 -4.03749 0
M  V30 5736 H 550.917 -0.334289 -3.21969 0
M  V30 5737 H 549.824 -2.59201 -2.69751 0
M  V30 5738 H 551.157 -3.39606 -3.5627 0
M  V30 5739 N 552.809 0.956637 -1.25245 0
M  V30 5740 C 554.086 1.67716 -1.00651 0
M  V30 5741 C 554.466 2.0585 0.467866 0
M  V30 5742 O 553.814 1.77029 1.44475 0
M  V30 5743 C 554.024 2.90093 -1.94028 0
M  V30 5744 C 555.372 3.6209 -2.21756 0
M  V30 5745 O 556.396 3.00171 -1.9177 0
M  V30 5746 O 555.255 4.7358 -2.72735 0
M  V30 5747 H 552.349 0.733731 -0.381533 0
M  V30 5748 H 554.895 1.00974 -1.3639 0
M  V30 5749 H 553.667 2.58689 -2.93591 0
M  V30 5750 H 553.29 3.64566 -1.58674 0
M  V30 5751 N 554.287 1.06798 1.15896 0
M  V30 5752 C 555.536 0.782796 1.8589 0
M  V30 5753 C 555.849 -0.693498 1.82893 0
M  V30 5754 O 557.055 -1.09325 2.48516 0
M  V30 5755 C 555.511 1.3502 3.33613 0
M  V30 5756 C 555.119 2.8571 3.45071 0
M  V30 5757 C 556.863 1.14278 4.08829 0
M  V30 5758 C 554.77 3.35669 4.86909 0
M  V30 5759 H 553.7 0.289149 0.696354 0
M  V30 5760 H 556.351 1.28734 1.30766 0
M  V30 5761 H 554.733 0.773407 3.88374 0
M  V30 5762 H 555.907 3.49385 3.00445 0
M  V30 5763 H 554.222 3.05178 2.83294 0
M  V30 5764 H 556.819 1.49087 5.13495 0
M  V30 5765 H 557.162 0.0814575 4.1622 0
M  V30 5766 H 557.695 1.68563 3.60321 0
M  V30 5767 H 554.434 4.41302 4.84698 0
M  V30 5768 H 553.954 2.76745 5.32139 0
M  V30 5769 H 555.633 3.31296 5.55745 0
M  V30 5770 N 555.766 -1.3263 0.851289 0
M  V30 5771 C 556.996 -2.01271 0.466222 0
M  V30 5772 C 557.404 -1.64156 -0.940714 0
M  V30 5773 O 556.747 -0.857109 -1.62479 0
M  V30 5774 C 556.809 -3.55695 0.521672 0
M  V30 5775 C 556.473 -4.16227 1.88691 0
M  V30 5776 C 557.47 -4.34699 2.85189 0
M  V30 5777 C 555.155 -4.52377 2.18313 0
M  V30 5778 C 557.149 -4.88484 4.09465 0
M  V30 5779 C 554.836 -5.05868 3.42843 0
M  V30 5780 C 555.834 -5.23869 4.38235 0
M  V30 5781 O 555.522 -5.76218 5.6056 0
M  V30 5782 H 555.254 -0.651034 0.18202 0
M  V30 5783 H 557.808 -1.7026 1.14894 0
M  V30 5784 H 556.038 -3.86086 -0.217888 0
M  V30 5785 H 557.727 -4.05613 0.152682 0
M  V30 5786 H 558.493 -4.07107 2.63607 0
M  V30 5787 H 554.372 -4.37652 1.44851 0
M  V30 5788 H 557.916 -5.02451 4.83931 0
M  V30 5789 H 553.813 -5.32891 3.64277 0
M  V30 5790 H 554.581 -5.94616 5.62471 0
M  V30 5791 N 557.244 -0.608902 -1.45362 0
M  V30 5792 C 558.49 -0.104762 -2.02529 0
M  V30 5793 C 558.823 1.26191 -1.47613 0
M  V30 5794 O 558.098 1.8327 -0.65134 0
M  V30 5795 C 558.381 -0.0672661 -3.60037 0
M  V30 5796 C 558.234 -1.4647 -4.25284 0
M  V30 5797 C 559.553 0.619877 -4.35713 0
M  V30 5798 H 556.672 -0.0395438 -0.735938 0
M  V30 5799 H 559.314 -0.781126 -1.73201 0
M  V30 5800 H 557.464 0.50871 -3.85155 0
M  V30 5801 H 559.136 -2.08785 -4.11347 0
M  V30 5802 H 557.379 -2.02502 -3.83634 0
M  V30 5803 H 558.05 -1.39069 -5.34195 0
M  V30 5804 H 560.526 0.130297 -4.15896 0
M  V30 5805 H 559.402 0.615224 -5.45441 0
M  V30 5806 H 559.663 1.68621 -4.0868 0
M  V30 5807 N 558.722 1.53707 -0.348139 0
M  V30 5808 C 559.632 2.28881 0.514857 0
M  V30 5809 C 560.648 1.34168 1.10793 0
M  V30 5810 O 561.824 1.6721 1.12262 0
M  V30 5811 C 558.889 3.05042 1.64774 0
M  V30 5812 C 557.95 4.15389 1.08398 0
M  V30 5813 C 557.183 4.87909 2.16287 0
M  V30 5814 O 557.406 4.60137 3.3709 0
M  V30 5815 O 556.34 5.74254 1.80323 0
M  V30 5816 H 560.166 3.03547 -0.0963699 0
M  V30 5817 H 557.751 1.48972 -0.113043 0
M  V30 5818 H 559.633 3.52656 2.30677 0
M  V30 5819 H 558.308 2.33228 2.24469 0
M  V30 5820 H 557.215 3.72068 0.389341 0
M  V30 5821 H 558.548 4.89318 0.531829 0
M  V30 5822 N 560.2 0.0768682 1.57412 0
M  V30 5823 C 561.446 -0.585926 1.94778 0
M  V30 5824 C 561.801 -1.66912 0.956982 0
M  V30 5825 O 561.094 -1.9159 -0.0199454 0
M  V30 5826 C 561.288 -1.20268 3.36557 0
M  V30 5827 C 561.117 -0.18076 4.49337 0
M  V30 5828 C 559.887 0.236362 5.04747 0
M  V30 5829 C 562.085 0.583978 5.10974 0
M  V30 5830 N 560.067 1.24846 6.01071 0
M  V30 5831 C 561.438 1.44841 6.02844 0
M  V30 5832 C 563.493 0.639492 4.93776 0
M  V30 5833 C 562.196 2.36343 6.79363 0
M  V30 5834 C 564.222 1.54204 5.70942 0
M  V30 5835 C 563.584 2.39414 6.62465 0
M  V30 5836 H 559.683 -0.185281 0.759734 0
M  V30 5837 H 562.267 0.155193 1.9408 0
M  V30 5838 H 560.438 -1.9137 3.37982 0
M  V30 5839 H 562.17 -1.82636 3.61146 0
M  V30 5840 H 558.925 -0.14777 4.73369 0
M  V30 5841 H 559.349 1.75217 6.53933 0
M  V30 5842 H 563.991 -0.00510074 4.228 0
M  V30 5843 H 561.709 3.01836 7.49614 0
M  V30 5844 H 565.295 1.5899 5.59655 0
M  V30 5845 H 564.175 3.0812 7.21132 0
M  V30 5846 N 561.678 -1.56367 -0.196722 0
M  V30 5847 C 562.906 -1.84639 -0.933608 0
M  V30 5848 C 563.321 -0.659164 -1.76919 0
M  V30 5849 O 562.678 0.372142 -1.78665 0
M  V30 5850 C 562.729 -3.11694 -1.83109 0
M  V30 5851 O 562.45 -4.25838 -1.02924 0
M  V30 5852 C 563.951 -3.53132 -2.67979 0
M  V30 5853 H 561.171 -0.613188 -0.272473 0
M  V30 5854 H 563.715 -2.03475 -0.204465 0
M  V30 5855 H 561.87 -2.94759 -2.51387 0
M  V30 5856 H 562.284 -4.98178 -1.64069 0
M  V30 5857 H 563.758 -4.45005 -3.26611 0
M  V30 5858 H 564.235 -2.76045 -3.41608 0
M  V30 5859 H 564.841 -3.72592 -2.05074 0
M  V30 5860 N 563.156 0.464375 -1.50603 0
M  V30 5861 C 564.104 1.58224 -1.70493 0
M  V30 5862 C 565.098 1.59492 -0.570836 0
M  V30 5863 O 566.304 1.63561 -0.751517 0
M  V30 5864 H 562.679 0.525161 -0.538247 0
M  V30 5865 H 564.65 1.38613 -2.64252 0
M  V30 5866 C 563.399 2.96113 -1.82243 0
M  V30 5867 H 562.722 2.95858 -2.68901 0
M  V30 5868 H 564.162 3.73769 -2.00182 0
M  V30 5869 C 562.621 3.31946 -0.575628 0
M  V30 5870 O 563.151 4.00708 0.282152 0
M  V30 5871 N 561.357 2.87436 -0.427665 0
M  V30 5872 H 560.904 2.31652 -1.12674 0
M  V30 5873 H 560.862 3.11776 0.405379 0
M  V30 5874 N 564.634 1.40294 0.718013 0
M  V30 5875 C 565.582 1.40536 1.85344 0
M  V30 5876 C 566.576 0.286192 1.66965 0
M  V30 5877 O 567.782 0.457105 1.74099 0
M  V30 5878 H 564.157 0.439236 0.61039 0
M  V30 5879 H 566.128 2.36275 1.82255 0
M  V30 5880 C 564.877 1.28245 3.23185 0
M  V30 5881 H 564.2 2.1364 3.37932 0
M  V30 5882 H 565.64 1.32474 4.02774 0
M  V30 5883 C 564.099 -0.0075503 3.36899 0
M  V30 5884 O 564.629 -0.971391 3.89778 0
M  V30 5885 N 562.835 -0.0762479 2.905 0
M  V30 5886 H 562.382 0.708819 2.47656 0
M  V30 5887 H 562.34 -0.938846 3.00055 0
M  V30 5888 N 566.112 -0.949982 1.2575 0
M  V30 5889 C 567.36 -1.6918 1.10555 0
M  V30 5890 C 567.681 -1.91773 -0.353298 0
M  V30 5891 O 566.951 -1.50814 -1.25027 0
M  V30 5892 H 565.531 -0.626952 0.406129 0
M  V30 5893 H 568.193 -1.1419 1.57945 0
M  V30 5894 H 567.289 -2.66915 1.61749 0
M  V30 5895 N 567.59 -1.07411 -1.15328 0
M  V30 5896 C 568.537 -0.694995 -2.20087 0
M  V30 5897 C 569.507 0.313904 -1.63107 0
M  V30 5898 O 570.692 0.200216 -1.89747 0
M  V30 5899 C 567.832 -0.0996218 -3.44956 0
M  V30 5900 C 566.945 -1.16007 -4.16133 0
M  V30 5901 C 566.08 -0.529636 -5.28553 0
M  V30 5902 C 565.119 -1.57283 -5.91548 0
M  V30 5903 N 564.256 -0.964932 -6.95438 0
M  V30 5904 H 569.096 -1.5927 -2.51867 0
M  V30 5905 H 566.633 -0.796115 -1.23695 0
M  V30 5906 H 568.591 0.263197 -4.16369 0
M  V30 5907 H 567.221 0.761435 -3.13691 0
M  V30 5908 H 566.273 -1.64045 -3.4321 0
M  V30 5909 H 567.585 -1.95101 -4.59061 0
M  V30 5910 H 566.739 -0.114487 -6.06592 0
M  V30 5911 H 565.478 0.29307 -4.86819 0
M  V30 5912 H 564.483 -1.99775 -5.12221 0
M  V30 5913 H 565.708 -2.39783 -6.35359 0
M  V30 5914 H 563.654 -0.16314 -6.55797 0
M  V30 5915 H 563.571 -1.69311 -7.36797 0
M  V30 5916 H 564.839 -0.575305 -7.77374 0
M  V30 5917 N 569.068 1.32177 -0.85831 0
M  V30 5918 C 570.296 2.01313 -0.477582 0
M  V30 5919 C 570.711 1.6449 0.926736 0
M  V30 5920 O 570.068 0.868096 1.60531 0
M  V30 5921 C 570.119 3.56293 -0.611337 0
M  V30 5922 O 569.84 3.91794 -1.96034 0
M  V30 5923 C 571.341 4.42702 -0.230093 0
M  V30 5924 H 568.561 0.644323 -0.187322 0
M  V30 5925 H 571.105 1.68674 -1.15626 0
M  V30 5926 H 569.26 3.87395 0.0196494 0
M  V30 5927 H 569.674 4.86513 -1.95973 0
M  V30 5928 H 571.148 5.50727 -0.374674 0
M  V30 5929 H 571.625 4.3129 0.829779 0
M  V30 5930 H 572.231 4.16997 -0.836302 0
M  V30 5931 N 570.547 0.616602 1.45037 0
M  V30 5932 C 571.457 -0.0985401 2.34393 0
M  V30 5933 C 572.473 -0.850971 1.51771 0
M  V30 5934 O 573.649 -0.806521 1.84546 0
M  V30 5935 C 570.714 -1.07748 3.29532 0
M  V30 5936 C 569.775 -0.326022 4.2806 0
M  V30 5937 C 569.008 -1.25833 5.18654 0
M  V30 5938 O 569.231 -2.49652 5.12864 0
M  V30 5939 O 568.165 -0.750512 5.97203 0
M  V30 5940 H 571.991 0.636016 2.96966 0
M  V30 5941 H 569.576 0.376832 1.44569 0
M  V30 5942 H 571.458 -1.64107 3.88133 0
M  V30 5943 H 570.133 -1.79291 2.69512 0
M  V30 5944 H 569.04 0.280253 3.73049 0
M  V30 5945 H 570.373 0.349091 4.9096 0
M  V30 5946 N 572.025 -1.5352 0.356285 0
M  V30 5947 C 572.955 -2.28372 -0.486661 0
M  V30 5948 C 573.936 -1.30432 -1.09185 0
M  V30 5949 O 575.121 -1.59291 -1.11085 0
M  V30 5950 C 572.251 -3.06604 -1.63129 0
M  V30 5951 C 571.205 -4.12154 -1.15381 0
M  V30 5952 C 570.531 -4.78415 -2.38796 0
M  V30 5953 C 571.831 -5.21724 -0.245179 0
M  V30 5954 H 573.525 -2.99083 0.137797 0
M  V30 5955 H 571.071 -1.43841 0.0677134 0
M  V30 5956 H 573.024 -3.57712 -2.22755 0
M  V30 5957 H 571.748 -2.33568 -2.28284 0
M  V30 5958 H 570.407 -3.61978 -0.580294 0
M  V30 5959 H 570.055 -4.01959 -3.02387 0
M  V30 5960 H 569.755 -5.49734 -2.07524 0
M  V30 5961 H 571.279 -5.32313 -2.99125 0
M  V30 5962 H 572.693 -5.68391 -0.748646 0
M  V30 5963 H 571.09 -6.00095 -0.0237608 0
M  V30 5964 H 572.16 -4.79596 0.715229 0
M  V30 5965 N 573.503 -0.0852151 -1.57369 0
M  V30 5966 C 574.451 0.894856 -2.14698 0
M  V30 5967 C 575.445 1.29903 -1.08727 0
M  V30 5968 O 576.651 1.27471 -1.27088 0
M  V30 5969 H 573.026 0.306569 -0.686673 0
M  V30 5970 H 574.997 0.386542 -2.95886 0
M  V30 5971 C 573.746 2.14798 -2.73417 0
M  V30 5972 H 573.069 1.84585 -3.54638 0
M  V30 5973 H 574.509 2.81456 -3.1711 0
M  V30 5974 C 572.968 2.91546 -1.68828 0
M  V30 5975 O 573.498 3.85733 -1.12129 0
M  V30 5976 N 571.704 2.54901 -1.39549 0
M  V30 5977 H 571.251 1.7838 -1.85845 0
M  V30 5978 H 571.209 3.06553 -0.698054 0
M  V30 5979 N 574.981 1.5647 0.188427 0
M  V30 5980 C 576.211 1.84863 0.922463 0
M  V30 5981 C 576.619 0.666413 1.77075 0
M  V30 5982 O 575.962 -0.374044 1.79852 0
M  V30 5983 C 576.024 3.07447 1.86324 0
M  V30 5984 C 575.688 4.41066 1.19625 0
M  V30 5985 C 576.685 5.16767 0.569946 0
M  V30 5986 C 574.37 4.87802 1.19811 0
M  V30 5987 C 576.364 6.37384 -0.045594 0
M  V30 5988 C 574.051 6.08353 0.57874 0
M  V30 5989 C 575.049 6.82987 -0.0420259 0
M  V30 5990 O 574.737 8.01254 -0.651675 0
M  V30 5991 H 574.469 0.61784 0.274316 0
M  V30 5992 H 577.023 2.04437 0.198613 0
M  V30 5993 H 575.253 2.83774 2.62696 0
M  V30 5994 H 576.942 3.2243 2.46564 0
M  V30 5995 H 577.708 4.81749 0.560601 0
M  V30 5996 H 573.587 4.29662 1.67069 0
M  V30 5997 H 577.131 6.95578 -0.530731 0
M  V30 5998 H 573.028 6.42838 0.58561 0
M  V30 5999 H 573.796 8.16655 -0.549236 0
M  V30 6000 N 576.459 -0.456382 1.50847 0
M  V30 6001 C 577.406 -1.55249 1.70782 0
M  V30 6002 C 578.376 -1.56757 0.549231 0
M  V30 6003 O 579.561 -1.74061 0.7815 0
M  V30 6004 C 576.701 -2.93118 1.82143 0
M  V30 6005 C 575.814 -3.01285 3.09598 0
M  V30 6006 C 574.949 -4.30159 3.11667 0
M  V30 6007 C 573.988 -4.32124 4.33515 0
M  V30 6008 N 573.125 -5.52492 4.3324 0
M  V30 6009 H 577.965 -1.37555 2.64353 0
M  V30 6010 H 575.502 -0.668543 1.3103 0
M  V30 6011 H 577.46 -3.73088 1.86711 0
M  V30 6012 H 576.09 -3.09413 0.919978 0
M  V30 6013 H 575.142 -2.14096 3.14431 0
M  V30 6014 H 576.454 -2.98597 3.99551 0
M  V30 6015 H 575.608 -5.18489 3.15046 0
M  V30 6016 H 574.347 -4.35477 2.1957 0
M  V30 6017 H 573.352 -3.42189 4.30333 0
M  V30 6018 H 574.577 -4.28485 5.26856 0
M  V30 6019 H 572.523 -5.58567 3.44004 0
M  V30 6020 H 572.44 -5.51605 5.16979 0
M  V30 6021 H 573.708 -6.42906 4.40786 0
M  V30 6022 N 577.937 -1.40673 -0.710563 0
M  V30 6023 C 578.885 -1.41517 -1.84596 0
M  V30 6024 C 579.879 -0.295043 -1.66811 0
M  V30 6025 O 581.085 -0.466331 -1.73854 0
M  V30 6026 H 577.46 -0.442467 -0.608052 0
M  V30 6027 H 579.431 -2.37238 -1.80999 0
M  V30 6028 C 578.18 -1.29957 -3.225 0
M  V30 6029 H 577.503 -2.15429 -3.36794 0
M  V30 6030 H 578.943 -1.34608 -4.02066 0
M  V30 6031 C 577.402 -0.0103164 -3.36898 0
M  V30 6032 O 577.932 0.950707 -3.90288 0
M  V30 6033 N 576.138 0.0608409 -2.90536 0
M  V30 6034 H 575.685 -0.721943 -2.47277 0
M  V30 6035 H 575.643 0.92292 -3.00549 0
M  V30 6036 N 579.415 0.9433 -1.26252 0
M  V30 6037 C 580.643 1.72367 -1.14443 0
M  V30 6038 C 581.058 1.86392 0.300572 0
M  V30 6039 O 580.415 1.36978 1.20596 0
M  V30 6040 C 580.466 3.13155 -1.806 0
M  V30 6041 O 580.187 2.99803 -3.19452 0
M  V30 6042 C 581.688 4.07417 -1.74717 0
M  V30 6043 H 578.908 0.539758 -0.398626 0
M  V30 6044 H 581.452 1.18268 -1.66832 0
M  V30 6045 H 579.607 3.64162 -1.32154 0
M  V30 6046 H 580.021 3.88697 -3.52158 0
M  V30 6047 H 581.495 5.03773 -2.25647 0
M  V30 6048 H 581.972 4.3337 -0.713244 0
M  V30 6049 H 582.578 3.6233 -2.22704 0
M  V30 6050 N 580.893 1.08022 1.14757 0
M  V30 6051 C 581.803 0.718292 2.23333 0
M  V30 6052 C 582.819 -0.273477 1.71837 0
M  V30 6053 O 583.995 -0.118406 2.01052 0
M  V30 6054 C 581.06 0.128855 3.4646 0
M  V30 6055 C 580.121 1.17473 4.12915 0
M  V30 6056 C 579.354 0.61333 5.30164 0
M  V30 6057 O 579.577 -0.568458 5.6756 0
M  V30 6058 O 578.511 1.3615 5.86299 0
M  V30 6059 H 582.337 1.62394 2.56636 0
M  V30 6060 H 579.922 0.853628 1.22611 0
M  V30 6061 H 581.804 -0.197249 4.20938 0
M  V30 6062 H 580.479 -0.750014 3.14891 0
M  V30 6063 H 579.386 1.5533 3.40328 0
M  V30 6064 H 580.719 2.02574 4.48581 0
M  V30 6065 N 582.371 -1.3172 0.865308 0
M  V30 6066 C 583.782 -1.79104 0.527126 0
M  V30 6067 C 584.133 -1.7135 -0.955695 0
M  V30 6068 O 583.258 -1.27845 -1.74598 0
M  V30 6069 C 583.853 -3.25207 0.950061 0
M  V30 6070 C 582.412 -3.70504 0.663611 0
M  V30 6071 C 581.559 -2.52605 1.14395 0
M  V30 6072 H 584.51 -1.18868 1.05148 0
M  V30 6073 H 584.531 -3.79535 0.270805 0
M  V30 6074 H 584.043 -3.30818 2.02931 0
M  V30 6075 H 582.144 -3.70398 -0.404474 0
M  V30 6076 H 582.257 -4.62845 1.23737 0
M  V30 6077 H 580.621 -2.4838 0.563859 0
M  V30 6078 H 581.404 -2.60964 2.23053 0
M  V30 6079 N 583.85 -0.624285 -1.44708 0
M  V30 6080 C 585.096 -0.126237 -2.02407 0
M  V30 6081 C 585.428 1.24618 -1.48943 0
M  V30 6082 O 584.704 1.82569 -0.670742 0
M  V30 6083 C 584.986 -0.105449 -3.59946 0
M  V30 6084 C 584.84 -1.50972 -4.23707 0
M  V30 6085 C 586.159 0.573629 -4.36346 0
M  V30 6086 H 583.278 -0.0473472 -0.735478 0
M  V30 6087 H 585.92 -0.799452 -1.72362 0
M  V30 6088 H 584.07 0.46783 -3.85673 0
M  V30 6089 H 585.742 -2.13136 -4.0911 0
M  V30 6090 H 583.985 -2.0656 -3.81465 0
M  V30 6091 H 584.656 -1.44727 -5.32689 0
M  V30 6092 H 587.132 0.0861787 -4.16011 0
M  V30 6093 H 586.008 0.557338 -5.46063 0
M  V30 6094 H 586.269 1.64276 -4.10446 0
M  V30 6095 N 585.328 1.53329 -0.364422 0
M  V30 6096 C 586.258 2.28627 0.474543 0
M  V30 6097 C 587.239 1.31009 1.08492 0
M  V30 6098 O 588.424 1.59878 1.10239 0
M  V30 6099 C 585.554 3.07465 1.61501 0
M  V30 6100 C 584.508 4.1276 1.13194 0
M  V30 6101 C 583.834 4.79674 2.36255 0
M  V30 6102 C 585.134 5.21847 0.217507 0
M  V30 6103 H 586.828 2.99005 -0.153656 0
M  V30 6104 H 584.374 1.43803 -0.0753406 0
M  V30 6105 H 586.327 3.58889 2.20855 0
M  V30 6106 H 585.051 2.34775 2.27042 0
M  V30 6107 H 583.71 3.62281 0.56109 0
M  V30 6108 H 583.358 4.03557 3.00251 0
M  V30 6109 H 583.058 5.50827 2.04606 0
M  V30 6110 H 584.582 5.33892 2.96297 0
M  V30 6111 H 585.996 5.6878 0.718493 0
M  V30 6112 H 584.393 6.00099 -0.00806408 0
M  V30 6113 H 585.463 4.7921 -0.740653 0
M  V30 6114 N 586.806 0.0935595 1.57322 0
M  V30 6115 C 588.083 -0.612692 1.85756 0
M  V30 6116 C 588.463 -1.86439 0.99013 0
M  V30 6117 O 587.811 -2.28416 0.0621362 0
M  V30 6118 C 588.021 -0.929547 3.36393 0
M  V30 6119 C 589.369 -1.29366 4.04413 0
M  V30 6120 O 590.393 -1.02061 3.41265 0
M  V30 6121 O 589.252 -1.80498 5.15832 0
M  V30 6122 H 586.346 -0.306444 0.768128 0
M  V30 6123 H 588.892 0.126141 1.69231 0
M  V30 6124 H 587.664 -0.0414766 3.91278 0
M  V30 6125 H 587.287 -1.72441 3.5826 0
M  V30 6126 N 588.284 -1.56567 -0.180126 0
M  V30 6127 C 589.509 -1.85975 -0.918041 0
M  V30 6128 C 589.934 -0.678888 -1.75422 0
M  V30 6129 O 589.292 0.372168 -1.77439 0
M  V30 6130 C 589.34 -3.13731 -1.77779 0
M  V30 6131 O 588.444 -2.95335 -2.87838 0
M  V30 6132 H 587.785 -0.61196 -0.257683 0
M  V30 6133 H 590.315 -2.03798 -0.180923 0
M  V30 6134 H 590.325 -3.4491 -2.17948 0
M  V30 6135 H 589 -3.99293 -1.16352 0
M  V30 6136 H 587.577 -2.7549 -2.51316 0
M  V30 6137 N 589.762 0.448376 -1.51087 0
M  V30 6138 C 591.039 1.20926 -1.53741 0
M  V30 6139 C 591.419 2.09025 -0.295222 0
M  V30 6140 O 590.767 2.16851 0.720283 0
M  V30 6141 C 590.977 2.02067 -2.84552 0
M  V30 6142 C 592.325 2.59486 -3.36084 0
M  V30 6143 O 593.349 2.12289 -2.86028 0
M  V30 6144 O 592.208 3.45539 -4.23397 0
M  V30 6145 H 589.302 0.549951 -0.617643 0
M  V30 6146 H 591.848 0.458344 -1.63393 0
M  V30 6147 H 590.62 1.37291 -3.66425 0
M  V30 6148 H 590.243 2.84246 -2.78011 0
M  V30 6149 N 591.24 1.41047 0.703093 0
M  V30 6150 C 592.488 1.39723 1.4602 0
M  V30 6151 C 592.809 0.00461257 1.94999 0
M  V30 6152 O 592.079 -0.952292 1.71196 0
M  V30 6153 H 590.659 0.514281 0.541779 0
M  V30 6154 H 593.321 1.76217 0.832678 0
M  V30 6155 H 592.417 2.07982 2.32701 0
M  V30 6156 N 592.718 -0.936591 1.26751 0
M  V30 6157 C 593.943 -1.72288 1.15462 0
M  V30 6158 C 594.368 -1.85915 -0.285887 0
M  V30 6159 O 593.726 -1.35272 -1.20711 0
M  V30 6160 C 593.774 -3.10503 1.83359 0
M  V30 6161 O 592.878 -3.96745 1.1255 0
M  V30 6162 H 592.219 -0.52843 0.402067 0
M  V30 6163 H 594.749 -1.17271 1.67656 0
M  V30 6164 H 594.759 -3.60867 1.90365 0
M  V30 6165 H 593.434 -2.99901 2.88153 0
M  V30 6166 H 592.011 -3.55191 1.13551 0
M  V30 6167 N 594.196 -1.08629 -1.14182 0
M  V30 6168 C 595.426 -0.837673 -1.88856 0
M  V30 6169 C 595.834 0.614024 -1.78959 0
M  V30 6170 O 595.177 1.43384 -1.14833 0
M  V30 6171 C 595.239 -1.18355 -3.39459 0
M  V30 6172 C 594.903 -2.63848 -3.73139 0
M  V30 6173 C 595.9 -3.62099 -3.73069 0
M  V30 6174 C 593.585 -2.99761 -4.03049 0
M  V30 6175 C 595.579 -4.94292 -4.02435 0
M  V30 6176 C 593.266 -4.32147 -4.32078 0
M  V30 6177 C 594.264 -5.29223 -4.31755 0
M  V30 6178 O 593.952 -6.59229 -4.60079 0
M  V30 6179 H 593.684 -0.301609 -0.604986 0
M  V30 6180 H 596.238 -1.44961 -1.45518 0
M  V30 6181 H 594.468 -0.514628 -3.8326 0
M  V30 6182 H 596.157 -0.915391 -3.95443 0
M  V30 6183 H 596.923 -3.35698 -3.50046 0
M  V30 6184 H 592.802 -2.2484 -4.02453 0
M  V30 6185 H 596.346 -5.70055 -4.02098 0
M  V30 6186 H 592.243 -4.58296 -4.54571 0
M  V30 6187 H 593.011 -6.64578 -4.77785 0
M  V30 6188 N 595.674 1.31259 -0.872281 0
M  V30 6189 C 596.921 1.96622 -0.484365 0
M  V30 6190 C 597.249 1.68939 0.963841 0
M  V30 6191 O 596.504 0.97974 1.6941 0
M  V30 6192 C 596.803 3.50659 -0.690889 0
M  V30 6193 C 596.469 3.98366 -2.11224 0
M  V30 6194 C 595.131 4.11104 -2.50094 0
M  V30 6195 C 597.483 4.23425 -3.0391 0
M  V30 6196 C 594.811 4.46254 -3.80887 0
M  V30 6197 C 597.163 4.60039 -4.3422 0
M  V30 6198 C 595.827 4.70984 -4.73001 0
M  V30 6199 H 595.097 0.71949 -0.177242 0
M  V30 6200 H 597.744 1.56353 -1.10571 0
M  V30 6201 H 596.049 3.91798 0.0135782 0
M  V30 6202 H 597.746 3.99284 -0.370534 0
M  V30 6203 H 594.336 3.88949 -1.80047 0
M  V30 6204 H 598.52 4.13075 -2.75104 0
M  V30 6205 H 593.776 4.52926 -4.10692 0
M  V30 6206 H 597.95 4.78381 -5.06088 0
M  V30 6207 H 595.577 4.97977 -5.7439 0
M  V30 6208 N 597.152 0.631951 1.44375 0
M  V30 6209 C 598.085 -0.121822 2.27875 0
M  V30 6210 C 599.063 -0.850457 1.38586 0
M  V30 6211 O 600.247 -0.854378 1.68026 0
M  V30 6212 C 597.374 -1.17859 3.17533 0
M  V30 6213 C 596.42 -0.550391 4.22934 0
M  V30 6214 S 597.253 0.660145 5.31415 0
M  V30 6215 C 598.409 -0.396613 6.24642 0
M  V30 6216 H 598.642 0.586537 2.91457 0
M  V30 6217 H 596.175 0.420146 1.48574 0
M  V30 6218 H 598.133 -1.78335 3.69739 0
M  V30 6219 H 596.794 -1.85915 2.53169 0
M  V30 6220 H 595.987 -1.34631 4.85685 0
M  V30 6221 H 595.589 -0.0202306 3.73995 0
M  V30 6222 H 597.881 -1.26893 6.65511 0
M  V30 6223 H 598.824 0.195345 7.0783 0
M  V30 6224 H 599.232 -0.72288 5.59852 0
M  V30 6225 N 598.631 -1.53133 0.372548 0
M  V30 6226 C 599.861 -2.05476 -0.215202 0
M  V30 6227 C 600.269 -1.24534 -1.42436 0
M  V30 6228 O 599.612 -0.280771 -1.81542 0
M  V30 6229 C 599.674 -3.53276 -0.666068 0
M  V30 6230 C 599.338 -4.54998 0.427342 0
M  V30 6231 C 600.335 -5.03911 1.27944 0
M  V30 6232 C 598.02 -4.98828 0.589579 0
M  V30 6233 C 600.014 -5.95263 2.27905 0
M  V30 6234 C 597.701 -5.89984 1.59255 0
M  V30 6235 C 598.699 -6.38093 2.43571 0
M  V30 6236 O 598.387 -7.27451 3.42156 0
M  V30 6237 H 598.119 -0.67481 -0.040099 0
M  V30 6238 H 600.673 -1.98409 0.531312 0
M  V30 6239 H 598.903 -3.57904 -1.4643 0
M  V30 6240 H 600.592 -3.88442 -1.1776 0
M  V30 6241 H 601.358 -4.70792 1.16532 0
M  V30 6242 H 597.237 -4.60965 -0.0569456 0
M  V30 6243 H 600.781 -6.32736 2.93753 0
M  V30 6244 H 596.678 -6.22518 1.70711 0
M  V30 6245 H 597.446 -7.45467 3.37967 0
M  V30 6246 N 600.109 -0.101901 -1.5727 0
M  V30 6247 C 601.334 0.571759 -1.99363 0
M  V30 6248 C 601.759 1.60507 -0.980768 0
M  V30 6249 O 601.117 1.81231 0.0498517 0
M  V30 6250 C 601.165 1.18996 -3.404 0
M  V30 6251 O 600.269 2.30572 -3.41922 0
M  V30 6252 H 599.61 0.144449 -0.648098 0
M  V30 6253 H 602.14 -0.185325 -2.03759 0
M  V30 6254 H 602.15 1.52962 -3.78241 0
M  V30 6255 H 600.825 0.432984 -4.1364 0
M  V30 6256 H 599.402 1.98173 -3.15883 0
M  V30 6257 N 601.587 1.56661 0.17182 0
M  V30 6258 C 602.534 1.96371 1.21273 0
M  V30 6259 C 603.504 0.82756 1.44016 0
M  V30 6260 O 604.689 1.08764 1.56764 0
M  V30 6261 C 601.829 2.32838 2.54716 0
M  V30 6262 C 600.942 3.59628 2.39356 0
M  V30 6263 C 600.077 3.85311 3.65662 0
M  V30 6264 C 599.116 5.0545 3.45234 0
M  V30 6265 N 598.253 5.27268 4.63608 0
M  V30 6266 H 603.093 2.85106 0.86709 0
M  V30 6267 H 600.63 1.41073 0.416744 0
M  V30 6268 H 602.588 2.52004 3.3249 0
M  V30 6269 H 601.218 1.47214 2.87277 0
M  V30 6270 H 600.27 3.4838 1.52761 0
M  V30 6271 H 601.582 4.4756 2.20207 0
M  V30 6272 H 600.736 4.04841 4.51872 0
M  V30 6273 H 599.475 2.95753 3.8779 0
M  V30 6274 H 598.48 4.85819 2.5741 0
M  V30 6275 H 599.705 5.96538 3.24529 0
M  V30 6276 H 597.651 4.40662 4.85956 0
M  V30 6277 H 597.568 6.09422 4.4737 0
M  V30 6278 H 598.836 5.51277 5.51103 0
M  V30 6279 N 603.065 -0.440357 1.51323 0
M  V30 6280 C 603.995 -1.54174 1.75364 0
M  V30 6281 C 604.976 -1.59039 0.603375 0
M  V30 6282 O 606.161 -1.74815 0.845774 0
M  V30 6283 C 603.291 -2.92277 1.87593 0
M  V30 6284 C 602.245 -3.02274 3.03009 0
M  V30 6285 C 601.571 -4.42327 3.00418 0
M  V30 6286 C 602.871 -2.76634 4.43024 0
M  V30 6287 H 604.565 -1.34307 2.67585 0
M  V30 6288 H 602.111 -0.644678 1.28763 0
M  V30 6289 H 604.064 -3.69284 2.02995 0
M  V30 6290 H 602.788 -3.13369 0.920179 0
M  V30 6291 H 601.447 -2.27706 2.87307 0
M  V30 6292 H 601.095 -4.60382 2.02626 0
M  V30 6293 H 600.795 -4.49946 3.77918 0
M  V30 6294 H 602.319 -5.21312 3.17909 0
M  V30 6295 H 603.733 -3.43376 4.59093 0
M  V30 6296 H 602.13 -2.95666 5.22208 0
M  V30 6297 H 603.2 -1.72262 4.5327 0
M  V30 6298 N 604.543 -1.41418 -0.695603 0
M  V30 6299 C 605.959 -1.23887 -1.00619 0
M  V30 6300 C 606.159 -0.128206 -2.01092 0
M  V30 6301 O 605.215 0.507408 -2.47349 0
M  V30 6302 C 606.528 -2.58816 -1.53083 0
M  V30 6303 C 608.076 -2.65998 -1.64967 0
M  V30 6304 C 608.551 -4.01244 -2.20833 0
M  V30 6305 N 610.042 -4.0309 -2.28194 0
M  V30 6306 C 610.777 -5.04539 -2.72448 0
M  V30 6307 N 610.273 -6.16378 -3.16306 0
M  V30 6308 N 612.066 -4.91901 -2.72011 0
M  V30 6309 H 604.217 -2.12379 -0.0300061 0
M  V30 6310 H 606.48 -0.944958 -0.0758797 0
M  V30 6311 H 606.186 -3.40842 -0.867147 0
M  V30 6312 H 606.06 -2.81299 -2.51298 0
M  V30 6313 H 608.447 -1.84331 -2.30448 0
M  V30 6314 H 608.528 -2.47325 -0.652982 0
M  V30 6315 H 608.172 -4.83359 -1.55968 0
M  V30 6316 H 608.102 -4.17257 -3.21254 0
M  V30 6317 H 610.593 -3.22341 -1.97242 0
M  V30 6318 H 610.906 -6.89658 -3.487 0
M  V30 6319 H 609.251 -6.19914 -3.14215 0
M  V30 6320 H 612.442 -4.03613 -2.37095 0
M  V30 6321 H 612.615 -5.71102 -3.06181 0
M  V30 6322 N 606.021 0.929856 -1.27246 0
M  V30 6323 C 607.267 1.6798 -1.13625 0
M  V30 6324 C 607.6 1.91586 0.317589 0
M  V30 6325 O 606.875 1.50467 1.23247 0
M  V30 6326 C 607.158 3.04766 -1.91806 0
M  V30 6327 C 607.011 2.88415 -3.45162 0
M  V30 6328 C 608.33 4.05063 -1.72082 0
M  V30 6329 H 605.449 0.609632 -0.414147 0
M  V30 6330 H 608.091 1.0792 -1.56376 0
M  V30 6331 H 606.241 3.56034 -1.55474 0
M  V30 6332 H 607.913 2.44282 -3.91311 0
M  V30 6333 H 606.156 2.23802 -3.71611 0
M  V30 6334 H 606.827 3.85482 -3.95105 0
M  V30 6335 H 609.303 3.62798 -2.03757 0
M  V30 6336 H 608.179 4.98765 -2.29182 0
M  V30 6337 H 608.44 4.37021 -0.668206 0
M  V30 6338 N 607.499 1.09233 1.13605 0
M  V30 6339 C 608.409 0.741939 2.22559 0
M  V30 6340 C 609.425 -0.255236 1.72118 0
M  V30 6341 O 610.601 -0.0970747 2.01166 0
M  V30 6342 C 607.666 0.165595 3.46304 0
M  V30 6343 C 606.727 1.21846 4.11645 0
M  V30 6344 C 605.96 0.669526 5.29484 0
M  V30 6345 O 606.183 -0.508228 5.68131 0
M  V30 6346 O 605.117 1.42361 5.84822 0
M  V30 6347 H 608.943 1.65107 2.54899 0
M  V30 6348 H 606.528 0.866584 1.21699 0
M  V30 6349 H 608.41 -0.152592 4.21124 0
M  V30 6350 H 607.085 -0.716573 3.15669 0
M  V30 6351 H 605.992 1.58931 3.38662 0
M  V30 6352 H 607.325 2.07321 4.46407 0
M  V30 6353 N 608.977 -1.30795 0.87923 0
M  V30 6354 C 609.924 -2.28282 0.339968 0
M  V30 6355 C 610.894 -1.56134 -0.566685 0
M  V30 6356 O 612.079 -1.84231 -0.496338 0
M  V30 6357 C 609.219 -3.42225 -0.444501 0
M  V30 6358 C 608.332 -4.29204 0.490717 0
M  V30 6359 C 607.467 -5.30302 -0.308784 0
M  V30 6360 C 606.506 -6.08929 0.622272 0
M  V30 6361 N 605.643 -7.01957 -0.14155 0
M  V30 6362 H 610.483 -2.73794 1.17647 0
M  V30 6363 H 608.02 -1.34682 0.591527 0
M  V30 6364 H 609.978 -4.07038 -0.915186 0
M  V30 6365 H 608.608 -2.97799 -1.24562 0
M  V30 6366 H 607.66 -3.6475 1.07988 0
M  V30 6367 H 608.972 -4.84045 1.20425 0
M  V30 6368 H 608.126 -6.00835 -0.841575 0
M  V30 6369 H 606.865 -4.7614 -1.05556 0
M  V30 6370 H 605.87 -5.37278 1.16674 0
M  V30 6371 H 607.095 -6.65178 1.36804 0
M  V30 6372 H 605.041 -6.50192 -0.870966 0
M  V30 6373 H 604.958 -7.54261 0.51246 0
M  V30 6374 H 606.226 -7.76741 -0.655271 0
M  V30 6375 N 610.455 -0.639598 -1.44038 0
M  V30 6376 C 611.402 0.0602458 -2.30721 0
M  V30 6377 C 612.372 0.828352 -1.43971 0
M  V30 6378 O 613.557 0.807693 -1.72861 0
M  V30 6379 C 610.697 1.03008 -3.29368 0
M  V30 6380 C 609.81 0.259502 -4.3122 0
M  V30 6381 C 608.945 1.22191 -5.16955 0
M  V30 6382 C 607.984 0.440978 -6.10509 0
M  V30 6383 N 607.121 1.35428 -6.88915 0
M  V30 6384 H 611.961 -0.684867 -2.90023 0
M  V30 6385 H 609.498 -0.349509 -1.42888 0
M  V30 6386 H 611.456 1.60583 -3.85057 0
M  V30 6387 H 610.086 1.74222 -2.71747 0
M  V30 6388 H 609.138 -0.432317 -3.77935 0
M  V30 6389 H 610.45 -0.348347 -4.97582 0
M  V30 6390 H 609.604 1.86873 -5.77203 0
M  V30 6391 H 608.343 1.86367 -4.50687 0
M  V30 6392 H 607.348 -0.219279 -5.49363 0
M  V30 6393 H 608.573 -0.196192 -6.78817 0
M  V30 6394 H 606.519 1.9831 -6.25307 0
M  V30 6395 H 606.436 0.800657 -7.51748 0
M  V30 6396 H 607.704 1.98967 -7.53679 0
M  V30 6397 N 611.933 1.52934 -0.380664 0
M  V30 6398 C 612.881 2.27727 0.47361 0
M  V30 6399 C 613.875 1.31288 1.0705 0
M  V30 6400 O 615.081 1.4886 1.01197 0
M  V30 6401 H 611.456 0.732189 0.171475 0
M  V30 6402 H 613.427 2.97864 -0.178785 0
M  V30 6403 C 612.176 3.0904 1.59341 0
M  V30 6404 H 611.499 3.831 1.14343 0
M  V30 6405 H 612.939 3.64527 2.16555 0
M  V30 6406 C 611.398 2.20813 2.54447 0
M  V30 6407 O 611.928 1.82907 3.57642 0
M  V30 6408 N 610.134 1.85145 2.23986 0
M  V30 6409 H 609.681 2.16169 1.40103 0
M  V30 6410 H 609.639 1.26402 2.87871 0
M  V30 6411 N 613.412 0.11024 1.57214 0
M  V30 6412 C 614.658 -0.544479 1.95977 0
M  V30 6413 C 615.013 -1.64845 0.992171 0
M  V30 6414 O 614.306 -1.91589 0.0206981 0
M  V30 6415 C 614.5 -1.13102 3.39032 0
M  V30 6416 C 614.329 -0.0854079 4.49619 0
M  V30 6417 C 613.099 0.343373 5.04132 0
M  V30 6418 C 615.297 0.692232 5.0962 0
M  V30 6419 N 613.279 1.37567 5.98288 0
M  V30 6420 C 614.65 1.57596 5.99636 0
M  V30 6421 C 616.705 0.744085 4.92309 0
M  V30 6422 C 615.408 2.50701 6.74197 0
M  V30 6423 C 617.434 1.6628 5.67543 0
M  V30 6424 C 616.796 2.53412 6.57238 0
M  V30 6425 H 612.895 -0.169124 0.763493 0
M  V30 6426 H 615.479 0.196326 1.93708 0
M  V30 6427 H 613.65 -1.84158 3.41965 0
M  V30 6428 H 615.382 -1.74934 3.64939 0
M  V30 6429 H 612.137 -0.0473277 4.73576 0
M  V30 6430 H 612.561 1.89048 6.50069 0
M  V30 6431 H 617.203 0.0845825 4.22715 0
M  V30 6432 H 614.921 3.17669 7.43043 0
M  V30 6433 H 618.507 1.70825 5.56156 0
M  V30 6434 H 617.387 3.23347 7.14434 0
M  V30 6435 N 614.89 -1.56749 -0.16351 0
M  V30 6436 C 616.136 -1.82704 -0.880168 0
M  V30 6437 C 616.469 -0.689311 -1.81555 0
M  V30 6438 O 615.744 0.308224 -1.92042 0
M  V30 6439 C 616.027 -3.19084 -1.66905 0
M  V30 6440 C 615.88 -4.43397 -0.756269 0
M  V30 6441 C 617.199 -3.52493 -2.63509 0
M  V30 6442 H 614.318 -0.664608 -0.318535 0
M  V30 6443 H 616.96 -1.89438 -0.146036 0
M  V30 6444 H 615.11 -3.13475 -2.2949 0
M  V30 6445 H 616.782 -4.61079 -0.14269 0
M  V30 6446 H 615.025 -4.33752 -0.0647944 0
M  V30 6447 H 615.696 -5.3539 -1.34393 0
M  V30 6448 H 618.172 -3.58606 -2.11047 0
M  V30 6449 H 617.048 -4.48979 -3.15767 0
M  V30 6450 H 617.309 -2.77597 -3.44082 0
M  V30 6451 N 616.368 0.432326 -1.51554 0
M  V30 6452 C 617.278 1.55023 -1.76082 0
M  V30 6453 C 618.294 1.61593 -0.645265 0
M  V30 6454 O 619.47 1.78742 -0.928086 0
M  V30 6455 C 616.535 2.90964 -1.88523 0
M  V30 6456 C 615.596 2.9447 -3.12388 0
M  V30 6457 C 614.829 4.23926 -3.24225 0
M  V30 6458 O 615.052 5.16576 -2.4188 0
M  V30 6459 O 613.986 4.33818 -4.17235 0
M  V30 6460 H 617.812 1.37238 -2.70923 0
M  V30 6461 H 615.397 0.615845 -1.36117 0
M  V30 6462 H 617.279 3.71633 -1.98662 0
M  V30 6463 H 615.954 3.08865 -0.9687 0
M  V30 6464 H 614.861 2.12737 -3.07723 0
M  V30 6465 H 616.194 2.81514 -4.03746 0
M  V30 6466 N 617.846 1.41785 0.688094 0
M  V30 6467 C 619.262 1.24419 0.999608 0
M  V30 6468 C 619.462 0.138868 2.01021 0
M  V30 6469 O 618.518 -0.494283 2.47615 0
M  V30 6470 C 619.831 2.59625 1.51709 0
M  V30 6471 C 621.379 2.66869 1.63554 0
M  V30 6472 C 621.854 4.0241 2.18702 0
M  V30 6473 N 623.345 4.04295 2.26053 0
M  V30 6474 C 624.08 5.05977 2.69768 0
M  V30 6475 N 623.576 6.18047 3.13033 0
M  V30 6476 N 625.369 4.93336 2.69398 0
M  V30 6477 H 617.52 2.12392 0.0187427 0
M  V30 6478 H 619.783 0.945347 0.0708673 0
M  V30 6479 H 619.489 3.41297 0.849059 0
M  V30 6480 H 619.363 2.82628 2.49803 0
M  V30 6481 H 621.75 1.8555 2.29467 0
M  V30 6482 H 621.831 2.47668 0.639857 0
M  V30 6483 H 621.475 4.8418 1.53402 0
M  V30 6484 H 621.405 4.18955 3.19037 0
M  V30 6485 H 623.896 3.23383 1.9553 0
M  V30 6486 H 624.209 6.91498 3.45038 0
M  V30 6487 H 622.554 6.21572 3.10923 0
M  V30 6488 H 625.745 4.04865 2.34952 0
M  V30 6489 H 625.918 5.72717 3.03148 0
M  V30 6490 N 619.324 -0.923095 1.27737 0
M  V30 6491 C 620.272 -2.04567 1.10703 0
M  V30 6492 C 621.266 -1.69375 0.0288445 0
M  V30 6493 O 622.472 -1.79027 0.186913 0
M  V30 6494 H 618.847 -0.670109 0.34126 0
M  V30 6495 H 620.818 -2.1608 2.05796 0
M  V30 6496 C 619.567 -3.38934 0.775837 0
M  V30 6497 H 618.89 -3.66501 1.59741 0
M  V30 6498 H 620.33 -4.18239 0.696548 0
M  V30 6499 C 618.789 -3.32863 -0.520012 0
M  V30 6500 O 619.319 -3.70462 -1.55308 0
M  V30 6501 N 617.525 -2.85958 -0.51732 0
M  V30 6502 H 617.072 -2.55557 0.32379 0
M  V30 6503 H 617.03 -2.82279 -1.38441 0
M  V30 6504 N 620.802 -1.09834 -1.13024 0
M  V30 6505 C 622.027 -0.85909 -1.88771 0
M  V30 6506 C 622.452 0.584402 -1.78791 0
M  V30 6507 O 621.81 1.41101 -1.13842 0
M  V30 6508 C 621.858 -1.30427 -3.36186 0
M  V30 6509 O 620.962 -0.465368 -4.09766 0
M  V30 6510 H 620.303 -0.310786 -0.586778 0
M  V30 6511 H 622.833 -1.46355 -1.42973 0
M  V30 6512 H 622.843 -1.2915 -3.8702 0
M  V30 6513 H 621.518 -2.3555 -3.42767 0
M  V30 6514 H 620.095 -0.542814 -3.68928 0
M  V30 6515 N 622.28 1.30327 -0.886154 0
M  V30 6516 C 623.51 1.99964 -0.519421 0
M  V30 6517 C 623.918 1.66593 0.89686 0
M  V30 6518 O 623.261 0.899886 1.60149 0
M  V30 6519 C 623.323 3.54187 -0.615795 0
M  V30 6520 C 622.987 4.11078 -1.9966 0
M  V30 6521 C 623.984 4.26985 -2.96614 0
M  V30 6522 C 621.669 4.46429 -2.30231 0
M  V30 6523 C 623.663 4.77456 -4.22273 0
M  V30 6524 C 621.35 4.966 -3.56135 0
M  V30 6525 C 622.348 5.12066 -4.5197 0
M  V30 6526 O 622.036 5.61154 -5.7564 0
M  V30 6527 H 621.768 0.645979 -0.199217 0
M  V30 6528 H 624.322 1.67154 -1.19368 0
M  V30 6529 H 622.552 3.86528 0.115448 0
M  V30 6530 H 624.241 4.05065 -0.26017 0
M  V30 6531 H 625.007 3.99975 -2.74308 0
M  V30 6532 H 620.886 4.33658 -1.56404 0
M  V30 6533 H 624.43 4.89444 -4.97082 0
M  V30 6534 H 620.327 5.23045 -3.78277 0
M  V30 6535 H 621.095 5.79494 -5.78039 0
M  V30 6536 N 623.758 0.647228 1.43697 0
M  V30 6537 C 624.983 0.164083 2.0675 0
M  V30 6538 C 625.408 -1.15892 1.48158 0
M  V30 6539 O 624.766 -1.71459 0.589194 0
M  V30 6540 C 624.814 0.0800368 3.60511 0
M  V30 6541 O 623.918 -0.959453 4.01084 0
M  V30 6542 H 623.259 0.0921288 0.657578 0
M  V30 6543 H 625.789 0.88846 1.84303 0
M  V30 6544 H 625.799 -0.105263 4.07864 0
M  V30 6545 H 624.474 1.04586 4.02535 0
M  V30 6546 H 623.051 -0.747425 3.65333 0
M  V30 6547 N 625.236 -1.5273 0.388769 0
M  V30 6548 C 626.476 -2.03483 -0.193372 0
M  V30 6549 C 626.84 -1.26897 -1.44087 0
M  V30 6550 O 628.041 -1.67773 -2.10014 0
M  V30 6551 C 626.312 -3.54488 -0.455325 0
M  V30 6552 S 627.871 -4.27069 -1.00783 0
M  V30 6553 H 624.689 -0.708907 -0.0545131 0
M  V30 6554 H 627.291 -1.8798 0.536993 0
M  V30 6555 H 625.995 -4.07817 0.459722 0
M  V30 6556 H 625.526 -3.74196 -1.21413 0
M  V30 6557 H 627.541 -4.40185 -2.29023 0
M  V30 6558 N 626.714 -0.118576 -1.57153 0
M  V30 6559 C 627.939 0.550582 -1.99958 0
M  V30 6560 C 628.364 1.59458 -0.997736 0
M  V30 6561 O 627.722 1.81274 0.0306269 0
M  V30 6562 C 627.77 1.15379 -3.41643 0
M  V30 6563 O 626.874 2.26932 -3.44348 0
M  V30 6564 H 626.215 0.137567 -0.649593 0
M  V30 6565 H 628.745 -0.206926 -2.03551 0
M  V30 6566 H 628.755 1.48942 -3.79843 0
M  V30 6567 H 627.43 0.389087 -4.14076 0
M  V30 6568 H 626.007 1.94812 -3.17967 0
M  V30 6569 N 628.193 1.56834 0.155195 0
M  V30 6570 C 629.439 1.83169 0.870467 0
M  V30 6571 C 629.772 0.698929 1.81187 0
M  V30 6572 O 629.047 -0.298035 1.92203 0
M  V30 6573 C 629.33 3.19965 1.65211 0
M  V30 6574 C 629.183 4.43792 0.732744 0
M  V30 6575 C 630.502 3.53885 2.61636 0
M  V30 6576 H 627.621 0.666288 0.315006 0
M  V30 6577 H 630.263 1.89513 0.135988 0
M  V30 6578 H 628.413 3.14687 2.27825 0
M  V30 6579 H 630.085 4.61148 0.118236 0
M  V30 6580 H 628.328 4.3378 0.0417906 0
M  V30 6581 H 628.999 5.36095 1.31552 0
M  V30 6582 H 631.475 3.5972 2.09143 0
M  V30 6583 H 630.351 4.50648 3.13381 0
M  V30 6584 H 630.612 2.79418 3.42605 0
M  V30 6585 N 629.671 -0.424282 1.51781 0
M  V30 6586 C 630.917 -1.17434 1.6534 0
M  V30 6587 C 631.25 -1.90549 0.374806 0
M  V30 6588 O 630.525 -1.84145 -0.626179 0
M  V30 6589 C 630.808 -2.18093 2.86544 0
M  V30 6590 C 630.661 -1.48975 4.24413 0
M  V30 6591 C 631.98 -3.18934 3.03264 0
M  V30 6592 H 629.099 -0.425566 0.601716 0
M  V30 6593 H 631.741 -0.461921 1.84299 0
M  V30 6594 H 629.891 -2.78849 2.7051 0
M  V30 6595 H 631.563 -0.914551 4.52143 0
M  V30 6596 H 629.806 -0.791893 4.26511 0
M  V30 6597 H 630.477 -2.22347 5.05238 0
M  V30 6598 H 632.953 -2.68243 3.18096 0
M  V30 6599 H 631.829 -3.86645 3.89611 0
M  V30 6600 H 632.09 -3.85793 2.15908 0
M  V30 6601 N 631.149 -1.42148 -0.680565 0
M  V30 6602 C 632.099 -1.41634 -1.78672 0
M  V30 6603 C 633.083 -0.288494 -1.58293 0
M  V30 6604 O 634.275 -0.530295 -1.68869 0
M  V30 6605 C 631.404 -1.31558 -3.17092 0
M  V30 6606 C 630.49 -2.49265 -3.43115 0
M  V30 6607 N 630.881 -3.74702 -3.39753 0
M  V30 6608 C 629.179 -2.43401 -3.73727 0
M  V30 6609 C 629.88 -4.52854 -3.651 0
M  V30 6610 N 628.856 -3.83181 -3.85582 0
M  V30 6611 H 632.658 -2.3652 -1.74458 0
M  V30 6612 H 630.172 -1.36415 -0.881171 0
M  V30 6613 H 632.169 -1.29272 -3.96351 0
M  V30 6614 H 630.829 -0.376696 -3.22508 0
M  V30 6615 H 631.84 -4.07378 -3.19787 0
M  V30 6616 H 628.517 -1.58062 -3.86423 0
M  V30 6617 H 629.907 -5.61827 -3.6851 0
M  V30 6618 N 632.627 0.916307 -1.28225 0
M  V30 6619 C 633.537 2.05165 -1.13775 0
M  V30 6620 C 634.553 1.73879 -0.0649418 0
M  V30 6621 O 635.729 1.99531 -0.273722 0
M  V30 6622 C 632.794 3.37385 -0.798267 0
M  V30 6623 C 631.855 3.82296 -1.95316 0
M  V30 6624 C 631.088 5.08206 -1.62978 0
M  V30 6625 O 631.311 5.6781 -0.542948 0
M  V30 6626 O 630.245 5.48768 -2.47261 0
M  V30 6627 H 634.071 2.20273 -2.09078 0
M  V30 6628 H 631.656 1.0373 -1.07519 0
M  V30 6629 H 633.538 4.16773 -0.62278 0
M  V30 6630 H 632.213 3.23458 0.125139 0
M  V30 6631 H 631.12 3.03746 -2.18378 0
M  V30 6632 H 632.453 4.00782 -2.85718 0
M  V30 6633 N 634.105 1.10431 1.1244 0
M  V30 6634 C 635.353 0.845045 1.83585 0
M  V30 6635 C 635.674 -0.631168 1.84503 0
M  V30 6636 O 634.944 -1.45825 1.30813 0
M  V30 6637 H 633.524 0.309628 0.679809 0
M  V30 6638 H 636.186 1.39458 1.36153 0
M  V30 6639 H 635.282 1.20786 2.8778 0
M  V30 6640 N 635.583 -1.29855 0.893053 0
M  V30 6641 C 636.513 -2.3035 0.382249 0
M  V30 6642 C 637.494 -1.61328 -0.539203 0
M  V30 6643 O 638.679 -1.88882 -0.451342 0
M  V30 6644 C 635.809 -3.45024 -0.396983 0
M  V30 6645 C 634.763 -4.258 0.433437 0
M  V30 6646 C 634.089 -5.32605 -0.472889 0
M  V30 6647 C 635.389 -4.94549 1.67984 0
M  V30 6648 H 637.083 -2.73325 1.22205 0
M  V30 6649 H 634.629 -1.314 0.589073 0
M  V30 6650 H 636.582 -4.14398 -0.765024 0
M  V30 6651 H 635.306 -3.00875 -1.2705 0
M  V30 6652 H 633.965 -3.58125 0.783723 0
M  V30 6653 H 633.613 -4.84702 -1.34435 0
M  V30 6654 H 633.313 -5.87547 0.0789958 0
M  V30 6655 H 634.837 -6.04832 -0.837269 0
M  V30 6656 H 636.251 -5.56395 1.38192 0
M  V30 6657 H 634.648 -5.59393 2.17254 0
M  V30 6658 H 635.718 -4.20215 2.41965 0
M  V30 6659 N 637.061 -0.65484 -1.43351 0
M  V30 6660 C 638.011 0.0581325 -2.27926 0
M  V30 6661 C 638.995 0.793188 -1.3999 0
M  V30 6662 O 640.187 0.675387 -1.63608 0
M  V30 6663 C 637.316 1.02272 -3.27712 0
M  V30 6664 C 636.402 0.286048 -4.23134 0
M  V30 6665 N 636.793 -0.698298 -5.00957 0
M  V30 6666 C 635.091 0.527272 -4.42872 0
M  V30 6667 C 635.792 -1.1357 -5.70506 0
M  V30 6668 N 634.768 -0.469631 -5.41568 0
M  V30 6669 H 638.57 -0.697182 -2.85511 0
M  V30 6670 H 636.084 -0.482252 -1.55074 0
M  V30 6671 H 638.081 1.5483 -3.87083 0
M  V30 6672 H 636.741 1.77807 -2.71688 0
M  V30 6673 H 637.752 -1.07708 -5.06576 0
M  V30 6674 H 634.429 1.26367 -3.97916 0
M  V30 6675 H 635.819 -1.95027 -6.42973 0
M  V30 6676 N 638.539 1.52521 -0.396863 0
M  V30 6677 C 639.487 2.28217 0.44943 0
M  V30 6678 C 640.481 1.32416 1.05652 0
M  V30 6679 O 641.687 1.49925 0.996124 0
M  V30 6680 H 638.062 0.733966 0.1637 0
M  V30 6681 H 640.033 2.97658 -0.210367 0
M  V30 6682 C 638.782 3.10713 1.56054 0
M  V30 6683 H 638.105 3.84291 1.10273 0
M  V30 6684 H 639.545 3.66803 2.12677 0
M  V30 6685 C 638.004 2.23499 2.52091 0
M  V30 6686 O 638.534 1.8669 3.55682 0
M  V30 6687 N 636.74 1.8751 2.2201 0
M  V30 6688 H 636.287 2.17643 1.37802 0
M  V30 6689 H 636.245 1.29448 2.86514 0
M  V30 6690 N 640.017 0.126909 1.57088 0
M  V30 6691 C 640.967 -0.831678 2.1229 0
M  V30 6692 C 641.951 -1.22292 1.04564 0
M  V30 6693 O 643.143 -1.19269 1.30782 0
M  V30 6694 C 640.272 -2.07866 2.73215 0
M  V30 6695 C 639.358 -1.71143 3.88035 0
M  V30 6696 N 639.749 -1.05136 4.94753 0
M  V30 6697 C 638.047 -2.00549 3.98367 0
M  V30 6698 C 638.748 -0.877257 5.75047 0
M  V30 6699 N 637.724 -1.40477 5.25135 0
M  V30 6700 H 641.526 -0.317926 2.92175 0
M  V30 6701 H 639.04 -0.0753052 1.62225 0
M  V30 6702 H 641.037 -2.77516 3.11111 0
M  V30 6703 H 639.697 -2.59778 1.94796 0
M  V30 6704 H 640.708 -0.71442 5.12949 0
M  V30 6705 H 637.385 -2.54452 3.30999 0
M  V30 6706 H 638.775 -0.358536 6.70943 0
M  V30 6707 N 641.495 -1.56914 -0.146875 0
M  V30 6708 C 642.445 -1.94693 -1.18653 0
M  V30 6709 C 643.429 -0.81821 -1.38543 0
M  V30 6710 O 644.621 -1.08167 -1.40103 0
M  V30 6711 C 641.75 -2.33117 -2.52014 0
M  V30 6712 C 640.836 -3.5256 -2.35717 0
M  V30 6713 N 641.227 -4.69091 -1.89175 0
M  V30 6714 C 639.525 -3.57647 -2.66467 0
M  V30 6715 C 640.226 -5.51187 -1.85924 0
M  V30 6716 N 639.202 -4.92899 -2.29242 0
M  V30 6717 H 643.004 -2.82264 -0.81879 0
M  V30 6718 H 640.518 -1.58474 -0.354929 0
M  V30 6719 H 642.515 -2.58387 -3.27172 0
M  V30 6720 H 641.175 -1.46898 -2.89571 0
M  V30 6721 H 642.186 -4.92844 -1.59139 0
M  V30 6722 H 638.863 -2.81967 -3.07898 0
M  V30 6723 H 640.253 -6.54613 -1.51431 0
M  V30 6724 N 642.974 0.416227 -1.52004 0
M  V30 6725 C 644.202 1.18573 -1.69553 0
M  V30 6726 C 644.617 1.84472 -0.401919 0
M  V30 6727 O 643.974 1.71593 0.621463 0
M  V30 6728 C 644.025 2.25413 -2.82615 0
M  V30 6729 O 643.746 1.62205 -4.06966 0
M  V30 6730 C 645.247 3.15297 -3.11613 0
M  V30 6731 H 642.467 0.356582 -0.56841 0
M  V30 6732 H 645.011 0.490618 -1.98528 0
M  V30 6733 H 643.166 2.90604 -2.56179 0
M  V30 6734 H 643.58 2.3298 -4.69916 0
M  V30 6735 H 645.054 3.86351 -3.94255 0
M  V30 6736 H 645.531 3.77264 -2.24874 0
M  V30 6737 H 646.137 2.55783 -3.39787 0
M  V30 6738 N 644.452 1.42507 0.673017 0
M  V30 6739 C 645.68 1.46473 1.46128 0
M  V30 6740 C 646.095 0.0765912 1.88645 0
M  V30 6741 O 645.452 -0.909057 1.58248 0
M  V30 6742 C 645.503 2.39339 2.70923 0
M  V30 6743 O 645.224 3.72752 2.3019 0
M  V30 6744 C 646.725 2.52343 3.64469 0
M  V30 6745 H 643.945 0.49812 0.449575 0
M  V30 6746 H 646.489 1.87041 0.826802 0
M  V30 6747 H 644.644 2.02019 3.30556 0
M  V30 6748 H 645.058 4.22503 3.10791 0
M  V30 6749 H 646.532 3.2144 4.48754 0
M  V30 6750 H 647.009 1.56189 4.1049 0
M  V30 6751 H 647.615 2.90392 3.10729 0
M  V30 6752 N 645.93 -0.909495 1.28709 0
M  V30 6753 C 646.877 -2.01245 1.13 0
M  V30 6754 C 647.847 -1.6608 0.0259684 0
M  V30 6755 O 649.032 -1.89835 0.191687 0
M  V30 6756 C 646.172 -3.35644 0.802315 0
M  V30 6757 C 645.285 -3.83653 1.98582 0
M  V30 6758 C 644.42 -5.06582 1.59837 0
M  V30 6759 C 643.459 -5.46934 2.74827 0
M  V30 6760 N 642.596 -6.61053 2.36546 0
M  V30 6761 H 647.436 -2.14013 2.0737 0
M  V30 6762 H 644.973 -1.0482 1.03205 0
M  V30 6763 H 646.931 -4.12963 0.593057 0
M  V30 6764 H 645.561 -3.22631 -0.104457 0
M  V30 6765 H 644.613 -3.02454 2.30708 0
M  V30 6766 H 645.925 -4.09515 2.84779 0
M  V30 6767 H 645.079 -5.91457 1.35143 0
M  V30 6768 H 643.818 -4.82537 0.707753 0
M  V30 6769 H 642.823 -4.60599 3.00215 0
M  V30 6770 H 644.048 -5.72965 3.64538 0
M  V30 6771 H 641.994 -6.3863 1.49959 0
M  V30 6772 H 641.911 -6.86662 3.16277 0
M  V30 6773 H 643.179 -7.49221 2.15146 0
M  V30 6774 N 647.408 -1.11026 -1.11852 0
M  V30 6775 C 648.633 -0.879064 -1.87849 0
M  V30 6776 C 649.058 0.565406 -1.79401 0
M  V30 6777 O 648.416 1.39886 -1.15333 0
M  V30 6778 C 648.464 -1.33985 -3.34784 0
M  V30 6779 O 647.568 -0.508803 -4.09249 0
M  V30 6780 H 646.909 -0.316992 -0.583448 0
M  V30 6781 H 649.439 -1.47863 -1.41413 0
M  V30 6782 H 649.449 -1.33248 -3.85628 0
M  V30 6783 H 648.124 -2.39172 -3.40249 0
M  V30 6784 H 646.701 -0.581913 -3.68332 0
M  V30 6785 N 648.886 1.2938 -0.899927 0
M  V30 6786 C 650.133 1.9555 -0.525963 0
M  V30 6787 C 650.461 1.70945 0.927789 0
M  V30 6788 O 649.716 1.01545 1.67293 0
M  V30 6789 C 650.015 3.49114 -0.765113 0
M  V30 6790 C 649.681 3.93796 -2.19626 0
M  V30 6791 C 648.343 4.05707 -2.58758 0
M  V30 6792 C 650.695 4.16883 -3.12823 0
M  V30 6793 C 648.023 4.38074 -3.90267 0
M  V30 6794 C 650.375 4.50725 -4.4388 0
M  V30 6795 C 649.039 4.60845 -4.82885 0
M  V30 6796 H 648.309 0.715569 -0.192463 0
M  V30 6797 H 650.956 1.53972 -1.13863 0
M  V30 6798 H 649.261 3.91738 -0.069531 0
M  V30 6799 H 650.958 3.98409 -0.455144 0
M  V30 6800 H 647.548 3.85042 -1.88256 0
M  V30 6801 H 651.732 4.07147 -2.83804 0
M  V30 6802 H 646.988 4.44112 -4.20207 0
M  V30 6803 H 651.162 4.67538 -5.16121 0
M  V30 6804 H 648.789 4.85681 -5.84823 0
M  V30 6805 N 650.364 0.662433 1.43002 0
M  V30 6806 C 651.589 0.186003 2.06564 0
M  V30 6807 C 652.014 -1.14314 1.49379 0
M  V30 6808 O 651.372 -1.70824 0.607346 0
M  V30 6809 C 651.42 0.118269 3.60406 0
M  V30 6810 O 650.524 -0.916859 4.02079 0
M  V30 6811 H 649.865 0.0990981 0.656563 0
M  V30 6812 H 652.395 0.907958 1.8335 0
M  V30 6813 H 652.405 -0.0619981 4.07953 0
M  V30 6814 H 651.08 1.08849 4.01403 0
M  V30 6815 H 649.657 -0.708635 3.66105 0
M  V30 6816 N 651.842 -1.52309 0.404946 0
M  V30 6817 C 653.258 -1.59503 0.0556255 0
M  V30 6818 C 653.458 -1.41805 -1.43156 0
M  V30 6819 O 652.514 -1.2429 -2.19792 0
M  V30 6820 C 653.827 -2.95687 0.546801 0
M  V30 6821 C 655.375 -3.08909 0.504413 0
M  V30 6822 C 655.85 -4.47566 0.97203 0
M  V30 6823 N 657.341 -4.53795 0.928679 0
M  V30 6824 C 658.076 -5.59346 1.26174 0
M  V30 6825 N 657.572 -6.72469 1.66604 0
M  V30 6826 N 659.365 -5.49532 1.18198 0
M  V30 6827 H 651.516 -1.6206 1.37296 0
M  V30 6828 H 653.779 -0.762161 0.563751 0
M  V30 6829 H 653.485 -3.13905 1.58609 0
M  V30 6830 H 653.359 -3.77172 -0.0457905 0
M  V30 6831 H 655.746 -2.90378 -0.525819 0
M  V30 6832 H 655.827 -2.2934 1.13301 0
M  V30 6833 H 655.471 -4.6684 2.00057 0
M  V30 6834 H 655.401 -5.25625 0.320292 0
M  V30 6835 H 657.892 -3.72588 0.631369 0
M  V30 6836 H 658.205 -7.48993 1.9034 0
M  V30 6837 H 656.55 -6.73761 1.70504 0
M  V30 6838 H 659.741 -4.60038 0.865011 0
M  V30 6839 H 659.914 -6.31687 1.44485 0
M  V30 6840 O 653.359 -0.275866 -1.59126 0
M  V30 6841 H 654.05 0.293949 -1.91457 0
M  V30 END ATOM
M  V30 BEGIN BOND
M  V30 END BOND
M  V30 END CTAB
M  END
$$$$
