drugbank_drug|DB00019  Pegfilgrastim sequence
 OpenBabel12092119123D

  0  0  0     0  0            999 V3000
M  V30 BEGIN CTAB
M  V30 COUNTS 2659 2689 0 0 0
M  V30 BEGIN ATOM
M  V30 1 H -0.908 1.98254 -0.117106 0
M  V30 2 N 0 1.576 0 0
M  V30 3 C 0.933 2.03868 1.02534 0
M  V30 4 C 1.911 0.928543 1.3348 0
M  V30 5 O 3.095 1.19667 1.45644 0
M  V30 6 C 0.222 2.43627 2.35294 0
M  V30 7 C -0.732 3.65373 2.2001 0
M  V30 8 S 0.101 5.13292 1.52614 0
M  V30 9 C 1.257 5.56322 2.86805 0
M  V30 10 H 1.49 2.90518 0.631377 0
M  V30 11 H -0.977 1.52953 0.210867 0
M  V30 12 H 0.981 2.67203 3.11629 0
M  V30 13 H -0.358 1.57376 2.7183 0
M  V30 14 H -1.165 3.90944 3.18086 0
M  V30 15 H -1.563 3.418 1.51819 0
M  V30 16 H 0.729 5.58782 3.83104 0
M  V30 17 H 1.672 6.56266 2.65933 0
M  V30 18 H 2.08 4.83886 2.90714 0
M  V30 19 N 1.4781 -0.272755 1.55222 0
M  V30 20 C 2.7061 -1.02255 1.79865 0
M  V30 21 C 3.1211 -1.79924 0.572088 0
M  V30 22 O 2.4781 -1.76638 -0.458842 0
M  V30 23 C 2.5291 -1.98094 3.02392 0
M  V30 24 O 2.2501 -1.23572 4.20311 0
M  V30 25 C 3.7511 -2.84884 3.39641 0
M  V30 26 H 0.9711 -0.302057 0.599168 0
M  V30 27 H 3.5151 -0.303465 2.02236 0
M  V30 28 H 1.6701 -2.65465 2.82147 0
M  V30 29 H 2.0841 -1.88172 4.89583 0
M  V30 30 H 3.5581 -3.47927 4.28545 0
M  V30 31 H 4.0351 -3.54665 2.59055 0
M  V30 32 H 4.6411 -2.23003 3.62146 0
M  V30 33 N 2.9562 -1.48159 -0.537278 0
M  V30 34 C 4.3672 -1.49429 -1.11928 0
M  V30 35 C 4.7182 -0.26 -1.9447 0
M  V30 36 O 3.8432 0.633489 -2.0692 0
M  V30 37 C 4.4382 -2.70758 -2.03656 0
M  V30 38 C 2.9972 -2.74923 -2.57088 0
M  V30 39 C 2.1442 -2.42835 -1.3389 0
M  V30 40 H 5.0952 -1.55381 -0.322886 0
M  V30 41 H 5.1162 -2.48861 -2.87834 0
M  V30 42 H 4.6282 -3.60575 -1.43553 0
M  V30 43 H 2.7292 -1.89296 -3.20933 0
M  V30 44 H 2.8422 -3.76157 -2.9672 0
M  V30 45 H 1.2062 -1.93836 -1.65226 0
M  V30 46 H 1.9892 -3.34884 -0.755504 0
M  V30 47 N 4.4343 0.785586 -1.36625 0
M  V30 48 C 5.3643 1.91259 -1.33949 0
M  V30 49 C 6.3453 1.68795 -0.210325 0
M  V30 50 O 7.5303 1.89854 -0.408561 0
M  V30 51 C 4.6603 3.28339 -1.13186 0
M  V30 52 C 3.6143 3.65335 -2.22967 0
M  V30 53 C 2.9403 5.00806 -1.87342 0
M  V30 54 C 4.2403 3.7352 -3.65075 0
M  V30 55 H 5.9343 1.93755 -2.28253 0
M  V30 56 H 3.4803 0.930788 -1.09874 0
M  V30 57 H 5.4333 4.06804 -1.09948 0
M  V30 58 H 4.1573 3.2624 -0.153332 0
M  V30 59 H 2.8163 2.89169 -2.25337 0
M  V30 60 H 2.4643 4.95233 -0.880545 0
M  V30 61 H 2.1643 5.26529 -2.60846 0
M  V30 62 H 3.6883 5.81687 -1.85667 0
M  V30 63 H 5.1023 4.42168 -3.64911 0
M  V30 64 H 3.4993 4.10731 -4.37516 0
M  V30 65 H 4.5693 2.74527 -3.99703 0
M  V30 66 N 5.9124 1.20967 1.01018 0
M  V30 67 C 7.1604 1.02172 1.74371 0
M  V30 68 C 7.4814 -0.446414 1.89821 0
M  V30 69 O 6.7514 -1.32234 1.44537 0
M  V30 70 H 5.3314 0.375066 0.646014 0
M  V30 71 H 7.9934 1.52187 1.21758 0
M  V30 72 H 7.0894 1.48538 2.74487 0
M  V30 73 N 7.3905 -1.2043 1.01659 0
M  V30 74 C 8.8015 -1.71517 0.737482 0
M  V30 75 C 9.1525 -1.81547 -0.743973 0
M  V30 76 O 8.2775 -1.47803 -1.58061 0
M  V30 77 C 8.8725 -3.11515 1.33206 0
M  V30 78 C 7.4315 -3.59912 1.10183 0
M  V30 79 C 6.5785 -2.37116 1.43776 0
M  V30 80 H 9.5295 -1.05444 1.18606 0
M  V30 81 H 9.5505 -3.73575 0.722636 0
M  V30 82 H 9.0625 -3.04182 2.41028 0
M  V30 83 H 7.1635 -3.72577 0.0412756 0
M  V30 84 H 7.2765 -4.44731 1.78188 0
M  V30 85 H 5.6405 -2.39857 0.856778 0
M  V30 86 H 6.4235 -2.32424 2.52654 0
M  V30 87 N 8.8686 -0.792821 -1.36206 0
M  V30 88 C 9.8316 -0.199459 -2.2833 0
M  V30 89 C 10.8316 0.605189 -1.48977 0
M  V30 90 O 12.0216 0.425685 -1.68919 0
M  V30 91 C 9.1536 0.723523 -3.33134 0
M  V30 92 H 10.3466 -1.01181 -2.82316 0
M  V30 93 H 7.8996 -0.562485 -1.45828 0
M  V30 94 H 8.6346 1.56008 -2.84309 0
M  V30 95 H 8.4196 0.148436 -3.91819 0
M  V30 96 H 9.9096 1.13344 -4.01924 0
M  V30 97 N 10.3467 1.47872 -0.545128 0
M  V30 98 C 11.5717 2.07391 -0.0190611 0
M  V30 99 C 11.9967 1.39688 1.25971 0
M  V30 100 O 11.3547 0.467816 1.7516 0
M  V30 101 C 11.4027 3.60188 0.172335 0
M  V30 102 O 10.5067 3.9339 1.23766 0
M  V30 103 H 9.8477 0.662411 -0.0459059 0
M  V30 104 H 12.3777 1.90066 -0.757365 0
M  V30 105 H 12.3877 4.06129 0.390305 0
M  V30 106 H 11.0627 4.08865 -0.761725 0
M  V30 107 H 9.6397 3.5921 1.00114 0
M  V30 108 N 11.8248 0.280983 1.55075 0
M  V30 109 C 13.0498 -0.340154 2.04592 0
M  V30 110 C 13.4748 -1.48246 1.15779 0
M  V30 111 O 12.8328 -1.80614 0.15761 0
M  V30 112 C 12.8808 -0.793104 3.5177 0
M  V30 113 O 11.9848 -1.89981 3.66034 0
M  V30 114 H 11.3258 -0.0694289 0.66036 0
M  V30 115 H 13.8558 0.416993 2.00306 0
M  V30 116 H 13.8658 -1.08729 3.93245 0
M  V30 117 H 12.5408 0.0426163 4.15878 0
M  V30 118 H 11.1178 -1.60771 3.36463 0
M  V30 119 N 13.3029 -1.57598 0.00835791 0
M  V30 120 C 14.2329 -2.1198 -0.979113 0
M  V30 121 C 15.2139 -1.03091 -1.35301 0
M  V30 122 O 16.3989 -1.30818 -1.43528 0
M  V30 123 C 13.5289 -2.62995 -2.26828 0
M  V30 124 C 12.4829 -3.76485 -2.03576 0
M  V30 125 C 11.8089 -4.13846 -3.38579 0
M  V30 126 C 13.1089 -5.0342 -1.39161 0
M  V30 127 H 14.8029 -2.94738 -0.526281 0
M  V30 128 H 12.3489 -1.41783 -0.251704 0
M  V30 129 H 14.3019 -2.99669 -2.96271 0
M  V30 130 H 13.0259 -1.7737 -2.7424 0
M  V30 131 H 11.6849 -3.40217 -1.36557 0
M  V30 132 H 11.3329 -3.25232 -3.83709 0
M  V30 133 H 11.0329 -4.90312 -3.23834 0
M  V30 134 H 12.5569 -4.53086 -4.09323 0
M  V30 135 H 13.9709 -5.37812 -1.98573 0
M  V30 136 H 12.3679 -5.84746 -1.34878 0
M  V30 137 H 13.4379 -4.83548 -0.361868 0
M  V30 138 N 14.781 0.264519 -1.55364 0
M  V30 139 C 16.192 0.834936 -1.6699 0
M  V30 140 C 16.543 1.86718 -0.602552 0
M  V30 141 O 15.668 2.14899 0.254425 0
M  V30 142 C 16.263 1.5212 -3.02729 0
M  V30 143 C 14.822 2.03954 -3.16354 0
M  V30 144 C 13.969 0.884498 -2.62815 0
M  V30 145 H 16.92 0.0406869 -1.58648 0
M  V30 146 H 16.941 2.38853 -2.96191 0
M  V30 147 H 16.453 0.769668 -3.80392 0
M  V30 148 H 14.554 2.82041 -2.43482 0
M  V30 149 H 14.667 2.24902 -4.23032 0
M  V30 150 H 13.031 1.2802 -2.20188 0
M  V30 151 H 13.814 0.14634 -3.42988 0
M  V30 152 N 16.2591 1.48442 0.529413 0
M  V30 153 C 17.1911 1.59095 1.64989 0
M  V30 154 C 18.2041 0.475212 1.5571 0
M  V30 155 O 19.3931 0.746081 1.6216 0
M  V30 156 C 16.4931 1.50518 3.0364 0
M  V30 157 C 15.6661 2.77142 3.38395 0
M  V30 158 C 14.7251 2.62012 4.56329 0
M  V30 159 O 13.7511 3.35898 4.59522 0
M  V30 160 N 14.9531 1.71667 5.54536 0
M  V30 161 H 17.7181 2.55723 1.56287 0
M  V30 162 H 15.2791 1.45173 0.716697 0
M  V30 163 H 17.2711 1.38091 3.80412 0
M  V30 164 H 15.8411 0.618627 3.06418 0
M  V30 165 H 15.0611 3.0413 2.50796 0
M  V30 166 H 16.3491 3.61146 3.58401 0
M  V30 167 H 15.7471 1.10841 5.54735 0
M  V30 168 H 14.3041 1.65178 6.30523 0
M  V30 169 N 17.7372 -0.778329 1.37039 0
M  V30 170 C 18.9622 -1.57248 1.35233 0
M  V30 171 C 19.3872 -1.87999 -0.0615568 0
M  V30 172 O 18.7452 -1.48734 -1.03672 0
M  V30 173 C 18.7932 -2.86353 2.19167 0
M  V30 174 O 17.8972 -3.80442 1.59178 0
M  V30 175 H 17.2382 -0.476569 0.462362 0
M  V30 176 H 19.7682 -0.963853 1.80474 0
M  V30 177 H 19.7782 -3.35519 2.32145 0
M  V30 178 H 18.4532 -2.63299 3.21942 0
M  V30 179 H 17.0302 -3.39067 1.55203 0
M  V30 180 N 19.2153 -1.21501 -1.00376 0
M  V30 181 C 20.4623 -1.03299 -1.74171 0
M  V30 182 C 20.7903 0.433326 -1.89612 0
M  V30 183 O 20.0453 1.33779 -1.42834 0
M  V30 184 C 20.3443 -1.67673 -3.15627 0
M  V30 185 C 20.0103 -3.17533 -3.2013 0
M  V30 186 C 18.6723 -3.58427 -3.21067 0
M  V30 187 C 21.0243 -4.13504 -3.17275 0
M  V30 188 C 18.3523 -4.93794 -3.16835 0
M  V30 189 C 20.7043 -5.48834 -3.14585 0
M  V30 190 C 19.3683 -5.89123 -3.13831 0
M  V30 191 H 18.6383 -0.377999 -0.637336 0
M  V30 192 H 21.2853 -1.51111 -1.17634 0
M  V30 193 H 19.5903 -1.12158 -3.75404 0
M  V30 194 H 21.2873 -1.51091 -3.71446 0
M  V30 195 H 17.8773 -2.84965 -3.20145 0
M  V30 196 H 22.0613 -3.82936 -3.15711 0
M  V30 197 H 17.3173 -5.24255 -3.1459 0
M  V30 198 H 21.4913 -6.22934 -3.1133 0
M  V30 199 H 19.1183 -6.93984 -3.10307 0
M  V30 200 N 20.6934 1.19889 -1.02296 0
M  V30 201 C 21.6234 2.25141 -0.619174 0
M  V30 202 C 22.6044 1.66051 0.368915 0
M  V30 203 O 23.7894 1.92546 0.252941 0
M  V30 204 C 20.9194 3.4728 0.0368783 0
M  V30 205 C 19.8734 4.19005 -0.872865 0
M  V30 206 C 19.1994 5.34637 -0.0822402 0
M  V30 207 C 20.4994 4.74452 -2.18387 0
M  V30 208 H 22.1934 2.59171 -1.49903 0
M  V30 209 H 19.7394 1.24579 -0.722222 0
M  V30 210 H 21.6924 4.20098 0.330958 0
M  V30 211 H 20.4164 3.12433 0.95149 0
M  V30 212 H 19.0754 3.48061 -1.15105 0
M  V30 213 H 18.7234 4.96034 0.83422 0
M  V30 214 H 18.4234 5.83557 -0.688149 0
M  V30 215 H 19.9474 6.10255 0.205238 0
M  V30 216 H 21.3614 5.39055 -1.95172 0
M  V30 217 H 19.7584 5.33834 -2.74119 0
M  V30 218 H 20.8284 3.92844 -2.84257 0
M  V30 219 N 22.1715 0.800033 1.35784 0
M  V30 220 C 23.1015 0.220184 2.3246 0
M  V30 221 C 24.0825 -0.65073 1.57161 0
M  V30 222 O 25.2675 -0.582359 1.85263 0
M  V30 223 C 22.3975 -0.637353 3.41402 0
M  V30 224 C 21.3515 0.134531 4.27789 0
M  V30 225 C 20.6775 -0.844285 5.27992 0
M  V30 226 C 21.9775 1.32979 5.05088 0
M  V30 227 H 23.6715 1.02787 2.81203 0
M  V30 228 H 21.2175 0.495717 1.35199 0
M  V30 229 H 23.1705 -1.05302 4.08031 0
M  V30 230 H 21.8945 -1.47785 2.91251 0
M  V30 231 H 20.5535 0.531296 3.6273 0
M  V30 232 H 20.2015 -1.68011 4.74111 0
M  V30 233 H 19.9015 -0.332184 5.8666 0
M  V30 234 H 21.4255 -1.2583 5.97494 0
M  V30 235 H 22.8395 0.98934 5.64699 0
M  V30 236 H 21.2365 1.77593 5.7322 0
M  V30 237 H 22.3065 2.11978 4.36111 0
M  V30 238 N 23.6496 -1.47581 0.552962 0
M  V30 239 C 24.5966 -2.29957 -0.197108 0
M  V30 240 C 25.5666 -1.38799 -0.912359 0
M  V30 241 O 26.7516 -1.67761 -0.908888 0
M  V30 242 C 23.8916 -3.22672 -1.22379 0
M  V30 243 C 23.0046 -4.28919 -0.515038 0
M  V30 244 C 22.1396 -5.0879 -1.52664 0
M  V30 245 C 21.1786 -6.06815 -0.802631 0
M  V30 246 N 20.3156 -6.7966 -1.76086 0
M  V30 247 H 25.1556 -2.93578 0.511486 0
M  V30 248 H 22.6926 -1.4471 0.264067 0
M  V30 249 H 24.6506 -3.74845 -1.83159 0
M  V30 250 H 23.2806 -2.60925 -1.90047 0
M  V30 251 H 22.3326 -3.79835 0.207192 0
M  V30 252 H 23.6446 -4.98773 0.0523425 0
M  V30 253 H 22.7986 -5.65091 -2.20809 0
M  V30 254 H 21.5376 -4.38828 -2.12794 0
M  V30 255 H 20.5426 -5.49695 -0.107238 0
M  V30 256 H 21.7676 -6.78784 -0.207135 0
M  V30 257 H 19.7136 -6.12432 -2.35081 0
M  V30 258 H 19.6306 -7.45669 -1.24552 0
M  V30 259 H 20.8986 -7.40538 -2.43359 0
M  V30 260 N 25.1277 -0.289203 -1.54924 0
M  V30 261 C 26.3677 0.324536 -2.01807 0
M  V30 262 C 26.7317 1.5199 -1.17316 0
M  V30 263 O 27.9327 2.20422 -1.53843 0
M  V30 264 C 26.2037 0.683578 -3.50802 0
M  V30 265 S 27.7627 1.28185 -4.19659 0
M  V30 266 H 24.5807 0.100236 -0.703899 0
M  V30 267 H 27.1827 -0.414325 -1.91059 0
M  V30 268 H 25.8867 -0.195073 -4.09936 0
M  V30 269 H 25.4177 1.45354 -3.65562 0
M  V30 270 H 27.4327 2.57006 -4.24456 0
M  V30 271 N 26.6058 1.57591 -0.0167156 0
M  V30 272 C 27.5358 2.12496 0.967858 0
M  V30 273 C 28.5168 1.03807 1.34752 0
M  V30 274 O 29.7018 1.31577 1.42833 0
M  V30 275 C 26.8318 2.64194 2.25431 0
M  V30 276 C 25.7858 3.77559 2.01576 0
M  V30 277 C 25.1118 4.15636 3.36379 0
M  V30 278 C 26.4118 5.04151 1.36489 0
M  V30 279 H 28.1058 2.95013 0.510643 0
M  V30 280 H 25.6518 1.41915 0.244181 0
M  V30 281 H 27.6048 3.01236 2.94678 0
M  V30 282 H 26.3288 1.78821 2.73296 0
M  V30 283 H 24.9878 3.40937 1.34751 0
M  V30 284 H 24.6358 3.27263 3.81979 0
M  V30 285 H 24.3358 4.92022 3.21229 0
M  V30 286 H 25.8598 4.5525 4.06915 0
M  V30 287 H 27.2738 5.38857 1.95718 0
M  V30 288 H 25.6708 5.85453 1.31776 0
M  V30 289 H 26.7408 4.83733 0.336219 0
M  V30 290 N 28.0839 -0.256276 1.55502 0
M  V30 291 C 28.9939 -1.33882 1.92647 0
M  V30 292 C 30.0099 -1.53159 0.825727 0
M  V30 293 O 31.1859 -1.66963 1.12629 0
M  V30 294 C 28.2509 -2.6751 2.20543 0
M  V30 295 C 27.3119 -2.56836 3.43997 0
M  V30 296 C 26.5449 -3.84092 3.70553 0
M  V30 297 O 26.7679 -4.85545 2.99336 0
M  V30 298 O 25.7019 -3.83288 4.64084 0
M  V30 299 H 29.5279 -1.05374 2.84833 0
M  V30 300 H 27.1129 -0.456237 1.42263 0
M  V30 301 H 28.9949 -3.46492 2.39835 0
M  V30 302 H 27.6699 -2.9577 1.31536 0
M  V30 303 H 26.5769 -1.76172 3.30021 0
M  V30 304 H 27.9099 -2.33523 4.33275 0
M  V30 305 N 29.562 -1.4872 -0.521534 0
M  V30 306 C 30.494 -1.59968 -1.64143 0
M  V30 307 C 31.507 -0.483463 -1.55456 0
M  V30 308 O 32.696 -0.75467 -1.61762 0
M  V30 309 C 29.796 -1.52127 -3.02838 0
M  V30 310 C 28.969 -2.78932 -3.36921 0
M  V30 311 C 28.028 -2.64428 -4.54933 0
M  V30 312 O 27.054 -3.38331 -4.57735 0
M  V30 313 N 28.256 -1.74606 -5.53618 0
M  V30 314 H 31.021 -2.56548 -1.54929 0
M  V30 315 H 28.582 -1.45551 -0.708988 0
M  V30 316 H 30.574 -1.40106 -3.79674 0
M  V30 317 H 29.144 -0.634868 -3.06085 0
M  V30 318 H 28.364 -3.05455 -2.4918 0
M  V30 319 H 29.652 -3.63041 -3.56481 0
M  V30 320 H 29.05 -1.13782 -5.54139 0
M  V30 321 H 27.607 -1.6852 -6.29638 0
M  V30 322 N 31.0401 0.771051 -1.3745 0
M  V30 323 C 32.2861 1.5319 -1.32894 0
M  V30 324 C 32.6191 1.94008 0.0862511 0
M  V30 325 O 31.8941 1.64124 1.04373 0
M  V30 326 C 32.1771 2.79648 -2.26868 0
M  V30 327 C 32.0301 2.45079 -3.77169 0
M  V30 328 C 33.3491 3.81583 -2.19277 0
M  V30 329 H 30.4681 0.555744 -0.484064 0
M  V30 330 H 33.1101 0.884492 -1.68157 0
M  V30 331 H 31.2601 3.34891 -1.96926 0
M  V30 332 H 32.9321 1.95745 -4.1771 0
M  V30 333 H 31.1751 1.77767 -3.95704 0
M  V30 334 H 31.8461 3.35478 -4.38359 0
M  V30 335 H 34.3221 3.35835 -2.45671 0
M  V30 336 H 33.1981 4.67787 -2.87171 0
M  V30 337 H 33.4591 4.25897 -1.18592 0
M  V30 338 N 32.5182 1.22032 0.997298 0
M  V30 339 C 33.9342 0.979326 1.26021 0
M  V30 340 C 34.1342 -0.32972 1.98784 0
M  V30 341 O 33.1902 -1.05345 2.29475 0
M  V30 342 C 34.5032 2.17509 2.07631 0
M  V30 343 C 36.0512 2.21817 2.2083 0
M  V30 344 C 36.5262 3.40933 3.05825 0
M  V30 345 N 38.0172 3.41067 3.13412 0
M  V30 346 C 38.7522 4.29885 3.79455 0
M  V30 347 N 38.2482 5.28914 4.47462 0
M  V30 348 N 40.0412 4.17673 3.76173 0
M  V30 349 H 32.1922 2.06202 0.509352 0
M  V30 350 H 34.4552 0.90334 0.287541 0
M  V30 351 H 34.1612 3.12415 1.61524 0
M  V30 352 H 34.0352 2.17206 3.08385 0
M  V30 353 H 36.4222 1.27462 2.66153 0
M  V30 354 H 36.5032 2.2616 1.1952 0
M  V30 355 H 36.1472 4.35586 2.61203 0
M  V30 356 H 36.0772 3.33829 4.07266 0
M  V30 357 H 38.5682 2.69406 2.65007 0
M  V30 358 H 38.8812 5.92973 4.95583 0
M  V30 359 H 37.2262 5.32831 4.46224 0
M  V30 360 H 40.4172 3.39564 3.22202 0
M  V30 361 H 40.5902 4.87098 4.27363 0
M  V30 362 N 33.9963 -1.19345 1.0293 0
M  V30 363 C 34.9433 -2.2258 0.610464 0
M  V30 364 C 35.9133 -1.6179 -0.375946 0
M  V30 365 O 37.0983 -1.88844 -0.272511 0
M  V30 366 C 34.2383 -3.45085 -0.0321473 0
M  V30 367 C 33.3513 -4.20258 1.00035 0
M  V30 368 C 32.4863 -5.3019 0.32746 0
M  V30 369 C 31.5253 -5.97121 1.34584 0
M  V30 370 N 30.6623 -6.98615 0.698726 0
M  V30 371 H 35.5023 -2.57764 1.49538 0
M  V30 372 H 33.0393 -1.26644 0.748311 0
M  V30 373 H 34.9973 -4.15061 -0.421966 0
M  V30 374 H 33.6273 -3.10555 -0.88064 0
M  V30 375 H 32.6793 -3.49223 1.50823 0
M  V30 376 H 33.9913 -4.66175 1.77433 0
M  V30 377 H 33.1453 -6.06587 -0.11718 0
M  V30 378 H 31.8843 -4.85345 -0.478713 0
M  V30 379 H 30.8893 -5.19474 1.80074 0
M  V30 380 H 32.1143 -6.4405 2.15352 0
M  V30 381 H 30.0603 -6.55942 -0.0873471 0
M  V30 382 H 29.9773 -7.42724 1.41058 0
M  V30 383 H 31.2453 -7.79004 0.278102 0
M  V30 384 N 35.4744 -0.807222 -1.35358 0
M  V30 385 C 36.7234 -0.384376 -1.98004 0
M  V30 386 C 37.0364 1.0543 -1.64754 0
M  V30 387 O 38.2424 1.58029 -2.20769 0
M  V30 388 C 36.6984 -0.636326 -3.5423 0
M  V30 389 C 36.3064 -2.08759 -3.96388 0
M  V30 390 C 38.0504 -0.278869 -4.23583 0
M  V30 391 C 35.9574 -2.28525 -5.45463 0
M  V30 392 H 34.8874 -0.139986 -0.740891 0
M  V30 393 H 37.5384 -0.991369 -1.54415 0
M  V30 394 H 35.9204 0.0406256 -3.95979 0
M  V30 395 H 37.0944 -2.8024 -3.6579 0
M  V30 396 H 35.4094 -2.40497 -3.39926 0
M  V30 397 H 38.0064 -0.404599 -5.33167 0
M  V30 398 H 38.3494 0.775012 -4.09022 0
M  V30 399 H 38.8824 -0.909764 -3.87257 0
M  V30 400 H 35.6214 -3.32361 -5.64992 0
M  V30 401 H 35.1414 -1.61569 -5.77629 0
M  V30 402 H 36.8204 -2.10109 -6.11934 0
M  V30 403 N 36.9525 1.47285 -0.560781 0
M  V30 404 C 37.8845 2.28118 0.222438 0
M  V30 405 C 38.8975 1.37219 0.876056 0
M  V30 406 O 40.0865 1.62011 0.749307 0
M  V30 407 C 37.1865 3.1159 1.33285 0
M  V30 408 C 36.3595 4.30473 0.77534 0
M  V30 409 C 35.4185 4.95513 1.77069 0
M  V30 410 O 34.4445 5.53792 1.31539 0
M  V30 411 N 35.6465 4.90531 3.10418 0
M  V30 412 H 38.4115 2.95976 -0.470958 0
M  V30 413 H 35.9725 1.56955 -0.39709 0
M  V30 414 H 37.9645 3.51967 1.99752 0
M  V30 415 H 36.5345 2.45951 1.92943 0
M  V30 416 H 35.7545 3.94144 -0.0662113 0
M  V30 417 H 37.0425 5.07362 0.382272 0
M  V30 418 H 36.4405 4.44389 3.5005 0
M  V30 419 H 34.9975 5.34917 3.72434 0
M  V30 420 N 38.4306 0.297415 1.54768 0
M  V30 421 C 39.6786 -0.312295 1.99673 0
M  V30 422 C 39.9996 -1.54686 1.18732 0
M  V30 423 O 39.2696 -1.93854 0.282382 0
M  V30 424 H 37.8496 -0.118381 0.73756 0
M  V30 425 H 40.5116 0.407915 1.90583 0
M  V30 426 H 39.6076 -0.586813 3.06534 0
M  V30 427 N 39.9087 -1.5758 0.0250728 0
M  V30 428 C 41.1857 -1.82917 -0.692873 0
M  V30 429 C 41.5657 -0.908137 -1.90568 0
M  V30 430 O 40.9137 0.0372298 -2.2847 0
M  V30 431 C 41.1237 -3.32034 -1.07492 0
M  V30 432 C 42.4717 -3.98406 -1.46826 0
M  V30 433 O 43.4957 -3.36505 -1.16801 0
M  V30 434 O 42.3547 -5.07497 -2.02754 0
M  V30 435 H 39.4487 -0.754079 -0.33955 0
M  V30 436 H 41.9947 -1.69619 0.0524456 0
M  V30 437 H 40.7667 -3.90728 -0.211552 0
M  V30 438 H 40.3897 -3.50424 -1.87854 0
M  V30 439 N 41.3868 0.248026 -1.55636 0
M  V30 440 C 42.6348 0.974295 -1.77065 0
M  V30 441 C 42.9558 1.85897 -0.588849 0
M  V30 442 O 42.2258 1.91868 0.395407 0
M  V30 443 H 40.8058 0.362733 -0.653019 0
M  V30 444 H 43.4678 0.266244 -1.93073 0
M  V30 445 H 42.5638 1.59667 -2.68166 0
M  V30 446 N 42.8649 1.48995 0.513639 0
M  V30 447 C 43.8279 1.64229 1.59879 0
M  V30 448 C 44.8279 0.514696 1.5234 0
M  V30 449 O 46.0179 0.78087 1.55718 0
M  V30 450 C 43.1499 1.62783 2.99524 0
M  V30 451 H 44.3429 2.61004 1.47705 0
M  V30 452 H 41.8959 1.37837 0.736936 0
M  V30 453 H 42.6309 0.675461 3.17188 0
M  V30 454 H 42.4159 2.4466 3.06404 0
M  V30 455 H 43.9059 1.76669 3.78388 0
M  V30 456 N 44.343 -0.763751 1.37857 0
M  V30 457 C 45.306 -1.85889 1.34081 0
M  V30 458 C 46.306 -1.58949 0.243277 0
M  V30 459 O 47.496 -1.66882 0.499589 0
M  V30 460 C 44.628 -3.23176 1.08489 0
M  V30 461 H 45.821 -1.90648 2.31502 0
M  V30 462 H 43.374 -0.964367 1.23003 0
M  V30 463 H 44.109 -3.24091 0.116318 0
M  V30 464 H 43.894 -3.44124 1.8794 0
M  V30 465 H 45.384 -4.03254 1.08517 0
M  V30 466 N 45.8211 -1.22559 -0.990812 0
M  V30 467 C 46.7511 -1.0218 -2.09956 0
M  V30 468 C 47.7321 0.0579394 -1.70001 0
M  V30 469 O 48.9171 -0.104684 -1.93918 0
M  V30 470 C 46.0471 -0.601023 -3.4206 0
M  V30 471 C 45.0011 -1.62694 -3.95872 0
M  V30 472 C 44.3271 -1.06193 -5.24049 0
M  V30 473 C 45.6271 -3.01743 -4.2632 0
M  V30 474 H 47.3211 -1.94916 -2.27262 0
M  V30 475 H 44.8671 -0.938566 -1.09211 0
M  V30 476 H 46.8201 -0.445561 -4.19038 0
M  V30 477 H 45.5441 0.362005 -3.24588 0
M  V30 478 H 44.2031 -1.77021 -3.21028 0
M  V30 479 H 43.8511 -0.0901903 -5.02919 0
M  V30 480 H 43.5511 -1.74732 -5.61019 0
M  V30 481 H 45.0751 -0.918092 -6.03658 0
M  V30 482 H 46.4891 -2.90777 -4.94087 0
M  V30 483 H 44.8861 -3.67425 -4.74467 0
M  V30 484 H 45.9561 -3.51518 -3.34011 0
M  V30 485 N 47.2992 1.18797 -1.03562 0
M  V30 486 C 48.2312 2.21731 -0.580337 0
M  V30 487 C 49.2442 1.59051 0.347349 0
M  V30 488 O 50.4332 1.77929 0.142669 0
M  V30 489 C 47.5332 3.38459 0.172805 0
M  V30 490 C 46.7062 4.3072 -0.761496 0
M  V30 491 C 45.7652 5.26174 -0.0525547 0
M  V30 492 O 44.7912 5.65108 -0.681333 0
M  V30 493 N 45.9932 5.67624 1.21586 0
M  V30 494 H 48.7582 2.61417 -1.46565 0
M  V30 495 H 46.3192 1.33531 -0.915476 0
M  V30 496 H 48.3112 3.99335 0.656793 0
M  V30 497 H 46.8812 2.97507 0.959602 0
M  V30 498 H 46.1012 3.67525 -1.42544 0
M  V30 499 H 47.3892 4.89267 -1.39626 0
M  V30 500 H 46.7872 5.38038 1.74732 0
M  V30 501 H 45.3442 6.30721 1.64421 0
M  V30 502 N 48.7773 0.814389 1.34928 0
M  V30 503 C 49.6873 0.231978 2.3345 0
M  V30 504 C 50.7033 -0.629139 1.62228 0
M  V30 505 O 51.8793 -0.539052 1.94052 0
M  V30 506 C 48.9443 -0.603482 3.41407 0
M  V30 507 C 48.0053 0.279037 4.28392 0
M  V30 508 C 47.2383 -0.516643 5.31193 0
M  V30 509 O 47.4613 -1.75068 5.4287 0
M  V30 510 O 46.3953 0.0965652 6.01823 0
M  V30 511 H 50.2213 1.04721 2.85074 0
M  V30 512 H 47.8063 0.576343 1.37836 0
M  V30 513 H 49.6883 -1.07908 4.0735 0
M  V30 514 H 48.3633 -1.39618 2.92042 0
M  V30 515 H 47.2703 0.801948 3.65403 0
M  V30 516 H 48.6033 1.03588 4.81176 0
M  V30 517 N 50.2554 -1.46986 0.568584 0
M  V30 518 C 51.2024 -2.30153 -0.172707 0
M  V30 519 C 52.1724 -1.39759 -0.897586 0
M  V30 520 O 53.3574 -1.68716 -0.891044 0
M  V30 521 C 50.4974 -3.23952 -1.1895 0
M  V30 522 C 49.6104 -4.29441 -0.469517 0
M  V30 523 C 48.7454 -5.1038 -1.47259 0
M  V30 524 C 47.7844 -6.07632 -0.738225 0
M  V30 525 N 46.9214 -6.8149 -1.68868 0
M  V30 526 H 51.7614 -2.93019 0.542596 0
M  V30 527 H 49.2984 -1.44422 0.279401 0
M  V30 528 H 51.2564 -3.76767 -1.79173 0
M  V30 529 H 49.8864 -2.62926 -1.87269 0
M  V30 530 H 48.9384 -3.79594 0.247467 0
M  V30 531 H 50.2504 -4.98689 0.105241 0
M  V30 532 H 49.4044 -5.67402 -2.14803 0
M  V30 533 H 48.1434 -4.4106 -2.08128 0
M  V30 534 H 47.1484 -5.49778 -0.0489293 0
M  V30 535 H 48.3734 -6.78966 -0.135129 0
M  V30 536 H 46.3194 -6.14891 -2.28573 0
M  V30 537 H 46.2364 -7.46948 -1.16636 0
M  V30 538 H 47.5044 -7.43078 -2.3549 0
M  V30 539 N 51.7335 -0.305618 -1.54608 0
M  V30 540 C 52.6635 0.561482 -2.26649 0
M  V30 541 C 53.6445 1.13415 -1.26772 0
M  V30 542 O 54.8295 1.16262 -1.55553 0
M  V30 543 C 51.9595 1.73122 -3.01075 0
M  V30 544 C 50.9135 1.2887 -4.08138 0
M  V30 545 C 50.2395 2.54396 -4.70305 0
M  V30 546 C 51.5395 0.416578 -5.20636 0
M  V30 547 H 53.2335 -0.0393902 -2.99374 0
M  V30 548 H 50.7795 -0.020385 -1.43986 0
M  V30 549 H 52.7325 2.34396 -3.50195 0
M  V30 550 H 51.4565 2.3584 -2.25936 0
M  V30 551 H 50.1155 0.698991 -3.59875 0
M  V30 552 H 49.7635 3.15439 -3.918 0
M  V30 553 H 49.4635 2.25486 -5.42614 0
M  V30 554 H 50.9875 3.16464 -5.2219 0
M  V30 555 H 52.4015 0.935116 -5.65622 0
M  V30 556 H 50.7985 0.221046 -5.99693 0
M  V30 557 H 51.8685 -0.557162 -4.81688 0
M  V30 558 N 53.2116 1.57565 -0.0334293 0
M  V30 559 C 54.4516 1.93844 0.648379 0
M  V30 560 C 54.8156 0.910387 1.69044 0
M  V30 561 O 56.0166 1.15952 2.42505 0
M  V30 562 C 54.2876 3.35017 1.24492 0
M  V30 563 S 55.8466 3.93229 1.94721 0
M  V30 564 H 52.6646 0.678231 0.213364 0
M  V30 565 H 55.2666 1.95254 -0.0981253 0
M  V30 566 H 53.9706 4.07652 0.474128 0
M  V30 567 H 53.5016 3.37061 2.02864 0
M  V30 568 H 55.5166 3.77014 3.22606 0
M  V30 569 N 54.6897 -0.239769 1.55765 0
M  V30 570 C 55.6527 -1.28038 1.90103 0
M  V30 571 C 56.6527 -1.40723 0.778055 0
M  V30 572 O 57.8427 -1.39301 1.04599 0
M  V30 573 C 54.9747 -2.65702 2.13577 0
M  V30 574 H 56.1677 -0.988048 2.83157 0
M  V30 575 H 53.7207 -0.479382 1.48767 0
M  V30 576 H 54.4557 -3.00063 1.23015 0
M  V30 577 H 54.2407 -2.57875 2.95369 0
M  V30 578 H 55.7307 -3.40828 2.41301 0
M  V30 579 N 56.1678 -1.49265 -0.50573 0
M  V30 580 C 57.3958 -1.62215 -1.28429 0
M  V30 581 C 57.8108 -0.291697 -1.86533 0
M  V30 582 O 57.1678 0.722233 -1.67601 0
M  V30 583 C 57.2188 -2.68735 -2.41793 0
M  V30 584 O 56.9398 -3.96619 -1.86078 0
M  V30 585 C 58.4408 -2.92346 -3.3324 0
M  V30 586 H 55.6608 -0.546239 -0.389697 0
M  V30 587 H 58.2048 -1.95265 -0.607609 0
M  V30 588 H 56.3598 -2.38476 -3.053 0
M  V30 589 H 56.7738 -4.55256 -2.60465 0
M  V30 590 H 58.2478 -3.70623 -4.09075 0
M  V30 591 H 58.7248 -2.02081 -3.89948 0
M  V30 592 H 59.3308 -3.24003 -2.75503 0
M  V30 593 N 57.6459 0.756429 -1.3826 0
M  V30 594 C 58.8759 1.54341 -1.3734 0
M  V30 595 C 59.2839 1.89159 0.0393917 0
M  V30 596 O 58.6269 1.5307 1.01565 0
M  V30 597 C 58.6889 2.87238 -2.16182 0
M  V30 598 C 58.3529 2.74973 -3.65019 0
M  V30 599 C 59.3499 2.44962 -4.58574 0
M  V30 600 C 57.0349 2.92515 -4.08338 0
M  V30 601 C 59.0289 2.32642 -5.93428 0
M  V30 602 C 56.7159 2.79815 -5.43274 0
M  V30 603 C 57.7139 2.49921 -6.35632 0
M  V30 604 O 57.4019 2.37275 -7.68086 0
M  V30 605 H 57.1339 0.484281 -0.471643 0
M  V30 606 H 59.6879 0.944152 -1.82414 0
M  V30 607 H 57.9179 3.49342 -1.65822 0
M  V30 608 H 59.6069 3.48731 -2.07705 0
M  V30 609 H 60.3729 2.31081 -4.26412 0
M  V30 610 H 56.2519 3.14781 -3.368 0
M  V30 611 H 59.7959 2.0923 -6.65484 0
M  V30 612 H 55.6929 2.93269 -5.75034 0
M  V30 613 H 56.4609 2.52509 -7.78577 0
M  V30 614 N 59.124 1.23083 0.984299 0
M  V30 615 C 60.071 1.00854 2.07598 0
M  V30 616 C 61.041 -0.0726709 1.65941 0
M  V30 617 O 62.226 0.0786535 1.90638 0
M  V30 618 C 59.366 0.601645 3.39815 0
M  V30 619 C 58.479 1.75456 3.94765 0
M  V30 620 C 57.614 1.29482 5.15177 0
M  V30 621 C 56.653 2.41873 5.62284 0
M  V30 622 N 55.79 1.96885 6.73929 0
M  V30 623 H 60.63 1.943 2.25946 0
M  V30 624 H 58.167 0.968001 1.10762 0
M  V30 625 H 60.125 0.346854 4.15756 0
M  V30 626 H 58.755 -0.295803 3.21442 0
M  V30 627 H 57.807 2.12346 3.15616 0
M  V30 628 H 59.119 2.59965 4.25699 0
M  V30 629 H 58.273 0.997923 5.98437 0
M  V30 630 H 57.012 0.420046 4.85888 0
M  V30 631 H 56.017 2.72342 4.77608 0
M  V30 632 H 57.242 3.29881 5.93595 0
M  V30 633 H 55.188 1.11782 6.46406 0
M  V30 634 H 55.105 2.74956 7.04227 0
M  V30 635 H 56.373 1.70289 7.60672 0
M  V30 636 N 60.6021 -1.18246 1.0419 0
M  V30 637 C 61.5321 -2.24127 0.654914 0
M  V30 638 C 62.5131 -1.66617 -0.342451 0
M  V30 639 O 63.6981 -1.92924 -0.222277 0
M  V30 640 C 60.8281 -3.47295 0.0183757 0
M  V30 641 C 59.7821 -4.17563 0.939414 0
M  V30 642 C 59.1081 -5.34438 0.167286 0
M  V30 643 C 60.4081 -4.70917 2.25908 0
M  V30 644 H 62.1021 -2.56753 1.54007 0
M  V30 645 H 59.6481 -1.23414 0.74195 0
M  V30 646 H 61.6011 -4.20572 -0.264082 0
M  V30 647 H 60.3251 -3.13907 -0.901664 0
M  V30 648 H 58.9841 -3.46186 1.20628 0
M  V30 649 H 58.6321 -4.97298 -0.7552 0
M  V30 650 H 58.3321 -5.82388 0.780901 0
M  V30 651 H 59.8561 -6.10504 -0.108125 0
M  V30 652 H 61.2701 -5.35882 2.03724 0
M  V30 653 H 59.6671 -5.29406 2.82577 0
M  V30 654 H 60.7371 -3.88272 2.9047 0
M  V30 655 N 62.0802 -0.821533 -1.34494 0
M  V30 656 C 63.3202 -0.414785 -2.00147 0
M  V30 657 C 63.6842 1.00299 -1.6372 0
M  V30 658 O 64.8852 1.51255 -2.22206 0
M  V30 659 C 63.1562 -0.609403 -3.52166 0
M  V30 660 S 64.7152 -0.295297 -4.37805 0
M  V30 661 H 61.5332 -0.15679 -0.693497 0
M  V30 662 H 64.1352 -1.06705 -1.63812 0
M  V30 663 H 62.8392 -1.64096 -3.76166 0
M  V30 664 H 62.3702 0.0576414 -3.93358 0
M  V30 665 H 64.3852 0.891531 -4.88125 0
M  V30 666 N 63.5583 1.46682 -0.576371 0
M  V30 667 C 64.5083 2.27278 0.181288 0
M  V30 668 C 65.4923 1.35497 0.867721 0
M  V30 669 O 66.6843 1.59717 0.762863 0
M  V30 670 C 63.8133 3.21703 1.19841 0
M  V30 671 C 62.8993 4.20969 0.51442 0
M  V30 672 N 63.2903 5.03999 -0.426407 0
M  V30 673 C 61.5883 4.39373 0.765963 0
M  V30 674 C 62.2893 5.75812 -0.825565 0
M  V30 675 N 61.2653 5.43315 -0.176116 0
M  V30 676 H 65.0673 2.88863 -0.541785 0
M  V30 677 H 62.5813 1.57455 -0.397697 0
M  V30 678 H 64.5783 3.78145 1.75533 0
M  V30 679 H 63.2383 2.61677 1.92238 0
M  V30 680 H 64.2493 5.11659 -0.8016 0
M  V30 681 H 60.9263 3.90502 1.47698 0
M  V30 682 H 62.3163 6.52577 -1.59976 0
M  V30 683 N 65.0364 0.313813 1.54444 0
M  V30 684 C 66.4474 -0.176243 1.85866 0
M  V30 685 C 66.7984 -1.52405 1.23561 0
M  V30 686 O 65.9234 -2.09605 0.538016 0
M  V30 687 C 66.5184 -0.32657 3.37222 0
M  V30 688 C 65.0774 -0.760846 3.6863 0
M  V30 689 C 64.2244 0.123247 2.77026 0
M  V30 690 H 67.1754 0.534418 1.49431 0
M  V30 691 H 67.1964 -1.15908 3.62416 0
M  V30 692 H 66.7084 0.654531 3.82541 0
M  V30 693 H 64.8094 -1.75204 3.28838 0
M  V30 694 H 64.9224 -0.571353 4.75681 0
M  V30 695 H 63.2864 -0.399597 2.51546 0
M  V30 696 H 64.0694 1.10094 3.25168 0
M  V30 697 N 66.5145 -1.57545 0.0417849 0
M  V30 698 C 67.4245 -2.14451 -0.951213 0
M  V30 699 C 68.4405 -1.09992 -1.34825 0
M  V30 700 O 69.6165 -1.42114 -1.42708 0
M  V30 701 C 66.6815 -2.67063 -2.21084 0
M  V30 702 C 65.7425 -3.86284 -1.87304 0
M  V30 703 C 64.9755 -4.36378 -3.07261 0
M  V30 704 O 65.1985 -3.85587 -4.20332 0
M  V30 705 O 64.1325 -5.28077 -2.88822 0
M  V30 706 H 67.9585 -2.99601 -0.497287 0
M  V30 707 H 65.5435 -1.48317 -0.179567 0
M  V30 708 H 67.4255 -3.00914 -2.95006 0
M  V30 709 H 66.1005 -1.84989 -2.65633 0
M  V30 710 H 65.0075 -3.57338 -1.10727 0
M  V30 711 H 66.3405 -4.6956 -1.47562 0
M  V30 712 N 67.9926 0.231505 -1.5589 0
M  V30 713 C 68.9026 1.308 -1.94752 0
M  V30 714 C 69.9186 1.51826 -0.849989 0
M  V30 715 O 71.0946 1.6515 -1.15271 0
M  V30 716 C 68.1596 2.63968 -2.24771 0
M  V30 717 C 67.2206 2.51331 -3.48039 0
M  V30 718 C 66.4536 3.78148 -3.76616 0
M  V30 719 O 66.6766 4.80722 -3.07022 0
M  V30 720 O 65.6106 3.75857 -4.70123 0
M  V30 721 H 69.4366 1.0083 -2.86474 0
M  V30 722 H 67.0216 0.433547 -1.42971 0
M  V30 723 H 68.9036 3.42633 -2.45318 0
M  V30 724 H 67.5786 2.9364 -1.36225 0
M  V30 725 H 66.4856 1.709 -3.32782 0
M  V30 726 H 67.8186 2.26601 -4.36936 0
M  V30 727 N 69.4707 1.49531 0.497807 0
M  V30 728 C 70.4007 1.6935 1.60757 0
M  V30 729 C 71.3817 0.542218 1.61227 0
M  V30 730 O 72.5667 0.778417 1.77917 0
M  V30 731 C 69.6967 1.76298 2.99226 0
M  V30 732 C 68.6507 2.91248 3.13622 0
M  V30 733 C 67.9767 2.83312 4.53474 0
M  V30 734 C 69.2767 4.3214 2.93346 0
M  V30 735 H 70.9707 2.62263 1.44425 0
M  V30 736 H 68.5167 1.26208 0.693367 0
M  V30 737 H 70.4697 1.88749 3.76765 0
M  V30 738 H 69.1937 0.799871 3.16654 0
M  V30 739 H 67.8527 2.78404 2.38509 0
M  V30 740 H 67.5007 1.84902 4.67782 0
M  V30 741 H 67.2007 3.60465 4.64046 0
M  V30 742 H 68.7247 2.97775 5.33069 0
M  V30 743 H 70.1387 4.45649 3.60652 0
M  V30 744 H 68.5357 5.1054 3.15387 0
M  V30 745 H 69.6057 4.46363 1.89441 0
M  V30 746 N 70.9488 -0.749086 1.3866 0
M  V30 747 C 72.1948 -1.51056 1.35314 0
M  V30 748 C 72.5278 -1.94121 -0.0553751 0
M  V30 749 O 71.8028 -1.65763 -1.01749 0
M  V30 750 C 72.0858 -2.76003 2.31288 0
M  V30 751 C 71.9388 -2.39047 3.8102 0
M  V30 752 C 73.2578 -3.78046 2.2532 0
M  V30 753 H 70.3768 -0.547972 0.492844 0
M  V30 754 H 73.0188 -0.857628 1.69543 0
M  V30 755 H 71.1688 -3.31716 2.02229 0
M  V30 756 H 72.8408 -1.89074 4.20771 0
M  V30 757 H 71.0838 -1.71449 3.98482 0
M  V30 758 H 71.7548 -3.28462 4.4364 0
M  V30 759 H 74.2308 -3.31884 2.50983 0
M  V30 760 H 73.1068 -4.63159 2.94576 0
M  V30 761 H 73.3678 -4.23957 1.25352 0
M  V30 762 N 72.4269 -1.23603 -0.977757 0
M  V30 763 C 73.3569 -1.04401 -2.0886 0
M  V30 764 C 74.3379 0.0399052 -1.70053 0
M  V30 765 O 75.5229 -0.125246 -1.93796 0
M  V30 766 C 72.6529 -0.637269 -3.41403 0
M  V30 767 C 71.6069 -1.66883 -3.94124 0
M  V30 768 C 70.9329 -1.11745 -5.22893 0
M  V30 769 C 72.2329 -3.06247 -4.23096 0
M  V30 770 H 73.9269 -1.97316 -2.25182 0
M  V30 771 H 71.4729 -0.950096 -1.08209 0
M  V30 772 H 73.4259 -0.48998 -4.18542 0
M  V30 773 H 72.1499 0.327557 -3.24953 0
M  V30 774 H 70.8089 -1.80416 -3.19133 0
M  V30 775 H 70.4569 -0.143527 -5.02795 0
M  V30 776 H 70.1569 -1.80672 -5.59134 0
M  V30 777 H 71.6809 -0.982067 -6.02651 0
M  V30 778 H 73.0949 -2.96001 -4.90975 0
M  V30 779 H 71.4919 -3.72436 -4.70544 0
M  V30 780 H 72.5619 -3.55041 -3.30263 0
M  V30 781 N 73.905 1.17692 -1.04816 0
M  V30 782 C 74.835 2.23777 -0.666791 0
M  V30 783 C 75.816 1.66796 0.33361 0
M  V30 784 O 77.001 1.93039 0.212042 0
M  V30 785 C 74.131 3.47281 -0.0367933 0
M  V30 786 C 73.085 4.17059 -0.961546 0
M  V30 787 C 72.411 5.34342 -0.195626 0
M  V30 788 C 73.711 4.69713 -2.28402 0
M  V30 789 H 75.405 2.55933 -1.55367 0
M  V30 790 H 72.951 1.23019 -0.748484 0
M  V30 791 H 74.904 4.20706 0.241775 0
M  V30 792 H 73.628 3.14381 0.885004 0
M  V30 793 H 72.287 3.45541 -1.22462 0
M  V30 794 H 71.935 4.97692 0.728816 0
M  V30 795 H 71.635 5.81966 -0.811775 0
M  V30 796 H 73.159 6.10553 0.0757473 0
M  V30 797 H 74.573 5.34794 -2.06563 0
M  V30 798 H 72.97 5.279 -2.8538 0
M  V30 799 H 74.04 3.86726 -2.92525 0
M  V30 800 N 75.3831 0.828654 1.34056 0
M  V30 801 C 76.6311 0.41863 1.97717 0
M  V30 802 C 76.9521 -1.02314 1.66002 0
M  V30 803 O 76.2221 -1.71119 0.953683 0
M  V30 804 H 74.8021 0.151809 0.731412 0
M  V30 805 H 77.4641 1.05936 1.63596 0
M  V30 806 H 76.5601 0.542318 3.07352 0
M  V30 807 N 76.8612 -1.46375 0.584142 0
M  V30 808 C 77.8112 -2.27371 -0.169232 0
M  V30 809 C 78.7952 -1.35955 -0.860523 0
M  V30 810 O 79.9872 -1.60119 -0.754382 0
M  V30 811 C 77.1162 -3.22334 -1.18134 0
M  V30 812 C 76.2022 -4.21235 -0.492088 0
M  V30 813 N 76.5932 -5.03766 0.453129 0
M  V30 814 C 74.8912 -4.39773 -0.742652 0
M  V30 815 C 75.5922 -5.75366 0.85609 0
M  V30 816 N 74.5682 -5.43214 0.204926 0
M  V30 817 H 78.3702 -2.88572 0.557097 0
M  V30 818 H 75.8842 -1.57242 0.406042 0
M  V30 819 H 77.8812 -3.79071 -1.73525 0
M  V30 820 H 76.5412 -2.62693 -1.90847 0
M  V30 821 H 77.5522 -5.11227 0.828723 0
M  V30 822 H 74.2292 -3.91279 -1.45625 0
M  V30 823 H 75.6192 -6.5172 1.63434 0
M  V30 824 N 78.3393 -0.321999 -1.54275 0
M  V30 825 C 79.5643 0.285791 -2.05422 0
M  V30 826 C 79.9893 1.45124 -1.19669 0
M  V30 827 O 79.3473 1.80132 -0.205441 0
M  V30 828 C 79.3953 0.69956 -3.53749 0
M  V30 829 O 78.4993 1.8021 -3.70942 0
M  V30 830 H 77.8403 0.0518962 -0.661969 0
M  V30 831 H 80.3703 -0.469954 -1.9913 0
M  V30 832 H 80.3803 0.982649 -3.9599 0
M  V30 833 H 79.0553 -0.152864 -4.15619 0
M  V30 834 H 77.6323 1.51794 -3.40607 0
M  V30 835 N 79.8174 1.5752 -0.0501392 0
M  V30 836 C 80.7474 2.14502 0.922566 0
M  V30 837 C 81.7284 1.06642 1.3252 0
M  V30 838 O 82.9134 1.34577 1.4001 0
M  V30 839 C 80.0434 2.68916 2.19776 0
M  V30 840 C 78.9974 3.8175 1.93523 0
M  V30 841 C 78.3234 4.22677 3.27487 0
M  V30 842 C 79.6234 5.06932 1.25765 0
M  V30 843 H 81.3174 2.9603 0.447952 0
M  V30 844 H 78.8634 1.42401 0.214024 0
M  V30 845 H 80.8164 3.07419 2.88222 0
M  V30 846 H 79.5404 1.84578 2.69441 0
M  V30 847 H 78.1994 3.43718 1.27489 0
M  V30 848 H 77.8474 3.35291 3.74952 0
M  V30 849 H 77.5474 4.98725 3.1072 0
M  V30 850 H 79.0714 4.63779 3.97166 0
M  V30 851 H 80.4854 5.42888 1.84244 0
M  V30 852 H 78.8824 5.88116 1.19328 0
M  V30 853 H 79.9524 4.84337 0.233536 0
M  V30 854 N 81.2955 -0.223234 1.56011 0
M  V30 855 C 82.5435 -0.946003 1.78592 0
M  V30 856 C 82.8645 -1.84936 0.618349 0
M  V30 857 O 82.1345 -1.92473 -0.364833 0
M  V30 858 H 80.7145 -0.352298 0.658707 0
M  V30 859 H 83.3765 -0.235494 1.93472 0
M  V30 860 H 82.4725 -1.55381 2.70672 0
M  V30 861 N 82.7736 -1.49793 -0.48987 0
M  V30 862 C 84.0226 -1.59085 -1.23995 0
M  V30 863 C 84.3356 -0.287907 -1.9347 0
M  V30 864 O 85.5416 -0.259506 -2.70257 0
M  V30 865 C 83.9976 -2.80736 -2.252 0
M  V30 866 C 83.6056 -4.17833 -1.61614 0
M  V30 867 C 85.3496 -2.99364 -3.00967 0
M  V30 868 C 83.2566 -5.30693 -2.60996 0
M  V30 869 H 82.1866 -0.592372 -0.466488 0
M  V30 870 H 84.8376 -1.76197 -0.51252 0
M  V30 871 H 83.2196 -2.57142 -3.01154 0
M  V30 872 H 84.3936 -4.51608 -0.915774 0
M  V30 873 H 82.7086 -4.04656 -0.981977 0
M  V30 874 H 85.3056 -3.80851 -3.75308 0
M  V30 875 H 85.6486 -2.10356 -3.59244 0
M  V30 876 H 86.1816 -3.2305 -2.32128 0
M  V30 877 H 82.9206 -6.21796 -2.07485 0
M  V30 878 H 82.4406 -5.01359 -3.2924 0
M  V30 879 H 84.1196 -5.6049 -3.23202 0
M  V30 880 N 84.2517 0.741722 -1.39055 0
M  V30 881 C 85.6627 1.31966 -1.32068 0
M  V30 882 C 86.0137 1.96192 0.0180797 0
M  V30 883 O 85.1387 1.95861 0.920196 0
M  V30 884 C 85.7337 2.39954 -2.39181 0
M  V30 885 C 84.2927 2.93438 -2.35735 0
M  V30 886 C 83.4397 1.66936 -2.21422 0
M  V30 887 H 86.3907 0.539721 -1.4924 0
M  V30 888 H 86.4117 3.20182 -2.05581 0
M  V30 889 H 85.9237 1.9318 -3.36605 0
M  V30 890 H 84.0247 3.4451 -1.41929 0
M  V30 891 H 84.1377 3.4701 -3.30335 0
M  V30 892 H 82.5017 1.91016 -1.68478 0
M  V30 893 H 83.2847 1.22224 -3.20806 0
M  V30 894 N 85.7298 1.2412 0.971189 0
M  V30 895 C 86.9758 1.09048 1.71698 0
M  V30 896 C 87.3308 -0.367442 1.88859 0
M  V30 897 O 86.6238 -1.26792 1.43646 0
M  V30 898 C 86.8178 1.75983 3.11071 0
M  V30 899 C 86.6468 3.28133 3.07504 0
M  V30 900 C 85.4168 3.97331 3.1218 0
M  V30 901 C 87.6148 4.24773 2.89952 0
M  V30 902 N 85.5968 5.3639 2.98596 0
M  V30 903 C 86.9678 5.50806 2.84627 0
M  V30 904 C 89.0228 4.15392 2.74506 0
M  V30 905 C 87.7258 6.68533 2.65437 0
M  V30 906 C 89.7518 5.32793 2.56682 0
M  V30 907 C 89.1138 6.57756 2.52063 0
M  V30 908 H 85.2128 0.453632 0.636979 0
M  V30 909 H 87.7968 1.56983 1.15171 0
M  V30 910 H 85.9678 1.30566 3.65796 0
M  V30 911 H 87.6998 1.53803 3.74335 0
M  V30 912 H 84.4548 3.48473 3.20724 0
M  V30 913 H 84.8788 6.09321 2.95054 0
M  V30 914 H 89.5208 3.19543 2.76861 0
M  V30 915 H 87.2388 7.64509 2.61825 0
M  V30 916 H 90.8248 5.27383 2.4568 0
M  V30 917 H 89.7048 7.4707 2.38446 0
M  V30 918 N 87.2079 -1.17134 1.05439 0
M  V30 919 C 88.1709 -2.19439 0.661764 0
M  V30 920 C 89.1709 -1.58199 -0.288042 0
M  V30 921 O 90.3609 -1.74053 -0.0715803 0
M  V30 922 C 87.4929 -3.40889 -0.0276209 0
M  V30 923 H 88.6859 -2.55688 1.56728 0
M  V30 924 H 86.2389 -1.31259 0.848567 0
M  V30 925 H 86.9739 -3.10187 -0.94629 0
M  V30 926 H 86.7589 -3.86586 0.655238 0
M  V30 927 H 88.2489 -4.16603 -0.288342 0
M  V30 928 N 88.686 -0.835752 -1.33615 0
M  V30 929 C 90.097 -0.487099 -1.80234 0
M  V30 930 C 90.448 0.993627 -1.69179 0
M  V30 931 O 89.573 1.77403 -1.23924 0
M  V30 932 C 90.168 -0.877385 -3.27242 0
M  V30 933 C 88.727 -0.580915 -3.7189 0
M  V30 934 C 87.874 -1.0874 -2.5509 0
M  V30 935 H 90.825 -1.02474 -1.2118 0
M  V30 936 H 90.846 -0.186195 -3.80044 0
M  V30 937 H 90.358 -1.95512 -3.35256 0
M  V30 938 H 88.459 0.486881 -3.69405 0
M  V30 939 H 88.572 -1.13396 -4.65487 0
M  V30 940 H 86.936 -0.508392 -2.49575 0
M  V30 941 H 87.719 -2.17184 -2.65868 0
M  V30 942 N 90.1641 1.46063 -0.591896 0
M  V30 943 C 91.0941 2.33172 0.123673 0
M  V30 944 C 92.0751 1.45897 0.87453 0
M  V30 945 O 93.2601 1.74698 0.848181 0
M  V30 946 C 90.3901 3.28336 1.13194 0
M  V30 947 C 89.3441 4.25124 0.495324 0
M  V30 948 C 88.6701 5.09863 1.61071 0
M  V30 949 C 89.9701 5.19143 -0.573425 0
M  V30 950 H 91.6641 2.93252 -0.603646 0
M  V30 951 H 89.2101 1.41014 -0.291741 0
M  V30 952 H 91.1631 3.88137 1.64097 0
M  V30 953 H 89.8871 2.66383 1.88965 0
M  V30 954 H 88.5461 3.66599 0.00729452 0
M  V30 955 H 88.1941 4.44288 2.35832 0
M  V30 956 H 87.8941 5.75417 1.19035 0
M  V30 957 H 89.4181 5.72529 2.12233 0
M  V30 958 H 90.8321 5.73106 -0.1491 0
M  V30 959 H 89.2291 5.93089 -0.914636 0
M  V30 960 H 90.2991 4.62519 -1.45617 0
M  V30 961 N 91.6422 0.330177 1.54103 0
M  V30 962 C 92.8672 -0.274893 2.0557 0
M  V30 963 C 93.2922 -1.44487 1.20437 0
M  V30 964 O 92.6502 -1.80021 0.214991 0
M  V30 965 C 92.6982 -0.68079 3.54115 0
M  V30 966 O 91.8022 -1.7824 3.71893 0
M  V30 967 H 91.1432 -0.0483849 0.662235 0
M  V30 968 H 93.6732 0.480508 1.98878 0
M  V30 969 H 93.6832 -0.961635 3.96505 0
M  V30 970 H 92.3582 0.174903 4.15532 0
M  V30 971 H 90.9352 -1.49985 3.41407 0
M  V30 972 N 93.1203 -1.57491 0.0584922 0
M  V30 973 C 94.3453 -1.97711 -0.62652 0
M  V30 974 C 94.7703 -0.936132 -1.63151 0
M  V30 975 O 94.1283 0.099811 -1.81025 0
M  V30 976 C 94.1763 -3.36989 -1.28338 0
M  V30 977 O 93.2803 -3.35433 -2.39913 0
M  V30 978 H 92.6213 -0.643868 -0.162266 0
M  V30 979 H 95.1513 -2.04193 0.129064 0
M  V30 980 H 95.1613 -3.73879 -1.63335 0
M  V30 981 H 93.8363 -4.12289 -0.546889 0
M  V30 982 H 92.4133 -3.10298 -2.06809 0
M  V30 983 N 94.5984 0.214957 -1.56127 0
M  V30 984 C 95.8384 0.945364 -1.81224 0
M  V30 985 C 96.2024 1.81265 -0.633005 0
M  V30 986 O 97.4034 2.57731 -0.763423 0
M  V30 987 C 95.6744 1.75665 -3.1125 0
M  V30 988 S 97.2334 2.54179 -3.57685 0
M  V30 989 H 94.0514 0.317443 -0.6362 0
M  V30 990 H 96.6534 0.210381 -1.94365 0
M  V30 991 H 95.3574 1.10977 -3.9511 0
M  V30 992 H 94.8884 2.53381 -3.00934 0
M  V30 993 H 96.9034 3.7792 -3.21545 0
M  V30 994 N 96.0765 1.50051 0.48192 0
M  V30 995 C 97.4875 1.5348 1.06305 0
M  V30 996 C 97.8385 0.331997 1.93371 0
M  V30 997 O 96.9635 -0.556256 2.09129 0
M  V30 998 C 97.5585 2.7813 1.93466 0
M  V30 999 C 96.1175 2.84275 2.46707 0
M  V30 1000 C 95.2645 2.47637 1.24785 0
M  V30 1001 H 98.2155 1.56472 0.264995 0
M  V30 1002 H 98.2365 2.59372 2.78399 0
M  V30 1003 H 97.7485 3.65654 1.30072 0
M  V30 1004 H 95.8495 2.01077 3.13686 0
M  V30 1005 H 95.9625 3.8691 2.82555 0
M  V30 1006 H 94.3265 1.99835 1.57918 0
M  V30 1007 H 95.1095 3.37457 0.630694 0
M  V30 1008 N 97.5546 -0.734337 1.39446 0
M  V30 1009 C 98.7796 -1.52866 1.40167 0
M  V30 1010 C 99.2046 -1.881 -0.00171513 0
M  V30 1011 O 98.5626 -1.51957 -0.988879 0
M  V30 1012 C 98.6106 -2.79235 2.28167 0
M  V30 1013 O 97.7146 -3.75185 1.71201 0
M  V30 1014 H 97.0556 -0.461618 0.477289 0
M  V30 1015 H 99.5856 -0.905949 1.8345 0
M  V30 1016 H 99.5956 -3.27963 2.42702 0
M  V30 1017 H 98.2706 -2.52923 3.30156 0
M  V30 1018 H 96.8476 -3.33958 1.65912 0
M  V30 1019 N 99.0327 -1.24633 -0.964593 0
M  V30 1020 C 99.9647 -0.999302 -2.06268 0
M  V30 1021 C 100.978 0.0323226 -1.62768 0
M  V30 1022 O 102.167 -0.205079 -1.77318 0
M  V30 1023 C 99.2667 -0.486816 -3.35385 0
M  V30 1024 C 98.4397 -1.5823 -4.07777 0
M  V30 1025 C 97.4987 -1.07191 -5.15166 0
M  V30 1026 O 96.5247 -1.76426 -5.41168 0
M  V30 1027 N 97.7267 0.0920373 -5.80427 0
M  V30 1028 H 100.492 -1.94477 -2.28033 0
M  V30 1029 H 98.0527 -1.15704 -1.13244 0
M  V30 1030 H 100.045 -0.130066 -4.04491 0
M  V30 1031 H 98.6147 0.364459 -3.10468 0
M  V30 1032 H 97.8347 -2.11109 -3.32906 0
M  V30 1033 H 99.1227 -2.31854 -4.52903 0
M  V30 1034 H 98.5207 0.670784 -5.61709 0
M  V30 1035 H 97.0777 0.389905 -6.50633 0
M  V30 1036 N 100.511 1.16574 -1.06058 0
M  V30 1037 C 101.474 2.19085 -0.673392 0
M  V30 1038 C 102.474 1.5835 0.279648 0
M  V30 1039 O 103.664 1.74088 0.0623488 0
M  V30 1040 C 100.796 3.40899 0.00954234 0
M  V30 1041 H 101.989 2.54853 -1.58081 0
M  V30 1042 H 99.5418 1.30808 -0.855516 0
M  V30 1043 H 100.277 3.10684 0.929826 0
M  V30 1044 H 100.062 3.86233 -0.67573 0
M  V30 1045 H 101.552 4.1675 0.266245 0
M  V30 1046 N 101.989 0.842826 1.3317 0
M  V30 1047 C 102.919 0.294028 2.31641 0
M  V30 1048 C 103.9 -0.600401 1.59151 0
M  V30 1049 O 105.085 -0.523124 1.87022 0
M  V30 1050 C 102.215 -0.528416 3.43257 0
M  V30 1051 C 101.169 0.27056 4.27144 0
M  V30 1052 C 100.495 -0.675881 5.30411 0
M  V30 1053 C 101.795 1.48981 5.00602 0
M  V30 1054 H 103.489 1.11681 2.77791 0
M  V30 1055 H 101.035 0.538478 1.33553 0
M  V30 1056 H 102.988 -0.922674 4.11175 0
M  V30 1057 H 101.712 -1.38445 2.95805 0
M  V30 1058 H 100.371 0.646427 3.60856 0
M  V30 1059 H 100.019 -1.52842 4.79216 0
M  V30 1060 H 99.7189 -0.145374 5.8742 0
M  V30 1061 H 101.243 -1.06757 6.01195 0
M  V30 1062 H 102.657 1.16849 5.61266 0
M  V30 1063 H 101.054 1.95739 5.6728 0
M  V30 1064 H 102.124 2.25746 4.29147 0
M  V30 1065 N 103.467 -1.45747 0.599634 0
M  V30 1066 C 104.399 -2.28628 -0.161879 0
M  V30 1067 C 105.412 -1.39494 -0.839367 0
M  V30 1068 O 106.601 -1.63941 -0.706089 0
M  V30 1069 C 103.701 -3.15014 -1.24976 0
M  V30 1070 C 102.874 -4.32378 -0.660935 0
M  V30 1071 C 101.933 -5.00033 -1.63869 0
M  V30 1072 O 100.959 -5.57085 -1.1681 0
M  V30 1073 N 102.161 -4.98589 -2.97303 0
M  V30 1074 H 104.926 -2.94624 0.549265 0
M  V30 1075 H 102.487 -1.55847 0.438565 0
M  V30 1076 H 104.479 -3.5714 -1.9035 0
M  V30 1077 H 103.049 -2.5098 -1.86354 0
M  V30 1078 H 102.269 -3.9383 0.170688 0
M  V30 1079 H 103.557 -5.08197 -0.247619 0
M  V30 1080 H 102.955 -4.53514 -3.38145 0
M  V30 1081 H 101.512 -5.44603 -3.58121 0
M  V30 1082 N 104.945 -0.338344 -1.53925 0
M  V30 1083 C 105.875 0.51328 -2.27789 0
M  V30 1084 C 106.856 1.107 -1.29149 0
M  V30 1085 O 108.041 1.12937 -1.57984 0
M  V30 1086 C 105.171 1.66697 -3.04679 0
M  V30 1087 C 104.125 1.20183 -4.1078 0
M  V30 1088 C 103.451 2.44363 -4.75595 0
M  V30 1089 C 104.751 0.30605 -5.21403 0
M  V30 1090 H 106.445 -0.102883 -2.99223 0
M  V30 1091 H 103.991 -0.0509219 -1.4391 0
M  V30 1092 H 105.944 2.26915 -3.55088 0
M  V30 1093 H 104.668 2.30995 -2.30887 0
M  V30 1094 H 103.327 0.622499 -3.61276 0
M  V30 1095 H 102.975 3.07057 -3.98403 0
M  V30 1096 H 102.675 2.13925 -5.47275 0
M  V30 1097 H 104.199 3.05317 -5.28786 0
M  V30 1098 H 105.613 0.814929 -5.67478 0
M  V30 1099 H 104.01 0.0937929 -6.00027 0
M  V30 1100 H 105.08 -0.65921 -4.80398 0
M  V30 1101 N 106.423 1.57458 -0.0668435 0
M  V30 1102 C 107.386 2.11323 0.887422 0
M  V30 1103 C 108.386 1.03618 1.22964 0
M  V30 1104 O 109.576 1.29626 1.16373 0
M  V30 1105 C 106.708 2.61048 2.19242 0
M  V30 1106 H 107.901 2.96942 0.420194 0
M  V30 1107 H 105.454 1.55239 0.181793 0
M  V30 1108 H 106.189 1.78868 2.70512 0
M  V30 1109 H 105.974 3.39769 1.95702 0
M  V30 1110 H 107.464 3.02814 2.87565 0
M  V30 1111 N 107.901 -0.206675 1.56239 0
M  V30 1112 C 109.149 -0.927007 1.79586 0
M  V30 1113 C 109.47 -1.8427 0.637929 0
M  V30 1114 O 108.74 -1.92849 -0.344398 0
M  V30 1115 H 107.32 -0.345292 0.662407 0
M  V30 1116 H 109.982 -0.21496 1.93711 0
M  V30 1117 H 109.078 -1.52501 2.72305 0
M  V30 1118 N 109.379 -1.50304 -0.473955 0
M  V30 1119 C 110.619 -1.62786 -1.23612 0
M  V30 1120 C 110.983 -0.319786 -1.89318 0
M  V30 1121 O 112.184 -0.320012 -2.66888 0
M  V30 1122 C 110.455 -2.77351 -2.25414 0
M  V30 1123 S 112.014 -3.09948 -3.10608 0
M  V30 1124 H 108.832 -0.573895 -0.419721 0
M  V30 1125 H 111.434 -1.88076 -0.533623 0
M  V30 1126 H 110.138 -3.70879 -1.75719 0
M  V30 1127 H 109.669 -2.54137 -3.00296 0
M  V30 1128 H 111.684 -2.53553 -4.26527 0
M  V30 1129 N 110.857 0.726932 -1.39834 0
M  V30 1130 C 111.787 1.85405 -1.41941 0
M  V30 1131 C 112.768 1.67751 -0.281728 0
M  V30 1132 O 113.953 1.8795 -0.488717 0
M  V30 1133 C 111.083 3.23243 -1.2701 0
M  V30 1134 C 110.037 3.55549 -2.38262 0
M  V30 1135 C 109.363 4.9241 -2.08415 0
M  V30 1136 C 110.663 3.577 -3.80589 0
M  V30 1137 H 112.357 1.83899 -2.36266 0
M  V30 1138 H 109.903 0.883349 -1.13723 0
M  V30 1139 H 111.856 4.01775 -1.27103 0
M  V30 1140 H 110.58 3.25296 -0.291564 0
M  V30 1141 H 109.239 2.79351 -2.37399 0
M  V30 1142 H 108.887 4.91052 -1.0898 0
M  V30 1143 H 108.587 5.14992 -2.82943 0
M  V30 1144 H 110.111 5.73289 -2.10171 0
M  V30 1145 H 111.525 4.26293 -3.83337 0
M  V30 1146 H 109.922 3.91804 -4.54543 0
M  V30 1147 H 110.992 2.57328 -4.10987 0
M  V30 1148 N 112.336 1.25143 0.95797 0
M  V30 1149 C 113.561 1.12521 1.74223 0
M  V30 1150 C 113.986 -0.317402 1.85403 0
M  V30 1151 O 113.344 -1.2299 1.33204 0
M  V30 1152 C 113.392 1.78062 3.1357 0
M  V30 1153 O 112.496 1.058 3.98598 0
M  V30 1154 H 111.837 0.39304 0.535178 0
M  V30 1155 H 114.367 1.65641 1.201 0
M  V30 1156 H 114.377 1.84213 3.64046 0
M  V30 1157 H 113.052 2.83021 3.04749 0
M  V30 1158 H 111.629 1.07506 3.57067 0
M  V30 1159 N 113.814 -1.1601 1.06675 0
M  V30 1160 C 114.746 -2.20115 0.638921 0
M  V30 1161 C 115.759 -1.59916 -0.305057 0
M  V30 1162 O 116.948 -1.78245 -0.0954446 0
M  V30 1163 C 114.048 -3.38798 -0.0830083 0
M  V30 1164 C 113.221 -4.2855 0.875426 0
M  V30 1165 C 112.28 -5.25849 0.192042 0
M  V30 1166 O 111.306 -5.63102 0.830921 0
M  V30 1167 N 112.508 -5.70648 -1.06493 0
M  V30 1168 H 115.273 -2.57439 1.53444 0
M  V30 1169 H 112.834 -1.31057 0.950557 0
M  V30 1170 H 114.826 -4.00936 -0.550685 0
M  V30 1171 H 113.396 -2.99947 -0.880386 0
M  V30 1172 H 112.616 -3.63617 1.52238 0
M  V30 1173 H 113.904 -4.85393 1.52548 0
M  V30 1174 H 113.302 -5.42482 -1.60405 0
M  V30 1175 H 111.859 -6.34859 -1.47641 0
M  V30 1176 N 115.292 -0.849877 -1.32721 0
M  V30 1177 C 116.222 -0.306308 -2.31482 0
M  V30 1178 C 117.203 0.591952 -1.59468 0
M  V30 1179 O 118.388 0.513199 -1.87296 0
M  V30 1180 C 115.518 0.510204 -3.43532 0
M  V30 1181 C 114.472 -0.293209 -4.26994 0
M  V30 1182 C 113.798 0.647743 -5.30762 0
M  V30 1183 C 115.098 -1.51634 -4.99804 0
M  V30 1184 H 116.792 -1.13153 -2.77195 0
M  V30 1185 H 114.338 -0.545553 -1.33266 0
M  V30 1186 H 116.291 0.900856 -4.11658 0
M  V30 1187 H 115.015 1.36874 -2.96535 0
M  V30 1188 H 113.674 -0.665555 -3.60508 0
M  V30 1189 H 113.322 1.50299 -4.8002 0
M  V30 1190 H 113.022 0.11422 -5.87489 0
M  V30 1191 H 114.546 1.03567 -6.01753 0
M  V30 1192 H 115.96 -1.19824 -5.60638 0
M  V30 1193 H 114.357 -1.98745 -5.66234 0
M  V30 1194 H 115.427 -2.28018 -4.27943 0
M  V30 1195 N 116.77 1.45427 -0.607355 0
M  V30 1196 C 117.72 2.27612 0.133038 0
M  V30 1197 C 118.704 1.37307 0.838785 0
M  V30 1198 O 119.896 1.61299 0.728813 0
M  V30 1199 C 117.025 3.24173 1.12991 0
M  V30 1200 C 116.111 4.21965 0.425011 0
M  V30 1201 N 116.502 5.02982 -0.533217 0
M  V30 1202 C 114.8 4.40899 0.672593 0
M  V30 1203 C 115.501 5.73931 -0.947518 0
M  V30 1204 N 114.477 5.42819 -0.291321 0
M  V30 1205 H 118.279 2.87649 -0.602935 0
M  V30 1206 H 115.793 1.56576 -0.431006 0
M  V30 1207 H 117.79 3.81783 1.67473 0
M  V30 1208 H 116.45 2.65696 1.86644 0
M  V30 1209 H 117.461 5.09843 -0.90995 0
M  V30 1210 H 114.138 3.93547 1.39382 0
M  V30 1211 H 115.528 6.49037 -1.73782 0
M  V30 1212 N 118.248 0.346503 1.53744 0
M  V30 1213 C 119.473 -0.253074 2.0585 0
M  V30 1214 C 119.898 -1.43202 1.21962 0
M  V30 1215 O 119.256 -1.79783 0.234073 0
M  V30 1216 C 119.304 -0.643193 3.54817 0
M  V30 1217 O 118.408 -1.74286 3.73762 0
M  V30 1218 H 117.749 -0.0413583 0.662711 0
M  V30 1219 H 120.279 0.501574 1.98357 0
M  V30 1220 H 120.289 -0.919526 3.97503 0
M  V30 1221 H 118.964 0.218966 4.15323 0
M  V30 1222 H 117.541 -1.46356 3.42979 0
M  V30 1223 N 119.726 -1.57421 0.075193 0
M  V30 1224 C 120.974 -1.93236 -0.591974 0
M  V30 1225 C 121.295 -0.956241 -1.69944 0
M  V30 1226 O 120.565 -0.00494792 -1.95899 0
M  V30 1227 H 119.145 -0.713355 -0.22166 0
M  V30 1228 H 121.807 -1.9444 0.133848 0
M  V30 1229 H 120.903 -2.95131 -1.01509 0
M  V30 1230 N 121.204 0.198386 -1.56346 0
M  V30 1231 C 122.134 1.24865 -1.9731 0
M  V30 1232 C 123.115 1.47651 -0.844576 0
M  V30 1233 O 124.3 1.59444 -1.10866 0
M  V30 1234 C 121.43 2.59358 -2.30977 0
M  V30 1235 C 120.384 2.5119 -3.46537 0
M  V30 1236 C 119.71 3.89926 -3.65871 0
M  V30 1237 C 121.01 2.03977 -4.80823 0
M  V30 1238 H 122.704 0.908252 -2.85291 0
M  V30 1239 H 120.25 0.435462 -1.37258 0
M  V30 1240 H 122.203 3.33011 -2.58228 0
M  V30 1241 H 120.927 2.95132 -1.39874 0
M  V30 1242 H 119.586 1.79993 -3.19371 0
M  V30 1243 H 119.234 4.23046 -2.72105 0
M  V30 1244 H 118.934 3.85336 -4.4361 0
M  V30 1245 H 120.458 4.65205 -3.95495 0
M  V30 1246 H 121.872 2.67386 -5.07127 0
M  V30 1247 H 120.269 2.10397 -5.62008 0
M  V30 1248 H 121.339 0.992861 -4.74626 0
M  V30 1249 N 122.682 1.50554 0.465978 0
M  V30 1250 C 123.929 1.61798 1.21768 0
M  V30 1251 C 124.257 0.320696 1.91838 0
M  V30 1252 O 123.512 -0.693724 1.82992 0
M  V30 1253 C 123.811 2.75152 2.28093 0
M  V30 1254 C 123.477 4.15454 1.75239 0
M  V30 1255 C 122.139 4.53628 1.60546 0
M  V30 1256 C 124.491 5.03121 1.36083 0
M  V30 1257 C 121.819 5.77204 1.05128 0
M  V30 1258 C 124.171 6.27249 0.821056 0
M  V30 1259 C 122.835 6.64221 0.660795 0
M  V30 1260 H 122.105 0.592063 0.445582 0
M  V30 1261 H 124.752 1.84503 0.512927 0
M  V30 1262 H 123.057 2.46556 3.04496 0
M  V30 1263 H 124.754 2.81055 2.86023 0
M  V30 1264 H 121.344 3.85341 1.87644 0
M  V30 1265 H 125.528 4.74257 1.46267 0
M  V30 1266 H 120.784 6.0452 0.91462 0
M  V30 1267 H 124.958 6.94537 0.509018 0
M  V30 1268 H 122.585 7.59854 0.229226 0
M  V30 1269 N 124.16 -0.719506 1.40217 0
M  V30 1270 C 125.09 -1.8465 1.42922 0
M  V30 1271 C 126.071 -1.67599 0.29062 0
M  V30 1272 O 127.256 -1.87688 0.498677 0
M  V30 1273 C 124.386 -3.22565 1.28722 0
M  V30 1274 C 123.34 -3.54281 2.40144 0
M  V30 1275 C 122.666 -4.91298 2.11023 0
M  V30 1276 C 123.966 -3.55676 3.82481 0
M  V30 1277 H 125.66 -1.82644 2.37237 0
M  V30 1278 H 123.206 -0.877305 1.1419 0
M  V30 1279 H 125.159 -4.01095 1.29232 0
M  V30 1280 H 123.883 -3.25137 0.308811 0
M  V30 1281 H 122.542 -2.78088 2.38877 0
M  V30 1282 H 122.19 -4.90468 1.11582 0
M  V30 1283 H 121.89 -5.13485 2.8567 0
M  V30 1284 H 123.414 -5.72166 2.13209 0
M  V30 1285 H 124.828 -4.24254 3.85592 0
M  V30 1286 H 123.225 -3.89388 4.56614 0
M  V30 1287 H 124.295 -2.55144 4.12346 0
M  V30 1288 N 125.638 -1.25649 -0.95132 0
M  V30 1289 C 126.868 -1.13179 -1.72841 0
M  V30 1290 C 127.276 0.316827 -1.86528 0
M  V30 1291 O 126.619 1.22948 -1.3649 0
M  V30 1292 C 126.681 -1.71644 -3.15878 0
M  V30 1293 C 126.345 -3.20667 -3.25609 0
M  V30 1294 C 127.342 -4.17616 -3.09666 0
M  V30 1295 C 125.027 -3.6094 -3.49324 0
M  V30 1296 C 127.021 -5.52817 -3.17289 0
M  V30 1297 C 124.708 -4.96278 -3.56584 0
M  V30 1298 C 125.706 -5.92025 -3.40581 0
M  V30 1299 O 125.394 -7.24899 -3.47528 0
M  V30 1300 H 125.126 -0.395389 -0.54831 0
M  V30 1301 H 127.68 -1.66566 -1.20187 0
M  V30 1302 H 125.91 -1.12707 -3.69911 0
M  V30 1303 H 127.599 -1.54225 -3.75459 0
M  V30 1304 H 128.365 -3.87842 -2.91211 0
M  V30 1305 H 124.244 -2.86907 -3.6084 0
M  V30 1306 H 127.788 -6.2753 -3.04716 0
M  V30 1307 H 123.685 -5.25716 -3.74556 0
M  V30 1308 H 124.453 -7.33039 -3.64138 0
M  V30 1309 N 127.117 1.15442 -1.07289 0
M  V30 1310 C 128.049 2.19773 -0.650585 0
M  V30 1311 C 129.062 1.60076 0.296572 0
M  V30 1312 O 130.251 1.78293 0.0859905 0
M  V30 1313 C 127.351 3.38838 0.0650398 0
M  V30 1314 C 126.524 4.2808 -0.898141 0
M  V30 1315 C 125.583 5.2574 -0.219926 0
M  V30 1316 O 124.609 5.62654 -0.860773 0
M  V30 1317 N 125.811 5.71205 1.03466 0
M  V30 1318 H 128.576 2.56622 -1.54808 0
M  V30 1319 H 126.137 1.30551 -0.957494 0
M  V30 1320 H 128.129 4.01222 0.529415 0
M  V30 1321 H 126.699 3.00409 0.864466 0
M  V30 1322 H 125.919 3.62804 -1.54165 0
M  V30 1323 H 127.207 4.84577 -1.5512 0
M  V30 1324 H 126.605 5.43325 1.57526 0
M  V30 1325 H 125.162 6.35633 1.44272 0
M  V30 1326 N 128.595 0.856903 1.32268 0
M  V30 1327 C 129.843 0.460474 1.96784 0
M  V30 1328 C 130.164 -0.987701 1.68135 0
M  V30 1329 O 129.434 -1.69058 0.989765 0
M  V30 1330 H 128.014 0.167289 0.728027 0
M  V30 1331 H 130.676 1.09383 1.61312 0
M  V30 1332 H 129.772 0.60739 3.06133 0
M  V30 1333 N 130.073 -1.45103 0.615059 0
M  V30 1334 C 131.003 -2.33339 -0.0865619 0
M  V30 1335 C 131.984 -1.4727 -0.851209 0
M  V30 1336 O 133.169 -1.76026 -0.820281 0
M  V30 1337 C 130.299 -3.30095 -1.07956 0
M  V30 1338 C 129.253 -4.25858 -0.427628 0
M  V30 1339 C 128.579 -5.12361 -1.5294 0
M  V30 1340 C 129.879 -5.18165 0.655944 0
M  V30 1341 H 131.573 -2.92254 0.650224 0
M  V30 1342 H 129.119 -1.40532 0.314138 0
M  V30 1343 H 131.072 -3.90698 -1.57901 0
M  V30 1344 H 129.796 -2.69355 -1.84703 0
M  V30 1345 H 128.455 -3.66564 0.0510292 0
M  V30 1346 H 128.103 -4.47984 -2.28734 0
M  V30 1347 H 127.803 -5.77238 -1.09865 0
M  V30 1348 H 129.327 -5.75833 -2.03098 0
M  V30 1349 H 130.741 -5.72796 0.240257 0
M  V30 1350 H 129.138 -5.91559 1.00888 0
M  V30 1351 H 130.208 -4.60144 1.52957 0
M  V30 1352 N 131.551 -0.354651 -1.53558 0
M  V30 1353 C 132.481 0.489091 -2.2832 0
M  V30 1354 C 133.462 1.09324 -1.30316 0
M  V30 1355 O 134.647 1.11255 -1.59173 0
M  V30 1356 C 131.777 1.63456 -3.0643 0
M  V30 1357 C 130.731 1.1582 -4.12031 0
M  V30 1358 C 130.057 2.39305 -4.7816 0
M  V30 1359 C 131.357 0.250731 -5.21698 0
M  V30 1360 H 133.051 -0.134614 -2.99097 0
M  V30 1361 H 130.597 -0.0661826 -1.43848 0
M  V30 1362 H 132.55 2.23136 -3.57475 0
M  V30 1363 H 131.274 2.28533 -2.33325 0
M  V30 1364 H 129.933 0.584146 -3.61916 0
M  V30 1365 H 129.581 3.02814 -4.01637 0
M  V30 1366 H 129.281 2.08109 -5.49513 0
M  V30 1367 H 130.805 2.99691 -5.31994 0
M  V30 1368 H 132.219 0.754695 -5.68311 0
M  V30 1369 H 130.616 0.0301468 -6.00092 0
M  V30 1370 H 131.686 -0.710125 -4.79672 0
M  V30 1371 N 133.029 1.57378 -0.0835403 0
M  V30 1372 C 133.961 2.10389 0.909338 0
M  V30 1373 C 134.974 1.03858 1.25369 0
M  V30 1374 O 136.163 1.31338 1.20882 0
M  V30 1375 C 133.263 2.55908 2.2218 0
M  V30 1376 C 132.436 3.86145 2.05453 0
M  V30 1377 C 131.495 4.17633 3.20108 0
M  V30 1378 O 130.521 4.87043 2.94581 0
M  V30 1379 N 131.723 3.72113 4.45547 0
M  V30 1380 H 134.488 2.962 0.456657 0
M  V30 1381 H 132.049 1.61579 0.101877 0
M  V30 1382 H 134.041 2.74027 2.97811 0
M  V30 1383 H 132.611 1.75171 2.58909 0
M  V30 1384 H 131.831 3.7729 1.1422 0
M  V30 1385 H 133.119 4.7137 1.91541 0
M  V30 1386 H 132.517 3.16062 4.69171 0
M  V30 1387 H 131.074 3.95409 5.18165 0
M  V30 1388 N 134.507 -0.190092 1.56449 0
M  V30 1389 C 135.47 -1.21925 1.9408 0
M  V30 1390 C 136.47 -1.38176 0.822431 0
M  V30 1391 O 137.66 -1.35903 1.08977 0
M  V30 1392 C 134.792 -2.58773 2.21922 0
M  V30 1393 H 135.985 -0.897464 2.86157 0
M  V30 1394 H 133.538 -0.43181 1.50217 0
M  V30 1395 H 134.273 -2.95998 1.32499 0
M  V30 1396 H 134.058 -2.48348 3.03424 0
M  V30 1397 H 135.548 -3.32978 2.52022 0
M  V30 1398 N 135.985 -1.50799 -0.457987 0
M  V30 1399 C 136.915 -1.73553 -1.5621 0
M  V30 1400 C 137.896 -0.584774 -1.59732 0
M  V30 1401 O 139.081 -0.825314 -1.7579 0
M  V30 1402 C 136.211 -1.84169 -2.94447 0
M  V30 1403 C 135.165 -2.99461 -3.0579 0
M  V30 1404 C 134.491 -2.95235 -4.45803 0
M  V30 1405 C 135.791 -4.39766 -2.81786 0
M  V30 1406 H 137.485 -2.66 -1.37421 0
M  V30 1407 H 135.031 -1.28002 -0.659662 0
M  V30 1408 H 136.984 -1.98672 -3.71628 0
M  V30 1409 H 135.708 -0.883545 -3.14422 0
M  V30 1410 H 134.367 -2.8463 -2.31044 0
M  V30 1411 H 134.015 -1.97239 -4.62715 0
M  V30 1412 H 133.715 -3.72642 -4.54326 0
M  V30 1413 H 135.239 -3.11803 -5.24987 0
M  V30 1414 H 136.653 -4.55054 -3.4871 0
M  V30 1415 H 135.05 -5.18722 -3.0174 0
M  V30 1416 H 136.12 -4.51229 -1.7754 0
M  V30 1417 N 137.463 0.71206 -1.40597 0
M  V30 1418 C 138.373 1.8562 -1.43466 0
M  V30 1419 C 139.389 1.70902 -0.326902 0
M  V30 1420 O 140.565 1.93105 -0.572043 0
M  V30 1421 C 137.63 3.21451 -1.29884 0
M  V30 1422 C 136.691 3.48398 -2.50833 0
M  V30 1423 C 135.924 4.77749 -2.3789 0
M  V30 1424 O 136.147 5.53089 -1.39459 0
M  V30 1425 O 135.081 5.05111 -3.27333 0
M  V30 1426 H 138.907 1.86155 -2.39958 0
M  V30 1427 H 136.492 0.86295 -1.21957 0
M  V30 1428 H 138.374 4.02579 -1.24531 0
M  V30 1429 H 137.049 3.21636 -0.364997 0
M  V30 1430 H 135.956 2.67265 -2.61763 0
M  V30 1431 H 137.289 3.53014 -3.4299 0
M  V30 1432 N 138.941 1.26152 0.944643 0
M  V30 1433 C 140.189 1.11271 1.6871 0
M  V30 1434 C 140.51 -0.345166 1.91921 0
M  V30 1435 O 139.78 -1.24387 1.51343 0
M  V30 1436 H 138.36 0.408783 0.625224 0
M  V30 1437 H 141.022 1.58427 1.1352 0
M  V30 1438 H 140.118 1.62879 2.66227 0
M  V30 1439 N 140.419 -1.14872 1.07899 0
M  V30 1440 C 141.668 -1.85135 0.800499 0
M  V30 1441 C 141.981 -1.83547 -0.676014 0
M  V30 1442 O 143.187 -2.49548 -1.06948 0
M  V30 1443 C 141.643 -3.3231 1.38197 0
M  V30 1444 C 141.251 -3.42329 2.8899 0
M  V30 1445 C 142.995 -4.0772 1.18174 0
M  V30 1446 C 140.902 -4.83684 3.403 0
M  V30 1447 H 139.832 -0.693563 0.29578 0
M  V30 1448 H 142.483 -1.29532 1.29976 0
M  V30 1449 H 140.865 -3.87618 0.810431 0
M  V30 1450 H 142.039 -2.97097 3.52236 0
M  V30 1451 H 140.354 -2.80369 3.07867 0
M  V30 1452 H 142.951 -5.12049 1.5398 0
M  V30 1453 H 143.294 -4.16124 0.12117 0
M  V30 1454 H 143.827 -3.58696 1.71994 0
M  V30 1455 H 140.566 -4.80465 4.45907 0
M  V30 1456 H 140.086 -5.29474 2.81811 0
M  V30 1457 H 141.765 -5.52558 3.36584 0
M  V30 1458 N 141.898 -0.863906 -1.31812 0
M  V30 1459 C 143.123 -0.48527 -2.01643 0
M  V30 1460 C 143.548 0.913058 -1.64453 0
M  V30 1461 O 142.906 1.6014 -0.849985 0
M  V30 1462 C 142.954 -0.642625 -3.54828 0
M  V30 1463 O 142.058 0.320659 -4.11151 0
M  V30 1464 H 141.399 -0.193793 -0.635091 0
M  V30 1465 H 143.929 -1.16565 -1.68148 0
M  V30 1466 H 143.939 -0.533628 -4.04495 0
M  V30 1467 H 142.614 -1.66227 -3.81237 0
M  V30 1468 H 141.191 0.167126 -3.72525 0
M  V30 1469 N 143.376 1.44774 -0.622745 0
M  V30 1470 C 144.787 1.85546 -0.207226 0
M  V30 1471 C 145.138 1.52093 1.23944 0
M  V30 1472 O 144.263 0.95492 1.94191 0
M  V30 1473 C 144.858 3.36781 -0.369313 0
M  V30 1474 C 143.417 3.76399 -0.00836847 0
M  V30 1475 C 142.564 2.68664 -0.686651 0
M  V30 1476 H 145.515 1.3536 -0.828454 0
M  V30 1477 H 145.536 3.78453 0.394162 0
M  V30 1478 H 145.048 3.61098 -1.42231 0
M  V30 1479 H 143.149 3.57698 1.04322 0
M  V30 1480 H 143.262 4.7732 -0.412584 0
M  V30 1481 H 141.626 2.54404 -0.122777 0
M  V30 1482 H 142.409 2.95815 -1.74208 0
M  V30 1483 N 144.854 0.36279 1.53368 0
M  V30 1484 C 145.764 -0.492994 2.29362 0
M  V30 1485 C 146.78 -1.09507 1.35219 0
M  V30 1486 O 147.956 -1.10662 1.68273 0
M  V30 1487 C 145.021 -1.61855 3.066 0
M  V30 1488 C 144.082 -1.04429 4.16405 0
M  V30 1489 C 143.315 -2.11621 4.89951 0
M  V30 1490 O 143.538 -3.32684 4.63333 0
M  V30 1491 O 142.472 -1.74835 5.75948 0
M  V30 1492 H 146.298 0.125331 3.03441 0
M  V30 1493 H 143.883 0.127253 1.48857 0
M  V30 1494 H 145.765 -2.27302 3.54841 0
M  V30 1495 H 144.44 -2.22233 2.3536 0
M  V30 1496 H 143.347 -0.353819 3.72423 0
M  V30 1497 H 144.68 -0.485113 4.89804 0
M  V30 1498 N 146.332 -1.57332 0.0918853 0
M  V30 1499 C 147.262 -2.16872 -0.865371 0
M  V30 1500 C 148.243 -1.10118 -1.29646 0
M  V30 1501 O 149.428 -1.38242 -1.36392 0
M  V30 1502 C 146.558 -2.74649 -2.12569 0
M  V30 1503 C 145.512 -3.86747 -1.83333 0
M  V30 1504 C 144.838 -4.31212 -3.16166 0
M  V30 1505 C 146.138 -5.10089 -1.1228 0
M  V30 1506 H 147.832 -2.97114 -0.369307 0
M  V30 1507 H 145.378 -1.42918 -0.176194 0
M  V30 1508 H 147.331 -3.14952 -2.7997 0
M  V30 1509 H 146.055 -1.91657 -2.64452 0
M  V30 1510 H 144.714 -3.46978 -1.18331 0
M  V30 1511 H 144.362 -3.45115 -3.6593 0
M  V30 1512 H 144.062 -5.06788 -2.97388 0
M  V30 1513 H 145.586 -4.74146 -3.84731 0
M  V30 1514 H 147 -5.47582 -1.69785 0
M  V30 1515 H 145.397 -5.91073 -1.03693 0
M  V30 1516 H 146.467 -4.84786 -0.105041 0
M  V30 1517 N 147.81 0.181792 -1.56548 0
M  V30 1518 C 149.058 0.89832 -1.81038 0
M  V30 1519 C 149.379 1.83232 -0.667164 0
M  V30 1520 O 148.649 1.93372 0.313673 0
M  V30 1521 H 147.229 0.33471 -0.667816 0
M  V30 1522 H 149.891 0.184116 -1.94028 0
M  V30 1523 H 148.987 1.4815 -2.74696 0
M  V30 1524 N 149.288 1.51039 0.449983 0
M  V30 1525 C 150.699 1.557 1.03026 0
M  V30 1526 C 151.05 0.372939 1.92623 0
M  V30 1527 O 150.175 -0.511771 2.10261 0
M  V30 1528 C 150.77 2.82171 1.87523 0
M  V30 1529 C 149.329 2.89444 2.40622 0
M  V30 1530 C 148.476 2.50228 1.19504 0
M  V30 1531 H 151.427 1.56999 0.231745 0
M  V30 1532 H 151.448 2.65219 2.72835 0
M  V30 1533 H 150.96 3.68331 1.22286 0
M  V30 1534 H 149.061 2.07685 3.0935 0
M  V30 1535 H 149.174 3.92816 2.74285 0
M  V30 1536 H 147.538 2.03139 1.53644 0
M  V30 1537 H 148.321 3.38719 0.558972 0
M  V30 1538 N 150.766 -0.704594 1.40972 0
M  V30 1539 C 151.994 -1.49354 1.43182 0
M  V30 1540 C 152.409 -1.88768 0.0345508 0
M  V30 1541 O 151.766 -1.56184 -0.944081 0
M  V30 1542 C 151.817 -2.76187 2.33244 0
M  V30 1543 O 151.538 -2.38436 3.67532 0
M  V30 1544 C 153.039 -3.7 2.44162 0
M  V30 1545 H 150.259 -0.460559 0.487982 0
M  V30 1546 H 152.803 -0.868261 1.85153 0
M  V30 1547 H 150.958 -3.34974 1.94606 0
M  V30 1548 H 151.372 -3.20126 4.15475 0
M  V30 1549 H 152.846 -4.55803 3.11364 0
M  V30 1550 H 153.323 -4.13867 1.47006 0
M  V30 1551 H 153.929 -3.17121 2.83398 0
M  V30 1552 N 152.244 -1.26651 -0.937939 0
M  V30 1553 C 153.174 -1.10993 -2.05433 0
M  V30 1554 C 154.155 -0.0142161 -1.70094 0
M  V30 1555 O 155.34 -0.186837 -1.93299 0
M  V30 1556 C 152.47 -0.745561 -3.39203 0
M  V30 1557 C 151.424 -1.79337 -3.88616 0
M  V30 1558 C 150.75 -1.28324 -5.19073 0
M  V30 1559 C 152.05 -3.19553 -4.13138 0
M  V30 1560 H 153.744 -2.0438 -2.1879 0
M  V30 1561 H 151.29 -0.984041 -1.05131 0
M  V30 1562 H 153.243 -0.622888 -4.16771 0
M  V30 1563 H 151.967 0.22401 -3.25831 0
M  V30 1564 H 150.626 -1.90477 -3.13231 0
M  V30 1565 H 150.274 -0.303414 -5.02084 0
M  V30 1566 H 149.974 -1.98369 -5.53103 0
M  V30 1567 H 151.498 -1.1733 -5.99221 0
M  V30 1568 H 152.912 -3.11471 -4.81309 0
M  V30 1569 H 151.309 -3.87218 -4.58457 0
M  V30 1570 H 152.379 -3.65368 -3.18801 0
M  V30 1571 N 153.722 1.14298 -1.08507 0
M  V30 1572 C 154.999 1.81544 -0.728088 0
M  V30 1573 C 155.379 1.95838 0.78808 0
M  V30 1574 O 154.727 1.51904 1.70697 0
M  V30 1575 C 154.937 3.17169 -1.45619 0
M  V30 1576 C 156.285 3.9265 -1.61591 0
M  V30 1577 O 157.309 3.26762 -1.41793 0
M  V30 1578 O 156.168 5.10807 -1.94263 0
M  V30 1579 H 153.262 0.78491 -0.260471 0
M  V30 1580 H 155.808 1.21307 -1.18671 0
M  V30 1581 H 154.58 3.01934 -2.489 0
M  V30 1582 H 154.203 3.851 -0.989124 0
M  V30 1583 N 155.201 0.870884 1.31352 0
M  V30 1584 C 156.429 0.49677 2.00848 0
M  V30 1585 C 156.844 -0.910998 1.65367 0
M  V30 1586 O 156.201 -1.59696 0.883374 0
M  V30 1587 C 156.252 0.645308 3.55694 0
M  V30 1588 O 155.973 1.99764 3.89905 0
M  V30 1589 C 157.474 0.272326 4.42463 0
M  V30 1590 H 154.694 0.193462 0.642506 0
M  V30 1591 H 157.238 1.1723 1.67563 0
M  V30 1592 H 155.393 0.0173176 3.87396 0
M  V30 1593 H 155.807 2.00607 4.84621 0
M  V30 1594 H 157.281 0.427208 5.50344 0
M  V30 1595 H 157.758 -0.788587 4.32062 0
M  V30 1596 H 158.364 0.876054 4.1618 0
M  V30 1597 N 156.679 -1.44442 0.630414 0
M  V30 1598 C 157.609 -2.33418 -0.0618083 0
M  V30 1599 C 158.59 -1.48165 -0.835541 0
M  V30 1600 O 159.775 -1.76886 -0.801564 0
M  V30 1601 C 156.905 -3.31222 -1.04449 0
M  V30 1602 C 155.859 -4.26288 -0.382436 0
M  V30 1603 C 155.185 -5.13954 -1.47497 0
M  V30 1604 C 156.485 -5.1744 0.710865 0
M  V30 1605 H 158.179 -2.91548 0.681184 0
M  V30 1606 H 155.725 -1.40191 0.329026 0
M  V30 1607 H 157.678 -3.92351 -1.53748 0
M  V30 1608 H 156.402 -2.71299 -1.81836 0
M  V30 1609 H 155.061 -3.6649 0.0899054 0
M  V30 1610 H 154.709 -4.50385 -2.2397 0
M  V30 1611 H 154.409 -5.7837 -1.03737 0
M  V30 1612 H 155.933 -5.77955 -1.96979 0
M  V30 1613 H 157.347 -5.72509 0.300996 0
M  V30 1614 H 155.744 -5.90455 1.07156 0
M  V30 1615 H 156.814 -4.58496 1.57829 0
M  V30 1616 N 158.157 -0.370918 -1.53173 0
M  V30 1617 C 159.089 0.507823 -2.23503 0
M  V30 1618 C 160.102 1.04182 -1.251 0
M  V30 1619 O 161.291 0.947286 -1.5129 0
M  V30 1620 C 158.391 1.71447 -2.92334 0
M  V30 1621 C 157.564 1.31105 -4.17289 0
M  V30 1622 C 156.623 2.38035 -4.69282 0
M  V30 1623 O 155.649 2.00204 -5.32829 0
M  V30 1624 N 156.851 3.69697 -4.47554 0
M  V30 1625 H 159.616 -0.0946382 -2.99551 0
M  V30 1626 H 157.177 -0.196358 -1.60705 0
M  V30 1627 H 159.169 2.42469 -3.24023 0
M  V30 1628 H 157.739 2.22368 -2.19707 0
M  V30 1629 H 156.959 0.430462 -3.91843 0
M  V30 1630 H 158.247 1.0179 -4.98514 0
M  V30 1631 H 157.645 4.03205 -3.9679 0
M  V30 1632 H 156.202 4.36807 -4.8378 0
M  V30 1633 N 159.635 1.57281 -0.100228 0
M  V30 1634 C 160.565 2.17328 0.853857 0
M  V30 1635 C 161.546 1.10804 1.2906 0
M  V30 1636 O 162.731 1.38963 1.35657 0
M  V30 1637 C 159.861 2.75772 2.11109 0
M  V30 1638 C 158.815 3.87713 1.81279 0
M  V30 1639 C 158.141 4.32882 3.13874 0
M  V30 1640 C 159.441 5.10677 1.09574 0
M  V30 1641 H 161.135 2.97305 0.353545 0
M  V30 1642 H 158.681 1.43009 0.168612 0
M  V30 1643 H 160.634 3.16433 2.78296 0
M  V30 1644 H 159.358 1.93057 2.63432 0
M  V30 1645 H 158.017 3.476 1.16489 0
M  V30 1646 H 157.665 3.47051 3.64095 0
M  V30 1647 H 157.365 5.08358 2.94696 0
M  V30 1648 H 158.889 4.7618 3.82211 0
M  V30 1649 H 160.303 5.48474 1.66879 0
M  V30 1650 H 158.7 5.91615 1.00557 0
M  V30 1651 H 159.77 4.84835 0.0793299 0
M  V30 1652 N 161.113 -0.173488 1.56642 0
M  V30 1653 C 162.39 -0.917617 1.7274 0
M  V30 1654 C 162.77 -2.00484 0.661027 0
M  V30 1655 O 162.118 -2.26184 -0.32453 0
M  V30 1656 C 162.328 -1.48433 3.15862 0
M  V30 1657 C 163.676 -1.95809 3.76754 0
M  V30 1658 O 164.7 -1.58231 3.19126 0
M  V30 1659 O 163.559 -2.65024 4.77938 0
M  V30 1660 H 160.653 -0.431772 0.705338 0
M  V30 1661 H 163.199 -0.161487 1.6893 0
M  V30 1662 H 161.971 -0.701715 3.84957 0
M  V30 1663 H 161.594 -2.30471 3.23989 0
M  V30 1664 N 162.591 -1.51276 -0.441967 0
M  V30 1665 C 163.837 -1.63958 -1.19355 0
M  V30 1666 C 164.17 -0.352543 -1.90973 0
M  V30 1667 O 163.445 0.647627 -1.83401 0
M  V30 1668 C 163.728 -2.83979 -2.21422 0
M  V30 1669 C 163.581 -4.22646 -1.53918 0
M  V30 1670 C 164.9 -2.99521 -3.22451 0
M  V30 1671 H 162.019 -0.596709 -0.432559 0
M  V30 1672 H 164.661 -1.83748 -0.483398 0
M  V30 1673 H 162.811 -2.67237 -2.81987 0
M  V30 1674 H 164.483 -4.51045 -0.967256 0
M  V30 1675 H 162.726 -4.25558 -0.841615 0
M  V30 1676 H 163.397 -5.02609 -2.28229 0
M  V30 1677 H 165.873 -3.14944 -2.71937 0
M  V30 1678 H 164.749 -3.85072 -3.91166 0
M  V30 1679 H 165.01 -2.11391 -3.88287 0
M  V30 1680 N 164.069 0.697108 -1.41344 0
M  V30 1681 C 165.032 1.79281 -1.42797 0
M  V30 1682 C 166.032 1.57607 -0.318837 0
M  V30 1683 O 167.222 1.64309 -0.578642 0
M  V30 1684 C 164.354 3.17632 -1.23785 0
M  V30 1685 H 165.547 1.79385 -2.40335 0
M  V30 1686 H 163.1 0.904582 -1.27464 0
M  V30 1687 H 163.835 3.23167 -0.270814 0
M  V30 1688 H 163.62 3.34765 -2.04144 0
M  V30 1689 H 165.11 3.97617 -1.27633 0
M  V30 1690 N 165.547 1.27147 0.931209 0
M  V30 1691 C 166.824 1.0401 1.65654 0
M  V30 1692 C 167.204 -0.426297 2.06751 0
M  V30 1693 O 166.552 -1.40879 1.79904 0
M  V30 1694 C 166.762 1.99834 2.86125 0
M  V30 1695 C 168.11 2.29007 3.57549 0
M  V30 1696 O 169.134 1.97779 2.96246 0
M  V30 1697 O 167.993 2.82222 4.67989 0
M  V30 1698 H 165.087 0.396239 0.725895 0
M  V30 1699 H 167.633 1.38397 0.982056 0
M  V30 1700 H 166.405 2.98744 2.52721 0
M  V30 1701 H 166.028 1.65987 3.61295 0
M  V30 1702 N 167.025 -1.13721 1.09112 0
M  V30 1703 C 168.272 -1.84924 0.825192 0
M  V30 1704 C 168.6 -1.83347 -0.649151 0
M  V30 1705 O 167.855 -1.26449 -1.49362 0
M  V30 1706 C 168.154 -3.32861 1.30146 0
M  V30 1707 C 167.82 -3.54621 2.78486 0
M  V30 1708 C 166.482 -3.60268 3.18999 0
M  V30 1709 C 168.834 -3.62855 3.74146 0
M  V30 1710 C 166.162 -3.71679 4.53951 0
M  V30 1711 C 168.514 -3.75793 5.08883 0
M  V30 1712 C 167.178 -3.79692 5.4899 0
M  V30 1713 H 166.448 -0.676684 0.301959 0
M  V30 1714 H 169.095 -1.3428 1.36533 0
M  V30 1715 H 167.4 -3.85835 0.681064 0
M  V30 1716 H 169.097 -3.86395 1.07236 0
M  V30 1717 H 165.687 -3.50879 2.46134 0
M  V30 1718 H 169.871 -3.57775 3.43963 0
M  V30 1719 H 165.127 -3.72963 4.84467 0
M  V30 1720 H 169.301 -3.81107 5.82864 0
M  V30 1721 H 166.928 -3.88287 6.53558 0
M  V30 1722 N 168.503 -0.877838 -1.30888 0
M  V30 1723 C 169.466 -0.344265 -2.266 0
M  V30 1724 C 170.466 0.50922 -1.52524 0
M  V30 1725 O 171.656 0.317398 -1.71284 0
M  V30 1726 C 168.788 0.510198 -3.37061 0
M  V30 1727 H 169.981 -1.1893 -2.7531 0
M  V30 1728 H 167.534 -0.654088 -1.41956 0
M  V30 1729 H 168.269 1.37612 -2.93655 0
M  V30 1730 H 168.054 -0.101047 -3.9197 0
M  V30 1731 H 169.544 0.875537 -4.08319 0
M  V30 1732 N 169.982 1.44106 -0.638065 0
M  V30 1733 C 171.21 2.06336 -0.152615 0
M  V30 1734 C 171.625 1.47731 1.17563 0
M  V30 1735 O 170.982 0.602806 1.72257 0
M  V30 1736 C 171.033 3.61479 -0.0391491 0
M  V30 1737 O 170.754 4.17903 -1.31487 0
M  V30 1738 C 172.255 4.40757 0.474176 0
M  V30 1739 H 169.475 0.665862 -0.0828776 0
M  V30 1740 H 172.019 1.84862 -0.87443 0
M  V30 1741 H 170.174 3.82191 0.633142 0
M  V30 1742 H 170.588 5.11416 -1.16421 0
M  V30 1743 H 172.062 5.49707 0.502562 0
M  V30 1744 H 172.539 4.12697 1.50258 0
M  V30 1745 H 173.145 4.24979 -0.165102 0
M  V30 1746 N 171.46 0.379036 1.52974 0
M  V30 1747 C 172.688 -0.20679 2.05864 0
M  V30 1748 C 173.103 -1.41356 1.25155 0
M  V30 1749 O 172.46 -1.8009 0.295588 0
M  V30 1750 C 172.511 -0.587045 3.56702 0
M  V30 1751 O 172.232 0.571776 4.34353 0
M  V30 1752 C 173.733 -1.22983 4.25899 0
M  V30 1753 H 170.953 -0.0336123 0.670158 0
M  V30 1754 H 173.497 0.541298 1.97206 0
M  V30 1755 H 171.652 -1.28504 3.65466 0
M  V30 1756 H 172.066 0.261544 5.23847 0
M  V30 1757 H 173.54 -1.44635 5.32715 0
M  V30 1758 H 174.017 -2.19416 3.80465 0
M  V30 1759 H 174.623 -0.572892 4.21424 0
M  V30 1760 N 172.938 -1.57226 0.108567 0
M  V30 1761 C 174.187 -1.94008 -0.551703 0
M  V30 1762 C 174.5 -0.993442 -1.68494 0
M  V30 1763 O 175.706 -1.25551 -2.40726 0
M  V30 1764 C 174.162 -3.44763 -1.03279 0
M  V30 1765 C 173.77 -4.47943 0.0714193 0
M  V30 1766 C 175.514 -3.90483 -1.66503 0
M  V30 1767 C 173.421 -5.89865 -0.425779 0
M  V30 1768 H 172.351 -0.724206 -0.209863 0
M  V30 1769 H 175.002 -1.82547 0.186741 0
M  V30 1770 H 173.384 -3.51422 -1.82533 0
M  V30 1771 H 174.558 -4.52942 0.847365 0
M  V30 1772 H 172.873 -4.11913 0.609669 0
M  V30 1773 H 175.47 -4.93925 -2.04798 0
M  V30 1774 H 175.813 -3.29877 -2.53942 0
M  V30 1775 H 176.346 -3.86581 -0.938074 0
M  V30 1776 H 173.085 -6.54202 0.412316 0
M  V30 1777 H 172.605 -5.88309 -1.16843 0
M  V30 1778 H 174.284 -6.40844 -0.890397 0
M  V30 1779 N 174.416 0.165178 -1.56732 0
M  V30 1780 C 175.662 0.877389 -1.83503 0
M  V30 1781 C 176.017 1.79602 -0.689996 0
M  V30 1782 O 175.31 1.89023 0.313205 0
M  V30 1783 C 175.504 1.70405 -3.1416 0
M  V30 1784 C 175.333 0.866961 -4.41264 0
M  V30 1785 C 174.103 0.539646 -5.0241 0
M  V30 1786 C 176.301 0.205671 -5.13889 0
M  V30 1787 N 174.283 -0.312946 -6.13102 0
M  V30 1788 C 175.654 -0.507823 -6.17917 0
M  V30 1789 C 177.709 0.124468 -4.97744 0
M  V30 1790 C 176.412 -1.29483 -7.0755 0
M  V30 1791 C 178.438 -0.649222 -5.87826 0
M  V30 1792 C 177.8 -1.35106 -6.91322 0
M  V30 1793 H 173.899 0.299477 -0.722383 0
M  V30 1794 H 176.483 0.143949 -1.94167 0
M  V30 1795 H 174.654 2.40887 -3.04677 0
M  V30 1796 H 176.386 2.35804 -3.28905 0
M  V30 1797 H 173.141 0.871176 -4.65519 0
M  V30 1798 H 173.565 -0.729731 -6.73056 0
M  V30 1799 H 178.207 0.652724 -4.17731 0
M  V30 1800 H 175.925 -1.83441 -7.87004 0
M  V30 1801 H 179.511 -0.713804 -5.77405 0
M  V30 1802 H 178.391 -1.94013 -7.59821 0
M  V30 1803 N 175.894 1.51508 0.433938 0
M  V30 1804 C 176.826 1.69266 1.54537 0
M  V30 1805 C 177.839 0.573276 1.52373 0
M  V30 1806 O 179.028 0.847698 1.57087 0
M  V30 1807 C 176.128 1.69524 2.93453 0
M  V30 1808 C 175.301 2.98101 3.20085 0
M  V30 1809 C 174.36 2.90502 4.38742 0
M  V30 1810 O 173.386 3.64442 4.3723 0
M  V30 1811 N 174.588 2.06586 5.42496 0
M  V30 1812 H 177.353 2.65145 1.39708 0
M  V30 1813 H 174.914 1.49437 0.622922 0
M  V30 1814 H 176.906 1.62004 3.70859 0
M  V30 1815 H 175.476 0.812245 3.01863 0
M  V30 1816 H 174.696 3.19464 2.30947 0
M  V30 1817 H 175.984 3.83207 3.34708 0
M  V30 1818 H 175.382 1.45896 5.46563 0
M  V30 1819 H 173.939 2.04943 6.18742 0
M  V30 1820 N 177.372 -0.689602 1.41712 0
M  V30 1821 C 178.304 -1.815 1.39966 0
M  V30 1822 C 179.317 -1.59995 0.300917 0
M  V30 1823 O 180.506 -1.69387 0.563039 0
M  V30 1824 C 177.606 -3.18364 1.16179 0
M  V30 1825 C 176.779 -3.66847 2.38206 0
M  V30 1826 C 175.838 -4.82398 2.10186 0
M  V30 1827 O 174.864 -4.93706 2.83272 0
M  V30 1828 N 176.066 -5.70064 1.0958 0
M  V30 1829 H 178.831 -1.83488 2.36965 0
M  V30 1830 H 176.392 -0.872149 1.36401 0
M  V30 1831 H 178.384 -3.93301 0.953756 0
M  V30 1832 H 176.954 -3.11365 0.27756 0
M  V30 1833 H 176.174 -2.82751 2.74673 0
M  V30 1834 H 177.462 -3.95978 3.19498 0
M  V30 1835 H 176.86 -5.63565 0.491019 0
M  V30 1836 H 175.417 -6.44874 0.947656 0
M  V30 1837 N 178.85 -1.27639 -0.924453 0
M  V30 1838 C 179.783 -1.04966 -2.02626 0
M  V30 1839 C 180.761 0.0309505 -1.62571 0
M  V30 1840 O 181.945 -0.114846 -1.8815 0
M  V30 1841 C 179.072 -0.59292 -3.3347 0
M  V30 1842 C 178.118 -1.66858 -3.92506 0
M  V30 1843 S 178.951 -3.2619 -4.24689 0
M  V30 1844 C 180.107 -2.82325 -5.58609 0
M  V30 1845 H 180.34 -1.98252 -2.21547 0
M  V30 1846 H 177.873 -1.11506 -1.06798 0
M  V30 1847 H 179.831 -0.336086 -4.09122 0
M  V30 1848 H 178.492 0.319939 -3.12466 0
M  V30 1849 H 177.685 -1.30038 -4.86935 0
M  V30 1850 H 177.287 -1.87766 -3.2345 0
M  V30 1851 H 179.579 -2.2783 -6.38044 0
M  V30 1852 H 180.522 -3.75511 -6.00331 0
M  V30 1853 H 180.93 -2.21367 -5.19285 0
M  V30 1854 N 180.328 1.1314 -1.09713 0
M  V30 1855 C 181.238 2.22242 -0.751367 0
M  V30 1856 C 182.254 1.72224 0.247938 0
M  V30 1857 O 183.43 2.01205 0.0885463 0
M  V30 1858 C 180.495 3.46231 -0.180274 0
M  V30 1859 C 179.556 4.11125 -1.2359 0
M  V30 1860 C 178.789 5.29195 -0.691966 0
M  V30 1861 O 179.012 5.68342 0.48414 0
M  V30 1862 O 177.946 5.84214 -1.44838 0
M  V30 1863 H 181.772 2.54197 -1.66186 0
M  V30 1864 H 179.357 1.21331 -0.871735 0
M  V30 1865 H 181.239 4.21185 0.134739 0
M  V30 1866 H 179.914 3.1597 0.703185 0
M  V30 1867 H 178.821 3.37985 -1.60366 0
M  V30 1868 H 180.154 4.45524 -2.09211 0
M  V30 1869 N 181.806 0.884767 1.30421 0
M  V30 1870 C 182.716 0.355398 2.31892 0
M  V30 1871 C 183.732 -0.542261 1.65335 0
M  V30 1872 O 184.908 -0.435432 1.96637 0
M  V30 1873 C 181.973 -0.421661 3.44126 0
M  V30 1874 C 181.034 0.505727 4.26311 0
M  V30 1875 C 180.267 -0.234343 5.33185 0
M  V30 1876 O 180.49 -1.46045 5.51386 0
M  V30 1877 O 179.424 0.415443 6.00465 0
M  V30 1878 H 183.25 1.19685 2.79122 0
M  V30 1879 H 180.835 0.648596 1.34587 0
M  V30 1880 H 182.717 -0.861641 4.12497 0
M  V30 1881 H 181.392 -1.23942 2.99032 0
M  V30 1882 H 180.299 0.994513 3.60639 0
M  V30 1883 H 181.632 1.28948 4.75009 0
M  V30 1884 N 183.284 -1.43765 0.645699 0
M  V30 1885 C 184.214 -2.33471 -0.0370477 0
M  V30 1886 C 185.195 -1.49042 -0.819779 0
M  V30 1887 O 186.38 -1.77726 -0.782758 0
M  V30 1888 C 183.51 -3.32311 -1.0093 0
M  V30 1889 C 182.464 -4.2667 -0.337201 0
M  V30 1890 C 181.79 -5.1549 -1.42037 0
M  V30 1891 C 183.09 -5.16657 0.765706 0
M  V30 1892 H 184.784 -2.90809 0.712069 0
M  V30 1893 H 182.33 -1.39834 0.343876 0
M  V30 1894 H 184.283 -3.9396 -1.49578 0
M  V30 1895 H 183.007 -2.73213 -1.78948 0
M  V30 1896 H 181.666 -3.66374 0.128771 0
M  V30 1897 H 181.314 -4.52735 -2.1918 0
M  V30 1898 H 181.014 -5.79438 -0.975966 0
M  V30 1899 H 182.538 -5.80012 -1.90838 0
M  V30 1900 H 183.952 -5.72158 0.361702 0
M  V30 1901 H 182.349 -5.89286 1.13413 0
M  V30 1902 H 183.419 -4.56796 1.62683 0
M  V30 1903 N 184.763 -0.387143 -1.52771 0
M  V30 1904 C 186.011 0.195349 -2.01154 0
M  V30 1905 C 186.332 1.475 -1.27549 0
M  V30 1906 O 185.602 1.91878 -0.394924 0
M  V30 1907 H 184.182 0.075178 -0.743207 0
M  V30 1908 H 186.844 -0.518337 -1.87881 0
M  V30 1909 H 185.94 0.407096 -3.09434 0
M  V30 1910 N 186.241 1.57166 -0.116904 0
M  V30 1911 C 187.174 2.10912 0.871291 0
M  V30 1912 C 188.152 1.025 1.26224 0
M  V30 1913 O 189.336 1.3014 1.36366 0
M  V30 1914 C 186.463 2.6041 2.16574 0
M  V30 1915 C 185.509 3.80687 1.92302 0
M  V30 1916 S 186.342 5.23199 1.14119 0
M  V30 1917 C 187.498 5.76064 2.44748 0
M  V30 1918 H 187.731 2.94401 0.414138 0
M  V30 1919 H 185.264 1.54096 0.096829 0
M  V30 1920 H 187.222 2.89583 2.9095 0
M  V30 1921 H 185.883 1.77106 2.59408 0
M  V30 1922 H 185.076 4.13462 2.8821 0
M  V30 1923 H 184.678 3.5212 1.26047 0
M  V30 1924 H 186.97 5.8566 3.406 0
M  V30 1925 H 187.913 6.74184 2.16521 0
M  V30 1926 H 188.321 5.04117 2.54019 0
M  V30 1927 N 187.719 -0.156864 1.56817 0
M  V30 1928 C 188.682 -1.17781 1.96622 0
M  V30 1929 C 189.682 -1.36401 0.851555 0
M  V30 1930 O 190.872 -1.33561 1.11836 0
M  V30 1931 C 188.004 -2.54008 2.27361 0
M  V30 1932 H 189.197 -0.836564 2.87996 0
M  V30 1933 H 186.75 -0.39985 1.51099 0
M  V30 1934 H 187.485 -2.9312 1.38748 0
M  V30 1935 H 187.27 -2.41856 3.08623 0
M  V30 1936 H 188.76 -3.27558 2.59029 0
M  V30 1937 N 189.197 -1.51736 -0.425897 0
M  V30 1938 C 190.608 -1.5732 -1.00536 0
M  V30 1939 C 190.959 -0.403537 -1.92005 0
M  V30 1940 O 190.084 0.478256 -2.11049 0
M  V30 1941 C 190.679 -2.85119 -1.8301 0
M  V30 1942 C 189.238 -2.93236 -2.35987 0
M  V30 1943 C 188.385 -2.52098 -1.15508 0
M  V30 1944 H 191.336 -1.57348 -0.206739 0
M  V30 1945 H 191.357 -2.69526 -2.68581 0
M  V30 1946 H 190.869 -3.7023 -1.16411 0
M  V30 1947 H 188.97 -2.12581 -3.06007 0
M  V30 1948 H 189.083 -3.9713 -2.68001 0
M  V30 1949 H 187.447 -2.05558 -1.50393 0
M  V30 1950 H 188.23 -3.39565 -0.505014 0
M  V30 1951 N 190.675 0.682077 -1.42076 0
M  V30 1952 C 191.638 1.77756 -1.44691 0
M  V30 1953 C 192.638 1.5726 -0.335535 0
M  V30 1954 O 193.828 1.63686 -0.596037 0
M  V30 1955 C 190.96 3.16301 -1.27146 0
M  V30 1956 H 192.153 1.76826 -2.42224 0
M  V30 1957 H 189.706 0.891012 -1.28416 0
M  V30 1958 H 190.441 3.22862 -0.305075 0
M  V30 1959 H 190.226 3.32581 -2.07683 0
M  V30 1960 H 191.716 3.96241 -1.31843 0
M  V30 1961 N 192.153 1.28127 0.917671 0
M  V30 1962 C 193.083 1.14248 2.03641 0
M  V30 1963 C 194.064 0.0412748 1.7005 0
M  V30 1964 O 195.249 0.217566 1.92977 0
M  V30 1965 C 192.379 0.799431 3.37974 0
M  V30 1966 C 191.333 1.85497 3.85713 0
M  V30 1967 C 190.659 1.36565 5.16966 0
M  V30 1968 C 191.959 3.26085 4.08002 0
M  V30 1969 H 193.653 2.07835 2.15511 0
M  V30 1970 H 191.199 1.00064 1.03553 0
M  V30 1971 H 193.152 0.689114 4.15727 0
M  V30 1972 H 191.876 -0.172145 3.26146 0
M  V30 1973 H 190.535 1.95437 3.10161 0
M  V30 1974 H 190.183 0.383253 5.01538 0
M  V30 1975 H 189.883 2.07143 5.49878 0
M  V30 1976 H 191.407 1.26848 5.97279 0
M  V30 1977 H 192.821 3.19089 4.76293 0
M  V30 1978 H 191.218 3.94462 4.52238 0
M  V30 1979 H 192.288 3.70394 3.12948 0
M  V30 1980 N 193.631 -1.12557 1.10312 0
M  V30 1981 C 194.563 -2.17971 0.708625 0
M  V30 1982 C 195.576 -1.60806 -0.254027 0
M  V30 1983 O 196.765 -1.78458 -0.0386891 0
M  V30 1984 C 193.865 -3.38891 0.0248198 0
M  V30 1985 C 193.038 -4.25548 1.01132 0
M  V30 1986 C 192.097 -5.24972 0.35924 0
M  V30 1987 O 191.123 -5.60174 1.00965 0
M  V30 1988 N 192.325 -5.73747 -0.882847 0
M  V30 1989 H 195.09 -2.52427 1.61557 0
M  V30 1990 H 192.651 -1.27967 0.991771 0
M  V30 1991 H 194.643 -4.02485 -0.422852 0
M  V30 1992 H 193.213 -3.02596 -0.784514 0
M  V30 1993 H 192.433 -3.58589 1.6373 0
M  V30 1994 H 193.721 -4.80294 1.67914 0
M  V30 1995 H 193.119 -5.4731 -1.43065 0
M  V30 1996 H 191.676 -6.39234 -1.27369 0
M  V30 1997 N 195.109 -0.891671 -1.2995 0
M  V30 1998 C 196.52 -0.563104 -1.78006 0
M  V30 1999 C 196.871 0.920978 -1.73241 0
M  V30 2000 O 195.996 1.71987 -1.31337 0
M  V30 2001 C 196.591 -1.01539 -3.23226 0
M  V30 2002 C 195.15 -0.738124 -3.69092 0
M  V30 2003 C 194.297 -1.19461 -2.50249 0
M  V30 2004 H 197.248 -1.07522 -1.16725 0
M  V30 2005 H 197.269 -0.347217 -3.78912 0
M  V30 2006 H 196.781 -2.09555 -3.26662 0
M  V30 2007 H 194.882 0.329766 -3.71138 0
M  V30 2008 H 194.995 -1.33037 -4.60259 0
M  V30 2009 H 193.359 -0.613787 -2.47194 0
M  V30 2010 H 194.142 -2.28265 -2.56417 0
M  V30 2011 N 196.587 1.43421 -0.653314 0
M  V30 2012 C 197.815 2.06163 -0.174491 0
M  V30 2013 C 198.23 1.48969 1.1599 0
M  V30 2014 O 197.587 0.621042 1.71608 0
M  V30 2015 C 197.638 3.61417 -0.0774865 0
M  V30 2016 O 197.359 4.16485 -1.35912 0
M  V30 2017 C 198.86 4.41235 0.427402 0
M  V30 2018 H 196.08 0.664946 -0.0899353 0
M  V30 2019 H 198.624 1.83924 -0.893988 0
M  V30 2020 H 196.779 3.82841 0.59257 0
M  V30 2021 H 197.193 5.10153 -1.21839 0
M  V30 2022 H 198.667 5.5021 0.44423 0
M  V30 2023 H 199.144 4.14268 1.45873 0
M  V30 2024 H 199.75 4.2478 -0.210167 0
M  V30 2025 N 198.065 0.39524 1.52563 0
M  V30 2026 C 198.997 -0.472201 2.24283 0
M  V30 2027 C 200.01 -1.02178 1.26742 0
M  V30 2028 O 201.199 -0.923097 1.52778 0
M  V30 2029 C 198.299 -1.66775 2.95024 0
M  V30 2030 C 197.472 -1.2445 4.19322 0
M  V30 2031 C 196.531 -2.30539 4.7301 0
M  V30 2032 O 195.557 -1.91702 5.35947 0
M  V30 2033 N 196.759 -3.6253 4.53379 0
M  V30 2034 H 199.524 0.142282 2.99362 0
M  V30 2035 H 197.085 0.2219 1.60372 0
M  V30 2036 H 199.077 -2.37283 3.27839 0
M  V30 2037 H 197.647 -2.18845 2.23217 0
M  V30 2038 H 196.867 -0.368069 3.92478 0
M  V30 2039 H 198.155 -0.938457 5.0007 0
M  V30 2040 H 197.553 -3.96841 4.03154 0
M  V30 2041 H 196.11 -4.29055 4.90668 0
M  V30 2042 N 199.544 -1.57102 0.125237 0
M  V30 2043 C 200.792 -1.95021 -0.530198 0
M  V30 2044 C 201.113 -1.00982 -1.66816 0
M  V30 2045 O 200.383 -0.0672693 -1.95784 0
M  V30 2046 H 198.963 -0.720046 -0.198853 0
M  V30 2047 H 201.625 -1.93916 0.19564 0
M  V30 2048 H 200.721 -2.98211 -0.920681 0
M  V30 2049 N 201.022 0.148545 -1.56898 0
M  V30 2050 C 201.985 1.16736 -1.97244 0
M  V30 2051 C 202.985 1.35947 -0.858777 0
M  V30 2052 O 204.175 1.32966 -1.12542 0
M  V30 2053 C 201.307 2.52798 -2.28705 0
M  V30 2054 H 202.5 0.821279 -2.88435 0
M  V30 2055 H 200.053 0.391831 -1.51309 0
M  V30 2056 H 200.788 2.92381 -1.403 0
M  V30 2057 H 200.573 2.40216 -3.09901 0
M  V30 2058 H 202.063 3.26179 -2.60762 0
M  V30 2059 N 202.5 1.5196 0.417844 0
M  V30 2060 C 203.433 1.69387 1.52916 0
M  V30 2061 C 204.411 0.541419 1.53321 0
M  V30 2062 O 205.595 0.767695 1.72159 0
M  V30 2063 C 202.722 1.72525 2.91467 0
M  V30 2064 C 201.768 2.93967 3.09008 0
M  V30 2065 S 202.601 4.54461 2.83242 0
M  V30 2066 C 203.757 4.60372 4.24038 0
M  V30 2067 H 203.99 2.63382 1.37903 0
M  V30 2068 H 201.523 1.41889 0.608845 0
M  V30 2069 H 203.481 1.75018 3.7132 0
M  V30 2070 H 202.142 0.796733 3.03827 0
M  V30 2071 H 201.335 2.92619 4.10353 0
M  V30 2072 H 200.937 2.89316 2.37007 0
M  V30 2073 H 203.229 4.37213 5.17544 0
M  V30 2074 H 204.172 5.62273 4.30412 0
M  V30 2075 H 204.58 3.89492 4.08602 0
M  V30 2076 N 203.978 -0.674533 1.42435 0
M  V30 2077 C 205.389 -1.25514 1.38214 0
M  V30 2078 C 205.74 -1.96055 0.0755464 0
M  V30 2079 O 204.865 -2.00028 -0.8257 0
M  V30 2080 C 205.46 -2.28269 2.50357 0
M  V30 2081 C 204.019 -2.81856 2.49467 0
M  V30 2082 C 203.166 -1.56182 2.29134 0
M  V30 2083 H 206.117 -0.467902 1.51646 0
M  V30 2084 H 206.138 -3.10009 2.20624 0
M  V30 2085 H 205.65 -1.769 3.45439 0
M  V30 2086 H 203.751 -3.37346 1.58204 0
M  V30 2087 H 203.864 -3.30854 3.46515 0
M  V30 2088 H 202.228 -1.82761 1.774 0
M  V30 2089 H 203.011 -1.06778 3.26272 0
M  V30 2090 N 205.456 -1.28612 -0.910864 0
M  V30 2091 C 206.419 -1.12803 -1.9952 0
M  V30 2092 C 207.419 -0.0668264 -1.60661 0
M  V30 2093 O 208.609 -0.312847 -1.71368 0
M  V30 2094 C 205.741 -0.72254 -3.33155 0
M  V30 2095 H 206.934 -2.09109 -2.14973 0
M  V30 2096 H 204.487 -1.11639 -1.09391 0
M  V30 2097 H 205.222 0.241152 -3.23402 0
M  V30 2098 H 205.007 -1.48916 -3.62721 0
M  V30 2099 H 206.497 -0.634666 -4.12749 0
M  V30 2100 N 206.934 1.1197 -1.10907 0
M  V30 2101 C 208.181 1.83588 -0.854507 0
M  V30 2102 C 208.509 1.84357 0.6199 0
M  V30 2103 O 207.764 1.28809 1.47332 0
M  V30 2104 C 208.063 3.30749 -1.35425 0
M  V30 2105 C 207.729 3.50146 -2.84093 0
M  V30 2106 C 206.391 3.55148 -3.2469 0
M  V30 2107 C 208.743 3.56857 -3.79872 0
M  V30 2108 C 206.071 3.6441 -4.59806 0
M  V30 2109 C 208.423 3.6765 -5.14797 0
M  V30 2110 C 207.087 3.7091 -5.54961 0
M  V30 2111 H 206.357 0.671795 -0.312686 0
M  V30 2112 H 209.004 1.32091 -1.38652 0
M  V30 2113 H 207.309 3.84703 -0.742361 0
M  V30 2114 H 209.006 3.8464 -1.1337 0
M  V30 2115 H 205.596 3.46919 -2.51685 0
M  V30 2116 H 209.78 3.52258 -3.49611 0
M  V30 2117 H 205.036 3.65208 -4.9034 0
M  V30 2118 H 209.21 3.71786 -5.88853 0
M  V30 2119 H 206.837 3.7784 -6.59652 0
M  V30 2120 N 208.412 0.89855 1.29475 0
M  V30 2121 C 209.375 0.380272 2.26023 0
M  V30 2122 C 210.375 -0.484891 1.53315 0
M  V30 2123 O 211.565 -0.290108 1.71767 0
M  V30 2124 C 208.697 -0.45651 3.3783 0
M  V30 2125 H 209.89 1.23295 2.73383 0
M  V30 2126 H 207.443 0.676589 1.40897 0
M  V30 2127 H 208.178 -1.32922 2.95808 0
M  V30 2128 H 207.963 0.163393 3.91759 0
M  V30 2129 H 209.453 -0.810466 4.0966 0
M  V30 2130 N 209.89 -1.43072 0.660911 0
M  V30 2131 C 211.115 -2.06584 0.183805 0
M  V30 2132 C 211.54 -1.49257 -1.14472 0
M  V30 2133 O 210.898 -0.605528 -1.70889 0
M  V30 2134 C 210.946 -3.60418 0.114434 0
M  V30 2135 O 210.05 -4.01981 -0.921137 0
M  V30 2136 H 209.391 -0.656669 0.0983994 0
M  V30 2137 H 211.921 -1.83447 0.906006 0
M  V30 2138 H 211.931 -4.07946 -0.0663394 0
M  V30 2139 H 210.606 -4.01519 1.08422 0
M  V30 2140 H 209.183 -3.66029 -0.71253 0
M  V30 2141 N 211.368 -0.403325 -1.52352 0
M  V30 2142 C 212.331 0.413051 -2.25447 0
M  V30 2143 C 213.331 0.978513 -1.276 0
M  V30 2144 O 214.521 0.858305 -1.51587 0
M  V30 2145 C 211.653 1.58087 -3.02029 0
M  V30 2146 H 212.846 -0.227094 -2.99039 0
M  V30 2147 H 210.399 -0.155722 -1.55522 0
M  V30 2148 H 211.134 2.25804 -2.32772 0
M  V30 2149 H 210.919 1.18195 -3.73861 0
M  V30 2150 H 212.409 2.1585 -3.57489 0
M  V30 2151 N 212.846 1.57033 -0.133567 0
M  V30 2152 C 214.093 1.95686 0.520877 0
M  V30 2153 C 214.421 1.0177 1.6575 0
M  V30 2154 O 213.676 0.0443195 1.9565 0
M  V30 2155 C 213.975 3.40674 1.08057 0
M  V30 2156 C 213.641 4.50855 0.0637899 0
M  V30 2157 C 212.303 4.80716 -0.215757 0
M  V30 2158 C 214.655 5.17398 -0.62835 0
M  V30 2159 C 211.983 5.74433 -1.19348 0
M  V30 2160 C 214.335 6.12167 -1.5948 0
M  V30 2161 C 212.999 6.40414 -1.88218 0
M  V30 2162 H 212.269 0.716067 0.190602 0
M  V30 2163 H 214.916 1.9026 -0.217556 0
M  V30 2164 H 213.221 3.42865 1.89606 0
M  V30 2165 H 214.918 3.67902 1.59529 0
M  V30 2166 H 211.508 4.27605 0.291855 0
M  V30 2167 H 215.692 4.94472 -0.425562 0
M  V30 2168 H 210.948 5.94616 -1.42272 0
M  V30 2169 H 215.122 6.6281 -2.13671 0
M  V30 2170 H 212.749 7.12838 -2.64133 0
M  V30 2171 N 214.325 -0.140222 1.56975 0
M  V30 2172 C 215.257 -1.19818 1.95388 0
M  V30 2173 C 216.27 -1.38816 0.850525 0
M  V30 2174 O 217.459 -1.38267 1.12891 0
M  V30 2175 C 214.559 -2.56189 2.21857 0
M  V30 2176 C 213.732 -2.58077 3.5315 0
M  V30 2177 C 212.791 -3.76037 3.6808 0
M  V30 2178 O 211.817 -3.60598 4.40406 0
M  V30 2179 N 213.019 -4.93763 3.05251 0
M  V30 2180 H 215.784 -0.871609 2.86746 0
M  V30 2181 H 213.345 -0.32972 1.58507 0
M  V30 2182 H 215.337 -3.33623 2.2908 0
M  V30 2183 H 213.907 -2.81111 1.36731 0
M  V30 2184 H 213.127 -1.6651 3.57307 0
M  V30 2185 H 214.415 -2.56377 4.39486 0
M  V30 2186 H 213.813 -5.09209 2.46419 0
M  V30 2187 H 212.37 -5.68949 3.18026 0
M  V30 2188 N 215.803 -1.52179 -0.40978 0
M  V30 2189 C 217.219 -1.40968 -0.74835 0
M  V30 2190 C 217.419 -0.513657 -1.94843 0
M  V30 2191 O 216.475 0.0208026 -2.52491 0
M  V30 2192 C 217.788 -2.83483 -1.0029 0
M  V30 2193 C 219.336 -2.92821 -1.10565 0
M  V30 2194 C 219.811 -4.36303 -1.39296 0
M  V30 2195 N 221.302 -4.39535 -1.46162 0
M  V30 2196 C 222.037 -5.47614 -1.70018 0
M  V30 2197 N 221.533 -6.65812 -1.91483 0
M  V30 2198 N 223.326 -5.35129 -1.72027 0
M  V30 2199 H 215.477 -2.0897 0.380186 0
M  V30 2200 H 217.74 -0.94185 0.107805 0
M  V30 2201 H 217.446 -3.51168 -0.193461 0
M  V30 2202 H 217.32 -3.24487 -1.92323 0
M  V30 2203 H 219.707 -2.25318 -1.90568 0
M  V30 2204 H 219.788 -2.55276 -0.16369 0
M  V30 2205 H 219.432 -5.04366 -0.598109 0
M  V30 2206 H 219.362 -4.71385 -2.34743 0
M  V30 2207 H 221.853 -3.54332 -1.31367 0
M  V30 2208 H 222.166 -7.43964 -2.09134 0
M  V30 2209 H 220.511 -6.68879 -1.88749 0
M  V30 2210 H 223.702 -4.41764 -1.54796 0
M  V30 2211 H 223.875 -6.19433 -1.9028 0
M  V30 2212 N 217.281 0.66697 -1.42791 0
M  V30 2213 C 218.697 0.981027 -1.25889 0
M  V30 2214 C 218.897 2.00793 -0.168695 0
M  V30 2215 O 217.953 2.48321 0.45747 0
M  V30 2216 C 219.266 1.47838 -2.61848 0
M  V30 2217 C 220.814 1.59575 -2.69267 0
M  V30 2218 C 221.289 2.12704 -4.05612 0
M  V30 2219 N 222.78 2.20026 -4.07606 0
M  V30 2220 C 223.515 2.62227 -5.09926 0
M  V30 2221 N 223.011 3.03824 -6.22626 0
M  V30 2222 N 224.804 2.62045 -4.97281 0
M  V30 2223 H 216.955 -0.0127891 -2.12396 0
M  V30 2224 H 219.218 0.0568258 -0.946295 0
M  V30 2225 H 218.924 0.798299 -3.4252 0
M  V30 2226 H 218.798 2.45579 -2.86305 0
M  V30 2227 H 221.185 2.26687 -1.88936 0
M  V30 2228 H 221.266 0.60302 -2.48591 0
M  V30 2229 H 220.91 1.46198 -4.86404 0
M  V30 2230 H 220.84 3.12782 -4.23645 0
M  V30 2231 H 223.331 1.90708 -3.2625 0
M  V30 2232 H 223.644 3.34734 -6.96544 0
M  V30 2233 H 221.989 3.01662 -6.26119 0
M  V30 2234 H 225.18 2.28916 -4.08308 0
M  V30 2235 H 225.353 2.94613 -5.77154 0
M  V30 2236 N 218.759 1.29093 0.90403 0
M  V30 2237 C 219.722 1.1386 1.98919 0
M  V30 2238 C 220.722 0.0753457 1.60623 0
M  V30 2239 O 221.912 0.321931 1.71199 0
M  V30 2240 C 219.044 0.740198 3.32767 0
M  V30 2241 H 220.237 2.10246 2.13861 0
M  V30 2242 H 217.79 1.12218 1.08797 0
M  V30 2243 H 218.525 -0.223997 3.23525 0
M  V30 2244 H 218.31 1.50838 3.61926 0
M  V30 2245 H 219.8 0.656546 4.12407 0
M  V30 2246 N 220.237 -1.11381 1.11499 0
M  V30 2247 C 221.485 -1.8277 0.862524 0
M  V30 2248 C 221.806 -1.85097 -0.613534 0
M  V30 2249 O 221.076 -1.32198 -1.4457 0
M  V30 2250 H 219.656 -0.676823 0.316101 0
M  V30 2251 H 222.318 -1.34816 1.4075 0
M  V30 2252 H 221.414 -2.86614 1.23527 0
M  V30 2253 N 221.715 -0.905404 -1.28997 0
M  V30 2254 C 222.963 -0.533192 -1.9494 0
M  V30 2255 C 223.284 0.924618 -1.71685 0
M  V30 2256 O 222.554 1.65268 -1.05183 0
M  V30 2257 H 221.134 -0.194194 -0.721317 0
M  V30 2258 H 223.796 -1.15294 -1.57141 0
M  V30 2259 H 222.892 -0.72059 -3.03667 0
M  V30 2260 N 223.193 1.4272 -0.668489 0
M  V30 2261 C 224.439 2.01923 -0.188419 0
M  V30 2262 C 224.772 1.52704 1.19979 0
M  V30 2263 O 224.047 0.726566 1.8042 0
M  V30 2264 C 224.33 3.59451 -0.216085 0
M  V30 2265 C 224.183 4.18864 -1.6393 0
M  V30 2266 C 225.502 4.37903 0.439179 0
M  V30 2267 H 222.621 0.733674 -0.0699412 0
M  V30 2268 H 225.263 1.69822 -0.852076 0
M  V30 2269 H 223.413 3.86929 0.349012 0
M  V30 2270 H 225.085 4.02362 -2.25616 0
M  V30 2271 H 223.328 3.74933 -2.18193 0
M  V30 2272 H 223.999 5.27987 -1.61039 0
M  V30 2273 H 226.475 4.16079 -0.0417878 0
M  V30 2274 H 225.351 5.47519 0.389157 0
M  V30 2275 H 225.612 4.15303 1.51577 0
M  V30 2276 N 224.671 0.411399 1.52136 0
M  V30 2277 C 225.601 -0.404015 2.29978 0
M  V30 2278 C 226.582 -1.04412 1.34284 0
M  V30 2279 O 227.767 -1.0527 1.63192 0
M  V30 2280 C 224.897 -1.5197 3.12286 0
M  V30 2281 C 223.851 -1.00448 4.16046 0
M  V30 2282 C 223.177 -2.21393 4.86712 0
M  V30 2283 C 224.477 -0.0569336 5.22269 0
M  V30 2284 H 226.171 0.245529 2.98392 0
M  V30 2285 H 223.717 0.119525 1.43503 0
M  V30 2286 H 225.67 -2.09715 3.6551 0
M  V30 2287 H 224.394 -2.19716 2.41646 0
M  V30 2288 H 223.053 -0.449421 3.63835 0
M  V30 2289 H 222.701 -2.87699 4.12599 0
M  V30 2290 H 222.401 -1.87571 5.56858 0
M  V30 2291 H 223.925 -2.7974 5.4275 0
M  V30 2292 H 225.339 -0.54325 5.7072 0
M  V30 2293 H 223.736 0.192594 5.99791 0
M  V30 2294 H 224.806 0.887663 4.76706 0
M  V30 2295 N 226.149 -1.5696 0.141893 0
M  V30 2296 C 227.395 -1.9625 -0.511248 0
M  V30 2297 C 227.728 -1.02654 -1.64851 0
M  V30 2298 O 227.003 -0.0679676 -1.94381 0
M  V30 2299 C 227.286 -3.45285 -1.02227 0
M  V30 2300 C 227.139 -4.49658 0.113138 0
M  V30 2301 C 228.458 -3.96698 -1.90574 0
M  V30 2302 H 225.577 -0.713567 -0.184367 0
M  V30 2303 H 228.219 -1.88698 0.222087 0
M  V30 2304 H 226.369 -3.51852 -1.64719 0
M  V30 2305 H 228.041 -4.55174 0.749302 0
M  V30 2306 H 226.284 -4.26857 0.773026 0
M  V30 2307 H 226.955 -5.51258 -0.286053 0
M  V30 2308 H 229.431 -3.92578 -1.37918 0
M  V30 2309 H 228.307 -5.01453 -2.2324 0
M  V30 2310 H 228.568 -3.3875 -2.84079 0
M  V30 2311 N 227.627 0.131896 -1.57047 0
M  V30 2312 C 228.59 1.14638 -1.98471 0
M  V30 2313 C 229.59 1.35029 -0.873148 0
M  V30 2314 O 230.78 1.31764 -1.13946 0
M  V30 2315 C 227.912 2.50358 -2.31373 0
M  V30 2316 H 229.105 0.79064 -2.8929 0
M  V30 2317 H 226.658 0.375761 -1.51716 0
M  V30 2318 H 227.393 2.90876 -1.43393 0
M  V30 2319 H 227.178 2.36915 -3.12432 0
M  V30 2320 H 228.668 3.23395 -2.64207 0
M  V30 2321 N 229.106 1.52395 0.401703 0
M  V30 2322 C 230.331 1.70972 1.17403 0
M  V30 2323 C 230.756 0.421615 1.83314 0
M  V30 2324 O 230.114 -0.621564 1.70312 0
M  V30 2325 C 230.162 2.85151 2.20728 0
M  V30 2326 O 229.266 2.51238 3.27037 0
M  V30 2327 H 228.607 0.568927 0.342372 0
M  V30 2328 H 231.137 1.99131 0.469891 0
M  V30 2329 H 231.147 3.10279 2.64936 0
M  V30 2330 H 229.822 3.78603 1.7214 0
M  V30 2331 H 228.399 2.36808 2.88057 0
M  V30 2332 N 230.584 -0.659388 1.43143 0
M  V30 2333 C 231.534 -1.7655 1.44271 0
M  V30 2334 C 232.518 -1.57847 0.311961 0
M  V30 2335 O 233.71 -1.68064 0.555306 0
M  V30 2336 C 230.839 -3.15104 1.36251 0
M  V30 2337 C 229.925 -3.39377 2.54331 0
M  V30 2338 N 230.316 -3.34153 3.79704 0
M  V30 2339 C 228.614 -3.70072 2.48922 0
M  V30 2340 C 229.315 -3.58337 4.58225 0
M  V30 2341 N 228.291 -3.79851 3.88863 0
M  V30 2342 H 232.093 -1.70928 2.39083 0
M  V30 2343 H 229.607 -0.860823 1.37708 0
M  V30 2344 H 231.604 -3.94389 1.35141 0
M  V30 2345 H 230.264 -3.21913 0.424531 0
M  V30 2346 H 231.275 -3.13704 4.1208 0
M  V30 2347 H 227.952 -3.84034 1.63781 0
M  V30 2348 H 229.342 -3.60129 5.67236 0
M  V30 2349 N 232.062 -1.29571 -0.897171 0
M  V30 2350 C 232.992 -1.17473 -2.01798 0
M  V30 2351 C 233.973 -0.068323 -1.69963 0
M  V30 2352 O 235.158 -0.248239 -1.92607 0
M  V30 2353 C 232.288 -0.853099 -3.36659 0
M  V30 2354 C 231.242 -1.9161 -3.82713 0
M  V30 2355 C 230.568 -1.44773 -5.14728 0
M  V30 2356 C 231.868 -3.32535 -4.02763 0
M  V30 2357 H 233.562 -2.11237 -2.12177 0
M  V30 2358 H 231.108 -1.01699 -1.01948 0
M  V30 2359 H 233.061 -0.755165 -4.14578 0
M  V30 2360 H 231.785 0.120236 -3.26379 0
M  V30 2361 H 230.444 -2.00346 -3.07013 0
M  V30 2362 H 230.092 -0.462995 -5.00865 0
M  V30 2363 H 229.792 -2.15865 -5.46513 0
M  V30 2364 H 231.316 -1.36334 -5.95185 0
M  V30 2365 H 232.73 -3.26626 -4.71156 0
M  V30 2366 H 231.127 -4.01607 -4.45905 0
M  V30 2367 H 232.197 -3.75326 -3.07016 0
M  V30 2368 N 233.54 1.10788 -1.12088 0
M  V30 2369 C 234.472 2.16816 -0.743213 0
M  V30 2370 C 235.485 1.6119 0.228412 0
M  V30 2371 O 236.674 1.78497 0.0102931 0
M  V30 2372 C 233.774 3.38809 -0.0787313 0
M  V30 2373 C 232.947 4.23885 -1.0789 0
M  V30 2374 C 232.006 5.24334 -0.442713 0
M  V30 2375 O 231.032 5.58497 -1.09864 0
M  V30 2376 N 232.234 5.75079 0.791457 0
M  V30 2377 H 234.999 2.49825 -1.65552 0
M  V30 2378 H 232.56 1.26373 -1.012 0
M  V30 2379 H 234.552 4.03107 0.358766 0
M  V30 2380 H 233.122 3.03805 0.736275 0
M  V30 2381 H 232.342 3.55939 -1.69414 0
M  V30 2382 H 233.63 4.77562 -1.75533 0
M  V30 2383 H 233.028 5.49517 1.3434 0
M  V30 2384 H 231.585 6.4118 1.17183 0
M  V30 2385 N 235.018 0.912232 1.28515 0
M  V30 2386 C 236.243 0.559774 1.99703 0
M  V30 2387 C 236.668 -0.851393 1.67729 0
M  V30 2388 O 236.026 -1.56875 0.908834 0
M  V30 2389 C 236.074 0.773874 3.52198 0
M  V30 2390 O 235.178 -0.167842 4.12058 0
M  V30 2391 H 234.519 0.21723 0.627461 0
M  V30 2392 H 237.049 1.22725 1.63706 0
M  V30 2393 H 237.059 0.683386 4.02236 0
M  V30 2394 H 235.734 1.80261 3.74805 0
M  V30 2395 H 234.311 -0.0287509 3.72889 0
M  V30 2396 N 236.496 -1.42363 0.676048 0
M  V30 2397 C 237.743 -2.01522 0.19883 0
M  V30 2398 C 238.071 -1.53456 -1.19505 0
M  V30 2399 O 237.326 -0.727967 -1.81657 0
M  V30 2400 C 237.625 -3.56929 0.183431 0
M  V30 2401 C 237.291 -4.24431 1.52215 0
M  V30 2402 C 235.953 -4.42585 1.8887 0
M  V30 2403 C 238.305 -4.62459 2.40377 0
M  V30 2404 C 235.633 -4.96039 3.13309 0
M  V30 2405 C 237.985 -5.17294 3.64129 0
M  V30 2406 C 236.649 -5.33661 4.00951 0
M  V30 2407 H 235.919 -0.737419 0.0727571 0
M  V30 2408 H 238.566 -1.70531 0.871281 0
M  V30 2409 H 236.871 -3.87594 -0.572532 0
M  V30 2410 H 238.568 -4.00486 -0.203035 0
M  V30 2411 H 235.158 -4.10661 1.22701 0
M  V30 2412 H 239.342 -4.48105 2.13343 0
M  V30 2413 H 234.598 -5.06896 3.41857 0
M  V30 2414 H 238.772 -5.45704 4.32644 0
M  V30 2415 H 236.399 -5.74845 4.9745 0
M  V30 2416 N 237.974 -0.419461 -1.51915 0
M  V30 2417 C 238.904 0.391813 -2.30189 0
M  V30 2418 C 239.885 1.03699 -1.34836 0
M  V30 2419 O 241.07 1.04403 -1.63748 0
M  V30 2420 C 238.2 1.50312 -3.13087 0
M  V30 2421 C 237.154 0.9824 -4.16573 0
M  V30 2422 C 236.48 2.18809 -4.8788 0
M  V30 2423 C 237.78 0.0292356 -5.22292 0
M  V30 2424 H 239.474 -0.26135 -2.98257 0
M  V30 2425 H 237.02 -0.127134 -1.43438 0
M  V30 2426 H 238.973 2.07773 -3.66617 0
M  V30 2427 H 237.697 2.18431 -2.42807 0
M  V30 2428 H 236.356 0.430119 -3.64068 0
M  V30 2429 H 236.004 2.85507 -4.14119 0
M  V30 2430 H 235.704 1.84615 -5.57845 0
M  V30 2431 H 237.228 2.76858 -5.44226 0
M  V30 2432 H 238.642 0.512976 -5.71 0
M  V30 2433 H 237.039 -0.2244 -5.9968 0
M  V30 2434 H 238.109 -0.912931 -4.76228 0
M  V30 2435 N 239.452 1.56882 -0.150215 0
M  V30 2436 C 240.362 2.20494 0.801222 0
M  V30 2437 C 241.378 1.19019 1.26927 0
M  V30 2438 O 242.554 1.51607 1.32579 0
M  V30 2439 C 239.619 2.81659 2.02161 0
M  V30 2440 C 238.68 3.9827 1.60249 0
M  V30 2441 C 237.913 4.56508 2.7647 0
M  V30 2442 O 238.136 4.13627 3.92771 0
M  V30 2443 O 237.07 5.46719 2.51757 0
M  V30 2444 H 240.896 3.02315 0.289717 0
M  V30 2445 H 238.481 1.49202 0.0769684 0
M  V30 2446 H 240.363 3.20522 2.73576 0
M  V30 2447 H 239.038 2.02849 2.52258 0
M  V30 2448 H 237.945 3.64117 0.858477 0
M  V30 2449 H 239.278 4.78609 1.14864 0
M  V30 2450 N 240.93 -0.123565 1.57115 0
M  V30 2451 C 242.176 -0.833386 1.84885 0
M  V30 2452 C 242.509 -1.79742 0.735292 0
M  V30 2453 O 241.784 -1.92764 -0.25925 0
M  V30 2454 C 242.067 -1.5873 3.23228 0
M  V30 2455 C 241.92 -0.643183 4.45178 0
M  V30 2456 C 243.239 -2.54453 3.59085 0
M  V30 2457 H 240.358 -0.301518 0.6725 0
M  V30 2458 H 243 -0.097778 1.89748 0
M  V30 2459 H 241.15 -2.21438 3.19214 0
M  V30 2460 H 242.822 -0.0253015 4.61293 0
M  V30 2461 H 241.065 0.0456139 4.33776 0
M  V30 2462 H 241.736 -1.20724 5.38637 0
M  V30 2463 H 244.212 -2.01853 3.63861 0
M  V30 2464 H 243.088 -3.04238 4.5687 0
M  V30 2465 H 243.349 -3.36906 2.86264 0
M  V30 2466 N 242.408 -1.52605 -0.393616 0
M  V30 2467 C 243.633 -1.71592 -1.16495 0
M  V30 2468 C 244.058 -0.43133 -1.83088 0
M  V30 2469 O 243.416 0.612523 -1.7064 0
M  V30 2470 C 243.464 -2.86318 -2.19213 0
M  V30 2471 O 242.568 -2.52969 -3.257 0
M  V30 2472 H 241.909 -0.570734 -0.33935 0
M  V30 2473 H 244.439 -1.99377 -0.459324 0
M  V30 2474 H 244.449 -3.1168 -2.63286 0
M  V30 2475 H 243.124 -3.79511 -1.7013 0
M  V30 2476 H 241.701 -2.38332 -2.86797 0
M  V30 2477 N 243.887 0.651787 -1.4349 0
M  V30 2478 C 245.117 1.43728 -1.48411 0
M  V30 2479 C 245.525 1.8893 -0.10103 0
M  V30 2480 O 244.868 1.60182 0.899307 0
M  V30 2481 C 244.93 2.70411 -2.36893 0
M  V30 2482 C 244.594 2.4714 -3.8441 0
M  V30 2483 C 245.591 2.10271 -4.75481 0
M  V30 2484 C 243.276 2.6142 -4.28912 0
M  V30 2485 C 245.27 1.87982 -6.0905 0
M  V30 2486 C 242.957 2.38746 -5.62533 0
M  V30 2487 C 243.955 2.02083 -6.5242 0
M  V30 2488 O 243.643 1.79647 -7.8357 0
M  V30 2489 H 243.375 0.447962 -0.506267 0
M  V30 2490 H 245.929 0.80624 -1.88915 0
M  V30 2491 H 244.159 3.36079 -1.91278 0
M  V30 2492 H 245.848 3.32364 -2.33 0
M  V30 2493 H 246.614 1.98814 -4.42378 0
M  V30 2494 H 242.493 2.88931 -3.59222 0
M  V30 2495 H 246.037 1.5929 -6.7917 0
M  V30 2496 H 241.934 2.49806 -5.95203 0
M  V30 2497 H 242.702 1.9406 -7.95162 0
M  V30 2498 N 245.365 1.30045 0.890287 0
M  V30 2499 C 246.781 1.08261 1.17268 0
M  V30 2500 C 246.981 -0.160063 2.00863 0
M  V30 2501 O 246.037 -0.855181 2.37577 0
M  V30 2502 C 247.35 2.34323 1.8845 0
M  V30 2503 C 248.898 2.39735 2.01237 0
M  V30 2504 C 249.373 3.65625 2.7583 0
M  V30 2505 N 250.864 3.66402 2.83379 0
M  V30 2506 C 251.599 4.60498 3.41657 0
M  V30 2507 N 251.095 5.64933 4.01026 0
M  V30 2508 N 252.888 4.48051 3.39421 0
M  V30 2509 H 245.039 2.09777 0.332762 0
M  V30 2510 H 247.302 0.92446 0.209948 0
M  V30 2511 H 247.008 3.2498 1.34465 0
M  V30 2512 H 246.882 2.4256 2.88867 0
M  V30 2513 H 249.269 1.4956 2.54393 0
M  V30 2514 H 249.35 2.35476 0.999232 0
M  V30 2515 H 248.994 4.56156 2.23347 0
M  V30 2516 H 248.924 3.67144 3.77509 0
M  V30 2517 H 251.415 2.90896 2.41222 0
M  V30 2518 H 251.728 6.32841 4.43545 0
M  V30 2519 H 250.073 5.68732 3.99461 0
M  V30 2520 H 253.264 3.65649 2.92264 0
M  V30 2521 H 253.437 5.21565 3.84544 0
M  V30 2522 N 246.843 -1.10192 1.12674 0
M  V30 2523 C 248.089 -1.82475 0.884915 0
M  V30 2524 C 248.422 -1.85093 -0.58773 0
M  V30 2525 O 247.697 -1.3134 -1.43457 0
M  V30 2526 C 247.98 -3.29018 1.46353 0
M  V30 2527 C 247.833 -3.34718 3.00473 0
M  V30 2528 C 249.152 -4.25473 1.12519 0
M  V30 2529 H 246.271 -0.662492 0.322915 0
M  V30 2530 H 248.913 -1.2913 1.39375 0
M  V30 2531 H 247.063 -3.74576 1.03077 0
M  V30 2532 H 248.735 -2.97622 3.52447 0
M  V30 2533 H 246.978 -2.74541 3.35872 0
M  V30 2534 H 247.649 -4.37918 3.36053 0
M  V30 2535 H 250.125 -3.88161 1.499 0
M  V30 2536 H 249.001 -5.26365 1.55663 0
M  V30 2537 H 249.262 -4.42084 0.0377407 0
M  V30 2538 N 248.321 -0.919034 -1.28029 0
M  V30 2539 C 249.251 -0.428581 -2.29533 0
M  V30 2540 C 250.232 0.50659 -1.62381 0
M  V30 2541 O 251.417 0.413195 -1.89753 0
M  V30 2542 C 248.547 0.327388 -3.45753 0
M  V30 2543 C 247.501 -0.519137 -4.2484 0
M  V30 2544 C 246.827 0.365486 -5.33449 0
M  V30 2545 C 248.127 -1.77914 -4.91064 0
M  V30 2546 H 249.821 -1.27687 -2.70807 0
M  V30 2547 H 247.367 -0.615428 -1.30186 0
M  V30 2548 H 249.32 0.681378 -4.15855 0
M  V30 2549 H 248.044 1.20963 -3.03374 0
M  V30 2550 H 246.703 -0.855717 -3.56473 0
M  V30 2551 H 246.351 1.24642 -4.87312 0
M  V30 2552 H 246.051 -0.197356 -5.87268 0
M  V30 2553 H 247.575 0.715241 -6.06396 0
M  V30 2554 H 248.989 -1.49374 -5.53498 0
M  V30 2555 H 247.386 -2.2848 -5.54903 0
M  V30 2556 H 248.456 -2.50382 -4.15255 0
M  V30 2557 N 249.799 1.42003 -0.683588 0
M  V30 2558 C 251.215 1.55625 -0.353976 0
M  V30 2559 C 251.415 1.66151 1.14 0
M  V30 2560 O 250.471 1.63329 1.92561 0
M  V30 2561 C 251.784 2.80171 -1.092 0
M  V30 2562 C 253.332 2.93954 -1.07518 0
M  V30 2563 C 253.807 4.21372 -1.79471 0
M  V30 2564 N 255.298 4.28303 -1.76381 0
M  V30 2565 C 256.033 5.25729 -2.28904 0
M  V30 2566 N 255.529 6.29254 -2.89846 0
M  V30 2567 N 257.322 5.17586 -2.19228 0
M  V30 2568 H 249.473 1.33415 -1.6527 0
M  V30 2569 H 251.736 0.64282 -0.696769 0
M  V30 2570 H 251.442 2.78561 -2.14701 0
M  V30 2571 H 251.316 3.7133 -0.662862 0
M  V30 2572 H 253.703 2.95086 -0.028475 0
M  V30 2573 H 253.784 2.04002 -1.54328 0
M  V30 2574 H 253.428 4.21001 -2.84114 0
M  V30 2575 H 253.358 5.10275 -1.30104 0
M  V30 2576 H 255.849 3.54119 -1.31939 0
M  V30 2577 H 256.162 6.99964 -3.27522 0
M  V30 2578 H 254.507 6.29791 -2.93919 0
M  V30 2579 H 257.698 4.35631 -1.71299 0
M  V30 2580 H 257.871 5.93348 -2.60466 0
M  V30 2581 N 251.277 0.427512 1.51691 0
M  V30 2582 C 252.227 -0.406604 2.24345 0
M  V30 2583 C 253.211 -0.998276 1.26187 0
M  V30 2584 O 254.403 -0.918045 1.51331 0
M  V30 2585 C 251.532 -1.51266 3.08177 0
M  V30 2586 C 250.618 -0.930868 4.13758 0
M  V30 2587 N 251.009 -0.0773552 5.05741 0
M  V30 2588 C 249.307 -1.19948 4.29568 0
M  V30 2589 C 250.008 0.248344 5.8117 0
M  V30 2590 N 248.984 -0.365535 5.4237 0
M  V30 2591 H 252.786 0.251581 2.92821 0
M  V30 2592 H 250.3 0.239003 1.60632 0
M  V30 2593 H 252.297 -2.123 3.58796 0
M  V30 2594 H 250.957 -2.17328 2.41244 0
M  V30 2595 H 251.968 0.288351 5.17097 0
M  V30 2596 H 248.645 -1.85832 3.73862 0
M  V30 2597 H 250.035 0.942286 6.6526 0
M  V30 2598 N 252.755 -1.56801 0.158532 0
M  V30 2599 C 253.685 -2.20347 -0.772609 0
M  V30 2600 C 254.666 -1.15518 -1.24859 0
M  V30 2601 O 255.851 -1.43902 -1.30406 0
M  V30 2602 C 252.981 -2.83417 -2.00729 0
M  V30 2603 C 251.935 -3.94174 -1.66765 0
M  V30 2604 C 251.261 -4.44233 -2.97592 0
M  V30 2605 C 252.561 -5.14392 -0.905447 0
M  V30 2606 H 254.255 -2.98413 -0.242959 0
M  V30 2607 H 251.801 -1.43537 -0.115419 0
M  V30 2608 H 253.754 -3.26543 -2.6636 0
M  V30 2609 H 252.478 -2.02701 -2.56086 0
M  V30 2610 H 251.137 -3.51684 -1.03508 0
M  V30 2611 H 250.785 -3.60325 -3.50963 0
M  V30 2612 H 250.485 -5.18945 -2.75626 0
M  V30 2613 H 252.009 -4.90037 -3.64274 0
M  V30 2614 H 253.423 -5.5429 -1.46408 0
M  V30 2615 H 251.82 -5.9494 -0.7853 0
M  V30 2616 H 252.89 -4.84795 0.100668 0
M  V30 2617 N 254.233 0.115231 -1.57178 0
M  V30 2618 C 255.196 1.12526 -1.99676 0
M  V30 2619 C 256.196 1.34095 -0.88742 0
M  V30 2620 O 257.386 1.30548 -1.15337 0
M  V30 2621 C 254.518 2.4789 -2.34015 0
M  V30 2622 H 255.711 0.759912 -2.90113 0
M  V30 2623 H 253.264 0.359648 -1.52106 0
M  V30 2624 H 253.999 2.89339 -1.4647 0
M  V30 2625 H 253.784 2.33588 -3.14927 0
M  V30 2626 H 255.274 3.20575 -2.67622 0
M  V30 2627 N 255.711 1.52812 0.385517 0
M  V30 2628 C 256.643 1.74096 1.49074 0
M  V30 2629 C 257.656 0.621462 1.50472 0
M  V30 2630 O 258.845 0.897245 1.54311 0
M  V30 2631 C 255.945 1.78774 2.87911 0
M  V30 2632 C 255.118 3.08134 3.10439 0
M  V30 2633 C 254.177 3.04313 4.29278 0
M  V30 2634 O 253.203 3.78168 4.25415 0
M  V30 2635 N 254.405 2.23741 5.35649 0
M  V30 2636 H 257.17 2.69455 1.31202 0
M  V30 2637 H 254.731 1.51343 0.575065 0
M  V30 2638 H 256.723 1.73721 3.65518 0
M  V30 2639 H 255.293 0.907869 2.99126 0
M  V30 2640 H 254.513 3.26649 2.20667 0
M  V30 2641 H 255.801 3.93662 3.22347 0
M  V30 2642 H 255.199 1.63211 5.41645 0
M  V30 2643 H 253.756 2.24524 6.11909 0
M  V30 2644 N 257.189 -0.644168 1.43834 0
M  V30 2645 C 258.6 -1.22554 1.40845 0
M  V30 2646 C 258.951 -1.9585 0.117115 0
M  V30 2647 O 258.076 -2.01734 -0.783086 0
M  V30 2648 C 258.671 -2.22907 2.55143 0
M  V30 2649 C 257.23 -2.76501 2.5539 0
M  V30 2650 C 256.377 -1.51287 2.32396 0
M  V30 2651 H 259.328 -0.43563 1.52604 0
M  V30 2652 H 259.349 -3.05259 2.2715 0
M  V30 2653 H 258.861 -1.69533 3.49114 0
M  V30 2654 H 256.962 -3.33914 1.65324 0
M  V30 2655 H 257.075 -3.23429 3.53455 0
M  V30 2656 H 255.439 -1.78957 1.81236 0
M  V30 2657 H 256.222 -0.998336 3.28463 0
M  V30 2658 O 258.706 -1.41006 -0.787381 0
M  V30 2659 H 259.397 -1.30255 -1.43364 0
M  V30 END ATOM
M  V30 BEGIN BOND
M  V30 END BOND
M  V30 END CTAB
M  END
$$$$
