drugbank_drug|DB00107 DB00107 sequence
 OpenBabel12092119123D

136137  0  0  0  0  0  0  0  0999 V2000
   -0.9080    1.9825   -0.1171 H   0  0  0  0  0 15  0  0  0  0  0  0
    0.0000    1.5760    0.0000 N   0  0  0  0  0 15  0  0  0  0  0  0
    1.2400    1.9242    0.6894 C   0  0  0  0  0 15  0  0  0  0  0  0
    1.6040    0.8743    1.7094 C   0  0  0  0  0 15  0  0  0  0  0  0
    2.8050    1.1078    2.4491 O   0  0  0  0  0 15  0  0  0  0  0  0
    1.0760    3.3230    1.3157 C   0  0  0  0  0 15  0  0  0  0  0  0
    2.6350    3.8901    2.0302 S   0  0  0  0  0 15  0  0  0  0  0  0
   -0.5470    0.6736    0.2277 H   0  0  0  0  0 15  0  0  0  0  0  0
    2.0550    1.9542   -0.0567 H   0  0  0  0  0 15  0  0  0  0  0  0
    0.7590    4.0655    0.5605 H   0  0  0  0  0 15  0  0  0  0  0  0
    0.2900    3.3268    2.0997 H   0  0  0  0  0 15  0  0  0  0  0  0
    2.3050    3.7009    3.3053 H   0  0  0  0  0 15  0  0  0  0  0  0
    1.4781   -0.2728    1.5522 N   0  0  0  0  0 15  0  0  0  0  0  0
    2.7081   -1.0211    1.7960 C   0  0  0  0  0 15  0  0  0  0  0  0
    3.1161   -1.8042    0.5697 C   0  0  0  0  0 15  0  0  0  0  0  0
    2.4591   -1.7757   -0.4707 O   0  0  0  0  0 15  0  0  0  0  0  0
    2.5211   -2.0268    2.9692 C   0  0  0  0  0 15  0  0  0  0  0  0
    2.1851   -1.4330    4.3395 C   0  0  0  0  0 15  0  0  0  0  0  0
    3.1821   -0.8485    5.1293 C   0  0  0  0  0 15  0  0  0  0  0  0
    0.8671   -1.4601    4.8061 C   0  0  0  0  0 15  0  0  0  0  0  0
    2.8611   -0.2991    6.3670 C   0  0  0  0  0 15  0  0  0  0  0  0
    0.5481   -0.9068    6.0433 C   0  0  0  0  0 15  0  0  0  0  0  0
    1.5461   -0.3273    6.8222 C   0  0  0  0  0 15  0  0  0  0  0  0
    1.2341    0.2175    8.0361 O   0  0  0  0  0 15  0  0  0  0  0  0
    0.9661   -0.3073    0.6021 H   0  0  0  0  0 15  0  0  0  0  0  0
    3.5201   -0.3089    2.0306 H   0  0  0  0  0 15  0  0  0  0  0  0
    1.7501   -2.7766    2.6915 H   0  0  0  0  0 15  0  0  0  0  0  0
    3.4391   -2.6364    3.0863 H   0  0  0  0  0 15  0  0  0  0  0  0
    4.2051   -0.8203    4.7801 H   0  0  0  0  0 15  0  0  0  0  0  0
    0.0841   -1.9006    4.2000 H   0  0  0  0  0 15  0  0  0  0  0  0
    3.6281    0.1539    6.9743 H   0  0  0  0  0 15  0  0  0  0  0  0
   -0.4749   -0.9323    6.3873 H   0  0  0  0  0 15  0  0  0  0  0  0
    0.2931    0.1069    8.1843 H   0  0  0  0  0 15  0  0  0  0  0  0
    2.9562   -1.4816   -0.5373 N   0  0  0  0  0 15  0  0  0  0  0  0
    4.2052   -1.5506   -1.2899 C   0  0  0  0  0 15  0  0  0  0  0  0
    4.5182   -0.2262   -1.9429 C   0  0  0  0  0 15  0  0  0  0  0  0
    5.7242   -0.1734   -2.7095 O   0  0  0  0  0 15  0  0  0  0  0  0
    4.1802   -2.7343   -2.3402 C   0  0  0  0  0 15  0  0  0  0  0  0
    3.7882   -4.1248   -1.7483 C   0  0  0  0  0 15  0  0  0  0  0  0
    5.5322   -2.8964   -3.1034 C   0  0  0  0  0 15  0  0  0  0  0  0
    3.4392   -5.2212   -2.7775 C   0  0  0  0  0 15  0  0  0  0  0  0
    2.3692   -0.5772   -0.4851 H   0  0  0  0  0 15  0  0  0  0  0  0
    5.0202   -1.7448   -0.5683 H   0  0  0  0  0 15  0  0  0  0  0  0
    3.4022   -2.4743   -3.0918 H   0  0  0  0  0 15  0  0  0  0  0  0
    4.5762   -4.4847   -1.0590 H   0  0  0  0  0 15  0  0  0  0  0  0
    2.8912   -4.0133   -1.1102 H   0  0  0  0  0 15  0  0  0  0  0  0
    5.4882   -3.6872   -3.8723 H   0  0  0  0  0 15  0  0  0  0  0  0
    5.8312   -1.9882   -3.6575 H   0  0  0  0  0 15  0  0  0  0  0  0
    6.3642   -3.1550   -2.4229 H   0  0  0  0  0 15  0  0  0  0  0  0
    3.1032   -6.1488   -2.2716 H   0  0  0  0  0 15  0  0  0  0  0  0
    2.6232   -4.9063   -3.4502 H   0  0  0  0  0 15  0  0  0  0  0  0
    4.3022   -5.4992   -3.4087 H   0  0  0  0  0 15  0  0  0  0  0  0
    4.4343    0.7856   -1.3662 N   0  0  0  0  0 15  0  0  0  0  0  0
    5.3663    1.9071   -1.2713 C   0  0  0  0  0 15  0  0  0  0  0  0
    6.3793    1.6169   -0.1900 C   0  0  0  0  0 15  0  0  0  0  0  0
    7.5683    1.7286   -0.4450 O   0  0  0  0  0 15  0  0  0  0  0  0
    4.6683    3.2561   -0.9397 C   0  0  0  0  0 15  0  0  0  0  0  0
    3.8413    3.8238   -2.1237 C   0  0  0  0  0 15  0  0  0  0  0  0
    2.9003    4.9573   -1.7646 C   0  0  0  0  0 15  0  0  0  0  0  0
    1.9263    5.1205   -2.4859 O   0  0  0  0  0 15  0  0  0  0  0  0
    3.1283    5.7626   -0.7005 N   0  0  0  0  0 15  0  0  0  0  0  0
    5.8933    1.9938   -2.2376 H   0  0  0  0  0 15  0  0  0  0  0  0
    3.4543    0.9640   -1.3007 H   0  0  0  0  0 15  0  0  0  0  0  0
    5.4463    3.9894   -0.6806 H   0  0  0  0  0 15  0  0  0  0  0  0
    4.0163    3.1254   -0.0624 H   0  0  0  0  0 15  0  0  0  0  0  0
    3.2363    3.0100   -2.5454 H   0  0  0  0  0 15  0  0  0  0  0  0
    4.5243    4.1705   -2.9146 H   0  0  0  0  0 15  0  0  0  0  0  0
    3.9223    5.6561   -0.1016 H   0  0  0  0  0 15  0  0  0  0  0  0
    2.4793    6.4987   -0.5012 H   0  0  0  0  0 15  0  0  0  0  0  0
    5.9124    1.2097    1.0102 N   0  0  0  0  0 15  0  0  0  0  0  0
    6.8604    0.9612    2.1181 C   0  0  0  0  0 15  0  0  0  0  0  0
    7.8544   -0.0897    1.6916 C   0  0  0  0  0 15  0  0  0  0  0  0
    9.0604    0.0612    1.7990 O   0  0  0  0  0 15  0  0  0  0  0  0
    5.4354    0.2936    0.6923 H   0  0  0  0  0 15  0  0  0  0  0  0
    7.4064    1.9018    2.2995 H   0  0  0  0  0 15  0  0  0  0  0  0
    6.1554    0.5369    3.4353 C   0  0  0  0  0 15  0  0  0  0  0  0
    5.4784    1.3371    3.7678 H   0  0  0  0  0 15  0  0  0  0  0  0
    6.9184    0.4023    4.2209 H   0  0  0  0  0 15  0  0  0  0  0  0
    5.3774   -0.7516    3.2841 C   0  0  0  0  0 15  0  0  0  0  0  0
    5.9074   -1.8084    3.5869 O   0  0  0  0  0 15  0  0  0  0  0  0
    4.1134   -0.7161    2.8164 N   0  0  0  0  0 15  0  0  0  0  0  0
    3.6604    0.1442    2.5720 H   0  0  0  0  0 15  0  0  0  0  0  0
    3.6184   -1.5785    2.7190 H   0  0  0  0  0 15  0  0  0  0  0  0
    7.3905   -1.2043    1.0166 N   0  0  0  0  0 15  0  0  0  0  0  0
    8.6305   -1.9151    0.7145 C   0  0  0  0  0 15  0  0  0  0  0  0
    8.9945   -1.7707   -0.7422 C   0  0  0  0  0 15  0  0  0  0  0  0
   10.1955   -2.4263   -1.1569 O   0  0  0  0  0 15  0  0  0  0  0  0
    8.4665   -3.3880    1.1381 C   0  0  0  0  0 15  0  0  0  0  0  0
   10.0255   -4.2822    0.9579 S   0  0  0  0  0 15  0  0  0  0  0  0
    6.8435   -0.6616    0.2605 H   0  0  0  0  0 15  0  0  0  0  0  0
    9.4455   -1.4567    1.3038 H   0  0  0  0  0 15  0  0  0  0  0  0
    8.1495   -3.4682    2.1941 H   0  0  0  0  0 15  0  0  0  0  0  0
    7.6805   -3.8966    0.5415 H   0  0  0  0  0 15  0  0  0  0  0  0
    9.6955   -4.9601   -0.1385 H   0  0  0  0  0 15  0  0  0  0  0  0
    8.8686   -0.7928   -1.3621 N   0  0  0  0  0 15  0  0  0  0  0  0
   10.2796   -0.4295   -1.8169 C   0  0  0  0  0 15  0  0  0  0  0  0
   10.6306    1.0469   -1.6593 C   0  0  0  0  0 15  0  0  0  0  0  0
    9.7556    1.8126   -1.1822 O   0  0  0  0  0 15  0  0  0  0  0  0
   10.3506   -0.7728   -3.2987 C   0  0  0  0  0 15  0  0  0  0  0  0
    8.9096   -0.4623   -3.7355 C   0  0  0  0  0 15  0  0  0  0  0  0
    8.0566   -1.0057   -2.5842 C   0  0  0  0  0 15  0  0  0  0  0  0
   11.0076   -0.9857   -1.2438 H   0  0  0  0  0 15  0  0  0  0  0  0
   11.0286   -0.0652   -3.8044 H   0  0  0  0  0 15  0  0  0  0  0  0
   10.5406   -1.8475   -3.4131 H   0  0  0  0  0 15  0  0  0  0  0  0
    8.6416    0.6042   -3.6767 H   0  0  0  0  0 15  0  0  0  0  0  0
    8.7546   -0.9853   -4.6886 H   0  0  0  0  0 15  0  0  0  0  0  0
    7.1186   -0.4287   -2.5107 H   0  0  0  0  0 15  0  0  0  0  0  0
    7.9016   -2.0862   -2.7264 H   0  0  0  0  0 15  0  0  0  0  0  0
   10.3467    1.4787   -0.5451 N   0  0  0  0  0 15  0  0  0  0  0  0
   11.2767    2.3266    0.1978 C   0  0  0  0  0 15  0  0  0  0  0  0
   12.2577    1.4304    0.9205 C   0  0  0  0  0 15  0  0  0  0  0  0
   13.4427    1.7191    0.9033 O   0  0  0  0  0 15  0  0  0  0  0  0
   10.5727    3.2457    1.2358 C   0  0  0  0  0 15  0  0  0  0  0  0
    9.5267    4.2333    0.6303 C   0  0  0  0  0 15  0  0  0  0  0  0
    8.8527    5.0448    1.7721 C   0  0  0  0  0 15  0  0  0  0  0  0
   10.1527    5.2070   -0.4080 C   0  0  0  0  0 15  0  0  0  0  0  0
   11.8467    2.9502   -0.5100 H   0  0  0  0  0 15  0  0  0  0  0  0
    9.3927    1.4187   -0.2467 H   0  0  0  0  0 15  0  0  0  0  0  0
   11.3457    3.8272    1.7636 H   0  0  0  0  0 15  0  0  0  0  0  0
   10.0697    2.6024    1.9734 H   0  0  0  0  0 15  0  0  0  0  0  0
    8.7287    3.6639    0.1239 H   0  0  0  0  0 15  0  0  0  0  0  0
    8.3767    4.3656    2.4985 H   0  0  0  0  0 15  0  0  0  0  0  0
    8.0767    5.7134    1.3728 H   0  0  0  0  0 15  0  0  0  0  0  0
    9.6007    5.6549    2.3034 H   0  0  0  0  0 15  0  0  0  0  0  0
   11.0147    5.7329    0.0333 H   0  0  0  0  0 15  0  0  0  0  0  0
    9.4117    5.9570   -0.7255 H   0  0  0  0  0 15  0  0  0  0  0  0
   10.4817    4.6692   -1.3083 H   0  0  0  0  0 15  0  0  0  0  0  0
   11.8248    0.2810    1.5507 N   0  0  0  0  0 15  0  0  0  0  0  0
   13.0728   -0.3335    1.9933 C   0  0  0  0  0 15  0  0  0  0  0  0
   13.3938   -1.5594    1.1708 C   0  0  0  0  0 15  0  0  0  0  0  0
   12.6638   -1.9414    0.2618 O   0  0  0  0  0 15  0  0  0  0  0  0
   11.2438   -0.1262    0.7363 H   0  0  0  0  0 15  0  0  0  0  0  0
   13.9058    0.3877    1.9101 H   0  0  0  0  0 15  0  0  0  0  0  0
   13.0018   -0.6193    3.0589 H   0  0  0  0  0 15  0  0  0  0  0  0
   13.3418   -1.6083    0.1468 O   0  0  0  0  0 15  0  0  0  0  0  0
   14.0328   -1.8847   -0.4472 H   0  0  0  0  0 15  0  0  0  0  0  0
M  END
$$$$
