drugbank_drug|DB00039 Palifermin sequence
 OpenBabel12092119123D

  0  0  0     0  0            999 V3000
M  V30 BEGIN CTAB
M  V30 COUNTS 2315 2336 0 0 0
M  V30 BEGIN ATOM
M  V30 1 H -0.908 1.98254 -0.117106 0
M  V30 2 N 0 1.576 0 0
M  V30 3 C 0.933 2.03868 1.02534 0
M  V30 4 C 1.911 0.928543 1.3348 0
M  V30 5 O 3.095 1.19667 1.45644 0
M  V30 6 C 0.222 2.43627 2.35294 0
M  V30 7 C -0.732 3.65373 2.2001 0
M  V30 8 S 0.101 5.13292 1.52614 0
M  V30 9 C 1.257 5.56322 2.86805 0
M  V30 10 H 1.49 2.90518 0.631377 0
M  V30 11 H -0.977 1.52953 0.210867 0
M  V30 12 H 0.981 2.67203 3.11629 0
M  V30 13 H -0.358 1.57376 2.7183 0
M  V30 14 H -1.165 3.90944 3.18086 0
M  V30 15 H -1.563 3.418 1.51819 0
M  V30 16 H 0.729 5.58782 3.83104 0
M  V30 17 H 1.672 6.56266 2.65933 0
M  V30 18 H 2.08 4.83886 2.90714 0
M  V30 19 N 1.4781 -0.272755 1.55222 0
M  V30 20 C 2.7031 -1.02683 1.80197 0
M  V30 21 C 3.1281 -1.79142 0.573551 0
M  V30 22 O 2.4861 -1.74917 -0.476849 0
M  V30 23 C 2.5341 -1.9609 3.02624 0
M  V30 24 O 1.6381 -3.04863 2.77727 0
M  V30 25 H 0.9791 -0.293557 0.595584 0
M  V30 26 H 3.5091 -0.30159 2.02365 0
M  V30 27 H 3.5191 -2.38039 3.31363 0
M  V30 28 H 2.1941 -1.39851 3.91682 0
M  V30 29 H 0.7711 -2.67228 2.60084 0
M  V30 30 N 2.9562 -1.48159 -0.537278 0
M  V30 31 C 4.1862 -1.59223 -1.3165 0
M  V30 32 C 4.5942 -0.248849 -1.87556 0
M  V30 33 O 3.9372 0.770949 -1.6674 0
M  V30 34 C 3.9992 -2.57365 -2.51005 0
M  V30 35 C 3.6632 -4.02603 -2.16239 0
M  V30 36 C 4.6602 -4.90503 -1.72344 0
M  V30 37 C 2.3452 -4.48088 -2.26986 0
M  V30 38 C 4.3392 -6.21913 -1.39651 0
M  V30 39 C 2.0262 -5.7952 -1.93906 0
M  V30 40 C 3.0242 -6.66255 -1.50309 0
M  V30 41 O 2.7122 -7.95243 -1.17659 0
M  V30 42 H 2.4442 -0.539831 -0.406889 0
M  V30 43 H 4.9982 -1.94655 -0.655641 0
M  V30 44 H 3.2282 -2.1704 -3.20048 0
M  V30 45 H 4.9172 -2.58342 -3.13072 0
M  V30 46 H 5.6832 -4.56604 -1.63517 0
M  V30 47 H 1.5622 -3.80769 -2.59877 0
M  V30 48 H 5.1062 -6.89569 -1.0555 0
M  V30 49 H 1.0032 -6.12957 -2.02371 0
M  V30 50 H 1.7712 -8.0793 -1.31119 0
M  V30 51 N 4.4343 0.785586 -1.36625 0
M  V30 52 C 5.7113 1.53198 -1.21613 0
M  V30 53 C 6.0913 2.10187 0.196113 0
M  V30 54 O 5.4393 1.94318 1.20219 0
M  V30 55 C 5.6493 2.62388 -2.30116 0
M  V30 56 C 6.9973 3.30167 -2.66974 0
M  V30 57 O 8.0213 2.72674 -2.29188 0
M  V30 58 O 6.8803 4.34077 -3.32023 0
M  V30 59 H 3.9743 0.677865 -0.473738 0
M  V30 60 H 6.5203 0.823739 -1.48367 0
M  V30 61 H 5.2923 2.18299 -3.24748 0
M  V30 62 H 4.9153 3.40827 -2.0475 0
M  V30 63 N 5.9124 1.20967 1.01018 0
M  V30 64 C 7.1424 1.04803 1.78044 0
M  V30 65 C 7.5504 -0.405462 1.84804 0
M  V30 66 O 6.8934 -1.2932 1.30468 0
M  V30 67 C 6.9554 1.56377 3.23707 0
M  V30 68 C 6.6194 3.04767 3.40538 0
M  V30 69 C 7.6164 4.02366 3.29239 0
M  V30 70 C 5.3014 3.43862 3.66147 0
M  V30 71 C 7.2954 5.37049 3.43304 0
M  V30 72 C 4.9824 4.78699 3.79855 0
M  V30 73 C 5.9804 5.75101 3.68439 0
M  V30 74 O 5.6684 7.07493 3.81719 0
M  V30 75 H 5.4004 0.368778 0.56655 0
M  V30 76 H 7.9544 1.60642 1.27997 0
M  V30 77 H 6.1844 0.949297 3.74867 0
M  V30 78 H 7.8734 1.36136 3.8239 0
M  V30 79 H 8.6394 3.73506 3.09384 0
M  V30 80 H 4.5184 2.69364 3.74118 0
M  V30 81 H 8.0624 6.12277 3.34309 0
M  V30 82 H 3.9594 5.07247 3.99213 0
M  V30 83 H 4.7274 7.1483 3.98697 0
M  V30 84 N 7.3905 -1.2043 1.01659 0
M  V30 85 C 8.3235 -2.21924 0.531521 0
M  V30 86 C 9.3015 -1.57054 -0.421032 0
M  V30 87 O 10.4855 -1.85389 -0.341035 0
M  V30 88 C 7.6125 -3.37942 -0.226496 0
M  V30 89 C 6.6585 -4.21115 0.67561 0
M  V30 90 S 7.4915 -4.90674 2.14475 0
M  V30 91 C 8.6475 -6.10113 1.3969 0
M  V30 92 H 8.8805 -2.62725 1.3915 0
M  V30 93 H 6.4135 -1.30481 0.825479 0
M  V30 94 H 8.3715 -4.05196 -0.657738 0
M  V30 95 H 7.0325 -2.956 -1.06205 0
M  V30 96 H 6.2255 -5.03918 0.091108 0
M  V30 97 H 5.8275 -3.59115 1.04463 0
M  V30 98 H 8.1195 -6.7411 0.676897 0
M  V30 99 H 9.0625 -6.73022 2.20107 0
M  V30 100 H 9.4705 -5.57283 0.899786 0
M  V30 101 N 8.8686 -0.792821 -1.36206 0
M  V30 102 C 9.7786 -0.194808 -2.3379 0
M  V30 103 C 10.7946 0.654869 -1.61206 0
M  V30 104 O 11.9706 0.569856 -1.9317 0
M  V30 105 C 9.0356 0.657721 -3.40404 0
M  V30 106 C 8.0966 -0.210849 -4.28782 0
M  V30 107 C 7.3296 0.601086 -5.30304 0
M  V30 108 O 7.5526 1.83682 -5.40016 0
M  V30 109 O 6.4866 -0.000808277 -6.019 0
M  V30 110 H 10.3126 -1.00172 -2.86704 0
M  V30 111 H 7.8976 -0.554341 -1.38735 0
M  V30 112 H 9.7796 1.14375 -4.05581 0
M  V30 113 H 8.4546 1.44247 -2.89784 0
M  V30 114 H 7.3616 -0.743714 -3.66633 0
M  V30 115 H 8.6946 -0.959195 -4.82763 0
M  V30 116 N 10.3467 1.47872 -0.545128 0
M  V30 117 C 11.5947 2.02093 -0.016553 0
M  V30 118 C 11.9157 1.42305 1.3332 0
M  V30 119 O 11.1857 0.593853 1.86682 0
M  V30 120 H 9.7657 0.746993 -0.00313038 0
M  V30 121 H 12.4277 1.81414 -0.712397 0
M  V30 122 H 11.5237 3.11996 0.0805422 0
M  V30 123 N 11.8248 0.280983 1.55075 0
M  V30 124 C 13.0728 -0.333455 1.9933 0
M  V30 125 C 13.3938 -1.55937 1.17085 0
M  V30 126 O 12.6638 -1.94143 0.261805 0
M  V30 127 H 11.2438 -0.126197 0.736263 0
M  V30 128 H 13.9058 0.387678 1.91005 0
M  V30 129 H 13.0018 -0.619292 3.05894 0
M  V30 130 N 13.3029 -1.57598 0.00835791 0
M  V30 131 C 14.5799 -1.82172 -0.712235 0
M  V30 132 C 14.9599 -0.887873 -1.9152 0
M  V30 133 O 14.3079 0.06146 -2.28417 0
M  V30 134 C 14.5179 -3.30875 -1.11008 0
M  V30 135 C 15.8659 -3.96826 -1.51044 0
M  V30 136 O 16.8899 -3.35248 -1.20364 0
M  V30 137 O 15.7489 -5.05318 -2.08125 0
M  V30 138 H 12.8429 -0.750435 -0.347529 0
M  V30 139 H 15.3889 -1.69665 0.0344523 0
M  V30 140 H 14.1609 -3.90481 -0.252982 0
M  V30 141 H 13.7839 -3.48412 -1.9156 0
M  V30 142 N 14.781 0.264519 -1.55364 0
M  V30 143 C 16.03 0.992812 -1.75574 0
M  V30 144 C 16.343 1.87142 -0.568979 0
M  V30 145 O 17.549 2.63513 -0.653682 0
M  V30 146 C 16.005 1.81519 -3.10771 0
M  V30 147 C 15.613 0.984839 -4.37041 0
M  V30 148 C 17.357 2.53727 -3.40327 0
M  V30 149 C 15.264 1.80209 -5.63275 0
M  V30 150 H 14.194 0.374412 -0.65447 0
M  V30 151 H 16.845 0.248138 -1.81815 0
M  V30 152 H 15.227 2.60115 -2.98591 0
M  V30 153 H 16.401 0.242455 -4.60162 0
M  V30 154 H 14.716 0.37691 -4.14691 0
M  V30 155 H 17.313 3.15292 -4.3185 0
M  V30 156 H 17.656 3.24447 -2.60845 0
M  V30 157 H 18.189 1.82156 -3.53644 0
M  V30 158 H 14.928 1.13896 -6.45529 0
M  V30 159 H 14.448 2.52022 -5.44284 0
M  V30 160 H 16.127 2.37364 -6.01887 0
M  V30 161 N 16.2591 1.48442 0.529413 0
M  V30 162 C 17.6751 1.34575 0.858004 0
M  V30 163 C 17.8751 0.3572 1.98309 0
M  V30 164 O 16.9311 -0.221379 2.51528 0
M  V30 165 C 18.2441 2.74617 1.22499 0
M  V30 166 C 19.7921 2.83109 1.33484 0
M  V30 167 C 20.2671 4.23854 1.73526 0
M  V30 168 N 21.7581 4.2653 1.80628 0
M  V30 169 C 22.4931 5.32372 2.12997 0
M  V30 170 N 21.9891 6.48491 2.43786 0
M  V30 171 N 23.7821 5.19766 2.14008 0
M  V30 172 H 15.9331 2.1133 -0.212925 0
M  V30 173 H 18.1961 0.947439 -0.0326199 0
M  V30 174 H 17.9021 3.4852 0.471905 0
M  V30 175 H 17.7761 3.08177 2.17501 0
M  V30 176 H 20.1631 2.09462 2.0787 0
M  V30 177 H 20.2441 2.53168 0.366027 0
M  V30 178 H 19.8881 4.98018 0.997013 0
M  V30 179 H 19.8181 4.5124 2.71459 0
M  V30 180 H 22.3091 3.42772 1.59108 0
M  V30 181 H 22.6221 7.24993 2.67592 0
M  V30 182 H 20.9671 6.51765 2.41304 0
M  V30 183 H 24.1581 4.28066 1.89412 0
M  V30 184 H 24.3311 6.02354 2.38902 0
M  V30 185 N 17.7372 -0.778329 1.37039 0
M  V30 186 C 18.9832 -1.53892 1.32079 0
M  V30 187 C 19.3162 -1.9396 -0.0965386 0
M  V30 188 O 18.5912 -1.63568 -1.05242 0
M  V30 189 C 18.8742 -2.80847 2.25382 0
M  V30 190 C 18.7272 -2.47076 3.75864 0
M  V30 191 C 20.0462 -3.82741 2.1725 0
M  V30 192 H 17.1652 -0.558303 0.48111 0
M  V30 193 H 19.8072 -0.893397 1.67685 0
M  V30 194 H 17.9572 -3.35931 1.95148 0
M  V30 195 H 19.6292 -1.97957 4.16666 0
M  V30 196 H 17.8722 -1.79863 3.94755 0
M  V30 197 H 18.5432 -3.37798 4.36574 0
M  V30 198 H 21.0192 -3.37133 2.43887 0
M  V30 199 H 19.8952 -4.69303 2.84686 0
M  V30 200 H 20.1562 -4.2652 1.16331 0
M  V30 201 N 19.2153 -1.21501 -1.00376 0
M  V30 202 C 20.6313 -0.972629 -1.26539 0
M  V30 203 C 20.8313 0.340257 -1.98606 0
M  V30 204 O 19.8873 1.06561 -2.28913 0
M  V30 205 C 21.2003 -2.16404 -2.08781 0
M  V30 206 C 22.7483 -2.20643 -2.22004 0
M  V30 207 C 23.2233 -3.39306 -3.07629 0
M  V30 208 N 24.7143 -3.39401 -3.15217 0
M  V30 209 C 25.4493 -4.27867 -3.81729 0
M  V30 210 N 24.9453 -5.26533 -4.5026 0
M  V30 211 N 26.7383 -4.15672 -3.78382 0
M  V30 212 H 18.8893 -2.05929 -0.520281 0
M  V30 213 H 21.1523 -0.901803 -0.292328 0
M  V30 214 H 20.8583 -3.11554 -1.63178 0
M  V30 215 H 20.7323 -2.15567 -3.09533 0
M  V30 216 H 23.1193 -1.26048 -2.66825 0
M  V30 217 H 23.2003 -2.25523 -1.20718 0
M  V30 218 H 22.8443 -4.34195 -2.63509 0
M  V30 219 H 22.7743 -3.31665 -4.09031 0
M  V30 220 H 25.2653 -2.67997 -2.66432 0
M  V30 221 H 25.5783 -5.90337 -4.98721 0
M  V30 222 H 23.9233 -5.30457 -4.49044 0
M  V30 223 H 27.1143 -3.3785 -3.23998 0
M  V30 224 H 27.2873 -4.84825 -4.2994 0
M  V30 225 N 20.6934 1.19889 -1.02296 0
M  V30 226 C 22.1094 1.41462 -0.738954 0
M  V30 227 C 22.3094 1.89721 0.678846 0
M  V30 228 O 21.3654 2.07016 1.4457 0
M  V30 229 C 22.6784 2.43083 -1.77005 0
M  V30 230 C 24.2264 2.5684 -1.78892 0
M  V30 231 C 24.7014 3.61709 -2.80945 0
M  V30 232 N 26.1924 3.69199 -2.79725 0
M  V30 233 C 26.9274 4.50019 -3.55345 0
M  V30 234 N 26.4234 5.34592 -4.40662 0
M  V30 235 N 28.2164 4.44612 -3.43914 0
M  V30 236 H 20.3674 0.868827 -1.93817 0
M  V30 237 H 22.6304 0.44399 -0.837602 0
M  V30 238 H 22.3364 2.14636 -2.78612 0
M  V30 239 H 22.2104 3.4217 -1.58744 0
M  V30 240 H 24.5974 2.84614 -0.779674 0
M  V30 241 H 24.6784 1.57927 -2.01228 0
M  V30 242 H 24.3224 3.34678 -3.82038 0
M  V30 243 H 24.2524 4.60259 -2.5587 0
M  V30 244 H 26.7434 3.08794 -2.17842 0
M  V30 245 H 27.0564 5.93363 -4.95116 0
M  V30 246 H 25.4014 5.34073 -4.44737 0
M  V30 247 H 28.5924 3.7758 -2.76679 0
M  V30 248 H 28.7654 5.0736 -4.031 0
M  V30 249 N 22.1715 0.800033 1.35784 0
M  V30 250 C 23.1015 0.220184 2.3246 0
M  V30 251 C 24.0825 -0.65073 1.57161 0
M  V30 252 O 25.2675 -0.582359 1.85263 0
M  V30 253 C 22.3975 -0.637353 3.41402 0
M  V30 254 C 21.3515 0.134531 4.27789 0
M  V30 255 C 20.6775 -0.844285 5.27992 0
M  V30 256 C 21.9775 1.32979 5.05088 0
M  V30 257 H 23.6715 1.02787 2.81203 0
M  V30 258 H 21.2175 0.495717 1.35199 0
M  V30 259 H 23.1705 -1.05302 4.08031 0
M  V30 260 H 21.8945 -1.47785 2.91251 0
M  V30 261 H 20.5535 0.531296 3.6273 0
M  V30 262 H 20.2015 -1.68011 4.74111 0
M  V30 263 H 19.9015 -0.332184 5.8666 0
M  V30 264 H 21.4255 -1.2583 5.97494 0
M  V30 265 H 22.8395 0.98934 5.64699 0
M  V30 266 H 21.2365 1.77593 5.7322 0
M  V30 267 H 22.3065 2.11978 4.36111 0
M  V30 268 N 23.6496 -1.47581 0.552962 0
M  V30 269 C 24.8966 -2.02482 0.0273243 0
M  V30 270 C 25.2246 -1.42776 -1.32081 0
M  V30 271 O 24.4796 -0.571393 -1.87173 0
M  V30 272 C 24.7786 -3.57199 -0.119728 0
M  V30 273 C 24.4446 -4.35804 1.15697 0
M  V30 274 C 23.1066 -4.57 1.50681 0
M  V30 275 C 25.4586 -4.81167 2.00319 0
M  V30 276 C 22.7866 -5.20807 2.70142 0
M  V30 277 C 25.1386 -5.46293 3.18978 0
M  V30 278 C 23.8026 -5.65722 3.54281 0
M  V30 279 H 23.0726 -0.740933 0.00999866 0
M  V30 280 H 25.7196 -1.77302 0.72362 0
M  V30 281 H 24.0246 -3.81348 -0.89896 0
M  V30 282 H 25.7216 -3.97324 -0.541718 0
M  V30 283 H 22.3116 -4.19582 0.874561 0
M  V30 284 H 26.4956 -4.64574 1.74599 0
M  V30 285 H 21.7516 -5.34045 2.97668 0
M  V30 286 H 25.9256 -5.80407 3.84838 0
M  V30 287 H 23.5526 -6.14936 4.46942 0
M  V30 288 N 25.1277 -0.289203 -1.54924 0
M  V30 289 C 26.3677 0.324536 -2.01807 0
M  V30 290 C 26.7317 1.5199 -1.17316 0
M  V30 291 O 27.9327 2.20422 -1.53843 0
M  V30 292 C 26.2037 0.683578 -3.50802 0
M  V30 293 S 27.7627 1.28185 -4.19659 0
M  V30 294 H 24.5807 0.100236 -0.703899 0
M  V30 295 H 27.1827 -0.414325 -1.91059 0
M  V30 296 H 25.8867 -0.195073 -4.09936 0
M  V30 297 H 25.4177 1.45354 -3.65562 0
M  V30 298 H 27.4327 2.57006 -4.24456 0
M  V30 299 N 26.6058 1.57591 -0.0167156 0
M  V30 300 C 28.0218 1.55946 0.339557 0
M  V30 301 C 28.2218 1.02109 1.73713 0
M  V30 302 O 27.2778 0.662303 2.43659 0
M  V30 303 C 28.5908 3.00037 0.199499 0
M  V30 304 C 30.1388 3.11805 0.273193 0
M  V30 305 C 30.6138 4.57713 0.162068 0
M  V30 306 N 32.1048 4.6268 0.219444 0
M  V30 307 C 32.8398 5.73185 0.157054 0
M  V30 308 N 32.3358 6.92786 0.0442936 0
M  V30 309 N 34.1288 5.61707 0.21014 0
M  V30 310 H 26.2798 1.90921 -0.930758 0
M  V30 311 H 28.5428 0.877674 -0.358319 0
M  V30 312 H 28.2488 3.4333 -0.76273 0
M  V30 313 H 28.1228 3.64387 0.974786 0
M  V30 314 H 30.5098 2.68433 1.22587 0
M  V30 315 H 30.5908 2.50201 -0.532256 0
M  V30 316 H 30.2348 5.01763 -0.78714 0
M  V30 317 H 30.1648 5.17283 0.986222 0
M  V30 318 H 32.6558 3.76649 0.307246 0
M  V30 319 H 32.9688 7.728 0.00304069 0
M  V30 320 H 31.3138 6.94999 0.00968457 0
M  V30 321 H 34.5048 4.6716 0.296546 0
M  V30 322 H 34.6778 6.47807 0.158054 0
M  V30 323 N 28.0839 -0.256276 1.55502 0
M  V30 324 C 29.3119 -1.00342 1.8094 0
M  V30 325 C 29.7269 -1.79307 0.59114 0
M  V30 326 O 29.0839 -1.77114 -0.440081 0
M  V30 327 C 29.1349 -1.94875 3.04476 0
M  V30 328 O 28.8559 -1.19107 4.21598 0
M  V30 329 C 30.3569 -2.81266 3.42644 0
M  V30 330 H 27.5769 -0.295685 0.602338 0
M  V30 331 H 30.1209 -0.281998 2.02546 0
M  V30 332 H 28.2759 -2.62457 2.84947 0
M  V30 333 H 28.6899 -1.82969 4.91551 0
M  V30 334 H 30.1639 -3.43362 4.32211 0
M  V30 335 H 30.6409 -3.51897 2.62802 0
M  V30 336 H 31.2469 -2.1915 3.64491 0
M  V30 337 N 29.562 -1.4872 -0.521534 0
M  V30 338 C 30.494 -1.59968 -1.64143 0
M  V30 339 C 31.507 -0.483463 -1.55456 0
M  V30 340 O 32.696 -0.75467 -1.61762 0
M  V30 341 C 29.796 -1.52127 -3.02838 0
M  V30 342 C 28.969 -2.78932 -3.36921 0
M  V30 343 C 28.028 -2.64428 -4.54933 0
M  V30 344 O 27.054 -3.38331 -4.57735 0
M  V30 345 N 28.256 -1.74606 -5.53618 0
M  V30 346 H 31.021 -2.56548 -1.54929 0
M  V30 347 H 28.582 -1.45551 -0.708988 0
M  V30 348 H 30.574 -1.40106 -3.79674 0
M  V30 349 H 29.144 -0.634868 -3.06085 0
M  V30 350 H 28.364 -3.05455 -2.4918 0
M  V30 351 H 29.652 -3.63041 -3.56481 0
M  V30 352 H 29.05 -1.13782 -5.54139 0
M  V30 353 H 27.607 -1.6852 -6.29638 0
M  V30 354 N 31.0401 0.771051 -1.3745 0
M  V30 355 C 32.2861 1.53109 -1.339 0
M  V30 356 C 32.6411 1.9225 0.0758401 0
M  V30 357 O 31.9341 1.61264 1.03463 0
M  V30 358 C 32.1281 2.80676 -2.2126 0
M  V30 359 C 31.9571 2.54003 -3.71096 0
M  V30 360 C 30.7271 2.48097 -4.402 0
M  V30 361 C 32.9251 2.21953 -4.63941 0
M  V30 362 N 30.9071 2.13515 -5.75573 0
M  V30 363 C 32.2781 1.97516 -5.87697 0
M  V30 364 C 34.3331 2.08114 -4.5232 0
M  V30 365 C 33.0361 1.60638 -7.01133 0
M  V30 366 C 35.0621 1.72636 -5.65642 0
M  V30 367 C 34.4241 1.4906 -6.88448 0
M  V30 368 H 30.5231 0.56055 -0.54526 0
M  V30 369 H 33.1071 0.899472 -1.72678 0
M  V30 370 H 31.2781 3.41674 -1.84698 0
M  V30 371 H 33.0101 3.46578 -2.08963 0
M  V30 372 H 29.7651 2.63974 -3.93211 0
M  V30 373 H 30.1891 1.98919 -6.47117 0
M  V30 374 H 34.8311 2.25024 -3.57944 0
M  V30 375 H 32.5491 1.42467 -7.95443 0
M  V30 376 H 36.1351 1.62586 -5.58621 0
M  V30 377 H 35.0151 1.22014 -7.7465 0
M  V30 378 N 32.5182 1.22032 0.997298 0
M  V30 379 C 33.7482 1.06686 1.76923 0
M  V30 380 C 34.1562 -0.385838 1.85224 0
M  V30 381 O 33.4992 -1.27929 1.31833 0
M  V30 382 C 33.5612 1.59802 3.22031 0
M  V30 383 C 33.2252 3.08362 3.37286 0
M  V30 384 C 34.2222 4.05835 3.24952 0
M  V30 385 C 31.9072 3.47727 3.6248 0
M  V30 386 C 33.9012 5.4066 3.37588 0
M  V30 387 C 31.5882 4.82701 3.74757 0
M  V30 388 C 32.5862 5.78977 3.62319 0
M  V30 389 O 32.2742 7.11502 3.74193 0
M  V30 390 H 32.0062 0.374767 0.562606 0
M  V30 391 H 34.5602 1.61991 1.26286 0
M  V30 392 H 32.7902 0.989003 3.73839 0
M  V30 393 H 34.4792 1.40184 3.80924 0
M  V30 394 H 35.2452 3.76766 3.05405 0
M  V30 395 H 31.1242 2.73317 3.7124 0
M  V30 396 H 34.6682 6.15788 3.27796 0
M  V30 397 H 30.5652 5.11453 3.9381 0
M  V30 398 H 31.3332 7.19019 3.91093 0
M  V30 399 N 33.9963 -1.19345 1.0293 0
M  V30 400 C 34.9263 -2.2481 0.631105 0
M  V30 401 C 35.9073 -1.66245 -0.360104 0
M  V30 402 O 37.0923 -1.92677 -0.242726 0
M  V30 403 C 34.2223 -3.47295 -0.0184607 0
M  V30 404 C 33.1763 -4.18536 0.895073 0
M  V30 405 C 32.5023 -5.34586 0.110592 0
M  V30 406 C 33.8023 -4.73287 2.209 0
M  V30 407 H 35.4963 -2.58372 1.51275 0
M  V30 408 H 33.0423 -1.24194 0.728818 0
M  V30 409 H 34.9953 -4.20268 -0.308675 0
M  V30 410 H 33.7193 -3.12933 -0.934907 0
M  V30 411 H 32.3783 -3.47446 1.16949 0
M  V30 412 H 32.0263 -4.96469 -0.807902 0
M  V30 413 H 31.7263 -5.83183 0.719087 0
M  V30 414 H 33.2503 -6.10355 -0.172871 0
M  V30 415 H 34.6643 -5.38013 1.98028 0
M  V30 416 H 33.0613 -5.32373 2.76946 0
M  V30 417 H 34.1313 -3.91331 2.86336 0
M  V30 418 N 35.4744 -0.807222 -1.35358 0
M  V30 419 C 36.8904 -0.491038 -1.51858 0
M  V30 420 C 37.0904 0.987648 -1.75635 0
M  V30 421 O 36.1464 1.77265 -1.79815 0
M  V30 422 C 37.4594 -1.33695 -2.69344 0
M  V30 423 C 39.0074 -1.33246 -2.83222 0
M  V30 424 C 39.4824 -2.1625 -4.03733 0
M  V30 425 N 40.9734 -2.1379 -4.10911 0
M  V30 426 C 41.7084 -2.74772 -5.03277 0
M  V30 427 N 41.2044 -3.44684 -6.0097 0
M  V30 428 N 42.9974 -2.6441 -4.96028 0
M  V30 429 H 35.1484 -1.76485 -1.18181 0
M  V30 430 H 37.4114 -0.751199 -0.578276 0
M  V30 431 H 37.1174 -2.38634 -2.58354 0
M  V30 432 H 36.9914 -0.990618 -3.6396 0
M  V30 433 H 39.3784 -0.290911 -2.93663 0
M  V30 434 H 39.4594 -1.71866 -1.89461 0
M  V30 435 H 39.1034 -3.20445 -3.94052 0
M  V30 436 H 39.0334 -1.74989 -4.96675 0
M  V30 437 H 41.5244 -1.62923 -3.40976 0
M  V30 438 H 41.8374 -3.88501 -6.68047 0
M  V30 439 H 40.1824 -3.48788 -6.01142 0
M  V30 440 H 43.3734 -2.0938 -4.18662 0
M  V30 441 H 43.5464 -3.12225 -5.6782 0
M  V30 442 N 36.9525 1.47285 -0.560781 0
M  V30 443 C 38.2015 2.01668 -0.035895 0
M  V30 444 C 38.5145 1.44021 1.32353 0
M  V30 445 O 39.7205 1.90088 1.93853 0
M  V30 446 C 38.1765 3.59897 -0.0136659 0
M  V30 447 C 37.7845 4.26536 -1.37006 0
M  V30 448 C 39.5285 4.22017 0.458425 0
M  V30 449 C 37.4355 5.76782 -1.30675 0
M  V30 450 H 36.3655 0.753938 -0.00964879 0
M  V30 451 H 39.0165 1.69243 -0.709166 0
M  V30 452 H 37.3985 3.89301 0.725325 0
M  V30 453 H 38.5725 4.0877 -2.12705 0
M  V30 454 H 36.8875 3.76419 -1.78038 0
M  V30 455 H 39.4845 5.32124 0.524247 0
M  V30 456 H 39.8275 3.89437 1.4712 0
M  V30 457 H 40.3605 3.97159 -0.225818 0
M  V30 458 H 37.0995 6.13988 -2.29564 0
M  V30 459 H 36.6195 5.96875 -0.591622 0
M  V30 460 H 38.2985 6.39063 -1.01033 0
M  V30 461 N 38.4306 0.297415 1.54768 0
M  V30 462 C 39.7076 -0.365847 1.92148 0
M  V30 463 C 40.0876 -1.71975 1.22424 0
M  V30 464 O 39.4356 -2.25666 0.358739 0
M  V30 465 C 39.6456 -0.484056 3.45627 0
M  V30 466 C 40.9936 -0.756594 4.17805 0
M  V30 467 O 42.0176 -0.568007 3.51642 0
M  V30 468 O 40.8766 -1.11863 5.34929 0
M  V30 469 H 37.9706 -0.203919 0.801465 0
M  V30 470 H 40.5166 0.34521 1.66152 0
M  V30 471 H 39.2886 0.467865 3.88493 0
M  V30 472 H 38.9116 -1.24372 3.77647 0
M  V30 473 N 39.9087 -1.5758 0.0250728 0
M  V30 474 C 40.8557 -2.09973 -0.958129 0
M  V30 475 C 41.8257 -1.00085 -1.3256 0
M  V30 476 O 43.0107 -1.27481 -1.41962 0
M  V30 477 C 40.1507 -2.62812 -2.2366 0
M  V30 478 C 39.2637 -3.86693 -1.92594 0
M  V30 479 C 38.3987 -4.27941 -3.14707 0
M  V30 480 C 37.4377 -5.44591 -2.79442 0
M  V30 481 N 36.5747 -5.81014 -3.94167 0
M  V30 482 H 41.4147 -2.937 -0.504428 0
M  V30 483 H 38.9517 -1.45172 -0.237392 0
M  V30 484 H 40.9097 -2.91536 -2.98434 0
M  V30 485 H 39.5397 -1.81922 -2.66654 0
M  V30 486 H 38.5917 -3.64723 -1.0808 0
M  V30 487 H 39.9037 -4.71547 -1.62619 0
M  V30 488 H 39.0577 -4.58079 -3.97804 0
M  V30 489 H 37.7967 -3.41845 -3.4784 0
M  V30 490 H 36.8017 -5.1415 -1.94755 0
M  V30 491 H 38.0267 -6.32382 -2.47528 0
M  V30 492 H 35.9727 -4.97874 -4.2715 0
M  V30 493 H 35.8897 -6.60498 -3.67801 0
M  V30 494 H 37.1577 -6.15756 -4.7798 0
M  V30 495 N 41.3868 0.248026 -1.55636 0
M  V30 496 C 42.8028 0.596483 -1.48035 0
M  V30 497 C 43.0028 1.88386 -0.715039 0
M  V30 498 O 42.0588 2.51319 -0.243944 0
M  V30 499 C 43.3718 0.700258 -2.92433 0
M  V30 500 C 44.9198 0.792659 -3.02797 0
M  V30 501 C 45.3948 0.928005 -4.485 0
M  V30 502 N 46.8858 0.992903 -4.52433 0
M  V30 503 C 47.6208 1.11687 -5.62418 0
M  V30 504 N 47.1168 1.20645 -6.82214 0
M  V30 505 N 48.9098 1.14994 -5.50212 0
M  V30 506 H 41.0608 -0.597109 -2.03834 0
M  V30 507 H 43.3238 -0.205925 -0.925364 0
M  V30 508 H 43.0298 -0.175658 -3.51261 0
M  V30 509 H 42.9038 1.57255 -3.42857 0
M  V30 510 H 45.2908 1.65903 -2.4405 0
M  V30 511 H 45.3718 -0.104762 -2.55585 0
M  V30 512 H 45.0158 0.0661971 -5.07857 0
M  V30 513 H 44.9458 1.84045 -4.93391 0
M  V30 514 H 47.4368 0.935064 -3.66149 0
M  V30 515 H 47.7498 1.30008 -7.61786 0
M  V30 516 H 46.0948 1.17605 -6.84977 0
M  V30 517 H 49.2858 1.07643 -4.55555 0
M  V30 518 H 49.4588 1.24311 -6.35965 0
M  V30 519 N 42.8649 1.48995 0.513639 0
M  V30 520 C 44.1129 1.57531 1.26604 0
M  V30 521 C 44.4339 0.258236 1.93283 0
M  V30 522 O 43.7039 -0.721502 1.8213 0
M  V30 523 H 42.2839 0.580387 0.470276 0
M  V30 524 H 44.9459 1.85552 0.596373 0
M  V30 525 H 44.0419 2.36486 2.03669 0
M  V30 526 N 44.343 -0.763751 1.37857 0
M  V30 527 C 45.29 -1.87726 1.34267 0
M  V30 528 C 46.26 -1.64807 0.206879 0
M  V30 529 O 47.445 -1.86613 0.397508 0
M  V30 530 C 44.585 -3.24896 1.16346 0
M  V30 531 C 43.698 -3.59716 2.39225 0
M  V30 532 C 42.833 -4.86137 2.14114 0
M  V30 533 C 41.872 -5.13711 3.32817 0
M  V30 534 N 41.009 -6.31323 3.07206 0
M  V30 535 H 45.849 -1.90129 2.29466 0
M  V30 536 H 43.386 -0.929433 1.14017 0
M  V30 537 H 45.344 -4.04036 1.03975 0
M  V30 538 H 43.974 -3.21847 0.247909 0
M  V30 539 H 43.026 -2.75498 2.62307 0
M  V30 540 H 44.338 -3.76027 3.27728 0
M  V30 541 H 43.492 -5.73198 1.9882 0
M  V30 542 H 42.231 -4.71945 1.22961 0
M  V30 543 H 41.236 -4.25123 3.48641 0
M  V30 544 H 42.461 -5.29807 4.24832 0
M  V30 545 H 40.407 -6.18474 2.1869 0
M  V30 546 H 40.324 -6.48087 3.89254 0
M  V30 547 H 41.592 -7.213 2.95546 0
M  V30 548 N 45.8211 -1.22559 -0.990812 0
M  V30 549 C 47.0671 -1.05297 -1.73322 0
M  V30 550 C 47.4001 0.410655 -1.89808 0
M  V30 551 O 46.6751 1.30439 -1.44277 0
M  V30 552 C 46.9581 -1.76713 -3.13759 0
M  V30 553 C 46.8111 -3.30684 -3.04907 0
M  V30 554 C 48.1301 -1.52121 -4.12974 0
M  V30 555 H 45.2491 -0.38392 -0.629106 0
M  V30 556 H 47.8911 -1.50926 -1.15418 0
M  V30 557 H 46.0411 -1.37924 -3.63193 0
M  V30 558 H 47.7131 -3.7893 -2.63077 0
M  V30 559 H 45.9561 -3.60253 -2.41661 0
M  V30 560 H 46.6271 -3.75833 -4.04294 0
M  V30 561 H 49.1031 -1.85819 -3.72304 0
M  V30 562 H 47.9791 -2.04582 -5.0935 0
M  V30 563 H 48.2401 -0.454257 -4.3976 0
M  V30 564 N 47.2992 1.18797 -1.03562 0
M  V30 565 C 48.2462 2.22253 -0.622259 0
M  V30 566 C 49.2162 1.61987 0.36736 0
M  V30 567 O 50.4012 1.88986 0.262492 0
M  V30 568 C 47.5412 3.45097 0.0138462 0
M  V30 569 C 46.6542 4.19722 -1.02263 0
M  V30 570 C 45.7892 5.30009 -0.355573 0
M  V30 571 C 44.8282 5.96399 -1.37749 0
M  V30 572 N 43.9652 6.98234 -0.735766 0
M  V30 573 H 48.8052 2.56968 -1.50903 0
M  V30 574 H 46.3422 1.26245 -0.755017 0
M  V30 575 H 48.3002 4.15279 0.399948 0
M  V30 576 H 46.9302 3.11018 0.864158 0
M  V30 577 H 45.9822 3.48418 -1.52673 0
M  V30 578 H 47.2942 4.65227 -1.79903 0
M  V30 579 H 46.4482 6.0664 0.0850095 0
M  V30 580 H 45.1872 4.85592 0.452967 0
M  V30 581 H 44.1922 5.18512 -1.82826 0
M  V30 582 H 45.4172 6.42899 -2.18764 0
M  V30 583 H 43.3632 6.55979 0.0525597 0
M  V30 584 H 43.2802 7.41965 -1.44995 0
M  V30 585 H 44.5482 7.78845 -0.31941 0
M  V30 586 N 48.7773 0.814389 1.34928 0
M  V30 587 C 50.0253 0.397636 1.9815 0
M  V30 588 C 50.3463 -1.04069 1.64908 0
M  V30 589 O 49.6163 -1.72121 0.93548 0
M  V30 590 H 48.1963 0.144043 0.732981 0
M  V30 591 H 50.8583 1.04195 1.6471 0
M  V30 592 H 49.9543 0.509688 3.0791 0
M  V30 593 N 50.2554 -1.46986 0.568584 0
M  V30 594 C 51.4834 -2.0683 0.0539956 0
M  V30 595 C 51.8984 -1.41953 -1.24478 0
M  V30 596 O 51.2554 -0.519933 -1.74937 0
M  V30 597 C 51.3064 -3.61254 -0.133362 0
M  V30 598 O 51.0274 -4.237 1.11399 0
M  V30 599 C 52.5284 -4.37992 -0.683927 0
M  V30 600 H 49.7484 -0.669058 0.0510141 0
M  V30 601 H 52.2924 -1.88824 0.785234 0
M  V30 602 H 50.4474 -3.78735 -0.81477 0
M  V30 603 H 50.8614 -5.16388 0.91888 0
M  V30 604 H 52.3354 -5.46684 -0.764263 0
M  V30 605 H 52.8124 -4.05058 -1.69778 0
M  V30 606 H 53.4184 -4.25283 -0.0378494 0
M  V30 607 N 51.7335 -0.305618 -1.54608 0
M  V30 608 C 52.6655 0.602161 -2.21149 0
M  V30 609 C 53.6785 1.09394 -1.20569 0
M  V30 610 O 54.8675 1.0106 -1.47136 0
M  V30 611 C 51.9675 1.83692 -2.84799 0
M  V30 612 C 51.1405 1.48686 -4.11353 0
M  V30 613 C 50.1995 2.57725 -4.58764 0
M  V30 614 O 49.2255 2.22623 -5.23858 0
M  V30 615 N 50.4275 3.88346 -4.31471 0
M  V30 616 H 53.1925 0.0324966 -2.99682 0
M  V30 617 H 50.7535 -0.128021 -1.61393 0
M  V30 618 H 52.7455 2.55994 -3.13448 0
M  V30 619 H 51.3155 2.31486 -2.10078 0
M  V30 620 H 50.5355 0.596269 -3.89664 0
M  V30 621 H 51.8235 1.22842 -4.93748 0
M  V30 622 H 51.2215 4.19671 -3.79331 0
M  V30 623 H 49.7785 4.56932 -4.64818 0
M  V30 624 N 53.2116 1.57565 -0.0334293 0
M  V30 625 C 54.1216 2.13943 0.962572 0
M  V30 626 C 55.1376 1.09276 1.35406 0
M  V30 627 O 56.3136 1.41355 1.4346 0
M  V30 628 C 53.3786 2.65887 2.22497 0
M  V30 629 C 52.4396 3.85286 1.8935 0
M  V30 630 C 51.6726 4.34743 3.09571 0
M  V30 631 O 51.8956 3.83352 4.22371 0
M  V30 632 O 50.8296 5.26538 2.91618 0
M  V30 633 H 54.6556 2.99333 0.513169 0
M  V30 634 H 52.2406 1.4822 0.18743 0
M  V30 635 H 54.1226 2.99346 2.96598 0
M  V30 636 H 52.7976 1.83578 2.6661 0
M  V30 637 H 51.7046 3.56746 1.1262 0
M  V30 638 H 53.0376 4.68771 1.5005 0
M  V30 639 N 54.6897 -0.239769 1.55765 0
M  V30 640 C 55.6227 -1.32356 1.85895 0
M  V30 641 C 56.6007 -1.46053 0.714662 0
M  V30 642 O 57.7847 -1.62154 0.961157 0
M  V30 643 C 54.9117 -2.6962 2.04994 0
M  V30 644 C 53.9577 -2.73036 3.27648 0
M  V30 645 S 54.7907 -2.28929 4.84099 0
M  V30 646 C 55.9467 -3.68103 5.06212 0
M  V30 647 H 56.1797 -1.06601 2.77531 0
M  V30 648 H 53.7127 -0.441112 1.47965 0
M  V30 649 H 55.6707 -3.48653 2.16682 0
M  V30 650 H 54.3317 -2.92609 1.14188 0
M  V30 651 H 53.5247 -3.7386 3.38 0
M  V30 652 H 53.1267 -2.02052 3.14723 0
M  V30 653 H 55.4187 -4.63656 4.93993 0
M  V30 654 H 56.3617 -3.6268 6.08168 0
M  V30 655 H 56.7697 -3.60947 4.34025 0
M  V30 656 N 56.1678 -1.49265 -0.50573 0
M  V30 657 C 57.1148 -1.65585 -1.6078 0
M  V30 658 C 58.0848 -0.497396 -1.58478 0
M  V30 659 O 59.2698 -0.72385 -1.76536 0
M  V30 660 C 56.4098 -1.72408 -2.98948 0
M  V30 661 C 55.5228 -2.99525 -3.11301 0
M  V30 662 C 54.6578 -2.97356 -4.40174 0
M  V30 663 C 53.6968 -4.19074 -4.46143 0
M  V30 664 N 52.8338 -4.14841 -5.66437 0
M  V30 665 H 57.6738 -2.59688 -1.46172 0
M  V30 666 H 55.2108 -1.28761 -0.711261 0
M  V30 667 H 57.1688 -1.74344 -3.79025 0
M  V30 668 H 55.7988 -0.817753 -3.1227 0
M  V30 669 H 54.8508 -3.07222 -2.24318 0
M  V30 670 H 56.1628 -3.89518 -3.11572 0
M  V30 671 H 55.3168 -2.97829 -5.28567 0
M  V30 672 H 54.0558 -2.05133 -4.42461 0
M  V30 673 H 53.0608 -4.1885 -3.56153 0
M  V30 674 H 54.2858 -5.12483 -4.45575 0
M  V30 675 H 52.2318 -3.25453 -5.69575 0
M  V30 676 H 52.1488 -4.98564 -5.68304 0
M  V30 677 H 53.4168 -4.1941 -6.57051 0
M  V30 678 N 57.6459 0.756429 -1.3826 0
M  V30 679 C 58.5939 1.89149 -1.35372 0
M  V30 680 C 59.5879 1.67691 -0.24004 0
M  V30 681 O 60.7939 1.75294 -0.408919 0
M  V30 682 H 57.1689 0.622271 -0.422236 0
M  V30 683 H 59.1399 1.88701 -2.31159 0
M  V30 684 C 57.8889 3.26599 -1.19284 0
M  V30 685 H 57.2119 3.43695 -2.0424 0
M  V30 686 H 58.6519 4.06274 -1.21316 0
M  V30 687 C 57.1109 3.3675 0.100454 0
M  V30 688 O 57.6409 3.86951 1.07851 0
M  V30 689 N 55.8469 2.90179 0.15633 0
M  V30 690 H 55.3939 2.49517 -0.640253 0
M  V30 691 H 55.3519 2.97352 1.02123 0
M  V30 692 N 59.124 1.23083 0.984299 0
M  V30 693 C 60.072 1.00593 2.09723 0
M  V30 694 C 61.066 -0.0538014 1.69315 0
M  V30 695 O 62.272 0.0993719 1.79725 0
M  V30 696 H 58.647 0.30817 0.685956 0
M  V30 697 H 60.618 1.95012 2.2586 0
M  V30 698 C 59.367 0.609601 3.42314 0
M  V30 699 H 58.69 1.41675 3.73856 0
M  V30 700 H 60.13 0.491726 4.21139 0
M  V30 701 C 58.589 -0.681745 3.2993 0
M  V30 702 O 59.119 -1.73192 3.62446 0
M  V30 703 N 57.325 -0.656178 2.83095 0
M  V30 704 H 56.872 0.198759 2.56832 0
M  V30 705 H 56.83 -1.52044 2.75191 0
M  V30 706 N 60.6021 -1.18246 1.0419 0
M  V30 707 C 61.8321 -1.91916 0.764961 0
M  V30 708 C 62.2401 -1.76485 -0.681898 0
M  V30 709 O 61.5831 -1.09275 -1.47664 0
M  V30 710 C 61.6451 -3.4373 1.05309 0
M  V30 711 C 61.3091 -3.8294 2.4941 0
M  V30 712 C 62.3061 -3.86621 3.47592 0
M  V30 713 C 59.9911 -4.142 2.84155 0
M  V30 714 C 61.9851 -4.21013 4.78568 0
M  V30 715 C 59.6721 -4.48262 4.15337 0
M  V30 716 C 60.6701 -4.51645 5.12353 0
M  V30 717 O 60.3581 -4.84911 6.41183 0
M  V30 718 H 60.0901 -0.61606 0.278292 0
M  V30 719 H 62.6441 -1.50947 1.39299 0
M  V30 720 H 60.8741 -3.84946 0.367933 0
M  V30 721 H 62.5631 -3.9865 0.763752 0
M  V30 722 H 63.3291 -3.62607 3.22089 0
M  V30 723 H 59.2081 -4.10743 2.09311 0
M  V30 724 H 62.7521 -4.23568 5.54289 0
M  V30 725 H 58.6491 -4.71737 4.40607 0
M  V30 726 H 59.4171 -5.02809 6.45852 0
M  V30 727 N 62.0802 -0.821533 -1.34494 0
M  V30 728 C 63.0282 -0.230702 -2.31453 0
M  V30 729 C 64.0222 0.627793 -1.57338 0
M  V30 730 O 65.2282 0.519288 -1.72347 0
M  V30 731 H 61.6032 -0.0558577 -0.749923 0
M  V30 732 H 63.5742 -1.06332 -2.78812 0
M  V30 733 C 62.3232 0.59391 -3.4259 0
M  V30 734 H 61.6462 -0.0573588 -3.99759 0
M  V30 735 H 63.0862 0.973446 -4.12674 0
M  V30 736 C 61.5452 1.76568 -2.86924 0
M  V30 737 O 62.0752 2.8638 -2.81691 0
M  V30 738 N 60.2812 1.58198 -2.43766 0
M  V30 739 H 59.8282 0.68872 -2.48222 0
M  V30 740 H 59.7862 2.36752 -2.06871 0
M  V30 741 N 63.5583 1.46682 -0.576371 0
M  V30 742 C 64.8073 2.01619 -0.0572825 0
M  V30 743 C 65.1203 1.45417 1.30818 0
M  V30 744 O 66.3263 1.92133 1.91825 0
M  V30 745 C 64.7823 3.59863 -0.0518371 0
M  V30 746 C 64.3903 4.25059 -1.41523 0
M  V30 747 C 66.1343 4.2248 0.413639 0
M  V30 748 C 64.0413 5.75364 -1.36785 0
M  V30 749 H 62.9713 0.753794 -0.0176448 0
M  V30 750 H 65.6223 1.68481 -0.727076 0
M  V30 751 H 64.0043 3.90048 0.683994 0
M  V30 752 H 65.1783 4.06491 -2.17029 0
M  V30 753 H 63.4933 3.7451 -1.8202 0
M  V30 754 H 66.0903 5.3265 0.467779 0
M  V30 755 H 66.4333 3.90976 1.42982 0
M  V30 756 H 66.9663 3.96897 -0.267929 0
M  V30 757 H 63.7053 6.11518 -2.36063 0
M  V30 758 H 63.2253 5.96214 -0.654895 0
M  V30 759 H 64.9043 6.37955 -1.07805 0
M  V30 760 N 65.0364 0.313813 1.54444 0
M  V30 761 C 65.9694 -0.598866 2.20202 0
M  V30 762 C 66.9474 -1.12318 1.17573 0
M  V30 763 O 68.1314 -1.18899 1.46271 0
M  V30 764 C 65.2584 -1.82071 2.85601 0
M  V30 765 C 64.3044 -1.42851 4.01865 0
M  V30 766 S 65.1374 -0.473512 5.33402 0
M  V30 767 C 66.2934 -1.70286 6.0229 0
M  V30 768 H 66.5264 -0.0402532 2.97273 0
M  V30 769 H 64.0594 0.0979165 1.54089 0
M  V30 770 H 66.0174 -2.52184 3.23904 0
M  V30 771 H 64.6784 -2.3505 2.08351 0
M  V30 772 H 63.8714 -2.33871 4.46453 0
M  V30 773 H 63.4734 -0.807198 3.65185 0
M  V30 774 H 65.7654 -2.64168 6.23876 0
M  V30 775 H 66.7084 -1.29932 6.96077 0
M  V30 776 H 67.1164 -1.88541 5.32083 0
M  V30 777 N 66.5145 -1.57545 0.0417849 0
M  V30 778 C 67.4245 -2.14451 -0.951213 0
M  V30 779 C 68.4405 -1.09992 -1.34825 0
M  V30 780 O 69.6165 -1.42114 -1.42708 0
M  V30 781 C 66.6815 -2.67063 -2.21084 0
M  V30 782 C 65.7425 -3.86284 -1.87304 0
M  V30 783 C 64.9755 -4.36378 -3.07261 0
M  V30 784 O 65.1985 -3.85587 -4.20332 0
M  V30 785 O 64.1325 -5.28077 -2.88822 0
M  V30 786 H 67.9585 -2.99601 -0.497287 0
M  V30 787 H 65.5435 -1.48317 -0.179567 0
M  V30 788 H 67.4255 -3.00914 -2.95006 0
M  V30 789 H 66.1005 -1.84989 -2.65633 0
M  V30 790 H 65.0075 -3.57338 -1.10727 0
M  V30 791 H 66.3405 -4.6956 -1.47562 0
M  V30 792 N 67.9926 0.231505 -1.5589 0
M  V30 793 C 69.2416 0.955346 -1.7764 0
M  V30 794 C 69.5546 1.85893 -0.608546 0
M  V30 795 O 70.7606 2.62067 -0.70943 0
M  V30 796 C 69.2166 1.74886 -3.14552 0
M  V30 797 C 68.8246 0.891915 -4.39032 0
M  V30 798 C 70.5686 2.46452 -3.45633 0
M  V30 799 C 68.4756 1.68221 -5.66971 0
M  V30 800 H 67.4056 0.360446 -0.662265 0
M  V30 801 H 70.0566 0.209516 -1.823 0
M  V30 802 H 68.4386 2.53723 -3.04041 0
M  V30 803 H 69.6126 0.144793 -4.60572 0
M  V30 804 H 67.9276 0.288863 -4.15397 0
M  V30 805 H 70.5246 3.06061 -4.38441 0
M  V30 806 H 70.8676 3.18841 -2.67668 0
M  V30 807 H 71.4006 1.74613 -3.57428 0
M  V30 808 H 68.1396 1.00178 -6.478 0
M  V30 809 H 67.6596 2.4042 -5.49507 0
M  V30 810 H 69.3386 2.24544 -6.06786 0
M  V30 811 N 69.4707 1.49531 0.497807 0
M  V30 812 C 70.8867 1.36365 0.829266 0
M  V30 813 C 71.0867 0.399184 1.97506 0
M  V30 814 O 70.1427 -0.167977 2.51941 0
M  V30 815 C 71.4557 2.77153 1.16647 0
M  V30 816 C 73.0037 2.85877 1.27449 0
M  V30 817 C 73.4787 4.2744 1.64497 0
M  V30 818 N 74.9697 4.30265 1.7154 0
M  V30 819 C 75.7047 5.3677 2.01656 0
M  V30 820 N 75.2007 6.53516 2.29976 0
M  V30 821 N 76.9937 5.24189 2.02934 0
M  V30 822 H 69.1447 2.10831 -0.257703 0
M  V30 823 H 71.4077 0.946534 -0.0527091 0
M  V30 824 H 71.1137 3.49442 0.397872 0
M  V30 825 H 70.9877 3.12722 2.10915 0
M  V30 826 H 73.3747 2.13824 2.0338 0
M  V30 827 H 73.4557 2.53887 0.312244 0
M  V30 828 H 73.0997 5.00021 0.891151 0
M  V30 829 H 73.0297 4.56896 2.61827 0
M  V30 830 H 75.5207 3.4607 1.51802 0
M  V30 831 H 75.8337 7.30506 2.52153 0
M  V30 832 H 74.1787 6.56737 2.27425 0
M  V30 833 H 77.3697 4.31988 1.80289 0
M  V30 834 H 77.5427 6.07286 2.26071 0
M  V30 835 N 70.9488 -0.749086 1.3866 0
M  V30 836 C 72.1768 -1.53834 1.38358 0
M  V30 837 C 72.5918 -1.88783 -0.0255219 0
M  V30 838 O 71.9488 -1.53101 -0.993292 0
M  V30 839 C 71.9998 -2.83468 2.2434 0
M  V30 840 O 71.7208 -2.50008 3.5976 0
M  V30 841 C 73.2218 -3.7758 2.32267 0
M  V30 842 H 70.4418 -0.47585 0.473083 0
M  V30 843 H 72.9858 -0.926726 1.82297 0
M  V30 844 H 71.1408 -3.40995 1.83851 0
M  V30 845 H 71.5548 -3.33182 4.05081 0
M  V30 846 H 73.0288 -4.65478 2.96706 0
M  V30 847 H 73.5058 -4.18334 1.33765 0
M  V30 848 H 74.1118 -3.25976 2.73166 0
M  V30 849 N 72.4269 -1.23603 -0.977757 0
M  V30 850 C 73.6729 -1.07129 -1.72195 0
M  V30 851 C 74.0059 0.390501 -1.90233 0
M  V30 852 O 73.2809 1.28902 -1.45653 0
M  V30 853 C 73.5639 -1.80031 -3.11867 0
M  V30 854 C 73.4169 -3.33899 -3.01383 0
M  V30 855 C 74.7359 -1.56492 -4.11337 0
M  V30 856 H 71.8549 -0.390571 -0.624999 0
M  V30 857 H 74.4969 -1.52142 -1.13811 0
M  V30 858 H 72.6469 -1.41768 -3.6171 0
M  V30 859 H 74.3189 -3.81699 -2.59043 0
M  V30 860 H 72.5619 -3.62796 -2.37827 0
M  V30 861 H 73.2329 -3.801 -4.00285 0
M  V30 862 H 75.7089 -1.89757 -3.70313 0
M  V30 863 H 74.5849 -2.09973 -5.07151 0
M  V30 864 H 74.8459 -0.500874 -4.39254 0
M  V30 865 N 73.905 1.17692 -1.04816 0
M  V30 866 C 74.868 2.19787 -0.650117 0
M  V30 867 C 75.868 1.58044 0.296427 0
M  V30 868 O 77.058 1.74012 0.0808097 0
M  V30 869 C 74.19 3.40869 0.0456987 0
M  V30 870 H 75.383 2.56516 -1.5537 0
M  V30 871 H 72.936 1.31708 -0.841594 0
M  V30 872 H 73.671 3.09681 0.962726 0
M  V30 873 H 73.456 3.86928 -0.634727 0
M  V30 874 H 74.946 4.16445 0.310432 0
M  V30 875 N 75.3831 0.828654 1.34056 0
M  V30 876 C 76.6291 0.42008 1.98402 0
M  V30 877 C 76.9621 -1.01564 1.65525 0
M  V30 878 O 76.2371 -1.70834 0.929831 0
M  V30 879 C 76.5201 0.62927 3.54559 0
M  V30 880 C 76.3731 2.11152 3.97159 0
M  V30 881 C 77.6921 0.0688756 4.40046 0
M  V30 882 H 74.8111 0.154104 0.720709 0
M  V30 883 H 77.4531 1.04228 1.5886 0
M  V30 884 H 75.6031 0.0996418 3.88372 0
M  V30 885 H 77.2751 2.70522 3.73651 0
M  V30 886 H 75.5181 2.59985 3.47261 0
M  V30 887 H 76.1891 2.20868 5.05887 0
M  V30 888 H 78.6651 0.521458 4.1282 0
M  V30 889 H 77.5411 0.245006 5.48353 0
M  V30 890 H 77.8021 -1.0266 4.30015 0
M  V30 891 N 76.8612 -1.46375 0.584142 0
M  V30 892 C 78.1092 -2.01978 0.0701287 0
M  V30 893 C 78.4302 -1.4579 -1.295 0
M  V30 894 O 77.7002 -0.64314 -1.85042 0
M  V30 895 H 76.2802 -0.746648 0.0229345 0
M  V30 896 H 78.9422 -1.79461 0.760245 0
M  V30 897 H 78.0382 -3.121 0.0022064 0
M  V30 898 N 78.3393 -0.321999 -1.54275 0
M  V30 899 C 79.5883 0.281931 -1.9972 0
M  V30 900 C 79.9013 1.53369 -1.21397 0
M  V30 901 O 81.1073 2.21352 -1.57211 0
M  V30 902 C 79.5633 0.5529 -3.55628 0
M  V30 903 C 79.1713 -0.681721 -4.42783 0
M  V30 904 C 80.9153 1.11687 -4.09544 0
M  V30 905 C 78.8223 -0.382742 -5.9016 0
M  V30 906 H 77.7523 0.109124 -0.746062 0
M  V30 907 H 80.4033 -0.43398 -1.78294 0
M  V30 908 H 78.7853 1.32896 -3.73035 0
M  V30 909 H 79.9593 -1.45723 -4.37151 0
M  V30 910 H 78.2743 -1.1658 -3.99748 0
M  V30 911 H 80.8713 1.35515 -5.17242 0
M  V30 912 H 81.2143 2.06575 -3.61431 0
M  V30 913 H 81.7473 0.402032 -3.95763 0
M  V30 914 H 78.4863 -1.30076 -6.42464 0
M  V30 915 H 78.0063 0.355094 -5.98748 0
M  V30 916 H 79.6853 0.00800157 -6.47 0
M  V30 917 N 79.8174 1.5752 -0.0501392 0
M  V30 918 C 81.0634 1.92936 0.624798 0
M  V30 919 C 81.3964 0.928685 1.70555 0
M  V30 920 O 80.6714 -0.0454779 1.94447 0
M  V30 921 C 80.9544 3.38737 1.22185 0
M  V30 922 C 80.8074 4.49552 0.149218 0
M  V30 923 C 82.1264 3.84913 2.13378 0
M  V30 924 H 79.2454 0.701604 0.225657 0
M  V30 925 H 81.8874 1.89671 -0.111693 0
M  V30 926 H 80.0374 3.4165 1.84953 0
M  V30 927 H 81.7094 4.58768 -0.482648 0
M  V30 928 H 79.9524 4.30638 -0.522841 0
M  V30 929 H 80.6234 5.48653 0.606966 0
M  V30 930 H 83.0994 3.8387 1.60572 0
M  V30 931 H 81.9754 4.87584 2.52097 0
M  V30 932 H 82.2364 3.21611 3.03346 0
M  V30 933 N 81.2955 -0.223234 1.56011 0
M  V30 934 C 82.2585 -1.26014 1.9145 0
M  V30 935 C 83.2585 -1.3989 0.792937 0
M  V30 936 O 84.4485 -1.38184 1.0607 0
M  V30 937 C 81.5805 -2.63422 2.16383 0
M  V30 938 H 82.7735 -0.95796 2.84189 0
M  V30 939 H 80.3265 -0.463576 1.49267 0
M  V30 940 H 81.0615 -2.98741 1.2619 0
M  V30 941 H 80.8465 -2.54728 2.98088 0
M  V30 942 H 82.3365 -3.38249 2.44903 0
M  V30 943 N 82.7736 -1.49793 -0.48987 0
M  V30 944 C 84.0226 -1.59085 -1.23995 0
M  V30 945 C 84.3356 -0.287907 -1.9347 0
M  V30 946 O 85.5416 -0.259506 -2.70257 0
M  V30 947 C 83.9976 -2.80736 -2.252 0
M  V30 948 C 83.6056 -4.17833 -1.61614 0
M  V30 949 C 85.3496 -2.99364 -3.00967 0
M  V30 950 C 83.2566 -5.30693 -2.60996 0
M  V30 951 H 82.1866 -0.592372 -0.466488 0
M  V30 952 H 84.8376 -1.76197 -0.51252 0
M  V30 953 H 83.2196 -2.57142 -3.01154 0
M  V30 954 H 84.3936 -4.51608 -0.915774 0
M  V30 955 H 82.7086 -4.04656 -0.981977 0
M  V30 956 H 85.3056 -3.80851 -3.75308 0
M  V30 957 H 85.6486 -2.10356 -3.59244 0
M  V30 958 H 86.1816 -3.2305 -2.32128 0
M  V30 959 H 82.9206 -6.21796 -2.07485 0
M  V30 960 H 82.4406 -5.01359 -3.2924 0
M  V30 961 H 84.1196 -5.6049 -3.23202 0
M  V30 962 N 84.2517 0.741722 -1.39055 0
M  V30 963 C 85.1987 1.85566 -1.37237 0
M  V30 964 C 86.1687 1.64457 -0.233072 0
M  V30 965 O 87.3537 1.85957 -0.427147 0
M  V30 966 C 84.4937 3.23004 -1.215 0
M  V30 967 C 83.6067 3.55864 -2.44918 0
M  V30 968 C 82.7417 4.82669 -2.21821 0
M  V30 969 C 81.7807 5.08351 -3.40948 0
M  V30 970 N 80.9177 6.26356 -3.17211 0
M  V30 971 H 85.7577 1.86455 -2.32462 0
M  V30 972 H 83.2947 0.911176 -1.15482 0
M  V30 973 H 85.2527 4.02331 -1.10389 0
M  V30 974 H 83.8827 3.21411 -0.29908 0
M  V30 975 H 82.9347 2.7129 -2.66657 0
M  V30 976 H 84.2467 3.70765 -3.33668 0
M  V30 977 H 83.4007 5.69962 -2.07914 0
M  V30 978 H 82.1397 4.69929 -1.30454 0
M  V30 979 H 81.1447 4.19522 -3.55361 0
M  V30 980 H 82.3697 5.22981 -4.33207 0
M  V30 981 H 80.3157 6.14917 -2.28502 0
M  V30 982 H 80.2327 6.41813 -3.99515 0
M  V30 983 H 81.5007 7.16506 -3.06984 0
M  V30 984 N 85.7298 1.2412 0.971189 0
M  V30 985 C 86.9778 1.07668 1.71032 0
M  V30 986 C 87.2988 -0.385797 1.91146 0
M  V30 987 O 86.5688 -1.27569 1.4867 0
M  V30 988 H 85.1488 0.395429 0.633755 0
M  V30 989 H 87.8108 1.55984 1.16855 0
M  V30 990 H 86.9068 1.57195 2.69622 0
M  V30 991 N 87.2079 -1.17134 1.05439 0
M  V30 992 C 88.4539 -1.87733 0.767077 0
M  V30 993 C 88.7869 -1.8098 -0.704253 0
M  V30 994 O 88.0619 -1.21951 -1.5152 0
M  V30 995 C 88.3449 -3.37659 1.25133 0
M  V30 996 C 88.1979 -3.53149 2.78578 0
M  V30 997 C 89.5169 -4.31768 0.852324 0
M  V30 998 H 86.6359 -0.681687 0.280129 0
M  V30 999 H 89.2779 -1.37732 1.30881 0
M  V30 1000 H 87.4279 -3.80373 0.790469 0
M  V30 1001 H 89.0999 -3.19434 3.32806 0
M  V30 1002 H 87.3429 -2.95345 3.17732 0
M  V30 1003 H 88.0139 -4.58403 3.07523 0
M  V30 1004 H 90.4899 -3.96909 1.24911 0
M  V30 1005 H 89.3659 -5.35199 1.21873 0
M  V30 1006 H 89.6269 -4.41429 -0.243485 0
M  V30 1007 N 88.686 -0.835752 -1.33615 0
M  V30 1008 C 89.596 -0.269088 -2.33052 0
M  V30 1009 C 90.612 0.603251 -1.63208 0
M  V30 1010 O 91.788 0.508112 -1.94885 0
M  V30 1011 C 88.853 0.549091 -3.42324 0
M  V30 1012 C 87.914 -0.347156 -4.27894 0
M  V30 1013 C 87.147 0.43207 -5.31948 0
M  V30 1014 O 87.37 1.66409 -5.45586 0
M  V30 1015 O 86.304 -0.192298 -6.01593 0
M  V30 1016 H 90.13 -1.09243 -2.83372 0
M  V30 1017 H 87.715 -0.598198 -1.36901 0
M  V30 1018 H 89.597 1.01414 -4.09015 0
M  V30 1019 H 88.272 1.34955 -2.94226 0
M  V30 1020 H 87.179 -0.859979 -3.64081 0
M  V30 1021 H 88.512 -1.1123 -4.79467 0
M  V30 1022 N 90.1641 1.46063 -0.591896 0
M  V30 1023 C 91.3891 2.07226 -0.0850314 0
M  V30 1024 C 91.8141 1.43625 1.21463 0
M  V30 1025 O 91.1721 0.523305 1.73583 0
M  V30 1026 C 91.2201 3.60554 0.0576567 0
M  V30 1027 O 90.3241 3.97128 1.11188 0
M  V30 1028 H 89.6651 0.660615 -0.0669568 0
M  V30 1029 H 92.1951 1.8756 -0.81745 0
M  V30 1030 H 92.2051 4.07165 0.2609 0
M  V30 1031 H 90.8801 4.06235 -0.891416 0
M  V30 1032 H 89.4571 3.62213 0.886356 0
M  V30 1033 N 91.6422 0.330177 1.54103 0
M  V30 1034 C 92.5522 -0.541534 2.28264 0
M  V30 1035 C 93.5682 -1.12351 1.32866 0
M  V30 1036 O 94.7442 -1.14206 1.65888 0
M  V30 1037 C 91.8092 -1.68322 3.03098 0
M  V30 1038 C 90.8702 -1.13238 4.14096 0
M  V30 1039 C 90.1032 -2.21966 4.85352 0
M  V30 1040 O 90.3262 -3.42437 4.56172 0
M  V30 1041 O 89.2602 -1.87013 5.7211 0
M  V30 1042 H 93.0862 0.060938 3.03639 0
M  V30 1043 H 90.6712 0.09565 1.49093 0
M  V30 1044 H 92.5532 -2.34777 3.49939 0
M  V30 1045 H 91.2282 -2.27176 2.30593 0
M  V30 1046 H 90.1352 -0.432736 3.71589 0
M  V30 1047 H 91.4682 -0.588898 4.88664 0
M  V30 1048 N 93.1203 -1.57491 0.0584922 0
M  V30 1049 C 94.3673 -1.92978 -0.613648 0
M  V30 1050 C 94.6953 -0.937461 -1.70417 0
M  V30 1051 O 93.9503 0.049078 -1.95638 0
M  V30 1052 C 94.2493 -3.3513 -1.24188 0
M  V30 1053 C 93.9153 -4.50037 -0.278826 0
M  V30 1054 C 92.5773 -4.81198 -0.0138447 0
M  V30 1055 C 94.9293 -5.19807 0.380777 0
M  V30 1056 C 92.2573 -5.79473 0.918052 0
M  V30 1057 C 94.6093 -6.19079 1.30091 0
M  V30 1058 C 93.2733 -6.48665 1.57449 0
M  V30 1059 H 92.5433 -0.706157 -0.22455 0
M  V30 1060 H 95.1903 -1.91082 0.126533 0
M  V30 1061 H 93.4953 -3.33429 -2.05749 0
M  V30 1062 H 95.1923 -3.59871 -1.769 0
M  V30 1063 H 91.7823 -4.25726 -0.495539 0
M  V30 1064 H 95.9663 -4.95939 0.189158 0
M  V30 1065 H 91.2223 -6.00727 1.1374 0
M  V30 1066 H 95.3963 -6.7225 1.81804 0
M  V30 1067 H 93.0233 -7.24628 2.29822 0
M  V30 1068 N 94.5984 0.214957 -1.56127 0
M  V30 1069 C 95.8284 0.953707 -1.8327 0
M  V30 1070 C 96.2364 1.78181 -0.636262 0
M  V30 1071 O 95.5794 1.79191 0.404516 0
M  V30 1072 C 95.6414 1.91516 -3.0424 0
M  V30 1073 C 95.3054 1.27094 -4.38972 0
M  V30 1074 C 96.3024 0.657575 -5.15725 0
M  V30 1075 C 93.9874 1.28073 -4.85698 0
M  V30 1076 C 95.9814 0.0625968 -6.37369 0
M  V30 1077 C 93.6684 0.681914 -6.07283 0
M  V30 1078 C 94.6664 0.0739046 -6.8296 0
M  V30 1079 O 94.3544 -0.515582 -8.02245 0
M  V30 1080 H 94.0864 0.284764 -0.613095 0
M  V30 1081 H 96.6404 0.233283 -2.04071 0
M  V30 1082 H 94.8704 2.67475 -2.79274 0
M  V30 1083 H 96.5594 2.52001 -3.18198 0
M  V30 1084 H 97.3254 0.642288 -4.80728 0
M  V30 1085 H 93.2044 1.74337 -4.26764 0
M  V30 1086 H 96.7484 -0.412593 -6.96379 0
M  V30 1087 H 92.6454 0.694636 -6.41752 0
M  V30 1088 H 93.4134 -0.410544 -8.1747 0
M  V30 1089 N 96.0765 1.50051 0.48192 0
M  V30 1090 C 97.0065 1.71046 1.58951 0
M  V30 1091 C 97.9875 0.559288 1.60642 0
M  V30 1092 O 99.1725 0.797243 1.77081 0
M  V30 1093 C 96.3025 1.79462 2.97339 0
M  V30 1094 C 95.2565 2.94558 3.10515 0
M  V30 1095 C 94.5825 2.88105 4.50444 0
M  V30 1096 C 95.8825 4.35227 2.88747 0
M  V30 1097 H 97.5765 2.6378 1.41635 0
M  V30 1098 H 95.1225 1.26936 0.679942 0
M  V30 1099 H 97.0755 1.92734 3.74742 0
M  V30 1100 H 95.7995 0.833412 3.15788 0
M  V30 1101 H 94.4585 2.80918 2.35543 0
M  V30 1102 H 94.1065 1.89853 4.65795 0
M  V30 1103 H 93.8065 3.65366 4.60197 0
M  V30 1104 H 95.3305 3.03412 5.29881 0
M  V30 1105 H 96.7445 4.49449 3.55905 0
M  V30 1106 H 95.1415 5.13856 3.09955 0
M  V30 1107 H 96.2115 4.48347 1.84696 0
M  V30 1108 N 97.5546 -0.734337 1.39446 0
M  V30 1109 C 98.5176 -1.83004 1.37994 0
M  V30 1110 C 99.5176 -1.58397 0.276938 0
M  V30 1111 O 100.708 -1.65785 0.534875 0
M  V30 1112 C 97.8396 -3.20802 1.1532 0
M  V30 1113 H 99.0326 -1.85694 2.35494 0
M  V30 1114 H 96.5856 -0.938059 1.25021 0
M  V30 1115 H 97.3206 -3.23772 0.185036 0
M  V30 1116 H 97.1056 -3.4006 1.95197 0
M  V30 1117 H 98.5956 -4.00862 1.17046 0
M  V30 1118 N 99.0327 -1.24633 -0.964593 0
M  V30 1119 C 99.9657 -0.984662 -2.05863 0
M  V30 1120 C 100.944 0.0826554 -1.6239 0
M  V30 1121 O 102.128 -0.0549296 -1.8842 0
M  V30 1122 C 99.2547 -0.486529 -3.35187 0
M  V30 1123 C 98.3007 -1.54286 -3.97615 0
M  V30 1124 S 99.1337 -3.12513 -4.34851 0
M  V30 1125 C 100.29 -2.6441 -5.67308 0
M  V30 1126 H 100.523 -1.91104 -2.27743 0
M  V30 1127 H 98.0557 -1.08052 -1.10291 0
M  V30 1128 H 100.014 -0.205757 -4.09984 0
M  V30 1129 H 98.6747 0.419186 -3.1129 0
M  V30 1130 H 97.8677 -1.14481 -4.90826 0
M  V30 1131 H 97.4697 -1.7738 -3.2926 0
M  V30 1132 H 99.7617 -2.07416 -6.44969 0
M  V30 1133 H 100.705 -3.56222 -6.11973 0
M  V30 1134 H 101.113 -2.04734 -5.26065 0
M  V30 1135 N 100.511 1.16574 -1.06058 0
M  V30 1136 C 101.459 2.22941 -0.663343 0
M  V30 1137 C 102.453 1.66358 0.319593 0
M  V30 1138 O 103.659 1.7905 0.184713 0
M  V30 1139 H 100.034 0.725907 -0.196376 0
M  V30 1140 H 102.005 2.53736 -1.57037 0
M  V30 1141 C 100.754 3.47642 -0.0632808 0
M  V30 1142 H 100.077 3.91493 -0.810733 0
M  V30 1143 H 101.517 4.2363 0.177177 0
M  V30 1144 C 99.9758 3.1509 1.19248 0
M  V30 1145 O 100.506 3.30673 2.28075 0
M  V30 1146 N 98.7118 2.6924 1.09353 0
M  V30 1147 H 98.2588 2.5676 0.207912 0
M  V30 1148 H 98.2168 2.47833 1.93458 0
M  V30 1149 N 101.989 0.842826 1.3317 0
M  V30 1150 C 102.936 0.276885 2.29133 0
M  V30 1151 C 103.906 -0.609527 1.54512 0
M  V30 1152 O 105.091 -0.546955 1.82792 0
M  V30 1153 C 102.231 -0.538707 3.40869 0
M  V30 1154 C 101.344 0.372169 4.30394 0
M  V30 1155 C 100.479 -0.454908 5.29249 0
M  V30 1156 C 99.5179 0.45411 6.10413 0
M  V30 1157 N 98.6549 -0.335075 7.013 0
M  V30 1158 H 103.495 1.10052 2.76934 0
M  V30 1159 H 101.032 0.554161 1.36262 0
M  V30 1160 H 102.99 -1.02709 4.0436 0
M  V30 1161 H 101.62 -1.32727 2.9425 0
M  V30 1162 H 100.672 0.97888 3.6759 0
M  V30 1163 H 101.984 1.0703 4.87182 0
M  V30 1164 H 101.138 -1.00695 5.98285 0
M  V30 1165 H 99.8769 -1.18646 4.73048 0
M  V30 1166 H 98.8819 1.01813 5.40291 0
M  V30 1167 H 100.107 1.18409 6.68697 0
M  V30 1168 H 98.0529 -1.04994 6.47543 0
M  V30 1169 H 97.9699 0.304262 7.55387 0
M  V30 1170 H 99.2379 -0.869224 7.74638 0
M  V30 1171 N 103.467 -1.45747 0.599634 0
M  V30 1172 C 104.377 -2.34262 -0.125888 0
M  V30 1173 C 105.393 -1.50768 -0.868625 0
M  V30 1174 O 106.569 -1.83592 -0.828003 0
M  V30 1175 C 103.634 -3.28252 -1.11587 0
M  V30 1176 C 102.695 -4.27651 -0.375956 0
M  V30 1177 C 101.928 -5.1715 -1.31877 0
M  V30 1178 O 102.151 -5.09916 -2.55621 0
M  V30 1179 O 101.085 -5.96286 -0.820157 0
M  V30 1180 H 104.911 -2.97688 0.601315 0
M  V30 1181 H 102.496 -1.44999 0.359934 0
M  V30 1182 H 104.378 -3.86191 -1.68626 0
M  V30 1183 H 103.053 -2.67401 -1.82424 0
M  V30 1184 H 101.96 -3.7335 0.236698 0
M  V30 1185 H 103.293 -4.91334 0.29177 0
M  V30 1186 N 104.945 -0.338344 -1.53925 0
M  V30 1187 C 106.193 0.259245 -2.0043 0
M  V30 1188 C 106.514 1.51484 -1.22791 0
M  V30 1189 O 105.784 1.93037 -0.33368 0
M  V30 1190 H 104.364 0.0987845 -0.740439 0
M  V30 1191 H 107.026 -0.458302 -1.89435 0
M  V30 1192 H 106.122 0.505334 -3.07982 0
M  V30 1193 N 106.423 1.57458 -0.0668435 0
M  V30 1194 C 107.37 2.12439 0.902122 0
M  V30 1195 C 108.34 1.03565 1.2986 0
M  V30 1196 O 109.525 1.312 1.38532 0
M  V30 1197 C 106.665 2.6865 2.16614 0
M  V30 1198 C 105.778 3.91663 1.82274 0
M  V30 1199 C 104.913 4.36134 3.0325 0
M  V30 1200 C 103.952 5.51808 2.64904 0
M  V30 1201 N 103.089 5.9126 3.78624 0
M  V30 1202 H 107.929 2.94934 0.426382 0
M  V30 1203 H 105.466 1.4575 0.198819 0
M  V30 1204 H 107.424 2.99346 2.90599 0
M  V30 1205 H 106.054 1.88928 2.61737 0
M  V30 1206 H 105.106 3.6746 0.983719 0
M  V30 1207 H 106.418 4.75693 1.50059 0
M  V30 1208 H 105.572 4.68465 3.85519 0
M  V30 1209 H 104.311 3.50948 3.38655 0
M  V30 1210 H 103.316 5.19133 1.81055 0
M  V30 1211 H 104.541 6.38722 2.30675 0
M  V30 1212 H 102.487 5.09024 4.138 0
M  V30 1213 H 102.404 6.70018 3.5016 0
M  V30 1214 H 103.672 6.28212 4.61486 0
M  V30 1215 N 107.901 -0.206675 1.56239 0
M  V30 1216 C 108.831 -1.25909 1.96645 0
M  V30 1217 C 109.812 -1.48097 0.836734 0
M  V30 1218 O 110.997 -1.6003 1.10019 0
M  V30 1219 C 108.127 -2.6058 2.29599 0
M  V30 1220 C 107.081 -2.53024 3.452 0
M  V30 1221 C 106.407 -3.91861 3.63798 0
M  V30 1222 C 107.707 -2.06524 4.79734 0
M  V30 1223 H 109.401 -0.923369 2.84806 0
M  V30 1224 H 106.947 -0.442735 1.37025 0
M  V30 1225 H 108.9 -3.34375 2.56459 0
M  V30 1226 H 107.624 -2.95869 1.38307 0
M  V30 1227 H 106.283 -1.81684 3.18412 0
M  V30 1228 H 105.931 -4.24483 2.69857 0
M  V30 1229 H 105.631 -3.87683 4.4156 0
M  V30 1230 H 107.155 -4.67296 3.93022 0
M  V30 1231 H 108.569 -2.70072 5.05702 0
M  V30 1232 H 106.966 -2.13374 5.60885 0
M  V30 1233 H 108.036 -1.01802 4.74093 0
M  V30 1234 N 109.379 -1.50304 -0.473955 0
M  V30 1235 C 110.609 -1.64663 -1.24778 0
M  V30 1236 C 111.017 -0.328174 -1.86332 0
M  V30 1237 O 110.36 0.699536 -1.69859 0
M  V30 1238 C 110.422 -2.6778 -2.39863 0
M  V30 1239 C 110.086 -4.11413 -1.98969 0
M  V30 1240 C 111.083 -4.97372 -1.51385 0
M  V30 1241 C 108.768 -4.57312 -2.07777 0
M  V30 1242 C 110.762 -6.27277 -1.13148 0
M  V30 1243 C 108.449 -5.87223 -1.69152 0
M  V30 1244 C 109.447 -6.72031 -1.21915 0
M  V30 1245 O 109.135 -7.99518 -0.838237 0
M  V30 1246 H 108.867 -0.556602 -0.383627 0
M  V30 1247 H 111.421 -1.9726 -0.572491 0
M  V30 1248 H 109.651 -2.30419 -3.10554 0
M  V30 1249 H 111.34 -2.71388 -3.01833 0
M  V30 1250 H 112.106 -4.63128 -1.44004 0
M  V30 1251 H 107.985 -3.91449 -2.43493 0
M  V30 1252 H 111.529 -6.93425 -0.762077 0
M  V30 1253 H 107.426 -6.20989 -1.76191 0
M  V30 1254 H 108.194 -8.12764 -0.967339 0
M  V30 1255 N 110.857 0.726932 -1.39834 0
M  V30 1256 C 111.82 1.82269 -1.38962 0
M  V30 1257 C 112.82 1.58248 -0.285334 0
M  V30 1258 O 114.01 1.65499 -0.54366 0
M  V30 1259 C 111.142 3.20186 -1.17019 0
M  V30 1260 H 112.335 1.84443 -2.36476 0
M  V30 1261 H 109.888 0.931416 -1.25516 0
M  V30 1262 H 110.623 3.23669 -0.202204 0
M  V30 1263 H 110.408 3.3902 -1.96998 0
M  V30 1264 H 111.898 4.00235 -1.1917 0
M  V30 1265 N 112.336 1.25143 0.95797 0
M  V30 1266 C 113.283 1.05235 2.05412 0
M  V30 1267 C 114.253 -0.0374561 1.66058 0
M  V30 1268 O 115.438 0.119073 1.90428 0
M  V30 1269 C 112.578 0.673589 3.38462 0
M  V30 1270 C 111.691 1.8379 3.90954 0
M  V30 1271 C 110.826 1.40381 5.12315 0
M  V30 1272 C 109.865 2.53746 5.57027 0
M  V30 1273 N 109.002 2.11136 6.69601 0
M  V30 1274 H 113.842 1.99048 2.21774 0
M  V30 1275 H 111.379 0.991277 1.08683 0
M  V30 1276 H 113.337 0.434964 4.14926 0
M  V30 1277 H 111.967 -0.227554 3.21997 0
M  V30 1278 H 111.019 2.18992 3.11041 0
M  V30 1279 H 112.331 2.68937 4.20089 0
M  V30 1280 H 111.485 1.12464 5.96185 0
M  V30 1281 H 110.224 0.523015 4.84887 0
M  V30 1282 H 109.229 2.82412 4.71724 0
M  V30 1283 H 110.454 3.42398 5.86464 0
M  V30 1284 H 108.4 1.25468 6.4389 0
M  V30 1285 H 108.317 2.89832 6.98236 0
M  V30 1286 H 109.585 1.86385 7.56889 0
M  V30 1287 N 113.814 -1.1601 1.06675 0
M  V30 1288 C 114.761 -2.20525 0.680967 0
M  V30 1289 C 115.731 -1.62904 -0.324283 0
M  V30 1290 O 116.916 -1.89615 -0.212294 0
M  V30 1291 C 114.056 -3.45013 0.0776551 0
M  V30 1292 C 113.169 -4.16863 1.13355 0
M  V30 1293 C 112.304 -5.2888 0.49597 0
M  V30 1294 C 111.343 -5.92537 1.53513 0
M  V30 1295 N 110.48 -6.96038 0.920631 0
M  V30 1296 H 115.32 -2.52876 1.57663 0
M  V30 1297 H 112.857 -1.24199 0.788223 0
M  V30 1298 H 114.815 -4.16193 -0.289704 0
M  V30 1299 H 113.445 -3.132 -0.781393 0
M  V30 1300 H 112.497 -3.44248 1.61857 0
M  V30 1301 H 113.809 -4.60294 1.92174 0
M  V30 1302 H 112.963 -6.06653 0.0758604 0
M  V30 1303 H 111.702 -4.86622 -0.324062 0
M  V30 1304 H 110.707 -5.13482 1.9651 0
M  V30 1305 H 111.932 -6.36873 2.35733 0
M  V30 1306 H 109.878 -6.55888 0.12138 0
M  V30 1307 H 109.795 -7.3786 1.64616 0
M  V30 1308 H 111.063 -7.77725 0.525795 0
M  V30 1309 N 115.292 -0.849877 -1.32721 0
M  V30 1310 C 116.202 -0.293791 -2.32753 0
M  V30 1311 C 117.218 0.585906 -1.63839 0
M  V30 1312 O 118.394 0.487413 -1.95413 0
M  V30 1313 C 115.459 0.512752 -3.42887 0
M  V30 1314 C 114.52 -0.39252 -4.27502 0
M  V30 1315 C 113.753 0.375625 -5.32377 0
M  V30 1316 O 113.976 1.60613 -5.4732 0
M  V30 1317 O 112.91 -0.256094 -6.01355 0
M  V30 1318 H 116.736 -1.12242 -2.82197 0
M  V30 1319 H 114.321 -0.612685 -1.36259 0
M  V30 1320 H 116.203 0.970704 -4.10067 0
M  V30 1321 H 114.878 1.31826 -2.95641 0
M  V30 1322 H 113.785 -0.898547 -3.63149 0
M  V30 1323 H 115.118 -1.16309 -4.7826 0
M  V30 1324 N 116.77 1.45427 -0.607355 0
M  V30 1325 C 118.01 2.04128 -0.105458 0
M  V30 1326 C 118.374 1.46555 1.24039 0
M  V30 1327 O 119.575 1.96608 1.833 0
M  V30 1328 C 117.846 3.57338 -0.0665324 0
M  V30 1329 S 119.405 4.37201 0.374207 0
M  V30 1330 H 116.223 0.709278 -0.0494575 0
M  V30 1331 H 118.825 1.78139 -0.805404 0
M  V30 1332 H 117.529 3.96752 -1.04957 0
M  V30 1333 H 117.06 3.87902 0.655415 0
M  V30 1334 H 119.075 4.6888 1.62377 0
M  V30 1335 N 118.248 0.346503 1.53744 0
M  V30 1336 C 119.196 -0.52422 2.26616 0
M  V30 1337 C 120.19 -1.09948 1.28871 0
M  V30 1338 O 121.396 -1.04488 1.46568 0
M  V30 1339 H 117.771 -0.187743 0.728187 0
M  V30 1340 H 119.742 0.11239 2.98188 0
M  V30 1341 C 118.491 -1.66186 3.05414 0
M  V30 1342 H 117.814 -1.22848 3.80458 0
M  V30 1343 H 119.254 -2.24622 3.59612 0
M  V30 1344 C 117.713 -2.59302 2.1509 0
M  V30 1345 O 118.243 -3.61628 1.74895 0
M  V30 1346 N 116.449 -2.28055 1.8011 0
M  V30 1347 H 115.996 -1.44883 2.12994 0
M  V30 1348 H 115.954 -2.90615 1.19958 0
M  V30 1349 N 119.726 -1.57421 0.075193 0
M  V30 1350 C 120.636 -2.1642 -0.905511 0
M  V30 1351 C 121.652 -1.12828 -1.32461 0
M  V30 1352 O 122.828 -1.45109 -1.39661 0
M  V30 1353 C 119.893 -2.71693 -2.15369 0
M  V30 1354 C 118.954 -3.90171 -1.79068 0
M  V30 1355 C 118.187 -4.42798 -2.97936 0
M  V30 1356 O 118.41 -3.94416 -4.12058 0
M  V30 1357 O 117.344 -5.34085 -2.77555 0
M  V30 1358 H 121.17 -3.00588 -0.433626 0
M  V30 1359 H 118.755 -1.48664 -0.148067 0
M  V30 1360 H 120.637 -3.07104 -2.88557 0
M  V30 1361 H 119.312 -1.90582 -2.61649 0
M  V30 1362 H 118.219 -3.59606 -1.03122 0
M  V30 1363 H 119.552 -4.72584 -1.37569 0
M  V30 1364 N 121.204 0.198386 -1.56346 0
M  V30 1365 C 122.481 0.944982 -1.71258 0
M  V30 1366 C 122.861 2.0151 -0.629048 0
M  V30 1367 O 122.209 2.25639 0.360473 0
M  V30 1368 C 122.419 1.5344 -3.1346 0
M  V30 1369 C 123.767 2.01778 -3.73591 0
M  V30 1370 O 124.791 1.63288 -3.16568 0
M  V30 1371 O 123.65 2.72594 -4.73661 0
M  V30 1372 H 120.744 0.442939 -0.69838 0
M  V30 1373 H 123.29 0.188342 -1.68652 0
M  V30 1374 H 122.062 0.762869 -3.83792 0
M  V30 1375 H 121.685 2.35596 -3.20282 0
M  V30 1376 N 122.682 1.50554 0.465978 0
M  V30 1377 C 123.922 1.63439 1.22747 0
M  V30 1378 C 124.286 0.329822 1.89146 0
M  V30 1379 O 125.487 0.334161 2.66715 0
M  V30 1380 C 123.758 2.78542 2.2394 0
M  V30 1381 S 125.317 3.11591 3.0896 0
M  V30 1382 H 122.135 0.576113 0.416672 0
M  V30 1383 H 124.737 1.88357 0.523641 0
M  V30 1384 H 123.441 3.71805 1.7375 0
M  V30 1385 H 122.972 2.55726 2.98944 0
M  V30 1386 H 124.987 2.55811 4.25176 0
M  V30 1387 N 124.16 -0.719506 1.40217 0
M  V30 1388 C 125.108 -1.85493 1.40339 0
M  V30 1389 C 126.102 -1.66995 0.284415 0
M  V30 1390 O 127.308 -1.74148 0.455252 0
M  V30 1391 H 123.683 -0.610857 0.438586 0
M  V30 1392 H 125.654 -1.82506 2.36081 0
M  V30 1393 C 124.403 -3.23321 1.27901 0
M  V30 1394 H 123.726 -3.38159 2.1328 0
M  V30 1395 H 125.166 -4.02914 1.32045 0
M  V30 1396 C 123.625 -3.36898 -0.0111355 0
M  V30 1397 O 124.155 -3.89674 -0.975538 0
M  V30 1398 N 122.361 -2.90492 -0.0793393 0
M  V30 1399 H 121.908 -2.47731 0.706183 0
M  V30 1400 H 121.866 -2.99955 -0.942038 0
M  V30 1401 N 125.638 -1.25649 -0.95132 0
M  V30 1402 C 126.885 -1.10594 -1.69633 0
M  V30 1403 C 127.213 0.352515 -1.91279 0
M  V30 1404 O 126.468 1.27601 -1.4838 0
M  V30 1405 C 126.767 -1.80909 -3.08231 0
M  V30 1406 C 126.433 -3.30825 -3.06375 0
M  V30 1407 C 125.095 -3.71722 -3.05576 0
M  V30 1408 C 127.447 -4.26589 -2.99452 0
M  V30 1409 C 124.775 -5.06788 -2.95606 0
M  V30 1410 C 127.127 -5.61683 -2.91024 0
M  V30 1411 C 125.791 -6.01904 -2.88562 0
M  V30 1412 H 125.061 -0.404691 -0.620731 0
M  V30 1413 H 127.708 -1.55964 -1.11119 0
M  V30 1414 H 126.013 -1.27979 -3.70309 0
M  V30 1415 H 127.71 -1.6671 -3.64704 0
M  V30 1416 H 124.3 -2.98287 -3.07771 0
M  V30 1417 H 128.484 -3.95982 -2.99185 0
M  V30 1418 H 123.74 -5.37126 -2.92071 0
M  V30 1419 H 127.914 -6.35578 -2.84629 0
M  V30 1420 H 125.541 -7.06521 -2.80593 0
M  V30 1421 N 127.117 1.15442 -1.07289 0
M  V30 1422 C 128.064 2.20161 -0.692653 0
M  V30 1423 C 129.034 1.63073 0.31564 0
M  V30 1424 O 130.219 1.89725 0.202235 0
M  V30 1425 C 127.359 3.44967 -0.0959509 0
M  V30 1426 C 126.472 4.16256 -1.15564 0
M  V30 1427 C 125.607 5.28609 -0.524011 0
M  V30 1428 C 124.646 5.91715 -1.56653 0
M  V30 1429 N 123.783 6.9554 -0.957531 0
M  V30 1430 H 128.623 2.52037 -1.59002 0
M  V30 1431 H 126.16 1.2378 -0.794798 0
M  V30 1432 H 128.118 4.16341 0.267628 0
M  V30 1433 H 126.748 3.1361 0.764772 0
M  V30 1434 H 125.8 3.43385 -1.6368 0
M  V30 1435 H 127.112 4.59268 -1.94613 0
M  V30 1436 H 126.266 6.06604 -0.108032 0
M  V30 1437 H 125.005 4.86787 0.29825 0
M  V30 1438 H 124.01 5.12433 -1.9923 0
M  V30 1439 H 125.235 6.35614 -2.39107 0
M  V30 1440 H 123.181 6.55814 -0.156162 0
M  V30 1441 H 123.098 7.36977 -1.68526 0
M  V30 1442 H 124.366 7.77435 -0.567032 0
M  V30 1443 N 128.595 0.856903 1.32268 0
M  V30 1444 C 129.505 0.306131 2.32594 0
M  V30 1445 C 130.521 -0.577209 1.64147 0
M  V30 1446 O 131.697 -0.477043 1.95669 0
M  V30 1447 C 128.762 -0.494561 3.43154 0
M  V30 1448 C 127.823 0.415186 4.27288 0
M  V30 1449 C 127.056 -0.347387 5.32568 0
M  V30 1450 O 127.279 -1.57708 5.48165 0
M  V30 1451 O 126.213 0.287982 6.01211 0
M  V30 1452 H 130.039 1.13737 2.81598 0
M  V30 1453 H 127.624 0.619902 1.35932 0
M  V30 1454 H 129.506 -0.948944 4.10576 0
M  V30 1455 H 128.181 -1.30257 2.96336 0
M  V30 1456 H 127.088 0.917793 3.62667 0
M  V30 1457 H 128.421 1.18844 4.77637 0
M  V30 1458 N 130.073 -1.45103 0.615059 0
M  V30 1459 C 131.003 -2.33339 -0.0865619 0
M  V30 1460 C 131.984 -1.4727 -0.851209 0
M  V30 1461 O 133.169 -1.76026 -0.820281 0
M  V30 1462 C 130.299 -3.30095 -1.07956 0
M  V30 1463 C 129.253 -4.25858 -0.427628 0
M  V30 1464 C 128.579 -5.12361 -1.5294 0
M  V30 1465 C 129.879 -5.18165 0.655944 0
M  V30 1466 H 131.573 -2.92254 0.650224 0
M  V30 1467 H 129.119 -1.40532 0.314138 0
M  V30 1468 H 131.072 -3.90698 -1.57901 0
M  V30 1469 H 129.796 -2.69355 -1.84703 0
M  V30 1470 H 128.455 -3.66564 0.0510292 0
M  V30 1471 H 128.103 -4.47984 -2.28734 0
M  V30 1472 H 127.803 -5.77238 -1.09865 0
M  V30 1473 H 129.327 -5.75833 -2.03098 0
M  V30 1474 H 130.741 -5.72796 0.240257 0
M  V30 1475 H 129.138 -5.91559 1.00888 0
M  V30 1476 H 130.208 -4.60144 1.52957 0
M  V30 1477 N 131.551 -0.354651 -1.53558 0
M  V30 1478 C 132.8 0.239504 -2.00273 0
M  V30 1479 C 133.113 1.50759 -1.24623 0
M  V30 1480 O 134.319 2.17968 -1.61871 0
M  V30 1481 C 132.775 0.477341 -3.5672 0
M  V30 1482 C 132.383 -0.775488 -4.41237 0
M  V30 1483 C 134.127 1.02975 -4.11821 0
M  V30 1484 C 132.034 -0.507838 -5.89216 0
M  V30 1485 H 130.964 0.0932743 -0.748208 0
M  V30 1486 H 133.615 -0.471701 -1.77334 0
M  V30 1487 H 131.997 1.24953 -3.7577 0
M  V30 1488 H 133.171 -1.54963 -4.33962 0
M  V30 1489 H 131.486 -1.25033 -3.97185 0
M  V30 1490 H 134.083 1.24513 -5.2 0
M  V30 1491 H 134.426 1.98862 -3.65731 0
M  V30 1492 H 134.959 0.317994 -3.96527 0
M  V30 1493 H 131.698 -1.43674 -6.39561 0
M  V30 1494 H 131.218 0.228011 -5.99366 0
M  V30 1495 H 132.897 -0.129238 -6.46871 0
M  V30 1496 N 133.029 1.57378 -0.0835403 0
M  V30 1497 C 133.959 2.1641 0.87686 0
M  V30 1498 C 134.94 1.09429 1.30228 0
M  V30 1499 O 136.125 1.37516 1.37124 0
M  V30 1500 C 133.255 2.73517 2.14022 0
M  V30 1501 C 132.209 3.85769 1.85381 0
M  V30 1502 C 131.535 4.29529 3.18448 0
M  V30 1503 C 132.835 5.09486 1.14984 0
M  V30 1504 H 134.529 2.96914 0.385059 0
M  V30 1505 H 132.075 1.42823 0.18377 0
M  V30 1506 H 134.028 3.13463 2.81636 0
M  V30 1507 H 132.752 1.90252 2.65465 0
M  V30 1508 H 131.411 3.46345 1.20169 0
M  V30 1509 H 131.059 3.43169 3.67755 0
M  V30 1510 H 130.759 5.05204 3.00071 0
M  V30 1511 H 132.283 4.72099 3.8724 0
M  V30 1512 H 133.697 5.46674 1.72687 0
M  V30 1513 H 132.094 5.90515 1.06826 0
M  V30 1514 H 133.164 4.84724 0.130749 0
M  V30 1515 N 134.507 -0.190092 1.56449 0
M  V30 1516 C 135.417 -1.25591 1.98152 0
M  V30 1517 C 136.433 -1.49519 0.889944 0
M  V30 1518 O 137.609 -1.62036 1.19609 0
M  V30 1519 C 134.674 -2.57916 2.3169 0
M  V30 1520 C 133.735 -2.42015 3.5458 0
M  V30 1521 C 132.968 -3.6803 3.8651 0
M  V30 1522 O 133.191 -4.72413 3.1966 0
M  V30 1523 O 132.125 -3.6326 4.79923 0
M  V30 1524 H 135.951 -0.931988 2.89046 0
M  V30 1525 H 133.536 -0.395488 1.4407 0
M  V30 1526 H 135.418 -3.36008 2.54316 0
M  V30 1527 H 134.093 -2.89925 1.43963 0
M  V30 1528 H 133 -1.62017 3.37196 0
M  V30 1529 H 134.333 -2.14937 4.4279 0
M  V30 1530 N 135.985 -1.50799 -0.457987 0
M  V30 1531 C 136.933 -1.71162 -1.575 0
M  V30 1532 C 137.927 -0.577592 -1.59249 0
M  V30 1533 O 139.133 -0.758443 -1.63241 0
M  V30 1534 H 135.508 -0.540468 -0.522875 0
M  V30 1535 H 137.479 -2.64837 -1.37492 0
M  V30 1536 C 136.228 -1.83496 -2.95338 0
M  V30 1537 H 135.551 -2.70153 -2.94716 0
M  V30 1538 H 136.991 -2.01765 -3.72917 0
M  V30 1539 C 135.45 -0.589694 -3.31699 0
M  V30 1540 O 135.98 0.265163 -4.00824 0
M  V30 1541 N 134.186 -0.439845 -2.87252 0
M  V30 1542 H 133.733 -1.13655 -2.31172 0
M  V30 1543 H 133.691 0.392159 -3.11945 0
M  V30 1544 N 137.463 0.71206 -1.40597 0
M  V30 1545 C 138.413 1.81783 -1.37619 0
M  V30 1546 C 139.397 1.58896 -0.253162 0
M  V30 1547 O 140.589 1.70009 -0.492547 0
M  V30 1548 C 137.718 3.19944 -1.24462 0
M  V30 1549 C 136.804 3.48582 -2.4156 0
M  V30 1550 N 137.195 3.48016 -3.67041 0
M  V30 1551 C 135.493 3.79056 -2.35016 0
M  V30 1552 C 136.194 3.75096 -4.44609 0
M  V30 1553 N 135.17 3.94022 -3.74497 0
M  V30 1554 H 138.972 1.79683 -2.32575 0
M  V30 1555 H 136.486 0.91134 -1.34419 0
M  V30 1556 H 138.483 3.99133 -1.20411 0
M  V30 1557 H 137.143 3.23267 -0.304762 0
M  V30 1558 H 138.154 3.28782 -4.00153 0
M  V30 1559 H 134.831 3.89848 -1.49415 0
M  V30 1560 H 136.221 3.80934 -5.53479 0
M  V30 1561 N 138.941 1.26152 0.944643 0
M  V30 1562 C 140.171 1.14094 1.72239 0
M  V30 1563 C 140.579 -0.306931 1.86694 0
M  V30 1564 O 139.922 -1.22222 1.3714 0
M  V30 1565 C 139.984 1.73316 3.14963 0
M  V30 1566 C 139.648 3.2239 3.23904 0
M  V30 1567 C 140.645 4.19252 3.07447 0
M  V30 1568 C 138.33 3.62788 3.47405 0
M  V30 1569 C 140.324 5.54491 3.14353 0
M  V30 1570 C 138.011 4.98162 3.53947 0
M  V30 1571 C 139.009 5.93823 3.37436 0
M  V30 1572 O 138.697 7.26732 3.43679 0
M  V30 1573 H 138.429 0.398292 0.546205 0
M  V30 1574 H 140.983 1.67201 1.19301 0
M  V30 1575 H 139.213 1.14667 3.69308 0
M  V30 1576 H 140.902 1.56214 3.74636 0
M  V30 1577 H 141.668 3.8938 2.8915 0
M  V30 1578 H 137.547 2.88816 3.59313 0
M  V30 1579 H 141.091 6.29137 3.01384 0
M  V30 1580 H 136.988 5.27695 3.71763 0
M  V30 1581 H 137.756 7.3496 3.60245 0
M  V30 1582 N 140.419 -1.14872 1.07899 0
M  V30 1583 C 141.367 -2.21857 0.698727 0
M  V30 1584 C 142.361 -1.66845 -0.293086 0
M  V30 1585 O 143.567 -1.79321 -0.156204 0
M  V30 1586 H 139.942 -0.722691 0.207899 0
M  V30 1587 H 141.913 -2.51205 1.61054 0
M  V30 1588 C 140.662 -3.47498 0.11858 0
M  V30 1589 H 139.985 -3.90154 0.872914 0
M  V30 1590 H 141.425 -4.23858 -0.109759 0
M  V30 1591 C 139.884 -3.16947 -1.1422 0
M  V30 1592 O 140.414 -3.3426 -2.22785 0
M  V30 1593 N 138.62 -2.70946 -1.05055 0
M  V30 1594 H 138.167 -2.57058 -0.167038 0
M  V30 1595 H 138.125 -2.50879 -1.89491 0
M  V30 1596 N 141.898 -0.863906 -1.31812 0
M  V30 1597 C 143.126 -0.486111 -2.01108 0
M  V30 1598 C 143.541 0.919755 -1.64882 0
M  V30 1599 O 142.898 1.60162 -0.874893 0
M  V30 1600 C 142.949 -0.626435 -3.56031 0
M  V30 1601 O 142.67 -1.97693 -3.90959 0
M  V30 1602 C 144.171 -0.248857 -4.42601 0
M  V30 1603 H 141.391 -0.190052 -0.643523 0
M  V30 1604 H 143.935 -1.1634 -1.68182 0
M  V30 1605 H 142.09 0.00322717 -3.874 0
M  V30 1606 H 142.504 -1.98034 -4.85678 0
M  V30 1607 H 143.978 -0.398016 -5.50563 0
M  V30 1608 H 144.455 0.811489 -4.31638 0
M  V30 1609 H 145.061 -0.853971 -4.16638 0
M  V30 1610 N 143.376 1.44774 -0.622745 0
M  V30 1611 C 144.606 2.06187 -0.130532 0
M  V30 1612 C 145.014 1.46547 1.19669 0
M  V30 1613 O 144.357 0.579636 1.74316 0
M  V30 1614 C 144.419 3.59437 0.0674983 0
M  V30 1615 C 144.083 4.41496 -1.18026 0
M  V30 1616 C 145.08 4.75512 -2.102 0
M  V30 1617 C 142.765 4.82007 -1.41333 0
M  V30 1618 C 144.759 5.48912 -3.23998 0
M  V30 1619 C 142.446 5.55157 -2.55429 0
M  V30 1620 C 143.444 5.88528 -3.46589 0
M  V30 1621 O 143.132 6.60191 -4.58697 0
M  V30 1622 H 142.864 0.672045 -0.0730162 0
M  V30 1623 H 145.418 1.86768 -0.854802 0
M  V30 1624 H 143.648 3.77314 0.846825 0
M  V30 1625 H 145.337 4.02642 0.513209 0
M  V30 1626 H 146.103 4.4476 -1.93425 0
M  V30 1627 H 141.982 4.55457 -0.712709 0
M  V30 1628 H 145.526 5.74877 -3.95174 0
M  V30 1629 H 141.423 5.85324 -2.72151 0
M  V30 1630 H 142.191 6.78654 -4.57571 0
M  V30 1631 N 144.854 0.36279 1.53368 0
M  V30 1632 C 145.817 -0.472679 2.24273 0
M  V30 1633 C 146.817 -1.012 1.24961 0
M  V30 1634 O 148.007 -0.898194 1.49259 0
M  V30 1635 C 145.139 -1.66039 2.97731 0
M  V30 1636 H 146.332 0.14773 2.99536 0
M  V30 1637 H 143.885 0.114434 1.55881 0
M  V30 1638 H 144.62 -2.31896 2.26704 0
M  V30 1639 H 144.405 -1.28066 3.70596 0
M  V30 1640 H 145.895 -2.25252 3.51641 0
M  V30 1641 N 146.332 -1.57332 0.0918853 0
M  V30 1642 C 147.557 -1.98995 -0.584442 0
M  V30 1643 C 147.982 -0.970528 -1.61128 0
M  V30 1644 O 147.34 0.0613904 -1.81196 0
M  V30 1645 C 147.388 -3.39636 -1.21161 0
M  V30 1646 O 146.492 -3.40447 -2.32744 0
M  V30 1647 H 145.833 -0.647165 -0.148572 0
M  V30 1648 H 148.363 -2.03873 0.172347 0
M  V30 1649 H 148.373 -3.7726 -1.55367 0
M  V30 1650 H 147.048 -4.13356 -0.459313 0
M  V30 1651 H 145.625 -3.14614 -2.0018 0
M  V30 1652 N 147.81 0.181792 -1.56548 0
M  V30 1653 C 148.773 1.20894 -1.94724 0
M  V30 1654 C 149.773 1.37738 -0.829747 0
M  V30 1655 O 150.963 1.35323 -1.09697 0
M  V30 1656 C 148.095 2.57593 -2.23291 0
M  V30 1657 H 149.288 0.882275 -2.86629 0
M  V30 1658 H 146.841 0.423838 -1.50444 0
M  V30 1659 H 147.576 2.95291 -1.34067 0
M  V30 1660 H 147.361 2.46735 -3.04736 0
M  V30 1661 H 148.851 3.31637 -2.53785 0
M  V30 1662 N 149.288 1.51039 0.449983 0
M  V30 1663 C 150.235 1.71439 1.54523 0
M  V30 1664 C 151.205 0.555871 1.56522 0
M  V30 1665 O 152.39 0.788871 1.73728 0
M  V30 1666 C 149.53 1.83384 2.92343 0
M  V30 1667 C 148.643 3.10873 2.9997 0
M  V30 1668 C 147.778 3.13488 4.28834 0
M  V30 1669 C 146.817 4.35343 4.30282 0
M  V30 1670 N 145.954 4.35579 5.5065 0
M  V30 1671 H 150.794 2.64934 1.36433 0
M  V30 1672 H 148.331 1.31312 0.662982 0
M  V30 1673 H 150.289 1.88291 3.72293 0
M  V30 1674 H 148.919 0.933086 3.0902 0
M  V30 1675 H 147.971 3.15336 2.12761 0
M  V30 1676 H 149.283 4.00814 2.96901 0
M  V30 1677 H 148.437 3.17241 5.17149 0
M  V30 1678 H 147.176 2.21414 4.34543 0
M  V30 1679 H 146.181 4.3178 3.40362 0
M  V30 1680 H 147.406 5.28668 4.26248 0
M  V30 1681 H 145.352 3.46369 5.57104 0
M  V30 1682 H 145.269 5.19313 5.49409 0
M  V30 1683 H 146.537 4.43507 6.41032 0
M  V30 1684 N 150.766 -0.704594 1.40972 0
M  V30 1685 C 152.012 -1.46546 1.41053 0
M  V30 1686 C 152.367 -1.92393 0.0159714 0
M  V30 1687 O 151.66 -1.66017 -0.956506 0
M  V30 1688 C 151.854 -2.698 2.34399 0
M  V30 1689 C 151.683 -2.36008 3.82793 0
M  V30 1690 C 150.453 -2.26812 4.51536 0
M  V30 1691 C 152.651 -1.99565 4.74003 0
M  V30 1692 N 150.633 -1.8581 5.85105 0
M  V30 1693 C 152.004 -1.69251 5.96451 0
M  V30 1694 C 154.059 -1.86296 4.61734 0
M  V30 1695 C 152.762 -1.27003 7.07999 0
M  V30 1696 C 154.788 -1.45452 5.73234 0
M  V30 1697 C 154.15 -1.16043 6.94776 0
M  V30 1698 H 150.249 -0.533896 0.571383 0
M  V30 1699 H 152.833 -0.816061 1.76773 0
M  V30 1700 H 151.004 -3.32473 2.00789 0
M  V30 1701 H 152.736 -3.36214 2.25261 0
M  V30 1702 H 149.491 -2.44913 4.05357 0
M  V30 1703 H 149.915 -1.67817 6.55871 0
M  V30 1704 H 154.557 -2.0769 3.68273 0
M  V30 1705 H 152.275 -1.04353 8.01334 0
M  V30 1706 H 155.861 -1.35748 5.65742 0
M  V30 1707 H 154.741 -0.84915 7.79589 0
M  V30 1708 N 152.244 -1.26651 -0.937939 0
M  V30 1709 C 153.472 -1.15173 -1.7188 0
M  V30 1710 C 153.887 0.292668 -1.86518 0
M  V30 1711 O 153.244 1.20014 -1.37488 0
M  V30 1712 C 153.295 -1.81925 -3.12387 0
M  V30 1713 O 153.016 -3.2072 -2.98446 0
M  V30 1714 C 154.517 -1.76442 -4.06673 0
M  V30 1715 H 151.737 -0.400911 -0.538063 0
M  V30 1716 H 154.281 -1.67332 -1.1756 0
M  V30 1717 H 152.436 -1.33696 -3.63599 0
M  V30 1718 H 152.85 -3.53802 -3.872 0
M  V30 1719 H 154.324 -2.27781 -5.02812 0
M  V30 1720 H 154.801 -0.731608 -4.33064 0
M  V30 1721 H 155.407 -2.24238 -3.61382 0
M  V30 1722 N 153.722 1.14298 -1.08507 0
M  V30 1723 C 154.672 2.17449 -0.685569 0
M  V30 1724 C 155.656 1.58167 0.295315 0
M  V30 1725 O 156.848 1.76675 0.107172 0
M  V30 1726 C 153.977 3.43161 -0.0975318 0
M  V30 1727 C 153.063 4.09471 -1.10426 0
M  V30 1728 N 153.454 4.51089 -2.28806 0
M  V30 1729 C 151.752 4.35976 -0.940258 0
M  V30 1730 C 152.453 5.02654 -2.9277 0
M  V30 1731 N 151.429 4.96927 -2.20374 0
M  V30 1732 H 155.231 2.47369 -1.587 0
M  V30 1733 H 152.745 1.30992 -0.959936 0
M  V30 1734 H 154.742 4.16388 0.20664 0
M  V30 1735 H 153.402 3.14719 0.798872 0
M  V30 1736 H 154.413 4.44097 -2.66455 0
M  V30 1737 H 151.09 4.17386 -0.0977441 0
M  V30 1738 H 152.48 5.44723 -3.93352 0
M  V30 1739 N 155.201 0.870884 1.31352 0
M  V30 1740 C 156.149 0.316445 2.30437 0
M  V30 1741 C 157.143 -0.568965 1.59559 0
M  V30 1742 O 158.349 -0.454964 1.74155 0
M  V30 1743 H 154.724 0.0836521 0.747333 0
M  V30 1744 H 156.695 1.16606 2.74673 0
M  V30 1745 C 155.444 -0.46635 3.44558 0
M  V30 1746 H 154.767 0.205687 3.99271 0
M  V30 1747 H 156.207 -0.819614 4.16003 0
M  V30 1748 C 154.666 -1.65797 2.9328 0
M  V30 1749 O 155.196 -2.75728 2.92125 0
M  V30 1750 N 153.402 -1.49041 2.4947 0
M  V30 1751 H 152.949 -0.59612 2.50608 0
M  V30 1752 H 152.907 -2.28911 2.15516 0
M  V30 1753 N 156.679 -1.44442 0.630414 0
M  V30 1754 C 157.927 -2.01653 0.134351 0
M  V30 1755 C 158.248 -1.49836 -1.24796 0
M  V30 1756 O 157.518 -0.701684 -1.82902 0
M  V30 1757 H 156.098 -0.74554 0.0466769 0
M  V30 1758 H 158.76 -1.76952 0.816955 0
M  V30 1759 H 157.856 -3.11935 0.101498 0
M  V30 1760 N 158.157 -0.370918 -1.53173 0
M  V30 1761 C 159.405 0.216673 -2.00935 0
M  V30 1762 C 159.726 1.48845 -1.25977 0
M  V30 1763 O 158.996 1.92286 -0.374551 0
M  V30 1764 H 157.576 0.0830565 -0.742368 0
M  V30 1765 H 160.238 -0.49838 -1.8842 0
M  V30 1766 H 159.334 0.439893 -3.08984 0
M  V30 1767 N 159.635 1.57281 -0.100228 0
M  V30 1768 C 160.545 2.17833 0.870965 0
M  V30 1769 C 161.561 1.14921 1.30649 0
M  V30 1770 O 162.737 1.47313 1.37335 0
M  V30 1771 C 159.802 2.75085 2.1102 0
M  V30 1772 C 158.863 3.9297 1.72838 0
M  V30 1773 C 158.096 4.47482 2.90854 0
M  V30 1774 O 158.319 4.00922 4.05731 0
M  V30 1775 O 157.253 5.38433 2.69023 0
M  V30 1776 H 161.079 3.0124 0.38575 0
M  V30 1777 H 158.664 1.48881 0.124397 0
M  V30 1778 H 160.546 3.11656 2.83634 0
M  V30 1779 H 159.221 1.94721 2.58584 0
M  V30 1780 H 158.128 3.61201 0.973883 0
M  V30 1781 H 159.461 4.74713 1.30033 0
M  V30 1782 N 161.113 -0.173488 1.56642 0
M  V30 1783 C 162.046 -1.24353 1.91342 0
M  V30 1784 C 163.024 -1.4289 0.775965 0
M  V30 1785 O 164.208 -1.57932 1.02907 0
M  V30 1786 C 161.335 -2.60683 2.16245 0
M  V30 1787 C 160.381 -2.58894 3.38934 0
M  V30 1788 S 161.214 -2.0819 4.93373 0
M  V30 1789 C 162.37 -3.46302 5.21369 0
M  V30 1790 H 162.603 -0.947345 2.81803 0
M  V30 1791 H 160.136 -0.377958 1.49703 0
M  V30 1792 H 162.094 -3.39149 2.31275 0
M  V30 1793 H 160.755 -2.87502 1.26496 0
M  V30 1794 H 159.948 -3.59188 3.53553 0
M  V30 1795 H 159.55 -1.88522 3.2301 0
M  V30 1796 H 161.842 -4.42287 5.13214 0
M  V30 1797 H 162.785 -3.3656 6.23003 0
M  V30 1798 H 163.193 -3.42214 4.48943 0
M  V30 1799 N 162.591 -1.51276 -0.441967 0
M  V30 1800 C 163.838 -1.63715 -1.19179 0
M  V30 1801 C 164.166 -0.351175 -1.91303 0
M  V30 1802 O 163.421 0.664524 -1.84072 0
M  V30 1803 C 163.72 -2.78746 -2.23686 0
M  V30 1804 C 163.386 -4.18189 -1.68607 0
M  V30 1805 C 162.048 -4.56125 -1.53308 0
M  V30 1806 C 164.4 -5.05222 -1.28062 0
M  V30 1807 C 161.728 -5.78804 -0.959317 0
M  V30 1808 C 164.08 -6.28476 -0.721162 0
M  V30 1809 C 162.744 -6.65188 -0.55504 0
M  V30 1810 H 162.014 -0.599076 -0.436106 0
M  V30 1811 H 164.661 -1.85296 -0.48351 0
M  V30 1812 H 162.966 -2.51369 -3.00535 0
M  V30 1813 H 164.663 -2.8557 -2.81515 0
M  V30 1814 H 161.253 -3.88277 -1.8149 0
M  V30 1815 H 165.437 -4.76524 -1.38704 0
M  V30 1816 H 160.693 -6.05899 -0.81833 0
M  V30 1817 H 164.867 -6.95259 -0.398458 0
M  V30 1818 H 162.494 -7.60123 -0.108311 0
M  V30 1819 N 164.069 0.697108 -1.41344 0
M  V30 1820 C 165.315 1.4593 -1.40827 0
M  V30 1821 C 165.648 1.94193 -0.0167098 0
M  V30 1822 O 164.923 1.69425 0.955263 0
M  V30 1823 C 165.206 2.67229 -2.41373 0
M  V30 1824 C 165.059 2.24741 -3.8963 0
M  V30 1825 C 166.378 3.69423 -2.39196 0
M  V30 1826 H 163.497 0.529303 -0.512842 0
M  V30 1827 H 166.139 0.794112 -1.72609 0
M  V30 1828 H 164.289 3.23982 -2.14401 0
M  V30 1829 H 165.961 1.73327 -4.27499 0
M  V30 1830 H 164.204 1.56542 -4.0457 0
M  V30 1831 H 164.875 3.1177 -4.55525 0
M  V30 1832 H 167.351 3.2234 -2.63128 0
M  V30 1833 H 166.227 4.51907 -3.11563 0
M  V30 1834 H 166.488 4.19012 -1.41001 0
M  V30 1835 N 165.547 1.27147 0.931209 0
M  V30 1836 C 166.51 1.09615 2.01289 0
M  V30 1837 C 167.51 0.0412581 1.60747 0
M  V30 1838 O 168.7 0.285545 1.71844 0
M  V30 1839 C 165.832 0.669447 3.34262 0
M  V30 1840 H 167.025 2.05662 2.18273 0
M  V30 1841 H 164.578 1.09885 1.11153 0
M  V30 1842 H 165.313 -0.292572 3.22978 0
M  V30 1843 H 165.098 1.43127 3.65044 0
M  V30 1844 H 166.588 0.568921 4.13706 0
M  V30 1845 N 167.025 -1.13721 1.09112 0
M  V30 1846 C 167.955 -2.21148 0.749385 0
M  V30 1847 C 168.936 -1.6792 -0.271475 0
M  V30 1848 O 170.121 -1.93693 -0.140251 0
M  V30 1849 C 167.251 -3.46905 0.165659 0
M  V30 1850 C 166.205 -4.13203 1.11567 0
M  V30 1851 C 165.531 -5.33248 0.393809 0
M  V30 1852 C 166.831 -4.60912 2.45678 0
M  V30 1853 H 168.525 -2.4999 1.64758 0
M  V30 1854 H 166.071 -1.20156 0.793626 0
M  V30 1855 H 168.024 -4.21313 -0.085466 0
M  V30 1856 H 166.748 -3.17449 -0.767714 0
M  V30 1857 H 165.407 -3.40758 1.35202 0
M  V30 1858 H 165.055 -5.00054 -0.543599 0
M  V30 1859 H 164.755 -5.78552 1.02721 0
M  V30 1860 H 166.279 -6.10413 0.150908 0
M  V30 1861 H 167.693 -5.26759 2.26269 0
M  V30 1862 H 166.09 -5.16944 3.04776 0
M  V30 1863 H 167.16 -3.75603 3.06677 0
M  V30 1864 N 168.503 -0.877838 -1.30888 0
M  V30 1865 C 169.451 -0.328662 -2.30266 0
M  V30 1866 C 170.445 0.560496 -1.59859 0
M  V30 1867 O 171.651 0.445722 -1.74394 0
M  V30 1868 H 168.026 -0.0876142 -0.746879 0
M  V30 1869 H 169.997 -1.18061 -2.74051 0
M  V30 1870 C 168.746 0.448071 -3.44801 0
M  V30 1871 H 168.069 -0.226859 -3.99156 0
M  V30 1872 H 169.509 0.797541 -4.16432 0
M  V30 1873 C 167.968 1.64239 -2.94155 0
M  V30 1874 O 168.498 2.74175 -2.93583 0
M  V30 1875 N 166.704 1.47716 -2.50256 0
M  V30 1876 H 166.251 0.582821 -2.5092 0
M  V30 1877 H 166.209 2.27765 -2.16727 0
M  V30 1878 N 169.982 1.44106 -0.638065 0
M  V30 1879 C 170.914 2.28976 0.101205 0
M  V30 1880 C 171.927 1.4167 0.802088 0
M  V30 1881 O 173.116 1.65755 0.662375 0
M  V30 1882 C 170.216 3.18217 1.16581 0
M  V30 1883 C 169.389 4.33978 0.546066 0
M  V30 1884 C 168.448 5.04202 1.50554 0
M  V30 1885 O 167.474 5.59986 1.01999 0
M  V30 1886 N 168.676 5.06296 2.8398 0
M  V30 1887 H 171.441 2.93064 -0.627186 0
M  V30 1888 H 169.002 1.54629 -0.479731 0
M  V30 1889 H 170.994 3.62061 1.80815 0
M  V30 1890 H 169.564 2.55833 1.79634 0
M  V30 1891 H 168.784 3.93239 -0.275046 0
M  V30 1892 H 170.072 5.08675 0.112793 0
M  V30 1893 H 169.47 4.62319 3.26002 0
M  V30 1894 H 168.027 5.53907 3.43556 0
M  V30 1895 N 171.46 0.379036 1.52974 0
M  V30 1896 C 172.407 -0.461048 2.26148 0
M  V30 1897 C 173.377 -1.06637 1.27349 0
M  V30 1898 O 174.562 -1.09633 1.56157 0
M  V30 1899 C 171.702 -1.58782 3.06402 0
M  V30 1900 C 170.815 -1.00636 4.20115 0
M  V30 1901 C 169.95 -2.10334 4.87784 0
M  V30 1902 C 168.989 -1.49724 5.93506 0
M  V30 1903 N 168.126 -2.5331 6.54812 0
M  V30 1904 H 172.966 0.169429 2.97518 0
M  V30 1905 H 170.503 0.0953806 1.4679 0
M  V30 1906 H 172.461 -2.25174 3.51215 0
M  V30 1907 H 171.091 -2.18876 2.37261 0
M  V30 1908 H 170.143 -0.232332 3.7969 0
M  V30 1909 H 171.455 -0.523343 4.96047 0
M  V30 1910 H 170.609 -2.84519 5.35849 0
M  V30 1911 H 169.348 -2.61992 4.11353 0
M  V30 1912 H 168.353 -0.740598 5.44789 0
M  V30 1913 H 169.578 -0.988732 6.71864 0
M  V30 1914 H 167.524 -3.04156 5.81227 0
M  V30 1915 H 167.441 -2.09734 7.26325 0
M  V30 1916 H 168.709 -3.27155 7.07524 0
M  V30 1917 N 172.938 -1.57226 0.108567 0
M  V30 1918 C 174.186 -1.94448 -0.550853 0
M  V30 1919 C 174.507 -0.992074 -1.67878 0
M  V30 1920 O 173.777 -0.0465 -1.95845 0
M  V30 1921 H 172.357 -0.717897 -0.206479 0
M  V30 1922 H 175.019 -1.94112 0.175062 0
M  V30 1923 H 174.115 -2.97218 -0.952259 0
M  V30 1924 N 174.416 0.165178 -1.56732 0
M  V30 1925 C 175.665 0.879143 -1.81532 0
M  V30 1926 C 175.978 1.83144 -0.686842 0
M  V30 1927 O 177.184 2.58823 -0.819944 0
M  V30 1928 C 175.64 1.61388 -3.21686 0
M  V30 1929 C 175.248 0.704904 -4.4242 0
M  V30 1930 C 176.992 2.3157 -3.55774 0
M  V30 1931 C 174.899 1.44022 -5.73595 0
M  V30 1932 H 173.829 0.332033 -0.676957 0
M  V30 1933 H 176.48 0.132008 -1.83025 0
M  V30 1934 H 174.862 2.40599 -3.14529 0
M  V30 1935 H 176.036 -0.0506815 -4.60772 0
M  V30 1936 H 174.351 0.112419 -4.16248 0
M  V30 1937 H 176.948 2.8719 -4.51028 0
M  V30 1938 H 177.291 3.07201 -2.8095 0
M  V30 1939 H 177.824 1.59297 -3.64513 0
M  V30 1940 H 174.563 0.72612 -6.51466 0
M  V30 1941 H 174.083 2.16898 -5.5921 0
M  V30 1942 H 175.762 1.98606 -6.15764 0
M  V30 1943 N 175.894 1.51508 0.433938 0
M  V30 1944 C 177.305 1.56784 1.01369 0
M  V30 1945 C 177.656 0.393349 1.92217 0
M  V30 1946 O 176.781 -0.489441 2.10792 0
M  V30 1947 C 177.376 2.84144 1.8452 0
M  V30 1948 C 175.935 2.9198 2.37539 0
M  V30 1949 C 175.082 2.51482 1.16843 0
M  V30 1950 H 178.033 1.57236 0.215081 0
M  V30 1951 H 178.054 2.68098 2.70007 0
M  V30 1952 H 177.566 3.69607 1.18373 0
M  V30 1953 H 175.667 2.10955 3.0713 0
M  V30 1954 H 175.78 3.95704 2.70103 0
M  V30 1955 H 174.144 2.04758 1.51481 0
M  V30 1956 H 174.927 3.39293 0.523015 0
M  V30 1957 N 177.372 -0.689602 1.41712 0
M  V30 1958 C 178.618 -1.45181 1.41599 0
M  V30 1959 C 178.951 -1.94181 0.0270081 0
M  V30 1960 O 178.226 -1.6993 -0.946265 0
M  V30 1961 C 178.509 -2.65945 2.42787 0
M  V30 1962 C 178.362 -2.22672 3.90816 0
M  V30 1963 C 179.681 -3.68149 2.41151 0
M  V30 1964 H 176.8 -0.526576 0.515642 0
M  V30 1965 H 179.442 -0.784947 1.73028 0
M  V30 1966 H 177.592 -3.2284 2.16116 0
M  V30 1967 H 179.264 -1.71058 4.28412 0
M  V30 1968 H 177.507 -1.54394 4.05395 0
M  V30 1969 H 178.178 -3.0935 4.57172 0
M  V30 1970 H 180.654 -3.2094 2.64834 0
M  V30 1971 H 179.53 -4.50248 3.13955 0
M  V30 1972 H 179.791 -4.18259 1.43221 0
M  V30 1973 N 178.85 -1.27639 -0.924453 0
M  V30 1974 C 180.266 -1.05113 -1.20097 0
M  V30 1975 C 180.466 0.213262 -2.00368 0
M  V30 1976 O 179.522 0.91787 -2.35226 0
M  V30 1977 C 180.835 -2.29244 -1.94596 0
M  V30 1978 C 182.383 -2.34315 -2.07522 0
M  V30 1979 C 182.858 -3.58183 -2.85427 0
M  V30 1980 N 184.349 -3.5876 -2.92994 0
M  V30 1981 C 185.084 -4.51277 -3.53746 0
M  V30 1982 N 184.58 -5.54102 -4.15863 0
M  V30 1983 N 186.373 -4.38894 -3.51181 0
M  V30 1984 H 178.524 -2.08821 -0.388264 0
M  V30 1985 H 180.787 -0.918568 -0.234385 0
M  V30 1986 H 180.493 -3.21301 -1.43034 0
M  V30 1987 H 180.367 -2.34816 -2.95197 0
M  V30 1988 H 182.754 -1.42762 -2.58269 0
M  V30 1989 H 182.835 -2.32744 -1.06131 0
M  V30 1990 H 182.479 -4.50074 -2.35363 0
M  V30 1991 H 182.409 -3.57006 -3.8711 0
M  V30 1992 H 184.9 -2.84398 -2.4885 0
M  V30 1993 H 185.213 -6.20859 -4.60168 0
M  V30 1994 H 183.558 -5.57941 -4.144 0
M  V30 1995 H 186.749 -3.57772 -3.01856 0
M  V30 1996 H 186.922 -5.11186 -3.98237 0
M  V30 1997 N 180.328 1.1314 -1.09713 0
M  V30 1998 C 181.576 1.84119 -0.833338 0
M  V30 1999 C 181.897 1.84097 0.642904 0
M  V30 2000 O 181.167 1.29881 1.46655 0
M  V30 2001 H 179.747 0.681766 -0.305293 0
M  V30 2002 H 182.409 1.37038 -1.38588 0
M  V30 2003 H 181.505 2.88543 -1.18951 0
M  V30 2004 N 181.806 0.884767 1.30421 0
M  V30 2005 C 182.753 0.349642 2.28136 0
M  V30 2006 C 183.723 -0.560061 1.56373 0
M  V30 2007 O 184.908 -0.488524 1.8444 0
M  V30 2008 C 182.048 -0.42999 3.42411 0
M  V30 2009 C 181.161 0.508907 4.28992 0
M  V30 2010 C 180.296 -0.286301 5.30428 0
M  V30 2011 C 179.335 0.648079 6.08659 0
M  V30 2012 N 178.472 -0.111792 7.02011 0
M  V30 2013 H 183.312 1.18807 2.73293 0
M  V30 2014 H 180.849 0.597231 1.3443 0
M  V30 2015 H 182.807 -0.897923 4.07423 0
M  V30 2016 H 181.437 -1.23299 2.98324 0
M  V30 2017 H 180.489 1.09533 3.64289 0
M  V30 2018 H 181.801 1.22475 4.8353 0
M  V30 2019 H 180.955 -0.816098 6.01186 0
M  V30 2020 H 179.694 -1.03536 4.76583 0
M  V30 2021 H 178.699 1.18951 5.36778 0
M  V30 2022 H 179.924 1.39623 6.64592 0
M  V30 2023 H 177.87 -0.843395 6.50556 0
M  V30 2024 H 177.787 0.544429 7.54037 0
M  V30 2025 H 179.055 -0.622339 7.77012 0
M  V30 2026 N 183.284 -1.43765 0.645699 0
M  V30 2027 C 184.231 -2.30745 -0.0504648 0
M  V30 2028 C 185.201 -1.4432 -0.822241 0
M  V30 2029 O 186.386 -1.73202 -0.800358 0
M  V30 2030 C 183.526 -3.29802 -1.0161 0
M  V30 2031 C 182.639 -4.31326 -0.241219 0
M  V30 2032 C 181.774 -5.17469 -1.19998 0
M  V30 2033 C 180.813 -6.10691 -0.415094 0
M  V30 2034 N 179.95 -6.89483 -1.32506 0
M  V30 2035 H 184.79 -2.8973 0.697155 0
M  V30 2036 H 182.327 -1.42738 0.355563 0
M  V30 2037 H 184.285 -3.85734 -1.58949 0
M  V30 2038 H 182.915 -2.72483 -1.73069 0
M  V30 2039 H 181.967 -3.77749 0.448334 0
M  V30 2040 H 183.279 -4.9743 0.369437 0
M  V30 2041 H 182.433 -5.7799 -1.84424 0
M  V30 2042 H 181.172 -4.51473 -1.84455 0
M  V30 2043 H 180.177 -5.49265 0.242565 0
M  V30 2044 H 181.402 -6.78727 0.224966 0
M  V30 2045 H 179.348 -6.26142 -1.95657 0
M  V30 2046 H 179.265 -7.52081 -0.768783 0
M  V30 2047 H 180.533 -7.54516 -1.9577 0
M  V30 2048 N 184.763 -0.387143 -1.52771 0
M  V30 2049 C 185.991 0.195869 -2.05971 0
M  V30 2050 C 186.406 1.40691 -1.25903 0
M  V30 2051 O 185.763 1.79931 -0.305134 0
M  V30 2052 C 185.814 0.56812 -3.57008 0
M  V30 2053 O 185.535 -0.594803 -4.34043 0
M  V30 2054 C 187.036 1.20723 -4.26545 0
M  V30 2055 H 184.256 0.0300578 -0.670326 0
M  V30 2056 H 186.8 -0.551749 -1.96916 0
M  V30 2057 H 184.955 1.26564 -3.66143 0
M  V30 2058 H 185.369 -0.289322 -5.23701 0
M  V30 2059 H 186.843 1.41807 -5.33474 0
M  V30 2060 H 187.32 2.17395 -3.81623 0
M  V30 2061 H 187.926 0.550535 -4.21722 0
M  V30 2062 N 186.241 1.57166 -0.116904 0
M  V30 2063 C 187.188 2.15202 0.83408 0
M  V30 2064 C 188.158 1.07644 1.26499 0
M  V30 2065 O 189.343 1.35541 1.34288 0
M  V30 2066 C 186.483 2.75405 2.07957 0
M  V30 2067 C 185.596 3.97264 1.69721 0
M  V30 2068 C 184.731 4.45561 2.89221 0
M  V30 2069 C 183.77 5.59956 2.47215 0
M  V30 2070 N 182.907 6.03006 3.59622 0
M  V30 2071 H 187.747 2.96141 0.332335 0
M  V30 2072 H 185.284 1.46309 0.152349 0
M  V30 2073 H 187.242 3.08439 2.80929 0
M  V30 2074 H 185.872 1.97159 2.55594 0
M  V30 2075 H 184.924 3.70404 0.866316 0
M  V30 2076 H 186.236 4.80226 1.34849 0
M  V30 2077 H 185.39 4.80493 3.7042 0
M  V30 2078 H 184.129 3.61544 3.27318 0
M  V30 2079 H 183.134 5.2463 1.64448 0
M  V30 2080 H 184.359 6.45738 2.10238 0
M  V30 2081 H 182.305 5.21931 3.97396 0
M  V30 2082 H 182.222 6.80819 3.28667 0
M  V30 2083 H 183.49 6.42576 4.41267 0
M  V30 2084 N 187.719 -0.156864 1.56817 0
M  V30 2085 C 188.666 -1.19394 1.97519 0
M  V30 2086 C 189.636 -1.4322 0.841265 0
M  V30 2087 O 190.821 -1.55719 1.10255 0
M  V30 2088 C 187.961 -2.52483 2.35258 0
M  V30 2089 C 187.074 -2.35914 3.61896 0
M  V30 2090 C 186.209 -3.61969 3.88782 0
M  V30 2091 C 185.248 -3.40395 5.08722 0
M  V30 2092 N 184.385 -4.58556 5.31668 0
M  V30 2093 H 189.225 -0.839845 2.85921 0
M  V30 2094 H 186.762 -0.403264 1.41464 0
M  V30 2095 H 188.72 -3.30071 2.55165 0
M  V30 2096 H 187.35 -2.85859 1.49949 0
M  V30 2097 H 186.402 -1.49429 3.49821 0
M  V30 2098 H 187.714 -2.15926 4.49641 0
M  V30 2099 H 186.868 -4.47989 4.09135 0
M  V30 2100 H 185.607 -3.84951 2.9944 0
M  V30 2101 H 184.612 -2.52763 4.88253 0
M  V30 2102 H 185.837 -3.18822 5.99608 0
M  V30 2103 H 183.783 -4.81729 4.45279 0
M  V30 2104 H 183.7 -4.41535 6.13664 0
M  V30 2105 H 184.968 -5.45817 5.5651 0
M  V30 2106 N 189.197 -1.51736 -0.425897 0
M  V30 2107 C 190.107 -1.76738 -1.54275 0
M  V30 2108 C 191.123 -0.65211 -1.61318 0
M  V30 2109 O 192.299 -0.935654 -1.78346 0
M  V30 2110 C 189.364 -1.89755 -2.90162 0
M  V30 2111 C 188.425 -3.13633 -2.93143 0
M  V30 2112 C 187.658 -3.2602 -4.22548 0
M  V30 2113 O 187.881 -2.44067 -5.15546 0
M  V30 2114 O 186.815 -4.19071 -4.32046 0
M  V30 2115 H 190.641 -2.71502 -1.36089 0
M  V30 2116 H 188.226 -1.36376 -0.610069 0
M  V30 2117 H 190.108 -2.00236 -3.70788 0
M  V30 2118 H 188.783 -0.981785 -3.08452 0
M  V30 2119 H 187.69 -3.08622 -2.11431 0
M  V30 2120 H 189.023 -4.04936 -2.798 0
M  V30 2121 N 190.675 0.682077 -1.42076 0
M  V30 2122 C 191.607 1.80755 -1.40926 0
M  V30 2123 C 192.62 1.59833 -0.309398 0
M  V30 2124 O 193.809 1.69087 -0.572014 0
M  V30 2125 C 190.909 3.17744 -1.17865 0
M  V30 2126 C 190.082 3.65578 -2.40149 0
M  V30 2127 C 189.141 4.81277 -2.12742 0
M  V30 2128 O 188.167 4.92197 -2.85887 0
M  V30 2129 N 189.369 5.69474 -1.12602 0
M  V30 2130 H 192.134 1.82229 -2.37935 0
M  V30 2131 H 189.695 0.864903 -1.36861 0
M  V30 2132 H 191.687 3.9279 -0.9746 0
M  V30 2133 H 190.257 3.11214 -0.294068 0
M  V30 2134 H 189.477 2.81291 -2.76169 0
M  V30 2135 H 190.765 3.94278 -3.21593 0
M  V30 2136 H 190.163 5.63297 -0.520899 0
M  V30 2137 H 188.72 6.44363 -0.981842 0
M  V30 2138 N 192.153 1.28127 0.917671 0
M  V30 2139 C 193.1 1.11717 2.0196 0
M  V30 2140 C 194.07 0.0153929 1.66093 0
M  V30 2141 O 195.255 0.179596 1.89953 0
M  V30 2142 C 192.395 0.780927 3.36148 0
M  V30 2143 C 191.508 1.96135 3.84909 0
M  V30 2144 C 190.643 1.56609 5.0759 0
M  V30 2145 C 189.682 2.71339 5.48673 0
M  V30 2146 N 188.819 2.32332 6.62545 0
M  V30 2147 H 193.659 2.06003 2.15329 0
M  V30 2148 H 191.196 1.02535 1.05475 0
M  V30 2149 H 193.154 0.56675 4.13333 0
M  V30 2150 H 191.784 -0.124998 3.22558 0
M  V30 2151 H 190.836 2.28777 3.03916 0
M  V30 2152 H 192.148 2.82165 4.1132 0
M  V30 2153 H 191.302 1.31374 5.92305 0
M  V30 2154 H 190.041 0.677014 4.82978 0
M  V30 2155 H 189.046 2.97276 4.62501 0
M  V30 2156 H 190.271 3.60882 5.75274 0
M  V30 2157 H 188.217 1.45889 6.39572 0
M  V30 2158 H 188.134 3.11899 6.88662 0
M  V30 2159 H 189.402 2.10371 7.50576 0
M  V30 2160 N 193.631 -1.12557 1.10312 0
M  V30 2161 C 194.859 -1.87864 0.866873 0
M  V30 2162 C 195.274 -1.79588 -0.582557 0
M  V30 2163 O 194.631 -1.16887 -1.40156 0
M  V30 2164 C 194.682 -3.37125 1.30496 0
M  V30 2165 O 194.403 -3.45201 2.69755 0
M  V30 2166 C 195.904 -4.29373 1.10243 0
M  V30 2167 H 193.124 -0.594452 0.311236 0
M  V30 2168 H 195.668 -1.42429 1.46745 0
M  V30 2169 H 193.823 -3.80109 0.748081 0
M  V30 2170 H 194.237 -4.38056 2.88457 0
M  V30 2171 H 195.711 -5.32394 1.45811 0
M  V30 2172 H 196.188 -4.39181 0.0409492 0
M  V30 2173 H 196.794 -3.92169 1.64571 0
M  V30 2174 N 195.109 -0.891671 -1.2995 0
M  V30 2175 C 196.072 -0.36828 -2.26222 0
M  V30 2176 C 197.072 0.493014 -1.53056 0
M  V30 2177 O 198.262 0.299213 -1.71611 0
M  V30 2178 C 195.394 0.47442 -3.37583 0
M  V30 2179 H 196.587 -1.21844 -2.74033 0
M  V30 2180 H 194.14 -0.669107 -1.41254 0
M  V30 2181 H 194.875 1.34489 -2.95099 0
M  V30 2182 H 194.66 -0.142615 -3.91841 0
M  V30 2183 H 196.15 0.83218 -4.09224 0
M  V30 2184 N 196.587 1.43421 -0.653314 0
M  V30 2185 C 197.537 2.2792 0.060558 0
M  V30 2186 C 198.521 1.39906 0.794677 0
M  V30 2187 O 199.713 1.63536 0.677128 0
M  V30 2188 C 196.842 3.27603 1.0262 0
M  V30 2189 C 195.928 4.23104 0.290551 0
M  V30 2190 N 196.319 5.01031 -0.692967 0
M  V30 2191 C 194.617 4.42816 0.531984 0
M  V30 2192 C 195.318 5.70626 -1.12963 0
M  V30 2193 N 194.294 5.41617 -0.463867 0
M  V30 2194 H 198.096 2.85585 -0.694143 0
M  V30 2195 H 195.61 1.55126 -0.480602 0
M  V30 2196 H 197.607 3.86918 1.55242 0
M  V30 2197 H 196.267 2.71499 1.78096 0
M  V30 2198 H 197.278 5.0669 -1.07169 0
M  V30 2199 H 193.955 3.97782 1.26791 0
M  V30 2200 H 195.345 6.4318 -1.94343 0
M  V30 2201 N 198.065 0.39524 1.52563 0
M  V30 2202 C 199.312 -0.185044 2.01653 0
M  V30 2203 C 199.64 -1.46317 1.28146 0
M  V30 2204 O 198.895 -1.9213 0.372074 0
M  V30 2205 C 199.194 -0.493444 3.53977 0
M  V30 2206 C 198.86 0.69384 4.4553 0
M  V30 2207 C 197.522 1.01954 4.70275 0
M  V30 2208 C 199.874 1.48785 4.99512 0
M  V30 2209 C 197.202 2.14069 5.46252 0
M  V30 2210 C 199.554 2.59965 5.76716 0
M  V30 2211 C 198.218 2.93037 5.99738 0
M  V30 2212 H 197.488 -0.0677123 0.7379 0
M  V30 2213 H 200.135 0.533807 1.8391 0
M  V30 2214 H 198.44 -1.29369 3.69825 0
M  V30 2215 H 200.137 -0.955163 3.89458 0
M  V30 2216 H 196.727 0.429987 4.26438 0
M  V30 2217 H 200.911 1.24946 4.80315 0
M  V30 2218 H 196.167 2.40056 5.62302 0
M  V30 2219 H 200.341 3.21887 6.17545 0
M  V30 2220 H 197.968 3.8003 6.58393 0
M  V30 2221 N 199.544 -1.57102 0.125237 0
M  V30 2222 C 200.474 -2.18659 -0.819174 0
M  V30 2223 C 201.455 -1.12843 -1.27281 0
M  V30 2224 O 202.64 -1.41104 -1.33429 0
M  V30 2225 C 199.77 -2.79096 -2.06695 0
M  V30 2226 C 198.724 -3.90548 -1.75088 0
M  V30 2227 C 198.05 -4.37821 -3.06948 0
M  V30 2228 C 199.35 -5.12356 -1.01435 0
M  V30 2229 H 201.044 -2.9783 -0.306202 0
M  V30 2230 H 198.59 -1.4326 -0.145839 0
M  V30 2231 H 200.543 -3.2082 -2.73226 0
M  V30 2232 H 199.267 -1.97223 -2.60328 0
M  V30 2233 H 197.926 -3.49409 -1.10944 0
M  V30 2234 H 197.574 -3.52799 -3.58527 0
M  V30 2235 H 197.274 -5.12982 -2.86571 0
M  V30 2236 H 198.798 -4.822 -3.74587 0
M  V30 2237 H 200.212 -5.5106 -1.58132 0
M  V30 2238 H 198.609 -5.9314 -0.911319 0
M  V30 2239 H 199.679 -4.849 -0.00218681 0
M  V30 2240 N 201.022 0.148545 -1.56898 0
M  V30 2241 C 202.433 0.708766 -1.72723 0
M  V30 2242 C 202.784 1.81734 -0.739395 0
M  V30 2243 O 201.909 2.16194 0.0943169 0
M  V30 2244 C 202.504 1.29245 -3.13179 0
M  V30 2245 C 201.063 1.79925 -3.30611 0
M  V30 2246 C 200.21 0.687111 -2.68652 0
M  V30 2247 H 203.161 -0.0771063 -1.58513 0
M  V30 2248 H 203.182 2.16224 -3.13093 0
M  V30 2249 H 202.694 0.485382 -3.85053 0
M  V30 2250 H 200.795 2.63203 -2.63732 0
M  V30 2251 H 200.908 1.92903 -4.38549 0
M  V30 2252 H 199.272 1.11335 -2.29078 0
M  V30 2253 H 200.055 -0.108483 -3.43129 0
M  V30 2254 N 202.5 1.5196 0.417844 0
M  V30 2255 C 203.433 1.69387 1.52916 0
M  V30 2256 C 204.411 0.541419 1.53321 0
M  V30 2257 O 205.595 0.767695 1.72159 0
M  V30 2258 C 202.722 1.72525 2.91467 0
M  V30 2259 C 201.768 2.93967 3.09008 0
M  V30 2260 S 202.601 4.54461 2.83242 0
M  V30 2261 C 203.757 4.60372 4.24038 0
M  V30 2262 H 203.99 2.63382 1.37903 0
M  V30 2263 H 201.523 1.41889 0.608845 0
M  V30 2264 H 203.481 1.75018 3.7132 0
M  V30 2265 H 202.142 0.796733 3.03827 0
M  V30 2266 H 201.335 2.92619 4.10353 0
M  V30 2267 H 200.937 2.89316 2.37007 0
M  V30 2268 H 203.229 4.37213 5.17544 0
M  V30 2269 H 204.172 5.62273 4.30412 0
M  V30 2270 H 204.58 3.89492 4.08602 0
M  V30 2271 N 203.978 -0.674533 1.42435 0
M  V30 2272 C 204.941 -1.76986 1.45632 0
M  V30 2273 C 205.941 -1.5708 0.343871 0
M  V30 2274 O 207.131 -1.63367 0.604709 0
M  V30 2275 C 204.263 -3.15623 1.28822 0
M  V30 2276 H 205.456 -1.75539 2.43158 0
M  V30 2277 H 203.009 -0.884189 1.28887 0
M  V30 2278 H 203.744 -3.22696 0.322193 0
M  V30 2279 H 203.529 -3.31475 2.09444 0
M  V30 2280 H 205.019 -3.95537 1.33942 0
M  V30 2281 N 205.456 -1.28612 -0.910864 0
M  V30 2282 C 206.705 -1.15311 -1.65488 0
M  V30 2283 C 207.018 0.296999 -1.93332 0
M  V30 2284 O 208.224 0.551168 -2.65847 0
M  V30 2285 C 206.68 -2.01599 -2.98137 0
M  V30 2286 C 206.288 -3.51367 -2.7793 0
M  V30 2287 C 208.032 -1.96993 -3.76024 0
M  V30 2288 C 205.939 -4.29797 -4.06237 0
M  V30 2289 H 204.869 -0.42796 -0.620779 0
M  V30 2290 H 207.52 -1.53166 -1.01057 0
M  V30 2291 H 205.902 -1.56603 -3.63719 0
M  V30 2292 H 207.076 -4.0434 -2.21011 0
M  V30 2293 H 205.391 -3.57529 -2.13452 0
M  V30 2294 H 207.988 -2.52856 -4.71135 0
M  V30 2295 H 208.331 -0.94733 -4.05378 0
M  V30 2296 H 208.864 -2.39973 -3.17266 0
M  V30 2297 H 205.603 -5.32648 -3.82055 0
M  V30 2298 H 205.123 -3.81596 -4.62757 0
M  V30 2299 H 206.802 -4.39869 -4.74473 0
M  V30 2300 N 206.934 1.1197 -1.10907 0
M  V30 2301 C 208.162 1.87402 -0.876824 0
M  V30 2302 C 208.577 1.79894 0.573025 0
M  V30 2303 O 207.934 1.17629 1.39534 0
M  V30 2304 C 207.985 3.36428 -1.32282 0
M  V30 2305 O 207.706 3.43765 -2.71582 0
M  V30 2306 C 209.207 4.28783 -1.12518 0
M  V30 2307 H 206.427 0.592793 -0.314384 0
M  V30 2308 H 208.971 1.41649 -1.47499 0
M  V30 2309 H 207.126 3.79706 -0.768229 0
M  V30 2310 H 207.54 4.3652 -2.90776 0
M  V30 2311 H 209.014 5.31613 -1.48633 0
M  V30 2312 H 209.491 4.39153 -0.0642394 0
M  V30 2313 H 210.097 3.91291 -1.66648 0
M  V30 2314 O 208.451 1.03102 1.24307 0
M  V30 2315 H 209.142 0.697601 1.80702 0
M  V30 END ATOM
M  V30 BEGIN BOND
M  V30 END BOND
M  V30 END CTAB
M  END
$$$$
