drugbank_drug|DB00052 DB00052 sequence
 OpenBabel12092119113D

  0  0  0     0  0            999 V3000
M  V30 BEGIN CTAB
M  V30 COUNTS 3086 3119 0 0 0
M  V30 BEGIN ATOM
M  V30 1 H -0.908 1.98254 -0.117106 0
M  V30 2 N 0 1.576 0 0
M  V30 3 C 1.247 1.90568 0.684848 0
M  V30 4 C 1.575 0.873566 1.73779 0
M  V30 5 O 0.83 -0.121654 1.95322 0
M  V30 6 C 1.129 3.3029 1.3654 0
M  V30 7 C 0.795 4.48692 0.445662 0
M  V30 8 C -0.543 4.80815 0.192429 0
M  V30 9 C 1.809 5.20862 -0.187591 0
M  V30 10 C -0.863 5.82481 -0.702352 0
M  V30 11 C 1.489 6.23481 -1.07025 0
M  V30 12 C 0.153 6.54062 -1.33266 0
M  V30 13 H -0.577 0.697337 0.250604 0
M  V30 14 H 2.07 1.91419 -0.0555272 0
M  V30 15 H 0.375 3.25563 2.17982 0
M  V30 16 H 2.072 3.53058 1.90135 0
M  V30 17 H -1.338 4.23593 0.653203 0
M  V30 18 H 2.846 4.963 -0.004963 0
M  V30 19 H -1.898 6.04535 -0.913665 0
M  V30 20 H 2.276 6.78535 -1.56729 0
M  V30 21 H -0.097 7.32659 -2.02769 0
M  V30 22 N 1.4781 -0.272755 1.55222 0
M  V30 23 C 2.8891 -0.84378 1.66545 0
M  V30 24 C 3.2401 -1.87035 0.592641 0
M  V30 25 O 2.3651 -2.14761 -0.265818 0
M  V30 26 C 2.9601 -1.53723 3.01918 0
M  V30 27 C 1.5191 -2.05628 3.15268 0
M  V30 28 C 0.6661 -0.898424 2.62343 0
M  V30 29 H 3.6171 -0.0490998 1.58624 0
M  V30 30 H 3.6381 -2.40421 2.94921 0
M  V30 31 H 3.1501 -0.78983 3.79978 0
M  V30 32 H 1.2511 -2.83329 2.41983 0
M  V30 33 H 1.3641 -2.27142 4.21833 0
M  V30 34 H -0.2719 -1.29186 2.19506 0
M  V30 35 H 0.5111 -0.164528 3.42906 0
M  V30 36 N 2.9562 -1.48159 -0.537278 0
M  V30 37 C 4.1842 -1.59454 -1.31841 0
M  V30 38 C 4.5992 -0.252065 -1.8711 0
M  V30 39 O 3.9562 0.757621 -1.66031 0
M  V30 40 C 4.0072 -2.63546 -2.47439 0
M  V30 41 O 3.7282 -3.92583 -1.94449 0
M  V30 42 C 5.2292 -2.85212 -3.39366 0
M  V30 43 H 2.4492 -0.53785 -0.401196 0
M  V30 44 H 4.9932 -1.93932 -0.648891 0
M  V30 45 H 3.1482 -2.31946 -3.1029 0
M  V30 46 H 3.5622 -4.49629 -2.70063 0
M  V30 47 H 5.0362 -3.61863 -4.16844 0
M  V30 48 H 5.5132 -1.93765 -3.94147 0
M  V30 49 H 6.1192 -3.18086 -2.82314 0
M  V30 50 N 4.4343 0.785586 -1.36625 0
M  V30 51 C 5.6833 1.53883 -1.30396 0
M  V30 52 C 5.9963 1.95271 0.113452 0
M  V30 53 O 7.2023 2.69858 0.298142 0
M  V30 54 C 5.6583 2.77808 -2.28802 0
M  V30 55 C 5.2663 2.43574 -3.75999 0
M  V30 56 C 7.0103 3.55783 -2.31558 0
M  V30 57 C 4.9173 3.63919 -4.66173 0
M  V30 58 H 3.8473 0.577678 -0.484566 0
M  V30 59 H 6.4983 0.861705 -1.62009 0
M  V30 60 H 4.8803 3.47339 -1.90188 0
M  V30 61 H 6.0543 1.81916 -4.23371 0
M  V30 62 H 4.3693 1.78803 -3.76056 0
M  V30 63 H 6.9663 4.45205 -2.96137 0
M  V30 64 H 7.3093 3.94644 -1.3252 0
M  V30 65 H 7.8423 2.93235 -2.68809 0
M  V30 66 H 4.5813 3.3015 -5.66287 0
M  V30 67 H 4.1013 4.2473 -4.23515 0
M  V30 68 H 5.7803 4.30901 -4.82632 0
M  V30 69 N 5.9124 1.20967 1.01018 0
M  V30 70 C 7.3234 1.02319 1.56165 0
M  V30 71 C 7.6744 -0.418546 1.91684 0
M  V30 72 O 6.7994 -1.30096 1.72928 0
M  V30 73 C 7.3944 1.85109 2.8376 0
M  V30 74 C 5.9534 1.70809 3.35412 0
M  V30 75 C 5.1004 1.82643 2.08655 0
M  V30 76 H 8.0514 1.35065 0.833255 0
M  V30 77 H 8.0724 1.35827 3.55431 0
M  V30 78 H 7.5844 2.90035 2.57878 0
M  V30 79 H 5.6854 0.685464 3.66241 0
M  V30 80 H 5.7984 2.52467 4.07182 0
M  V30 81 H 4.1624 1.25896 2.21409 0
M  V30 82 H 4.9454 2.89066 1.85191 0
M  V30 83 N 7.3905 -1.2043 1.01659 0
M  V30 84 C 8.3205 -2.25466 0.607226 0
M  V30 85 C 9.3015 -1.65853 -0.377716 0
M  V30 86 O 10.4865 -1.92409 -0.263149 0
M  V30 87 C 7.6165 -3.47256 -0.0552949 0
M  V30 88 C 6.5705 -4.19462 0.850632 0
M  V30 89 C 5.8965 -5.34673 0.0538859 0
M  V30 90 C 7.1965 -4.75603 2.15868 0
M  V30 91 H 8.8905 -2.59962 1.48526 0
M  V30 92 H 6.4365 -1.2496 0.715605 0
M  V30 93 H 8.3895 -4.19917 -0.353233 0
M  V30 94 H 7.1135 -3.11924 -0.968045 0
M  V30 95 H 5.7725 -3.48667 1.13257 0
M  V30 96 H 5.4205 -4.95585 -0.860514 0
M  V30 97 H 5.1205 -5.83913 0.657192 0
M  V30 98 H 6.6445 -6.10138 -0.237598 0
M  V30 99 H 8.0585 -5.40083 1.92311 0
M  V30 100 H 6.4555 -5.3528 2.71284 0
M  V30 101 H 7.5255 -3.94346 2.82169 0
M  V30 102 N 8.8686 -0.792821 -1.36206 0
M  V30 103 C 10.0936 -0.377701 -2.03932 0
M  V30 104 C 10.5186 0.998947 -1.59382 0
M  V30 105 O 9.8766 1.64421 -0.763903 0
M  V30 106 C 9.9246 -0.453635 -3.57735 0
M  V30 107 O 9.0286 0.538151 -4.08874 0
M  V30 108 H 8.3696 -0.159855 -0.644471 0
M  V30 109 H 10.8996 -1.07488 -1.7409 0
M  V30 110 H 10.9096 -0.318464 -4.06755 0
M  V30 111 H 9.5846 -1.45784 -3.89512 0
M  V30 112 H 8.1616 0.364359 -3.71116 0
M  V30 113 N 10.3467 1.47872 -0.545128 0
M  V30 114 C 11.7627 1.5829 -0.204032 0
M  V30 115 C 11.9627 1.54529 1.29317 0
M  V30 116 O 11.0187 1.44232 2.07252 0
M  V30 117 C 12.3317 2.89304 -0.819987 0
M  V30 118 C 13.8797 3.02864 -0.790105 0
M  V30 119 C 14.3547 4.3656 -1.38491 0
M  V30 120 N 15.8457 4.43165 -1.34755 0
M  V30 121 C 16.5807 5.45153 -1.77753 0
M  V30 122 N 16.0767 6.54016 -2.2855 0
M  V30 123 N 17.8697 5.36125 -1.68897 0
M  V30 124 H 10.0207 1.4856 -1.51802 0
M  V30 125 H 12.2837 0.706305 -0.632327 0
M  V30 126 H 11.9897 2.97757 -1.87173 0
M  V30 127 H 11.8637 3.75957 -0.305915 0
M  V30 128 H 14.2507 2.94014 0.252913 0
M  V30 129 H 14.3317 2.17782 -1.34181 0
M  V30 130 H 13.9757 4.46164 -2.42693 0
M  V30 131 H 13.9057 5.20353 -0.808754 0
M  V30 132 H 16.3967 3.65083 -0.975855 0
M  V30 133 H 16.7097 7.27994 -2.59314 0
M  V30 134 H 15.0547 6.54938 -2.32553 0
M  V30 135 H 18.2457 4.49975 -1.28998 0
M  V30 136 H 18.4187 6.15472 -2.02726 0
M  V30 137 N 11.8248 0.280983 1.55075 0
M  V30 138 C 12.7548 -0.597469 2.25727 0
M  V30 139 C 13.7358 -1.15417 1.24952 0
M  V30 140 O 14.9208 -1.18722 1.53684 0
M  V30 141 C 12.0508 -1.7789 2.98283 0
M  V30 142 C 11.0048 -1.35347 4.06036 0
M  V30 143 C 10.3308 -2.61846 4.66198 0
M  V30 144 C 11.6308 -0.499354 5.19907 0
M  V30 145 H 13.3248 -0.00824265 2.99399 0
M  V30 146 H 10.8708 -0.0025244 1.44 0
M  V30 147 H 12.8238 -2.39937 3.46422 0
M  V30 148 H 11.5478 -2.39405 2.22155 0
M  V30 149 H 10.2068 -0.756156 3.58717 0
M  V30 150 H 9.8548 -3.21632 3.86732 0
M  V30 151 H 9.5548 -2.3409 5.38958 0
M  V30 152 H 11.0788 -3.24732 5.1709 0
M  V30 153 H 12.4928 -1.02498 5.64063 0
M  V30 154 H 10.8898 -0.316424 5.99265 0
M  V30 155 H 11.9598 0.480459 4.82514 0
M  V30 156 N 13.3029 -1.57598 0.00835791 0
M  V30 157 C 14.5499 -1.90928 -0.674732 0
M  V30 158 C 14.8779 -0.88277 -1.73313 0
M  V30 159 O 14.1329 0.111294 -1.95383 0
M  V30 160 C 14.4319 -3.3101 -1.34787 0
M  V30 161 C 14.0979 -4.48922 -0.421861 0
M  V30 162 C 12.7599 -4.8091 -0.166927 0
M  V30 163 C 15.1119 -5.20755 0.215211 0
M  V30 164 C 12.4399 -5.821 0.733232 0
M  V30 165 C 14.7919 -6.22905 1.1033 0
M  V30 166 C 13.4559 -6.53346 1.36733 0
M  V30 167 H 12.7259 -0.698656 -0.246902 0
M  V30 168 H 15.3729 -1.91387 0.0656779 0
M  V30 169 H 13.6779 -3.26714 -2.16253 0
M  V30 170 H 15.3749 -3.54061 -1.8826 0
M  V30 171 H 11.9649 -4.23934 -0.630729 0
M  V30 172 H 16.1489 -4.9629 0.0312829 0
M  V30 173 H 11.4049 -6.04042 0.945712 0
M  V30 174 H 15.5789 -6.77694 1.60325 0
M  V30 175 H 13.2059 -7.31573 2.06652 0
M  V30 176 N 14.781 0.264519 -1.55364 0
M  V30 177 C 16.058 1.01677 -1.67096 0
M  V30 178 C 16.438 2.03996 -0.543015 0
M  V30 179 O 15.786 2.23907 0.45585 0
M  V30 180 C 15.996 1.66596 -3.0667 0
M  V30 181 C 17.344 2.17442 -3.64697 0
M  V30 182 O 18.368 1.76568 -3.09358 0
M  V30 183 O 17.227 2.92439 -4.61673 0
M  V30 184 H 14.321 0.472161 -0.678965 0
M  V30 185 H 16.867 0.259703 -1.67701 0
M  V30 186 H 15.639 0.924962 -3.80211 0
M  V30 187 H 15.262 2.48968 -3.10001 0
M  V30 188 N 16.2591 1.48442 0.529413 0
M  V30 189 C 17.2071 1.63452 1.65487 0
M  V30 190 C 18.2011 0.500955 1.61823 0
M  V30 191 O 19.4071 0.679695 1.66674 0
M  V30 192 H 15.7821 0.514905 0.548066 0
M  V30 193 H 17.7531 2.57975 1.49971 0
M  V30 194 C 16.5021 1.69196 3.03756 0
M  V30 195 H 15.8251 2.55784 3.07269 0
M  V30 196 H 17.2651 1.83743 3.82119 0
M  V30 197 C 15.7241 0.430765 3.34135 0
M  V30 198 O 16.2541 -0.4561 3.99102 0
M  V30 199 N 14.4601 0.302293 2.89023 0
M  V30 200 H 14.0071 1.02496 2.36331 0
M  V30 201 H 13.9651 -0.540546 3.09718 0
M  V30 202 N 17.7372 -0.778329 1.37039 0
M  V30 203 C 18.7002 -1.87301 1.32102 0
M  V30 204 C 19.7002 -1.59198 0.226405 0
M  V30 205 O 20.8902 -1.67403 0.481861 0
M  V30 206 C 18.0222 -3.24309 1.05055 0
M  V30 207 H 19.2152 -1.93093 2.29467 0
M  V30 208 H 16.7682 -0.977358 1.21973 0
M  V30 209 H 17.5032 -3.24196 0.0819373 0
M  V30 210 H 17.2882 -3.46098 1.84279 0
M  V30 211 H 18.7782 -4.04382 1.04234 0
M  V30 212 N 19.2153 -1.21501 -1.00376 0
M  V30 213 C 20.1483 -0.918669 -2.08892 0
M  V30 214 C 21.1263 0.134277 -1.62045 0
M  V30 215 O 22.3103 0.00504255 -1.88499 0
M  V30 216 C 19.4373 -0.379645 -3.36566 0
M  V30 217 C 18.4833 -1.41559 -4.02323 0
M  V30 218 S 19.3163 -2.98521 -4.44574 0
M  V30 219 C 20.4723 -2.46228 -5.75433 0
M  V30 220 H 20.7053 -1.83761 -2.33707 0
M  V30 221 H 18.2383 -1.04489 -1.13673 0
M  V30 222 H 20.1963 -0.0752195 -4.10431 0
M  V30 223 H 18.8573 0.518008 -3.09799 0
M  V30 224 H 18.0503 -0.988076 -4.9422 0
M  V30 225 H 17.6523 -1.66815 -3.34737 0
M  V30 226 H 19.9443 -1.86791 -6.51241 0
M  V30 227 H 20.8873 -3.36572 -6.22997 0
M  V30 228 H 21.2953 -1.87894 -5.32312 0
M  V30 229 N 20.6934 1.19889 -1.02296 0
M  V30 230 C 21.6234 2.25141 -0.619174 0
M  V30 231 C 22.6044 1.66051 0.368915 0
M  V30 232 O 23.7894 1.92546 0.252941 0
M  V30 233 C 20.9194 3.4728 0.0368783 0
M  V30 234 C 19.8734 4.19005 -0.872865 0
M  V30 235 C 19.1994 5.34637 -0.0822402 0
M  V30 236 C 20.4994 4.74452 -2.18387 0
M  V30 237 H 22.1934 2.59171 -1.49903 0
M  V30 238 H 19.7394 1.24579 -0.722222 0
M  V30 239 H 21.6924 4.20098 0.330958 0
M  V30 240 H 20.4164 3.12433 0.95149 0
M  V30 241 H 19.0754 3.48061 -1.15105 0
M  V30 242 H 18.7234 4.96034 0.83422 0
M  V30 243 H 18.4234 5.83557 -0.688149 0
M  V30 244 H 19.9474 6.10255 0.205238 0
M  V30 245 H 21.3614 5.39055 -1.95172 0
M  V30 246 H 19.7584 5.33834 -2.74119 0
M  V30 247 H 20.8284 3.92844 -2.84257 0
M  V30 248 N 22.1715 0.800033 1.35784 0
M  V30 249 C 23.5875 0.482977 1.52117 0
M  V30 250 C 23.7875 -0.996948 1.75109 0
M  V30 251 O 22.8435 -1.78216 1.78872 0
M  V30 252 C 24.1565 1.32264 2.70049 0
M  V30 253 C 25.7045 1.31742 2.83924 0
M  V30 254 C 26.1795 2.14106 4.04874 0
M  V30 255 N 27.6705 2.11607 4.12039 0
M  V30 256 C 28.4055 2.72099 5.04727 0
M  V30 257 N 27.9015 3.41492 6.02789 0
M  V30 258 N 29.6945 2.61776 4.97423 0
M  V30 259 H 21.8455 1.75856 1.19115 0
M  V30 260 H 24.1085 0.748122 0.582252 0
M  V30 261 H 23.8145 2.37261 2.59616 0
M  V30 262 H 23.6885 0.971303 3.6448 0
M  V30 263 H 26.0755 0.275333 2.93813 0
M  V30 264 H 26.1565 1.70859 1.9037 0
M  V30 265 H 25.8005 3.18351 3.95746 0
M  V30 266 H 25.7305 1.72353 4.97596 0
M  V30 267 H 28.2215 1.61112 3.41835 0
M  V30 268 H 28.5345 3.84953 6.70098 0
M  V30 269 H 26.8795 3.45596 6.02983 0
M  V30 270 H 30.0705 2.07157 4.19766 0
M  V30 271 H 30.2435 3.0921 5.69468 0
M  V30 272 N 23.6496 -1.47581 0.552962 0
M  V30 273 C 24.6126 -2.28439 -0.186605 0
M  V30 274 C 25.6126 -1.36706 -0.84665 0
M  V30 275 O 26.8026 -1.59378 -0.703164 0
M  V30 276 C 23.9346 -3.16264 -1.2724 0
M  V30 277 H 25.1276 -2.95294 0.523609 0
M  V30 278 H 22.6806 -1.532 0.309745 0
M  V30 279 H 23.4156 -2.54091 -2.01514 0
M  V30 280 H 23.2006 -3.83769 -0.803968 0
M  V30 281 H 24.6906 -3.77198 -1.79196 0
M  V30 282 N 25.1277 -0.289203 -1.54924 0
M  V30 283 C 26.0777 0.606939 -2.19773 0
M  V30 284 C 27.0617 1.10783 -1.16687 0
M  V30 285 O 28.2537 1.05057 -1.4245 0
M  V30 286 C 25.3827 1.78398 -2.93307 0
M  V30 287 C 24.4687 1.29961 -4.03697 0
M  V30 288 N 24.8597 0.532377 -5.0299 0
M  V30 289 C 23.1577 1.58136 -4.17024 0
M  V30 290 C 23.8587 0.275912 -5.81045 0
M  V30 291 N 22.8347 0.852365 -5.36876 0
M  V30 292 H 26.6367 0.0130779 -2.93897 0
M  V30 293 H 24.1507 -0.09341 -1.62131 0
M  V30 294 H 26.1477 2.43741 -3.38225 0
M  V30 295 H 24.8077 2.38166 -2.20697 0
M  V30 296 H 25.8187 0.17838 -5.17593 0
M  V30 297 H 22.4957 2.18738 -3.55612 0
M  V30 298 H 23.8857 -0.339502 -6.71042 0
M  V30 299 N 26.6058 1.57591 -0.0167156 0
M  V30 300 C 28.0218 1.55946 0.339557 0
M  V30 301 C 28.2218 1.02109 1.73713 0
M  V30 302 O 27.2778 0.662303 2.43659 0
M  V30 303 C 28.5908 3.00037 0.199499 0
M  V30 304 C 30.1388 3.11805 0.273193 0
M  V30 305 C 30.6138 4.57713 0.162068 0
M  V30 306 N 32.1048 4.6268 0.219444 0
M  V30 307 C 32.8398 5.73185 0.157054 0
M  V30 308 N 32.3358 6.92786 0.0442936 0
M  V30 309 N 34.1288 5.61707 0.21014 0
M  V30 310 H 26.2798 1.90921 -0.930758 0
M  V30 311 H 28.5428 0.877674 -0.358319 0
M  V30 312 H 28.2488 3.4333 -0.76273 0
M  V30 313 H 28.1228 3.64387 0.974786 0
M  V30 314 H 30.5098 2.68433 1.22587 0
M  V30 315 H 30.5908 2.50201 -0.532256 0
M  V30 316 H 30.2348 5.01763 -0.78714 0
M  V30 317 H 30.1648 5.17283 0.986222 0
M  V30 318 H 32.6558 3.76649 0.307246 0
M  V30 319 H 32.9688 7.728 0.00304069 0
M  V30 320 H 31.3138 6.94999 0.00968457 0
M  V30 321 H 34.5048 4.6716 0.296546 0
M  V30 322 H 34.6778 6.47807 0.158054 0
M  V30 323 N 28.0839 -0.256276 1.55502 0
M  V30 324 C 29.0139 -1.32102 1.92539 0
M  V30 325 C 29.9949 -1.50684 0.789194 0
M  V30 326 O 31.1799 -1.63449 1.04872 0
M  V30 327 C 28.3099 -2.67752 2.21192 0
M  V30 328 C 27.2639 -2.63878 3.36975 0
M  V30 329 C 26.5899 -4.03236 3.51147 0
M  V30 330 C 27.8899 -2.21682 4.72921 0
M  V30 331 H 29.5839 -1.01351 2.81724 0
M  V30 332 H 27.1299 -0.486105 1.35547 0
M  V30 333 H 29.0829 -3.42365 2.45691 0
M  V30 334 H 27.8069 -3.0012 1.28824 0
M  V30 335 H 26.4659 -1.91722 3.12471 0
M  V30 336 H 26.1139 -4.32854 2.56216 0
M  V30 337 H 25.8139 -4.01535 4.29003 0
M  V30 338 H 27.3379 -4.79563 3.77957 0
M  V30 339 H 28.7519 -2.86023 4.96854 0
M  V30 340 H 27.1489 -2.3111 5.53812 0
M  V30 341 H 28.2189 -1.16833 4.70615 0
M  V30 342 N 29.562 -1.4872 -0.521534 0
M  V30 343 C 30.512 -1.60269 -1.62166 0
M  V30 344 C 31.496 -0.45935 -1.54204 0
M  V30 345 O 32.688 -0.711241 -1.62081 0
M  V30 346 C 29.817 -1.65344 -3.00859 0
M  V30 347 C 28.903 -2.85187 -3.13894 0
M  V30 348 N 29.294 -4.09509 -2.96877 0
M  V30 349 C 27.592 -2.82695 -3.44963 0
M  V30 350 C 28.293 -4.89959 -3.13552 0
M  V30 351 N 27.269 -4.22934 -3.41508 0
M  V30 352 H 31.071 -2.5413 -1.47632 0
M  V30 353 H 28.585 -1.45209 -0.727194 0
M  V30 354 H 30.582 -1.71713 -3.79895 0
M  V30 355 H 29.242 -0.726058 -3.16478 0
M  V30 356 H 30.253 -4.39814 -2.73467 0
M  V30 357 H 26.93 -1.99249 -3.66887 0
M  V30 358 H 28.32 -5.98654 -3.05061 0
M  V30 359 N 31.0401 0.771051 -1.3745 0
M  V30 360 C 31.9721 1.89352 -1.29146 0
M  V30 361 C 32.9851 1.61477 -0.207124 0
M  V30 362 O 34.1741 1.72382 -0.463324 0
M  V30 363 C 31.2741 3.24596 -0.974195 0
M  V30 364 C 30.4471 3.80111 -2.16413 0
M  V30 365 C 29.5061 4.93832 -1.81703 0
M  V30 366 O 28.5321 5.09382 -2.54006 0
M  V30 367 N 29.7341 5.75483 -0.761573 0
M  V30 368 H 32.4991 1.96991 -2.25864 0
M  V30 369 H 30.0601 0.950191 -1.31084 0
M  V30 370 H 32.0521 3.98193 -0.722828 0
M  V30 371 H 30.6221 3.12454 -0.0955527 0
M  V30 372 H 29.8421 2.98284 -2.57721 0
M  V30 373 H 31.1301 4.13932 -2.95867 0
M  V30 374 H 30.5281 5.65469 -0.161609 0
M  V30 375 H 29.0851 6.49302 -0.570064 0
M  V30 376 N 32.5182 1.22032 0.997298 0
M  V30 377 C 33.4482 1.01065 2.10495 0
M  V30 378 C 34.4292 -0.0669542 1.69968 0
M  V30 379 O 35.6142 0.0943987 1.9397 0
M  V30 380 C 32.7442 0.582874 3.42374 0
M  V30 381 C 31.6982 1.60592 3.96729 0
M  V30 382 C 31.0242 1.03412 5.24605 0
M  V30 383 C 32.3242 2.99478 4.27914 0
M  V30 384 H 34.0182 1.93708 2.28292 0
M  V30 385 H 31.5642 0.932761 1.09707 0
M  V30 386 H 33.5172 0.423332 4.19268 0
M  V30 387 H 32.2412 -0.379213 3.24391 0
M  V30 388 H 30.9002 1.75316 3.21963 0
M  V30 389 H 30.5482 0.063518 5.0296 0
M  V30 390 H 30.2482 1.71754 5.61938 0
M  V30 391 H 31.7722 0.886066 6.04137 0
M  V30 392 H 33.1862 2.88153 4.95622 0
M  V30 393 H 31.5832 3.64903 4.76409 0
M  V30 394 H 32.6532 3.49742 3.3587 0
M  V30 395 N 33.9963 -1.19345 1.0293 0
M  V30 396 C 34.9593 -2.20793 0.615069 0
M  V30 397 C 35.9593 -1.57553 -0.321533 0
M  V30 398 O 37.1493 -1.73862 -0.108483 0
M  V30 399 C 34.2813 -3.40754 -0.0999222 0
M  V30 400 H 35.4743 -2.58955 1.51269 0
M  V30 401 H 33.0273 -1.3303 0.820534 0
M  V30 402 H 33.7623 -3.0811 -1.01187 0
M  V30 403 H 33.5473 -3.87889 0.57309 0
M  V30 404 H 35.0373 -4.15898 -0.376645 0
M  V30 405 N 35.4744 -0.807222 -1.35358 0
M  V30 406 C 36.7214 -0.387888 -1.9875 0
M  V30 407 C 37.0494 1.04509 -1.64037 0
M  V30 408 O 36.3044 1.73986 -0.895946 0
M  V30 409 C 36.6034 -0.519036 -3.53611 0
M  V30 410 C 36.2694 -1.91542 -4.08194 0
M  V30 411 C 34.9314 -2.29745 -4.22813 0
M  V30 412 C 37.2834 -2.82896 -4.37744 0
M  V30 413 C 34.6114 -3.58668 -4.643 0
M  V30 414 C 36.9634 -4.11265 -4.8067 0
M  V30 415 C 35.6274 -4.49466 -4.93494 0
M  V30 416 H 34.8974 -0.141938 -0.727279 0
M  V30 417 H 37.5444 -1.02814 -1.6156 0
M  V30 418 H 35.8494 0.204658 -3.91265 0
M  V30 419 H 37.5464 -0.175345 -4.00616 0
M  V30 420 H 34.1364 -1.60862 -3.97268 0
M  V30 421 H 38.3204 -2.54629 -4.26002 0
M  V30 422 H 33.5764 -3.88113 -4.72418 0
M  V30 423 H 37.7504 -4.82153 -5.02496 0
M  V30 424 H 35.3774 -5.49418 -5.25399 0
M  V30 425 N 36.9525 1.47285 -0.560781 0
M  V30 426 C 38.2295 1.9558 0.0277798 0
M  V30 427 C 38.6095 1.5034 1.48192 0
M  V30 428 O 37.9575 0.743882 2.16052 0
M  V30 429 C 38.1675 3.48789 -0.121418 0
M  V30 430 C 39.5155 4.24594 0.0220912 0
M  V30 431 O 40.5395 3.56166 -0.0491439 0
M  V30 432 O 39.3985 5.46217 0.175958 0
M  V30 433 H 36.4925 0.824663 0.0621342 0
M  V30 434 H 39.0385 1.5767 -0.627556 0
M  V30 435 H 37.8105 3.74533 -1.13316 0
M  V30 436 H 37.4335 3.93473 0.571366 0
M  V30 437 N 38.4306 0.297415 1.54768 0
M  V30 438 C 39.6586 -0.315623 2.04478 0
M  V30 439 C 40.0736 -1.47792 1.17486 0
M  V30 440 O 39.4306 -1.81404 0.19971 0
M  V30 441 C 39.4816 -0.7753 3.53088 0
M  V30 442 O 39.2026 0.340732 4.36773 0
M  V30 443 C 40.7036 -1.45386 4.18781 0
M  V30 444 H 37.9236 -0.0690887 0.667434 0
M  V30 445 H 40.4676 0.436003 1.99798 0
M  V30 446 H 38.6226 -1.47696 3.58141 0
M  V30 447 H 39.0366 -0.0165035 5.24497 0
M  V30 448 H 40.5106 -1.72669 5.24299 0
M  V30 449 H 40.9876 -2.39275 3.68299 0
M  V30 450 H 41.5936 -0.795475 4.17795 0
M  V30 451 N 39.9087 -1.5758 0.0250728 0
M  V30 452 C 41.1387 -1.95646 -0.663783 0
M  V30 453 C 41.5467 -0.899935 -1.66427 0
M  V30 454 O 40.8897 0.127191 -1.83259 0
M  V30 455 C 40.9517 -3.29835 -1.43 0
M  V30 456 C 40.6157 -4.53197 -0.588305 0
M  V30 457 C 41.6127 -5.19726 0.13469 0
M  V30 458 C 39.2977 -4.99529 -0.526897 0
M  V30 459 C 41.2917 -6.30902 0.90781 0
M  V30 460 C 38.9787 -6.10589 0.24993 0
M  V30 461 C 39.9767 -6.76134 0.965994 0
M  V30 462 O 39.6647 -7.85062 1.7301 0
M  V30 463 H 39.3967 -0.649282 -0.188174 0
M  V30 464 H 41.9507 -2.05245 0.0799006 0
M  V30 465 H 40.1807 -3.16716 -2.21873 0
M  V30 466 H 41.8697 -3.52833 -2.00658 0
M  V30 467 H 42.6357 -4.84904 0.0965562 0
M  V30 468 H 38.5147 -4.48319 -1.07381 0
M  V30 469 H 42.0587 -6.81995 1.46724 0
M  V30 470 H 37.9557 -6.44849 0.289795 0
M  V30 471 H 38.7237 -8.01708 1.64944 0
M  V30 472 N 41.3868 0.248026 -1.55636 0
M  V30 473 C 42.3188 1.32993 -1.8667 0
M  V30 474 C 43.3318 1.44345 -0.752877 0
M  V30 475 O 44.5208 1.45715 -1.03098 0
M  V30 476 C 41.6208 2.70863 -2.03682 0
M  V30 477 C 40.7938 2.81792 -3.34532 0
M  V30 478 C 39.8528 4.005 -3.41301 0
M  V30 479 O 38.8788 3.9008 -4.14519 0
M  V30 480 N 40.0808 5.13618 -2.70512 0
M  V30 481 H 42.8458 1.06707 -2.8006 0
M  V30 482 H 40.4068 0.438129 -1.55859 0
M  V30 483 H 42.3988 3.48612 -2.05553 0
M  V30 484 H 40.9688 2.89862 -1.17041 0
M  V30 485 H 40.1888 1.90729 -3.44987 0
M  V30 486 H 41.4768 2.86043 -4.20781 0
M  V30 487 H 40.8748 5.24975 -2.10755 0
M  V30 488 H 39.4318 5.89505 -2.78077 0
M  V30 489 N 42.8649 1.48995 0.513639 0
M  V30 490 C 43.7749 1.67443 1.64317 0
M  V30 491 C 44.7909 0.556947 1.64846 0
M  V30 492 O 45.9669 0.830082 1.83498 0
M  V30 493 C 43.0319 1.72515 3.00732 0
M  V30 494 C 42.0929 2.96009 3.1093 0
M  V30 495 C 41.3259 3.00829 4.40837 0
M  V30 496 O 41.5489 2.13594 5.28898 0
M  V30 497 O 40.4829 3.93168 4.55744 0
M  V30 498 H 44.3089 2.63106 1.51687 0
M  V30 499 H 41.8939 1.32588 0.688543 0
M  V30 500 H 43.7759 1.78277 3.81831 0
M  V30 501 H 42.4509 0.800278 3.13651 0
M  V30 502 H 41.3579 2.9577 2.29065 0
M  V30 503 H 42.6909 3.87934 3.02933 0
M  V30 504 N 44.343 -0.763751 1.37857 0
M  V30 505 C 45.59 -1.52257 1.33506 0
M  V30 506 C 45.918 -1.94343 -0.078022 0
M  V30 507 O 45.173 -1.64958 -1.05297 0
M  V30 508 C 45.472 -2.79499 2.22745 0
M  V30 509 C 45.138 -2.56426 3.70886 0
M  V30 510 C 43.8 -2.49842 4.11257 0
M  V30 511 C 46.152 -2.36008 4.64704 0
M  V30 512 C 43.48 -2.20841 5.43549 0
M  V30 513 C 45.832 -2.0853 5.97242 0
M  V30 514 C 44.496 -2.00396 6.36709 0
M  V30 515 H 43.766 -0.557149 0.488534 0
M  V30 516 H 46.413 -0.879073 1.70131 0
M  V30 517 H 44.718 -3.48447 1.79142 0
M  V30 518 H 46.415 -3.37413 2.16688 0
M  V30 519 H 43.005 -2.62416 3.38874 0
M  V30 520 H 47.189 -2.40079 4.34368 0
M  V30 521 H 42.445 -2.13045 5.73081 0
M  V30 522 H 46.619 -1.91732 6.69486 0
M  V30 523 H 44.246 -1.77688 7.39142 0
M  V30 524 N 45.8211 -1.22559 -0.990812 0
M  V30 525 C 46.7311 -1.01394 -2.11557 0
M  V30 526 C 47.7471 0.0383962 -1.73958 0
M  V30 527 O 48.9231 -0.154787 -2.00804 0
M  V30 528 C 45.9881 -0.596569 -3.41529 0
M  V30 529 C 45.0491 -1.72276 -3.93217 0
M  V30 530 C 44.2821 -1.32521 -5.16985 0
M  V30 531 O 44.5051 -0.204909 -5.70032 0
M  V30 532 O 43.4391 -2.14247 -5.62478 0
M  V30 533 H 47.2651 -1.95633 -2.32296 0
M  V30 534 H 44.8501 -1.01172 -1.0993 0
M  V30 535 H 46.7321 -0.374263 -4.19735 0
M  V30 536 H 45.4071 0.316939 -3.22145 0
M  V30 537 H 44.3141 -1.99961 -3.16174 0
M  V30 538 H 45.6471 -2.61421 -4.17037 0
M  V30 539 N 47.2992 1.18797 -1.03562 0
M  V30 540 C 48.2092 2.25913 -0.632505 0
M  V30 541 C 49.2252 1.70668 0.338882 0
M  V30 542 O 50.4012 2.00453 0.195076 0
M  V30 543 C 47.4662 3.467 0.00350942 0
M  V30 544 C 46.5272 4.17098 -1.01624 0
M  V30 545 C 45.7602 5.32119 -0.410478 0
M  V30 546 O 45.9832 5.64976 0.784725 0
M  V30 547 O 44.9172 5.9107 -1.13667 0
M  V30 548 H 48.7432 2.62648 -1.52478 0
M  V30 549 H 46.3282 1.25781 -0.806195 0
M  V30 550 H 48.2102 4.19878 0.35781 0
M  V30 551 H 46.8852 3.11798 0.869686 0
M  V30 552 H 45.7922 3.4601 -1.42224 0
M  V30 553 H 47.1252 4.55987 -1.85301 0
M  V30 554 N 48.7773 0.814389 1.34928 0
M  V30 555 C 49.7403 0.235759 2.27984 0
M  V30 556 C 50.7403 -0.581412 1.49921 0
M  V30 557 O 51.9303 -0.398758 1.69575 0
M  V30 558 C 49.0623 -0.670433 3.34242 0
M  V30 559 H 50.2553 1.05659 2.80671 0
M  V30 560 H 47.8083 0.585614 1.44915 0
M  V30 561 H 48.5433 -1.51466 2.86755 0
M  V30 562 H 48.3283 -0.0860822 3.92005 0
M  V30 563 H 49.8183 -1.06935 4.03676 0
M  V30 564 N 50.2554 -1.46986 0.568584 0
M  V30 565 C 51.4854 -2.0653 0.0539173 0
M  V30 566 C 51.8934 -1.42004 -1.25026 0
M  V30 567 O 51.2364 -0.514541 -1.76347 0
M  V30 568 C 51.2984 -3.58938 -0.200854 0
M  V30 569 C 50.9624 -4.45572 1.01559 0
M  V30 570 C 51.9594 -4.82986 1.92407 0
M  V30 571 C 49.6444 -4.8692 1.23346 0
M  V30 572 C 51.6384 -5.60559 3.03402 0
M  V30 573 C 49.3254 -5.64255 2.34649 0
M  V30 574 C 50.3234 -6.00986 3.24507 0
M  V30 575 O 50.0114 -6.76761 4.33878 0
M  V30 576 H 49.7434 -0.674292 0.0480234 0
M  V30 577 H 52.2974 -1.89812 0.784896 0
M  V30 578 H 50.5274 -3.73911 -0.986279 0
M  V30 579 H 52.2164 -4.0046 -0.662294 0
M  V30 580 H 52.9824 -4.51633 1.76785 0
M  V30 581 H 48.8614 -4.57789 0.543178 0
M  V30 582 H 52.4054 -5.89147 3.73565 0
M  V30 583 H 48.3024 -5.95021 2.5024 0
M  V30 584 H 49.0704 -6.95168 4.32068 0
M  V30 585 N 51.7335 -0.305618 -1.54608 0
M  V30 586 C 52.9825 0.303098 -1.9941 0
M  V30 587 C 53.2955 1.54648 -1.19764 0
M  V30 588 O 54.5015 2.23007 -1.54855 0
M  V30 589 C 52.9575 0.590588 -3.55021 0
M  V30 590 C 52.5655 -0.634719 -4.43481 0
M  V30 591 C 54.3095 1.16025 -4.08336 0
M  V30 592 C 52.2165 -0.320126 -5.90533 0
M  V30 593 H 51.1465 0.117031 -0.744862 0
M  V30 594 H 53.7975 -0.415045 -1.78745 0
M  V30 595 H 52.1795 1.36845 -3.71604 0
M  V30 596 H 53.3535 -1.41079 -4.38672 0
M  V30 597 H 51.6685 -1.12333 -4.00962 0
M  V30 598 H 54.2655 1.40994 -5.15776 0
M  V30 599 H 54.6085 2.10397 -3.5922 0
M  V30 600 H 55.1415 0.443985 -3.95315 0
M  V30 601 H 51.8805 -1.23254 -6.43808 0
M  V30 602 H 51.4005 0.418579 -5.98338 0
M  V30 603 H 53.0795 0.0766241 -6.46955 0
M  V30 604 N 53.2116 1.57565 -0.0334293 0
M  V30 605 C 54.6226 1.79746 0.504798 0
M  V30 606 C 54.9736 0.944091 1.71992 0
M  V30 607 O 54.0986 0.155694 2.15839 0
M  V30 608 C 54.6936 3.25997 0.922567 0
M  V30 609 C 53.2526 3.49159 1.40588 0
M  V30 610 C 52.3996 2.74785 0.372633 0
M  V30 611 H 55.3506 1.56565 -0.259436 0
M  V30 612 H 55.3716 3.35945 1.78666 0
M  V30 613 H 54.8836 3.88081 0.0379825 0
M  V30 614 H 52.9846 2.92332 2.31025 0
M  V30 615 H 53.0976 4.57873 1.41028 0
M  V30 616 H 51.4616 2.40391 0.841672 0
M  V30 617 H 52.2446 3.39587 -0.503559 0
M  V30 618 N 54.6897 -0.239769 1.55765 0
M  V30 619 C 55.6367 -1.29696 1.90913 0
M  V30 620 C 56.6067 -1.47478 0.764164 0
M  V30 621 O 57.7917 -1.61345 1.01845 0
M  V30 622 C 54.9317 -2.64598 2.21544 0
M  V30 623 C 54.0447 -2.54765 3.48882 0
M  V30 624 C 53.1797 -3.82069 3.69049 0
M  V30 625 C 52.2187 -3.66883 4.89963 0
M  V30 626 N 51.3557 -4.86094 5.06614 0
M  V30 627 H 56.1957 -0.990224 2.81067 0
M  V30 628 H 53.7327 -0.477684 1.39128 0
M  V30 629 H 55.6907 -3.43132 2.3731 0
M  V30 630 H 54.3207 -2.93405 1.34585 0
M  V30 631 H 53.3727 -1.67763 3.41409 0
M  V30 632 H 54.6847 -2.39457 4.37563 0
M  V30 633 H 53.8387 -4.69046 3.84812 0
M  V30 634 H 52.5777 -4.00282 2.78614 0
M  V30 635 H 51.5827 -2.78289 4.74168 0
M  V30 636 H 52.8077 -3.50157 5.81865 0
M  V30 637 H 50.7537 -5.04655 4.19117 0
M  V30 638 H 50.6707 -4.73443 5.89396 0
M  V30 639 H 51.9387 -5.74549 5.26795 0
M  V30 640 N 56.1678 -1.49265 -0.50573 0
M  V30 641 C 57.0778 -1.68312 -1.63427 0
M  V30 642 C 58.0938 -0.565682 -1.64548 0
M  V30 643 O 59.2698 -0.839801 -1.83055 0
M  V30 644 C 56.3348 -1.74107 -2.99813 0
M  V30 645 C 55.3958 -2.97653 -3.09356 0
M  V30 646 C 54.6288 -3.03163 -4.39236 0
M  V30 647 O 54.8518 -2.16396 -5.27758 0
M  V30 648 O 53.7858 -3.9558 -4.53652 0
M  V30 649 H 57.6118 -2.63907 -1.50289 0
M  V30 650 H 55.1968 -1.32951 -0.681502 0
M  V30 651 H 57.0788 -1.803 -3.80881 0
M  V30 652 H 55.7538 -0.816901 -3.13223 0
M  V30 653 H 54.6608 -2.96981 -2.27493 0
M  V30 654 H 55.9938 -3.89535 -3.00871 0
M  V30 655 N 57.6459 0.756429 -1.3826 0
M  V30 656 C 58.5779 1.87971 -1.31147 0
M  V30 657 C 59.5909 1.61248 -0.224239 0
M  V30 658 O 60.7799 1.71881 -0.481581 0
M  V30 659 C 57.8799 3.23545 -1.00857 0
M  V30 660 C 57.0529 3.77794 -2.20432 0
M  V30 661 C 56.1119 4.91877 -1.86931 0
M  V30 662 O 55.1379 5.06659 -2.59395 0
M  V30 663 N 56.3399 5.74643 -0.822568 0
M  V30 664 H 59.1049 1.94585 -2.2794 0
M  V30 665 H 56.6659 0.936234 -1.32084 0
M  V30 666 H 58.6579 3.97403 -0.765021 0
M  V30 667 H 57.2279 3.12335 -0.128687 0
M  V30 668 H 56.4479 2.95534 -2.6087 0
M  V30 669 H 57.7359 4.10771 -3.00241 0
M  V30 670 H 57.1339 5.65266 -0.221575 0
M  V30 671 H 55.6909 6.48661 -0.638899 0
M  V30 672 N 59.124 1.23083 0.984299 0
M  V30 673 C 60.071 1.00854 2.07598 0
M  V30 674 C 61.041 -0.0726709 1.65941 0
M  V30 675 O 62.226 0.0786535 1.90638 0
M  V30 676 C 59.366 0.601645 3.39815 0
M  V30 677 C 58.479 1.75456 3.94765 0
M  V30 678 C 57.614 1.29482 5.15177 0
M  V30 679 C 56.653 2.41873 5.62284 0
M  V30 680 N 55.79 1.96885 6.73929 0
M  V30 681 H 60.63 1.943 2.25946 0
M  V30 682 H 58.167 0.968001 1.10762 0
M  V30 683 H 60.125 0.346854 4.15756 0
M  V30 684 H 58.755 -0.295803 3.21442 0
M  V30 685 H 57.807 2.12346 3.15616 0
M  V30 686 H 59.119 2.59965 4.25699 0
M  V30 687 H 58.273 0.997923 5.98437 0
M  V30 688 H 57.012 0.420046 4.85888 0
M  V30 689 H 56.017 2.72342 4.77608 0
M  V30 690 H 57.242 3.29881 5.93595 0
M  V30 691 H 55.188 1.11782 6.46406 0
M  V30 692 H 55.105 2.74956 7.04227 0
M  V30 693 H 56.373 1.70289 7.60672 0
M  V30 694 N 60.6021 -1.18246 1.0419 0
M  V30 695 C 61.8321 -1.91916 0.764961 0
M  V30 696 C 62.2401 -1.76485 -0.681898 0
M  V30 697 O 61.5831 -1.09275 -1.47664 0
M  V30 698 C 61.6451 -3.4373 1.05309 0
M  V30 699 C 61.3091 -3.8294 2.4941 0
M  V30 700 C 62.3061 -3.86621 3.47592 0
M  V30 701 C 59.9911 -4.142 2.84155 0
M  V30 702 C 61.9851 -4.21013 4.78568 0
M  V30 703 C 59.6721 -4.48262 4.15337 0
M  V30 704 C 60.6701 -4.51645 5.12353 0
M  V30 705 O 60.3581 -4.84911 6.41183 0
M  V30 706 H 60.0901 -0.61606 0.278292 0
M  V30 707 H 62.6441 -1.50947 1.39299 0
M  V30 708 H 60.8741 -3.84946 0.367933 0
M  V30 709 H 62.5631 -3.9865 0.763752 0
M  V30 710 H 63.3291 -3.62607 3.22089 0
M  V30 711 H 59.2081 -4.10743 2.09311 0
M  V30 712 H 62.7521 -4.23568 5.54289 0
M  V30 713 H 58.6491 -4.71737 4.40607 0
M  V30 714 H 59.4171 -5.02809 6.45852 0
M  V30 715 N 62.0802 -0.821533 -1.34494 0
M  V30 716 C 63.3052 -0.420873 -2.03085 0
M  V30 717 C 63.7302 0.964915 -1.61465 0
M  V30 718 O 63.0882 1.62763 -0.798607 0
M  V30 719 C 63.1362 -0.529414 -3.56693 0
M  V30 720 O 62.2402 0.451302 -4.09923 0
M  V30 721 H 61.5812 -0.173489 -0.640935 0
M  V30 722 H 64.1112 -1.11157 -1.71771 0
M  V30 723 H 64.1212 -0.404671 -4.05988 0
M  V30 724 H 62.7962 -1.54014 -3.86332 0
M  V30 725 H 61.3732 0.285558 -3.71805 0
M  V30 726 N 63.5583 1.46682 -0.576371 0
M  V30 727 C 64.8053 2.02412 -0.0595339 0
M  V30 728 C 65.1333 1.44859 1.29793 0
M  V30 729 O 64.3883 0.601099 1.8624 0
M  V30 730 C 64.6873 3.57345 0.062886 0
M  V30 731 C 64.3533 4.33908 -1.22616 0
M  V30 732 C 63.0153 4.54544 -1.57933 0
M  V30 733 C 65.3673 4.77919 -2.07948 0
M  V30 734 C 62.6953 5.16444 -2.78393 0
M  V30 735 C 65.0473 5.41149 -3.27629 0
M  V30 736 C 63.7113 5.60014 -3.63236 0
M  V30 737 H 62.9813 0.74068 -0.021785 0
M  V30 738 H 65.6283 1.76128 -0.751735 0
M  V30 739 H 63.9333 3.82729 0.838178 0
M  V30 740 H 65.6303 3.98136 0.478439 0
M  V30 741 H 62.2203 4.18138 -0.941202 0
M  V30 742 H 66.4043 4.61738 -1.81967 0
M  V30 743 H 61.6603 5.29242 -3.06126 0
M  V30 744 H 65.8343 5.74211 -3.94023 0
M  V30 745 H 63.4613 6.07748 -4.56669 0
M  V30 746 N 65.0364 0.313813 1.54444 0
M  V30 747 C 65.9664 -0.549454 2.26943 0
M  V30 748 C 66.9474 -1.12741 1.27372 0
M  V30 749 O 68.1324 -1.15436 1.56167 0
M  V30 750 C 65.2624 -1.71523 3.01989 0
M  V30 751 C 64.2164 -1.26703 4.08816 0
M  V30 752 C 63.5424 -2.51898 4.71647 0
M  V30 753 C 64.8424 -0.388962 5.2085 0
M  V30 754 H 66.5364 0.0552661 2.99349 0
M  V30 755 H 64.0824 0.0280207 1.43973 0
M  V30 756 H 66.0354 -2.32535 3.51433 0
M  V30 757 H 64.7594 -2.34639 2.27183 0
M  V30 758 H 63.4184 -0.679896 3.6024 0
M  V30 759 H 63.0664 -3.13356 3.93468 0
M  V30 760 H 62.7664 -2.22605 5.43802 0
M  V30 761 H 64.2904 -3.1369 5.23861 0
M  V30 762 H 65.7044 -0.905107 5.6611 0
M  V30 763 H 64.1014 -0.18924 5.99802 0
M  V30 764 H 65.1714 0.582699 4.81386 0
M  V30 765 N 66.5145 -1.57545 0.0417849 0
M  V30 766 C 67.4465 -2.07904 -0.964799 0
M  V30 767 C 68.4595 -1.00497 -1.28079 0
M  V30 768 O 69.6485 -1.28087 -1.24322 0
M  V30 769 C 66.7485 -2.49928 -2.28887 0
M  V30 770 C 65.9215 -3.80562 -2.15619 0
M  V30 771 C 64.9805 -4.08999 -3.31069 0
M  V30 772 O 64.0065 -4.79061 -3.0739 0
M  V30 773 N 65.2085 -3.6017 -4.55256 0
M  V30 774 H 67.9735 -2.94886 -0.535029 0
M  V30 775 H 65.5345 -1.61252 -0.144681 0
M  V30 776 H 67.5265 -2.66034 -3.04972 0
M  V30 777 H 66.0965 -1.68245 -2.63463 0
M  V30 778 H 65.3165 -3.74129 -1.24183 0
M  V30 779 H 66.6045 -4.66126 -2.03971 0
M  V30 780 H 66.0025 -3.03512 -4.77386 0
M  V30 781 H 64.5595 -3.81532 -5.28466 0
M  V30 782 N 67.9926 0.231505 -1.5589 0
M  V30 783 C 68.9406 1.30649 -1.92441 0
M  V30 784 C 69.9346 1.49037 -0.805254 0
M  V30 785 O 71.1406 1.50329 -0.990007 0
M  V30 786 H 67.5156 0.437812 -0.611412 0
M  V30 787 H 69.4866 0.970973 -2.82161 0
M  V30 788 C 68.2356 2.65179 -2.24889 0
M  V30 789 H 67.5586 2.51835 -3.10514 0
M  V30 790 H 68.9986 3.39234 -2.54355 0
M  V30 791 C 67.4576 3.19439 -1.07054 0
M  V30 792 O 67.9876 4.00371 -0.326499 0
M  V30 793 N 66.1936 2.77675 -0.85703 0
M  V30 794 H 65.7406 2.11969 -1.46379 0
M  V30 795 H 65.6986 3.14321 -0.0703223 0
M  V30 796 N 69.4707 1.49531 0.497807 0
M  V30 797 C 70.8817 1.52344 1.07927 0
M  V30 798 C 71.2327 0.311469 1.93712 0
M  V30 799 O 70.3577 -0.578405 2.08527 0
M  V30 800 C 70.9527 2.76062 1.96405 0
M  V30 801 C 69.5117 2.81643 2.49709 0
M  V30 802 C 68.6587 2.46299 1.27404 0
M  V30 803 H 71.6097 1.56182 0.281576 0
M  V30 804 H 71.6307 2.56405 2.81135 0
M  V30 805 H 71.1427 3.64254 1.33943 0
M  V30 806 H 69.2437 1.97739 3.15801 0
M  V30 807 H 69.3567 3.83891 2.86643 0
M  V30 808 H 67.7207 1.98148 1.60029 0
M  V30 809 H 68.5037 3.36769 0.66645 0
M  V30 810 N 70.9488 -0.749086 1.3866 0
M  V30 811 C 71.8808 -1.87273 1.32142 0
M  V30 812 C 72.8938 -1.61127 0.232787 0
M  V30 813 O 74.0828 -1.71623 0.49069 0
M  V30 814 C 71.1828 -3.23005 1.02571 0
M  V30 815 C 70.3558 -3.7662 2.22433 0
M  V30 816 C 69.4148 -4.90879 1.89537 0
M  V30 817 O 68.4408 -5.05276 2.62078 0
M  V30 818 N 69.6428 -5.74198 0.853031 0
M  V30 819 H 72.4078 -1.93373 2.28969 0
M  V30 820 H 69.9688 -0.929216 1.32579 0
M  V30 821 H 71.9608 -3.96992 0.786085 0
M  V30 822 H 70.5308 -3.12262 0.145249 0
M  V30 823 H 69.7508 -2.94147 2.62434 0
M  V30 824 H 71.0388 -4.09173 3.02415 0
M  V30 825 H 70.4368 -5.6514 0.25155 0
M  V30 826 H 68.9938 -6.48313 0.67329 0
M  V30 827 N 72.4269 -1.23603 -0.977757 0
M  V30 828 C 73.6549 -1.09646 -1.75458 0
M  V30 829 C 74.0699 0.351859 -1.85492 0
M  V30 830 O 73.4269 1.24327 -1.336 0
M  V30 831 C 73.4779 -1.71895 -3.18016 0
M  V30 832 O 73.1989 -3.11063 -3.08498 0
M  V30 833 C 74.6999 -1.63415 -4.12081 0
M  V30 834 H 71.9199 -0.38359 -0.550545 0
M  V30 835 H 74.4639 -1.63507 -1.22824 0
M  V30 836 H 72.6189 -1.22061 -3.67668 0
M  V30 837 H 73.0329 -3.41305 -3.9826 0
M  V30 838 H 74.5069 -2.11669 -5.09804 0
M  V30 839 H 74.9839 -0.593462 -4.35172 0
M  V30 840 H 75.5899 -2.12628 -3.68334 0
M  V30 841 N 73.905 1.17692 -1.04816 0
M  V30 842 C 75.13 1.92327 -0.776207 0
M  V30 843 C 75.555 1.76082 0.661581 0
M  V30 844 O 74.913 1.076 1.45917 0
M  V30 845 C 74.961 3.41539 -1.15687 0
M  V30 846 O 74.065 4.11402 -0.286775 0
M  V30 847 H 73.406 0.599735 -0.284981 0
M  V30 848 H 75.936 1.49201 -1.4 0
M  V30 849 H 75.946 3.92269 -1.12202 0
M  V30 850 H 74.621 3.52684 -2.20425 0
M  V30 851 H 73.198 3.70939 -0.381903 0
M  V30 852 N 75.3831 0.828654 1.34056 0
M  V30 853 C 76.3131 0.269443 2.3194 0
M  V30 854 C 77.2941 -0.617247 1.58506 0
M  V30 855 O 78.4791 -0.542931 1.86456 0
M  V30 856 C 75.6091 -0.564793 3.42677 0
M  V30 857 C 74.5631 0.225241 4.27407 0
M  V30 858 C 73.8891 -0.7321 5.29664 0
M  V30 859 C 75.1891 1.43663 5.02154 0
M  V30 860 H 76.8831 1.08728 2.7896 0
M  V30 861 H 74.4291 0.524283 1.34117 0
M  V30 862 H 76.3821 -0.966233 4.10173 0
M  V30 863 H 75.1061 -1.41574 2.9432 0
M  V30 864 H 73.7651 0.608117 3.61521 0
M  V30 865 H 73.4131 -1.57916 4.77568 0
M  V30 866 H 73.1131 -0.20767 5.87233 0
M  V30 867 H 74.6371 -1.13128 6.00029 0
M  V30 868 H 76.0511 1.1089 5.62473 0
M  V30 869 H 74.4481 1.89711 5.69324 0
M  V30 870 H 75.5181 2.21181 4.31517 0
M  V30 871 N 76.8612 -1.46375 0.584142 0
M  V30 872 C 78.1012 -2.0427 0.0729695 0
M  V30 873 C 78.4652 -1.44563 -1.26355 0
M  V30 874 O 79.6662 -1.93667 -1.86405 0
M  V30 875 C 77.9372 -3.57399 0.00967464 0
M  V30 876 S 79.4962 -4.36551 -0.443714 0
M  V30 877 H 76.3142 -0.709975 0.0381673 0
M  V30 878 H 78.9162 -1.79398 0.776962 0
M  V30 879 H 77.6202 -3.98372 0.986319 0
M  V30 880 H 77.1512 -3.8681 -0.717044 0
M  V30 881 H 79.1662 -4.66237 -1.69816 0
M  V30 882 N 78.3393 -0.321999 -1.54275 0
M  V30 883 C 79.5863 0.281044 -2.0054 0
M  V30 884 C 79.9143 1.52265 -1.21019 0
M  V30 885 O 79.1693 1.93687 -0.279982 0
M  V30 886 C 79.4683 0.661769 -3.5122 0
M  V30 887 C 79.1343 -0.480482 -4.48333 0
M  V30 888 C 77.7963 -0.794005 -4.74604 0
M  V30 889 C 80.1483 -1.24783 -5.06042 0
M  V30 890 C 77.4763 -1.87763 -5.55844 0
M  V30 891 C 79.8283 -2.32153 -5.88462 0
M  V30 892 C 78.4923 -2.64089 -6.13036 0
M  V30 893 H 77.7623 0.102841 -0.733829 0
M  V30 894 H 80.4093 -0.445453 -1.86247 0
M  V30 895 H 78.7143 1.46867 -3.63232 0
M  V30 896 H 80.4113 1.13989 -3.84457 0
M  V30 897 H 77.0013 -0.226039 -4.28004 0
M  V30 898 H 81.1853 -1.01887 -4.85729 0
M  V30 899 H 76.4413 -2.12954 -5.73115 0
M  V30 900 H 80.6153 -2.92057 -6.32199 0
M  V30 901 H 78.2423 -3.48185 -6.75775 0
M  V30 902 N 79.8174 1.5752 -0.0501392 0
M  V30 903 C 81.0424 1.97376 0.636997 0
M  V30 904 C 81.4674 0.927466 1.63645 0
M  V30 905 O 80.8254 -0.10941 1.8097 0
M  V30 906 C 80.8734 3.36304 1.30123 0
M  V30 907 O 79.9774 3.34156 2.41689 0
M  V30 908 H 79.3184 0.642998 0.165679 0
M  V30 909 H 81.8484 2.04258 -0.118233 0
M  V30 910 H 81.8584 3.73008 1.65315 0
M  V30 911 H 80.5334 4.11993 0.568746 0
M  V30 912 H 79.1104 3.09196 2.08451 0
M  V30 913 N 81.2955 -0.223234 1.56011 0
M  V30 914 C 82.2055 -1.29766 1.95443 0
M  V30 915 C 83.2215 -1.51373 0.858028 0
M  V30 916 O 84.3975 -1.64536 1.16146 0
M  V30 917 C 81.4625 -2.62772 2.26167 0
M  V30 918 C 80.5235 -2.49482 3.49367 0
M  V30 919 C 79.7565 -3.76145 3.78616 0
M  V30 920 O 79.9795 -4.79087 3.09568 0
M  V30 921 O 78.9135 -3.73358 4.72109 0
M  V30 922 H 82.7395 -0.99309 2.87004 0
M  V30 923 H 80.3245 -0.425958 1.43199 0
M  V30 924 H 82.2065 -3.41327 2.47131 0
M  V30 925 H 80.8815 -2.92913 1.37781 0
M  V30 926 H 79.7885 -1.69133 3.33684 0
M  V30 927 H 81.1215 -2.2428 4.38131 0
M  V30 928 N 82.7736 -1.49793 -0.48987 0
M  V30 929 C 83.9986 -1.63836 -1.27172 0
M  V30 930 C 84.4236 -0.31402 -1.8546 0
M  V30 931 O 83.7816 0.719803 -1.66399 0
M  V30 932 C 83.8296 -2.71797 -2.36978 0
M  V30 933 O 82.9336 -2.31744 -3.41128 0
M  V30 934 H 82.2746 -0.547997 -0.37496 0
M  V30 935 H 84.8046 -1.96053 -0.585191 0
M  V30 936 H 84.8146 -2.94305 -2.82575 0
M  V30 937 H 83.4896 -3.67923 -1.93921 0
M  V30 938 H 82.0666 -2.1961 -3.01373 0
M  V30 939 N 84.2517 0.741722 -1.39055 0
M  V30 940 C 85.5007 1.49656 -1.35225 0
M  V30 941 C 85.8137 1.95533 0.0512708 0
M  V30 942 O 87.0197 2.7067 0.212138 0
M  V30 943 C 85.4757 2.70389 -2.37525 0
M  V30 944 C 85.0837 2.31489 -3.83558 0
M  V30 945 C 86.8277 3.48236 -2.42759 0
M  V30 946 C 84.7347 3.48903 -4.77515 0
M  V30 947 H 83.6647 0.56197 -0.502699 0
M  V30 948 H 86.3157 0.809727 -1.64668 0
M  V30 949 H 84.6977 3.41113 -2.01142 0
M  V30 950 H 85.8717 1.68354 -4.28945 0
M  V30 951 H 84.1867 1.66749 -3.81554 0
M  V30 952 H 86.7837 4.35558 -3.1015 0
M  V30 953 H 87.1267 3.90229 -1.45008 0
M  V30 954 H 87.6597 2.84535 -2.78002 0
M  V30 955 H 84.3987 3.11966 -5.76504 0
M  V30 956 H 83.9187 4.11041 -4.36813 0
M  V30 957 H 85.5977 4.15328 -4.96096 0
M  V30 958 N 85.7298 1.2412 0.971189 0
M  V30 959 C 87.1408 1.07236 1.52831 0
M  V30 960 C 87.4918 -0.357352 1.92918 0
M  V30 961 O 86.6168 -1.24528 1.76979 0
M  V30 962 C 87.2118 1.94043 2.77728 0
M  V30 963 C 85.7708 1.81394 3.29808 0
M  V30 964 C 84.9178 1.89189 2.02738 0
M  V30 965 H 87.8688 1.37648 0.789864 0
M  V30 966 H 87.8898 1.47066 3.5093 0
M  V30 967 H 87.4018 2.98093 2.4852 0
M  V30 968 H 85.5028 0.801634 3.63874 0
M  V30 969 H 85.6158 2.65294 3.98944 0
M  V30 970 H 83.9798 1.32877 2.17292 0
M  V30 971 H 84.7628 2.94812 1.759 0
M  V30 972 N 87.2079 -1.17134 1.05439 0
M  V30 973 C 88.4359 -1.91372 0.786414 0
M  V30 974 C 88.8509 -1.76955 -0.658202 0
M  V30 975 O 88.2079 -1.10838 -1.44987 0
M  V30 976 C 88.2589 -3.42356 1.1608 0
M  V30 977 O 87.9799 -3.56332 2.54871 0
M  V30 978 C 89.4809 -4.33663 0.919322 0
M  V30 979 H 86.7009 -0.607118 0.285743 0
M  V30 980 H 89.2449 -1.48525 1.40572 0
M  V30 981 H 87.3999 -3.82939 0.586191 0
M  V30 982 H 87.8139 -4.49896 2.69618 0
M  V30 983 H 89.2879 -5.38099 1.231 0
M  V30 984 H 89.7649 -4.38959 -0.145359 0
M  V30 985 H 90.3709 -3.98796 1.47789 0
M  V30 986 N 88.686 -0.835752 -1.33615 0
M  V30 987 C 90.097 -0.487099 -1.80234 0
M  V30 988 C 90.448 0.993627 -1.69179 0
M  V30 989 O 89.573 1.77403 -1.23924 0
M  V30 990 C 90.168 -0.877385 -3.27242 0
M  V30 991 C 88.727 -0.580915 -3.7189 0
M  V30 992 C 87.874 -1.0874 -2.5509 0
M  V30 993 H 90.825 -1.02474 -1.2118 0
M  V30 994 H 90.846 -0.186195 -3.80044 0
M  V30 995 H 90.358 -1.95512 -3.35256 0
M  V30 996 H 88.459 0.486881 -3.69405 0
M  V30 997 H 88.572 -1.13396 -4.65487 0
M  V30 998 H 86.936 -0.508392 -2.49575 0
M  V30 999 H 87.719 -2.17184 -2.65868 0
M  V30 1000 N 90.1641 1.46063 -0.591896 0
M  V30 1001 C 91.3891 2.07226 -0.0850314 0
M  V30 1002 C 91.8141 1.43625 1.21463 0
M  V30 1003 O 91.1721 0.523305 1.73583 0
M  V30 1004 C 91.2201 3.60554 0.0576567 0
M  V30 1005 O 90.3241 3.97128 1.11188 0
M  V30 1006 H 89.6651 0.660615 -0.0669568 0
M  V30 1007 H 92.1951 1.8756 -0.81745 0
M  V30 1008 H 92.2051 4.07165 0.2609 0
M  V30 1009 H 90.8801 4.06235 -0.891416 0
M  V30 1010 H 89.4571 3.62213 0.886356 0
M  V30 1011 N 91.6422 0.330177 1.54103 0
M  V30 1012 C 92.5902 -0.548226 2.26047 0
M  V30 1013 C 93.5842 -1.11309 1.27698 0
M  V30 1014 O 94.7902 -1.06036 1.45452 0
M  V30 1015 H 91.1652 -0.195456 0.726155 0
M  V30 1016 H 93.1362 0.0807567 2.98291 0
M  V30 1017 C 91.8852 -1.69415 3.03634 0
M  V30 1018 H 91.2082 -1.26876 3.79134 0
M  V30 1019 H 92.6482 -2.28423 3.5721 0
M  V30 1020 C 91.1072 -2.61569 2.12328 0
M  V30 1021 O 91.6372 -3.63462 1.7105 0
M  V30 1022 N 89.8432 -2.29952 1.77681 0
M  V30 1023 H 89.3902 -1.47134 2.11446 0
M  V30 1024 H 89.3482 -2.91871 1.16869 0
M  V30 1025 N 93.1203 -1.57491 0.0584922 0
M  V30 1026 C 94.5363 -1.56792 -0.298091 0
M  V30 1027 C 94.7363 -1.06679 -1.70944 0
M  V30 1028 O 93.7923 -0.726672 -2.41818 0
M  V30 1029 C 95.1053 -3.00461 -0.119879 0
M  V30 1030 C 96.6533 -3.1242 -0.190428 0
M  V30 1031 C 97.1283 -4.57982 -0.0406567 0
M  V30 1032 N 98.6193 -4.63099 -0.0966958 0
M  V30 1033 C 99.3543 -5.734 -0.00502943 0
M  V30 1034 N 98.8503 -6.9266 0.139402 0
M  V30 1035 N 100.643 -5.62067 -0.0611391 0
M  V30 1036 H 92.7943 -1.88386 0.98105 0
M  V30 1037 H 95.0573 -0.867865 0.381463 0
M  V30 1038 H 94.7633 -3.41187 0.85349 0
M  V30 1039 H 94.6373 -3.66843 -0.877833 0
M  V30 1040 H 97.0243 -2.71589 -1.15427 0
M  V30 1041 H 97.1053 -2.48702 0.598405 0
M  V30 1042 H 96.7493 -4.995 0.919897 0
M  V30 1043 H 96.6793 -5.19715 -0.848727 0
M  V30 1044 H 99.1703 -3.77331 -0.207277 0
M  V30 1045 H 99.4833 -7.72536 0.201855 0
M  V30 1046 H 97.8283 -6.94781 0.174586 0
M  V30 1047 H 101.019 -4.67782 -0.172583 0
M  V30 1048 H 101.192 -6.47999 0.0137562 0
M  V30 1049 N 94.5984 0.214957 -1.56127 0
M  V30 1050 C 95.5084 1.28727 -1.96129 0
M  V30 1051 C 96.5244 1.50916 -0.866044 0
M  V30 1052 O 97.7004 1.63918 -1.17016 0
M  V30 1053 C 94.7654 2.61569 -2.27558 0
M  V30 1054 C 93.8264 2.47625 -3.50685 0
M  V30 1055 C 93.0594 3.74132 -3.80606 0
M  V30 1056 O 93.2824 4.77438 -3.12104 0
M  V30 1057 O 92.2164 3.70849 -4.74083 0
M  V30 1058 H 96.0424 0.977855 -2.87527 0
M  V30 1059 H 93.6274 0.418358 -1.43423 0
M  V30 1060 H 95.5094 3.40012 -2.48938 0
M  V30 1061 H 94.1844 2.92178 -1.39332 0
M  V30 1062 H 93.0914 1.67361 -3.34576 0
M  V30 1063 H 94.4244 2.21954 -4.39315 0
M  V30 1064 N 96.0765 1.50051 0.48192 0
M  V30 1065 C 96.9865 1.7089 1.60728 0
M  V30 1066 C 98.0025 0.591788 1.63627 0
M  V30 1067 O 99.1785 0.868817 1.81696 0
M  V30 1068 C 96.2435 1.78855 2.97005 0
M  V30 1069 C 95.3045 3.02537 3.04581 0
M  V30 1070 C 94.5375 3.10112 4.34357 0
M  V30 1071 O 94.7605 2.24765 5.24249 0
M  V30 1072 O 93.6945 4.02747 4.47301 0
M  V30 1073 H 97.5205 2.66264 1.46072 0
M  V30 1074 H 95.1055 1.34018 0.660264 0
M  V30 1075 H 96.9875 1.86336 3.77964 0
M  V30 1076 H 95.6625 0.866628 3.11883 0
M  V30 1077 H 94.5695 3.00563 2.22739 0
M  V30 1078 H 95.9025 3.94272 2.94636 0
M  V30 1079 N 97.5546 -0.734337 1.39446 0
M  V30 1080 C 98.7826 -1.52358 1.39981 0
M  V30 1081 C 99.1976 -1.88799 -0.0054975 0
M  V30 1082 O 98.5546 -1.54146 -0.976998 0
M  V30 1083 C 98.6056 -2.81072 2.27333 0
M  V30 1084 O 98.3266 -2.46178 3.62392 0
M  V30 1085 C 99.8276 -3.75096 2.36259 0
M  V30 1086 H 97.0476 -0.470806 0.478103 0
M  V30 1087 H 99.5916 -0.907339 1.83269 0
M  V30 1088 H 97.7466 -3.39026 1.87457 0
M  V30 1089 H 98.1606 -3.28866 4.08592 0
M  V30 1090 H 99.6346 -4.62305 3.01626 0
M  V30 1091 H 100.112 -4.16892 1.38194 0
M  V30 1092 H 100.718 -3.23061 2.76608 0
M  V30 1093 N 99.0327 -1.24633 -0.964593 0
M  V30 1094 C 99.9647 -0.999302 -2.06268 0
M  V30 1095 C 100.978 0.0323226 -1.62768 0
M  V30 1096 O 102.167 -0.205079 -1.77318 0
M  V30 1097 C 99.2667 -0.486816 -3.35385 0
M  V30 1098 C 98.4397 -1.5823 -4.07777 0
M  V30 1099 C 97.4987 -1.07191 -5.15166 0
M  V30 1100 O 96.5247 -1.76426 -5.41168 0
M  V30 1101 N 97.7267 0.0920373 -5.80427 0
M  V30 1102 H 100.492 -1.94477 -2.28033 0
M  V30 1103 H 98.0527 -1.15704 -1.13244 0
M  V30 1104 H 100.045 -0.130066 -4.04491 0
M  V30 1105 H 98.6147 0.364459 -3.10468 0
M  V30 1106 H 97.8347 -2.11109 -3.32906 0
M  V30 1107 H 99.1227 -2.31854 -4.52903 0
M  V30 1108 H 98.5207 0.670784 -5.61709 0
M  V30 1109 H 97.0777 0.389905 -6.50633 0
M  V30 1110 N 100.511 1.16574 -1.06058 0
M  V30 1111 C 101.443 2.2045 -0.627239 0
M  V30 1112 C 102.456 1.59752 0.313534 0
M  V30 1113 O 103.645 1.78192 0.104896 0
M  V30 1114 C 100.745 3.3875 0.100974 0
M  V30 1115 C 99.9178 4.29008 -0.852687 0
M  V30 1116 C 98.9768 5.25944 -0.164152 0
M  V30 1117 O 98.0028 5.63535 -0.801047 0
M  V30 1118 N 99.2048 5.70075 1.09518 0
M  V30 1119 H 101.97 2.58249 -1.52077 0
M  V30 1120 H 99.5308 1.3156 -0.943594 0
M  V30 1121 H 101.523 4.00638 0.57194 0
M  V30 1122 H 100.093 2.99476 0.89628 0
M  V30 1123 H 99.3128 3.64419 -1.50308 0
M  V30 1124 H 100.601 4.86195 -1.49972 0
M  V30 1125 H 99.9988 5.41624 1.6328 0
M  V30 1126 H 98.5558 6.34067 1.51006 0
M  V30 1127 N 101.989 0.842826 1.3317 0
M  V30 1128 C 102.936 0.276885 2.29133 0
M  V30 1129 C 103.906 -0.609527 1.54512 0
M  V30 1130 O 105.091 -0.546955 1.82792 0
M  V30 1131 C 102.231 -0.538707 3.40869 0
M  V30 1132 C 101.344 0.372169 4.30394 0
M  V30 1133 C 100.479 -0.454908 5.29249 0
M  V30 1134 C 99.5179 0.45411 6.10413 0
M  V30 1135 N 98.6549 -0.335075 7.013 0
M  V30 1136 H 103.495 1.10052 2.76934 0
M  V30 1137 H 101.032 0.554161 1.36262 0
M  V30 1138 H 102.99 -1.02709 4.0436 0
M  V30 1139 H 101.62 -1.32727 2.9425 0
M  V30 1140 H 100.672 0.97888 3.6759 0
M  V30 1141 H 101.984 1.0703 4.87182 0
M  V30 1142 H 101.138 -1.00695 5.98285 0
M  V30 1143 H 99.8769 -1.18646 4.73048 0
M  V30 1144 H 98.8819 1.01813 5.40291 0
M  V30 1145 H 100.107 1.18409 6.68697 0
M  V30 1146 H 98.0529 -1.04994 6.47543 0
M  V30 1147 H 97.9699 0.304262 7.55387 0
M  V30 1148 H 99.2379 -0.869224 7.74638 0
M  V30 1149 N 103.467 -1.45747 0.599634 0
M  V30 1150 C 104.692 -2.07178 0.0960198 0
M  V30 1151 C 105.117 -1.44268 -1.207 0
M  V30 1152 O 104.475 -0.532503 -1.73303 0
M  V30 1153 C 104.523 -3.60579 -0.0385348 0
M  V30 1154 O 103.627 -3.97713 -1.0908 0
M  V30 1155 H 102.968 -0.660251 0.0704593 0
M  V30 1156 H 105.498 -1.87124 0.827385 0
M  V30 1157 H 105.508 -4.07298 -0.239304 0
M  V30 1158 H 104.183 -4.05756 0.912947 0
M  V30 1159 H 102.76 -3.62678 -0.867135 0
M  V30 1160 N 104.945 -0.338344 -1.53925 0
M  V30 1161 C 105.893 0.536231 -2.26335 0
M  V30 1162 C 106.887 1.1063 -1.28286 0
M  V30 1163 O 108.093 1.05264 -1.46012 0
M  V30 1164 H 104.468 0.191602 -0.727181 0
M  V30 1165 H 106.439 -0.0965747 -2.98244 0
M  V30 1166 C 105.188 1.67803 -3.04528 0
M  V30 1167 H 104.511 1.24864 -3.79801 0
M  V30 1168 H 105.951 2.26526 -3.58416 0
M  V30 1169 C 104.41 2.60439 -2.13712 0
M  V30 1170 O 104.94 3.6255 -1.72975 0
M  V30 1171 N 103.146 2.29006 -1.78898 0
M  V30 1172 H 102.693 1.46011 -2.12223 0
M  V30 1173 H 102.651 2.91248 -1.18416 0
M  V30 1174 N 106.423 1.57458 -0.0668435 0
M  V30 1175 C 107.353 2.15468 0.899764 0
M  V30 1176 C 108.334 1.08042 1.31381 0
M  V30 1177 O 109.519 1.36054 1.38574 0
M  V30 1178 C 106.649 2.71232 2.16911 0
M  V30 1179 C 105.603 3.83781 1.89463 0
M  V30 1180 C 104.929 4.26127 3.22986 0
M  V30 1181 C 106.229 5.08238 1.20381 0
M  V30 1182 H 107.923 2.96488 0.416529 0
M  V30 1183 H 105.469 1.4262 0.198908 0
M  V30 1184 H 107.422 3.10458 2.84945 0
M  V30 1185 H 106.146 1.87426 2.67468 0
M  V30 1186 H 104.805 3.45051 1.23836 0
M  V30 1187 H 104.453 3.39249 3.71374 0
M  V30 1188 H 104.153 5.01993 3.05413 0
M  V30 1189 H 105.677 4.67966 3.92225 0
M  V30 1190 H 107.091 5.44811 1.78475 0
M  V30 1191 H 105.488 5.89349 1.13083 0
M  V30 1192 H 106.558 4.84558 0.182153 0
M  V30 1193 N 107.901 -0.206675 1.56239 0
M  V30 1194 C 108.811 -1.27686 1.96808 0
M  V30 1195 C 109.827 -1.50455 0.874035 0
M  V30 1196 O 111.003 -1.63295 1.17884 0
M  V30 1197 C 108.068 -2.60358 2.28942 0
M  V30 1198 C 107.129 -2.45762 3.51994 0
M  V30 1199 C 106.362 -3.72108 3.82585 0
M  V30 1200 O 106.585 -4.75776 3.14631 0
M  V30 1201 O 105.519 -3.6833 4.76043 0
M  V30 1202 H 109.345 -0.962593 2.88041 0
M  V30 1203 H 106.93 -0.410746 1.43643 0
M  V30 1204 H 108.812 -3.38687 2.50737 0
M  V30 1205 H 107.487 -2.91435 1.4088 0
M  V30 1206 H 106.394 -1.65584 3.35459 0
M  V30 1207 H 107.727 -2.19621 4.40486 0
M  V30 1208 N 109.379 -1.50304 -0.473955 0
M  V30 1209 C 110.309 -1.71886 -1.58042 0
M  V30 1210 C 111.29 -0.567799 -1.60344 0
M  V30 1211 O 112.475 -0.806623 -1.76656 0
M  V30 1212 C 109.605 -1.81036 -2.96384 0
M  V30 1213 C 108.559 -2.962 -3.08949 0
M  V30 1214 C 107.885 -2.9049 -4.48909 0
M  V30 1215 C 109.185 -4.36752 -2.86434 0
M  V30 1216 H 110.879 -2.64527 -1.40234 0
M  V30 1217 H 108.425 -1.27295 -0.673201 0
M  V30 1218 H 110.378 -1.94719 -3.73714 0
M  V30 1219 H 109.102 -0.850147 -3.15341 0
M  V30 1220 H 107.761 -2.82164 -2.3405 0
M  V30 1221 H 107.409 -1.92321 -4.64781 0
M  V30 1222 H 107.109 -3.67802 -4.58253 0
M  V30 1223 H 108.633 -3.06218 -5.28264 0
M  V30 1224 H 110.047 -4.5133 -3.53517 0
M  V30 1225 H 108.444 -5.15493 -3.07225 0
M  V30 1226 H 109.514 -4.49321 -1.82316 0
M  V30 1227 N 110.857 0.726932 -1.39834 0
M  V30 1228 C 111.787 1.85405 -1.41941 0
M  V30 1229 C 112.768 1.67751 -0.281728 0
M  V30 1230 O 113.953 1.8795 -0.488717 0
M  V30 1231 C 111.083 3.23243 -1.2701 0
M  V30 1232 C 110.037 3.55549 -2.38262 0
M  V30 1233 C 109.363 4.9241 -2.08415 0
M  V30 1234 C 110.663 3.577 -3.80589 0
M  V30 1235 H 112.357 1.83899 -2.36266 0
M  V30 1236 H 109.903 0.883349 -1.13723 0
M  V30 1237 H 111.856 4.01775 -1.27103 0
M  V30 1238 H 110.58 3.25296 -0.291564 0
M  V30 1239 H 109.239 2.79351 -2.37399 0
M  V30 1240 H 108.887 4.91052 -1.0898 0
M  V30 1241 H 108.587 5.14992 -2.82943 0
M  V30 1242 H 110.111 5.73289 -2.10171 0
M  V30 1243 H 111.525 4.26293 -3.83337 0
M  V30 1244 H 109.922 3.91804 -4.54543 0
M  V30 1245 H 110.992 2.57328 -4.10987 0
M  V30 1246 N 112.336 1.25143 0.95797 0
M  V30 1247 C 113.752 1.01892 1.22842 0
M  V30 1248 C 113.952 -0.266311 1.99732 0
M  V30 1249 O 113.008 -0.979913 2.3271 0
M  V30 1250 C 114.321 2.24004 2.00606 0
M  V30 1251 C 115.869 2.28731 2.13662 0
M  V30 1252 C 116.344 3.5049 2.94823 0
M  V30 1253 N 117.835 3.50866 3.02403 0
M  V30 1254 C 118.57 4.4174 3.65586 0
M  V30 1255 N 118.066 5.42882 4.30408 0
M  V30 1256 N 119.859 4.29429 3.62694 0
M  V30 1257 H 112.01 2.07718 0.443493 0
M  V30 1258 H 114.273 0.912031 0.258657 0
M  V30 1259 H 113.979 3.17395 1.51503 0
M  V30 1260 H 113.853 2.26907 3.01319 0
M  V30 1261 H 116.24 1.35865 2.61963 0
M  V30 1262 H 116.321 2.29848 1.12265 0
M  V30 1263 H 115.965 4.43676 2.47213 0
M  V30 1264 H 115.895 3.46617 3.96439 0
M  V30 1265 H 118.386 2.777 2.56302 0
M  V30 1266 H 118.699 6.0844 4.76467 0
M  V30 1267 H 117.044 5.46758 4.29047 0
M  V30 1268 H 120.235 3.49643 3.11236 0
M  V30 1269 H 120.408 5.00448 4.1165 0
M  V30 1270 N 113.814 -1.1601 1.06675 0
M  V30 1271 C 115.063 -1.85973 0.780818 0
M  V30 1272 C 115.376 -1.82819 -0.695444 0
M  V30 1273 O 116.582 -2.484 -1.09589 0
M  V30 1274 C 115.038 -3.33757 1.34665 0
M  V30 1275 C 114.646 -3.45374 2.85343 0
M  V30 1276 C 116.39 -4.0895 1.13843 0
M  V30 1277 C 114.297 -4.87266 3.35151 0
M  V30 1278 H 113.227 -0.696661 0.288407 0
M  V30 1279 H 115.878 -1.30903 1.28595 0
M  V30 1280 H 114.26 -3.88456 0.769274 0
M  V30 1281 H 115.434 -3.00816 3.49065 0
M  V30 1282 H 113.749 -2.83619 3.04876 0
M  V30 1283 H 116.346 -5.13654 1.4854 0
M  V30 1284 H 116.689 -4.16229 0.0770282 0
M  V30 1285 H 117.222 -3.605 1.68179 0
M  V30 1286 H 113.961 -4.85168 4.40786 0
M  V30 1287 H 113.481 -5.32433 2.76179 0
M  V30 1288 H 115.16 -5.56097 3.30704 0
M  V30 1289 N 115.292 -0.849877 -1.32721 0
M  V30 1290 C 116.517 -0.463856 -2.02146 0
M  V30 1291 C 116.942 0.930449 -1.63476 0
M  V30 1292 O 116.3 1.61033 -0.832952 0
M  V30 1293 C 116.348 -0.604955 -3.55489 0
M  V30 1294 O 115.452 0.36425 -4.10788 0
M  V30 1295 H 114.793 -0.187046 -0.637111 0
M  V30 1296 H 117.323 -1.14775 -1.69375 0
M  V30 1297 H 117.333 -0.490696 -4.05038 0
M  V30 1298 H 116.008 -1.62174 -3.82978 0
M  V30 1299 H 114.585 0.206628 -3.72327 0
M  V30 1300 N 116.77 1.45427 -0.607355 0
M  V30 1301 C 117.7 2.3329 0.0989352 0
M  V30 1302 C 118.681 1.46816 0.859007 0
M  V30 1303 O 119.866 1.75588 0.829604 0
M  V30 1304 C 116.996 3.29518 1.09705 0
M  V30 1305 C 115.95 4.25626 0.450206 0
M  V30 1306 C 115.276 5.11542 1.55655 0
M  V30 1307 C 116.576 5.18505 -0.628455 0
M  V30 1308 H 118.27 2.92595 -0.634716 0
M  V30 1309 H 115.816 1.40696 -0.306681 0
M  V30 1310 H 117.769 3.89855 1.59971 0
M  V30 1311 H 116.493 2.68372 1.86129 0
M  V30 1312 H 115.152 3.66586 -0.0315886 0
M  V30 1313 H 114.8 4.46765 2.31107 0
M  V30 1314 H 114.5 5.76647 1.12925 0
M  V30 1315 H 116.024 5.74748 2.06148 0
M  V30 1316 H 117.438 5.72916 -0.209877 0
M  V30 1317 H 115.835 5.92085 -0.977489 0
M  V30 1318 H 116.905 4.60948 -1.50514 0
M  V30 1319 N 118.248 0.346503 1.53744 0
M  V30 1320 C 119.178 -0.501193 2.28058 0
M  V30 1321 C 120.159 -1.10014 1.29734 0
M  V30 1322 O 121.344 -1.12097 1.58581 0
M  V30 1323 C 118.474 -1.65078 3.05559 0
M  V30 1324 C 117.428 -1.18003 4.11411 0
M  V30 1325 C 116.754 -2.41837 4.76884 0
M  V30 1326 C 118.054 -0.278394 5.21558 0
M  V30 1327 H 119.748 0.11875 2.99164 0
M  V30 1328 H 117.294 0.0585531 1.43881 0
M  V30 1329 H 119.247 -2.25028 3.56287 0
M  V30 1330 H 117.971 -2.29767 2.32109 0
M  V30 1331 H 116.63 -0.603331 3.61601 0
M  V30 1332 H 116.278 -3.0494 4.00026 0
M  V30 1333 H 115.978 -2.1102 5.48402 0
M  V30 1334 H 117.502 -3.02508 5.30397 0
M  V30 1335 H 118.916 -0.784823 5.67903 0
M  V30 1336 H 117.313 -0.0619707 6.00068 0
M  V30 1337 H 118.383 0.684677 4.80042 0
M  V30 1338 N 119.726 -1.57421 0.075193 0
M  V30 1339 C 120.656 -2.15942 -0.888324 0
M  V30 1340 C 121.637 -1.08737 -1.30806 0
M  V30 1341 O 122.822 -1.36787 -1.37851 0
M  V30 1342 C 119.952 -2.72379 -2.1547 0
M  V30 1343 C 118.906 -3.8478 -1.87425 0
M  V30 1344 C 118.232 -4.27834 -3.20721 0
M  V30 1345 C 119.532 -5.08869 -1.17684 0
M  V30 1346 H 121.226 -2.96705 -0.400799 0
M  V30 1347 H 118.772 -1.42723 -0.191342 0
M  V30 1348 H 120.725 -3.11965 -2.83295 0
M  V30 1349 H 119.449 -1.88841 -2.6647 0
M  V30 1350 H 118.108 -3.45703 -1.22004 0
M  V30 1351 H 117.756 -3.41214 -3.6957 0
M  V30 1352 H 117.456 -5.03605 -3.02746 0
M  V30 1353 H 118.98 -4.70039 -3.89738 0
M  V30 1354 H 120.394 -5.4575 -1.75584 0
M  V30 1355 H 118.791 -5.8994 -1.09956 0
M  V30 1356 H 119.861 -4.84648 -0.156453 0
M  V30 1357 N 121.204 0.198386 -1.56346 0
M  V30 1358 C 122.453 0.917451 -1.79627 0
M  V30 1359 C 122.766 1.8456 -0.64784 0
M  V30 1360 O 123.972 2.60504 -0.764859 0
M  V30 1361 C 122.428 1.68175 -3.18191 0
M  V30 1362 C 122.036 0.798589 -4.40825 0
M  V30 1363 C 123.78 2.39065 -3.50782 0
M  V30 1364 C 121.687 1.56157 -5.70411 0
M  V30 1365 H 120.617 0.346317 -0.669762 0
M  V30 1366 H 123.268 0.170801 -1.82703 0
M  V30 1367 H 121.65 2.47216 -3.09354 0
M  V30 1368 H 122.824 0.0470665 -4.60776 0
M  V30 1369 H 121.139 0.200686 -4.15916 0
M  V30 1370 H 123.736 2.96692 -4.44835 0
M  V30 1371 H 124.079 3.13091 -2.74371 0
M  V30 1372 H 124.612 1.66993 -3.61052 0
M  V30 1373 H 121.351 0.864142 -6.49779 0
M  V30 1374 H 120.871 2.2871 -5.54483 0
M  V30 1375 H 122.55 2.11622 -6.11412 0
M  V30 1376 N 122.682 1.50554 0.465978 0
M  V30 1377 C 123.614 1.65949 1.58093 0
M  V30 1378 C 124.627 0.540827 1.53554 0
M  V30 1379 O 125.816 0.814187 1.5885 0
M  V30 1380 C 122.916 1.63261 2.96983 0
M  V30 1381 C 122.089 2.91245 3.26336 0
M  V30 1382 C 121.148 2.8113 4.44806 0
M  V30 1383 O 120.174 3.55086 4.44862 0
M  V30 1384 N 121.376 1.95032 5.46756 0
M  V30 1385 H 124.141 2.62122 1.45301 0
M  V30 1386 H 121.702 1.48082 0.65448 0
M  V30 1387 H 123.694 1.54101 3.74212 0
M  V30 1388 H 122.264 0.748032 3.03518 0
M  V30 1389 H 121.484 3.14493 2.37672 0
M  V30 1390 H 122.772 3.76022 3.42761 0
M  V30 1391 H 122.17 1.3427 5.49534 0
M  V30 1392 H 120.727 1.91772 6.2295 0
M  V30 1393 N 124.16 -0.719506 1.40217 0
M  V30 1394 C 125.385 -1.51371 1.4178 0
M  V30 1395 C 125.81 -1.88091 0.0182355 0
M  V30 1396 O 125.168 -1.52997 -0.972707 0
M  V30 1397 C 125.216 -2.768 2.31115 0
M  V30 1398 O 124.32 -3.73349 1.7517 0
M  V30 1399 H 123.661 -0.456529 0.482159 0
M  V30 1400 H 126.191 -0.88644 1.844 0
M  V30 1401 H 126.201 -3.25371 2.46167 0
M  V30 1402 H 124.876 -2.49407 3.3282 0
M  V30 1403 H 123.453 -3.32179 1.69444 0
M  V30 1404 N 125.638 -1.25649 -0.95132 0
M  V30 1405 C 126.884 -1.11766 -1.69941 0
M  V30 1406 C 127.239 0.33735 -1.89419 0
M  V30 1407 O 126.532 1.24491 -1.45645 0
M  V30 1408 C 126.726 -1.80909 -3.08231 0
M  V30 1409 C 126.555 -3.32984 -3.02245 0
M  V30 1410 C 125.325 -4.02247 -3.05819 0
M  V30 1411 C 127.523 -4.29332 -2.83157 0
M  V30 1412 N 125.505 -5.41072 -2.90024 0
M  V30 1413 C 126.876 -5.55265 -2.75828 0
M  V30 1414 C 128.931 -4.19707 -2.67863 0
M  V30 1415 C 127.634 -6.72671 -2.54767 0
M  V30 1416 C 129.66 -5.36809 -2.48173 0
M  V30 1417 C 129.022 -6.61683 -2.41567 0
M  V30 1418 H 125.121 -0.463708 -0.629682 0
M  V30 1419 H 127.705 -1.58796 -1.12659 0
M  V30 1420 H 125.876 -1.36369 -3.63673 0
M  V30 1421 H 127.608 -1.59739 -3.71841 0
M  V30 1422 H 124.363 -3.53531 -3.15139 0
M  V30 1423 H 124.787 -6.13938 -2.85323 0
M  V30 1424 H 129.429 -3.23907 -2.71743 0
M  V30 1425 H 127.147 -7.68577 -2.49629 0
M  V30 1426 H 130.733 -5.31224 -2.37259 0
M  V30 1427 H 129.613 -7.50768 -2.26531 0
M  V30 1428 N 127.117 1.15442 -1.07289 0
M  V30 1429 C 128.047 2.22312 -0.714107 0
M  V30 1430 C 129.028 1.67467 0.298155 0
M  V30 1431 O 130.213 1.93445 0.171048 0
M  V30 1432 C 127.343 3.47124 -0.110448 0
M  V30 1433 C 126.297 4.14926 -1.04979 0
M  V30 1434 C 125.623 5.33807 -0.308924 0
M  V30 1435 C 126.923 4.64762 -2.38314 0
M  V30 1436 H 128.617 2.5258 -1.6076 0
M  V30 1437 H 126.163 1.21404 -0.77441 0
M  V30 1438 H 128.116 4.21124 0.152482 0
M  V30 1439 H 126.84 3.16187 0.81812 0
M  V30 1440 H 125.499 3.42866 -1.29764 0
M  V30 1441 H 125.147 4.99126 0.623084 0
M  V30 1442 H 124.847 5.80113 -0.935036 0
M  V30 1443 H 126.371 6.10576 -0.0537771 0
M  V30 1444 H 127.785 5.30292 -2.1786 0
M  V30 1445 H 126.182 5.21728 -2.96514 0
M  V30 1446 H 127.252 3.80434 -3.00663 0
M  V30 1447 N 128.595 0.856903 1.32268 0
M  V30 1448 C 129.505 0.306131 2.32594 0
M  V30 1449 C 130.521 -0.577209 1.64147 0
M  V30 1450 O 131.697 -0.477043 1.95669 0
M  V30 1451 C 128.762 -0.494561 3.43154 0
M  V30 1452 C 127.823 0.415186 4.27288 0
M  V30 1453 C 127.056 -0.347387 5.32568 0
M  V30 1454 O 127.279 -1.57708 5.48165 0
M  V30 1455 O 126.213 0.287982 6.01211 0
M  V30 1456 H 130.039 1.13737 2.81598 0
M  V30 1457 H 127.624 0.619902 1.35932 0
M  V30 1458 H 129.506 -0.948944 4.10576 0
M  V30 1459 H 128.181 -1.30257 2.96336 0
M  V30 1460 H 127.088 0.917793 3.62667 0
M  V30 1461 H 128.421 1.18844 4.77637 0
M  V30 1462 N 130.073 -1.45103 0.615059 0
M  V30 1463 C 131.484 -1.85654 0.197383 0
M  V30 1464 C 131.835 -1.51433 -1.24749 0
M  V30 1465 O 130.96 -0.944608 -1.94695 0
M  V30 1466 C 131.555 -3.36972 0.351448 0
M  V30 1467 C 130.114 -3.76398 -0.011593 0
M  V30 1468 C 129.261 -2.69024 0.672394 0
M  V30 1469 H 132.212 -1.35797 0.821263 0
M  V30 1470 H 132.233 -3.78239 -0.414227 0
M  V30 1471 H 131.745 -3.61847 1.40314 0
M  V30 1472 H 129.846 -3.5714 -1.06217 0
M  V30 1473 H 129.959 -4.77532 0.387265 0
M  V30 1474 H 128.323 -2.54465 0.109284 0
M  V30 1475 H 129.106 -2.96735 1.72636 0
M  V30 1476 N 131.551 -0.354651 -1.53558 0
M  V30 1477 C 132.797 0.238797 -2.01389 0
M  V30 1478 C 133.13 1.49309 -1.2418 0
M  V30 1479 O 132.405 1.91638 -0.332457 0
M  V30 1480 C 132.688 0.541771 -3.56001 0
M  V30 1481 C 132.541 -0.725388 -4.43912 0
M  V30 1482 C 133.86 1.34685 -4.18984 0
M  V30 1483 H 130.979 0.0853177 -0.732045 0
M  V30 1484 H 133.621 -0.477384 -1.83905 0
M  V30 1485 H 131.771 1.15189 -3.71031 0
M  V30 1486 H 133.443 -1.36313 -4.407 0
M  V30 1487 H 131.686 -1.34801 -4.12324 0
M  V30 1488 H 132.357 -0.468505 -5.50008 0
M  V30 1489 H 134.833 0.830837 -4.07721 0
M  V30 1490 H 133.709 1.52759 -5.27215 0
M  V30 1491 H 133.97 2.35221 -3.74331 0
M  V30 1492 N 133.029 1.57378 -0.0835403 0
M  V30 1493 C 133.961 2.10389 0.909338 0
M  V30 1494 C 134.974 1.03858 1.25369 0
M  V30 1495 O 136.163 1.31338 1.20882 0
M  V30 1496 C 133.263 2.55908 2.2218 0
M  V30 1497 C 132.436 3.86145 2.05453 0
M  V30 1498 C 131.495 4.17633 3.20108 0
M  V30 1499 O 130.521 4.87043 2.94581 0
M  V30 1500 N 131.723 3.72113 4.45547 0
M  V30 1501 H 134.488 2.962 0.456657 0
M  V30 1502 H 132.049 1.61579 0.101877 0
M  V30 1503 H 134.041 2.74027 2.97811 0
M  V30 1504 H 132.611 1.75171 2.58909 0
M  V30 1505 H 131.831 3.7729 1.1422 0
M  V30 1506 H 133.119 4.7137 1.91541 0
M  V30 1507 H 132.517 3.16062 4.69171 0
M  V30 1508 H 131.074 3.95409 5.18165 0
M  V30 1509 N 134.507 -0.190092 1.56449 0
M  V30 1510 C 135.754 -0.909705 1.80916 0
M  V30 1511 C 136.082 -1.83047 0.657583 0
M  V30 1512 O 135.337 -1.92428 -0.356356 0
M  V30 1513 C 135.636 -1.75382 3.1141 0
M  V30 1514 C 135.302 -0.983606 4.40041 0
M  V30 1515 C 133.964 -0.770967 4.74984 0
M  V30 1516 C 136.316 -0.442024 5.19322 0
M  V30 1517 C 133.644 -0.0053448 5.867 0
M  V30 1518 C 135.996 0.310412 6.31838 0
M  V30 1519 C 134.66 0.534023 6.6536 0
M  V30 1520 H 133.93 -0.332885 0.662019 0
M  V30 1521 H 136.577 -0.175762 1.90692 0
M  V30 1522 H 134.882 -2.55659 2.96893 0
M  V30 1523 H 136.579 -2.31331 3.27547 0
M  V30 1524 H 133.169 -1.15936 4.12622 0
M  V30 1525 H 137.353 -0.593693 4.92736 0
M  V30 1526 H 132.609 0.177825 6.11141 0
M  V30 1527 H 136.783 0.737419 6.92485 0
M  V30 1528 H 134.41 1.12918 7.51767 0
M  V30 1529 N 135.985 -1.50799 -0.457987 0
M  V30 1530 C 136.915 -1.73553 -1.5621 0
M  V30 1531 C 137.896 -0.584774 -1.59732 0
M  V30 1532 O 139.081 -0.825314 -1.7579 0
M  V30 1533 C 136.211 -1.84169 -2.94447 0
M  V30 1534 C 135.165 -2.99461 -3.0579 0
M  V30 1535 C 134.491 -2.95235 -4.45803 0
M  V30 1536 C 135.791 -4.39766 -2.81786 0
M  V30 1537 H 137.485 -2.66 -1.37421 0
M  V30 1538 H 135.031 -1.28002 -0.659662 0
M  V30 1539 H 136.984 -1.98672 -3.71628 0
M  V30 1540 H 135.708 -0.883545 -3.14422 0
M  V30 1541 H 134.367 -2.8463 -2.31044 0
M  V30 1542 H 134.015 -1.97239 -4.62715 0
M  V30 1543 H 133.715 -3.72642 -4.54326 0
M  V30 1544 H 135.239 -3.11803 -5.24987 0
M  V30 1545 H 136.653 -4.55054 -3.4871 0
M  V30 1546 H 135.05 -5.18722 -3.0174 0
M  V30 1547 H 136.12 -4.51229 -1.7754 0
M  V30 1548 N 137.463 0.71206 -1.40597 0
M  V30 1549 C 138.879 1.02058 -1.22704 0
M  V30 1550 C 139.079 2.01228 -0.104729 0
M  V30 1551 O 138.135 2.4674 0.53624 0
M  V30 1552 C 139.448 1.56094 -2.57012 0
M  V30 1553 C 140.996 1.6806 -2.64054 0
M  V30 1554 C 141.471 2.25501 -3.9864 0
M  V30 1555 N 142.962 2.32882 -4.004 0
M  V30 1556 C 143.697 2.78317 -5.01325 0
M  V30 1557 N 143.193 3.23478 -6.12645 0
M  V30 1558 N 144.986 2.77733 -4.88693 0
M  V30 1559 H 137.137 0.0547896 -2.12329 0
M  V30 1560 H 139.4 0.0869027 -0.944008 0
M  V30 1561 H 139.106 0.906865 -3.39807 0
M  V30 1562 H 138.98 2.54564 -2.78347 0
M  V30 1563 H 141.367 2.32583 -1.81629 0
M  V30 1564 H 141.448 0.681802 -2.46546 0
M  V30 1565 H 141.092 1.61598 -4.81506 0
M  V30 1566 H 141.022 3.26102 -4.13479 0
M  V30 1567 H 143.513 2.00991 -3.20017 0
M  V30 1568 H 143.826 3.56725 -6.85542 0
M  V30 1569 H 142.171 3.21429 -6.16205 0
M  V30 1570 H 145.362 2.4179 -4.00818 0
M  V30 1571 H 145.535 3.12826 -5.67489 0
M  V30 1572 N 138.941 1.26152 0.944643 0
M  V30 1573 C 140.166 1.14363 1.7302 0
M  V30 1574 C 140.591 -0.29772 1.85729 0
M  V30 1575 O 139.949 -1.2157 1.34501 0
M  V30 1576 C 139.997 1.81378 3.11664 0
M  V30 1577 O 139.101 1.10022 3.97453 0
M  V30 1578 H 138.442 0.398694 0.53098 0
M  V30 1579 H 140.972 1.66906 1.18337 0
M  V30 1580 H 140.982 1.88064 3.62072 0
M  V30 1581 H 139.657 2.86237 3.0173 0
M  V30 1582 H 138.234 1.11287 3.55907 0
M  V30 1583 N 140.419 -1.14872 1.07899 0
M  V30 1584 C 141.665 -1.86064 0.806725 0
M  V30 1585 C 141.998 -1.82434 -0.665706 0
M  V30 1586 O 141.273 -1.25138 -1.48899 0
M  V30 1587 C 141.556 -3.34929 1.32267 0
M  V30 1588 C 141.409 -3.47161 2.86006 0
M  V30 1589 C 142.728 -4.29863 0.943717 0
M  V30 1590 H 139.847 -0.675591 0.294526 0
M  V30 1591 H 142.489 -1.34925 1.33773 0
M  V30 1592 H 140.639 -3.78611 0.870974 0
M  V30 1593 H 142.311 -3.12302 3.39507 0
M  V30 1594 H 140.554 -2.88539 3.23925 0
M  V30 1595 H 141.225 -4.51777 3.17177 0
M  V30 1596 H 143.701 -3.9417 1.33302 0
M  V30 1597 H 142.577 -5.32494 1.33198 0
M  V30 1598 H 142.838 -4.41846 -0.149796 0
M  V30 1599 N 141.898 -0.863906 -1.31812 0
M  V30 1600 C 143.145 -0.471836 -1.96926 0
M  V30 1601 C 143.473 0.974578 -1.68322 0
M  V30 1602 O 142.728 1.7003 -0.968933 0
M  V30 1603 C 143.027 -0.668547 -3.51091 0
M  V30 1604 C 142.693 -2.08683 -3.99703 0
M  V30 1605 C 141.355 -2.47471 -4.12688 0
M  V30 1606 C 143.707 -3.01207 -4.25351 0
M  V30 1607 C 141.035 -3.78037 -4.4867 0
M  V30 1608 C 143.387 -4.31282 -4.62794 0
M  V30 1609 C 142.051 -4.69992 -4.73987 0
M  V30 1610 H 141.321 -0.172657 -0.720604 0
M  V30 1611 H 143.968 -1.09573 -1.57054 0
M  V30 1612 H 142.273 0.0385252 -3.91781 0
M  V30 1613 H 143.97 -0.345102 -3.99512 0
M  V30 1614 H 140.56 -1.77566 -3.90087 0
M  V30 1615 H 144.744 -2.72469 -4.14819 0
M  V30 1616 H 140 -4.078 -4.55532 0
M  V30 1617 H 144.174 -5.03031 -4.81594 0
M  V30 1618 H 141.801 -5.71207 -5.01624 0
M  V30 1619 N 143.376 1.44774 -0.622745 0
M  V30 1620 C 144.339 2.29069 0.0774015 0
M  V30 1621 C 145.339 1.4059 0.780461 0
M  V30 1622 O 146.529 1.62551 0.626322 0
M  V30 1623 C 143.661 3.21974 1.12006 0
M  V30 1624 H 144.854 2.92459 -0.663901 0
M  V30 1625 H 142.407 1.51548 -0.382486 0
M  V30 1626 H 143.142 2.63417 1.89162 0
M  V30 1627 H 142.927 3.87168 0.619951 0
M  V30 1628 H 144.417 3.85318 1.60995 0
M  V30 1629 N 144.854 0.36279 1.53368 0
M  V30 1630 C 145.802 -0.500155 2.27159 0
M  V30 1631 C 146.796 -1.08575 1.3003 0
M  V30 1632 O 148.002 -1.02927 1.47668 0
M  V30 1633 H 144.377 -0.180009 0.730138 0
M  V30 1634 H 146.348 0.14401 2.98052 0
M  V30 1635 C 145.097 -1.62937 3.07159 0
M  V30 1636 H 144.42 -1.18806 3.8174 0
M  V30 1637 H 145.86 -2.20795 3.61975 0
M  V30 1638 C 144.319 -2.57007 2.17829 0
M  V30 1639 O 144.849 -3.59752 1.78721 0
M  V30 1640 N 143.055 -2.26131 1.82518 0
M  V30 1641 H 142.602 -1.42616 2.14519 0
M  V30 1642 H 142.56 -2.89327 1.23034 0
M  V30 1643 N 146.332 -1.57332 0.0918853 0
M  V30 1644 C 147.557 -1.98995 -0.584442 0
M  V30 1645 C 147.982 -0.970528 -1.61128 0
M  V30 1646 O 147.34 0.0613904 -1.81196 0
M  V30 1647 C 147.388 -3.39636 -1.21161 0
M  V30 1648 O 146.492 -3.40447 -2.32744 0
M  V30 1649 H 145.833 -0.647165 -0.148572 0
M  V30 1650 H 148.363 -2.03873 0.172347 0
M  V30 1651 H 148.373 -3.7726 -1.55367 0
M  V30 1652 H 147.048 -4.13356 -0.459313 0
M  V30 1653 H 145.625 -3.14614 -2.0018 0
M  V30 1654 N 147.81 0.181792 -1.56548 0
M  V30 1655 C 148.74 1.22765 -1.98623 0
M  V30 1656 C 149.721 1.46747 -0.860189 0
M  V30 1657 O 150.906 1.58259 -1.12551 0
M  V30 1658 C 148.036 2.56894 -2.33715 0
M  V30 1659 C 146.99 2.475 -3.49182 0
M  V30 1660 C 146.316 3.86023 -3.69986 0
M  V30 1661 C 147.616 1.98866 -4.82959 0
M  V30 1662 H 149.31 0.877942 -2.86239 0
M  V30 1663 H 146.856 0.42088 -1.37712 0
M  V30 1664 H 148.809 3.30253 -2.61746 0
M  V30 1665 H 147.533 2.93632 -1.42997 0
M  V30 1666 H 146.192 1.76596 -3.21262 0
M  V30 1667 H 145.84 4.20136 -2.76576 0
M  V30 1668 H 145.54 3.80609 -4.47672 0
M  V30 1669 H 147.064 4.60984 -4.00407 0
M  V30 1670 H 148.478 2.61992 -5.09934 0
M  V30 1671 H 146.875 2.04424 -5.64208 0
M  V30 1672 H 147.945 0.942465 -4.75653 0
M  V30 1673 N 149.288 1.51039 0.449983 0
M  V30 1674 C 150.534 1.63322 1.20223 0
M  V30 1675 C 150.867 0.34241 1.91158 0
M  V30 1676 O 150.142 -0.657344 1.83055 0
M  V30 1677 C 150.425 2.82801 2.22925 0
M  V30 1678 C 150.278 4.21823 1.56157 0
M  V30 1679 C 151.597 2.97807 3.24035 0
M  V30 1680 H 148.716 0.594407 0.435718 0
M  V30 1681 H 151.358 1.83489 0.493136 0
M  V30 1682 H 149.508 2.65738 2.834 0
M  V30 1683 H 151.18 4.50526 0.991162 0
M  V30 1684 H 149.423 4.25105 0.864172 0
M  V30 1685 H 150.094 5.01391 2.30891 0
M  V30 1686 H 152.57 3.13497 2.73603 0
M  V30 1687 H 151.446 3.82992 3.93202 0
M  V30 1688 H 151.707 2.09328 3.89402 0
M  V30 1689 N 150.766 -0.704594 1.40972 0
M  V30 1690 C 151.996 -1.49138 1.42974 0
M  V30 1691 C 152.404 -1.89175 0.0308406 0
M  V30 1692 O 151.747 -1.56734 -0.958138 0
M  V30 1693 C 151.809 -2.79016 2.26694 0
M  V30 1694 C 151.473 -2.61236 3.74973 0
M  V30 1695 C 152.47 -2.27773 4.67349 0
M  V30 1696 C 150.155 -2.77158 4.18914 0
M  V30 1697 C 152.149 -2.10457 6.01653 0
M  V30 1698 C 149.836 -2.59459 5.53285 0
M  V30 1699 C 150.834 -2.26158 6.4447 0
M  V30 1700 O 150.522 -2.08605 7.76363 0
M  V30 1701 H 150.254 -0.466443 0.489292 0
M  V30 1702 H 152.808 -0.8758 1.85793 0
M  V30 1703 H 151.038 -3.42947 1.78673 0
M  V30 1704 H 152.727 -3.40782 2.20504 0
M  V30 1705 H 153.493 -2.15095 4.34694 0
M  V30 1706 H 149.372 -3.02064 3.48251 0
M  V30 1707 H 152.916 -1.84387 6.72791 0
M  V30 1708 H 148.813 -2.71725 5.85522 0
M  V30 1709 H 149.581 -2.23439 7.87412 0
M  V30 1710 N 152.244 -1.26651 -0.937939 0
M  V30 1711 C 153.492 -1.12165 -1.68118 0
M  V30 1712 C 153.813 0.334983 -1.92101 0
M  V30 1713 O 153.083 1.23583 -1.52 0
M  V30 1714 H 151.663 -0.412093 -0.623048 0
M  V30 1715 H 154.325 -1.59027 -1.12678 0
M  V30 1716 H 153.421 -1.64289 -2.6536 0
M  V30 1717 N 153.722 1.14298 -1.08507 0
M  V30 1718 C 154.685 2.17607 -0.719711 0
M  V30 1719 C 155.685 1.58907 0.245997 0
M  V30 1720 O 156.875 1.74181 0.0254081 0
M  V30 1721 C 154.007 3.40842 -0.0627695 0
M  V30 1722 H 155.2 2.51443 -1.63452 0
M  V30 1723 H 152.753 1.28963 -0.88307 0
M  V30 1724 H 153.488 3.12587 0.863716 0
M  V30 1725 H 153.273 3.84713 -0.757504 0
M  V30 1726 H 154.763 4.17221 0.177786 0
M  V30 1727 N 155.201 0.870884 1.31352 0
M  V30 1728 C 156.426 0.495957 2.01383 0
M  V30 1729 C 156.851 -0.904324 1.64935 0
M  V30 1730 O 156.209 -1.59687 0.858466 0
M  V30 1731 C 156.257 0.661433 3.54482 0
M  V30 1732 O 155.361 -0.298851 4.11316 0
M  V30 1733 H 154.702 0.197158 0.634054 0
M  V30 1734 H 157.232 1.17455 1.67527 0
M  V30 1735 H 157.242 0.555072 4.04207 0
M  V30 1736 H 155.917 1.68246 3.8035 0
M  V30 1737 H 154.494 -0.147368 3.72609 0
M  V30 1738 N 156.679 -1.44442 0.630414 0
M  V30 1739 C 157.956 -1.9549 0.0655657 0
M  V30 1740 C 158.336 -1.5724 -1.40851 0
M  V30 1741 O 157.684 -0.846116 -2.12257 0
M  V30 1742 C 157.894 -3.47812 0.287691 0
M  V30 1743 C 159.242 -4.24216 0.180513 0
M  V30 1744 O 160.266 -3.55526 0.219019 0
M  V30 1745 O 159.125 -5.46434 0.0848493 0
M  V30 1746 H 156.219 -0.826688 -0.0227177 0
M  V30 1747 H 158.765 -1.54496 0.702068 0
M  V30 1748 H 157.537 -3.687 1.31056 0
M  V30 1749 H 157.16 -3.95751 -0.382984 0
M  V30 1750 N 158.157 -0.370918 -1.53173 0
M  V30 1751 C 159.382 0.220293 -2.06227 0
M  V30 1752 C 159.807 1.41243 -1.24225 0
M  V30 1753 O 159.165 1.79387 -0.262645 0
M  V30 1754 C 159.213 0.586663 -3.55796 0
M  V30 1755 O 158.317 1.68317 -3.76488 0
M  V30 1756 H 157.658 0.0308099 -0.663285 0
M  V30 1757 H 160.188 -0.533068 -1.97534 0
M  V30 1758 H 160.198 0.85617 -3.98916 0
M  V30 1759 H 158.873 -0.285013 -4.14922 0
M  V30 1760 H 157.45 1.40881 -3.45264 0
M  V30 1761 N 159.635 1.57281 -0.100228 0
M  V30 1762 C 160.583 2.15542 0.874328 0
M  V30 1763 C 161.577 1.09962 1.28859 0
M  V30 1764 O 162.783 1.28298 1.26252 0
M  V30 1765 H 159.158 0.689567 0.300003 0
M  V30 1766 H 161.129 2.96241 0.35829 0
M  V30 1767 C 159.878 2.75454 2.1218 0
M  V30 1768 H 159.201 3.56384 1.81193 0
M  V30 1769 H 160.641 3.19781 2.78417 0
M  V30 1770 C 159.1 1.71602 2.89921 0
M  V30 1771 O 159.63 1.15804 3.84646 0
M  V30 1772 N 157.836 1.41975 2.53558 0
M  V30 1773 H 157.383 1.87539 1.76598 0
M  V30 1774 H 157.341 0.727274 3.05873 0
M  V30 1775 N 161.113 -0.173488 1.56642 0
M  V30 1776 C 162.359 -0.891784 1.8214 0
M  V30 1777 C 162.692 -1.8199 0.677736 0
M  V30 1778 O 161.967 -1.91842 -0.320446 0
M  V30 1779 C 162.25 -1.68933 3.18015 0
M  V30 1780 C 162.103 -0.784487 4.42906 0
M  V30 1781 C 163.422 -2.65748 3.50808 0
M  V30 1782 H 160.541 -0.322761 0.662567 0
M  V30 1783 H 163.183 -0.158095 1.89341 0
M  V30 1784 H 161.333 -2.31482 3.12007 0
M  V30 1785 H 163.005 -0.172046 4.60979 0
M  V30 1786 H 161.248 -0.0924117 4.33702 0
M  V30 1787 H 161.919 -1.37799 5.34524 0
M  V30 1788 H 164.395 -2.13327 3.57255 0
M  V30 1789 H 163.271 -3.18619 4.4696 0
M  V30 1790 H 163.532 -3.45842 2.75401 0
M  V30 1791 N 162.591 -1.51276 -0.441967 0
M  V30 1792 C 163.821 -1.67273 -1.21257 0
M  V30 1793 C 164.229 -0.367624 -1.85594 0
M  V30 1794 O 163.572 0.663349 -1.71305 0
M  V30 1795 C 163.634 -2.72807 -2.34129 0
M  V30 1796 C 163.298 -4.1554 -1.90198 0
M  V30 1797 C 164.295 -5.00471 -1.40801 0
M  V30 1798 C 161.98 -4.61616 -1.9803 0
M  V30 1799 C 163.974 -6.29536 -0.998174 0
M  V30 1800 C 161.661 -5.90679 -1.56658 0
M  V30 1801 C 162.659 -6.74466 -1.07633 0
M  V30 1802 O 162.347 -8.01116 -0.668459 0
M  V30 1803 H 162.079 -0.564614 -0.371734 0
M  V30 1804 H 164.633 -1.9843 -0.530521 0
M  V30 1805 H 162.863 -2.36954 -3.05597 0
M  V30 1806 H 164.552 -2.77729 -2.96009 0
M  V30 1807 H 165.318 -4.66079 -1.34148 0
M  V30 1808 H 161.197 -3.96526 -2.35135 0
M  V30 1809 H 164.741 -6.94885 -0.61482 0
M  V30 1810 H 160.638 -6.24586 -1.62979 0
M  V30 1811 H 161.406 -8.14633 -0.794722 0
M  V30 1812 N 164.069 0.697108 -1.41344 0
M  V30 1813 C 165.346 1.45154 -1.31109 0
M  V30 1814 C 165.726 2.11009 0.0620449 0
M  V30 1815 O 165.074 2.01571 1.07618 0
M  V30 1816 C 165.284 2.47223 -2.46337 0
M  V30 1817 C 166.632 3.1252 -2.87431 0
M  V30 1818 O 167.656 2.57547 -2.46065 0
M  V30 1819 O 166.515 4.12083 -3.58957 0
M  V30 1820 H 163.609 0.646365 -0.515889 0
M  V30 1821 H 166.155 0.727716 -1.53305 0
M  V30 1822 H 164.927 1.97204 -3.37974 0
M  V30 1823 H 164.55 3.27116 -2.2601 0
M  V30 1824 N 165.547 1.27147 0.931209 0
M  V30 1825 C 166.477 1.12081 2.04842 0
M  V30 1826 C 167.458 0.0232364 1.70084 0
M  V30 1827 O 168.643 0.197085 1.93197 0
M  V30 1828 C 165.773 0.76354 3.38803 0
M  V30 1829 C 164.727 1.81396 3.87659 0
M  V30 1830 C 164.053 1.31075 5.18385 0
M  V30 1831 C 165.353 3.21739 4.11438 0
M  V30 1832 H 167.047 2.05537 2.17703 0
M  V30 1833 H 164.593 0.989603 1.04608 0
M  V30 1834 H 166.546 0.644982 4.16435 0
M  V30 1835 H 165.27 -0.206727 3.25945 0
M  V30 1836 H 163.929 1.92136 3.12217 0
M  V30 1837 H 163.577 0.330037 5.01916 0
M  V30 1838 H 163.277 2.013 5.52044 0
M  V30 1839 H 164.801 1.20506 5.98591 0
M  V30 1840 H 166.215 3.14019 4.79651 0
M  V30 1841 H 164.612 3.89644 4.56397 0
M  V30 1842 H 165.682 3.67054 3.16859 0
M  V30 1843 N 167.025 -1.13721 1.09112 0
M  V30 1844 C 167.955 -2.21148 0.749385 0
M  V30 1845 C 168.936 -1.6792 -0.271475 0
M  V30 1846 O 170.121 -1.93693 -0.140251 0
M  V30 1847 C 167.251 -3.46905 0.165659 0
M  V30 1848 C 166.205 -4.13203 1.11567 0
M  V30 1849 C 165.531 -5.33248 0.393809 0
M  V30 1850 C 166.831 -4.60912 2.45678 0
M  V30 1851 H 168.525 -2.4999 1.64758 0
M  V30 1852 H 166.071 -1.20156 0.793626 0
M  V30 1853 H 168.024 -4.21313 -0.085466 0
M  V30 1854 H 166.748 -3.17449 -0.767714 0
M  V30 1855 H 165.407 -3.40758 1.35202 0
M  V30 1856 H 165.055 -5.00054 -0.543599 0
M  V30 1857 H 164.755 -5.78552 1.02721 0
M  V30 1858 H 166.279 -6.10413 0.150908 0
M  V30 1859 H 167.693 -5.26759 2.26269 0
M  V30 1860 H 166.09 -5.16944 3.04776 0
M  V30 1861 H 167.16 -3.75603 3.06677 0
M  V30 1862 N 168.503 -0.877838 -1.30888 0
M  V30 1863 C 169.45 -0.337538 -2.28318 0
M  V30 1864 C 170.42 0.568346 -1.56074 0
M  V30 1865 O 171.605 0.498298 -1.84178 0
M  V30 1866 C 168.745 0.448142 -3.42178 0
M  V30 1867 C 167.858 -0.48615 -4.29256 0
M  V30 1868 C 166.993 0.314427 -5.30269 0
M  V30 1869 C 166.032 -0.615791 -6.08995 0
M  V30 1870 N 165.169 0.14902 -7.01942 0
M  V30 1871 H 170.009 -1.17356 -2.73919 0
M  V30 1872 H 167.546 -0.590094 -1.34745 0
M  V30 1873 H 169.504 0.919517 -4.06941 0
M  V30 1874 H 168.134 1.24879 -2.97666 0
M  V30 1875 H 167.186 -1.076 -3.64865 0
M  V30 1876 H 168.498 -1.19909 -4.84173 0
M  V30 1877 H 167.652 0.847969 -6.00745 0
M  V30 1878 H 166.391 1.06062 -4.76027 0
M  V30 1879 H 165.396 -1.16102 -5.37401 0
M  V30 1880 H 166.621 -1.36097 -6.65323 0
M  V30 1881 H 164.567 0.877884 -6.50099 0
M  V30 1882 H 164.484 -0.504433 -7.54315 0
M  V30 1883 H 165.752 0.663537 -7.76671 0
M  V30 1884 N 169.982 1.44106 -0.638065 0
M  V30 1885 C 171.259 1.95453 -0.0759321 0
M  V30 1886 C 171.639 1.57984 1.40015 0
M  V30 1887 O 170.987 0.857361 2.11806 0
M  V30 1888 C 171.197 3.47655 -0.306132 0
M  V30 1889 C 172.545 4.24114 -0.203008 0
M  V30 1890 O 173.569 3.55405 -0.237871 0
M  V30 1891 O 172.428 5.46381 -0.113827 0
M  V30 1892 H 169.522 0.826797 0.0183332 0
M  V30 1893 H 172.068 1.54122 -0.710251 0
M  V30 1894 H 170.84 3.68 -1.3301 0
M  V30 1895 H 170.463 3.95949 0.361991 0
M  V30 1896 N 171.46 0.379036 1.52974 0
M  V30 1897 C 172.39 -0.452706 2.29069 0
M  V30 1898 C 173.371 -1.07237 1.32039 0
M  V30 1899 O 174.556 -1.08708 1.60923 0
M  V30 1900 C 171.686 -1.5856 3.08992 0
M  V30 1901 C 170.64 -1.0925 4.13822 0
M  V30 1902 C 169.966 -2.31668 4.81907 0
M  V30 1903 C 171.266 -0.167702 5.22031 0
M  V30 1904 H 172.96 0.182181 2.98845 0
M  V30 1905 H 170.506 0.0890592 1.43724 0
M  V30 1906 H 172.459 -2.1742 3.6098 0
M  V30 1907 H 171.183 -2.24792 2.36931 0
M  V30 1908 H 169.842 -0.526494 3.628 0
M  V30 1909 H 169.49 -2.96386 4.06404 0
M  V30 1910 H 169.19 -1.9934 5.52754 0
M  V30 1911 H 170.714 -2.91189 5.36695 0
M  V30 1912 H 172.128 -0.664186 5.6944 0
M  V30 1913 H 170.525 0.0653265 6.00064 0
M  V30 1914 H 171.595 0.786347 4.78482 0
M  V30 1915 N 172.938 -1.57226 0.108567 0
M  V30 1916 C 173.848 -2.18292 -0.859401 0
M  V30 1917 C 174.864 -1.15612 -1.30038 0
M  V30 1918 O 176.04 -1.48039 -1.36552 0
M  V30 1919 C 173.105 -2.762 -2.09558 0
M  V30 1920 C 172.166 -3.93881 -1.70752 0
M  V30 1921 C 171.399 -4.49018 -2.88477 0
M  V30 1922 O 171.622 -4.03068 -4.036 0
M  V30 1923 O 170.556 -5.39852 -2.66164 0
M  V30 1924 H 174.382 -3.01441 -0.369769 0
M  V30 1925 H 171.967 -1.48945 -0.1165 0
M  V30 1926 H 173.849 -3.13156 -2.81978 0
M  V30 1927 H 172.524 -1.96089 -2.57548 0
M  V30 1928 H 171.431 -3.61713 -0.954714 0
M  V30 1929 H 172.764 -4.75396 -1.27513 0
M  V30 1930 N 174.416 0.165178 -1.56732 0
M  V30 1931 C 175.326 1.22423 -2.00125 0
M  V30 1932 C 176.342 1.48084 -0.913619 0
M  V30 1933 O 177.518 1.60112 -1.22172 0
M  V30 1934 C 174.583 2.54197 -2.35764 0
M  V30 1935 C 173.644 2.36343 -3.58386 0
M  V30 1936 C 172.877 3.61834 -3.92316 0
M  V30 1937 O 173.1 4.67267 -3.27135 0
M  V30 1938 O 172.034 3.55579 -4.85641 0
M  V30 1939 H 175.86 0.885886 -2.90492 0
M  V30 1940 H 173.445 0.372518 -1.44681 0
M  V30 1941 H 175.327 3.3192 -2.59629 0
M  V30 1942 H 174.002 2.87598 -1.48557 0
M  V30 1943 H 172.909 1.56632 -3.39731 0
M  V30 1944 H 174.242 2.07865 -4.46154 0
M  V30 1945 N 175.894 1.51508 0.433938 0
M  V30 1946 C 177.142 1.6402 1.18075 0
M  V30 1947 C 177.463 0.360328 1.91642 0
M  V30 1948 O 176.733 -0.623945 1.85698 0
M  V30 1949 H 175.313 0.6045 0.43885 0
M  V30 1950 H 177.975 1.88452 0.497178 0
M  V30 1951 H 177.071 2.46949 1.90847 0
M  V30 1952 N 177.372 -0.689602 1.41712 0
M  V30 1953 C 178.621 -1.44534 1.40686 0
M  V30 1954 C 178.934 -1.95588 0.0213352 0
M  V30 1955 O 180.14 -2.71271 -0.111534 0
M  V30 1956 C 178.596 -2.61387 2.47396 0
M  V30 1957 C 178.204 -2.17094 3.91885 0
M  V30 1958 C 179.948 -3.38986 2.55517 0
M  V30 1959 C 177.855 -3.3094 4.90135 0
M  V30 1960 H 176.785 -0.542925 0.52321 0
M  V30 1961 H 179.436 -0.748054 1.6756 0
M  V30 1962 H 177.818 -3.33412 2.13664 0
M  V30 1963 H 178.992 -1.52318 4.34897 0
M  V30 1964 H 177.307 -1.52473 3.8748 0
M  V30 1965 H 179.904 -4.23747 3.26102 0
M  V30 1966 H 180.247 -3.84578 1.59391 0
M  V30 1967 H 180.78 -2.74021 2.8837 0
M  V30 1968 H 177.519 -2.90355 5.87685 0
M  V30 1969 H 177.039 -3.94546 4.51767 0
M  V30 1970 H 178.718 -3.9663 5.11169 0
M  V30 1971 N 178.85 -1.27639 -0.924453 0
M  V30 1972 C 179.782 -1.06442 -2.02985 0
M  V30 1973 C 180.795 -0.0194771 -1.62788 0
M  V30 1974 O 181.984 -0.261388 -1.76576 0
M  V30 1975 C 179.084 -0.59327 -3.33667 0
M  V30 1976 C 178.257 -1.71123 -4.02537 0
M  V30 1977 C 177.316 -1.23527 -5.11495 0
M  V30 1978 O 176.342 -1.93553 -5.35281 0
M  V30 1979 N 177.544 -0.0926678 -5.80426 0
M  V30 1980 H 180.309 -2.01633 -2.2173 0
M  V30 1981 H 177.87 -1.19248 -1.09505 0
M  V30 1982 H 179.862 -0.258686 -4.03872 0
M  V30 1983 H 178.432 0.265502 -3.1147 0
M  V30 1984 H 177.652 -2.21593 -3.26022 0
M  V30 1985 H 178.94 -2.46145 -4.45298 0
M  V30 1986 H 178.338 0.491741 -5.63559 0
M  V30 1987 H 176.895 0.182714 -6.51544 0
M  V30 1988 N 180.328 1.1314 -1.09713 0
M  V30 1989 C 181.556 1.88321 -0.856898 0
M  V30 1990 C 181.971 1.79276 0.592073 0
M  V30 1991 O 181.328 1.16142 1.40774 0
M  V30 1992 C 181.379 3.37812 -1.28706 0
M  V30 1993 O 181.1 3.46627 -2.67921 0
M  V30 1994 C 182.601 4.29952 -1.07964 0
M  V30 1995 H 179.821 0.596094 -0.308079 0
M  V30 1996 H 182.365 1.43205 -1.45988 0
M  V30 1997 H 180.52 3.805 -0.727912 0
M  V30 1998 H 180.934 4.39579 -2.8613 0
M  V30 1999 H 182.408 5.33159 -1.42986 0
M  V30 2000 H 182.885 4.39196 -0.0176577 0
M  V30 2001 H 183.491 3.93036 -1.62489 0
M  V30 2002 N 181.806 0.884767 1.30421 0
M  V30 2003 C 182.736 0.367574 2.30589 0
M  V30 2004 C 183.717 -0.549464 1.60981 0
M  V30 2005 O 184.902 -0.46336 1.88591 0
M  V30 2006 C 182.032 -0.418944 3.44764 0
M  V30 2007 C 180.986 0.406316 4.26067 0
M  V30 2008 C 180.312 -0.506793 5.32293 0
M  V30 2009 C 181.612 1.64832 4.95608 0
M  V30 2010 H 183.306 1.20462 2.74097 0
M  V30 2011 H 180.852 0.580695 1.31772 0
M  V30 2012 H 182.805 -0.791395 4.13902 0
M  V30 2013 H 181.529 -1.28964 3.0006 0
M  V30 2014 H 180.188 0.760903 3.58617 0
M  V30 2015 H 179.836 -1.37519 4.83836 0
M  V30 2016 H 179.536 0.0415828 5.87585 0
M  V30 2017 H 181.06 -0.875764 6.04287 0
M  V30 2018 H 182.474 1.34646 5.57264 0
M  V30 2019 H 180.871 2.13688 5.60765 0
M  V30 2020 H 181.941 2.39284 4.21748 0
M  V30 2021 N 183.284 -1.43765 0.645699 0
M  V30 2022 C 184.217 -2.2798 -0.100072 0
M  V30 2023 C 185.195 -1.39391 -0.837194 0
M  V30 2024 O 186.379 -1.68833 -0.838306 0
M  V30 2025 C 183.506 -3.18643 -1.14823 0
M  V30 2026 C 182.552 -4.2344 -0.510009 0
M  V30 2027 S 183.385 -5.30761 0.710824 0
M  V30 2028 C 184.541 -6.24992 -0.33699 0
M  V30 2029 H 184.774 -2.90884 0.614322 0
M  V30 2030 H 182.307 -1.48166 0.434304 0
M  V30 2031 H 184.265 -3.71424 -1.74799 0
M  V30 2032 H 182.926 -2.54932 -1.8349 0
M  V30 2033 H 182.119 -4.86948 -1.29991 0
M  V30 2034 H 181.721 -3.73997 0.0154577 0
M  V30 2035 H 184.013 -6.66691 -1.20537 0
M  V30 2036 H 184.956 -7.07612 0.262879 0
M  V30 2037 H 185.364 -5.60517 -0.669425 0
M  V30 2038 N 184.763 -0.387143 -1.52771 0
M  V30 2039 C 186.011 0.195349 -2.01154 0
M  V30 2040 C 186.332 1.475 -1.27549 0
M  V30 2041 O 185.602 1.91878 -0.394924 0
M  V30 2042 H 184.182 0.075178 -0.743207 0
M  V30 2043 H 186.844 -0.518337 -1.87881 0
M  V30 2044 H 185.94 0.407096 -3.09434 0
M  V30 2045 N 186.241 1.57166 -0.116904 0
M  V30 2046 C 187.657 1.5779 0.239693 0
M  V30 2047 C 187.857 1.1295 1.66867 0
M  V30 2048 O 186.913 0.81592 2.38954 0
M  V30 2049 C 188.226 3.00699 0.00828202 0
M  V30 2050 C 189.774 3.12912 0.0743438 0
M  V30 2051 C 190.249 4.57817 -0.129348 0
M  V30 2052 N 191.74 4.63139 -0.075247 0
M  V30 2053 C 192.475 5.73023 -0.207788 0
M  V30 2054 N 191.971 6.91665 -0.396382 0
M  V30 2055 N 193.764 5.61906 -0.14751 0
M  V30 2056 H 185.915 1.84615 -1.05029 0
M  V30 2057 H 188.178 0.85311 -0.41341 0
M  V30 2058 H 187.884 3.37784 -0.979531 0
M  V30 2059 H 187.758 3.69848 0.741077 0
M  V30 2060 H 190.145 2.75686 1.05268 0
M  V30 2061 H 190.226 2.4631 -0.690297 0
M  V30 2062 H 189.87 4.95742 -1.10465 0
M  V30 2063 H 189.8 5.22507 0.655253 0
M  V30 2064 H 192.291 3.7784 0.0670898 0
M  V30 2065 H 192.604 7.71255 -0.488437 0
M  V30 2066 H 190.949 6.93654 -0.432329 0
M  V30 2067 H 194.14 4.681 -0.00115036 0
M  V30 2068 H 194.313 6.47501 -0.254247 0
M  V30 2069 N 187.719 -0.156864 1.56817 0
M  V30 2070 C 188.649 -1.19589 2.00551 0
M  V30 2071 C 189.63 -1.4536 0.883426 0
M  V30 2072 O 190.815 -1.56449 1.15054 0
M  V30 2073 C 187.945 -2.53143 2.37773 0
M  V30 2074 C 186.899 -2.41913 3.53075 0
M  V30 2075 C 186.225 -3.80088 3.76081 0
M  V30 2076 C 187.525 -1.91157 4.86062 0
M  V30 2077 H 189.219 -0.832293 2.87599 0
M  V30 2078 H 186.765 -0.398918 1.38364 0
M  V30 2079 H 188.718 -3.26047 2.66967 0
M  V30 2080 H 187.442 -2.91319 1.4765 0
M  V30 2081 H 186.101 -1.71462 3.24031 0
M  V30 2082 H 185.749 -4.15683 2.83225 0
M  V30 2083 H 185.449 -3.73439 4.53671 0
M  V30 2084 H 186.973 -4.54556 4.0769 0
M  V30 2085 H 188.387 -2.53846 5.14038 0
M  V30 2086 H 186.784 -1.95422 5.67389 0
M  V30 2087 H 187.854 -0.866673 4.77092 0
M  V30 2088 N 189.197 -1.51736 -0.425897 0
M  V30 2089 C 190.107 -1.76738 -1.54275 0
M  V30 2090 C 191.123 -0.65211 -1.61318 0
M  V30 2091 O 192.299 -0.935654 -1.78346 0
M  V30 2092 C 189.364 -1.89755 -2.90162 0
M  V30 2093 C 188.425 -3.13633 -2.93143 0
M  V30 2094 C 187.658 -3.2602 -4.22548 0
M  V30 2095 O 187.881 -2.44067 -5.15546 0
M  V30 2096 O 186.815 -4.19071 -4.32046 0
M  V30 2097 H 190.641 -2.71502 -1.36089 0
M  V30 2098 H 188.226 -1.36376 -0.610069 0
M  V30 2099 H 190.108 -2.00236 -3.70788 0
M  V30 2100 H 188.783 -0.981785 -3.08452 0
M  V30 2101 H 187.69 -3.08622 -2.11431 0
M  V30 2102 H 189.023 -4.04936 -2.798 0
M  V30 2103 N 190.675 0.682077 -1.42076 0
M  V30 2104 C 191.952 1.43755 -1.32642 0
M  V30 2105 C 192.332 2.11063 0.0396611 0
M  V30 2106 O 191.68 2.02701 1.05474 0
M  V30 2107 C 191.89 2.44596 -2.48946 0
M  V30 2108 C 193.238 3.09454 -2.9073 0
M  V30 2109 O 194.262 2.54922 -2.48783 0
M  V30 2110 O 193.121 4.08253 -3.63307 0
M  V30 2111 H 190.215 0.640857 -0.522715 0
M  V30 2112 H 192.761 0.711415 -1.54068 0
M  V30 2113 H 191.533 1.93609 -3.40046 0
M  V30 2114 H 191.156 3.24701 -2.29467 0
M  V30 2115 N 192.153 1.28127 0.917671 0
M  V30 2116 C 193.401 1.14825 1.66312 0
M  V30 2117 C 193.722 -0.304379 1.9261 0
M  V30 2118 O 192.992 -1.21149 1.53947 0
M  V30 2119 H 191.572 0.421953 0.616413 0
M  V30 2120 H 194.234 1.608 1.10134 0
M  V30 2121 H 193.33 1.68489 2.62712 0
M  V30 2122 N 193.631 -1.12557 1.10312 0
M  V30 2123 C 194.856 -1.88405 0.867085 0
M  V30 2124 C 195.281 -1.79038 -0.576817 0
M  V30 2125 O 194.639 -1.14439 -1.40618 0
M  V30 2126 C 194.687 -3.3563 1.31851 0
M  V30 2127 O 193.791 -4.09565 0.482734 0
M  V30 2128 H 193.132 -0.585455 0.313271 0
M  V30 2129 H 195.662 -1.42352 1.4696 0
M  V30 2130 H 195.672 -3.86469 1.3079 0
M  V30 2131 H 194.347 -3.41765 2.37001 0
M  V30 2132 H 192.924 -3.68695 0.558448 0
M  V30 2133 N 195.109 -0.891671 -1.2995 0
M  V30 2134 C 196.52 -0.563104 -1.78006 0
M  V30 2135 C 196.871 0.920978 -1.73241 0
M  V30 2136 O 195.996 1.71987 -1.31337 0
M  V30 2137 C 196.591 -1.01539 -3.23226 0
M  V30 2138 C 195.15 -0.738124 -3.69092 0
M  V30 2139 C 194.297 -1.19461 -2.50249 0
M  V30 2140 H 197.248 -1.07522 -1.16725 0
M  V30 2141 H 197.269 -0.347217 -3.78912 0
M  V30 2142 H 196.781 -2.09555 -3.26662 0
M  V30 2143 H 194.882 0.329766 -3.71138 0
M  V30 2144 H 194.995 -1.33037 -4.60259 0
M  V30 2145 H 193.359 -0.613787 -2.47194 0
M  V30 2146 H 194.142 -2.28265 -2.56417 0
M  V30 2147 N 196.587 1.43421 -0.653314 0
M  V30 2148 C 198.003 1.56341 -0.320886 0
M  V30 2149 C 198.203 1.63696 1.17499 0
M  V30 2150 O 197.259 1.59208 1.95982 0
M  V30 2151 C 198.572 2.82424 -1.03233 0
M  V30 2152 C 200.12 2.96168 -1.01259 0
M  V30 2153 C 200.595 4.25084 -1.70492 0
M  V30 2154 N 202.086 4.31948 -1.67257 0
M  V30 2155 C 202.821 5.30466 -2.17701 0
M  V30 2156 N 202.317 6.35261 -2.76434 0
M  V30 2157 N 204.11 5.2212 -2.082 0
M  V30 2158 H 196.261 1.3689 -1.62403 0
M  V30 2159 H 198.524 0.657455 -0.682977 0
M  V30 2160 H 198.23 2.83053 -2.08744 0
M  V30 2161 H 198.104 3.72653 -0.583948 0
M  V30 2162 H 200.491 2.9508 0.0341235 0
M  V30 2163 H 200.572 2.07229 -1.49966 0
M  V30 2164 H 200.216 4.26932 -2.7512 0
M  V30 2165 H 200.146 5.1292 -1.19251 0
M  V30 2166 H 202.637 3.56838 -1.24398 0
M  V30 2167 H 202.95 7.06754 -3.12601 0
M  V30 2168 H 201.295 6.35884 -2.80495 0
M  V30 2169 H 204.486 4.39166 -1.62021 0
M  V30 2170 H 204.659 5.98739 -2.47822 0
M  V30 2171 N 198.065 0.39524 1.52563 0
M  V30 2172 C 199.293 -0.184943 2.06072 0
M  V30 2173 C 199.708 -1.40021 1.26647 0
M  V30 2174 O 199.065 -1.79767 0.314672 0
M  V30 2175 C 199.116 -0.549179 3.57304 0
M  V30 2176 O 198.837 0.617813 4.33722 0
M  V30 2177 C 200.338 -1.18459 4.2718 0
M  V30 2178 H 197.558 -0.0265025 0.670476 0
M  V30 2179 H 200.102 0.562184 1.96621 0
M  V30 2180 H 198.257 -1.2462 3.66809 0
M  V30 2181 H 198.671 0.317091 5.23541 0
M  V30 2182 H 200.145 -1.38976 5.34219 0
M  V30 2183 H 200.622 -2.15368 3.82771 0
M  V30 2184 H 201.228 -0.528163 4.22008 0
M  V30 2185 N 199.544 -1.57102 0.125237 0
M  V30 2186 C 200.792 -1.95021 -0.530198 0
M  V30 2187 C 201.113 -1.00982 -1.66816 0
M  V30 2188 O 200.383 -0.0672693 -1.95784 0
M  V30 2189 H 198.963 -0.720046 -0.198853 0
M  V30 2190 H 201.625 -1.93916 0.19564 0
M  V30 2191 H 200.721 -2.98211 -0.920681 0
M  V30 2192 N 201.022 0.148545 -1.56898 0
M  V30 2193 C 201.954 1.20852 -1.9475 0
M  V30 2194 C 202.967 1.39265 -0.843152 0
M  V30 2195 O 204.156 1.38864 -1.12156 0
M  V30 2196 C 201.256 2.57362 -2.20495 0
M  V30 2197 C 200.429 2.59947 -3.51776 0
M  V30 2198 C 199.488 3.77984 -3.6608 0
M  V30 2199 O 198.514 3.62929 -4.38487 0
M  V30 2200 N 199.716 4.95375 -3.02629 0
M  V30 2201 H 202.481 0.886804 -2.86279 0
M  V30 2202 H 200.042 0.338121 -1.5833 0
M  V30 2203 H 202.034 3.34833 -2.27307 0
M  V30 2204 H 200.604 2.81832 -1.35238 0
M  V30 2205 H 199.824 1.68403 -3.56419 0
M  V30 2206 H 201.112 2.58704 -4.38121 0
M  V30 2207 H 200.51 5.10509 -2.43715 0
M  V30 2208 H 199.067 5.70627 -3.15004 0
M  V30 2209 N 202.5 1.5196 0.417844 0
M  V30 2210 C 203.749 1.6482 1.16264 0
M  V30 2211 C 204.062 0.379886 1.91876 0
M  V30 2212 O 205.268 0.388154 2.68711 0
M  V30 2213 C 203.724 2.91161 2.1155 0
M  V30 2214 C 203.332 4.25068 1.41495 0
M  V30 2215 C 205.076 3.13383 2.86341 0
M  V30 2216 C 202.983 5.42541 2.35379 0
M  V30 2217 H 201.913 0.613954 0.437694 0
M  V30 2218 H 204.564 1.78442 0.427871 0
M  V30 2219 H 202.946 2.71218 2.88543 0
M  V30 2220 H 204.12 4.55463 0.699263 0
M  V30 2221 H 202.435 4.0888 0.787792 0
M  V30 2222 H 205.032 3.98324 3.5671 0
M  V30 2223 H 205.375 2.27256 3.48798 0
M  V30 2224 H 205.908 3.33757 2.1645 0
M  V30 2225 H 202.647 6.30987 1.77582 0
M  V30 2226 H 202.167 5.16497 3.04945 0
M  V30 2227 H 203.846 5.75272 2.96093 0
M  V30 2228 N 203.978 -0.674533 1.42435 0
M  V30 2229 C 205.225 -1.43459 1.42919 0
M  V30 2230 C 205.553 -1.94446 0.0457312 0
M  V30 2231 O 204.808 -1.7132 -0.94593 0
M  V30 2232 C 205.107 -2.64767 2.40069 0
M  V30 2233 C 204.773 -2.3232 3.86443 0
M  V30 2234 C 203.435 -2.23182 4.26314 0
M  V30 2235 C 205.787 -2.05977 4.78773 0
M  V30 2236 C 203.115 -1.85827 5.56494 0
M  V30 2237 C 205.467 -1.70125 6.09295 0
M  V30 2238 C 204.131 -1.59498 6.48164 0
M  V30 2239 H 203.401 -0.524952 0.522978 0
M  V30 2240 H 206.048 -0.769097 1.75377 0
M  V30 2241 H 204.353 -3.36349 2.00939 0
M  V30 2242 H 206.05 -3.22949 2.37707 0
M  V30 2243 H 202.64 -2.40334 3.54877 0
M  V30 2244 H 206.824 -2.11969 4.48757 0
M  V30 2245 H 202.08 -1.76168 5.8547 0
M  V30 2246 H 206.254 -1.48767 6.80324 0
M  V30 2247 H 203.881 -1.30322 7.48946 0
M  V30 2248 N 205.456 -1.28612 -0.910864 0
M  V30 2249 C 206.403 -1.12786 -2.01365 0
M  V30 2250 C 207.373 -0.024201 -1.66082 0
M  V30 2251 O 208.558 -0.189667 -1.89855 0
M  V30 2252 C 205.698 -0.798743 -3.35729 0
M  V30 2253 C 204.811 -1.98173 -3.83864 0
M  V30 2254 C 203.946 -1.59298 -5.06752 0
M  V30 2255 C 202.985 -2.74245 -5.47226 0
M  V30 2256 N 202.122 -2.35842 -6.61304 0
M  V30 2257 H 206.962 -2.07142 -2.14234 0
M  V30 2258 H 204.499 -1.03093 -1.0493 0
M  V30 2259 H 206.457 -0.588662 -4.13026 0
M  V30 2260 H 205.087 0.10789 -3.2262 0
M  V30 2261 H 204.139 -2.30386 -3.02699 0
M  V30 2262 H 205.451 -2.84343 -4.09818 0
M  V30 2263 H 204.605 -1.34513 -5.916 0
M  V30 2264 H 203.344 -0.702618 -4.82612 0
M  V30 2265 H 202.349 -2.99725 -4.60918 0
M  V30 2266 H 203.574 -3.63928 -5.73353 0
M  V30 2267 H 201.52 -1.49279 -6.38789 0
M  V30 2268 H 201.437 -3.15546 -6.86998 0
M  V30 2269 H 202.705 -2.14348 -7.4945 0
M  V30 2270 N 206.934 1.1197 -1.10907 0
M  V30 2271 C 207.866 2.17592 -0.720175 0
M  V30 2272 C 208.879 1.60938 0.245495 0
M  V30 2273 O 210.068 1.78476 0.0292245 0
M  V30 2274 C 207.168 3.38873 -0.0427917 0
M  V30 2275 C 206.341 4.25006 -1.03388 0
M  V30 2276 C 205.4 5.24774 -0.387075 0
M  V30 2277 O 204.426 5.59631 -1.03934 0
M  V30 2278 N 205.628 5.74208 0.852407 0
M  V30 2279 H 208.393 2.51567 -1.62893 0
M  V30 2280 H 205.954 1.27439 -0.998543 0
M  V30 2281 H 207.946 4.02703 0.401501 0
M  V30 2282 H 206.516 3.03007 0.768456 0
M  V30 2283 H 205.736 3.57716 -1.65629 0
M  V30 2284 H 207.024 4.79397 -1.70458 0
M  V30 2285 H 206.422 5.48062 1.40161 0
M  V30 2286 H 204.979 6.39901 1.23977 0
M  V30 2287 N 208.412 0.89855 1.29475 0
M  V30 2288 C 209.64 0.539261 1.99749 0
M  V30 2289 C 210.055 -0.875716 1.67262 0
M  V30 2290 O 209.412 -1.57786 0.917049 0
M  V30 2291 C 209.463 0.72061 3.54245 0
M  V30 2292 O 209.184 2.07989 3.8558 0
M  V30 2293 C 210.685 0.366118 4.41786 0
M  V30 2294 H 207.905 0.207047 0.638258 0
M  V30 2295 H 210.449 1.20758 1.65039 0
M  V30 2296 H 208.604 0.0994862 3.87272 0
M  V30 2297 H 209.018 2.10841 4.80257 0
M  V30 2298 H 210.492 0.543848 5.49314 0
M  V30 2299 H 210.969 -0.696763 4.33638 0
M  V30 2300 H 211.575 0.964135 4.14228 0
M  V30 2301 N 209.89 -1.43072 0.660911 0
M  V30 2302 C 211.12 -2.05769 0.185153 0
M  V30 2303 C 211.528 -1.49668 -1.15742 0
M  V30 2304 O 210.871 -0.625649 -1.72717 0
M  V30 2305 C 210.933 -3.59489 0.0278237 0
M  V30 2306 C 210.597 -4.38212 1.2969 0
M  V30 2307 C 211.594 -4.69772 2.22734 0
M  V30 2308 C 209.279 -4.7809 1.54063 0
M  V30 2309 C 211.273 -5.40129 3.38437 0
M  V30 2310 C 208.96 -5.4819 2.70058 0
M  V30 2311 C 209.958 -5.79132 3.62071 0
M  V30 2312 O 209.646 -6.47798 4.76039 0
M  V30 2313 H 209.378 -0.669873 0.0908086 0
M  V30 2314 H 211.932 -1.84436 0.90402 0
M  V30 2315 H 210.162 -3.79426 -0.746489 0
M  V30 2316 H 211.851 -4.03862 -0.406275 0
M  V30 2317 H 212.617 -4.39476 2.05149 0
M  V30 2318 H 208.496 -4.53408 0.833215 0
M  V30 2319 H 212.04 -5.64198 4.10277 0
M  V30 2320 H 207.937 -5.77902 2.87574 0
M  V30 2321 H 208.705 -6.66283 4.75404 0
M  V30 2322 N 211.368 -0.403325 -1.52352 0
M  V30 2323 C 212.593 0.176499 -2.06648 0
M  V30 2324 C 213.018 1.38577 -1.27193 0
M  V30 2325 O 212.376 1.7879 -0.300637 0
M  V30 2326 C 212.424 0.511061 -3.5696 0
M  V30 2327 O 211.528 1.60294 -3.79973 0
M  V30 2328 H 210.869 0.0167337 -0.663789 0
M  V30 2329 H 213.399 -0.574848 -1.96359 0
M  V30 2330 H 213.409 0.771362 -4.00642 0
M  V30 2331 H 212.084 -0.37296 -4.14224 0
M  V30 2332 H 210.661 1.33526 -3.48174 0
M  V30 2333 N 212.846 1.57033 -0.133567 0
M  V30 2334 C 213.793 2.16074 0.811208 0
M  V30 2335 C 214.763 1.08979 1.2535 0
M  V30 2336 O 215.948 1.36958 1.32843 0
M  V30 2337 C 213.088 2.77595 2.05024 0
M  V30 2338 C 212.201 3.99042 1.65498 0
M  V30 2339 C 211.336 4.48603 2.84479 0
M  V30 2340 C 210.375 5.62547 2.41262 0
M  V30 2341 N 209.512 6.06787 3.53206 0
M  V30 2342 H 214.352 2.96477 0.300906 0
M  V30 2343 H 211.889 1.46462 0.136822 0
M  V30 2344 H 213.847 3.11402 2.77642 0
M  V30 2345 H 212.477 1.99859 2.53488 0
M  V30 2346 H 211.529 3.71302 0.826981 0
M  V30 2347 H 212.841 4.81629 1.29748 0
M  V30 2348 H 211.995 4.84395 3.65303 0
M  V30 2349 H 210.734 3.64995 3.23465 0
M  V30 2350 H 209.739 5.26345 1.58874 0
M  V30 2351 H 210.964 6.47931 2.03377 0
M  V30 2352 H 208.91 5.26117 3.91838 0
M  V30 2353 H 208.827 6.84266 3.21427 0
M  V30 2354 H 210.095 6.4722 4.34427 0
M  V30 2355 N 214.325 -0.140222 1.56975 0
M  V30 2356 C 215.572 -0.851687 1.83719 0
M  V30 2357 C 215.9 -1.80862 0.715485 0
M  V30 2358 O 215.155 -1.93464 -0.294956 0
M  V30 2359 C 215.454 -1.65386 3.16832 0
M  V30 2360 C 215.12 -0.843112 4.42947 0
M  V30 2361 C 213.782 -0.619464 4.77196 0
M  V30 2362 C 216.134 -0.276582 5.20466 0
M  V30 2363 C 213.462 0.181312 5.8642 0
M  V30 2364 C 215.814 0.51127 6.30531 0
M  V30 2365 C 214.478 0.745432 6.63325 0
M  V30 2366 H 213.748 -0.311654 0.672274 0
M  V30 2367 H 216.395 -0.115006 1.91154 0
M  V30 2368 H 214.7 -2.46084 3.04877 0
M  V30 2369 H 216.397 -2.20793 3.34741 0
M  V30 2370 H 212.987 -1.0275 4.16101 0
M  V30 2371 H 217.171 -0.436632 4.94376 0
M  V30 2372 H 212.427 0.372165 6.10266 0
M  V30 2373 H 216.601 0.957354 6.89788 0
M  V30 2374 H 214.228 1.36778 7.47794 0
M  V30 2375 N 215.803 -1.52179 -0.40978 0
M  V30 2376 C 217.08 -1.56769 -1.16974 0
M  V30 2377 C 217.46 -0.348322 -2.08206 0
M  V30 2378 O 216.808 0.664862 -2.18613 0
M  V30 2379 C 217.018 -2.89603 -1.9476 0
M  V30 2380 C 218.366 -3.42579 -2.50849 0
M  V30 2381 O 219.39 -2.91338 -2.04941 0
M  V30 2382 O 218.249 -4.32054 -3.34652 0
M  V30 2383 H 215.343 -0.631439 -0.534054 0
M  V30 2384 H 217.889 -1.64507 -0.416613 0
M  V30 2385 H 216.661 -3.698 -1.27921 0
M  V30 2386 H 216.284 -2.85155 -2.77079 0
M  V30 2387 N 217.281 0.66697 -1.42791 0
M  V30 2388 C 218.509 1.45505 -1.47091 0
M  V30 2389 C 218.924 1.8861 -0.0845873 0
M  V30 2390 O 218.281 1.58632 0.90234 0
M  V30 2391 C 218.332 2.69906 -2.40485 0
M  V30 2392 O 218.053 2.28608 -3.73725 0
M  V30 2393 C 219.554 3.63396 -2.53886 0
M  V30 2394 H 216.774 0.447459 -0.500022 0
M  V30 2395 H 219.318 0.818866 -1.8739 0
M  V30 2396 H 217.473 3.29696 -2.03419 0
M  V30 2397 H 217.887 3.08997 -4.23817 0
M  V30 2398 H 219.361 4.47387 -3.2334 0
M  V30 2399 H 219.838 4.09824 -1.57927 0
M  V30 2400 H 220.444 3.09495 -2.91706 0
M  V30 2401 N 218.759 1.29093 0.90403 0
M  V30 2402 C 219.707 1.13727 2.02901 0
M  V30 2403 C 220.701 0.0539853 1.69314 0
M  V30 2404 O 221.907 0.213469 1.7873 0
M  V30 2405 H 218.282 0.35117 0.664969 0
M  V30 2406 H 220.253 2.08982 2.13001 0
M  V30 2407 C 219.002 0.826066 3.37745 0
M  V30 2408 H 218.325 1.65164 3.64089 0
M  V30 2409 H 219.765 0.758559 4.17159 0
M  V30 2410 C 218.224 -0.470541 3.33598 0
M  V30 2411 O 218.754 -1.49792 3.72727 0
M  V30 2412 N 216.96 -0.474812 2.86695 0
M  V30 2413 H 216.507 0.361692 2.55048 0
M  V30 2414 H 216.465 -1.34236 2.84303 0
M  V30 2415 N 220.237 -1.11381 1.11499 0
M  V30 2416 C 221.462 -1.87475 0.887019 0
M  V30 2417 C 221.887 -1.79639 -0.557796 0
M  V30 2418 O 221.245 -1.15924 -1.39396 0
M  V30 2419 C 221.293 -3.34213 1.35403 0
M  V30 2420 O 220.397 -4.0903 0.526146 0
M  V30 2421 H 219.738 -0.582099 0.319463 0
M  V30 2422 H 222.268 -1.40785 1.48461 0
M  V30 2423 H 222.278 -3.8506 1.34881 0
M  V30 2424 H 220.953 -3.39232 2.40612 0
M  V30 2425 H 219.53 -3.68082 0.597522 0
M  V30 2426 N 221.715 -0.905404 -1.28997 0
M  V30 2427 C 222.665 -0.358713 -2.25161 0
M  V30 2428 C 223.649 0.524449 -1.52113 0
M  V30 2429 O 224.841 0.365534 -1.73184 0
M  V30 2430 C 221.97 0.407609 -3.40872 0
M  V30 2431 C 221.056 -0.490797 -4.21251 0
M  V30 2432 N 221.447 -1.60061 -4.79806 0
M  V30 2433 C 219.745 -0.289636 -4.45059 0
M  V30 2434 C 220.446 -2.15757 -5.40207 0
M  V30 2435 N 219.422 -1.44988 -5.23908 0
M  V30 2436 H 223.224 -1.20642 -2.67998 0
M  V30 2437 H 220.738 -0.757103 -1.43672 0
M  V30 2438 H 222.735 0.816046 -4.08835 0
M  V30 2439 H 221.395 1.25251 -2.9957 0
M  V30 2440 H 222.406 -1.98329 -4.7842 0
M  V30 2441 H 219.083 0.51643 -4.14294 0
M  V30 2442 H 220.473 -3.09069 -5.96595 0
M  V30 2443 N 223.193 1.4272 -0.668489 0
M  V30 2444 C 224.141 2.32586 0.0254857 0
M  V30 2445 C 225.135 1.49471 0.797176 0
M  V30 2446 O 226.341 1.65583 0.705853 0
M  V30 2447 H 222.716 0.751514 0.0270339 0
M  V30 2448 H 224.687 2.88823 -0.749936 0
M  V30 2449 C 223.436 3.3397 0.967427 0
M  V30 2450 H 222.759 3.97961 0.383048 0
M  V30 2451 H 224.199 3.9945 1.42181 0
M  V30 2452 C 222.658 2.65744 2.0708 0
M  V30 2453 O 223.188 2.48454 3.15648 0
M  V30 2454 N 221.394 2.2487 1.8407 0
M  V30 2455 H 220.941 2.39132 0.95778 0
M  V30 2456 H 220.899 1.79552 2.58086 0
M  V30 2457 N 224.671 0.411399 1.52136 0
M  V30 2458 C 225.948 -0.222308 1.94333 0
M  V30 2459 C 226.328 -1.6242 1.34844 0
M  V30 2460 O 225.676 -2.22384 0.525145 0
M  V30 2461 C 225.886 -0.226345 3.48265 0
M  V30 2462 C 227.234 -0.444592 4.22266 0
M  V30 2463 O 228.258 -0.305602 3.54887 0
M  V30 2464 O 227.117 -0.718749 5.41753 0
M  V30 2465 H 224.211 -0.143907 0.814383 0
M  V30 2466 H 226.757 0.467506 1.63133 0
M  V30 2467 H 225.529 0.75475 3.83952 0
M  V30 2468 H 225.152 -0.960163 3.85832 0
M  V30 2469 N 226.149 -1.5696 0.141893 0
M  V30 2470 C 227.426 -1.87553 -0.555281 0
M  V30 2471 C 227.806 -1.04699 -1.83306 0
M  V30 2472 O 227.154 -0.132346 -2.28116 0
M  V30 2473 C 227.364 -3.39093 -0.825664 0
M  V30 2474 C 228.712 -4.08199 -1.16869 0
M  V30 2475 O 229.736 -3.44242 -0.915185 0
M  V30 2476 O 228.595 -5.21139 -1.6455 0
M  V30 2477 H 225.689 -0.777188 -0.282679 0
M  V30 2478 H 228.235 -1.68763 0.17812 0
M  V30 2479 H 227.007 -3.91221 0.0788633 0
M  V30 2480 H 226.63 -3.63393 -1.61343 0
M  V30 2481 N 227.627 0.131896 -1.57047 0
M  V30 2482 C 228.59 1.14638 -1.98471 0
M  V30 2483 C 229.59 1.35029 -0.873148 0
M  V30 2484 O 230.78 1.31764 -1.13946 0
M  V30 2485 C 227.912 2.50358 -2.31373 0
M  V30 2486 H 229.105 0.79064 -2.8929 0
M  V30 2487 H 226.658 0.375761 -1.51716 0
M  V30 2488 H 227.393 2.90876 -1.43393 0
M  V30 2489 H 227.178 2.36915 -3.12432 0
M  V30 2490 H 228.668 3.23395 -2.64207 0
M  V30 2491 N 229.106 1.52395 0.401703 0
M  V30 2492 C 230.036 1.79231 1.49661 0
M  V30 2493 C 231.017 0.643654 1.57452 0
M  V30 2494 O 232.202 0.889989 1.72606 0
M  V30 2495 C 229.332 1.94971 2.87409 0
M  V30 2496 C 228.286 3.10604 2.94465 0
M  V30 2497 C 227.612 3.11577 4.34538 0
M  V30 2498 C 228.912 4.49921 2.6527 0
M  V30 2499 H 230.606 2.70917 1.27454 0
M  V30 2500 H 228.152 1.30362 0.6117 0
M  V30 2501 H 230.105 2.12328 3.63999 0
M  V30 2502 H 228.829 0.999632 3.10926 0
M  V30 2503 H 227.488 2.93009 2.20321 0
M  V30 2504 H 227.136 2.14277 4.55076 0
M  V30 2505 H 226.836 3.89247 4.40183 0
M  V30 2506 H 228.36 3.31073 5.13053 0
M  V30 2507 H 229.774 4.67683 3.31581 0
M  V30 2508 H 228.171 5.29564 2.82281 0
M  V30 2509 H 229.241 4.57507 1.60671 0
M  V30 2510 N 230.584 -0.659388 1.43143 0
M  V30 2511 C 231.514 -1.78422 1.50625 0
M  V30 2512 C 232.495 -1.66216 0.361443 0
M  V30 2513 O 233.68 -1.85404 0.577834 0
M  V30 2514 C 230.81 -3.16815 1.42287 0
M  V30 2515 C 229.764 -3.43777 2.54954 0
M  V30 2516 C 229.09 -4.81905 2.31671 0
M  V30 2517 C 230.39 -3.39134 3.97222 0
M  V30 2518 H 232.084 -1.72417 2.44771 0
M  V30 2519 H 229.63 -0.828084 1.17808 0
M  V30 2520 H 231.583 -3.95253 1.46127 0
M  V30 2521 H 230.307 -3.23534 0.446435 0
M  V30 2522 H 228.966 -2.67707 2.50457 0
M  V30 2523 H 228.614 -4.85294 1.32284 0
M  V30 2524 H 228.314 -5.00906 3.07192 0
M  V30 2525 H 229.838 -5.62609 2.37284 0
M  V30 2526 H 231.252 -4.07518 4.03239 0
M  V30 2527 H 229.649 -3.69671 4.72719 0
M  V30 2528 H 230.719 -2.37426 4.22797 0
M  V30 2529 N 232.062 -1.29571 -0.897171 0
M  V30 2530 C 233.009 -1.14916 -2.00158 0
M  V30 2531 C 233.979 -0.0418149 -1.66047 0
M  V30 2532 O 235.164 -0.209793 -1.89643 0
M  V30 2533 C 232.304 -0.834307 -3.34863 0
M  V30 2534 C 231.417 -2.02234 -3.8174 0
M  V30 2535 C 230.552 -1.64664 -5.05034 0
M  V30 2536 C 229.591 -2.80033 -5.44286 0
M  V30 2537 N 228.728 -2.42843 -6.58765 0
M  V30 2538 H 233.568 -2.09403 -2.12025 0
M  V30 2539 H 231.105 -1.042 -1.0383 0
M  V30 2540 H 233.063 -0.632436 -4.12379 0
M  V30 2541 H 231.693 0.0736656 -3.22716 0
M  V30 2542 H 230.745 -2.33583 -3.00238 0
M  V30 2543 H 232.057 -2.88673 -4.06779 0
M  V30 2544 H 231.211 -1.4078 -5.9014 0
M  V30 2545 H 229.95 -0.753766 -4.8184 0
M  V30 2546 H 228.955 -3.04596 -4.57713 0
M  V30 2547 H 230.18 -3.69989 -5.6946 0
M  V30 2548 H 228.126 -1.56046 -6.3717 0
M  V30 2549 H 228.043 -3.22815 -6.83613 0
M  V30 2550 H 229.311 -2.22285 -7.47134 0
M  V30 2551 N 233.54 1.10788 -1.12088 0
M  V30 2552 C 234.488 2.19111 -0.780587 0
M  V30 2553 C 235.482 1.67818 0.230961 0
M  V30 2554 O 236.688 1.79777 0.0895427 0
M  V30 2555 H 233.063 0.714477 -0.234578 0
M  V30 2556 H 235.034 2.45055 -1.70266 0
M  V30 2557 C 233.783 3.46818 -0.24747 0
M  V30 2558 H 233.106 3.86646 -1.01712 0
M  V30 2559 H 234.546 4.23973 -0.0476291 0
M  V30 2560 C 233.005 3.20968 1.02378 0
M  V30 2561 O 233.535 3.42298 2.10226 0
M  V30 2562 N 231.741 2.74658 0.949271 0
M  V30 2563 H 231.288 2.57501 0.0715173 0
M  V30 2564 H 231.246 2.57739 1.80049 0
M  V30 2565 N 235.018 0.912232 1.28515 0
M  V30 2566 C 236.248 0.559604 1.98877 0
M  V30 2567 C 236.656 -0.863113 1.68366 0
M  V30 2568 O 235.999 -1.58304 0.931969 0
M  V30 2569 C 236.061 0.68703 3.52874 0
M  V30 2570 C 235.725 2.07901 4.06972 0
M  V30 2571 C 236.722 3.05157 4.20922 0
M  V30 2572 C 234.407 2.39178 4.417 0
M  V30 2573 C 236.401 4.31806 4.68852 0
M  V30 2574 C 234.088 3.66068 4.89324 0
M  V30 2575 C 235.086 4.62195 5.02856 0
M  V30 2576 O 234.774 5.86829 5.49442 0
M  V30 2577 H 234.506 0.212191 0.641834 0
M  V30 2578 H 237.06 1.22712 1.64715 0
M  V30 2579 H 235.29 -0.0375486 3.86682 0
M  V30 2580 H 236.979 0.341727 4.04459 0
M  V30 2581 H 237.745 2.82311 3.94367 0
M  V30 2582 H 233.624 1.65109 4.30418 0
M  V30 2583 H 237.168 5.06842 4.79329 0
M  V30 2584 H 233.065 3.88739 5.15318 0
M  V30 2585 H 233.833 5.89597 5.6773 0
M  V30 2586 N 236.496 -1.42363 0.676048 0
M  V30 2587 C 237.744 -2.01123 0.198437 0
M  V30 2588 C 238.065 -1.53731 -1.19966 0
M  V30 2589 O 237.335 -0.759518 -1.80577 0
M  V30 2590 H 235.915 -0.743678 0.0703721 0
M  V30 2591 H 238.577 -1.74263 0.872837 0
M  V30 2592 H 237.673 -3.11454 0.200686 0
M  V30 2593 N 237.974 -0.419461 -1.51915 0
M  V30 2594 C 238.904 0.391813 -2.30189 0
M  V30 2595 C 239.885 1.03699 -1.34836 0
M  V30 2596 O 241.07 1.04403 -1.63748 0
M  V30 2597 C 238.2 1.50312 -3.13087 0
M  V30 2598 C 237.154 0.9824 -4.16573 0
M  V30 2599 C 236.48 2.18809 -4.8788 0
M  V30 2600 C 237.78 0.0292356 -5.22292 0
M  V30 2601 H 239.474 -0.26135 -2.98257 0
M  V30 2602 H 237.02 -0.127134 -1.43438 0
M  V30 2603 H 238.973 2.07773 -3.66617 0
M  V30 2604 H 237.697 2.18431 -2.42807 0
M  V30 2605 H 236.356 0.430119 -3.64068 0
M  V30 2606 H 236.004 2.85507 -4.14119 0
M  V30 2607 H 235.704 1.84615 -5.57845 0
M  V30 2608 H 237.228 2.76858 -5.44226 0
M  V30 2609 H 238.642 0.512976 -5.71 0
M  V30 2610 H 237.039 -0.2244 -5.9968 0
M  V30 2611 H 238.109 -0.912931 -4.76228 0
M  V30 2612 N 239.452 1.56882 -0.150215 0
M  V30 2613 C 240.382 2.19935 0.784284 0
M  V30 2614 C 241.363 1.14854 1.25469 0
M  V30 2615 O 242.548 1.43209 1.31168 0
M  V30 2616 C 239.678 2.82349 2.02229 0
M  V30 2617 C 238.632 3.93285 1.68853 0
M  V30 2618 C 237.958 4.42649 2.99944 0
M  V30 2619 C 239.258 5.13904 0.932714 0
M  V30 2620 H 240.952 2.9828 0.258781 0
M  V30 2621 H 238.498 1.43473 0.123029 0
M  V30 2622 H 240.451 3.25126 2.68088 0
M  V30 2623 H 239.175 2.0134 2.57157 0
M  V30 2624 H 237.834 3.5113 1.05371 0
M  V30 2625 H 237.482 3.58458 3.52869 0
M  V30 2626 H 237.182 5.17476 2.78374 0
M  V30 2627 H 238.706 4.88099 3.66868 0
M  V30 2628 H 240.12 5.53506 1.49345 0
M  V30 2629 H 238.517 5.94515 0.81684 0
M  V30 2630 H 239.587 4.84842 -0.0749568 0
M  V30 2631 N 240.93 -0.123565 1.57115 0
M  V30 2632 C 242.16 -0.845233 1.88519 0
M  V30 2633 C 242.568 -1.74168 0.739064 0
M  V30 2634 O 241.911 -1.81244 -0.299355 0
M  V30 2635 C 241.973 -1.73452 3.14888 0
M  V30 2636 C 241.637 -1.01285 4.45635 0
M  V30 2637 C 242.634 -0.355774 5.18681 0
M  V30 2638 C 240.319 -0.99538 4.92339 0
M  V30 2639 C 242.313 0.309114 6.3665 0
M  V30 2640 C 240 -0.32669 6.10226 0
M  V30 2641 C 240.998 0.324406 6.82229 0
M  V30 2642 O 240.686 0.982437 7.97874 0
M  V30 2643 H 240.418 -0.248534 0.628655 0
M  V30 2644 H 242.972 -0.113907 2.05084 0
M  V30 2645 H 241.202 -2.50737 2.94394 0
M  V30 2646 H 242.891 -2.33021 3.32349 0
M  V30 2647 H 243.657 -0.360918 4.83655 0
M  V30 2648 H 239.536 -1.49159 4.36202 0
M  V30 2649 H 243.08 0.8179 6.92789 0
M  V30 2650 H 238.977 -0.319294 6.4471 0
M  V30 2651 H 239.745 0.886454 8.13686 0
M  V30 2652 N 242.408 -1.52605 -0.393616 0
M  V30 2653 C 243.648 -1.6911 -1.1481 0
M  V30 2654 C 244.012 -0.41969 -1.87357 0
M  V30 2655 O 245.213 -0.461034 -2.64817 0
M  V30 2656 C 243.484 -2.88909 -2.10395 0
M  V30 2657 S 245.043 -3.25977 -2.93742 0
M  V30 2658 H 241.861 -0.595337 -0.38871 0
M  V30 2659 H 244.463 -1.90641 -0.433178 0
M  V30 2660 H 243.167 -3.79672 -1.55812 0
M  V30 2661 H 242.698 -2.69698 -2.86403 0
M  V30 2662 H 244.713 -2.75806 -4.12487 0
M  V30 2663 N 243.887 0.651787 -1.4349 0
M  V30 2664 C 245.134 1.41167 -1.45183 0
M  V30 2665 C 245.462 1.94349 -0.0766601 0
M  V30 2666 O 244.717 1.72804 0.918555 0
M  V30 2667 C 245.016 2.60914 -2.44251 0
M  V30 2668 C 244.682 2.26142 -3.9009 0
M  V30 2669 C 243.344 2.16371 -4.2981 0
M  V30 2670 C 245.696 1.98334 -4.81989 0
M  V30 2671 C 243.024 1.7695 -5.5938 0
M  V30 2672 C 245.376 1.6041 -6.11924 0
M  V30 2673 C 244.04 1.49166 -6.5062 0
M  V30 2674 H 243.31 0.516566 -0.531263 0
M  V30 2675 H 245.957 0.741099 -1.76579 0
M  V30 2676 H 244.262 3.3311 -2.06265 0
M  V30 2677 H 245.959 3.19127 -2.42815 0
M  V30 2678 H 242.549 2.34658 -3.58655 0
M  V30 2679 H 246.733 2.04803 -4.52072 0
M  V30 2680 H 241.989 1.66831 -5.88198 0
M  V30 2681 H 246.163 1.37925 -6.82605 0
M  V30 2682 H 243.79 1.1839 -7.50925 0
M  V30 2683 N 245.365 1.30045 0.890287 0
M  V30 2684 C 246.781 1.08261 1.17268 0
M  V30 2685 C 246.981 -0.160063 2.00863 0
M  V30 2686 O 246.037 -0.855181 2.37577 0
M  V30 2687 C 247.35 2.34323 1.8845 0
M  V30 2688 C 248.898 2.39735 2.01237 0
M  V30 2689 C 249.373 3.65625 2.7583 0
M  V30 2690 N 250.864 3.66402 2.83379 0
M  V30 2691 C 251.599 4.60498 3.41657 0
M  V30 2692 N 251.095 5.64933 4.01026 0
M  V30 2693 N 252.888 4.48051 3.39421 0
M  V30 2694 H 245.039 2.09777 0.332762 0
M  V30 2695 H 247.302 0.92446 0.209948 0
M  V30 2696 H 247.008 3.2498 1.34465 0
M  V30 2697 H 246.882 2.4256 2.88867 0
M  V30 2698 H 249.269 1.4956 2.54393 0
M  V30 2699 H 249.35 2.35476 0.999232 0
M  V30 2700 H 248.994 4.56156 2.23347 0
M  V30 2701 H 248.924 3.67144 3.77509 0
M  V30 2702 H 251.415 2.90896 2.41222 0
M  V30 2703 H 251.728 6.32841 4.43545 0
M  V30 2704 H 250.073 5.68732 3.99461 0
M  V30 2705 H 253.264 3.65649 2.92264 0
M  V30 2706 H 253.437 5.21565 3.84544 0
M  V30 2707 N 246.843 -1.10192 1.12674 0
M  V30 2708 C 247.79 -2.16606 0.796906 0
M  V30 2709 C 248.76 -1.64394 -0.237476 0
M  V30 2710 O 249.945 -1.90474 -0.111484 0
M  V30 2711 C 247.085 -3.44116 0.26043 0
M  V30 2712 C 246.198 -4.10268 1.35293 0
M  V30 2713 C 245.333 -5.25507 0.775621 0
M  V30 2714 C 244.372 -5.83567 1.84706 0
M  V30 2715 N 243.509 -6.90179 1.28829 0
M  V30 2716 H 248.349 -2.44163 1.70846 0
M  V30 2717 H 245.886 -1.19846 0.85295 0
M  V30 2718 H 247.844 -4.17143 -0.0686814 0
M  V30 2719 H 246.474 -3.16901 -0.614274 0
M  V30 2720 H 245.526 -3.35184 1.79877 0
M  V30 2721 H 246.838 -4.4946 2.16303 0
M  V30 2722 H 245.992 -6.05398 0.397327 0
M  V30 2723 H 244.731 -4.87656 -0.0656581 0
M  V30 2724 H 243.736 -5.02344 2.23452 0
M  V30 2725 H 244.961 -6.23482 2.69161 0
M  V30 2726 H 242.907 -6.54322 0.468881 0
M  V30 2727 H 242.824 -7.28097 2.03497 0
M  V30 2728 H 244.092 -7.73844 0.937311 0
M  V30 2729 N 248.321 -0.919034 -1.28029 0
M  V30 2730 C 249.598 -0.473668 -1.89778 0
M  V30 2731 C 249.978 1.04783 -1.83259 0
M  V30 2732 O 249.326 1.8982 -1.27202 0
M  V30 2733 C 249.536 -1.00998 -3.34066 0
M  V30 2734 C 250.884 -1.06525 -4.1102 0
M  V30 2735 O 251.908 -0.958996 -3.43048 0
M  V30 2736 O 250.767 -1.22776 -5.3253 0
M  V30 2737 H 247.861 -0.15098 -0.813101 0
M  V30 2738 H 250.407 -1.01016 -1.36359 0
M  V30 2739 H 249.179 -2.05392 -3.33061 0
M  V30 2740 H 248.802 -0.454626 -3.94992 0
M  V30 2741 N 249.799 1.42003 -0.683588 0
M  V30 2742 C 250.732 2.28166 0.039592 0
M  V30 2743 C 251.71 1.41562 0.799942 0
M  V30 2744 O 252.894 1.70997 0.793248 0
M  V30 2745 C 250.021 3.21575 1.06335 0
M  V30 2746 C 249.067 4.24643 0.397562 0
M  V30 2747 S 249.9 5.2869 -0.851296 0
M  V30 2748 C 251.056 6.25666 0.171166 0
M  V30 2749 H 251.289 2.89153 -0.691229 0
M  V30 2750 H 248.822 1.46962 -0.473435 0
M  V30 2751 H 250.78 3.75928 1.6489 0
M  V30 2752 H 249.441 2.59707 1.76667 0
M  V30 2753 H 248.634 4.90223 1.17035 0
M  V30 2754 H 248.236 3.73824 -0.114611 0
M  V30 2755 H 250.528 6.69653 1.02819 0
M  V30 2756 H 251.471 7.06666 -0.450397 0
M  V30 2757 H 251.879 5.62095 0.520578 0
M  V30 2758 N 251.277 0.427512 1.51691 0
M  V30 2759 C 252.554 -0.201684 1.94557 0
M  V30 2760 C 252.934 -1.60981 1.36559 0
M  V30 2761 O 252.282 -2.21814 0.548702 0
M  V30 2762 C 252.492 -0.189394 3.48486 0
M  V30 2763 C 253.84 -0.39978 4.22714 0
M  V30 2764 O 254.864 -0.267945 3.55191 0
M  V30 2765 O 253.723 -0.661249 5.42485 0
M  V30 2766 H 250.817 -0.135261 0.815864 0
M  V30 2767 H 253.363 0.484782 1.62628 0
M  V30 2768 H 252.135 0.795431 3.8313 0
M  V30 2769 H 251.758 -0.919187 3.86829 0
M  V30 2770 N 252.755 -1.56801 0.158532 0
M  V30 2771 C 253.702 -2.17337 -0.776729 0
M  V30 2772 C 254.672 -1.1096 -1.23601 0
M  V30 2773 O 255.857 -1.39054 -1.30647 0
M  V30 2774 C 252.997 -2.80822 -2.00582 0
M  V30 2775 C 252.11 -4.01624 -1.59129 0
M  V30 2776 C 251.245 -4.53072 -2.77306 0
M  V30 2777 C 250.284 -5.66314 -2.32282 0
M  V30 2778 N 249.421 -6.12329 -3.43508 0
M  V30 2779 H 254.261 -2.96918 -0.253701 0
M  V30 2780 H 251.798 -1.46661 -0.113504 0
M  V30 2781 H 253.756 -3.15779 -2.72652 0
M  V30 2782 H 252.386 -2.03866 -2.50277 0
M  V30 2783 H 251.438 -3.72571 -0.767806 0
M  V30 2784 H 252.75 -4.83633 -1.2207 0
M  V30 2785 H 251.904 -4.90145 -3.57551 0
M  V30 2786 H 250.643 -3.70095 -3.17617 0
M  V30 2787 H 249.648 -5.28806 -1.5048 0
M  V30 2788 H 250.873 -6.51085 -1.93043 0
M  V30 2789 H 248.819 -5.32284 -3.83418 0
M  V30 2790 H 248.736 -6.89293 -3.105 0
M  V30 2791 H 250.004 -6.5405 -4.24075 0
M  V30 2792 N 254.233 0.115231 -1.57178 0
M  V30 2793 C 255.479 0.82357 -1.85325 0
M  V30 2794 C 255.812 1.79349 -0.744814 0
M  V30 2795 O 255.087 1.92899 0.249024 0
M  V30 2796 C 255.37 1.57014 -3.24066 0
M  V30 2797 C 255.223 0.619565 -4.45513 0
M  V30 2798 C 256.542 2.52545 -3.60429 0
M  V30 2799 H 253.661 0.297948 -0.674089 0
M  V30 2800 H 256.303 0.0877138 -1.89797 0
M  V30 2801 H 254.453 2.19742 -3.20383 0
M  V30 2802 H 256.125 0.000837639 -4.613 0
M  V30 2803 H 254.368 -0.0686174 -4.33746 0
M  V30 2804 H 255.039 1.17866 -5.3927 0
M  V30 2805 H 257.515 1.9992 -3.64926 0
M  V30 2806 H 256.391 3.01811 -4.58477 0
M  V30 2807 H 256.652 3.35383 -2.88047 0
M  V30 2808 N 255.711 1.52812 0.385517 0
M  V30 2809 C 256.621 1.80766 1.49535 0
M  V30 2810 C 257.637 0.694651 1.59532 0
M  V30 2811 O 258.813 0.982611 1.75803 0
M  V30 2812 C 255.878 1.97381 2.85029 0
M  V30 2813 C 254.939 3.21295 2.84724 0
M  V30 2814 C 254.172 3.37108 4.13756 0
M  V30 2815 O 254.395 2.5765 5.08893 0
M  V30 2816 O 253.329 4.30378 4.20783 0
M  V30 2817 H 257.155 2.75015 1.28842 0
M  V30 2818 H 254.74 1.37946 0.573697 0
M  V30 2819 H 256.622 2.09996 3.65349 0
M  V30 2820 H 255.297 1.06322 3.05741 0
M  V30 2821 H 254.204 3.1412 2.03174 0
M  V30 2822 H 255.537 4.12212 2.68965 0
M  V30 2823 N 257.189 -0.644168 1.43834 0
M  V30 2824 C 258.417 -1.43147 1.49387 0
M  V30 2825 C 258.832 -1.88452 0.114583 0
M  V30 2826 O 258.189 -1.60047 -0.876989 0
M  V30 2827 C 258.24 -2.66046 2.44748 0
M  V30 2828 O 257.961 -2.22633 3.77314 0
M  V30 2829 C 259.462 -3.59311 2.59635 0
M  V30 2830 H 256.682 -0.439447 0.507077 0
M  V30 2831 H 259.226 -0.78895 1.88669 0
M  V30 2832 H 257.381 -3.26418 2.08638 0
M  V30 2833 H 257.795 -3.02216 4.28679 0
M  V30 2834 H 259.269 -4.42187 3.30416 0
M  V30 2835 H 259.746 -4.07259 1.64427 0
M  V30 2836 H 260.352 -3.04816 2.96593 0
M  V30 2837 N 258.668 -1.30515 -0.883378 0
M  V30 2838 C 259.915 -1.1943 -1.63532 0
M  V30 2839 C 260.243 0.250627 -1.92878 0
M  V30 2840 O 259.498 1.19556 -1.54935 0
M  V30 2841 C 259.797 -1.96994 -2.98209 0
M  V30 2842 C 259.463 -3.466 -2.88408 0
M  V30 2843 C 258.125 -3.87397 -2.85442 0
M  V30 2844 C 260.477 -4.41863 -2.76418 0
M  V30 2845 C 257.805 -5.21745 -2.68327 0
M  V30 2846 C 260.157 -5.7632 -2.60841 0
M  V30 2847 C 258.821 -6.16354 -2.56251 0
M  V30 2848 H 258.091 -0.437025 -0.598406 0
M  V30 2849 H 260.738 -1.61635 -1.02696 0
M  V30 2850 H 259.043 -1.47429 -3.63004 0
M  V30 2851 H 260.74 -1.85808 -3.55354 0
M  V30 2852 H 257.33 -3.14182 -2.91527 0
M  V30 2853 H 261.514 -4.11285 -2.77775 0
M  V30 2854 H 256.77 -5.51853 -2.63189 0
M  V30 2855 H 260.944 -6.49772 -2.50538 0
M  V30 2856 H 258.571 -7.20401 -2.42748 0
M  V30 2857 N 260.146 1.09593 -1.13257 0
M  V30 2858 C 261.076 2.18214 -0.830946 0
M  V30 2859 C 262.057 1.68812 0.208966 0
M  V30 2860 O 263.242 1.9408 0.0682666 0
M  V30 2861 C 260.372 3.46051 -0.294296 0
M  V30 2862 C 259.326 4.08778 -1.26826 0
M  V30 2863 C 258.652 5.31419 -0.591449 0
M  V30 2864 C 259.952 4.51476 -2.62615 0
M  V30 2865 H 261.646 2.43703 -1.73923 0
M  V30 2866 H 259.192 1.17128 -0.837675 0
M  V30 2867 H 261.145 4.2134 -0.0709606 0
M  V30 2868 H 259.869 3.20079 0.649366 0
M  V30 2869 H 258.528 3.35505 -1.47756 0
M  V30 2870 H 258.176 5.01727 0.357633 0
M  V30 2871 H 257.876 5.74341 -1.24123 0
M  V30 2872 H 259.4 6.09433 -0.377355 0
M  V30 2873 H 260.814 5.17999 -2.45663 0
M  V30 2874 H 259.211 5.05277 -3.23752 0
M  V30 2875 H 260.281 3.63962 -3.20406 0
M  V30 2876 N 261.624 0.925811 1.2754 0
M  V30 2877 C 263.04 0.625767 1.46821 0
M  V30 2878 C 263.24 -0.825506 1.83814 0
M  V30 2879 O 262.296 -1.60356 1.95044 0
M  V30 2880 C 263.609 1.57402 2.56213 0
M  V30 2881 C 265.157 1.58204 2.70075 0
M  V30 2882 C 265.632 2.51721 3.82623 0
M  V30 2883 N 267.123 2.49917 3.89994 0
M  V30 2884 C 267.858 3.18968 4.76494 0
M  V30 2885 N 267.354 3.97391 5.67496 0
M  V30 2886 N 269.147 3.07996 4.70208 0
M  V30 2887 H 261.298 1.86409 1.01811 0
M  V30 2888 H 263.561 0.800213 0.508295 0
M  V30 2889 H 263.267 2.60925 2.35819 0
M  V30 2890 H 263.141 1.31428 3.53563 0
M  V30 2891 H 265.528 0.554124 2.89851 0
M  V30 2892 H 265.609 1.88226 1.73218 0
M  V30 2893 H 265.253 3.54622 3.63601 0
M  V30 2894 H 265.183 2.18996 4.78903 0
M  V30 2895 H 267.674 1.9296 3.24923 0
M  V30 2896 H 267.987 4.4707 6.30356 0
M  V30 2897 H 266.332 4.01495 5.67298 0
M  V30 2898 H 269.523 2.46223 3.9811 0
M  V30 2899 H 269.696 3.6208 5.37403 0
M  V30 2900 N 263.102 -1.41638 0.69111 0
M  V30 2901 C 264.351 -2.00526 0.217318 0
M  V30 2902 C 264.664 -1.55353 -1.18848 0
M  V30 2903 O 265.87 -2.06769 -1.75951 0
M  V30 2904 C 264.326 -3.58313 0.337639 0
M  V30 2905 C 263.934 -4.12469 1.74852 0
M  V30 2906 C 265.678 -4.24431 -0.0766066 0
M  V30 2907 C 263.585 -5.62675 1.82074 0
M  V30 2908 H 262.515 -0.750008 0.0774893 0
M  V30 2909 H 265.166 -1.6217 0.858661 0
M  V30 2910 H 263.548 -3.9425 -0.371879 0
M  V30 2911 H 264.722 -3.8796 2.48644 0
M  V30 2912 H 263.037 -3.58861 2.11205 0
M  V30 2913 H 265.634 -5.34683 -0.0430284 0
M  V30 2914 H 265.977 -4.01101 -1.1146 0
M  V30 2915 H 266.51 -3.93512 0.582476 0
M  V30 2916 H 263.249 -5.90826 2.83911 0
M  V30 2917 H 262.769 -5.89124 1.12661 0
M  V30 2918 H 264.448 -6.27371 1.58159 0
M  V30 2919 N 264.58 -0.43555 -1.51462 0
M  V30 2920 C 265.826 0.131709 -2.02372 0
M  V30 2921 C 266.159 1.42516 -1.3192 0
M  V30 2922 O 265.434 1.89606 -0.433573 0
M  V30 2923 C 265.717 0.352301 -3.58373 0
M  V30 2924 C 265.57 -0.959676 -4.39443 0
M  V30 2925 C 266.889 1.12286 -4.25535 0
M  V30 2926 H 264.008 0.0463936 -0.735538 0
M  V30 2927 H 266.65 -0.574197 -1.81116 0
M  V30 2928 H 264.8 0.9536 -3.76615 0
M  V30 2929 H 266.472 -1.59482 -4.32855 0
M  V30 2930 H 264.715 -1.56468 -4.04599 0
M  V30 2931 H 265.386 -0.759394 -5.46752 0
M  V30 2932 H 267.862 0.613545 -4.11552 0
M  V30 2933 H 266.738 1.24598 -5.34571 0
M  V30 2934 H 266.999 2.15048 -3.86273 0
M  V30 2935 N 266.058 1.56714 -0.166846 0
M  V30 2936 C 266.99 2.14914 0.796537 0
M  V30 2937 C 268.003 1.10357 1.19688 0
M  V30 2938 O 269.192 1.37561 1.13751 0
M  V30 2939 C 266.292 2.67326 2.08303 0
M  V30 2940 C 265.465 3.96493 1.84696 0
M  V30 2941 C 264.524 4.34014 2.97521 0
M  V30 2942 O 263.55 5.01973 2.6835 0
M  V30 2943 N 264.752 3.95208 4.25196 0
M  V30 2944 H 267.517 2.98205 0.299006 0
M  V30 2945 H 265.078 1.61892 0.0160839 0
M  V30 2946 H 267.07 2.89428 2.82867 0
M  V30 2947 H 265.64 1.88649 2.4926 0
M  V30 2948 H 264.86 3.82814 0.940602 0
M  V30 2949 H 266.148 4.8086 1.66285 0
M  V30 2950 H 265.546 3.40487 4.51758 0
M  V30 2951 H 264.103 4.2232 4.96477 0
M  V30 2952 N 267.536 -0.106894 1.57237 0
M  V30 2953 C 268.776 -0.818277 1.87306 0
M  V30 2954 C 269.14 -1.76474 0.756371 0
M  V30 2955 O 270.341 -2.5186 0.939155 0
M  V30 2956 C 268.612 -1.53806 3.22612 0
M  V30 2957 S 270.171 -2.28935 3.74345 0
M  V30 2958 H 266.989 -0.272862 0.656557 0
M  V30 2959 H 269.591 -0.075988 1.95352 0
M  V30 2960 H 268.295 -0.834951 4.01817 0
M  V30 2961 H 267.826 -2.32049 3.17674 0
M  V30 2962 H 269.841 -3.54871 3.46815 0
M  V30 2963 N 269.014 -1.53014 -0.377408 0
M  V30 2964 C 270.43 -1.42523 -0.718281 0
M  V30 2965 C 270.63 -0.55487 -1.9371 0
M  V30 2966 O 269.686 -0.0327593 -2.52479 0
M  V30 2967 C 270.999 -2.85546 -0.942539 0
M  V30 2968 C 272.547 -2.95101 -1.04329 0
M  V30 2969 C 273.022 -4.3916 -1.3001 0
M  V30 2970 N 274.513 -4.42536 -1.36806 0
M  V30 2971 C 275.248 -5.51097 -1.58364 0
M  V30 2972 N 274.744 -6.69724 -1.77317 0
M  V30 2973 N 276.537 -5.38657 -1.60638 0
M  V30 2974 H 268.688 -2.08116 0.424426 0
M  V30 2975 H 270.951 -0.939352 0.127759 0
M  V30 2976 H 270.657 -3.51499 -0.118929 0
M  V30 2977 H 270.531 -3.28493 -1.85397 0
M  V30 2978 H 272.918 -2.29309 -1.85745 0
M  V30 2979 H 272.999 -2.55566 -0.109505 0
M  V30 2980 H 272.643 -5.05521 -0.490991 0
M  V30 2981 H 272.573 -4.76258 -2.24691 0
M  V30 2982 H 275.064 -3.57039 -1.23821 0
M  V30 2983 H 275.377 -7.48233 -1.93306 0
M  V30 2984 H 273.722 -6.72732 -1.74518 0
M  V30 2985 H 276.913 -4.44948 -1.45391 0
M  V30 2986 H 277.086 -6.2333 -1.77098 0
M  V30 2987 N 270.492 0.636531 -1.44174 0
M  V30 2988 C 271.717 1.42847 -1.50364 0
M  V30 2989 C 272.142 1.87665 -0.127867 0
M  V30 2990 O 271.5 1.58408 0.88185 0
M  V30 2991 C 271.548 2.62854 -2.4686 0
M  V30 2992 O 270.652 3.62501 -1.9664 0
M  V30 2993 H 269.993 0.427642 -0.507955 0
M  V30 2994 H 272.523 0.777422 -1.89255 0
M  V30 2995 H 272.533 3.10465 -2.64718 0
M  V30 2996 H 271.208 2.29578 -3.46795 0
M  V30 2997 H 269.785 3.21735 -1.88523 0
M  V30 2998 N 271.97 1.30982 0.876444 0
M  V30 2999 C 273.216 1.20474 1.63138 0
M  V30 3000 C 273.549 -0.238096 1.92735 0
M  V30 3001 O 272.824 -1.1692 1.55435 0
M  V30 3002 C 273.107 2.04244 2.96574 0
M  V30 3003 C 272.96 3.56793 2.73896 0
M  V30 3004 C 274.279 1.88684 3.97601 0
M  V30 3005 H 271.398 0.439001 0.591985 0
M  V30 3006 H 274.04 1.60704 1.01361 0
M  V30 3007 H 272.19 1.70063 3.493 0
M  V30 3008 H 273.862 4.01077 2.27892 0
M  V30 3009 H 272.105 3.80548 2.08245 0
M  V30 3010 H 272.776 4.10706 3.68815 0
M  V30 3011 H 275.252 2.18584 3.54062 0
M  V30 3012 H 274.128 2.4961 4.88862 0
M  V30 3013 H 274.389 0.848343 4.33884 0
M  V30 3014 N 273.449 -1.08991 1.13837 0
M  V30 3015 C 274.359 -2.19301 0.833333 0
M  V30 3016 C 275.375 -1.73026 -0.183847 0
M  V30 3017 O 276.551 -2.01395 -0.0138092 0
M  V30 3018 C 273.616 -3.45323 0.308651 0
M  V30 3019 C 272.677 -4.06255 1.38764 0
M  V30 3020 C 271.91 -5.26262 0.887896 0
M  V30 3021 O 272.133 -5.69747 -0.27287 0
M  V30 3022 O 271.067 -5.78435 1.66421 0
M  V30 3023 H 274.893 -2.47854 1.75506 0
M  V30 3024 H 272.478 -1.18012 0.916166 0
M  V30 3025 H 274.36 -4.21394 0.0216739 0
M  V30 3026 H 273.035 -3.18362 -0.585431 0
M  V30 3027 H 271.942 -3.318 1.72799 0
M  V30 3028 H 273.275 -4.37452 2.25602 0
M  V30 3029 N 274.927 -0.932562 -1.27047 0
M  V30 3030 C 276.175 -0.574422 -1.93765 0
M  V30 3031 C 276.496 0.887993 -1.73608 0
M  V30 3032 O 275.766 1.62999 -1.08665 0
M  V30 3033 H 274.346 -0.209451 -0.717035 0
M  V30 3034 H 277.008 -1.18601 -1.5466 0
M  V30 3035 H 276.104 -0.784841 -3.02071 0
M  V30 3036 N 276.405 1.4127 -0.698611 0
M  V30 3037 C 277.63 2.06024 -0.238512 0
M  V30 3038 C 278.055 1.5224 1.10475 0
M  V30 3039 O 277.413 0.650623 1.69223 0
M  V30 3040 C 277.461 3.59988 -0.209952 0
M  V30 3041 O 276.565 4.04282 0.814235 0
M  V30 3042 H 275.906 0.653829 -0.115775 0
M  V30 3043 H 278.436 1.8098 -0.954326 0
M  V30 3044 H 278.446 4.07979 -0.0418436 0
M  V30 3045 H 277.121 3.98503 -1.1903 0
M  V30 3046 H 275.698 3.6779 0.615234 0
M  V30 3047 N 277.883 0.443576 1.51229 0
M  V30 3048 C 279.123 -0.119889 2.04048 0
M  V30 3049 C 279.487 -1.39418 1.32009 0
M  V30 3050 O 280.688 -2.03829 1.75235 0
M  V30 3051 C 278.959 -0.327233 3.55899 0
M  V30 3052 S 280.518 -0.853208 4.30425 0
M  V30 3053 H 277.336 -0.028921 0.710412 0
M  V30 3054 H 279.938 0.604413 1.85922 0
M  V30 3055 H 278.642 0.606445 4.05895 0
M  V30 3056 H 278.173 -1.07844 3.7833 0
M  V30 3057 H 280.188 -2.13005 4.48155 0
M  V30 3058 N 279.361 -1.56624 0.175154 0
M  V30 3059 C 280.609 -1.96609 -0.467885 0
M  V30 3060 C 280.93 -1.06238 -1.63519 0
M  V30 3061 O 280.2 -0.129523 -1.95471 0
M  V30 3062 H 278.78 -0.726008 -0.175845 0
M  V30 3063 H 281.442 -1.93195 0.257234 0
M  V30 3064 H 280.538 -3.00989 -0.825342 0
M  V30 3065 N 280.839 0.0985539 -1.57292 0
M  V30 3066 C 282.086 0.802678 -1.85912 0
M  V30 3067 C 282.414 1.78901 -0.763186 0
M  V30 3068 O 281.669 1.94178 0.243559 0
M  V30 3069 C 281.968 1.56927 -3.21105 0
M  V30 3070 C 281.634 0.725376 -4.45027 0
M  V30 3071 C 280.296 0.492726 -4.78671 0
M  V30 3072 C 282.648 0.138493 -5.21016 0
M  V30 3073 C 279.976 -0.336727 -5.85733 0
M  V30 3074 C 282.328 -0.678264 -6.28953 0
M  V30 3075 C 280.992 -0.921039 -6.61115 0
M  V30 3076 H 280.262 0.293721 -0.680301 0
M  V30 3077 H 282.909 0.0642841 -1.91392 0
M  V30 3078 H 281.214 2.37914 -3.11294 0
M  V30 3079 H 282.911 2.11841 -3.40477 0
M  V30 3080 H 279.501 0.916815 -4.18679 0
M  V30 3081 H 283.685 0.305404 -4.95359 0
M  V30 3082 H 278.941 -0.533836 -6.09065 0
M  V30 3083 H 283.115 -1.1399 -6.87007 0
M  V30 3084 H 280.742 -1.56556 -7.43905 0
M  V30 3085 O 282.356 1.59668 0.242586 0
M  V30 3086 H 283.047 1.72276 0.885483 0
M  V30 END ATOM
M  V30 BEGIN BOND
M  V30 END BOND
M  V30 END CTAB
M  END
$$$$
