drugbank_drug|DB00026 DB00026 sequence
 OpenBabel12092119123D

  0  0  0     0  0            999 V3000
M  V30 BEGIN CTAB
M  V30 COUNTS 2392 2417 0 0 0
M  V30 BEGIN ATOM
M  V30 1 H -0.908 1.98254 -0.117106 0
M  V30 2 N 0 1.576 0 0
M  V30 3 C 0.933 2.03868 1.02534 0
M  V30 4 C 1.911 0.928543 1.3348 0
M  V30 5 O 3.095 1.19667 1.45644 0
M  V30 6 C 0.222 2.43627 2.35294 0
M  V30 7 C -0.732 3.65373 2.2001 0
M  V30 8 S 0.101 5.13292 1.52614 0
M  V30 9 C 1.257 5.56322 2.86805 0
M  V30 10 H 1.49 2.90518 0.631377 0
M  V30 11 H -0.977 1.52953 0.210867 0
M  V30 12 H 0.981 2.67203 3.11629 0
M  V30 13 H -0.358 1.57376 2.7183 0
M  V30 14 H -1.165 3.90944 3.18086 0
M  V30 15 H -1.563 3.418 1.51819 0
M  V30 16 H 0.729 5.58782 3.83104 0
M  V30 17 H 1.672 6.56266 2.65933 0
M  V30 18 H 2.08 4.83886 2.90714 0
M  V30 19 N 1.4781 -0.272755 1.55222 0
M  V30 20 C 2.8941 -0.619959 1.47067 0
M  V30 21 C 3.0941 -1.895 0.684978 0
M  V30 22 O 2.1501 -2.51675 0.203931 0
M  V30 23 C 3.4631 -0.746693 2.91282 0
M  V30 24 C 5.0111 -0.840731 3.01497 0
M  V30 25 C 5.4861 -0.99924 4.46967 0
M  V30 26 N 6.9771 -1.06476 4.50796 0
M  V30 27 C 7.7121 -1.20621 5.6057 0
M  V30 28 N 7.2081 -1.31483 6.80209 0
M  V30 29 N 9.0011 -1.23733 5.48312 0
M  V30 30 H 1.1521 0.564606 2.04758 0
M  V30 31 H 3.4151 0.191177 0.928523 0
M  V30 32 H 3.1211 0.119753 3.51496 0
M  V30 33 H 2.9951 -1.6269 3.40311 0
M  V30 34 H 5.3821 -1.69764 2.41379 0
M  V30 35 H 5.4631 0.0640874 2.5572 0
M  V30 36 H 5.1071 -0.146984 5.07687 0
M  V30 37 H 5.0371 -1.91871 4.90401 0
M  V30 38 H 7.5281 -0.993196 3.64615 0
M  V30 39 H 7.8411 -1.42111 7.59621 0
M  V30 40 H 6.1861 -1.28487 6.8302 0
M  V30 41 H 9.3771 -1.14877 4.53785 0
M  V30 42 H 9.5501 -1.34412 6.33906 0
M  V30 43 N 2.9562 -1.48159 -0.537278 0
M  V30 44 C 4.3672 -1.49429 -1.11928 0
M  V30 45 C 4.7182 -0.26 -1.9447 0
M  V30 46 O 3.8432 0.633489 -2.0692 0
M  V30 47 C 4.4382 -2.70758 -2.03656 0
M  V30 48 C 2.9972 -2.74923 -2.57088 0
M  V30 49 C 2.1442 -2.42835 -1.3389 0
M  V30 50 H 5.0952 -1.55381 -0.322886 0
M  V30 51 H 5.1162 -2.48861 -2.87834 0
M  V30 52 H 4.6282 -3.60575 -1.43553 0
M  V30 53 H 2.7292 -1.89296 -3.20933 0
M  V30 54 H 2.8422 -3.76157 -2.9672 0
M  V30 55 H 1.2062 -1.93836 -1.65226 0
M  V30 56 H 1.9892 -3.34884 -0.755504 0
M  V30 57 N 4.4343 0.785586 -1.36625 0
M  V30 58 C 5.6593 1.57963 -1.34397 0
M  V30 59 C 6.0843 1.87964 0.071526 0
M  V30 60 O 5.4423 1.48182 1.0446 0
M  V30 61 C 5.4903 2.87511 -2.17646 0
M  V30 62 O 4.5943 3.81281 -1.57158 0
M  V30 63 H 3.9353 0.479014 -0.459828 0
M  V30 64 H 6.4653 0.973411 -1.79961 0
M  V30 65 H 6.4753 3.36745 -2.30362 0
M  V30 66 H 5.1503 2.65002 -3.20541 0
M  V30 67 H 3.7273 3.39885 -1.53403 0
M  V30 68 N 5.9124 1.20967 1.01018 0
M  V30 69 C 7.1604 1.02172 1.74371 0
M  V30 70 C 7.4814 -0.446414 1.89821 0
M  V30 71 O 6.7514 -1.32234 1.44537 0
M  V30 72 H 5.3314 0.375066 0.646014 0
M  V30 73 H 7.9934 1.52187 1.21758 0
M  V30 74 H 7.0894 1.48538 2.74487 0
M  V30 75 N 7.3905 -1.2043 1.01659 0
M  V30 76 C 8.8065 -1.41852 0.731442 0
M  V30 77 C 9.0065 -1.89358 -0.688898 0
M  V30 78 O 8.0625 -2.06247 -1.45666 0
M  V30 79 C 9.3755 -2.44019 1.75714 0
M  V30 80 C 10.9235 -2.57785 1.77527 0
M  V30 81 C 11.3985 -3.63194 2.79023 0
M  V30 82 N 12.8895 -3.70678 2.77763 0
M  V30 83 C 13.6245 -4.51897 3.52954 0
M  V30 84 N 13.1205 -5.36921 4.37821 0
M  V30 85 N 14.9135 -4.4643 3.41551 0
M  V30 86 H 7.0645 -0.879093 1.93354 0
M  V30 87 H 9.3275 -0.448425 0.835236 0
M  V30 88 H 9.0335 -2.1611 2.77469 0
M  V30 89 H 8.9075 -3.43007 1.56927 0
M  V30 90 H 11.2945 -2.85023 0.764569 0
M  V30 91 H 11.3755 -1.58992 2.00387 0
M  V30 92 H 11.0195 -3.36699 3.80258 0
M  V30 93 H 10.9495 -4.61609 2.53425 0
M  V30 94 H 13.4405 -3.09944 2.16201 0
M  V30 95 H 13.7535 -5.95981 4.91962 0
M  V30 96 H 12.0985 -5.36424 4.41899 0
M  V30 97 H 15.2895 -3.79042 2.74672 0
M  V30 98 H 15.4625 -5.09491 4.00404 0
M  V30 99 N 8.8686 -0.792821 -1.36206 0
M  V30 100 C 9.8156 -0.191653 -2.30003 0
M  V30 101 C 10.7856 0.666453 -1.52143 0
M  V30 102 O 11.9706 0.61442 -1.80636 0
M  V30 103 C 9.1106 0.664848 -3.38635 0
M  V30 104 C 8.2236 -0.212175 -4.31479 0
M  V30 105 C 7.3586 0.651022 -5.27196 0
M  V30 106 C 6.3976 -0.227247 -6.11678 0
M  V30 107 N 5.5346 0.595127 -6.99573 0
M  V30 108 H 10.3746 -0.996978 -2.80828 0
M  V30 109 H 7.9116 -0.503206 -1.38225 0
M  V30 110 H 9.8696 1.17645 -4.00269 0
M  V30 111 H 8.4996 1.43557 -2.89122 0
M  V30 112 H 7.5516 -0.841777 -3.70969 0
M  V30 113 H 8.8636 -0.888751 -4.90818 0
M  V30 114 H 8.0176 1.2283 -5.94136 0
M  V30 115 H 6.7566 1.36121 -4.68319 0
M  V30 116 H 5.7616 -0.816904 -5.43697 0
M  V30 117 H 6.9866 -0.93509 -6.72631 0
M  V30 118 H 4.9326 1.28955 -6.432 0
M  V30 119 H 4.8496 -0.0236952 -7.55996 0
M  V30 120 H 6.1176 1.15613 -7.70879 0
M  V30 121 N 10.3467 1.47872 -0.545128 0
M  V30 122 C 11.5717 2.07391 -0.0190611 0
M  V30 123 C 11.9967 1.39688 1.25971 0
M  V30 124 O 11.3547 0.467816 1.7516 0
M  V30 125 C 11.4027 3.60188 0.172335 0
M  V30 126 O 10.5067 3.9339 1.23766 0
M  V30 127 H 9.8477 0.662411 -0.0459059 0
M  V30 128 H 12.3777 1.90066 -0.757365 0
M  V30 129 H 12.3877 4.06129 0.390305 0
M  V30 130 H 11.0627 4.08865 -0.761725 0
M  V30 131 H 9.6397 3.5921 1.00114 0
M  V30 132 N 11.8248 0.280983 1.55075 0
M  V30 133 C 13.0498 -0.340154 2.04592 0
M  V30 134 C 13.4748 -1.48246 1.15779 0
M  V30 135 O 12.8328 -1.80614 0.15761 0
M  V30 136 C 12.8808 -0.793104 3.5177 0
M  V30 137 O 11.9848 -1.89981 3.66034 0
M  V30 138 H 11.3258 -0.0694289 0.66036 0
M  V30 139 H 13.8558 0.416993 2.00306 0
M  V30 140 H 13.8658 -1.08729 3.93245 0
M  V30 141 H 12.5408 0.0426163 4.15878 0
M  V30 142 H 11.1178 -1.60771 3.36463 0
M  V30 143 N 13.3029 -1.57598 0.00835791 0
M  V30 144 C 14.2499 -2.08945 -0.980346 0
M  V30 145 C 15.2199 -0.986738 -1.33614 0
M  V30 146 O 16.4049 -1.25968 -1.43306 0
M  V30 147 C 13.5449 -2.60425 -2.26435 0
M  V30 148 C 12.6579 -3.84628 -1.96685 0
M  V30 149 C 11.7929 -4.24579 -3.19228 0
M  V30 150 C 10.8319 -5.41596 -2.85202 0
M  V30 151 N 9.9689 -5.768 -4.00307 0
M  V30 152 H 14.8089 -2.93148 -0.535551 0
M  V30 153 H 12.3459 -1.44912 -0.252776 0
M  V30 154 H 14.3039 -2.88354 -3.01509 0
M  V30 155 H 12.9339 -1.79083 -2.68568 0
M  V30 156 H 11.9859 -3.63556 -1.11942 0
M  V30 157 H 13.2979 -4.69796 -1.67611 0
M  V30 158 H 12.4519 -4.53834 -4.02641 0
M  V30 159 H 11.1909 -3.38137 -3.51447 0
M  V30 160 H 10.1959 -5.12056 -2.00198 0
M  V30 161 H 11.4209 -6.29721 -2.54222 0
M  V30 162 H 9.3669 -4.93316 -4.32407 0
M  V30 163 H 9.2839 -6.5656 -3.74786 0
M  V30 164 H 10.5519 -6.10652 -4.84484 0
M  V30 165 N 14.781 0.264519 -1.55364 0
M  V30 166 C 15.714 1.35297 -1.83766 0
M  V30 167 C 16.692 1.47171 -0.691336 0
M  V30 168 O 17.876 1.63663 -0.935238 0
M  V30 169 C 15.003 2.72847 -2.00679 0
M  V30 170 C 14.049 2.78214 -3.23263 0
M  V30 171 S 14.882 2.36601 -4.80396 0
M  V30 172 C 16.038 3.7611 -5.00292 0
M  V30 173 H 16.271 1.11003 -2.758 0
M  V30 174 H 13.804 0.464596 -1.47244 0
M  V30 175 H 15.762 3.52057 -2.11108 0
M  V30 176 H 14.423 2.94388 -1.09518 0
M  V30 177 H 13.616 3.7919 -3.3201 0
M  V30 178 H 13.218 2.07034 -3.11469 0
M  V30 179 H 15.51 4.71457 -4.86554 0
M  V30 180 H 16.453 3.7231 -6.02321 0
M  V30 181 H 16.861 3.67806 -4.28228 0
M  V30 182 N 16.2591 1.48442 0.529413 0
M  V30 183 C 17.1911 1.59095 1.64989 0
M  V30 184 C 18.2041 0.475212 1.5571 0
M  V30 185 O 19.3931 0.746081 1.6216 0
M  V30 186 C 16.4931 1.50518 3.0364 0
M  V30 187 C 15.6661 2.77142 3.38395 0
M  V30 188 C 14.7251 2.62012 4.56329 0
M  V30 189 O 13.7511 3.35898 4.59522 0
M  V30 190 N 14.9531 1.71667 5.54536 0
M  V30 191 H 17.7181 2.55723 1.56287 0
M  V30 192 H 15.2791 1.45173 0.716697 0
M  V30 193 H 17.2711 1.38091 3.80412 0
M  V30 194 H 15.8411 0.618627 3.06418 0
M  V30 195 H 15.0611 3.0413 2.50796 0
M  V30 196 H 16.3491 3.61146 3.58401 0
M  V30 197 H 15.7471 1.10841 5.54735 0
M  V30 198 H 14.3041 1.65178 6.30523 0
M  V30 199 N 17.7372 -0.778329 1.37039 0
M  V30 200 C 18.7002 -1.87301 1.32102 0
M  V30 201 C 19.7002 -1.59198 0.226405 0
M  V30 202 O 20.8902 -1.67403 0.481861 0
M  V30 203 C 18.0222 -3.24309 1.05055 0
M  V30 204 H 19.2152 -1.93093 2.29467 0
M  V30 205 H 16.7682 -0.977358 1.21973 0
M  V30 206 H 17.5032 -3.24196 0.0819373 0
M  V30 207 H 17.2882 -3.46098 1.84279 0
M  V30 208 H 18.7782 -4.04382 1.04234 0
M  V30 209 N 19.2153 -1.21501 -1.00376 0
M  V30 210 C 20.4623 -1.03299 -1.74171 0
M  V30 211 C 20.7903 0.433326 -1.89612 0
M  V30 212 O 20.0453 1.33779 -1.42834 0
M  V30 213 C 20.3443 -1.67673 -3.15627 0
M  V30 214 C 20.0103 -3.17533 -3.2013 0
M  V30 215 C 18.6723 -3.58427 -3.21067 0
M  V30 216 C 21.0243 -4.13504 -3.17275 0
M  V30 217 C 18.3523 -4.93794 -3.16835 0
M  V30 218 C 20.7043 -5.48834 -3.14585 0
M  V30 219 C 19.3683 -5.89123 -3.13831 0
M  V30 220 H 18.6383 -0.377999 -0.637336 0
M  V30 221 H 21.2853 -1.51111 -1.17634 0
M  V30 222 H 19.5903 -1.12158 -3.75404 0
M  V30 223 H 21.2873 -1.51091 -3.71446 0
M  V30 224 H 17.8773 -2.84965 -3.20145 0
M  V30 225 H 22.0613 -3.82936 -3.15711 0
M  V30 226 H 17.3173 -5.24255 -3.1459 0
M  V30 227 H 21.4913 -6.22934 -3.1133 0
M  V30 228 H 19.1183 -6.93984 -3.10307 0
M  V30 229 N 20.6934 1.19889 -1.02296 0
M  V30 230 C 22.1094 1.41462 -0.738954 0
M  V30 231 C 22.3094 1.89721 0.678846 0
M  V30 232 O 21.3654 2.07016 1.4457 0
M  V30 233 C 22.6784 2.43083 -1.77005 0
M  V30 234 C 24.2264 2.5684 -1.78892 0
M  V30 235 C 24.7014 3.61709 -2.80945 0
M  V30 236 N 26.1924 3.69199 -2.79725 0
M  V30 237 C 26.9274 4.50019 -3.55345 0
M  V30 238 N 26.4234 5.34592 -4.40662 0
M  V30 239 N 28.2164 4.44612 -3.43914 0
M  V30 240 H 20.3674 0.868827 -1.93817 0
M  V30 241 H 22.6304 0.44399 -0.837602 0
M  V30 242 H 22.3364 2.14636 -2.78612 0
M  V30 243 H 22.2104 3.4217 -1.58744 0
M  V30 244 H 24.5974 2.84614 -0.779674 0
M  V30 245 H 24.6784 1.57927 -2.01228 0
M  V30 246 H 24.3224 3.34678 -3.82038 0
M  V30 247 H 24.2524 4.60259 -2.5587 0
M  V30 248 H 26.7434 3.08794 -2.17842 0
M  V30 249 H 27.0564 5.93363 -4.95116 0
M  V30 250 H 25.4014 5.34073 -4.44737 0
M  V30 251 H 28.5924 3.7758 -2.76679 0
M  V30 252 H 28.7654 5.0736 -4.031 0
M  V30 253 N 22.1715 0.800033 1.35784 0
M  V30 254 C 23.4205 0.37387 1.98205 0
M  V30 255 C 23.7335 -1.06302 1.64193 0
M  V30 256 O 24.9395 -1.59198 2.19928 0
M  V30 257 C 23.3955 0.617532 3.54562 0
M  V30 258 C 23.0035 2.06654 3.9749 0
M  V30 259 C 24.7475 0.256401 4.23725 0
M  V30 260 C 22.6545 2.2563 5.46667 0
M  V30 261 H 21.5845 0.136055 0.741623 0
M  V30 262 H 24.2355 0.983166 1.54939 0
M  V30 263 H 22.6175 -0.0616248 3.95952 0
M  V30 264 H 23.7915 2.78296 3.67271 0
M  V30 265 H 22.1065 2.38691 3.41197 0
M  V30 266 H 24.7035 0.376318 5.33374 0
M  V30 267 H 25.0465 -0.796692 4.08606 0
M  V30 268 H 25.5795 0.889214 3.87734 0
M  V30 269 H 22.3185 3.2936 5.66747 0
M  V30 270 H 21.8385 1.58504 5.78478 0
M  V30 271 H 23.5175 2.06861 6.1304 0
M  V30 272 N 23.6496 -1.47581 0.552962 0
M  V30 273 C 24.8956 -2.03369 0.0355807 0
M  V30 274 C 25.2506 -1.42016 -1.29805 0
M  V30 275 O 24.5436 -0.564917 -1.83083 0
M  V30 276 C 24.7376 -3.57199 -0.119728 0
M  V30 277 C 24.5666 -4.33468 1.1973 0
M  V30 278 C 23.3366 -4.7353 1.76345 0
M  V30 279 C 25.5346 -4.68866 2.11351 0
M  V30 280 N 23.5166 -5.34426 3.02097 0
M  V30 281 C 24.8876 -5.3002 3.21681 0
M  V30 282 C 26.9426 -4.50795 2.11397 0
M  V30 283 C 25.6456 -5.75011 4.32151 0
M  V30 284 C 27.6716 -4.96782 3.20876 0
M  V30 285 C 27.0336 -5.57981 4.29926 0
M  V30 286 H 23.1326 -0.780058 0.0550806 0
M  V30 287 H 25.7166 -1.80117 0.739315 0
M  V30 288 H 23.8876 -3.80227 -0.792579 0
M  V30 289 H 25.6196 -3.99627 -0.638792 0
M  V30 290 H 22.3746 -4.55352 1.30196 0
M  V30 291 H 22.7986 -5.69421 3.66182 0
M  V30 292 H 27.4406 -4.0284 1.28372 0
M  V30 293 H 25.1586 -6.21959 5.15938 0
M  V30 294 H 28.7446 -4.84573 3.21994 0
M  V30 295 H 27.6246 -5.92918 5.13243 0
M  V30 296 N 25.1277 -0.289203 -1.54924 0
M  V30 297 C 26.4047 0.376032 -1.91951 0
M  V30 298 C 26.7847 1.72622 -1.21511 0
M  V30 299 O 26.1327 2.25853 -0.346767 0
M  V30 300 C 26.3427 0.502378 -3.45365 0
M  V30 301 C 27.6907 0.778741 -4.17398 0
M  V30 302 O 28.7147 0.586647 -3.51336 0
M  V30 303 O 27.5737 1.14698 -5.34328 0
M  V30 304 H 24.6677 0.208167 -0.800372 0
M  V30 305 H 27.2137 -0.336394 -1.66332 0
M  V30 306 H 25.9857 -0.447255 -3.88736 0
M  V30 307 H 25.6087 1.26373 -3.76982 0
M  V30 308 N 26.6058 1.57591 -0.0167156 0
M  V30 309 C 27.8518 1.91567 0.665582 0
M  V30 310 C 28.1848 0.892298 1.72487 0
M  V30 311 O 27.4598 -0.0867127 1.94307 0
M  V30 312 C 27.7428 3.36069 1.29342 0
M  V30 313 C 27.5958 4.49135 0.244541 0
M  V30 314 C 28.9148 3.803 2.21495 0
M  V30 315 H 26.0338 0.69666 0.240488 0
M  V30 316 H 28.6758 1.89866 -0.0714356 0
M  V30 317 H 26.8258 3.3765 1.92158 0
M  V30 318 H 28.4978 4.59689 -0.385228 0
M  V30 319 H 26.7408 4.3165 -0.431379 0
M  V30 320 H 27.4118 5.47242 0.723207 0
M  V30 321 H 29.8878 3.80377 1.68678 0
M  V30 322 H 28.7638 4.82127 2.62382 0
M  V30 323 H 29.0248 3.15104 3.101 0
M  V30 324 N 28.0839 -0.256276 1.55502 0
M  V30 325 C 29.0319 -1.33694 1.90338 0
M  V30 326 C 30.0259 -1.50299 0.781441 0
M  V30 327 O 31.2319 -1.51885 0.965966 0
M  V30 328 H 27.6069 -0.447483 0.60437 0
M  V30 329 H 29.5779 -1.01574 2.8058 0
M  V30 330 C 28.3269 -2.68724 2.20642 0
M  V30 331 H 27.6499 -2.56743 3.06469 0
M  V30 332 H 29.0899 -3.43237 2.48926 0
M  V30 333 C 27.5489 -3.21101 1.01959 0
M  V30 334 O 28.0789 -4.0084 0.262762 0
M  V30 335 N 26.2849 -2.79003 0.812746 0
M  V30 336 H 25.8319 -2.14271 1.42989 0
M  V30 337 H 25.7899 -3.14393 0.0203076 0
M  V30 338 N 29.562 -1.4872 -0.521534 0
M  V30 339 C 30.494 -1.59968 -1.64143 0
M  V30 340 C 31.507 -0.483463 -1.55456 0
M  V30 341 O 32.696 -0.75467 -1.61762 0
M  V30 342 C 29.796 -1.52127 -3.02838 0
M  V30 343 C 28.969 -2.78932 -3.36921 0
M  V30 344 C 28.028 -2.64428 -4.54933 0
M  V30 345 O 27.054 -3.38331 -4.57735 0
M  V30 346 N 28.256 -1.74606 -5.53618 0
M  V30 347 H 31.021 -2.56548 -1.54929 0
M  V30 348 H 28.582 -1.45551 -0.708988 0
M  V30 349 H 30.574 -1.40106 -3.79674 0
M  V30 350 H 29.144 -0.634868 -3.06085 0
M  V30 351 H 28.364 -3.05455 -2.4918 0
M  V30 352 H 29.652 -3.63041 -3.56481 0
M  V30 353 H 29.05 -1.13782 -5.54139 0
M  V30 354 H 27.607 -1.6852 -6.29638 0
M  V30 355 N 31.0401 0.771051 -1.3745 0
M  V30 356 C 31.9871 1.88435 -1.3327 0
M  V30 357 C 32.9571 1.64914 -0.198136 0
M  V30 358 O 34.1421 1.86821 -0.387606 0
M  V30 359 C 31.2821 3.25509 -1.14622 0
M  V30 360 C 30.3951 3.60979 -2.37314 0
M  V30 361 C 29.5301 4.87265 -2.11533 0
M  V30 362 C 28.5691 5.15469 -3.30088 0
M  V30 363 N 27.7061 6.32944 -3.03853 0
M  V30 364 H 32.5461 1.91344 -2.28455 0
M  V30 365 H 30.0831 0.935466 -1.13523 0
M  V30 366 H 32.0411 4.04582 -1.01831 0
M  V30 367 H 30.6711 3.21974 -0.230837 0
M  V30 368 H 29.7231 2.76885 -2.60842 0
M  V30 369 H 31.0351 3.77759 -3.25729 0
M  V30 370 H 30.1891 5.74244 -1.95777 0
M  V30 371 H 28.9281 4.7259 -1.20457 0
M  V30 372 H 27.9331 4.26966 -3.46382 0
M  V30 373 H 29.1581 5.32052 -4.22016 0
M  V30 374 H 27.1041 6.19625 -2.15407 0
M  V30 375 H 27.0211 6.50143 -3.85812 0
M  V30 376 H 28.2891 7.22857 -2.91716 0
M  V30 377 N 32.5182 1.22032 0.997298 0
M  V30 378 C 33.7462 1.06841 1.7718 0
M  V30 379 C 34.1612 -0.381325 1.84909 0
M  V30 380 O 33.5182 -1.26437 1.31605 0
M  V30 381 C 33.5692 1.66814 3.20711 0
M  V30 382 O 33.2902 3.06116 3.13408 0
M  V30 383 C 34.7912 1.56838 4.14628 0
M  V30 384 H 32.0112 0.374782 0.556578 0
M  V30 385 H 34.5552 1.61532 1.2541 0
M  V30 386 H 32.7102 1.16196 3.69564 0
M  V30 387 H 33.1242 3.34926 4.0364 0
M  V30 388 H 34.5982 2.03532 5.13107 0
M  V30 389 H 35.0752 0.524155 4.36061 0
M  V30 390 H 35.6812 2.06741 3.7167 0
M  V30 391 N 33.9963 -1.19345 1.0293 0
M  V30 392 C 35.2433 -1.89038 0.726008 0
M  V30 393 C 35.5713 -1.79649 -0.745427 0
M  V30 394 O 34.8263 -1.18354 -1.55855 0
M  V30 395 C 35.1253 -3.39292 1.12319 0
M  V30 396 C 34.7913 -3.68885 2.59297 0
M  V30 397 C 33.4533 -3.76671 2.99453 0
M  V30 398 C 35.8053 -3.82178 3.54386 0
M  V30 399 C 33.1333 -3.9522 4.33611 0
M  V30 400 C 35.4853 -4.0224 4.88248 0
M  V30 401 C 34.1493 -4.08259 5.28092 0
M  V30 402 H 33.4193 -0.691739 0.265665 0
M  V30 403 H 36.0663 -1.41328 1.29223 0
M  V30 404 H 34.3713 -3.88903 0.475584 0
M  V30 405 H 36.0683 -3.91536 0.866037 0
M  V30 406 H 32.6583 -3.63433 2.27189 0
M  V30 407 H 36.8423 -3.75505 3.24514 0
M  V30 408 H 32.0983 -3.98119 4.64016 0
M  V30 409 H 36.2723 -4.11468 5.61843 0
M  V30 410 H 33.8993 -4.22384 6.32057 0
M  V30 411 N 35.4744 -0.807222 -1.35358 0
M  V30 412 C 36.7044 -0.399796 -2.02695 0
M  V30 413 C 37.1124 0.994176 -1.60974 0
M  V30 414 O 36.4554 1.65209 -0.803226 0
M  V30 415 C 36.5174 -0.404445 -3.57218 0
M  V30 416 C 36.1814 -1.74904 -4.22206 0
M  V30 417 C 37.1784 -2.70743 -4.4384 0
M  V30 418 C 34.8634 -2.03322 -4.5931 0
M  V30 419 C 36.8574 -3.93183 -5.01683 0
M  V30 420 C 34.5444 -3.26026 -5.16866 0
M  V30 421 C 35.5424 -4.20774 -5.37994 0
M  V30 422 O 35.2304 -5.41312 -5.94337 0
M  V30 423 H 34.9624 -0.160517 -0.656666 0
M  V30 424 H 37.5164 -1.09235 -1.73945 0
M  V30 425 H 35.7464 0.344707 -3.85161 0
M  V30 426 H 37.4354 -0.0192429 -4.05895 0
M  V30 427 H 38.2014 -2.5008 -4.15554 0
M  V30 428 H 34.0804 -1.30384 -4.42178 0
M  V30 429 H 37.6244 -4.6715 -5.1809 0
M  V30 430 H 33.5214 -3.46559 -5.44579 0
M  V30 431 H 34.2894 -5.42618 -6.12787 0
M  V30 432 N 36.9525 1.47285 -0.560781 0
M  V30 433 C 37.8825 2.32857 0.173105 0
M  V30 434 C 38.8635 1.44009 0.905281 0
M  V30 435 O 40.0485 1.7286 0.885046 0
M  V30 436 C 37.1785 3.25861 1.20133 0
M  V30 437 C 36.1325 4.23978 0.585388 0
M  V30 438 C 35.4585 5.06332 1.7185 0
M  V30 439 C 36.7585 5.20242 -0.463178 0
M  V30 440 H 38.4525 2.94466 -0.541307 0
M  V30 441 H 35.9985 1.41601 -0.261764 0
M  V30 442 H 37.9515 3.84569 1.72293 0
M  V30 443 H 36.6755 2.62315 1.94573 0
M  V30 444 H 35.3345 3.66501 0.085054 0
M  V30 445 H 34.9825 4.39186 2.45203 0
M  V30 446 H 34.6825 5.72762 1.31213 0
M  V30 447 H 36.2065 5.67899 2.24329 0
M  V30 448 H 37.6205 5.73293 -0.027502 0
M  V30 449 H 36.0175 5.94896 -0.788627 0
M  V30 450 H 37.0875 4.65504 -1.35773 0
M  V30 451 N 38.4306 0.297415 1.54768 0
M  V30 452 C 39.8466 -0.0560823 1.59501 0
M  V30 453 C 40.0466 -1.52725 1.31444 0
M  V30 454 O 39.1026 -2.27947 1.08611 0
M  V30 455 C 40.4156 0.338631 2.98787 0
M  V30 456 C 41.9636 0.287097 3.11681 0
M  V30 457 C 42.4386 0.656579 4.53269 0
M  V30 458 N 43.9296 0.608977 4.59179 0
M  V30 459 C 44.6646 0.867385 5.66802 0
M  V30 460 N 44.1606 1.19157 6.82476 0
M  V30 461 N 45.9536 0.794687 5.56454 0
M  V30 462 H 38.1046 1.25624 1.71267 0
M  V30 463 H 40.3676 0.509057 0.799728 0
M  V30 464 H 40.0736 1.36263 3.2423 0
M  V30 465 H 39.9476 -0.309508 3.75928 0
M  V30 466 H 42.3346 -0.727649 2.85988 0
M  V30 467 H 42.4156 0.969809 2.36703 0
M  V30 468 H 42.0596 1.66912 4.7969 0
M  V30 469 H 41.9896 -0.0481649 5.26578 0
M  V30 470 H 44.4806 0.369198 3.76092 0
M  V30 471 H 44.7936 1.37482 7.60473 0
M  V30 472 H 43.1386 1.22958 6.84037 0
M  V30 473 H 46.3296 0.541098 4.64962 0
M  V30 474 H 46.5026 0.999445 6.40246 0
M  V30 475 N 39.9087 -1.5758 0.0250728 0
M  V30 476 C 40.8567 -2.11125 -0.97617 0
M  V30 477 C 41.8507 -1.03689 -1.33959 0
M  V30 478 O 43.0567 -1.22128 -1.3223 0
M  V30 479 H 39.4317 -0.674468 -0.332561 0
M  V30 480 H 41.4027 -2.94194 -0.499223 0
M  V30 481 C 40.1517 -2.65017 -2.2508 0
M  V30 482 H 39.4747 -3.47333 -1.9799 0
M  V30 483 H 40.9147 -3.06133 -2.93357 0
M  V30 484 C 39.3737 -1.57574 -2.97779 0
M  V30 485 O 39.9037 -0.973203 -3.89733 0
M  V30 486 N 38.1097 -1.29716 -2.60043 0
M  V30 487 H 37.6567 -1.789 -1.85345 0
M  V30 488 H 37.6147 -0.58051 -3.08994 0
M  V30 489 N 41.3868 0.248026 -1.55636 0
M  V30 490 C 42.3348 1.32683 -1.91045 0
M  V30 491 C 43.3288 1.49883 -0.789401 0
M  V30 492 O 44.5348 1.51371 -0.974007 0
M  V30 493 H 40.9098 0.444272 -0.606734 0
M  V30 494 H 42.8808 1.00085 -2.81115 0
M  V30 495 C 41.6298 2.6755 -2.22064 0
M  V30 496 H 40.9528 2.55114 -3.07826 0
M  V30 497 H 42.3928 3.41912 -2.50743 0
M  V30 498 C 40.8518 3.20556 -1.0366 0
M  V30 499 O 41.3818 4.00695 -0.284016 0
M  V30 500 N 39.5878 2.78568 -0.82753 0
M  V30 501 H 39.1348 2.1351 -1.44123 0
M  V30 502 H 39.0928 3.14378 -0.0369803 0
M  V30 503 N 42.8649 1.48995 0.513639 0
M  V30 504 C 43.7969 1.60836 1.63293 0
M  V30 505 C 44.8099 0.491701 1.55197 0
M  V30 506 O 45.9989 0.763238 1.6136 0
M  V30 507 C 43.0989 1.53731 3.02027 0
M  V30 508 C 42.2719 2.80715 3.35437 0
M  V30 509 C 41.3309 2.66837 4.53525 0
M  V30 510 O 40.3569 3.40753 4.55934 0
M  V30 511 N 41.5589 1.77539 5.52684 0
M  V30 512 H 44.3239 2.57366 1.53566 0
M  V30 513 H 41.8849 1.45925 0.701259 0
M  V30 514 H 43.8769 1.42118 3.78926 0
M  V30 515 H 42.4469 0.651092 3.05744 0
M  V30 516 H 41.6669 3.06772 2.47557 0
M  V30 517 H 42.9549 3.64927 3.54551 0
M  V30 518 H 42.3529 1.16719 5.53528 0
M  V30 519 H 40.9099 1.71856 6.28736 0
M  V30 520 N 44.343 -0.763751 1.37857 0
M  V30 521 C 45.273 -1.89103 1.36975 0
M  V30 522 C 46.254 -1.68439 0.237152 0
M  V30 523 O 47.439 -1.8918 0.438713 0
M  V30 524 C 44.569 -3.26496 1.18395 0
M  V30 525 C 43.523 -3.61741 2.28751 0
M  V30 526 C 42.849 -4.97762 1.95286 0
M  V30 527 C 44.149 -3.67665 3.70972 0
M  V30 528 H 45.843 -1.90099 2.31307 0
M  V30 529 H 43.389 -0.91319 1.11341 0
M  V30 530 H 45.342 -4.05003 1.16406 0
M  V30 531 H 44.066 -3.25955 0.205215 0
M  V30 532 H 42.725 -2.85547 2.29909 0
M  V30 533 H 42.373 -4.93769 0.959221 0
M  V30 534 H 42.073 -5.22313 2.69189 0
M  V30 535 H 43.597 -5.7866 1.94898 0
M  V30 536 H 45.011 -4.36307 3.719 0
M  V30 537 H 43.408 -4.03718 4.43995 0
M  V30 538 H 44.478 -2.68134 4.0402 0
M  V30 539 N 45.8211 -1.22559 -0.990812 0
M  V30 540 C 47.0671 -1.05297 -1.73322 0
M  V30 541 C 47.4001 0.410655 -1.89808 0
M  V30 542 O 46.6751 1.30439 -1.44277 0
M  V30 543 C 46.9581 -1.76713 -3.13759 0
M  V30 544 C 46.8111 -3.30684 -3.04907 0
M  V30 545 C 48.1301 -1.52121 -4.12974 0
M  V30 546 H 45.2491 -0.38392 -0.629106 0
M  V30 547 H 47.8911 -1.50926 -1.15418 0
M  V30 548 H 46.0411 -1.37924 -3.63193 0
M  V30 549 H 47.7131 -3.7893 -2.63077 0
M  V30 550 H 45.9561 -3.60253 -2.41661 0
M  V30 551 H 46.6271 -3.75833 -4.04294 0
M  V30 552 H 49.1031 -1.85819 -3.72304 0
M  V30 553 H 47.9791 -2.04582 -5.0935 0
M  V30 554 H 48.2401 -0.454257 -4.3976 0
M  V30 555 N 47.2992 1.18797 -1.03562 0
M  V30 556 C 48.2622 2.20464 -0.626769 0
M  V30 557 C 49.2622 1.57721 0.313173 0
M  V30 558 O 50.4522 1.73917 0.0992615 0
M  V30 559 C 47.5842 3.40802 0.0818498 0
M  V30 560 H 48.7772 2.58149 -1.5264 0
M  V30 561 H 46.3302 1.32593 -0.827578 0
M  V30 562 H 47.0652 3.08642 0.995518 0
M  V30 563 H 46.8502 3.8758 -0.593652 0
M  V30 564 H 48.3402 4.16092 0.354584 0
M  V30 565 N 48.7773 0.814389 1.34928 0
M  V30 566 C 50.0253 0.397636 1.9815 0
M  V30 567 C 50.3463 -1.04069 1.64908 0
M  V30 568 O 49.6163 -1.72121 0.93548 0
M  V30 569 H 48.1963 0.144043 0.732981 0
M  V30 570 H 50.8583 1.04195 1.6471 0
M  V30 571 H 49.9543 0.509688 3.0791 0
M  V30 572 N 50.2554 -1.46986 0.568584 0
M  V30 573 C 51.4854 -2.0653 0.0539173 0
M  V30 574 C 51.8934 -1.42004 -1.25026 0
M  V30 575 O 51.2364 -0.514541 -1.76347 0
M  V30 576 C 51.2984 -3.58938 -0.200854 0
M  V30 577 C 50.9624 -4.45572 1.01559 0
M  V30 578 C 51.9594 -4.82986 1.92407 0
M  V30 579 C 49.6444 -4.8692 1.23346 0
M  V30 580 C 51.6384 -5.60559 3.03402 0
M  V30 581 C 49.3254 -5.64255 2.34649 0
M  V30 582 C 50.3234 -6.00986 3.24507 0
M  V30 583 O 50.0114 -6.76761 4.33878 0
M  V30 584 H 49.7434 -0.674292 0.0480234 0
M  V30 585 H 52.2974 -1.89812 0.784896 0
M  V30 586 H 50.5274 -3.73911 -0.986279 0
M  V30 587 H 52.2164 -4.0046 -0.662294 0
M  V30 588 H 52.9824 -4.51633 1.76785 0
M  V30 589 H 48.8614 -4.57789 0.543178 0
M  V30 590 H 52.4054 -5.89147 3.73565 0
M  V30 591 H 48.3024 -5.95021 2.5024 0
M  V30 592 H 49.0704 -6.95168 4.32068 0
M  V30 593 N 51.7335 -0.305618 -1.54608 0
M  V30 594 C 52.6635 0.561482 -2.26649 0
M  V30 595 C 53.6445 1.13415 -1.26772 0
M  V30 596 O 54.8295 1.16262 -1.55553 0
M  V30 597 C 51.9595 1.73122 -3.01075 0
M  V30 598 C 50.9135 1.2887 -4.08138 0
M  V30 599 C 50.2395 2.54396 -4.70305 0
M  V30 600 C 51.5395 0.416578 -5.20636 0
M  V30 601 H 53.2335 -0.0393902 -2.99374 0
M  V30 602 H 50.7795 -0.020385 -1.43986 0
M  V30 603 H 52.7325 2.34396 -3.50195 0
M  V30 604 H 51.4565 2.3584 -2.25936 0
M  V30 605 H 50.1155 0.698991 -3.59875 0
M  V30 606 H 49.7635 3.15439 -3.918 0
M  V30 607 H 49.4635 2.25486 -5.42614 0
M  V30 608 H 50.9875 3.16464 -5.2219 0
M  V30 609 H 52.4015 0.935116 -5.65622 0
M  V30 610 H 50.7985 0.221046 -5.99693 0
M  V30 611 H 51.8685 -0.557162 -4.81688 0
M  V30 612 N 53.2116 1.57565 -0.0334293 0
M  V30 613 C 54.1436 2.0739 0.975811 0
M  V30 614 C 55.1566 0.998166 1.2861 0
M  V30 615 O 56.3456 1.27426 1.25 0
M  V30 616 C 53.4456 2.4871 2.30209 0
M  V30 617 C 52.6186 3.79413 2.17634 0
M  V30 618 C 51.6776 4.07237 3.33233 0
M  V30 619 O 50.7036 4.77425 3.09927 0
M  V30 620 N 51.9056 3.5775 4.5716 0
M  V30 621 H 54.6706 2.94598 0.55066 0
M  V30 622 H 52.2316 1.61173 0.15323 0
M  V30 623 H 54.2236 2.64413 3.06378 0
M  V30 624 H 52.7936 1.66845 2.64351 0
M  V30 625 H 52.0136 3.73465 1.26165 0
M  V30 626 H 53.3016 4.65038 2.0644 0
M  V30 627 H 52.6996 3.00976 4.78989 0
M  V30 628 H 51.2566 3.78724 5.30482 0
M  V30 629 N 54.6897 -0.239769 1.55765 0
M  V30 630 C 55.9377 -0.964892 1.77579 0
M  V30 631 C 56.2587 -1.85582 0.598699 0
M  V30 632 O 55.5287 -1.92075 -0.385226 0
M  V30 633 H 54.1087 -0.359265 0.654933 0
M  V30 634 H 56.7707 -0.256001 1.93211 0
M  V30 635 H 55.8667 -1.58243 2.69009 0
M  V30 636 N 56.1678 -1.49265 -0.50573 0
M  V30 637 C 57.5788 -1.51769 -1.08734 0
M  V30 638 C 57.9298 -0.301192 -1.93874 0
M  V30 639 O 57.0548 0.589456 -2.08217 0
M  V30 640 C 57.6498 -2.75017 -1.97867 0
M  V30 641 C 56.2088 -2.80314 -2.51199 0
M  V30 642 C 55.3558 -2.4562 -1.28709 0
M  V30 643 H 58.3068 -1.56031 -0.289855 0
M  V30 644 H 58.3278 -2.5491 -2.82491 0
M  V30 645 H 57.8398 -3.63539 -1.35873 0
M  V30 646 H 55.9408 -1.96061 -3.16845 0
M  V30 647 H 56.0538 -3.82366 -2.88675 0
M  V30 648 H 54.4178 -1.97297 -1.61078 0
M  V30 649 H 55.2008 -3.36411 -0.6843 0
M  V30 650 N 57.6459 0.756429 -1.3826 0
M  V30 651 C 58.5939 1.89149 -1.35372 0
M  V30 652 C 59.5879 1.67691 -0.24004 0
M  V30 653 O 60.7939 1.75294 -0.408919 0
M  V30 654 H 57.1689 0.622271 -0.422236 0
M  V30 655 H 59.1399 1.88701 -2.31159 0
M  V30 656 C 57.8889 3.26599 -1.19284 0
M  V30 657 H 57.2119 3.43695 -2.0424 0
M  V30 658 H 58.6519 4.06274 -1.21316 0
M  V30 659 C 57.1109 3.3675 0.100454 0
M  V30 660 O 57.6409 3.86951 1.07851 0
M  V30 661 N 55.8469 2.90179 0.15633 0
M  V30 662 H 55.3939 2.49517 -0.640253 0
M  V30 663 H 55.3519 2.97352 1.02123 0
M  V30 664 N 59.124 1.23083 0.984299 0
M  V30 665 C 60.37 1.06214 1.72761 0
M  V30 666 C 60.703 -0.400584 1.90024 0
M  V30 667 O 59.978 -1.29672 1.44967 0
M  V30 668 C 60.261 1.78375 3.12817 0
M  V30 669 C 60.114 3.32296 3.03149 0
M  V30 670 C 61.433 1.54309 4.12161 0
M  V30 671 H 58.552 0.387251 0.627061 0
M  V30 672 H 61.194 1.51536 1.14616 0
M  V30 673 H 59.344 1.39848 3.62457 0
M  V30 674 H 61.016 3.8032 2.61064 0
M  V30 675 H 59.259 3.6153 2.39747 0
M  V30 676 H 59.93 3.77972 4.02295 0
M  V30 677 H 62.406 1.87791 3.71314 0
M  V30 678 H 61.282 2.07281 5.08258 0
M  V30 679 H 61.543 0.477572 4.39513 0
M  V30 680 N 60.6021 -1.18246 1.0419 0
M  V30 681 C 61.5501 -2.23968 0.627792 0
M  V30 682 C 62.5441 -1.65828 -0.346019 0
M  V30 683 O 63.7501 -1.78733 -0.213175 0
M  V30 684 H 60.1251 -0.728939 0.184802 0
M  V30 685 H 62.0961 -2.56202 1.52981 0
M  V30 686 C 60.8451 -3.47699 0.00796591 0
M  V30 687 H 60.1681 -3.92734 0.748347 0
M  V30 688 H 61.6081 -4.23294 -0.24455 0
M  V30 689 C 60.0671 -3.13153 -1.24246 0
M  V30 690 O 60.5971 -3.27003 -2.33307 0
M  V30 691 N 58.8031 -2.67467 -1.13622 0
M  V30 692 H 58.3501 -2.56396 -0.248734 0
M  V30 693 H 58.3081 -2.44724 -1.97377 0
M  V30 694 N 62.0802 -0.821533 -1.34494 0
M  V30 695 C 63.0102 -0.257138 -2.3208 0
M  V30 696 C 63.9912 0.625645 -1.58176 0
M  V30 697 O 65.1762 0.552811 -1.86166 0
M  V30 698 C 62.3062 0.582958 -3.42372 0
M  V30 699 C 61.2602 -0.202571 -4.2752 0
M  V30 700 C 60.5862 0.760179 -5.29269 0
M  V30 701 C 61.8862 -1.40998 -5.02908 0
M  V30 702 H 63.5802 -1.07247 -2.79532 0
M  V30 703 H 61.1262 -0.517163 -1.34393 0
M  V30 704 H 63.0792 0.987972 -4.09655 0
M  V30 705 H 61.8032 1.43133 -2.93565 0
M  V30 706 H 60.4622 -0.588936 -3.61838 0
M  V30 707 H 60.1102 1.60447 -4.76724 0
M  V30 708 H 59.8102 0.238809 -5.87115 0
M  V30 709 H 61.3342 1.16308 -5.9942 0
M  V30 710 H 62.7482 -1.07905 -5.63054 0
M  V30 711 H 61.1452 -1.86689 -5.70322 0
M  V30 712 H 62.2152 -2.1889 -4.32684 0
M  V30 713 N 63.5583 1.46682 -0.576371 0
M  V30 714 C 64.4683 2.34032 0.163141 0
M  V30 715 C 65.4843 1.49367 0.892501 0
M  V30 716 O 66.6603 1.82252 0.857106 0
M  V30 717 C 63.7253 3.26435 1.16795 0
M  V30 718 C 62.7863 4.26998 0.443944 0
M  V30 719 C 62.0193 5.14986 1.40088 0
M  V30 720 O 62.2423 5.05785 2.637 0
M  V30 721 O 61.1763 5.94906 0.914917 0
M  V30 722 H 65.0023 2.98607 -0.55388 0
M  V30 723 H 62.5873 1.45554 -0.336821 0
M  V30 724 H 64.4693 3.83459 1.74748 0
M  V30 725 H 63.1443 2.64465 1.86655 0
M  V30 726 H 62.0513 3.7368 -0.177271 0
M  V30 727 H 63.3843 4.91736 -0.213566 0
M  V30 728 N 65.0364 0.313813 1.54444 0
M  V30 729 C 65.9464 -0.565714 2.27677 0
M  V30 730 C 66.9624 -1.13754 1.31666 0
M  V30 731 O 68.1384 -1.15959 1.64668 0
M  V30 732 C 65.2034 -1.71528 3.01296 0
M  V30 733 C 64.2644 -1.17624 4.12872 0
M  V30 734 C 63.4974 -2.27102 4.8297 0
M  V30 735 O 63.7204 -3.47256 4.52514 0
M  V30 736 O 62.6544 -1.9307 5.70094 0
M  V30 737 H 66.4804 0.0287296 3.03686 0
M  V30 738 H 64.0654 0.0798312 1.49187 0
M  V30 739 H 65.9474 -2.38476 3.4743 0
M  V30 740 H 64.6224 -2.29608 2.2817 0
M  V30 741 H 63.5294 -0.472124 3.71109 0
M  V30 742 H 64.8624 -0.640695 4.88012 0
M  V30 743 N 66.5145 -1.57545 0.0417849 0
M  V30 744 C 67.4615 -2.10977 -0.935805 0
M  V30 745 C 68.4315 -1.01486 -1.31491 0
M  V30 746 O 69.6165 -1.2898 -1.40602 0
M  V30 747 C 66.7565 -2.65169 -2.2086 0
M  V30 748 C 65.8695 -3.88714 -1.88482 0
M  V30 749 C 65.0045 -4.31254 -3.1015 0
M  V30 750 C 64.0435 -5.47524 -2.7365 0
M  V30 751 N 63.1805 -5.85162 -3.87982 0
M  V30 752 H 68.0205 -2.94218 -0.473249 0
M  V30 753 H 65.5575 -1.45415 -0.221981 0
M  V30 754 H 67.5155 -2.94685 -2.95325 0
M  V30 755 H 66.1455 -1.8474 -2.64709 0
M  V30 756 H 65.1975 -3.65849 -1.04205 0
M  V30 757 H 66.5095 -4.73245 -1.57608 0
M  V30 758 H 65.6635 -4.62273 -3.92923 0
M  V30 759 H 64.4025 -3.45516 -3.44195 0
M  V30 760 H 63.4075 -5.16187 -1.89291 0
M  V30 761 H 64.6325 -6.34971 -2.40807 0
M  V30 762 H 62.5785 -5.02377 -4.21846 0
M  V30 763 H 62.4955 -6.64362 -3.60775 0
M  V30 764 H 63.7635 -6.20791 -4.71422 0
M  V30 765 N 67.9926 0.231505 -1.5589 0
M  V30 766 C 69.2416 0.955346 -1.7764 0
M  V30 767 C 69.5546 1.85893 -0.608546 0
M  V30 768 O 70.7606 2.62067 -0.70943 0
M  V30 769 C 69.2166 1.74886 -3.14552 0
M  V30 770 C 68.8246 0.891915 -4.39032 0
M  V30 771 C 70.5686 2.46452 -3.45633 0
M  V30 772 C 68.4756 1.68221 -5.66971 0
M  V30 773 H 67.4056 0.360446 -0.662265 0
M  V30 774 H 70.0566 0.209516 -1.823 0
M  V30 775 H 68.4386 2.53723 -3.04041 0
M  V30 776 H 69.6126 0.144793 -4.60572 0
M  V30 777 H 67.9276 0.288863 -4.15397 0
M  V30 778 H 70.5246 3.06061 -4.38441 0
M  V30 779 H 70.8676 3.18841 -2.67668 0
M  V30 780 H 71.4006 1.74613 -3.57428 0
M  V30 781 H 68.1396 1.00178 -6.478 0
M  V30 782 H 67.6596 2.4042 -5.49507 0
M  V30 783 H 69.3386 2.24544 -6.06786 0
M  V30 784 N 69.4707 1.49531 0.497807 0
M  V30 785 C 70.7477 1.49682 1.25915 0
M  V30 786 C 71.1277 0.226339 2.09883 0
M  V30 787 O 70.4757 -0.791189 2.14365 0
M  V30 788 C 70.6857 2.77755 2.11313 0
M  V30 789 C 72.0337 3.27371 2.70395 0
M  V30 790 O 73.0577 2.78894 2.21578 0
M  V30 791 O 71.9167 4.11808 3.59272 0
M  V30 792 H 69.0107 0.599228 0.56996 0
M  V30 793 H 71.5567 1.61798 0.511816 0
M  V30 794 H 70.3287 3.61713 1.49264 0
M  V30 795 H 69.9517 2.68515 2.93233 0
M  V30 796 N 70.9488 -0.749086 1.3866 0
M  V30 797 C 72.1948 -1.51056 1.35314 0
M  V30 798 C 72.5278 -1.94121 -0.0553751 0
M  V30 799 O 71.8028 -1.65763 -1.01749 0
M  V30 800 C 72.0858 -2.76003 2.31288 0
M  V30 801 C 71.9388 -2.39047 3.8102 0
M  V30 802 C 73.2578 -3.78046 2.2532 0
M  V30 803 H 70.3768 -0.547972 0.492844 0
M  V30 804 H 73.0188 -0.857628 1.69543 0
M  V30 805 H 71.1688 -3.31716 2.02229 0
M  V30 806 H 72.8408 -1.89074 4.20771 0
M  V30 807 H 71.0838 -1.71449 3.98482 0
M  V30 808 H 71.7548 -3.28462 4.4364 0
M  V30 809 H 74.2308 -3.31884 2.50983 0
M  V30 810 H 73.1068 -4.63159 2.94576 0
M  V30 811 H 73.3678 -4.23957 1.25352 0
M  V30 812 N 72.4269 -1.23603 -0.977757 0
M  V30 813 C 73.6729 -1.07129 -1.72195 0
M  V30 814 C 74.0059 0.390501 -1.90233 0
M  V30 815 O 73.2809 1.28902 -1.45653 0
M  V30 816 C 73.5639 -1.80031 -3.11867 0
M  V30 817 C 73.4169 -3.33899 -3.01383 0
M  V30 818 C 74.7359 -1.56492 -4.11337 0
M  V30 819 H 71.8549 -0.390571 -0.624999 0
M  V30 820 H 74.4969 -1.52142 -1.13811 0
M  V30 821 H 72.6469 -1.41768 -3.6171 0
M  V30 822 H 74.3189 -3.81699 -2.59043 0
M  V30 823 H 72.5619 -3.62796 -2.37827 0
M  V30 824 H 73.2329 -3.801 -4.00285 0
M  V30 825 H 75.7089 -1.89757 -3.70313 0
M  V30 826 H 74.5849 -2.09973 -5.07151 0
M  V30 827 H 74.8459 -0.500874 -4.39254 0
M  V30 828 N 73.905 1.17692 -1.04816 0
M  V30 829 C 75.316 1.69501 -0.782698 0
M  V30 830 C 75.667 1.83456 0.695577 0
M  V30 831 O 74.792 1.51942 1.54086 0
M  V30 832 C 75.387 3.07874 -1.41419 0
M  V30 833 C 73.946 3.56864 -1.19686 0
M  V30 834 C 73.093 2.3322 -1.50012 0
M  V30 835 H 76.044 1.02262 -1.2136 0
M  V30 836 H 76.065 3.71528 -0.821428 0
M  V30 837 H 75.577 2.97685 -2.49009 0
M  V30 838 H 73.678 3.72337 -0.140043 0
M  V30 839 H 73.791 4.39851 -1.89916 0
M  V30 840 H 72.155 2.37501 -0.920071 0
M  V30 841 H 72.938 2.25644 -2.58727 0
M  V30 842 N 75.3831 0.828654 1.34056 0
M  V30 843 C 76.6321 0.415828 1.97367 0
M  V30 844 C 76.9451 -1.02796 1.6641 0
M  V30 845 O 78.1511 -1.54497 2.23255 0
M  V30 846 C 76.6071 0.692601 3.53173 0
M  V30 847 C 76.2151 2.15038 3.93017 0
M  V30 848 C 77.9591 0.346222 4.23086 0
M  V30 849 C 75.8661 2.37174 5.41758 0
M  V30 850 H 74.7961 0.151755 0.738571 0
M  V30 851 H 77.4471 1.01581 1.52819 0
M  V30 852 H 75.8291 0.0223764 3.95994 0
M  V30 853 H 77.0031 2.86024 3.61285 0
M  V30 854 H 75.3181 2.45875 3.36057 0
M  V30 855 H 77.9151 0.48937 5.32456 0
M  V30 856 H 78.2581 -0.709842 4.10204 0
M  V30 857 H 78.7911 0.971258 3.85761 0
M  V30 858 H 75.5301 3.41308 5.59633 0
M  V30 859 H 75.0501 1.70738 5.74986 0
M  V30 860 H 76.7291 2.19818 6.08514 0
M  V30 861 N 76.8612 -1.46375 0.584142 0
M  V30 862 C 77.7712 -2.34115 -0.150728 0
M  V30 863 C 78.7872 -1.49838 -0.884567 0
M  V30 864 O 79.9632 -1.82704 -0.847429 0
M  V30 865 C 77.0282 -3.2705 -1.15062 0
M  V30 866 C 76.0892 -4.27228 -0.421293 0
M  V30 867 C 75.3222 -5.15722 -1.37355 0
M  V30 868 O 75.5452 -5.07176 -2.61014 0
M  V30 869 O 74.4792 -5.95383 -0.883355 0
M  V30 870 H 78.3052 -2.98309 0.569708 0
M  V30 871 H 75.8902 -1.45373 0.344535 0
M  V30 872 H 77.7722 -3.84381 -1.72712 0
M  V30 873 H 76.4472 -2.65451 -1.8525 0
M  V30 874 H 75.3542 -3.7358 0.197085 0
M  V30 875 H 76.6872 -4.91616 0.239641 0
M  V30 876 N 78.3393 -0.321999 -1.54275 0
M  V30 877 C 79.7503 0.166384 -1.85957 0
M  V30 878 C 80.1013 1.51747 -1.24367 0
M  V30 879 O 79.2263 2.09317 -0.549124 0
M  V30 880 C 79.8213 0.308681 -3.37391 0
M  V30 881 C 78.3803 0.741286 -3.69028 0
M  V30 882 C 77.5273 -0.137937 -2.76957 0
M  V30 883 H 80.4783 -0.542335 -1.49146 0
M  V30 884 H 80.4993 1.13984 -3.63026 0
M  V30 885 H 80.0113 -0.674809 -3.82188 0
M  V30 886 H 78.1123 1.73458 -3.29762 0
M  V30 887 H 78.2253 0.546118 -4.75977 0
M  V30 888 H 76.5893 0.386251 -2.51754 0
M  V30 889 H 77.3723 -1.11816 -3.2458 0
M  V30 890 N 79.8174 1.5752 -0.0501392 0
M  V30 891 C 80.7674 2.07981 0.934231 0
M  V30 892 C 81.7514 0.984745 1.27246 0
M  V30 893 O 82.9434 1.24809 1.25506 0
M  V30 894 C 80.0724 2.62751 2.20945 0
M  V30 895 C 79.1584 3.79225 1.89865 0
M  V30 896 N 79.5494 4.89036 1.29142 0
M  V30 897 C 77.8474 3.88111 2.19741 0
M  V30 898 C 78.5484 5.70084 1.15669 0
M  V30 899 N 77.5244 5.17659 1.65923 0
M  V30 900 H 81.3264 2.90277 0.460053 0
M  V30 901 H 78.8404 1.61665 0.15434 0
M  V30 902 H 80.8374 2.97205 2.9236 0
M  V30 903 H 79.4974 1.81894 2.6897 0
M  V30 904 H 80.5084 5.08854 0.963756 0
M  V30 905 H 77.1854 3.18194 2.70293 0
M  V30 906 H 78.5754 6.68395 0.685356 0
M  V30 907 N 81.2955 -0.223234 1.56011 0
M  V30 908 C 82.2585 -1.26014 1.9145 0
M  V30 909 C 83.2585 -1.3989 0.792937 0
M  V30 910 O 84.4485 -1.38184 1.0607 0
M  V30 911 C 81.5805 -2.63422 2.16383 0
M  V30 912 H 82.7735 -0.95796 2.84189 0
M  V30 913 H 80.3265 -0.463576 1.49267 0
M  V30 914 H 81.0615 -2.98741 1.2619 0
M  V30 915 H 80.8465 -2.54728 2.98088 0
M  V30 916 H 82.3365 -3.38249 2.44903 0
M  V30 917 N 82.7736 -1.49793 -0.48987 0
M  V30 918 C 83.7036 -1.70201 -1.59856 0
M  V30 919 C 84.6846 -0.55076 -1.60937 0
M  V30 920 O 85.8696 -0.787841 -1.77501 0
M  V30 921 C 82.9996 -1.77882 -2.98287 0
M  V30 922 C 81.9536 -2.92907 -3.12073 0
M  V30 923 C 81.2796 -2.85712 -4.51965 0
M  V30 924 C 82.5796 -4.3369 -2.91051 0
M  V30 925 H 84.2736 -2.63025 -1.43032 0
M  V30 926 H 81.8196 -1.26574 -0.686664 0
M  V30 927 H 83.7726 -1.90744 -3.75759 0
M  V30 928 H 82.4966 -0.816653 -3.16225 0
M  V30 929 H 81.1556 -2.79665 -2.37029 0
M  V30 930 H 80.8036 -1.8738 -4.66795 0
M  V30 931 H 80.5036 -3.62921 -4.62128 0
M  V30 932 H 82.0276 -3.00598 -5.31482 0
M  V30 933 H 83.4416 -4.47555 -3.58284 0
M  V30 934 H 81.8386 -5.12205 -3.12675 0
M  V30 935 H 82.9086 -4.47362 -1.87071 0
M  V30 936 N 84.2517 0.741722 -1.39055 0
M  V30 937 C 85.4987 1.50114 -1.35912 0
M  V30 938 C 85.8267 1.94443 0.0470937 0
M  V30 939 O 85.0817 1.66612 1.02659 0
M  V30 940 C 85.3807 2.7592 -2.27163 0
M  V30 941 C 85.0467 2.50493 -3.74919 0
M  V30 942 C 83.7087 2.43267 -4.1518 0
M  V30 943 C 86.0607 2.28585 -4.684 0
M  V30 944 C 83.3887 2.12166 -5.46994 0
M  V30 945 C 85.7407 1.99002 -6.00484 0
M  V30 946 C 84.4047 1.90241 -6.39816 0
M  V30 947 H 83.6747 0.549306 -0.497336 0
M  V30 948 H 86.3217 0.851896 -1.71508 0
M  V30 949 H 84.6267 3.45553 -1.84663 0
M  V30 950 H 86.3237 3.33923 -2.22028 0
M  V30 951 H 82.9137 2.56992 -3.43006 0
M  V30 952 H 87.0977 2.33139 -4.38132 0
M  V30 953 H 82.3537 2.03901 -5.76398 0
M  V30 954 H 86.5277 1.81057 -6.72452 0
M  V30 955 H 84.1547 1.65907 -7.41875 0
M  V30 956 N 85.7298 1.2412 0.971189 0
M  V30 957 C 86.6598 1.05508 2.08304 0
M  V30 958 C 87.6408 -0.0308864 1.70072 0
M  V30 959 O 88.8258 0.135521 1.93727 0
M  V30 960 C 85.9558 0.655365 3.4106 0
M  V30 961 C 84.9098 1.68971 3.93234 0
M  V30 962 C 84.2358 1.14516 5.22293 0
M  V30 963 C 85.5358 3.08487 4.21465 0
M  V30 964 H 87.2298 1.98507 2.24132 0
M  V30 965 H 84.7758 0.955821 1.07704 0
M  V30 966 H 86.7288 0.51217 4.18276 0
M  V30 967 H 85.4528 -0.31032 3.25122 0
M  V30 968 H 84.1118 1.82106 3.18171 0
M  V30 969 H 83.7598 0.170189 5.02712 0
M  V30 970 H 83.4598 1.83635 5.58168 0
M  V30 971 H 84.9838 1.01401 6.02121 0
M  V30 972 H 86.3978 2.98601 4.89398 0
M  V30 973 H 84.7948 3.74926 4.68562 0
M  V30 974 H 85.8648 3.56787 3.28376 0
M  V30 975 N 87.2079 -1.17134 1.05439 0
M  V30 976 C 88.4559 -1.87085 0.764429 0
M  V30 977 C 88.7769 -1.81584 -0.710787 0
M  V30 978 O 88.0469 -1.24349 -1.51374 0
M  V30 979 H 86.6269 -0.692627 0.279779 0
M  V30 980 H 89.2889 -1.42087 1.33406 0
M  V30 981 H 88.3849 -2.92759 1.0816 0
M  V30 982 N 88.686 -0.835752 -1.33615 0
M  V30 983 C 89.935 -0.426289 -1.97144 0
M  V30 984 C 90.248 1.01912 -1.66953 0
M  V30 985 O 91.454 1.53311 -2.24072 0
M  V30 986 C 89.91 -0.711321 -3.52801 0
M  V30 987 C 89.518 -2.1712 -3.91871 0
M  V30 988 C 91.262 -0.368654 -4.22896 0
M  V30 989 C 89.169 -2.40044 -5.40493 0
M  V30 990 H 88.099 -0.15567 -0.737755 0
M  V30 991 H 90.75 -1.0239 -1.52278 0
M  V30 992 H 89.132 -0.0433766 -3.95976 0
M  V30 993 H 90.306 -2.87936 -3.59763 0
M  V30 994 H 88.621 -2.47654 -3.34749 0
M  V30 995 H 91.218 -0.517601 -5.32189 0
M  V30 996 H 91.561 0.688078 -4.10574 0
M  V30 997 H 92.094 -0.991702 -3.8524 0
M  V30 998 H 88.833 -3.44271 -5.57815 0
M  V30 999 H 88.353 -1.73785 -5.74072 0
M  V30 1000 H 90.032 -2.23042 -6.0734 0
M  V30 1001 N 90.1641 1.46063 -0.591896 0
M  V30 1002 C 91.1141 2.27458 0.157172 0
M  V30 1003 C 92.0981 1.3641 0.853301 0
M  V30 1004 O 93.2901 1.60517 0.74588 0
M  V30 1005 C 90.4191 3.22956 1.16423 0
M  V30 1006 C 89.5051 4.2149 0.469742 0
M  V30 1007 N 89.8961 5.03519 -0.479839 0
M  V30 1008 C 88.1941 4.40161 0.719319 0
M  V30 1009 C 88.8951 5.74904 -0.886591 0
M  V30 1010 N 87.8711 5.43097 -0.233731 0
M  V30 1011 H 91.6731 2.88272 -0.572392 0
M  V30 1012 H 89.1871 1.57024 -0.414375 0
M  V30 1013 H 91.1841 3.79986 1.71513 0
M  V30 1014 H 89.8441 2.63701 1.89451 0
M  V30 1015 H 90.8551 5.1078 -0.855823 0
M  V30 1016 H 87.5321 3.92046 1.43548 0
M  V30 1017 H 88.9221 6.50844 -1.66888 0
M  V30 1018 N 91.6422 0.330177 1.54103 0
M  V30 1019 C 92.8902 -0.269871 2.0029 0
M  V30 1020 C 93.2112 -1.52133 1.21986 0
M  V30 1021 O 92.4812 -1.93212 0.323438 0
M  V30 1022 H 91.0612 -0.10271 0.739905 0
M  V30 1023 H 93.7232 0.448249 1.89675 0
M  V30 1024 H 92.8192 -0.52166 3.07709 0
M  V30 1025 N 93.1203 -1.57491 0.0584922 0
M  V30 1026 C 94.3683 -1.92597 -0.612436 0
M  V30 1027 C 94.6893 -0.938162 -1.70949 0
M  V30 1028 O 93.9593 0.0158301 -1.95894 0
M  V30 1029 H 92.5393 -0.710964 -0.229214 0
M  V30 1030 H 95.2013 -1.94571 0.113218 0
M  V30 1031 H 94.2973 -2.94038 -1.04633 0
M  V30 1032 N 94.5984 0.214957 -1.56127 0
M  V30 1033 C 95.5454 1.26642 -1.92952 0
M  V30 1034 C 96.5154 1.46244 -0.78753 0
M  V30 1035 O 97.7004 1.59704 -1.04399 0
M  V30 1036 C 94.8404 2.6104 -2.25726 0
M  V30 1037 C 93.9534 2.49183 -3.52891 0
M  V30 1038 C 93.0884 3.76149 -3.7508 0
M  V30 1039 C 92.1274 3.59041 -4.95738 0
M  V30 1040 N 91.2644 4.77972 -5.14283 0
M  V30 1041 H 96.1044 0.945384 -2.82607 0
M  V30 1042 H 93.6414 0.455489 -1.3987 0
M  V30 1043 H 95.5994 3.39313 -2.42739 0
M  V30 1044 H 94.2294 2.91227 -1.39236 0
M  V30 1045 H 93.2814 1.6231 -3.44034 0
M  V30 1046 H 94.5934 2.32466 -4.41318 0
M  V30 1047 H 93.7474 4.62865 -3.92226 0
M  V30 1048 H 92.4864 3.95799 -2.84947 0
M  V30 1049 H 91.4914 2.7071 -4.78535 0
M  V30 1050 H 92.7164 3.40856 -5.87362 0
M  V30 1051 H 90.6624 4.97923 -4.27093 0
M  V30 1052 H 90.5794 4.64006 -5.96853 0
M  V30 1053 H 91.8474 5.66096 -5.35869 0
M  V30 1054 N 96.0765 1.50051 0.48192 0
M  V30 1055 C 97.0095 1.62749 1.59963 0
M  V30 1056 C 97.9875 0.475903 1.5548 0
M  V30 1057 O 99.1715 0.693986 1.7526 0
M  V30 1058 C 96.2985 1.60008 2.98522 0
M  V30 1059 C 95.3445 2.80596 3.21198 0
M  V30 1060 S 96.1775 4.42038 3.02262 0
M  V30 1061 C 97.3335 4.41973 4.43182 0
M  V30 1062 H 97.5665 2.57296 1.4895 0
M  V30 1063 H 95.0995 1.39179 0.668477 0
M  V30 1064 H 97.0575 1.59112 3.78409 0
M  V30 1065 H 95.7185 0.667153 3.06933 0
M  V30 1066 H 94.9115 2.74952 4.22395 0
M  V30 1067 H 94.5135 2.79003 2.49065 0
M  V30 1068 H 96.8055 4.14868 5.35622 0
M  V30 1069 H 97.7485 5.43512 4.53873 0
M  V30 1070 H 98.1565 3.71812 4.24755 0
M  V30 1071 N 97.5546 -0.734337 1.39446 0
M  V30 1072 C 98.7946 -1.50655 1.38139 0
M  V30 1073 C 99.1586 -1.91986 -0.0228701 0
M  V30 1074 O 100.36 -2.68318 -0.160947 0
M  V30 1075 C 98.6306 -2.71251 2.32718 0
M  V30 1076 S 100.19 -3.60892 2.49605 0
M  V30 1077 H 97.0076 -0.515315 0.489869 0
M  V30 1078 H 99.6096 -0.860392 1.75549 0
M  V30 1079 H 98.3136 -2.39027 3.33608 0
M  V30 1080 H 97.8446 -3.40795 1.96526 0
M  V30 1081 H 99.8596 -4.64899 1.73446 0
M  V30 1082 N 99.0327 -1.24633 -0.964593 0
M  V30 1083 C 99.9627 -1.06611 -2.07741 0
M  V30 1084 C 100.944 0.0218666 -1.70086 0
M  V30 1085 O 102.129 -0.145793 -1.93652 0
M  V30 1086 C 99.2587 -0.673444 -3.40708 0
M  V30 1087 C 98.2127 -1.71054 -3.92332 0
M  V30 1088 C 97.5387 -1.17285 -5.21678 0
M  V30 1089 C 98.8387 -3.10718 -4.19824 0
M  V30 1090 H 100.533 -1.99693 -2.23076 0
M  V30 1091 H 98.0787 -0.96152 -1.07195 0
M  V30 1092 H 100.032 -0.534345 -4.17998 0
M  V30 1093 H 98.7557 0.293073 -3.25282 0
M  V30 1094 H 97.4147 -1.83791 -3.17201 0
M  V30 1095 H 97.0627 -0.196847 -5.02615 0
M  V30 1096 H 96.7627 -1.86592 -5.57187 0
M  V30 1097 H 98.2867 -1.04593 -6.01575 0
M  V30 1098 H 99.7007 -3.01192 -4.87808 0
M  V30 1099 H 98.0977 -3.77406 -4.66567 0
M  V30 1100 H 99.1677 -3.58524 -3.26479 0
M  V30 1101 N 100.511 1.16574 -1.06058 0
M  V30 1102 C 101.736 1.91493 -0.796562 0
M  V30 1103 C 102.161 1.76773 0.642868 0
M  V30 1104 O 101.519 1.09142 1.44768 0
M  V30 1105 C 101.567 3.40293 -1.19303 0
M  V30 1106 O 100.671 4.11074 -0.330394 0
M  V30 1107 H 100.012 0.596678 -0.291326 0
M  V30 1108 H 102.542 1.47708 -1.41575 0
M  V30 1109 H 102.552 3.91057 -1.16356 0
M  V30 1110 H 101.227 3.50326 -2.24153 0
M  V30 1111 H 99.8038 3.70513 -0.421225 0
M  V30 1112 N 101.989 0.842826 1.3317 0
M  V30 1113 C 103.229 0.446574 1.99462 0
M  V30 1114 C 103.593 -0.976818 1.65295 0
M  V30 1115 O 104.794 -1.477 2.24584 0
M  V30 1116 C 103.065 0.665353 3.51152 0
M  V30 1117 S 104.624 0.364911 4.3728 0
M  V30 1118 H 101.442 0.167803 0.690915 0
M  V30 1119 H 104.044 1.09297 1.62094 0
M  V30 1120 H 102.748 1.7006 3.73507 0
M  V30 1121 H 102.279 0.00494568 3.934 0
M  V30 1122 H 104.294 -0.813761 4.89482 0
M  V30 1123 N 103.467 -1.45747 0.599634 0
M  V30 1124 C 104.713 -2.02592 0.0918643 0
M  V30 1125 C 105.046 -1.46806 -1.27128 0
M  V30 1126 O 104.321 -0.639658 -1.83681 0
M  V30 1127 C 104.604 -3.60073 0.0443398 0
M  V30 1128 C 104.457 -4.26208 1.43759 0
M  V30 1129 C 105.776 -4.35309 -0.647608 0
M  V30 1130 H 102.895 -0.736175 0.034857 0
M  V30 1131 H 105.537 -1.73694 0.770081 0
M  V30 1132 H 103.687 -3.84823 -0.533224 0
M  V30 1133 H 105.359 -4.12668 2.06162 0
M  V30 1134 H 103.602 -3.84916 2.00056 0
M  V30 1135 H 104.273 -5.35069 1.35665 0
M  V30 1136 H 106.749 -4.15805 -0.156776 0
M  V30 1137 H 105.625 -5.45038 -0.649942 0
M  V30 1138 H 105.886 -4.07598 -1.71219 0
M  V30 1139 N 104.945 -0.338344 -1.53925 0
M  V30 1140 C 105.892 0.520845 -2.24846 0
M  V30 1141 C 106.862 1.09976 -1.24477 0
M  V30 1142 O 108.047 1.13735 -1.53196 0
M  V30 1143 C 105.187 1.6685 -3.02084 0
M  V30 1144 C 104.3 1.11739 -4.17299 0
M  V30 1145 C 103.435 2.23193 -4.82036 0
M  V30 1146 C 102.474 1.65407 -5.89328 0
M  V30 1147 N 101.611 2.70582 -6.47866 0
M  V30 1148 H 106.451 -0.0904881 -2.97863 0
M  V30 1149 H 103.988 -0.0564282 -1.46992 0
M  V30 1150 H 105.946 2.34407 -3.45122 0
M  V30 1151 H 104.576 2.2509 -2.31375 0
M  V30 1152 H 103.628 0.332919 -3.7894 0
M  V30 1153 H 104.94 0.654677 -4.94485 0
M  V30 1154 H 104.094 2.98626 -5.28117 0
M  V30 1155 H 102.833 2.72807 -4.04262 0
M  V30 1156 H 101.838 0.884779 -5.42634 0
M  V30 1157 H 103.063 1.16652 -6.69006 0
M  V30 1158 H 101.009 3.1946 -5.72959 0
M  V30 1159 H 100.926 2.28917 -7.20509 0
M  V30 1160 H 102.194 3.45799 -6.98601 0
M  V30 1161 N 106.423 1.57458 -0.0668435 0
M  V30 1162 C 107.648 1.9804 0.616027 0
M  V30 1163 C 108.073 0.944771 1.62652 0
M  V30 1164 O 107.431 -0.0902094 1.81075 0
M  V30 1165 C 107.479 3.37665 1.26549 0
M  V30 1166 O 106.583 3.36701 2.38131 0
M  V30 1167 H 105.924 0.644719 0.158849 0
M  V30 1168 H 108.454 2.04121 -0.139891 0
M  V30 1169 H 108.464 3.7474 1.6135 0
M  V30 1170 H 107.139 4.12573 0.525016 0
M  V30 1171 H 105.716 3.1139 2.0516 0
M  V30 1172 N 107.901 -0.206675 1.56239 0
M  V30 1173 C 109.149 -0.927007 1.79586 0
M  V30 1174 C 109.47 -1.8427 0.637929 0
M  V30 1175 O 108.74 -1.92849 -0.344398 0
M  V30 1176 H 107.32 -0.345292 0.662407 0
M  V30 1177 H 109.982 -0.21496 1.93711 0
M  V30 1178 H 109.078 -1.52501 2.72305 0
M  V30 1179 N 109.379 -1.50304 -0.473955 0
M  V30 1180 C 110.656 -1.51667 -1.23518 0
M  V30 1181 C 111.036 -0.259701 -2.09496 0
M  V30 1182 O 110.384 0.756986 -2.15597 0
M  V30 1183 C 110.594 -2.81082 -2.06868 0
M  V30 1184 C 111.942 -3.31631 -2.65153 0
M  V30 1185 O 112.966 -2.82384 -2.17113 0
M  V30 1186 O 111.825 -4.17471 -3.52675 0
M  V30 1187 H 108.919 -0.60822 -0.560355 0
M  V30 1188 H 111.465 -1.62592 -0.486011 0
M  V30 1189 H 110.237 -3.64041 -1.4349 0
M  V30 1190 H 109.86 -2.73146 -2.88924 0
M  V30 1191 N 110.857 0.726932 -1.39834 0
M  V30 1192 C 111.767 1.87131 -1.41489 0
M  V30 1193 C 112.783 1.71239 -0.308757 0
M  V30 1194 O 113.959 1.93701 -0.551529 0
M  V30 1195 C 111.024 3.22811 -1.26468 0
M  V30 1196 C 110.085 3.51039 -2.47124 0
M  V30 1197 C 109.318 4.80245 -2.3281 0
M  V30 1198 O 109.541 5.54537 -1.33585 0
M  V30 1199 O 108.475 5.08554 -3.21957 0
M  V30 1200 H 112.301 1.8869 -2.3797 0
M  V30 1201 H 109.886 0.875837 -1.21035 0
M  V30 1202 H 111.768 4.03877 -1.20255 0
M  V30 1203 H 110.443 3.22005 -0.330862 0
M  V30 1204 H 109.35 2.70027 -2.58914 0
M  V30 1205 H 110.683 3.56632 -3.39227 0
M  V30 1206 N 112.336 1.25143 0.95797 0
M  V30 1207 C 113.564 1.12424 1.73691 0
M  V30 1208 C 113.979 -0.322304 1.86029 0
M  V30 1209 O 113.336 -1.22186 1.35561 0
M  V30 1210 C 113.387 1.76933 3.15241 0
M  V30 1211 O 113.108 3.15932 3.03511 0
M  V30 1212 C 114.609 1.6995 4.09429 0
M  V30 1213 H 111.829 0.3923 0.544373 0
M  V30 1214 H 114.373 1.6544 1.20207 0
M  V30 1215 H 112.528 1.27895 3.6568 0
M  V30 1216 H 112.942 3.47598 3.9278 0
M  V30 1217 H 114.416 2.19753 5.06372 0
M  V30 1218 H 114.893 0.662619 4.34173 0
M  V30 1219 H 115.499 2.18461 3.64904 0
M  V30 1220 N 113.814 -1.1601 1.06675 0
M  V30 1221 C 115.23 -1.38622 0.790948 0
M  V30 1222 C 115.43 -1.92109 -0.607965 0
M  V30 1223 O 114.486 -2.12239 -1.36787 0
M  V30 1224 C 115.799 -2.36347 1.85905 0
M  V30 1225 C 117.347 -2.50023 1.88301 0
M  V30 1226 C 117.822 -3.51033 2.94176 0
M  V30 1227 N 119.313 -3.58563 2.93235 0
M  V30 1228 C 120.048 -4.36521 3.71803 0
M  V30 1229 N 119.544 -5.17869 4.602 0
M  V30 1230 N 121.337 -4.31541 3.60178 0
M  V30 1231 H 113.488 -0.796294 1.96908 0
M  V30 1232 H 115.751 -0.412597 0.853503 0
M  V30 1233 H 115.457 -2.04147 2.86386 0
M  V30 1234 H 115.331 -3.36042 1.71334 0
M  V30 1235 H 117.718 -2.81524 0.884769 0
M  V30 1236 H 117.799 -1.5035 2.06951 0
M  V30 1237 H 117.443 -3.20268 3.94196 0
M  V30 1238 H 117.373 -4.50445 2.72776 0
M  V30 1239 H 119.864 -3.00496 2.29152 0
M  V30 1240 H 120.177 -5.74578 5.16797 0
M  V30 1241 H 118.522 -5.17199 4.64253 0
M  V30 1242 H 121.713 -3.67051 2.90502 0
M  V30 1243 H 121.886 -4.9205 4.21653 0
M  V30 1244 N 115.292 -0.849877 -1.32721 0
M  V30 1245 C 116.222 -0.306308 -2.31482 0
M  V30 1246 C 117.203 0.591952 -1.59468 0
M  V30 1247 O 118.388 0.513199 -1.87296 0
M  V30 1248 C 115.518 0.510204 -3.43532 0
M  V30 1249 C 114.472 -0.293209 -4.26994 0
M  V30 1250 C 113.798 0.647743 -5.30762 0
M  V30 1251 C 115.098 -1.51634 -4.99804 0
M  V30 1252 H 116.792 -1.13153 -2.77195 0
M  V30 1253 H 114.338 -0.545553 -1.33266 0
M  V30 1254 H 116.291 0.900856 -4.11658 0
M  V30 1255 H 115.015 1.36874 -2.96535 0
M  V30 1256 H 113.674 -0.665555 -3.60508 0
M  V30 1257 H 113.322 1.50299 -4.8002 0
M  V30 1258 H 113.022 0.11422 -5.87489 0
M  V30 1259 H 114.546 1.03567 -6.01753 0
M  V30 1260 H 115.96 -1.19824 -5.60638 0
M  V30 1261 H 114.357 -1.98745 -5.66234 0
M  V30 1262 H 115.427 -2.28018 -4.27943 0
M  V30 1263 N 116.77 1.45427 -0.607355 0
M  V30 1264 C 117.702 2.2871 0.149752 0
M  V30 1265 C 118.715 1.39937 0.831958 0
M  V30 1266 O 119.904 1.64313 0.697385 0
M  V30 1267 C 117.004 3.15673 1.23304 0
M  V30 1268 C 116.177 4.32722 0.637996 0
M  V30 1269 C 115.236 5.00895 1.61215 0
M  V30 1270 O 114.262 5.57697 1.13854 0
M  V30 1271 N 115.464 5.00159 2.94655 0
M  V30 1272 H 118.229 2.94328 -0.564882 0
M  V30 1273 H 115.79 1.55612 -0.446823 0
M  V30 1274 H 117.782 3.58144 1.88454 0
M  V30 1275 H 116.352 2.51965 1.8502 0
M  V30 1276 H 115.572 3.93734 -0.191572 0
M  V30 1277 H 116.86 5.08321 0.220665 0
M  V30 1278 H 116.258 4.553 3.35735 0
M  V30 1279 H 114.815 5.46495 3.55228 0
M  V30 1280 N 118.248 0.346503 1.53744 0
M  V30 1281 C 119.178 -0.501193 2.28058 0
M  V30 1282 C 120.159 -1.10014 1.29734 0
M  V30 1283 O 121.344 -1.12097 1.58581 0
M  V30 1284 C 118.474 -1.65078 3.05559 0
M  V30 1285 C 117.428 -1.18003 4.11411 0
M  V30 1286 C 116.754 -2.41837 4.76884 0
M  V30 1287 C 118.054 -0.278394 5.21558 0
M  V30 1288 H 119.748 0.11875 2.99164 0
M  V30 1289 H 117.294 0.0585531 1.43881 0
M  V30 1290 H 119.247 -2.25028 3.56287 0
M  V30 1291 H 117.971 -2.29767 2.32109 0
M  V30 1292 H 116.63 -0.603331 3.61601 0
M  V30 1293 H 116.278 -3.0494 4.00026 0
M  V30 1294 H 115.978 -2.1102 5.48402 0
M  V30 1295 H 117.502 -3.02508 5.30397 0
M  V30 1296 H 118.916 -0.784823 5.67903 0
M  V30 1297 H 117.313 -0.0619707 6.00068 0
M  V30 1298 H 118.383 0.684677 4.80042 0
M  V30 1299 N 119.726 -1.57421 0.075193 0
M  V30 1300 C 120.636 -2.1642 -0.905511 0
M  V30 1301 C 121.652 -1.12828 -1.32461 0
M  V30 1302 O 122.828 -1.45109 -1.39661 0
M  V30 1303 C 119.893 -2.71693 -2.15369 0
M  V30 1304 C 118.954 -3.90171 -1.79068 0
M  V30 1305 C 118.187 -4.42798 -2.97936 0
M  V30 1306 O 118.41 -3.94416 -4.12058 0
M  V30 1307 O 117.344 -5.34085 -2.77555 0
M  V30 1308 H 121.17 -3.00588 -0.433626 0
M  V30 1309 H 118.755 -1.48664 -0.148067 0
M  V30 1310 H 120.637 -3.07104 -2.88557 0
M  V30 1311 H 119.312 -1.90582 -2.61649 0
M  V30 1312 H 118.219 -3.59606 -1.03122 0
M  V30 1313 H 119.552 -4.72584 -1.37569 0
M  V30 1314 N 121.204 0.198386 -1.56346 0
M  V30 1315 C 122.167 1.22952 -1.93431 0
M  V30 1316 C 123.167 1.38611 -0.815092 0
M  V30 1317 O 124.357 1.36479 -1.08255 0
M  V30 1318 C 121.489 2.59946 -2.20546 0
M  V30 1319 H 122.682 0.912626 -2.85677 0
M  V30 1320 H 120.235 0.43977 -1.49986 0
M  V30 1321 H 120.97 2.96696 -1.30927 0
M  V30 1322 H 120.755 2.49953 -3.02102 0
M  V30 1323 H 122.245 3.3431 -2.50253 0
M  V30 1324 N 122.682 1.50554 0.465978 0
M  V30 1325 C 123.928 1.62038 1.21949 0
M  V30 1326 C 124.261 0.322116 1.9151 0
M  V30 1327 O 123.536 -0.676723 1.82348 0
M  V30 1328 C 123.819 2.80421 2.25912 0
M  V30 1329 C 123.672 4.20144 1.60622 0
M  V30 1330 C 124.991 2.94354 3.27176 0
M  V30 1331 H 122.11 0.589752 0.441998 0
M  V30 1332 H 124.752 1.82956 0.51257 0
M  V30 1333 H 122.902 2.62717 2.86203 0
M  V30 1334 H 124.574 4.49449 1.03889 0
M  V30 1335 H 122.817 4.24165 0.909211 0
M  V30 1336 H 123.488 4.98914 2.36196 0
M  V30 1337 H 125.964 3.10578 2.76913 0
M  V30 1338 H 124.84 3.788 3.97242 0
M  V30 1339 H 125.101 2.05186 3.916 0
M  V30 1340 N 124.16 -0.719506 1.40217 0
M  V30 1341 C 125.108 -1.85493 1.40339 0
M  V30 1342 C 126.102 -1.66995 0.284415 0
M  V30 1343 O 127.308 -1.74148 0.455252 0
M  V30 1344 H 123.683 -0.610857 0.438586 0
M  V30 1345 H 125.654 -1.82506 2.36081 0
M  V30 1346 C 124.403 -3.23321 1.27901 0
M  V30 1347 H 123.726 -3.38159 2.1328 0
M  V30 1348 H 125.166 -4.02914 1.32045 0
M  V30 1349 C 123.625 -3.36898 -0.0111355 0
M  V30 1350 O 124.155 -3.89674 -0.975538 0
M  V30 1351 N 122.361 -2.90492 -0.0793393 0
M  V30 1352 H 121.908 -2.47731 0.706183 0
M  V30 1353 H 121.866 -2.99955 -0.942038 0
M  V30 1354 N 125.638 -1.25649 -0.95132 0
M  V30 1355 C 126.887 -1.09988 -1.69073 0
M  V30 1356 C 127.2 0.358355 -1.92289 0
M  V30 1357 O 128.406 0.635466 -2.63958 0
M  V30 1358 C 126.862 -1.92012 -3.044 0
M  V30 1359 C 126.47 -3.42347 -2.88968 0
M  V30 1360 C 128.214 -1.8493 -3.82101 0
M  V30 1361 C 126.121 -4.16655 -4.19705 0
M  V30 1362 H 125.051 -0.407993 -0.63408 0
M  V30 1363 H 127.702 -1.49873 -1.05879 0
M  V30 1364 H 126.084 -1.44952 -3.68517 0
M  V30 1365 H 127.258 -3.97104 -2.33762 0
M  V30 1366 H 125.573 -3.50557 -2.24719 0
M  V30 1367 H 128.17 -2.37739 -4.78941 0
M  V30 1368 H 128.513 -0.817883 -4.08187 0
M  V30 1369 H 129.046 -2.29758 -3.2474 0
M  V30 1370 H 125.785 -5.20224 -3.98807 0
M  V30 1371 H 125.305 -3.66681 -4.74663 0
M  V30 1372 H 126.984 -4.24551 -4.88227 0
M  V30 1373 N 127.117 1.15442 -1.07289 0
M  V30 1374 C 128.345 1.90096 -0.81676 0
M  V30 1375 C 128.76 1.7798 0.629966 0
M  V30 1376 O 128.117 1.1313 1.43206 0
M  V30 1377 C 128.168 3.40466 -1.21512 0
M  V30 1378 O 127.889 3.52232 -2.60508 0
M  V30 1379 C 129.39 4.32145 -0.988198 0
M  V30 1380 H 126.61 0.602495 -0.295366 0
M  V30 1381 H 129.154 1.4627 -1.42918 0
M  V30 1382 H 127.309 3.81958 -0.647039 0
M  V30 1383 H 127.723 4.45549 -2.76742 0
M  V30 1384 H 129.197 5.36072 -1.31645 0
M  V30 1385 H 129.674 4.39135 0.0755063 0
M  V30 1386 H 130.28 3.96395 -1.54115 0
M  V30 1387 N 128.595 0.856903 1.32268 0
M  V30 1388 C 129.872 0.382583 1.91822 0
M  V30 1389 C 130.252 -1.13407 1.78051 0
M  V30 1390 O 129.6 -1.95673 1.18001 0
M  V30 1391 C 129.81 0.849446 3.38505 0
M  V30 1392 C 131.158 0.867936 4.15634 0
M  V30 1393 O 132.182 0.794232 3.47232 0
M  V30 1394 O 131.041 0.972286 5.37781 0
M  V30 1395 H 128.135 0.112014 0.819379 0
M  V30 1396 H 130.681 0.943952 1.41024 0
M  V30 1397 H 129.453 1.89267 3.42482 0
M  V30 1398 H 129.076 0.265652 3.96712 0
M  V30 1399 N 130.073 -1.45103 0.615059 0
M  V30 1400 C 131.003 -2.33339 -0.0865619 0
M  V30 1401 C 131.984 -1.4727 -0.851209 0
M  V30 1402 O 133.169 -1.76026 -0.820281 0
M  V30 1403 C 130.299 -3.30095 -1.07956 0
M  V30 1404 C 129.253 -4.25858 -0.427628 0
M  V30 1405 C 128.579 -5.12361 -1.5294 0
M  V30 1406 C 129.879 -5.18165 0.655944 0
M  V30 1407 H 131.573 -2.92254 0.650224 0
M  V30 1408 H 129.119 -1.40532 0.314138 0
M  V30 1409 H 131.072 -3.90698 -1.57901 0
M  V30 1410 H 129.796 -2.69355 -1.84703 0
M  V30 1411 H 128.455 -3.66564 0.0510292 0
M  V30 1412 H 128.103 -4.47984 -2.28734 0
M  V30 1413 H 127.803 -5.77238 -1.09865 0
M  V30 1414 H 129.327 -5.75833 -2.03098 0
M  V30 1415 H 130.741 -5.72796 0.240257 0
M  V30 1416 H 129.138 -5.91559 1.00888 0
M  V30 1417 H 130.208 -4.60144 1.52957 0
M  V30 1418 N 131.551 -0.354651 -1.53558 0
M  V30 1419 C 132.776 0.242153 -2.05981 0
M  V30 1420 C 133.201 1.42553 -1.2272 0
M  V30 1421 O 132.559 1.79656 -0.243604 0
M  V30 1422 C 132.607 0.624367 -3.55154 0
M  V30 1423 O 131.711 1.72301 -3.74681 0
M  V30 1424 H 131.052 0.0378432 -0.662921 0
M  V30 1425 H 133.582 -0.512087 -1.98088 0
M  V30 1426 H 133.592 0.898433 -3.97985 0
M  V30 1427 H 132.267 -0.240989 -4.15201 0
M  V30 1428 H 130.844 1.44535 -3.4375 0
M  V30 1429 N 133.029 1.57378 -0.0835403 0
M  V30 1430 C 133.939 2.16897 0.894021 0
M  V30 1431 C 134.955 1.13528 1.31861 0
M  V30 1432 O 136.131 1.45848 1.3889 0
M  V30 1433 C 133.196 2.72831 2.13925 0
M  V30 1434 C 132.257 3.91115 1.76997 0
M  V30 1435 C 131.49 4.44371 2.95584 0
M  V30 1436 O 131.713 3.96596 4.09961 0
M  V30 1437 O 130.647 5.35549 2.74719 0
M  V30 1438 H 134.473 3.00814 0.417679 0
M  V30 1439 H 132.058 1.48741 0.140181 0
M  V30 1440 H 133.94 3.0863 2.86924 0
M  V30 1441 H 132.615 1.91967 2.60635 0
M  V30 1442 H 131.522 3.60148 1.01214 0
M  V30 1443 H 132.855 4.73307 1.3506 0
M  V30 1444 N 134.507 -0.190092 1.56449 0
M  V30 1445 C 135.455 -1.25501 1.95837 0
M  V30 1446 C 136.449 -1.4685 0.844485 0
M  V30 1447 O 137.655 -1.47651 1.02952 0
M  V30 1448 H 134.03 -0.421447 0.622805 0
M  V30 1449 H 136.001 -0.895821 2.84636 0
M  V30 1450 C 134.75 -2.59124 2.31841 0
M  V30 1451 H 134.073 -2.43514 3.17082 0
M  V30 1452 H 135.513 -3.32371 2.6326 0
M  V30 1453 C 133.972 -3.16488 1.15486 0
M  V30 1454 O 134.502 -3.99365 0.432535 0
M  V30 1455 N 132.708 -2.75305 0.930349 0
M  V30 1456 H 132.255 -2.08013 1.51948 0
M  V30 1457 H 132.213 -3.14024 0.153634 0
M  V30 1458 N 135.985 -1.50799 -0.457987 0
M  V30 1459 C 137.401 -1.38515 -0.792819 0
M  V30 1460 C 137.601 -0.451409 -1.96379 0
M  V30 1461 O 136.657 0.10112 -2.52297 0
M  V30 1462 C 137.97 -2.80149 -1.09258 0
M  V30 1463 C 139.518 -2.89156 -1.19825 0
M  V30 1464 C 139.993 -4.31651 -1.53106 0
M  V30 1465 N 141.484 -4.34662 -1.60072 0
M  V30 1466 C 142.219 -5.41928 -1.87354 0
M  V30 1467 N 141.715 -6.59384 -2.12568 0
M  V30 1468 N 143.508 -5.29385 -1.88965 0
M  V30 1469 H 135.659 -2.10073 0.313511 0
M  V30 1470 H 137.922 -0.944803 0.0777862 0
M  V30 1471 H 137.628 -3.50374 -0.305084 0
M  V30 1472 H 137.502 -3.18204 -2.02549 0
M  V30 1473 H 139.889 -2.19141 -1.97639 0
M  V30 1474 H 139.97 -2.54626 -0.244821 0
M  V30 1475 H 139.614 -5.02208 -0.758266 0
M  V30 1476 H 139.544 -4.63678 -2.49621 0
M  V30 1477 H 142.035 -3.49973 -1.42573 0
M  V30 1478 H 142.348 -7.36934 -2.32696 0
M  V30 1479 H 140.693 -6.62535 -2.09933 0
M  V30 1480 H 143.884 -4.36616 -1.68772 0
M  V30 1481 H 144.057 -6.13066 -2.09891 0
M  V30 1482 N 137.463 0.71206 -1.40597 0
M  V30 1483 C 138.41 1.82613 -1.41142 0
M  V30 1484 C 139.38 1.63925 -0.267903 0
M  V30 1485 O 140.565 1.85009 -0.466495 0
M  V30 1486 C 137.705 3.20354 -1.28324 0
M  V30 1487 C 136.818 3.50589 -2.52411 0
M  V30 1488 C 135.953 4.77855 -2.32009 0
M  V30 1489 C 134.992 5.01005 -3.51654 0
M  V30 1490 N 134.129 6.19487 -3.30425 0
M  V30 1491 H 138.969 1.81482 -2.36365 0
M  V30 1492 H 136.506 0.886475 -1.17388 0
M  V30 1493 H 138.464 3.99899 -1.18899 0
M  V30 1494 H 137.094 3.20705 -0.367189 0
M  V30 1495 H 136.146 2.65573 -2.72351 0
M  V30 1496 H 137.458 3.63604 -3.41458 0
M  V30 1497 H 136.612 5.65424 -2.19956 0
M  V30 1498 H 135.351 4.67056 -1.40392 0
M  V30 1499 H 134.356 4.1189 -3.64179 0
M  V30 1500 H 135.581 5.13674 -4.44202 0
M  V30 1501 H 133.527 6.09932 -2.41494 0
M  V30 1502 H 133.444 6.33194 -4.13039 0
M  V30 1503 H 134.712 7.09834 -3.22113 0
M  V30 1504 N 138.941 1.26152 0.944643 0
M  V30 1505 C 139.873 1.03199 2.04652 0
M  V30 1506 C 140.886 -0.00642356 1.62799 0
M  V30 1507 O 142.075 0.233263 1.76969 0
M  V30 1508 C 139.175 0.540111 3.34568 0
M  V30 1509 C 138.348 1.64697 4.05208 0
M  V30 1510 C 137.407 1.15374 5.13396 0
M  V30 1511 O 136.433 1.85013 5.38293 0
M  V30 1512 N 137.635 0.00031529 5.805 0
M  V30 1513 H 140.4 1.9808 2.2491 0
M  V30 1514 H 137.961 1.17491 1.11389 0
M  V30 1515 H 139.953 0.194401 4.04233 0
M  V30 1516 H 138.523 -0.315021 3.11009 0
M  V30 1517 H 137.743 2.16379 3.29506 0
M  V30 1518 H 139.031 2.3903 4.49157 0
M  V30 1519 H 138.429 -0.581336 5.62705 0
M  V30 1520 H 136.986 -0.286346 6.51171 0
M  V30 1521 N 140.419 -1.14872 1.07899 0
M  V30 1522 C 141.696 -1.81928 0.71845 0
M  V30 1523 C 142.076 -1.95417 -0.798455 0
M  V30 1524 O 141.424 -1.50997 -1.715 0
M  V30 1525 C 141.634 -3.17937 1.43935 0
M  V30 1526 C 142.982 -3.93501 1.59506 0
M  V30 1527 O 144.006 -3.27509 1.40058 0
M  V30 1528 O 142.865 -5.1183 1.91551 0
M  V30 1529 H 139.959 -0.78628 0.256305 0
M  V30 1530 H 142.505 -1.21934 1.18026 0
M  V30 1531 H 141.277 -3.0325 2.47295 0
M  V30 1532 H 140.9 -3.85619 0.968687 0
M  V30 1533 N 141.898 -0.863906 -1.31812 0
M  V30 1534 C 142.845 -0.313303 -2.28664 0
M  V30 1535 C 143.815 0.584868 -1.55462 0
M  V30 1536 O 145 0.517805 -1.83639 0
M  V30 1537 C 142.14 0.48441 -3.41683 0
M  V30 1538 C 141.253 -0.440594 -4.29747 0
M  V30 1539 C 140.388 0.370652 -5.29905 0
M  V30 1540 C 139.427 -0.551164 -6.09613 0
M  V30 1541 N 138.564 0.223462 -7.01744 0
M  V30 1542 H 143.404 -1.14444 -2.75148 0
M  V30 1543 H 140.941 -0.575769 -1.35364 0
M  V30 1544 H 142.899 0.962627 -4.05943 0
M  V30 1545 H 141.529 1.28029 -2.96325 0
M  V30 1546 H 140.581 -1.03724 -3.65986 0
M  V30 1547 H 141.893 -1.14767 -4.85417 0
M  V30 1548 H 141.047 0.911638 -5.99812 0
M  V30 1549 H 139.786 1.11105 -4.74876 0
M  V30 1550 H 138.791 -1.10396 -5.38603 0
M  V30 1551 H 140.016 -1.29032 -6.66729 0
M  V30 1552 H 137.962 0.946787 -6.49132 0
M  V30 1553 H 137.879 -0.424399 -7.54808 0
M  V30 1554 H 139.147 0.745876 -7.75923 0
M  V30 1555 N 143.376 1.44774 -0.622745 0
M  V30 1556 C 144.792 1.56986 -0.287652 0
M  V30 1557 C 144.992 1.61167 1.20944 0
M  V30 1558 O 144.048 1.55015 1.99315 0
M  V30 1559 C 145.361 2.84551 -0.972188 0
M  V30 1560 C 146.909 2.9825 -0.949536 0
M  V30 1561 C 147.384 4.28605 -1.61437 0
M  V30 1562 N 148.875 4.35399 -1.58057 0
M  V30 1563 C 149.61 5.34964 -2.064 0
M  V30 1564 N 149.106 6.40981 -2.62897 0
M  V30 1565 N 150.899 5.26419 -1.97078 0
M  V30 1566 H 143.05 1.40304 -1.59463 0
M  V30 1567 H 145.313 0.671794 -0.668878 0
M  V30 1568 H 145.019 2.87417 -2.02693 0
M  V30 1569 H 144.893 3.73807 -0.504771 0
M  V30 1570 H 147.28 2.94941 0.0967067 0
M  V30 1571 H 147.361 2.10364 -1.45536 0
M  V30 1572 H 147.005 4.32672 -2.66002 0
M  V30 1573 H 146.935 5.15334 -1.08344 0
M  V30 1574 H 149.426 3.59397 -1.16801 0
M  V30 1575 H 149.739 7.13225 -2.97539 0
M  V30 1576 H 148.084 6.4169 -2.66943 0
M  V30 1577 H 151.275 4.42504 -1.52669 0
M  V30 1578 H 151.448 6.03861 -2.35066 0
M  V30 1579 N 144.854 0.36279 1.53368 0
M  V30 1580 C 146.101 -0.227776 2.01215 0
M  V30 1581 C 146.429 -1.49003 1.25014 0
M  V30 1582 O 145.684 -1.92876 0.331236 0
M  V30 1583 C 145.983 -0.568417 3.52851 0
M  V30 1584 C 145.649 0.59918 4.46901 0
M  V30 1585 C 144.311 0.919559 4.72332 0
M  V30 1586 C 146.663 1.38156 5.02556 0
M  V30 1587 C 143.991 2.02434 5.5067 0
M  V30 1588 C 146.343 2.47674 5.821 0
M  V30 1589 C 145.007 2.8025 6.05819 0
M  V30 1590 H 144.277 -0.083349 0.736297 0
M  V30 1591 H 146.924 0.494677 1.85001 0
M  V30 1592 H 145.229 -1.37185 3.66998 0
M  V30 1593 H 146.926 -1.03756 3.87344 0
M  V30 1594 H 143.516 0.339437 4.27254 0
M  V30 1595 H 147.7 1.14729 4.82857 0
M  V30 1596 H 142.956 2.28075 5.67267 0
M  V30 1597 H 147.13 3.08716 6.24234 0
M  V30 1598 H 144.757 3.65979 6.66306 0
M  V30 1599 N 146.332 -1.57332 0.0918853 0
M  V30 1600 C 147.295 -2.12708 -0.85369 0
M  V30 1601 C 148.295 -1.05561 -1.213 0
M  V30 1602 O 149.485 -1.31461 -1.14296 0
M  V30 1603 C 146.617 -2.64503 -2.15061 0
M  V30 1604 H 147.81 -2.97573 -0.3729 0
M  V30 1605 H 145.363 -1.55509 -0.157072 0
M  V30 1606 H 146.098 -1.83149 -2.67632 0
M  V30 1607 H 145.883 -3.4284 -1.90272 0
M  V30 1608 H 147.373 -3.07351 -2.82711 0
M  V30 1609 N 147.81 0.181792 -1.56548 0
M  V30 1610 C 149.057 0.900097 -1.81396 0
M  V30 1611 C 149.385 1.82695 -0.667281 0
M  V30 1612 O 148.64 1.92614 0.346146 0
M  V30 1613 C 148.939 1.73728 -3.12335 0
M  V30 1614 C 148.605 0.960255 -4.40556 0
M  V30 1615 C 147.267 0.745766 -4.75386 0
M  V30 1616 C 149.619 0.414477 -5.19549 0
M  V30 1617 C 146.947 -0.0257694 -5.86694 0
M  V30 1618 C 149.299 -0.343916 -6.31664 0
M  V30 1619 C 147.963 -0.569301 -6.65068 0
M  V30 1620 H 147.233 0.329369 -0.663775 0
M  V30 1621 H 149.88 0.165647 -1.90782 0
M  V30 1622 H 148.185 2.54081 -2.98245 0
M  V30 1623 H 149.882 2.29591 -3.28769 0
M  V30 1624 H 146.472 1.13746 -4.13231 0
M  V30 1625 H 150.656 0.567554 -4.93044 0
M  V30 1626 H 145.912 -0.210233 -6.11038 0
M  V30 1627 H 150.086 -0.774133 -6.92084 0
M  V30 1628 H 147.713 -1.16903 -7.51158 0
M  V30 1629 N 149.288 1.51039 0.449983 0
M  V30 1630 C 150.537 1.62317 1.19733 0
M  V30 1631 C 150.85 0.339101 1.92638 0
M  V30 1632 O 152.056 0.331069 2.69474 0
M  V30 1633 C 150.512 2.86608 2.17678 0
M  V30 1634 C 150.12 4.21972 1.50479 0
M  V30 1635 C 151.864 3.07239 2.92924 0
M  V30 1636 C 149.771 5.37426 2.46834 0
M  V30 1637 H 148.701 0.604532 0.450619 0
M  V30 1638 H 151.352 1.77494 0.465625 0
M  V30 1639 H 149.734 2.65037 2.94231 0
M  V30 1640 H 150.908 4.53878 0.795716 0
M  V30 1641 H 149.223 4.07117 0.874344 0
M  V30 1642 H 151.82 3.90668 3.65079 0
M  V30 1643 H 152.163 2.19807 3.5354 0
M  V30 1644 H 152.696 3.29091 2.23481 0
M  V30 1645 H 149.435 6.27079 1.90926 0
M  V30 1646 H 148.955 5.09912 3.15832 0
M  V30 1647 H 150.634 5.68862 3.08228 0
M  V30 1648 N 150.766 -0.704594 1.40972 0
M  V30 1649 C 152.182 -1.01406 1.23244 0
M  V30 1650 C 152.382 -2.01169 0.115399 0
M  V30 1651 O 151.438 -2.47021 -0.523147 0
M  V30 1652 C 152.751 -1.54728 2.57836 0
M  V30 1653 C 154.299 -1.66658 2.64942 0
M  V30 1654 C 154.774 -2.23383 3.9983 0
M  V30 1655 N 156.265 -2.30756 4.01629 0
M  V30 1656 C 157 -2.75655 5.02794 0
M  V30 1657 N 156.496 -3.20225 6.14352 0
M  V30 1658 N 158.289 -2.75138 4.90159 0
M  V30 1659 H 150.44 -0.0435285 2.12355 0
M  V30 1660 H 152.703 -0.0818951 0.944456 0
M  V30 1661 H 152.409 -0.888832 3.40283 0
M  V30 1662 H 152.283 -2.53084 2.79693 0
M  V30 1663 H 154.67 -2.31617 1.8286 0
M  V30 1664 H 154.751 -0.668717 2.46904 0
M  V30 1665 H 154.395 -1.59043 4.82357 0
M  V30 1666 H 154.325 -3.23904 4.15203 0
M  V30 1667 H 156.816 -1.99291 3.21079 0
M  V30 1668 H 157.129 -3.53084 6.87424 0
M  V30 1669 H 155.474 -3.18156 6.17901 0
M  V30 1670 H 158.665 -2.39661 4.02095 0
M  V30 1671 H 158.838 -3.09812 5.6914 0
M  V30 1672 N 152.244 -1.26651 -0.937939 0
M  V30 1673 C 153.469 -1.15279 -1.72411 0
M  V30 1674 C 153.894 0.287866 -1.85884 0
M  V30 1675 O 153.252 1.20855 -1.35143 0
M  V30 1676 C 153.3 -1.83028 -3.10698 0
M  V30 1677 O 152.404 -1.12128 -3.96864 0
M  V30 1678 H 151.745 -0.401504 -0.528858 0
M  V30 1679 H 154.275 -1.67531 -1.1745 0
M  V30 1680 H 154.285 -1.89981 -3.6107 0
M  V30 1681 H 152.96 -2.87833 -3.00208 0
M  V30 1682 H 151.537 -1.13173 -3.55312 0
M  V30 1683 N 153.722 1.14298 -1.08507 0
M  V30 1684 C 154.999 1.81544 -0.728088 0
M  V30 1685 C 155.379 1.95838 0.78808 0
M  V30 1686 O 154.727 1.51904 1.70697 0
M  V30 1687 C 154.937 3.17169 -1.45619 0
M  V30 1688 C 156.285 3.9265 -1.61591 0
M  V30 1689 O 157.309 3.26762 -1.41793 0
M  V30 1690 O 156.168 5.10807 -1.94263 0
M  V30 1691 H 153.262 0.78491 -0.260471 0
M  V30 1692 H 155.808 1.21307 -1.18671 0
M  V30 1693 H 154.58 3.01934 -2.489 0
M  V30 1694 H 154.203 3.851 -0.989124 0
M  V30 1695 N 155.201 0.870884 1.31352 0
M  V30 1696 C 156.426 0.495957 2.01383 0
M  V30 1697 C 156.851 -0.904324 1.64935 0
M  V30 1698 O 156.209 -1.59687 0.858466 0
M  V30 1699 C 156.257 0.661433 3.54482 0
M  V30 1700 O 155.361 -0.298851 4.11316 0
M  V30 1701 H 154.702 0.197158 0.634054 0
M  V30 1702 H 157.232 1.17455 1.67527 0
M  V30 1703 H 157.242 0.555072 4.04207 0
M  V30 1704 H 155.917 1.68246 3.8035 0
M  V30 1705 H 154.494 -0.147368 3.72609 0
M  V30 1706 N 156.679 -1.44442 0.630414 0
M  V30 1707 C 157.927 -2.01653 0.134351 0
M  V30 1708 C 158.248 -1.49836 -1.24796 0
M  V30 1709 O 157.518 -0.701684 -1.82902 0
M  V30 1710 H 156.098 -0.74554 0.0466769 0
M  V30 1711 H 158.76 -1.76952 0.816955 0
M  V30 1712 H 157.856 -3.11935 0.101498 0
M  V30 1713 N 158.157 -0.370918 -1.53173 0
M  V30 1714 C 159.568 0.107139 -1.86392 0
M  V30 1715 C 159.919 1.47714 -1.29132 0
M  V30 1716 O 159.044 2.07464 -0.615439 0
M  V30 1717 C 159.639 0.201187 -3.38202 0
M  V30 1718 C 158.198 0.623507 -3.712 0
M  V30 1719 C 157.345 -0.225978 -2.76378 0
M  V30 1720 H 160.296 -0.58951 -1.47345 0
M  V30 1721 H 160.317 1.02377 -3.66468 0
M  V30 1722 H 159.829 -0.796058 -3.79848 0
M  V30 1723 H 157.93 1.62879 -3.35114 0
M  V30 1724 H 158.043 0.394414 -4.77474 0
M  V30 1725 H 156.407 0.305962 -2.52856 0
M  V30 1726 H 157.19 -1.22086 -3.20858 0
M  V30 1727 N 159.635 1.57281 -0.100228 0
M  V30 1728 C 160.863 1.98879 0.570509 0
M  V30 1729 C 161.278 0.979476 1.61405 0
M  V30 1730 O 160.635 -0.0302288 1.82475 0
M  V30 1731 C 160.686 3.4052 1.2136 0
M  V30 1732 O 160.407 4.37588 0.211786 0
M  V30 1733 C 161.908 3.97149 1.96945 0
M  V30 1734 H 159.128 0.653428 0.152555 0
M  V30 1735 H 161.672 2.03697 -0.18103 0
M  V30 1736 H 159.827 3.367 1.91603 0
M  V30 1737 H 160.241 5.20118 0.676607 0
M  V30 1738 H 161.715 4.98393 2.37294 0
M  V30 1739 H 162.192 3.3525 2.83733 0
M  V30 1740 H 162.798 4.04458 1.31506 0
M  V30 1741 N 161.113 -0.173488 1.56642 0
M  V30 1742 C 162.341 -0.906095 1.86004 0
M  V30 1743 C 162.756 -1.75921 0.685355 0
M  V30 1744 O 162.113 -1.79198 -0.345578 0
M  V30 1745 C 162.164 -1.78462 3.14378 0
M  V30 1746 O 161.885 -0.965914 4.27319 0
M  V30 1747 C 163.386 -2.62707 3.57071 0
M  V30 1748 H 160.606 -0.263341 0.617165 0
M  V30 1749 H 163.15 -0.174236 2.03756 0
M  V30 1750 H 161.305 -2.46984 2.98459 0
M  V30 1751 H 161.719 -1.56655 5.00559 0
M  V30 1752 H 163.193 -3.19969 4.49804 0
M  V30 1753 H 163.67 -3.37472 2.81086 0
M  V30 1754 H 164.276 -1.99521 3.75595 0
M  V30 1755 N 162.591 -1.51276 -0.441967 0
M  V30 1756 C 163.816 -1.67799 -1.21895 0
M  V30 1757 C 164.241 -0.372864 -1.84367 0
M  V30 1758 O 163.599 0.666501 -1.68604 0
M  V30 1759 C 163.647 -2.79199 -2.28211 0
M  V30 1760 O 162.751 -2.42479 -3.33583 0
M  V30 1761 H 162.092 -0.559649 -0.357336 0
M  V30 1762 H 164.622 -1.97815 -0.522522 0
M  V30 1763 H 164.632 -3.03146 -2.73069 0
M  V30 1764 H 163.307 -3.73906 -1.82118 0
M  V30 1765 H 161.884 -2.29087 -2.94234 0
M  V30 1766 N 164.069 0.697108 -1.41344 0
M  V30 1767 C 165.316 1.45714 -1.40619 0
M  V30 1768 C 165.644 1.94494 -0.0147907 0
M  V30 1769 O 164.899 1.69794 0.973066 0
M  V30 1770 C 165.198 2.68553 -2.35826 0
M  V30 1771 C 164.864 2.38438 -3.82698 0
M  V30 1772 C 163.526 2.29936 -4.22709 0
M  V30 1773 C 165.878 2.13567 -4.75435 0
M  V30 1774 C 163.206 1.94656 -5.53467 0
M  V30 1775 C 165.558 1.79797 -6.06511 0
M  V30 1776 C 164.222 1.69789 -6.45545 0
M  V30 1777 H 163.492 0.533206 -0.51456 0
M  V30 1778 H 166.139 0.796901 -1.74131 0
M  V30 1779 H 164.444 3.39503 -1.95563 0
M  V30 1780 H 166.141 3.2669 -2.32539 0
M  V30 1781 H 162.731 2.4595 -3.51008 0
M  V30 1782 H 166.915 2.19082 -4.45328 0
M  V30 1783 H 162.171 1.8546 -5.82593 0
M  V30 1784 H 166.345 1.59572 -6.77872 0
M  V30 1785 H 163.972 1.4222 -7.46778 0
M  V30 1786 N 165.547 1.27147 0.931209 0
M  V30 1787 C 166.457 1.11372 2.06478 0
M  V30 1788 C 167.473 0.044645 1.73943 0
M  V30 1789 O 168.649 0.250417 1.99837 0
M  V30 1790 C 165.714 0.758838 3.38294 0
M  V30 1791 C 164.775 1.90841 3.84549 0
M  V30 1792 C 164.008 1.57036 5.10074 0
M  V30 1793 O 164.231 0.476645 5.68405 0
M  V30 1794 O 163.165 2.40839 5.51616 0
M  V30 1795 H 166.991 2.06493 2.22698 0
M  V30 1796 H 164.576 1.06301 1.04978 0
M  V30 1797 H 166.458 0.574098 4.17471 0
M  V30 1798 H 165.133 -0.162879 3.2329 0
M  V30 1799 H 164.04 2.14819 3.06274 0
M  V30 1800 H 165.373 2.81021 4.04089 0
M  V30 1801 N 167.025 -1.13721 1.09112 0
M  V30 1802 C 168.25 -1.89314 0.847053 0
M  V30 1803 C 168.675 -1.78416 -0.595774 0
M  V30 1804 O 168.033 -1.12942 -1.41823 0
M  V30 1805 C 168.081 -3.3701 1.28284 0
M  V30 1806 O 167.185 -4.10054 0.439267 0
M  V30 1807 H 166.526 -0.588745 0.307044 0
M  V30 1808 H 169.056 -1.43902 1.45442 0
M  V30 1809 H 169.066 -3.87834 1.26683 0
M  V30 1810 H 167.741 -3.4426 2.33363 0
M  V30 1811 H 166.318 -3.69266 0.519312 0
M  V30 1812 N 168.503 -0.877838 -1.30888 0
M  V30 1813 C 169.466 -0.344265 -2.266 0
M  V30 1814 C 170.466 0.50922 -1.52524 0
M  V30 1815 O 171.656 0.317398 -1.71284 0
M  V30 1816 C 168.788 0.510198 -3.37061 0
M  V30 1817 H 169.981 -1.1893 -2.7531 0
M  V30 1818 H 167.534 -0.654088 -1.41956 0
M  V30 1819 H 168.269 1.37612 -2.93655 0
M  V30 1820 H 168.054 -0.101047 -3.9197 0
M  V30 1821 H 169.544 0.875537 -4.08319 0
M  V30 1822 N 169.982 1.44106 -0.638065 0
M  V30 1823 C 170.945 2.29138 0.0531013 0
M  V30 1824 C 171.945 1.41409 0.765506 0
M  V30 1825 O 173.135 1.63206 0.609046 0
M  V30 1826 C 170.267 3.23144 1.08584 0
M  V30 1827 H 171.46 2.91739 -0.694883 0
M  V30 1828 H 169.013 1.51134 -0.398538 0
M  V30 1829 H 169.748 2.65408 1.86357 0
M  V30 1830 H 169.533 3.87804 0.578852 0
M  V30 1831 H 171.023 3.87004 1.56899 0
M  V30 1832 N 171.46 0.379036 1.52974 0
M  V30 1833 C 172.7 -0.206325 2.03356 0
M  V30 1834 C 173.064 -1.44892 1.25977 0
M  V30 1835 O 174.265 -2.11078 1.66432 0
M  V30 1836 C 172.536 -0.477887 3.54191 0
M  V30 1837 S 174.095 -1.035 4.26419 0
M  V30 1838 H 170.913 -0.0590259 0.708546 0
M  V30 1839 H 173.515 0.525013 1.88319 0
M  V30 1840 H 172.219 0.433745 4.08101 0
M  V30 1841 H 171.75 -1.23793 3.73415 0
M  V30 1842 H 173.765 -2.31821 4.38718 0
M  V30 1843 N 172.938 -1.57226 0.108567 0
M  V30 1844 C 174.349 -1.8195 -0.418464 0
M  V30 1845 C 174.7 -1.02508 -1.67292 0
M  V30 1846 O 173.825 -0.258496 -2.14851 0
M  V30 1847 C 174.42 -3.30028 -0.765979 0
M  V30 1848 C 172.979 -3.55469 -1.23769 0
M  V30 1849 C 172.126 -2.7625 -0.241106 0
M  V30 1850 H 175.077 -1.55149 0.33384 0
M  V30 1851 H 175.098 -3.44086 -1.62434 0
M  V30 1852 H 174.61 -3.87821 0.147219 0
M  V30 1853 H 172.711 -3.03022 -2.16814 0
M  V30 1854 H 172.824 -4.6408 -1.19022 0
M  V30 1855 H 171.188 -2.44133 -0.72602 0
M  V30 1856 H 171.971 -3.36797 0.665007 0
M  V30 1857 N 174.416 0.165178 -1.56732 0
M  V30 1858 C 175.664 0.879068 -1.8198 0
M  V30 1859 C 175.985 1.82514 -0.686561 0
M  V30 1860 O 175.255 1.93694 0.293146 0
M  V30 1861 H 173.835 0.327608 -0.671329 0
M  V30 1862 H 176.497 0.163526 -1.94213 0
M  V30 1863 H 175.593 1.45228 -2.76252 0
M  V30 1864 N 175.894 1.51508 0.433938 0
M  V30 1865 C 177.14 1.65549 1.18173 0
M  V30 1866 C 177.495 0.368751 1.88833 0
M  V30 1867 O 176.788 -0.635616 1.8075 0
M  V30 1868 C 176.982 2.79928 2.22205 0
M  V30 1869 C 176.811 4.19601 1.61756 0
M  V30 1870 C 175.581 4.85489 1.40101 0
M  V30 1871 C 177.779 5.02574 1.09194 0
M  V30 1872 N 175.761 6.09266 0.752859 0
M  V30 1873 C 177.132 6.17381 0.569255 0
M  V30 1874 C 179.187 4.88079 0.984025 0
M  V30 1875 C 177.89 7.19282 -0.0507472 0
M  V30 1876 C 179.916 5.90191 0.377912 0
M  V30 1877 C 179.278 7.04272 -0.134216 0
M  V30 1878 H 175.377 0.659653 0.419979 0
M  V30 1879 H 177.961 1.88746 0.477818 0
M  V30 1880 H 176.132 2.5839 2.89982 0
M  V30 1881 H 177.864 2.83132 2.89168 0
M  V30 1882 H 174.619 4.43417 1.66369 0
M  V30 1883 H 175.043 6.75528 0.446123 0
M  V30 1884 H 179.685 4.00131 1.36583 0
M  V30 1885 H 177.403 8.06876 -0.444676 0
M  V30 1886 H 180.989 5.81045 0.296269 0
M  V30 1887 H 179.869 7.81933 -0.59585 0
M  V30 1888 N 177.372 -0.689602 1.41712 0
M  V30 1889 C 178.619 -1.44966 1.4139 0
M  V30 1890 C 178.947 -1.94484 0.025105 0
M  V30 1891 O 178.202 -1.70307 -0.964048 0
M  V30 1892 C 178.501 -2.67298 2.37247 0
M  V30 1893 C 178.167 -2.36405 3.83958 0
M  V30 1894 C 176.829 -2.27691 4.23923 0
M  V30 1895 C 179.181 -2.11043 4.76561 0
M  V30 1896 C 176.509 -1.91719 5.54492 0
M  V30 1897 C 178.861 -1.76578 6.07456 0
M  V30 1898 C 177.525 -1.66363 6.46436 0
M  V30 1899 H 176.795 -0.53047 0.517381 0
M  V30 1900 H 179.442 -0.787655 1.74552 0
M  V30 1901 H 177.747 -3.38461 1.9736 0
M  V30 1902 H 179.444 -3.25452 2.34269 0
M  V30 1903 H 176.034 -2.44085 3.52308 0
M  V30 1904 H 180.218 -2.16717 4.46483 0
M  V30 1905 H 175.474 -1.82367 5.83568 0
M  V30 1906 H 179.648 -1.55974 6.78708 0
M  V30 1907 H 177.275 -1.38258 7.47522 0
M  V30 1908 N 178.85 -1.27639 -0.924453 0
M  V30 1909 C 179.78 -1.13166 -2.04244 0
M  V30 1910 C 180.761 -0.032256 -1.70069 0
M  V30 1911 O 181.946 -0.207328 -1.9309 0
M  V30 1912 C 179.076 -0.781496 -3.38393 0
M  V30 1913 C 178.03 -1.83449 -3.86692 0
M  V30 1914 C 177.356 -1.33822 -5.17683 0
M  V30 1915 C 178.656 -3.23917 -4.09726 0
M  V30 1916 H 180.35 -2.06689 -2.1661 0
M  V30 1917 H 177.896 -0.995136 -1.04082 0
M  V30 1918 H 179.849 -0.667057 -4.16087 0
M  V30 1919 H 178.573 0.189439 -3.2605 0
M  V30 1920 H 177.232 -1.93789 -3.11193 0
M  V30 1921 H 176.88 -0.35665 -5.01734 0
M  V30 1922 H 176.58 -2.04224 -5.50968 0
M  V30 1923 H 178.104 -1.23679 -5.97943 0
M  V30 1924 H 179.518 -3.16559 -4.77978 0
M  V30 1925 H 177.915 -3.92059 -4.54324 0
M  V30 1926 H 178.985 -3.68729 -3.14908 0
M  V30 1927 N 180.328 1.1314 -1.09713 0
M  V30 1928 C 181.568 1.8613 -0.844683 0
M  V30 1929 C 181.932 1.81765 0.618491 0
M  V30 1930 O 183.133 2.50024 0.98699 0
M  V30 1931 C 181.404 3.30151 -1.36877 0
M  V30 1932 S 182.963 4.206 -1.25064 0
M  V30 1933 H 179.781 0.642056 -0.305427 0
M  V30 1934 H 182.383 1.36343 -1.4011 0
M  V30 1935 H 181.087 3.30883 -2.42786 0
M  V30 1936 H 180.618 3.85 -0.808614 0
M  V30 1937 H 182.633 4.95783 -0.203486 0
M  V30 1938 N 181.806 0.884767 1.30421 0
M  V30 1939 C 183.034 0.518044 2.0031 0
M  V30 1940 C 183.449 -0.893408 1.66324 0
M  V30 1941 O 182.806 -1.5875 0.900262 0
M  V30 1942 C 182.857 0.682997 3.54989 0
M  V30 1943 O 182.578 2.03888 3.87764 0
M  V30 1944 C 184.079 0.31924 4.42149 0
M  V30 1945 H 181.299 0.200265 0.640418 0
M  V30 1946 H 183.843 1.19001 1.6631 0
M  V30 1947 H 181.998 0.0584052 3.87356 0
M  V30 1948 H 182.412 2.05735 4.82466 0
M  V30 1949 H 183.886 0.485555 5.4986 0
M  V30 1950 H 184.363 -0.742717 4.32875 0
M  V30 1951 H 184.969 0.920147 4.15227 0
M  V30 1952 N 183.284 -1.43765 0.645699 0
M  V30 1953 C 184.247 -2.29163 -0.0409488 0
M  V30 1954 C 185.247 -1.41813 -0.757996 0
M  V30 1955 O 186.437 -1.63527 -0.600382 0
M  V30 1956 C 183.569 -3.23716 -1.06869 0
M  V30 1957 H 184.762 -2.91366 0.710345 0
M  V30 1958 H 182.315 -1.5092 0.406547 0
M  V30 1959 H 183.05 -2.66393 -1.84947 0
M  V30 1960 H 182.835 -3.88105 -0.558277 0
M  V30 1961 H 184.325 -3.87831 -1.54845 0
M  V30 1962 N 184.763 -0.387143 -1.52771 0
M  V30 1963 C 185.696 0.493123 -2.22808 0
M  V30 1964 C 186.674 1.0658 -1.22798 0
M  V30 1965 O 187.858 1.11785 -1.51777 0
M  V30 1966 C 184.985 1.68238 -2.93962 0
M  V30 1967 C 184.031 1.23515 -4.08223 0
M  V30 1968 S 184.864 0.21848 -5.35054 0
M  V30 1969 C 186.02 1.41357 -6.09729 0
M  V30 1970 H 186.253 -0.101625 -2.97126 0
M  V30 1971 H 183.786 -0.171323 -1.53447 0
M  V30 1972 H 185.744 2.36443 -3.35567 0
M  V30 1973 H 184.405 2.24842 -2.19328 0
M  V30 1974 H 183.598 2.12304 -4.57103 0
M  V30 1975 H 183.2 0.632044 -3.68621 0
M  V30 1976 H 185.492 2.34101 -6.3577 0
M  V30 1977 H 186.435 0.965736 -7.01484 0
M  V30 1978 H 186.843 1.6294 -5.40473 0
M  V30 1979 N 186.241 1.57166 -0.116904 0
M  V30 1980 C 187.151 2.18745 0.847812 0
M  V30 1981 C 188.167 1.163 1.29423 0
M  V30 1982 O 189.343 1.48761 1.35765 0
M  V30 1983 C 186.408 2.77307 2.0809 0
M  V30 1984 C 185.469 3.94781 1.68661 0
M  V30 1985 C 184.702 4.50541 2.86091 0
M  V30 1986 O 184.925 4.05202 4.01456 0
M  V30 1987 O 183.859 5.41256 2.63298 0
M  V30 1988 H 187.685 3.01632 0.353778 0
M  V30 1989 H 185.27 1.49005 0.108599 0
M  V30 1990 H 187.152 3.14647 2.80313 0
M  V30 1991 H 185.827 1.97452 2.56504 0
M  V30 1992 H 184.734 3.62214 0.935518 0
M  V30 1993 H 186.067 4.76065 1.24991 0
M  V30 1994 N 187.719 -0.156864 1.56817 0
M  V30 1995 C 188.682 -1.17781 1.96622 0
M  V30 1996 C 189.682 -1.36401 0.851555 0
M  V30 1997 O 190.872 -1.33561 1.11836 0
M  V30 1998 C 188.004 -2.54008 2.27361 0
M  V30 1999 H 189.197 -0.836564 2.87996 0
M  V30 2000 H 186.75 -0.39985 1.51099 0
M  V30 2001 H 187.485 -2.9312 1.38748 0
M  V30 2002 H 187.27 -2.41856 3.08623 0
M  V30 2003 H 188.76 -3.27558 2.59029 0
M  V30 2004 N 189.197 -1.51736 -0.425897 0
M  V30 2005 C 190.474 -1.55519 -1.1863 0
M  V30 2006 C 190.854 -0.326219 -2.08564 0
M  V30 2007 O 190.202 0.688012 -2.17896 0
M  V30 2008 C 190.412 -2.87521 -1.9782 0
M  V30 2009 C 191.76 -3.39899 -2.54468 0
M  V30 2010 O 192.784 -2.89148 -2.08019 0
M  V30 2011 O 191.643 -4.2848 -3.39215 0
M  V30 2012 H 188.737 -0.625739 -0.540721 0
M  V30 2013 H 191.283 -1.64055 -0.434038 0
M  V30 2014 H 190.055 -3.68422 -1.31836 0
M  V30 2015 H 189.678 -2.822 -2.80088 0
M  V30 2016 N 190.675 0.682077 -1.42076 0
M  V30 2017 C 191.607 1.80755 -1.40926 0
M  V30 2018 C 192.62 1.59833 -0.309398 0
M  V30 2019 O 193.809 1.69087 -0.572014 0
M  V30 2020 C 190.909 3.17744 -1.17865 0
M  V30 2021 C 190.082 3.65578 -2.40149 0
M  V30 2022 C 189.141 4.81277 -2.12742 0
M  V30 2023 O 188.167 4.92197 -2.85887 0
M  V30 2024 N 189.369 5.69474 -1.12602 0
M  V30 2025 H 192.134 1.82229 -2.37935 0
M  V30 2026 H 189.695 0.864903 -1.36861 0
M  V30 2027 H 191.687 3.9279 -0.9746 0
M  V30 2028 H 190.257 3.11214 -0.294068 0
M  V30 2029 H 189.477 2.81291 -2.76169 0
M  V30 2030 H 190.765 3.94278 -3.21593 0
M  V30 2031 H 190.163 5.63297 -0.520899 0
M  V30 2032 H 188.72 6.44363 -0.981842 0
M  V30 2033 N 192.153 1.28127 0.917671 0
M  V30 2034 C 193.564 1.13622 1.48145 0
M  V30 2035 C 193.915 -0.275207 1.9426 0
M  V30 2036 O 193.04 -1.1691 1.82102 0
M  V30 2037 C 193.635 2.05648 2.69248 0
M  V30 2038 C 192.194 1.95219 3.21818 0
M  V30 2039 C 191.341 1.97618 1.94532 0
M  V30 2040 H 194.292 1.40874 0.730772 0
M  V30 2041 H 194.313 1.61818 3.44377 0
M  V30 2042 H 193.825 3.08365 2.35653 0
M  V30 2043 H 191.926 0.955244 3.60147 0
M  V30 2044 H 192.039 2.81976 3.87333 0
M  V30 2045 H 190.403 1.41973 2.11461 0
M  V30 2046 H 191.186 3.02007 1.63238 0
M  V30 2047 N 193.631 -1.12557 1.10312 0
M  V30 2048 C 194.877 -1.84311 0.846011 0
M  V30 2049 C 195.21 -1.83805 -0.626859 0
M  V30 2050 O 194.485 -1.28268 -1.46211 0
M  V30 2051 C 194.768 -3.32048 1.39341 0
M  V30 2052 C 194.621 -3.41016 2.93305 0
M  V30 2053 C 195.94 -4.27764 1.03468 0
M  V30 2054 H 193.059 -0.669192 0.30879 0
M  V30 2055 H 195.701 -1.32057 1.36605 0
M  V30 2056 H 193.851 -3.76678 0.951087 0
M  V30 2057 H 195.523 -3.05031 3.46055 0
M  V30 2058 H 193.766 -2.81603 3.29973 0
M  V30 2059 H 194.437 -4.44948 3.26689 0
M  V30 2060 H 196.913 -3.91253 1.41633 0
M  V30 2061 H 195.789 -5.29549 1.44463 0
M  V30 2062 H 196.05 -4.42064 -0.0560404 0
M  V30 2063 N 195.109 -0.891671 -1.2995 0
M  V30 2064 C 196.334 -0.527932 -2.00568 0
M  V30 2065 C 196.759 0.877969 -1.66353 0
M  V30 2066 O 196.117 1.58301 -0.883762 0
M  V30 2067 C 196.165 -0.717745 -3.53385 0
M  V30 2068 O 195.269 0.233376 -4.11739 0
M  V30 2069 H 194.61 -0.20722 -0.630837 0
M  V30 2070 H 197.14 -1.20105 -1.65638 0
M  V30 2071 H 197.15 -0.619307 -4.03272 0
M  V30 2072 H 195.825 -1.74276 -3.77625 0
M  V30 2073 H 194.402 0.0880706 -3.72796 0
M  V30 2074 N 196.587 1.43421 -0.653314 0
M  V30 2075 C 197.517 2.33487 0.0246656 0
M  V30 2076 C 198.498 1.49475 0.811863 0
M  V30 2077 O 199.683 1.78139 0.773322 0
M  V30 2078 C 196.813 3.32841 0.99166 0
M  V30 2079 C 195.767 4.26842 0.314568 0
M  V30 2080 C 195.093 5.16236 1.39302 0
M  V30 2081 C 196.393 5.16243 -0.793095 0
M  V30 2082 H 198.087 2.90427 -0.727481 0
M  V30 2083 H 195.633 1.39649 -0.351287 0
M  V30 2084 H 197.586 3.94747 1.47487 0
M  V30 2085 H 196.31 2.74158 1.77497 0
M  V30 2086 H 194.969 3.663 -0.148199 0
M  V30 2087 H 194.617 4.53891 2.16776 0
M  V30 2088 H 194.317 5.79948 0.945223 0
M  V30 2089 H 195.841 5.81015 1.87759 0
M  V30 2090 H 197.255 5.71958 -0.392039 0
M  V30 2091 H 195.652 5.88676 -1.16536 0
M  V30 2092 H 196.722 4.55927 -1.65103 0
M  V30 2093 N 198.065 0.39524 1.52563 0
M  V30 2094 C 199.293 -0.184943 2.06072 0
M  V30 2095 C 199.708 -1.40021 1.26647 0
M  V30 2096 O 199.065 -1.79767 0.314672 0
M  V30 2097 C 199.116 -0.549179 3.57304 0
M  V30 2098 O 198.837 0.617813 4.33722 0
M  V30 2099 C 200.338 -1.18459 4.2718 0
M  V30 2100 H 197.558 -0.0265025 0.670476 0
M  V30 2101 H 200.102 0.562184 1.96621 0
M  V30 2102 H 198.257 -1.2462 3.66809 0
M  V30 2103 H 198.671 0.317091 5.23541 0
M  V30 2104 H 200.145 -1.38976 5.34219 0
M  V30 2105 H 200.622 -2.15368 3.82771 0
M  V30 2106 H 201.228 -0.528163 4.22008 0
M  V30 2107 N 199.544 -1.57102 0.125237 0
M  V30 2108 C 200.492 -2.16905 -0.839927 0
M  V30 2109 C 201.486 -1.11998 -1.27094 0
M  V30 2110 O 202.692 -1.3029 -1.24195 0
M  V30 2111 H 199.067 -0.694252 -0.288995 0
M  V30 2112 H 201.038 -2.96774 -0.311115 0
M  V30 2113 C 199.787 -2.78795 -2.07771 0
M  V30 2114 H 199.11 -3.59221 -1.755 0
M  V30 2115 H 200.55 -3.2417 -2.73295 0
M  V30 2116 C 199.009 -1.76193 -2.87155 0
M  V30 2117 O 199.539 -1.21909 -3.82755 0
M  V30 2118 N 197.745 -1.45991 -2.51267 0
M  V30 2119 H 197.292 -1.90325 -1.73592 0
M  V30 2120 H 197.25 -0.775844 -3.04677 0
M  V30 2121 N 201.022 0.148545 -1.56898 0
M  V30 2122 C 201.955 1.21293 -1.93296 0
M  V30 2123 C 202.933 1.41637 -0.798599 0
M  V30 2124 O 204.117 1.56275 -1.05406 0
M  V30 2125 C 201.244 2.5721 -2.20365 0
M  V30 2126 C 200.29 2.53469 -3.4301 0
M  V30 2127 S 201.123 2.00315 -4.96623 0
M  V30 2128 C 202.279 3.37964 -5.26812 0
M  V30 2129 H 202.512 0.902393 -2.83274 0
M  V30 2130 H 200.045 0.354094 -1.50285 0
M  V30 2131 H 202.003 3.35427 -2.36641 0
M  V30 2132 H 200.664 2.85454 -1.31054 0
M  V30 2133 H 199.857 3.53518 -3.59223 0
M  V30 2134 H 199.459 1.83359 -3.25968 0
M  V30 2135 H 201.751 4.34066 -5.20185 0
M  V30 2136 H 202.694 3.26606 -6.28279 0
M  V30 2137 H 203.102 3.35028 -4.54331 0
M  V30 2138 N 202.5 1.5196 0.417844 0
M  V30 2139 C 203.911 1.57851 0.997 0
M  V30 2140 C 204.262 0.413714 1.91789 0
M  V30 2141 O 203.387 -0.467057 2.113 0
M  V30 2142 C 203.982 2.86085 1.81496 0
M  V30 2143 C 202.541 2.94483 2.34428 0
M  V30 2144 C 201.688 2.52707 1.14169 0
M  V30 2145 H 204.639 1.57455 0.198392 0
M  V30 2146 H 204.66 2.70947 2.67148 0
M  V30 2147 H 204.172 3.70842 1.14446 0
M  V30 2148 H 202.273 2.142 3.04875 0
M  V30 2149 H 202.386 3.98546 2.65891 0
M  V30 2150 H 200.75 2.06353 1.49301 0
M  V30 2151 H 201.533 3.39828 0.486999 0
M  V30 2152 N 203.978 -0.674533 1.42435 0
M  V30 2153 C 205.255 -1.4305 1.33402 0
M  V30 2154 C 205.635 -2.11081 -0.0284674 0
M  V30 2155 O 204.983 -2.03257 -1.04397 0
M  V30 2156 C 205.193 -2.43272 2.50239 0
M  V30 2157 C 206.541 -3.07907 2.92367 0
M  V30 2158 O 207.565 -2.53599 2.50132 0
M  V30 2159 O 206.424 -4.0632 3.65467 0
M  V30 2160 H 203.518 -0.638076 0.526106 0
M  V30 2161 H 206.064 -0.703235 1.54443 0
M  V30 2162 H 204.836 -1.91803 3.41068 0
M  V30 2163 H 204.459 -3.23479 2.31186 0
M  V30 2164 N 205.456 -1.28612 -0.910864 0
M  V30 2165 C 206.366 -1.14643 -2.0468 0
M  V30 2166 C 207.382 -0.0723121 -1.7385 0
M  V30 2167 O 208.558 -0.282178 -1.99413 0
M  V30 2168 C 205.623 -0.812561 -3.37044 0
M  V30 2169 C 204.684 -1.96935 -3.81465 0
M  V30 2170 C 203.917 -1.65131 -5.07511 0
M  V30 2171 O 204.14 -0.567013 -5.67575 0
M  V30 2172 O 203.074 -2.49585 -5.47714 0
M  V30 2173 H 206.9 -2.1001 -2.19384 0
M  V30 2174 H 204.485 -1.07958 -1.03274 0
M  V30 2175 H 206.367 -0.640441 -4.16505 0
M  V30 2176 H 205.042 0.111426 -3.23508 0
M  V30 2177 H 203.949 -2.19664 -3.02818 0
M  V30 2178 H 205.282 -2.87414 -3.99567 0
M  V30 2179 N 206.934 1.1197 -1.10907 0
M  V30 2180 C 208.182 1.83225 -0.852819 0
M  V30 2181 C 208.503 1.84769 0.623341 0
M  V30 2182 O 207.773 1.3143 1.45269 0
M  V30 2183 H 206.353 0.67849 -0.312507 0
M  V30 2184 H 209.015 1.3556 -1.40033 0
M  V30 2185 H 208.111 2.87265 -1.22005 0
M  V30 2186 N 208.412 0.89855 1.29475 0
M  V30 2187 C 209.658 0.524658 1.95896 0
M  V30 2188 C 209.991 -0.926468 1.70676 0
M  V30 2189 O 209.266 -1.65665 1.01908 0
M  V30 2190 C 209.549 0.81633 3.50725 0
M  V30 2191 C 209.402 2.31907 3.85408 0
M  V30 2192 C 210.721 0.302038 4.39062 0
M  V30 2193 H 207.84 0.19209 0.711527 0
M  V30 2194 H 210.482 1.12502 1.53112 0
M  V30 2195 H 208.632 0.305369 3.87298 0
M  V30 2196 H 210.304 2.89949 3.58786 0
M  V30 2197 H 208.547 2.78027 3.32992 0
M  V30 2198 H 209.218 2.47373 4.93468 0
M  V30 2199 H 211.694 0.739551 4.09475 0
M  V30 2200 H 210.57 0.535331 5.46283 0
M  V30 2201 H 210.831 -0.797216 4.34853 0
M  V30 2202 N 209.89 -1.43072 0.660911 0
M  V30 2203 C 210.823 -2.28074 -0.0758862 0
M  V30 2204 C 211.801 -1.40271 -0.822362 0
M  V30 2205 O 212.985 -1.69713 -0.820352 0
M  V30 2206 C 210.112 -3.19843 -1.11437 0
M  V30 2207 C 209.158 -4.23957 -0.465069 0
M  V30 2208 S 209.991 -5.29978 0.767078 0
M  V30 2209 C 211.147 -6.25314 -0.270682 0
M  V30 2210 H 211.38 -2.90216 0.645139 0
M  V30 2211 H 208.913 -1.47697 0.449995 0
M  V30 2212 H 210.871 -3.73257 -1.70849 0
M  V30 2213 H 209.532 -2.56863 -1.80776 0
M  V30 2214 H 208.725 -4.88299 -1.24819 0
M  V30 2215 H 208.327 -3.73959 0.0551242 0
M  V30 2216 H 210.619 -6.67932 -1.13459 0
M  V30 2217 H 211.562 -7.07293 0.337916 0
M  V30 2218 H 211.97 -5.61195 -0.609937 0
M  V30 2219 N 211.368 -0.403325 -1.52352 0
M  V30 2220 C 212.614 0.174605 -2.02047 0
M  V30 2221 C 212.947 1.45282 -1.28867 0
M  V30 2222 O 212.222 1.90483 -0.393257 0
M  V30 2223 C 212.505 0.428238 -3.57545 0
M  V30 2224 C 212.358 -0.866248 -4.4138 0
M  V30 2225 C 213.677 1.21287 -4.23057 0
M  V30 2226 H 210.796 0.0619851 -0.734389 0
M  V30 2227 H 213.438 -0.53565 -1.82293 0
M  V30 2228 H 211.588 1.03327 -3.74507 0
M  V30 2229 H 213.26 -1.50265 -4.3614 0
M  V30 2230 H 211.503 -1.47851 -4.07827 0
M  V30 2231 H 212.174 -0.643249 -5.48239 0
M  V30 2232 H 214.65 0.700703 -4.10158 0
M  V30 2233 H 213.526 1.35909 -5.31808 0
M  V30 2234 H 213.787 2.23193 -3.81625 0
M  V30 2235 N 212.846 1.57033 -0.133567 0
M  V30 2236 C 214.074 2.00044 0.528195 0
M  V30 2237 C 214.489 1.01349 1.59291 0
M  V30 2238 O 213.846 0.00848369 1.82498 0
M  V30 2239 C 213.897 3.43018 1.1411 0
M  V30 2240 O 213.618 4.37939 0.11892 0
M  V30 2241 C 215.119 4.01237 1.88477 0
M  V30 2242 H 212.339 0.656517 0.138661 0
M  V30 2243 H 214.883 2.03267 -0.224196 0
M  V30 2244 H 213.038 3.40688 1.84418 0
M  V30 2245 H 213.452 5.21436 0.56613 0
M  V30 2246 H 214.926 5.03314 2.26669 0
M  V30 2247 H 215.403 3.41193 2.76558 0
M  V30 2248 H 216.009 4.07156 1.22898 0
M  V30 2249 N 214.325 -0.140222 1.56975 0
M  V30 2250 C 215.272 -1.17292 1.98774 0
M  V30 2251 C 216.242 -1.4232 0.856408 0
M  V30 2252 O 217.427 -1.54541 1.119 0
M  V30 2253 C 214.567 -2.49973 2.37923 0
M  V30 2254 C 213.68 -2.32062 3.64378 0
M  V30 2255 C 212.815 -3.57825 3.926 0
M  V30 2256 C 211.854 -3.3498 5.12303 0
M  V30 2257 N 210.991 -4.52891 5.36502 0
M  V30 2258 H 215.831 -0.809472 2.86795 0
M  V30 2259 H 213.368 -0.388237 1.41884 0
M  V30 2260 H 215.326 -3.27346 2.58652 0
M  V30 2261 H 213.956 -2.84252 1.52972 0
M  V30 2262 H 213.008 -1.45711 3.51387 0
M  V30 2263 H 214.32 -2.11145 4.51906 0
M  V30 2264 H 213.474 -4.43624 4.13863 0
M  V30 2265 H 212.213 -3.81753 3.03506 0
M  V30 2266 H 211.218 -2.4757 4.90906 0
M  V30 2267 H 212.443 -3.12444 6.02956 0
M  V30 2268 H 210.389 -4.76979 4.50363 0
M  V30 2269 H 210.306 -4.35001 6.18312 0
M  V30 2270 H 211.574 -5.39884 5.62268 0
M  V30 2271 N 215.803 -1.52179 -0.40978 0
M  V30 2272 C 217.05 -1.66206 -1.15679 0
M  V30 2273 C 217.378 -0.391674 -1.90516 0
M  V30 2274 O 216.633 0.62533 -1.8544 0
M  V30 2275 C 216.932 -2.83428 -2.17723 0
M  V30 2276 C 216.598 -4.21672 -1.59699 0
M  V30 2277 C 215.26 -4.59274 -1.43599 0
M  V30 2278 C 217.612 -5.07825 -1.17317 0
M  V30 2279 C 214.94 -5.80709 -0.836328 0
M  V30 2280 C 217.292 -6.29864 -0.587691 0
M  V30 2281 C 215.956 -6.66216 -0.413818 0
M  V30 2282 H 215.226 -0.608192 -0.423301 0
M  V30 2283 H 217.873 -1.86279 -0.444097 0
M  V30 2284 H 216.178 -2.57687 -2.95135 0
M  V30 2285 H 217.875 -2.91477 -2.75394 0
M  V30 2286 H 214.465 -3.9204 -1.73213 0
M  V30 2287 H 218.649 -4.79359 -1.28565 0
M  V30 2288 H 213.905 -6.07498 -0.689626 0
M  V30 2289 H 218.079 -6.95948 -0.250894 0
M  V30 2290 H 215.706 -7.60182 0.0529471 0
M  V30 2291 N 217.281 0.66697 -1.42791 0
M  V30 2292 C 218.511 1.45294 -1.46878 0
M  V30 2293 C 218.919 1.89027 -0.0809861 0
M  V30 2294 O 218.262 1.59219 0.916246 0
M  V30 2295 C 218.324 2.72908 -2.34012 0
M  V30 2296 C 217.988 2.51203 -3.81767 0
M  V30 2297 C 218.985 2.15302 -4.73224 0
M  V30 2298 C 216.67 2.65954 -4.26115 0
M  V30 2299 C 218.664 1.94431 -6.07022 0
M  V30 2300 C 216.351 2.44699 -5.59969 0
M  V30 2301 C 217.349 2.08992 -6.5024 0
M  V30 2302 O 217.037 1.87948 -7.81621 0
M  V30 2303 H 216.769 0.453306 -0.501487 0
M  V30 2304 H 219.323 0.826232 -1.88049 0
M  V30 2305 H 217.553 3.38089 -1.87703 0
M  V30 2306 H 219.242 3.34816 -2.29462 0
M  V30 2307 H 220.008 2.03495 -4.40244 0
M  V30 2308 H 215.887 2.92724 -3.56137 0
M  V30 2309 H 219.431 1.66484 -6.77443 0
M  V30 2310 H 215.328 2.56105 -5.9252 0
M  V30 2311 H 216.096 2.02483 -7.93059 0
M  V30 2312 N 218.759 1.29093 0.90403 0
M  V30 2313 C 220.006 1.16813 1.65411 0
M  V30 2314 C 220.334 -0.28128 1.92455 0
M  V30 2315 O 219.589 -1.22006 1.53013 0
M  V30 2316 C 219.888 1.92224 3.01305 0
M  V30 2317 C 219.554 3.41968 2.93885 0
M  V30 2318 C 218.216 3.82807 2.91569 0
M  V30 2319 C 220.568 4.37409 2.83413 0
M  V30 2320 C 217.896 5.1741 2.76594 0
M  V30 2321 C 220.248 5.72097 2.69977 0
M  V30 2322 C 218.912 6.12199 2.66024 0
M  V30 2323 H 218.182 0.42745 0.605283 0
M  V30 2324 H 220.829 1.59981 1.05254 0
M  V30 2325 H 219.134 1.41635 3.65304 0
M  V30 2326 H 220.831 1.80131 3.58265 0
M  V30 2327 H 217.421 3.09504 2.96488 0
M  V30 2328 H 221.605 4.06813 2.84283 0
M  V30 2329 H 216.861 5.47596 2.71935 0
M  V30 2330 H 221.035 6.45704 2.60844 0
M  V30 2331 H 218.662 7.16448 2.54178 0
M  V30 2332 N 220.237 -1.11381 1.11499 0
M  V30 2333 C 221.169 -2.17207 0.731704 0
M  V30 2334 C 222.182 -1.61066 -0.236957 0
M  V30 2335 O 223.371 -1.78489 -0.0197591 0
M  V30 2336 C 220.471 -3.38846 0.0607624 0
M  V30 2337 C 219.644 -4.24451 1.0564 0
M  V30 2338 C 218.703 -5.24562 0.4149 0
M  V30 2339 O 217.729 -5.59071 1.069 0
M  V30 2340 N 218.931 -5.74651 -0.821943 0
M  V30 2341 H 221.696 -2.50699 1.64225 0
M  V30 2342 H 219.257 -1.26908 1.00529 0
M  V30 2343 H 221.249 -4.02911 -0.380139 0
M  V30 2344 H 219.819 -3.03411 -0.752376 0
M  V30 2345 H 219.039 -3.56833 1.67524 0
M  V30 2346 H 220.327 -4.78486 1.72998 0
M  V30 2347 H 219.725 -5.48797 -1.37252 0
M  V30 2348 H 218.282 -6.40549 -1.20582 0
M  V30 2349 N 221.715 -0.905404 -1.28997 0
M  V30 2350 C 222.625 -0.392246 -2.31298 0
M  V30 2351 C 223.641 0.515889 -1.66176 0
M  V30 2352 O 224.817 0.404093 -1.97304 0
M  V30 2353 C 221.882 0.36686 -3.44754 0
M  V30 2354 C 220.943 -0.573485 -4.25452 0
M  V30 2355 C 220.176 0.149488 -5.33491 0
M  V30 2356 O 220.399 1.37255 -5.5364 0
M  V30 2357 O 219.333 -0.510919 -5.99728 0
M  V30 2358 H 223.159 -1.2411 -2.77183 0
M  V30 2359 H 220.744 -0.669926 -1.33538 0
M  V30 2360 H 222.626 0.795907 -4.13816 0
M  V30 2361 H 221.301 1.19169 -3.00966 0
M  V30 2362 H 220.208 -1.05176 -3.59011 0
M  V30 2363 H 221.541 -1.36489 -4.72897 0
M  V30 2364 N 223.193 1.4272 -0.668489 0
M  V30 2365 C 224.47 1.95248 -0.117373 0
M  V30 2366 C 224.85 1.60919 1.36632 0
M  V30 2367 O 224.198 0.902095 2.09939 0
M  V30 2368 C 224.408 3.46927 -0.379806 0
M  V30 2369 C 225.756 4.23588 -0.292923 0
M  V30 2370 O 226.78 3.5482 -0.313204 0
M  V30 2371 O 225.639 5.46017 -0.229697 0
M  V30 2372 H 222.733 0.827 0.00079152 0
M  V30 2373 H 225.279 1.52581 -0.742783 0
M  V30 2374 H 224.051 3.65096 -1.40786 0
M  V30 2375 H 223.674 3.96627 0.277923 0
M  V30 2376 N 224.671 0.411399 1.52136 0
M  V30 2377 C 225.581 -0.419774 2.30814 0
M  V30 2378 C 226.597 -1.0515 1.38634 0
M  V30 2379 O 227.773 -1.05252 1.71709 0
M  V30 2380 C 224.838 -1.52019 3.11594 0
M  V30 2381 C 223.899 -0.91129 4.19516 0
M  V30 2382 C 223.132 -1.95927 4.96436 0
M  V30 2383 O 223.355 -3.17775 4.73683 0
M  V30 2384 O 222.289 -1.56423 5.81219 0
M  V30 2385 H 226.115 0.221805 3.02889 0
M  V30 2386 H 223.7 0.174547 1.48377 0
M  V30 2387 H 225.582 -2.15898 3.61892 0
M  V30 2388 H 224.257 -2.14633 2.42311 0
M  V30 2389 H 223.164 -0.235157 3.7336 0
M  V30 2390 H 224.497 -0.32904 4.91099 0
M  V30 2391 O 226.188 -1.59008 0.282609 0
M  V30 2392 H 226.879 -1.91579 -0.285831 0
M  V30 END ATOM
M  V30 BEGIN BOND
M  V30 END BOND
M  V30 END CTAB
M  END
$$$$
