drugbank_drug|DB01276 Exenatide
 OpenBabel12092119123D

573581  0  0  0  0  0  0  0  0999 V2000
   -0.9080    1.9825   -0.1171 H   0  0  0  0  0 15  0  0  0  0  0  0
    0.0000    1.5760    0.0000 N   0  0  0  0  0 15  0  0  0  0  0  0
    0.9500    2.0490    0.9999 C   0  0  0  0  0 15  0  0  0  0  0  0
    1.9340    0.9438    1.3031 C   0  0  0  0  0 15  0  0  0  0  0  0
    3.1260    1.2075    1.2941 O   0  0  0  0  0 15  0  0  0  0  0  0
    0.2550    2.5559    2.2919 C   0  0  0  0  0 15  0  0  0  0  0  0
   -0.6590    3.7299    2.0183 C   0  0  0  0  0 15  0  0  0  0  0  0
   -0.2680    4.8468    1.4463 N   0  0  0  0  0 15  0  0  0  0  0  0
   -1.9700    3.8092    2.3198 C   0  0  0  0  0 15  0  0  0  0  0  0
   -1.2690    5.6612    1.3375 C   0  0  0  0  0 15  0  0  0  0  0  0
   -2.2930    5.1212    1.8231 N   0  0  0  0  0 15  0  0  0  0  0  0
    1.5090    2.8867    0.5522 H   0  0  0  0  0 15  0  0  0  0  0  0
   -0.9770    1.6109    0.2057 H   0  0  0  0  0 15  0  0  0  0  0  0
    1.0200    2.8775    3.0167 H   0  0  0  0  0 15  0  0  0  0  0  0
   -0.3200    1.7324    2.7462 H   0  0  0  0  0 15  0  0  0  0  0  0
    0.6910    5.0553    1.1252 H   0  0  0  0  0 15  0  0  0  0  0  0
   -2.6320    3.0943    2.8028 H   0  0  0  0  0 15  0  0  0  0  0  0
   -1.2420    6.6588    0.8977 H   0  0  0  0  0 15  0  0  0  0  0  0
    1.4781   -0.2728    1.5522 N   0  0  0  0  0 15  0  0  0  0  0  0
    2.7261   -1.0023    1.7549 C   0  0  0  0  0 15  0  0  0  0  0  0
    3.0471   -1.8681    0.5592 C   0  0  0  0  0 15  0  0  0  0  0  0
    2.3171   -1.9121   -0.4259 O   0  0  0  0  0 15  0  0  0  0  0  0
    0.8971   -0.3731    0.6472 H   0  0  0  0  0 15  0  0  0  0  0  0
    3.5591   -0.2969    1.9262 H   0  0  0  0  0 15  0  0  0  0  0  0
    2.6551   -1.6391    2.6559 H   0  0  0  0  0 15  0  0  0  0  0  0
    2.9562   -1.4816   -0.5373 N   0  0  0  0  0 15  0  0  0  0  0  0
    3.8662   -1.6481   -1.6696 C   0  0  0  0  0 15  0  0  0  0  0  0
    4.8822   -0.5307   -1.6571 C   0  0  0  0  0 15  0  0  0  0  0  0
    6.0582   -0.8008   -1.8480 O   0  0  0  0  0 15  0  0  0  0  0  0
    3.1232   -1.6771   -3.0344 C   0  0  0  0  0 15  0  0  0  0  0  0
    2.1842   -2.9102   -3.1560 C   0  0  0  0  0 15  0  0  0  0  0  0
    1.4172   -2.9378   -4.4557 C   0  0  0  0  0 15  0  0  0  0  0  0
    1.6402   -2.0515   -5.3223 O   0  0  0  0  0 15  0  0  0  0  0  0
    0.5742   -3.8587   -4.6194 O   0  0  0  0  0 15  0  0  0  0  0  0
    4.4002   -2.6066   -1.5585 H   0  0  0  0  0 15  0  0  0  0  0  0
    1.9852   -1.3148   -0.7095 H   0  0  0  0  0 15  0  0  0  0  0  0
    3.8672   -1.7218   -3.8462 H   0  0  0  0  0 15  0  0  0  0  0  0
    2.5422   -0.7503   -3.1488 H   0  0  0  0  0 15  0  0  0  0  0  0
    1.4492   -2.9209   -2.3374 H   0  0  0  0  0 15  0  0  0  0  0  0
    2.7822   -3.8307   -3.0907 H   0  0  0  0  0 15  0  0  0  0  0  0
    4.4343    0.7856   -1.3662 N   0  0  0  0  0 15  0  0  0  0  0  0
    5.6823    1.5406   -1.3081 C   0  0  0  0  0 15  0  0  0  0  0  0
    6.0033    1.9468    0.1112 C   0  0  0  0  0 15  0  0  0  0  0  0
    5.2733    1.6524    1.0522 O   0  0  0  0  0 15  0  0  0  0  0  0
    3.8533    0.5714   -0.4812 H   0  0  0  0  0 15  0  0  0  0  0  0
    6.5153    0.9358   -1.7096 H   0  0  0  0  0 15  0  0  0  0  0  0
    5.6113    2.4464   -1.9380 H   0  0  0  0  0 15  0  0  0  0  0  0
    5.9124    1.2097    1.0102 N   0  0  0  0  0 15  0  0  0  0  0  0
    7.1404    1.0496    1.7830 C   0  0  0  0  0 15  0  0  0  0  0  0
    7.5554   -0.4009    1.8449 C   0  0  0  0  0 15  0  0  0  0  0  0
    6.9124   -1.2783    1.3026 O   0  0  0  0  0 15  0  0  0  0  0  0
    6.9634    1.6340    3.2246 C   0  0  0  0  0 15  0  0  0  0  0  0
    6.6844    3.0277    3.1664 O   0  0  0  0  0 15  0  0  0  0  0  0
    8.1854    1.5243    4.1627 C   0  0  0  0  0 15  0  0  0  0  0  0
    5.4054    0.3689    0.5605 H   0  0  0  0  0 15  0  0  0  0  0  0
    7.9494    1.6019    1.2712 H   0  0  0  0  0 15  0  0  0  0  0  0
    6.1044    1.1227    3.7078 H   0  0  0  0  0 15  0  0  0  0  0  0
    6.5184    3.3063    4.0717 H   0  0  0  0  0 15  0  0  0  0  0  0
    7.9924    1.9808    5.1524 H   0  0  0  0  0 15  0  0  0  0  0  0
    8.4694    0.4779    4.3659 H   0  0  0  0  0 15  0  0  0  0  0  0
    9.0754    2.0279    3.7384 H   0  0  0  0  0 15  0  0  0  0  0  0
    7.3905   -1.2043    1.0166 N   0  0  0  0  0 15  0  0  0  0  0  0
    8.6375   -1.8980    0.7059 C   0  0  0  0  0 15  0  0  0  0  0  0
    8.9655   -1.7885   -0.7644 C   0  0  0  0  0 15  0  0  0  0  0  0
    8.2205   -1.1669   -1.5710 O   0  0  0  0  0 15  0  0  0  0  0  0
    8.5195   -3.4046    1.0871 C   0  0  0  0  0 15  0  0  0  0  0  0
    8.1855   -3.7161    2.5537 C   0  0  0  0  0 15  0  0  0  0  0  0
    6.8475   -3.7983    2.9544 C   0  0  0  0  0 15  0  0  0  0  0  0
    9.1995   -3.8592    3.5031 C   0  0  0  0  0 15  0  0  0  0  0  0
    6.5275   -3.9980    4.2939 C   0  0  0  0  0 15  0  0  0  0  0  0
    8.8795   -4.0740    4.8395 C   0  0  0  0  0 15  0  0  0  0  0  0
    7.5435   -4.1384    5.2373 C   0  0  0  0  0 15  0  0  0  0  0  0
    6.8135   -0.6945    0.2583 H   0  0  0  0  0 15  0  0  0  0  0  0
    9.4605   -1.4269    1.2772 H   0  0  0  0  0 15  0  0  0  0  0  0
    7.7655   -3.8939    0.4343 H   0  0  0  0  0 15  0  0  0  0  0  0
    9.4625   -3.9243    0.8245 H   0  0  0  0  0 15  0  0  0  0  0  0
    6.0525   -3.6582    2.2332 H   0  0  0  0  0 15  0  0  0  0  0  0
   10.2365   -3.7893    3.2051 H   0  0  0  0  0 15  0  0  0  0  0  0
    5.4925   -4.0302    4.5977 H   0  0  0  0  0 15  0  0  0  0  0  0
    9.6665   -4.1740    5.5745 H   0  0  0  0  0 15  0  0  0  0  0  0
    7.2935   -4.2906    6.2754 H   0  0  0  0  0 15  0  0  0  0  0  0
    8.8686   -0.7928   -1.3621 N   0  0  0  0  0 15  0  0  0  0  0  0
   10.0966   -0.3788   -2.0340 C   0  0  0  0  0 15  0  0  0  0  0  0
   10.5116    1.0059   -1.5977 C   0  0  0  0  0 15  0  0  0  0  0  0
    9.8686    1.6457   -0.7888 O   0  0  0  0  0 15  0  0  0  0  0  0
    9.9196   -0.4368   -3.5885 C   0  0  0  0  0 15  0  0  0  0  0  0
    9.6406   -1.7669   -4.0089 O   0  0  0  0  0 15  0  0  0  0  0  0
   11.1416   -0.0139   -4.4330 C   0  0  0  0  0 15  0  0  0  0  0  0
    8.3616   -0.1557   -0.6527 H   0  0  0  0  0 15  0  0  0  0  0  0
   10.9056   -1.0726   -1.7411 H   0  0  0  0  0 15  0  0  0  0  0  0
    9.0606    0.2086   -3.8684 H   0  0  0  0  0 15  0  0  0  0  0  0
    9.4746   -1.7201   -4.9549 H   0  0  0  0  0 15  0  0  0  0  0  0
   10.9486   -0.1056   -5.5190 H   0  0  0  0  0 15  0  0  0  0  0  0
   11.4256    1.0392   -4.2673 H   0  0  0  0  0 15  0  0  0  0  0  0
   12.0316   -0.6319   -4.2058 H   0  0  0  0  0 15  0  0  0  0  0  0
   10.3467    1.4787   -0.5451 N   0  0  0  0  0 15  0  0  0  0  0  0
   11.5717    2.0739   -0.0191 C   0  0  0  0  0 15  0  0  0  0  0  0
   11.9967    1.3969    1.2597 C   0  0  0  0  0 15  0  0  0  0  0  0
   11.3547    0.4678    1.7516 O   0  0  0  0  0 15  0  0  0  0  0  0
   11.4027    3.6019    0.1723 C   0  0  0  0  0 15  0  0  0  0  0  0
   10.5067    3.9339    1.2377 O   0  0  0  0  0 15  0  0  0  0  0  0
    9.8477    0.6624   -0.0459 H   0  0  0  0  0 15  0  0  0  0  0  0
   12.3777    1.9007   -0.7574 H   0  0  0  0  0 15  0  0  0  0  0  0
   12.3877    4.0613    0.3903 H   0  0  0  0  0 15  0  0  0  0  0  0
   11.0627    4.0886   -0.7617 H   0  0  0  0  0 15  0  0  0  0  0  0
    9.6397    3.5921    1.0011 H   0  0  0  0  0 15  0  0  0  0  0  0
   11.8248    0.2810    1.5507 N   0  0  0  0  0 15  0  0  0  0  0  0
   13.1018   -0.3862    1.9175 C   0  0  0  0  0 15  0  0  0  0  0  0
   13.4818   -1.7326    1.2059 C   0  0  0  0  0 15  0  0  0  0  0  0
   12.8298   -2.2603    0.3348 O   0  0  0  0  0 15  0  0  0  0  0  0
   13.0398   -0.5207    3.4509 C   0  0  0  0  0 15  0  0  0  0  0  0
   14.3878   -0.8009    4.1698 C   0  0  0  0  0 15  0  0  0  0  0  0
   15.4118   -0.6053    3.5102 O   0  0  0  0  0 15  0  0  0  0  0  0
   14.2708   -1.1753    5.3371 O   0  0  0  0  0 15  0  0  0  0  0  0
   11.3648   -0.2124    0.7993 H   0  0  0  0  0 15  0  0  0  0  0  0
   13.9108    0.3276    1.6651 H   0  0  0  0  0 15  0  0  0  0  0  0
   12.6828    0.4266    3.8897 H   0  0  0  0  0 15  0  0  0  0  0  0
   12.3058   -1.2837    3.7631 H   0  0  0  0  0 15  0  0  0  0  0  0
   13.3029   -1.5760    0.0084 N   0  0  0  0  0 15  0  0  0  0  0  0
   14.2329   -2.1198   -0.9791 C   0  0  0  0  0 15  0  0  0  0  0  0
   15.2139   -1.0309   -1.3530 C   0  0  0  0  0 15  0  0  0  0  0  0
   16.3989   -1.3082   -1.4353 O   0  0  0  0  0 15  0  0  0  0  0  0
   13.5289   -2.6299   -2.2683 C   0  0  0  0  0 15  0  0  0  0  0  0
   12.4829   -3.7648   -2.0358 C   0  0  0  0  0 15  0  0  0  0  0  0
   11.8089   -4.1385   -3.3858 C   0  0  0  0  0 15  0  0  0  0  0  0
   13.1089   -5.0342   -1.3916 C   0  0  0  0  0 15  0  0  0  0  0  0
   14.8029   -2.9474   -0.5263 H   0  0  0  0  0 15  0  0  0  0  0  0
   12.3489   -1.4178   -0.2517 H   0  0  0  0  0 15  0  0  0  0  0  0
   14.3019   -2.9967   -2.9627 H   0  0  0  0  0 15  0  0  0  0  0  0
   13.0259   -1.7737   -2.7424 H   0  0  0  0  0 15  0  0  0  0  0  0
   11.6849   -3.4022   -1.3656 H   0  0  0  0  0 15  0  0  0  0  0  0
   11.3329   -3.2523   -3.8371 H   0  0  0  0  0 15  0  0  0  0  0  0
   11.0329   -4.9031   -3.2383 H   0  0  0  0  0 15  0  0  0  0  0  0
   12.5569   -4.5309   -4.0932 H   0  0  0  0  0 15  0  0  0  0  0  0
   13.9709   -5.3781   -1.9857 H   0  0  0  0  0 15  0  0  0  0  0  0
   12.3679   -5.8475   -1.3488 H   0  0  0  0  0 15  0  0  0  0  0  0
   13.4379   -4.8355   -0.3619 H   0  0  0  0  0 15  0  0  0  0  0  0
   14.7810    0.2645   -1.5536 N   0  0  0  0  0 15  0  0  0  0  0  0
   16.0060    1.0173   -1.8074 C   0  0  0  0  0 15  0  0  0  0  0  0
   16.4310    1.7884   -0.5830 C   0  0  0  0  0 15  0  0  0  0  0  0
   15.7890    1.7517    0.4676 O   0  0  0  0  0 15  0  0  0  0  0  0
   15.8370    1.9448   -3.0366 C   0  0  0  0  0 15  0  0  0  0  0  0
   14.9410    3.0339   -2.7934 O   0  0  0  0  0 15  0  0  0  0  0  0
   14.2820    0.2904   -0.5971 H   0  0  0  0  0 15  0  0  0  0  0  0
   16.8120    0.2909   -2.0252 H   0  0  0  0  0 15  0  0  0  0  0  0
   16.8220    2.3628   -3.3262 H   0  0  0  0  0 15  0  0  0  0  0  0
   15.4970    1.3777   -3.9242 H   0  0  0  0  0 15  0  0  0  0  0  0
   14.0740    2.6584   -2.6150 H   0  0  0  0  0 15  0  0  0  0  0  0
   16.2591    1.4844    0.5294 N   0  0  0  0  0 15  0  0  0  0  0  0
   17.2061    1.6301    1.6339 C   0  0  0  0  0 15  0  0  0  0  0  0
   18.1761    0.4721    1.5925 C   0  0  0  0  0 15  0  0  0  0  0  0
   19.3611    0.6957    1.7767 O   0  0  0  0  0 15  0  0  0  0  0  0
   16.5011    1.6763    3.0165 C   0  0  0  0  0 15  0  0  0  0  0  0
   15.6141    2.9454    3.1603 C   0  0  0  0  0 15  0  0  0  0  0  0
   14.7491    2.9032    4.4485 C   0  0  0  0  0 15  0  0  0  0  0  0
   13.7881    4.1192    4.5275 C   0  0  0  0  0 15  0  0  0  0  0  0
   12.9251    4.0578    5.7297 N   0  0  0  0  0 15  0  0  0  0  0  0
   17.7651    2.5733    1.5028 H   0  0  0  0  0 15  0  0  0  0  0  0
   15.3021    1.2761    0.7317 H   0  0  0  0  0 15  0  0  0  0  0  0
   17.2601    1.6829    3.8175 H   0  0  0  0  0 15  0  0  0  0  0  0
   15.8901    0.7680    3.1353 H   0  0  0  0  0 15  0  0  0  0  0  0
   14.9421    3.0361    2.2918 H   0  0  0  0  0 15  0  0  0  0  0  0
   16.2541    3.8451    3.1773 H   0  0  0  0  0 15  0  0  0  0  0  0
   15.4081    2.8938    5.3324 H   0  0  0  0  0 15  0  0  0  0  0  0
   14.1471    1.9807    4.4567 H   0  0  0  0  0 15  0  0  0  0  0  0
   13.1521    4.1313    3.6277 H   0  0  0  0  0 15  0  0  0  0  0  0
   14.3771    5.0533    4.5367 H   0  0  0  0  0 15  0  0  0  0  0  0
   12.3231    3.1635    5.7468 H   0  0  0  0  0 15  0  0  0  0  0  0
   12.2401    4.8946    5.7616 H   0  0  0  0  0 15  0  0  0  0  0  0
   13.5081    4.0890    6.6364 H   0  0  0  0  0 15  0  0  0  0  0  0
   17.7372   -0.7783    1.3704 N   0  0  0  0  0 15  0  0  0  0  0  0
   18.6692   -1.9003    1.2814 C   0  0  0  0  0 15  0  0  0  0  0  0
   19.6822   -1.6158    0.1986 C   0  0  0  0  0 15  0  0  0  0  0  0
   20.8712   -1.7263    0.4542 O   0  0  0  0  0 15  0  0  0  0  0  0
   17.9712   -3.2511    0.9570 C   0  0  0  0  0 15  0  0  0  0  0  0
   17.1442   -3.8125    2.1439 C   0  0  0  0  0 15  0  0  0  0  0  0
   16.2032   -4.9479    1.7908 C   0  0  0  0  0 15  0  0  0  0  0  0
   15.2292   -5.1072    2.5130 O   0  0  0  0  0 15  0  0  0  0  0  0
   16.4312   -5.7588    0.7310 N   0  0  0  0  0 15  0  0  0  0  0  0
   19.1962   -1.9819    2.2482 H   0  0  0  0  0 15  0  0  0  0  0  0
   16.7572   -0.9571    1.3058 H   0  0  0  0  0 15  0  0  0  0  0  0
   18.7492   -3.9857    0.7017 H   0  0  0  0  0 15  0  0  0  0  0  0
   17.3192   -3.1250    0.0790 H   0  0  0  0  0 15  0  0  0  0  0  0
   16.5392   -2.9965    2.5614 H   0  0  0  0  0 15  0  0  0  0  0  0
   17.8272   -4.1550    2.9367 H   0  0  0  0  0 15  0  0  0  0  0  0
   17.2252   -5.6555    0.1316 H   0  0  0  0  0 15  0  0  0  0  0  0
   15.7822   -6.4960    0.5356 H   0  0  0  0  0 15  0  0  0  0  0  0
   19.2153   -1.2150   -1.0038 N   0  0  0  0  0 15  0  0  0  0  0  0
   20.1483   -0.9187   -2.0889 C   0  0  0  0  0 15  0  0  0  0  0  0
   21.1263    0.1343   -1.6204 C   0  0  0  0  0 15  0  0  0  0  0  0
   22.3103    0.0050   -1.8850 O   0  0  0  0  0 15  0  0  0  0  0  0
   19.4373   -0.3796   -3.3657 C   0  0  0  0  0 15  0  0  0  0  0  0
   18.4833   -1.4156   -4.0232 C   0  0  0  0  0 15  0  0  0  0  0  0
   19.3163   -2.9852   -4.4457 S   0  0  0  0  0 15  0  0  0  0  0  0
   20.4723   -2.4623   -5.7543 C   0  0  0  0  0 15  0  0  0  0  0  0
   20.7053   -1.8376   -2.3371 H   0  0  0  0  0 15  0  0  0  0  0  0
   18.2383   -1.0449   -1.1367 H   0  0  0  0  0 15  0  0  0  0  0  0
   20.1963   -0.0752   -4.1043 H   0  0  0  0  0 15  0  0  0  0  0  0
   18.8573    0.5180   -3.0980 H   0  0  0  0  0 15  0  0  0  0  0  0
   18.0503   -0.9881   -4.9422 H   0  0  0  0  0 15  0  0  0  0  0  0
   17.6523   -1.6682   -3.3474 H   0  0  0  0  0 15  0  0  0  0  0  0
   19.9443   -1.8679   -6.5124 H   0  0  0  0  0 15  0  0  0  0  0  0
   20.8873   -3.3657   -6.2300 H   0  0  0  0  0 15  0  0  0  0  0  0
   21.2953   -1.8789   -5.3231 H   0  0  0  0  0 15  0  0  0  0  0  0
   20.6934    1.1989   -1.0230 N   0  0  0  0  0 15  0  0  0  0  0  0
   21.6034    2.2657   -0.6085 C   0  0  0  0  0 15  0  0  0  0  0  0
   22.6194    1.7030    0.3570 C   0  0  0  0  0 15  0  0  0  0  0  0
   23.7954    2.0023    0.2163 O   0  0  0  0  0 15  0  0  0  0  0  0
   20.8604    3.4668    0.0403 C   0  0  0  0  0 15  0  0  0  0  0  0
   19.9214    4.1815   -0.9719 C   0  0  0  0  0 15  0  0  0  0  0  0
   19.1544    5.3252   -0.3540 C   0  0  0  0  0 15  0  0  0  0  0  0
   19.3774    5.6411    0.8446 O   0  0  0  0  0 15  0  0  0  0  0  0
   18.3114    5.9224   -1.0739 O   0  0  0  0  0 15  0  0  0  0  0  0
   22.1374    2.6425   -1.4968 H   0  0  0  0  0 15  0  0  0  0  0  0
   19.7224    1.2663   -0.7928 H   0  0  0  0  0 15  0  0  0  0  0  0
   21.6044    4.1948    0.4023 H   0  0  0  0  0 15  0  0  0  0  0  0
   20.2794    3.1086    0.9027 H   0  0  0  0  0 15  0  0  0  0  0  0
   19.1864    3.4750   -1.3855 H   0  0  0  0  0 15  0  0  0  0  0  0
   20.5194    4.5793   -1.8045 H   0  0  0  0  0 15  0  0  0  0  0  0
   22.1715    0.8000    1.3578 N   0  0  0  0  0 15  0  0  0  0  0  0
   23.0815    0.2072    2.3368 C   0  0  0  0  0 15  0  0  0  0  0  0
   24.0975   -0.6463    1.6155 C   0  0  0  0  0 15  0  0  0  0  0  0
   25.2735   -0.5596    1.9347 O   0  0  0  0  0 15  0  0  0  0  0  0
   22.3385   -0.6397    3.4075 C   0  0  0  0  0 15  0  0  0  0  0  0
   21.3995    0.2336    4.2866 C   0  0  0  0  0 15  0  0  0  0  0  0
   20.6325   -0.5730    5.3062 C   0  0  0  0  0 15  0  0  0  0  0  0
   20.8555   -1.8082    5.4098 O   0  0  0  0  0 15  0  0  0  0  0  0
   19.7895    0.0327    6.0189 O   0  0  0  0  0 15  0  0  0  0  0  0
   23.6155    1.0169    2.8617 H   0  0  0  0  0 15  0  0  0  0  0  0
   21.2005    0.5617    1.3844 H   0  0  0  0  0 15  0  0  0  0  0  0
   23.0825   -1.1222    4.0618 H   0  0  0  0  0 15  0  0  0  0  0  0
   21.7575   -1.4271    2.9054 H   0  0  0  0  0 15  0  0  0  0  0  0
   20.6645    0.7631    3.6623 H   0  0  0  0  0 15  0  0  0  0  0  0
   21.9975    0.9848    4.8225 H   0  0  0  0  0 15  0  0  0  0  0  0
   23.6496   -1.4758    0.5530 N   0  0  0  0  0 15  0  0  0  0  0  0
   24.5596   -2.3374   -0.2004 C   0  0  0  0  0 15  0  0  0  0  0  0
   25.5756   -1.4793   -0.9162 C   0  0  0  0  0 15  0  0  0  0  0  0
   26.7516   -1.8086   -0.8860 O   0  0  0  0  0 15  0  0  0  0  0  0
   23.8166   -3.2454   -1.2197 C   0  0  0  0  0 15  0  0  0  0  0  0
   22.8776   -4.2624   -0.5118 C   0  0  0  0  0 15  0  0  0  0  0  0
   22.1106   -5.1269   -1.4826 C   0  0  0  0  0 15  0  0  0  0  0  0
   22.3336   -5.0153   -2.7171 O   0  0  0  0  0 15  0  0  0  0  0  0
   21.2676   -5.9337   -1.0094 O   0  0  0  0  0 15  0  0  0  0  0  0
   25.0936   -2.9945    0.5063 H   0  0  0  0  0 15  0  0  0  0  0  0
   22.6786   -1.4607    0.3136 H   0  0  0  0  0 15  0  0  0  0  0  0
   24.5606   -3.8063   -1.8083 H   0  0  0  0  0 15  0  0  0  0  0  0
   23.2356   -2.6146   -1.9084 H   0  0  0  0  0 15  0  0  0  0  0  0
   22.1426   -3.7391    0.1178 H   0  0  0  0  0 15  0  0  0  0  0  0
   23.4756   -4.9201    0.1353 H   0  0  0  0  0 15  0  0  0  0  0  0
   25.1277   -0.2892   -1.5492 N   0  0  0  0  0 15  0  0  0  0  0  0
   26.0907    0.5791   -2.2176 C   0  0  0  0  0 15  0  0  0  0  0  0
   27.0907    1.0705   -1.1999 C   0  0  0  0  0 15  0  0  0  0  0  0
   28.2807    0.9684   -1.4480 O   0  0  0  0  0 15  0  0  0  0  0  0
   25.4127    1.8005   -2.8947 C   0  0  0  0  0 15  0  0  0  0  0  0
   26.6057   -0.0046   -2.9990 H   0  0  0  0  0 15  0  0  0  0  0  0
   24.1587   -0.0399   -1.5625 H   0  0  0  0  0 15  0  0  0  0  0  0
   24.8937    2.4245   -2.1538 H   0  0  0  0  0 15  0  0  0  0  0  0
   24.6787    1.4560   -3.6406 H   0  0  0  0  0 15  0  0  0  0  0  0
   26.1687    2.4177   -3.4049 H   0  0  0  0  0 15  0  0  0  0  0  0
   26.6058    1.5759   -0.0167 N   0  0  0  0  0 15  0  0  0  0  0  0
   27.8518    1.9157    0.6656 C   0  0  0  0  0 15  0  0  0  0  0  0
   28.1848    0.8923    1.7249 C   0  0  0  0  0 15  0  0  0  0  0  0
   27.4598   -0.0867    1.9431 O   0  0  0  0  0 15  0  0  0  0  0  0
   27.7428    3.3607    1.2934 C   0  0  0  0  0 15  0  0  0  0  0  0
   27.5958    4.4913    0.2445 C   0  0  0  0  0 15  0  0  0  0  0  0
   28.9148    3.8030    2.2149 C   0  0  0  0  0 15  0  0  0  0  0  0
   26.0338    0.6967    0.2405 H   0  0  0  0  0 15  0  0  0  0  0  0
   28.6758    1.8987   -0.0714 H   0  0  0  0  0 15  0  0  0  0  0  0
   26.8258    3.3765    1.9216 H   0  0  0  0  0 15  0  0  0  0  0  0
   28.4978    4.5969   -0.3852 H   0  0  0  0  0 15  0  0  0  0  0  0
   26.7408    4.3165   -0.4314 H   0  0  0  0  0 15  0  0  0  0  0  0
   27.4118    5.4724    0.7232 H   0  0  0  0  0 15  0  0  0  0  0  0
   29.8878    3.8038    1.6868 H   0  0  0  0  0 15  0  0  0  0  0  0
   28.7638    4.8213    2.6238 H   0  0  0  0  0 15  0  0  0  0  0  0
   29.0248    3.1510    3.1010 H   0  0  0  0  0 15  0  0  0  0  0  0
   28.0839   -0.2563    1.5550 N   0  0  0  0  0 15  0  0  0  0  0  0
   29.4999   -0.6043    1.4772 C   0  0  0  0  0 15  0  0  0  0  0  0
   29.6999   -1.8876    0.7050 C   0  0  0  0  0 15  0  0  0  0  0  0
   28.7559   -2.5144    0.2306 O   0  0  0  0  0 15  0  0  0  0  0  0
   30.0689   -0.7158    2.9206 C   0  0  0  0  0 15  0  0  0  0  0  0
   31.6169   -0.8087    3.0237 C   0  0  0  0  0 15  0  0  0  0  0  0
   32.0919   -0.9518    4.4800 C   0  0  0  0  0 15  0  0  0  0  0  0
   33.5829   -1.0169    4.5190 N   0  0  0  0  0 15  0  0  0  0  0  0
   34.3179   -1.1467    5.6182 C   0  0  0  0  0 15  0  0  0  0  0  0
   33.8139   -1.2426    6.8157 N   0  0  0  0  0 15  0  0  0  0  0  0
   35.6069   -1.1791    5.4959 N   0  0  0  0  0 15  0  0  0  0  0  0
   27.7579    0.5863    2.0415 H   0  0  0  0  0 15  0  0  0  0  0  0
   30.0209    0.2010    0.9264 H   0  0  0  0  0 15  0  0  0  0  0  0
   29.7269    0.1570    3.5135 H   0  0  0  0  0 15  0  0  0  0  0  0
   29.6009   -1.5907    3.4202 H   0  0  0  0  0 15  0  0  0  0  0  0
   31.9879   -1.6719    2.4317 H   0  0  0  0  0 15  0  0  0  0  0  0
   32.0689    0.0912    2.5564 H   0  0  0  0  0 15  0  0  0  0  0  0
   31.7129   -0.0931    5.0781 H   0  0  0  0  0 15  0  0  0  0  0  0
   31.6429   -1.8666    4.9241 H   0  0  0  0  0 15  0  0  0  0  0  0
   34.1339   -0.9545    3.6565 H   0  0  0  0  0 15  0  0  0  0  0  0
   34.4469   -1.3405    7.6109 H   0  0  0  0  0 15  0  0  0  0  0  0
   32.7919   -1.2124    6.8434 H   0  0  0  0  0 15  0  0  0  0  0  0
   35.9829   -1.1006    4.5498 H   0  0  0  0  0 15  0  0  0  0  0  0
   36.1559   -1.2768    6.3530 H   0  0  0  0  0 15  0  0  0  0  0  0
   29.5620   -1.4872   -0.5215 N   0  0  0  0  0 15  0  0  0  0  0  0
   30.4920   -1.6677   -1.6343 C   0  0  0  0  0 15  0  0  0  0  0  0
   31.4730   -0.5165   -1.6207 C   0  0  0  0  0 15  0  0  0  0  0  0
   32.6580   -0.7500   -1.7913 O   0  0  0  0  0 15  0  0  0  0  0  0
   29.7880   -1.7152   -3.0199 C   0  0  0  0  0 15  0  0  0  0  0  0
   28.7420   -2.8622   -3.1822 C   0  0  0  0  0 15  0  0  0  0  0  0
   28.0680   -2.7606   -4.5792 C   0  0  0  0  0 15  0  0  0  0  0  0
   29.3680   -4.2742   -3.0018 C   0  0  0  0  0 15  0  0  0  0  0  0
   31.0620   -2.5993   -1.4858 H   0  0  0  0  0 15  0  0  0  0  0  0
   28.6080   -1.2509   -0.7134 H   0  0  0  0  0 15  0  0  0  0  0  0
   30.5610   -1.8273   -3.7972 H   0  0  0  0  0 15  0  0  0  0  0  0
   29.2850   -0.7494   -3.1789 H   0  0  0  0  0 15  0  0  0  0  0  0
   27.9440   -2.7457   -2.4291 H   0  0  0  0  0 15  0  0  0  0  0  0
   27.5920   -1.7744   -4.7066 H   0  0  0  0  0 15  0  0  0  0  0  0
   27.2920   -3.5304   -4.6972 H   0  0  0  0  0 15  0  0  0  0  0  0
   28.8160   -2.8926   -5.3774 H   0  0  0  0  0 15  0  0  0  0  0  0
   30.2300   -4.3985   -3.6770 H   0  0  0  0  0 15  0  0  0  0  0  0
   28.6270   -5.0546   -3.2347 H   0  0  0  0  0 15  0  0  0  0  0  0
   29.6970   -4.4329   -1.9652 H   0  0  0  0  0 15  0  0  0  0  0  0
   31.0401    0.7711   -1.3745 N   0  0  0  0  0 15  0  0  0  0  0  0
   32.2871    1.5296   -1.3270 C   0  0  0  0  0 15  0  0  0  0  0  0
   32.6151    1.9430    0.0883 C   0  0  0  0  0 15  0  0  0  0  0  0
   31.8701    1.6440    1.0617 O   0  0  0  0  0 15  0  0  0  0  0  0
   32.1691    2.8068   -2.2126 C   0  0  0  0  0 15  0  0  0  0  0  0
   31.8351    2.5839   -3.6952 C   0  0  0  0  0 15  0  0  0  0  0  0
   30.4971    2.5202   -4.0993 C   0  0  0  0  0 15  0  0  0  0  0  0
   32.8491    2.3847   -4.6345 C   0  0  0  0  0 15  0  0  0  0  0  0
   30.1771    2.2372   -5.4237 C   0  0  0  0  0 15  0  0  0  0  0  0
   32.5291    2.1169   -5.9613 C   0  0  0  0  0 15  0  0  0  0  0  0
   31.1931    2.0377   -6.3564 C   0  0  0  0  0 15  0  0  0  0  0  0
   30.4631    0.5597   -0.4856 H   0  0  0  0  0 15  0  0  0  0  0  0
   33.1101    0.8881   -1.6966 H   0  0  0  0  0 15  0  0  0  0  0  0
   31.4151    3.4939   -1.7729 H   0  0  0  0  0 15  0  0  0  0  0  0
   33.1121    3.3856   -2.1490 H   0  0  0  0  0 15  0  0  0  0  0  0
   29.7021    2.6421   -3.3748 H   0  0  0  0  0 15  0  0  0  0  0  0
   33.8861    2.4238   -4.3309 H   0  0  0  0  0 15  0  0  0  0  0  0
   29.1421    2.1608   -5.7194 H   0  0  0  0  0 15  0  0  0  0  0  0
   33.3161    1.9528   -6.6846 H   0  0  0  0  0 15  0  0  0  0  0  0
   30.9431    1.8161   -7.3819 H   0  0  0  0  0 15  0  0  0  0  0  0
   32.5182    1.2203    0.9973 N   0  0  0  0  0 15  0  0  0  0  0  0
   33.7672    1.0364    1.7304 C   0  0  0  0  0 15  0  0  0  0  0  0
   34.0802   -0.4295    1.9083 C   0  0  0  0  0 15  0  0  0  0  0  0
   35.2862   -0.7330    2.6142 O   0  0  0  0  0 15  0  0  0  0  0  0
   33.7422    1.8058    3.1132 C   0  0  0  0  0 15  0  0  0  0  0  0
   33.3502    3.3139    3.0147 C   0  0  0  0  0 15  0  0  0  0  0  0
   35.0942    1.7062    3.8870 C   0  0  0  0  0 15  0  0  0  0  0  0
   33.0012    4.0079    4.3488 C   0  0  0  0  0 15  0  0  0  0  0  0
   31.9312    0.3842    0.6488 H   0  0  0  0  0 15  0  0  0  0  0  0
   34.5822    1.4584    1.1137 H   0  0  0  0  0 15  0  0  0  0  0  0
   32.9642    1.3118    3.7364 H   0  0  0  0  0 15  0  0  0  0  0  0
   34.1382    3.8815    2.4834 H   0  0  0  0  0 15  0  0  0  0  0  0
   32.4532    3.4198    2.3757 H   0  0  0  0  0 15  0  0  0  0  0  0
   35.0502    2.1980    4.8743 H   0  0  0  0  0 15  0  0  0  0  0  0
   35.3932    0.6658    4.1094 H   0  0  0  0  0 15  0  0  0  0  0  0
   35.9262    2.1755    3.3304 H   0  0  0  0  0 15  0  0  0  0  0  0
   32.6652    5.0506    4.1784 H   0  0  0  0  0 15  0  0  0  0  0  0
   32.1852    3.4881    4.8795 H   0  0  0  0  0 15  0  0  0  0  0  0
   33.8642    4.0614    5.0365 H   0  0  0  0  0 15  0  0  0  0  0  0
   33.9963   -1.1934    1.0293 N   0  0  0  0  0 15  0  0  0  0  0  0
   34.9063   -2.2624    0.6205 C   0  0  0  0  0 15  0  0  0  0  0  0
   35.9223   -1.7049   -0.3479 C   0  0  0  0  0 15  0  0  0  0  0  0
   37.0983   -2.0035   -0.2057 O   0  0  0  0  0 15  0  0  0  0  0  0
   34.1633   -3.4669   -0.0219 C   0  0  0  0  0 15  0  0  0  0  0  0
   33.2243   -4.1763    0.9941 C   0  0  0  0  0 15  0  0  0  0  0  0
   32.4573   -5.3233    0.3823 C   0  0  0  0  0 15  0  0  0  0  0  0
   32.6803   -5.6455   -0.8147 O   0  0  0  0  0 15  0  0  0  0  0  0
   31.6143   -5.9166    1.1053 O   0  0  0  0  0 15  0  0  0  0  0  0
   35.4403   -2.6345    1.5108 H   0  0  0  0  0 15  0  0  0  0  0  0
   33.0253   -1.2621    0.7995 H   0  0  0  0  0 15  0  0  0  0  0  0
   34.9073   -4.1968   -0.3801 H   0  0  0  0  0 15  0  0  0  0  0  0
   33.5823   -3.1133   -0.8862 H   0  0  0  0  0 15  0  0  0  0  0  0
   32.4893   -3.4676    1.4039 H   0  0  0  0  0 15  0  0  0  0  0  0
   33.8223   -4.5696    1.8288 H   0  0  0  0  0 15  0  0  0  0  0  0
   35.4744   -0.8072   -1.3536 N   0  0  0  0  0 15  0  0  0  0  0  0
   36.7204   -0.3976   -1.9948 C   0  0  0  0  0 15  0  0  0  0  0  0
   37.0754    1.0241   -1.6288 C   0  0  0  0  0 15  0  0  0  0  0  0
   36.3684    1.7008   -0.8823 O   0  0  0  0  0 15  0  0  0  0  0  0
   36.5624   -0.5190   -3.5361 C   0  0  0  0  0 15  0  0  0  0  0  0
   36.3914   -1.9509   -4.0518 C   0  0  0  0  0 15  0  0  0  0  0  0
   35.1614   -2.5794   -4.3450 C   0  0  0  0  0 15  0  0  0  0  0  0
   37.3594   -2.9156   -4.2367 C   0  0  0  0  0 15  0  0  0  0  0  0
   35.3414   -3.9254   -4.7200 N   0  0  0  0  0 15  0  0  0  0  0  0
   36.7124   -4.1102   -4.6418 C   0  0  0  0  0 15  0  0  0  0  0  0
   38.7674   -2.8838   -4.0588 C   0  0  0  0  0 15  0  0  0  0  0  0
   37.4704   -5.2775   -4.8875 C   0  0  0  0  0 15  0  0  0  0  0  0
   39.4964   -4.0431   -4.3161 C   0  0  0  0  0 15  0  0  0  0  0  0
   38.8584   -5.2252   -4.7239 C   0  0  0  0  0 15  0  0  0  0  0  0
   34.9574   -0.1933   -0.7577 H   0  0  0  0  0 15  0  0  0  0  0  0
   37.5414   -1.0486   -1.6405 H   0  0  0  0  0 15  0  0  0  0  0  0
   35.7124    0.1020   -3.8827 H   0  0  0  0  0 15  0  0  0  0  0  0
   37.4444   -0.0839   -4.0461 H   0  0  0  0  0 15  0  0  0  0  0  0
   34.1994   -2.0929   -4.2484 H   0  0  0  0  0 15  0  0  0  0  0  0
   34.6234   -4.6184   -4.9501 H   0  0  0  0  0 15  0  0  0  0  0  0
   39.2654   -1.9814   -3.7350 H   0  0  0  0  0 15  0  0  0  0  0  0
   36.9834   -6.1856   -5.2001 H   0  0  0  0  0 15  0  0  0  0  0  0
   40.5694   -4.0323   -4.1940 H   0  0  0  0  0 15  0  0  0  0  0  0
   39.4494   -6.1073   -4.9191 H   0  0  0  0  0 15  0  0  0  0  0  0
   36.9525    1.4729   -0.5608 N   0  0  0  0  0 15  0  0  0  0  0  0
   37.8825    2.3286    0.1731 C   0  0  0  0  0 15  0  0  0  0  0  0
   38.8635    1.4401    0.9053 C   0  0  0  0  0 15  0  0  0  0  0  0
   40.0485    1.7286    0.8850 O   0  0  0  0  0 15  0  0  0  0  0  0
   37.1785    3.2586    1.2013 C   0  0  0  0  0 15  0  0  0  0  0  0
   36.1325    4.2398    0.5854 C   0  0  0  0  0 15  0  0  0  0  0  0
   35.4585    5.0633    1.7185 C   0  0  0  0  0 15  0  0  0  0  0  0
   36.7585    5.2024   -0.4632 C   0  0  0  0  0 15  0  0  0  0  0  0
   38.4525    2.9447   -0.5413 H   0  0  0  0  0 15  0  0  0  0  0  0
   35.9985    1.4160   -0.2618 H   0  0  0  0  0 15  0  0  0  0  0  0
   37.9515    3.8457    1.7229 H   0  0  0  0  0 15  0  0  0  0  0  0
   36.6755    2.6231    1.9457 H   0  0  0  0  0 15  0  0  0  0  0  0
   35.3345    3.6650    0.0851 H   0  0  0  0  0 15  0  0  0  0  0  0
   34.9825    4.3919    2.4520 H   0  0  0  0  0 15  0  0  0  0  0  0
   34.6825    5.7276    1.3121 H   0  0  0  0  0 15  0  0  0  0  0  0
   36.2065    5.6790    2.2433 H   0  0  0  0  0 15  0  0  0  0  0  0
   37.6205    5.7329   -0.0275 H   0  0  0  0  0 15  0  0  0  0  0  0
   36.0175    5.9490   -0.7886 H   0  0  0  0  0 15  0  0  0  0  0  0
   37.0875    4.6550   -1.3577 H   0  0  0  0  0 15  0  0  0  0  0  0
   38.4306    0.2974    1.5477 N   0  0  0  0  0 15  0  0  0  0  0  0
   39.3776   -0.5803    2.2339 C   0  0  0  0  0 15  0  0  0  0  0  0
   40.3476   -1.1324    1.2152 C   0  0  0  0  0 15  0  0  0  0  0  0
   41.5326   -1.1776    1.5013 O   0  0  0  0  0 15  0  0  0  0  0  0
   38.6726   -1.7480    2.9755 C   0  0  0  0  0 15  0  0  0  0  0  0
   37.7856   -1.2276    4.1419 C   0  0  0  0  0 15  0  0  0  0  0  0
   36.9206   -2.3589    4.7595 C   0  0  0  0  0 15  0  0  0  0  0  0
   35.9596   -1.8097    5.8473 C   0  0  0  0  0 15  0  0  0  0  0  0
   35.0966   -2.8766    6.4046 N   0  0  0  0  0 15  0  0  0  0  0  0
   39.9366    0.0115    2.9800 H   0  0  0  0  0 15  0  0  0  0  0  0
   37.4736    0.0174    1.4709 H   0  0  0  0  0 15  0  0  0  0  0  0
   39.4316   -2.4348    3.3879 H   0  0  0  0  0 15  0  0  0  0  0  0
   38.0616   -2.3115    2.2533 H   0  0  0  0  0 15  0  0  0  0  0  0
   37.1136   -0.4333    3.7792 H   0  0  0  0  0 15  0  0  0  0  0  0
   38.4256   -0.7856    4.9258 H   0  0  0  0  0 15  0  0  0  0  0  0
   37.5796   -3.1252    5.2001 H   0  0  0  0  0 15  0  0  0  0  0  0
   36.3186   -2.8343    3.9689 H   0  0  0  0  0 15  0  0  0  0  0  0
   35.3236   -1.0283    5.4010 H   0  0  0  0  0 15  0  0  0  0  0  0
   36.5486   -1.3435    6.6568 H   0  0  0  0  0 15  0  0  0  0  0  0
   34.4946   -3.3454    5.6429 H   0  0  0  0  0 15  0  0  0  0  0  0
   34.4116   -2.4794    7.1419 H   0  0  0  0  0 15  0  0  0  0  0  0
   35.6796   -3.6420    6.8919 H   0  0  0  0  0 15  0  0  0  0  0  0
   39.9087   -1.5758    0.0251 N   0  0  0  0  0 15  0  0  0  0  0  0
   40.8567   -2.1112   -0.9762 C   0  0  0  0  0 15  0  0  0  0  0  0
   41.8507   -1.0369   -1.3396 C   0  0  0  0  0 15  0  0  0  0  0  0
   43.0567   -1.2213   -1.3223 O   0  0  0  0  0 15  0  0  0  0  0  0
   39.4317   -0.6745   -0.3326 H   0  0  0  0  0 15  0  0  0  0  0  0
   41.4027   -2.9419   -0.4992 H   0  0  0  0  0 15  0  0  0  0  0  0
   40.1517   -2.6502   -2.2508 C   0  0  0  0  0 15  0  0  0  0  0  0
   39.4747   -3.4733   -1.9799 H   0  0  0  0  0 15  0  0  0  0  0  0
   40.9147   -3.0613   -2.9336 H   0  0  0  0  0 15  0  0  0  0  0  0
   39.3737   -1.5757   -2.9778 C   0  0  0  0  0 15  0  0  0  0  0  0
   39.9037   -0.9732   -3.8973 O   0  0  0  0  0 15  0  0  0  0  0  0
   38.1097   -1.2972   -2.6004 N   0  0  0  0  0 15  0  0  0  0  0  0
   37.6567   -1.7890   -1.8534 H   0  0  0  0  0 15  0  0  0  0  0  0
   37.6147   -0.5805   -3.0899 H   0  0  0  0  0 15  0  0  0  0  0  0
   41.3868    0.2480   -1.5564 N   0  0  0  0  0 15  0  0  0  0  0  0
   42.6348    0.9743   -1.7706 C   0  0  0  0  0 15  0  0  0  0  0  0
   42.9558    1.8590   -0.5888 C   0  0  0  0  0 15  0  0  0  0  0  0
   42.2258    1.9187    0.3954 O   0  0  0  0  0 15  0  0  0  0  0  0
   40.8058    0.3627   -0.6530 H   0  0  0  0  0 15  0  0  0  0  0  0
   43.4678    0.2662   -1.9307 H   0  0  0  0  0 15  0  0  0  0  0  0
   42.5638    1.5967   -2.6817 H   0  0  0  0  0 15  0  0  0  0  0  0
   42.8649    1.4899    0.5136 N   0  0  0  0  0 15  0  0  0  0  0  0
   44.1129    1.5753    1.2660 C   0  0  0  0  0 15  0  0  0  0  0  0
   44.4339    0.2582    1.9328 C   0  0  0  0  0 15  0  0  0  0  0  0
   43.7039   -0.7215    1.8213 O   0  0  0  0  0 15  0  0  0  0  0  0
   42.2839    0.5804    0.4703 H   0  0  0  0  0 15  0  0  0  0  0  0
   44.9459    1.8555    0.5964 H   0  0  0  0  0 15  0  0  0  0  0  0
   44.0419    2.3649    2.0367 H   0  0  0  0  0 15  0  0  0  0  0  0
   44.3430   -0.7638    1.3786 N   0  0  0  0  0 15  0  0  0  0  0  0
   45.7540   -1.3405    1.2995 C   0  0  0  0  0 15  0  0  0  0  0  0
   46.1050   -1.9614   -0.0493 C   0  0  0  0  0 15  0  0  0  0  0  0
   45.2300   -1.9437   -0.9512 O   0  0  0  0  0 15  0  0  0  0  0  0
   45.8250   -2.4373    2.3533 C   0  0  0  0  0 15  0  0  0  0  0  0
   44.3840   -2.9715    2.3104 C   0  0  0  0  0 15  0  0  0  0  0  0
   43.5310   -1.7044    2.1874 C   0  0  0  0  0 15  0  0  0  0  0  0
   46.4820   -0.5634    1.4836 H   0  0  0  0  0 15  0  0  0  0  0  0
   46.5030   -3.2341    2.0046 H   0  0  0  0  0 15  0  0  0  0  0  0
   46.0150   -1.9851    3.3349 H   0  0  0  0  0 15  0  0  0  0  0  0
   44.1160   -3.4672    1.3643 H   0  0  0  0  0 15  0  0  0  0  0  0
   44.2290   -3.5222    3.2477 H   0  0  0  0  0 15  0  0  0  0  0  0
   42.5930   -1.9367    1.6542 H   0  0  0  0  0 15  0  0  0  0  0  0
   43.3760   -1.2731    3.1882 H   0  0  0  0  0 15  0  0  0  0  0  0
   45.8211   -1.2256   -0.9908 N   0  0  0  0  0 15  0  0  0  0  0  0
   47.0461   -1.0786   -1.7715 C   0  0  0  0  0 15  0  0  0  0  0  0
   47.4711    0.3664   -1.8450 C   0  0  0  0  0 15  0  0  0  0  0  0
   46.8291    1.2648   -1.2990 O   0  0  0  0  0 15  0  0  0  0  0  0
   46.8771   -1.6969   -3.1818 C   0  0  0  0  0 15  0  0  0  0  0  0
   45.9811   -0.9519   -4.0126 O   0  0  0  0  0 15  0  0  0  0  0  0
   45.3221   -0.3787   -0.5454 H   0  0  0  0  0 15  0  0  0  0  0  0
   47.8521   -1.6240   -1.2445 H   0  0  0  0  0 15  0  0  0  0  0  0
   47.8621   -1.7450   -3.6880 H   0  0  0  0  0 15  0  0  0  0  0  0
   46.5371   -2.7484   -3.1215 H   0  0  0  0  0 15  0  0  0  0  0  0
   45.1141   -0.9800   -3.5979 H   0  0  0  0  0 15  0  0  0  0  0  0
   47.2992    1.1880   -1.0356 N   0  0  0  0  0 15  0  0  0  0  0  0
   48.5242    1.9314   -0.7558 C   0  0  0  0  0 15  0  0  0  0  0  0
   48.9492    1.7537    0.6802 C   0  0  0  0  0 15  0  0  0  0  0  0
   48.3072    1.0605    1.4705 O   0  0  0  0  0 15  0  0  0  0  0  0
   48.3552    3.4275   -1.1206 C   0  0  0  0  0 15  0  0  0  0  0  0
   47.4592    4.1168   -0.2431 O   0  0  0  0  0 15  0  0  0  0  0  0
   46.8002    0.6027   -0.2786 H   0  0  0  0  0 15  0  0  0  0  0  0
   49.3302    1.5068   -1.3841 H   0  0  0  0  0 15  0  0  0  0  0  0
   49.3402    3.9344   -1.0803 H   0  0  0  0  0 15  0  0  0  0  0  0
   48.0152    3.5500   -2.1667 H   0  0  0  0  0 15  0  0  0  0  0  0
   46.5922    3.7132   -0.3425 H   0  0  0  0  0 15  0  0  0  0  0  0
   48.7773    0.8144    1.3493 N   0  0  0  0  0 15  0  0  0  0  0  0
   50.0253    0.3976    1.9815 C   0  0  0  0  0 15  0  0  0  0  0  0
   50.3463   -1.0407    1.6491 C   0  0  0  0  0 15  0  0  0  0  0  0
   49.6163   -1.7212    0.9355 O   0  0  0  0  0 15  0  0  0  0  0  0
   48.1963    0.1440    0.7330 H   0  0  0  0  0 15  0  0  0  0  0  0
   50.8583    1.0420    1.6471 H   0  0  0  0  0 15  0  0  0  0  0  0
   49.9543    0.5097    3.0791 H   0  0  0  0  0 15  0  0  0  0  0  0
   50.2554   -1.4699    0.5686 N   0  0  0  0  0 15  0  0  0  0  0  0
   51.2184   -2.2862   -0.1624 C   0  0  0  0  0 15  0  0  0  0  0  0
   52.2184   -1.3760   -0.8321 C   0  0  0  0  0 15  0  0  0  0  0  0
   53.4084   -1.6011   -0.6862 O   0  0  0  0  0 15  0  0  0  0  0  0
   50.5404   -3.1760   -1.2388 C   0  0  0  0  0 15  0  0  0  0  0  0
   51.7334   -2.9472    0.5549 H   0  0  0  0  0 15  0  0  0  0  0  0
   49.2864   -1.5286    0.3260 H   0  0  0  0  0 15  0  0  0  0  0  0
   50.0214   -2.5621   -1.9881 H   0  0  0  0  0 15  0  0  0  0  0  0
   49.8064   -3.8460   -0.7632 H   0  0  0  0  0 15  0  0  0  0  0  0
   51.2964   -3.7908   -1.7519 H   0  0  0  0  0 15  0  0  0  0  0  0
   51.7335   -0.3056   -1.5461 N   0  0  0  0  0 15  0  0  0  0  0  0
   53.1445    0.1861   -1.8577 C   0  0  0  0  0 15  0  0  0  0  0  0
   53.4955    1.5306   -1.2275 C   0  0  0  0  0 15  0  0  0  0  0  0
   52.6205    2.0989   -0.5269 O   0  0  0  0  0 15  0  0  0  0  0  0
   53.2155    0.3444   -3.3704 C   0  0  0  0  0 15  0  0  0  0  0  0
   51.7745    0.7804   -3.6822 C   0  0  0  0  0 15  0  0  0  0  0  0
   50.9215   -0.1086   -2.7709 C   0  0  0  0  0 15  0  0  0  0  0  0
   53.8725   -0.5265   -1.4971 H   0  0  0  0  0 15  0  0  0  0  0  0
   53.8935    1.1783   -3.6180 H   0  0  0  0  0 15  0  0  0  0  0  0
   53.4055   -0.6342   -3.8288 H   0  0  0  0  0 15  0  0  0  0  0  0
   51.5065    1.7695   -3.2790 H   0  0  0  0  0 15  0  0  0  0  0  0
   51.6195    0.5966   -4.7537 H   0  0  0  0  0 15  0  0  0  0  0  0
   49.9835    0.4129   -2.5133 H   0  0  0  0  0 15  0  0  0  0  0  0
   50.7665   -1.0837   -3.2575 H   0  0  0  0  0 15  0  0  0  0  0  0
   53.2116    1.5756   -0.0334 N   0  0  0  0  0 15  0  0  0  0  0  0
   54.6226    1.7975    0.5048 C   0  0  0  0  0 15  0  0  0  0  0  0
   54.9736    0.9441    1.7199 C   0  0  0  0  0 15  0  0  0  0  0  0
   54.0986    0.1557    2.1584 O   0  0  0  0  0 15  0  0  0  0  0  0
   54.6936    3.2600    0.9226 C   0  0  0  0  0 15  0  0  0  0  0  0
   53.2526    3.4916    1.4059 C   0  0  0  0  0 15  0  0  0  0  0  0
   52.3996    2.7478    0.3726 C   0  0  0  0  0 15  0  0  0  0  0  0
   55.3506    1.5657   -0.2594 H   0  0  0  0  0 15  0  0  0  0  0  0
   55.3716    3.3594    1.7867 H   0  0  0  0  0 15  0  0  0  0  0  0
   54.8836    3.8808    0.0380 H   0  0  0  0  0 15  0  0  0  0  0  0
   52.9846    2.9233    2.3102 H   0  0  0  0  0 15  0  0  0  0  0  0
   53.0976    4.5787    1.4103 H   0  0  0  0  0 15  0  0  0  0  0  0
   51.4616    2.4039    0.8417 H   0  0  0  0  0 15  0  0  0  0  0  0
   52.2446    3.3959   -0.5036 H   0  0  0  0  0 15  0  0  0  0  0  0
   54.6897   -0.2398    1.5577 N   0  0  0  0  0 15  0  0  0  0  0  0
   56.1007   -0.8083    1.6830 C   0  0  0  0  0 15  0  0  0  0  0  0
   56.4517   -1.8574    0.6322 C   0  0  0  0  0 15  0  0  0  0  0  0
   55.5767   -2.1528   -0.2202 O   0  0  0  0  0 15  0  0  0  0  0  0
   56.1717   -1.4728    3.0511 C   0  0  0  0  0 15  0  0  0  0  0  0
   54.7307   -1.9889    3.1956 C   0  0  0  0  0 15  0  0  0  0  0  0
   53.8777   -0.8426    2.6419 C   0  0  0  0  0 15  0  0  0  0  0  0
   56.8287   -0.0154    1.5869 H   0  0  0  0  0 15  0  0  0  0  0  0
   56.8497   -2.3411    2.9995 H   0  0  0  0  0 15  0  0  0  0  0  0
   56.3617   -0.7091    3.8157 H   0  0  0  0  0 15  0  0  0  0  0  0
   54.4627   -2.7813    2.4794 H   0  0  0  0  0 15  0  0  0  0  0  0
   54.5757   -2.1814    4.2656 H   0  0  0  0  0 15  0  0  0  0  0  0
   52.9397   -1.2450    2.2220 H   0  0  0  0  0 15  0  0  0  0  0  0
   53.7227   -0.0918    3.4318 H   0  0  0  0  0 15  0  0  0  0  0  0
   56.1678   -1.4927   -0.5057 N   0  0  0  0  0 15  0  0  0  0  0  0
   57.3928   -1.6248   -1.2890 C   0  0  0  0  0 15  0  0  0  0  0  0
   57.8178   -0.2943   -1.8578 C   0  0  0  0  0 15  0  0  0  0  0  0
   57.1758    0.7374   -1.6563 O   0  0  0  0  0 15  0  0  0  0  0  0
   57.2238   -2.6927   -2.3985 C   0  0  0  0  0 15  0  0  0  0  0  0
   56.3278   -2.2811   -3.4357 O   0  0  0  0  0 15  0  0  0  0  0  0
   55.6688   -0.5440   -0.3808 H   0  0  0  0  0 15  0  0  0  0  0  0
   58.1988   -1.9542   -0.6060 H   0  0  0  0  0 15  0  0  0  0  0  0
   58.2088   -2.9129   -2.8568 H   0  0  0  0  0 15  0  0  0  0  0  0
   56.8838   -3.6585   -1.9781 H   0  0  0  0  0 15  0  0  0  0  0  0
   55.4608   -2.1640   -3.0369 H   0  0  0  0  0 15  0  0  0  0  0  0
   57.6848    0.6510   -1.4780 O   0  0  0  0  0 15  0  0  0  0  0  0
   58.3758    1.3045   -1.4319 H   0  0  0  0  0 15  0  0  0  0  0  0
M  END
$$$$
