drugbank_drug|DB01272 Alglucosidase alfa
 OpenBabel12092119133D

  0  0  0     0  0            999 V3000
M  V30 BEGIN CTAB
M  V30 COUNTS 13635 13848 0 0 0
M  V30 BEGIN ATOM
M  V30 1 H -0.908 1.98254 -0.117106 0
M  V30 2 N 0 1.576 0 0
M  V30 3 C 0.963 2.07369 0.976253 0
M  V30 4 C 1.963 0.98309 1.27248 0
M  V30 5 O 3.153 1.24574 1.21766 0
M  V30 6 C 0.285 2.51514 2.30116 0
M  V30 7 H 1.478 2.94892 0.545759 0
M  V30 8 H -0.969 1.54328 0.247471 0
M  V30 9 H -0.234 1.67234 2.77855 0
M  V30 10 H -0.449 3.31163 2.09937 0
M  V30 11 H 1.041 2.90345 3.00149 0
M  V30 12 N 1.4781 -0.272755 1.55222 0
M  V30 13 C 2.4281 -1.33946 1.84506 0
M  V30 14 C 3.4121 -1.44682 0.70399 0
M  V30 15 O 4.6041 -1.48358 0.965338 0
M  V30 16 C 1.7331 -2.69968 2.12067 0
M  V30 17 C 0.8191 -2.63341 3.32434 0
M  V30 18 N 1.2101 -2.26335 4.52334 0
M  V30 19 C -0.4919 -2.94402 3.35028 0
M  V30 20 C 0.2091 -2.29705 5.34425 0
M  V30 21 N -0.8149 -2.68188 4.72838 0
M  V30 22 H 2.9871 -1.04343 2.74754 0
M  V30 23 H 0.5011 -0.481389 1.55101 0
M  V30 24 H 2.4981 -3.46916 2.31202 0
M  V30 25 H 1.1581 -3.00459 1.23103 0
M  V30 26 H 2.1691 -1.98309 4.78429 0
M  V30 27 H -1.1539 -3.29603 2.56257 0
M  V30 28 H 0.2361 -2.03653 6.40293 0
M  V30 29 N 2.9562 -1.48159 -0.537278 0
M  V30 30 C 4.3672 -1.49429 -1.11928 0
M  V30 31 C 4.7182 -0.26 -1.9447 0
M  V30 32 O 3.8432 0.633489 -2.0692 0
M  V30 33 C 4.4382 -2.70758 -2.03656 0
M  V30 34 C 2.9972 -2.74923 -2.57088 0
M  V30 35 C 2.1442 -2.42835 -1.3389 0
M  V30 36 H 5.0952 -1.55381 -0.322886 0
M  V30 37 H 5.1162 -2.48861 -2.87834 0
M  V30 38 H 4.6282 -3.60575 -1.43553 0
M  V30 39 H 2.7292 -1.89296 -3.20933 0
M  V30 40 H 2.8422 -3.76157 -2.9672 0
M  V30 41 H 1.2062 -1.93836 -1.65226 0
M  V30 42 H 1.9892 -3.34884 -0.755504 0
M  V30 43 N 4.4343 0.785586 -1.36625 0
M  V30 44 C 5.6823 1.54057 -1.30808 0
M  V30 45 C 6.0033 1.94683 0.111157 0
M  V30 46 O 5.2733 1.65241 1.05224 0
M  V30 47 H 3.8533 0.571354 -0.481211 0
M  V30 48 H 6.5153 0.935821 -1.70963 0
M  V30 49 H 5.6113 2.44637 -1.93801 0
M  V30 50 N 5.9124 1.20967 1.01018 0
M  V30 51 C 7.3284 0.965905 1.27053 0
M  V30 52 C 7.5284 -0.350785 1.98423 0
M  V30 53 O 6.5844 -1.07773 2.28344 0
M  V30 54 C 7.8974 2.15294 2.09926 0
M  V30 55 C 9.4454 2.19463 2.23171 0
M  V30 56 C 9.9204 3.3767 3.09424 0
M  V30 57 N 11.4114 3.37724 3.17012 0
M  V30 58 C 12.1464 4.25837 3.83993 0
M  V30 59 N 11.6424 5.24138 4.53047 0
M  V30 60 N 13.4354 4.1366 3.80581 0
M  V30 61 H 5.5864 2.0565 0.531194 0
M  V30 62 H 7.8494 0.90024 0.297106 0
M  V30 63 H 7.5554 3.10684 1.64828 0
M  V30 64 H 7.4294 2.13923 3.10672 0
M  V30 65 H 9.8164 1.24632 2.6749 0
M  V30 66 H 9.8974 2.2488 1.21912 0
M  V30 67 H 9.5414 4.32791 2.65808 0
M  V30 68 H 9.4714 3.29491 4.10784 0
M  V30 69 H 11.9624 2.6658 2.6785 0
M  V30 70 H 12.2754 5.87684 5.01844 0
M  V30 71 H 10.6204 5.28068 4.5185 0
M  V30 72 H 13.8114 3.36127 3.25785 0
M  V30 73 H 13.9844 4.82538 4.32505 0
M  V30 74 N 7.3905 -1.2043 1.01659 0
M  V30 75 C 8.8015 -1.71517 0.737482 0
M  V30 76 C 9.1525 -1.81547 -0.743973 0
M  V30 77 O 8.2775 -1.47803 -1.58061 0
M  V30 78 C 8.8725 -3.11515 1.33206 0
M  V30 79 C 7.4315 -3.59912 1.10183 0
M  V30 80 C 6.5785 -2.37116 1.43776 0
M  V30 81 H 9.5295 -1.05444 1.18606 0
M  V30 82 H 9.5505 -3.73575 0.722636 0
M  V30 83 H 9.0625 -3.04182 2.41028 0
M  V30 84 H 7.1635 -3.72577 0.0412756 0
M  V30 85 H 7.2765 -4.44731 1.78188 0
M  V30 86 H 5.6405 -2.39857 0.856778 0
M  V30 87 H 6.4235 -2.32424 2.52654 0
M  V30 88 N 8.8686 -0.792821 -1.36206 0
M  V30 89 C 10.2846 -0.474903 -1.52371 0
M  V30 90 C 10.4846 1.00622 -1.74578 0
M  V30 91 O 9.5406 1.79162 -1.77924 0
M  V30 92 C 10.8536 -1.3083 -2.70747 0
M  V30 93 C 12.4016 -1.30234 -2.84619 0
M  V30 94 C 12.8766 -2.11956 -4.06004 0
M  V30 95 N 14.3676 -2.09419 -4.13156 0
M  V30 96 C 15.1026 -2.69419 -5.06163 0
M  V30 97 N 14.5986 -3.3829 -6.04592 0
M  V30 98 N 16.3916 -2.59134 -4.98804 0
M  V30 99 H 8.5426 -1.75222 -1.20046 0
M  V30 100 H 10.8056 -0.745024 -0.586211 0
M  V30 101 H 10.5116 -2.35881 -2.6087 0
M  V30 102 H 10.3856 -0.95196 -3.6499 0
M  V30 103 H 12.7726 -0.259748 -2.93955 0
M  V30 104 H 12.8536 -1.69847 -1.91274 0
M  V30 105 H 12.4976 -3.16248 -3.97429 0
M  V30 106 H 12.4276 -1.69711 -4.98503 0
M  V30 107 H 14.9186 -1.59297 -3.42685 0
M  V30 108 H 15.2316 -3.81394 -6.7213 0
M  V30 109 H 13.5766 -3.42393 -6.04807 0
M  V30 110 H 16.7676 -2.04927 -4.20859 0
M  V30 111 H 16.9406 -3.06185 -5.711 0
M  V30 112 N 10.3467 1.47872 -0.545128 0
M  V30 113 C 11.3097 2.28337 0.198717 0
M  V30 114 C 12.3097 1.36255 0.853888 0
M  V30 115 O 13.4997 1.59003 0.711606 0
M  V30 116 C 10.6317 3.15585 1.28915 0
M  V30 117 H 11.8247 2.95567 -0.507941 0
M  V30 118 H 9.3777 1.53362 -0.301616 0
M  V30 119 H 10.1127 2.53019 2.02859 0
M  V30 120 H 9.8977 3.83337 0.824309 0
M  V30 121 H 11.3877 3.76243 1.81194 0
M  V30 122 N 11.8248 0.280983 1.55075 0
M  V30 123 C 13.0708 -0.33461 2.00021 0
M  V30 124 C 13.4038 -1.55063 1.16915 0
M  V30 125 O 12.6788 -1.93006 0.240646 0
M  V30 126 C 12.9618 -0.711007 3.53011 0
M  V30 127 C 12.8148 0.512766 4.46868 0
M  V30 128 C 14.1338 -1.54522 4.12081 0
M  V30 129 H 11.2528 -0.120147 0.727141 0
M  V30 130 H 13.8948 0.389097 1.85973 0
M  V30 131 H 12.0448 -1.32761 3.65112 0
M  V30 132 H 13.7168 1.15131 4.46702 0
M  V30 133 H 11.9598 1.14975 4.18286 0
M  V30 134 H 12.6308 0.205556 5.51617 0
M  V30 135 H 15.1068 -1.02442 4.03293 0
M  V30 136 H 13.9828 -1.77739 5.19327 0
M  V30 137 H 14.2438 -2.52813 3.62682 0
M  V30 138 N 13.3029 -1.57598 0.00835791 0
M  V30 139 C 14.7139 -1.7892 -0.53333 0
M  V30 140 C 15.0649 -0.916609 -1.73473 0
M  V30 141 O 14.1899 -0.121336 -2.1606 0
M  V30 142 C 14.7849 -3.24488 -0.974313 0
M  V30 143 C 13.3439 -3.46878 -1.46125 0
M  V30 144 C 12.4909 -2.74157 -0.416302 0
M  V30 145 H 15.4419 -1.56958 0.234495 0
M  V30 146 H 15.4629 -3.3306 -1.83988 0
M  V30 147 H 14.9749 -3.87972 -0.099718 0
M  V30 148 H 13.0759 -2.8862 -2.35646 0
M  V30 149 H 13.1889 -4.55572 -1.48295 0
M  V30 150 H 11.5529 -2.39022 -0.87981 0
M  V30 151 H 12.3359 -3.40345 0.44947 0
M  V30 152 N 14.781 0.264519 -1.55364 0
M  V30 153 C 16.009 1.013 -1.80405 0
M  V30 154 C 16.424 1.79618 -0.581622 0
M  V30 155 O 15.781 1.76879 0.449468 0
M  V30 156 C 15.832 1.96487 -3.03439 0
M  V30 157 O 15.553 1.21341 -4.20961 0
M  V30 158 C 17.054 2.83079 -3.41147 0
M  V30 159 H 14.274 0.298875 -0.600762 0
M  V30 160 H 16.818 0.292736 -2.02394 0
M  V30 161 H 14.973 2.63965 -2.83551 0
M  V30 162 H 15.387 1.85573 -4.90574 0
M  V30 163 H 16.861 3.4565 -4.30384 0
M  V30 164 H 17.338 3.53286 -2.60932 0
M  V30 165 H 17.944 2.2108 -3.63323 0
M  V30 166 N 16.2591 1.48442 0.529413 0
M  V30 167 C 17.1911 1.59095 1.64989 0
M  V30 168 C 18.2041 0.475212 1.5571 0
M  V30 169 O 19.3931 0.746081 1.6216 0
M  V30 170 C 16.4931 1.50518 3.0364 0
M  V30 171 C 15.6661 2.77142 3.38395 0
M  V30 172 C 14.7251 2.62012 4.56329 0
M  V30 173 O 13.7511 3.35898 4.59522 0
M  V30 174 N 14.9531 1.71667 5.54536 0
M  V30 175 H 17.7181 2.55723 1.56287 0
M  V30 176 H 15.2791 1.45173 0.716697 0
M  V30 177 H 17.2711 1.38091 3.80412 0
M  V30 178 H 15.8411 0.618627 3.06418 0
M  V30 179 H 15.0611 3.0413 2.50796 0
M  V30 180 H 16.3491 3.61146 3.58401 0
M  V30 181 H 15.7471 1.10841 5.54735 0
M  V30 182 H 14.3041 1.65178 6.30523 0
M  V30 183 N 17.7372 -0.778329 1.37039 0
M  V30 184 C 18.9772 -1.54973 1.33276 0
M  V30 185 C 19.3412 -1.91816 -0.0839376 0
M  V30 186 O 20.5422 -2.6767 -0.246228 0
M  V30 187 C 18.8132 -2.78517 2.23971 0
M  V30 188 S 20.3722 -3.6865 2.37997 0
M  V30 189 H 17.1902 -0.530639 0.473226 0
M  V30 190 H 19.7922 -0.915806 1.72723 0
M  V30 191 H 18.4962 -2.4952 3.25835 0
M  V30 192 H 18.0272 -3.46875 1.85584 0
M  V30 193 H 20.0422 -4.70182 1.58567 0
M  V30 194 N 19.2153 -1.21501 -1.00376 0
M  V30 195 C 20.4923 -0.941745 -1.71437 0
M  V30 196 C 20.8723 0.546114 -2.03914 0
M  V30 197 O 20.2203 1.51128 -1.71384 0
M  V30 198 C 20.4303 -1.82812 -2.97289 0
M  V30 199 C 21.7783 -2.07771 -3.70292 0
M  V30 200 O 22.8023 -1.80171 -3.07273 0
M  V30 201 O 21.6613 -2.54456 -4.83647 0
M  V30 202 H 18.7553 -0.353243 -0.747762 0
M  V30 203 H 21.3013 -1.32436 -1.06108 0
M  V30 204 H 20.0733 -2.83501 -2.69709 0
M  V30 205 H 19.6963 -1.4464 -3.70358 0
M  V30 206 N 20.6934 1.19889 -1.02296 0
M  V30 207 C 21.9394 1.89701 -0.717033 0
M  V30 208 C 22.2724 1.7905 0.751989 0
M  V30 209 O 21.5474 1.17891 1.547 0
M  V30 210 C 21.8304 3.40858 -1.16136 0
M  V30 211 C 21.6834 3.60411 -2.69117 0
M  V30 212 C 23.0024 4.33876 -0.737549 0
M  V30 213 H 20.1214 0.688874 -0.261957 0
M  V30 214 H 22.7634 1.41154 -1.27183 0
M  V30 215 H 20.9134 3.82335 -0.689342 0
M  V30 216 H 22.5854 3.28145 -3.2422 0
M  V30 217 H 20.8284 3.03665 -3.0979 0
M  V30 218 H 21.4994 4.66396 -2.95261 0
M  V30 219 H 23.9754 4.00081 -1.14344 0
M  V30 220 H 22.8514 5.38242 -1.0764 0
M  V30 221 H 23.1124 4.40628 0.360436 0
M  V30 222 N 22.1715 0.800033 1.35784 0
M  V30 223 C 23.5825 0.439142 1.81462 0
M  V30 224 C 23.9335 -1.03813 1.66485 0
M  V30 225 O 23.0585 -1.80626 1.19177 0
M  V30 226 C 23.6535 0.790314 3.29453 0
M  V30 227 C 22.2125 0.482111 3.733 0
M  V30 228 C 21.3595 1.01938 2.57883 0
M  V30 229 H 24.3105 0.992254 1.23855 0
M  V30 230 H 24.3315 0.0853677 3.80404 0
M  V30 231 H 23.8435 1.86554 3.40322 0
M  V30 232 H 21.9445 -0.584652 3.67984 0
M  V30 233 H 22.0575 1.01015 4.6833 0
M  V30 234 H 20.4215 0.442043 2.50835 0
M  V30 235 H 21.2045 2.10059 2.71533 0
M  V30 236 N 23.6496 -1.47581 0.552962 0
M  V30 237 C 25.0606 -1.86324 0.118463 0
M  V30 238 C 25.4116 -1.46006 -1.3106 0
M  V30 239 O 24.5366 -0.861182 -1.98526 0
M  V30 240 C 25.1316 -3.3816 0.20821 0
M  V30 241 C 23.6906 -3.7601 -0.171226 0
M  V30 242 C 22.8376 -2.71634 0.557686 0
M  V30 243 H 25.7886 -1.39159 0.762928 0
M  V30 244 H 25.8096 -3.76141 -0.574278 0
M  V30 245 H 25.3216 -3.67473 1.24841 0
M  V30 246 H 23.4226 -3.52313 -1.21269 0
M  V30 247 H 23.5356 -4.78745 0.184379 0
M  V30 248 H 21.8996 -2.547 0.00125792 0
M  V30 249 H 22.6826 -3.0379 1.59896 0
M  V30 250 N 25.1277 -0.289203 -1.54924 0
M  V30 251 C 26.0757 0.607966 -2.24514 0
M  V30 252 C 27.0697 1.14655 -1.24702 0
M  V30 253 O 28.2757 1.09856 -1.4259 0
M  V30 254 H 24.6507 0.21464 -0.720718 0
M  V30 255 H 26.6217 -0.00164182 -2.984 0
M  V30 256 C 25.3707 1.77406 -2.99036 0
M  V30 257 H 24.6937 1.36884 -3.75637 0
M  V30 258 H 26.1337 2.37814 -3.51028 0
M  V30 259 C 24.5927 2.67107 -2.05318 0
M  V30 260 O 25.1227 3.6787 -1.61353 0
M  V30 261 N 23.3287 2.34582 -1.71521 0
M  V30 262 H 22.8757 1.52688 -2.07471 0
M  V30 263 H 22.8337 2.94867 -1.0909 0
M  V30 264 N 26.6058 1.57591 -0.0167156 0
M  V30 265 C 27.8308 1.9598 0.67872 0
M  V30 266 C 28.2558 0.892546 1.65575 0
M  V30 267 O 27.6138 -0.147772 1.80697 0
M  V30 268 C 27.6618 3.33468 1.37227 0
M  V30 269 O 26.7658 3.28954 2.48722 0
M  V30 270 H 26.1068 0.639339 0.17928 0
M  V30 271 H 28.6368 2.04463 -0.0748802 0
M  V30 272 H 28.6468 3.69417 1.7319 0
M  V30 273 H 27.3218 4.10694 0.656007 0
M  V30 274 H 25.8988 3.04705 2.14963 0
M  V30 275 N 28.0839 -0.256276 1.55502 0
M  V30 276 C 29.4999 -0.604325 1.47716 0
M  V30 277 C 29.6999 -1.88763 0.705039 0
M  V30 278 O 28.7559 -2.51445 0.230613 0
M  V30 279 C 30.0689 -0.715756 2.92057 0
M  V30 280 C 31.6169 -0.808706 3.02372 0
M  V30 281 C 32.0919 -0.951777 4.48001 0
M  V30 282 N 33.5829 -1.01688 4.519 0
M  V30 283 C 34.3179 -1.14668 5.61817 0
M  V30 284 N 33.8139 -1.24261 6.81565 0
M  V30 285 N 35.6069 -1.1791 5.49594 0
M  V30 286 H 27.7579 0.586291 2.04148 0
M  V30 287 H 30.0209 0.201015 0.926443 0
M  V30 288 H 29.7269 0.157027 3.51349 0
M  V30 289 H 29.6009 -1.59071 3.42018 0
M  V30 290 H 31.9879 -1.67195 2.43166 0
M  V30 291 H 32.0689 0.0912063 2.55637 0
M  V30 292 H 31.7129 -0.0931291 5.07815 0
M  V30 293 H 31.6429 -1.86659 4.92408 0
M  V30 294 H 34.1339 -0.954468 3.65648 0
M  V30 295 H 34.4469 -1.34046 7.61086 0
M  V30 296 H 32.7919 -1.21236 6.84344 0
M  V30 297 H 35.9829 -1.10057 4.54978 0
M  V30 298 H 36.1559 -1.27681 6.35296 0
M  V30 299 N 29.562 -1.4872 -0.521534 0
M  V30 300 C 30.809 -1.57168 -1.27689 0
M  V30 301 C 31.137 -0.249275 -1.92896 0
M  V30 302 O 30.392 0.761162 -1.80291 0
M  V30 303 C 30.691 -2.66497 -2.38148 0
M  V30 304 C 30.357 -4.08664 -1.90538 0
M  V30 305 C 29.019 -4.47357 -1.77271 0
M  V30 306 C 31.371 -4.97724 -1.54663 0
M  V30 307 C 28.699 -5.72905 -1.26478 0
M  V30 308 C 31.051 -6.2377 -1.05329 0
M  V30 309 C 29.715 -6.61311 -0.906861 0
M  V30 310 H 28.985 -0.575117 -0.467249 0
M  V30 311 H 31.632 -1.82472 -0.581051 0
M  V30 312 H 29.937 -2.35085 -3.13437 0
M  V30 313 H 31.634 -2.70246 -2.96257 0
M  V30 314 H 28.224 -3.78111 -2.01816 0
M  V30 315 H 32.408 -4.68501 -1.63768 0
M  V30 316 H 27.664 -6.00709 -1.13835 0
M  V30 317 H 31.838 -6.9217 -0.76644 0
M  V30 318 H 29.465 -7.5848 -0.511083 0
M  V30 319 N 31.0401 0.771051 -1.3745 0
M  V30 320 C 32.3171 1.519 -1.23231 0
M  V30 321 C 32.6971 2.10383 0.173809 0
M  V30 322 O 32.0451 1.95583 1.18151 0
M  V30 323 C 32.2551 2.59933 -2.32886 0
M  V30 324 C 33.6031 3.27316 -2.70461 0
M  V30 325 O 34.6271 2.70228 -2.32068 0
M  V30 326 O 33.4861 4.30531 -3.36608 0
M  V30 327 H 30.5801 0.672803 -0.480901 0
M  V30 328 H 33.1261 0.807957 -1.49232 0
M  V30 329 H 31.8981 2.14842 -3.27045 0
M  V30 330 H 31.5211 3.38637 -2.08353 0
M  V30 331 N 32.5182 1.22032 0.997298 0
M  V30 332 C 33.7582 1.05375 1.75144 0
M  V30 333 C 34.1222 -0.404696 1.87686 0
M  V30 334 O 35.3232 -0.691998 2.5974 0
M  V30 335 C 33.5942 1.74046 3.12158 0
M  V30 336 S 35.1532 1.72745 4.03366 0
M  V30 337 H 31.9712 0.377449 0.602539 0
M  V30 338 H 34.5732 1.54902 1.19272 0
M  V30 339 H 33.2772 2.79332 3.00669 0
M  V30 340 H 32.8082 1.24731 3.73103 0
M  V30 341 H 34.8232 0.774015 4.90126 0
M  V30 342 N 33.9963 -1.19345 1.0293 0
M  V30 343 C 34.9593 -2.20793 0.615069 0
M  V30 344 C 35.9593 -1.57553 -0.321533 0
M  V30 345 O 37.1493 -1.73862 -0.108483 0
M  V30 346 C 34.2813 -3.40754 -0.0999222 0
M  V30 347 H 35.4743 -2.58955 1.51269 0
M  V30 348 H 33.0273 -1.3303 0.820534 0
M  V30 349 H 33.7623 -3.0811 -1.01187 0
M  V30 350 H 33.5473 -3.87889 0.57309 0
M  V30 351 H 35.0373 -4.15898 -0.376645 0
M  V30 352 N 35.4744 -0.807222 -1.35358 0
M  V30 353 C 36.8854 -0.44876 -1.81226 0
M  V30 354 C 37.2364 1.02929 -1.67033 0
M  V30 355 O 36.3614 1.79991 -1.20133 0
M  V30 356 C 36.9564 -0.807774 -3.2903 0
M  V30 357 C 35.5154 -0.501901 -3.73039 0
M  V30 358 C 34.6624 -1.03304 -2.57339 0
M  V30 359 H 37.6134 -0.998808 -1.23327 0
M  V30 360 H 37.6344 -0.10554 -3.80354 0
M  V30 361 H 37.1464 -1.88357 -3.39328 0
M  V30 362 H 35.2474 0.565128 -3.68289 0
M  V30 363 H 35.3604 -1.03497 -4.67787 0
M  V30 364 H 33.7244 -0.455339 -2.50597 0
M  V30 365 H 34.5074 -2.11496 -2.70415 0
M  V30 366 N 36.9525 1.47285 -0.560781 0
M  V30 367 C 38.2295 1.9558 0.0277798 0
M  V30 368 C 38.6095 1.5034 1.48192 0
M  V30 369 O 37.9575 0.743882 2.16052 0
M  V30 370 C 38.1675 3.48789 -0.121418 0
M  V30 371 C 39.5155 4.24594 0.0220912 0
M  V30 372 O 40.5395 3.56166 -0.0491439 0
M  V30 373 O 39.3985 5.46217 0.175958 0
M  V30 374 H 36.4925 0.824663 0.0621342 0
M  V30 375 H 39.0385 1.5767 -0.627556 0
M  V30 376 H 37.8105 3.74533 -1.13316 0
M  V30 377 H 37.4335 3.93473 0.571366 0
M  V30 378 N 38.4306 0.297415 1.54768 0
M  V30 379 C 39.3776 -0.580276 2.23386 0
M  V30 380 C 40.3476 -1.13238 1.21517 0
M  V30 381 O 41.5326 -1.17757 1.50126 0
M  V30 382 C 38.6726 -1.74801 2.97555 0
M  V30 383 C 37.7856 -1.22764 4.1419 0
M  V30 384 C 36.9206 -2.35895 4.75949 0
M  V30 385 C 35.9596 -1.80974 5.84735 0
M  V30 386 N 35.0966 -2.87664 6.40464 0
M  V30 387 H 39.9366 0.0114833 2.97998 0
M  V30 388 H 37.4736 0.0174361 1.4709 0
M  V30 389 H 39.4316 -2.43475 3.38786 0
M  V30 390 H 38.0616 -2.31145 2.25326 0
M  V30 391 H 37.1136 -0.433271 3.77924 0
M  V30 392 H 38.4256 -0.785551 4.92575 0
M  V30 393 H 37.5796 -3.12523 5.20014 0
M  V30 394 H 36.3186 -2.83429 3.96887 0
M  V30 395 H 35.3236 -1.02834 5.40097 0
M  V30 396 H 36.5486 -1.34348 6.65678 0
M  V30 397 H 34.4946 -3.34538 5.64287 0
M  V30 398 H 34.4116 -2.4794 7.14186 0
M  V30 399 H 35.6796 -3.642 6.89187 0
M  V30 400 N 39.9087 -1.5758 0.0250728 0
M  V30 401 C 40.8717 -2.08896 -0.943139 0
M  V30 402 C 41.8717 -1.00321 -1.25668 0
M  V30 403 O 43.0617 -1.26495 -1.19769 0
M  V30 404 C 40.1937 -2.55143 -2.26086 0
M  V30 405 H 41.3867 -2.95723 -0.498775 0
M  V30 406 H 38.9397 -1.54703 -0.222888 0
M  V30 407 H 39.6747 -1.71633 -2.75159 0
M  V30 408 H 39.4597 -3.34461 -2.04641 0
M  V30 409 H 40.9497 -2.95083 -2.95492 0
M  V30 410 N 41.3868 0.248026 -1.55636 0
M  V30 411 C 42.6358 0.974134 -1.76617 0
M  V30 412 C 42.9488 1.86528 -0.588796 0
M  V30 413 O 44.1548 2.62805 -0.681594 0
M  V30 414 C 42.6108 1.78213 -3.12679 0
M  V30 415 C 42.2188 0.93843 -4.38061 0
M  V30 416 C 43.9628 2.50104 -3.42999 0
M  V30 417 C 41.8698 1.74225 -5.65155 0
M  V30 418 H 40.7998 0.36745 -0.658405 0
M  V30 419 H 43.4508 0.22884 -1.82067 0
M  V30 420 H 41.8328 2.56933 -3.01333 0
M  V30 421 H 43.0068 0.193635 -4.60393 0
M  V30 422 H 41.3218 0.332905 -4.15067 0
M  V30 423 H 43.9188 3.10694 -4.3517 0
M  V30 424 H 44.2618 3.21662 -2.64271 0
M  V30 425 H 44.7948 1.78395 -3.55556 0
M  V30 426 H 41.5338 1.07043 -6.46701 0
M  V30 427 H 41.0538 2.46235 -5.46926 0
M  V30 428 H 42.7328 2.30967 -6.0437 0
M  V30 429 N 42.8649 1.48995 0.513639 0
M  V30 430 C 44.0929 1.61531 1.29288 0
M  V30 431 C 44.5079 0.281801 1.86685 0
M  V30 432 O 43.8649 -0.731111 1.67215 0
M  V30 433 C 43.9159 2.67449 2.43215 0
M  V30 434 O 43.6369 3.95626 1.88179 0
M  V30 435 C 45.1379 2.90575 3.34785 0
M  V30 436 H 42.3579 0.544165 0.392588 0
M  V30 437 H 44.9019 1.9494 0.617956 0
M  V30 438 H 43.0569 2.36853 3.0656 0
M  V30 439 H 43.4709 4.53868 2.62876 0
M  V30 440 H 44.9449 3.68449 4.11035 0
M  V30 441 H 45.4219 2.00011 3.91015 0
M  V30 442 H 46.0279 3.22538 2.77218 0
M  V30 443 N 44.343 -0.763751 1.37857 0
M  V30 444 C 45.275 -1.88664 1.30148 0
M  V30 445 C 46.288 -1.61365 0.215685 0
M  V30 446 O 47.477 -1.72134 0.472459 0
M  V30 447 C 44.577 -3.24075 0.991396 0
M  V30 448 C 43.75 -3.78958 2.18426 0
M  V30 449 C 42.809 -4.92862 1.8432 0
M  V30 450 O 41.835 -5.08027 2.56704 0
M  V30 451 N 43.037 -5.75071 0.792081 0
M  V30 452 H 45.802 -1.95791 2.26905 0
M  V30 453 H 43.363 -0.943226 1.31586 0
M  V30 454 H 45.355 -3.97804 0.743935 0
M  V30 455 H 43.925 -3.12399 0.112122 0
M  V30 456 H 43.145 -2.96913 2.59299 0
M  V30 457 H 44.433 -4.12357 2.98058 0
M  V30 458 H 43.831 -5.65375 0.191595 0
M  V30 459 H 42.388 -6.48991 0.60449 0
M  V30 460 N 45.8211 -1.22559 -0.990812 0
M  V30 461 C 46.7311 -1.01394 -2.11557 0
M  V30 462 C 47.7471 0.0383962 -1.73958 0
M  V30 463 O 48.9231 -0.154787 -2.00804 0
M  V30 464 C 45.9881 -0.596569 -3.41529 0
M  V30 465 C 45.0491 -1.72276 -3.93217 0
M  V30 466 C 44.2821 -1.32521 -5.16985 0
M  V30 467 O 44.5051 -0.204909 -5.70032 0
M  V30 468 O 43.4391 -2.14247 -5.62478 0
M  V30 469 H 47.2651 -1.95633 -2.32296 0
M  V30 470 H 44.8501 -1.01172 -1.0993 0
M  V30 471 H 46.7321 -0.374263 -4.19735 0
M  V30 472 H 45.4071 0.316939 -3.22145 0
M  V30 473 H 44.3141 -1.99961 -3.16174 0
M  V30 474 H 45.6471 -2.61421 -4.17037 0
M  V30 475 N 47.2992 1.18797 -1.03562 0
M  V30 476 C 48.2312 2.21731 -0.580337 0
M  V30 477 C 49.2442 1.59051 0.347349 0
M  V30 478 O 50.4332 1.77929 0.142669 0
M  V30 479 C 47.5332 3.38459 0.172805 0
M  V30 480 C 46.7062 4.3072 -0.761496 0
M  V30 481 C 45.7652 5.26174 -0.0525547 0
M  V30 482 O 44.7912 5.65108 -0.681333 0
M  V30 483 N 45.9932 5.67624 1.21586 0
M  V30 484 H 48.7582 2.61417 -1.46565 0
M  V30 485 H 46.3192 1.33531 -0.915476 0
M  V30 486 H 48.3112 3.99335 0.656793 0
M  V30 487 H 46.8812 2.97507 0.959602 0
M  V30 488 H 46.1012 3.67525 -1.42544 0
M  V30 489 H 47.3892 4.89267 -1.39626 0
M  V30 490 H 46.7872 5.38038 1.74732 0
M  V30 491 H 45.3442 6.30721 1.64421 0
M  V30 492 N 48.7773 0.814389 1.34928 0
M  V30 493 C 50.0173 0.404165 2.00364 0
M  V30 494 C 50.3813 -1.01166 1.63185 0
M  V30 495 O 51.5823 -1.52431 2.21401 0
M  V30 496 C 49.8533 0.590718 3.52484 0
M  V30 497 S 51.4123 0.272075 4.37956 0
M  V30 498 H 48.2303 0.15311 0.694319 0
M  V30 499 H 50.8323 1.05834 1.64376 0
M  V30 500 H 49.5363 1.62099 3.77031 0
M  V30 501 H 49.0673 -0.0785013 3.93322 0
M  V30 502 H 51.0823 -0.917405 4.87645 0
M  V30 503 N 50.2554 -1.46986 0.568584 0
M  V30 504 C 51.1654 -2.33942 -0.17555 0
M  V30 505 C 52.1814 -1.48891 -0.90041 0
M  V30 506 O 53.3574 -1.81794 -0.86676 0
M  V30 507 C 50.4224 -3.25811 -1.18524 0
M  V30 508 C 49.4834 -4.26757 -0.466582 0
M  V30 509 C 48.7164 -5.14236 -1.42817 0
M  V30 510 O 48.9394 -5.04379 -2.66379 0
M  V30 511 O 47.8734 -5.94412 -0.946453 0
M  V30 512 H 51.6994 -2.98896 0.538036 0
M  V30 513 H 49.2844 -1.4573 0.329097 0
M  V30 514 H 51.1664 -3.82527 -1.76779 0
M  V30 515 H 49.8414 -2.63471 -1.88055 0
M  V30 516 H 48.7484 -3.73769 0.157451 0
M  V30 517 H 50.0814 -4.91843 0.187485 0
M  V30 518 N 51.7335 -0.305618 -1.54608 0
M  V30 519 C 52.6965 0.555591 -2.22364 0
M  V30 520 C 53.6965 1.05768 -1.21119 0
M  V30 521 O 54.8865 0.952972 -1.45822 0
M  V30 522 C 52.0185 1.76974 -2.91364 0
M  V30 523 H 53.2115 -0.0364572 -2.99878 0
M  V30 524 H 50.7645 -0.0565007 -1.56198 0
M  V30 525 H 51.4995 2.40151 -2.17941 0
M  V30 526 H 51.2845 1.41732 -3.65588 0
M  V30 527 H 52.7745 2.38148 -3.43038 0
M  V30 528 N 53.2116 1.57565 -0.0334293 0
M  V30 529 C 54.6276 1.56297 0.322997 0
M  V30 530 C 54.8276 1.03945 1.7262 0
M  V30 531 O 53.8836 0.688109 2.42943 0
M  V30 532 C 55.1966 3.00232 0.167664 0
M  V30 533 C 56.7446 3.12078 0.240107 0
M  V30 534 C 57.2196 4.57859 0.113513 0
M  V30 535 N 58.7106 4.62887 0.170359 0
M  V30 536 C 59.4456 5.73319 0.0962517 0
M  V30 537 N 58.9416 6.92794 -0.0291881 0
M  V30 538 N 60.7346 5.61898 0.150551 0
M  V30 539 H 52.8856 1.89923 -0.950956 0
M  V30 540 H 55.1486 0.873824 -0.367608 0
M  V30 541 H 54.8546 3.42501 -0.799102 0
M  V30 542 H 54.7286 3.654 0.936083 0
M  V30 543 H 57.1156 2.69718 1.19733 0
M  V30 544 H 57.1966 2.49623 -0.558763 0
M  V30 545 H 56.8406 5.009 -0.840314 0
M  V30 546 H 56.7706 5.18299 0.931302 0
M  V30 547 H 59.2616 3.76954 0.26728 0
M  V30 548 H 59.5746 7.7276 -0.0789252 0
M  V30 549 H 57.9196 6.94971 -0.0640299 0
M  V30 550 H 61.1106 4.67448 0.246981 0
M  V30 551 H 61.2836 6.47938 0.0893365 0
M  V30 552 N 54.6897 -0.239769 1.55765 0
M  V30 553 C 55.9377 -0.964892 1.77579 0
M  V30 554 C 56.2587 -1.85582 0.598699 0
M  V30 555 O 55.5287 -1.92075 -0.385226 0
M  V30 556 H 54.1087 -0.359265 0.654933 0
M  V30 557 H 56.7707 -0.256001 1.93211 0
M  V30 558 H 55.8667 -1.58243 2.69009 0
M  V30 559 N 56.1678 -1.49265 -0.50573 0
M  V30 560 C 57.4078 -1.60128 -1.27038 0
M  V30 561 C 57.7718 -0.279557 -1.89954 0
M  V30 562 O 58.9728 -0.263329 -2.67507 0
M  V30 563 C 57.2438 -2.72507 -2.31246 0
M  V30 564 S 58.8028 -3.0329 -3.17113 0
M  V30 565 H 55.6208 -0.564863 -0.4318 0
M  V30 566 H 58.2228 -1.86902 -0.573397 0
M  V30 567 H 56.9268 -3.67068 -1.83546 0
M  V30 568 H 56.4578 -2.4771 -3.05619 0
M  V30 569 H 58.4728 -2.44448 -4.31809 0
M  V30 570 N 57.6459 0.756429 -1.3826 0
M  V30 571 C 58.8859 1.52833 -1.35725 0
M  V30 572 C 59.2499 1.91926 0.0534106 0
M  V30 573 O 60.4509 2.68028 0.203613 0
M  V30 574 C 58.7219 2.74919 -2.28373 0
M  V30 575 S 60.2809 3.64817 -2.43832 0
M  V30 576 H 57.0989 0.523043 -0.481608 0
M  V30 577 H 59.7009 0.888212 -1.74158 0
M  V30 578 H 58.4049 2.44304 -3.29763 0
M  V30 579 H 57.9359 3.43878 -1.91079 0
M  V30 580 H 59.9509 4.676 -1.66027 0
M  V30 581 N 59.124 1.23083 0.984299 0
M  V30 582 C 60.354 1.08556 1.75781 0
M  V30 583 C 60.762 -0.366171 1.85623 0
M  V30 584 O 60.105 -1.26524 1.33182 0
M  V30 585 C 60.167 1.63208 3.20318 0
M  V30 586 C 59.831 3.11922 3.33997 0
M  V30 587 C 60.828 4.09259 3.2063 0
M  V30 588 C 58.513 3.51552 3.58771 0
M  V30 589 C 60.507 5.4421 3.31835 0
M  V30 590 C 58.194 4.86649 3.69616 0
M  V30 591 C 59.192 5.82787 3.56157 0
M  V30 592 O 58.88 7.15431 3.66626 0
M  V30 593 H 58.612 0.380713 0.5586 0
M  V30 594 H 61.166 1.63321 1.2456 0
M  V30 595 H 59.396 1.0286 3.72769 0
M  V30 596 H 61.085 1.44216 3.79416 0
M  V30 597 H 61.851 3.79984 3.01392 0
M  V30 598 H 57.73 2.77239 3.6832 0
M  V30 599 H 61.274 6.1923 3.21247 0
M  V30 600 H 57.171 5.15601 3.88363 0
M  V30 601 H 57.939 7.23127 3.83445 0
M  V30 602 N 60.6021 -1.18246 1.0419 0
M  V30 603 C 61.8511 -1.87588 0.741194 0
M  V30 604 C 62.1641 -1.81303 -0.734066 0
M  V30 605 O 63.3701 -2.46019 -1.14834 0
M  V30 606 C 61.8261 -3.36538 1.27555 0
M  V30 607 C 61.4341 -3.51349 2.77953 0
M  V30 608 C 63.1781 -4.11273 1.05143 0
M  V30 609 C 61.0851 -4.94265 3.2474 0
M  V30 610 H 60.0151 -0.702622 0.273565 0
M  V30 611 H 62.6661 -1.33601 1.25789 0
M  V30 612 H 61.0481 -3.9 0.686703 0
M  V30 613 H 62.2221 -3.08153 3.42605 0
M  V30 614 H 60.5371 -2.90022 2.98791 0
M  V30 615 H 63.1341 -5.16689 1.37611 0
M  V30 616 H 63.4771 -4.16298 -0.0112774 0
M  V30 617 H 64.0101 -3.63987 1.60495 0
M  V30 618 H 60.7491 -4.94408 4.30396 0
M  V30 619 H 60.2691 -5.38172 2.64823 0
M  V30 620 H 61.9481 -5.62987 3.18834 0
M  V30 621 N 62.0802 -0.821533 -1.34494 0
M  V30 622 C 63.4912 -0.467956 -1.8074 0
M  V30 623 C 63.8422 1.01151 -1.68116 0
M  V30 624 O 62.9672 1.78707 -1.22036 0
M  V30 625 C 63.5622 -0.842627 -3.28154 0
M  V30 626 C 62.1212 -0.541439 -3.72485 0
M  V30 627 C 61.2682 -1.06028 -2.56229 0
M  V30 628 H 64.2192 -1.01183 -1.22261 0
M  V30 629 H 64.2402 -0.145876 -3.8022 0
M  V30 630 H 63.7522 -1.91945 -3.37311 0
M  V30 631 H 61.8532 0.526034 -3.68868 0
M  V30 632 H 61.9662 -1.08453 -4.66663 0
M  V30 633 H 60.3302 -0.481892 -2.501 0
M  V30 634 H 61.1132 -2.14352 -2.68157 0
M  V30 635 N 63.5583 1.46682 -0.576371 0
M  V30 636 C 64.5213 2.28707 0.150239 0
M  V30 637 C 65.5213 1.38035 0.824794 0
M  V30 638 O 66.7113 1.60476 0.677719 0
M  V30 639 C 63.8433 3.18248 1.22192 0
M  V30 640 H 65.0363 2.94423 -0.570521 0
M  V30 641 H 62.5893 1.52688 -0.334078 0
M  V30 642 H 63.3243 2.57265 1.97447 0
M  V30 643 H 63.1093 3.85 0.742812 0
M  V30 644 H 64.5993 3.80001 1.73172 0
M  V30 645 N 65.0364 0.313813 1.54444 0
M  V30 646 C 65.9834 -0.55655 2.23989 0
M  V30 647 C 66.9534 -1.11943 1.22711 0
M  V30 648 O 68.1384 -1.16158 1.51367 0
M  V30 649 C 65.2784 -1.71635 2.99392 0
M  V30 650 C 64.3914 -1.18364 4.15468 0
M  V30 651 C 63.5264 -2.30834 4.78424 0
M  V30 652 C 62.5654 -1.74762 5.86622 0
M  V30 653 N 61.7024 -2.80855 6.43479 0
M  V30 654 H 66.5424 0.0430893 2.97969 0
M  V30 655 H 64.0794 0.0330359 1.47063 0
M  V30 656 H 66.0374 -2.39868 3.41349 0
M  V30 657 H 64.6674 -2.28742 2.27765 0
M  V30 658 H 63.7194 -0.393163 3.78363 0
M  V30 659 H 65.0314 -0.733262 4.93381 0
M  V30 660 H 64.1854 -3.0699 5.23299 0
M  V30 661 H 62.9244 -2.79204 3.99871 0
M  V30 662 H 61.9294 -0.970995 5.41158 0
M  V30 663 H 63.1544 -1.2728 6.67066 0
M  V30 664 H 61.1004 -3.28535 5.67804 0
M  V30 665 H 61.0174 -2.40351 7.16776 0
M  V30 666 H 62.2854 -3.5687 6.93011 0
M  V30 667 N 66.5145 -1.57545 0.0417849 0
M  V30 668 C 67.4465 -2.07904 -0.964799 0
M  V30 669 C 68.4595 -1.00497 -1.28079 0
M  V30 670 O 69.6485 -1.28087 -1.24322 0
M  V30 671 C 66.7485 -2.49928 -2.28887 0
M  V30 672 C 65.9215 -3.80562 -2.15619 0
M  V30 673 C 64.9805 -4.08999 -3.31069 0
M  V30 674 O 64.0065 -4.79061 -3.0739 0
M  V30 675 N 65.2085 -3.6017 -4.55256 0
M  V30 676 H 67.9735 -2.94886 -0.535029 0
M  V30 677 H 65.5345 -1.61252 -0.144681 0
M  V30 678 H 67.5265 -2.66034 -3.04972 0
M  V30 679 H 66.0965 -1.68245 -2.63463 0
M  V30 680 H 65.3165 -3.74129 -1.24183 0
M  V30 681 H 66.6045 -4.66126 -2.03971 0
M  V30 682 H 66.0025 -3.03512 -4.77386 0
M  V30 683 H 64.5595 -3.81532 -5.28466 0
M  V30 684 N 67.9926 0.231505 -1.5589 0
M  V30 685 C 69.2406 0.955461 -1.78088 0
M  V30 686 C 69.5616 1.85262 -0.608533 0
M  V30 687 O 68.8316 1.92277 0.375035 0
M  V30 688 H 67.4116 0.355787 -0.656829 0
M  V30 689 H 70.0736 0.245751 -1.93344 0
M  V30 690 H 69.1696 1.56814 -2.69844 0
M  V30 691 N 69.4707 1.49531 0.497807 0
M  V30 692 C 70.4007 1.6935 1.60757 0
M  V30 693 C 71.3817 0.542218 1.61227 0
M  V30 694 O 72.5667 0.778417 1.77917 0
M  V30 695 C 69.6967 1.76298 2.99226 0
M  V30 696 C 68.6507 2.91248 3.13622 0
M  V30 697 C 67.9767 2.83312 4.53474 0
M  V30 698 C 69.2767 4.3214 2.93346 0
M  V30 699 H 70.9707 2.62263 1.44425 0
M  V30 700 H 68.5167 1.26208 0.693367 0
M  V30 701 H 70.4697 1.88749 3.76765 0
M  V30 702 H 69.1937 0.799871 3.16654 0
M  V30 703 H 67.8527 2.78404 2.38509 0
M  V30 704 H 67.5007 1.84902 4.67782 0
M  V30 705 H 67.2007 3.60465 4.64046 0
M  V30 706 H 68.7247 2.97775 5.33069 0
M  V30 707 H 70.1387 4.45649 3.60652 0
M  V30 708 H 68.5357 5.1054 3.15387 0
M  V30 709 H 69.6057 4.46363 1.89441 0
M  V30 710 N 70.9488 -0.749086 1.3866 0
M  V30 711 C 71.8808 -1.87273 1.32142 0
M  V30 712 C 72.8938 -1.61127 0.232787 0
M  V30 713 O 74.0828 -1.71623 0.49069 0
M  V30 714 C 71.1828 -3.23005 1.02571 0
M  V30 715 C 70.3558 -3.7662 2.22433 0
M  V30 716 C 69.4148 -4.90879 1.89537 0
M  V30 717 O 68.4408 -5.05276 2.62078 0
M  V30 718 N 69.6428 -5.74198 0.853031 0
M  V30 719 H 72.4078 -1.93373 2.28969 0
M  V30 720 H 69.9688 -0.929216 1.32579 0
M  V30 721 H 71.9608 -3.96992 0.786085 0
M  V30 722 H 70.5308 -3.12262 0.145249 0
M  V30 723 H 69.7508 -2.94147 2.62434 0
M  V30 724 H 71.0388 -4.09173 3.02415 0
M  V30 725 H 70.4368 -5.6514 0.25155 0
M  V30 726 H 68.9938 -6.48313 0.67329 0
M  V30 727 N 72.4269 -1.23603 -0.977757 0
M  V30 728 C 73.6749 -1.06759 -1.71601 0
M  V30 729 C 73.9959 0.395929 -1.90938 0
M  V30 730 O 73.2659 1.28356 -1.47992 0
M  V30 731 H 71.8459 -0.392062 -0.635843 0
M  V30 732 H 74.5079 -1.55362 -1.1768 0
M  V30 733 H 73.6039 -1.55763 -2.70452 0
M  V30 734 N 73.905 1.17692 -1.04816 0
M  V30 735 C 74.868 2.19787 -0.650117 0
M  V30 736 C 75.868 1.58044 0.296427 0
M  V30 737 O 77.058 1.74012 0.0808097 0
M  V30 738 C 74.19 3.40869 0.0456987 0
M  V30 739 H 75.383 2.56516 -1.5537 0
M  V30 740 H 72.936 1.31708 -0.841594 0
M  V30 741 H 73.671 3.09681 0.962726 0
M  V30 742 H 73.456 3.86928 -0.634727 0
M  V30 743 H 74.946 4.16445 0.310432 0
M  V30 744 N 75.3831 0.828654 1.34056 0
M  V30 745 C 76.3151 0.212052 2.28217 0
M  V30 746 C 77.3281 -0.601362 1.51286 0
M  V30 747 O 78.5171 -0.430104 1.73241 0
M  V30 748 C 75.6171 -0.72088 3.31144 0
M  V30 749 C 74.7901 0.0509587 4.3737 0
M  V30 750 C 73.8491 -0.803766 5.20025 0
M  V30 751 O 72.8751 -0.246667 5.68665 0
M  V30 752 N 74.0771 -2.1227 5.40298 0
M  V30 753 H 76.8421 1.02105 2.81771 0
M  V30 754 H 74.4031 0.686153 1.46641 0
M  V30 755 H 76.3951 -1.29742 3.8334 0
M  V30 756 H 74.9651 -1.43061 2.77943 0
M  V30 757 H 74.1851 0.808831 3.85813 0
M  V30 758 H 75.4731 0.582065 5.0546 0
M  V30 759 H 74.8711 -2.59898 5.02464 0
M  V30 760 H 73.4281 -2.64796 5.95589 0
M  V30 761 N 76.8612 -1.46375 0.584142 0
M  V30 762 C 77.7942 -2.27351 -0.196676 0
M  V30 763 C 78.7722 -1.35715 -0.895561 0
M  V30 764 O 79.9562 -1.65126 -0.90916 0
M  V30 765 C 77.0832 -3.13486 -1.28235 0
M  V30 766 C 76.1292 -4.20896 -0.689145 0
M  V30 767 S 76.9622 -5.33299 0.48507 0
M  V30 768 C 78.1182 -6.23 -0.601767 0
M  V30 769 H 78.3512 -2.93228 0.490395 0
M  V30 770 H 75.8842 -1.49875 0.371071 0
M  V30 771 H 77.8422 -3.63676 -1.90395 0
M  V30 772 H 76.5032 -2.4692 -1.94138 0
M  V30 773 H 75.6962 -4.80997 -1.50527 0
M  V30 774 H 75.2982 -3.73726 -0.143181 0
M  V30 775 H 77.5902 -6.60979 -1.48705 0
M  V30 776 H 78.5332 -7.0809 -0.0374799 0
M  V30 777 H 78.9412 -5.57173 -0.906557 0
M  V30 778 N 78.3393 -0.321999 -1.54275 0
M  V30 779 C 79.5873 0.280489 -2.00144 0
M  V30 780 C 79.9083 1.52777 -1.21178 0
M  V30 781 O 79.1783 1.9338 -0.313187 0
M  V30 782 H 77.7583 0.106632 -0.73935 0
M  V30 783 H 80.4203 -0.438184 -1.8991 0
M  V30 784 H 79.5163 0.537972 -3.07428 0
M  V30 785 N 79.8174 1.5752 -0.0501392 0
M  V30 786 C 80.7494 2.08413 0.95376 0
M  V30 787 C 81.7624 1.01175 1.27544 0
M  V30 788 O 82.9514 1.28744 1.23641 0
M  V30 789 C 80.0514 2.51138 2.27559 0
M  V30 790 C 79.2244 3.817 2.13598 0
M  V30 791 C 78.2834 4.10749 3.28895 0
M  V30 792 O 77.3094 4.80685 3.04845 0
M  V30 793 N 78.5114 3.62579 4.5334 0
M  V30 794 H 81.2764 2.95165 0.519383 0
M  V30 795 H 78.8374 1.61327 0.136127 0
M  V30 796 H 80.8294 2.67648 3.03557 0
M  V30 797 H 79.3994 1.6964 2.62567 0
M  V30 798 H 78.6194 3.74782 1.22197 0
M  V30 799 H 79.9074 4.67201 2.01496 0
M  V30 800 H 79.3054 3.06039 4.75769 0
M  V30 801 H 77.8624 3.84329 5.26436 0
M  V30 802 N 81.2955 -0.223234 1.56011 0
M  V30 803 C 82.7065 -0.790368 1.69145 0
M  V30 804 C 83.0575 -1.85055 0.651845 0
M  V30 805 O 82.1825 -2.15498 -0.197359 0
M  V30 806 C 82.7775 -1.4404 3.06656 0
M  V30 807 C 81.3365 -1.95494 3.2165 0
M  V30 808 C 80.4835 -0.814506 2.65068 0
M  V30 809 H 83.4345 0.00139011 1.587 0
M  V30 810 H 83.4555 -2.30916 3.0242 0
M  V30 811 H 82.9675 -0.668543 3.82298 0
M  V30 812 H 81.0685 -2.75487 2.50874 0
M  V30 813 H 81.1815 -2.13607 4.28846 0
M  V30 814 H 79.5455 -1.22137 2.23505 0
M  V30 815 H 80.3285 -0.0553515 3.43255 0
M  V30 816 N 82.7736 -1.49793 -0.48987 0
M  V30 817 C 84.0196 -1.61049 -1.24236 0
M  V30 818 C 84.3746 -0.298412 -1.90072 0
M  V30 819 O 83.6676 0.702262 -1.78266 0
M  V30 820 C 83.8616 -2.71488 -2.32441 0
M  V30 821 C 83.6906 -4.13308 -1.77218 0
M  V30 822 C 82.4606 -4.79955 -1.58023 0
M  V30 823 C 84.6586 -4.98176 -1.27772 0
M  V30 824 N 82.6406 -6.06052 -0.978465 0
M  V30 825 C 84.0116 -6.14843 -0.798 0
M  V30 826 C 86.0666 -4.84091 -1.16449 0
M  V30 827 C 84.7696 -7.18975 -0.216245 0
M  V30 828 C 86.7956 -5.88382 -0.596698 0
M  V30 829 C 86.1576 -7.04285 -0.127262 0
M  V30 830 H 82.2566 -0.643611 -0.444172 0
M  V30 831 H 84.8406 -1.86842 -0.54754 0
M  V30 832 H 83.0116 -2.47449 -2.99372 0
M  V30 833 H 84.7436 -2.72205 -2.99477 0
M  V30 834 H 81.4986 -4.36936 -1.82712 0
M  V30 835 H 81.9226 -6.73407 -0.696534 0
M  V30 836 H 86.5646 -3.94786 -1.5134 0
M  V30 837 H 84.2826 -8.0797 0.144903 0
M  V30 838 H 87.8686 -5.79545 -0.511716 0
M  V30 839 H 86.7486 -7.83606 0.30523 0
M  V30 840 N 84.2517 0.741722 -1.39055 0
M  V30 841 C 85.4917 1.51385 -1.37338 0
M  V30 842 C 85.8557 1.91972 0.0330513 0
M  V30 843 O 87.0567 2.68229 0.175174 0
M  V30 844 C 85.3277 2.72481 -2.31276 0
M  V30 845 S 86.8867 3.62211 -2.47687 0
M  V30 846 H 83.7047 0.517906 -0.487129 0
M  V30 847 H 86.3067 0.86969 -1.7509 0
M  V30 848 H 85.0107 2.40793 -3.32336 0
M  V30 849 H 84.5417 3.41832 -1.94716 0
M  V30 850 H 86.5567 4.65812 -1.70978 0
M  V30 851 N 85.7298 1.2412 0.971189 0
M  V30 852 C 86.9768 1.07881 1.71371 0
M  V30 853 C 87.3048 -0.382901 1.90694 0
M  V30 854 O 86.5598 -1.29945 1.46331 0
M  V30 855 C 86.8588 1.75983 3.11071 0
M  V30 856 C 86.5248 3.25909 3.11599 0
M  V30 857 C 85.1868 3.66813 3.11451 0
M  V30 858 C 87.5388 4.21771 3.062 0
M  V30 859 C 84.8668 5.02021 3.03631 0
M  V30 860 C 87.2188 5.56982 2.99923 0
M  V30 861 C 85.8828 5.97237 2.98102 0
M  V30 862 H 85.1528 0.394764 0.62709 0
M  V30 863 H 87.7998 1.54176 1.13587 0
M  V30 864 H 86.1048 1.22072 3.72298 0
M  V30 865 H 87.8018 1.60887 3.6731 0
M  V30 866 H 84.3918 2.93353 3.12477 0
M  V30 867 H 88.5758 3.91172 3.05447 0
M  V30 868 H 83.8318 5.32411 3.0058 0
M  V30 869 H 88.0058 6.30969 2.94704 0
M  V30 870 H 85.6328 7.01967 2.91798 0
M  V30 871 N 87.2079 -1.17134 1.05439 0
M  V30 872 C 88.4549 -1.87456 0.765942 0
M  V30 873 C 88.7829 -1.81189 -0.707153 0
M  V30 874 O 88.0379 -1.21633 -1.5331 0
M  V30 875 C 88.3369 -3.36833 1.19491 0
M  V30 876 C 88.0029 -3.63301 2.67063 0
M  V30 877 C 86.6649 -3.70234 3.07376 0
M  V30 878 C 89.0169 -3.74575 3.62413 0
M  V30 879 C 86.3449 -3.85933 4.41896 0
M  V30 880 C 88.6969 -3.91793 4.9667 0
M  V30 881 C 87.3609 -3.96966 5.36633 0
M  V30 882 H 86.6309 -0.685948 0.280278 0
M  V30 883 H 89.2779 -1.38556 1.32192 0
M  V30 884 H 87.5829 -3.87807 0.557969 0
M  V30 885 H 89.2799 -3.89611 0.948893 0
M  V30 886 H 85.8699 -3.58532 2.34846 0
M  V30 887 H 90.0539 -3.68537 3.32406 0
M  V30 888 H 85.3099 -3.88187 4.72357 0
M  V30 889 H 89.4839 -3.99458 5.70444 0
M  V30 890 H 87.1109 -4.08883 6.40874 0
M  V30 891 N 88.686 -0.835752 -1.33615 0
M  V30 892 C 90.097 -0.487099 -1.80234 0
M  V30 893 C 90.448 0.993627 -1.69179 0
M  V30 894 O 89.573 1.77403 -1.23924 0
M  V30 895 C 90.168 -0.877385 -3.27242 0
M  V30 896 C 88.727 -0.580915 -3.7189 0
M  V30 897 C 87.874 -1.0874 -2.5509 0
M  V30 898 H 90.825 -1.02474 -1.2118 0
M  V30 899 H 90.846 -0.186195 -3.80044 0
M  V30 900 H 90.358 -1.95512 -3.35256 0
M  V30 901 H 88.459 0.486881 -3.69405 0
M  V30 902 H 88.572 -1.13396 -4.65487 0
M  V30 903 H 86.936 -0.508392 -2.49575 0
M  V30 904 H 87.719 -2.17184 -2.65868 0
M  V30 905 N 90.1641 1.46063 -0.591896 0
M  V30 906 C 91.5751 1.85944 -0.167822 0
M  V30 907 C 91.9261 1.49429 1.27143 0
M  V30 908 O 91.0511 0.913515 1.96173 0
M  V30 909 C 91.6461 3.37489 -0.297794 0
M  V30 910 C 90.2051 3.76332 0.0714732 0
M  V30 911 C 89.3521 2.7006 -0.629509 0
M  V30 912 H 92.3031 1.37087 -0.799555 0
M  V30 913 H 92.3241 3.77532 0.474349 0
M  V30 914 H 91.8361 3.64034 -1.3454 0
M  V30 915 H 89.9371 3.55405 1.11886 0
M  V30 916 H 90.0501 4.78088 -0.311245 0
M  V30 917 H 88.4141 2.54607 -0.0687867 0
M  V30 918 H 89.1971 2.99444 -1.67894 0
M  V30 919 N 91.6422 0.330177 1.54103 0
M  V30 920 C 92.8672 -0.274893 2.0557 0
M  V30 921 C 93.2922 -1.44487 1.20437 0
M  V30 922 O 92.6502 -1.80021 0.214991 0
M  V30 923 C 92.6982 -0.68079 3.54115 0
M  V30 924 O 91.8022 -1.7824 3.71893 0
M  V30 925 H 91.1432 -0.0483849 0.662235 0
M  V30 926 H 93.6732 0.480508 1.98878 0
M  V30 927 H 93.6832 -0.961635 3.96505 0
M  V30 928 H 92.3582 0.174903 4.15532 0
M  V30 929 H 90.9352 -1.49985 3.41407 0
M  V30 930 N 93.1203 -1.57491 0.0584922 0
M  V30 931 C 94.3503 -1.9701 -0.622134 0
M  V30 932 C 94.7583 -0.935034 -1.6448 0
M  V30 933 O 94.1013 0.0882904 -1.83488 0
M  V30 934 C 94.1633 -3.32794 -1.35972 0
M  V30 935 C 93.8273 -4.54343 -0.492043 0
M  V30 936 C 94.8243 -5.19323 0.244901 0
M  V30 937 C 92.5093 -5.00534 -0.420821 0
M  V30 938 C 94.5033 -6.28835 1.04143 0
M  V30 939 C 92.1903 -6.09921 0.379389 0
M  V30 940 C 93.1883 -6.73933 1.10919 0
M  V30 941 O 92.8763 -7.81216 1.89623 0
M  V30 942 H 92.6083 -0.653127 -0.174359 0
M  V30 943 H 95.1623 -2.05029 0.123418 0
M  V30 944 H 93.3923 -3.21351 -2.15105 0
M  V30 945 H 95.0813 -3.5701 -1.93129 0
M  V30 946 H 95.8473 -4.8459 0.19939 0
M  V30 947 H 91.7263 -4.50496 -0.978474 0
M  V30 948 H 95.2703 -6.7873 1.61157 0
M  V30 949 H 91.1673 -6.44089 0.426512 0
M  V30 950 H 91.9353 -7.98029 1.81913 0
M  V30 951 N 94.5984 0.214957 -1.56127 0
M  V30 952 C 96.0094 0.781386 -1.69562 0
M  V30 953 C 96.3604 1.84707 -0.66165 0
M  V30 954 O 95.4854 2.156 0.185927 0
M  V30 955 C 96.0804 1.42411 -3.07416 0
M  V30 956 C 94.6394 1.93786 -3.22683 0
M  V30 957 C 93.7864 0.800438 -2.65496 0
M  V30 958 H 96.7374 -0.00980633 -1.58697 0
M  V30 959 H 96.7584 2.29309 -3.0364 0
M  V30 960 H 96.2704 0.64826 -3.82648 0
M  V30 961 H 94.3714 2.74152 -2.52332 0
M  V30 962 H 94.4844 2.1133 -4.29973 0
M  V30 963 H 92.8484 1.2095 -2.2415 0
M  V30 964 H 93.6314 0.0371471 -3.4328 0
M  V30 965 N 96.0765 1.50051 0.48192 0
M  V30 966 C 97.3015 1.64508 1.26301 0
M  V30 967 C 97.7265 0.323851 1.85291 0
M  V30 968 O 97.0845 -0.710969 1.66778 0
M  V30 969 C 97.1325 2.7305 2.35533 0
M  V30 970 O 96.2365 2.3355 3.39895 0
M  V30 971 H 95.5775 0.549978 0.372048 0
M  V30 972 H 98.1075 1.9636 0.574786 0
M  V30 973 H 98.1175 2.95799 2.8101 0
M  V30 974 H 96.7925 3.68946 1.91967 0
M  V30 975 H 95.3695 2.21205 3.00204 0
M  V30 976 N 97.5546 -0.734337 1.39446 0
M  V30 977 C 98.7846 -1.52137 1.39778 0
M  V30 978 C 99.1926 -1.89198 -0.00929312 0
M  V30 979 O 98.5356 -1.54666 -0.991168 0
M  V30 980 C 98.5976 -2.83762 2.20724 0
M  V30 981 C 98.2616 -2.69131 3.69347 0
M  V30 982 C 99.2586 -2.37635 4.62413 0
M  V30 983 C 96.9436 -2.85982 4.1294 0
M  V30 984 C 98.9376 -2.23172 5.97054 0
M  V30 985 C 96.6246 -2.71137 5.47657 0
M  V30 986 C 97.6226 -2.39777 6.39528 0
M  V30 987 O 97.3106 -2.25026 7.71763 0
M  V30 988 H 97.0426 -0.476717 0.479288 0
M  V30 989 H 99.5966 -0.915012 1.83893 0
M  V30 990 H 97.8266 -3.4666 1.71359 0
M  V30 991 H 99.5156 -3.45383 2.13226 0
M  V30 992 H 100.282 -2.24267 4.30034 0
M  V30 993 H 96.1606 -3.09383 3.41765 0
M  V30 994 H 99.7046 -1.98617 6.68728 0
M  V30 995 H 95.6016 -2.84083 5.79626 0
M  V30 996 H 96.3696 -2.40091 7.82495 0
M  V30 997 N 99.0327 -1.24633 -0.964593 0
M  V30 998 C 99.9797 -1.04144 -2.05968 0
M  V30 999 C 100.95 0.046262 -1.66036 0
M  V30 1000 O 102.135 -0.108972 -1.90489 0
M  V30 1001 C 99.2747 -0.65563 -3.38815 0
M  V30 1002 C 98.3877 -1.81714 -3.91923 0
M  V30 1003 C 97.5227 -1.37662 -5.13052 0
M  V30 1004 C 96.5617 -2.50788 -5.58365 0
M  V30 1005 N 95.6987 -2.07582 -6.70712 0
M  V30 1006 H 100.539 -1.9787 -2.22827 0
M  V30 1007 H 98.0757 -0.9855 -1.09208 0
M  V30 1008 H 100.034 -0.412954 -4.15151 0
M  V30 1009 H 98.6637 0.244627 -3.21872 0
M  V30 1010 H 97.7157 -2.1734 -3.12198 0
M  V30 1011 H 99.0277 -2.66705 -4.21509 0
M  V30 1012 H 98.1817 -1.093 -5.96773 0
M  V30 1013 H 96.9207 -0.497293 -4.85158 0
M  V30 1014 H 95.9257 -2.79906 -4.73215 0
M  V30 1015 H 97.1507 -3.39283 -5.88272 0
M  V30 1016 H 95.0967 -1.22051 -6.44546 0
M  V30 1017 H 95.0137 -2.86125 -6.99763 0
M  V30 1018 H 96.2817 -1.82369 -7.57867 0
M  V30 1019 N 100.511 1.16574 -1.06058 0
M  V30 1020 C 101.441 2.23057 -0.690488 0
M  V30 1021 C 102.422 1.67141 0.315901 0
M  V30 1022 O 103.607 1.93253 0.191556 0
M  V30 1023 C 100.737 3.47222 -0.073625 0
M  V30 1024 C 99.6908 4.16016 -1.00573 0
M  V30 1025 C 99.0168 5.34104 -0.252289 0
M  V30 1026 C 100.317 4.67264 -2.33371 0
M  V30 1027 H 102.011 2.54271 -1.58072 0
M  V30 1028 H 99.5568 1.22218 -0.76149 0
M  V30 1029 H 101.51 4.20939 0.19714 0
M  V30 1030 H 100.234 3.15302 0.85161 0
M  V30 1031 H 98.8928 3.44223 -1.2612 0
M  V30 1032 H 98.5408 4.98437 0.675988 0
M  V30 1033 H 98.2408 5.81072 -0.873455 0
M  V30 1034 H 99.7648 6.10599 0.0109857 0
M  V30 1035 H 101.179 5.32573 -2.12223 0
M  V30 1036 H 99.5758 5.24843 -2.90963 0
M  V30 1037 H 100.646 3.83602 -2.96611 0
M  V30 1038 N 101.989 0.842826 1.3317 0
M  V30 1039 C 102.899 0.281444 2.32906 0
M  V30 1040 C 103.915 -0.594587 1.63526 0
M  V30 1041 O 105.091 -0.49777 1.95152 0
M  V30 1042 C 102.156 -0.530929 3.42611 0
M  V30 1043 C 101.217 0.369843 4.27704 0
M  V30 1044 C 100.45 -0.403853 5.3217 0
M  V30 1045 O 100.673 -1.63513 5.46461 0
M  V30 1046 O 99.6069 0.224199 6.01482 0
M  V30 1047 H 103.433 1.10744 2.82789 0
M  V30 1048 H 101.018 0.60545 1.36582 0
M  V30 1049 H 102.9 -0.992437 4.09547 0
M  V30 1050 H 101.575 -1.33392 2.94938 0
M  V30 1051 H 100.482 0.879275 3.6362 0
M  V30 1052 H 101.815 1.13771 4.78871 0
M  V30 1053 N 103.467 -1.45747 0.599634 0
M  V30 1054 C 104.415 -2.322 -0.136426 0
M  V30 1055 C 105.409 -1.45497 -0.867583 0
M  V30 1056 O 106.615 -1.62027 -0.78405 0
M  V30 1057 H 102.99 -0.749368 -0.0628588 0
M  V30 1058 H 104.961 -2.92072 0.611281 0
M  V30 1059 C 103.71 -3.28974 -1.12567 0
M  V30 1060 H 103.033 -3.9568 -0.572484 0
M  V30 1061 H 104.473 -3.92212 -1.61077 0
M  V30 1062 C 102.932 -2.55561 -2.19523 0
M  V30 1063 O 103.462 -2.33111 -3.27143 0
M  V30 1064 N 101.668 -2.15832 -1.94589 0
M  V30 1065 H 101.215 -2.3429 -1.07078 0
M  V30 1066 H 101.173 -1.67034 -2.66359 0
M  V30 1067 N 104.945 -0.338344 -1.53925 0
M  V30 1068 C 105.875 0.51328 -2.27789 0
M  V30 1069 C 106.856 1.107 -1.29149 0
M  V30 1070 O 108.041 1.12937 -1.57984 0
M  V30 1071 C 105.171 1.66697 -3.04679 0
M  V30 1072 C 104.125 1.20183 -4.1078 0
M  V30 1073 C 103.451 2.44363 -4.75595 0
M  V30 1074 C 104.751 0.30605 -5.21403 0
M  V30 1075 H 106.445 -0.102883 -2.99223 0
M  V30 1076 H 103.991 -0.0509219 -1.4391 0
M  V30 1077 H 105.944 2.26915 -3.55088 0
M  V30 1078 H 104.668 2.30995 -2.30887 0
M  V30 1079 H 103.327 0.622499 -3.61276 0
M  V30 1080 H 102.975 3.07057 -3.98403 0
M  V30 1081 H 102.675 2.13925 -5.47275 0
M  V30 1082 H 104.199 3.05317 -5.28786 0
M  V30 1083 H 105.613 0.814929 -5.67478 0
M  V30 1084 H 104.01 0.0937929 -6.00027 0
M  V30 1085 H 105.08 -0.65921 -4.80398 0
M  V30 1086 N 106.423 1.57458 -0.0668435 0
M  V30 1087 C 107.648 1.9804 0.616027 0
M  V30 1088 C 108.073 0.944771 1.62652 0
M  V30 1089 O 107.431 -0.0902094 1.81075 0
M  V30 1090 C 107.479 3.37665 1.26549 0
M  V30 1091 O 106.583 3.36701 2.38131 0
M  V30 1092 H 105.924 0.644719 0.158849 0
M  V30 1093 H 108.454 2.04121 -0.139891 0
M  V30 1094 H 108.464 3.7474 1.6135 0
M  V30 1095 H 107.139 4.12573 0.525016 0
M  V30 1096 H 105.716 3.1139 2.0516 0
M  V30 1097 N 107.901 -0.206675 1.56239 0
M  V30 1098 C 109.126 -0.949474 1.8439 0
M  V30 1099 C 109.551 -1.76549 0.649016 0
M  V30 1100 O 108.909 -1.76782 -0.402231 0
M  V30 1101 C 108.957 -1.83078 3.10668 0
M  V30 1102 O 108.061 -2.9281 2.90407 0
M  V30 1103 H 107.402 -0.268033 0.607499 0
M  V30 1104 H 109.932 -0.215488 2.03462 0
M  V30 1105 H 109.942 -2.2377 3.41161 0
M  V30 1106 H 108.617 -1.23112 3.97261 0
M  V30 1107 H 107.194 -2.55956 2.71184 0
M  V30 1108 N 109.379 -1.50304 -0.473955 0
M  V30 1109 C 110.604 -1.65175 -1.25427 0
M  V30 1110 C 111.029 -0.333673 -1.85117 0
M  V30 1111 O 110.387 0.702114 -1.67153 0
M  V30 1112 C 110.435 -2.74295 -2.34082 0
M  V30 1113 O 109.539 -2.35349 -3.38651 0
M  V30 1114 H 108.88 -0.551944 -0.369126 0
M  V30 1115 H 111.41 -1.96662 -0.564364 0
M  V30 1116 H 111.42 -2.97285 -2.79438 0
M  V30 1117 H 110.095 -3.69959 -1.90008 0
M  V30 1118 H 108.672 -2.22794 -2.99027 0
M  V30 1119 N 110.857 0.726932 -1.39834 0
M  V30 1120 C 111.767 1.87131 -1.41489 0
M  V30 1121 C 112.783 1.71239 -0.308757 0
M  V30 1122 O 113.959 1.93701 -0.551529 0
M  V30 1123 C 111.024 3.22811 -1.26468 0
M  V30 1124 C 110.085 3.51039 -2.47124 0
M  V30 1125 C 109.318 4.80245 -2.3281 0
M  V30 1126 O 109.541 5.54537 -1.33585 0
M  V30 1127 O 108.475 5.08554 -3.21957 0
M  V30 1128 H 112.301 1.8869 -2.3797 0
M  V30 1129 H 109.886 0.875837 -1.21035 0
M  V30 1130 H 111.768 4.03877 -1.20255 0
M  V30 1131 H 110.443 3.22005 -0.330862 0
M  V30 1132 H 109.35 2.70027 -2.58914 0
M  V30 1133 H 110.683 3.56632 -3.39227 0
M  V30 1134 N 112.336 1.25143 0.95797 0
M  V30 1135 C 113.269 0.995565 2.05338 0
M  V30 1136 C 114.247 -0.0740423 1.62431 0
M  V30 1137 O 115.431 0.0649212 1.88388 0
M  V30 1138 C 112.558 0.504298 3.34925 0
M  V30 1139 C 111.604 1.56393 3.96792 0
M  V30 1140 S 112.437 3.14815 4.33188 0
M  V30 1141 C 113.593 2.67415 5.65898 0
M  V30 1142 H 113.826 1.92309 2.26726 0
M  V30 1143 H 111.359 1.08635 1.09716 0
M  V30 1144 H 113.317 0.227497 4.09869 0
M  V30 1145 H 111.978 -0.402671 3.11508 0
M  V30 1146 H 111.171 1.17082 4.90212 0
M  V30 1147 H 110.773 1.79124 3.28315 0
M  V30 1148 H 113.065 2.10833 6.4386 0
M  V30 1149 H 114.008 3.59463 6.10076 0
M  V30 1150 H 114.416 2.07521 5.24972 0
M  V30 1151 N 113.814 -1.1601 1.06675 0
M  V30 1152 C 115.062 -1.86264 0.784229 0
M  V30 1153 C 115.383 -1.82328 -0.691488 0
M  V30 1154 O 114.653 -1.25947 -1.50047 0
M  V30 1155 H 113.233 -0.689621 0.28711 0
M  V30 1156 H 115.895 -1.40664 1.34906 0
M  V30 1157 H 114.991 -2.91595 1.11259 0
M  V30 1158 N 115.292 -0.849877 -1.32721 0
M  V30 1159 C 116.522 -0.46408 -2.0132 0
M  V30 1160 C 116.93 0.94246 -1.64056 0
M  V30 1161 O 116.273 1.6257 -0.855379 0
M  V30 1162 C 116.335 -0.517887 -3.5575 0
M  V30 1163 C 115.999 -1.88248 -4.16427 0
M  V30 1164 C 116.996 -2.84726 -4.35002 0
M  V30 1165 C 114.681 -2.17832 -4.52609 0
M  V30 1166 C 116.675 -4.08945 -4.8892 0
M  V30 1167 C 114.362 -3.42304 -5.06232 0
M  V30 1168 C 115.36 -4.37677 -5.24335 0
M  V30 1169 O 115.048 -5.59946 -5.76815 0
M  V30 1170 H 114.78 -0.181327 -0.651227 0
M  V30 1171 H 117.334 -1.14713 -1.70382 0
M  V30 1172 H 115.564 0.221997 -3.86062 0
M  V30 1173 H 117.253 -0.148366 -4.05629 0
M  V30 1174 H 118.019 -2.63174 -4.07388 0
M  V30 1175 H 113.898 -1.44385 -4.37806 0
M  V30 1176 H 117.442 -4.83396 -5.02966 0
M  V30 1177 H 113.339 -3.63709 -5.33278 0
M  V30 1178 H 114.107 -5.61838 -5.95214 0
M  V30 1179 N 116.77 1.45427 -0.607355 0
M  V30 1180 C 117.998 2.06614 -0.108814 0
M  V30 1181 C 118.413 1.45204 1.2067 0
M  V30 1182 O 117.77 0.566132 1.73497 0
M  V30 1183 C 117.821 3.61481 0.0375347 0
M  V30 1184 O 117.542 4.20598 -1.22593 0
M  V30 1185 C 119.043 4.39652 0.567561 0
M  V30 1186 H 116.263 0.66747 -0.0687351 0
M  V30 1187 H 118.807 1.86675 -0.835022 0
M  V30 1188 H 116.962 3.80762 0.714068 0
M  V30 1189 H 117.376 5.1377 -1.05547 0
M  V30 1190 H 118.85 5.48518 0.61905 0
M  V30 1191 H 119.327 4.09417 1.58978 0
M  V30 1192 H 119.933 4.25234 -0.0749202 0
M  V30 1193 N 118.248 0.346503 1.53744 0
M  V30 1194 C 119.211 -0.496439 2.23759 0
M  V30 1195 C 120.211 -1.0252 1.2388 0
M  V30 1196 O 121.401 -0.913974 1.48297 0
M  V30 1197 C 118.533 -1.69187 2.95954 0
M  V30 1198 H 119.726 0.115952 2.99676 0
M  V30 1199 H 117.279 0.0978939 1.55993 0
M  V30 1200 H 118.014 -2.34288 2.24231 0
M  V30 1201 H 117.799 -1.31989 3.69217 0
M  V30 1202 H 119.289 -2.28969 3.49232 0
M  V30 1203 N 119.726 -1.57421 0.075193 0
M  V30 1204 C 120.954 -1.97946 -0.602076 0
M  V30 1205 C 121.369 -0.953674 -1.62943 0
M  V30 1206 O 120.726 0.0592551 -1.82404 0
M  V30 1207 C 120.777 -3.38546 -1.26762 0
M  V30 1208 O 120.498 -4.37195 -0.281376 0
M  V30 1209 C 121.999 -3.93966 -2.03239 0
M  V30 1210 H 119.219 -0.650918 -0.162931 0
M  V30 1211 H 121.763 -2.03959 0.148601 0
M  V30 1212 H 119.918 -3.33609 -1.96936 0
M  V30 1213 H 120.332 -5.18975 -0.759267 0
M  V30 1214 H 121.806 -4.94555 -2.45193 0
M  V30 1215 H 122.283 -3.30693 -2.8903 0
M  V30 1216 H 122.889 -4.02315 -1.37924 0
M  V30 1217 N 121.204 0.198386 -1.56346 0
M  V30 1218 C 122.134 1.24865 -1.9731 0
M  V30 1219 C 123.115 1.47651 -0.844576 0
M  V30 1220 O 124.3 1.59444 -1.10866 0
M  V30 1221 C 121.43 2.59358 -2.30977 0
M  V30 1222 C 120.384 2.5119 -3.46537 0
M  V30 1223 C 119.71 3.89926 -3.65871 0
M  V30 1224 C 121.01 2.03977 -4.80823 0
M  V30 1225 H 122.704 0.908252 -2.85291 0
M  V30 1226 H 120.25 0.435462 -1.37258 0
M  V30 1227 H 122.203 3.33011 -2.58228 0
M  V30 1228 H 120.927 2.95132 -1.39874 0
M  V30 1229 H 119.586 1.79993 -3.19371 0
M  V30 1230 H 119.234 4.23046 -2.72105 0
M  V30 1231 H 118.934 3.85336 -4.4361 0
M  V30 1232 H 120.458 4.65205 -3.95495 0
M  V30 1233 H 121.872 2.67386 -5.07127 0
M  V30 1234 H 120.269 2.10397 -5.62008 0
M  V30 1235 H 121.339 0.992861 -4.74626 0
M  V30 1236 N 122.682 1.50554 0.465978 0
M  V30 1237 C 123.91 1.65563 1.24083 0
M  V30 1238 C 124.325 0.341051 1.85694 0
M  V30 1239 O 123.682 -0.677543 1.69457 0
M  V30 1240 C 123.733 2.75051 2.34583 0
M  V30 1241 O 123.454 4.01413 1.75497 0
M  V30 1242 C 124.955 3.01078 3.25372 0
M  V30 1243 H 122.175 0.55638 0.375077 0
M  V30 1244 H 124.719 1.96807 0.555624 0
M  V30 1245 H 122.874 2.46486 2.9887 0
M  V30 1246 H 123.288 4.62002 2.48303 0
M  V30 1247 H 124.762 3.81339 3.99105 0
M  V30 1248 H 125.239 2.12349 3.84453 0
M  V30 1249 H 125.845 3.31194 2.66816 0
M  V30 1250 N 124.16 -0.719506 1.40217 0
M  V30 1251 C 125.576 -1.02707 1.22161 0
M  V30 1252 C 125.776 -2.0128 0.0940557 0
M  V30 1253 O 124.832 -2.46452 -0.549318 0
M  V30 1254 C 126.145 -1.57454 2.56181 0
M  V30 1255 C 127.693 -1.69458 2.63159 0
M  V30 1256 C 128.168 -2.27611 3.97438 0
M  V30 1257 N 129.659 -2.35002 3.99159 0
M  V30 1258 C 130.394 -2.80972 4.99842 0
M  V30 1259 N 129.89 -3.26723 6.10921 0
M  V30 1260 N 131.683 -2.80321 4.87213 0
M  V30 1261 H 123.834 -0.0660492 2.12297 0
M  V30 1262 H 126.097 -0.0919077 0.943534 0
M  V30 1263 H 125.803 -0.924873 3.39321 0
M  V30 1264 H 125.677 -2.56036 2.76993 0
M  V30 1265 H 128.064 -2.33543 1.80393 0
M  V30 1266 H 128.145 -0.694867 2.46181 0
M  V30 1267 H 127.789 -1.6415 4.80643 0
M  V30 1268 H 127.719 -3.2829 4.11744 0
M  V30 1269 H 130.21 -2.02685 3.18947 0
M  V30 1270 H 130.523 -3.60355 6.8364 0
M  V30 1271 H 128.868 -3.24692 6.14492 0
M  V30 1272 H 132.059 -2.43912 3.9953 0
M  V30 1273 H 132.232 -3.15831 5.65822 0
M  V30 1274 N 125.638 -1.25649 -0.95132 0
M  V30 1275 C 126.866 -1.13343 -1.73092 0
M  V30 1276 C 127.281 0.312434 -1.86197 0
M  V30 1277 O 126.638 1.21465 -1.36207 0
M  V30 1278 C 126.689 -1.78602 -3.14299 0
M  V30 1279 O 126.41 -3.17537 -3.01831 0
M  V30 1280 C 127.911 -1.72119 -4.08522 0
M  V30 1281 H 125.131 -0.395181 -0.542285 0
M  V30 1282 H 127.675 -1.66076 -1.19328 0
M  V30 1283 H 125.83 -1.29832 -3.64996 0
M  V30 1284 H 126.244 -3.49676 -3.90931 0
M  V30 1285 H 127.718 -2.22435 -5.052 0
M  V30 1286 H 128.195 -0.685635 -4.33815 0
M  V30 1287 H 128.801 -2.20393 -3.63741 0
M  V30 1288 N 127.117 1.15442 -1.07289 0
M  V30 1289 C 128.345 1.90096 -0.81676 0
M  V30 1290 C 128.76 1.7798 0.629966 0
M  V30 1291 O 128.117 1.1313 1.43206 0
M  V30 1292 C 128.168 3.40466 -1.21512 0
M  V30 1293 O 127.889 3.52232 -2.60508 0
M  V30 1294 C 129.39 4.32145 -0.988198 0
M  V30 1295 H 126.61 0.602495 -0.295366 0
M  V30 1296 H 129.154 1.4627 -1.42918 0
M  V30 1297 H 127.309 3.81958 -0.647039 0
M  V30 1298 H 127.723 4.45549 -2.76742 0
M  V30 1299 H 129.197 5.36072 -1.31645 0
M  V30 1300 H 129.674 4.39135 0.0755063 0
M  V30 1301 H 130.28 3.96395 -1.54115 0
M  V30 1302 N 128.595 0.856903 1.32268 0
M  V30 1303 C 130.006 0.515711 1.79436 0
M  V30 1304 C 130.357 -0.966586 1.70738 0
M  V30 1305 O 129.482 -1.75409 1.26731 0
M  V30 1306 C 130.077 0.929335 3.25805 0
M  V30 1307 C 128.636 0.640006 3.70919 0
M  V30 1308 C 127.783 1.12784 2.53328 0
M  V30 1309 H 130.734 1.04389 1.19535 0
M  V30 1310 H 130.755 0.246633 3.797 0
M  V30 1311 H 130.267 2.00821 3.32103 0
M  V30 1312 H 128.368 -0.428051 3.70133 0
M  V30 1313 H 128.481 1.20788 4.63624 0
M  V30 1314 H 126.845 0.548033 2.48734 0
M  V30 1315 H 127.628 2.21387 2.62379 0
M  V30 1316 N 130.073 -1.45103 0.615059 0
M  V30 1317 C 131.301 -2.06553 0.11977 0
M  V30 1318 C 131.716 -1.45842 -1.19898 0
M  V30 1319 O 131.073 -0.575325 -1.73194 0
M  V30 1320 C 131.124 -3.61495 -0.018364 0
M  V30 1321 O 130.845 -4.19942 1.24822 0
M  V30 1322 C 132.346 -4.39947 -0.544237 0
M  V30 1323 H 129.566 -0.667096 0.0722739 0
M  V30 1324 H 132.11 -1.8623 0.84491 0
M  V30 1325 H 130.265 -3.81135 -0.693865 0
M  V30 1326 H 130.679 -5.13204 1.0827 0
M  V30 1327 H 132.153 -5.48838 -0.589953 0
M  V30 1328 H 132.63 -4.10255 -1.56805 0
M  V30 1329 H 133.236 -4.25188 0.0974703 0
M  V30 1330 N 131.551 -0.354651 -1.53558 0
M  V30 1331 C 132.798 0.238443 -2.01091 0
M  V30 1332 C 133.126 1.49663 -1.24222 0
M  V30 1333 O 132.381 1.93049 -0.321003 0
M  V30 1334 C 132.68 0.587121 -3.52545 0
M  V30 1335 C 132.346 -0.575472 -4.47213 0
M  V30 1336 C 131.008 -0.894497 -4.72813 0
M  V30 1337 C 133.36 -1.35489 -5.03281 0
M  V30 1338 C 130.688 -1.99511 -5.51736 0
M  V30 1339 C 133.04 -2.44583 -5.83405 0
M  V30 1340 C 131.704 -2.77033 -6.07296 0
M  V30 1341 H 130.974 0.0872526 -0.735845 0
M  V30 1342 H 133.621 -0.484859 -1.8526 0
M  V30 1343 H 131.926 1.39129 -3.66265 0
M  V30 1344 H 133.623 1.05809 -3.86789 0
M  V30 1345 H 130.213 -0.316774 -4.27428 0
M  V30 1346 H 134.397 -1.12167 -4.83459 0
M  V30 1347 H 129.653 -2.25063 -5.68469 0
M  V30 1348 H 133.827 -3.05401 -6.25862 0
M  V30 1349 H 131.454 -3.6244 -6.68237 0
M  V30 1350 N 133.029 1.57378 -0.0835403 0
M  V30 1351 C 134.276 1.9393 0.58287 0
M  V30 1352 C 134.604 0.964455 1.68904 0
M  V30 1353 O 133.859 -0.0179474 1.95692 0
M  V30 1354 C 134.158 3.37063 1.1884 0
M  V30 1355 C 133.824 4.50424 0.207194 0
M  V30 1356 C 132.486 4.81159 -0.0627115 0
M  V30 1357 C 134.838 5.19136 -0.463426 0
M  V30 1358 C 132.166 5.77939 -1.01012 0
M  V30 1359 C 134.518 6.16931 -1.39924 0
M  V30 1360 C 133.182 6.46078 -1.67749 0
M  V30 1361 H 132.452 0.70964 0.213287 0
M  V30 1362 H 135.099 1.90856 -0.156916 0
M  V30 1363 H 133.404 3.3666 2.00418 0
M  V30 1364 H 135.101 3.6264 1.71153 0
M  V30 1365 H 131.691 4.2646 0.427747 0
M  V30 1366 H 135.875 4.95576 -0.268034 0
M  V30 1367 H 131.131 5.98842 -1.23283 0
M  V30 1368 H 135.305 6.69273 -1.92476 0
M  V30 1369 H 132.932 7.2088 -2.41321 0
M  V30 1370 N 134.507 -0.190092 1.56449 0
M  V30 1371 C 135.918 -0.754312 1.70784 0
M  V30 1372 C 136.269 -1.83631 0.690951 0
M  V30 1373 O 135.394 -2.15868 -0.151604 0
M  V30 1374 C 135.989 -1.37503 3.09642 0
M  V30 1375 C 134.548 -1.88628 3.25725 0
M  V30 1376 C 133.695 -0.758098 2.66736 0
M  V30 1377 H 136.646 0.0350524 1.58661 0
M  V30 1378 H 136.667 -2.2445 3.0725 0
M  V30 1379 H 136.179 -0.587302 3.83631 0
M  V30 1380 H 134.28 -2.70103 2.56661 0
M  V30 1381 H 134.393 -2.04462 4.3328 0
M  V30 1382 H 132.757 -1.17369 2.26046 0
M  V30 1383 H 133.54 0.0174705 3.43296 0
M  V30 1384 N 135.985 -1.50799 -0.457987 0
M  V30 1385 C 136.932 -1.70617 -1.5543 0
M  V30 1386 C 137.902 -0.547562 -1.56815 0
M  V30 1387 O 139.087 -0.779647 -1.74144 0
M  V30 1388 C 136.227 -1.81831 -2.93311 0
M  V30 1389 C 135.34 -3.09278 -3.01615 0
M  V30 1390 C 134.475 -3.11209 -4.30491 0
M  V30 1391 C 133.514 -4.33055 -4.32585 0
M  V30 1392 N 132.651 -4.32652 -5.52952 0
M  V30 1393 H 137.491 -2.64207 -1.37836 0
M  V30 1394 H 135.028 -1.30959 -0.669937 0
M  V30 1395 H 136.986 -1.86314 -3.73287 0
M  V30 1396 H 135.616 -0.916685 -3.0951 0
M  V30 1397 H 134.668 -3.14203 -2.1443 0
M  V30 1398 H 135.98 -3.99233 -2.99022 0
M  V30 1399 H 135.134 -3.14494 -5.18824 0
M  V30 1400 H 133.873 -2.19106 -4.35711 0
M  V30 1401 H 132.878 -4.29969 -3.42647 0
M  V30 1402 H 134.103 -5.264 -4.29046 0
M  V30 1403 H 132.049 -3.43409 -5.58933 0
M  V30 1404 H 131.966 -5.16392 -5.52155 0
M  V30 1405 H 133.234 -4.40101 -6.43375 0
M  V30 1406 N 137.463 0.71206 -1.40597 0
M  V30 1407 C 138.74 1.46536 -1.29563 0
M  V30 1408 C 139.12 2.10931 0.0844217 0
M  V30 1409 O 138.468 2.00418 1.0975 0
M  V30 1410 C 138.678 2.49821 -2.43701 0
M  V30 1411 C 140.026 3.15551 -2.841 0
M  V30 1412 O 141.05 2.60142 -2.4332 0
M  V30 1413 O 139.909 4.15867 -3.54566 0
M  V30 1414 H 137.003 0.651801 -0.509004 0
M  V30 1415 H 139.549 0.743935 -1.52524 0
M  V30 1416 H 138.321 2.00778 -3.35863 0
M  V30 1417 H 137.944 3.29495 -2.22528 0
M  V30 1418 N 138.941 1.26152 0.944643 0
M  V30 1419 C 140.19 1.10883 1.68487 0
M  V30 1420 C 140.503 -0.348153 1.92477 0
M  V30 1421 O 141.709 -0.621459 2.64292 0
M  V30 1422 C 140.165 1.93624 3.03377 0
M  V30 1423 C 139.773 3.43875 2.87148 0
M  V30 1424 C 141.517 1.86954 3.81115 0
M  V30 1425 C 139.424 4.18875 4.1749 0
M  V30 1426 H 138.354 0.41135 0.631907 0
M  V30 1427 H 141.005 1.50433 1.05082 0
M  V30 1428 H 139.387 1.46904 3.67743 0
M  V30 1429 H 140.561 3.98338 2.31653 0
M  V30 1430 H 138.876 3.51744 2.22856 0
M  V30 1431 H 141.473 2.40275 4.77673 0
M  V30 1432 H 141.816 0.839518 4.07747 0
M  V30 1433 H 142.349 2.31477 3.23517 0
M  V30 1434 H 139.088 5.22332 3.96043 0
M  V30 1435 H 138.608 3.69193 4.72712 0
M  V30 1436 H 140.287 4.27134 4.85968 0
M  V30 1437 N 140.419 -1.14872 1.07899 0
M  V30 1438 C 141.349 -2.2193 0.725887 0
M  V30 1439 C 142.33 -1.67622 -0.28927 0
M  V30 1440 O 143.515 -1.93533 -0.160787 0
M  V30 1441 C 140.645 -3.47061 0.128856 0
M  V30 1442 C 139.599 -4.14363 1.07178 0
M  V30 1443 C 138.925 -5.33636 0.337229 0
M  V30 1444 C 140.225 -4.63492 2.40775 0
M  V30 1445 H 141.919 -2.51724 1.62097 0
M  V30 1446 H 139.465 -1.20991 0.780838 0
M  V30 1447 H 141.418 -4.21199 -0.130147 0
M  V30 1448 H 140.142 -3.16617 -0.80134 0
M  V30 1449 H 138.801 -3.42173 1.3158 0
M  V30 1450 H 138.449 -4.99449 -0.596606 0
M  V30 1451 H 138.149 -5.79609 0.965788 0
M  V30 1452 H 139.673 -6.10539 0.0861567 0
M  V30 1453 H 141.087 -5.2913 2.20669 0
M  V30 1454 H 139.484 -5.20148 2.99276 0
M  V30 1455 H 140.554 -3.78834 3.02676 0
M  V30 1456 N 141.898 -0.863906 -1.31812 0
M  V30 1457 C 143.126 -0.486111 -2.01108 0
M  V30 1458 C 143.541 0.919755 -1.64882 0
M  V30 1459 O 142.898 1.60162 -0.874893 0
M  V30 1460 C 142.949 -0.626435 -3.56031 0
M  V30 1461 O 142.67 -1.97693 -3.90959 0
M  V30 1462 C 144.171 -0.248857 -4.42601 0
M  V30 1463 H 141.391 -0.190052 -0.643523 0
M  V30 1464 H 143.935 -1.1634 -1.68182 0
M  V30 1465 H 142.09 0.00322717 -3.874 0
M  V30 1466 H 142.504 -1.98034 -4.85678 0
M  V30 1467 H 143.978 -0.398016 -5.50563 0
M  V30 1468 H 144.455 0.811489 -4.31638 0
M  V30 1469 H 145.061 -0.853971 -4.16638 0
M  V30 1470 N 143.376 1.44774 -0.622745 0
M  V30 1471 C 144.306 2.33382 0.0741861 0
M  V30 1472 C 145.287 1.47719 0.843387 0
M  V30 1473 O 146.472 1.76458 0.810934 0
M  V30 1474 C 143.602 3.30663 1.06204 0
M  V30 1475 C 142.556 4.26079 0.405037 0
M  V30 1476 C 141.882 5.13165 1.5022 0
M  V30 1477 C 143.182 5.1781 -0.683414 0
M  V30 1478 H 144.876 2.91905 -0.665713 0
M  V30 1479 H 142.422 1.40363 -0.321587 0
M  V30 1480 H 144.375 3.9153 1.55827 0
M  V30 1481 H 143.099 2.70331 1.83272 0
M  V30 1482 H 141.758 3.66532 -0.0704683 0
M  V30 1483 H 141.406 4.49191 2.26355 0
M  V30 1484 H 141.106 5.77812 1.06803 0
M  V30 1485 H 142.63 5.76902 2.00041 0
M  V30 1486 H 144.044 5.72661 -0.270631 0
M  V30 1487 H 142.441 5.91015 -1.04023 0
M  V30 1488 H 143.511 4.59326 -1.55395 0
M  V30 1489 N 144.854 0.36279 1.53368 0
M  V30 1490 C 146.27 0.0116182 1.59596 0
M  V30 1491 C 146.47 -1.47012 1.37803 0
M  V30 1492 O 145.526 -2.23136 1.18181 0
M  V30 1493 C 146.839 0.465052 2.97082 0
M  V30 1494 C 148.387 0.419033 3.10182 0
M  V30 1495 C 148.862 0.848235 4.50077 0
M  V30 1496 N 150.353 0.803183 4.56183 0
M  V30 1497 C 151.088 1.107 5.62613 0
M  V30 1498 N 150.584 1.47996 6.76808 0
M  V30 1499 N 152.377 1.02998 5.52583 0
M  V30 1500 H 144.528 1.32775 1.65785 0
M  V30 1501 H 146.791 0.542518 0.777417 0
M  V30 1502 H 146.497 1.49892 3.18159 0
M  V30 1503 H 146.371 -0.149786 3.76902 0
M  V30 1504 H 148.758 -0.605696 2.88817 0
M  V30 1505 H 148.839 1.06933 2.32377 0
M  V30 1506 H 148.483 1.87107 4.7218 0
M  V30 1507 H 148.413 0.175218 5.26308 0
M  V30 1508 H 150.904 0.52838 3.74188 0
M  V30 1509 H 151.217 1.69613 7.53957 0
M  V30 1510 H 149.562 1.51859 6.78206 0
M  V30 1511 H 152.753 0.737817 4.62249 0
M  V30 1512 H 152.926 1.2701 6.35431 0
M  V30 1513 N 146.332 -1.57332 0.0918853 0
M  V30 1514 C 147.262 -2.16872 -0.865371 0
M  V30 1515 C 148.243 -1.10118 -1.29646 0
M  V30 1516 O 149.428 -1.38242 -1.36392 0
M  V30 1517 C 146.558 -2.74649 -2.12569 0
M  V30 1518 C 145.512 -3.86747 -1.83333 0
M  V30 1519 C 144.838 -4.31212 -3.16166 0
M  V30 1520 C 146.138 -5.10089 -1.1228 0
M  V30 1521 H 147.832 -2.97114 -0.369307 0
M  V30 1522 H 145.378 -1.42918 -0.176194 0
M  V30 1523 H 147.331 -3.14952 -2.7997 0
M  V30 1524 H 146.055 -1.91657 -2.64452 0
M  V30 1525 H 144.714 -3.46978 -1.18331 0
M  V30 1526 H 144.362 -3.45115 -3.6593 0
M  V30 1527 H 144.062 -5.06788 -2.97388 0
M  V30 1528 H 145.586 -4.74146 -3.84731 0
M  V30 1529 H 147 -5.47582 -1.69785 0
M  V30 1530 H 145.397 -5.91073 -1.03693 0
M  V30 1531 H 146.467 -4.84786 -0.105041 0
M  V30 1532 N 147.81 0.181792 -1.56548 0
M  V30 1533 C 149.087 0.926765 -1.72251 0
M  V30 1534 C 149.467 2.00831 -0.650386 0
M  V30 1535 O 148.815 2.26008 0.336521 0
M  V30 1536 C 149.025 1.50106 -3.1507 0
M  V30 1537 C 150.373 1.97805 -3.75711 0
M  V30 1538 O 151.397 1.59922 -3.18282 0
M  V30 1539 O 150.256 2.67555 -4.76525 0
M  V30 1540 H 147.35 0.435506 -0.703039 0
M  V30 1541 H 149.896 0.170443 -1.68842 0
M  V30 1542 H 148.668 0.72212 -3.84579 0
M  V30 1543 H 148.291 2.32186 -3.22763 0
M  V30 1544 N 149.288 1.51039 0.449983 0
M  V30 1545 C 150.534 1.63322 1.20223 0
M  V30 1546 C 150.867 0.34241 1.91158 0
M  V30 1547 O 150.142 -0.657344 1.83055 0
M  V30 1548 C 150.425 2.82801 2.22925 0
M  V30 1549 C 150.278 4.21823 1.56157 0
M  V30 1550 C 151.597 2.97807 3.24035 0
M  V30 1551 H 148.716 0.594407 0.435718 0
M  V30 1552 H 151.358 1.83489 0.493136 0
M  V30 1553 H 149.508 2.65738 2.834 0
M  V30 1554 H 151.18 4.50526 0.991162 0
M  V30 1555 H 149.423 4.25105 0.864172 0
M  V30 1556 H 150.094 5.01391 2.30891 0
M  V30 1557 H 152.57 3.13497 2.73603 0
M  V30 1558 H 151.446 3.82992 3.93202 0
M  V30 1559 H 151.707 2.09328 3.89402 0
M  V30 1560 N 150.766 -0.704594 1.40972 0
M  V30 1561 C 151.699 -1.82861 1.36518 0
M  V30 1562 C 152.677 -1.6091 0.23382 0
M  V30 1563 O 153.861 -1.83778 0.419271 0
M  V30 1564 C 150.988 -3.1939 1.12729 0
M  V30 1565 C 150.034 -3.60148 2.28463 0
M  V30 1566 S 150.867 -3.65994 3.90907 0
M  V30 1567 C 152.023 -5.05264 3.69403 0
M  V30 1568 H 152.256 -1.86361 2.3164 0
M  V30 1569 H 149.789 -0.872439 1.27389 0
M  V30 1570 H 151.747 -3.98211 0.996893 0
M  V30 1571 H 150.408 -3.1351 0.192427 0
M  V30 1572 H 149.601 -4.59309 2.07489 0
M  V30 1573 H 149.203 -2.88612 2.37863 0
M  V30 1574 H 151.495 -5.92504 3.28551 0
M  V30 1575 H 152.438 -5.31278 4.68134 0
M  V30 1576 H 152.846 -4.76377 3.02862 0
M  V30 1577 N 152.244 -1.26651 -0.937939 0
M  V30 1578 C 153.177 -1.02811 -2.03728 0
M  V30 1579 C 154.155 0.0481915 -1.62529 0
M  V30 1580 O 155.339 -0.0948839 -1.88261 0
M  V30 1581 C 152.466 -0.557517 -3.3408 0
M  V30 1582 C 151.512 -1.62686 -3.94253 0
M  V30 1583 S 152.345 -3.21667 -4.28125 0
M  V30 1584 C 153.501 -2.76384 -5.61572 0
M  V30 1585 H 153.734 -1.95891 -2.23638 0
M  V30 1586 H 151.267 -1.10367 -1.07974 0
M  V30 1587 H 153.225 -0.292674 -4.09455 0
M  V30 1588 H 151.886 0.353062 -3.12109 0
M  V30 1589 H 151.079 -1.24866 -4.88287 0
M  V30 1590 H 150.681 -1.84324 -3.25424 0
M  V30 1591 H 152.973 -2.2105 -6.40424 0
M  V30 1592 H 153.916 -3.69123 -6.0428 0
M  V30 1593 H 154.324 -2.15847 -5.21604 0
M  V30 1594 N 153.722 1.14298 -1.08507 0
M  V30 1595 C 154.632 2.23027 -0.727753 0
M  V30 1596 C 155.648 1.71952 0.26619 0
M  V30 1597 O 156.824 2.011 0.109882 0
M  V30 1598 C 153.889 3.46403 -0.143541 0
M  V30 1599 C 152.95 4.12413 -1.19223 0
M  V30 1600 C 152.183 5.29899 -0.635798 0
M  V30 1601 O 152.406 5.67796 0.544393 0
M  V30 1602 O 151.34 5.85717 -1.38634 0
M  V30 1603 H 155.166 2.55945 -1.63481 0
M  V30 1604 H 152.751 1.22248 -0.858817 0
M  V30 1605 H 154.633 4.21018 0.179404 0
M  V30 1606 H 153.308 3.15206 0.736659 0
M  V30 1607 H 152.215 3.39667 -1.56772 0
M  V30 1608 H 153.548 4.47718 -2.04474 0
M  V30 1609 N 155.201 0.870884 1.31352 0
M  V30 1610 C 156.429 0.49677 2.00848 0
M  V30 1611 C 156.844 -0.910998 1.65367 0
M  V30 1612 O 156.201 -1.59696 0.883374 0
M  V30 1613 C 156.252 0.645308 3.55694 0
M  V30 1614 O 155.973 1.99764 3.89905 0
M  V30 1615 C 157.474 0.272326 4.42463 0
M  V30 1616 H 154.694 0.193462 0.642506 0
M  V30 1617 H 157.238 1.1723 1.67563 0
M  V30 1618 H 155.393 0.0173176 3.87396 0
M  V30 1619 H 155.807 2.00607 4.84621 0
M  V30 1620 H 157.281 0.427208 5.50344 0
M  V30 1621 H 157.758 -0.788587 4.32062 0
M  V30 1622 H 158.364 0.876054 4.1618 0
M  V30 1623 N 156.679 -1.44442 0.630414 0
M  V30 1624 C 157.589 -2.34476 -0.0761693 0
M  V30 1625 C 158.605 -1.52576 -0.836449 0
M  V30 1626 O 159.781 -1.85307 -0.788874 0
M  V30 1627 C 156.846 -3.30545 -1.04599 0
M  V30 1628 C 155.907 -4.28352 -0.28516 0
M  V30 1629 C 155.14 -5.19831 -1.20878 0
M  V30 1630 O 155.363 -5.15223 -2.44747 0
M  V30 1631 O 154.297 -5.97892 -0.693491 0
M  V30 1632 H 158.123 -2.96345 0.664324 0
M  V30 1633 H 155.708 -1.44203 0.39061 0
M  V30 1634 H 157.59 -3.89681 -1.60396 0
M  V30 1635 H 156.265 -2.7121 -1.76711 0
M  V30 1636 H 155.172 -3.72764 0.315837 0
M  V30 1637 H 156.505 -4.90605 0.395924 0
M  V30 1638 N 158.157 -0.370918 -1.53173 0
M  V30 1639 C 159.105 0.488101 -2.27421 0
M  V30 1640 C 160.099 1.07884 -1.30604 0
M  V30 1641 O 161.305 1.02143 -1.48212 0
M  V30 1642 H 157.68 0.176134 -0.731082 0
M  V30 1643 H 159.651 -0.159815 -2.97972 0
M  V30 1644 C 158.4 1.61306 -3.08019 0
M  V30 1645 H 157.723 1.1678 -3.82364 0
M  V30 1646 H 159.163 2.18872 -3.63141 0
M  V30 1647 C 157.622 2.55848 -2.19188 0
M  V30 1648 O 158.152 3.58799 -1.80626 0
M  V30 1649 N 156.358 2.2516 -1.83715 0
M  V30 1650 H 155.905 1.41476 -2.15273 0
M  V30 1651 H 155.863 2.8867 -1.24567 0
M  V30 1652 N 159.635 1.57281 -0.100228 0
M  V30 1653 C 161.051 1.57527 0.256416 0
M  V30 1654 C 161.251 1.11173 1.68056 0
M  V30 1655 O 160.307 0.79053 2.39806 0
M  V30 1656 C 161.62 3.00673 0.0401747 0
M  V30 1657 C 163.168 3.12815 0.107528 0
M  V30 1658 C 163.643 4.57929 -0.0807834 0
M  V30 1659 N 165.134 4.63193 -0.0261207 0
M  V30 1660 C 165.869 5.73212 -0.146999 0
M  V30 1661 N 165.365 6.92047 -0.322999 0
M  V30 1662 N 167.158 5.62031 -0.0879044 0
M  V30 1663 H 159.309 1.85718 -1.03065 0
M  V30 1664 H 161.572 0.857446 -0.404339 0
M  V30 1665 H 161.278 3.38804 -0.943649 0
M  V30 1666 H 161.152 3.69042 0.780262 0
M  V30 1667 H 163.539 2.74554 1.08186 0
M  V30 1668 H 163.62 2.47028 -0.664134 0
M  V30 1669 H 163.264 4.96886 -1.05201 0
M  V30 1670 H 163.194 5.21783 0.710635 0
M  V30 1671 H 165.685 3.77748 0.107161 0
M  V30 1672 H 165.998 7.7173 -0.406608 0
M  V30 1673 H 164.343 6.94074 -0.358733 0
M  V30 1674 H 167.534 4.68075 0.048498 0
M  V30 1675 H 167.707 6.47734 -0.185557 0
M  V30 1676 N 161.113 -0.173488 1.56642 0
M  V30 1677 C 162.043 -1.2171 1.99271 0
M  V30 1678 C 163.024 -1.46289 0.867959 0
M  V30 1679 O 164.209 -1.5766 1.13388 0
M  V30 1680 C 161.339 -2.55651 2.35074 0
M  V30 1681 C 160.293 -2.45645 3.50489 0
M  V30 1682 C 159.619 -3.84056 3.72028 0
M  V30 1683 C 160.919 -1.96302 4.84007 0
M  V30 1684 H 162.613 -0.86275 2.867 0
M  V30 1685 H 160.159 -0.413571 1.37933 0
M  V30 1686 H 162.112 -3.2886 2.63494 0
M  V30 1687 H 160.836 -2.92869 1.44552 0
M  V30 1688 H 159.495 -1.7489 3.22194 0
M  V30 1689 H 159.143 -4.18664 2.788 0
M  V30 1690 H 158.843 -3.7823 4.49684 0
M  V30 1691 H 160.367 -4.58854 4.02846 0
M  V30 1692 H 161.781 -2.59284 5.11317 0
M  V30 1693 H 160.178 -2.01429 5.65284 0
M  V30 1694 H 161.248 -0.917226 4.76146 0
M  V30 1695 N 162.591 -1.51276 -0.441967 0
M  V30 1696 C 163.541 -1.6864 -1.53442 0
M  V30 1697 C 164.525 -0.540444 -1.51552 0
M  V30 1698 O 165.717 -0.796157 -1.58083 0
M  V30 1699 C 162.846 -1.8106 -2.91672 0
M  V30 1700 C 161.932 -3.01424 -2.98336 0
M  V30 1701 N 162.323 -4.2467 -2.74752 0
M  V30 1702 C 160.621 -3.00584 -3.29493 0
M  V30 1703 C 161.322 -5.05891 -2.87139 0
M  V30 1704 N 160.298 -4.40442 -3.18609 0
M  V30 1705 H 164.1 -2.61598 -1.33954 0
M  V30 1706 H 161.614 -1.4886 -0.6492 0
M  V30 1707 H 163.611 -1.91609 -3.70259 0
M  V30 1708 H 162.271 -0.892795 -3.12185 0
M  V30 1709 H 163.282 -4.53691 -2.49769 0
M  V30 1710 H 159.959 -2.18417 -3.55809 0
M  V30 1711 H 161.349 -6.13983 -2.72899 0
M  V30 1712 N 164.069 0.697108 -1.41344 0
M  V30 1713 C 165.316 1.45714 -1.40619 0
M  V30 1714 C 165.644 1.94494 -0.0147907 0
M  V30 1715 O 164.899 1.69794 0.973066 0
M  V30 1716 C 165.198 2.68553 -2.35826 0
M  V30 1717 C 164.864 2.38438 -3.82698 0
M  V30 1718 C 163.526 2.29936 -4.22709 0
M  V30 1719 C 165.878 2.13567 -4.75435 0
M  V30 1720 C 163.206 1.94656 -5.53467 0
M  V30 1721 C 165.558 1.79797 -6.06511 0
M  V30 1722 C 164.222 1.69789 -6.45545 0
M  V30 1723 H 163.492 0.533206 -0.51456 0
M  V30 1724 H 166.139 0.796901 -1.74131 0
M  V30 1725 H 164.444 3.39503 -1.95563 0
M  V30 1726 H 166.141 3.2669 -2.32539 0
M  V30 1727 H 162.731 2.4595 -3.51008 0
M  V30 1728 H 166.915 2.19082 -4.45328 0
M  V30 1729 H 162.171 1.8546 -5.82593 0
M  V30 1730 H 166.345 1.59572 -6.77872 0
M  V30 1731 H 163.972 1.4222 -7.46778 0
M  V30 1732 N 165.547 1.27147 0.931209 0
M  V30 1733 C 166.775 1.16082 1.71267 0
M  V30 1734 C 167.19 -0.282772 1.8667 0
M  V30 1735 O 166.547 -1.19283 1.38122 0
M  V30 1736 C 166.598 1.8358 3.11417 0
M  V30 1737 O 166.319 3.22299 2.96741 0
M  V30 1738 C 167.82 1.78597 4.05732 0
M  V30 1739 H 165.04 0.403758 0.535929 0
M  V30 1740 H 167.584 1.67953 1.16671 0
M  V30 1741 H 165.739 1.35623 3.62885 0
M  V30 1742 H 166.153 3.55851 3.85319 0
M  V30 1743 H 167.627 2.30444 5.01597 0
M  V30 1744 H 168.104 0.754564 4.3267 0
M  V30 1745 H 168.71 2.26152 3.60188 0
M  V30 1746 N 167.025 -1.13721 1.09112 0
M  V30 1747 C 168.274 -1.84275 0.82009 0
M  V30 1748 C 168.587 -1.84253 -0.656509 0
M  V30 1749 O 169.793 -2.50668 -1.04296 0
M  V30 1750 C 168.249 -3.30825 1.41714 0
M  V30 1751 C 167.857 -3.39244 2.92605 0
M  V30 1752 C 169.601 -4.06443 1.22492 0
M  V30 1753 C 167.508 -4.80047 3.45411 0
M  V30 1754 H 166.438 -0.690387 0.30312 0
M  V30 1755 H 169.089 -1.28146 1.31343 0
M  V30 1756 H 167.471 -3.86737 0.851498 0
M  V30 1757 H 168.645 -2.93344 3.55367 0
M  V30 1758 H 166.96 -2.77088 3.10823 0
M  V30 1759 H 169.557 -5.10387 1.59402 0
M  V30 1760 H 169.9 -4.15972 0.165299 0
M  V30 1761 H 170.433 -3.56852 1.75788 0
M  V30 1762 H 167.172 -4.75709 4.50978 0
M  V30 1763 H 166.692 -5.26455 2.87411 0
M  V30 1764 H 168.371 -5.48957 3.42425 0
M  V30 1765 N 168.503 -0.877838 -1.30888 0
M  V30 1766 C 169.45 -0.337538 -2.28318 0
M  V30 1767 C 170.42 0.568346 -1.56074 0
M  V30 1768 O 171.605 0.498298 -1.84178 0
M  V30 1769 C 168.745 0.448142 -3.42178 0
M  V30 1770 C 167.858 -0.48615 -4.29256 0
M  V30 1771 C 166.993 0.314427 -5.30269 0
M  V30 1772 C 166.032 -0.615791 -6.08995 0
M  V30 1773 N 165.169 0.14902 -7.01942 0
M  V30 1774 H 170.009 -1.17356 -2.73919 0
M  V30 1775 H 167.546 -0.590094 -1.34745 0
M  V30 1776 H 169.504 0.919517 -4.06941 0
M  V30 1777 H 168.134 1.24879 -2.97666 0
M  V30 1778 H 167.186 -1.076 -3.64865 0
M  V30 1779 H 168.498 -1.19909 -4.84173 0
M  V30 1780 H 167.652 0.847969 -6.00745 0
M  V30 1781 H 166.391 1.06062 -4.76027 0
M  V30 1782 H 165.396 -1.16102 -5.37401 0
M  V30 1783 H 166.621 -1.36097 -6.65323 0
M  V30 1784 H 164.567 0.877884 -6.50099 0
M  V30 1785 H 164.484 -0.504433 -7.54315 0
M  V30 1786 H 165.752 0.663537 -7.76671 0
M  V30 1787 N 169.982 1.44106 -0.638065 0
M  V30 1788 C 171.259 1.95453 -0.0759321 0
M  V30 1789 C 171.639 1.57984 1.40015 0
M  V30 1790 O 170.987 0.857361 2.11806 0
M  V30 1791 C 171.197 3.47655 -0.306132 0
M  V30 1792 C 172.545 4.24114 -0.203008 0
M  V30 1793 O 173.569 3.55405 -0.237871 0
M  V30 1794 O 172.428 5.46381 -0.113827 0
M  V30 1795 H 169.522 0.826797 0.0183332 0
M  V30 1796 H 172.068 1.54122 -0.710251 0
M  V30 1797 H 170.84 3.68 -1.3301 0
M  V30 1798 H 170.463 3.95949 0.361991 0
M  V30 1799 N 171.46 0.379036 1.52974 0
M  V30 1800 C 172.871 -0.0972525 1.86447 0
M  V30 1801 C 173.222 -1.47027 1.29914 0
M  V30 1802 O 172.347 -2.07135 0.626433 0
M  V30 1803 C 172.942 -0.183248 3.38304 0
M  V30 1804 C 171.501 -0.603812 3.71525 0
M  V30 1805 C 170.648 0.240632 2.76254 0
M  V30 1806 H 173.599 0.597316 1.4703 0
M  V30 1807 H 173.62 -1.00432 3.67006 0
M  V30 1808 H 173.132 0.816191 3.79421 0
M  V30 1809 H 171.233 -1.61099 3.35973 0
M  V30 1810 H 171.346 -0.369086 4.77676 0
M  V30 1811 H 169.71 -0.292548 2.53014 0
M  V30 1812 H 170.493 1.23786 3.20206 0
M  V30 1813 N 172.938 -1.57226 0.108567 0
M  V30 1814 C 173.901 -2.13602 -0.831082 0
M  V30 1815 C 174.901 -1.06841 -1.20173 0
M  V30 1816 O 176.091 -1.32666 -1.12895 0
M  V30 1817 C 173.223 -2.66769 -2.12243 0
M  V30 1818 H 174.416 -2.97951 -0.341317 0
M  V30 1819 H 171.969 -1.55667 -0.14057 0
M  V30 1820 H 172.704 -1.85977 -2.65675 0
M  V30 1821 H 172.489 -3.44839 -1.86625 0
M  V30 1822 H 173.979 -3.10332 -2.79435 0
M  V30 1823 N 174.416 0.165178 -1.56732 0
M  V30 1824 C 175.364 1.22369 -1.97809 0
M  V30 1825 C 176.358 1.45488 -0.867741 0
M  V30 1826 O 177.564 1.45995 -1.05288 0
M  V30 1827 H 173.939 0.411486 -0.629431 0
M  V30 1828 H 175.91 0.850425 -2.86025 0
M  V30 1829 C 174.659 2.55403 -2.35934 0
M  V30 1830 H 173.982 2.38438 -3.20916 0
M  V30 1831 H 175.422 3.2814 -2.68514 0
M  V30 1832 C 173.881 3.14611 -1.20506 0
M  V30 1833 O 174.411 3.98626 -0.496016 0
M  V30 1834 N 172.617 2.7379 -0.97403 0
M  V30 1835 H 172.164 2.0557 -1.55238 0
M  V30 1836 H 172.122 3.1374 -0.203573 0
M  V30 1837 N 175.894 1.51508 0.433938 0
M  V30 1838 C 177.31 1.39759 0.770682 0
M  V30 1839 C 177.51 0.482594 1.95636 0
M  V30 1840 O 176.566 -0.0609691 2.52426 0
M  V30 1841 C 177.879 2.81851 1.04787 0
M  V30 1842 C 179.427 2.91025 1.1521 0
M  V30 1843 C 179.902 4.34032 1.46219 0
M  V30 1844 N 181.393 4.37154 1.53136 0
M  V30 1845 C 182.128 5.4484 1.78709 0
M  V30 1846 N 181.624 6.62682 2.02051 0
M  V30 1847 N 183.417 5.32324 1.80519 0
M  V30 1848 H 175.568 2.09548 -0.346892 0
M  V30 1849 H 177.831 0.943446 -0.0928074 0
M  V30 1850 H 177.537 3.50815 0.249304 0
M  V30 1851 H 177.411 3.21386 1.97461 0
M  V30 1852 H 179.798 2.22257 1.94128 0
M  V30 1853 H 179.879 2.54983 0.204281 0
M  V30 1854 H 179.523 5.03351 0.678274 0
M  V30 1855 H 179.453 4.6759 2.42212 0
M  V30 1856 H 181.944 3.52197 1.36987 0
M  V30 1857 H 182.257 7.40543 2.20943 0
M  V30 1858 H 180.602 6.65791 1.99366 0
M  V30 1859 H 183.793 4.39246 1.61805 0
M  V30 1860 H 183.966 6.16328 2.00111 0
M  V30 1861 N 177.372 -0.689602 1.41712 0
M  V30 1862 C 178.788 -1.00093 1.24312 0
M  V30 1863 C 178.988 -2.01036 0.136729 0
M  V30 1864 O 178.044 -2.47562 -0.496918 0
M  V30 1865 C 179.357 -1.51985 2.59463 0
M  V30 1866 C 180.905 -1.63838 2.66695 0
M  V30 1867 C 181.38 -2.1913 4.02177 0
M  V30 1868 N 182.871 -2.26483 4.04054 0
M  V30 1869 C 183.606 -2.70306 5.0569 0
M  V30 1870 N 183.102 -3.13691 6.17713 0
M  V30 1871 N 184.895 -2.69923 4.9305 0
M  V30 1872 H 177.046 -0.0210029 2.1239 0
M  V30 1873 H 179.309 -0.0718733 0.945272 0
M  V30 1874 H 179.015 -0.85269 3.41207 0
M  V30 1875 H 178.889 -2.50103 2.82362 0
M  V30 1876 H 181.276 -2.29664 1.85306 0
M  V30 1877 H 181.357 -0.642492 2.476 0
M  V30 1878 H 181.001 -1.53918 4.84016 0
M  V30 1879 H 180.931 -3.19482 4.18615 0
M  V30 1880 H 183.422 -1.95874 3.23174 0
M  V30 1881 H 183.735 -3.45773 6.9113 0
M  V30 1882 H 182.08 -3.11585 6.21241 0
M  V30 1883 H 185.271 -2.35382 4.04614 0
M  V30 1884 H 185.444 -3.03758 5.72394 0
M  V30 1885 N 178.85 -1.27639 -0.924453 0
M  V30 1886 C 180.08 -1.16819 -1.70402 0
M  V30 1887 C 180.488 0.277191 -1.87158 0
M  V30 1888 O 179.831 1.20025 -1.39067 0
M  V30 1889 C 179.893 -1.78305 -3.12166 0
M  V30 1890 C 179.557 -3.27502 -3.18734 0
M  V30 1891 C 180.554 -4.2409 -3.00738 0
M  V30 1892 C 178.239 -3.68269 -3.4159 0
M  V30 1893 C 180.233 -5.59422 -3.05492 0
M  V30 1894 C 177.92 -5.0373 -3.45977 0
M  V30 1895 C 178.918 -5.99116 -3.27946 0
M  V30 1896 O 178.606 -7.32108 -3.32074 0
M  V30 1897 H 178.338 -0.406931 -0.539799 0
M  V30 1898 H 180.892 -1.69078 -1.16626 0
M  V30 1899 H 179.122 -1.20528 -3.67437 0
M  V30 1900 H 180.811 -1.62154 -3.72103 0
M  V30 1901 H 181.577 -3.93931 -2.82919 0
M  V30 1902 H 177.456 -2.94496 -3.54673 0
M  V30 1903 H 181 -6.33852 -2.91337 0
M  V30 1904 H 176.897 -5.33543 -3.63321 0
M  V30 1905 H 177.665 -7.40598 -3.48507 0
M  V30 1906 N 180.328 1.1314 -1.09713 0
M  V30 1907 C 181.238 2.22242 -0.751367 0
M  V30 1908 C 182.254 1.72224 0.247938 0
M  V30 1909 O 183.43 2.01205 0.0885463 0
M  V30 1910 C 180.495 3.46231 -0.180274 0
M  V30 1911 C 179.556 4.11125 -1.2359 0
M  V30 1912 C 178.789 5.29195 -0.691966 0
M  V30 1913 O 179.012 5.68342 0.48414 0
M  V30 1914 O 177.946 5.84214 -1.44838 0
M  V30 1915 H 181.772 2.54197 -1.66186 0
M  V30 1916 H 179.357 1.21331 -0.871735 0
M  V30 1917 H 181.239 4.21185 0.134739 0
M  V30 1918 H 179.914 3.1597 0.703185 0
M  V30 1919 H 178.821 3.37985 -1.60366 0
M  V30 1920 H 180.154 4.45524 -2.09211 0
M  V30 1921 N 181.806 0.884767 1.30421 0
M  V30 1922 C 183.052 0.503851 1.96441 0
M  V30 1923 C 183.385 -0.944518 1.69684 0
M  V30 1924 O 182.66 -1.66737 1.00145 0
M  V30 1925 C 182.943 0.779085 3.51571 0
M  V30 1926 C 182.796 2.27807 3.87846 0
M  V30 1927 C 184.115 0.255452 4.39358 0
M  V30 1928 H 181.234 0.184533 0.713524 0
M  V30 1929 H 183.876 1.10872 1.54297 0
M  V30 1930 H 182.026 0.264274 3.876 0
M  V30 1931 H 183.698 2.86127 3.61841 0
M  V30 1932 H 181.941 2.74479 3.35922 0
M  V30 1933 H 182.612 2.42125 4.96064 0
M  V30 1934 H 185.088 0.696079 4.10236 0
M  V30 1935 H 183.964 0.477361 5.4682 0
M  V30 1936 H 184.225 -0.843293 4.33983 0
M  V30 1937 N 183.284 -1.43765 0.645699 0
M  V30 1938 C 184.695 -1.85193 0.236719 0
M  V30 1939 C 185.046 -1.54045 -1.21509 0
M  V30 1940 O 184.171 -0.985694 -1.92647 0
M  V30 1941 C 184.766 -3.36151 0.422845 0
M  V30 1942 C 183.325 -3.76338 0.0682492 0
M  V30 1943 C 182.472 -2.67538 0.729306 0
M  V30 1944 H 185.423 -1.34025 0.849883 0
M  V30 1945 H 185.444 -3.79032 -0.333904 0
M  V30 1946 H 184.956 -3.5879 1.47958 0
M  V30 1947 H 183.057 -3.59312 -0.986179 0
M  V30 1948 H 183.17 -4.76603 0.488469 0
M  V30 1949 H 181.534 -2.54176 0.163235 0
M  V30 1950 H 182.317 -2.93006 1.78892 0
M  V30 1951 N 184.763 -0.387143 -1.52771 0
M  V30 1952 C 185.693 0.440551 -2.29306 0
M  V30 1953 C 186.674 1.06535 -1.32606 0
M  V30 1954 O 187.859 1.07853 -1.61497 0
M  V30 1955 C 184.989 1.56919 -3.09829 0
M  V30 1956 C 183.943 1.07054 -4.14395 0
M  V30 1957 C 183.269 2.29109 -4.83129 0
M  V30 1958 C 184.569 0.140015 -5.22112 0
M  V30 1959 H 186.263 -0.198026 -2.98744 0
M  V30 1960 H 183.809 -0.09668 -1.43675 0
M  V30 1961 H 185.762 2.15503 -3.62128 0
M  V30 1962 H 184.486 2.23532 -2.3812 0
M  V30 1963 H 183.145 0.507247 -3.63074 0
M  V30 1964 H 182.793 2.94227 -4.0797 0
M  V30 1965 H 182.493 1.96406 -5.53804 0
M  V30 1966 H 184.017 2.88339 -5.38231 0
M  V30 1967 H 185.431 0.633978 -5.69784 0
M  V30 1968 H 183.828 -0.0971485 -6.00021 0
M  V30 1969 H 184.898 -0.811711 -4.78058 0
M  V30 1970 N 186.241 1.57166 -0.116904 0
M  V30 1971 C 187.151 2.18745 0.847812 0
M  V30 1972 C 188.167 1.163 1.29423 0
M  V30 1973 O 189.343 1.48761 1.35765 0
M  V30 1974 C 186.408 2.77307 2.0809 0
M  V30 1975 C 185.469 3.94781 1.68661 0
M  V30 1976 C 184.702 4.50541 2.86091 0
M  V30 1977 O 184.925 4.05202 4.01456 0
M  V30 1978 O 183.859 5.41256 2.63298 0
M  V30 1979 H 187.685 3.01632 0.353778 0
M  V30 1980 H 185.27 1.49005 0.108599 0
M  V30 1981 H 187.152 3.14647 2.80313 0
M  V30 1982 H 185.827 1.97452 2.56504 0
M  V30 1983 H 184.734 3.62214 0.935518 0
M  V30 1984 H 186.067 4.76065 1.24991 0
M  V30 1985 N 187.719 -0.156864 1.56817 0
M  V30 1986 C 188.947 -0.886316 1.86955 0
M  V30 1987 C 189.362 -1.75185 0.703975 0
M  V30 1988 O 188.719 -1.79555 -0.326552 0
M  V30 1989 C 188.77 -1.75117 3.16253 0
M  V30 1990 O 188.491 -0.920537 4.2832 0
M  V30 1991 C 189.992 -2.58905 3.59837 0
M  V30 1992 H 187.212 -0.25678 0.619923 0
M  V30 1993 H 189.756 -0.152615 2.0393 0
M  V30 1994 H 187.911 -2.43805 3.01062 0
M  V30 1995 H 188.325 -1.51337 5.02192 0
M  V30 1996 H 189.799 -3.1518 4.53172 0
M  V30 1997 H 190.276 -3.34472 2.84649 0
M  V30 1998 H 190.882 -1.95526 3.7769 0
M  V30 1999 N 189.197 -1.51736 -0.425897 0
M  V30 2000 C 190.608 -1.5732 -1.00536 0
M  V30 2001 C 190.959 -0.403537 -1.92005 0
M  V30 2002 O 190.084 0.478256 -2.11049 0
M  V30 2003 C 190.679 -2.85119 -1.8301 0
M  V30 2004 C 189.238 -2.93236 -2.35987 0
M  V30 2005 C 188.385 -2.52098 -1.15508 0
M  V30 2006 H 191.336 -1.57348 -0.206739 0
M  V30 2007 H 191.357 -2.69526 -2.68581 0
M  V30 2008 H 190.869 -3.7023 -1.16411 0
M  V30 2009 H 188.97 -2.12581 -3.06007 0
M  V30 2010 H 189.083 -3.9713 -2.68001 0
M  V30 2011 H 187.447 -2.05558 -1.50393 0
M  V30 2012 H 188.23 -3.39565 -0.505014 0
M  V30 2013 N 190.675 0.682077 -1.42076 0
M  V30 2014 C 191.625 1.78823 -1.41444 0
M  V30 2015 C 192.609 1.58323 -0.28681 0
M  V30 2016 O 193.801 1.68926 -0.528498 0
M  V30 2017 C 190.93 3.17232 -1.3122 0
M  V30 2018 C 190.016 3.4338 -2.489 0
M  V30 2019 N 190.407 3.40152 -3.7434 0
M  V30 2020 C 188.705 3.73986 -2.43003 0
M  V30 2021 C 189.406 3.65581 -4.52466 0
M  V30 2022 N 188.382 3.85989 -3.8277 0
M  V30 2023 H 192.184 1.7471 -2.36334 0
M  V30 2024 H 189.698 0.882622 -1.36321 0
M  V30 2025 H 191.695 3.96489 -1.2885 0
M  V30 2026 H 190.355 3.22547 -0.373263 0
M  V30 2027 H 191.366 3.20221 -4.07037 0
M  V30 2028 H 188.043 3.86591 -1.57651 0
M  V30 2029 H 189.433 3.69108 -5.61435 0
M  V30 2030 N 192.153 1.28127 0.917671 0
M  V30 2031 C 193.399 1.15223 1.66888 0
M  V30 2032 C 193.732 -0.299293 1.9188 0
M  V30 2033 O 193.007 -1.21805 1.51637 0
M  V30 2034 C 193.29 1.94706 3.02922 0
M  V30 2035 C 193.143 3.47898 2.85109 0
M  V30 2036 C 194.462 1.75939 4.03402 0
M  V30 2037 H 191.581 0.419946 0.605652 0
M  V30 2038 H 194.223 1.57398 1.06423 0
M  V30 2039 H 192.373 1.58864 3.54534 0
M  V30 2040 H 194.045 3.93624 2.40537 0
M  V30 2041 H 192.288 3.7373 2.20246 0
M  V30 2042 H 192.959 3.98765 3.81694 0
M  V30 2043 H 195.435 2.07209 3.60837 0
M  V30 2044 H 194.311 2.33931 4.96556 0
M  V30 2045 H 194.572 0.709877 4.36364 0
M  V30 2046 N 193.631 -1.12557 1.10312 0
M  V30 2047 C 194.581 -2.16331 0.720076 0
M  V30 2048 C 195.565 -1.58616 -0.270115 0
M  V30 2049 O 196.757 -1.76823 -0.0790507 0
M  V30 2050 C 193.886 -3.42963 0.152113 0
M  V30 2051 C 192.972 -4.07663 1.16927 0
M  V30 2052 N 193.363 -4.47392 2.35953 0
M  V30 2053 C 191.661 -4.34425 1.0095 0
M  V30 2054 C 192.362 -4.97932 3.0073 0
M  V30 2055 N 191.338 -4.93358 2.28252 0
M  V30 2056 H 195.14 -2.44813 1.62616 0
M  V30 2057 H 192.654 -1.29449 0.980654 0
M  V30 2058 H 194.651 -4.16664 -0.14037 0
M  V30 2059 H 193.311 -3.1595 -0.748701 0
M  V30 2060 H 194.322 -4.39802 2.73486 0
M  V30 2061 H 190.999 -4.17177 0.164134 0
M  V30 2062 H 192.389 -5.38397 4.01969 0
M  V30 2063 N 195.109 -0.891671 -1.2995 0
M  V30 2064 C 196.334 -0.527932 -2.00568 0
M  V30 2065 C 196.759 0.877969 -1.66353 0
M  V30 2066 O 196.117 1.58301 -0.883762 0
M  V30 2067 C 196.165 -0.717745 -3.53385 0
M  V30 2068 O 195.269 0.233376 -4.11739 0
M  V30 2069 H 194.61 -0.20722 -0.630837 0
M  V30 2070 H 197.14 -1.20105 -1.65638 0
M  V30 2071 H 197.15 -0.619307 -4.03272 0
M  V30 2072 H 195.825 -1.74276 -3.77625 0
M  V30 2073 H 194.402 0.0880706 -3.72796 0
M  V30 2074 N 196.587 1.43421 -0.653314 0
M  V30 2075 C 198.003 1.56341 -0.320886 0
M  V30 2076 C 198.203 1.63696 1.17499 0
M  V30 2077 O 197.259 1.59208 1.95982 0
M  V30 2078 C 198.572 2.82424 -1.03233 0
M  V30 2079 C 200.12 2.96168 -1.01259 0
M  V30 2080 C 200.595 4.25084 -1.70492 0
M  V30 2081 N 202.086 4.31948 -1.67257 0
M  V30 2082 C 202.821 5.30466 -2.17701 0
M  V30 2083 N 202.317 6.35261 -2.76434 0
M  V30 2084 N 204.11 5.2212 -2.082 0
M  V30 2085 H 196.261 1.3689 -1.62403 0
M  V30 2086 H 198.524 0.657455 -0.682977 0
M  V30 2087 H 198.23 2.83053 -2.08744 0
M  V30 2088 H 198.104 3.72653 -0.583948 0
M  V30 2089 H 200.491 2.9508 0.0341235 0
M  V30 2090 H 200.572 2.07229 -1.49966 0
M  V30 2091 H 200.216 4.26932 -2.7512 0
M  V30 2092 H 200.146 5.1292 -1.19251 0
M  V30 2093 H 202.637 3.56838 -1.24398 0
M  V30 2094 H 202.95 7.06754 -3.12601 0
M  V30 2095 H 201.295 6.35884 -2.80495 0
M  V30 2096 H 204.486 4.39166 -1.62021 0
M  V30 2097 H 204.659 5.98739 -2.47822 0
M  V30 2098 N 198.065 0.39524 1.52563 0
M  V30 2099 C 199.028 -0.425001 2.25225 0
M  V30 2100 C 200.028 -0.985266 1.27079 0
M  V30 2101 O 201.218 -0.866332 1.5113 0
M  V30 2102 C 198.35 -1.59686 3.01186 0
M  V30 2103 H 199.543 0.211233 2.99155 0
M  V30 2104 H 197.096 0.147472 1.55603 0
M  V30 2105 H 197.831 -2.27035 2.31572 0
M  V30 2106 H 197.616 -1.20176 3.73229 0
M  V30 2107 H 199.106 -2.17743 3.5634 0
M  V30 2108 N 199.544 -1.57102 0.125237 0
M  V30 2109 C 200.955 -1.82384 -0.399142 0
M  V30 2110 C 201.306 -1.04276 -1.66195 0
M  V30 2111 O 200.431 -0.281269 -2.14564 0
M  V30 2112 C 201.026 -3.30821 -0.730932 0
M  V30 2113 C 199.585 -3.56762 -1.19992 0
M  V30 2114 C 198.732 -2.7649 -0.211792 0
M  V30 2115 H 201.683 -1.54786 0.350277 0
M  V30 2116 H 201.704 -3.4579 -1.58775 0
M  V30 2117 H 201.216 -3.87643 0.188345 0
M  V30 2118 H 199.317 -3.05305 -2.13588 0
M  V30 2119 H 199.43 -4.65317 -1.14093 0
M  V30 2120 H 197.794 -2.4489 -0.700085 0
M  V30 2121 H 198.577 -3.36073 0.700691 0
M  V30 2122 N 201.022 0.148545 -1.56898 0
M  V30 2123 C 202.247 0.880385 -1.87787 0
M  V30 2124 C 202.672 1.74018 -0.714093 0
M  V30 2125 O 202.03 1.78153 0.336343 0
M  V30 2126 C 202.078 1.71422 -3.17249 0
M  V30 2127 O 201.182 2.8183 -3.01074 0
M  V30 2128 H 200.523 0.245301 -0.617028 0
M  V30 2129 H 203.053 0.139826 -2.04122 0
M  V30 2130 H 203.063 2.10954 -3.49231 0
M  V30 2131 H 201.738 1.08284 -4.01556 0
M  V30 2132 H 200.315 2.45715 -2.80497 0
M  V30 2133 N 202.5 1.5196 0.417844 0
M  V30 2134 C 203.911 1.57851 0.997 0
M  V30 2135 C 204.262 0.413714 1.91789 0
M  V30 2136 O 203.387 -0.467057 2.113 0
M  V30 2137 C 203.982 2.86085 1.81496 0
M  V30 2138 C 202.541 2.94483 2.34428 0
M  V30 2139 C 201.688 2.52707 1.14169 0
M  V30 2140 H 204.639 1.57455 0.198392 0
M  V30 2141 H 204.66 2.70947 2.67148 0
M  V30 2142 H 204.172 3.70842 1.14446 0
M  V30 2143 H 202.273 2.142 3.04875 0
M  V30 2144 H 202.386 3.98546 2.65891 0
M  V30 2145 H 200.75 2.06353 1.49301 0
M  V30 2146 H 201.533 3.39828 0.486999 0
M  V30 2147 N 203.978 -0.674533 1.42435 0
M  V30 2148 C 204.908 -1.80009 1.48724 0
M  V30 2149 C 205.889 -1.6659 0.343793 0
M  V30 2150 O 207.074 -1.86007 0.558137 0
M  V30 2151 C 204.204 -3.18306 1.38919 0
M  V30 2152 C 203.158 -3.46461 2.51294 0
M  V30 2153 C 202.484 -4.84335 2.26547 0
M  V30 2154 C 203.784 -3.43328 3.93603 0
M  V30 2155 H 205.478 -1.75004 2.42928 0
M  V30 2156 H 203.024 -0.840533 1.16923 0
M  V30 2157 H 204.977 -3.9678 1.41927 0
M  V30 2158 H 203.701 -3.2399 0.412094 0
M  V30 2159 H 202.36 -2.70348 2.47604 0
M  V30 2160 H 202.008 -4.86669 1.2713 0
M  V30 2161 H 201.708 -5.04136 3.01861 0
M  V30 2162 H 203.232 -5.65094 2.31304 0
M  V30 2163 H 204.646 -4.11772 3.98894 0
M  V30 2164 H 203.043 -3.74664 4.68771 0
M  V30 2165 H 204.113 -2.41897 4.20255 0
M  V30 2166 N 205.456 -1.28612 -0.910864 0
M  V30 2167 C 206.686 -1.1862 -1.69153 0
M  V30 2168 C 207.094 0.257324 -1.87442 0
M  V30 2169 O 206.437 1.18543 -1.40332 0
M  V30 2170 C 206.499 -1.81606 -3.10257 0
M  V30 2171 C 206.163 -3.30864 -3.15243 0
M  V30 2172 C 207.16 -4.27256 -2.96223 0
M  V30 2173 C 204.845 -3.71871 -3.37664 0
M  V30 2174 C 206.839 -5.62631 -2.99541 0
M  V30 2175 C 204.526 -5.07371 -3.40614 0
M  V30 2176 C 205.524 -6.02561 -3.21573 0
M  V30 2177 O 205.212 -7.35589 -3.2429 0
M  V30 2178 H 204.944 -0.412633 -0.535453 0
M  V30 2179 H 207.498 -1.70306 -1.14827 0
M  V30 2180 H 205.728 -1.24418 -3.66138 0
M  V30 2181 H 207.417 -1.66092 -3.70362 0
M  V30 2182 H 208.183 -3.9691 -2.78725 0
M  V30 2183 H 204.062 -2.98241 -3.5153 0
M  V30 2184 H 207.606 -6.36907 -2.84597 0
M  V30 2185 H 203.503 -5.37366 -3.57642 0
M  V30 2186 H 204.271 -7.44252 -3.40633 0
M  V30 2187 N 206.934 1.1197 -1.10907 0
M  V30 2188 C 208.159 1.87942 -0.877064 0
M  V30 2189 C 208.584 1.79341 0.567314 0
M  V30 2190 O 207.942 1.15184 1.40009 0
M  V30 2191 C 207.99 3.34926 -1.33629 0
M  V30 2192 O 207.094 4.09303 -0.504447 0
M  V30 2193 H 206.435 0.583785 -0.316371 0
M  V30 2194 H 208.965 1.4157 -1.47712 0
M  V30 2195 H 208.975 3.8577 -1.32837 0
M  V30 2196 H 207.65 3.40504 -2.3881 0
M  V30 2197 H 206.227 3.68393 -0.577993 0
M  V30 2198 N 208.412 0.89855 1.29475 0
M  V30 2199 C 209.658 0.524658 1.95896 0
M  V30 2200 C 209.991 -0.926468 1.70676 0
M  V30 2201 O 209.266 -1.65665 1.01908 0
M  V30 2202 C 209.549 0.81633 3.50725 0
M  V30 2203 C 209.402 2.31907 3.85408 0
M  V30 2204 C 210.721 0.302038 4.39062 0
M  V30 2205 H 207.84 0.19209 0.711527 0
M  V30 2206 H 210.482 1.12502 1.53112 0
M  V30 2207 H 208.632 0.305369 3.87298 0
M  V30 2208 H 210.304 2.89949 3.58786 0
M  V30 2209 H 208.547 2.78027 3.32992 0
M  V30 2210 H 209.218 2.47373 4.93468 0
M  V30 2211 H 211.694 0.739551 4.09475 0
M  V30 2212 H 210.57 0.535331 5.46283 0
M  V30 2213 H 210.831 -0.797216 4.34853 0
M  V30 2214 N 209.89 -1.43072 0.660911 0
M  V30 2215 C 210.8 -2.34585 -0.0264163 0
M  V30 2216 C 211.816 -1.54316 -0.803898 0
M  V30 2217 O 212.992 -1.86939 -0.749391 0
M  V30 2218 C 210.057 -3.32689 -0.975639 0
M  V30 2219 C 209.118 -4.2886 -0.194236 0
M  V30 2220 C 208.351 -5.22278 -1.09825 0
M  V30 2221 O 208.574 -5.20299 -2.33763 0
M  V30 2222 O 207.508 -5.99228 -0.566513 0
M  V30 2223 H 211.334 -2.94869 0.727034 0
M  V30 2224 H 208.919 -1.43342 0.42111 0
M  V30 2225 H 210.801 -3.92995 -1.52094 0
M  V30 2226 H 209.476 -2.74898 -1.70918 0
M  V30 2227 H 208.383 -3.72011 0.394835 0
M  V30 2228 H 209.716 -4.89655 0.499899 0
M  V30 2229 N 211.368 -0.403325 -1.52352 0
M  V30 2230 C 212.615 0.174347 -2.01748 0
M  V30 2231 C 212.943 1.45636 -1.2892 0
M  V30 2232 O 212.198 1.9193 -0.382258 0
M  V30 2233 C 212.497 0.474665 -3.54234 0
M  V30 2234 C 212.163 -0.717458 -4.45155 0
M  V30 2235 C 210.825 -1.04447 -4.69728 0
M  V30 2236 C 213.177 -1.51432 -4.98716 0
M  V30 2237 C 210.505 -2.16963 -5.45109 0
M  V30 2238 C 212.857 -2.6302 -5.75329 0
M  V30 2239 C 211.521 -2.96213 -5.98175 0
M  V30 2240 H 210.791 0.0637981 -0.738248 0
M  V30 2241 H 213.438 -0.543553 -1.83624 0
M  V30 2242 H 211.743 1.27406 -3.70506 0
M  V30 2243 H 213.44 0.934496 -3.89959 0
M  V30 2244 H 210.03 -0.452596 -4.26204 0
M  V30 2245 H 214.214 -1.27491 -4.79645 0
M  V30 2246 H 209.47 -2.43034 -5.61021 0
M  V30 2247 H 213.644 -3.25158 -6.15829 0
M  V30 2248 H 211.271 -3.83516 -6.56368 0
M  V30 2249 N 212.846 1.57033 -0.133567 0
M  V30 2250 C 214.071 2.00475 0.531477 0
M  V30 2251 C 214.496 1.01291 1.58499 0
M  V30 2252 O 213.854 -0.0133279 1.81295 0
M  V30 2253 C 213.902 3.42729 1.12113 0
M  V30 2254 O 213.006 3.46498 2.23636 0
M  V30 2255 H 212.347 0.650876 0.131362 0
M  V30 2256 H 214.877 2.03344 -0.22634 0
M  V30 2257 H 214.887 3.81246 1.4531 0
M  V30 2258 H 213.562 4.14428 0.349557 0
M  V30 2259 H 212.139 3.19811 1.91769 0
M  V30 2260 N 214.325 -0.140222 1.56975 0
M  V30 2261 C 215.235 -1.19223 2.02047 0
M  V30 2262 C 216.251 -1.46612 0.937062 0
M  V30 2263 O 217.427 -1.58148 1.24704 0
M  V30 2264 C 214.492 -2.50414 2.39778 0
M  V30 2265 C 213.553 -2.30612 3.621 0
M  V30 2266 C 212.786 -3.55547 3.98023 0
M  V30 2267 O 213.009 -4.62004 3.34528 0
M  V30 2268 O 211.943 -3.47808 4.91237 0
M  V30 2269 H 215.769 -0.839559 2.91865 0
M  V30 2270 H 213.354 -0.349453 1.45256 0
M  V30 2271 H 215.236 -3.27747 2.64877 0
M  V30 2272 H 213.911 -2.85198 1.53114 0
M  V30 2273 H 212.818 -1.51207 3.4218 0
M  V30 2274 H 214.151 -2.00741 4.49404 0
M  V30 2275 N 215.803 -1.52179 -0.40978 0
M  V30 2276 C 216.713 -1.78364 -1.52392 0
M  V30 2277 C 217.729 -0.669183 -1.60617 0
M  V30 2278 O 218.905 -0.954518 -1.77344 0
M  V30 2279 C 215.97 -1.92822 -2.88133 0
M  V30 2280 C 215.031 -3.16725 -2.898 0
M  V30 2281 C 214.264 -3.30483 -4.19067 0
M  V30 2282 O 214.487 -2.49522 -5.12928 0
M  V30 2283 O 213.421 -4.2363 -4.27576 0
M  V30 2284 H 217.247 -2.72931 -1.33201 0
M  V30 2285 H 214.832 -1.37016 -0.59557 0
M  V30 2286 H 216.714 -2.04157 -3.68643 0
M  V30 2287 H 215.389 -1.01444 -3.07393 0
M  V30 2288 H 214.296 -3.10848 -2.08146 0
M  V30 2289 H 215.629 -4.07881 -2.75489 0
M  V30 2290 N 217.281 0.66697 -1.42791 0
M  V30 2291 C 218.692 1.2478 -1.38877 0
M  V30 2292 C 219.043 1.96012 -0.0859426 0
M  V30 2293 O 218.168 2.00463 0.815081 0
M  V30 2294 C 218.763 2.26938 -2.51564 0
M  V30 2295 C 217.322 2.80529 -2.50959 0
M  V30 2296 C 216.469 1.54965 -2.29959 0
M  V30 2297 H 219.42 0.459853 -1.51892 0
M  V30 2298 H 219.441 3.08834 -2.22265 0
M  V30 2299 H 218.953 1.75065 -3.46372 0
M  V30 2300 H 217.054 3.36502 -1.59991 0
M  V30 2301 H 217.167 3.29012 -3.48265 0
M  V30 2302 H 215.531 1.81817 -1.78366 0
M  V30 2303 H 216.314 1.05047 -3.26833 0
M  V30 2304 N 218.759 1.29093 0.90403 0
M  V30 2305 C 220.006 1.16813 1.65411 0
M  V30 2306 C 220.334 -0.28128 1.92455 0
M  V30 2307 O 219.589 -1.22006 1.53013 0
M  V30 2308 C 219.888 1.92224 3.01305 0
M  V30 2309 C 219.554 3.41968 2.93885 0
M  V30 2310 C 218.216 3.82807 2.91569 0
M  V30 2311 C 220.568 4.37409 2.83413 0
M  V30 2312 C 217.896 5.1741 2.76594 0
M  V30 2313 C 220.248 5.72097 2.69977 0
M  V30 2314 C 218.912 6.12199 2.66024 0
M  V30 2315 H 218.182 0.42745 0.605283 0
M  V30 2316 H 220.829 1.59981 1.05254 0
M  V30 2317 H 219.134 1.41635 3.65304 0
M  V30 2318 H 220.831 1.80131 3.58265 0
M  V30 2319 H 217.421 3.09504 2.96488 0
M  V30 2320 H 221.605 4.06813 2.84283 0
M  V30 2321 H 216.861 5.47596 2.71935 0
M  V30 2322 H 221.035 6.45704 2.60844 0
M  V30 2323 H 218.662 7.16448 2.54178 0
M  V30 2324 N 220.237 -1.11381 1.11499 0
M  V30 2325 C 221.485 -1.8277 0.862524 0
M  V30 2326 C 221.806 -1.85097 -0.613534 0
M  V30 2327 O 221.076 -1.32198 -1.4457 0
M  V30 2328 H 219.656 -0.676823 0.316101 0
M  V30 2329 H 222.318 -1.34816 1.4075 0
M  V30 2330 H 221.414 -2.86614 1.23527 0
M  V30 2331 N 221.715 -0.905404 -1.28997 0
M  V30 2332 C 222.961 -0.535039 -1.95615 0
M  V30 2333 C 223.294 0.917404 -1.71165 0
M  V30 2334 O 222.569 1.65123 -1.02785 0
M  V30 2335 C 222.852 -0.834918 -3.50287 0
M  V30 2336 C 222.705 -2.33948 -3.84172 0
M  V30 2337 C 224.024 -0.325318 -4.38896 0
M  V30 2338 H 221.143 -0.195861 -0.710498 0
M  V30 2339 H 223.785 -1.13313 -1.52513 0
M  V30 2340 H 221.935 -0.325904 -3.87131 0
M  V30 2341 H 223.607 -2.91847 -3.57243 0
M  V30 2342 H 221.85 -2.79789 -3.31513 0
M  V30 2343 H 222.521 -2.49987 -4.92149 0
M  V30 2344 H 224.997 -0.761256 -4.09077 0
M  V30 2345 H 223.873 -0.564295 -5.45992 0
M  V30 2346 H 224.134 0.774144 -4.35269 0
M  V30 2347 N 223.193 1.4272 -0.668489 0
M  V30 2348 C 224.442 2.00846 -0.185389 0
M  V30 2349 C 224.755 1.53442 1.21305 0
M  V30 2350 O 225.961 2.03944 1.79218 0
M  V30 2351 C 224.417 3.58805 -0.280591 0
M  V30 2352 C 224.025 4.15198 -1.68268 0
M  V30 2353 C 225.769 4.24255 0.14412 0
M  V30 2354 C 223.676 5.655 -1.73099 0
M  V30 2355 H 222.606 0.751145 -0.0655475 0
M  V30 2356 H 225.257 1.63516 -0.832752 0
M  V30 2357 H 223.639 3.93608 0.434553 0
M  V30 2358 H 224.813 3.91866 -2.42441 0
M  V30 2359 H 223.128 3.62176 -2.05469 0
M  V30 2360 H 225.725 5.34547 0.128086 0
M  V30 2361 H 226.068 3.99277 1.17827 0
M  V30 2362 H 226.601 3.94389 -0.519798 0
M  V30 2363 H 223.34 5.95268 -2.74475 0
M  V30 2364 H 222.86 5.90842 -1.03274 0
M  V30 2365 H 224.539 6.29808 -1.48158 0
M  V30 2366 N 224.671 0.411399 1.52136 0
M  V30 2367 C 225.917 -0.163888 2.02137 0
M  V30 2368 C 226.25 -1.44597 1.29636 0
M  V30 2369 O 225.525 -1.90272 0.403353 0
M  V30 2370 C 225.808 -0.40927 3.57767 0
M  V30 2371 C 225.661 0.889643 4.40914 0
M  V30 2372 C 226.98 -1.19042 4.23694 0
M  V30 2373 H 224.099 -0.0580896 0.734707 0
M  V30 2374 H 226.741 0.54531 1.82007 0
M  V30 2375 H 224.891 -1.0134 3.7505 0
M  V30 2376 H 226.563 1.52575 4.35337 0
M  V30 2377 H 224.806 1.50011 4.07037 0
M  V30 2378 H 225.477 0.672314 5.4789 0
M  V30 2379 H 227.953 -0.678942 4.10524 0
M  V30 2380 H 226.829 -1.33086 5.32522 0
M  V30 2381 H 227.09 -2.21166 3.82803 0
M  V30 2382 N 226.149 -1.5696 0.141893 0
M  V30 2383 C 227.565 -1.58151 -0.21456 0
M  V30 2384 C 227.765 -1.1559 -1.65049 0
M  V30 2385 O 226.821 -0.853832 -2.37626 0
M  V30 2386 C 228.134 -3.00674 0.0395576 0
M  V30 2387 C 229.682 -3.1299 -0.0245529 0
M  V30 2388 C 230.157 -4.57554 0.202167 0
M  V30 2389 N 231.648 -4.62961 0.148919 0
M  V30 2390 C 232.383 -5.7262 0.298924 0
M  V30 2391 N 231.879 -6.90947 0.50637 0
M  V30 2392 N 233.672 -5.61601 0.236886 0
M  V30 2393 H 225.823 -1.8292 1.07953 0
M  V30 2394 H 228.086 -0.846425 0.42693 0
M  V30 2395 H 227.792 -3.36183 1.03315 0
M  V30 2396 H 227.666 -3.70981 -0.682143 0
M  V30 2397 H 230.053 -2.77326 -1.00869 0
M  V30 2398 H 230.134 -2.4518 0.729396 0
M  V30 2399 H 229.778 -4.93922 1.18338 0
M  V30 2400 H 229.708 -5.23484 -0.572044 0
M  V30 2401 H 232.199 -3.77899 -0.00697015 0
M  V30 2402 H 232.512 -7.7038 0.611076 0
M  V30 2403 H 230.857 -6.92878 0.542628 0
M  V30 2404 H 234.048 -4.68039 0.0756209 0
M  V30 2405 H 234.221 -6.47015 0.357227 0
M  V30 2406 N 227.627 0.131896 -1.57047 0
M  V30 2407 C 229.043 0.485031 -1.52051 0
M  V30 2408 C 229.243 1.82563 -0.85281 0
M  V30 2409 O 228.299 2.48817 -0.429694 0
M  V30 2410 C 229.612 0.481409 -2.96821 0
M  V30 2411 C 231.16 0.565868 -3.07842 0
M  V30 2412 C 231.635 0.592762 -4.54148 0
M  V30 2413 N 233.126 0.654564 -4.58552 0
M  V30 2414 C 233.861 0.696608 -5.69153 0
M  V30 2415 N 233.357 0.697078 -6.89284 0
M  V30 2416 N 235.15 0.738639 -5.57226 0
M  V30 2417 H 227.301 -0.746664 -1.98843 0
M  V30 2418 H 229.564 -0.273999 -0.90754 0
M  V30 2419 H 229.27 -0.435731 -3.4899 0
M  V30 2420 H 229.144 1.3139 -3.53577 0
M  V30 2421 H 231.531 1.47343 -2.55684 0
M  V30 2422 H 231.612 -0.29406 -2.54104 0
M  V30 2423 H 231.256 -0.310701 -5.06949 0
M  V30 2424 H 231.186 1.46939 -5.05684 0
M  V30 2425 H 233.677 0.660887 -3.72076 0
M  V30 2426 H 233.99 0.731426 -7.69331 0
M  V30 2427 H 232.335 0.66471 -6.91814 0
M  V30 2428 H 235.526 0.735545 -4.62285 0
M  V30 2429 H 235.699 0.767938 -6.43434 0
M  V30 2430 N 229.106 1.52395 0.401703 0
M  V30 2431 C 230.038 1.72505 1.50912 0
M  V30 2432 C 231.051 0.605468 1.51122 0
M  V30 2433 O 232.24 0.880828 1.55254 0
M  V30 2434 C 229.34 1.75711 2.89791 0
M  V30 2435 C 228.513 3.04824 3.1369 0
M  V30 2436 C 227.572 2.99743 4.32482 0
M  V30 2437 O 226.598 3.73635 4.29402 0
M  V30 2438 N 227.8 2.18047 5.37992 0
M  V30 2439 H 230.565 2.68049 1.34052 0
M  V30 2440 H 228.126 1.50724 0.591084 0
M  V30 2441 H 230.118 1.69834 3.6734 0
M  V30 2442 H 228.688 0.876092 3.00072 0
M  V30 2443 H 227.908 3.2429 2.24119 0
M  V30 2444 H 229.196 3.90221 3.26504 0
M  V30 2445 H 228.594 1.57456 5.43345 0
M  V30 2446 H 227.151 2.18021 6.14256 0
M  V30 2447 N 230.584 -0.659388 1.43143 0
M  V30 2448 C 231.514 -1.78422 1.50625 0
M  V30 2449 C 232.495 -1.66216 0.361443 0
M  V30 2450 O 233.68 -1.85404 0.577834 0
M  V30 2451 C 230.81 -3.16815 1.42287 0
M  V30 2452 C 229.764 -3.43777 2.54954 0
M  V30 2453 C 229.09 -4.81905 2.31671 0
M  V30 2454 C 230.39 -3.39134 3.97222 0
M  V30 2455 H 232.084 -1.72417 2.44771 0
M  V30 2456 H 229.63 -0.828084 1.17808 0
M  V30 2457 H 231.583 -3.95253 1.46127 0
M  V30 2458 H 230.307 -3.23534 0.446435 0
M  V30 2459 H 228.966 -2.67707 2.50457 0
M  V30 2460 H 228.614 -4.85294 1.32284 0
M  V30 2461 H 228.314 -5.00906 3.07192 0
M  V30 2462 H 229.838 -5.62609 2.37284 0
M  V30 2463 H 231.252 -4.07518 4.03239 0
M  V30 2464 H 229.649 -3.69671 4.72719 0
M  V30 2465 H 230.719 -2.37426 4.22797 0
M  V30 2466 N 232.062 -1.29571 -0.897171 0
M  V30 2467 C 233.339 -1.08365 -1.62839 0
M  V30 2468 C 233.719 0.371331 -2.07808 0
M  V30 2469 O 233.067 1.3606 -1.83576 0
M  V30 2470 C 233.277 -2.0735 -2.80726 0
M  V30 2471 C 234.625 -2.38406 -3.51351 0
M  V30 2472 O 235.649 -2.05564 -2.90898 0
M  V30 2473 O 234.508 -2.9453 -4.60341 0
M  V30 2474 H 231.602 -0.415345 -0.715134 0
M  V30 2475 H 234.148 -1.40952 -0.945018 0
M  V30 2476 H 232.92 -3.05339 -2.44711 0
M  V30 2477 H 232.543 -1.75507 -3.56767 0
M  V30 2478 N 233.54 1.10788 -1.12088 0
M  V30 2479 C 234.788 1.8231 -0.872205 0
M  V30 2480 C 235.109 1.85419 0.603709 0
M  V30 2481 O 234.379 1.32963 1.43867 0
M  V30 2482 H 232.959 0.675137 -0.319686 0
M  V30 2483 H 235.621 1.34068 -1.41463 0
M  V30 2484 H 234.717 2.85955 -1.25045 0
M  V30 2485 N 235.018 0.912232 1.28515 0
M  V30 2486 C 236.434 0.610159 1.47476 0
M  V30 2487 C 236.634 -0.844955 1.82928 0
M  V30 2488 O 235.69 -1.62416 1.93332 0
M  V30 2489 C 237.003 1.54675 2.57868 0
M  V30 2490 C 238.551 1.55331 2.71738 0
M  V30 2491 C 239.026 2.47649 3.85272 0
M  V30 2492 N 240.517 2.45767 3.92623 0
M  V30 2493 C 241.252 3.13896 4.79851 0
M  V30 2494 N 240.748 3.9135 5.71679 0
M  V30 2495 N 242.541 3.02991 4.73448 0
M  V30 2496 H 234.692 1.85318 1.03783 0
M  V30 2497 H 236.955 0.794777 0.516753 0
M  V30 2498 H 236.661 2.5841 2.38574 0
M  V30 2499 H 236.535 1.27671 3.54937 0
M  V30 2500 H 238.922 0.52335 2.90422 0
M  V30 2501 H 239.003 1.86378 1.75205 0
M  V30 2502 H 238.647 3.50745 3.67342 0
M  V30 2503 H 238.577 2.13904 4.81199 0
M  V30 2504 H 241.068 1.89503 3.26951 0
M  V30 2505 H 241.381 4.40359 6.35062 0
M  V30 2506 H 239.726 3.95455 5.71524 0
M  V30 2507 H 242.917 2.41987 4.007 0
M  V30 2508 H 243.09 3.5636 5.41213 0
M  V30 2509 N 236.496 -1.42363 0.676048 0
M  V30 2510 C 237.742 -2.0182 0.199125 0
M  V30 2511 C 238.075 -1.53339 -1.19168 0
M  V30 2512 O 237.35 -0.736124 -1.80032 0
M  V30 2513 C 237.633 -3.59331 0.235144 0
M  V30 2514 C 237.486 -4.17989 1.66149 0
M  V30 2515 C 238.805 -4.3813 -0.41595 0
M  V30 2516 H 235.924 -0.733293 0.0738311 0
M  V30 2517 H 238.566 -1.69368 0.86107 0
M  V30 2518 H 236.716 -3.87109 -0.328487 0
M  V30 2519 H 238.388 -4.0116 2.27747 0
M  V30 2520 H 236.631 -3.7377 2.20178 0
M  V30 2521 H 237.302 -5.27126 1.63837 0
M  V30 2522 H 239.778 -4.16051 0.0638529 0
M  V30 2523 H 238.654 -5.47717 -0.360115 0
M  V30 2524 H 238.915 -4.16101 -1.49373 0
M  V30 2525 N 237.974 -0.419461 -1.51915 0
M  V30 2526 C 238.904 0.391813 -2.30189 0
M  V30 2527 C 239.885 1.03699 -1.34836 0
M  V30 2528 O 241.07 1.04403 -1.63748 0
M  V30 2529 C 238.2 1.50312 -3.13087 0
M  V30 2530 C 237.154 0.9824 -4.16573 0
M  V30 2531 C 236.48 2.18809 -4.8788 0
M  V30 2532 C 237.78 0.0292356 -5.22292 0
M  V30 2533 H 239.474 -0.26135 -2.98257 0
M  V30 2534 H 237.02 -0.127134 -1.43438 0
M  V30 2535 H 238.973 2.07773 -3.66617 0
M  V30 2536 H 237.697 2.18431 -2.42807 0
M  V30 2537 H 236.356 0.430119 -3.64068 0
M  V30 2538 H 236.004 2.85507 -4.14119 0
M  V30 2539 H 235.704 1.84615 -5.57845 0
M  V30 2540 H 237.228 2.76858 -5.44226 0
M  V30 2541 H 238.642 0.512976 -5.71 0
M  V30 2542 H 237.039 -0.2244 -5.9968 0
M  V30 2543 H 238.109 -0.912931 -4.76228 0
M  V30 2544 N 239.452 1.56882 -0.150215 0
M  V30 2545 C 240.382 2.19935 0.784284 0
M  V30 2546 C 241.363 1.14854 1.25469 0
M  V30 2547 O 242.548 1.43209 1.31168 0
M  V30 2548 C 239.678 2.82349 2.02229 0
M  V30 2549 C 238.632 3.93285 1.68853 0
M  V30 2550 C 237.958 4.42649 2.99944 0
M  V30 2551 C 239.258 5.13904 0.932714 0
M  V30 2552 H 240.952 2.9828 0.258781 0
M  V30 2553 H 238.498 1.43473 0.123029 0
M  V30 2554 H 240.451 3.25126 2.68088 0
M  V30 2555 H 239.175 2.0134 2.57157 0
M  V30 2556 H 237.834 3.5113 1.05371 0
M  V30 2557 H 237.482 3.58458 3.52869 0
M  V30 2558 H 237.182 5.17476 2.78374 0
M  V30 2559 H 238.706 4.88099 3.66868 0
M  V30 2560 H 240.12 5.53506 1.49345 0
M  V30 2561 H 238.517 5.94515 0.81684 0
M  V30 2562 H 239.587 4.84842 -0.0749568 0
M  V30 2563 N 240.93 -0.123565 1.57115 0
M  V30 2564 C 241.878 -1.17082 2.00984 0
M  V30 2565 C 242.872 -1.43136 0.906009 0
M  V30 2566 O 244.078 -1.43152 1.09121 0
M  V30 2567 H 240.453 -0.394653 0.64012 0
M  V30 2568 H 242.424 -0.774292 2.88179 0
M  V30 2569 C 241.173 -2.49057 2.42623 0
M  V30 2570 H 240.496 -2.29846 3.27125 0
M  V30 2571 H 241.936 -3.20906 2.7712 0
M  V30 2572 C 240.395 -3.11305 1.28805 0
M  V30 2573 O 240.925 -3.97171 0.60153 0
M  V30 2574 N 239.131 -2.71111 1.04628 0
M  V30 2575 H 238.678 -2.01382 1.60634 0
M  V30 2576 H 238.636 -3.1309 0.286685 0
M  V30 2577 N 242.408 -1.52605 -0.393616 0
M  V30 2578 C 243.636 -1.71294 -1.16043 0
M  V30 2579 C 244.051 -0.429259 -1.83855 0
M  V30 2580 O 243.408 0.595921 -1.72496 0
M  V30 2581 C 243.459 -2.8593 -2.21193 0
M  V30 2582 O 243.18 -4.09329 -1.56146 0
M  V30 2583 C 244.681 -3.16259 -3.10636 0
M  V30 2584 H 241.901 -0.573641 -0.348104 0
M  V30 2585 H 244.445 -1.99234 -0.461092 0
M  V30 2586 H 242.6 -2.60465 -2.86769 0
M  V30 2587 H 243.014 -4.73323 -2.25978 0
M  V30 2588 H 244.488 -3.99946 -3.80456 0
M  V30 2589 H 244.965 -2.3045 -3.73884 0
M  V30 2590 H 245.571 -3.43547 -2.50711 0
M  V30 2591 N 243.887 0.651787 -1.4349 0
M  V30 2592 C 245.115 1.43937 -1.48626 0
M  V30 2593 C 245.53 1.8851 -0.104587 0
M  V30 2594 O 244.887 1.5958 0.885464 0
M  V30 2595 C 244.938 2.6734 -2.43334 0
M  V30 2596 O 244.659 2.24631 -3.76128 0
M  V30 2597 C 246.16 3.60683 -2.57726 0
M  V30 2598 H 243.38 0.44213 -0.504739 0
M  V30 2599 H 245.924 0.798944 -1.88248 0
M  V30 2600 H 244.079 3.2752 -2.06904 0
M  V30 2601 H 244.493 3.04485 -4.2707 0
M  V30 2602 H 245.967 4.43933 -3.28067 0
M  V30 2603 H 246.444 4.08126 -1.62265 0
M  V30 2604 H 247.05 3.06384 -2.94973 0
M  V30 2605 N 245.365 1.30045 0.890287 0
M  V30 2606 C 246.611 1.18737 1.64406 0
M  V30 2607 C 246.944 -0.258525 1.92472 0
M  V30 2608 O 246.219 -1.18562 1.54186 0
M  V30 2609 C 246.502 2.01087 2.98724 0
M  V30 2610 C 246.355 3.53867 2.77665 0
M  V30 2611 C 247.674 1.84457 3.9958 0
M  V30 2612 H 244.793 0.432698 0.596608 0
M  V30 2613 H 247.435 1.5962 1.0306 0
M  V30 2614 H 245.585 1.66349 3.51084 0
M  V30 2615 H 247.257 3.98637 2.32133 0
M  V30 2616 H 245.5 3.78318 2.12269 0
M  V30 2617 H 246.171 4.06772 3.7315 0
M  V30 2618 H 248.647 2.14817 3.56361 0
M  V30 2619 H 247.523 2.44411 4.91482 0
M  V30 2620 H 247.784 0.802276 4.3476 0
M  V30 2621 N 246.843 -1.10192 1.12674 0
M  V30 2622 C 247.806 -2.14786 0.799979 0
M  V30 2623 C 248.806 -1.59711 -0.18685 0
M  V30 2624 O 249.996 -1.74156 0.0392558 0
M  V30 2625 C 247.128 -3.40374 0.189228 0
M  V30 2626 H 248.321 -2.45203 1.72671 0
M  V30 2627 H 245.874 -1.25597 0.930326 0
M  V30 2628 H 246.609 -3.15577 -0.747107 0
M  V30 2629 H 246.394 -3.81637 0.899766 0
M  V30 2630 H 247.884 -4.17594 -0.0228143 0
M  V30 2631 N 248.321 -0.919034 -1.28029 0
M  V30 2632 C 249.732 -0.600735 -1.76771 0
M  V30 2633 C 250.083 0.884024 -1.75156 0
M  V30 2634 O 249.208 1.69163 -1.34956 0
M  V30 2635 C 249.803 -1.08372 -3.21 0
M  V30 2636 C 248.362 -0.816248 -3.67443 0
M  V30 2637 C 247.509 -1.24742 -2.47658 0
M  V30 2638 H 250.46 -1.09974 -1.14418 0
M  V30 2639 H 250.481 -0.427512 -3.78091 0
M  V30 2640 H 249.993 -2.16437 -3.22144 0
M  V30 2641 H 248.094 0.250968 -3.71754 0
M  V30 2642 H 248.207 -1.4277 -4.57333 0
M  V30 2643 H 246.571 -0.666083 -2.45836 0
M  V30 2644 H 247.354 -2.33653 -2.51518 0
M  V30 2645 N 249.799 1.42003 -0.683588 0
M  V30 2646 C 250.729 2.33487 -0.024866 0
M  V30 2647 C 251.71 1.51163 0.779975 0
M  V30 2648 O 252.895 1.79739 0.735362 0
M  V30 2649 C 250.025 3.3487 0.920836 0
M  V30 2650 C 248.979 4.27414 0.223958 0
M  V30 2651 C 248.305 5.19074 1.2832 0
M  V30 2652 C 249.605 5.14445 -0.90242 0
M  V30 2653 H 251.299 2.88819 -0.788921 0
M  V30 2654 H 248.845 1.38873 -0.38083 0
M  V30 2655 H 250.798 3.97787 1.39081 0
M  V30 2656 H 249.522 2.77861 1.71642 0
M  V30 2657 H 248.181 3.65904 -0.225864 0
M  V30 2658 H 247.829 4.58387 2.071 0
M  V30 2659 H 247.529 5.81822 0.821995 0
M  V30 2660 H 249.053 5.84867 1.75392 0
M  V30 2661 H 250.467 5.70998 -0.513272 0
M  V30 2662 H 248.864 5.86072 -1.28997 0
M  V30 2663 H 249.934 4.52322 -1.74737 0
M  V30 2664 N 251.277 0.427512 1.51691 0
M  V30 2665 C 252.524 -0.142229 2.02 0
M  V30 2666 C 252.852 -1.43566 1.31221 0
M  V30 2667 O 252.107 -1.91298 0.412744 0
M  V30 2668 C 252.406 -0.418249 3.54944 0
M  V30 2669 C 252.072 0.788187 4.43958 0
M  V30 2670 C 250.734 1.11906 4.68007 0
M  V30 2671 C 253.086 1.59347 4.96244 0
M  V30 2672 C 250.414 2.25608 5.41588 0
M  V30 2673 C 252.766 2.7214 5.71072 0
M  V30 2674 C 251.43 3.05692 5.93387 0
M  V30 2675 H 250.7 -0.0520451 0.73917 0
M  V30 2676 H 253.347 0.572697 1.82736 0
M  V30 2677 H 251.652 -1.21496 3.72486 0
M  V30 2678 H 253.349 -0.872339 3.91397 0
M  V30 2679 H 249.939 0.520344 4.2543 0
M  V30 2680 H 254.123 1.35106 4.77556 0
M  V30 2681 H 249.379 2.51929 5.57083 0
M  V30 2682 H 253.553 3.34914 6.10578 0
M  V30 2683 H 251.18 3.9391 6.50184 0
M  V30 2684 N 252.755 -1.56801 0.158532 0
M  V30 2685 C 254.002 -1.9649 -0.489679 0
M  V30 2686 C 254.33 -1.04394 -1.6411 0
M  V30 2687 O 253.585 -0.0754401 -1.95555 0
M  V30 2688 C 253.884 -3.4235 -1.02623 0
M  V30 2689 C 253.55 -4.50899 0.00794526 0
M  V30 2690 C 252.212 -4.80312 0.292207 0
M  V30 2691 C 254.564 -5.16333 0.710584 0
M  V30 2692 C 251.892 -5.72461 1.28472 0
M  V30 2693 C 254.244 -6.09553 1.69199 0
M  V30 2694 C 252.908 -6.37339 1.98383 0
M  V30 2695 H 252.178 -0.719009 -0.179186 0
M  V30 2696 H 254.825 -1.8989 0.247798 0
M  V30 2697 H 253.13 -3.45838 -1.84128 0
M  V30 2698 H 254.827 -3.70393 -1.53656 0
M  V30 2699 H 251.417 -4.28015 -0.22379 0
M  V30 2700 H 255.601 -4.93732 0.504174 0
M  V30 2701 H 250.857 -5.92278 1.51714 0
M  V30 2702 H 255.031 -6.59327 2.24189 0
M  V30 2703 H 252.658 -7.08546 2.7544 0
M  V30 2704 N 254.233 0.115231 -1.57178 0
M  V30 2705 C 255.196 1.12526 -1.99676 0
M  V30 2706 C 256.196 1.34095 -0.88742 0
M  V30 2707 O 257.386 1.30548 -1.15337 0
M  V30 2708 C 254.518 2.4789 -2.34015 0
M  V30 2709 H 255.711 0.759912 -2.90113 0
M  V30 2710 H 253.264 0.359648 -1.52106 0
M  V30 2711 H 253.999 2.89339 -1.4647 0
M  V30 2712 H 253.784 2.33588 -3.14927 0
M  V30 2713 H 255.274 3.20575 -2.67622 0
M  V30 2714 N 255.711 1.52812 0.385517 0
M  V30 2715 C 256.988 1.5861 1.14465 0
M  V30 2716 C 257.368 0.381402 2.07626 0
M  V30 2717 O 256.716 -0.629999 2.19643 0
M  V30 2718 C 256.926 2.92664 1.90128 0
M  V30 2719 C 258.274 3.46526 2.45367 0
M  V30 2720 O 259.298 2.94562 2.0028 0
M  V30 2721 O 258.157 4.37323 3.27736 0
M  V30 2722 H 255.251 0.639855 0.523941 0
M  V30 2723 H 257.797 1.65149 0.390389 0
M  V30 2724 H 256.569 3.71788 1.22022 0
M  V30 2725 H 256.192 2.89527 2.72507 0
M  V30 2726 N 257.189 -0.644168 1.43834 0
M  V30 2727 C 258.121 -1.76955 1.45669 0
M  V30 2728 C 259.134 -1.58956 0.351666 0
M  V30 2729 O 260.323 -1.6751 0.616644 0
M  V30 2730 C 257.423 -3.14507 1.26248 0
M  V30 2731 C 256.596 -3.59083 2.49757 0
M  V30 2732 C 255.655 -4.75467 2.25427 0
M  V30 2733 O 254.681 -4.84444 2.98836 0
M  V30 2734 N 255.883 -5.66289 1.27661 0
M  V30 2735 H 258.648 -1.75856 2.42682 0
M  V30 2736 H 256.209 -0.828312 1.39106 0
M  V30 2737 H 258.201 -3.90067 1.0784 0
M  V30 2738 H 256.771 -3.10325 0.376478 0
M  V30 2739 H 255.991 -2.7387 2.8353 0
M  V30 2740 H 257.279 -3.85613 3.31934 0
M  V30 2741 H 256.677 -5.61718 0.670064 0
M  V30 2742 H 255.234 -6.41533 1.15234 0
M  V30 2743 N 258.668 -1.30515 -0.883378 0
M  V30 2744 C 259.915 -1.1943 -1.63532 0
M  V30 2745 C 260.243 0.250627 -1.92878 0
M  V30 2746 O 259.498 1.19556 -1.54935 0
M  V30 2747 C 259.797 -1.96994 -2.98209 0
M  V30 2748 C 259.463 -3.466 -2.88408 0
M  V30 2749 C 258.125 -3.87397 -2.85442 0
M  V30 2750 C 260.477 -4.41863 -2.76418 0
M  V30 2751 C 257.805 -5.21745 -2.68327 0
M  V30 2752 C 260.157 -5.7632 -2.60841 0
M  V30 2753 C 258.821 -6.16354 -2.56251 0
M  V30 2754 H 258.091 -0.437025 -0.598406 0
M  V30 2755 H 260.738 -1.61635 -1.02696 0
M  V30 2756 H 259.043 -1.47429 -3.63004 0
M  V30 2757 H 260.74 -1.85808 -3.55354 0
M  V30 2758 H 257.33 -3.14182 -2.91527 0
M  V30 2759 H 261.514 -4.11285 -2.77775 0
M  V30 2760 H 256.77 -5.51853 -2.63189 0
M  V30 2761 H 260.944 -6.49772 -2.50538 0
M  V30 2762 H 258.571 -7.20401 -2.42748 0
M  V30 2763 N 260.146 1.09593 -1.13257 0
M  V30 2764 C 261.076 2.18214 -0.830946 0
M  V30 2765 C 262.057 1.68812 0.208966 0
M  V30 2766 O 263.242 1.9408 0.0682666 0
M  V30 2767 C 260.372 3.46051 -0.294296 0
M  V30 2768 C 259.326 4.08778 -1.26826 0
M  V30 2769 C 258.652 5.31419 -0.591449 0
M  V30 2770 C 259.952 4.51476 -2.62615 0
M  V30 2771 H 261.646 2.43703 -1.73923 0
M  V30 2772 H 259.192 1.17128 -0.837675 0
M  V30 2773 H 261.145 4.2134 -0.0709606 0
M  V30 2774 H 259.869 3.20079 0.649366 0
M  V30 2775 H 258.528 3.35505 -1.47756 0
M  V30 2776 H 258.176 5.01727 0.357633 0
M  V30 2777 H 257.876 5.74341 -1.24123 0
M  V30 2778 H 259.4 6.09433 -0.377355 0
M  V30 2779 H 260.814 5.17999 -2.45663 0
M  V30 2780 H 259.211 5.05277 -3.23752 0
M  V30 2781 H 260.281 3.63962 -3.20406 0
M  V30 2782 N 261.624 0.925811 1.2754 0
M  V30 2783 C 262.556 0.380753 2.26015 0
M  V30 2784 C 263.569 -0.487485 1.5533 0
M  V30 2785 O 264.758 -0.300413 1.75954 0
M  V30 2786 C 261.858 -0.473259 3.35579 0
M  V30 2787 C 261.031 0.375249 4.35787 0
M  V30 2788 C 260.09 -0.415809 5.24555 0
M  V30 2789 O 259.116 0.175834 5.68928 0
M  V30 2790 N 260.318 -1.71607 5.54555 0
M  V30 2791 H 263.083 1.22725 2.73421 0
M  V30 2792 H 260.644 0.793037 1.41147 0
M  V30 2793 H 262.636 -1.00949 3.91907 0
M  V30 2794 H 261.206 -1.2205 2.87789 0
M  V30 2795 H 260.426 1.09279 3.7875 0
M  V30 2796 H 261.714 0.955399 4.99749 0
M  V30 2797 H 261.112 -2.2191 5.20358 0
M  V30 2798 H 259.669 -2.19887 6.1359 0
M  V30 2799 N 263.102 -1.41638 0.69111 0
M  V30 2800 C 264.032 -2.3347 0.037248 0
M  V30 2801 C 265.013 -1.51575 -0.771947 0
M  V30 2802 O 266.198 -1.80126 -0.72582 0
M  V30 2803 C 263.328 -3.35354 -0.903064 0
M  V30 2804 C 262.282 -4.27526 -0.201288 0
M  V30 2805 C 261.608 -5.19747 -1.25565 0
M  V30 2806 C 262.908 -5.13959 0.929689 0
M  V30 2807 H 264.602 -2.88397 0.804227 0
M  V30 2808 H 262.148 -1.38669 0.388189 0
M  V30 2809 H 264.101 -3.98519 -1.36969 0
M  V30 2810 H 262.825 -2.78767 -1.70166 0
M  V30 2811 H 261.484 -3.65779 0.245265 0
M  V30 2812 H 261.132 -4.59479 -2.04666 0
M  V30 2813 H 260.832 -5.8225 -0.791128 0
M  V30 2814 H 262.356 -5.85789 -1.72288 0
M  V30 2815 H 263.77 -5.70718 0.543546 0
M  V30 2816 H 262.167 -5.85379 1.32103 0
M  V30 2817 H 263.237 -4.51389 1.77133 0
M  V30 2818 N 264.58 -0.43555 -1.51462 0
M  V30 2819 C 265.805 0.132627 -2.06976 0
M  V30 2820 C 266.23 1.35848 -1.30104 0
M  V30 2821 O 265.588 1.78112 -0.338493 0
M  V30 2822 C 265.636 0.43523 -3.57964 0
M  V30 2823 O 264.74 1.52198 -3.83288 0
M  V30 2824 H 264.081 0.00265 -0.663995 0
M  V30 2825 H 266.611 -0.616369 -1.95095 0
M  V30 2826 H 266.621 0.686206 -4.02188 0
M  V30 2827 H 265.296 -0.460739 -4.1334 0
M  V30 2828 H 263.873 1.2611 -3.50928 0
M  V30 2829 N 266.058 1.56714 -0.166846 0
M  V30 2830 C 267.286 2.0112 0.485644 0
M  V30 2831 C 267.701 1.04705 1.57106 0
M  V30 2832 O 267.058 0.0471923 1.82439 0
M  V30 2833 C 267.109 3.45361 1.06808 0
M  V30 2834 O 266.83 4.38092 0.0259995 0
M  V30 2835 C 268.331 4.05145 1.79924 0
M  V30 2836 H 265.551 0.65931 0.124704 0
M  V30 2837 H 268.095 2.02746 -0.267262 0
M  V30 2838 H 266.25 3.44524 1.7715 0
M  V30 2839 H 266.664 5.22519 0.455398 0
M  V30 2840 H 268.138 5.08009 2.15942 0
M  V30 2841 H 268.615 3.46982 2.69258 0
M  V30 2842 H 269.221 4.09672 1.14234 0
M  V30 2843 N 267.536 -0.106894 1.57237 0
M  V30 2844 C 268.761 -0.830287 1.90055 0
M  V30 2845 C 269.186 -1.72064 0.75998 0
M  V30 2846 O 268.544 -1.78982 -0.288991 0
M  V30 2847 C 268.592 -1.6295 3.21683 0
M  V30 2848 O 267.696 -2.73748 3.08441 0
M  V30 2849 H 267.037 -0.228855 0.623315 0
M  V30 2850 H 269.567 -0.085658 2.04421 0
M  V30 2851 H 269.577 -2.01621 3.54701 0
M  V30 2852 H 268.252 -0.975989 4.04286 0
M  V30 2853 H 266.829 -2.38192 2.86913 0
M  V30 2854 N 269.014 -1.53014 -0.377408 0
M  V30 2855 C 269.944 -1.81589 -1.46791 0
M  V30 2856 C 270.925 -0.668622 -1.56408 0
M  V30 2857 O 272.11 -0.917337 -1.71168 0
M  V30 2858 C 269.24 -1.99519 -2.8427 0
M  V30 2859 C 268.194 -3.15249 -2.89486 0
M  V30 2860 C 267.52 -3.18451 -4.29527 0
M  V30 2861 C 268.82 -4.54084 -2.58079 0
M  V30 2862 H 270.514 -2.7291 -1.23127 0
M  V30 2863 H 268.06 -1.31319 -0.590883 0
M  V30 2864 H 270.013 -2.18092 -3.60575 0
M  V30 2865 H 268.737 -1.04897 -3.09296 0
M  V30 2866 H 267.396 -2.96477 -2.15631 0
M  V30 2867 H 267.044 -2.2149 -4.5161 0
M  V30 2868 H 266.744 -3.962 -4.33934 0
M  V30 2869 H 268.268 -3.39193 -5.07721 0
M  V30 2870 H 269.682 -4.72899 -3.24098 0
M  V30 2871 H 268.079 -5.33987 -2.7382 0
M  V30 2872 H 269.149 -4.60006 -1.53372 0
M  V30 2873 N 270.492 0.636531 -1.44174 0
M  V30 2874 C 271.903 1.21806 -1.41493 0
M  V30 2875 C 272.254 1.95785 -0.1275 0
M  V30 2876 O 271.379 2.02147 0.772376 0
M  V30 2877 C 271.974 2.21551 -2.56321 0
M  V30 2878 C 270.533 2.75143 -2.56853 0
M  V30 2879 C 269.68 1.50052 -2.33195 0
M  V30 2880 H 272.631 0.427531 -1.52833 0
M  V30 2881 H 272.652 3.0405 -2.28765 0
M  V30 2882 H 272.164 1.67679 -3.50008 0
M  V30 2883 H 270.265 3.33033 -1.67093 0
M  V30 2884 H 270.378 3.2155 -3.55165 0
M  V30 2885 H 268.742 1.77993 -1.82183 0
M  V30 2886 H 269.525 0.980903 -3.28988 0
M  V30 2887 N 271.97 1.30982 0.876444 0
M  V30 2888 C 273.195 1.23373 1.66715 0
M  V30 2889 C 273.62 -0.19885 1.87046 0
M  V30 2890 O 272.978 -1.1427 1.40756 0
M  V30 2891 C 273.026 1.97644 3.01611 0
M  V30 2892 O 272.13 1.30935 3.91062 0
M  V30 2893 H 271.471 0.426279 0.509099 0
M  V30 2894 H 274.001 1.72944 1.09323 0
M  V30 2895 H 274.011 2.06992 3.51594 0
M  V30 2896 H 272.686 3.01829 2.86133 0
M  V30 2897 H 271.263 1.29996 3.49507 0
M  V30 2898 N 273.449 -1.08991 1.13837 0
M  V30 2899 C 274.381 -2.15606 0.777612 0
M  V30 2900 C 275.394 -1.61533 -0.202739 0
M  V30 2901 O 276.583 -1.78491 0.0181055 0
M  V30 2902 C 273.683 -3.3864 0.132623 0
M  V30 2903 C 272.856 -4.22115 1.1462 0
M  V30 2904 C 271.915 -5.23564 0.526074 0
M  V30 2905 O 270.941 -5.56678 1.18735 0
M  V30 2906 N 272.143 -5.76266 -0.699866 0
M  V30 2907 H 274.908 -2.47159 1.69506 0
M  V30 2908 H 272.469 -1.24747 1.03198 0
M  V30 2909 H 274.461 -4.03626 -0.29459 0
M  V30 2910 H 273.031 -3.04938 -0.687849 0
M  V30 2911 H 272.251 -3.53199 1.75055 0
M  V30 2912 H 273.539 -4.74709 1.83109 0
M  V30 2913 H 272.937 -5.51585 -1.25581 0
M  V30 2914 H 271.494 -6.42963 -1.06968 0
M  V30 2915 N 274.927 -0.932562 -1.27047 0
M  V30 2916 C 276.157 -0.591173 -1.97961 0
M  V30 2917 C 276.565 0.836219 -1.69717 0
M  V30 2918 O 275.908 1.56801 -0.957036 0
M  V30 2919 C 275.97 -0.743082 -3.51736 0
M  V30 2920 C 275.634 -2.1435 -4.03613 0
M  V30 2921 C 276.631 -3.11815 -4.16014 0
M  V30 2922 C 274.316 -2.46175 -4.37839 0
M  V30 2923 C 276.31 -4.39211 -4.61923 0
M  V30 2924 C 273.997 -3.73806 -4.83438 0
M  V30 2925 C 274.995 -4.70137 -4.95439 0
M  V30 2926 O 274.683 -5.95496 -5.40037 0
M  V30 2927 H 274.415 -0.222375 -0.638377 0
M  V30 2928 H 276.969 -1.25317 -1.62742 0
M  V30 2929 H 275.199 -0.0239739 -3.86693 0
M  V30 2930 H 276.888 -0.40603 -4.03864 0
M  V30 2931 H 277.654 -2.88549 -3.89826 0
M  V30 2932 H 273.533 -1.71936 -4.27737 0
M  V30 2933 H 277.077 -5.14404 -4.71205 0
M  V30 2934 H 272.974 -3.96888 -5.09068 0
M  V30 2935 H 273.742 -5.98554 -5.58279 0
M  V30 2936 N 276.405 1.4127 -0.698611 0
M  V30 2937 C 277.654 2.00408 -0.227949 0
M  V30 2938 C 277.967 1.55981 1.18023 0
M  V30 2939 O 279.173 2.07699 1.74852 0
M  V30 2940 C 277.629 3.58129 -0.356636 0
M  V30 2941 C 277.237 4.11536 -1.77037 0
M  V30 2942 C 278.981 4.24466 0.0540969 0
M  V30 2943 C 276.888 5.61701 -1.85055 0
M  V30 2944 H 275.818 0.749586 -0.0814657 0
M  V30 2945 H 278.469 1.61713 -0.867249 0
M  V30 2946 H 276.851 3.94442 0.350965 0
M  V30 2947 H 278.025 3.86636 -2.50698 0
M  V30 2948 H 276.34 3.57736 -2.13105 0
M  V30 2949 H 278.937 5.34698 0.0146723 0
M  V30 2950 H 279.28 4.01687 1.09332 0
M  V30 2951 H 279.813 3.93198 -0.603337 0
M  V30 2952 H 276.552 5.89312 -2.8704 0
M  V30 2953 H 276.072 5.88519 -1.15783 0
M  V30 2954 H 277.751 6.26524 -1.61484 0
M  V30 2955 N 277.883 0.443576 1.51229 0
M  V30 2956 C 279.111 -0.11929 2.06556 0
M  V30 2957 C 279.526 -1.35921 1.31038 0
M  V30 2958 O 278.883 -1.78675 0.371704 0
M  V30 2959 C 278.934 -0.435228 3.5887 0
M  V30 2960 O 278.655 0.755486 4.31537 0
M  V30 2961 C 280.156 -1.04808 4.30732 0
M  V30 2962 H 277.376 -0.0051584 0.67098 0
M  V30 2963 H 279.92 0.624453 1.94733 0
M  V30 2964 H 278.075 -1.12887 3.70588 0
M  V30 2965 H 278.489 0.483491 5.22267 0
M  V30 2966 H 279.963 -1.2191 5.3837 0
M  V30 2967 H 280.44 -2.03081 3.89429 0
M  V30 2968 H 281.046 -0.393637 4.23474 0
M  V30 2969 N 279.361 -1.56624 0.175154 0
M  V30 2970 C 280.609 -1.96609 -0.467885 0
M  V30 2971 C 280.93 -1.06238 -1.63519 0
M  V30 2972 O 280.2 -0.129523 -1.95471 0
M  V30 2973 H 278.78 -0.726008 -0.175845 0
M  V30 2974 H 281.442 -1.93195 0.257234 0
M  V30 2975 H 280.538 -3.00989 -0.825342 0
M  V30 2976 N 280.839 0.0985539 -1.57292 0
M  V30 2977 C 281.769 1.12064 -2.04851 0
M  V30 2978 C 282.75 1.41981 -0.936767 0
M  V30 2979 O 283.935 1.52071 -1.20781 0
M  V30 2980 C 281.065 2.44144 -2.47004 0
M  V30 2981 C 280.019 2.28643 -3.6181 0
M  V30 2982 C 279.345 3.65869 -3.89929 0
M  V30 2983 C 280.645 1.72986 -4.92822 0
M  V30 2984 H 282.339 0.724979 -2.9049 0
M  V30 2985 H 279.885 0.34729 -1.39749 0
M  V30 2986 H 281.838 3.15914 -2.78884 0
M  V30 2987 H 280.562 2.85639 -1.5836 0
M  V30 2988 H 279.221 1.59318 -3.30172 0
M  V30 2989 H 278.869 4.04885 -2.98458 0
M  V30 2990 H 278.569 3.56344 -4.67218 0
M  V30 2991 H 280.093 4.39112 -4.2428 0
M  V30 2992 H 281.507 2.34593 -5.23105 0
M  V30 2993 H 279.904 1.74229 -5.74251 0
M  V30 2994 H 280.974 0.689007 -4.7998 0
M  V30 2995 N 282.317 1.53212 0.369288 0
M  V30 2996 C 283.28 1.7872 1.43498 0
M  V30 2997 C 284.28 0.657554 1.46741 0
M  V30 2998 O 285.47 0.925736 1.47566 0
M  V30 2999 C 282.602 1.90591 2.82645 0
M  V30 3000 H 283.795 2.73894 1.22156 0
M  V30 3001 H 281.348 1.44233 0.602203 0
M  V30 3002 H 282.083 0.974709 3.09306 0
M  V30 3003 H 281.868 2.72751 2.8169 0
M  V30 3004 H 283.358 2.11931 3.59826 0
M  V30 3005 N 283.795 -0.628877 1.44509 0
M  V30 3006 C 284.705 -1.7694 1.54044 0
M  V30 3007 C 285.721 -1.68705 0.425987 0
M  V30 3008 O 286.897 -1.89442 0.683656 0
M  V30 3009 C 283.962 -3.13332 1.48405 0
M  V30 3010 C 283.023 -3.33181 2.70719 0
M  V30 3011 C 282.256 -4.63067 2.6534 0
M  V30 3012 O 282.479 -5.44017 1.71469 0
M  V30 3013 O 281.413 -4.85167 3.56226 0
M  V30 3014 H 285.239 -1.71848 2.50403 0
M  V30 3015 H 282.824 -0.790378 1.26781 0
M  V30 3016 H 284.706 -3.94634 1.47791 0
M  V30 3017 H 283.381 -3.1896 0.551898 0
M  V30 3018 H 282.288 -2.51549 2.769 0
M  V30 3019 H 283.621 -3.32416 3.62988 0
M  V30 3020 N 285.273 -1.31445 -0.869486 0
M  V30 3021 C 286.223 -1.15731 -1.96444 0
M  V30 3022 C 287.207 -0.0681855 -1.60755 0
M  V30 3023 O 288.399 -0.293154 -1.74555 0
M  V30 3024 C 285.528 -0.867255 -3.32165 0
M  V30 3025 C 284.614 -1.99738 -3.74119 0
M  V30 3026 N 285.005 -3.24447 -3.88031 0
M  V30 3027 C 283.303 -1.89723 -4.03635 0
M  V30 3028 C 284.004 -3.98374 -4.23879 0
M  V30 3029 N 282.98 -3.26547 -4.3459 0
M  V30 3030 H 286.782 -2.10296 -2.05312 0
M  V30 3031 H 284.296 -1.23009 -1.06031 0
M  V30 3032 H 286.293 -0.735668 -4.10358 0
M  V30 3033 H 284.953 0.0701614 -3.24624 0
M  V30 3034 H 285.964 -3.59557 -3.72746 0
M  V30 3035 H 282.641 -1.03449 -4.04481 0
M  V30 3036 H 284.031 -5.05844 -4.42235 0
M  V30 3037 N 286.751 1.08385 -1.14413 0
M  V30 3038 C 287.681 2.17321 -0.854044 0
M  V30 3039 C 288.662 1.69024 0.191049 0
M  V30 3040 O 289.847 1.94141 0.0476779 0
M  V30 3041 C 286.977 3.45719 -0.330983 0
M  V30 3042 C 285.931 4.07409 -1.31155 0
M  V30 3043 C 285.257 5.30762 -0.64778 0
M  V30 3044 C 286.557 4.48665 -2.67388 0
M  V30 3045 H 288.251 2.41845 -1.76498 0
M  V30 3046 H 285.797 1.16233 -0.850051 0
M  V30 3047 H 287.75 4.21241 -0.115645 0
M  V30 3048 H 286.474 3.2075 0.615381 0
M  V30 3049 H 285.133 3.33919 -1.51306 0
M  V30 3050 H 284.781 5.02078 0.304398 0
M  V30 3051 H 284.481 5.72992 -1.30207 0
M  V30 3052 H 286.005 6.08998 -0.441972 0
M  V30 3053 H 287.419 5.15364 -2.51143 0
M  V30 3054 H 285.816 5.01814 -3.29093 0
M  V30 3055 H 286.886 3.60543 -3.24248 0
M  V30 3056 N 288.23 0.939286 1.26551 0
M  V30 3057 C 289.455 0.602008 1.98471 0
M  V30 3058 C 289.88 -0.815624 1.69497 0
M  V30 3059 O 289.238 -1.54912 0.941905 0
M  V30 3060 C 289.286 0.848407 3.50477 0
M  V30 3061 O 288.39 -0.0804009 4.12322 0
M  V30 3062 H 287.731 0.23049 0.622712 0
M  V30 3063 H 290.261 1.2617 1.61066 0
M  V30 3064 H 290.271 0.768553 4.00696 0
M  V30 3065 H 288.946 1.88171 3.70897 0
M  V30 3066 H 287.523 0.0503508 3.72866 0
M  V30 3067 N 289.708 -1.40897 0.706093 0
M  V30 3068 C 291.119 -1.84023 0.315052 0
M  V30 3069 C 291.47 -1.5906 -1.14866 0
M  V30 3070 O 290.595 -1.06651 -1.88293 0
M  V30 3071 C 291.19 -3.34055 0.565038 0
M  V30 3072 C 289.749 -3.7571 0.227806 0
M  V30 3073 C 288.896 -2.64204 0.842122 0
M  V30 3074 H 291.847 -1.303 0.905963 0
M  V30 3075 H 291.868 -3.80107 -0.172843 0
M  V30 3076 H 291.38 -3.52192 1.63042 0
M  V30 3077 H 289.481 -3.63172 -0.832895 0
M  V30 3078 H 289.594 -4.74103 0.690174 0
M  V30 3079 H 287.958 -2.53255 0.270893 0
M  V30 3080 H 288.741 -2.85155 1.91158 0
M  V30 3081 N 291.186 -0.45159 -1.50991 0
M  V30 3082 C 292.116 0.342898 -2.30969 0
M  V30 3083 C 293.097 1.00815 -1.37005 0
M  V30 3084 O 294.282 1.00907 -1.65926 0
M  V30 3085 C 291.412 1.43637 -3.16205 0
M  V30 3086 C 290.366 0.893818 -4.18563 0
M  V30 3087 C 289.692 2.08411 -4.92411 0
M  V30 3088 C 290.992 -0.0815568 -5.22236 0
M  V30 3089 H 292.686 -0.324556 -2.97636 0
M  V30 3090 H 290.232 -0.157531 -1.43136 0
M  V30 3091 H 292.185 1.9995 -3.70942 0
M  V30 3092 H 290.909 2.13232 -2.47386 0
M  V30 3093 H 289.568 0.352798 -3.64898 0
M  V30 3094 H 289.216 2.76658 -4.20082 0
M  V30 3095 H 288.916 1.72741 -5.61636 0
M  V30 3096 H 290.44 2.65251 -5.49976 0
M  V30 3097 H 291.854 0.391742 -5.7196 0
M  V30 3098 H 290.251 -0.351551 -5.99069 0
M  V30 3099 H 291.321 -1.01374 -4.74185 0
M  V30 3100 N 292.664 1.56529 -0.183458 0
M  V30 3101 C 293.597 2.14417 0.781052 0
M  V30 3102 C 294.575 1.07761 1.21763 0
M  V30 3103 O 295.759 1.35807 1.30724 0
M  V30 3104 C 292.886 2.69361 2.05335 0
M  V30 3105 C 291.932 3.885 1.75982 0
M  V30 3106 S 292.765 5.27568 0.918256 0
M  V30 3107 C 293.921 5.85926 2.20095 0
M  V30 3108 H 294.154 2.95893 0.2889 0
M  V30 3109 H 291.687 1.54368 0.0313844 0
M  V30 3110 H 293.645 3.01662 2.78406 0
M  V30 3111 H 292.306 1.87949 2.51663 0
M  V30 3112 H 291.499 4.25314 2.70415 0
M  V30 3113 H 291.101 3.57149 1.10999 0
M  V30 3114 H 293.393 5.99579 3.15453 0
M  V30 3115 H 294.336 6.82761 1.87731 0
M  V30 3116 H 294.744 5.14438 2.32409 0
M  V30 3117 N 294.142 -0.090211 1.57342 0
M  V30 3118 C 295.072 -1.10976 2.05443 0
M  V30 3119 C 296.053 -1.41482 0.944284 0
M  V30 3120 O 297.238 -1.51428 1.21586 0
M  V30 3121 C 294.368 -2.42831 2.48295 0
M  V30 3122 C 293.322 -2.26721 3.63018 0
M  V30 3123 C 292.648 -3.63796 3.91863 0
M  V30 3124 C 293.948 -1.7037 4.93732 0
M  V30 3125 H 295.642 -0.709564 2.9087 0
M  V30 3126 H 293.188 -0.339874 1.39932 0
M  V30 3127 H 295.141 -3.14431 2.80555 0
M  V30 3128 H 293.865 -2.84795 1.59873 0
M  V30 3129 H 292.524 -1.57565 3.31012 0
M  V30 3130 H 292.172 -4.03297 3.00601 0
M  V30 3131 H 291.872 -3.53861 4.69101 0
M  V30 3132 H 293.396 -4.36855 4.26603 0
M  V30 3133 H 294.81 -2.31816 5.24342 0
M  V30 3134 H 293.207 -1.71181 5.75167 0
M  V30 3135 H 294.277 -0.663542 4.80339 0
M  V30 3136 N 295.62 -1.53406 -0.361157 0
M  V30 3137 C 296.845 -1.74024 -1.12829 0
M  V30 3138 C 297.27 -0.470069 -1.82132 0
M  V30 3139 O 296.628 0.57619 -1.719 0
M  V30 3140 C 296.676 -2.90903 -2.13091 0
M  V30 3141 O 295.78 -2.59821 -3.20261 0
M  V30 3142 H 295.121 -0.577804 -0.327168 0
M  V30 3143 H 297.651 -2.00307 -0.41693 0
M  V30 3144 H 297.661 -3.17194 -2.56616 0
M  V30 3145 H 296.336 -3.83034 -1.62042 0
M  V30 3146 H 294.913 -2.44362 -2.81677 0
M  V30 3147 N 297.098 0.621204 -1.44841 0
M  V30 3148 C 298.326 1.40752 -1.51646 0
M  V30 3149 C 298.741 1.88246 -0.144549 0
M  V30 3150 O 298.098 1.61422 0.851416 0
M  V30 3151 C 298.149 2.62119 -2.4895 0
M  V30 3152 O 297.87 2.16602 -3.80808 0
M  V30 3153 C 299.371 3.55135 -2.65319 0
M  V30 3154 H 296.591 0.431325 -0.514004 0
M  V30 3155 H 299.135 0.758835 -1.899 0
M  V30 3156 H 297.29 3.23058 -2.13805 0
M  V30 3157 H 297.704 2.95358 -4.33433 0
M  V30 3158 H 299.178 4.36874 -3.37409 0
M  V30 3159 H 299.655 4.04592 -1.70886 0
M  V30 3160 H 300.261 3.00058 -3.01405 0
M  V30 3161 N 298.576 1.31904 0.862503 0
M  V30 3162 C 299.801 1.25135 1.65397 0
M  V30 3163 C 300.226 -0.179 1.87246 0
M  V30 3164 O 299.584 -1.1277 1.4196 0
M  V30 3165 C 299.632 2.00832 2.99498 0
M  V30 3166 O 298.736 1.35075 3.89652 0
M  V30 3167 H 298.077 0.431655 0.504549 0
M  V30 3168 H 300.607 1.74094 1.07483 0
M  V30 3169 H 300.617 2.10709 3.49379 0
M  V30 3170 H 299.292 3.04847 2.82916 0
M  V30 3171 H 297.869 1.33696 3.48109 0
M  V30 3172 N 300.054 -1.07777 1.14986 0
M  V30 3173 C 301.3 -1.80719 0.93339 0
M  V30 3174 C 301.655 -1.8484 -0.534019 0
M  V30 3175 O 300.948 -1.31795 -1.3907 0
M  V30 3176 C 301.142 -3.25495 1.47608 0
M  V30 3177 C 300.971 -3.3548 2.99472 0
M  V30 3178 C 299.741 -3.46293 3.6798 0
M  V30 3179 C 301.939 -3.26596 3.97291 0
M  V30 3180 N 299.921 -3.45136 5.07695 0
M  V30 3181 C 301.292 -3.32506 5.23297 0
M  V30 3182 C 303.347 -3.10376 3.89321 0
M  V30 3183 C 302.05 -3.23866 6.42264 0
M  V30 3184 C 304.076 -3.03069 5.07842 0
M  V30 3185 C 303.438 -3.09587 6.32721 0
M  V30 3186 H 299.537 -0.674814 0.395158 0
M  V30 3187 H 302.121 -1.28681 1.46114 0
M  V30 3188 H 300.292 -3.75963 0.975022 0
M  V30 3189 H 302.024 -3.86535 1.19887 0
M  V30 3190 H 298.779 -3.50456 3.18555 0
M  V30 3191 H 299.203 -3.48097 5.80653 0
M  V30 3192 H 303.845 -3.04194 2.93642 0
M  V30 3193 H 301.563 -3.28807 7.38181 0
M  V30 3194 H 305.149 -2.91629 5.03432 0
M  V30 3195 H 304.029 -3.0397 7.22891 0
M  V30 3196 N 301.532 -0.945985 -1.26051 0
M  V30 3197 C 302.76 -0.613025 -1.9761 0
M  V30 3198 C 303.175 0.813035 -1.70397 0
M  V30 3199 O 302.532 1.54274 -0.974979 0
M  V30 3200 C 302.583 -0.85159 -3.51326 0
M  V30 3201 O 302.304 -2.22157 -3.77595 0
M  V30 3202 C 303.805 -0.529831 -4.40122 0
M  V30 3203 H 301.025 -0.230593 -0.630133 0
M  V30 3204 H 303.569 -1.268 -1.60443 0
M  V30 3205 H 301.724 -0.243151 -3.86636 0
M  V30 3206 H 302.138 -2.2852 -4.721 0
M  V30 3207 H 303.612 -0.747348 -5.46917 0
M  V30 3208 H 304.089 0.535341 -4.35925 0
M  V30 3209 H 304.695 -1.11721 -4.10364 0
M  V30 3210 N 303.011 1.40521 -0.713556 0
M  V30 3211 C 304.427 1.54839 -0.386907 0
M  V30 3212 C 304.627 1.68532 1.1045 0
M  V30 3213 O 303.683 1.67377 1.89053 0
M  V30 3214 C 304.996 2.77792 -1.15118 0
M  V30 3215 C 306.544 2.91607 -1.13729 0
M  V30 3216 C 307.019 4.1747 -1.88368 0
M  V30 3217 N 308.51 4.24466 -1.85427 0
M  V30 3218 C 309.245 5.20755 -2.40004 0
M  V30 3219 N 308.741 6.22965 -3.03129 0
M  V30 3220 N 310.534 5.1282 -2.30158 0
M  V30 3221 H 302.685 1.29879 -1.68063 0
M  V30 3222 H 304.948 0.627896 -0.710247 0
M  V30 3223 H 304.654 2.73944 -2.20561 0
M  V30 3224 H 304.528 3.6984 -0.741477 0
M  V30 3225 H 306.915 2.94959 -0.0910608 0
M  V30 3226 H 306.996 2.00682 -1.5862 0
M  V30 3227 H 306.64 4.1488 -2.9298 0
M  V30 3228 H 306.57 5.074 -1.40898 0
M  V30 3229 H 309.061 3.51241 -1.3942 0
M  V30 3230 H 309.374 6.92859 -3.42295 0
M  V30 3231 H 307.719 6.23415 -3.07212 0
M  V30 3232 H 310.91 4.31899 -1.80501 0
M  V30 3233 H 311.083 5.87689 -2.72993 0
M  V30 3234 N 304.489 0.459591 1.5075 0
M  V30 3235 C 305.738 -0.100971 2.01447 0
M  V30 3236 C 306.051 -1.41816 1.34713 0
M  V30 3237 O 307.257 -2.06299 1.76502 0
M  V30 3238 C 305.713 -0.23047 3.59161 0
M  V30 3239 C 305.321 1.0776 4.34847 0
M  V30 3240 C 307.065 -0.743608 4.17936 0
M  V30 3241 C 304.972 0.91253 5.84317 0
M  V30 3242 H 303.902 -0.0415102 0.752856 0
M  V30 3243 H 306.553 0.592742 1.73663 0
M  V30 3244 H 304.935 -0.987703 3.83485 0
M  V30 3245 H 306.109 1.8449 4.22256 0
M  V30 3246 H 304.424 1.52097 3.87628 0
M  V30 3247 H 307.021 -0.883959 5.27343 0
M  V30 3248 H 307.364 -1.73196 3.78562 0
M  V30 3249 H 307.897 -0.04408 3.97776 0
M  V30 3250 H 304.636 1.87391 6.28144 0
M  V30 3251 H 304.156 0.185422 5.99513 0
M  V30 3252 H 305.835 0.574547 6.44444 0
M  V30 3253 N 305.967 -1.56429 0.191757 0
M  V30 3254 C 307.195 -2.01867 -0.453586 0
M  V30 3255 C 307.61 -1.07191 -1.5542 0
M  V30 3256 O 306.967 -0.0762108 -1.82341 0
M  V30 3257 C 307.018 -3.47017 -1.013 0
M  V30 3258 O 306.739 -4.38078 0.0437005 0
M  V30 3259 C 308.24 -4.07956 -1.73456 0
M  V30 3260 H 305.46 -0.661211 -0.114199 0
M  V30 3261 H 308.004 -2.02295 0.299483 0
M  V30 3262 H 306.159 -3.47298 -1.71647 0
M  V30 3263 H 306.573 -5.23178 -0.372212 0
M  V30 3264 H 308.047 -5.1138 -2.07833 0
M  V30 3265 H 308.524 -3.51222 -2.63704 0
M  V30 3266 H 309.13 -4.11437 -1.07702 0
M  V30 3267 N 307.445 0.0818655 -1.57387 0
M  V30 3268 C 308.375 1.09885 -2.06028 0
M  V30 3269 C 309.356 1.4098 -0.951774 0
M  V30 3270 O 310.541 1.50781 -1.22387 0
M  V30 3271 C 307.671 2.4151 -2.4958 0
M  V30 3272 C 306.625 2.24792 -3.64215 0
M  V30 3273 C 305.951 3.61712 -3.93787 0
M  V30 3274 C 307.251 1.67749 -4.94629 0
M  V30 3275 H 308.945 0.694128 -2.91243 0
M  V30 3276 H 306.491 0.332448 -1.4011 0
M  V30 3277 H 308.444 3.12939 -2.82219 0
M  V30 3278 H 307.168 2.83943 -1.61381 0
M  V30 3279 H 305.827 1.55807 -3.31843 0
M  V30 3280 H 305.475 4.01697 -3.02735 0
M  V30 3281 H 305.175 3.51368 -4.70971 0
M  V30 3282 H 306.699 4.34587 -4.28913 0
M  V30 3283 H 308.113 2.29032 -5.25564 0
M  V30 3284 H 306.51 1.68128 -5.76067 0
M  V30 3285 H 307.58 0.638059 -4.80684 0
M  V30 3286 N 308.923 1.53595 0.353017 0
M  V30 3287 C 310.169 1.71581 1.09232 0
M  V30 3288 C 310.524 0.468328 1.86613 0
M  V30 3289 O 309.817 -0.538911 1.83865 0
M  V30 3290 C 310.011 2.91313 2.07054 0
M  V30 3291 C 309.84 4.27585 1.39287 0
M  V30 3292 C 308.61 4.92233 1.1417 0
M  V30 3293 C 310.808 5.07656 0.824005 0
M  V30 3294 N 308.79 6.124 0.428841 0
M  V30 3295 C 310.161 6.19531 0.241195 0
M  V30 3296 C 312.216 4.92609 0.723922 0
M  V30 3297 C 310.919 7.18002 -0.431952 0
M  V30 3298 C 312.945 5.91365 0.0645334 0
M  V30 3299 C 312.307 7.02571 -0.507347 0
M  V30 3300 H 308.406 0.680987 0.384422 0
M  V30 3301 H 310.99 1.91013 0.377096 0
M  V30 3302 H 309.161 2.73398 2.75877 0
M  V30 3303 H 310.893 2.98062 2.73753 0
M  V30 3304 H 307.648 4.51612 1.42631 0
M  V30 3305 H 308.072 6.76944 0.0874131 0
M  V30 3306 H 312.714 4.06808 1.15181 0
M  V30 3307 H 310.432 8.03384 -0.871758 0
M  V30 3308 H 314.018 5.81799 -0.0121469 0
M  V30 3309 H 312.898 7.77675 -1.0095 0
M  V30 3310 N 310.401 -0.613514 1.45168 0
M  V30 3311 C 311.349 -1.74572 1.53712 0
M  V30 3312 C 312.343 -1.64426 0.407505 0
M  V30 3313 O 313.549 -1.70291 0.583176 0
M  V30 3314 H 309.924 -0.576641 0.48269 0
M  V30 3315 H 311.895 -1.64492 2.48968 0
M  V30 3316 C 310.644 -3.12943 1.51532 0
M  V30 3317 H 309.967 -3.21407 2.37776 0
M  V30 3318 H 311.407 -3.9201 1.61569 0
M  V30 3319 C 309.866 -3.36053 0.238798 0
M  V30 3320 O 310.396 -3.95837 -0.6838 0
M  V30 3321 N 308.602 -2.9028 0.136359 0
M  V30 3322 H 308.149 -2.41811 0.887999 0
M  V30 3323 H 308.107 -3.06116 -0.716944 0
M  V30 3324 N 311.879 -1.3236 -0.855495 0
M  V30 3325 C 313.295 -1.11332 -1.14356 0
M  V30 3326 C 313.495 0.106751 -2.01217 0
M  V30 3327 O 312.551 0.791891 -2.39761 0
M  V30 3328 C 313.864 -2.39237 -1.82171 0
M  V30 3329 C 315.412 -2.44986 -1.9481 0
M  V30 3330 C 315.887 -3.7281 -2.66039 0
M  V30 3331 N 317.378 -3.73787 -2.73565 0
M  V30 3332 C 318.113 -4.69394 -3.29327 0
M  V30 3333 N 317.609 -5.75367 -3.85907 0
M  V30 3334 N 319.402 -4.56893 -3.27423 0
M  V30 3335 H 311.553 -2.10586 -0.277027 0
M  V30 3336 H 313.816 -0.929701 -0.185364 0
M  V30 3337 H 313.522 -3.28431 -1.25802 0
M  V30 3338 H 313.396 -2.50134 -2.82335 0
M  V30 3339 H 315.783 -1.56252 -2.50338 0
M  V30 3340 H 315.864 -2.38043 -0.936448 0
M  V30 3341 H 315.508 -4.61918 -2.11174 0
M  V30 3342 H 315.438 -3.77024 -3.67642 0
M  V30 3343 H 317.929 -2.97189 -2.33424 0
M  V30 3344 H 318.242 -6.44378 -4.26611 0
M  V30 3345 H 316.587 -5.79123 -3.84242 0
M  V30 3346 H 319.778 -3.73269 -2.82467 0
M  V30 3347 H 319.951 -5.31577 -3.7058 0
M  V30 3348 N 313.357 1.07166 -1.15556 0
M  V30 3349 C 314.634 1.76546 -0.842069 0
M  V30 3350 C 315.014 2.00453 0.661939 0
M  V30 3351 O 314.362 1.62452 1.60691 0
M  V30 3352 C 314.572 3.07266 -1.65495 0
M  V30 3353 C 315.92 3.81578 -1.86234 0
M  V30 3354 O 316.944 3.17083 -1.62287 0
M  V30 3355 O 315.803 4.97419 -2.26355 0
M  V30 3356 H 312.897 0.766756 -0.309862 0
M  V30 3357 H 315.443 1.13514 -1.26145 0
M  V30 3358 H 314.215 2.85494 -2.67598 0
M  V30 3359 H 313.838 3.7803 -1.23203 0
M  V30 3360 N 314.835 0.952656 1.25548 0
M  V30 3361 C 315.765 0.489287 2.28316 0
M  V30 3362 C 316.746 -0.463359 1.63667 0
M  V30 3363 O 317.931 -0.36274 1.90782 0
M  V30 3364 C 315.061 -0.235603 3.465 0
M  V30 3365 C 314.015 0.631593 4.23314 0
M  V30 3366 C 313.341 -0.223923 5.34231 0
M  V30 3367 C 314.641 1.90871 4.86174 0
M  V30 3368 H 316.335 1.34822 2.67326 0
M  V30 3369 H 313.881 0.649728 1.28509 0
M  V30 3370 H 315.834 -0.570882 4.17515 0
M  V30 3371 H 314.558 -1.12877 3.06474 0
M  V30 3372 H 313.217 0.949929 3.54079 0
M  V30 3373 H 312.865 -1.11678 4.90446 0
M  V30 3374 H 312.565 0.35299 5.86539 0
M  V30 3375 H 314.089 -0.554214 6.0808 0
M  V30 3376 H 315.503 1.63997 5.49343 0
M  V30 3377 H 313.9 2.43112 5.4865 0
M  V30 3378 H 314.97 2.61304 4.08471 0
M  V30 3379 N 316.313 -1.40141 0.720998 0
M  V30 3380 C 317.276 -2.29058 0.0805834 0
M  V30 3381 C 318.276 -1.45632 -0.681758 0
M  V30 3382 O 319.466 -1.6648 -0.512856 0
M  V30 3383 C 316.598 -3.28925 -0.895593 0
M  V30 3384 H 317.791 -2.87191 0.863793 0
M  V30 3385 H 315.344 -1.48553 0.485975 0
M  V30 3386 H 316.079 -2.75822 -1.70566 0
M  V30 3387 H 315.864 -3.90519 -0.351766 0
M  V30 3388 H 317.354 -3.95494 -1.34069 0
M  V30 3389 N 317.792 -0.46758 -1.50504 0
M  V30 3390 C 319.203 -0.0116166 -1.86696 0
M  V30 3391 C 319.554 1.39202 -1.38265 0
M  V30 3392 O 318.679 2.0313 -0.746132 0
M  V30 3393 C 319.274 -0.0143044 -3.38797 0
M  V30 3394 C 317.833 0.386175 -3.74414 0
M  V30 3395 C 316.98 -0.401287 -2.74381 0
M  V30 3396 H 319.931 -0.682022 -1.43297 0
M  V30 3397 H 319.952 0.788641 -3.72237 0
M  V30 3398 H 319.464 -1.03602 -3.74016 0
M  V30 3399 H 317.565 1.41237 -3.44794 0
M  V30 3400 H 317.678 0.0899596 -4.79016 0
M  V30 3401 H 316.042 0.144536 -2.5429 0
M  V30 3402 H 316.825 -1.42244 -3.12444 0
M  V30 3403 N 319.27 1.56325 -0.20005 0
M  V30 3404 C 320.498 2.02105 0.442874 0
M  V30 3405 C 320.913 1.08014 1.5485 0
M  V30 3406 O 320.27 0.0858797 1.82298 0
M  V30 3407 C 320.321 3.47549 0.994583 0
M  V30 3408 O 320.042 4.38049 -0.0669322 0
M  V30 3409 C 321.543 4.0887 1.7129 0
M  V30 3410 H 318.763 0.661807 0.110691 0
M  V30 3411 H 321.307 2.02134 -0.310207 0
M  V30 3412 H 319.462 3.48204 1.69803 0
M  V30 3413 H 319.876 5.23368 0.344462 0
M  V30 3414 H 321.35 5.12475 2.05118 0
M  V30 3415 H 321.827 3.52615 2.61838 0
M  V30 3416 H 322.433 4.12002 1.05518 0
M  V30 3417 N 320.748 -0.0735177 1.57428 0
M  V30 3418 C 322.159 -0.625551 1.75908 0
M  V30 3419 C 322.51 -1.78 0.825261 0
M  V30 3420 O 321.635 -2.16398 0.00893964 0
M  V30 3421 C 322.23 -1.14155 3.18989 0
M  V30 3422 C 320.789 -1.63946 3.38819 0
M  V30 3423 C 319.936 -0.558151 2.71625 0
M  V30 3424 H 322.887 0.152647 1.57964 0
M  V30 3425 H 322.908 -2.0104 3.23053 0
M  V30 3426 H 322.42 -0.301116 3.8693 0
M  V30 3427 H 320.521 -2.50321 2.7599 0
M  V30 3428 H 320.634 -1.71759 4.47253 0
M  V30 3429 H 318.998 -1.00278 2.34129 0
M  V30 3430 H 319.781 0.272071 3.4222 0
M  V30 3431 N 322.226 -1.5378 -0.344866 0
M  V30 3432 C 323.474 -1.70625 -1.08311 0
M  V30 3433 C 323.795 -0.471447 -1.89215 0
M  V30 3434 O 323.065 0.514616 -1.8902 0
M  V30 3435 H 321.645 -0.629058 -0.402859 0
M  V30 3436 H 324.307 -1.9103 -0.386459 0
M  V30 3437 H 323.403 -2.57656 -1.76124 0
M  V30 3438 N 323.704 0.605807 -1.45491 0
M  V30 3439 C 324.667 1.69836 -1.5391 0
M  V30 3440 C 325.667 1.55261 -0.418424 0
M  V30 3441 O 326.857 1.60296 -0.681965 0
M  V30 3442 C 323.989 3.09117 -1.43734 0
M  V30 3443 H 325.182 1.63738 -2.51257 0
M  V30 3444 H 322.735 0.821689 -1.32959 0
M  V30 3445 H 323.47 3.20791 -0.475788 0
M  V30 3446 H 323.255 3.21104 -2.25021 0
M  V30 3447 H 324.745 3.88696 -1.52661 0
M  V30 3448 N 325.182 1.32811 0.848464 0
M  V30 3449 C 326.13 1.22231 1.97895 0
M  V30 3450 C 327.124 0.125749 1.68933 0
M  V30 3451 O 328.33 0.289083 1.77663 0
M  V30 3452 H 324.705 0.379058 0.649476 0
M  V30 3453 H 326.676 2.17828 2.03945 0
M  V30 3454 C 325.425 0.968572 3.33937 0
M  V30 3455 H 324.748 1.80458 3.56756 0
M  V30 3456 H 326.188 0.934808 4.13567 0
M  V30 3457 C 324.647 -0.328628 3.35293 0
M  V30 3458 O 325.177 -1.33848 3.78745 0
M  V30 3459 N 323.383 -0.352788 2.88451 0
M  V30 3460 H 322.93 0.469541 2.53285 0
M  V30 3461 H 322.888 -1.22057 2.89741 0
M  V30 3462 N 326.66 -1.06551 1.16123 0
M  V30 3463 C 327.59 -2.15935 0.88851 0
M  V30 3464 C 328.571 -1.69306 -0.164135 0
M  V30 3465 O 329.756 -1.94193 -0.0167857 0
M  V30 3466 C 326.886 -3.45149 0.385942 0
M  V30 3467 C 325.84 -4.05271 1.3762 0
M  V30 3468 C 325.166 -5.29664 0.732137 0
M  V30 3469 C 326.466 -4.44355 2.74493 0
M  V30 3470 H 328.16 -2.39006 1.80323 0
M  V30 3471 H 325.706 -1.14866 0.868435 0
M  V30 3472 H 327.659 -4.21004 0.182647 0
M  V30 3473 H 326.383 -3.21689 -0.564274 0
M  V30 3474 H 325.042 -3.3147 1.56599 0
M  V30 3475 H 324.69 -5.02499 -0.224483 0
M  V30 3476 H 324.39 -5.70848 1.39307 0
M  V30 3477 H 325.914 -6.08218 0.538802 0
M  V30 3478 H 327.328 -5.11303 2.59311 0
M  V30 3479 H 325.725 -4.96515 3.37035 0
M  V30 3480 H 326.795 -3.55339 3.29943 0
M  V30 3481 N 328.138 -0.959301 -1.25041 0
M  V30 3482 C 329.368 -0.63303 -1.96663 0
M  V30 3483 C 329.776 0.800031 -1.71453 0
M  V30 3484 O 329.119 1.54736 -0.99008 0
M  V30 3485 C 329.181 -0.817523 -3.50081 0
M  V30 3486 C 328.845 -2.22863 -3.98975 0
M  V30 3487 C 329.842 -3.20569 -4.09306 0
M  V30 3488 C 327.527 -2.55407 -4.32519 0
M  V30 3489 C 329.521 -4.4891 -4.52503 0
M  V30 3490 C 327.208 -3.83976 -4.754 0
M  V30 3491 C 328.206 -4.8054 -4.85356 0
M  V30 3492 O 327.894 -6.06817 -5.27284 0
M  V30 3493 H 327.626 -0.235866 -0.633516 0
M  V30 3494 H 330.18 -1.2874 -1.60047 0
M  V30 3495 H 328.41 -0.105992 -3.86555 0
M  V30 3496 H 330.099 -0.491604 -4.02912 0
M  V30 3497 H 330.865 -2.96753 -3.83618 0
M  V30 3498 H 326.744 -1.8097 -4.23994 0
M  V30 3499 H 330.288 -5.24283 -4.60188 0
M  V30 3500 H 326.185 -4.07596 -5.00535 0
M  V30 3501 H 326.953 -6.10262 -5.45457 0
M  V30 3502 N 329.616 1.39756 -0.72842 0
M  V30 3503 C 330.864 2.00248 -0.272946 0
M  V30 3504 C 331.185 1.58077 1.14178 0
M  V30 3505 O 330.455 0.826014 1.77634 0
M  V30 3506 H 329.035 0.740554 -0.0979247 0
M  V30 3507 H 331.697 1.70903 -0.936912 0
M  V30 3508 H 330.793 3.10495 -0.316142 0
M  V30 3509 N 331.094 0.475555 1.50254 0
M  V30 3510 C 332.319 -0.0777042 2.07254 0
M  V30 3511 C 332.744 -1.3235 1.3366 0
M  V30 3512 O 332.102 -1.77152 0.385597 0
M  V30 3513 C 332.15 -0.340169 3.58992 0
M  V30 3514 O 331.254 -1.41982 3.87188 0
M  V30 3515 H 330.595 0.0149556 0.663832 0
M  V30 3516 H 333.125 0.667878 1.93392 0
M  V30 3517 H 333.135 -0.579332 4.03866 0
M  V30 3518 H 331.81 0.570167 4.11973 0
M  V30 3519 H 330.387 -1.16762 3.54148 0
M  V30 3520 N 332.573 -1.56217 0.208337 0
M  V30 3521 C 333.523 -2.16324 -0.720281 0
M  V30 3522 C 334.507 -1.10775 -1.16695 0
M  V30 3523 O 335.699 -1.36801 -1.12314 0
M  V30 3524 C 332.828 -2.83644 -1.93393 0
M  V30 3525 C 331.914 -3.96401 -1.50755 0
M  V30 3526 N 332.305 -4.99546 -0.792937 0
M  V30 3527 C 330.603 -4.08246 -1.79585 0
M  V30 3528 C 331.304 -5.78828 -0.577364 0
M  V30 3529 N 330.28 -5.31723 -1.1301 0
M  V30 3530 H 334.082 -2.93432 -0.165725 0
M  V30 3531 H 331.596 -1.62397 0.00906463 0
M  V30 3532 H 333.593 -3.25107 -2.60981 0
M  V30 3533 H 332.253 -2.08027 -2.49308 0
M  V30 3534 H 333.264 -5.15967 -0.447004 0
M  V30 3535 H 329.941 -3.4377 -2.36915 0
M  V30 3536 H 331.331 -6.71899 -0.00952956 0
M  V30 3537 N 334.051 0.0651679 -1.57465 0
M  V30 3538 C 335.462 0.616213 -1.76238 0
M  V30 3539 C 335.813 1.7756 -0.834689 0
M  V30 3540 O 334.938 2.1639 -0.0204156 0
M  V30 3541 C 335.533 1.12462 -3.1959 0
M  V30 3542 C 334.092 1.62147 -3.39684 0
M  V30 3543 C 333.239 0.543739 -2.71917 0
M  V30 3544 H 336.19 -0.161022 -1.57881 0
M  V30 3545 H 336.211 1.99324 -3.24114 0
M  V30 3546 H 335.723 0.280592 -3.87084 0
M  V30 3547 H 333.824 2.48854 -2.77313 0
M  V30 3548 H 333.937 1.69385 -4.48158 0
M  V30 3549 H 332.301 0.990352 -2.34657 0
M  V30 3550 H 333.084 -0.290216 -3.42071 0
M  V30 3551 N 335.529 1.53961 0.336706 0
M  V30 3552 C 336.776 1.71536 1.07618 0
M  V30 3553 C 337.104 0.482125 1.8843 0
M  V30 3554 O 336.359 -0.536142 1.88213 0
M  V30 3555 C 336.658 2.93493 2.03953 0
M  V30 3556 C 336.324 4.28811 1.39399 0
M  V30 3557 C 334.986 4.65602 1.21523 0
M  V30 3558 C 337.338 5.12844 0.929541 0
M  V30 3559 C 334.666 5.84037 0.558312 0
M  V30 3560 C 337.018 6.31951 0.286505 0
M  V30 3561 C 335.682 6.67432 0.0954869 0
M  V30 3562 H 334.952 0.627696 0.393801 0
M  V30 3563 H 337.599 1.88186 0.354715 0
M  V30 3564 H 335.904 2.71475 2.82504 0
M  V30 3565 H 337.601 3.04285 2.61174 0
M  V30 3566 H 334.191 3.99858 1.54311 0
M  V30 3567 H 338.375 4.84947 1.05548 0
M  V30 3568 H 333.631 6.10097 0.398995 0
M  V30 3569 H 337.805 6.96352 -0.0814376 0
M  V30 3570 H 335.432 7.59063 -0.415579 0
M  V30 3571 N 337.007 -0.598083 1.45811 0
M  V30 3572 C 338.237 -1.38121 1.53643 0
M  V30 3573 C 338.645 -1.88425 0.171081 0
M  V30 3574 O 337.988 -1.63409 -0.839237 0
M  V30 3575 C 338.05 -2.61432 2.46766 0
M  V30 3576 C 337.714 -2.32702 3.93318 0
M  V30 3577 C 338.711 -1.92479 4.82957 0
M  V30 3578 C 336.396 -2.45321 4.38318 0
M  V30 3579 C 338.39 -1.65248 6.15607 0
M  V30 3580 C 336.077 -2.17703 5.71007 0
M  V30 3581 C 337.075 -1.7773 6.5947 0
M  V30 3582 O 336.763 -1.50441 7.89698 0
M  V30 3583 H 336.495 -0.428863 0.522544 0
M  V30 3584 H 339.049 -0.73557 1.91777 0
M  V30 3585 H 337.279 -3.28749 2.0362 0
M  V30 3586 H 338.968 -3.23487 2.45175 0
M  V30 3587 H 339.734 -1.82258 4.49452 0
M  V30 3588 H 335.613 -2.75399 3.69697 0
M  V30 3589 H 339.157 -1.33973 6.84614 0
M  V30 3590 H 335.054 -2.27544 6.04065 0
M  V30 3591 H 335.822 -1.64415 8.01817 0
M  V30 3592 N 338.485 -1.33259 -0.841409 0
M  V30 3593 C 339.415 -1.25926 -1.96634 0
M  V30 3594 C 340.396 -0.140349 -1.6952 0
M  V30 3595 O 341.581 -0.329707 -1.91381 0
M  V30 3596 C 338.711 -0.99512 -3.32738 0
M  V30 3597 C 337.665 -2.0767 -3.74242 0
M  V30 3598 C 336.991 -1.66474 -5.08125 0
M  V30 3599 C 338.291 -3.49318 -3.88297 0
M  V30 3600 H 339.985 -2.20046 -2.03027 0
M  V30 3601 H 337.531 -1.05931 -0.975425 0
M  V30 3602 H 339.484 -0.930323 -4.11002 0
M  V30 3603 H 338.208 -0.0183004 -3.26595 0
M  V30 3604 H 336.867 -2.13187 -2.98239 0
M  V30 3605 H 336.515 -0.675012 -4.9845 0
M  V30 3606 H 336.215 -2.3885 -5.36865 0
M  V30 3607 H 337.739 -1.61455 -5.88867 0
M  V30 3608 H 339.153 -3.46316 -4.56879 0
M  V30 3609 H 337.55 -4.20158 -4.28471 0
M  V30 3610 H 338.62 -3.8801 -2.9082 0
M  V30 3611 N 339.963 1.05934 -1.16686 0
M  V30 3612 C 340.926 2.11669 -0.879144 0
M  V30 3613 C 341.926 1.60294 0.127445 0
M  V30 3614 O 343.116 1.7389 -0.103865 0
M  V30 3615 C 340.248 3.39438 -0.315425 0
M  V30 3616 H 341.441 2.38626 -1.81653 0
M  V30 3617 H 338.994 1.22058 -0.976299 0
M  V30 3618 H 339.729 3.18132 0.629468 0
M  V30 3619 H 339.514 3.78034 -1.04079 0
M  V30 3620 H 341.004 4.17391 -0.132189 0
M  V30 3621 N 341.441 0.965919 1.2453 0
M  V30 3622 C 342.371 0.513476 2.27784 0
M  V30 3623 C 343.352 -0.445974 1.6415 0
M  V30 3624 O 344.537 -0.342485 1.91156 0
M  V30 3625 C 341.667 -0.198839 3.4673 0
M  V30 3626 C 340.621 0.676456 4.2262 0
M  V30 3627 C 339.947 -0.167248 5.34438 0
M  V30 3628 C 341.247 1.96017 4.84123 0
M  V30 3629 H 342.941 1.3765 2.65881 0
M  V30 3630 H 340.487 0.663321 1.27813 0
M  V30 3631 H 342.44 -0.526567 4.18097 0
M  V30 3632 H 341.164 -1.0962 3.07654 0
M  V30 3633 H 339.823 0.98743 3.53052 0
M  V30 3634 H 339.471 -1.0647 4.91603 0
M  V30 3635 H 339.171 0.415181 5.86131 0
M  V30 3636 H 340.695 -0.489688 6.08633 0
M  V30 3637 H 342.109 1.69814 5.47573 0
M  V30 3638 H 340.506 2.48918 5.4604 0
M  V30 3639 H 341.576 2.65622 4.05676 0
M  V30 3640 N 342.919 -1.39368 0.735821 0
M  V30 3641 C 343.829 -2.34395 0.0979693 0
M  V30 3642 C 344.845 -1.58361 -0.720968 0
M  V30 3643 O 346.021 -1.90648 -0.649245 0
M  V30 3644 C 343.086 -3.37393 -0.797916 0
M  V30 3645 C 342.147 -4.29287 0.0333662 0
M  V30 3646 C 341.38 -5.27365 -0.819854 0
M  V30 3647 O 341.603 -5.31959 -2.05855 0
M  V30 3648 O 340.537 -6.01389 -0.248079 0
M  V30 3649 H 344.363 -2.90601 0.882315 0
M  V30 3650 H 341.948 -1.40909 0.4965 0
M  V30 3651 H 343.83 -4.00505 -1.31048 0
M  V30 3652 H 342.505 -2.83571 -1.56106 0
M  V30 3653 H 341.412 -3.69395 0.591475 0
M  V30 3654 H 342.745 -4.86317 0.758752 0
M  V30 3655 N 344.397 -0.483516 -1.5 0
M  V30 3656 C 345.674 0.129337 -1.95172 0
M  V30 3657 C 346.054 1.55802 -1.4244 0
M  V30 3658 O 345.402 2.19625 -0.630649 0
M  V30 3659 C 345.612 0.0599251 -3.48949 0
M  V30 3660 C 346.96 0.242617 -4.23906 0
M  V30 3661 O 347.984 0.135933 -3.55941 0
M  V30 3662 O 346.843 0.459454 -5.44565 0
M  V30 3663 H 343.937 0.104887 -0.820322 0
M  V30 3664 H 346.483 -0.544807 -1.60717 0
M  V30 3665 H 345.255 -0.937079 -3.79914 0
M  V30 3666 H 344.878 0.774984 -3.89974 0
M  V30 3667 N 345.875 1.56104 -0.216619 0
M  V30 3668 C 347.123 1.97781 0.415593 0
M  V30 3669 C 347.444 1.10536 1.60645 0
M  V30 3670 O 346.714 0.181303 1.95059 0
M  V30 3671 H 345.294 0.730415 0.156534 0
M  V30 3672 H 347.956 1.92445 -0.308366 0
M  V30 3673 H 347.052 3.03072 0.74525 0
M  V30 3674 N 347.353 -0.0568162 1.57498 0
M  V30 3675 C 348.601 -0.751617 1.87604 0
M  V30 3676 C 348.922 -1.77351 0.81066 0
M  V30 3677 O 348.192 -1.95254 -0.159018 0
M  V30 3678 H 346.772 -0.280583 0.692302 0
M  V30 3679 H 349.434 -0.0293483 1.94878 0
M  V30 3680 H 348.53 -1.25852 2.856 0
M  V30 3681 N 348.832 -1.54138 -0.328536 0
M  V30 3682 C 350.057 -1.76378 -1.09112 0
M  V30 3683 C 350.482 -0.508596 -1.81094 0
M  V30 3684 O 349.84 0.539598 -1.73084 0
M  V30 3685 C 349.888 -2.95358 -2.06872 0
M  V30 3686 O 348.992 -2.66556 -3.14677 0
M  V30 3687 H 348.333 -0.584614 -0.314838 0
M  V30 3688 H 350.863 -2.01146 -0.374348 0
M  V30 3689 H 350.873 -3.22566 -2.4983 0
M  V30 3690 H 349.548 -3.86385 -1.5388 0
M  V30 3691 H 348.125 -2.50282 -2.7643 0
M  V30 3692 N 350.31 0.590341 -1.46126 0
M  V30 3693 C 351.273 1.68194 -1.55703 0
M  V30 3694 C 352.273 1.54808 -0.434868 0
M  V30 3695 O 353.463 1.59564 -0.698928 0
M  V30 3696 C 350.595 3.07575 -1.47005 0
M  V30 3697 H 351.788 1.61064 -2.52979 0
M  V30 3698 H 349.341 0.807541 -1.33823 0
M  V30 3699 H 350.076 3.20268 -0.509785 0
M  V30 3700 H 349.861 3.187 -2.28414 0
M  V30 3701 H 351.351 3.87055 -1.56776 0
M  V30 3702 N 351.788 1.33704 0.83433 0
M  V30 3703 C 352.738 1.20899 1.93306 0
M  V30 3704 C 353.722 0.110783 1.60518 0
M  V30 3705 O 354.914 0.339331 1.73717 0
M  V30 3706 C 352.043 0.955018 3.29749 0
M  V30 3707 C 351.129 2.09587 3.68692 0
M  V30 3708 N 351.52 3.34621 3.79292 0
M  V30 3709 C 349.818 2.00358 3.98463 0
M  V30 3710 C 350.519 4.09472 4.13167 0
M  V30 3711 N 349.495 3.37954 4.25779 0
M  V30 3712 H 353.297 2.15665 1.99664 0
M  V30 3713 H 350.811 1.25777 1.02732 0
M  V30 3714 H 352.808 0.844208 4.08263 0
M  V30 3715 H 351.468 0.0159317 3.24696 0
M  V30 3716 H 352.479 3.69313 3.63082 0
M  V30 3717 H 349.156 1.14137 4.01596 0
M  V30 3718 H 350.546 5.17391 4.28668 0
M  V30 3719 N 353.266 -1.05314 1.17247 0
M  V30 3720 C 354.514 -1.77941 0.958194 0
M  V30 3721 C 354.835 -1.88089 -0.514556 0
M  V30 3722 O 354.105 -1.39676 -1.37359 0
M  V30 3723 H 352.685 -0.659116 0.351533 0
M  V30 3724 H 355.347 -1.27166 1.47699 0
M  V30 3725 H 354.443 -2.79663 1.38546 0
M  V30 3726 N 354.744 -0.972509 -1.24016 0
M  V30 3727 C 355.99 -0.637978 -1.92504 0
M  V30 3728 C 356.323 0.825383 -1.75787 0
M  V30 3729 O 355.598 1.59442 -1.11393 0
M  V30 3730 C 355.881 -1.01942 -3.45369 0
M  V30 3731 C 355.734 -2.53983 -3.71231 0
M  V30 3732 C 357.053 -0.55751 -4.36555 0
M  V30 3733 H 354.172 -0.233248 -0.699117 0
M  V30 3734 H 356.814 -1.21238 -1.46292 0
M  V30 3735 H 354.964 -0.530656 -3.84859 0
M  V30 3736 H 356.636 -3.10374 -3.41271 0
M  V30 3737 H 354.879 -2.96968 -3.16216 0
M  V30 3738 H 355.55 -2.75723 -4.78206 0
M  V30 3739 H 358.026 -0.977029 -4.04467 0
M  V30 3740 H 356.902 -0.85292 -5.42233 0
M  V30 3741 H 357.163 0.542328 -4.38761 0
M  V30 3742 N 356.222 1.38976 -0.743202 0
M  V30 3743 C 357.469 2.00343 -0.294752 0
M  V30 3744 C 357.797 1.58983 1.12047 0
M  V30 3745 O 357.052 0.813809 1.77977 0
M  V30 3746 C 357.351 3.55647 -0.353517 0
M  V30 3747 C 357.017 4.16685 -1.72292 0
M  V30 3748 C 355.679 4.3307 -2.09771 0
M  V30 3749 C 358.031 4.50464 -2.62168 0
M  V30 3750 C 355.359 4.80526 -3.36618 0
M  V30 3751 C 357.711 4.99332 -3.88395 0
M  V30 3752 C 356.375 5.13924 -4.25956 0
M  V30 3753 H 355.645 0.733108 -0.107857 0
M  V30 3754 H 358.292 1.6618 -0.951651 0
M  V30 3755 H 356.597 3.89884 0.386954 0
M  V30 3756 H 358.294 4.00998 0.0117269 0
M  V30 3757 H 354.884 4.04339 -1.42155 0
M  V30 3758 H 359.068 4.37416 -2.3448 0
M  V30 3759 H 354.324 4.90008 -3.65653 0
M  V30 3760 H 358.498 5.2444 -4.58187 0
M  V30 3761 H 356.125 5.50457 -5.2431 0
M  V30 3762 N 357.7 0.491464 1.49741 0
M  V30 3763 C 358.63 -0.28154 2.31796 0
M  V30 3764 C 359.611 -0.971473 1.3963 0
M  V30 3765 O 360.796 -0.964719 1.68543 0
M  V30 3766 C 357.926 -1.35203 3.19902 0
M  V30 3767 C 356.88 -0.782529 4.20786 0
M  V30 3768 C 356.206 -1.95283 4.97764 0
M  V30 3769 C 357.506 0.21999 5.21837 0
M  V30 3770 H 359.2 0.403355 2.96671 0
M  V30 3771 H 356.746 0.195425 1.42668 0
M  V30 3772 H 358.699 -1.90045 3.76113 0
M  V30 3773 H 357.423 -2.06598 2.52953 0
M  V30 3774 H 356.082 -0.255928 3.65706 0
M  V30 3775 H 355.73 -2.65423 4.2727 0
M  V30 3776 H 355.43 -1.57789 5.66018 0
M  V30 3777 H 356.954 -2.50577 5.56816 0
M  V30 3778 H 358.368 -0.23996 5.72798 0
M  V30 3779 H 356.765 0.51026 5.97927 0
M  V30 3780 H 357.835 1.13911 4.7133 0
M  V30 3781 N 359.178 -1.55987 0.224894 0
M  V30 3782 C 360.108 -2.23426 -0.678457 0
M  V30 3783 C 361.089 -1.20709 -1.19847 0
M  V30 3784 O 362.274 -1.49304 -1.24186 0
M  V30 3785 C 359.404 -2.91676 -1.88527 0
M  V30 3786 C 358.358 -4.00893 -1.49896 0
M  V30 3787 C 357.684 -4.56455 -2.78483 0
M  V30 3788 C 358.984 -5.17769 -0.686461 0
M  V30 3789 H 360.678 -2.99175 -0.116173 0
M  V30 3790 H 358.224 -1.43897 -0.054436 0
M  V30 3791 H 360.177 -3.37547 -2.5227 0
M  V30 3792 H 358.901 -2.1338 -2.47258 0
M  V30 3793 H 357.56 -3.55758 -0.884985 0
M  V30 3794 H 357.208 -3.74886 -3.35365 0
M  V30 3795 H 356.908 -5.30169 -2.53368 0
M  V30 3796 H 358.432 -5.05047 -3.43162 0
M  V30 3797 H 359.846 -5.60001 -1.22767 0
M  V30 3798 H 358.243 -5.97735 -0.532259 0
M  V30 3799 H 359.313 -4.83932 0.306196 0
M  V30 3800 N 360.656 0.0484629 -1.57525 0
M  V30 3801 C 361.604 1.07359 -2.06341 0
M  V30 3802 C 362.598 1.3865 -0.973269 0
M  V30 3803 O 363.804 1.37783 -1.15827 0
M  V30 3804 H 360.179 0.363662 -0.65822 0
M  V30 3805 H 362.15 0.635916 -2.91545 0
M  V30 3806 C 360.899 2.37198 -2.54229 0
M  V30 3807 H 360.222 2.13977 -3.37719 0
M  V30 3808 H 361.662 3.07319 -2.92115 0
M  V30 3809 C 360.121 3.04805 -1.43511 0
M  V30 3810 O 360.651 3.93848 -0.79034 0
M  V30 3811 N 358.857 2.65811 -1.17444 0
M  V30 3812 H 358.404 1.93488 -1.70059 0
M  V30 3813 H 358.362 3.11366 -0.435737 0
M  V30 3814 N 362.134 1.5431 0.320358 0
M  V30 3815 C 363.359 1.76954 1.08175 0
M  V30 3816 C 363.784 0.518193 1.80821 0
M  V30 3817 O 363.142 -0.530411 1.73368 0
M  V30 3818 C 363.19 2.96451 2.05303 0
M  V30 3819 O 362.294 2.68221 3.13259 0
M  V30 3820 H 361.635 0.586275 0.311733 0
M  V30 3821 H 364.165 2.01342 0.363676 0
M  V30 3822 H 364.175 3.23887 2.48116 0
M  V30 3823 H 362.85 3.87196 1.51829 0
M  V30 3824 H 361.427 2.51744 2.75099 0
M  V30 3825 N 363.613 -0.582584 1.46437 0
M  V30 3826 C 364.561 -1.71272 1.5738 0
M  V30 3827 C 365.555 -1.63524 0.44229 0
M  V30 3828 O 366.761 -1.69016 0.619166 0
M  V30 3829 H 363.136 -0.566273 0.494813 0
M  V30 3830 H 365.107 -1.59174 2.52401 0
M  V30 3831 C 363.856 -3.09658 1.58136 0
M  V30 3832 H 363.179 -3.16291 2.44541 0
M  V30 3833 H 364.619 -3.88494 1.69847 0
M  V30 3834 C 363.078 -3.3547 0.310026 0
M  V30 3835 O 363.608 -3.97199 -0.599683 0
M  V30 3836 N 361.814 -2.89925 0.197901 0
M  V30 3837 H 361.361 -2.39873 0.93909 0
M  V30 3838 H 361.319 -3.07568 -0.65185 0
M  V30 3839 N 365.091 -1.34144 -0.827227 0
M  V30 3840 C 366.054 -1.25264 -1.91942 0
M  V30 3841 C 367.054 -0.168866 -1.59911 0
M  V30 3842 O 368.244 -0.421198 -1.69031 0
M  V30 3843 C 365.376 -0.932952 -3.27885 0
M  V30 3844 H 366.569 -2.22357 -2.0124 0
M  V30 3845 H 364.122 -1.1837 -1.0207 0
M  V30 3846 H 364.857 0.0349917 -3.24281 0
M  V30 3847 H 364.642 -1.71682 -3.52516 0
M  V30 3848 H 366.132 -0.895874 -4.07877 0
M  V30 3849 N 366.569 1.04691 -1.17803 0
M  V30 3850 C 367.502 2.12068 -0.842765 0
M  V30 3851 C 368.48 1.61455 0.192608 0
M  V30 3852 O 369.664 1.88359 0.072995 0
M  V30 3853 C 366.791 3.37715 -0.258063 0
M  V30 3854 C 365.837 4.07164 -1.26962 0
M  V30 3855 S 366.67 4.55047 -2.82299 0
M  V30 3856 C 367.826 5.83935 -2.25323 0
M  V30 3857 H 368.059 2.4018 -1.75217 0
M  V30 3858 H 365.592 1.17366 -1.00323 0
M  V30 3859 H 367.55 4.10435 0.0727935 0
M  V30 3860 H 366.211 3.0773 0.629357 0
M  V30 3861 H 365.404 4.9746 -0.809263 0
M  V30 3862 H 365.006 3.40533 -1.54639 0
M  V30 3863 H 367.298 6.57552 -1.63192 0
M  V30 3864 H 368.241 6.34725 -3.13894 0
M  V30 3865 H 368.649 5.3874 -1.68582 0
M  V30 3866 N 368.047 0.979072 1.23499 0
M  V30 3867 C 369.324 0.563674 1.87302 0
M  V30 3868 C 369.704 -0.959199 1.88049 0
M  V30 3869 O 369.052 -1.83535 1.36114 0
M  V30 3870 C 369.262 1.16822 3.28867 0
M  V30 3871 C 370.61 1.26014 4.0547 0
M  V30 3872 O 371.634 1.12158 3.38082 0
M  V30 3873 O 370.493 1.48044 5.26066 0
M  V30 3874 H 367.587 0.189602 0.804972 0
M  V30 3875 H 370.133 1.07407 1.31384 0
M  V30 3876 H 368.905 2.21049 3.22883 0
M  V30 3877 H 368.528 0.642564 3.92373 0
M  V30 3878 N 369.525 -1.3858 0.750561 0
M  V30 3879 C 370.771 -2.00481 0.305825 0
M  V30 3880 C 371.104 -1.5944 -1.10872 0
M  V30 3881 O 370.379 -0.83052 -1.75877 0
M  V30 3882 C 370.662 -3.5758 0.425287 0
M  V30 3883 C 370.515 -4.08594 1.88072 0
M  V30 3884 C 371.834 -4.39719 -0.183122 0
M  V30 3885 H 368.953 -0.728348 0.112598 0
M  V30 3886 H 371.595 -1.64566 0.949638 0
M  V30 3887 H 369.745 -3.88306 -0.122828 0
M  V30 3888 H 371.417 -3.88523 2.48691 0
M  V30 3889 H 369.66 -3.61574 2.39681 0
M  V30 3890 H 370.331 -5.177 1.91548 0
M  V30 3891 H 372.807 -4.15128 0.284303 0
M  V30 3892 H 371.683 -5.48856 -0.0692757 0
M  V30 3893 H 371.944 -4.23434 -1.27106 0
M  V30 3894 N 371.003 -0.499398 -1.49478 0
M  V30 3895 C 372.249 0.0457576 -2.02748 0
M  V30 3896 C 372.582 1.36793 -1.37846 0
M  V30 3897 O 371.857 1.87596 -0.513601 0
M  V30 3898 C 372.14 0.199986 -3.59544 0
M  V30 3899 C 371.993 -1.1452 -4.34977 0
M  V30 3900 C 373.312 0.94137 -4.29914 0
M  V30 3901 H 370.431 0.0151552 -0.736844 0
M  V30 3902 H 373.073 -0.650498 -1.78518 0
M  V30 3903 H 371.223 0.793007 -3.8032 0
M  V30 3904 H 372.895 -1.77697 -4.25701 0
M  V30 3905 H 371.138 -1.73488 -3.97598 0
M  V30 3906 H 371.809 -0.990607 -5.43039 0
M  V30 3907 H 374.285 0.43844 -4.13784 0
M  V30 3908 H 373.161 1.01812 -5.39375 0
M  V30 3909 H 373.422 1.98471 -3.95046 0
M  V30 3910 N 372.481 1.55866 -0.233164 0
M  V30 3911 C 373.411 2.23783 0.666599 0
M  V30 3912 C 374.392 1.21343 1.19205 0
M  V30 3913 O 375.577 1.4996 1.23392 0
M  V30 3914 C 372.707 2.92671 1.86978 0
M  V30 3915 C 371.661 4.01682 1.47768 0
M  V30 3916 C 370.987 4.57926 2.76058 0
M  V30 3917 C 372.287 5.18126 0.658993 0
M  V30 3918 H 373.981 2.99232 0.100306 0
M  V30 3919 H 371.527 1.43924 0.046804 0
M  V30 3920 H 373.48 3.3888 2.50476 0
M  V30 3921 H 372.204 2.14688 2.46123 0
M  V30 3922 H 370.863 3.56222 0.866106 0
M  V30 3923 H 370.511 3.76659 3.33372 0
M  V30 3924 H 370.211 5.31505 2.50552 0
M  V30 3925 H 371.735 5.06859 3.40479 0
M  V30 3926 H 373.149 5.60644 1.19795 0
M  V30 3927 H 371.546 5.98009 0.500552 0
M  V30 3928 H 372.616 4.83763 -0.331856 0
M  V30 3929 N 373.959 -0.0401083 1.57549 0
M  V30 3930 C 374.891 -1.07149 2.02612 0
M  V30 3931 C 375.904 -1.33126 0.937085 0
M  V30 3932 O 377.093 -1.30808 1.21456 0
M  V30 3933 C 374.193 -2.41561 2.37701 0
M  V30 3934 C 373.366 -2.35096 3.68848 0
M  V30 3935 C 372.425 -3.51867 3.91249 0
M  V30 3936 O 371.451 -3.3186 4.62447 0
M  V30 3937 N 372.653 -4.73351 3.36035 0
M  V30 3938 H 375.418 -0.687485 2.91708 0
M  V30 3939 H 372.979 -0.228248 1.60283 0
M  V30 3940 H 374.971 -3.18379 2.49833 0
M  V30 3941 H 373.541 -2.71846 1.54332 0
M  V30 3942 H 372.761 -1.4345 3.67173 0
M  V30 3943 H 374.049 -2.27908 4.54901 0
M  V30 3944 H 373.447 -4.92507 2.78304 0
M  V30 3945 H 372.004 -5.47572 3.53565 0
M  V30 3946 N 375.437 -1.54477 -0.31217 0
M  V30 3947 C 376.848 -1.64344 -0.885891 0
M  V30 3948 C 377.199 -0.54485 -1.88483 0
M  V30 3949 O 376.324 0.320387 -2.14015 0
M  V30 3950 C 376.919 -2.97908 -1.61357 0
M  V30 3951 C 375.478 -3.09933 -2.13585 0
M  V30 3952 C 374.625 -2.59971 -0.964897 0
M  V30 3953 H 377.576 -1.58448 -0.0894528 0
M  V30 3954 H 377.597 -2.88706 -2.47848 0
M  V30 3955 H 377.109 -3.77845 -0.886277 0
M  V30 3956 H 375.21 -2.34694 -2.89395 0
M  V30 3957 H 375.323 -4.15916 -2.37804 0
M  V30 3958 H 373.687 -2.16147 -1.34731 0
M  V30 3959 H 374.47 -3.42376 -0.251742 0
M  V30 3960 N 376.915 0.57481 -1.46744 0
M  V30 3961 C 378.14 1.36341 -1.56288 0
M  V30 3962 C 378.565 1.86954 -0.207347 0
M  V30 3963 O 377.923 1.62006 0.813871 0
M  V30 3964 C 377.971 2.52147 -2.57787 0
M  V30 3965 O 377.075 3.53834 -2.11838 0
M  V30 3966 H 376.416 0.405713 -0.525636 0
M  V30 3967 H 378.946 0.696453 -1.92382 0
M  V30 3968 H 378.956 2.98958 -2.77648 0
M  V30 3969 H 377.631 2.14663 -3.5622 0
M  V30 3970 H 376.208 3.1345 -2.01999 0
M  V30 3971 N 378.394 1.34581 0.820102 0
M  V30 3972 C 379.805 1.24298 1.39309 0
M  V30 3973 C 380.156 -0.130351 1.95767 0
M  V30 3974 O 379.281 -1.0308 1.90272 0
M  V30 3975 C 379.876 2.25054 2.53251 0
M  V30 3976 C 378.435 2.18552 3.0645 0
M  V30 3977 C 377.582 2.11503 1.79337 0
M  V30 3978 H 380.533 1.45906 0.624262 0
M  V30 3979 H 380.554 1.86917 3.31425 0
M  V30 3980 H 380.066 3.24996 2.1213 0
M  V30 3981 H 378.167 1.21976 3.52069 0
M  V30 3982 H 378.28 3.0993 3.65349 0
M  V30 3983 H 376.644 1.57268 2.00347 0
M  V30 3984 H 377.427 3.13284 1.40386 0
M  V30 3985 N 379.872 -1.04064 1.18357 0
M  V30 3986 C 380.835 -2.10243 0.912707 0
M  V30 3987 C 381.835 -1.60477 -0.101928 0
M  V30 3988 O 383.025 -1.73703 0.131517 0
M  V30 3989 C 380.157 -3.38893 0.369387 0
M  V30 3990 H 381.35 -2.35706 1.85426 0
M  V30 3991 H 378.903 -1.20489 0.995594 0
M  V30 3992 H 379.638 -3.19094 -0.578776 0
M  V30 3993 H 379.423 -3.76331 1.1008 0
M  V30 3994 H 380.913 -4.17128 0.198575 0
M  V30 3995 N 381.35 -0.985608 -1.22978 0
M  V30 3996 C 382.28 -0.549649 -2.26939 0
M  V30 3997 C 383.261 0.419803 -1.64838 0
M  V30 3998 O 384.446 0.31203 -1.91677 0
M  V30 3999 C 381.576 0.143652 -3.47003 0
M  V30 4000 C 380.53 -0.743606 -4.21491 0
M  V30 4001 C 379.856 0.0822027 -5.34637 0
M  V30 4002 C 381.156 -2.03694 -4.80943 0
M  V30 4003 H 382.85 -1.41862 -2.63658 0
M  V30 4004 H 380.396 -0.683571 -1.26741 0
M  V30 4005 H 382.349 0.459985 -4.18882 0
M  V30 4006 H 381.073 1.04711 -3.09359 0
M  V30 4007 H 379.732 -1.04347 -3.51436 0
M  V30 4008 H 379.38 0.986359 -4.93234 0
M  V30 4009 H 379.08 -0.508377 -5.85397 0
M  V30 4010 H 380.604 0.392797 -6.09335 0
M  V30 4011 H 382.018 -1.78504 -5.44802 0
M  V30 4012 H 380.415 -2.57573 -5.42011 0
M  V30 4013 H 381.485 -2.72042 -4.01399 0
M  V30 4014 N 382.828 1.3818 -0.7579 0
M  V30 4015 C 384.053 2.04827 -0.325679 0
M  V30 4016 C 384.478 1.56788 1.03919 0
M  V30 4017 O 383.836 0.721811 1.66312 0
M  V30 4018 C 383.884 3.58774 -0.362447 0
M  V30 4019 O 382.988 4.07372 0.642033 0
M  V30 4020 H 382.329 0.64833 -0.143402 0
M  V30 4021 H 384.859 1.7677 -1.03023 0
M  V30 4022 H 384.869 4.07434 -0.214844 0
M  V30 4023 H 383.544 3.93096 -1.35824 0
M  V30 4024 H 382.121 3.70068 0.458688 0
M  V30 4025 N 384.306 0.507319 1.49211 0
M  V30 4026 C 385.552 -0.0269732 2.03382 0
M  V30 4027 C 385.907 -1.34111 1.37957 0
M  V30 4028 O 385.2 -1.84733 0.508351 0
M  V30 4029 C 385.394 -0.229513 3.56662 0
M  V30 4030 C 385.223 1.06344 4.36945 0
M  V30 4031 C 383.993 1.617 4.78729 0
M  V30 4032 C 386.191 1.96833 4.75143 0
M  V30 4033 N 384.173 2.8552 5.43463 0
M  V30 4034 C 385.544 3.0523 5.39661 0
M  V30 4035 C 387.599 1.97434 4.57082 0
M  V30 4036 C 386.302 4.14265 5.88028 0
M  V30 4037 C 388.328 3.05448 5.06414 0
M  V30 4038 C 387.69 4.12564 5.70938 0
M  V30 4039 H 383.789 0.0310673 0.781383 0
M  V30 4040 H 386.373 0.683579 1.82305 0
M  V30 4041 H 384.544 -0.909127 3.7761 0
M  V30 4042 H 386.276 -0.761377 3.97473 0
M  V30 4043 H 383.031 1.16132 4.59141 0
M  V30 4044 H 383.455 3.48499 5.80412 0
M  V30 4045 H 388.097 1.15924 4.06597 0
M  V30 4046 H 385.815 4.96569 6.3753 0
M  V30 4047 H 389.401 3.06941 4.94246 0
M  V30 4048 H 388.281 4.94767 6.0842 0
M  V30 4049 N 385.784 -1.5574 0.241426 0
M  V30 4050 C 387.2 -1.59196 -0.113548 0
M  V30 4051 C 387.4 -1.25852 -1.57364 0
M  V30 4052 O 386.456 -1.00322 -2.31715 0
M  V30 4053 C 387.769 -2.99814 0.230695 0
M  V30 4054 C 389.317 -3.12513 0.174547 0
M  V30 4055 C 389.792 -4.55342 0.492744 0
M  V30 4056 N 391.283 -4.61076 0.443043 0
M  V30 4057 C 392.018 -5.6956 0.662484 0
M  V30 4058 N 391.514 -6.86328 0.944761 0
M  V30 4059 N 393.307 -5.58957 0.593564 0
M  V30 4060 H 385.458 -1.75685 1.19368 0
M  V30 4061 H 387.721 -0.81756 0.479896 0
M  V30 4062 H 387.427 -3.28932 1.24485 0
M  V30 4063 H 387.301 -3.74568 -0.444833 0
M  V30 4064 H 389.688 -2.83179 -0.830277 0
M  V30 4065 H 389.769 -2.40045 0.883845 0
M  V30 4066 H 389.413 -4.85396 1.4951 0
M  V30 4067 H 389.343 -5.26062 -0.23797 0
M  V30 4068 H 391.834 -3.77179 0.233374 0
M  V30 4069 H 392.147 -7.64935 1.09977 0
M  V30 4070 H 390.492 -6.88025 0.982175 0
M  V30 4071 H 393.683 -4.66611 0.373123 0
M  V30 4072 H 393.856 -6.43433 0.767981 0
M  V30 4073 N 387.262 0.0317525 -1.57568 0
M  V30 4074 C 388.487 0.738664 -1.938 0
M  V30 4075 C 388.912 1.68242 -0.841208 0
M  V30 4076 O 388.27 1.80157 0.203267 0
M  V30 4077 C 388.318 1.47417 -3.29091 0
M  V30 4078 O 387.422 2.5872 -3.2115 0
M  V30 4079 H 386.763 0.198856 -0.633524 0
M  V30 4080 H 389.293 -0.0119713 -2.04596 0
M  V30 4081 H 389.303 1.84468 -3.63917 0
M  V30 4082 H 387.978 0.781988 -4.08482 0
M  V30 4083 H 386.555 2.24231 -2.97951 0
M  V30 4084 N 388.74 1.54641 0.303973 0
M  V30 4085 C 389.968 1.77768 1.05858 0
M  V30 4086 C 390.383 0.535722 1.8104 0
M  V30 4087 O 389.74 -0.494337 1.75677 0
M  V30 4088 C 389.791 2.9834 2.04146 0
M  V30 4089 O 389.512 4.17736 1.32015 0
M  V30 4090 C 391.013 3.33832 2.91669 0
M  V30 4091 H 388.233 0.592961 0.314067 0
M  V30 4092 H 390.777 2.01583 0.344149 0
M  V30 4093 H 388.932 2.76742 2.71096 0
M  V30 4094 H 389.346 4.85693 1.97998 0
M  V30 4095 H 390.82 4.21448 3.56491 0
M  V30 4096 H 391.297 2.51857 3.59812 0
M  V30 4097 H 391.903 3.57579 2.30254 0
M  V30 4098 N 390.218 -0.567019 1.47046 0
M  V30 4099 C 391.466 -1.322 1.52864 0
M  V30 4100 C 391.787 -1.94088 0.188388 0
M  V30 4101 O 391.057 -1.7941 -0.786693 0
M  V30 4102 H 389.637 -0.490894 0.563056 0
M  V30 4103 H 392.299 -0.662879 1.83281 0
M  V30 4104 H 391.395 -2.12062 2.2899 0
M  V30 4105 N 391.696 -1.35014 -0.812953 0
M  V30 4106 C 392.944 -1.27678 -1.56661 0
M  V30 4107 C 393.265 0.150359 -1.94419 0
M  V30 4108 O 392.535 1.08532 -1.63088 0
M  V30 4109 H 391.115 -0.469602 -0.580933 0
M  V30 4110 H 393.777 -1.69043 -0.970076 0
M  V30 4111 H 392.873 -1.88833 -2.48492 0
M  V30 4112 N 393.175 1.03435 -1.18907 0
M  V30 4113 C 394.424 1.76143 -0.982669 0
M  V30 4114 C 394.737 1.89416 0.487953 0
M  V30 4115 O 395.943 2.59041 0.813036 0
M  V30 4116 C 394.399 3.16722 -1.70924 0
M  V30 4117 C 394.007 3.11522 -3.21959 0
M  V30 4118 C 395.751 3.93764 -1.58588 0
M  V30 4119 C 393.658 4.46999 -3.87228 0
M  V30 4120 H 392.588 0.660292 -0.364047 0
M  V30 4121 H 395.239 1.158 -1.42347 0
M  V30 4122 H 393.621 3.775 -1.19623 0
M  V30 4123 H 394.795 2.60158 -3.80335 0
M  V30 4124 H 393.11 2.47978 -3.34508 0
M  V30 4125 H 395.707 4.93963 -2.04707 0
M  V30 4126 H 396.05 4.12794 -0.539142 0
M  V30 4127 H 396.583 3.39576 -2.07203 0
M  V30 4128 H 393.322 4.33174 -4.91976 0
M  V30 4129 H 392.842 4.98441 -3.33642 0
M  V30 4130 H 394.521 5.15898 -3.90459 0
M  V30 4131 N 394.653 0.992116 1.22453 0
M  V30 4132 C 395.583 0.561677 2.26644 0
M  V30 4133 C 396.564 -0.411055 1.65059 0
M  V30 4134 O 397.749 -0.301861 1.9184 0
M  V30 4135 C 394.879 -0.125247 3.47074 0
M  V30 4136 C 393.833 0.765948 4.21091 0
M  V30 4137 C 393.159 -0.0538484 5.34673 0
M  V30 4138 C 394.459 2.06242 4.79856 0
M  V30 4139 H 396.153 1.43259 2.62902 0
M  V30 4140 H 393.699 0.690283 1.26377 0
M  V30 4141 H 395.652 -0.437764 4.1912 0
M  V30 4142 H 394.376 -1.03069 3.0991 0
M  V30 4143 H 393.035 1.0621 3.50878 0
M  V30 4144 H 392.683 -0.960188 4.9375 0
M  V30 4145 H 392.383 0.539415 5.85119 0
M  V30 4146 H 393.907 -0.360477 6.09535 0
M  V30 4147 H 395.321 1.8139 5.43848 0
M  V30 4148 H 393.718 2.60444 5.40638 0
M  V30 4149 H 394.788 2.74167 3.99951 0
M  V30 4150 N 396.131 -1.37776 0.765217 0
M  V30 4151 C 397.408 -1.93975 0.251596 0
M  V30 4152 C 397.788 -1.69949 -1.25222 0
M  V30 4153 O 397.136 -1.04457 -2.03226 0
M  V30 4154 C 397.346 -3.43487 0.617895 0
M  V30 4155 C 398.694 -4.20564 0.584029 0
M  V30 4156 O 399.718 -3.5182 0.556888 0
M  V30 4157 O 398.577 -5.43138 0.605291 0
M  V30 4158 H 395.671 -0.82509 0.0561806 0
M  V30 4159 H 398.217 -1.47101 0.846128 0
M  V30 4160 H 396.989 -3.5453 1.65602 0
M  V30 4161 H 396.612 -3.976 -0.00403411 0
M  V30 4162 N 397.609 -0.515225 -1.4894 0
M  V30 4163 C 398.855 0.0242508 -2.02785 0
M  V30 4164 C 399.188 1.35323 -1.39289 0
M  V30 4165 O 398.463 1.87041 -0.533469 0
M  V30 4166 C 398.746 0.16184 -3.59736 0
M  V30 4167 C 398.599 -1.19127 -4.33738 0
M  V30 4168 C 399.918 0.895719 -4.30888 0
M  V30 4169 H 397.037 0.00733914 -0.736963 0
M  V30 4170 H 399.679 -0.669395 -1.77818 0
M  V30 4171 H 397.829 0.752624 -3.8114 0
M  V30 4172 H 399.501 -1.82202 -4.23792 0
M  V30 4173 H 397.744 -1.77695 -3.95736 0
M  V30 4174 H 398.415 -1.04815 -5.41957 0
M  V30 4175 H 400.891 0.394528 -4.14225 0
M  V30 4176 H 399.767 0.960859 -5.40425 0
M  V30 4177 H 400.028 1.9427 -3.97129 0
M  V30 4178 N 399.087 1.5561 -0.249682 0
M  V30 4179 C 400.317 2.03116 0.377803 0
M  V30 4180 C 400.725 1.12822 1.51881 0
M  V30 4181 O 400.068 0.13562 1.83199 0
M  V30 4182 C 400.13 3.46866 0.944693 0
M  V30 4183 C 399.794 4.56955 -0.0644259 0
M  V30 4184 C 400.791 5.12485 -0.874957 0
M  V30 4185 C 398.476 5.01936 -0.19132 0
M  V30 4186 C 400.47 6.11491 -1.79881 0
M  V30 4187 C 398.157 6.00773 -1.11868 0
M  V30 4188 C 399.155 6.5543 -1.92095 0
M  V30 4189 O 398.843 7.5234 -2.83267 0
M  V30 4190 H 398.575 0.669489 0.0935961 0
M  V30 4191 H 401.129 2.02004 -0.371966 0
M  V30 4192 H 399.359 3.45136 1.74407 0
M  V30 4193 H 401.048 3.77856 1.48255 0
M  V30 4194 H 401.814 4.78564 -0.787523 0
M  V30 4195 H 397.693 4.59055 0.423072 0
M  V30 4196 H 401.237 6.54078 -2.42543 0
M  V30 4197 H 397.134 6.34114 -1.20703 0
M  V30 4198 H 397.902 7.69966 -2.7766 0
M  V30 4199 N 400.565 -0.0233959 1.57583 0
M  V30 4200 C 401.814 -0.712133 1.8871 0
M  V30 4201 C 402.127 -1.76217 0.848944 0
M  V30 4202 O 403.333 -2.50389 1.04964 0
M  V30 4203 C 401.789 -1.3177 3.3491 0
M  V30 4204 C 401.397 -0.303715 4.46969 0
M  V30 4205 C 403.141 -1.98598 3.75179 0
M  V30 4206 C 401.048 -0.917945 5.84233 0
M  V30 4207 H 399.978 -0.269735 0.704101 0
M  V30 4208 H 402.629 0.0333114 1.8347 0
M  V30 4209 H 401.011 -2.11304 3.34913 0
M  V30 4210 H 402.185 0.465325 4.58445 0
M  V30 4211 H 400.5 0.2628 4.1557 0
M  V30 4212 H 403.097 -2.45416 4.75053 0
M  V30 4213 H 403.44 -2.80659 3.07468 0
M  V30 4214 H 403.973 -1.25831 3.77374 0
M  V30 4215 H 400.712 -0.136633 6.55358 0
M  V30 4216 H 400.232 -1.65669 5.76467 0
M  V30 4217 H 401.911 -1.4236 6.31144 0
M  V30 4218 N 402.043 -1.548 -0.295768 0
M  V30 4219 C 403.29 -1.74329 -1.03032 0
M  V30 4220 C 403.618 -0.531915 -1.87085 0
M  V30 4221 O 402.873 0.486052 -1.89568 0
M  V30 4222 C 403.172 -2.98797 -1.961 0
M  V30 4223 C 402.838 -4.32356 -1.2798 0
M  V30 4224 C 401.5 -4.68661 -1.09135 0
M  V30 4225 C 403.852 -5.15128 -0.793243 0
M  V30 4226 C 401.18 -5.85312 -0.403269 0
M  V30 4227 C 403.532 -6.32488 -0.118854 0
M  V30 4228 C 402.196 -6.6745 0.0815043 0
M  V30 4229 H 401.466 -0.637916 -0.37702 0
M  V30 4230 H 404.113 -1.8906 -0.304696 0
M  V30 4231 H 402.418 -2.78869 -2.75207 0
M  V30 4232 H 404.115 -3.11102 -2.53015 0
M  V30 4233 H 400.705 -4.03808 -1.43655 0
M  V30 4234 H 404.889 -4.87575 -0.92653 0
M  V30 4235 H 400.145 -6.1094 -0.237098 0
M  V30 4236 H 404.319 -6.95892 0.266035 0
M  V30 4237 H 401.946 -7.57695 0.616685 0
M  V30 4238 N 403.521 0.559213 -1.47345 0
M  V30 4239 C 404.451 1.67622 -1.62558 0
M  V30 4240 C 405.432 1.63331 -0.475087 0
M  V30 4241 O 406.617 1.80983 -0.704182 0
M  V30 4242 C 403.747 3.0626 -1.63774 0
M  V30 4243 C 402.701 3.25397 -2.7803 0
M  V30 4244 C 402.027 4.64801 -2.64318 0
M  V30 4245 C 403.327 3.10965 -4.19641 0
M  V30 4246 H 405.021 1.55146 -2.56067 0
M  V30 4247 H 402.567 0.744961 -1.23233 0
M  V30 4248 H 404.52 3.84247 -1.73008 0
M  V30 4249 H 403.244 3.1969 -0.66825 0
M  V30 4250 H 401.903 2.49817 -2.68304 0
M  V30 4251 H 401.551 4.75028 -1.65401 0
M  V30 4252 H 401.251 4.78555 -3.40968 0
M  V30 4253 H 402.775 5.44926 -2.75478 0
M  V30 4254 H 404.189 3.78772 -4.30354 0
M  V30 4255 H 402.586 3.36229 -4.97062 0
M  V30 4256 H 403.656 2.07736 -4.38148 0
M  V30 4257 N 404.999 1.35443 0.805782 0
M  V30 4258 C 406.247 1.28507 1.55982 0
M  V30 4259 C 406.568 -0.140046 1.94496 0
M  V30 4260 O 405.838 -1.07666 1.63661 0
M  V30 4261 H 404.418 0.472676 0.578434 0
M  V30 4262 H 407.08 1.69555 0.961098 0
M  V30 4263 H 406.176 1.90148 2.47488 0
M  V30 4264 N 406.477 -1.02803 1.19454 0
M  V30 4265 C 407.888 -1.57667 0.999899 0
M  V30 4266 C 408.239 -1.91041 -0.446956 0
M  V30 4267 O 407.364 -1.70978 -1.32648 0
M  V30 4268 C 407.959 -2.86477 1.80877 0
M  V30 4269 C 406.518 -3.37911 1.65811 0
M  V30 4270 C 405.665 -2.11343 1.79526 0
M  V30 4271 H 408.616 -0.853214 1.33813 0
M  V30 4272 H 408.637 -3.57408 1.30536 0
M  V30 4273 H 408.149 -2.62155 2.86175 0
M  V30 4274 H 406.25 -3.67218 0.63102 0
M  V30 4275 H 406.363 -4.10885 2.46395 0
M  V30 4276 H 404.727 -2.23254 1.22596 0
M  V30 4277 H 405.51 -1.89461 2.86285 0
M  V30 4278 N 407.956 -0.998596 -1.21925 0
M  V30 4279 C 408.866 -0.562736 -2.27751 0
M  V30 4280 C 409.882 0.391203 -1.69545 0
M  V30 4281 O 411.058 0.256625 -1.99758 0
M  V30 4282 C 408.123 0.11012 -3.46525 0
M  V30 4283 C 407.184 -0.887495 -4.20026 0
M  V30 4284 C 406.417 -0.246654 -5.3313 0
M  V30 4285 O 406.64 0.958088 -5.62296 0
M  V30 4286 O 405.574 -0.954374 -5.94286 0
M  V30 4287 H 409.4 -1.44329 -2.67213 0
M  V30 4288 H 406.985 -0.767135 -1.28201 0
M  V30 4289 H 408.867 0.486756 -4.18579 0
M  V30 4290 H 407.542 0.965154 -3.08976 0
M  V30 4291 H 406.449 -1.31517 -3.5022 0
M  V30 4292 H 407.782 -1.71191 -4.6147 0
M  V30 4293 N 409.434 1.37368 -0.772513 0
M  V30 4294 C 410.845 1.8231 -0.402493 0
M  V30 4295 C 411.196 1.6436 1.07146 0
M  V30 4296 O 410.321 1.15514 1.82991 0
M  V30 4297 C 410.916 3.30979 -0.723776 0
M  V30 4298 C 409.475 3.74195 -0.406802 0
M  V30 4299 C 408.622 2.59885 -0.967218 0
M  V30 4300 H 411.573 1.25829 -0.967099 0
M  V30 4301 H 411.594 3.80499 -0.00870832 0
M  V30 4302 H 411.106 3.44011 -1.7966 0
M  V30 4303 H 409.207 3.66732 0.658673 0
M  V30 4304 H 409.32 4.7027 -0.915588 0
M  V30 4305 H 407.684 2.51674 -0.391416 0
M  V30 4306 H 408.467 2.7571 -2.04546 0
M  V30 4307 N 410.912 0.523116 1.48665 0
M  V30 4308 C 411.859 -0.243398 2.29513 0
M  V30 4309 C 412.829 -0.940139 1.36933 0
M  V30 4310 O 414.014 -0.942503 1.65896 0
M  V30 4311 C 411.154 -1.28855 3.20141 0
M  V30 4312 C 410.267 -0.60135 4.27794 0
M  V30 4313 C 409.402 -1.62884 5.05611 0
M  V30 4314 C 408.441 -0.924726 6.05075 0
M  V30 4315 N 407.578 -1.89744 6.75975 0
M  V30 4316 H 412.418 0.452234 2.94549 0
M  V30 4317 H 409.955 0.234858 1.45213 0
M  V30 4318 H 411.913 -1.90674 3.71079 0
M  V30 4319 H 410.543 -1.95266 2.57043 0
M  V30 4320 H 409.595 0.130623 3.80176 0
M  V30 4321 H 410.907 -0.0481585 4.98777 0
M  V30 4322 H 410.061 -2.32149 5.60528 0
M  V30 4323 H 408.8 -2.21592 4.34452 0
M  V30 4324 H 407.805 -0.217966 5.49368 0
M  V30 4325 H 409.03 -0.343851 6.78229 0
M  V30 4326 H 406.976 -2.47373 6.07571 0
M  V30 4327 H 406.893 -1.3955 7.43009 0
M  V30 4328 H 408.161 -2.58229 7.35485 0
M  V30 4329 N 412.39 -1.55475 0.257931 0
M  V30 4330 C 413.615 -2.04064 -0.370488 0
M  V30 4331 C 414.04 -1.13565 -1.49948 0
M  V30 4332 O 413.398 -0.130781 -1.80828 0
M  V30 4333 C 413.446 -3.50554 -0.845237 0
M  V30 4334 O 412.55 -3.63173 -1.95394 0
M  V30 4335 H 411.891 -0.659257 -0.0792243 0
M  V30 4336 H 414.421 -2.00903 0.387212 0
M  V30 4337 H 414.431 -3.91588 -1.14555 0
M  V30 4338 H 413.106 -4.15896 -0.0191259 0
M  V30 4339 H 411.683 -3.34039 -1.65748 0
M  V30 4340 N 413.868 0.0150385 -1.57593 0
M  V30 4341 C 415.114 0.704043 -1.90187 0
M  V30 4342 C 415.447 1.74249 -0.857366 0
M  V30 4343 O 414.722 1.94092 0.125843 0
M  V30 4344 C 415.005 1.36087 -3.33395 0
M  V30 4345 C 414.858 0.334981 -4.48551 0
M  V30 4346 C 416.177 2.29112 -3.7576 0
M  V30 4347 H 413.296 0.254475 -0.691673 0
M  V30 4348 H 415.938 -0.0331678 -1.89971 0
M  V30 4349 H 414.088 1.98922 -3.3371 0
M  V30 4350 H 415.76 -0.292534 -4.60372 0
M  V30 4351 H 414.003 -0.344325 -4.32431 0
M  V30 4352 H 414.674 0.833316 -5.45674 0
M  V30 4353 H 417.15 1.76308 -3.76902 0
M  V30 4354 H 416.026 2.72043 -4.76743 0
M  V30 4355 H 416.287 3.16385 -3.08793 0
M  V30 4356 N 415.346 1.54954 0.287554 0
M  V30 4357 C 416.592 1.75132 1.02257 0
M  V30 4358 C 416.925 0.542858 1.86458 0
M  V30 4359 O 416.2 -0.459856 1.88986 0
M  V30 4360 C 416.483 3.04812 1.91733 0
M  V30 4361 C 416.336 4.35985 1.10622 0
M  V30 4362 C 417.655 3.30438 2.90687 0
M  V30 4363 H 414.774 0.637194 0.370341 0
M  V30 4364 H 417.416 1.87678 0.296111 0
M  V30 4365 H 415.566 2.94247 2.53675 0
M  V30 4366 H 417.238 4.58487 0.508636 0
M  V30 4367 H 415.481 4.31865 0.409271 0
M  V30 4368 H 416.152 5.23017 1.76513 0
M  V30 4369 H 418.628 3.40701 2.38877 0
M  V30 4370 H 417.504 4.22467 3.50447 0
M  V30 4371 H 417.765 2.49377 3.65053 0
M  V30 4372 N 416.824 -0.551391 1.4764 0
M  V30 4373 C 417.756 -1.67333 1.56628 0
M  V30 4374 C 418.769 -1.56398 0.452045 0
M  V30 4375 O 419.958 -1.6325 0.721926 0
M  V30 4376 C 417.058 -3.05841 1.45994 0
M  V30 4377 C 416.231 -3.42472 2.72088 0
M  V30 4378 C 415.29 -4.60168 2.55209 0
M  V30 4379 O 414.316 -4.64458 3.2904 0
M  V30 4380 N 415.518 -5.57024 1.63416 0
M  V30 4381 H 418.283 -1.60066 2.53375 0
M  V30 4382 H 415.844 -0.738169 1.44093 0
M  V30 4383 H 417.836 -3.8242 1.32428 0
M  V30 4384 H 416.406 -3.07302 0.573071 0
M  V30 4385 H 415.626 -2.55284 3.00373 0
M  V30 4386 H 416.914 -3.63723 3.55785 0
M  V30 4387 H 416.312 -5.56319 1.02594 0
M  V30 4388 H 414.869 -6.32906 1.558 0
M  V30 4389 N 418.302 -1.35869 -0.798587 0
M  V30 4390 C 419.234 -1.25305 -1.91915 0
M  V30 4391 C 420.247 -0.174548 -1.61862 0
M  V30 4392 O 421.436 -0.428499 -1.73281 0
M  V30 4393 C 418.536 -0.9086 -3.26493 0
M  V30 4394 C 417.709 -2.08711 -3.84394 0
M  V30 4395 C 416.768 -1.71717 -4.97393 0
M  V30 4396 O 415.794 -2.43692 -5.14396 0
M  V30 4397 N 416.996 -0.645473 -5.769 0
M  V30 4398 H 419.761 -2.21849 -2.01502 0
M  V30 4399 H 417.322 -1.29143 -0.976408 0
M  V30 4400 H 419.314 -0.642455 -3.99568 0
M  V30 4401 H 417.884 -0.0325815 -3.12583 0
M  V30 4402 H 417.104 -2.51659 -3.03416 0
M  V30 4403 H 418.392 -2.87468 -4.19809 0
M  V30 4404 H 417.79 -0.047648 -5.6568 0
M  V30 4405 H 416.347 -0.43913 -6.50319 0
M  V30 4406 N 419.78 1.02168 -1.19998 0
M  V30 4407 C 421.01 1.79036 -1.031 0
M  V30 4408 C 421.418 1.84409 0.423078 0
M  V30 4409 O 420.761 1.29228 1.30559 0
M  V30 4410 C 420.823 3.25185 -1.53281 0
M  V30 4411 C 420.487 3.43431 -3.01503 0
M  V30 4412 C 421.484 3.33063 -3.99206 0
M  V30 4413 C 419.169 3.69412 -3.40353 0
M  V30 4414 C 421.163 3.48413 -5.33748 0
M  V30 4415 C 418.85 3.84406 -4.75053 0
M  V30 4416 C 419.848 3.7391 -5.71559 0
M  V30 4417 O 419.536 3.88452 -7.03818 0
M  V30 4418 H 419.268 0.570043 -0.363355 0
M  V30 4419 H 421.822 1.29524 -1.59414 0
M  V30 4420 H 420.052 3.75756 -0.913483 0
M  V30 4421 H 421.741 3.83671 -1.32481 0
M  V30 4422 H 422.507 3.12934 -3.70537 0
M  V30 4423 H 418.386 3.76671 -2.65782 0
M  V30 4424 H 421.93 3.40137 -6.09059 0
M  V30 4425 H 417.827 4.04035 -5.03415 0
M  V30 4426 H 418.595 4.055 -7.10993 0
M  V30 4427 N 421.258 1.00505 1.21394 0
M  V30 4428 C 422.188 0.585684 2.26035 0
M  V30 4429 C 423.169 -0.393525 1.65485 0
M  V30 4430 O 424.354 -0.281497 1.92149 0
M  V30 4431 C 421.484 -0.0884283 3.47187 0
M  V30 4432 C 420.438 0.810567 4.20254 0
M  V30 4433 C 419.764 0.00286382 5.347 0
M  V30 4434 C 421.064 2.1132 4.77641 0
M  V30 4435 H 422.758 1.46039 2.61368 0
M  V30 4436 H 420.304 0.703648 1.25638 0
M  V30 4437 H 422.257 -0.393286 4.19561 0
M  V30 4438 H 420.981 -0.997766 3.10986 0
M  V30 4439 H 419.64 1.09925 3.49731 0
M  V30 4440 H 419.288 -0.907765 4.94741 0
M  V30 4441 H 418.988 0.601444 5.84514 0
M  V30 4442 H 420.512 -0.295808 6.09883 0
M  V30 4443 H 421.926 1.87148 5.41893 0
M  V30 4444 H 420.323 2.66164 5.37845 0
M  V30 4445 H 421.393 2.78393 3.9702 0
M  V30 4446 N 422.737 -1.36956 0.779787 0
M  V30 4447 C 424.014 -1.93697 0.272156 0
M  V30 4448 C 424.394 -1.71267 -1.23413 0
M  V30 4449 O 423.742 -1.06607 -2.02107 0
M  V30 4450 C 423.952 -3.42812 0.654291 0
M  V30 4451 C 425.3 -4.19921 0.628602 0
M  V30 4452 O 426.324 -3.51209 0.594172 0
M  V30 4453 O 425.183 -5.42465 0.662864 0
M  V30 4454 H 422.277 -0.824447 0.0649286 0
M  V30 4455 H 424.823 -1.46196 0.861682 0
M  V30 4456 H 423.595 -3.52754 1.69353 0
M  V30 4457 H 423.218 -3.97582 0.0381369 0
M  V30 4458 N 424.215 -0.530993 -1.48385 0
M  V30 4459 C 425.461 0.00274135 -2.028 0
M  V30 4460 C 425.794 1.33838 -1.40716 0
M  V30 4461 O 425.069 1.86465 -0.553277 0
M  V30 4462 C 425.352 0.123676 -3.59888 0
M  V30 4463 C 425.205 -1.2372 -4.3245 0
M  V30 4464 C 426.524 0.849967 -4.31814 0
M  V30 4465 H 423.643 -0.000477758 -0.737 0
M  V30 4466 H 426.285 -0.688217 -1.77098 0
M  V30 4467 H 424.435 0.712157 -3.81917 0
M  V30 4468 H 426.107 -1.86687 -4.21836 0
M  V30 4469 H 424.35 -1.81882 -3.93829 0
M  V30 4470 H 425.021 -1.10557 -5.40815 0
M  V30 4471 H 427.497 0.350572 -4.14621 0
M  V30 4472 H 426.373 0.903486 -5.41413 0
M  V30 4473 H 426.634 1.90047 -3.99167 0
M  V30 4474 N 425.693 1.55336 -0.266172 0
M  V30 4475 C 426.939 1.99692 0.353681 0
M  V30 4476 C 427.272 1.1543 1.56172 0
M  V30 4477 O 426.547 0.222218 1.93226 0
M  V30 4478 C 426.83 3.52316 0.74466 0
M  V30 4479 C 426.683 4.47337 -0.470101 0
M  V30 4480 C 428.002 4.10588 1.58447 0
M  V30 4481 H 425.121 0.725961 0.12708 0
M  V30 4482 H 427.763 1.86336 -0.371333 0
M  V30 4483 H 425.913 3.63829 1.36239 0
M  V30 4484 H 427.585 4.4778 -1.10864 0
M  V30 4485 H 425.828 4.19364 -1.10978 0
M  V30 4486 H 426.499 5.51788 -0.15291 0
M  V30 4487 H 428.975 4.02297 1.06286 0
M  V30 4488 H 427.851 5.17607 1.82686 0
M  V30 4489 H 428.112 3.60253 2.56262 0
M  V30 4490 N 427.171 -0.0066808 1.57599 0
M  V30 4491 C 428.419 -0.691552 1.899 0
M  V30 4492 C 428.74 -1.74682 0.866672 0
M  V30 4493 O 428.01 -1.95661 -0.0968189 0
M  V30 4494 H 426.59 -0.258416 0.700878 0
M  V30 4495 H 429.252 0.0326655 1.94873 0
M  V30 4496 H 428.348 -1.16702 2.8946 0
M  V30 4497 N 428.649 -1.55105 -0.279332 0
M  V30 4498 C 429.879 -1.7917 -1.02867 0
M  V30 4499 C 430.287 -0.56204 -1.80659 0
M  V30 4500 O 429.63 0.478266 -1.77365 0
M  V30 4501 C 429.692 -2.96061 -2.03932 0
M  V30 4502 C 429.356 -4.33341 -1.45137 0
M  V30 4503 C 430.353 -5.12565 -0.870266 0
M  V30 4504 C 428.038 -4.79987 -1.48048 0
M  V30 4505 C 430.032 -6.36565 -0.326097 0
M  V30 4506 C 427.719 -6.03944 -0.932443 0
M  V30 4507 C 428.717 -6.8207 -0.356247 0
M  V30 4508 O 428.405 -8.03691 0.183412 0
M  V30 4509 H 428.137 -0.600796 -0.309872 0
M  V30 4510 H 430.691 -2.02932 -0.317468 0
M  V30 4511 H 428.921 -2.67975 -2.78794 0
M  V30 4512 H 430.61 -3.07506 -2.64943 0
M  V30 4513 H 431.376 -4.77661 -0.840521 0
M  V30 4514 H 427.255 -4.1919 -1.91835 0
M  V30 4515 H 430.799 -6.97489 0.124286 0
M  V30 4516 H 426.696 -6.3833 -0.959407 0
M  V30 4517 H 427.464 -8.18468 0.0721681 0
M  V30 4518 N 430.127 0.543554 -1.4793 0
M  V30 4519 C 431.538 1.12561 -1.48953 0
M  V30 4520 C 431.889 1.94578 -0.251754 0
M  V30 4521 O 431.014 2.0665 0.642255 0
M  V30 4522 C 431.609 2.04801 -2.69892 0
M  V30 4523 C 430.168 2.58251 -2.73831 0
M  V30 4524 C 429.315 1.34918 -2.42265 0
M  V30 4525 H 432.266 0.32947 -1.55242 0
M  V30 4526 H 432.287 2.88886 -2.47639 0
M  V30 4527 H 431.799 1.4508 -3.59963 0
M  V30 4528 H 429.9 3.21732 -1.87934 0
M  V30 4529 H 430.013 2.98312 -3.74895 0
M  V30 4530 H 428.377 1.66046 -1.93134 0
M  V30 4531 H 429.16 0.769693 -3.3456 0
M  V30 4532 N 431.605 1.3629 0.791371 0
M  V30 4533 C 432.852 1.30412 1.54916 0
M  V30 4534 C 433.18 -0.117162 1.94147 0
M  V30 4535 O 432.435 -1.08599 1.62803 0
M  V30 4536 C 432.734 2.17068 2.8393 0
M  V30 4537 C 432.4 3.65645 2.63846 0
M  V30 4538 C 431.062 4.0614 2.58077 0
M  V30 4539 C 433.414 4.59855 2.45322 0
M  V30 4540 C 430.742 5.3899 2.31748 0
M  V30 4541 C 433.094 5.9292 2.2052 0
M  V30 4542 C 431.758 6.32542 2.13183 0
M  V30 4543 H 431.028 0.47721 0.566879 0
M  V30 4544 H 433.675 1.68325 0.913172 0
M  V30 4545 H 431.98 1.72085 3.51986 0
M  V30 4546 H 433.677 2.09846 3.4171 0
M  V30 4547 H 430.267 3.33518 2.69191 0
M  V30 4548 H 434.451 4.29443 2.48782 0
M  V30 4549 H 429.707 5.68672 2.24548 0
M  V30 4550 H 433.881 6.65487 2.05182 0
M  V30 4551 H 431.508 7.35412 1.92544 0
M  V30 4552 N 433.083 -1.0153 1.20538 0
M  V30 4553 C 434.016 -2.09759 0.898695 0
M  V30 4554 C 434.994 -1.61909 -0.149733 0
M  V30 4555 O 436.178 -1.88486 -0.0230293 0
M  V30 4556 C 433.305 -3.36913 0.347512 0
M  V30 4557 C 432.351 -4.03655 1.37713 0
M  V30 4558 S 433.184 -4.47402 2.94265 0
M  V30 4559 C 434.34 -5.77756 2.40726 0
M  V30 4560 H 434.573 -2.3545 1.81523 0
M  V30 4561 H 432.106 -1.14665 1.03399 0
M  V30 4562 H 434.064 -4.10484 0.0360518 0
M  V30 4563 H 432.725 -3.09291 -0.547546 0
M  V30 4564 H 431.918 -4.9514 0.940872 0
M  V30 4565 H 431.52 -3.36313 1.63614 0
M  V30 4566 H 433.812 -6.52994 1.80569 0
M  V30 4567 H 434.755 -6.2618 3.30612 0
M  V30 4568 H 435.163 -5.34081 1.82806 0
M  V30 4569 N 434.561 -1.01147 -1.20859 0
M  V30 4570 C 435.972 -0.730205 -1.71828 0
M  V30 4571 C 436.323 0.751662 -1.8123 0
M  V30 4572 O 435.448 1.58686 -1.47132 0
M  V30 4573 C 436.043 -1.31885 -3.12077 0
M  V30 4574 C 434.602 -1.08656 -3.60376 0
M  V30 4575 C 433.749 -1.42769 -2.37723 0
M  V30 4576 H 436.7 -1.18158 -1.05945 0
M  V30 4577 H 436.721 -0.706793 -3.73878 0
M  V30 4578 H 436.233 -2.39737 -3.05201 0
M  V30 4579 H 434.334 -0.0254814 -3.72591 0
M  V30 4580 H 434.447 -1.76301 -4.45483 0
M  V30 4581 H 432.811 -0.846603 -2.40218 0
M  V30 4582 H 433.594 -2.51666 -2.33493 0
M  V30 4583 N 436.039 1.36541 -0.78704 0
M  V30 4584 C 437.45 1.81873 -0.421807 0
M  V30 4585 C 437.801 1.65487 1.05397 0
M  V30 4586 O 436.926 1.17448 1.81755 0
M  V30 4587 C 437.521 3.30192 -0.758841 0
M  V30 4588 C 436.08 3.73743 -0.446468 0
M  V30 4589 C 435.227 2.58844 -0.994728 0
M  V30 4590 H 438.178 1.24796 -0.98039 0
M  V30 4591 H 438.199 3.80468 -0.0490648 0
M  V30 4592 H 437.711 3.42087 -1.83299 0
M  V30 4593 H 435.812 3.6741 0.619739 0
M  V30 4594 H 435.925 4.69272 -0.965415 0
M  V30 4595 H 434.289 2.51245 -0.418087 0
M  V30 4596 H 435.072 2.73525 -2.07458 0
M  V30 4597 N 437.518 0.538854 1.48102 0
M  V30 4598 C 438.748 0.0122958 2.06596 0
M  V30 4599 C 439.156 -1.27861 1.39457 0
M  V30 4600 O 438.499 -1.77348 0.478907 0
M  V30 4601 C 438.561 -0.273131 3.58461 0
M  V30 4602 C 438.225 0.92561 4.47528 0
M  V30 4603 C 439.222 1.82637 4.86765 0
M  V30 4604 C 436.907 1.13511 4.89306 0
M  V30 4605 C 438.901 2.92047 5.66558 0
M  V30 4606 C 436.588 2.23233 5.68868 0
M  V30 4607 C 437.586 3.12333 6.07402 0
M  V30 4608 O 437.274 4.20155 6.85365 0
M  V30 4609 H 437.006 0.0344283 0.675123 0
M  V30 4610 H 439.56 0.746494 1.91355 0
M  V30 4611 H 437.79 -1.06141 3.71848 0
M  V30 4612 H 439.479 -0.742842 3.99045 0
M  V30 4613 H 440.245 1.67649 4.55103 0
M  V30 4614 H 436.124 0.450835 4.5879 0
M  V30 4615 H 439.668 3.6162 5.96554 0
M  V30 4616 H 435.565 2.38201 5.99942 0
M  V30 4617 H 436.333 4.17975 7.03732 0
M  V30 4618 N 438.996 -1.55193 0.274407 0
M  V30 4619 C 440.242 -2.00604 -0.33608 0
M  V30 4620 C 440.597 -1.15948 -1.53538 0
M  V30 4621 O 439.89 -0.221385 -1.90317 0
M  V30 4622 C 440.084 -3.49019 -0.769458 0
M  V30 4623 C 439.913 -4.48038 0.386301 0
M  V30 4624 C 438.683 -4.97757 0.869854 0
M  V30 4625 C 440.881 -4.99558 1.22254 0
M  V30 4626 N 438.863 -5.80575 1.99515 0
M  V30 4627 C 440.234 -5.79816 2.19575 0
M  V30 4628 C 442.289 -4.81799 1.25597 0
M  V30 4629 C 440.992 -6.44208 3.19981 0
M  V30 4630 C 443.018 -5.46989 2.24848 0
M  V30 4631 C 442.38 -6.27058 3.20901 0
M  V30 4632 H 438.479 -0.777013 -0.088172 0
M  V30 4633 H 441.063 -1.90583 0.398266 0
M  V30 4634 H 439.234 -3.59383 -1.47303 0
M  V30 4635 H 440.966 -3.81263 -1.35722 0
M  V30 4636 H 437.721 -4.71464 0.449281 0
M  V30 4637 H 438.145 -6.26675 2.5614 0
M  V30 4638 H 442.787 -4.19501 0.527158 0
M  V30 4639 H 440.505 -7.05656 3.93796 0
M  V30 4640 H 444.091 -5.35189 2.28174 0
M  V30 4641 H 442.971 -6.7661 3.96445 0
M  V30 4642 N 440.474 -0.00167713 -1.576 0
M  V30 4643 C 441.722 0.681471 -1.90264 0
M  V30 4644 C 442.043 1.7422 -0.875924 0
M  V30 4645 O 441.313 1.95709 0.0864412 0
M  V30 4646 H 439.893 0.254696 -0.702239 0
M  V30 4647 H 442.555 -0.0429996 -1.94853 0
M  V30 4648 H 441.651 1.15166 -2.90075 0
M  V30 4649 N 441.952 1.55251 0.271103 0
M  V30 4650 C 442.882 1.9127 1.33933 0
M  V30 4651 C 443.863 0.77478 1.5143 0
M  V30 4652 O 445.048 1.03307 1.64442 0
M  V30 4653 C 442.178 2.18627 2.69851 0
M  V30 4654 C 441.132 3.34442 2.67081 0
M  V30 4655 C 440.458 3.47284 4.06569 0
M  V30 4656 C 441.758 4.70784 2.26185 0
M  V30 4657 H 443.452 2.80744 1.04035 0
M  V30 4658 H 440.998 1.35077 0.499017 0
M  V30 4659 H 442.951 2.42413 3.44694 0
M  V30 4660 H 441.675 1.25955 3.01335 0
M  V30 4661 H 440.334 3.10627 1.94695 0
M  V30 4662 H 439.982 2.52074 4.35279 0
M  V30 4663 H 439.682 4.25152 4.0561 0
M  V30 4664 H 441.206 3.73363 4.83148 0
M  V30 4665 H 442.62 4.94102 2.90751 0
M  V30 4666 H 441.017 5.51582 2.36384 0
M  V30 4667 H 442.087 4.69478 1.21319 0
M  V30 4668 N 443.43 -0.535701 1.48216 0
M  V30 4669 C 444.678 -1.28928 1.55634 0
M  V30 4670 C 444.999 -1.93645 0.229514 0
M  V30 4671 O 444.269 -1.81038 -0.74846 0
M  V30 4672 H 442.849 -0.47884 0.573342 0
M  V30 4673 H 445.511 -0.623853 1.84646 0
M  V30 4674 H 444.607 -2.07157 2.33436 0
M  V30 4675 N 444.908 -1.36708 -0.784132 0
M  V30 4676 C 446.155 -1.31231 -1.54222 0
M  V30 4677 C 446.483 0.106864 -1.94206 0
M  V30 4678 O 445.738 1.07734 -1.63376 0
M  V30 4679 C 446.037 -2.18571 -2.82774 0
M  V30 4680 C 445.703 -3.67039 -2.61903 0
M  V30 4681 C 444.365 -4.07503 -2.55919 0
M  V30 4682 C 446.717 -4.61149 -2.4288 0
M  V30 4683 C 444.045 -5.40211 -2.28886 0
M  V30 4684 C 446.397 -5.94081 -2.17373 0
M  V30 4685 C 445.061 -6.33664 -2.09825 0
M  V30 4686 H 444.331 -0.48021 -0.56434 0
M  V30 4687 H 446.978 -1.68807 -0.904233 0
M  V30 4688 H 445.283 -1.73949 -3.51068 0
M  V30 4689 H 446.98 -2.11655 -3.40592 0
M  V30 4690 H 443.57 -3.34941 -2.67418 0
M  V30 4691 H 447.754 -4.30756 -2.46501 0
M  V30 4692 H 443.01 -5.69855 -2.21529 0
M  V30 4693 H 447.184 -6.66566 -2.01649 0
M  V30 4694 H 444.811 -7.36423 -1.88641 0
M  V30 4695 N 446.386 1.0089 -1.21074 0
M  V30 4696 C 447.336 2.0799 -0.934034 0
M  V30 4697 C 448.32 1.60529 0.10919 0
M  V30 4698 O 449.512 1.76722 -0.0992198 0
M  V30 4699 C 446.641 3.39693 -0.496334 0
M  V30 4700 C 445.727 3.93833 -1.57341 0
M  V30 4701 N 446.118 4.21388 -2.7976 0
M  V30 4702 C 444.416 4.22067 -1.44137 0
M  V30 4703 C 445.117 4.65156 -3.49292 0
M  V30 4704 N 444.093 4.67895 -2.76722 0
M  V30 4705 H 447.895 2.27213 -1.86417 0
M  V30 4706 H 445.409 1.18927 -1.10589 0
M  V30 4707 H 447.406 4.15962 -0.279471 0
M  V30 4708 H 446.066 3.21879 0.427084 0
M  V30 4709 H 447.077 4.10061 -3.1634 0
M  V30 4710 H 443.754 4.1341 -0.582947 0
M  V30 4711 H 445.144 4.95231 -4.54088 0
M  V30 4712 N 447.864 1.01787 1.20321 0
M  V30 4713 C 448.794 0.609625 2.25401 0
M  V30 4714 C 449.775 -0.375951 1.65893 0
M  V30 4715 O 450.96 -0.261101 1.92437 0
M  V30 4716 C 448.09 -0.0515995 3.47262 0
M  V30 4717 C 447.044 0.855095 4.19371 0
M  V30 4718 C 446.37 0.0595757 5.34667 0
M  V30 4719 C 447.67 2.16374 4.75373 0
M  V30 4720 H 449.364 1.48803 2.59804 0
M  V30 4721 H 446.91 0.716934 1.24884 0
M  V30 4722 H 448.863 -0.348764 4.19954 0
M  V30 4723 H 447.587 -0.964726 3.12027 0
M  V30 4724 H 446.246 1.13628 3.48546 0
M  V30 4725 H 445.894 -0.85524 4.95676 0
M  V30 4726 H 445.594 0.663406 5.83843 0
M  V30 4727 H 447.118 -0.231105 6.10162 0
M  V30 4728 H 448.532 1.92885 5.39878 0
M  V30 4729 H 446.929 2.71853 5.34991 0
M  V30 4730 H 447.999 2.82589 3.94045 0
M  V30 4731 N 449.342 -1.36122 0.79427 0
M  V30 4732 C 450.582 -2.00942 0.374376 0
M  V30 4733 C 450.946 -1.61666 -1.03577 0
M  V30 4734 O 452.147 -2.19113 -1.55701 0
M  V30 4735 C 450.418 -3.53323 0.538327 0
M  V30 4736 S 451.977 -4.38311 0.20703 0
M  V30 4737 H 448.795 -0.696515 0.142785 0
M  V30 4738 H 451.397 -1.65929 1.03382 0
M  V30 4739 H 450.101 -3.79395 1.56484 0
M  V30 4740 H 449.632 -3.93162 -0.136882 0
M  V30 4741 H 451.647 -4.8623 -0.989695 0
M  V30 4742 N 450.82 -0.546701 -1.47814 0
M  V30 4743 C 452.236 -0.205717 -1.58269 0
M  V30 4744 C 452.436 1.29153 -1.54667 0
M  V30 4745 O 451.492 2.07098 -1.44453 0
M  V30 4746 C 452.805 -0.823065 -2.89216 0
M  V30 4747 C 454.353 -0.793328 -3.02779 0
M  V30 4748 C 454.828 -1.38955 -4.36412 0
M  V30 4749 N 456.319 -1.35227 -4.43021 0
M  V30 4750 C 457.054 -1.78333 -5.44963 0
M  V30 4751 N 456.55 -2.29246 -6.53772 0
M  V30 4752 N 458.343 -1.69467 -5.35945 0
M  V30 4753 H 450.494 -1.5196 -1.48398 0
M  V30 4754 H 452.757 -0.633078 -0.705632 0
M  V30 4755 H 452.463 -1.8749 -2.97558 0
M  V30 4756 H 452.337 -0.309915 -3.75925 0
M  V30 4757 H 454.724 0.249784 -2.94041 0
M  V30 4758 H 454.805 -1.34412 -2.17639 0
M  V30 4759 H 454.449 -2.43168 -4.45906 0
M  V30 4760 H 454.379 -0.814291 -5.20266 0
M  V30 4761 H 456.87 -0.979739 -3.64979 0
M  V30 4762 H 457.183 -2.60089 -7.27718 0
M  V30 4763 H 455.528 -2.3325 -6.5469 0
M  V30 4764 H 458.719 -1.29477 -4.49837 0
M  V30 4765 H 458.892 -2.03381 -6.15256 0
M  V30 4766 N 452.299 1.55045 -0.282633 0
M  V30 4767 C 453.545 2.0078 0.325436 0
M  V30 4768 C 453.9 1.1676 1.52921 0
M  V30 4769 O 453.193 0.231475 1.90197 0
M  V30 4770 C 453.387 3.49422 0.750938 0
M  V30 4771 C 453.216 4.47827 -0.410056 0
M  V30 4772 C 451.986 4.97288 -0.896239 0
M  V30 4773 C 454.184 4.98903 -1.24902 0
M  V30 4774 N 452.166 5.79508 -2.02591 0
M  V30 4775 C 453.537 5.78644 -2.22646 0
M  V30 4776 C 455.592 4.81126 -1.2815 0
M  V30 4777 C 454.295 6.42502 -3.23393 0
M  V30 4778 C 456.321 5.45789 -2.27745 0
M  V30 4779 C 455.683 6.25348 -3.24222 0
M  V30 4780 H 451.782 0.77747 0.08405 0
M  V30 4781 H 454.366 1.90369 -0.408368 0
M  V30 4782 H 452.537 3.60159 1.45395 0
M  V30 4783 H 454.269 3.81978 1.33698 0
M  V30 4784 H 451.024 4.71219 -0.474277 0
M  V30 4785 H 451.448 6.25308 -2.59459 0
M  V30 4786 H 456.09 4.19215 -0.549397 0
M  V30 4787 H 453.808 7.03558 -3.97533 0
M  V30 4788 H 457.394 5.33972 -2.31009 0
M  V30 4789 H 456.274 6.74498 -4.00027 0
M  V30 4790 N 453.777 0.010035 1.57597 0
M  V30 4791 C 455.025 -0.671371 1.90623 0
M  V30 4792 C 455.346 -1.73753 0.885151 0
M  V30 4793 O 454.616 -1.95752 -0.0760611 0
M  V30 4794 H 453.196 -0.250968 0.703579 0
M  V30 4795 H 455.858 0.0533325 1.94827 0
M  V30 4796 H 454.954 -1.13626 2.90681 0
M  V30 4797 N 455.255 -1.55392 -0.262866 0
M  V30 4798 C 456.485 -1.80251 -1.00961 0
M  V30 4799 C 456.893 -0.58117 -1.80053 0
M  V30 4800 O 456.236 0.459427 -1.77862 0
M  V30 4801 C 456.298 -2.98207 -2.00781 0
M  V30 4802 C 455.962 -4.34856 -1.40533 0
M  V30 4803 C 456.959 -5.13459 -0.815853 0
M  V30 4804 C 454.644 -4.8153 -1.42948 0
M  V30 4805 C 456.638 -6.36875 -0.258562 0
M  V30 4806 C 454.325 -6.04899 -0.868334 0
M  V30 4807 C 455.323 -6.8241 -0.283884 0
M  V30 4808 O 455.011 -8.03451 0.268644 0
M  V30 4809 H 454.743 -0.604049 -0.303482 0
M  V30 4810 H 457.297 -2.03257 -0.295926 0
M  V30 4811 H 455.527 -2.70917 -2.75936 0
M  V30 4812 H 457.216 -3.10299 -2.61667 0
M  V30 4813 H 457.982 -4.78526 -0.789812 0
M  V30 4814 H 453.861 -4.21201 -1.87378 0
M  V30 4815 H 457.405 -6.97318 0.198257 0
M  V30 4816 H 453.302 -6.39312 -0.891649 0
M  V30 4817 H 454.07 -8.18346 0.158974 0
M  V30 4818 N 456.733 0.527833 -1.48498 0
M  V30 4819 C 457.958 1.313 -1.60546 0
M  V30 4820 C 458.383 1.86199 -0.26672 0
M  V30 4821 O 457.741 1.64513 0.761918 0
M  V30 4822 C 457.789 2.43818 -2.65678 0
M  V30 4823 O 456.893 3.46916 -2.22987 0
M  V30 4824 H 456.234 0.388784 -0.538277 0
M  V30 4825 H 458.764 0.634896 -1.945 0
M  V30 4826 H 458.774 2.89973 -2.87018 0
M  V30 4827 H 457.449 2.03222 -3.62869 0
M  V30 4828 H 456.026 3.06864 -2.11869 0
M  V30 4829 N 458.211 1.37122 0.776871 0
M  V30 4830 C 459.436 1.354 1.57104 0
M  V30 4831 C 459.861 -0.0595562 1.88006 0
M  V30 4832 O 459.219 -1.03514 1.48844 0
M  V30 4833 C 459.267 2.19472 2.8612 0
M  V30 4834 O 458.371 1.59582 3.80273 0
M  V30 4835 H 457.712 0.462869 0.476076 0
M  V30 4836 H 460.242 1.80577 0.961932 0
M  V30 4837 H 460.252 2.32502 3.35271 0
M  V30 4838 H 458.927 3.22222 2.62956 0
M  V30 4839 H 457.504 1.55564 3.38902 0
M  V30 4840 N 459.689 -1.00246 1.21608 0
M  V30 4841 C 460.917 -1.77631 1.06089 0
M  V30 4842 C 461.332 -1.84746 -0.38916 0
M  V30 4843 O 460.689 -1.31068 -1.26994 0
M  V30 4844 C 460.74 -3.21415 1.65453 0
M  V30 4845 O 460.461 -3.14703 3.04785 0
M  V30 4846 C 461.962 -4.15289 1.55079 0
M  V30 4847 H 459.182 -0.558162 0.37242 0
M  V30 4848 H 461.726 -1.26093 1.60999 0
M  V30 4849 H 459.881 -3.70053 1.14629 0
M  V30 4850 H 460.295 -4.05056 3.33212 0
M  V30 4851 H 461.769 -5.13965 2.01355 0
M  V30 4852 H 462.246 -4.36279 0.505665 0
M  V30 4853 H 462.852 -3.72543 2.05163 0
M  V30 4854 N 461.167 -1.02423 -1.1978 0
M  V30 4855 C 462.13 -0.605703 -2.21052 0
M  V30 4856 C 463.13 0.328209 -1.57415 0
M  V30 4857 O 464.32 0.115853 -1.73814 0
M  V30 4858 C 461.452 0.114366 -3.40708 0
M  V30 4859 H 462.645 -1.5017 -2.59594 0
M  V30 4860 H 460.198 -0.814888 -1.33376 0
M  V30 4861 H 460.933 1.02492 -3.07678 0
M  V30 4862 H 460.718 -0.556641 -3.88129 0
M  V30 4863 H 462.208 0.394272 -4.15735 0
M  V30 4864 N 462.645 1.35699 -0.801477 0
M  V30 4865 C 463.894 1.98165 -0.375979 0
M  V30 4866 C 464.207 1.64306 1.06127 0
M  V30 4867 O 465.413 2.20097 1.58964 0
M  V30 4868 C 463.869 3.54497 -0.621305 0
M  V30 4869 C 463.477 3.9727 -2.07076 0
M  V30 4870 C 465.221 4.23697 -0.26091 0
M  V30 4871 C 463.128 5.46427 -2.26211 0
M  V30 4872 H 462.058 0.741478 -0.136844 0
M  V30 4873 H 464.709 1.54834 -0.984814 0
M  V30 4874 H 463.091 3.95958 0.0574112 0
M  V30 4875 H 464.265 3.66974 -2.78687 0
M  V30 4876 H 462.58 3.40943 -2.39054 0
M  V30 4877 H 465.177 5.33334 -0.381994 0
M  V30 4878 H 465.52 4.0869 0.792344 0
M  V30 4879 H 466.053 3.87639 -0.893339 0
M  V30 4880 H 462.792 5.66396 -3.29963 0
M  V30 4881 H 462.312 5.78309 -1.59119 0
M  V30 4882 H 463.991 6.12819 -2.07513 0
M  V30 4883 N 464.123 0.554532 1.47522 0
M  V30 4884 C 465.351 0.034257 2.06872 0
M  V30 4885 C 465.766 -1.25826 1.40759 0
M  V30 4886 O 465.123 -1.75425 0.503217 0
M  V30 4887 C 465.174 -0.167827 3.6111 0
M  V30 4888 O 464.895 1.07351 4.24744 0
M  V30 4889 C 466.396 -0.72569 4.3732 0
M  V30 4890 H 463.616 0.0446275 0.669514 0
M  V30 4891 H 466.16 0.767181 1.89564 0
M  V30 4892 H 464.315 -0.850872 3.7794 0
M  V30 4893 H 464.729 0.869563 5.17242 0
M  V30 4894 H 466.203 -0.816394 5.45929 0
M  V30 4895 H 466.68 -1.73635 4.0342 0
M  V30 4896 H 467.286 -0.0784292 4.25228 0
M  V30 4897 N 465.601 -1.54893 0.290851 0
M  V30 4898 C 467.017 -1.59476 -0.0628432 0
M  V30 4899 C 467.217 -1.30795 -1.5328 0
M  V30 4900 O 466.273 -1.07644 -2.28406 0
M  V30 4901 C 467.586 -2.98928 0.325962 0
M  V30 4902 C 469.134 -3.11799 0.273882 0
M  V30 4903 C 469.609 -4.53544 0.637359 0
M  V30 4904 N 471.1 -4.59433 0.589507 0
M  V30 4905 C 471.835 -5.67164 0.84335 0
M  V30 4906 N 471.331 -6.82975 1.16263 0
M  V30 4907 N 473.124 -5.56786 0.771091 0
M  V30 4908 H 465.275 -1.71798 1.24896 0
M  V30 4909 H 467.538 -0.801879 0.505663 0
M  V30 4910 H 467.244 -3.24805 1.34887 0
M  V30 4911 H 467.118 -3.75793 -0.325441 0
M  V30 4912 H 469.505 -2.85677 -0.739765 0
M  V30 4913 H 469.586 -2.37112 0.959766 0
M  V30 4914 H 469.23 -4.80394 1.64877 0
M  V30 4915 H 469.16 -5.26553 -0.0704866 0
M  V30 4916 H 471.651 -3.76245 0.353252 0
M  V30 4917 H 471.964 -7.61048 1.34257 0
M  V30 4918 H 470.309 -6.84552 1.20057 0
M  V30 4919 H 473.5 -4.65187 0.521383 0
M  V30 4920 H 473.673 -6.40664 0.972295 0
M  V30 4921 N 467.08 -0.0183926 -1.57589 0
M  V30 4922 C 468.012 0.995557 -2.06449 0
M  V30 4923 C 469.025 1.29556 -0.985849 0
M  V30 4924 O 470.214 1.2621 -1.26227 0
M  V30 4925 C 467.314 2.32572 -2.46502 0
M  V30 4926 C 466.487 2.21245 -3.77319 0
M  V30 4927 C 465.546 3.37104 -4.04039 0
M  V30 4928 O 464.572 3.14468 -4.74445 0
M  V30 4929 N 465.774 4.60553 -3.53372 0
M  V30 4930 H 468.539 0.578746 -2.94059 0
M  V30 4931 H 466.1 0.168603 -1.6102 0
M  V30 4932 H 468.092 3.08887 -2.61478 0
M  V30 4933 H 466.662 2.65931 -1.64315 0
M  V30 4934 H 465.882 1.29723 -3.72244 0
M  V30 4935 H 467.17 2.10868 -4.63047 0
M  V30 4936 H 466.568 4.81839 -2.96391 0
M  V30 4937 H 465.125 5.34072 -3.73644 0
M  V30 4938 N 468.558 1.5553 0.254621 0
M  V30 4939 C 469.804 1.77262 0.985193 0
M  V30 4940 C 470.137 0.582286 1.85265 0
M  V30 4941 O 469.412 -0.419666 1.89919 0
M  V30 4942 C 469.695 3.0881 1.85225 0
M  V30 4943 C 469.548 4.38233 1.0135 0
M  V30 4944 C 470.867 3.3653 2.83612 0
M  V30 4945 H 467.986 0.644906 0.356742 0
M  V30 4946 H 470.628 1.88264 0.256236 0
M  V30 4947 H 468.778 2.99562 2.47376 0
M  V30 4948 H 470.45 4.59463 0.411269 0
M  V30 4949 H 468.693 4.32636 0.317574 0
M  V30 4950 H 469.364 5.26644 1.65379 0
M  V30 4951 H 471.84 3.45691 2.31596 0
M  V30 4952 H 470.716 4.29805 3.41407 0
M  V30 4953 H 470.977 2.57064 3.59681 0
M  V30 4954 N 470.036 -0.519951 1.48776 0
M  V30 4955 C 471.282 -1.27711 1.57536 0
M  V30 4956 C 471.615 -1.92547 0.252866 0
M  V30 4957 O 470.89 -1.7979 -0.742021 0
M  V30 4958 C 471.173 -2.35875 2.72094 0
M  V30 4959 C 471.026 -1.75664 4.1408 0
M  V30 4960 C 472.345 -3.37575 2.82367 0
M  V30 4961 H 469.464 -0.462971 0.573434 0
M  V30 4962 H 472.106 -0.578194 1.80989 0
M  V30 4963 H 470.256 -2.95488 2.52228 0
M  V30 4964 H 471.928 -1.20025 4.45412 0
M  V30 4965 H 470.171 -1.06154 4.20611 0
M  V30 4966 H 470.842 -2.54029 4.90075 0
M  V30 4967 H 473.318 -2.87929 3.00393 0
M  V30 4968 H 472.194 -4.1064 3.64233 0
M  V30 4969 H 472.455 -3.98743 1.90936 0
M  V30 4970 N 471.514 -1.37532 -0.769588 0
M  V30 4971 C 472.424 -1.35668 -1.91393 0
M  V30 4972 C 473.44 -0.255954 -1.72107 0
M  V30 4973 O 474.616 -0.491704 -1.95305 0
M  V30 4974 C 471.681 -1.16481 -3.26547 0
M  V30 4975 C 470.742 -2.36212 -3.58472 0
M  V30 4976 C 469.975 -2.17932 -4.87177 0
M  V30 4977 O 470.198 -1.1647 -5.58382 0
M  V30 4978 O 469.132 -3.06167 -5.18214 0
M  V30 4979 H 472.958 -2.32055 -1.95918 0
M  V30 4980 H 470.543 -1.18284 -0.912641 0
M  V30 4981 H 472.425 -1.07778 -4.07384 0
M  V30 4982 H 471.1 -0.231687 -3.2287 0
M  V30 4983 H 470.007 -2.50488 -2.77861 0
M  V30 4984 H 471.34 -3.281 -3.66894 0
M  V30 4985 N 472.992 0.995999 -1.22138 0
M  V30 4986 C 473.94 2.10673 -0.985876 0
M  V30 4987 C 474.934 1.69255 0.0699553 0
M  V30 4988 O 476.14 1.79812 -0.0822176 0
M  V30 4989 H 472.515 0.688865 -0.30161 0
M  V30 4990 H 474.486 2.27711 -1.92848 0
M  V30 4991 C 473.235 3.42881 -0.576909 0
M  V30 4992 H 472.558 3.75191 -1.38101 0
M  V30 4993 H 473.998 4.21589 -0.451518 0
M  V30 4994 C 472.457 3.29265 0.713196 0
M  V30 4995 O 472.987 3.60777 1.76643 0
M  V30 4996 N 471.193 2.82456 0.683162 0
M  V30 4997 H 470.74 2.5701 -0.174242 0
M  V30 4998 H 470.698 2.73727 1.54663 0
M  V30 4999 N 474.47 1.03057 1.19235 0
M  V30 5000 C 475.403 0.557384 2.21288 0
M  V30 5001 C 476.381 -0.402675 1.57535 0
M  V30 5002 O 477.565 -0.319376 1.85775 0
M  V30 5003 C 474.692 -0.187041 3.38183 0
M  V30 5004 C 473.738 0.72471 4.20298 0
M  V30 5005 S 474.571 2.20187 4.88137 0
M  V30 5006 C 475.727 1.46801 6.08441 0
M  V30 5007 H 475.96 1.42207 2.61083 0
M  V30 5008 H 473.493 0.840651 1.29508 0
M  V30 5009 H 475.451 -0.610405 4.05936 0
M  V30 5010 H 474.112 -1.02748 2.96819 0
M  V30 5011 H 473.305 0.149911 5.03777 0
M  V30 5012 H 472.907 1.08647 3.57871 0
M  V30 5013 H 475.199 0.755522 6.73274 0
M  V30 5014 H 476.142 2.27946 6.70407 0
M  V30 5015 H 476.55 0.964762 5.56195 0
M  V30 5016 N 475.948 -1.35272 0.808662 0
M  V30 5017 C 477.176 -2.02946 0.402537 0
M  V30 5018 C 477.591 -1.60937 -0.987147 0
M  V30 5019 O 476.948 -0.807917 -1.63643 0
M  V30 5020 C 476.999 -3.58317 0.47868 0
M  V30 5021 O 476.72 -3.98799 1.81358 0
M  V30 5022 C 478.221 -4.43251 0.0656281 0
M  V30 5023 H 475.441 -0.650831 0.163279 0
M  V30 5024 H 477.985 -1.72849 1.09286 0
M  V30 5025 H 476.14 -3.87055 -0.163415 0
M  V30 5026 H 476.554 -4.93451 1.77781 0
M  V30 5027 H 478.028 -5.51738 0.170017 0
M  V30 5028 H 478.505 -4.27913 -0.989278 0
M  V30 5029 H 479.111 -4.19813 0.68096 0
M  V30 5030 N 477.426 -0.562348 -1.47226 0
M  V30 5031 C 478.842 -0.222492 -1.58042 0
M  V30 5032 C 479.042 1.27505 -1.56028 0
M  V30 5033 O 478.098 2.05555 -1.46641 0
M  V30 5034 C 479.411 -0.853694 -2.88327 0
M  V30 5035 C 480.959 -0.825397 -3.01921 0
M  V30 5036 C 481.434 -1.43576 -4.34914 0
M  V30 5037 N 482.925 -1.39918 -4.41562 0
M  V30 5038 C 483.66 -1.84103 -5.43041 0
M  V30 5039 N 483.156 -2.36167 -6.51304 0
M  V30 5040 N 484.949 -1.75142 -5.34118 0
M  V30 5041 H 477.1 -1.53525 -1.46778 0
M  V30 5042 H 479.363 -0.640527 -0.698877 0
M  V30 5043 H 479.069 -1.90635 -2.95552 0
M  V30 5044 H 478.943 -0.34977 -3.75575 0
M  V30 5045 H 481.33 0.218583 -2.94289 0
M  V30 5046 H 481.411 -1.36713 -2.16202 0
M  V30 5047 H 481.055 -2.47884 -4.43301 0
M  V30 5048 H 480.985 -0.869427 -5.19373 0
M  V30 5049 H 483.476 -1.0184 -3.63919 0
M  V30 5050 H 483.789 -2.67793 -7.24919 0
M  V30 5051 H 482.134 -2.40181 -6.52179 0
M  V30 5052 H 485.325 -1.34241 -4.48439 0
M  V30 5053 H 485.498 -2.09895 -6.13065 0
M  V30 5054 N 478.904 1.54736 -0.299062 0
M  V30 5055 C 479.867 2.22127 0.565012 0
M  V30 5056 C 480.867 1.20669 1.06281 0
M  V30 5057 O 482.057 1.45417 0.959145 0
M  V30 5058 C 479.189 2.90611 1.78208 0
M  V30 5059 H 480.382 2.99891 -0.0237448 0
M  V30 5060 H 477.935 1.5622 -0.0498788 0
M  V30 5061 H 478.67 2.16921 2.41072 0
M  V30 5062 H 478.455 3.64984 1.43281 0
M  V30 5063 H 479.945 3.42026 2.396 0
M  V30 5064 N 480.382 0.0267497 1.57577 0
M  V30 5065 C 481.332 -0.965003 2.06571 0
M  V30 5066 C 482.316 -1.28694 0.965746 0
M  V30 5067 O 483.508 -1.27345 1.22932 0
M  V30 5068 C 480.637 -2.24821 2.59443 0
M  V30 5069 C 479.723 -1.95474 3.76365 0
M  V30 5070 N 480.114 -1.36387 4.87065 0
M  V30 5071 C 478.412 -2.25478 3.84806 0
M  V30 5072 C 479.113 -1.24119 5.68304 0
M  V30 5073 N 478.089 -1.7359 5.15138 0
M  V30 5074 H 481.891 -0.503095 2.89562 0
M  V30 5075 H 479.405 -0.178322 1.61418 0
M  V30 5076 H 481.402 -2.9674 2.92833 0
M  V30 5077 H 480.062 -2.7164 1.77881 0
M  V30 5078 H 481.073 -1.03919 5.07367 0
M  V30 5079 H 477.75 -2.74987 3.14147 0
M  V30 5080 H 479.14 -0.784504 6.67304 0
M  V30 5081 N 481.861 -1.55662 -0.24637 0
M  V30 5082 C 483.108 -1.77519 -0.974335 0
M  V30 5083 C 483.436 -0.591165 -1.85298 0
M  V30 5084 O 482.691 0.425497 -1.91018 0
M  V30 5085 C 482.99 -3.04885 -1.86494 0
M  V30 5086 C 482.656 -4.36209 -1.14161 0
M  V30 5087 C 481.318 -4.71896 -0.941701 0
M  V30 5088 C 483.67 -5.17391 -0.628957 0
M  V30 5089 C 480.998 -5.86299 -0.216852 0
M  V30 5090 C 483.35 -6.32546 0.0824273 0
M  V30 5091 C 482.014 -6.66853 0.293807 0
M  V30 5092 H 481.284 -0.649588 -0.356535 0
M  V30 5093 H 483.931 -1.89934 -0.244394 0
M  V30 5094 H 482.236 -2.87484 -2.66196 0
M  V30 5095 H 483.933 -3.18994 -2.42989 0
M  V30 5096 H 480.523 -4.08174 -1.30736 0
M  V30 5097 H 484.707 -4.90276 -0.770943 0
M  V30 5098 H 479.963 -6.11385 -0.0426124 0
M  V30 5099 H 484.137 -6.94693 0.487292 0
M  V30 5100 H 481.764 -7.55349 0.857428 0
M  V30 5101 N 483.339 0.512053 -1.4905 0
M  V30 5102 C 484.75 1.09376 -1.51307 0
M  V30 5103 C 485.101 1.94 -0.292971 0
M  V30 5104 O 484.226 2.07965 0.598277 0
M  V30 5105 C 484.821 1.99031 -2.74176 0
M  V30 5106 C 483.38 2.52385 -2.79247 0
M  V30 5107 C 482.527 1.29749 -2.45073 0
M  V30 5108 H 485.478 0.296467 -1.55906 0
M  V30 5109 H 485.499 2.83569 -2.53711 0
M  V30 5110 H 485.011 1.37412 -3.62959 0
M  V30 5111 H 483.112 3.17673 -1.94716 0
M  V30 5112 H 483.225 2.90293 -3.81139 0
M  V30 5113 H 481.589 1.61912 -1.96612 0
M  V30 5114 H 482.372 0.698555 -3.36118 0
M  V30 5115 N 484.817 1.37938 0.762283 0
M  V30 5116 C 485.747 1.37176 1.88958 0
M  V30 5117 C 486.728 0.238945 1.68413 0
M  V30 5118 O 487.913 0.440726 1.89133 0
M  V30 5119 C 485.043 1.18742 3.2637 0
M  V30 5120 C 483.997 2.29136 3.61498 0
M  V30 5121 C 483.323 1.95816 4.97554 0
M  V30 5122 C 484.623 3.71363 3.6727 0
M  V30 5123 H 486.317 2.31509 1.89853 0
M  V30 5124 H 483.863 1.11438 0.912005 0
M  V30 5125 H 485.816 1.16837 4.04879 0
M  V30 5126 H 484.54 0.208683 3.25933 0
M  V30 5127 H 483.199 2.30213 2.85303 0
M  V30 5128 H 482.847 0.964475 4.93667 0
M  V30 5129 H 482.547 2.69745 5.22026 0
M  V30 5130 H 484.071 1.95513 5.78452 0
M  V30 5131 H 485.485 3.72364 4.35911 0
M  V30 5132 H 483.882 4.44425 4.03245 0
M  V30 5133 H 484.952 4.04305 2.67704 0
M  V30 5134 N 486.295 -0.989507 1.22664 0
M  V30 5135 C 487.572 -1.70326 0.961688 0
M  V30 5136 C 487.952 -2.04537 -0.522279 0
M  V30 5137 O 487.3 -1.73136 -1.49118 0
M  V30 5138 C 487.51 -2.95135 1.86269 0
M  V30 5139 C 488.858 -3.67842 2.12078 0
M  V30 5140 O 489.882 -3.0515 1.83745 0
M  V30 5141 O 488.741 -4.80644 2.60083 0
M  V30 5142 H 485.835 -0.743589 0.361946 0
M  V30 5143 H 488.381 -1.04555 1.33665 0
M  V30 5144 H 487.153 -2.66382 2.8663 0
M  V30 5145 H 486.776 -3.68645 1.48952 0
M  V30 5146 N 487.773 -1.03688 -1.18687 0
M  V30 5147 C 489.019 -0.739123 -1.88851 0
M  V30 5148 C 489.352 0.731042 -1.79915 0
M  V30 5149 O 488.627 1.53313 -1.19688 0
M  V30 5150 C 488.91 -1.20106 -3.3948 0
M  V30 5151 C 488.763 -2.73304 -3.57246 0
M  V30 5152 C 490.082 -0.788134 -4.32986 0
M  V30 5153 H 487.201 -0.269978 -0.68577 0
M  V30 5154 H 489.843 -1.28822 -1.3966 0
M  V30 5155 H 487.993 -0.733915 -3.81505 0
M  V30 5156 H 489.665 -3.28027 -3.24339 0
M  V30 5157 H 487.908 -3.13313 -3.00029 0
M  V30 5158 H 488.579 -3.00684 -4.62918 0
M  V30 5159 H 491.055 -1.19005 -3.98719 0
M  V30 5160 H 489.931 -1.13915 -5.36949 0
M  V30 5161 H 490.192 0.308988 -4.41019 0
M  V30 5162 N 489.251 1.34841 -0.815825 0
M  V30 5163 C 490.183 2.28409 -0.190265 0
M  V30 5164 C 491.196 1.50705 0.615771 0
M  V30 5165 O 492.385 1.72822 0.446616 0
M  V30 5166 C 489.485 3.30441 0.752446 0
M  V30 5167 C 488.658 4.37399 -0.00922152 0
M  V30 5168 C 487.717 5.19234 0.853351 0
M  V30 5169 O 486.743 5.68404 0.300919 0
M  V30 5170 N 487.945 5.38248 2.17416 0
M  V30 5171 H 490.71 2.82732 -0.994114 0
M  V30 5172 H 488.271 1.47289 -0.672129 0
M  V30 5173 H 490.263 3.82084 1.33394 0
M  V30 5174 H 488.833 2.76565 1.45707 0
M  V30 5175 H 488.053 3.86567 -0.771979 0
M  V30 5176 H 489.341 5.05992 -0.533807 0
M  V30 5177 H 488.739 4.99961 2.6468 0
M  V30 5178 H 487.296 5.93035 2.70467 0
M  V30 5179 N 490.729 0.570148 1.46925 0
M  V30 5180 C 491.975 0.0593124 2.03314 0
M  V30 5181 C 492.33 -1.28139 1.43521 0
M  V30 5182 O 491.623 -1.82411 0.586245 0
M  V30 5183 C 491.817 -0.0780336 3.57315 0
M  V30 5184 C 491.646 1.2478 4.32042 0
M  V30 5185 C 490.416 1.81859 4.7144 0
M  V30 5186 C 492.614 2.16808 4.66368 0
M  V30 5187 N 490.596 3.08313 5.30864 0
M  V30 5188 C 491.967 3.27845 5.2623 0
M  V30 5189 C 494.022 2.16643 4.48297 0
M  V30 5190 C 492.725 4.38832 5.69929 0
M  V30 5191 C 494.751 3.26652 4.93004 0
M  V30 5192 C 494.113 4.36408 5.52926 0
M  V30 5193 H 490.212 0.0641804 0.779362 0
M  V30 5194 H 492.796 0.760285 1.79242 0
M  V30 5195 H 490.967 -0.748151 3.81126 0
M  V30 5196 H 492.699 -0.59211 4.00345 0
M  V30 5197 H 489.454 1.35502 4.53802 0
M  V30 5198 H 489.878 3.72802 5.65108 0
M  V30 5199 H 494.52 1.33065 4.01315 0
M  V30 5200 H 492.238 5.23162 6.15896 0
M  V30 5201 H 495.824 3.27627 4.80782 0
M  V30 5202 H 494.704 5.20127 5.86888 0
M  V30 5203 N 492.207 -1.54576 0.307264 0
M  V30 5204 C 493.155 -2.25208 -0.581723 0
M  V30 5205 C 494.149 -1.26031 -1.13192 0
M  V30 5206 O 495.355 -1.43862 -1.08184 0
M  V30 5207 H 491.73 -0.723173 -0.206214 0
M  V30 5208 H 493.701 -2.98378 0.0364663 0
M  V30 5209 C 492.45 -3.01086 -1.73904 0
M  V30 5210 H 491.773 -3.77208 -1.32491 0
M  V30 5211 H 493.213 -3.5378 -2.33701 0
M  V30 5212 C 491.672 -2.08422 -2.64692 0
M  V30 5213 O 492.202 -1.65636 -3.65961 0
M  V30 5214 N 490.408 -1.74247 -2.32564 0
M  V30 5215 H 489.955 -2.09238 -1.50257 0
M  V30 5216 H 489.913 -1.12524 -2.93574 0
M  V30 5217 N 493.685 -0.035106 -1.57561 0
M  V30 5218 C 494.962 0.681212 -1.83354 0
M  V30 5219 C 495.342 1.89986 -0.920252 0
M  V30 5220 O 494.69 2.28489 0.0226815 0
M  V30 5221 C 494.9 1.05376 -3.32712 0
M  V30 5222 C 496.248 1.44286 -3.99333 0
M  V30 5223 O 497.272 1.14656 -3.37242 0
M  V30 5224 O 496.131 1.99518 -5.08778 0
M  V30 5225 H 493.225 0.334741 -0.756226 0
M  V30 5226 H 495.771 -0.0632448 -1.69582 0
M  V30 5227 H 494.543 0.186668 -3.90854 0
M  V30 5228 H 494.166 1.85619 -3.51613 0
M  V30 5229 N 495.163 1.55791 0.238111 0
M  V30 5230 C 496.093 1.94068 1.29846 0
M  V30 5231 C 497.074 0.806726 1.49753 0
M  V30 5232 O 498.259 1.06772 1.62214 0
M  V30 5233 C 495.389 2.24302 2.65153 0
M  V30 5234 C 494.343 3.40032 2.59927 0
M  V30 5235 C 493.669 3.55829 3.99111 0
M  V30 5236 C 494.969 4.75476 2.16148 0
M  V30 5237 H 496.663 2.82887 0.980563 0
M  V30 5238 H 494.209 1.36105 0.470253 0
M  V30 5239 H 496.162 2.4967 3.39475 0
M  V30 5240 H 494.886 1.32318 2.98596 0
M  V30 5241 H 493.545 3.14687 1.88063 0
M  V30 5242 H 493.193 2.6125 4.29834 0
M  V30 5243 H 492.893 4.3366 3.96501 0
M  V30 5244 H 494.417 3.83528 4.7512 0
M  V30 5245 H 495.831 5.00158 2.80205 0
M  V30 5246 H 494.228 5.56472 2.24631 0
M  V30 5247 H 495.298 4.71946 1.11333 0
M  V30 5248 N 496.642 -0.504142 1.49319 0
M  V30 5249 C 497.919 -1.26548 1.49147 0
M  V30 5250 C 498.299 -2.09977 0.21744 0
M  V30 5251 O 497.647 -2.14028 -0.800269 0
M  V30 5252 C 497.857 -2.12489 2.76857 0
M  V30 5253 C 499.205 -2.7178 3.26222 0
M  V30 5254 O 500.229 -2.22758 2.77952 0
M  V30 5255 O 499.088 -3.61015 4.10281 0
M  V30 5256 H 496.182 -0.572495 0.596806 0
M  V30 5257 H 498.728 -0.51867 1.61579 0
M  V30 5258 H 497.5 -1.50796 3.61077 0
M  V30 5259 H 497.123 -2.94368 2.6727 0
M  V30 5260 N 498.12 -1.38341 -0.754957 0
M  V30 5261 C 499.35 -1.37504 -1.54195 0
M  V30 5262 C 499.758 0.0373787 -1.89163 0
M  V30 5263 O 499.101 1.01402 -1.53178 0
M  V30 5264 C 499.163 -2.16488 -2.87008 0
M  V30 5265 C 498.827 -3.65311 -2.74585 0
M  V30 5266 C 499.824 -4.58834 -2.44474 0
M  V30 5267 C 497.509 -4.08649 -2.9208 0
M  V30 5268 C 499.503 -5.93675 -2.32011 0
M  V30 5269 C 497.19 -5.43571 -2.79237 0
M  V30 5270 C 498.188 -6.35898 -2.49245 0
M  V30 5271 O 497.876 -7.68338 -2.36458 0
M  V30 5272 H 497.608 -0.472159 -0.483779 0
M  V30 5273 H 500.162 -1.82515 -0.94221 0
M  V30 5274 H 498.392 -1.66194 -3.49166 0
M  V30 5275 H 500.081 -2.08076 -3.4851 0
M  V30 5276 H 500.847 -4.26657 -2.30627 0
M  V30 5277 H 496.726 -3.37134 -3.14422 0
M  V30 5278 H 500.27 -6.65706 -2.08522 0
M  V30 5279 H 496.167 -5.75345 -2.92657 0
M  V30 5280 H 496.935 -7.78845 -2.5168 0
M  V30 5281 N 499.598 0.982988 -1.23187 0
M  V30 5282 C 500.531 2.07302 -0.953993 0
M  V30 5283 C 501.509 1.62249 0.106753 0
M  V30 5284 O 502.693 1.88481 -0.0269525 0
M  V30 5285 C 499.82 3.35873 -0.436716 0
M  V30 5286 C 498.866 3.99862 -1.48367 0
M  V30 5287 S 499.699 4.39443 -3.06023 0
M  V30 5288 C 500.855 5.7117 -2.55959 0
M  V30 5289 H 501.088 2.30554 -1.87702 0
M  V30 5290 H 498.621 1.11883 -1.06403 0
M  V30 5291 H 500.579 4.10244 -0.144872 0
M  V30 5292 H 499.24 3.10634 0.465351 0
M  V30 5293 H 498.433 4.92471 -1.07182 0
M  V30 5294 H 498.035 3.31857 -1.72473 0
M  V30 5295 H 500.327 6.47977 -1.97818 0
M  V30 5296 H 501.27 6.17194 -3.47098 0
M  V30 5297 H 501.678 5.29046 -1.96902 0
M  V30 5298 N 501.076 1.04316 1.18135 0
M  V30 5299 C 502.353 0.662166 1.84051 0
M  V30 5300 C 502.733 -0.858169 1.9287 0
M  V30 5301 O 502.081 -1.76062 1.45652 0
M  V30 5302 C 502.291 1.3409 3.22212 0
M  V30 5303 C 503.639 1.4733 3.9822 0
M  V30 5304 O 504.663 1.29921 3.31661 0
M  V30 5305 O 503.522 1.75722 5.17479 0
M  V30 5306 H 500.616 0.232005 0.79379 0
M  V30 5307 H 503.162 1.1422 1.25506 0
M  V30 5308 H 501.934 2.37853 3.10711 0
M  V30 5309 H 501.557 0.849649 3.88416 0
M  V30 5310 N 502.554 -1.34406 0.822964 0
M  V30 5311 C 503.779 -2.0304 0.423034 0
M  V30 5312 C 504.204 -1.61568 -0.963196 0
M  V30 5313 O 503.562 -0.800339 -1.62678 0
M  V30 5314 C 503.61 -3.56636 0.53321 0
M  V30 5315 O 502.714 -4.09971 -0.446939 0
M  V30 5316 H 502.055 -0.64075 0.174171 0
M  V30 5317 H 504.585 -1.71653 1.11339 0
M  V30 5318 H 504.595 -4.05945 0.408991 0
M  V30 5319 H 503.27 -3.86168 1.54425 0
M  V30 5320 H 501.847 -3.71835 -0.281601 0
M  V30 5321 N 504.032 -0.577932 -1.46621 0
M  V30 5322 C 505.448 -0.239242 -1.57797 0
M  V30 5323 C 505.648 1.25843 -1.57371 0
M  V30 5324 O 504.704 2.03988 -1.48813 0
M  V30 5325 C 506.017 -0.884227 -2.87405 0
M  V30 5326 C 507.565 -0.857373 -3.01028 0
M  V30 5327 C 508.04 -1.48181 -4.33366 0
M  V30 5328 N 509.531 -1.44593 -4.40053 0
M  V30 5329 C 510.266 -1.89852 -5.41058 0
M  V30 5330 N 509.762 -2.43062 -6.48762 0
M  V30 5331 N 511.555 -1.80797 -5.3223 0
M  V30 5332 H 503.706 -1.55073 -1.45142 0
M  V30 5333 H 505.969 -0.647903 -0.692044 0
M  V30 5334 H 505.675 -1.93759 -2.93514 0
M  V30 5335 H 505.549 -0.389585 -3.75183 0
M  V30 5336 H 507.936 0.187357 -2.94505 0
M  V30 5337 H 508.017 -1.38999 -2.14739 0
M  V30 5338 H 507.661 -2.52572 -4.40647 0
M  V30 5339 H 507.591 -0.924464 -5.18422 0
M  V30 5340 H 510.082 -1.05694 -3.62819 0
M  V30 5341 H 510.395 -2.75466 -7.22038 0
M  V30 5342 H 508.74 -2.47085 -6.49595 0
M  V30 5343 H 511.931 -1.38989 -4.46989 0
M  V30 5344 H 512.104 -2.16385 -6.10804 0
M  V30 5345 N 505.51 1.54411 -0.315457 0
M  V30 5346 C 506.926 1.59556 0.037464 0
M  V30 5347 C 507.126 1.33217 1.5118 0
M  V30 5348 O 506.182 1.11264 2.26664 0
M  V30 5349 C 507.495 2.98372 -0.373477 0
M  V30 5350 C 509.043 3.11324 -0.323452 0
M  V30 5351 C 509.518 4.52472 -0.709433 0
M  V30 5352 N 511.009 4.58437 -0.662524 0
M  V30 5353 C 511.744 5.65751 -0.933474 0
M  V30 5354 N 511.24 6.81039 -1.27114 0
M  V30 5355 N 513.033 5.55489 -0.859573 0
M  V30 5356 H 505.184 1.6979 -1.27614 0
M  V30 5357 H 507.447 0.793732 -0.518356 0
M  V30 5358 H 507.153 3.22618 -1.40037 0
M  V30 5359 H 507.027 3.76264 0.265615 0
M  V30 5360 H 509.414 2.86818 0.694223 0
M  V30 5361 H 509.495 2.35555 -0.997367 0
M  V30 5362 H 509.139 4.7771 -1.72498 0
M  V30 5363 H 509.069 5.26598 -0.0132923 0
M  V30 5364 H 511.56 3.75636 -0.413065 0
M  V30 5365 H 511.873 7.58816 -1.46348 0
M  V30 5366 H 510.218 6.82555 -1.30932 0
M  V30 5367 H 513.409 4.64299 -0.595324 0
M  V30 5368 H 513.582 6.39036 -1.0741 0
M  V30 5369 N 506.988 0.0434614 1.5754 0
M  V30 5370 C 508.265 -0.671479 1.83713 0
M  V30 5371 C 508.645 -1.89495 0.930315 0
M  V30 5372 O 507.993 -2.28498 -0.0105639 0
M  V30 5373 C 508.203 -1.0361 3.33266 0
M  V30 5374 C 509.551 -1.42167 4.00092 0
M  V30 5375 O 510.575 -1.12866 3.37846 0
M  V30 5376 O 509.434 -1.96817 5.09829 0
M  V30 5377 H 506.528 -0.330726 0.75799 0
M  V30 5378 H 509.074 0.0722373 1.69546 0
M  V30 5379 H 507.846 -0.165938 3.90948 0
M  V30 5380 H 507.469 -1.83751 3.52592 0
M  V30 5381 N 508.466 -1.55915 -0.229846 0
M  V30 5382 C 509.713 -1.78542 -0.955452 0
M  V30 5383 C 510.041 -0.610785 -1.84661 0
M  V30 5384 O 509.296 0.405213 -1.91459 0
M  V30 5385 C 509.595 -3.06845 -1.8325 0
M  V30 5386 C 509.261 -4.37395 -1.09528 0
M  V30 5387 C 507.923 -4.72868 -0.891598 0
M  V30 5388 C 510.275 -5.18029 -0.574046 0
M  V30 5389 C 507.603 -5.86496 -0.154655 0
M  V30 5390 C 509.955 -6.32423 0.149513 0
M  V30 5391 C 508.619 -6.66504 0.364519 0
M  V30 5392 H 507.889 -0.653333 -0.349625 0
M  V30 5393 H 510.536 -1.90183 -0.224235 0
M  V30 5394 H 508.841 -2.90291 -2.63132 0
M  V30 5395 H 510.538 -3.21553 -2.39592 0
M  V30 5396 H 507.128 -4.09538 -1.26399 0
M  V30 5397 H 511.312 -4.91066 -0.718899 0
M  V30 5398 H 506.568 -6.11396 0.0222356 0
M  V30 5399 H 510.742 -6.94137 0.560947 0
M  V30 5400 H 508.369 -7.54397 0.937495 0
M  V30 5401 N 509.944 0.496216 -1.49584 0
M  V30 5402 C 511.172 1.27394 -1.63029 0
M  V30 5403 C 511.587 1.86344 -0.303569 0
M  V30 5404 O 510.944 1.68057 0.711547 0
M  V30 5405 C 510.995 2.40077 -2.70269 0
M  V30 5406 O 510.716 1.83549 -3.97796 0
M  V30 5407 C 512.217 3.31372 -2.94462 0
M  V30 5408 H 509.437 0.386211 -0.54871 0
M  V30 5409 H 511.981 0.595163 -1.95648 0
M  V30 5410 H 510.136 3.03775 -2.40415 0
M  V30 5411 H 510.55 2.57561 -4.56905 0
M  V30 5412 H 512.024 4.06707 -3.73221 0
M  V30 5413 H 512.501 3.88654 -2.0456 0
M  V30 5414 H 513.107 2.73435 -3.25751 0
M  V30 5415 N 511.423 1.38739 0.74761 0
M  V30 5416 C 512.67 1.35274 1.50689 0
M  V30 5417 C 512.998 -0.0553359 1.94421 0
M  V30 5418 O 512.253 -1.03365 1.66175 0
M  V30 5419 C 512.552 2.25992 2.7688 0
M  V30 5420 C 512.218 3.73854 2.5208 0
M  V30 5421 C 510.88 4.14145 2.45025 0
M  V30 5422 C 513.232 4.67427 2.30568 0
M  V30 5423 C 510.56 5.4609 2.14483 0
M  V30 5424 C 512.912 5.99635 2.01545 0
M  V30 5425 C 511.576 6.39004 1.92951 0
M  V30 5426 H 510.846 0.495003 0.55141 0
M  V30 5427 H 513.493 1.71145 0.859158 0
M  V30 5428 H 511.798 1.83196 3.46333 0
M  V30 5429 H 513.495 2.20611 3.34861 0
M  V30 5430 H 510.085 3.41913 2.58444 0
M  V30 5431 H 514.269 4.3714 2.34994 0
M  V30 5432 H 509.525 5.75528 2.06342 0
M  V30 5433 H 513.699 6.71678 1.83906 0
M  V30 5434 H 511.326 7.41165 1.6905 0
M  V30 5435 N 512.901 -0.976442 1.23707 0
M  V30 5436 C 513.849 -2.09078 1.01927 0
M  V30 5437 C 514.843 -1.69345 -0.0430193 0
M  V30 5438 O 516.049 -1.79659 0.110814 0
M  V30 5439 H 512.424 -0.68398 0.312531 0
M  V30 5440 H 514.395 -2.24614 1.96447 0
M  V30 5441 C 513.144 -3.41919 0.631385 0
M  V30 5442 H 512.467 -3.72946 1.44053 0
M  V30 5443 H 513.907 -4.20817 0.518532 0
M  V30 5444 C 512.366 -3.30357 -0.660723 0
M  V30 5445 O 512.896 -3.63542 -1.70881 0
M  V30 5446 N 511.102 -2.83507 -0.638139 0
M  V30 5447 H 510.649 -2.567 0.215108 0
M  V30 5448 H 510.607 -2.76153 -1.50289 0
M  V30 5449 N 514.379 -1.04941 -1.1758 0
M  V30 5450 C 515.326 -0.648155 -2.21512 0
M  V30 5451 C 516.296 0.348431 -1.62404 0
M  V30 5452 O 517.481 0.240419 -1.89279 0
M  V30 5453 C 514.621 -0.0264291 -3.4509 0
M  V30 5454 C 513.734 -1.07154 -4.185 0
M  V30 5455 C 512.869 -0.417403 -5.29558 0
M  V30 5456 C 511.908 -1.447 -5.94751 0
M  V30 5457 N 511.045 -0.817203 -6.97328 0
M  V30 5458 H 515.885 -1.53891 -2.55189 0
M  V30 5459 H 513.422 -0.769699 -1.25356 0
M  V30 5460 H 515.38 0.351456 -4.15717 0
M  V30 5461 H 514.01 0.827802 -3.12005 0
M  V30 5462 H 513.062 -1.56728 -3.46613 0
M  V30 5463 H 514.374 -1.8532 -4.63096 0
M  V30 5464 H 513.528 0.0142061 -6.06698 0
M  V30 5465 H 512.267 0.396265 -4.86087 0
M  V30 5466 H 511.272 -1.88865 -5.16343 0
M  V30 5467 H 512.497 -2.26252 -6.40302 0
M  V30 5468 H 510.443 -0.0239995 -6.55996 0
M  V30 5469 H 510.36 -1.53644 -7.40223 0
M  V30 5470 H 511.628 -0.410283 -7.7842 0
M  V30 5471 N 515.857 1.33968 -0.830081 0
M  V30 5472 C 517.134 1.92554 -0.343858 0
M  V30 5473 C 517.514 1.7573 1.16971 0
M  V30 5474 O 516.862 1.14035 1.98011 0
M  V30 5475 C 517.072 3.40147 -0.781073 0
M  V30 5476 C 518.42 4.17299 -0.78402 0
M  V30 5477 O 519.444 3.48762 -0.724112 0
M  V30 5478 O 518.303 5.39631 -0.863739 0
M  V30 5479 H 515.397 0.821469 -0.0954827 0
M  V30 5480 H 517.943 1.42897 -0.915348 0
M  V30 5481 H 516.715 3.46225 -1.82329 0
M  V30 5482 H 516.338 3.97166 -0.18567 0
M  V30 5483 N 517.335 0.585699 1.46312 0
M  V30 5484 C 518.583 0.072278 2.01971 0
M  V30 5485 C 518.904 -1.29345 1.45928 0
M  V30 5486 O 518.174 -1.84973 0.645109 0
M  V30 5487 H 516.754 0.023729 0.746623 0
M  V30 5488 H 519.416 0.762155 1.7938 0
M  V30 5489 H 518.512 0.00552767 3.121 0
M  V30 5490 N 518.813 -1.54241 0.323641 0
M  V30 5491 C 520.06 -2.0057 -0.27891 0
M  V30 5492 C 520.388 -1.21181 -1.52136 0
M  V30 5493 O 519.643 -0.282043 -1.93657 0
M  V30 5494 C 519.942 -3.5129 -0.658031 0
M  V30 5495 C 519.608 -4.48281 0.485252 0
M  V30 5496 C 518.27 -4.74519 0.799055 0
M  V30 5497 C 520.622 -5.05909 1.25322 0
M  V30 5498 C 517.95 -5.55643 1.88354 0
M  V30 5499 C 520.302 -5.88215 2.32779 0
M  V30 5500 C 518.966 -6.12755 2.64741 0
M  V30 5501 H 518.236 -0.733938 -0.10206 0
M  V30 5502 H 520.883 -1.862 0.447435 0
M  V30 5503 H 519.188 -3.63388 -1.4648 0
M  V30 5504 H 520.885 -3.84578 -1.1358 0
M  V30 5505 H 517.475 -4.27979 0.230593 0
M  V30 5506 H 521.659 -4.8562 1.02404 0
M  V30 5507 H 516.915 -5.72888 2.13564 0
M  V30 5508 H 521.089 -6.31888 2.92729 0
M  V30 5509 H 518.716 -6.75404 3.48904 0
M  V30 5510 N 520.291 -0.0518155 -1.57515 0
M  V30 5511 C 521.707 0.304735 -1.56664 0
M  V30 5512 C 521.907 1.71395 -1.05953 0
M  V30 5513 O 520.963 2.42123 -0.716414 0
M  V30 5514 C 522.276 0.132614 -3.00407 0
M  V30 5515 C 523.824 0.20367 -3.12337 0
M  V30 5516 C 524.299 0.0600706 -4.57961 0
M  V30 5517 N 525.79 0.116326 -4.63054 0
M  V30 5518 C 526.525 0.0293363 -5.73392 0
M  V30 5519 N 526.021 -0.110038 -6.92713 0
M  V30 5520 N 527.814 0.0849651 -5.62036 0
M  V30 5521 H 519.965 -0.973056 -1.888 0
M  V30 5522 H 522.228 -0.377781 -0.869474 0
M  V30 5523 H 521.934 -0.839019 -3.41546 0
M  V30 5524 H 521.808 0.893376 -3.66468 0
M  V30 5525 H 524.195 1.16578 -2.71097 0
M  V30 5526 H 524.276 -0.587857 -2.48954 0
M  V30 5527 H 523.92 -0.898715 -4.99886 0
M  V30 5528 H 523.85 0.87075 -5.19351 0
M  V30 5529 H 526.341 0.22327 -3.7724 0
M  V30 5530 H 526.654 -0.169104 -7.72615 0
M  V30 5531 H 524.999 -0.145132 -6.94848 0
M  V30 5532 H 528.19 0.192411 -4.67704 0
M  V30 5533 H 528.363 0.0137131 -6.47999 0
M  V30 5534 N 521.769 1.56035 0.221574 0
M  V30 5535 C 523.046 1.69837 0.970301 0
M  V30 5536 C 523.426 0.599065 2.02421 0
M  V30 5537 O 522.774 -0.393929 2.25079 0
M  V30 5538 C 522.984 3.11148 1.58076 0
M  V30 5539 C 524.332 3.70555 2.07302 0
M  V30 5540 O 525.356 3.14109 1.6797 0
M  V30 5541 O 524.215 4.69562 2.79596 0
M  V30 5542 H 521.309 0.691727 0.453257 0
M  V30 5543 H 523.855 1.68353 0.213358 0
M  V30 5544 H 522.627 3.82617 0.819759 0
M  V30 5545 H 522.25 3.16749 2.40324 0
M  V30 5546 N 523.247 -0.488276 1.49845 0
M  V30 5547 C 524.494 -1.24157 1.59973 0
M  V30 5548 C 524.822 -1.92293 0.292182 0
M  V30 5549 O 524.077 -1.81942 -0.720813 0
M  V30 5550 C 524.376 -2.32152 2.71735 0
M  V30 5551 C 524.042 -1.81387 4.12807 0
M  V30 5552 C 522.704 -1.67262 4.51195 0
M  V30 5553 C 525.056 -1.43537 5.01045 0
M  V30 5554 C 522.384 -1.13685 5.7558 0
M  V30 5555 C 524.736 -0.914081 6.25961 0
M  V30 5556 C 523.4 -0.759327 6.63167 0
M  V30 5557 H 522.67 -0.454322 0.585383 0
M  V30 5558 H 525.317 -0.540261 1.83721 0
M  V30 5559 H 523.622 -3.08122 2.42008 0
M  V30 5560 H 525.319 -2.90164 2.76778 0
M  V30 5561 H 521.909 -1.93344 3.82513 0
M  V30 5562 H 526.093 -1.53292 4.72033 0
M  V30 5563 H 521.349 -1.00426 6.03096 0
M  V30 5564 H 525.523 -0.612066 6.93705 0
M  V30 5565 H 523.15 -0.342002 7.5943 0
M  V30 5566 N 524.725 -1.39134 -0.740242 0
M  V30 5567 C 526.136 -1.32208 -1.31825 0
M  V30 5568 C 526.487 0.0159919 -1.96193 0
M  V30 5569 O 525.612 0.918111 -1.95958 0
M  V30 5570 C 526.207 -2.39436 -2.39699 0
M  V30 5571 C 524.766 -2.36048 -2.93187 0
M  V30 5572 C 523.913 -2.21599 -1.66701 0
M  V30 5573 H 526.864 -1.49298 -0.538133 0
M  V30 5574 H 526.885 -2.05922 -3.19963 0
M  V30 5575 H 526.397 -3.36811 -1.92821 0
M  V30 5576 H 524.498 -1.42295 -3.44359 0
M  V30 5577 H 524.611 -3.30704 -3.46658 0
M  V30 5578 H 522.975 -1.68681 -1.90837 0
M  V30 5579 H 523.758 -3.20936 -1.21882 0
M  V30 5580 N 526.204 0.969867 -1.24223 0
M  V30 5581 C 527.167 2.04564 -1.03373 0
M  V30 5582 C 528.167 1.60798 0.00819206 0
M  V30 5583 O 529.357 1.72641 -0.232567 0
M  V30 5584 C 526.489 3.36163 -0.566343 0
M  V30 5585 H 527.682 2.24494 -1.98853 0
M  V30 5586 H 525.235 1.1448 -1.06415 0
M  V30 5587 H 525.97 3.21925 0.391751 0
M  V30 5588 H 525.755 3.69273 -1.31834 0
M  V30 5589 H 527.245 4.1526 -0.441435 0
M  V30 5590 N 527.682 1.05563 1.17022 0
M  V30 5591 C 528.615 0.604197 2.20056 0
M  V30 5592 C 529.593 -0.369169 1.58354 0
M  V30 5593 O 530.777 -0.279898 1.8641 0
M  V30 5594 C 527.904 -0.115265 3.38504 0
M  V30 5595 C 526.95 0.813698 4.18666 0
M  V30 5596 S 527.783 2.30492 4.83357 0
M  V30 5597 C 528.939 1.59674 6.0519 0
M  V30 5598 H 529.172 1.47713 2.58008 0
M  V30 5599 H 526.705 0.867932 1.27696 0
M  V30 5600 H 528.663 -0.524162 4.0714 0
M  V30 5601 H 527.324 -0.964284 2.98932 0
M  V30 5602 H 526.517 0.256736 5.03346 0
M  V30 5603 H 526.119 1.16213 3.55486 0
M  V30 5604 H 528.411 0.898164 6.7152 0
M  V30 5605 H 529.354 2.42115 6.65422 0
M  V30 5606 H 529.762 1.08252 5.54023 0
M  V30 5607 N 529.16 -1.33526 0.837174 0
M  V30 5608 C 530.406 -1.9813 0.432704 0
M  V30 5609 C 530.739 -1.66168 -1.00508 0
M  V30 5610 O 530.014 -0.94069 -1.70239 0
M  V30 5611 C 530.297 -3.54151 0.651834 0
M  V30 5612 C 530.15 -3.95806 2.13676 0
M  V30 5613 C 531.469 -4.39993 0.0968937 0
M  V30 5614 H 528.588 -0.719713 0.15869 0
M  V30 5615 H 531.23 -1.58193 1.05237 0
M  V30 5616 H 529.38 -3.88301 0.124369 0
M  V30 5617 H 531.052 -3.71921 2.72896 0
M  V30 5618 H 529.295 -3.45599 2.62191 0
M  V30 5619 H 529.966 -5.0447 2.24084 0
M  V30 5620 H 532.442 -4.12479 0.547733 0
M  V30 5621 H 531.318 -5.48186 0.279917 0
M  V30 5622 H 531.579 -4.3066 -0.9992 0
M  V30 5623 N 530.638 -0.59345 -1.46 0
M  V30 5624 C 531.57 0.171569 -2.28557 0
M  V30 5625 C 532.583 0.845273 -1.39137 0
M  V30 5626 O 533.772 0.713033 -1.6364 0
M  V30 5627 C 530.872 1.26311 -3.14482 0
M  V30 5628 C 530.045 0.679258 -4.32094 0
M  V30 5629 C 529.104 1.65987 -4.99334 0
M  V30 5630 O 528.13 1.19171 -5.56585 0
M  V30 5631 N 529.332 2.99414 -4.97324 0
M  V30 5632 H 532.097 -0.536771 -2.94854 0
M  V30 5633 H 529.658 -0.431954 -1.56031 0
M  V30 5634 H 531.65 1.91863 -3.5633 0
M  V30 5635 H 530.22 1.87416 -2.50188 0
M  V30 5636 H 529.44 -0.153992 -3.93899 0
M  V30 5637 H 530.728 0.26916 -5.08088 0
M  V30 5638 H 530.126 3.40064 -4.52076 0
M  V30 5639 H 528.683 3.60426 -5.4308 0
M  V30 5640 N 532.116 1.54067 -0.331816 0
M  V30 5641 C 533.026 2.28322 0.539104 0
M  V30 5642 C 534.042 1.32985 1.1221 0
M  V30 5643 O 535.218 1.6601 1.1403 0
M  V30 5644 C 532.283 3.03277 1.68 0
M  V30 5645 C 531.344 4.14216 1.12798 0
M  V30 5646 C 530.577 4.85588 2.2145 0
M  V30 5647 O 530.8 4.56536 3.41952 0
M  V30 5648 O 529.734 5.72309 1.86404 0
M  V30 5649 H 533.56 3.03632 -0.0641692 0
M  V30 5650 H 531.145 1.49083 -0.0972365 0
M  V30 5651 H 533.027 3.50189 2.34405 0
M  V30 5652 H 531.702 2.30834 2.2693 0
M  V30 5653 H 530.609 3.71635 0.428782 0
M  V30 5654 H 531.942 4.88727 0.583698 0
M  V30 5655 N 533.594 0.0601682 1.57485 0
M  V30 5656 C 534.524 -0.90889 2.15085 0
M  V30 5657 C 535.505 -1.31838 1.07484 0
M  V30 5658 O 536.69 -1.3915 1.35466 0
M  V30 5659 C 533.82 -2.18059 2.7031 0
M  V30 5660 C 532.774 -1.91088 3.82974 0
M  V30 5661 C 532.1 -3.24789 4.24754 0
M  V30 5662 C 533.4 -1.22535 5.07723 0
M  V30 5663 H 535.094 -0.429093 2.96309 0
M  V30 5664 H 532.64 -0.204952 1.42534 0
M  V30 5665 H 534.593 -2.86258 3.09248 0
M  V30 5666 H 533.317 -2.6826 1.8629 0
M  V30 5667 H 531.976 -1.25297 3.44523 0
M  V30 5668 H 531.624 -3.72809 3.37672 0
M  V30 5669 H 531.324 -3.07538 5.00694 0
M  V30 5670 H 532.848 -3.94205 4.66299 0
M  V30 5671 H 534.262 -1.80783 5.4405 0
M  V30 5672 H 532.659 -1.1558 5.88864 0
M  V30 5673 H 533.729 -0.202692 4.84476 0
M  V30 5674 N 535.072 -1.5615 -0.213296 0
M  V30 5675 C 536.022 -1.89485 -1.26804 0
M  V30 5676 C 537.006 -0.758713 -1.41889 0
M  V30 5677 O 538.198 -1.02127 -1.44565 0
M  V30 5678 C 535.327 -2.22219 -2.61675 0
M  V30 5679 C 534.413 -3.42245 -2.50458 0
M  V30 5680 N 534.804 -4.60645 -2.089 0
M  V30 5681 C 533.102 -3.46023 -2.81397 0
M  V30 5682 C 533.803 -5.42805 -2.09135 0
M  V30 5683 N 532.779 -4.82732 -2.49941 0
M  V30 5684 H 536.581 -2.78537 -0.937771 0
M  V30 5685 H 534.095 -1.56826 -0.421824 0
M  V30 5686 H 536.092 -2.44278 -3.37837 0
M  V30 5687 H 534.752 -1.34484 -2.95541 0
M  V30 5688 H 535.763 -4.85651 -1.79899 0
M  V30 5689 H 532.44 -2.68654 -3.1958 0
M  V30 5690 H 533.83 -6.47601 -1.79059 0
M  V30 5691 N 536.55 0.480323 -1.50102 0
M  V30 5692 C 537.482 1.59669 -1.64433 0
M  V30 5693 C 538.495 1.54063 -0.52615 0
M  V30 5694 O 539.684 1.59619 -0.798992 0
M  V30 5695 C 536.784 2.98527 -1.6042 0
M  V30 5696 C 535.957 3.291 -2.88117 0
M  V30 5697 C 535.016 4.47468 -2.76873 0
M  V30 5698 O 534.042 4.4823 -3.50825 0
M  V30 5699 N 535.244 5.48593 -1.89806 0
M  V30 5700 H 538.009 1.47795 -2.60723 0
M  V30 5701 H 535.57 0.66858 -1.4745 0
M  V30 5702 H 537.562 3.75666 -1.50523 0
M  V30 5703 H 536.132 3.04218 -0.719036 0
M  V30 5704 H 535.352 2.40662 -3.12211 0
M  V30 5705 H 536.64 3.46334 -3.72734 0
M  V30 5706 H 536.038 5.50791 -1.2902 0
M  V30 5707 H 534.595 6.24752 -1.85819 0
M  V30 5708 N 538.028 1.39524 0.732853 0
M  V30 5709 C 539.276 1.36594 1.48951 0
M  V30 5710 C 539.597 -0.0367507 1.94965 0
M  V30 5711 O 538.867 -0.988391 1.69138 0
M  V30 5712 H 537.447 0.502673 0.552566 0
M  V30 5713 H 540.109 1.74411 0.869869 0
M  V30 5714 H 539.205 2.03 2.3706 0
M  V30 5715 N 539.506 -0.963266 1.24736 0
M  V30 5716 C 540.754 -1.70343 1.08755 0
M  V30 5717 C 541.075 -1.91387 -0.373619 0
M  V30 5718 O 540.345 -1.4948 -1.2662 0
M  V30 5719 H 538.925 -0.631224 0.399456 0
M  V30 5720 H 541.587 -1.15859 1.56725 0
M  V30 5721 H 540.683 -2.68616 1.58909 0
M  V30 5722 N 540.985 -1.06182 -1.16461 0
M  V30 5723 C 542.401 -0.785065 -1.38956 0
M  V30 5724 C 542.601 0.616103 -1.9185 0
M  V30 5725 O 541.657 1.37686 -2.11657 0
M  V30 5726 C 542.97 -1.84902 -2.37132 0
M  V30 5727 C 544.518 -1.8724 -2.50819 0
M  V30 5728 C 544.993 -2.92686 -3.52277 0
M  V30 5729 N 546.484 -2.91712 -3.59803 0
M  V30 5730 C 547.219 -3.69949 -4.38093 0
M  V30 5731 N 546.715 -4.58 -5.19815 0
M  V30 5732 N 548.508 -3.58346 -4.33064 0
M  V30 5733 H 540.659 -1.96569 -0.804634 0
M  V30 5734 H 542.922 -0.851747 -0.416211 0
M  V30 5735 H 542.628 -2.85518 -2.0536 0
M  V30 5736 H 542.502 -1.69908 -3.36766 0
M  V30 5737 H 544.889 -0.872827 -2.81897 0
M  V30 5738 H 544.97 -2.06311 -1.51226 0
M  V30 5739 H 544.614 -3.92835 -3.21937 0
M  V30 5740 H 544.544 -2.70864 -4.51598 0
M  V30 5741 H 547.035 -2.27876 -3.01464 0
M  V30 5742 H 547.348 -5.14357 -5.76764 0
M  V30 5743 H 545.693 -4.62056 -5.19162 0
M  V30 5744 H 548.884 -2.88943 -3.68279 0
M  V30 5745 H 549.057 -4.19563 -4.93833 0
M  V30 5746 N 542.463 1.3308 -0.844243 0
M  V30 5747 C 543.879 1.50447 -0.532729 0
M  V30 5748 C 544.079 1.78292 0.938837 0
M  V30 5749 O 543.135 1.84635 1.72239 0
M  V30 5750 C 544.448 2.65555 -1.41072 0
M  V30 5751 C 545.996 2.7944 -1.41005 0
M  V30 5752 C 546.471 3.97616 -2.27301 0
M  V30 5753 N 547.962 4.0486 -2.2504 0
M  V30 5754 C 548.697 4.95508 -2.88547 0
M  V30 5755 N 548.193 5.91236 -3.61126 0
M  V30 5756 N 549.986 4.88548 -2.77989 0
M  V30 5757 H 542.137 1.13269 -1.79677 0
M  V30 5758 H 544.4 0.55734 -0.766861 0
M  V30 5759 H 544.106 2.51675 -2.45668 0
M  V30 5760 H 543.98 3.61089 -1.09061 0
M  V30 5761 H 546.367 2.92749 -0.371784 0
M  V30 5762 H 546.448 1.8465 -1.77026 0
M  V30 5763 H 546.092 3.85066 -3.3119 0
M  V30 5764 H 546.022 4.91661 -1.88619 0
M  V30 5765 H 548.513 3.36353 -1.72264 0
M  V30 5766 H 548.826 6.57079 -4.06776 0
M  V30 5767 H 547.171 5.91295 -3.65234 0
M  V30 5768 H 550.362 4.12729 -2.20846 0
M  V30 5769 H 550.535 5.58994 -3.27765 0
M  V30 5770 N 543.941 0.601185 1.45683 0
M  V30 5771 C 545.171 0.0999093 2.06358 0
M  V30 5772 C 545.579 -1.21831 1.44754 0
M  V30 5773 O 544.922 -1.75157 0.553695 0
M  V30 5774 C 544.984 -0.12085 3.59297 0
M  V30 5775 C 544.648 1.11459 4.432 0
M  V30 5776 C 545.645 2.03118 4.7858 0
M  V30 5777 C 543.33 1.34162 4.84051 0
M  V30 5778 C 545.324 3.15814 5.53661 0
M  V30 5779 C 543.011 2.4716 5.58888 0
M  V30 5780 C 544.009 3.37814 5.93608 0
M  V30 5781 O 543.697 4.48846 6.66928 0
M  V30 5782 H 543.429 0.0630316 0.673055 0
M  V30 5783 H 545.983 0.826982 1.88016 0
M  V30 5784 H 544.213 -0.902744 3.76015 0
M  V30 5785 H 545.902 -0.572925 4.01836 0
M  V30 5786 H 546.668 1.86801 4.47583 0
M  V30 5787 H 542.547 0.645018 4.56465 0
M  V30 5788 H 546.091 3.86596 5.8068 0
M  V30 5789 H 541.988 2.63432 5.89299 0
M  V30 5790 H 542.756 4.47446 6.85371 0
M  V30 5791 N 545.419 -1.53889 0.339982 0
M  V30 5792 C 546.352 -2.21187 -0.561405 0
M  V30 5793 C 547.33 -1.19463 -1.10306 0
M  V30 5794 O 548.514 -1.48268 -1.164 0
M  V30 5795 C 545.641 -2.8865 -1.77198 0
M  V30 5796 C 544.687 -4.04232 -1.3601 0
M  V30 5797 S 545.52 -5.34129 -0.382909 0
M  V30 5798 C 546.676 -6.05094 -1.60039 0
M  V30 5799 H 546.909 -2.97298 0.0102092 0
M  V30 5800 H 544.442 -1.53901 0.124056 0
M  V30 5801 H 546.4 -3.28138 -2.4665 0
M  V30 5802 H 545.061 -2.12311 -2.3148 0
M  V30 5803 H 544.254 -4.50358 -2.2626 0
M  V30 5804 H 543.856 -3.66503 -0.745098 0
M  V30 5805 H 546.148 -6.2827 -2.53541 0
M  V30 5806 H 547.091 -6.98182 -1.18099 0
M  V30 5807 H 547.499 -5.35207 -1.79483 0
M  V30 5808 N 546.897 -0.0685191 -1.57451 0
M  V30 5809 C 547.83 0.935736 -2.08133 0
M  V30 5810 C 548.808 1.29317 -0.985698 0
M  V30 5811 O 549.992 1.40304 -1.25886 0
M  V30 5812 C 547.119 2.2448 -2.53627 0
M  V30 5813 C 546.165 2.03917 -3.74593 0
M  V30 5814 S 546.998 1.30154 -5.19442 0
M  V30 5815 C 548.154 2.62346 -5.68265 0
M  V30 5816 H 548.387 0.504473 -2.92989 0
M  V30 5817 H 545.92 0.144169 -1.53725 0
M  V30 5818 H 547.878 2.99718 -2.80499 0
M  V30 5819 H 546.539 2.64731 -1.69045 0
M  V30 5820 H 545.732 3.00788 -4.04404 0
M  V30 5821 H 545.334 1.36815 -3.48077 0
M  V30 5822 H 547.626 3.58448 -5.7491 0
M  V30 5823 H 548.569 2.3715 -6.67207 0
M  V30 5824 H 548.977 2.69401 -4.96068 0
M  V30 5825 N 548.375 1.56261 0.205012 0
M  V30 5826 C 549.624 1.79236 0.925058 0
M  V30 5827 C 549.937 0.640011 1.84833 0
M  V30 5828 O 551.143 0.753809 2.60826 0
M  V30 5829 C 549.599 3.17475 1.69522 0
M  V30 5830 C 549.207 4.40482 0.817269 0
M  V30 5831 C 550.951 3.49766 2.4055 0
M  V30 5832 C 548.858 5.69744 1.58573 0
M  V30 5833 H 547.788 0.668287 0.349153 0
M  V30 5834 H 550.439 1.82629 0.178544 0
M  V30 5835 H 548.821 3.08304 2.48526 0
M  V30 5836 H 549.995 4.60752 0.0665988 0
M  V30 5837 H 548.31 4.15827 0.218316 0
M  V30 5838 H 550.907 4.43573 2.98575 0
M  V30 5839 H 551.25 2.73041 3.14252 0
M  V30 5840 H 551.783 3.60341 1.68522 0
M  V30 5841 H 548.522 6.49407 0.891679 0
M  V30 5842 H 548.042 5.53509 2.31059 0
M  V30 5843 H 549.721 6.1051 2.14212 0
M  V30 5844 N 549.853 -0.472356 1.50355 0
M  V30 5845 C 551.099 -1.22634 1.6152 0
M  V30 5846 C 551.432 -1.91645 0.313995 0
M  V30 5847 O 550.707 -1.82059 -0.684446 0
M  V30 5848 C 550.99 -2.27099 2.7946 0
M  V30 5849 C 550.843 -1.62402 4.19459 0
M  V30 5850 C 552.162 -3.28421 2.92964 0
M  V30 5851 H 549.281 -0.444494 0.587873 0
M  V30 5852 H 551.923 -0.520321 1.82737 0
M  V30 5853 H 550.073 -2.87314 2.61501 0
M  V30 5854 H 551.745 -1.05793 4.49005 0
M  V30 5855 H 549.988 -0.927184 4.23776 0
M  V30 5856 H 550.659 -2.38309 4.97909 0
M  V30 5857 H 553.135 -2.78227 3.09401 0
M  V30 5858 H 552.011 -3.98845 3.77113 0
M  V30 5859 H 552.272 -3.92467 2.03525 0
M  V30 5860 N 551.331 -1.39911 -0.725443 0
M  V30 5861 C 552.608 -1.28158 -1.47766 0
M  V30 5862 C 552.988 0.104545 -2.10841 0
M  V30 5863 O 552.336 1.11657 -1.99361 0
M  V30 5864 C 552.546 -2.41306 -2.52135 0
M  V30 5865 C 553.894 -2.81076 -3.18247 0
M  V30 5866 O 554.918 -2.40827 -2.62452 0
M  V30 5867 O 553.777 -3.50581 -4.19231 0
M  V30 5868 H 550.871 -0.502761 -0.656628 0
M  V30 5869 H 553.417 -1.51808 -0.758456 0
M  V30 5870 H 552.189 -3.33932 -2.03974 0
M  V30 5871 H 551.812 -2.19374 -3.31603 0
M  V30 5872 N 552.809 0.956637 -1.25245 0
M  V30 5873 C 554.22 1.51569 -1.09012 0
M  V30 5874 C 554.571 1.93322 0.334813 0
M  V30 5875 O 553.696 1.78421 1.22454 0
M  V30 5876 C 554.291 2.75444 -1.97271 0
M  V30 5877 C 552.85 3.27669 -1.8523 0
M  V30 5878 C 551.997 2.00517 -1.91542 0
M  V30 5879 H 554.948 0.773746 -1.3856 0
M  V30 5880 H 554.969 3.4919 -1.51151 0
M  V30 5881 H 554.481 2.45024 -3.00973 0
M  V30 5882 H 552.582 3.62914 -0.844045 0
M  V30 5883 H 552.695 3.9582 -2.69932 0
M  V30 5884 H 551.059 2.15727 -1.35404 0
M  V30 5885 H 551.842 1.72448 -2.96844 0
M  V30 5886 N 554.287 1.06798 1.15896 0
M  V30 5887 C 555.25 0.687328 2.18651 0
M  V30 5888 C 556.25 -0.269559 1.58524 0
M  V30 5889 O 557.44 -0.0512627 1.74125 0
M  V30 5890 C 554.572 0.0121642 3.40898 0
M  V30 5891 H 555.765 1.59701 2.53842 0
M  V30 5892 H 553.318 0.863828 1.3026 0
M  V30 5893 H 554.053 -0.910025 3.1127 0
M  V30 5894 H 553.838 0.700309 3.85795 0
M  V30 5895 H 555.328 -0.239703 4.16911 0
M  V30 5896 N 555.766 -1.3263 0.851289 0
M  V30 5897 C 557.015 -1.96633 0.449267 0
M  V30 5898 C 557.328 -1.68131 -0.999562 0
M  V30 5899 O 558.534 -2.25845 -1.50685 0
M  V30 5900 C 556.99 -3.51946 0.752446 0
M  V30 5901 C 556.598 -3.89311 2.21678 0
M  V30 5902 C 558.342 -4.22437 0.417983 0
M  V30 5903 C 556.249 -5.37655 2.46336 0
M  V30 5904 H 555.179 -0.735888 0.164269 0
M  V30 5905 H 557.83 -1.51073 1.0416 0
M  V30 5906 H 556.212 -3.95899 0.0895858 0
M  V30 5907 H 557.386 -3.56378 2.92115 0
M  V30 5908 H 555.701 -3.31836 2.51543 0
M  V30 5909 H 558.298 -5.31549 0.579674 0
M  V30 5910 H 558.641 -4.11349 -0.640115 0
M  V30 5911 H 559.174 -3.84057 1.03659 0
M  V30 5912 H 555.913 -5.5376 3.50757 0
M  V30 5913 H 555.433 -5.72005 1.80473 0
M  V30 5914 H 557.112 -6.04695 2.30115 0
M  V30 5915 N 557.244 -0.608902 -1.45362 0
M  V30 5916 C 558.469 -0.10921 -2.07112 0
M  V30 5917 C 558.894 1.19779 -1.45033 0
M  V30 5918 O 558.252 1.72961 -0.543527 0
M  V30 5919 C 558.3 0.0155745 -3.60597 0
M  V30 5920 O 557.404 1.06546 -3.98399 0
M  V30 5921 H 556.745 -0.0746619 -0.659789 0
M  V30 5922 H 559.275 -0.839283 -1.86594 0
M  V30 5923 H 559.285 0.213364 -4.07442 0
M  V30 5924 H 557.96 -0.938765 -4.05167 0
M  V30 5925 H 556.537 0.844024 -3.63223 0
M  V30 5926 N 558.722 1.53707 -0.348139 0
M  V30 5927 C 559.947 2.05877 0.250883 0
M  V30 5928 C 560.372 1.22115 1.43072 0
M  V30 5929 O 559.73 0.235986 1.79758 0
M  V30 5930 C 559.778 3.54886 0.639416 0
M  V30 5931 O 558.882 3.73948 1.73888 0
M  V30 5932 H 558.223 0.662754 0.040653 0
M  V30 5933 H 560.753 1.98303 -0.503685 0
M  V30 5934 H 560.763 3.97601 0.915295 0
M  V30 5935 H 559.438 4.153 -0.223386 0
M  V30 5936 H 558.015 3.43134 1.45991 0
M  V30 5937 N 560.2 0.0768682 1.57412 0
M  V30 5938 C 561.425 -0.603404 1.98428 0
M  V30 5939 C 561.85 -1.62047 0.955108 0
M  V30 5940 O 561.208 -1.81129 -0.0786778 0
M  V30 5941 C 561.256 -1.24396 3.38464 0
M  V30 5942 O 560.36 -2.35982 3.3821 0
M  V30 5943 H 559.701 -0.154741 0.645718 0
M  V30 5944 H 562.231 0.152885 2.04028 0
M  V30 5945 H 562.241 -1.5896 3.7576 0
M  V30 5946 H 560.916 -0.498735 4.12899 0
M  V30 5947 H 559.493 -2.03173 3.1269 0
M  V30 5948 N 561.678 -1.56367 -0.196722 0
M  V30 5949 C 562.926 -1.80172 -0.915554 0
M  V30 5950 C 563.247 -0.649649 -1.8386 0
M  V30 5951 O 562.517 0.332111 -1.93064 0
M  V30 5952 H 561.097 -0.664592 -0.341067 0
M  V30 5953 H 563.759 -1.93844 -0.202622 0
M  V30 5954 H 562.855 -2.7327 -1.50764 0
M  V30 5955 N 563.156 0.464375 -1.50603 0
M  V30 5956 C 564.567 1.04507 -1.5471 0
M  V30 5957 C 564.918 1.9297 -0.354542 0
M  V30 5958 O 564.043 2.09763 0.531812 0
M  V30 5959 C 564.638 1.90207 -2.80369 0
M  V30 5960 C 563.197 2.43373 -2.87135 0
M  V30 5961 C 562.344 1.21886 -2.49076 0
M  V30 5962 H 565.295 0.246716 -1.56771 0
M  V30 5963 H 565.316 2.75353 -2.62604 0
M  V30 5964 H 564.828 1.25796 -3.67147 0
M  V30 5965 H 562.929 3.11318 -2.04724 0
M  V30 5966 H 563.042 2.7802 -3.90181 0
M  V30 5967 H 561.406 1.55575 -2.01664 0
M  V30 5968 H 562.189 0.591268 -3.3817 0
M  V30 5969 N 564.634 1.40294 0.718013 0
M  V30 5970 C 565.597 1.4012 1.81381 0
M  V30 5971 C 566.597 0.295405 1.58063 0
M  V30 5972 O 567.787 0.554187 1.6515 0
M  V30 5973 C 564.919 1.19056 3.19435 0
M  V30 5974 H 566.112 2.37645 1.82933 0
M  V30 5975 H 563.665 1.26107 0.923405 0
M  V30 5976 H 564.4 0.222809 3.23534 0
M  V30 5977 H 564.185 1.99152 3.37758 0
M  V30 5978 H 565.675 1.21716 3.99468 0
M  V30 5979 N 566.112 -0.949982 1.2575 0
M  V30 5980 C 567.36 -1.6918 1.10555 0
M  V30 5981 C 567.681 -1.91773 -0.353298 0
M  V30 5982 O 566.951 -1.50814 -1.25027 0
M  V30 5983 H 565.531 -0.626952 0.406129 0
M  V30 5984 H 568.193 -1.1419 1.57945 0
M  V30 5985 H 567.289 -2.66915 1.61749 0
M  V30 5986 N 567.59 -1.07411 -1.15328 0
M  V30 5987 C 568.815 -0.818856 -1.90551 0
M  V30 5988 C 569.24 0.622194 -1.77512 0
M  V30 5989 O 568.598 1.43484 -1.10824 0
M  V30 5990 C 568.646 -1.23267 -3.38877 0
M  V30 5991 O 567.75 -0.378345 -4.10661 0
M  V30 5992 H 567.091 -0.29827 -0.593238 0
M  V30 5993 H 569.621 -1.43289 -1.46046 0
M  V30 5994 H 569.631 -1.20912 -3.89672 0
M  V30 5995 H 568.306 -2.28226 -3.47686 0
M  V30 5996 H 566.883 -0.464437 -3.69996 0
M  V30 5997 N 569.068 1.32177 -0.85831 0
M  V30 5998 C 570.298 2.01021 -0.476889 0
M  V30 5999 C 570.706 1.64653 0.931995 0
M  V30 6000 O 570.049 0.865713 1.62022 0
M  V30 6001 C 570.111 3.55413 -0.540528 0
M  V30 6002 C 569.775 4.1522 -1.90895 0
M  V30 6003 C 570.772 4.3318 -2.87491 0
M  V30 6004 C 568.457 4.51212 -2.20709 0
M  V30 6005 C 570.451 4.86306 -4.1205 0
M  V30 6006 C 568.138 5.04042 -3.45521 0
M  V30 6007 C 569.136 5.21538 -4.41007 0
M  V30 6008 O 568.824 5.73238 -5.63608 0
M  V30 6009 H 568.556 0.650059 -0.18547 0
M  V30 6010 H 571.11 1.69648 -1.15796 0
M  V30 6011 H 569.34 3.86196 0.19741 0
M  V30 6012 H 571.029 4.05526 -0.174191 0
M  V30 6013 H 571.795 4.05704 -2.65762 0
M  V30 6014 H 567.674 4.36878 -1.4717 0
M  V30 6015 H 571.218 4.99877 -4.86589 0
M  V30 6016 H 567.115 5.30952 -3.67098 0
M  V30 6017 H 567.883 5.91625 -5.65617 0
M  V30 6018 N 570.547 0.616602 1.45037 0
M  V30 6019 C 571.963 0.280994 1.57107 0
M  V30 6020 C 572.163 -1.21627 1.60653 0
M  V30 6021 O 571.219 -1.9997 1.54169 0
M  V30 6022 C 572.532 0.960116 2.8496 0
M  V30 6023 C 574.08 0.936884 2.98649 0
M  V30 6024 C 574.555 1.59619 4.29285 0
M  V30 6025 N 576.046 1.5621 4.36065 0
M  V30 6026 C 576.781 2.04131 5.35834 0
M  V30 6027 N 576.277 2.60177 6.4209 0
M  V30 6028 N 578.07 1.94845 5.27249 0
M  V30 6029 H 570.221 1.58867 1.40979 0
M  V30 6030 H 572.484 0.666024 0.674623 0
M  V30 6031 H 572.19 2.01473 2.88273 0
M  V30 6032 H 572.064 0.488921 3.74018 0
M  V30 6033 H 574.451 -0.109209 2.94898 0
M  V30 6034 H 574.532 1.44643 2.10979 0
M  V30 6035 H 574.176 2.64166 4.33796 0
M  V30 6036 H 574.106 1.06159 5.15789 0
M  V30 6037 H 576.597 1.15276 3.59889 0
M  V30 6038 H 576.91 2.94513 7.1448 0
M  V30 6039 H 575.255 2.64221 6.42816 0
M  V30 6040 H 578.446 1.50792 4.43147 0
M  V30 6041 H 578.619 2.32504 6.04852 0
M  V30 6042 N 572.025 -1.5352 0.356285 0
M  V30 6043 C 573.436 -1.86282 -0.12492 0
M  V30 6044 C 573.787 -1.27717 -1.48939 0
M  V30 6045 O 572.912 -0.595614 -2.08042 0
M  V30 6046 C 573.507 -3.37995 -0.23345 0
M  V30 6047 C 572.066 -3.70588 -0.658899 0
M  V30 6048 C 571.213 -2.76581 0.199596 0
M  V30 6049 H 574.164 -1.47901 0.575423 0
M  V30 6050 H 574.185 -3.65475 -1.0587 0
M  V30 6051 H 573.697 -3.8059 0.759776 0
M  V30 6052 H 571.798 -3.33544 -1.66069 0
M  V30 6053 H 571.911 -4.77076 -0.439957 0
M  V30 6054 H 570.275 -2.52552 -0.330076 0
M  V30 6055 H 571.058 -3.22008 1.19019 0
M  V30 6056 N 573.503 -0.0852151 -1.57369 0
M  V30 6057 C 574.733 0.588605 -1.98038 0
M  V30 6058 C 575.141 1.62869 -0.962817 0
M  V30 6059 O 574.484 1.83611 0.057134 0
M  V30 6060 C 574.546 1.30303 -3.35054 0
M  V30 6061 C 574.21 0.414855 -4.55113 0
M  V30 6062 C 575.207 -0.333011 -5.18832 0
M  V30 6063 C 572.892 0.335804 -5.01176 0
M  V30 6064 C 574.886 -1.14801 -6.26976 0
M  V30 6065 C 572.573 -0.482857 -6.09189 0
M  V30 6066 C 573.571 -1.22342 -6.71953 0
M  V30 6067 O 573.259 -2.02855 -7.77885 0
M  V30 6068 H 572.991 0.163249 -0.655992 0
M  V30 6069 H 575.545 -0.1582 -2.0479 0
M  V30 6070 H 573.775 2.0962 -3.24956 0
M  V30 6071 H 575.464 1.87041 -3.60237 0
M  V30 6072 H 576.23 -0.281611 -4.84182 0
M  V30 6073 H 572.109 0.901869 -4.52092 0
M  V30 6074 H 575.653 -1.72654 -6.75897 0
M  V30 6075 H 571.55 -0.535773 -6.43273 0
M  V30 6076 H 572.318 -1.95432 -7.94826 0
M  V30 6077 N 574.981 1.5647 0.188427 0
M  V30 6078 C 576.258 1.71857 0.934058 0
M  V30 6079 C 576.638 0.641867 2.01105 0
M  V30 6080 O 575.986 -0.346098 2.25864 0
M  V30 6081 C 576.196 3.14431 1.5144 0
M  V30 6082 C 577.544 3.74869 1.99396 0
M  V30 6083 O 578.568 3.17601 1.61269 0
M  V30 6084 O 577.427 4.75387 2.69573 0
M  V30 6085 H 574.521 0.701186 0.438483 0
M  V30 6086 H 577.067 1.68768 0.177599 0
M  V30 6087 H 575.839 3.8427 0.738416 0
M  V30 6088 H 575.462 3.21775 2.33552 0
M  V30 6089 N 576.459 -0.456382 1.50847 0
M  V30 6090 C 577.369 -1.57805 1.73594 0
M  V30 6091 C 578.385 -1.62599 0.619476 0
M  V30 6092 O 579.561 -1.80195 0.899532 0
M  V30 6093 C 576.626 -2.93926 1.8387 0
M  V30 6094 C 575.687 -2.99402 3.07663 0
M  V30 6095 C 574.92 -4.29031 3.1744 0
M  V30 6096 O 575.143 -5.20358 2.33631 0
M  V30 6097 O 574.077 -4.40401 4.10281 0
M  V30 6098 H 577.903 -1.41531 2.68705 0
M  V30 6099 H 575.488 -0.637422 1.3512 0
M  V30 6100 H 577.37 -3.74747 1.92725 0
M  V30 6101 H 576.045 -3.10368 0.91944 0
M  V30 6102 H 574.952 -2.17606 3.043 0
M  V30 6103 H 576.285 -2.87901 3.99216 0
M  V30 6104 N 577.937 -1.40673 -0.710563 0
M  V30 6105 C 579.185 -1.38947 -1.46759 0
M  V30 6106 C 579.506 0.00572879 -1.94999 0
M  V30 6107 O 578.776 0.961358 -1.70689 0
M  V30 6108 H 577.356 -0.5114 -0.544499 0
M  V30 6109 H 580.018 -1.75773 -0.842012 0
M  V30 6110 H 579.114 -2.06745 -2.33801 0
M  V30 6111 N 579.415 0.9433 -1.26252 0
M  V30 6112 C 580.345 2.05902 -1.10122 0
M  V30 6113 C 581.326 1.70099 -0.00700552 0
M  V30 6114 O 582.511 1.93377 -0.178641 0
M  V30 6115 C 579.641 3.39516 -0.731175 0
M  V30 6116 C 578.595 3.89372 -1.77688 0
M  V30 6117 C 577.921 5.19613 -1.26122 0
M  V30 6118 C 579.221 4.14489 -3.17799 0
M  V30 6119 H 580.915 2.19655 -2.03451 0
M  V30 6120 H 578.461 1.05548 -0.979576 0
M  V30 6121 H 580.414 4.17031 -0.605215 0
M  V30 6122 H 579.138 3.25733 0.23782 0
M  V30 6123 H 577.797 3.14036 -1.89148 0
M  V30 6124 H 577.445 5.02208 -0.282128 0
M  V30 6125 H 577.145 5.53939 -1.96023 0
M  V30 6126 H 578.669 5.99713 -1.14789 0
M  V30 6127 H 580.083 4.82625 -3.09428 0
M  V30 6128 H 578.48 4.60094 -3.85271 0
M  V30 6129 H 579.55 3.20347 -3.64014 0
M  V30 6130 N 580.893 1.08022 1.14757 0
M  V30 6131 C 582.309 0.807072 1.3769 0
M  V30 6132 C 582.509 -0.585504 1.92806 0
M  V30 6133 O 581.565 -1.34301 2.13821 0
M  V30 6134 C 582.878 1.88651 2.34161 0
M  V30 6135 C 584.426 1.91206 2.47809 0
M  V30 6136 C 584.901 2.98253 3.47576 0
M  V30 6137 N 586.392 2.974 3.55117 0
M  V30 6138 C 587.127 3.76872 4.32152 0
M  V30 6139 N 586.623 4.66212 5.12463 0
M  V30 6140 N 588.416 3.6519 4.27309 0
M  V30 6141 H 580.567 1.97824 0.77326 0
M  V30 6142 H 582.83 0.85826 0.402608 0
M  V30 6143 H 582.536 2.88749 2.00791 0
M  V30 6144 H 582.41 1.75244 3.3402 0
M  V30 6145 H 584.797 0.917564 2.80472 0
M  V30 6146 H 584.878 2.08691 1.47925 0
M  V30 6147 H 584.522 3.97907 3.15646 0
M  V30 6148 H 584.452 2.78014 4.47231 0
M  V30 6149 H 586.943 2.32643 2.97801 0
M  V30 6150 H 587.256 5.23468 5.68508 0
M  V30 6151 H 585.601 4.70257 5.11745 0
M  V30 6152 H 588.792 2.94765 3.63636 0
M  V30 6153 H 588.965 4.27366 4.87095 0
M  V30 6154 N 582.371 -1.3172 0.865308 0
M  V30 6155 C 583.787 -1.4958 0.556596 0
M  V30 6156 C 583.987 -1.79763 -0.910353 0
M  V30 6157 O 583.043 -1.87351 -1.6928 0
M  V30 6158 C 584.356 -2.63277 1.45279 0
M  V30 6159 C 585.904 -2.77161 1.45433 0
M  V30 6160 C 586.379 -3.93949 2.33598 0
M  V30 6161 N 587.87 -4.01228 2.31453 0
M  V30 6162 C 588.605 -4.90855 2.96393 0
M  V30 6163 N 588.101 -5.85416 3.70486 0
M  V30 6164 N 589.894 -4.84063 2.85726 0
M  V30 6165 H 582.045 -1.10396 1.81456 0
M  V30 6166 H 584.308 -0.54507 0.775631 0
M  V30 6167 H 584.014 -2.47734 2.49641 0
M  V30 6168 H 583.888 -3.59309 1.14792 0
M  V30 6169 H 586.275 -2.9212 0.41831 0
M  V30 6170 H 586.356 -1.8181 1.79941 0
M  V30 6171 H 586 -3.79748 3.37274 0
M  V30 6172 H 585.93 -4.88598 1.96417 0
M  V30 6173 H 588.421 -3.3357 1.77593 0
M  V30 6174 H 588.734 -6.50525 4.17178 0
M  V30 6175 H 587.079 -5.85409 3.74594 0
M  V30 6176 H 590.27 -4.09163 2.27384 0
M  V30 6177 H 590.443 -5.53708 3.36617 0
M  V30 6178 N 583.85 -0.624285 -1.44708 0
M  V30 6179 C 585.098 -0.125802 -2.01708 0
M  V30 6180 C 585.418 1.2543 -1.49306 0
M  V30 6181 O 584.689 1.83198 -0.693924 0
M  V30 6182 H 583.269 -0.0435161 -0.745731 0
M  V30 6183 H 585.931 -0.809446 -1.77296 0
M  V30 6184 H 585.027 -0.0882734 -3.11975 0
M  V30 6185 N 585.328 1.53329 -0.364422 0
M  V30 6186 C 586.574 2.01537 0.225969 0
M  V30 6187 C 586.907 1.25128 1.48515 0
M  V30 6188 O 586.182 0.344653 1.91422 0
M  V30 6189 C 586.465 3.56339 0.519092 0
M  V30 6190 C 586.318 4.43441 -0.753639 0
M  V30 6191 C 587.637 4.19833 1.32015 0
M  V30 6192 H 584.756 0.732573 0.0806548 0
M  V30 6193 H 587.398 1.83597 -0.489084 0
M  V30 6194 H 585.548 3.71756 1.12825 0
M  V30 6195 H 587.22 4.39823 -1.39116 0
M  V30 6196 H 585.463 4.11457 -1.37424 0
M  V30 6197 H 586.134 5.49699 -0.503517 0
M  V30 6198 H 588.61 4.08242 0.804859 0
M  V30 6199 H 587.486 5.28177 1.49399 0
M  V30 6200 H 587.747 3.75821 2.32832 0
M  V30 6201 N 586.806 0.0935595 1.57322 0
M  V30 6202 C 588.053 -0.570509 1.94297 0
M  V30 6203 C 588.381 -1.68286 0.97519 0
M  V30 6204 O 587.636 -1.95699 -0.00548655 0
M  V30 6205 C 587.935 -1.16692 3.37813 0
M  V30 6206 C 587.601 -0.178509 4.50547 0
M  V30 6207 C 586.263 0.0933475 4.81109 0
M  V30 6208 C 588.615 0.496472 5.1883 0
M  V30 6209 C 585.943 1.0469 5.77284 0
M  V30 6210 C 588.295 1.43849 6.16028 0
M  V30 6211 C 586.959 1.71859 6.44997 0
M  V30 6212 H 586.229 -0.208764 0.710984 0
M  V30 6213 H 588.876 0.169066 1.90752 0
M  V30 6214 H 587.181 -1.98271 3.37929 0
M  V30 6215 H 588.878 -1.6884 3.63722 0
M  V30 6216 H 585.468 -0.400584 4.26724 0
M  V30 6217 H 589.652 0.299584 4.95395 0
M  V30 6218 H 584.908 1.27094 5.98044 0
M  V30 6219 H 589.082 1.96734 6.68034 0
M  V30 6220 H 586.709 2.45906 7.19329 0
M  V30 6221 N 588.284 -1.56567 -0.180126 0
M  V30 6222 C 589.533 -1.80685 -0.896426 0
M  V30 6223 C 589.846 -0.669335 -1.83791 0
M  V30 6224 O 591.052 -0.795209 -2.59593 0
M  V30 6225 C 589.508 -3.20132 -1.6445 0
M  V30 6226 C 589.116 -4.41727 -0.747088 0
M  V30 6227 C 590.86 -3.53549 -2.34955 0
M  V30 6228 C 588.767 -5.72195 -1.49489 0
M  V30 6229 H 587.697 -0.673758 -0.338477 0
M  V30 6230 H 590.348 -1.8289 -0.149467 0
M  V30 6231 H 588.73 -3.12218 -2.43589 0
M  V30 6232 H 589.904 -4.608 0.00671129 0
M  V30 6233 H 588.219 -4.16122 -0.152134 0
M  V30 6234 H 590.816 -4.48267 -2.91481 0
M  V30 6235 H 591.159 -2.78006 -3.09868 0
M  V30 6236 H 591.692 -3.62976 -1.62768 0
M  V30 6237 H 588.431 -6.50743 -0.788251 0
M  V30 6238 H 587.951 -5.57115 -2.22224 0
M  V30 6239 H 589.63 -6.1384 -2.04472 0
M  V30 6240 N 589.762 0.448376 -1.51087 0
M  V30 6241 C 590.99 1.22143 -1.66999 0
M  V30 6242 C 591.405 1.85283 -0.362699 0
M  V30 6243 O 590.762 1.70236 0.65772 0
M  V30 6244 C 590.813 2.31357 -2.7777 0
M  V30 6245 O 590.534 1.70801 -4.03434 0
M  V30 6246 C 592.035 3.21836 -3.04855 0
M  V30 6247 H 589.255 0.368558 -0.560719 0
M  V30 6248 H 591.799 0.532618 -1.97442 0
M  V30 6249 H 589.954 2.95973 -2.49958 0
M  V30 6250 H 590.368 2.42895 -4.64868 0
M  V30 6251 H 591.842 3.94627 -3.85971 0
M  V30 6252 H 592.319 3.81949 -2.16821 0
M  V30 6253 H 592.925 2.62933 -3.34285 0
M  V30 6254 N 591.24 1.41047 0.703093 0
M  V30 6255 C 592.188 1.42494 1.83843 0
M  V30 6256 C 593.182 0.303885 1.66652 0
M  V30 6257 O 594.388 0.475544 1.73605 0
M  V30 6258 H 590.763 0.445685 0.605697 0
M  V30 6259 H 592.734 2.38194 1.79739 0
M  V30 6260 C 591.483 1.31666 3.21807 0
M  V30 6261 H 590.806 2.17212 3.35647 0
M  V30 6262 H 592.246 1.36738 4.01346 0
M  V30 6263 C 590.705 0.0281828 3.36888 0
M  V30 6264 O 591.235 -0.929995 3.90786 0
M  V30 6265 N 589.441 -0.0454322 2.90564 0
M  V30 6266 H 588.988 0.735046 2.4689 0
M  V30 6267 H 588.946 -0.906968 3.01034 0
M  V30 6268 N 592.718 -0.936591 1.26751 0
M  V30 6269 C 593.628 -2.06949 1.10496 0
M  V30 6270 C 594.644 -1.7396 0.037271 0
M  V30 6271 O 595.82 -1.99941 0.241944 0
M  V30 6272 C 592.885 -3.38612 0.744491 0
M  V30 6273 C 591.946 -3.85355 1.89209 0
M  V30 6274 C 591.179 -5.10735 1.54873 0
M  V30 6275 O 591.402 -5.68602 0.452546 0
M  V30 6276 O 590.336 -5.52632 2.38499 0
M  V30 6277 H 594.162 -2.23571 2.05547 0
M  V30 6278 H 591.747 -1.05428 1.05855 0
M  V30 6279 H 593.629 -4.17711 0.556396 0
M  V30 6280 H 592.304 -3.23218 -0.176582 0
M  V30 6281 H 591.211 -3.07182 2.13518 0
M  V30 6282 H 592.544 -4.05277 2.79305 0
M  V30 6283 N 594.196 -1.08629 -1.14182 0
M  V30 6284 C 595.424 -0.838889 -1.8913 0
M  V30 6285 C 595.839 0.609153 -1.78703 0
M  V30 6286 O 595.196 1.41876 -1.14794 0
M  V30 6287 C 595.247 -1.25477 -3.39025 0
M  V30 6288 O 594.968 -2.64601 -3.49167 0
M  V30 6289 C 596.469 -1.03856 -4.30963 0
M  V30 6290 H 593.689 -0.302377 -0.599007 0
M  V30 6291 H 596.233 -1.44615 -1.44592 0
M  V30 6292 H 594.388 -0.691571 -3.81177 0
M  V30 6293 H 594.802 -2.81922 -4.42289 0
M  V30 6294 H 596.276 -1.37892 -5.345 0
M  V30 6295 H 596.753 0.0242522 -4.39193 0
M  V30 6296 H 597.359 -1.58731 -3.94569 0
M  V30 6297 N 595.674 1.31259 -0.872281 0
M  V30 6298 C 596.922 1.96233 -0.483409 0
M  V30 6299 C 597.243 1.69276 0.968012 0
M  V30 6300 O 596.513 1.00943 1.67891 0
M  V30 6301 H 595.093 0.726025 -0.175774 0
M  V30 6302 H 597.755 1.60024 -1.11258 0
M  V30 6303 H 596.851 3.05403 -0.643075 0
M  V30 6304 N 597.152 0.631951 1.44375 0
M  V30 6305 C 598.084 -0.110911 2.28931 0
M  V30 6306 C 599.097 -0.808086 1.41329 0
M  V30 6307 O 600.286 -0.669396 1.65473 0
M  V30 6308 C 597.386 -1.17928 3.1772 0
M  V30 6309 C 596.559 -0.564458 4.33743 0
M  V30 6310 C 595.618 -1.5269 5.0356 0
M  V30 6311 O 594.644 -1.04372 5.59549 0
M  V30 6312 N 595.846 -2.86123 5.05088 0
M  V30 6313 H 598.611 0.614758 2.93327 0
M  V30 6314 H 596.172 0.473171 1.54831 0
M  V30 6315 H 598.164 -1.82348 3.61291 0
M  V30 6316 H 596.734 -1.80717 2.55069 0
M  V30 6317 H 595.954 0.258373 3.93352 0
M  V30 6318 H 597.242 -0.134355 5.08623 0
M  V30 6319 H 596.64 -3.27959 4.60933 0
M  V30 6320 H 595.197 -3.45901 5.52445 0
M  V30 6321 N 598.631 -1.53133 0.372548 0
M  V30 6322 C 600.042 -1.86404 -0.105155 0
M  V30 6323 C 600.393 -1.29289 -1.47576 0
M  V30 6324 O 599.518 -0.617646 -2.07398 0
M  V30 6325 C 600.113 -3.38223 -0.197588 0
M  V30 6326 C 598.672 -3.71266 -0.619556 0
M  V30 6327 C 597.819 -2.76353 0.228919 0
M  V30 6328 H 600.77 -1.47282 0.591077 0
M  V30 6329 H 600.791 -3.66577 -1.01987 0
M  V30 6330 H 600.303 -3.79763 0.800099 0
M  V30 6331 H 598.404 -3.35287 -1.62522 0
M  V30 6332 H 598.517 -4.77515 -0.389332 0
M  V30 6333 H 596.881 -2.52888 -0.303271 0
M  V30 6334 H 597.664 -3.20728 1.22428 0
M  V30 6335 N 600.109 -0.101901 -1.5727 0
M  V30 6336 C 601.039 0.851544 -2.17419 0
M  V30 6337 C 602.02 1.28942 -1.10941 0
M  V30 6338 O 603.205 1.35509 -1.39107 0
M  V30 6339 C 600.335 2.10816 -2.75996 0
M  V30 6340 C 599.289 1.80867 -3.87906 0
M  V30 6341 C 598.615 3.13413 -4.33216 0
M  V30 6342 C 599.915 1.0903 -5.10793 0
M  V30 6343 H 601.609 0.350381 -2.97343 0
M  V30 6344 H 599.155 0.16709 -1.43027 0
M  V30 6345 H 601.108 2.77959 -3.16729 0
M  V30 6346 H 599.832 2.63227 -1.93337 0
M  V30 6347 H 598.491 1.16119 -3.47724 0
M  V30 6348 H 598.139 3.63725 -3.47438 0
M  V30 6349 H 597.839 2.94155 -5.08671 0
M  V30 6350 H 599.363 3.81704 -4.76586 0
M  V30 6351 H 600.777 1.66295 -5.48652 0
M  V30 6352 H 599.174 0.99927 -5.91722 0
M  V30 6353 H 600.244 0.0741704 -4.84843 0
M  V30 6354 N 601.587 1.56661 0.17182 0
M  V30 6355 C 602.836 1.81158 0.886831 0
M  V30 6356 C 603.149 0.679072 1.83434 0
M  V30 6357 O 604.355 0.808964 2.59168 0
M  V30 6358 C 602.811 3.20999 1.6275 0
M  V30 6359 C 602.419 4.42117 0.723652 0
M  V30 6360 C 604.163 3.5479 2.33076 0
M  V30 6361 C 602.07 5.7298 1.46452 0
M  V30 6362 H 601 0.675543 0.334899 0
M  V30 6363 H 603.651 1.82967 0.139765 0
M  V30 6364 H 602.033 3.13506 2.4193 0
M  V30 6365 H 603.207 4.60789 -0.0311485 0
M  V30 6366 H 601.522 4.16197 0.130063 0
M  V30 6367 H 604.119 4.49806 2.89099 0
M  V30 6368 H 604.462 2.79646 3.08389 0
M  V30 6369 H 604.995 3.63834 1.6084 0
M  V30 6370 H 601.734 6.51152 0.753729 0
M  V30 6371 H 601.254 5.58285 2.19266 0
M  V30 6372 H 602.933 6.14916 2.01214 0
M  V30 6373 N 603.065 -0.440357 1.51323 0
M  V30 6374 C 604.313 -1.18769 1.63518 0
M  V30 6375 C 604.634 -1.91793 0.352201 0
M  V30 6376 O 603.904 -1.85432 -0.631811 0
M  V30 6377 H 602.484 -0.441408 0.602634 0
M  V30 6378 H 605.146 -0.505162 1.8824 0
M  V30 6379 H 604.242 -1.91892 2.46138 0
M  V30 6380 N 604.543 -1.41418 -0.695603 0
M  V30 6381 C 605.49 -1.43264 -1.80954 0
M  V30 6382 C 606.46 -0.287016 -1.63601 0
M  V30 6383 O 607.645 -0.488054 -1.84452 0
M  V30 6384 C 604.785 -1.32054 -3.18835 0
M  V30 6385 C 603.898 -2.56485 -3.4762 0
M  V30 6386 C 603.033 -2.3757 -4.75115 0
M  V30 6387 C 602.072 -3.57477 -4.96867 0
M  V30 6388 N 601.209 -3.37632 -6.15588 0
M  V30 6389 H 606.049 -2.38467 -1.78711 0
M  V30 6390 H 603.586 -1.18415 -0.872715 0
M  V30 6391 H 605.544 -1.23558 -3.98484 0
M  V30 6392 H 604.174 -0.404592 -3.20254 0
M  V30 6393 H 603.226 -2.75432 -2.62376 0
M  V30 6394 H 604.538 -3.45678 -3.59594 0
M  V30 6395 H 603.692 -2.2654 -5.62818 0
M  V30 6396 H 602.431 -1.45834 -4.65386 0
M  V30 6397 H 601.436 -3.68961 -4.07612 0
M  V30 6398 H 602.661 -4.50167 -5.08455 0
M  V30 6399 H 600.607 -2.48596 -6.07072 0
M  V30 6400 H 600.524 -4.20401 -6.2833 0
M  V30 6401 H 601.792 -3.30375 -7.06026 0
M  V30 6402 N 606.021 0.929856 -1.27246 0
M  V30 6403 C 607.267 1.6798 -1.13625 0
M  V30 6404 C 607.6 1.91586 0.317589 0
M  V30 6405 O 606.875 1.50467 1.23247 0
M  V30 6406 C 607.158 3.04766 -1.91806 0
M  V30 6407 C 607.011 2.88415 -3.45162 0
M  V30 6408 C 608.33 4.05063 -1.72082 0
M  V30 6409 H 605.449 0.609632 -0.414147 0
M  V30 6410 H 608.091 1.0792 -1.56376 0
M  V30 6411 H 606.241 3.56034 -1.55474 0
M  V30 6412 H 607.913 2.44282 -3.91311 0
M  V30 6413 H 606.156 2.23802 -3.71611 0
M  V30 6414 H 606.827 3.85482 -3.95105 0
M  V30 6415 H 609.303 3.62798 -2.03757 0
M  V30 6416 H 608.179 4.98765 -2.29182 0
M  V30 6417 H 608.44 4.37021 -0.668206 0
M  V30 6418 N 607.499 1.09233 1.13605 0
M  V30 6419 C 608.745 0.838255 1.85324 0
M  V30 6420 C 609.1 -0.629314 1.81817 0
M  V30 6421 O 608.393 -1.45729 1.24393 0
M  V30 6422 C 608.587 1.305 3.32723 0
M  V30 6423 C 608.416 2.81641 3.50583 0
M  V30 6424 C 607.186 3.49494 3.64941 0
M  V30 6425 C 609.384 3.79789 3.46792 0
M  V30 6426 N 607.366 4.89082 3.71042 0
M  V30 6427 C 608.737 5.05319 3.59239 0
M  V30 6428 C 610.792 3.72673 3.30181 0
M  V30 6429 C 609.495 6.24574 3.56791 0
M  V30 6430 C 611.521 4.91413 3.29039 0
M  V30 6431 C 610.883 6.15785 3.42035 0
M  V30 6432 H 606.982 0.359572 0.69443 0
M  V30 6433 H 609.566 1.39232 1.36098 0
M  V30 6434 H 607.737 0.778411 3.8052 0
M  V30 6435 H 609.469 0.996465 3.92241 0
M  V30 6436 H 606.224 2.9992 3.66531 0
M  V30 6437 H 606.648 5.61787 3.77789 0
M  V30 6438 H 611.29 2.77444 3.19037 0
M  V30 6439 H 609.008 7.20105 3.66708 0
M  V30 6440 H 612.594 4.87604 3.17386 0
M  V30 6441 H 611.474 7.06126 3.41111 0
M  V30 6442 N 608.977 -1.30795 0.87923 0
M  V30 6443 C 610.388 -1.78535 0.546093 0
M  V30 6444 C 610.739 -1.72354 -0.937467 0
M  V30 6445 O 609.864 -1.2969 -1.73233 0
M  V30 6446 C 610.459 -3.24181 0.9845 0
M  V30 6447 C 609.018 -3.69779 0.702871 0
M  V30 6448 C 608.165 -2.51377 1.17068 0
M  V30 6449 H 611.116 -1.17746 1.06403 0
M  V30 6450 H 611.137 -3.79227 0.311045 0
M  V30 6451 H 610.649 -3.28647 2.06429 0
M  V30 6452 H 608.75 -3.70806 -0.365166 0
M  V30 6453 H 608.863 -4.61507 1.28639 0
M  V30 6454 H 607.227 -2.47768 0.590172 0
M  V30 6455 H 608.01 -2.58584 2.25808 0
M  V30 6456 N 610.455 -0.639598 -1.44038 0
M  V30 6457 C 611.703 -0.147188 -2.01563 0
M  V30 6458 C 612.024 1.2384 -1.50628 0
M  V30 6459 O 611.294 1.82452 -0.713316 0
M  V30 6460 H 609.874 -0.0514231 -0.745228 0
M  V30 6461 H 612.536 -0.828205 -1.76428 0
M  V30 6462 H 611.632 -0.121358 -3.11864 0
M  V30 6463 N 611.933 1.52934 -0.380664 0
M  V30 6464 C 613.158 2.06363 0.207157 0
M  V30 6465 C 613.583 1.25122 1.4045 0
M  V30 6466 O 612.941 0.274062 1.79217 0
M  V30 6467 C 612.989 3.56162 0.563996 0
M  V30 6468 O 612.093 3.77552 1.65917 0
M  V30 6469 H 611.434 0.663468 0.0265859 0
M  V30 6470 H 613.964 1.9719 -0.545635 0
M  V30 6471 H 613.974 3.99453 0.830752 0
M  V30 6472 H 612.649 4.14732 -0.311427 0
M  V30 6473 H 611.226 3.46154 1.3868 0
M  V30 6474 N 613.412 0.11024 1.57214 0
M  V30 6475 C 614.64 -0.557834 1.99238 0
M  V30 6476 C 615.055 -1.60778 0.989734 0
M  V30 6477 O 614.412 -1.82491 -0.0186092 0
M  V30 6478 C 614.463 -1.19189 3.41286 0
M  V30 6479 O 614.184 -0.183919 4.37714 0
M  V30 6480 C 615.685 -1.94413 3.98395 0
M  V30 6481 H 612.905 -0.148392 0.654386 0
M  V30 6482 H 615.449 0.193996 2.03578 0
M  V30 6483 H 613.604 -1.89456 3.37913 0
M  V30 6484 H 614.018 -0.643475 5.20538 0
M  V30 6485 H 615.492 -2.34116 4.99894 0
M  V30 6486 H 615.969 -2.81592 3.3705 0
M  V30 6487 H 616.575 -1.28928 4.05287 0
M  V30 6488 N 614.89 -1.56749 -0.16351 0
M  V30 6489 C 615.853 -1.96121 -1.18613 0
M  V30 6490 C 616.853 -0.845765 -1.36761 0
M  V30 6491 O 618.043 -1.11268 -1.34033 0
M  V30 6492 C 615.175 -2.26282 -2.54969 0
M  V30 6493 H 616.368 -2.87639 -0.848764 0
M  V30 6494 H 613.921 -1.50928 -0.406251 0
M  V30 6495 H 614.656 -1.37504 -2.93706 0
M  V30 6496 H 614.441 -3.07595 -2.43162 0
M  V30 6497 H 615.931 -2.57638 -3.28653 0
M  V30 6498 N 616.368 0.432326 -1.51554 0
M  V30 6499 C 617.615 1.18134 -1.64471 0
M  V30 6500 C 617.943 1.91076 -0.363349 0
M  V30 6501 O 617.198 1.84492 0.65279 0
M  V30 6502 C 617.497 2.21907 -2.80164 0
M  V30 6503 C 617.163 1.65941 -4.19255 0
M  V30 6504 C 615.825 1.50401 -4.57092 0
M  V30 6505 C 618.177 1.24843 -5.06027 0
M  V30 6506 C 615.505 0.922443 -5.79403 0
M  V30 6507 C 617.857 0.68113 -6.28922 0
M  V30 6508 C 616.521 0.512673 -6.65528 0
M  V30 6509 H 615.791 0.432283 -0.601841 0
M  V30 6510 H 618.438 0.471701 -1.856 0
M  V30 6511 H 616.743 2.98928 -2.53277 0
M  V30 6512 H 618.44 2.79691 -2.87357 0
M  V30 6513 H 615.03 1.79014 -3.89425 0
M  V30 6514 H 619.214 1.35667 -4.77397 0
M  V30 6515 H 614.47 0.779733 -6.06408 0
M  V30 6516 H 618.644 0.35418 -6.95499 0
M  V30 6517 H 616.271 0.0599084 -7.60176 0
M  V30 6518 N 617.846 1.41785 0.688094 0
M  V30 6519 C 619.257 1.3701 1.26828 0
M  V30 6520 C 619.608 0.056835 1.96118 0
M  V30 6521 O 618.733 -0.84475 1.99231 0
M  V30 6522 C 619.328 2.48168 2.30648 0
M  V30 6523 C 617.887 2.46766 2.84224 0
M  V30 6524 C 617.034 2.27633 1.58361 0
M  V30 6525 H 619.985 1.51192 0.482351 0
M  V30 6526 H 620.006 2.17655 3.121 0
M  V30 6527 H 619.518 3.43735 1.80188 0
M  V30 6528 H 617.619 1.54978 3.3884 0
M  V30 6529 H 617.732 3.43342 3.34145 0
M  V30 6530 H 616.096 1.75648 1.84445 0
M  V30 6531 H 616.879 3.25238 1.09887 0
M  V30 6532 N 619.324 -0.923095 1.27737 0
M  V30 6533 C 620.601 -1.64989 1.05062 0
M  V30 6534 C 620.981 -2.07018 -0.413124 0
M  V30 6535 O 620.329 -1.80797 -1.39731 0
M  V30 6536 C 620.539 -2.84847 2.01652 0
M  V30 6537 C 621.887 -3.56083 2.31279 0
M  V30 6538 O 622.911 -2.94981 1.99662 0
M  V30 6539 O 621.77 -4.66182 2.85196 0
M  V30 6540 H 618.864 -0.723357 0.400853 0
M  V30 6541 H 621.41 -0.973224 1.3902 0
M  V30 6542 H 620.182 -2.50814 3.00347 0
M  V30 6543 H 619.805 -3.60231 1.68284 0
M  V30 6544 N 620.802 -1.09834 -1.13024 0
M  V30 6545 C 622.049 -0.83695 -1.84395 0
M  V30 6546 C 622.377 0.637463 -1.83757 0
M  V30 6547 O 621.632 1.48554 -1.27398 0
M  V30 6548 C 621.931 -1.32263 -3.32026 0
M  V30 6549 C 621.597 -2.80739 -3.52841 0
M  V30 6550 C 620.259 -3.21286 -3.5823 0
M  V30 6551 C 622.611 -3.76449 -3.60466 0
M  V30 6552 C 619.939 -4.56308 -3.68781 0
M  V30 6553 C 622.291 -5.11266 -3.72546 0
M  V30 6554 C 620.955 -5.51397 -3.76189 0
M  V30 6555 H 620.225 -0.306262 -0.674748 0
M  V30 6556 H 622.872 -1.37385 -1.33408 0
M  V30 6557 H 621.177 -0.705618 -3.85394 0
M  V30 6558 H 622.874 -1.09695 -3.85705 0
M  V30 6559 H 619.464 -2.48363 -3.49305 0
M  V30 6560 H 623.648 -3.46234 -3.55578 0
M  V30 6561 H 618.904 -4.86832 -3.69871 0
M  V30 6562 H 623.078 -5.85279 -3.77388 0
M  V30 6563 H 620.705 -6.56017 -3.84117 0
M  V30 6564 N 622.28 1.30327 -0.886154 0
M  V30 6565 C 623.508 2.00254 -0.520176 0
M  V30 6566 C 623.923 1.66419 0.891637 0
M  V30 6567 O 623.28 0.901951 1.58654 0
M  V30 6568 C 623.331 3.54916 -0.686775 0
M  V30 6569 O 623.052 3.87547 -2.04301 0
M  V30 6570 C 624.553 4.42115 -0.323945 0
M  V30 6571 H 621.773 0.640204 -0.200947 0
M  V30 6572 H 624.317 1.66183 -1.19178 0
M  V30 6573 H 622.472 3.8735 -0.0625273 0
M  V30 6574 H 622.886 4.82247 -2.06249 0
M  V30 6575 H 624.36 5.49808 -0.491407 0
M  V30 6576 H 624.837 4.32953 0.73811 0
M  V30 6577 H 625.443 4.15129 -0.924565 0
M  V30 6578 N 623.758 0.647228 1.43697 0
M  V30 6579 C 624.706 -0.0600105 2.32523 0
M  V30 6580 C 625.7 -0.819277 1.48271 0
M  V30 6581 O 626.906 -0.730356 1.64517 0
M  V30 6582 H 623.281 -0.0381872 0.75103 0
M  V30 6583 H 625.252 0.706978 2.89904 0
M  V30 6584 C 624.001 -1.0169 3.32497 0
M  V30 6585 H 623.324 -0.442083 3.97348 0
M  V30 6586 H 624.764 -1.48095 3.97296 0
M  V30 6587 C 623.223 -2.11002 2.6264 0
M  V30 6588 O 623.753 -3.19302 2.4374 0
M  V30 6589 N 621.959 -1.87388 2.22113 0
M  V30 6590 H 621.506 -0.993174 2.37684 0
M  V30 6591 H 621.464 -2.60723 1.75701 0
M  V30 6592 N 625.236 -1.5273 0.388769 0
M  V30 6593 C 626.647 -1.86505 -0.0853788 0
M  V30 6594 C 626.998 -1.30847 -1.46197 0
M  V30 6595 O 626.123 -0.639609 -2.06732 0
M  V30 6596 C 626.718 -3.38414 -0.161703 0
M  V30 6597 C 625.277 -3.71902 -0.580144 0
M  V30 6598 C 624.424 -2.76095 0.258218 0
M  V30 6599 H 627.375 -1.46647 0.606665 0
M  V30 6600 H 627.396 -3.67638 -0.980936 0
M  V30 6601 H 626.908 -3.78893 0.840333 0
M  V30 6602 H 625.009 -3.36992 -1.58957 0
M  V30 6603 H 625.122 -4.77902 -0.338663 0
M  V30 6604 H 623.486 -2.53195 -0.276432 0
M  V30 6605 H 624.269 -3.19411 1.25822 0
M  V30 6606 N 626.714 -0.118576 -1.57153 0
M  V30 6607 C 627.942 0.54726 -1.99531 0
M  V30 6608 C 628.357 1.60251 -0.998246 0
M  V30 6609 O 627.714 1.82498 0.00893106 0
M  V30 6610 C 627.765 1.17378 -3.41913 0
M  V30 6611 O 627.486 0.160703 -4.37805 0
M  V30 6612 C 628.987 1.92297 -3.9942 0
M  V30 6613 H 626.207 0.144919 -0.655164 0
M  V30 6614 H 628.751 -0.20479 -2.03472 0
M  V30 6615 H 626.906 1.87661 -3.38913 0
M  V30 6616 H 627.32 0.61586 -5.20872 0
M  V30 6617 H 628.794 2.31462 -5.01128 0
M  V30 6618 H 629.271 2.79801 -3.38538 0
M  V30 6619 H 629.877 1.26777 -4.05965 0
M  V30 6620 N 628.193 1.56834 0.155195 0
M  V30 6621 C 629.156 1.96748 1.17571 0
M  V30 6622 C 630.156 0.853006 1.3631 0
M  V30 6623 O 631.346 1.11978 1.33441 0
M  V30 6624 C 628.478 2.27631 2.53765 0
M  V30 6625 H 629.671 2.88085 0.833498 0
M  V30 6626 H 627.224 1.51141 0.398242 0
M  V30 6627 H 627.959 1.39059 2.92973 0
M  V30 6628 H 627.744 3.0888 2.41527 0
M  V30 6629 H 629.234 2.59377 3.27282 0
M  V30 6630 N 629.671 -0.424282 1.51781 0
M  V30 6631 C 630.601 -1.52305 1.7699 0
M  V30 6632 C 631.582 -1.5839 0.620209 0
M  V30 6633 O 632.767 -1.73908 0.864268 0
M  V30 6634 C 629.897 -2.90271 1.90683 0
M  V30 6635 C 628.851 -2.99043 3.06198 0
M  V30 6636 C 628.177 -4.39116 3.05092 0
M  V30 6637 C 629.477 -2.7192 4.45934 0
M  V30 6638 H 631.171 -1.31461 2.68995 0
M  V30 6639 H 628.717 -0.630985 1.29439 0
M  V30 6640 H 630.67 -3.6711 2.06901 0
M  V30 6641 H 629.394 -3.12376 0.953365 0
M  V30 6642 H 628.053 -2.24646 2.89706 0
M  V30 6643 H 627.701 -4.58207 2.07498 0
M  V30 6644 H 627.401 -4.45912 3.82669 0
M  V30 6645 H 628.925 -5.17911 3.2342 0
M  V30 6646 H 630.339 -3.38487 4.62709 0
M  V30 6647 H 628.736 -2.90111 5.25315 0
M  V30 6648 H 629.806 -1.67445 4.55072 0
M  V30 6649 N 631.149 -1.42148 -0.680565 0
M  V30 6650 C 632.112 -1.4488 -1.77602 0
M  V30 6651 C 633.112 -0.337209 -1.57224 0
M  V30 6652 O 634.302 -0.597778 -1.63622 0
M  V30 6653 C 631.434 -1.27483 -3.16166 0
M  V30 6654 H 632.627 -2.42412 -1.76568 0
M  V30 6655 H 630.18 -1.28511 -0.889645 0
M  V30 6656 H 630.915 -0.30851 -3.22829 0
M  V30 6657 H 630.7 -2.08037 -3.3236 0
M  V30 6658 H 632.19 -1.32265 -3.96101 0
M  V30 6659 N 632.627 0.916307 -1.28225 0
M  V30 6660 C 633.873 1.66794 -1.1641 0
M  V30 6661 C 634.228 1.90278 0.284986 0
M  V30 6662 O 633.521 1.49023 1.20427 0
M  V30 6663 C 633.715 3.03125 -1.8934 0
M  V30 6664 C 633.544 2.92947 -3.41192 0
M  V30 6665 C 632.314 2.9461 -4.10528 0
M  V30 6666 C 634.512 2.7121 -4.36978 0
M  V30 6667 N 632.494 2.74993 -5.48864 0
M  V30 6668 C 633.865 2.60411 -5.6266 0
M  V30 6669 C 635.92 2.56187 -4.26934 0
M  V30 6670 C 634.623 2.3612 -6.79441 0
M  V30 6671 C 636.649 2.33275 -5.43449 0
M  V30 6672 C 636.011 2.23228 -6.68093 0
M  V30 6673 H 632.11 0.616654 -0.480896 0
M  V30 6674 H 634.694 1.08237 -1.61842 0
M  V30 6675 H 632.865 3.59774 -1.46346 0
M  V30 6676 H 634.597 3.67294 -1.69932 0
M  V30 6677 H 631.352 3.0527 -3.62087 0
M  V30 6678 H 631.776 2.68284 -6.21573 0
M  V30 6679 H 636.418 2.62707 -3.31278 0
M  V30 6680 H 634.136 2.28339 -7.75169 0
M  V30 6681 H 637.722 2.22519 -5.37565 0
M  V30 6682 H 636.602 2.05741 -7.5673 0
M  V30 6683 N 634.105 1.10431 1.1244 0
M  V30 6684 C 635.351 0.857864 1.84424 0
M  V30 6685 C 635.706 -0.609995 1.82474 0
M  V30 6686 O 634.999 -1.44401 1.25932 0
M  V30 6687 C 635.193 1.34022 3.3132 0
M  V30 6688 C 635.022 2.85344 3.47576 0
M  V30 6689 C 633.792 3.53345 3.61213 0
M  V30 6690 C 635.99 3.83446 3.42744 0
M  V30 6691 N 633.972 4.92989 3.65834 0
M  V30 6692 C 635.343 5.09101 3.5386 0
M  V30 6693 C 637.398 3.76154 3.26209 0
M  V30 6694 C 636.101 6.28323 3.50146 0
M  V30 6695 C 638.127 4.94876 3.23809 0
M  V30 6696 C 637.489 6.19378 3.35485 0
M  V30 6697 H 633.588 0.366917 0.690577 0
M  V30 6698 H 636.172 1.40668 1.34613 0
M  V30 6699 H 634.343 0.818727 3.79673 0
M  V30 6700 H 636.075 1.03801 3.91162 0
M  V30 6701 H 632.83 3.03791 3.63329 0
M  V30 6702 H 633.254 5.65762 3.71809 0
M  V30 6703 H 637.896 2.80813 3.16076 0
M  V30 6704 H 635.614 7.23953 3.5905 0
M  V30 6705 H 639.2 4.90942 3.12197 0
M  V30 6706 H 638.08 7.09704 3.33602 0
M  V30 6707 N 635.583 -1.29855 0.893053 0
M  V30 6708 C 636.493 -2.31661 0.370157 0
M  V30 6709 C 637.509 -1.65677 -0.531723 0
M  V30 6710 O 638.685 -1.9691 -0.422902 0
M  V30 6711 C 635.75 -3.44388 -0.399741 0
M  V30 6712 C 634.811 -4.2598 0.532861 0
M  V30 6713 C 634.044 -5.33324 -0.200388 0
M  V30 6714 O 634.267 -5.52305 -1.42531 0
M  V30 6715 O 633.201 -6.00188 0.453668 0
M  V30 6716 H 637.027 -2.78354 1.2146 0
M  V30 6717 H 634.612 -1.34171 0.657153 0
M  V30 6718 H 636.494 -4.13037 -0.835358 0
M  V30 6719 H 635.169 -2.99815 -1.22035 0
M  V30 6720 H 634.076 -3.59998 1.01746 0
M  V30 6721 H 635.409 -4.74178 1.3197 0
M  V30 6722 N 637.061 -0.65484 -1.43351 0
M  V30 6723 C 638.338 -0.0987371 -1.95351 0
M  V30 6724 C 638.718 1.38161 -1.59608 0
M  V30 6725 O 638.066 2.10791 -0.882021 0
M  V30 6726 C 638.276 -0.346684 -3.47274 0
M  V30 6727 C 639.624 -0.25249 -4.23849 0
M  V30 6728 O 640.648 -0.279332 -3.55103 0
M  V30 6729 O 639.507 -0.177584 -5.46211 0
M  V30 6730 H 636.601 0.0086829 -0.826954 0
M  V30 6731 H 639.147 -0.728189 -1.53282 0
M  V30 6732 H 637.919 -1.37296 -3.66423 0
M  V30 6733 H 637.542 0.315757 -3.96344 0
M  V30 6734 N 638.539 1.52521 -0.396863 0
M  V30 6735 C 639.472 2.23118 0.478926 0
M  V30 6736 C 640.45 1.23475 1.05796 0
M  V30 6737 O 641.634 1.52486 1.10817 0
M  V30 6738 C 638.761 2.95028 1.66362 0
M  V30 6739 C 637.807 4.09002 1.20913 0
M  V30 6740 S 638.64 5.35182 0.184407 0
M  V30 6741 C 639.796 6.10616 1.37471 0
M  V30 6742 H 640.029 2.97056 -0.120542 0
M  V30 6743 H 637.562 1.53334 -0.18109 0
M  V30 6744 H 639.52 3.37066 2.34301 0
M  V30 6745 H 638.181 2.20756 2.23441 0
M  V30 6746 H 637.374 4.58445 2.09389 0
M  V30 6747 H 636.976 3.69016 0.608559 0
M  V30 6748 H 639.268 6.37247 2.30048 0
M  V30 6749 H 640.211 7.02084 0.921051 0
M  V30 6750 H 640.619 5.41499 1.59495 0
M  V30 6751 N 640.017 0.126909 1.57088 0
M  V30 6752 C 641.263 -0.529952 1.95753 0
M  V30 6753 C 641.596 -1.65823 1.01077 0
M  V30 6754 O 640.871 -1.94437 0.0494162 0
M  V30 6755 C 641.154 -1.05517 3.44294 0
M  V30 6756 C 641.007 0.0702253 4.49745 0
M  V30 6757 C 642.326 -1.9435 3.94862 0
M  V30 6758 H 639.445 -0.191168 0.711775 0
M  V30 6759 H 642.087 0.204071 1.88901 0
M  V30 6760 H 640.237 -1.68069 3.50264 0
M  V30 6761 H 641.909 0.705834 4.55868 0
M  V30 6762 H 640.152 0.732259 4.27575 0
M  V30 6763 H 640.823 -0.338642 5.5096 0
M  V30 6764 H 643.299 -1.41658 3.91244 0
M  V30 6765 H 642.175 -2.28015 4.993 0
M  V30 6766 H 642.436 -2.87299 3.36024 0
M  V30 6767 N 641.495 -1.56914 -0.146875 0
M  V30 6768 C 642.458 -1.97368 -1.16526 0
M  V30 6769 C 643.458 -0.860223 -1.35856 0
M  V30 6770 O 644.648 -1.12684 -1.32846 0
M  V30 6771 C 641.78 -2.28974 -2.52555 0
M  V30 6772 H 642.973 -2.88523 -0.818209 0
M  V30 6773 H 640.526 -1.5135 -0.390221 0
M  V30 6774 H 641.261 -1.40611 -2.92231 0
M  V30 6775 H 641.046 -3.10157 -2.39886 0
M  V30 6776 H 642.536 -2.61109 -3.25902 0
M  V30 6777 N 642.974 0.416227 -1.52004 0
M  V30 6778 C 643.884 1.53147 -1.77717 0
M  V30 6779 C 644.9 1.609 -0.662368 0
M  V30 6780 O 646.076 1.77747 -0.946991 0
M  V30 6781 C 643.141 2.88948 -1.91598 0
M  V30 6782 C 642.202 2.9114 -3.15493 0
M  V30 6783 C 641.435 4.20464 -3.28703 0
M  V30 6784 O 641.658 5.13981 -2.47345 0
M  V30 6785 O 640.592 4.29368 -4.21813 0
M  V30 6786 H 644.418 1.34357 -2.72363 0
M  V30 6787 H 642.003 0.601373 -1.36762 0
M  V30 6788 H 643.885 3.69505 -2.02593 0
M  V30 6789 H 642.56 3.07821 -1.00141 0
M  V30 6790 H 641.467 2.09461 -3.09962 0
M  V30 6791 H 642.8 2.77216 -4.06709 0
M  V30 6792 N 644.452 1.42507 0.673017 0
M  V30 6793 C 645.699 1.43072 1.43306 0
M  V30 6794 C 646.027 0.0478004 1.94441 0
M  V30 6795 O 645.282 -0.944106 1.71421 0
M  V30 6796 C 645.581 2.40351 2.64511 0
M  V30 6797 C 645.247 3.8669 2.31908 0
M  V30 6798 C 643.909 4.26551 2.22728 0
M  V30 6799 C 646.261 4.78991 2.05467 0
M  V30 6800 C 643.589 5.56691 1.85234 0
M  V30 6801 C 645.941 6.09476 1.69477 0
M  V30 6802 C 644.605 6.48334 1.58808 0
M  V30 6803 H 643.875 0.523536 0.524395 0
M  V30 6804 H 646.522 1.75459 0.76723 0
M  V30 6805 H 644.827 2.01297 3.36135 0
M  V30 6806 H 646.524 2.38051 3.22696 0
M  V30 6807 H 643.114 3.55132 2.39956 0
M  V30 6808 H 647.298 4.48982 2.11492 0
M  V30 6809 H 642.554 5.85657 1.75545 0
M  V30 6810 H 646.728 6.80482 1.48043 0
M  V30 6811 H 644.355 7.49084 1.29525 0
M  V30 6812 N 645.93 -0.909495 1.28709 0
M  V30 6813 C 646.88 -1.9991 1.09636 0
M  V30 6814 C 647.864 -1.60889 0.01872 0
M  V30 6815 O 649.056 -1.75374 0.239338 0
M  V30 6816 C 646.185 -3.34675 0.764702 0
M  V30 6817 C 645.271 -3.80085 1.8814 0
M  V30 6818 N 645.662 -3.97824 3.12361 0
M  V30 6819 C 643.96 -4.09278 1.77221 0
M  V30 6820 C 644.661 -4.35928 3.85151 0
M  V30 6821 N 643.637 -4.44426 3.13028 0
M  V30 6822 H 647.439 -2.11681 2.03883 0
M  V30 6823 H 644.953 -1.09763 1.1969 0
M  V30 6824 H 646.95 -4.12426 0.609132 0
M  V30 6825 H 645.61 -3.24255 -0.169952 0
M  V30 6826 H 646.621 -3.83626 3.47925 0
M  V30 6827 H 643.298 -4.0747 0.909621 0
M  V30 6828 H 644.688 -4.57581 4.92006 0
M  V30 6829 N 647.408 -1.11026 -1.11852 0
M  V30 6830 C 648.685 -0.768347 -1.79877 0
M  V30 6831 C 649.065 0.744261 -1.97545 0
M  V30 6832 O 648.413 1.67271 -1.55669 0
M  V30 6833 C 648.623 -1.52648 -3.13846 0
M  V30 6834 C 649.971 -1.70297 -3.88953 0
M  V30 6835 O 650.995 -1.49037 -3.23522 0
M  V30 6836 O 649.854 -2.05593 -5.06353 0
M  V30 6837 H 646.948 -0.277891 -0.778913 0
M  V30 6838 H 649.494 -1.21343 -1.18633 0
M  V30 6839 H 648.266 -2.55564 -2.96315 0
M  V30 6840 H 647.889 -1.07466 -3.82801 0
M  V30 6841 N 648.886 1.2938 -0.899927 0
M  V30 6842 C 649.818 2.26737 -0.335139 0
M  V30 6843 C 650.831 1.54316 0.518681 0
M  V30 6844 O 652.02 1.75313 0.335803 0
M  V30 6845 C 649.12 3.34558 0.540774 0
M  V30 6846 C 648.293 4.36455 -0.287372 0
M  V30 6847 C 647.352 5.2361 0.52141 0
M  V30 6848 O 646.378 5.69167 -0.0611735 0
M  V30 6849 N 647.58 5.50985 1.82745 0
M  V30 6850 H 650.345 2.75838 -1.17191 0
M  V30 6851 H 647.906 1.42716 -0.764438 0
M  V30 6852 H 649.898 3.89794 1.08825 0
M  V30 6853 H 648.468 2.85272 1.27823 0
M  V30 6854 H 647.688 3.80875 -1.01626 0
M  V30 6855 H 648.976 5.01573 -0.854518 0
M  V30 6856 H 648.374 5.15781 2.32349 0
M  V30 6857 H 646.931 6.09036 2.32204 0
M  V30 6858 N 650.364 0.662433 1.43002 0
M  V30 6859 C 651.61 0.179857 2.02001 0
M  V30 6860 C 651.943 -1.20625 1.52195 0
M  V30 6861 O 651.218 -1.80726 0.718911 0
M  V30 6862 C 651.501 0.200845 3.59539 0
M  V30 6863 C 651.354 1.62153 4.19555 0
M  V30 6864 C 652.673 -0.457738 4.37713 0
M  V30 6865 H 649.792 0.0668305 0.733964 0
M  V30 6866 H 652.434 0.84487 1.70182 0
M  V30 6867 H 650.584 -0.365411 3.86778 0
M  V30 6868 H 652.256 2.23908 4.03315 0
M  V30 6869 H 650.499 2.16601 3.75854 0
M  V30 6870 H 651.17 1.58799 5.28665 0
M  V30 6871 H 653.646 0.0241495 4.16093 0
M  V30 6872 H 652.522 -0.412363 5.47349 0
M  V30 6873 H 652.783 -1.53336 4.14657 0
M  V30 6874 N 651.842 -1.52309 0.404946 0
M  V30 6875 C 653.253 -1.86585 -0.0655926 0
M  V30 6876 C 653.604 -1.3239 -1.44801 0
M  V30 6877 O 652.729 -0.6615 -2.06042 0
M  V30 6878 C 653.324 -3.38566 -0.125801 0
M  V30 6879 C 651.883 -3.72497 -0.540666 0
M  V30 6880 C 651.03 -2.75806 0.287487 0
M  V30 6881 H 653.981 -1.45995 0.622185 0
M  V30 6882 H 654.002 -3.68658 -0.941888 0
M  V30 6883 H 653.514 -3.77981 0.880473 0
M  V30 6884 H 651.615 -3.38659 -1.55373 0
M  V30 6885 H 651.728 -4.78234 -0.287956 0
M  V30 6886 H 650.092 -2.53474 -0.249561 0
M  V30 6887 H 650.875 -3.18059 1.29203 0
M  V30 6888 N 653.32 -0.135238 -1.57019 0
M  V30 6889 C 654.567 0.518794 -1.95742 0
M  V30 6890 C 654.895 1.65642 -1.01947 0
M  V30 6891 O 654.15 1.95645 -0.0464016 0
M  V30 6892 C 654.449 1.07694 -3.40788 0
M  V30 6893 C 654.115 0.058992 -4.50861 0
M  V30 6894 C 652.777 -0.220872 -4.80693 0
M  V30 6895 C 655.129 -0.633856 -5.17331 0
M  V30 6896 C 652.457 -1.19959 -5.74305 0
M  V30 6897 C 654.809 -1.60131 -6.11997 0
M  V30 6898 C 653.473 -1.889 -6.40213 0
M  V30 6899 H 652.743 0.18984 -0.716269 0
M  V30 6900 H 655.39 -0.219581 -1.90237 0
M  V30 6901 H 653.695 1.89241 -3.43067 0
M  V30 6902 H 655.392 1.59137 -3.68071 0
M  V30 6903 H 651.982 0.287304 -4.27636 0
M  V30 6904 H 656.166 -0.430823 -4.94427 0
M  V30 6905 H 651.422 -1.42905 -5.94465 0
M  V30 6906 H 655.596 -2.14376 -6.62583 0
M  V30 6907 H 653.223 -2.64891 -7.12556 0
M  V30 6908 N 654.798 1.5699 0.138552 0
M  V30 6909 C 656.075 1.74741 0.87891 0
M  V30 6910 C 656.455 0.705522 1.98961 0
M  V30 6911 O 655.803 -0.274066 2.2685 0
M  V30 6912 C 656.013 3.1909 1.4136 0
M  V30 6913 C 657.361 3.81023 1.87368 0
M  V30 6914 O 658.385 3.22571 1.51084 0
M  V30 6915 O 657.244 4.83722 2.54312 0
M  V30 6916 H 654.338 0.714781 0.415953 0
M  V30 6917 H 656.884 1.69248 0.123817 0
M  V30 6918 H 655.656 3.86424 0.61579 0
M  V30 6919 H 655.279 3.29043 2.23196 0
M  V30 6920 N 656.276 -0.40816 1.52223 0
M  V30 6921 C 657.524 -1.15274 1.66001 0
M  V30 6922 C 657.845 -1.91003 0.392803 0
M  V30 6923 O 657.115 -1.8673 -0.592336 0
M  V30 6924 H 655.695 -0.428526 0.611861 0
M  V30 6925 H 658.357 -0.46512 1.89269 0
M  V30 6926 H 657.453 -1.86628 2.50153 0
M  V30 6927 N 657.755 -1.42862 -0.66545 0
M  V30 6928 C 658.688 -1.41509 -1.79026 0
M  V30 6929 C 659.666 -0.278106 -1.60204 0
M  V30 6930 O 660.85 -0.469792 -1.82552 0
M  V30 6931 C 657.977 -1.21494 -3.1616 0
M  V30 6932 C 657.023 -2.38308 -3.53711 0
M  V30 6933 S 657.856 -4.00852 -3.55075 0
M  V30 6934 C 659.012 -3.83197 -4.94885 0
M  V30 6935 H 659.245 -2.36691 -1.79902 0
M  V30 6936 H 656.778 -1.29746 -0.836977 0
M  V30 6937 H 658.736 -1.10633 -3.95311 0
M  V30 6938 H 657.397 -0.27881 -3.1286 0
M  V30 6939 H 656.59 -2.20076 -4.53412 0
M  V30 6940 H 656.192 -2.45732 -2.81943 0
M  V30 6941 H 658.484 -3.44765 -5.83218 0
M  V30 6942 H 659.427 -4.82607 -5.18166 0
M  V30 6943 H 659.835 -3.15884 -4.67843 0
M  V30 6944 N 659.233 0.902656 -1.29189 0
M  V30 6945 C 660.479 1.6555 -1.18172 0
M  V30 6946 C 660.834 1.90569 0.264788 0
M  V30 6947 O 660.127 1.50292 1.1884 0
M  V30 6948 C 660.321 3.011 -1.92545 0
M  V30 6949 C 660.15 2.89312 -3.4428 0
M  V30 6950 C 658.92 2.90239 -4.1363 0
M  V30 6951 C 661.118 2.6656 -4.3983 0
M  V30 6952 N 659.1 2.69156 -5.5175 0
M  V30 6953 C 660.471 2.54429 -5.6539 0
M  V30 6954 C 662.526 2.51644 -4.29627 0
M  V30 6955 C 661.229 2.289 -6.81907 0
M  V30 6956 C 663.255 2.27498 -5.45892 0
M  V30 6957 C 662.617 2.16129 -6.70423 0
M  V30 6958 H 658.716 0.611519 -0.48741 0
M  V30 6959 H 661.3 1.06514 -1.62981 0
M  V30 6960 H 659.471 3.58202 -1.50154 0
M  V30 6961 H 661.203 3.65471 -1.73818 0
M  V30 6962 H 657.958 3.01412 -3.65305 0
M  V30 6963 H 658.382 2.61676 -6.24383 0
M  V30 6964 H 663.024 2.59178 -3.34045 0
M  V30 6965 H 660.742 2.20104 -7.77547 0
M  V30 6966 H 664.328 2.16805 -5.39895 0
M  V30 6967 H 663.208 1.97703 -7.5887 0
M  V30 6968 N 660.711 1.11618 1.11262 0
M  V30 6969 C 661.96 0.860934 1.82403 0
M  V30 6970 C 662.273 -0.615303 1.8567 0
M  V30 6971 O 663.479 -0.986861 2.52929 0
M  V30 6972 C 661.935 1.49048 3.27586 0
M  V30 6973 C 661.543 3.00089 3.32642 0
M  V30 6974 C 663.287 1.31515 4.03614 0
M  V30 6975 C 661.194 3.56019 4.72234 0
M  V30 6976 H 660.124 0.318423 0.683464 0
M  V30 6977 H 662.775 1.34165 1.25188 0
M  V30 6978 H 661.157 0.937434 3.84744 0
M  V30 6979 H 662.331 3.61813 2.85356 0
M  V30 6980 H 660.646 3.16919 2.70096 0
M  V30 6981 H 663.243 1.70732 5.0671 0
M  V30 6982 H 663.586 0.257917 4.155 0
M  V30 6983 H 664.119 1.83694 3.52848 0
M  V30 6984 H 660.858 4.61463 4.65545 0
M  V30 6985 H 660.378 2.99066 5.19923 0
M  V30 6986 H 662.057 3.54568 5.41193 0
M  V30 6987 N 662.189 -1.289 0.906776 0
M  V30 6988 C 663.466 -1.90221 0.455537 0
M  V30 6989 C 663.846 -1.82251 -1.06527 0
M  V30 6990 O 663.194 -1.25385 -1.91026 0
M  V30 6991 C 663.404 -3.35015 0.97806 0
M  V30 6992 C 664.752 -4.12018 1.02598 0
M  V30 6993 O 665.776 -3.43947 0.926218 0
M  V30 6994 O 664.635 -5.33677 1.17689 0
M  V30 6995 H 661.729 -0.814505 0.143214 0
M  V30 6996 H 664.275 -1.37317 0.997104 0
M  V30 6997 H 663.047 -3.35006 2.02204 0
M  V30 6998 H 662.67 -3.95408 0.416914 0
M  V30 6999 N 663.667 -0.670007 -1.42649 0
M  V30 7000 C 664.6 0.0613623 -2.28117 0
M  V30 7001 C 665.578 0.813414 -1.40792 0
M  V30 7002 O 666.762 0.809529 -1.70232 0
M  V30 7003 C 663.889 1.09399 -3.20546 0
M  V30 7004 C 662.935 0.438064 -4.24244 0
M  V30 7005 S 663.768 -0.800808 -5.29478 0
M  V30 7006 C 664.924 0.23086 -6.25474 0
M  V30 7007 H 665.157 -0.663606 -2.89799 0
M  V30 7008 H 662.69 -0.45939 -1.47407 0
M  V30 7009 H 664.648 1.68469 -3.74337 0
M  V30 7010 H 663.309 1.79137 -2.58009 0
M  V30 7011 H 662.502 1.21707 -4.89084 0
M  V30 7012 H 662.104 -0.0789346 -3.73917 0
M  V30 7013 H 664.396 1.09204 -6.68641 0
M  V30 7014 H 665.339 -0.382945 -7.07064 0
M  V30 7015 H 665.747 0.574191 -5.61572 0
M  V30 7016 N 665.145 1.52092 -0.413018 0
M  V30 7017 C 666.093 2.28681 0.425199 0
M  V30 7018 C 667.087 1.3353 1.04241 0
M  V30 7019 O 668.293 1.50973 0.980166 0
M  V30 7020 H 664.668 0.735661 0.155906 0
M  V30 7021 H 666.639 2.97418 -0.241926 0
M  V30 7022 C 665.388 3.1235 1.5275 0
M  V30 7023 H 664.711 3.85439 1.06191 0
M  V30 7024 H 666.151 3.69038 2.08774 0
M  V30 7025 C 664.61 2.26161 2.49706 0
M  V30 7026 O 665.14 1.90452 3.53682 0
M  V30 7027 N 663.346 1.89854 2.20008 0
M  V30 7028 H 662.893 2.19092 1.35486 0
M  V30 7029 H 662.851 1.3248 2.85125 0
M  V30 7030 N 666.623 0.143563 1.56945 0
M  V30 7031 C 667.533 -0.810562 2.20152 0
M  V30 7032 C 668.549 -1.27431 1.1848 0
M  V30 7033 O 669.725 -1.33221 1.51044 0
M  V30 7034 C 666.79 -2.03353 2.80799 0
M  V30 7035 C 665.851 -1.61936 3.97587 0
M  V30 7036 C 665.084 -2.78403 4.55332 0
M  V30 7037 O 665.307 -3.94521 4.11958 0
M  V30 7038 O 664.241 -2.54073 5.45647 0
M  V30 7039 H 668.067 -0.30253 3.02189 0
M  V30 7040 H 665.652 -0.0832925 1.49168 0
M  V30 7041 H 667.534 -2.74932 3.19359 0
M  V30 7042 H 666.209 -2.53116 2.01777 0
M  V30 7043 H 665.116 -0.873904 3.6375 0
M  V30 7044 H 666.449 -1.16892 4.78118 0
M  V30 7045 N 668.101 -1.57061 -0.130224 0
M  V30 7046 C 669.512 -1.73539 -0.68856 0
M  V30 7047 C 669.863 -0.760554 -1.80859 0
M  V30 7048 O 668.988 0.0690796 -2.1629 0
M  V30 7049 C 669.583 -3.14666 -1.25581 0
M  V30 7050 C 668.142 -3.32689 -1.76055 0
M  V30 7051 C 667.289 -2.69436 -0.655712 0
M  V30 7052 H 670.24 -1.58412 0.0956002 0
M  V30 7053 H 670.261 -3.15595 -2.12556 0
M  V30 7054 H 669.773 -3.85593 -0.440412 0
M  V30 7055 H 667.874 -2.66786 -2.60108 0
M  V30 7056 H 667.987 -4.4077 -1.87772 0
M  V30 7057 H 666.351 -2.30362 -1.08654 0
M  V30 7058 H 667.134 -3.42979 0.14852 0
M  V30 7059 N 669.579 0.400081 -1.52437 0
M  V30 7060 C 670.804 1.17221 -1.71096 0
M  V30 7061 C 671.229 1.83269 -0.423565 0
M  V30 7062 O 670.587 1.70378 0.619751 0
M  V30 7063 C 670.635 2.20425 -2.85386 0
M  V30 7064 O 669.739 3.26769 -2.51586 0
M  V30 7065 H 669.08 0.341766 -0.569291 0
M  V30 7066 H 671.61 0.467772 -1.99181 0
M  V30 7067 H 671.62 2.64605 -3.10561 0
M  V30 7068 H 670.295 1.71737 -3.78786 0
M  V30 7069 H 668.872 2.87804 -2.37114 0
M  V30 7070 N 671.057 1.43213 0.657864 0
M  V30 7071 C 672.005 1.48271 1.79216 0
M  V30 7072 C 672.999 0.35675 1.65601 0
M  V30 7073 O 674.205 0.530535 1.72004 0
M  V30 7074 H 670.58 0.464729 0.591211 0
M  V30 7075 H 672.551 2.43792 1.7207 0
M  V30 7076 C 671.3 1.41837 3.17455 0
M  V30 7077 H 670.623 2.27781 3.28567 0
M  V30 7078 H 672.063 1.49438 3.96793 0
M  V30 7079 C 670.522 0.135347 3.36628 0
M  V30 7080 O 671.052 -0.805199 3.93547 0
M  V30 7081 N 669.258 0.0470316 2.90562 0
M  V30 7082 H 668.805 0.813221 2.44427 0
M  V30 7083 H 668.763 -0.810737 3.03767 0
M  V30 7084 N 672.536 -0.895792 1.29666 0
M  V30 7085 C 673.783 -1.64664 1.17864 0
M  V30 7086 C 674.111 -1.92631 -0.26902 0
M  V30 7087 O 673.366 -1.53787 -1.21029 0
M  V30 7088 C 673.665 -3.00075 1.94139 0
M  V30 7089 C 673.331 -2.91702 3.43833 0
M  V30 7090 C 671.993 -2.89126 3.84656 0
M  V30 7091 C 674.345 -2.80622 4.39205 0
M  V30 7092 C 671.673 -2.73293 5.1916 0
M  V30 7093 C 674.025 -2.66329 5.73805 0
M  V30 7094 C 672.689 -2.62121 6.1388 0
M  V30 7095 H 671.959 -0.602549 0.431295 0
M  V30 7096 H 674.606 -1.04234 1.60648 0
M  V30 7097 H 672.911 -3.64394 1.43958 0
M  V30 7098 H 674.608 -3.57111 1.82408 0
M  V30 7099 H 671.198 -2.94511 3.11386 0
M  V30 7100 H 675.382 -2.81686 4.08615 0
M  V30 7101 H 670.638 -2.68443 5.49316 0
M  V30 7102 H 674.812 -2.56727 6.47352 0
M  V30 7103 H 672.439 -2.49611 7.18052 0
M  V30 7104 N 674.014 -1.12206 -1.10668 0
M  V30 7105 C 675.263 -0.870595 -1.81944 0
M  V30 7106 C 675.576 0.605447 -1.85994 0
M  V30 7107 O 676.782 0.973433 -2.53449 0
M  V30 7108 C 675.238 -1.50783 -3.26791 0
M  V30 7109 C 674.846 -3.01849 -3.31046 0
M  V30 7110 C 676.59 -1.33653 -4.02911 0
M  V30 7111 C 674.497 -3.58518 -4.70339 0
M  V30 7112 H 673.427 -0.322043 -0.681765 0
M  V30 7113 H 676.078 -1.34827 -1.24475 0
M  V30 7114 H 674.46 -0.957825 -3.84242 0
M  V30 7115 H 675.634 -3.63321 -2.83433 0
M  V30 7116 H 673.949 -3.18346 -2.68411 0
M  V30 7117 H 676.546 -1.73416 -5.05797 0
M  V30 7118 H 676.889 -0.279949 -4.15358 0
M  V30 7119 H 677.422 -1.85562 -3.51868 0
M  V30 7120 H 674.161 -4.63925 -4.63091 0
M  V30 7121 H 673.681 -3.01819 -5.18329 0
M  V30 7122 H 675.36 -3.57434 -5.39305 0
M  V30 7123 N 675.492 1.28418 -0.913599 0
M  V30 7124 C 676.908 1.47411 -0.611728 0
M  V30 7125 C 677.108 1.83018 0.843008 0
M  V30 7126 O 676.164 1.93505 1.6221 0
M  V30 7127 C 677.477 2.57703 -1.5495 0
M  V30 7128 C 679.025 2.71572 -1.5562 0
M  V30 7129 C 679.5 3.85008 -2.48058 0
M  V30 7130 N 680.991 3.92361 -2.46184 0
M  V30 7131 C 681.726 4.79516 -3.14407 0
M  V30 7132 N 681.222 5.71262 -3.91958 0
M  V30 7133 N 683.015 4.73125 -3.03495 0
M  V30 7134 H 675.166 1.03585 -1.85429 0
M  V30 7135 H 677.429 0.515907 -0.795326 0
M  V30 7136 H 677.135 2.38298 -2.58663 0
M  V30 7137 H 677.009 3.54801 -1.28048 0
M  V30 7138 H 679.396 2.90366 -0.526441 0
M  V30 7139 H 679.477 1.75006 -1.86565 0
M  V30 7140 H 679.121 3.66969 -3.51136 0
M  V30 7141 H 679.051 4.80971 -2.14416 0
M  V30 7142 H 681.542 3.26749 -1.89851 0
M  V30 7143 H 681.855 6.34593 -4.41034 0
M  V30 7144 H 680.2 5.71103 -3.96063 0
M  V30 7145 H 683.391 4.00442 -2.42413 0
M  V30 7146 H 683.564 5.40834 -3.56935 0
M  V30 7147 N 676.97 0.677563 1.42291 0
M  V30 7148 C 678.218 0.200578 2.01102 0
M  V30 7149 C 678.539 -1.19803 1.53858 0
M  V30 7150 O 677.809 -1.80496 0.761439 0
M  V30 7151 H 676.389 0.0711634 0.743603 0
M  V30 7152 H 679.051 0.874691 1.7417 0
M  V30 7153 H 678.147 0.204 3.11433 0
M  V30 7154 N 678.448 -1.51871 0.421078 0
M  V30 7155 C 679.673 -2.0684 -0.152371 0
M  V30 7156 C 680.098 -1.28802 -1.37083 0
M  V30 7157 O 679.456 -0.321482 -1.78427 0
M  V30 7158 C 679.504 -3.57532 -0.469368 0
M  V30 7159 O 678.608 -3.81818 -1.55848 0
M  V30 7160 H 677.949 -0.663939 -0.00898586 0
M  V30 7161 H 680.479 -1.95674 0.597724 0
M  V30 7162 H 680.489 -4.01515 -0.724553 0
M  V30 7163 H 679.164 -4.13761 0.421276 0
M  V30 7164 H 677.741 -3.49709 -1.29453 0
M  V30 7165 N 679.926 -0.151884 -1.56866 0
M  V30 7166 C 680.836 0.798876 -2.20579 0
M  V30 7167 C 681.852 1.268 -1.19154 0
M  V30 7168 O 683.028 1.32418 -1.51748 0
M  V30 7169 C 680.093 2.01861 -2.81874 0
M  V30 7170 C 679.154 1.59825 -3.9844 0
M  V30 7171 C 678.387 2.75984 -4.56802 0
M  V30 7172 O 678.61 3.92331 -4.14044 0
M  V30 7173 O 677.544 2.51175 -5.46987 0
M  V30 7174 H 681.37 0.2865 -3.02346 0
M  V30 7175 H 678.955 0.0753806 -1.4921 0
M  V30 7176 H 680.837 2.73235 -3.20813 0
M  V30 7177 H 679.512 2.52042 -2.03117 0
M  V30 7178 H 678.419 0.854601 -3.64208 0
M  V30 7179 H 679.752 1.14355 -4.78731 0
M  V30 7180 N 681.404 1.57128 0.121893 0
M  V30 7181 C 682.681 1.75664 0.860327 0
M  V30 7182 C 683.061 0.726585 1.98202 0
M  V30 7183 O 682.409 -0.24999 2.27128 0
M  V30 7184 C 682.619 3.20571 1.37968 0
M  V30 7185 C 683.967 3.82988 1.83317 0
M  V30 7186 O 684.991 3.24156 1.47654 0
M  V30 7187 O 683.85 4.86393 2.49168 0
M  V30 7188 H 680.944 0.719153 0.408348 0
M  V30 7189 H 683.49 1.6937 0.105859 0
M  V30 7190 H 682.262 3.87056 0.57477 0
M  V30 7191 H 681.885 3.31392 2.19694 0
M  V30 7192 N 682.882 -0.391992 1.52647 0
M  V30 7193 C 684.13 -1.13507 1.67214 0
M  V30 7194 C 684.451 -1.90575 0.41304 0
M  V30 7195 O 683.721 -1.87348 -0.572498 0
M  V30 7196 H 682.301 -0.422013 0.616372 0
M  V30 7197 H 684.963 -0.44502 1.89751 0
M  V30 7198 H 684.059 -1.83964 2.52118 0
M  V30 7199 N 684.36 -1.4356 -0.65026 0
M  V30 7200 C 685.6 -1.46839 -1.42188 0
M  V30 7201 C 685.964 -0.0911433 -1.91784 0
M  V30 7202 O 687.165 0.00137545 -2.688 0
M  V30 7203 C 685.436 -2.48411 -2.56957 0
M  V30 7204 S 686.995 -2.70589 -3.45438 0
M  V30 7205 H 683.813 -0.519596 -0.485325 0
M  V30 7206 H 686.415 -1.80347 -0.75466 0
M  V30 7207 H 685.119 -3.47209 -2.18801 0
M  V30 7208 H 684.65 -2.16411 -3.28527 0
M  V30 7209 H 686.665 -2.00738 -4.53782 0
M  V30 7210 N 685.838 0.888903 -1.30139 0
M  V30 7211 C 687.249 1.45578 -1.16893 0
M  V30 7212 C 687.6 1.94825 0.231866 0
M  V30 7213 O 686.725 1.84661 1.12824 0
M  V30 7214 C 687.32 2.646 -2.11595 0
M  V30 7215 C 685.879 3.17389 -2.02339 0
M  V30 7216 C 685.026 1.90081 -2.01902 0
M  V30 7217 H 687.977 0.69921 -1.42467 0
M  V30 7218 H 687.998 3.40687 -1.69449 0
M  V30 7219 H 687.51 2.28726 -3.13538 0
M  V30 7220 H 685.611 3.5793 -1.03523 0
M  V30 7221 H 685.724 3.80955 -2.90534 0
M  V30 7222 H 684.088 2.08246 -1.46648 0
M  V30 7223 H 684.871 1.5647 -3.05568 0
M  V30 7224 N 687.317 1.12792 1.10072 0
M  V30 7225 C 688.265 0.794523 2.18609 0
M  V30 7226 C 689.259 -0.220271 1.67962 0
M  V30 7227 O 690.465 -0.0780938 1.79831 0
M  V30 7228 H 686.84 0.239123 0.712969 0
M  V30 7229 H 688.811 1.71823 2.43966 0
M  V30 7230 C 687.56 0.269548 3.46654 0
M  V30 7231 H 686.883 1.04171 3.8599 0
M  V30 7232 H 688.323 0.0746242 4.23934 0
M  V30 7233 C 686.782 -1.00333 3.21613 0
M  V30 7234 O 687.312 -2.08042 3.4363 0
M  V30 7235 N 685.518 -0.931763 2.75257 0
M  V30 7236 H 685.065 -0.0551197 2.57541 0
M  V30 7237 H 685.023 -1.78405 2.58881 0
M  V30 7238 N 688.795 -1.27931 0.920396 0
M  V30 7239 C 689.743 -2.29061 0.404191 0
M  V30 7240 C 690.737 -1.61615 -0.507634 0
M  V30 7241 O 691.943 -1.75765 -0.388144 0
M  V30 7242 H 688.318 -0.743594 0.112123 0
M  V30 7243 H 690.289 -2.70021 1.27008 0
M  V30 7244 C 689.038 -3.46088 -0.334466 0
M  V30 7245 H 688.361 -3.98194 0.35797 0
M  V30 7246 H 689.801 -4.18829 -0.660196 0
M  V30 7247 C 688.26 -2.99396 -1.54479 0
M  V30 7248 O 688.79 -3.02439 -2.64374 0
M  V30 7249 N 686.996 -2.54978 -1.39408 0
M  V30 7250 H 686.543 -2.52701 -0.500009 0
M  V30 7251 H 686.501 -2.24098 -2.20516 0
M  V30 7252 N 690.273 -0.685099 -1.4193 0
M  V30 7253 C 691.183 -0.013404 -2.34596 0
M  V30 7254 C 692.199 0.777589 -1.55658 0
M  V30 7255 O 693.375 0.717553 -1.88184 0
M  V30 7256 C 690.44 0.919031 -3.34297 0
M  V30 7257 C 689.501 0.121417 -4.29128 0
M  V30 7258 C 688.734 1.00944 -5.24067 0
M  V30 7259 O 688.957 2.24898 -5.24192 0
M  V30 7260 O 687.891 0.464724 -6.00103 0
M  V30 7261 H 691.717 -0.776978 -2.93593 0
M  V30 7262 H 689.302 -0.445379 -1.42607 0
M  V30 7263 H 691.184 1.45402 -3.9552 0
M  V30 7264 H 689.859 1.66228 -2.77759 0
M  V30 7265 H 688.766 -0.45792 -3.71287 0
M  V30 7266 H 690.099 -0.582937 -4.88736 0
M  V30 7267 N 691.751 1.51645 -0.429126 0
M  V30 7268 C 692.681 2.30434 0.377148 0
M  V30 7269 C 693.662 1.35493 1.02838 0
M  V30 7270 O 694.847 1.6441 1.03359 0
M  V30 7271 C 691.977 3.14038 1.48315 0
M  V30 7272 C 690.931 4.1719 0.955855 0
M  V30 7273 C 690.257 4.89263 2.15698 0
M  V30 7274 C 691.557 5.223 -0.00402136 0
M  V30 7275 H 693.251 2.98085 -0.280336 0
M  V30 7276 H 690.797 1.43354 -0.136265 0
M  V30 7277 H 692.75 3.67933 2.05435 0
M  V30 7278 H 691.474 2.44193 2.16881 0
M  V30 7279 H 690.133 3.64335 0.406929 0
M  V30 7280 H 689.781 4.15929 2.82864 0
M  V30 7281 H 689.481 5.59009 1.81059 0
M  V30 7282 H 691.005 5.45978 2.73387 0
M  V30 7283 H 692.419 5.71315 0.476607 0
M  V30 7284 H 690.816 5.99525 -0.26258 0
M  V30 7285 H 691.886 4.75638 -0.943236 0
M  V30 7286 N 693.229 0.160201 1.56784 0
M  V30 7287 C 694.139 -0.787167 2.21 0
M  V30 7288 C 695.155 -1.26167 1.19825 0
M  V30 7289 O 696.331 -1.31611 1.52448 0
M  V30 7290 C 693.396 -2.00364 2.8294 0
M  V30 7291 C 692.457 -1.5771 3.99282 0
M  V30 7292 C 691.69 -2.73558 4.58259 0
M  V30 7293 O 691.913 -3.90129 4.16119 0
M  V30 7294 O 690.847 -2.48271 5.48311 0
M  V30 7295 H 694.673 -0.270462 3.02493 0
M  V30 7296 H 692.258 -0.0674666 1.49248 0
M  V30 7297 H 694.14 -2.71529 3.22257 0
M  V30 7298 H 692.815 -2.50961 2.04451 0
M  V30 7299 H 691.722 -0.835274 3.64656 0
M  V30 7300 H 693.055 -1.11815 4.79331 0
M  V30 7301 N 694.707 -1.5719 -0.113559 0
M  V30 7302 C 695.655 -2.01725 -1.158 0
M  V30 7303 C 696.649 -0.915105 -1.42556 0
M  V30 7304 O 697.855 -1.10031 -1.42454 0
M  V30 7305 H 694.23 -0.64262 -0.390569 0
M  V30 7306 H 696.201 -2.88666 -0.755926 0
M  V30 7307 C 694.95 -2.44203 -2.47507 0
M  V30 7308 H 694.273 -3.28582 -2.27758 0
M  V30 7309 H 695.713 -2.79158 -3.19135 0
M  V30 7310 C 694.172 -1.30785 -3.10478 0
M  V30 7311 O 694.702 -0.626807 -3.9678 0
M  V30 7312 N 692.908 -1.06352 -2.7044 0
M  V30 7313 H 692.455 -1.61913 -2.00355 0
M  V30 7314 H 692.413 -0.306614 -3.12901 0
M  V30 7315 N 696.185 0.383891 -1.52853 0
M  V30 7316 C 697.596 0.961591 -1.60032 0
M  V30 7317 C 697.947 1.90819 -0.456333 0
M  V30 7318 O 697.072 2.12288 0.419873 0
M  V30 7319 C 697.667 1.75078 -2.90057 0
M  V30 7320 C 696.226 2.2781 -2.99632 0
M  V30 7321 C 695.373 1.08512 -2.55187 0
M  V30 7322 H 698.324 0.163269 -1.57858 0
M  V30 7323 H 698.345 2.61046 -2.7683 0
M  V30 7324 H 697.857 1.06157 -3.73299 0
M  V30 7325 H 695.958 3.00028 -2.20939 0
M  V30 7326 H 696.071 2.56947 -4.0437 0
M  V30 7327 H 694.435 1.44667 -2.09627 0
M  V30 7328 H 695.218 0.41118 -3.40829 0
M  V30 7329 N 697.663 1.43903 0.642637 0
M  V30 7330 C 699.074 1.40975 1.22404 0
M  V30 7331 C 699.425 0.1192 1.95838 0
M  V30 7332 O 698.55 -0.780939 2.01818 0
M  V30 7333 C 699.145 2.5538 2.22636 0
M  V30 7334 C 697.704 2.55684 2.76229 0
M  V30 7335 C 696.851 2.32556 1.51039 0
M  V30 7336 H 699.802 1.5265 0.434006 0
M  V30 7337 H 699.823 2.27474 3.05017 0
M  V30 7338 H 699.335 3.49294 1.69161 0
M  V30 7339 H 697.436 1.65679 3.33738 0
M  V30 7340 H 697.549 3.53799 3.23053 0
M  V30 7341 H 695.913 1.81427 1.78764 0
M  V30 7342 H 696.696 3.28569 0.99484 0
M  V30 7343 N 699.141 -0.881989 1.30609 0
M  V30 7344 C 700.371 -1.66469 1.22359 0
M  V30 7345 C 700.779 -1.87969 -0.215507 0
M  V30 7346 O 700.122 -1.42938 -1.15388 0
M  V30 7347 C 700.184 -3.06135 1.88472 0
M  V30 7348 C 699.848 -3.07795 3.37804 0
M  V30 7349 C 700.845 -2.86633 4.33749 0
M  V30 7350 C 698.53 -3.29297 3.793 0
M  V30 7351 C 700.524 -2.86934 5.69164 0
M  V30 7352 C 698.211 -3.29228 5.14832 0
M  V30 7353 C 699.209 -3.08071 6.09574 0
M  V30 7354 O 698.897 -3.07824 7.4263 0
M  V30 7355 H 698.629 -0.526129 0.424458 0
M  V30 7356 H 701.183 -1.11004 1.72821 0
M  V30 7357 H 699.413 -3.63276 1.32543 0
M  V30 7358 H 701.102 -3.66571 1.74301 0
M  V30 7359 H 701.868 -2.69814 4.0302 0
M  V30 7360 H 697.747 -3.44799 3.05998 0
M  V30 7361 H 701.291 -2.70339 6.43088 0
M  V30 7362 H 697.188 -3.45583 5.452 0
M  V30 7363 H 697.956 -3.2397 7.51656 0
M  V30 7364 N 700.619 -1.13374 -1.09472 0
M  V30 7365 C 701.865 -0.896516 -1.81908 0
M  V30 7366 C 702.198 0.575933 -1.85463 0
M  V30 7367 O 701.473 1.42618 -1.32251 0
M  V30 7368 C 701.756 -1.48445 -3.28079 0
M  V30 7369 C 701.609 -3.02598 -3.32798 0
M  V30 7370 C 702.928 -1.15226 -4.24748 0
M  V30 7371 H 700.047 -0.327127 -0.660422 0
M  V30 7372 H 702.689 -1.40195 -1.2824 0
M  V30 7373 H 700.839 -1.0546 -3.73912 0
M  V30 7374 H 702.511 -3.54335 -2.95372 0
M  V30 7375 H 700.754 -3.37613 -2.72397 0
M  V30 7376 H 701.425 -3.38835 -4.3577 0
M  V30 7377 H 703.901 -1.52369 -3.87199 0
M  V30 7378 H 702.777 -1.59012 -5.25363 0
M  V30 7379 H 703.038 -0.0658891 -4.42051 0
M  V30 7380 N 702.098 1.27442 -0.927168 0
M  V30 7381 C 703.509 1.76385 -0.611979 0
M  V30 7382 C 703.86 1.75715 0.872853 0
M  V30 7383 O 702.985 1.3603 1.683 0
M  V30 7384 C 703.58 3.20303 -1.10414 0
M  V30 7385 C 702.139 3.66916 -0.839628 0
M  V30 7386 C 701.286 2.46859 -1.26317 0
M  V30 7387 H 704.237 1.13716 -1.107 0
M  V30 7388 H 704.258 3.77811 -0.451578 0
M  V30 7389 H 703.77 3.20759 -2.18484 0
M  V30 7390 H 701.871 3.71906 0.227292 0
M  V30 7391 H 701.984 4.56415 -1.45679 0
M  V30 7392 H 700.348 2.45407 -0.681723 0
M  V30 7393 H 701.131 2.50025 -2.3525 0
M  V30 7394 N 703.576 0.692616 1.41565 0
M  V30 7395 C 704.824 0.221896 2.00878 0
M  V30 7396 C 705.145 -1.18164 1.5512 0
M  V30 7397 O 704.415 -1.79679 0.78054 0
M  V30 7398 H 702.995 0.0790463 0.742806 0
M  V30 7399 H 705.657 0.893115 1.73232 0
M  V30 7400 H 704.753 0.23702 3.11199 0
M  V30 7401 N 705.054 -1.51416 0.437162 0
M  V30 7402 C 706.3 -2.02386 -0.129555 0
M  V30 7403 C 706.633 -1.32071 -1.42376 0
M  V30 7404 O 705.908 -0.43559 -1.8956 0
M  V30 7405 C 706.191 -3.5841 -0.348487 0
M  V30 7406 C 706.044 -4.39341 0.964352 0
M  V30 7407 C 707.363 -4.25654 -1.11834 0
M  V30 7408 H 704.482 -0.735587 -0.0456109 0
M  V30 7409 H 707.124 -1.81055 0.576124 0
M  V30 7410 H 705.274 -3.76716 -0.949592 0
M  V30 7411 H 706.946 -4.32685 1.59942 0
M  V30 7412 H 705.189 -4.04432 1.56898 0
M  V30 7413 H 705.86 -5.4667 0.765212 0
M  V30 7414 H 708.336 -4.11617 -0.609165 0
M  V30 7415 H 707.212 -5.34704 -1.24029 0
M  V30 7416 H 707.473 -3.86502 -2.14636 0
M  V30 7417 N 706.532 -0.168513 -1.56696 0
M  V30 7418 C 707.778 0.477865 -1.9709 0
M  V30 7419 C 708.111 1.63084 -1.05438 0
M  V30 7420 O 707.386 1.94238 -0.10095 0
M  V30 7421 C 707.669 0.963521 -3.4697 0
M  V30 7422 C 707.522 -0.189443 -4.49401 0
M  V30 7423 C 708.841 1.83813 -3.99876 0
M  V30 7424 H 705.96 0.172229 -0.716593 0
M  V30 7425 H 708.602 -0.254083 -1.88293 0
M  V30 7426 H 706.752 1.58724 -3.54597 0
M  V30 7427 H 708.424 -0.826451 -4.53836 0
M  V30 7428 H 706.667 -0.845366 -4.25483 0
M  V30 7429 H 707.338 0.192446 -5.51664 0
M  V30 7430 H 709.814 1.31235 -3.94863 0
M  V30 7431 H 708.69 2.14697 -5.0517 0
M  V30 7432 H 708.951 2.78289 -3.43523 0
M  V30 7433 N 708.01 1.57248 0.105221 0
M  V30 7434 C 709.258 1.85204 0.808951 0
M  V30 7435 C 709.579 0.75574 1.7976 0
M  V30 7436 O 708.849 -0.218984 1.94672 0
M  V30 7437 H 707.429 0.683346 0.301739 0
M  V30 7438 H 710.091 1.94695 0.0892605 0
M  V30 7439 H 709.187 2.81595 1.34575 0
M  V30 7440 N 709.488 -0.375779 1.53054 0
M  V30 7441 C 710.736 -1.11727 1.68409 0
M  V30 7442 C 711.057 -1.90127 0.43323 0
M  V30 7443 O 710.327 -1.87945 -0.552595 0
M  V30 7444 H 708.907 -0.415451 0.620813 0
M  V30 7445 H 711.569 -0.424869 1.90213 0
M  V30 7446 H 710.665 -1.8128 2.54055 0
M  V30 7447 N 710.966 -1.44241 -0.634997 0
M  V30 7448 C 712.194 -1.50296 -1.42193 0
M  V30 7449 C 712.609 -0.12658 -1.88375 0
M  V30 7450 O 711.966 0.86678 -1.60603 0
M  V30 7451 C 712.017 -2.46437 -2.64482 0
M  V30 7452 O 711.738 -3.78724 -2.20226 0
M  V30 7453 C 713.239 -2.61918 -3.57651 0
M  V30 7454 H 710.459 -0.509865 -0.43621 0
M  V30 7455 H 713.003 -1.89167 -0.776921 0
M  V30 7456 H 711.158 -2.10712 -3.25083 0
M  V30 7457 H 711.572 -4.30595 -2.9948 0
M  V30 7458 H 713.046 -3.33225 -4.40074 0
M  V30 7459 H 713.523 -1.67017 -4.06204 0
M  V30 7460 H 714.129 -2.98528 -3.02921 0
M  V30 7461 N 712.444 0.87505 -1.31075 0
M  V30 7462 C 713.374 1.99775 -1.20881 0
M  V30 7463 C 714.355 1.69822 -0.0971612 0
M  V30 7464 O 715.54 1.92158 -0.280895 0
M  V30 7465 C 712.67 3.35163 -0.910118 0
M  V30 7466 C 711.624 3.79406 -1.98078 0
M  V30 7467 C 710.95 5.12197 -1.53488 0
M  V30 7468 C 712.25 3.97061 -3.39323 0
M  V30 7469 H 713.944 2.08562 -2.14808 0
M  V30 7470 H 711.49 1.00207 -1.03415 0
M  V30 7471 H 713.443 4.13237 -0.825423 0
M  V30 7472 H 712.167 3.26536 0.064822 0
M  V30 7473 H 710.826 3.03568 -2.05528 0
M  V30 7474 H 710.474 5.00007 -0.547941 0
M  V30 7475 H 710.174 5.4277 -2.2511 0
M  V30 7476 H 711.698 5.92785 -1.46417 0
M  V30 7477 H 713.112 4.65545 -3.34576 0
M  V30 7478 H 711.509 4.39025 -4.09118 0
M  V30 7479 H 712.579 3.00601 -3.80483 0
M  V30 7480 N 713.922 1.13953 1.08869 0
M  V30 7481 C 714.854 0.779906 2.15523 0
M  V30 7482 C 715.867 -0.20102 1.61554 0
M  V30 7483 O 717.056 0.0200049 1.78489 0
M  V30 7484 C 714.156 0.136226 3.38626 0
M  V30 7485 C 713.329 1.15069 4.21993 0
M  V30 7486 C 712.388 0.531645 5.23507 0
M  V30 7487 O 711.414 1.19327 5.56552 0
M  V30 7488 N 712.616 -0.693734 5.7634 0
M  V30 7489 H 715.381 1.69769 2.46979 0
M  V30 7490 H 712.942 1.03331 1.24637 0
M  V30 7491 H 714.934 -0.290295 4.03658 0
M  V30 7492 H 713.504 -0.684603 3.05011 0
M  V30 7493 H 712.724 1.75431 3.53012 0
M  V30 7494 H 714.012 1.83614 4.74514 0
M  V30 7495 H 713.41 -1.24994 5.51718 0
M  V30 7496 H 711.967 -1.06283 6.43076 0
M  V30 7497 N 715.4 -1.26948 0.933913 0
M  V30 7498 C 716.363 -2.24889 0.442457 0
M  V30 7499 C 717.363 -1.54594 -0.442426 0
M  V30 7500 O 718.553 -1.72502 -0.242629 0
M  V30 7501 C 715.685 -3.3896 -0.363173 0
M  V30 7502 H 716.878 -2.69879 1.30787 0
M  V30 7503 H 714.431 -1.38978 0.715187 0
M  V30 7504 H 715.166 -2.99361 -1.24714 0
M  V30 7505 H 714.951 -3.9116 0.271366 0
M  V30 7506 H 716.441 -4.11739 -0.697186 0
M  V30 7507 N 716.879 -0.700114 -1.41195 0
M  V30 7508 C 717.842 -0.0465706 -2.29153 0
M  V30 7509 C 718.842 0.703302 -1.44604 0
M  V30 7510 O 720.032 0.537513 -1.657 0
M  V30 7511 C 717.164 0.944324 -3.2756 0
M  V30 7512 H 718.357 -0.821064 -2.88442 0
M  V30 7513 H 715.91 -0.463869 -1.49258 0
M  V30 7514 H 716.645 1.74642 -2.73259 0
M  V30 7515 H 716.43 0.409701 -3.89954 0
M  V30 7516 H 717.92 1.39925 -3.9346 0
M  V30 7517 N 718.357 1.51182 -0.445186 0
M  V30 7518 C 719.585 2.06568 0.117091 0
M  V30 7519 C 720 1.31182 1.35781 0
M  V30 7520 O 719.357 0.373605 1.78635 0
M  V30 7521 C 719.408 3.58917 0.431408 0
M  V30 7522 O 719.129 4.31456 -0.760078 0
M  V30 7523 C 720.63 4.30843 1.0435 0
M  V30 7524 H 717.85 0.670985 0.00444436 0
M  V30 7525 H 720.394 1.94666 -0.626525 0
M  V30 7526 H 718.549 3.70708 1.12493 0
M  V30 7527 H 718.963 5.22215 -0.489048 0
M  V30 7528 H 720.437 5.38499 1.21337 0
M  V30 7529 H 720.914 3.89644 2.02667 0
M  V30 7530 H 721.52 4.23516 0.38913 0
M  V30 7531 N 719.835 0.176821 1.56605 0
M  V30 7532 C 721.084 -0.466833 1.96223 0
M  V30 7533 C 721.397 -1.64015 1.06576 0
M  V30 7534 O 722.603 -2.3504 1.35898 0
M  V30 7535 C 721.059 -0.881921 3.48927 0
M  V30 7536 C 720.667 0.266102 4.47209 0
M  V30 7537 C 722.411 -1.49368 3.97353 0
M  V30 7538 C 720.318 -0.168923 5.91159 0
M  V30 7539 H 719.248 -0.178178 0.732645 0
M  V30 7540 H 721.899 0.265929 1.81563 0
M  V30 7541 H 720.281 -1.67082 3.59026 0
M  V30 7542 H 721.455 1.04349 4.4883 0
M  V30 7543 H 719.77 0.788178 4.08872 0
M  V30 7544 H 722.367 -1.8313 5.02362 0
M  V30 7545 H 722.71 -2.3936 3.40606 0
M  V30 7546 H 723.243 -0.769114 3.90294 0
M  V30 7547 H 719.982 0.696351 6.51791 0
M  V30 7548 H 719.502 -0.911552 5.92833 0
M  V30 7549 H 721.181 -0.610938 6.44109 0
M  V30 7550 N 721.313 -1.57302 -0.09688 0
M  V30 7551 C 722.553 -1.87823 -0.806334 0
M  V30 7552 C 722.917 -0.767593 -1.75989 0
M  V30 7553 O 724.118 -0.955173 -2.51257 0
M  V30 7554 C 722.389 -3.23585 -1.51749 0
M  V30 7555 S 723.948 -3.75795 -2.26547 0
M  V30 7556 H 720.766 -0.658281 -0.268676 0
M  V30 7557 H 723.368 -1.95397 -0.0635476 0
M  V30 7558 H 722.072 -4.0234 -0.809348 0
M  V30 7559 H 721.603 -3.19145 -2.30021 0
M  V30 7560 H 723.618 -3.49068 -3.52656 0
M  V30 7561 N 722.791 0.367657 -1.53252 0
M  V30 7562 C 723.754 1.43308 -1.78873 0
M  V30 7563 C 724.754 1.46671 -0.659115 0
M  V30 7564 O 725.944 1.47468 -0.927306 0
M  V30 7565 C 723.076 2.82442 -1.90892 0
M  V30 7566 H 724.269 1.21864 -2.74024 0
M  V30 7567 H 721.822 0.600668 -1.44297 0
M  V30 7568 H 722.557 3.09202 -0.978 0
M  V30 7569 H 722.342 2.81399 -2.73051 0
M  V30 7570 H 723.832 3.59601 -2.12314 0
M  V30 7571 N 724.269 1.44576 0.627338 0
M  V30 7572 C 725.494 1.51271 1.41887 0
M  V30 7573 C 725.919 0.139814 1.8758 0
M  V30 7574 O 725.277 -0.871746 1.58966 0
M  V30 7575 C 725.325 2.48529 2.61277 0
M  V30 7576 O 724.429 1.98944 3.61241 0
M  V30 7577 H 723.77 0.510668 0.424399 0
M  V30 7578 H 726.3 1.89746 0.765356 0
M  V30 7579 H 726.31 2.66689 3.08773 0
M  V30 7580 H 724.985 3.48249 2.27366 0
M  V30 7581 H 723.562 1.90568 3.20528 0
M  V30 7582 N 725.747 -0.868086 1.31537 0
M  V30 7583 C 726.972 -1.65926 1.24432 0
M  V30 7584 C 727.397 -1.87169 -0.186936 0
M  V30 7585 O 726.755 -1.4148 -1.13371 0
M  V30 7586 C 726.803 -3.00347 1.9956 0
M  V30 7587 O 725.907 -3.90221 1.33422 0
M  V30 7588 H 725.248 -0.506375 0.429512 0
M  V30 7589 H 727.778 -1.0822 1.73637 0
M  V30 7590 H 727.788 -3.50269 2.09226 0
M  V30 7591 H 726.463 -2.84205 3.03645 0
M  V30 7592 H 725.04 -3.48672 1.32219 0
M  V30 7593 N 727.225 -1.14528 -1.08264 0
M  V30 7594 C 728.175 -0.802141 -2.13424 0
M  V30 7595 C 729.159 0.209362 -1.59532 0
M  V30 7596 O 730.351 0.0114859 -1.76996 0
M  V30 7597 C 727.48 -0.282938 -3.42132 0
M  V30 7598 C 726.566 -1.32405 -4.02902 0
M  V30 7599 N 726.957 -2.52861 -4.38058 0
M  V30 7600 C 725.255 -1.17462 -4.30254 0
M  V30 7601 C 725.956 -3.1952 -4.86088 0
M  V30 7602 N 724.932 -2.46921 -4.84284 0
M  V30 7603 H 728.734 -1.71843 -2.38426 0
M  V30 7604 H 726.248 -1.02936 -1.2561 0
M  V30 7605 H 728.245 -0.0188053 -4.16896 0
M  V30 7606 H 726.905 0.627533 -3.18578 0
M  V30 7607 H 727.916 -2.90078 -4.2904 0
M  V30 7608 H 724.593 -0.323283 -4.16246 0
M  V30 7609 H 725.983 -4.2223 -5.22658 0
M  V30 7610 N 728.703 1.26451 -0.940633 0
M  V30 7611 C 729.635 2.25556 -0.407104 0
M  V30 7612 C 730.648 1.55888 0.469324 0
M  V30 7613 O 731.837 1.76292 0.279858 0
M  V30 7614 C 728.937 3.36109 0.434064 0
M  V30 7615 C 728.11 4.3532 -0.426082 0
M  V30 7616 C 727.169 5.25004 0.354563 0
M  V30 7617 O 726.195 5.68684 -0.242219 0
M  V30 7618 N 727.397 5.5652 1.65123 0
M  V30 7619 H 730.162 2.7197 -1.25907 0
M  V30 7620 H 727.723 1.40212 -0.809456 0
M  V30 7621 H 729.715 3.93059 0.963684 0
M  V30 7622 H 728.285 2.89194 1.18683 0
M  V30 7623 H 727.505 3.77449 -1.13692 0
M  V30 7624 H 728.793 4.986 -1.01366 0
M  V30 7625 H 728.191 5.22912 2.15822 0
M  V30 7626 H 726.748 6.16115 2.12711 0
M  V30 7627 N 730.181 0.707592 1.40822 0
M  V30 7628 C 731.428 0.243671 2.01029 0
M  V30 7629 C 731.756 -1.16057 1.5608 0
M  V30 7630 O 731.011 -1.7999 0.768251 0
M  V30 7631 C 731.31 0.262892 3.56432 0
M  V30 7632 C 730.976 1.61632 4.20935 0
M  V30 7633 C 729.638 1.98682 4.38268 0
M  V30 7634 C 731.99 2.50619 4.5699 0
M  V30 7635 C 729.318 3.2428 4.88937 0
M  V30 7636 C 731.67 3.75562 5.09054 0
M  V30 7637 C 730.334 4.12739 5.24598 0
M  V30 7638 H 729.604 0.0891654 0.735616 0
M  V30 7639 H 732.251 0.909051 1.68548 0
M  V30 7640 H 730.556 -0.486052 3.88773 0
M  V30 7641 H 732.253 -0.113775 4.00839 0
M  V30 7642 H 728.843 1.31818 4.07826 0
M  V30 7643 H 733.027 2.23272 4.43242 0
M  V30 7644 H 728.283 3.53064 4.99155 0
M  V30 7645 H 732.457 4.44692 5.35931 0
M  V30 7646 H 730.084 5.10132 5.63622 0
M  V30 7647 N 731.66 -1.50943 0.453197 0
M  V30 7648 C 732.59 -2.31005 -0.34044 0
M  V30 7649 C 733.571 -1.37112 -1.00669 0
M  V30 7650 O 734.756 -1.66033 -1.0073 0
M  V30 7651 C 731.886 -3.16358 -1.433 0
M  V30 7652 C 730.84 -4.18658 -0.889363 0
M  V30 7653 C 730.166 -4.92633 -2.07887 0
M  V30 7654 C 731.466 -5.22227 0.0871142 0
M  V30 7655 H 733.16 -2.97601 0.327723 0
M  V30 7656 H 730.706 -1.43119 0.159054 0
M  V30 7657 H 732.659 -3.71155 -1.99555 0
M  V30 7658 H 731.383 -2.47613 -2.12968 0
M  V30 7659 H 730.042 -3.64936 -0.348915 0
M  V30 7660 H 729.69 -4.20376 -2.76211 0
M  V30 7661 H 729.39 -5.61819 -1.72143 0
M  V30 7662 H 730.914 -5.50258 -2.64666 0
M  V30 7663 H 732.328 -5.72001 -0.385656 0
M  V30 7664 H 730.725 -5.99032 0.357926 0
M  V30 7665 H 731.795 -4.74077 1.01879 0
M  V30 7666 N 733.138 -0.185124 -1.56509 0
M  V30 7667 C 734.363 0.465278 -2.02114 0
M  V30 7668 C 734.788 1.55083 -1.06447 0
M  V30 7669 O 734.146 1.81241 -0.0462852 0
M  V30 7670 C 734.194 1.00784 -3.46229 0
M  V30 7671 O 733.298 2.12123 -3.53663 0
M  V30 7672 H 732.639 0.109891 -0.654843 0
M  V30 7673 H 735.169 -0.293072 -2.0249 0
M  V30 7674 H 735.179 1.32697 -3.85818 0
M  V30 7675 H 733.854 0.213113 -4.15354 0
M  V30 7676 H 732.431 1.8115 -3.25943 0
M  V30 7677 N 734.616 1.57351 0.0885366 0
M  V30 7678 C 735.844 1.90631 0.804196 0
M  V30 7679 C 736.259 0.779474 1.71958 0
M  V30 7680 O 735.616 -0.248179 1.80805 0
M  V30 7681 C 735.667 3.23568 1.61202 0
M  V30 7682 O 735.388 4.31917 0.733447 0
M  V30 7683 C 736.889 3.70753 2.43016 0
M  V30 7684 H 734.109 0.630501 0.229585 0
M  V30 7685 H 736.653 2.044 0.0638092 0
M  V30 7686 H 734.808 3.11377 2.30485 0
M  V30 7687 H 735.222 5.08297 1.29361 0
M  V30 7688 H 736.696 4.66447 2.9518 0
M  V30 7689 H 737.173 2.98922 3.2178 0
M  V30 7690 H 737.779 3.85834 1.7892 0
M  V30 7691 N 736.094 -0.359525 1.53444 0
M  V30 7692 C 737.044 -1.441 1.7669 0
M  V30 7693 C 738.028 -1.48408 0.621599 0
M  V30 7694 O 739.22 -1.53547 0.880468 0
M  V30 7695 C 736.349 -2.81455 1.96566 0
M  V30 7696 C 735.435 -2.81601 3.17115 0
M  V30 7697 N 735.826 -2.51388 4.38905 0
M  V30 7698 C 734.124 -3.12758 3.1796 0
M  V30 7699 C 734.825 -2.59365 5.20677 0
M  V30 7700 N 733.801 -2.94328 4.57025 0
M  V30 7701 H 737.603 -1.19613 2.68458 0
M  V30 7702 H 735.117 -0.567761 1.52152 0
M  V30 7703 H 737.114 -3.59357 2.11348 0
M  V30 7704 H 735.774 -3.06901 1.06029 0
M  V30 7705 H 736.785 -2.24873 4.66533 0
M  V30 7706 H 733.462 -3.43479 2.37336 0
M  V30 7707 H 734.852 -2.39301 6.27841 0
M  V30 7708 N 737.572 -1.44907 -0.619662 0
M  V30 7709 C 738.802 -1.51575 -1.40387 0
M  V30 7710 C 739.21 -0.14309 -1.88658 0
M  V30 7711 O 738.553 0.863403 -1.62145 0
M  V30 7712 C 738.615 -2.42858 -2.65067 0
M  V30 7713 C 738.279 -3.8982 -2.38515 0
M  V30 7714 C 739.276 -4.80047 -1.99627 0
M  V30 7715 C 736.961 -4.34628 -2.51801 0
M  V30 7716 C 738.955 -6.13086 -1.74369 0
M  V30 7717 C 736.642 -5.67712 -2.26156 0
M  V30 7718 C 737.64 -6.56759 -1.875 0
M  V30 7719 O 737.328 -7.87377 -1.62148 0
M  V30 7720 H 737.06 -0.51612 -0.436573 0
M  V30 7721 H 739.614 -1.90664 -0.763959 0
M  V30 7722 H 737.844 -1.98717 -3.31735 0
M  V30 7723 H 739.533 -2.40346 -3.27091 0
M  V30 7724 H 740.299 -4.46697 -1.8891 0
M  V30 7725 H 736.178 -3.65568 -2.80857 0
M  V30 7726 H 739.722 -6.8255 -1.44122 0
M  V30 7727 H 735.619 -6.0062 -2.36486 0
M  V30 7728 H 736.387 -7.99288 -1.763 0
M  V30 7729 N 739.05 0.861098 -1.31996 0
M  V30 7730 C 739.998 1.99052 -1.20337 0
M  V30 7731 C 740.992 1.69045 -0.109623 0
M  V30 7732 O 742.198 1.77931 -0.272117 0
M  V30 7733 H 738.573 0.653064 -0.372843 0
M  V30 7734 H 740.544 2.06015 -2.15872 0
M  V30 7735 C 739.293 3.34846 -0.936663 0
M  V30 7736 H 738.616 3.58462 -1.77045 0
M  V30 7737 H 740.056 4.1444 -0.895302 0
M  V30 7738 C 738.515 3.34965 0.360607 0
M  V30 7739 O 739.045 3.7745 1.37456 0
M  V30 7740 N 737.251 2.88101 0.380296 0
M  V30 7741 H 736.798 2.53721 -0.445351 0
M  V30 7742 H 736.756 2.88563 1.24816 0
M  V30 7743 N 740.528 1.15101 1.07655 0
M  V30 7744 C 741.458 0.867864 2.16773 0
M  V30 7745 C 742.439 -0.180283 1.69142 0
M  V30 7746 O 743.624 -0.0353152 1.94168 0
M  V30 7747 C 740.754 0.35299 3.45501 0
M  V30 7748 C 739.708 1.33746 4.06566 0
M  V30 7749 C 739.034 0.681562 5.30338 0
M  V30 7750 C 740.334 2.7024 4.46954 0
M  V30 7751 H 742.028 1.78034 2.40716 0
M  V30 7752 H 739.574 0.857435 1.15689 0
M  V30 7753 H 741.527 0.142465 4.21159 0
M  V30 7754 H 740.251 -0.594945 3.21135 0
M  V30 7755 H 738.91 1.53429 3.32949 0
M  V30 7756 H 738.558 -0.272422 5.02262 0
M  V30 7757 H 738.258 1.33853 5.72151 0
M  V30 7758 H 739.782 0.48074 6.08705 0
M  V30 7759 H 741.196 2.5442 5.13754 0
M  V30 7760 H 739.593 3.32282 4.99709 0
M  V30 7761 H 740.663 3.26537 3.58471 0
M  V30 7762 N 742.006 -1.2595 0.947325 0
M  V30 7763 C 742.956 -2.23859 0.432547 0
M  V30 7764 C 743.94 -1.53755 -0.474154 0
M  V30 7765 O 745.132 -1.74293 -0.308397 0
M  V30 7766 C 742.261 -3.42027 -0.295318 0
M  V30 7767 C 741.347 -4.19409 0.62903 0
M  V30 7768 N 741.738 -4.74284 1.7575 0
M  V30 7769 C 740.036 -4.43866 0.435805 0
M  V30 7770 C 740.737 -5.32821 2.33401 0
M  V30 7771 N 739.713 -5.18858 1.62135 0
M  V30 7772 H 743.515 -2.63886 1.29388 0
M  V30 7773 H 741.029 -1.41105 0.80393 0
M  V30 7774 H 743.026 -4.11297 -0.681188 0
M  V30 7775 H 741.686 -3.03526 -1.15334 0
M  V30 7776 H 742.697 -4.71641 2.13952 0
M  V30 7777 H 739.374 -4.15768 -0.37994 0
M  V30 7778 H 740.764 -5.86111 3.28517 0
M  V30 7779 N 743.484 -0.715051 -1.40445 0
M  V30 7780 C 744.432 -0.0509974 -2.32544 0
M  V30 7781 C 745.426 0.747602 -1.52011 0
M  V30 7782 O 746.632 0.651031 -1.67814 0
M  V30 7783 H 743.007 0.00231113 -0.751996 0
M  V30 7784 H 744.978 -0.84449 -2.86201 0
M  V30 7785 C 743.727 0.857101 -3.3697 0
M  V30 7786 H 743.05 0.252 -3.99005 0
M  V30 7787 H 744.49 1.28971 -4.03909 0
M  V30 7788 C 742.949 1.98231 -2.72408 0
M  V30 7789 O 743.479 3.07309 -2.58697 0
M  V30 7790 N 741.685 1.76577 -2.308 0
M  V30 7791 H 741.232 0.878641 -2.42152 0
M  V30 7792 H 741.19 2.52043 -1.87941 0
M  V30 7793 N 744.962 1.50701 -0.461195 0
M  V30 7794 C 745.892 2.31182 0.328184 0
M  V30 7795 C 746.873 1.37644 0.999408 0
M  V30 7796 O 748.058 1.66565 0.99848 0
M  V30 7797 C 745.188 3.17113 1.41621 0
M  V30 7798 C 744.142 4.19124 0.867148 0
M  V30 7799 C 743.468 4.93728 2.05272 0
M  V30 7800 C 744.768 5.22174 -0.114808 0
M  V30 7801 H 746.462 2.97423 -0.343501 0
M  V30 7802 H 744.008 1.43033 -0.166641 0
M  V30 7803 H 745.961 3.72208 1.97584 0
M  V30 7804 H 744.685 2.48739 2.11652 0
M  V30 7805 H 743.344 3.65116 0.329557 0
M  V30 7806 H 742.992 4.21835 2.73978 0
M  V30 7807 H 742.692 5.62724 1.69161 0
M  V30 7808 H 744.216 5.51654 2.61744 0
M  V30 7809 H 745.63 5.72198 0.355316 0
M  V30 7810 H 744.027 5.98833 -0.389689 0
M  V30 7811 H 745.097 4.7353 -1.04391 0
M  V30 7812 N 746.441 0.193421 1.56409 0
M  V30 7813 C 747.671 -0.450783 2.01622 0
M  V30 7814 C 748.079 -1.5585 1.07273 0
M  V30 7815 O 747.422 -1.83569 0.0694875 0
M  V30 7816 C 747.484 -1.06913 3.43235 0
M  V30 7817 C 747.148 -0.100352 4.5689 0
M  V30 7818 C 748.145 0.689633 5.15306 0
M  V30 7819 C 745.83 0.0102436 5.02299 0
M  V30 7820 C 747.824 1.5772 6.17579 0
M  V30 7821 C 745.511 0.901368 6.04416 0
M  V30 7822 C 746.509 1.68341 6.61929 0
M  V30 7823 O 746.197 2.5596 7.62063 0
M  V30 7824 H 745.929 -0.117671 0.66568 0
M  V30 7825 H 748.483 0.2989 2.03214 0
M  V30 7826 H 746.713 -1.86736 3.38624 0
M  V30 7827 H 748.402 -1.61781 3.72266 0
M  V30 7828 H 749.168 0.614485 4.81092 0
M  V30 7829 H 745.047 -0.58829 4.57231 0
M  V30 7830 H 748.591 2.18805 6.62397 0
M  V30 7831 H 744.488 0.977637 6.38054 0
M  V30 7832 H 745.256 2.49721 7.79475 0
M  V30 7833 N 747.919 -1.57396 -0.0801906 0
M  V30 7834 C 749.167 -1.86467 -0.779384 0
M  V30 7835 C 749.488 -0.784243 -1.78535 0
M  V30 7836 O 748.758 0.187986 -1.94996 0
M  V30 7837 H 747.338 -0.68806 -0.29083 0
M  V30 7838 H 750 -1.94813 -0.0582749 0
M  V30 7839 H 749.096 -2.83701 -1.30078 0
M  V30 7840 N 749.397 0.351382 -1.53633 0
M  V30 7841 C 750.327 1.43688 -1.84055 0
M  V30 7842 C 751.308 1.55251 -0.695073 0
M  V30 7843 O 752.493 1.69587 -0.946257 0
M  V30 7844 C 749.623 2.80843 -2.04315 0
M  V30 7845 C 748.577 2.84094 -3.20117 0
M  V30 7846 C 747.903 4.2406 -3.25696 0
M  V30 7847 C 749.203 2.50334 -4.58399 0
M  V30 7848 H 750.897 1.18478 -2.74961 0
M  V30 7849 H 748.443 0.568509 -1.32303 0
M  V30 7850 H 750.396 3.56821 -2.2418 0
M  V30 7851 H 749.12 3.07471 -1.10132 0
M  V30 7852 H 747.779 2.10568 -3.00094 0
M  V30 7853 H 747.427 4.47785 -2.29123 0
M  V30 7854 H 747.127 4.27147 -4.03509 0
M  V30 7855 H 748.651 5.0189 -3.47762 0
M  V30 7856 H 750.065 3.16025 -4.78332 0
M  V30 7857 H 748.462 2.64717 -5.38558 0
M  V30 7858 H 749.532 1.45542 -4.62543 0
M  V30 7859 N 750.875 1.45233 0.611969 0
M  V30 7860 C 752.103 1.52539 1.39784 0
M  V30 7861 C 752.518 0.156533 1.8815 0
M  V30 7862 O 751.875 -0.84112 1.61961 0
M  V30 7863 C 751.926 2.50614 2.60528 0
M  V30 7864 O 751.647 3.8218 2.14173 0
M  V30 7865 C 753.148 2.67574 3.53439 0
M  V30 7866 H 750.368 0.51674 0.428043 0
M  V30 7867 H 752.912 1.90379 0.746727 0
M  V30 7868 H 751.067 2.15858 3.2169 0
M  V30 7869 H 751.481 4.35305 2.92592 0
M  V30 7870 H 752.955 3.40184 4.34717 0
M  V30 7871 H 753.432 1.73458 4.03496 0
M  V30 7872 H 754.038 3.0331 2.98133 0
M  V30 7873 N 752.353 -0.854086 1.3245 0
M  V30 7874 C 753.263 -1.99503 1.23434 0
M  V30 7875 C 754.279 -1.73371 0.147828 0
M  V30 7876 O 755.455 -1.97998 0.368609 0
M  V30 7877 C 752.52 -3.33192 0.958328 0
M  V30 7878 C 751.581 -3.72542 2.13333 0
M  V30 7879 C 750.814 -4.99852 1.8704 0
M  V30 7880 O 751.037 -5.64573 0.813239 0
M  V30 7881 O 749.971 -5.36345 2.73161 0
M  V30 7882 H 753.797 -2.10046 2.1935 0
M  V30 7883 H 751.382 -0.984823 1.12346 0
M  V30 7884 H 753.264 -4.13327 0.820918 0
M  V30 7885 H 751.939 -3.23687 0.0293299 0
M  V30 7886 H 750.846 -2.92981 2.32622 0
M  V30 7887 H 752.179 -3.86694 3.04514 0
M  V30 7888 N 753.831 -1.1567 -1.07043 0
M  V30 7889 C 754.794 -0.858906 -2.12498 0
M  V30 7890 C 755.794 0.142735 -1.60165 0
M  V30 7891 O 756.984 -0.0872678 -1.73981 0
M  V30 7892 C 754.116 -0.283021 -3.39723 0
M  V30 7893 H 755.309 -1.79368 -2.40348 0
M  V30 7894 H 752.862 -0.964608 -1.22984 0
M  V30 7895 H 753.597 0.659796 -3.17517 0
M  V30 7896 H 753.382 -1.00467 -3.7901 0
M  V30 7897 H 754.872 -0.0923543 -4.17498 0
M  V30 7898 N 755.309 1.25446 -0.953992 0
M  V30 7899 C 756.558 1.92441 -0.604101 0
M  V30 7900 C 756.871 1.75543 0.862796 0
M  V30 7901 O 758.077 2.37106 1.32262 0
M  V30 7902 C 756.533 3.44854 -1.02974 0
M  V30 7903 C 756.141 3.70464 -2.51914 0
M  V30 7904 C 757.885 4.1778 -0.752352 0
M  V30 7905 C 755.792 5.1638 -2.88281 0
M  V30 7906 H 754.722 0.720508 -0.222227 0
M  V30 7907 H 757.373 1.42318 -1.15836 0
M  V30 7908 H 755.755 3.93935 -0.403904 0
M  V30 7909 H 756.929 3.32038 -3.19511 0
M  V30 7910 H 755.244 3.10797 -2.77117 0
M  V30 7911 H 757.841 5.25261 -1.00024 0
M  V30 7912 H 758.184 4.15135 0.311212 0
M  V30 7913 H 758.717 3.74605 -1.33851 0
M  V30 7914 H 755.456 5.24135 -3.93653 0
M  V30 7915 H 754.976 5.55855 -2.25357 0
M  V30 7916 H 756.655 5.84497 -2.77439 0
M  V30 7917 N 756.787 0.722489 1.40064 0
M  V30 7918 C 757.75 0.0830209 2.2905 0
M  V30 7919 C 758.75 -0.680208 1.45705 0
M  V30 7920 O 759.94 -0.511084 1.66534 0
M  V30 7921 C 757.072 -0.892092 3.29021 0
M  V30 7922 H 758.265 0.866848 2.87099 0
M  V30 7923 H 755.818 0.487556 1.48501 0
M  V30 7924 H 756.553 -1.70273 2.76003 0
M  V30 7925 H 756.338 -0.34761 3.90556 0
M  V30 7926 H 757.828 -1.33648 3.95636 0
M  V30 7927 N 758.265 -1.50454 0.469181 0
M  V30 7928 C 759.49 -2.0722 -0.0864892 0
M  V30 7929 C 759.915 -1.33098 -1.32916 0
M  V30 7930 O 759.273 -0.378084 -1.77314 0
M  V30 7931 C 759.321 -3.58845 -0.355384 0
M  V30 7932 O 758.425 -3.86583 -1.43622 0
M  V30 7933 H 757.766 -0.663889 0.0121414 0
M  V30 7934 H 760.296 -1.93674 0.659674 0
M  V30 7935 H 760.306 -4.03617 -0.596447 0
M  V30 7936 H 758.981 -4.12211 0.552698 0
M  V30 7937 H 757.558 -3.5365 -1.18262 0
M  V30 7938 N 759.743 -0.201713 -1.56304 0
M  V30 7939 C 760.693 0.729444 -2.16016 0
M  V30 7940 C 761.677 1.17164 -1.10279 0
M  V30 7941 O 762.869 1.12893 -1.36324 0
M  V30 7942 C 759.998 1.94594 -2.82822 0
M  V30 7943 C 759.084 1.52434 -3.95758 0
M  V30 7944 N 759.475 0.814106 -4.99205 0
M  V30 7945 C 757.773 1.81314 -4.07481 0
M  V30 7946 C 758.474 0.601896 -5.78578 0
M  V30 7947 N 757.45 1.15263 -5.3124 0
M  V30 7948 H 761.252 0.178163 -2.93359 0
M  V30 7949 H 758.766 -0.00218038 -1.624 0
M  V30 7950 H 760.763 2.62357 -3.23998 0
M  V30 7951 H 759.423 2.50188 -2.06969 0
M  V30 7952 H 760.434 0.468872 -5.15773 0
M  V30 7953 H 757.111 2.3837 -3.42762 0
M  V30 7954 H 758.501 0.0380119 -6.71889 0
M  V30 7955 N 761.222 1.57436 0.0718424 0
M  V30 7956 C 762.638 1.53792 0.426628 0
M  V30 7957 C 762.838 0.921887 1.79174 0
M  V30 7958 O 761.894 0.524374 2.46995 0
M  V30 7959 C 763.207 2.98443 0.367739 0
M  V30 7960 C 764.755 3.09778 0.447928 0
M  V30 7961 C 765.23 4.5608 0.418946 0
M  V30 7962 N 766.721 4.60716 0.479022 0
M  V30 7963 C 767.456 5.71397 0.47881 0
M  V30 7964 N 766.952 6.91443 0.433417 0
M  V30 7965 N 768.745 5.59639 0.525364 0
M  V30 7966 H 760.896 1.95848 -0.822033 0
M  V30 7967 H 763.159 0.896418 -0.308447 0
M  V30 7968 H 762.865 3.47072 -0.56865 0
M  V30 7969 H 762.739 3.58335 1.17795 0
M  V30 7970 H 765.126 2.61122 1.37474 0
M  V30 7971 H 765.207 2.52796 -0.390857 0
M  V30 7972 H 764.851 5.05393 -0.504016 0
M  V30 7973 H 764.781 5.10925 1.27526 0
M  V30 7974 H 767.272 3.74328 0.518355 0
M  V30 7975 H 767.585 7.71562 0.43718 0
M  V30 7976 H 765.93 6.93847 0.400106 0
M  V30 7977 H 769.121 4.64756 0.558519 0
M  V30 7978 H 769.294 6.45896 0.52173 0
M  V30 7979 N 762.7 -0.34323 1.53817 0
M  V30 7980 C 763.663 -1.40444 1.8113 0
M  V30 7981 C 764.663 -1.45604 0.682366 0
M  V30 7982 O 765.853 -1.45974 0.950649 0
M  V30 7983 C 762.985 -2.79369 1.95361 0
M  V30 7984 H 764.178 -1.17489 2.75928 0
M  V30 7985 H 761.731 -0.577636 1.45234 0
M  V30 7986 H 762.466 -3.07607 1.02707 0
M  V30 7987 H 762.251 -2.7702 2.77493 0
M  V30 7988 H 763.741 -3.56178 2.18008 0
M  V30 7989 N 764.178 -1.45556 -0.604258 0
M  V30 7990 C 765.108 -1.57327 -1.72541 0
M  V30 7991 C 766.089 -0.424637 -1.64714 0
M  V30 7992 O 767.274 -0.648196 -1.83063 0
M  V30 7993 C 764.404 -1.54279 -3.11152 0
M  V30 7994 C 763.358 -2.67893 -3.33792 0
M  V30 7995 C 762.684 -2.499 -4.72709 0
M  V30 7996 C 763.984 -4.0988 -3.23722 0
M  V30 7997 H 765.678 -2.51175 -1.62947 0
M  V30 7998 H 763.224 -1.20884 -0.782504 0
M  V30 7999 H 765.177 -1.6111 -3.89386 0
M  V30 8000 H 763.901 -0.569627 -3.21594 0
M  V30 8001 H 762.56 -2.60495 -2.57949 0
M  V30 8002 H 762.208 -1.50715 -4.79889 0
M  V30 8003 H 761.908 -3.26091 -4.88813 0
M  V30 8004 H 763.432 -2.5859 -5.5314 0
M  V30 8005 H 764.846 -4.18503 -3.91826 0
M  V30 8006 H 763.243 -4.86487 -3.51355 0
M  V30 8007 H 764.313 -4.31553 -2.21111 0
M  V30 8008 N 765.656 0.84705 -1.32902 0
M  V30 8009 C 766.902 1.60414 -1.24078 0
M  V30 8010 C 767.235 1.93217 0.195105 0
M  V30 8011 O 766.51 1.58001 1.13428 0
M  V30 8012 C 766.793 2.91951 -2.108 0
M  V30 8013 C 766.646 2.6588 -3.62805 0
M  V30 8014 C 767.965 3.93299 -1.97494 0
M  V30 8015 H 765.084 0.58206 -0.452079 0
M  V30 8016 H 767.726 0.977562 -1.62922 0
M  V30 8017 H 765.876 3.45425 -1.77802 0
M  V30 8018 H 767.548 2.18902 -4.06054 0
M  V30 8019 H 765.791 1.99716 -3.85092 0
M  V30 8020 H 766.462 3.59574 -4.1882 0
M  V30 8021 H 768.938 3.49105 -2.26417 0
M  V30 8022 H 767.814 4.8318 -2.60438 0
M  V30 8023 H 768.075 4.31887 -0.944782 0
M  V30 8024 N 767.134 1.16236 1.06428 0
M  V30 8025 C 768.081 0.86769 2.13869 0
M  V30 8026 C 769.051 -0.183298 1.65086 0
M  V30 8027 O 770.236 -0.0488002 1.90738 0
M  V30 8028 C 767.376 0.373427 3.43074 0
M  V30 8029 C 766.489 1.48708 4.05598 0
M  V30 8030 C 765.624 0.947977 5.22673 0
M  V30 8031 C 764.663 2.03793 5.77178 0
M  V30 8032 N 763.8 1.51451 6.85571 0
M  V30 8033 H 768.64 1.78781 2.38414 0
M  V30 8034 H 766.177 0.891892 1.16977 0
M  V30 8035 H 768.135 0.0685035 4.17144 0
M  V30 8036 H 766.765 -0.509752 3.1875 0
M  V30 8037 H 765.817 1.908 3.29089 0
M  V30 8038 H 767.129 2.30964 4.42105 0
M  V30 8039 H 766.283 0.596154 6.03764 0
M  V30 8040 H 765.022 0.0947081 4.87608 0
M  V30 8041 H 764.027 2.39847 4.94726 0
M  V30 8042 H 765.252 2.89514 6.14295 0
M  V30 8043 H 763.198 0.683755 6.52427 0
M  V30 8044 H 763.115 2.27325 7.21013 0
M  V30 8045 H 764.383 1.19123 7.70344 0
M  V30 8046 N 768.612 -1.24939 0.960631 0
M  V30 8047 C 769.575 -2.239 0.49006 0
M  V30 8048 C 770.575 -1.55497 -0.409535 0
M  V30 8049 O 771.765 -1.72978 -0.205984 0
M  V30 8050 C 768.897 -3.39654 -0.291193 0
M  V30 8051 H 770.09 -2.67044 1.36482 0
M  V30 8052 H 767.643 -1.37429 0.744505 0
M  V30 8053 H 768.378 -3.01939 -1.18336 0
M  V30 8054 H 768.163 -3.90496 0.354276 0
M  V30 8055 H 769.653 -4.13125 -0.609693 0
M  V30 8056 N 770.09 -0.729906 -1.39679 0
M  V30 8057 C 771.506 -0.404951 -1.54377 0
M  V30 8058 C 771.706 1.08476 -1.6981 0
M  V30 8059 O 770.762 1.87087 -1.69572 0
M  V30 8060 C 772.075 -1.18352 -2.76429 0
M  V30 8061 C 773.623 -1.17124 -2.9026 0
M  V30 8062 C 774.098 -1.93227 -4.15244 0
M  V30 8063 N 775.589 -1.90368 -4.22273 0
M  V30 8064 C 776.324 -2.46065 -5.17918 0
M  V30 8065 N 775.82 -3.10378 -6.19385 0
M  V30 8066 N 777.613 -2.36127 -5.10099 0
M  V30 8067 H 769.764 -1.69567 -1.27909 0
M  V30 8068 H 772.027 -0.717527 -0.619564 0
M  V30 8069 H 771.733 -2.23743 -2.71352 0
M  V30 8070 H 771.607 -0.784589 -3.6895 0
M  V30 8071 H 773.994 -0.125478 -2.94833 0
M  V30 8072 H 774.075 -1.60951 -1.98817 0
M  V30 8073 H 773.719 -2.97802 -4.11432 0
M  V30 8074 H 773.649 -1.4681 -5.05722 0
M  V30 8075 H 776.14 -1.4351 -3.4959 0
M  V30 8076 H 776.453 -3.50358 -6.88817 0
M  V30 8077 H 774.798 -3.14467 -6.19787 0
M  V30 8078 H 777.989 -1.85529 -4.29763 0
M  V30 8079 H 778.162 -2.79833 -5.84463 0
M  V30 8080 N 771.568 1.50203 -0.477153 0
M  V30 8081 C 772.816 2.01959 0.0755889 0
M  V30 8082 C 773.137 1.3608 1.39668 0
M  V30 8083 O 772.407 0.508136 1.89195 0
M  V30 8084 H 770.987 0.74636 0.0309248 0
M  V30 8085 H 773.649 1.84473 -0.628959 0
M  V30 8086 H 772.745 3.11305 0.222683 0
M  V30 8087 N 773.046 0.209999 1.56195 0
M  V30 8088 C 774.274 -0.429996 2.02382 0
M  V30 8089 C 774.689 -1.54159 1.08998 0
M  V30 8090 O 774.046 -1.82239 0.0974856 0
M  V30 8091 C 774.097 -0.972433 3.48175 0
M  V30 8092 O 773.818 0.0948231 4.37997 0
M  V30 8093 C 775.319 -1.68683 4.09952 0
M  V30 8094 H 772.539 -0.106475 0.662498 0
M  V30 8095 H 775.083 0.323072 2.01932 0
M  V30 8096 H 773.238 -1.67582 3.49278 0
M  V30 8097 H 773.652 -0.31113 5.23576 0
M  V30 8098 H 775.126 -2.01851 5.13771 0
M  V30 8099 H 775.603 -2.59587 3.54276 0
M  V30 8100 H 776.209 -1.02893 4.12666 0
M  V30 8101 N 774.524 -1.57472 -0.0634922 0
M  V30 8102 C 775.94 -1.54016 -0.418466 0
M  V30 8103 C 776.14 -0.931376 -1.78683 0
M  V30 8104 O 775.196 -0.537465 -2.46714 0
M  V30 8105 C 776.509 -2.98634 -0.351906 0
M  V30 8106 C 778.057 -3.10012 -0.431494 0
M  V30 8107 C 778.532 -4.56296 -0.394754 0
M  V30 8108 N 780.023 -4.60964 -0.454583 0
M  V30 8109 C 780.758 -5.71643 -0.448501 0
M  V30 8110 N 780.254 -6.91663 -0.396742 0
M  V30 8111 N 782.047 -5.5991 -0.495677 0
M  V30 8112 H 774.198 -1.95409 0.832408 0
M  V30 8113 H 776.461 -0.894769 0.313197 0
M  V30 8114 H 776.167 -3.46766 0.587048 0
M  V30 8115 H 776.041 -3.58955 -1.15893 0
M  V30 8116 H 778.428 -2.61848 -1.36087 0
M  V30 8117 H 778.509 -2.52585 0.404258 0
M  V30 8118 H 778.153 -5.05119 0.530811 0
M  V30 8119 H 778.083 -5.11594 -1.24815 0
M  V30 8120 H 780.574 -3.74598 -0.498496 0
M  V30 8121 H 780.887 -7.71783 -0.396256 0
M  V30 8122 H 779.232 -6.9405 -0.363304 0
M  V30 8123 H 782.423 -4.65046 -0.533864 0
M  V30 8124 H 782.596 -6.46164 -0.487469 0
M  V30 8125 N 776.003 0.335068 -1.53997 0
M  V30 8126 C 777.414 0.910191 -1.6301 0
M  V30 8127 C 777.765 1.89271 -0.516809 0
M  V30 8128 O 776.89 2.13516 0.352123 0
M  V30 8129 C 777.485 1.65761 -2.9548 0
M  V30 8130 C 776.044 2.18163 -3.06728 0
M  V30 8131 C 775.191 1.00338 -2.5851 0
M  V30 8132 H 778.142 0.112965 -1.58297 0
M  V30 8133 H 778.163 2.52107 -2.84995 0
M  V30 8134 H 777.675 0.94227 -3.76488 0
M  V30 8135 H 775.776 2.92847 -2.30372 0
M  V30 8136 H 775.889 2.43952 -4.1234 0
M  V30 8137 H 774.253 1.37925 -2.14124 0
M  V30 8138 H 775.036 0.30254 -3.41964 0
M  V30 8139 N 777.481 1.45874 0.596531 0
M  V30 8140 C 778.728 1.50467 1.35521 0
M  V30 8141 C 779.056 0.150802 1.93915 0
M  V30 8142 O 778.311 -0.851913 1.76184 0
M  V30 8143 C 778.61 2.54034 2.51399 0
M  V30 8144 C 778.276 3.9844 2.11085 0
M  V30 8145 C 776.938 4.37758 1.99804 0
M  V30 8146 C 779.29 4.89209 1.79788 0
M  V30 8147 C 776.618 5.65727 1.55465 0
M  V30 8148 C 778.97 6.17602 1.36931 0
M  V30 8149 C 777.634 6.5584 1.24218 0
M  V30 8150 H 776.904 0.550597 0.495907 0
M  V30 8151 H 779.551 1.79279 0.673145 0
M  V30 8152 H 777.856 2.18832 3.24992 0
M  V30 8153 H 779.553 2.54822 3.09624 0
M  V30 8154 H 776.143 3.67353 2.20794 0
M  V30 8155 H 780.327 4.59562 1.87395 0
M  V30 8156 H 775.583 5.94139 1.44253 0
M  V30 8157 H 779.757 6.87373 1.11764 0
M  V30 8158 H 777.384 7.54897 0.896353 0
M  V30 8159 N 778.959 -0.83999 1.33349 0
M  V30 8160 C 780.205 -1.59753 1.24927 0
M  V30 8161 C 780.538 -1.93318 -0.184855 0
M  V30 8162 O 779.813 -1.586 -1.12589 0
M  V30 8163 C 780.096 -2.90829 2.12345 0
M  V30 8164 C 779.949 -2.63953 3.6421 0
M  V30 8165 C 781.268 -3.92246 1.99577 0
M  V30 8166 H 778.387 -0.579654 0.45516 0
M  V30 8167 H 781.029 -0.968909 1.63439 0
M  V30 8168 H 779.179 -3.44478 1.79631 0
M  V30 8169 H 780.851 -2.16745 4.07209 0
M  V30 8170 H 779.094 -1.97671 3.86146 0
M  V30 8171 H 779.765 -3.57348 4.20721 0
M  V30 8172 H 782.241 -3.479 2.28265 0
M  V30 8173 H 781.117 -4.81793 2.62996 0
M  V30 8174 H 781.378 -4.3138 0.967673 0
M  V30 8175 N 780.437 -1.16799 -1.0581 0
M  V30 8176 C 781.686 -0.94698 -1.78088 0
M  V30 8177 C 781.999 0.526016 -1.88394 0
M  V30 8178 O 783.205 0.865061 -2.5735 0
M  V30 8179 C 781.661 -1.64508 -3.20102 0
M  V30 8180 C 781.269 -3.15618 -3.17946 0
M  V30 8181 C 783.013 -1.50622 -3.96879 0
M  V30 8182 C 780.92 -3.78144 -4.5471 0
M  V30 8183 H 779.85 -0.35067 -0.667493 0
M  V30 8184 H 782.501 -1.39985 -1.18645 0
M  V30 8185 H 780.883 -1.11993 -3.79834 0
M  V30 8186 H 782.057 -3.75016 -2.67768 0
M  V30 8187 H 780.372 -3.29444 -2.54667 0
M  V30 8188 H 782.969 -1.94713 -4.97987 0
M  V30 8189 H 783.312 -0.455864 -4.13797 0
M  V30 8190 H 783.845 -2.00319 -3.43682 0
M  V30 8191 H 780.584 -4.83149 -4.42998 0
M  V30 8192 H 780.104 -3.23532 -5.05062 0
M  V30 8193 H 781.783 -3.79986 -5.2366 0
M  V30 8194 N 781.915 1.24427 -0.967243 0
M  V30 8195 C 783.14 1.9708 -0.646069 0
M  V30 8196 C 783.565 1.71272 0.777665 0
M  V30 8197 O 782.923 0.976179 1.52776 0
M  V30 8198 C 782.971 3.48501 -0.926266 0
M  V30 8199 O 782.075 4.12398 -0.0114653 0
M  V30 8200 H 781.416 0.617423 -0.244304 0
M  V30 8201 H 783.946 1.58215 -1.29727 0
M  V30 8202 H 783.956 3.98885 -0.857619 0
M  V30 8203 H 782.631 3.66613 -1.96386 0
M  V30 8204 H 781.208 3.72661 -0.133396 0
M  V30 8205 N 783.393 0.737304 1.3929 0
M  V30 8206 C 784.809 0.413132 1.5416 0
M  V30 8207 C 785.009 -1.07574 1.70382 0
M  V30 8208 O 784.065 -1.86185 1.70562 0
M  V30 8209 C 785.378 1.19817 2.75798 0
M  V30 8210 C 786.926 1.18662 2.89635 0
M  V30 8211 C 787.401 1.95427 4.14213 0
M  V30 8212 N 788.892 1.92605 4.21257 0
M  V30 8213 C 789.627 2.48808 5.16606 0
M  V30 8214 N 789.123 3.13659 6.1773 0
M  V30 8215 N 790.916 2.38829 5.08839 0
M  V30 8216 H 783.067 1.70243 1.27008 0
M  V30 8217 H 785.33 0.720802 0.61575 0
M  V30 8218 H 785.036 2.25179 2.70161 0
M  V30 8219 H 784.91 0.804144 3.68529 0
M  V30 8220 H 787.297 0.141112 2.94762 0
M  V30 8221 H 787.378 1.62003 1.97961 0
M  V30 8222 H 787.022 2.9998 4.09847 0
M  V30 8223 H 786.952 1.4949 5.04936 0
M  V30 8224 H 789.443 1.45362 3.48824 0
M  V30 8225 H 789.756 3.54006 6.8695 0
M  V30 8226 H 788.101 3.17749 6.1811 0
M  V30 8227 H 791.292 1.87806 4.28773 0
M  V30 8228 H 791.465 2.82929 5.82971 0
M  V30 8229 N 784.871 -1.49948 0.485112 0
M  V30 8230 C 786.096 -2.073 -0.0645059 0
M  V30 8231 C 786.521 -1.345 -1.31497 0
M  V30 8232 O 785.879 -0.39687 -1.76903 0
M  V30 8233 C 785.927 -3.59201 -0.317304 0
M  V30 8234 O 785.031 -3.88085 -1.39514 0
M  V30 8235 H 784.372 -0.663723 0.0191822 0
M  V30 8236 H 786.902 -1.92963 0.680179 0
M  V30 8237 H 786.912 -4.04227 -0.553604 0
M  V30 8238 H 785.587 -4.11602 0.596387 0
M  V30 8239 H 784.164 -3.54885 -1.14504 0
M  V30 8240 N 786.349 -0.21828 -1.56081 0
M  V30 8241 C 787.577 0.419258 -2.02608 0
M  V30 8242 C 787.992 1.53578 -1.09814 0
M  V30 8243 O 787.349 1.82185 -0.107149 0
M  V30 8244 C 787.4 0.953955 -3.48686 0
M  V30 8245 O 787.121 -0.11805 -4.37941 0
M  V30 8246 C 788.622 1.66506 -4.10841 0
M  V30 8247 H 785.842 0.10296 -0.663054 0
M  V30 8248 H 788.386 -0.333776 -2.01758 0
M  V30 8249 H 786.541 1.65727 -3.50162 0
M  V30 8250 H 786.955 0.283359 -5.23734 0
M  V30 8251 H 788.429 1.99123 -5.14834 0
M  V30 8252 H 788.906 2.57705 -3.55647 0
M  V30 8253 H 789.512 1.00703 -4.13206 0
M  V30 8254 N 787.827 1.57504 0.0551401 0
M  V30 8255 C 789.074 1.88055 0.751104 0
M  V30 8256 C 789.402 0.812231 1.76729 0
M  V30 8257 O 788.657 -0.189918 1.94776 0
M  V30 8258 C 788.956 3.25311 1.48013 0
M  V30 8259 C 788.622 4.46858 0.602375 0
M  V30 8260 C 787.284 4.79847 0.360536 0
M  V30 8261 C 789.636 5.212 -0.00524047 0
M  V30 8262 C 786.964 5.84582 -0.498127 0
M  V30 8263 C 789.316 6.26844 -0.851453 0
M  V30 8264 C 787.98 6.58324 -1.103 0
M  V30 8265 H 787.25 0.688142 0.274848 0
M  V30 8266 H 789.897 1.91497 0.0114795 0
M  V30 8267 H 788.202 3.17737 2.29239 0
M  V30 8268 H 789.899 3.46189 2.02371 0
M  V30 8269 H 786.489 4.21049 0.801007 0
M  V30 8270 H 790.673 4.96013 0.168682 0
M  V30 8271 H 785.929 6.07361 -0.701594 0
M  V30 8272 H 790.103 6.83603 -1.32893 0
M  V30 8273 H 787.73 7.39304 -1.77011 0
M  V30 8274 N 789.305 -0.326896 1.54172 0
M  V30 8275 C 790.268 -1.38515 1.8261 0
M  V30 8276 C 791.268 -1.44872 0.697771 0
M  V30 8277 O 792.458 -1.44957 0.966078 0
M  V30 8278 C 789.59 -2.77281 1.98313 0
M  V30 8279 H 790.783 -1.14556 2.77159 0
M  V30 8280 H 788.336 -0.562199 1.45839 0
M  V30 8281 H 789.071 -3.065 1.05964 0
M  V30 8282 H 788.856 -2.74061 2.80416 0
M  V30 8283 H 790.346 -3.53845 2.21773 0
M  V30 8284 N 790.784 -1.46188 -0.588786 0
M  V30 8285 C 792.032 -1.50885 -1.34455 0
M  V30 8286 C 792.353 -0.159555 -1.94346 0
M  V30 8287 O 791.623 0.813239 -1.78222 0
M  V30 8288 H 790.203 -0.555707 -0.499198 0
M  V30 8289 H 792.865 -1.82277 -0.690014 0
M  V30 8290 H 791.961 -2.25816 -2.15438 0
M  V30 8291 N 792.262 0.832906 -1.33792 0
M  V30 8292 C 793.212 1.93178 -1.21105 0
M  V30 8293 C 794.196 1.60506 -0.112491 0
M  V30 8294 O 795.388 1.73681 -0.341179 0
M  V30 8295 C 792.517 3.29647 -0.958526 0
M  V30 8296 C 791.603 3.68469 -2.0998 0
M  V30 8297 N 791.994 3.78936 -3.35024 0
M  V30 8298 C 790.292 3.98249 -2.00782 0
M  V30 8299 C 790.993 4.12731 -4.09912 0
M  V30 8300 N 789.969 4.25419 -3.38407 0
M  V30 8301 H 793.771 1.99434 -2.15878 0
M  V30 8302 H 791.285 1.02598 -1.25886 0
M  V30 8303 H 793.282 4.08173 -0.848552 0
M  V30 8304 H 791.942 3.24694 -0.019387 0
M  V30 8305 H 792.953 3.62688 -3.69699 0
M  V30 8306 H 789.63 4.01474 -1.14564 0
M  V30 8307 H 791.02 4.28117 -5.17847 0
M  V30 8308 N 793.74 1.17359 1.05189 0
M  V30 8309 C 794.988 0.960087 1.77839 0
M  V30 8310 C 795.309 -0.512554 1.88143 0
M  V30 8311 O 794.579 -1.3721 1.39822 0
M  V30 8312 H 793.159 0.352234 0.658741 0
M  V30 8313 H 795.821 1.47834 1.27008 0
M  V30 8314 H 794.917 1.38843 2.79516 0
M  V30 8315 N 795.218 -1.23913 0.973828 0
M  V30 8316 C 796.634 -1.44325 0.681363 0
M  V30 8317 C 796.834 -1.86832 -0.754728 0
M  V30 8318 O 795.89 -2.01024 -1.52793 0
M  V30 8319 C 797.203 -2.50017 1.67069 0
M  V30 8320 C 798.751 -2.63838 1.68399 0
M  V30 8321 C 799.226 -3.72734 2.66145 0
M  V30 8322 N 800.717 -3.80169 2.64624 0
M  V30 8323 C 801.452 -4.6397 3.36927 0
M  V30 8324 N 800.948 -5.51911 4.18767 0
M  V30 8325 N 802.741 -4.58106 3.25722 0
M  V30 8326 H 794.892 -0.946204 1.9016 0
M  V30 8327 H 797.155 -0.477374 0.819035 0
M  V30 8328 H 796.861 -2.25686 2.69738 0
M  V30 8329 H 796.735 -3.48287 1.4483 0
M  V30 8330 H 799.122 -2.87524 0.664379 0
M  V30 8331 H 799.203 -1.65906 1.94702 0
M  V30 8332 H 798.847 -3.49797 3.68245 0
M  V30 8333 H 798.777 -4.70193 2.3712 0
M  V30 8334 H 801.268 -3.17319 2.05224 0
M  V30 8335 H 801.581 -6.12828 4.70809 0
M  V30 8336 H 799.926 -5.51556 4.2286 0
M  V30 8337 H 803.117 -3.8842 2.61242 0
M  V30 8338 H 803.29 -5.23188 3.82333 0
M  V30 8339 N 796.696 -0.74468 -1.38897 0
M  V30 8340 C 797.926 -0.306982 -2.04307 0
M  V30 8341 C 798.334 1.06652 -1.56275 0
M  V30 8342 O 797.677 1.68699 -0.72708 0
M  V30 8343 C 797.739 -0.241186 -3.5869 0
M  V30 8344 C 797.403 -1.55476 -4.2974 0
M  V30 8345 C 798.4 -2.50229 -4.55721 0
M  V30 8346 C 796.085 -1.82173 -4.68101 0
M  V30 8347 C 798.079 -3.69905 -5.19085 0
M  V30 8348 C 795.766 -3.02125 -5.31191 0
M  V30 8349 C 796.764 -3.95812 -5.56616 0
M  V30 8350 O 796.452 -5.13656 -6.18395 0
M  V30 8351 H 796.184 -0.130416 -0.663301 0
M  V30 8352 H 798.738 -1.01192 -1.78744 0
M  V30 8353 H 796.968 0.519925 -3.83189 0
M  V30 8354 H 798.657 0.165806 -4.05561 0
M  V30 8355 H 799.423 -2.30877 -4.26522 0
M  V30 8356 H 795.302 -1.10091 -4.47662 0
M  V30 8357 H 798.846 -4.43047 -5.38846 0
M  V30 8358 H 794.743 -3.21374 -5.59811 0
M  V30 8359 H 795.511 -5.14119 -6.36886 0
M  V30 8360 N 798.174 1.49689 -0.493057 0
M  V30 8361 C 799.137 2.27502 0.278485 0
M  V30 8362 C 800.137 1.33184 0.901037 0
M  V30 8363 O 801.327 1.56415 0.766801 0
M  V30 8364 C 798.459 3.10881 1.39878 0
M  V30 8365 H 799.652 2.97163 -0.404219 0
M  V30 8366 H 797.205 1.54324 -0.247774 0
M  V30 8367 H 797.94 2.45767 2.11587 0
M  V30 8368 H 797.725 3.80219 0.957924 0
M  V30 8369 H 799.215 3.69673 1.94247 0
M  V30 8370 N 799.652 0.226554 1.55963 0
M  V30 8371 C 800.9 -0.402991 1.98041 0
M  V30 8372 C 801.221 -1.59938 1.11557 0
M  V30 8373 O 800.491 -1.9494 0.193719 0
M  V30 8374 H 799.071 -0.15188 0.731397 0
M  V30 8375 H 801.733 0.320613 1.92245 0
M  V30 8376 H 800.829 -0.725937 3.0354 0
M  V30 8377 N 801.13 -1.57531 -0.0467866 0
M  V30 8378 C 802.08 -2.01845 -1.06031 0
M  V30 8379 C 803.064 -0.904662 -1.33059 0
M  V30 8380 O 804.256 -1.16858 -1.32941 0
M  V30 8381 C 801.385 -2.48673 -2.36679 0
M  V30 8382 C 800.471 -3.66837 -2.12818 0
M  V30 8383 N 800.862 -4.80172 -1.5896 0
M  V30 8384 C 799.16 -3.73869 -2.43183 0
M  V30 8385 C 799.861 -5.61895 -1.50494 0
M  V30 8386 N 798.837 -5.0648 -1.97431 0
M  V30 8387 H 802.639 -2.869 -0.637623 0
M  V30 8388 H 800.153 -1.6041 -0.253427 0
M  V30 8389 H 802.15 -2.78671 -3.10077 0
M  V30 8390 H 800.81 -1.65016 -2.79642 0
M  V30 8391 H 801.821 -5.01967 -1.27474 0
M  V30 8392 H 798.498 -3.00977 -2.89342 0
M  V30 8393 H 799.888 -6.62918 -1.09494 0
M  V30 8394 N 802.608 0.318715 -1.54344 0
M  V30 8395 C 803.854 1.05383 -1.73971 0
M  V30 8396 C 804.209 1.85524 -0.509781 0
M  V30 8397 O 803.502 1.8502 0.49782 0
M  V30 8398 C 803.696 2.00514 -2.95853 0
M  V30 8399 C 803.525 1.29728 -4.30582 0
M  V30 8400 C 802.295 1.03177 -4.94654 0
M  V30 8401 C 804.493 0.710718 -5.09366 0
M  V30 8402 N 802.475 0.29232 -6.13204 0
M  V30 8403 C 803.846 0.103132 -6.19914 0
M  V30 8404 C 805.901 0.614011 -4.94099 0
M  V30 8405 C 804.604 -0.591782 -7.16862 0
M  V30 8406 C 806.63 -0.0672115 -5.91362 0
M  V30 8407 C 805.992 -0.663721 -7.01266 0
M  V30 8408 H 802.091 0.369157 -0.689382 0
M  V30 8409 H 804.675 0.334453 -1.91806 0
M  V30 8410 H 802.846 2.69719 -2.79475 0
M  V30 8411 H 804.578 2.67046 -3.04086 0
M  V30 8412 H 801.333 1.32536 -4.54677 0
M  V30 8413 H 801.757 -0.0634005 -6.7697 0
M  V30 8414 H 806.399 1.06091 -4.09273 0
M  V30 8415 H 804.117 -1.0505 -8.01243 0
M  V30 8416 H 807.703 -0.141742 -5.81627 0
M  V30 8417 H 806.583 -1.18248 -7.75234 0
M  V30 8418 N 804.086 1.46499 0.581025 0
M  V30 8419 C 805.314 1.5547 1.36517 0
M  V30 8420 C 805.729 0.196407 1.87776 0
M  V30 8421 O 805.086 -0.806577 1.63709 0
M  V30 8422 C 805.137 2.56084 2.55154 0
M  V30 8423 O 804.858 3.86637 2.06018 0
M  V30 8424 C 806.359 2.75011 3.47683 0
M  V30 8425 H 803.579 0.525703 0.416986 0
M  V30 8426 H 806.123 1.9192 0.706177 0
M  V30 8427 H 804.278 2.22633 3.17039 0
M  V30 8428 H 804.692 4.41413 2.83292 0
M  V30 8429 H 806.166 3.49329 4.27403 0
M  V30 8430 H 806.643 1.81978 3.99726 0
M  V30 8431 H 807.249 3.09565 2.91632 0
M  V30 8432 N 805.565 -0.825799 1.34232 0
M  V30 8433 C 806.813 -1.57873 1.26177 0
M  V30 8434 C 807.134 -1.94267 -0.168904 0
M  V30 8435 O 806.404 -1.62045 -1.10084 0
M  V30 8436 H 804.984 -0.585388 0.464037 0
M  V30 8437 H 807.646 -0.986163 1.6811 0
M  V30 8438 H 806.742 -2.50283 1.86453 0
M  V30 8439 N 807.043 -1.17915 -1.04565 0
M  V30 8440 C 808.32 -0.881187 -1.74627 0
M  V30 8441 C 808.7 0.617123 -2.01878 0
M  V30 8442 O 808.048 1.57032 -1.65991 0
M  V30 8443 C 808.258 -1.72299 -3.03503 0
M  V30 8444 C 809.606 -1.94688 -3.77335 0
M  V30 8445 O 810.63 -1.6931 -3.13389 0
M  V30 8446 O 809.489 -2.37379 -4.92253 0
M  V30 8447 H 806.583 -0.326864 -0.759664 0
M  V30 8448 H 809.129 -1.28642 -1.10676 0
M  V30 8449 H 807.901 -2.73891 -2.79462 0
M  V30 8450 H 807.524 -1.31593 -3.75192 0
M  V30 8451 N 808.521 1.23394 -0.980386 0
M  V30 8452 C 809.767 1.92094 -0.650223 0
M  V30 8453 C 810.1 1.76309 0.814173 0
M  V30 8454 O 809.375 1.12406 1.5873 0
M  V30 8455 C 809.658 3.44713 -1.04139 0
M  V30 8456 C 809.511 3.69606 -2.56342 0
M  V30 8457 C 810.83 4.36191 -0.585296 0
M  V30 8458 H 807.949 0.697618 -0.237695 0
M  V30 8459 H 810.591 1.45517 -1.22167 0
M  V30 8460 H 808.741 3.84513 -0.55515 0
M  V30 8461 H 810.413 3.39288 -3.1254 0
M  V30 8462 H 808.656 3.14318 -2.98976 0
M  V30 8463 H 809.327 4.76441 -2.78762 0
M  V30 8464 H 811.803 4.03836 -1.00276 0
M  V30 8465 H 810.679 5.41679 -0.887428 0
M  V30 8466 H 810.94 4.39097 0.51438 0
M  V30 8467 N 809.999 0.752036 1.385 0
M  V30 8468 C 811.245 0.316909 2.00916 0
M  V30 8469 C 811.6 -1.08884 1.58625 0
M  V30 8470 O 810.893 -1.73494 0.813047 0
M  V30 8471 C 811.087 0.376155 3.55415 0
M  V30 8472 C 810.916 1.78612 4.12708 0
M  V30 8473 C 809.686 2.4023 4.44542 0
M  V30 8474 C 811.884 2.74253 4.35075 0
M  V30 8475 N 809.866 3.73204 4.87434 0
M  V30 8476 C 811.237 3.9199 4.80358 0
M  V30 8477 C 813.292 2.71795 4.17171 0
M  V30 8478 C 811.995 5.07627 5.09615 0
M  V30 8479 C 814.021 3.86589 4.47552 0
M  V30 8480 C 813.383 5.03064 4.93058 0
M  V30 8481 H 809.482 0.16259 0.764911 0
M  V30 8482 H 812.066 0.981657 1.68142 0
M  V30 8483 H 810.237 -0.258317 3.8754 0
M  V30 8484 H 811.969 -0.0791421 4.04623 0
M  V30 8485 H 808.724 1.92009 4.32931 0
M  V30 8486 H 809.148 4.41519 5.13215 0
M  V30 8487 H 813.79 1.82929 3.81178 0
M  V30 8488 H 811.508 5.97109 5.44506 0
M  V30 8489 H 815.094 3.86005 4.35306 0
M  V30 8490 H 813.974 5.90417 5.16118 0
M  V30 8491 N 811.477 -1.49425 0.500989 0
M  V30 8492 C 812.702 -2.07356 -0.0425154 0
M  V30 8493 C 813.127 -1.35887 -1.30063 0
M  V30 8494 O 812.485 -0.41561 -1.76472 0
M  V30 8495 C 812.533 -3.59518 -0.279188 0
M  V30 8496 O 811.637 -3.89542 -1.3539 0
M  V30 8497 H 810.978 -0.663482 0.0262207 0
M  V30 8498 H 813.508 -1.92231 0.700607 0
M  V30 8499 H 813.518 -4.04791 -0.5107 0
M  V30 8500 H 812.193 -4.10946 0.640009 0
M  V30 8501 H 810.77 -3.56079 -1.10734 0
M  V30 8502 N 812.955 -0.234822 -1.55841 0
M  V30 8503 C 814.18 0.400741 -2.03492 0
M  V30 8504 C 814.605 1.51618 -1.11327 0
M  V30 8505 O 813.963 1.81002 -0.103922 0
M  V30 8506 C 814.011 0.897184 -3.49261 0
M  V30 8507 O 813.115 2.00764 -3.60233 0
M  V30 8508 H 812.456 0.0890023 -0.658008 0
M  V30 8509 H 814.986 -0.357345 -2.01455 0
M  V30 8510 H 814.996 1.20356 -3.89844 0
M  V30 8511 H 813.671 0.0808639 -4.15821 0
M  V30 8512 H 812.248 1.70689 -3.31541 0
M  V30 8513 N 814.433 1.57553 0.0384317 0
M  V30 8514 C 815.679 1.89973 0.726772 0
M  V30 8515 C 816.034 0.832381 1.73462 0
M  V30 8516 O 815.327 -0.159975 1.90931 0
M  V30 8517 C 815.521 3.26862 1.44554 0
M  V30 8518 C 815.35 4.46812 0.508814 0
M  V30 8519 C 814.12 5.05124 0.133323 0
M  V30 8520 C 816.318 5.13876 -0.20881 0
M  V30 8521 N 814.3 6.08591 -0.805636 0
M  V30 8522 C 815.671 6.11821 -1.00376 0
M  V30 8523 C 817.726 4.9713 -0.276749 0
M  V30 8524 C 816.429 6.94825 -1.86038 0
M  V30 8525 C 818.455 5.80689 -1.12047 0
M  V30 8526 C 817.817 6.78197 -1.90337 0
M  V30 8527 H 813.916 0.744153 0.240334 0
M  V30 8528 H 816.5 1.94696 -0.0128735 0
M  V30 8529 H 814.671 3.23085 2.1557 0
M  V30 8530 H 816.403 3.46826 2.08552 0
M  V30 8531 H 813.158 4.71022 0.493484 0
M  V30 8532 H 813.582 6.64994 -1.26935 0
M  V30 8533 H 818.224 4.21631 0.314222 0
M  V30 8534 H 815.942 7.69676 -2.46219 0
M  V30 8535 H 819.528 5.69782 -1.17645 0
M  V30 8536 H 818.408 7.41731 -2.54569 0
M  V30 8537 N 815.911 -0.310526 1.54511 0
M  V30 8538 C 816.821 -1.4054 1.87844 0
M  V30 8539 C 817.837 -1.55954 0.771635 0
M  V30 8540 O 819.013 -1.70801 1.06719 0
M  V30 8541 C 816.078 -2.75063 2.11048 0
M  V30 8542 C 815.139 -2.68715 3.348 0
M  V30 8543 C 814.372 -3.96821 3.56887 0
M  V30 8544 O 814.595 -4.95721 2.82165 0
M  V30 8545 O 813.529 -3.99291 4.50389 0
M  V30 8546 H 817.355 -1.15275 2.80972 0
M  V30 8547 H 814.94 -0.505732 1.4058 0
M  V30 8548 H 816.822 -3.54671 2.27566 0
M  V30 8549 H 815.497 -3.00191 1.21108 0
M  V30 8550 H 814.404 -1.87611 3.23655 0
M  V30 8551 H 815.737 -2.4854 4.2484 0
M  V30 8552 N 817.389 -1.46805 -0.573248 0
M  V30 8553 C 818.321 -1.54127 -1.6964 0
M  V30 8554 C 819.334 -0.428778 -1.57052 0
M  V30 8555 O 820.523 -0.697612 -1.64303 0
M  V30 8556 C 817.623 -1.41438 -3.07975 0
M  V30 8557 C 816.796 -2.66974 -3.46474 0
M  V30 8558 C 815.855 -2.48349 -4.63906 0
M  V30 8559 O 814.881 -3.22109 -4.69292 0
M  V30 8560 N 816.083 -1.55129 -5.59388 0
M  V30 8561 H 818.848 -2.50971 -1.6381 0
M  V30 8562 H 816.409 -1.42981 -0.759479 0
M  V30 8563 H 818.401 -1.26737 -3.84343 0
M  V30 8564 H 816.971 -0.527388 -3.08119 0
M  V30 8565 H 816.191 -2.9655 -2.59715 0
M  V30 8566 H 817.479 -3.50347 -3.68964 0
M  V30 8567 H 816.877 -0.94324 -5.57781 0
M  V30 8568 H 815.434 -1.46387 -6.35149 0
M  V30 8569 N 818.867 0.818669 -1.34668 0
M  V30 8570 C 819.797 1.94468 -1.29245 0
M  V30 8571 C 820.778 1.69257 -0.169101 0
M  V30 8572 O 821.963 1.90794 -0.362143 0
M  V30 8573 C 819.093 3.31001 -1.05145 0
M  V30 8574 C 818.047 3.70663 -2.13992 0
M  V30 8575 C 817.373 5.05226 -1.75074 0
M  V30 8576 C 818.673 3.82312 -3.55858 0
M  V30 8577 H 820.367 1.99263 -2.2346 0
M  V30 8578 H 817.913 0.957304 -1.07572 0
M  V30 8579 H 819.866 4.09364 -0.999949 0
M  V30 8580 H 818.59 3.26517 -0.0737312 0
M  V30 8581 H 817.249 2.94578 -2.18219 0
M  V30 8582 H 816.897 4.97233 -0.759518 0
M  V30 8583 H 816.597 5.32734 -2.47928 0
M  V30 8584 H 818.121 5.86042 -1.71427 0
M  V30 8585 H 819.535 4.50935 -3.5402 0
M  V30 8586 H 817.932 4.21278 -4.2737 0
M  V30 8587 H 819.002 2.84193 -3.9289 0
M  V30 8588 N 820.346 1.18468 1.03938 0
M  V30 8589 C 821.309 0.914944 2.10146 0
M  V30 8590 C 822.309 -0.10022 1.60487 0
M  V30 8591 O 823.499 0.133365 1.73689 0
M  V30 8592 C 820.631 0.372993 3.38853 0
M  V30 8593 H 821.824 1.85677 2.35508 0
M  V30 8594 H 819.377 0.996876 1.20383 0
M  V30 8595 H 820.112 -0.57538 3.19155 0
M  V30 8596 H 819.897 1.1048 3.76213 0
M  V30 8597 H 821.387 0.203014 4.17106 0
M  V30 8598 N 821.824 -1.22873 0.986916 0
M  V30 8599 C 823.049 -1.96028 0.677341 0
M  V30 8600 C 823.474 -1.72487 -0.750319 0
M  V30 8601 O 822.832 -1.00036 -1.51203 0
M  V30 8602 C 822.88 -3.46983 0.981593 0
M  V30 8603 O 821.984 -4.12328 0.0770729 0
M  V30 8604 H 821.325 -0.613458 0.254096 0
M  V30 8605 H 823.855 -1.56132 1.32227 0
M  V30 8606 H 823.865 -3.9747 0.920969 0
M  V30 8607 H 822.54 -3.63442 2.02194 0
M  V30 8608 H 821.117 -3.72402 0.192666 0
M  V30 8609 N 823.302 -0.75937 -1.38099 0
M  V30 8610 C 824.527 -0.327859 -2.04792 0
M  V30 8611 C 824.952 1.03752 -1.56899 0
M  V30 8612 O 824.31 1.66235 -0.723581 0
M  V30 8613 C 824.358 -0.366264 -3.58735 0
M  V30 8614 O 823.462 0.637697 -4.0744 0
M  V30 8615 H 822.803 -0.144092 -0.648177 0
M  V30 8616 H 825.333 -1.03211 -1.7666 0
M  V30 8617 H 825.343 -0.219179 -4.07411 0
M  V30 8618 H 824.018 -1.36243 -3.92951 0
M  V30 8619 H 822.595 0.454749 -3.70117 0
M  V30 8620 N 824.78 1.49157 -0.508906 0
M  V30 8621 C 826.026 2.02773 0.0328469 0
M  V30 8622 C 826.359 1.38714 1.35912 0
M  V30 8623 O 825.634 0.525536 1.87266 0
M  V30 8624 C 825.917 3.59664 0.177088 0
M  V30 8625 C 825.77 4.34239 -1.17287 0
M  V30 8626 C 827.089 4.30505 0.913977 0
M  V30 8627 H 824.208 0.736926 0.0104631 0
M  V30 8628 H 826.85 1.781 -0.661851 0
M  V30 8629 H 825 3.80818 0.768774 0
M  V30 8630 H 826.672 4.24561 -1.80404 0
M  V30 8631 H 824.915 3.96486 -1.76016 0
M  V30 8632 H 825.586 5.42397 -1.02516 0
M  V30 8633 H 828.062 4.14054 0.412084 0
M  V30 8634 H 826.938 5.40012 0.983759 0
M  V30 8635 H 827.199 3.96302 1.95951 0
M  V30 8636 N 826.258 0.243083 1.55714 0
M  V30 8637 C 827.669 -0.260788 1.8487 0
M  V30 8638 C 828.02 -1.57879 1.16485 0
M  V30 8639 O 827.145 -2.1184 0.441908 0
M  V30 8640 C 827.74 -0.479954 3.35383 0
M  V30 8641 C 826.299 -0.928096 3.64778 0
M  V30 8642 C 825.446 -0.00316416 2.773 0
M  V30 8643 H 828.397 0.465743 1.51712 0
M  V30 8644 H 828.418 -1.32308 3.56756 0
M  V30 8645 H 827.93 0.479468 3.85127 0
M  V30 8646 H 826.031 -1.90012 3.20509 0
M  V30 8647 H 826.144 -0.7876 4.72582 0
M  V30 8648 H 824.508 -0.513849 2.49463 0
M  V30 8649 H 825.291 0.951562 3.29849 0
M  V30 8650 N 827.736 -1.57571 -0.0300757 0
M  V30 8651 C 828.646 -2.09892 -1.04798 0
M  V30 8652 C 829.662 -1.03732 -1.39698 0
M  V30 8653 O 830.838 -1.35461 -1.49038 0
M  V30 8654 C 827.903 -2.56707 -2.33028 0
M  V30 8655 C 826.964 -3.77345 -2.04718 0
M  V30 8656 C 826.197 -4.21918 -3.26834 0
M  V30 8657 O 826.42 -3.66025 -4.37472 0
M  V30 8658 O 825.354 -5.14362 -3.12594 0
M  V30 8659 H 829.18 -2.97023 -0.633344 0
M  V30 8660 H 826.765 -1.47344 -0.246991 0
M  V30 8661 H 828.647 -2.87154 -3.08417 0
M  V30 8662 H 827.322 -1.72688 -2.73789 0
M  V30 8663 H 826.229 -3.51919 -1.26901 0
M  V30 8664 H 827.562 -4.62345 -1.68813 0
M  V30 8665 N 829.214 0.302327 -1.54673 0
M  V30 8666 C 830.463 1.03533 -1.73101 0
M  V30 8667 C 830.776 1.88473 -0.523174 0
M  V30 8668 O 831.982 2.65029 -0.589229 0
M  V30 8669 C 830.438 1.89043 -3.06252 0
M  V30 8670 C 830.046 1.09112 -4.3451 0
M  V30 8671 C 831.79 2.61951 -3.34039 0
M  V30 8672 C 829.697 1.93891 -5.58713 0
M  V30 8673 H 828.627 0.390261 -0.645145 0
M  V30 8674 H 831.278 0.2924 -1.81155 0
M  V30 8675 H 829.66 2.67319 -2.92159 0
M  V30 8676 H 830.834 0.354596 -4.59434 0
M  V30 8677 H 829.149 0.477923 -4.13648 0
M  V30 8678 H 831.746 3.25729 -4.24033 0
M  V30 8679 H 832.089 3.30711 -2.52855 0
M  V30 8680 H 832.622 1.90725 -3.49097 0
M  V30 8681 H 829.361 1.29604 -6.4256 0
M  V30 8682 H 828.881 2.6522 -5.37976 0
M  V30 8683 H 830.56 2.51971 -5.95919 0
M  V30 8684 N 830.692 1.47107 0.565454 0
M  V30 8685 C 831.622 1.61846 1.68309 0
M  V30 8686 C 832.603 0.468159 1.63531 0
M  V30 8687 O 833.788 0.696504 1.8128 0
M  V30 8688 C 830.918 1.62474 3.06952 0
M  V30 8689 C 829.872 2.76649 3.26572 0
M  V30 8690 C 829.198 2.62345 4.65917 0
M  V30 8691 C 830.498 4.18319 3.12741 0
M  V30 8692 H 832.192 2.55407 1.5623 0
M  V30 8693 H 829.738 1.22916 0.750179 0
M  V30 8694 H 831.691 1.71378 3.84977 0
M  V30 8695 H 830.415 0.654692 3.19971 0
M  V30 8696 H 829.074 2.67242 2.50952 0
M  V30 8697 H 828.722 1.63386 4.75725 0
M  V30 8698 H 828.422 3.38936 4.79996 0
M  V30 8699 H 829.946 2.73165 5.46089 0
M  V30 8700 H 831.36 4.28745 3.80593 0
M  V30 8701 H 829.757 4.95632 3.38333 0
M  V30 8702 H 830.827 4.37263 2.09592 0
M  V30 8703 N 832.17 -0.811516 1.35101 0
M  V30 8704 C 833.102 -1.93102 1.23468 0
M  V30 8705 C 834.115 -1.62021 0.159095 0
M  V30 8706 O 835.304 -1.73682 0.411945 0
M  V30 8707 C 832.404 -3.27345 0.877404 0
M  V30 8708 C 831.577 -3.86368 2.05033 0
M  V30 8709 C 830.636 -4.99009 1.66963 0
M  V30 8710 O 829.662 -5.16698 2.38772 0
M  V30 8711 N 830.864 -5.7749 0.590394 0
M  V30 8712 H 833.629 -2.0361 2.19916 0
M  V30 8713 H 831.19 -0.988687 1.28205 0
M  V30 8714 H 833.182 -4.00163 0.604298 0
M  V30 8715 H 831.752 -3.126 0.00275267 0
M  V30 8716 H 830.972 -3.05804 2.48752 0
M  V30 8717 H 832.26 -4.22533 2.83449 0
M  V30 8718 H 831.658 -5.657 -0.00633259 0
M  V30 8719 H 830.215 -6.50708 0.377055 0
M  V30 8720 N 833.648 -1.19017 -1.03309 0
M  V30 8721 C 834.895 -0.990214 -1.76638 0
M  V30 8722 C 835.223 0.479435 -1.88498 0
M  V30 8723 O 834.478 1.37223 -1.39529 0
M  V30 8724 C 834.777 -1.59927 -3.19622 0
M  V30 8725 C 834.443 -3.09632 -3.27779 0
M  V30 8726 C 833.105 -3.50491 -3.29712 0
M  V30 8727 C 835.457 -4.05644 -3.27264 0
M  V30 8728 C 832.785 -4.85921 -3.28782 0
M  V30 8729 C 835.137 -5.41 -3.27875 0
M  V30 8730 C 833.801 -5.81295 -3.28104 0
M  V30 8731 H 833.071 -0.362345 -0.646364 0
M  V30 8732 H 835.718 -1.48197 -1.21284 0
M  V30 8733 H 834.023 -1.0297 -3.78027 0
M  V30 8734 H 835.72 -1.41989 -3.7502 0
M  V30 8735 H 832.31 -2.77073 -3.26999 0
M  V30 8736 H 836.494 -3.75124 -3.24955 0
M  V30 8737 H 831.75 -5.16427 -3.27281 0
M  V30 8738 H 835.924 -6.15157 -3.26428 0
M  V30 8739 H 833.551 -6.86211 -3.27138 0
M  V30 8740 N 835.127 1.22348 -0.993418 0
M  V30 8741 C 836.075 2.26315 -0.537052 0
M  V30 8742 C 837.069 1.643 0.412545 0
M  V30 8743 O 838.275 1.77729 0.285008 0
M  V30 8744 H 834.65 0.735792 -0.155286 0
M  V30 8745 H 836.621 2.62157 -1.42535 0
M  V30 8746 C 835.37 3.47449 0.132118 0
M  V30 8747 H 834.693 3.9543 -0.589519 0
M  V30 8748 H 836.133 4.21965 0.414884 0
M  V30 8749 C 834.592 3.07893 1.36761 0
M  V30 8750 O 835.122 3.17338 2.46291 0
M  V30 8751 N 833.328 2.62672 1.24305 0
M  V30 8752 H 832.875 2.55186 0.351826 0
M  V30 8753 H 832.833 2.36574 2.07076 0
M  V30 8754 N 836.605 0.766683 1.37694 0
M  V30 8755 C 837.535 0.163432 2.32927 0
M  V30 8756 C 838.516 -0.688861 1.55527 0
M  V30 8757 O 839.701 -0.627363 1.83787 0
M  V30 8758 C 836.831 -0.720416 3.39746 0
M  V30 8759 C 835.785 0.0301718 4.27989 0
M  V30 8760 C 835.111 -0.972788 5.25776 0
M  V30 8761 C 836.411 1.20623 5.0818 0
M  V30 8762 H 838.105 0.958988 2.83626 0
M  V30 8763 H 835.651 0.462601 1.36367 0
M  V30 8764 H 837.604 -1.15221 4.05342 0
M  V30 8765 H 836.328 -1.54844 2.8756 0
M  V30 8766 H 834.987 0.442685 3.63917 0
M  V30 8767 H 834.635 -1.79522 4.69873 0
M  V30 8768 H 834.335 -0.475145 5.85676 0
M  V30 8769 H 835.859 -1.40362 5.94248 0
M  V30 8770 H 837.273 0.851341 5.66944 0
M  V30 8771 H 835.67 1.63561 5.7738 0
M  V30 8772 H 836.74 2.01281 4.41151 0
M  V30 8773 N 838.083 -1.48885 0.516809 0
M  V30 8774 C 839.013 -2.32241 -0.242157 0
M  V30 8775 C 839.994 -1.41258 -0.947633 0
M  V30 8776 O 841.179 -1.70156 -0.935973 0
M  V30 8777 C 838.309 -3.22151 -1.29754 0
M  V30 8778 C 837.263 -4.22053 -0.710995 0
M  V30 8779 C 836.589 -5.01007 -1.86806 0
M  V30 8780 C 837.889 -5.21388 0.30853 0
M  V30 8781 H 839.583 -2.95943 0.453651 0
M  V30 8782 H 837.129 -1.42316 0.219612 0
M  V30 8783 H 839.082 -3.79284 -1.83634 0
M  V30 8784 H 837.806 -2.56423 -2.02274 0
M  V30 8785 H 836.465 -3.66087 -0.193819 0
M  V30 8786 H 836.113 -4.31713 -2.58133 0
M  V30 8787 H 835.813 -5.68615 -1.48159 0
M  V30 8788 H 837.337 -5.60989 -2.4109 0
M  V30 8789 H 838.751 -5.73122 -0.142703 0
M  V30 8790 H 837.148 -5.96975 0.611673 0
M  V30 8791 H 838.218 -4.69329 1.21894 0
M  V30 8792 N 839.561 -0.251338 -1.55583 0
M  V30 8793 C 840.809 0.371434 -1.98657 0
M  V30 8794 C 841.13 1.58143 -1.14087 0
M  V30 8795 O 840.4 1.94607 -0.224708 0
M  V30 8796 H 838.98 0.140225 -0.733721 0
M  V30 8797 H 841.642 -0.351157 -1.9171 0
M  V30 8798 H 840.738 0.677554 -3.04657 0
M  V30 8799 N 841.039 1.57585 0.0217189 0
M  V30 8800 C 842.285 1.89887 0.712099 0
M  V30 8801 C 842.618 0.849971 1.74611 0
M  V30 8802 O 841.893 -0.13407 1.94037 0
M  V30 8803 C 842.176 3.32815 1.37499 0
M  V30 8804 C 842.029 4.48405 0.353993 0
M  V30 8805 C 843.348 3.74786 2.30703 0
M  V30 8806 H 840.467 0.690588 0.257405 0
M  V30 8807 H 843.109 1.89983 -0.0251145 0
M  V30 8808 H 841.259 3.32863 2.00335 0
M  V30 8809 H 842.931 4.60491 -0.273015 0
M  V30 8810 H 841.174 4.32573 -0.32599 0
M  V30 8811 H 841.845 5.45316 0.85644 0
M  V30 8812 H 844.321 3.76151 1.77904 0
M  V30 8813 H 843.197 4.75585 2.74061 0
M  V30 8814 H 843.458 3.07449 3.17691 0
M  V30 8815 N 842.517 -0.29412 1.54831 0
M  V30 8816 C 843.928 -0.866651 1.65366 0
M  V30 8817 C 844.279 -1.87834 0.56681 0
M  V30 8818 O 843.404 -2.14374 -0.295389 0
M  V30 8819 C 843.999 -1.57869 2.99771 0
M  V30 8820 C 842.558 -2.09954 3.12404 0
M  V30 8821 C 841.705 -0.934492 2.6108 0
M  V30 8822 H 844.656 -0.0709551 1.58541 0
M  V30 8823 H 844.677 -2.44462 2.91579 0
M  V30 8824 H 844.189 -0.84212 3.78853 0
M  V30 8825 H 842.29 -2.86637 2.38055 0
M  V30 8826 H 842.403 -2.32934 4.18663 0
M  V30 8827 H 840.767 -1.32199 2.17705 0
M  V30 8828 H 841.55 -0.211768 3.42646 0
M  V30 8829 N 843.995 -1.47404 -0.557645 0
M  V30 8830 C 844.925 -1.62736 -1.67449 0
M  V30 8831 C 845.906 -0.476824 -1.6328 0
M  V30 8832 O 847.091 -0.706108 -1.80908 0
M  V30 8833 C 844.221 -1.641 -3.06086 0
M  V30 8834 C 843.175 -2.78377 -3.25101 0
M  V30 8835 C 842.501 -2.64812 -4.6452 0
M  V30 8836 C 843.801 -4.19971 -3.10518 0
M  V30 8837 H 845.495 -2.56232 -1.54873 0
M  V30 8838 H 843.041 -1.23312 -0.743649 0
M  V30 8839 H 844.994 -1.73417 -3.84063 0
M  V30 8840 H 843.718 -0.671652 -3.19619 0
M  V30 8841 H 842.377 -2.6857 -2.49531 0
M  V30 8842 H 842.025 -1.65906 -4.74852 0
M  V30 8843 H 841.725 -3.41477 -4.78191 0
M  V30 8844 H 843.249 -2.76057 -5.44633 0
M  V30 8845 H 844.663 -4.30757 -3.78313 0
M  V30 8846 H 843.06 -4.97419 -3.35699 0
M  V30 8847 H 844.13 -4.38369 -2.0727 0
M  V30 8848 N 845.473 0.80434 -1.35529 0
M  V30 8849 C 846.719 1.56385 -1.29118 0
M  V30 8850 C 847.052 1.9374 0.133536 0
M  V30 8851 O 846.327 1.6153 1.08344 0
M  V30 8852 C 846.61 2.85097 -2.19981 0
M  V30 8853 C 846.463 2.54204 -3.7108 0
M  V30 8854 C 847.782 3.86817 -2.09907 0
M  V30 8855 H 844.901 0.567382 -0.470368 0
M  V30 8856 H 847.543 0.925235 -1.6595 0
M  V30 8857 H 845.693 3.39594 -1.88701 0
M  V30 8858 H 847.365 2.05872 -4.12813 0
M  V30 8859 H 845.608 1.87364 -3.91251 0
M  V30 8860 H 846.279 3.46068 -4.30048 0
M  V30 8861 H 848.755 3.41725 -2.37409 0
M  V30 8862 H 847.631 4.7465 -2.75678 0
M  V30 8863 H 847.892 4.28663 -1.08171 0
M  V30 8864 N 846.951 1.19563 1.02676 0
M  V30 8865 C 848.199 0.997593 1.75763 0
M  V30 8866 C 848.52 -0.47253 1.89188 0
M  V30 8867 O 847.79 -1.34214 1.42701 0
M  V30 8868 H 846.37 0.366128 0.651122 0
M  V30 8869 H 849.032 1.50495 1.23844 0
M  V30 8870 H 848.128 1.44741 2.76508 0
M  V30 8871 N 848.429 -1.21819 0.999893 0
M  V30 8872 C 849.392 -2.22227 0.561044 0
M  V30 8873 C 850.392 -1.56722 -0.359858 0
M  V30 8874 O 851.582 -1.73546 -0.150848 0
M  V30 8875 C 848.714 -3.40409 -0.182987 0
M  V30 8876 H 849.907 -2.62567 1.44909 0
M  V30 8877 H 847.46 -1.34991 0.78785 0
M  V30 8878 H 848.195 -3.05551 -1.08671 0
M  V30 8879 H 847.98 -3.89171 0.47833 0
M  V30 8880 H 849.47 -4.14856 -0.477952 0
M  V30 8881 N 849.908 -0.773975 -1.37286 0
M  V30 8882 C 851.185 -0.263942 -1.93811 0
M  V30 8883 C 851.565 1.24138 -1.70743 0
M  V30 8884 O 850.913 2.02557 -1.05749 0
M  V30 8885 C 851.123 -0.639753 -3.43086 0
M  V30 8886 C 852.471 -0.610796 -4.20184 0
M  V30 8887 O 853.495 -0.579278 -3.51458 0
M  V30 8888 O 852.354 -0.639862 -5.42741 0
M  V30 8889 H 849.448 -0.0614331 -0.824715 0
M  V30 8890 H 851.994 -0.855477 -1.46559 0
M  V30 8891 H 850.766 -1.67856 -3.53469 0
M  V30 8892 H 850.389 -0.0212827 -3.97594 0
M  V30 8893 N 851.386 1.48609 -0.524698 0
M  V30 8894 C 852.632 2.02797 0.0113382 0
M  V30 8895 C 852.965 1.40147 1.34433 0
M  V30 8896 O 852.24 0.545368 1.86698 0
M  V30 8897 C 852.523 3.59832 0.138931 0
M  V30 8898 C 852.376 4.32971 -1.21886 0
M  V30 8899 C 853.695 4.3145 0.868265 0
M  V30 8900 H 850.814 0.736995 0.00264645 0
M  V30 8901 H 853.456 1.77388 -0.680704 0
M  V30 8902 H 851.606 3.81612 0.72834 0
M  V30 8903 H 853.278 4.22624 -1.84897 0
M  V30 8904 H 851.521 3.94597 -1.80211 0
M  V30 8905 H 852.192 5.41279 -1.08263 0
M  V30 8906 H 854.668 4.14468 0.368145 0
M  V30 8907 H 853.544 5.41025 0.926428 0
M  V30 8908 H 853.805 3.98358 1.91737 0
M  V30 8909 N 852.864 0.259585 1.55447 0
M  V30 8910 C 854.104 -0.362989 2.01151 0
M  V30 8911 C 854.468 -1.54201 1.14394 0
M  V30 8912 O 855.669 -2.23318 1.49608 0
M  V30 8913 C 853.94 -0.750399 3.49434 0
M  V30 8914 S 855.499 -1.3617 4.17137 0
M  V30 8915 H 852.317 -0.11365 0.701858 0
M  V30 8916 H 854.919 0.377788 1.91815 0
M  V30 8917 H 853.623 0.116807 4.10234 0
M  V30 8918 H 853.154 -1.52303 3.62722 0
M  V30 8919 H 855.169 -2.65059 4.19474 0
M  V30 8920 N 854.342 -1.57594 -0.0133615 0
M  V30 8921 C 855.59 -1.89605 -0.699596 0
M  V30 8922 C 855.911 -0.85926 -1.75048 0
M  V30 8923 O 855.181 0.105112 -1.95618 0
M  V30 8924 H 853.761 -0.699776 -0.261385 0
M  V30 8925 H 856.423 -1.94885 0.0244044 0
M  V30 8926 H 855.519 -2.88962 -1.17928 0
M  V30 8927 N 855.82 0.285905 -1.54985 0
M  V30 8928 C 857.067 1.0192 -1.74982 0
M  V30 8929 C 857.395 1.86743 -0.543816 0
M  V30 8930 O 856.65 1.89874 0.473972 0
M  V30 8931 C 856.949 1.94193 -3.0004 0
M  V30 8932 C 856.615 1.25225 -4.33162 0
M  V30 8933 C 855.277 1.06149 -4.69346 0
M  V30 8934 C 857.629 0.760427 -5.15623 0
M  V30 8935 C 854.957 0.365991 -5.85557 0
M  V30 8936 C 857.309 0.0785787 -6.32551 0
M  V30 8937 C 855.973 -0.124002 -6.67385 0
M  V30 8938 H 855.243 0.372951 -0.640304 0
M  V30 8939 H 857.89 0.292652 -1.89251 0
M  V30 8940 H 856.195 2.73426 -2.80616 0
M  V30 8941 H 857.892 2.51029 -3.12707 0
M  V30 8942 H 854.482 1.41081 -4.04715 0
M  V30 8943 H 858.666 0.895466 -4.88155 0
M  V30 8944 H 853.922 0.198193 -6.11079 0
M  V30 8945 H 858.096 -0.310339 -6.95708 0
M  V30 8946 H 855.723 -0.664918 -7.57287 0
M  V30 8947 N 857.298 1.47698 0.54982 0
M  V30 8948 C 858.228 1.63622 1.66583 0
M  V30 8949 C 859.209 0.485477 1.63025 0
M  V30 8950 O 860.394 0.715692 1.80531 0
M  V30 8951 C 857.524 1.65721 3.05211 0
M  V30 8952 C 856.478 2.80097 3.2362 0
M  V30 8953 C 855.804 2.67272 4.63109 0
M  V30 8954 C 857.104 4.21612 3.08286 0
M  V30 8955 H 858.798 2.57049 1.53512 0
M  V30 8956 H 856.344 1.23705 0.737099 0
M  V30 8957 H 858.297 1.75451 3.83138 0
M  V30 8958 H 857.021 0.688593 3.19258 0
M  V30 8959 H 855.68 2.69889 2.48104 0
M  V30 8960 H 855.328 1.68422 4.73965 0
M  V30 8961 H 855.028 3.44008 4.76374 0
M  V30 8962 H 856.552 2.78942 5.43161 0
M  V30 8963 H 857.966 4.32758 3.76024 0
M  V30 8964 H 856.363 4.99193 3.33057 0
M  V30 8965 H 857.433 4.39462 2.04942 0
M  V30 8966 N 858.776 -0.797141 1.35954 0
M  V30 8967 C 860.024 -1.55161 1.29497 0
M  V30 8968 C 860.345 -1.94582 -0.127659 0
M  V30 8969 O 859.615 -1.64343 -1.06622 0
M  V30 8970 H 858.195 -0.575413 0.47635 0
M  V30 8971 H 860.857 -0.950282 1.70164 0
M  V30 8972 H 859.953 -2.46272 1.9172 0
M  V30 8973 N 860.254 -1.20106 -1.0204 0
M  V30 8974 C 861.202 -0.943231 -2.12617 0
M  V30 8975 C 862.196 0.104042 -1.6908 0
M  V30 8976 O 863.402 -0.0459732 -1.79941 0
M  V30 8977 H 859.777 -0.28767 -0.694802 0
M  V30 8978 H 861.748 -1.88221 -2.3155 0
M  V30 8979 C 860.497 -0.50771 -3.43973 0
M  V30 8980 H 859.82 -1.30514 -3.77897 0
M  V30 8981 H 861.26 -0.366486 -4.22413 0
M  V30 8982 C 859.719 0.77939 -3.27761 0
M  V30 8983 O 860.249 1.83876 -3.57145 0
M  V30 8984 N 858.455 0.739931 -2.81022 0
M  V30 8985 H 858.002 -0.122426 -2.57309 0
M  V30 8986 H 857.96 1.60147 -2.70556 0
M  V30 8987 N 861.732 1.21287 -1.00634 0
M  V30 8988 C 862.96 1.94385 -0.708678 0
M  V30 8989 C 863.375 1.7416 0.728957 0
M  V30 8990 O 862.732 1.04906 1.49335 0
M  V30 8991 C 862.783 3.46755 -1.02193 0
M  V30 8992 O 862.504 3.6631 -2.40309 0
M  V30 8993 C 864.005 4.37014 -0.743867 0
M  V30 8994 H 861.225 0.618136 -0.261052 0
M  V30 8995 H 863.769 1.54067 -1.34475 0
M  V30 8996 H 861.924 3.8499 -0.431441 0
M  V30 8997 H 862.338 4.60393 -2.51274 0
M  V30 8998 H 863.812 5.42621 -1.01321 0
M  V30 8999 H 864.289 4.38017 0.322084 0
M  V30 9000 H 864.895 4.04426 -1.31603 0
M  V30 9001 N 863.21 0.781244 1.36873 0
M  V30 9002 C 864.435 0.360398 2.04245 0
M  V30 9003 C 864.86 -1.01242 1.58529 0
M  V30 9004 O 864.218 -1.65063 0.749936 0
M  V30 9005 C 864.266 0.42329 3.58107 0
M  V30 9006 O 863.37 -0.572796 4.08403 0
M  V30 9007 H 862.711 0.154386 0.645803 0
M  V30 9008 H 865.241 1.06008 1.74996 0
M  V30 9009 H 865.251 0.283967 4.07011 0
M  V30 9010 H 863.926 1.42477 3.90734 0
M  V30 9011 H 862.503 -0.395809 3.70793 0
M  V30 9012 N 864.689 -1.48329 0.532571 0
M  V30 9013 C 865.599 -2.33445 -0.232546 0
M  V30 9014 C 866.615 -1.46651 -0.93645 0
M  V30 9015 O 867.791 -1.79627 -0.910834 0
M  V30 9016 C 864.856 -3.22824 -1.26434 0
M  V30 9017 C 863.917 -4.25492 -0.570511 0
M  V30 9018 C 863.15 -5.10601 -1.55315 0
M  V30 9019 O 863.373 -4.97733 -2.78599 0
M  V30 9020 O 862.307 -5.91927 -1.09112 0
M  V30 9021 H 866.133 -3.00119 0.464988 0
M  V30 9022 H 863.718 -1.46489 0.293462 0
M  V30 9023 H 865.6 -3.78103 -1.86055 0
M  V30 9024 H 864.275 -2.58807 -1.94424 0
M  V30 9025 H 863.182 -3.74041 0.0662587 0
M  V30 9026 H 864.515 -4.92154 0.0674904 0
M  V30 9027 N 866.167 -0.267825 -1.55308 0
M  V30 9028 C 867.077 0.633055 -2.25897 0
M  V30 9029 C 868.093 1.17613 -1.28231 0
M  V30 9030 O 869.269 1.20797 -1.61153 0
M  V30 9031 C 866.334 1.80397 -2.96071 0
M  V30 9032 C 865.395 1.29829 -4.09198 0
M  V30 9033 C 864.628 2.4134 -4.76016 0
M  V30 9034 O 864.851 3.60537 -4.42006 0
M  V30 9035 O 863.785 2.09909 -5.64111 0
M  V30 9036 H 867.611 0.0614381 -3.03638 0
M  V30 9037 H 865.196 -0.0355072 -1.49358 0
M  V30 9038 H 867.078 2.48685 -3.40197 0
M  V30 9039 H 865.753 2.36281 -2.21253 0
M  V30 9040 H 864.66 0.582086 -3.69544 0
M  V30 9041 H 865.993 0.785288 -4.85895 0
M  V30 9042 N 867.645 1.57599 0.00500368 0
M  V30 9043 C 868.575 2.11143 0.99705 0
M  V30 9044 C 869.556 1.0194 1.3617 0
M  V30 9045 O 870.741 1.29596 1.44632 0
M  V30 9046 C 867.871 2.61062 2.2905 0
M  V30 9047 C 866.825 3.74745 2.0676 0
M  V30 9048 C 866.151 4.10961 3.42075 0
M  V30 9049 C 867.451 5.02222 1.43424 0
M  V30 9050 H 869.145 2.94281 0.551251 0
M  V30 9051 H 866.691 1.41565 0.263715 0
M  V30 9052 H 868.644 2.97146 2.98801 0
M  V30 9053 H 867.368 1.75038 2.75734 0
M  V30 9054 H 866.027 3.39047 1.39436 0
M  V30 9055 H 865.675 3.21968 3.86453 0
M  V30 9056 H 865.375 4.87549 3.27979 0
M  V30 9057 H 866.899 4.49599 4.1315 0
M  V30 9058 H 868.313 5.36109 2.03125 0
M  V30 9059 H 866.71 5.83581 1.39831 0
M  V30 9060 H 867.78 4.83224 0.40285 0
M  V30 9061 N 869.123 -0.277682 1.55134 0
M  V30 9062 C 870.363 -1.01761 1.77269 0
M  V30 9063 C 870.727 -1.83668 0.559465 0
M  V30 9064 O 871.928 -2.60597 0.658972 0
M  V30 9065 C 870.199 -1.88062 3.0392 0
M  V30 9066 S 871.758 -2.68383 3.47154 0
M  V30 9067 H 868.576 -0.342816 0.622895 0
M  V30 9068 H 871.178 -0.288514 1.93359 0
M  V30 9069 H 869.882 -1.26805 3.90319 0
M  V30 9070 H 869.413 -2.65299 2.90482 0
M  V30 9071 H 871.428 -3.90567 3.06059 0
M  V30 9072 N 870.601 -1.47988 -0.541979 0
M  V30 9073 C 871.847 -1.55623 -1.30036 0
M  V30 9074 C 872.18 -0.224254 -1.92901 0
M  V30 9075 O 871.455 0.768629 -1.78668 0
M  V30 9076 C 871.738 -2.68562 -2.39888 0
M  V30 9077 C 871.591 -4.11426 -1.81792 0
M  V30 9078 C 872.91 -2.77325 -3.41729 0
M  V30 9079 H 870.029 -0.566498 -0.471433 0
M  V30 9080 H 872.671 -1.8011 -0.604998 0
M  V30 9081 H 870.821 -2.47814 -2.992 0
M  V30 9082 H 872.493 -4.43581 -1.26624 0
M  V30 9083 H 870.736 -4.18989 -1.12386 0
M  V30 9084 H 871.407 -4.8625 -2.61276 0
M  V30 9085 H 873.883 -2.96085 -2.92357 0
M  V30 9086 H 872.759 -3.58097 -4.16002 0
M  V30 9087 H 873.02 -1.84995 -4.01534 0
M  V30 9088 N 872.079 0.78992 -1.36375 0
M  V30 9089 C 873.495 1.0879 -1.16777 0
M  V30 9090 C 873.695 2.01498 0.00848236 0
M  V30 9091 O 872.751 2.43338 0.674007 0
M  V30 9092 C 874.064 1.70285 -2.47837 0
M  V30 9093 C 875.612 1.82629 -2.54196 0
M  V30 9094 C 876.087 2.47539 -3.85342 0
M  V30 9095 N 877.578 2.55008 -3.86685 0
M  V30 9096 C 878.313 3.06041 -4.84898 0
M  V30 9097 N 877.809 3.57385 -5.93505 0
M  V30 9098 N 879.602 3.04748 -4.72319 0
M  V30 9099 H 871.753 0.173985 -2.11686 0
M  V30 9100 H 874.016 0.139798 -0.937636 0
M  V30 9101 H 873.722 1.09633 -3.34176 0
M  V30 9102 H 873.596 2.69799 -2.63607 0
M  V30 9103 H 875.983 2.42419 -1.68276 0
M  V30 9104 H 876.064 0.81923 -2.42327 0
M  V30 9105 H 875.708 1.88393 -4.71668 0
M  V30 9106 H 875.638 3.48815 -3.94507 0
M  V30 9107 H 878.129 2.18651 -3.08221 0
M  V30 9108 H 878.442 3.94674 -6.64419 0
M  V30 9109 H 876.787 3.55538 -5.97175 0
M  V30 9110 H 879.978 2.63925 -3.86602 0
M  V30 9111 H 880.151 3.44212 -5.49019 0
M  V30 9112 N 873.557 1.20646 1.01402 0
M  V30 9113 C 874.803 1.02974 1.75408 0
M  V30 9114 C 875.158 -0.433294 1.87458 0
M  V30 9115 O 874.451 -1.31741 1.39122 0
M  V30 9116 C 874.645 1.64991 3.17037 0
M  V30 9117 C 874.474 3.17174 3.18796 0
M  V30 9118 C 873.244 3.86165 3.2589 0
M  V30 9119 C 875.442 4.14369 3.04636 0
M  V30 9120 N 873.424 5.25614 3.1718 0
M  V30 9121 C 874.795 5.4051 3.03724 0
M  V30 9122 C 876.85 4.05534 2.88872 0
M  V30 9123 C 875.553 6.58836 2.88664 0
M  V30 9124 C 877.579 5.23486 2.75166 0
M  V30 9125 C 876.941 6.48535 2.74922 0
M  V30 9126 H 873.04 0.431068 0.65246 0
M  V30 9127 H 875.624 1.52858 1.20593 0
M  V30 9128 H 873.795 1.17688 3.70141 0
M  V30 9129 H 875.527 1.40612 3.79487 0
M  V30 9130 H 872.282 3.37038 3.32719 0
M  V30 9131 H 872.706 5.98625 3.16192 0
M  V30 9132 H 877.348 3.09661 2.87872 0
M  V30 9133 H 875.066 7.5488 2.88413 0
M  V30 9134 H 878.652 5.18464 2.63982 0
M  V30 9135 H 877.532 7.3827 2.64439 0
M  V30 9136 N 875.035 -1.20752 1.01276 0
M  V30 9137 C 876.263 -1.94006 0.718976 0
M  V30 9138 C 876.678 -1.74544 -0.719711 0
M  V30 9139 O 876.035 -1.05697 -1.48776 0
M  V30 9140 C 876.086 -3.46208 1.04031 0
M  V30 9141 O 875.807 -3.65031 2.42248 0
M  V30 9142 C 877.308 -4.36614 0.767032 0
M  V30 9143 H 874.528 -0.616743 0.264327 0
M  V30 9144 H 877.072 -1.53352 1.3529 0
M  V30 9145 H 875.227 -3.84756 0.451852 0
M  V30 9146 H 875.641 -4.59054 2.53712 0
M  V30 9147 H 877.115 -5.42076 1.04198 0
M  V30 9148 H 877.592 -4.38182 -0.298851 0
M  V30 9149 H 878.198 -4.03723 1.33746 0
M  V30 9150 N 876.513 -0.788492 -1.36457 0
M  V30 9151 C 877.445 -0.144208 -2.28746 0
M  V30 9152 C 878.458 0.646009 -1.49434 0
M  V30 9153 O 879.647 0.481344 -1.71888 0
M  V30 9154 C 876.747 0.818869 -3.28858 0
M  V30 9155 C 875.92 0.0789055 -4.37329 0
M  V30 9156 C 874.979 0.957791 -5.1741 0
M  V30 9157 O 874.005 0.415378 -5.67682 0
M  V30 9158 N 875.207 2.28216 -5.33758 0
M  V30 9159 H 877.972 -0.936949 -2.84678 0
M  V30 9160 H 875.533 -0.642317 -1.48613 0
M  V30 9161 H 877.525 1.41065 -3.79319 0
M  V30 9162 H 876.095 1.51249 -2.73573 0
M  V30 9163 H 875.315 -0.693939 -3.88044 0
M  V30 9164 H 876.603 -0.431753 -5.06965 0
M  V30 9165 H 876.001 2.747 -4.94527 0
M  V30 9166 H 874.558 2.8236 -5.87466 0
M  V30 9167 N 877.991 1.48044 -0.54043 0
M  V30 9168 C 878.921 2.32597 0.205178 0
M  V30 9169 C 879.902 1.42748 0.925041 0
M  V30 9170 O 881.087 1.71624 0.908784 0
M  V30 9171 C 878.217 3.24175 1.24612 0
M  V30 9172 C 877.171 4.23131 0.64376 0
M  V30 9173 C 876.497 5.03915 1.78812 0
M  V30 9174 C 877.797 5.20831 -0.39144 0
M  V30 9175 H 879.491 2.95184 -0.500676 0
M  V30 9176 H 877.037 1.41948 -0.242225 0
M  V30 9177 H 878.99 3.82158 1.77576 0
M  V30 9178 H 877.714 2.59608 1.98169 0
M  V30 9179 H 876.373 3.66349 0.135554 0
M  V30 9180 H 876.021 4.35765 2.51232 0
M  V30 9181 H 875.721 5.709 1.39094 0
M  V30 9182 H 877.245 5.64753 2.32134 0
M  V30 9183 H 878.659 5.73277 0.0515064 0
M  V30 9184 H 877.056 5.95926 -0.706569 0
M  V30 9185 H 878.126 4.6733 -1.29345 0
M  V30 9186 N 879.47 0.276058 1.55163 0
M  V30 9187 C 880.718 -0.339782 1.99223 0
M  V30 9188 C 881.039 -1.56307 1.16589 0
M  V30 9189 O 880.309 -1.94225 0.25564 0
M  V30 9190 H 878.889 -0.128534 0.735859 0
M  V30 9191 H 881.551 0.381612 1.91128 0
M  V30 9192 H 880.647 -0.629 3.05696 0
M  V30 9193 N 880.948 -1.576 0.00335426 0
M  V30 9194 C 881.911 -2.07576 -0.971838 0
M  V30 9195 C 882.911 -0.985796 -1.27038 0
M  V30 9196 O 884.101 -1.24833 -1.21501 0
M  V30 9197 C 881.233 -2.52003 -2.29581 0
M  V30 9198 H 882.426 -2.95008 -0.539481 0
M  V30 9199 H 879.979 -1.54381 -0.244186 0
M  V30 9200 H 880.714 -1.67825 -2.77498 0
M  V30 9201 H 880.499 -3.31609 -2.09231 0
M  V30 9202 H 881.989 -2.90983 -2.99531 0
M  V30 9203 N 882.426 0.269451 -1.5528 0
M  V30 9204 C 883.673 1.00058 -1.76053 0
M  V30 9205 C 884.001 1.86156 -0.563592 0
M  V30 9206 O 883.256 1.90366 0.453806 0
M  V30 9207 C 883.555 1.91 -3.02082 0
M  V30 9208 C 883.221 1.20623 -4.34466 0
M  V30 9209 C 881.883 1.01165 -4.70446 0
M  V30 9210 C 884.235 0.705695 -5.164 0
M  V30 9211 C 881.563 0.303865 -5.85913 0
M  V30 9212 C 883.915 0.0114838 -6.32599 0
M  V30 9213 C 882.579 -0.19478 -6.67216 0
M  V30 9214 H 881.849 0.366138 -0.644223 0
M  V30 9215 H 884.496 0.272563 -1.8955 0
M  V30 9216 H 882.801 2.70435 -2.835 0
M  V30 9217 H 884.498 2.47698 -3.15352 0
M  V30 9218 H 881.088 1.36781 -4.06188 0
M  V30 9219 H 885.272 0.84364 -4.89077 0
M  V30 9220 H 880.528 0.133368 -6.11255 0
M  V30 9221 H 884.702 -0.384111 -6.9534 0
M  V30 9222 H 882.329 -0.745201 -7.56539 0
M  V30 9223 N 883.904 1.48273 0.534124 0
M  V30 9224 C 885.134 1.59503 1.31311 0
M  V30 9225 C 885.542 0.25284 1.87503 0
M  V30 9226 O 884.885 -0.767399 1.66903 0
M  V30 9227 C 884.947 2.57899 2.50456 0
M  V30 9228 C 884.611 4.03063 2.15382 0
M  V30 9229 C 885.608 4.90869 1.713 0
M  V30 9230 C 883.293 4.4857 2.26032 0
M  V30 9231 C 885.287 6.22209 1.38328 0
M  V30 9232 C 882.974 5.79932 1.92672 0
M  V30 9233 C 883.972 6.66574 1.4889 0
M  V30 9234 O 883.66 7.95492 1.15966 0
M  V30 9235 H 883.392 0.540695 0.405739 0
M  V30 9236 H 885.946 1.94794 0.651497 0
M  V30 9237 H 884.176 2.1772 3.19585 0
M  V30 9238 H 885.865 2.59008 3.12522 0
M  V30 9239 H 886.631 4.56951 1.62545 0
M  V30 9240 H 882.51 3.81321 2.59066 0
M  V30 9241 H 886.054 6.89792 1.04082 0
M  V30 9242 H 881.951 6.13386 2.01066 0
M  V30 9243 H 882.719 8.08207 1.29399 0
M  V30 9244 N 885.382 -0.782676 1.36792 0
M  V30 9245 C 886.793 -1.35828 1.28092 0
M  V30 9246 C 887.144 -1.96052 -0.076315 0
M  V30 9247 O 886.269 -1.93042 -0.977935 0
M  V30 9248 C 886.864 -2.46949 2.31952 0
M  V30 9249 C 885.423 -3.00307 2.2692 0
M  V30 9250 C 884.57 -1.73436 2.16368 0
M  V30 9251 H 887.521 -0.583788 1.47572 0
M  V30 9252 H 887.542 -3.26144 1.95986 0
M  V30 9253 H 887.054 -2.03087 3.30722 0
M  V30 9254 H 885.155 -3.48571 1.31639 0
M  V30 9255 H 885.268 -3.56663 3.19887 0
M  V30 9256 H 883.632 -1.95934 1.62733 0
M  V30 9257 H 884.415 -1.31693 3.17036 0
M  V30 9258 N 886.86 -1.21182 -1.00761 0
M  V30 9259 C 888.107 -1.02746 -1.74498 0
M  V30 9260 C 888.435 0.439344 -1.89473 0
M  V30 9261 O 887.69 1.34232 -1.42409 0
M  V30 9262 C 887.989 -1.6667 -3.16158 0
M  V30 9263 C 887.655 -3.16515 -3.21137 0
M  V30 9264 C 886.317 -3.57405 -3.22203 0
M  V30 9265 C 888.669 -4.12495 -3.18587 0
M  V30 9266 C 885.997 -4.92786 -3.18401 0
M  V30 9267 C 888.349 -5.47833 -3.16326 0
M  V30 9268 C 887.013 -5.88124 -3.157 0
M  V30 9269 H 886.283 -0.375974 -0.638533 0
M  V30 9270 H 888.93 -1.50736 -1.18114 0
M  V30 9271 H 887.235 -1.10966 -3.75758 0
M  V30 9272 H 888.932 -1.49911 -3.71924 0
M  V30 9273 H 885.522 -2.83947 -3.21048 0
M  V30 9274 H 889.706 -3.81932 -3.16925 0
M  V30 9275 H 884.962 -5.23253 -3.16253 0
M  V30 9276 H 889.136 -6.21942 -3.13306 0
M  V30 9277 H 886.763 -6.92995 -3.12508 0
M  V30 9278 N 888.338 1.20213 -1.01915 0
M  V30 9279 C 889.271 2.2181 -0.536243 0
M  V30 9280 C 890.249 1.57144 0.417689 0
M  V30 9281 O 891.433 1.85461 0.337088 0
M  V30 9282 C 888.56 3.37989 0.219303 0
M  V30 9283 C 887.606 4.2097 -0.684571 0
M  V30 9284 S 888.439 4.90216 -2.15519 0
M  V30 9285 C 889.595 6.09814 -1.40988 0
M  V30 9286 H 889.828 2.62429 -1.39709 0
M  V30 9287 H 887.361 1.30305 -0.828254 0
M  V30 9288 H 889.319 4.05335 0.649112 0
M  V30 9289 H 887.98 2.95825 1.05575 0
M  V30 9290 H 887.173 5.03897 -0.101833 0
M  V30 9291 H 886.775 3.58892 -1.05227 0
M  V30 9292 H 889.067 6.73964 -0.691243 0
M  V30 9293 H 890.01 6.72552 -2.21539 0
M  V30 9294 H 890.418 5.5709 -0.911645 0
M  V30 9295 N 889.816 0.795718 1.36037 0
M  V30 9296 C 891.232 0.478145 1.52269 0
M  V30 9297 C 891.432 -1.0025 1.74792 0
M  V30 9298 O 890.488 -1.78783 1.78305 0
M  V30 9299 C 891.801 1.31406 2.70468 0
M  V30 9300 C 893.349 1.3084 2.84341 0
M  V30 9301 C 893.824 2.12819 4.05551 0
M  V30 9302 N 895.315 2.10298 4.12709 0
M  V30 9303 C 896.05 2.70495 5.05589 0
M  V30 9304 N 895.546 3.39576 6.03871 0
M  V30 9305 N 897.339 2.60195 4.98252 0
M  V30 9306 H 889.49 1.75477 1.19673 0
M  V30 9307 H 891.753 0.74627 0.584624 0
M  V30 9308 H 891.459 2.36435 2.60368 0
M  V30 9309 H 891.333 0.959726 3.64786 0
M  V30 9310 H 893.72 0.266003 2.93899 0
M  V30 9311 H 893.801 1.70254 1.90912 0
M  V30 9312 H 893.445 3.17093 3.96755 0
M  V30 9313 H 893.375 1.70772 4.98141 0
M  V30 9314 H 895.866 1.60026 3.42345 0
M  V30 9315 H 896.179 3.82823 6.71317 0
M  V30 9316 H 894.524 3.43679 6.04077 0
M  V30 9317 H 897.715 2.05823 4.20422 0
M  V30 9318 H 897.888 3.074 5.70447 0
M  V30 9319 N 891.294 -1.47756 0.548274 0
M  V30 9320 C 892.242 -2.3158 -0.217584 0
M  V30 9321 C 893.236 -1.42372 -0.917957 0
M  V30 9322 O 894.442 -1.59184 -0.840259 0
M  V30 9323 H 890.817 -0.74671 -0.0890388 0
M  V30 9324 H 892.788 -2.94032 0.508719 0
M  V30 9325 C 891.537 -3.24834 -1.24008 0
M  V30 9326 H 890.86 -3.93435 -0.710572 0
M  V30 9327 H 892.3 -3.86336 -1.74701 0
M  V30 9328 C 890.759 -2.47724 -2.2833 0
M  V30 9329 O 891.289 -2.21522 -3.35098 0
M  V30 9330 N 889.495 -2.08891 -2.02022 0
M  V30 9331 H 889.042 -2.30401 -1.1521 0
M  V30 9332 H 889 -1.57613 -2.7204 0
M  V30 9333 N 892.772 -0.284283 -1.55015 0
M  V30 9334 C 893.722 0.613913 -2.19579 0
M  V30 9335 C 894.706 1.11153 -1.16335 0
M  V30 9336 O 895.898 1.05508 -1.42116 0
M  V30 9337 C 893.027 1.79329 -2.92739 0
M  V30 9338 C 892.113 1.31242 -4.03282 0
M  V30 9339 N 892.504 0.548344 -5.02819 0
M  V30 9340 C 890.802 1.5946 -4.1652 0
M  V30 9341 C 891.503 0.294358 -5.80955 0
M  V30 9342 N 890.479 0.869406 -5.36603 0
M  V30 9343 H 894.281 0.0224088 -2.93891 0
M  V30 9344 H 891.795 -0.0882619 -1.6216 0
M  V30 9345 H 893.792 2.44814 -3.37449 0
M  V30 9346 H 892.452 2.38865 -2.1994 0
M  V30 9347 H 893.463 0.194812 -5.17533 0
M  V30 9348 H 890.14 2.19866 -3.54916 0
M  V30 9349 H 891.53 -0.318195 -6.71146 0
M  V30 9350 N 894.251 1.57596 -0.0117121 0
M  V30 9351 C 895.199 2.1029 0.994035 0
M  V30 9352 C 896.193 1.02549 1.34833 0
M  V30 9353 O 897.399 1.21003 1.3326 0
M  V30 9354 H 893.774 0.671624 0.338268 0
M  V30 9355 H 895.745 2.93761 0.524147 0
M  V30 9356 C 894.494 2.63099 2.27319 0
M  V30 9357 H 893.817 3.45642 2.00927 0
M  V30 9358 H 895.257 3.03635 2.95942 0
M  V30 9359 C 893.716 1.55044 2.99104 0
M  V30 9360 O 894.246 0.940127 3.90544 0
M  V30 9361 N 892.452 1.27506 2.61133 0
M  V30 9362 H 891.999 1.77322 1.86855 0
M  V30 9363 H 891.957 0.554292 3.09475 0
M  V30 9364 N 895.729 -0.261212 1.5542 0
M  V30 9365 C 896.954 -1.01341 1.80955 0
M  V30 9366 C 897.379 -1.78711 0.586849 0
M  V30 9367 O 896.737 -1.75266 -0.463837 0
M  V30 9368 C 896.785 -1.93835 3.04073 0
M  V30 9369 O 895.889 -3.02791 2.79985 0
M  V30 9370 H 895.23 -0.289123 0.597749 0
M  V30 9371 H 897.76 -0.286543 2.02584 0
M  V30 9372 H 897.77 -2.3557 3.33123 0
M  V30 9373 H 896.445 -1.36936 3.9271 0
M  V30 9374 H 895.022 -2.65287 2.62063 0
M  V30 9375 N 897.207 -1.48554 -0.526253 0
M  V30 9376 C 898.137 -1.66252 -1.63959 0
M  V30 9377 C 899.118 -0.511351 -1.62232 0
M  V30 9378 O 900.303 -0.744322 -1.7937 0
M  V30 9379 C 897.433 -1.70556 -3.02536 0
M  V30 9380 C 896.387 -2.8521 -3.19123 0
M  V30 9381 C 895.713 -2.74606 -4.58798 0
M  V30 9382 C 897.013 -4.26463 -3.0154 0
M  V30 9383 H 898.707 -2.59459 -1.49404 0
M  V30 9384 H 896.253 -1.24862 -0.717326 0
M  V30 9385 H 898.206 -1.81524 -3.80298 0
M  V30 9386 H 896.93 -0.739297 -3.18123 0
M  V30 9387 H 895.589 -2.73802 -2.43779 0
M  V30 9388 H 895.237 -1.75941 -4.71226 0
M  V30 9389 H 894.937 -3.51544 -4.70841 0
M  V30 9390 H 896.461 -2.87548 -5.38655 0
M  V30 9391 H 897.875 -4.38685 -3.69091 0
M  V30 9392 H 896.272 -5.04428 -3.25073 0
M  V30 9393 H 897.342 -4.42667 -1.97925 0
M  V30 9394 N 898.685 0.775411 -1.37205 0
M  V30 9395 C 899.615 1.90258 -1.35367 0
M  V30 9396 C 900.596 1.68634 -0.222864 0
M  V30 9397 O 901.781 1.89545 -0.422659 0
M  V30 9398 C 898.911 3.27488 -1.15623 0
M  V30 9399 C 897.865 3.63668 -2.25676 0
M  V30 9400 C 897.191 4.994 -1.91059 0
M  V30 9401 C 898.491 3.70797 -3.67841 0
M  V30 9402 H 900.185 1.92053 -2.29687 0
M  V30 9403 H 897.731 0.922597 -1.10563 0
M  V30 9404 H 899.684 4.05976 -1.12968 0
M  V30 9405 H 898.408 3.26117 -0.177573 0
M  V30 9406 H 897.067 2.87486 -2.2748 0
M  V30 9407 H 896.715 4.94565 -0.917324 0
M  V30 9408 H 896.415 5.24576 -2.64751 0
M  V30 9409 H 897.939 5.80291 -1.89985 0
M  V30 9410 H 899.353 4.39444 -3.68187 0
M  V30 9411 H 897.75 4.07468 -4.40556 0
M  V30 9412 H 898.82 2.71549 -4.01732 0
M  V30 9413 N 900.163 1.21714 1.00117 0
M  V30 9414 C 901.388 1.06357 1.78054 0
M  V30 9415 C 901.813 -0.382075 1.84179 0
M  V30 9416 O 901.171 -1.27575 1.28819 0
M  V30 9417 C 901.219 1.66982 3.19608 0
M  V30 9418 O 900.323 0.917892 4.02055 0
M  V30 9419 H 899.664 0.374074 0.548602 0
M  V30 9420 H 902.194 1.61338 1.25822 0
M  V30 9421 H 902.204 1.71363 3.70268 0
M  V30 9422 H 900.879 2.72185 3.14465 0
M  V30 9423 H 899.456 0.949473 3.6061 0
M  V30 9424 N 901.641 -1.19671 1.02551 0
M  V30 9425 C 902.571 -2.25009 0.623965 0
M  V30 9426 C 903.552 -1.66129 -0.36538 0
M  V30 9427 O 904.737 -1.92599 -0.248842 0
M  V30 9428 C 901.867 -3.47287 -0.0294869 0
M  V30 9429 C 900.821 -4.18818 0.881781 0
M  V30 9430 C 900.147 -5.34618 0.0936189 0
M  V30 9431 C 901.447 -4.73986 2.19396 0
M  V30 9432 H 903.141 -2.58851 1.50454 0
M  V30 9433 H 900.687 -1.24425 0.724872 0
M  V30 9434 H 902.64 -4.20168 -0.322016 0
M  V30 9435 H 901.364 -3.12635 -0.944838 0
M  V30 9436 H 900.023 -3.47815 1.15845 0
M  V30 9437 H 899.671 -4.9621 -0.823661 0
M  V30 9438 H 899.371 -5.83409 0.700568 0
M  V30 9439 H 900.895 -6.10297 -0.192249 0
M  V30 9440 H 902.309 -5.38639 1.96319 0
M  V30 9441 H 900.706 -5.3325 2.75254 0
M  V30 9442 H 901.776 -3.92238 2.85092 0
M  V30 9443 N 903.119 -0.802921 -1.35613 0
M  V30 9444 C 904.53 -0.443004 -1.81368 0
M  V30 9445 C 904.881 1.03459 -1.66706 0
M  V30 9446 O 904.006 1.80372 -1.19561 0
M  V30 9447 C 904.601 -0.797324 -3.29284 0
M  V30 9448 C 903.16 -0.490055 -3.73196 0
M  V30 9449 C 902.307 -1.02487 -2.57666 0
M  V30 9450 H 905.258 -0.994888 -1.23643 0
M  V30 9451 H 905.279 -0.0934638 -3.80385 0
M  V30 9452 H 904.791 -1.87278 -3.39924 0
M  V30 9453 H 902.892 0.576818 -3.68108 0
M  V30 9454 H 903.005 -1.02012 -4.68114 0
M  V30 9455 H 901.369 -0.44738 -2.5074 0
M  V30 9456 H 902.152 -2.10636 -2.71085 0
M  V30 9457 N 904.597 1.47463 -0.556102 0
M  V30 9458 C 905.529 2.28046 0.22968 0
M  V30 9459 C 906.542 1.3694 0.880409 0
M  V30 9460 O 907.731 1.61773 0.754447 0
M  V30 9461 C 904.831 3.11165 1.34273 0
M  V30 9462 C 904.004 4.30225 0.789004 0
M  V30 9463 C 903.063 4.94948 1.78641 0
M  V30 9464 O 902.089 5.53372 1.33297 0
M  V30 9465 N 903.291 4.89543 3.11974 0
M  V30 9466 H 906.056 2.96125 -0.461558 0
M  V30 9467 H 903.617 1.5708 -0.392105 0
M  V30 9468 H 905.609 3.51331 2.00869 0
M  V30 9469 H 904.179 2.45337 1.93722 0
M  V30 9470 H 903.399 3.94163 -0.0536971 0
M  V30 9471 H 904.687 5.07238 0.398378 0
M  V30 9472 H 904.085 4.43275 3.51459 0
M  V30 9473 H 902.642 5.33732 3.74131 0
M  V30 9474 N 906.075 0.2925 1.54862 0
M  V30 9475 C 906.985 -0.597036 2.26876 0
M  V30 9476 C 908.001 -1.15558 1.30086 0
M  V30 9477 O 909.177 -1.18217 1.63054 0
M  V30 9478 C 906.242 -1.75664 2.98903 0
M  V30 9479 C 905.303 -1.23303 4.11212 0
M  V30 9480 C 904.536 -2.33736 4.79795 0
M  V30 9481 O 904.759 -3.53459 4.47686 0
M  V30 9482 O 903.693 -2.00908 5.67379 0
M  V30 9483 H 907.519 -0.0131242 3.03697 0
M  V30 9484 H 905.104 0.0592642 1.49282 0
M  V30 9485 H 906.986 -2.43241 3.4411 0
M  V30 9486 H 905.661 -2.32731 2.24984 0
M  V30 9487 H 904.568 -0.523222 3.70423 0
M  V30 9488 H 905.901 -0.707887 4.87083 0
M  V30 9489 N 907.553 -1.57587 0.0200696 0
M  V30 9490 C 908.964 -1.79312 -0.520019 0
M  V30 9491 C 909.315 -0.929475 -1.72787 0
M  V30 9492 O 908.44 -0.137389 -2.15963 0
M  V30 9493 C 909.035 -3.25203 -0.950172 0
M  V30 9494 C 907.594 -3.47954 -1.43543 0
M  V30 9495 C 906.741 -2.74459 -0.395917 0
M  V30 9496 H 909.692 -1.56779 0.246153 0
M  V30 9497 H 909.713 -3.34418 -1.81508 0
M  V30 9498 H 909.225 -3.88035 -0.070883 0
M  V30 9499 H 907.326 -2.90363 -2.33495 0
M  V30 9500 H 907.439 -4.56661 -1.44905 0
M  V30 9501 H 905.803 -2.39669 -0.862022 0
M  V30 9502 H 906.586 -3.40001 0.47475 0
M  V30 9503 N 909.032 0.252966 -1.55557 0
M  V30 9504 C 910.262 0.998115 -1.8089 0
M  V30 9505 C 910.67 1.79679 -0.592623 0
M  V30 9506 O 910.013 1.78151 0.448093 0
M  V30 9507 C 910.075 1.98878 -2.99479 0
M  V30 9508 C 909.739 1.37761 -4.35742 0
M  V30 9509 C 910.736 0.783142 -5.13968 0
M  V30 9510 C 908.421 1.39879 -4.8243 0
M  V30 9511 C 910.415 0.218004 -6.37027 0
M  V30 9512 C 908.102 0.829801 -6.0544 0
M  V30 9513 C 909.1 0.240426 -6.82577 0
M  V30 9514 O 908.788 -0.319797 -8.03264 0
M  V30 9515 H 908.52 0.29963 -0.605969 0
M  V30 9516 H 911.074 0.282978 -2.03441 0
M  V30 9517 H 909.304 2.74206 -2.72669 0
M  V30 9518 H 910.993 2.59686 -3.11959 0
M  V30 9519 H 911.759 0.759326 -4.79019 0
M  V30 9520 H 907.638 1.84692 -4.22386 0
M  V30 9521 H 911.182 -0.242654 -6.97178 0
M  V30 9522 H 907.079 0.850924 -6.39867 0
M  V30 9523 H 907.847 -0.211078 -8.18228 0
M  V30 9524 N 910.51 1.48831 0.518367 0
M  V30 9525 C 911.735 1.61379 1.30275 0
M  V30 9526 C 912.16 0.278571 1.86026 0
M  V30 9527 O 911.518 -0.751427 1.64995 0
M  V30 9528 C 911.566 2.67225 2.42122 0
M  V30 9529 O 910.67 2.25192 3.45489 0
M  V30 9530 H 910.011 0.540742 0.385349 0
M  V30 9531 H 912.541 1.949 0.622498 0
M  V30 9532 H 912.551 2.88859 2.8814 0
M  V30 9533 H 911.226 3.64155 2.00907 0
M  V30 9534 H 909.803 2.13819 3.05509 0
M  V30 9535 N 911.988 -0.768124 1.37614 0
M  V30 9536 C 913.235 -1.5268 1.33022 0
M  V30 9537 C 913.563 -1.94318 -0.0841918 0
M  V30 9538 O 912.818 -1.64623 -1.0582 0
M  V30 9539 C 913.117 -2.80204 2.21856 0
M  V30 9540 C 912.783 -2.57602 3.7007 0
M  V30 9541 C 911.445 -2.51146 4.10462 0
M  V30 9542 C 913.797 -2.37482 4.63952 0
M  V30 9543 C 911.125 -2.22566 5.42846 0
M  V30 9544 C 913.477 -2.10425 5.96577 0
M  V30 9545 C 912.141 -2.02416 6.36069 0
M  V30 9546 H 911.411 -0.558697 0.486763 0
M  V30 9547 H 914.058 -0.88447 1.69851 0
M  V30 9548 H 912.363 -3.49014 1.78034 0
M  V30 9549 H 914.06 -3.38099 2.15615 0
M  V30 9550 H 910.65 -2.63491 3.38039 0
M  V30 9551 H 914.834 -2.41457 4.33604 0
M  V30 9552 H 910.09 -2.14863 5.72402 0
M  V30 9553 H 914.264 -1.93857 6.68874 0
M  V30 9554 H 911.891 -1.80034 7.38574 0
M  V30 9555 N 913.466 -1.22244 -0.994698 0
M  V30 9556 C 914.691 -1.07299 -1.77487 0
M  V30 9557 C 915.116 0.372302 -1.84379 0
M  V30 9558 O 914.474 1.2689 -1.29494 0
M  V30 9559 C 914.522 -1.68675 -3.18718 0
M  V30 9560 O 913.626 -0.939202 -4.01563 0
M  V30 9561 H 912.967 -0.376979 -0.546611 0
M  V30 9562 H 915.497 -1.62003 -1.24965 0
M  V30 9563 H 915.507 -1.73324 -3.69354 0
M  V30 9564 H 914.182 -2.73849 -3.13017 0
M  V30 9565 H 912.759 -0.968583 -3.60101 0
M  V30 9566 N 914.944 1.19125 -1.03184 0
M  V30 9567 C 915.854 2.26112 -0.625329 0
M  V30 9568 C 916.87 1.7056 0.344298 0
M  V30 9569 O 918.046 2.0039 0.20144 0
M  V30 9570 C 915.111 3.46697 0.0145169 0
M  V30 9571 C 914.172 4.17419 -1.00299 0
M  V30 9572 C 913.405 5.32247 -0.393581 0
M  V30 9573 O 913.628 5.64724 0.802659 0
M  V30 9574 O 912.562 5.91428 -1.1179 0
M  V30 9575 H 916.388 2.63131 -1.51643 0
M  V30 9576 H 913.973 1.26036 -0.802197 0
M  V30 9577 H 915.855 4.19762 0.371139 0
M  V30 9578 H 914.53 3.11521 0.879581 0
M  V30 9579 H 913.437 3.4646 -1.41125 0
M  V30 9580 H 914.77 4.56573 -1.83852 0
M  V30 9581 N 916.422 0.810101 1.35185 0
M  V30 9582 C 917.833 0.452616 1.81131 0
M  V30 9583 C 918.184 -1.02573 1.67252 0
M  V30 9584 O 917.309 -1.79735 1.20516 0
M  V30 9585 C 917.904 0.814775 3.28857 0
M  V30 9586 C 916.463 0.509839 3.72931 0
M  V30 9587 C 915.61 1.03852 2.57119 0
M  V30 9588 H 918.561 1.00143 1.23114 0
M  V30 9589 H 918.582 0.113635 3.8033 0
M  V30 9590 H 918.094 1.89078 3.38926 0
M  V30 9591 H 916.195 -0.557289 3.68409 0
M  V30 9592 H 916.308 1.04493 4.67566 0
M  V30 9593 H 914.672 0.460671 2.50499 0
M  V30 9594 H 915.455 2.12071 2.69964 0
M  V30 9595 N 917.9 -1.47166 0.563914 0
M  V30 9596 C 918.863 -2.28571 -0.169624 0
M  V30 9597 C 919.863 -1.37331 -0.836467 0
M  V30 9598 O 921.053 -1.59896 -0.6913 0
M  V30 9599 C 918.185 -3.17201 -1.24886 0
M  V30 9600 H 919.378 -2.94896 0.545539 0
M  V30 9601 H 916.931 -1.52966 0.321121 0
M  V30 9602 H 917.666 -2.55582 -1.99621 0
M  V30 9603 H 917.451 -3.84356 -0.775426 0
M  V30 9604 H 918.941 -3.7852 -1.76388 0
M  V30 9605 N 919.378 -0.300708 -1.54705 0
M  V30 9606 C 920.31 0.609179 -2.20956 0
M  V30 9607 C 921.323 1.09776 -1.20221 0
M  V30 9608 O 922.512 1.01527 -1.46815 0
M  V30 9609 C 919.612 1.84595 -2.84214 0
M  V30 9610 C 918.785 1.49991 -4.10879 0
M  V30 9611 C 917.844 2.5918 -4.57943 0
M  V30 9612 O 916.87 2.24285 -5.23149 0
M  V30 9613 N 918.072 3.89714 -4.30236 0
M  V30 9614 H 920.837 0.0420111 -2.99671 0
M  V30 9615 H 918.398 -0.122896 -1.61433 0
M  V30 9616 H 920.39 2.56988 -3.12633 0
M  V30 9617 H 918.96 2.32152 -2.09342 0
M  V30 9618 H 918.18 0.608637 -3.89473 0
M  V30 9619 H 919.468 1.24409 -4.93356 0
M  V30 9620 H 918.866 4.20874 -3.77997 0
M  V30 9621 H 917.423 4.58406 -4.63365 0
M  V30 9622 N 920.856 1.57574 -0.0284266 0
M  V30 9623 C 921.788 2.07079 0.982391 0
M  V30 9624 C 922.801 0.994078 1.28926 0
M  V30 9625 O 923.99 1.27028 1.25404 0
M  V30 9626 C 921.09 2.47978 2.30998 0
M  V30 9627 C 920.263 3.7872 2.18838 0
M  V30 9628 C 919.322 4.06177 3.34524 0
M  V30 9629 O 918.348 4.76438 3.11441 0
M  V30 9630 N 919.55 3.56297 4.58293 0
M  V30 9631 H 922.315 2.94421 0.560011 0
M  V30 9632 H 919.876 1.61124 0.158347 0
M  V30 9633 H 921.868 2.63439 3.07216 0
M  V30 9634 H 920.438 1.66005 2.64879 0
M  V30 9635 H 919.658 3.73062 1.27351 0
M  V30 9636 H 920.946 4.6438 2.07915 0
M  V30 9637 H 920.344 2.99453 4.79942 0
M  V30 9638 H 918.901 3.77038 5.31682 0
M  V30 9639 N 922.334 -0.244713 1.55689 0
M  V30 9640 C 923.297 -1.2864 1.89695 0
M  V30 9641 C 924.297 -1.40969 0.773583 0
M  V30 9642 O 925.487 -1.39632 1.04156 0
M  V30 9643 C 922.619 -2.66379 2.12732 0
M  V30 9644 H 923.812 -0.997033 2.82841 0
M  V30 9645 H 921.365 -0.484103 1.48614 0
M  V30 9646 H 922.1 -3.00452 1.22062 0
M  V30 9647 H 921.885 -2.58812 2.94549 0
M  V30 9648 H 923.375 -3.41592 2.40218 0
M  V30 9649 N 923.813 -1.49104 -0.510467 0
M  V30 9650 C 924.746 -1.59667 -1.63039 0
M  V30 9651 C 925.724 -0.446145 -1.5636 0
M  V30 9652 O 926.908 -0.660414 -1.76552 0
M  V30 9653 C 924.035 -1.54282 -3.01521 0
M  V30 9654 C 923.081 -2.74415 -3.26494 0
M  V30 9655 S 923.914 -4.3619 -3.10643 0
M  V30 9656 C 925.07 -4.33435 -4.51536 0
M  V30 9657 H 925.303 -2.54407 -1.53833 0
M  V30 9658 H 922.836 -1.37878 -0.694916 0
M  V30 9659 H 924.794 -1.51861 -3.81377 0
M  V30 9660 H 923.455 -0.608458 -3.0815 0
M  V30 9661 H 922.648 -2.66841 -4.27565 0
M  V30 9662 H 922.25 -2.74199 -2.54344 0
M  V30 9663 H 924.542 -4.04571 -5.43441 0
M  V30 9664 H 925.485 -5.34752 -4.64162 0
M  V30 9665 H 925.893 -3.63638 -4.31773 0
M  V30 9666 N 925.291 0.760815 -1.38019 0
M  V30 9667 C 926.707 1.06289 -1.19058 0
M  V30 9668 C 926.907 2.01471 -0.0342603 0
M  V30 9669 O 925.963 2.44713 0.62224 0
M  V30 9670 C 927.276 1.6499 -2.51394 0
M  V30 9671 C 928.824 1.77196 -2.58013 0
M  V30 9672 C 929.299 2.3931 -3.90506 0
M  V30 9673 N 930.79 2.46749 -3.92007 0
M  V30 9674 C 931.525 2.95687 -4.91281 0
M  V30 9675 N 931.021 3.44715 -6.00952 0
M  V30 9676 N 932.814 2.94661 -4.78677 0
M  V30 9677 H 924.965 0.129045 -2.12008 0
M  V30 9678 H 927.228 0.119878 -0.94039 0
M  V30 9679 H 926.934 1.0252 -3.36426 0
M  V30 9680 H 926.808 2.64146 -2.6927 0
M  V30 9681 H 929.195 2.38796 -1.7338 0
M  V30 9682 H 929.276 0.767645 -2.4401 0
M  V30 9683 H 928.92 1.78346 -4.75558 0
M  V30 9684 H 928.85 3.40369 -4.01817 0
M  V30 9685 H 931.341 2.12064 -3.12789 0
M  V30 9686 H 931.654 3.80492 -6.72641 0
M  V30 9687 H 929.999 3.42791 -6.04582 0
M  V30 9688 H 933.19 2.55665 -3.92113 0
M  V30 9689 H 933.363 3.32489 -5.56197 0
M  V30 9690 N 926.769 1.22769 0.988202 0
M  V30 9691 C 927.716 1.00195 2.07917 0
M  V30 9692 C 928.686 -0.0779391 1.65917 0
M  V30 9693 O 929.871 0.0726005 1.90662 0
M  V30 9694 C 927.011 0.590853 3.40004 0
M  V30 9695 C 926.124 1.74202 3.9532 0
M  V30 9696 C 925.259 1.27846 5.15586 0
M  V30 9697 C 924.298 2.40087 5.63049 0
M  V30 9698 N 923.435 1.94744 6.74551 0
M  V30 9699 H 928.275 1.93581 2.26562 0
M  V30 9700 H 925.812 0.96448 1.11068 0
M  V30 9701 H 927.77 0.333653 4.15864 0
M  V30 9702 H 926.4 -0.306007 3.21346 0
M  V30 9703 H 925.452 2.11342 3.16289 0
M  V30 9704 H 926.764 2.58612 4.26522 0
M  V30 9705 H 925.918 0.978919 5.9875 0
M  V30 9706 H 924.657 0.404617 4.86019 0
M  V30 9707 H 923.662 2.70824 4.78471 0
M  V30 9708 H 924.887 3.27995 5.9464 0
M  V30 9709 H 922.833 1.09729 6.46758 0
M  V30 9710 H 922.75 2.72718 7.05096 0
M  V30 9711 H 924.018 1.67873 7.61209 0
M  V30 9712 N 928.247 -1.18576 1.03814 0
M  V30 9713 C 929.21 -2.2033 0.63146 0
M  V30 9714 C 930.21 -1.57787 -0.309816 0
M  V30 9715 O 931.4 -1.73938 -0.0955598 0
M  V30 9716 C 928.532 -3.40818 -0.0745963 0
M  V30 9717 H 929.725 -2.57824 1.53189 0
M  V30 9718 H 927.278 -1.32416 0.830398 0
M  V30 9719 H 928.013 -3.08853 -0.988947 0
M  V30 9720 H 927.798 -3.87453 0.6019 0
M  V30 9721 H 929.288 -4.16166 -0.345727 0
M  V30 9722 N 929.725 -0.817259 -1.34754 0
M  V30 9723 C 930.655 -0.249769 -2.3216 0
M  V30 9724 C 931.636 0.630663 -1.57977 0
M  V30 9725 O 932.821 0.558719 -1.85989 0
M  V30 9726 C 929.951 0.593825 -3.42186 0
M  V30 9727 C 928.905 -0.188997 -4.27583 0
M  V30 9728 C 928.231 0.776979 -5.29025 0
M  V30 9729 C 929.531 -1.39401 -5.03354 0
M  V30 9730 H 931.225 -1.06359 -2.79872 0
M  V30 9731 H 928.771 -0.512894 -1.34556 0
M  V30 9732 H 930.724 1.00097 -4.09339 0
M  V30 9733 H 929.448 1.44064 -2.93109 0
M  V30 9734 H 928.107 -0.577445 -3.62024 0
M  V30 9735 H 927.755 1.61959 -4.76212 0
M  V30 9736 H 927.455 0.257448 -5.87036 0
M  V30 9737 H 928.979 1.18211 -5.99048 0
M  V30 9738 H 930.393 -1.06117 -5.63393 0
M  V30 9739 H 928.79 -1.84878 -5.70912 0
M  V30 9740 H 929.86 -2.17515 -4.33377 0
M  V30 9741 N 931.203 1.46865 -0.571711 0
M  V30 9742 C 932.431 2.06818 -0.0583975 0
M  V30 9743 C 932.846 1.42218 1.24175 0
M  V30 9744 O 932.203 0.523655 1.74826 0
M  V30 9745 C 932.254 3.61281 0.125673 0
M  V30 9746 O 931.975 4.23462 -1.123 0
M  V30 9747 C 933.476 4.38137 0.674604 0
M  V30 9748 H 930.696 0.668948 -0.052438 0
M  V30 9749 H 933.24 1.88656 -0.789251 0
M  V30 9750 H 931.395 3.78908 0.806707 0
M  V30 9751 H 931.809 5.16192 -0.929869 0
M  V30 9752 H 933.283 5.46845 0.752626 0
M  V30 9753 H 933.76 4.05419 1.68915 0
M  V30 9754 H 934.366 4.2529 0.0287979 0
M  V30 9755 N 932.681 0.308908 1.54543 0
M  V30 9756 C 933.611 -0.556657 2.26768 0
M  V30 9757 C 934.592 -1.13145 1.27013 0
M  V30 9758 O 935.777 -1.15931 1.558 0
M  V30 9759 C 932.907 -1.72481 3.01443 0
M  V30 9760 C 931.861 -1.28001 4.08411 0
M  V30 9761 C 931.187 -2.53395 4.70845 0
M  V30 9762 C 932.487 -0.405497 5.20724 0
M  V30 9763 H 934.181 0.0457618 2.99365 0
M  V30 9764 H 931.727 0.0234495 1.43981 0
M  V30 9765 H 933.68 -2.3365 3.50693 0
M  V30 9766 H 932.404 -2.35359 2.26437 0
M  V30 9767 H 931.063 -0.69133 3.60022 0
M  V30 9768 H 930.711 -3.14604 3.92471 0
M  V30 9769 H 930.411 -2.2433 5.43093 0
M  V30 9770 H 931.935 -3.15352 5.22863 0
M  V30 9771 H 933.349 -0.923076 5.6582 0
M  V30 9772 H 931.746 -0.208282 5.99738 0
M  V30 9773 H 932.816 0.567412 4.81569 0
M  V30 9774 N 934.159 -1.57557 0.0367827 0
M  V30 9775 C 935.575 -1.56366 -0.31967 0
M  V30 9776 C 935.775 -1.04313 -1.72398 0
M  V30 9777 O 934.831 -0.693278 -2.42796 0
M  V30 9778 C 936.144 -3.00267 -0.161274 0
M  V30 9779 C 937.692 -3.12128 -0.233464 0
M  V30 9780 C 938.167 -4.57882 -0.103767 0
M  V30 9781 N 939.658 -4.62922 -0.160506 0
M  V30 9782 C 940.393 -5.73338 -0.0840493 0
M  V30 9783 N 939.889 -6.92786 0.043933 0
M  V30 9784 N 941.682 -5.61929 -0.138592 0
M  V30 9785 H 933.833 -1.8972 0.954996 0
M  V30 9786 H 936.096 -0.87304 0.369467 0
M  V30 9787 H 935.802 -3.42331 0.80639 0
M  V30 9788 H 935.676 -3.65599 -0.928304 0
M  V30 9789 H 938.063 -2.69972 -1.19159 0
M  V30 9790 H 938.144 -2.49503 0.564075 0
M  V30 9791 H 937.788 -5.0072 0.850973 0
M  V30 9792 H 937.718 -5.18496 -0.920268 0
M  V30 9793 H 940.209 -3.7701 -0.259257 0
M  V30 9794 H 940.522 -7.72741 0.095372 0
M  V30 9795 H 938.867 -6.94955 0.0788211 0
M  V30 9796 H 942.058 -4.67499 -0.237031 0
M  V30 9797 H 942.231 -6.47956 -0.075546 0
M  V30 9798 N 935.637 0.236453 -1.55816 0
M  V30 9799 C 936.867 0.978873 -1.81939 0
M  V30 9800 C 937.275 1.79041 -0.611647 0
M  V30 9801 O 936.618 1.78616 0.429172 0
M  V30 9802 C 936.68 1.9569 -3.01572 0
M  V30 9803 C 936.344 1.33131 -4.37178 0
M  V30 9804 C 937.341 0.728585 -5.1477 0
M  V30 9805 C 935.026 1.34755 -4.83887 0
M  V30 9806 C 937.02 0.150427 -6.37222 0
M  V30 9807 C 934.707 0.765539 -6.06286 0
M  V30 9808 C 935.705 0.168017 -6.82793 0
M  V30 9809 O 935.393 -0.404976 -8.02879 0
M  V30 9810 H 935.125 0.293186 -0.609113 0
M  V30 9811 H 937.679 0.261384 -2.0373 0
M  V30 9812 H 935.909 2.71298 -2.75562 0
M  V30 9813 H 937.598 2.56362 -3.14695 0
M  V30 9814 H 938.364 0.708477 -4.79797 0
M  V30 9815 H 934.243 1.80202 -4.24321 0
M  V30 9816 H 937.787 -0.316586 -6.96881 0
M  V30 9817 H 933.684 0.78301 -6.40733 0
M  V30 9818 H 934.452 -0.29785 -8.17958 0
M  V30 9819 N 937.115 1.49373 0.502552 0
M  V30 9820 C 938.078 1.65413 1.58654 0
M  V30 9821 C 939.078 0.526003 1.51953 0
M  V30 9822 O 940.268 0.792421 1.55133 0
M  V30 9823 C 937.4 1.65005 2.98306 0
M  V30 9824 H 938.593 2.62095 1.45762 0
M  V30 9825 H 936.146 1.38381 0.726672 0
M  V30 9826 H 936.881 0.699014 3.16677 0
M  V30 9827 H 936.666 2.46931 3.04578 0
M  V30 9828 H 938.156 1.79477 3.77065 0
M  V30 9829 N 938.594 -0.753485 1.38421 0
M  V30 9830 C 939.524 -1.8808 1.38377 0
M  V30 9831 C 940.505 -1.68258 0.249664 0
M  V30 9832 O 941.69 -1.88848 0.45276 0
M  V30 9833 C 938.82 -3.25608 1.20818 0
M  V30 9834 C 937.774 -3.60032 2.31433 0
M  V30 9835 C 937.1 -4.96297 1.9898 0
M  V30 9836 C 938.4 -3.64898 3.73694 0
M  V30 9837 H 940.094 -1.88375 2.32713 0
M  V30 9838 H 937.64 -0.90489 1.12017 0
M  V30 9839 H 939.593 -4.04127 1.19412 0
M  V30 9840 H 938.317 -3.25793 0.229433 0
M  V30 9841 H 936.976 -2.83831 2.32025 0
M  V30 9842 H 936.624 -4.93043 0.995889 0
M  V30 9843 H 936.324 -5.20298 2.73063 0
M  V30 9844 H 937.848 -5.77196 1.99193 0
M  V30 9845 H 939.262 -4.33531 3.75132 0
M  V30 9846 H 937.659 -4.00407 4.46983 0
M  V30 9847 H 938.729 -2.65124 4.06002 0
M  V30 9848 N 940.072 -1.23292 -0.981677 0
M  V30 9849 C 941.002 -1.03738 -2.09191 0
M  V30 9850 C 941.983 0.0453041 -1.7004 0
M  V30 9851 O 943.168 -0.119092 -1.93834 0
M  V30 9852 C 940.298 -0.626426 -3.41604 0
M  V30 9853 C 939.252 -1.65631 -3.94652 0
M  V30 9854 C 938.578 -1.10084 -5.23245 0
M  V30 9855 C 939.878 -3.04903 -4.24066 0
M  V30 9856 H 941.572 -1.966 -2.25807 0
M  V30 9857 H 939.118 -0.946656 -1.0851 0
M  V30 9858 H 941.071 -0.476689 -4.18695 0
M  V30 9859 H 939.795 0.337873 -3.24848 0
M  V30 9860 H 938.454 -1.79402 -3.19704 0
M  V30 9861 H 938.102 -0.127562 -5.02838 0
M  V30 9862 H 937.802 -1.78896 -5.59705 0
M  V30 9863 H 939.326 -0.962928 -6.02959 0
M  V30 9864 H 940.74 -2.94441 -4.91912 0
M  V30 9865 H 939.137 -3.70941 -4.71724 0
M  V30 9866 H 940.207 -3.53991 -3.31389 0
M  V30 9867 N 941.55 1.18024 -1.04442 0
M  V30 9868 C 942.961 1.69749 -0.777312 0
M  V30 9869 C 943.312 1.83234 0.701399 0
M  V30 9870 O 942.437 1.51452 1.54568 0
M  V30 9871 C 943.032 3.08321 -1.40441 0
M  V30 9872 C 941.591 3.57243 -1.18553 0
M  V30 9873 C 940.738 2.33695 -1.49271 0
M  V30 9874 H 943.689 1.02647 -1.21035 0
M  V30 9875 H 943.71 3.71787 -0.809628 0
M  V30 9876 H 943.222 2.98474 -2.48062 0
M  V30 9877 H 941.323 3.72379 -0.128221 0
M  V30 9878 H 941.436 4.40451 -1.88519 0
M  V30 9879 H 939.8 2.37792 -0.912526 0
M  V30 9880 H 940.583 2.26464 -2.5801 0
M  V30 9881 N 943.028 0.824394 1.34319 0
M  V30 9882 C 943.978 0.219624 2.2694 0
M  V30 9883 C 944.962 -0.616964 1.48601 0
M  V30 9884 O 946.154 -0.471303 1.7061 0
M  V30 9885 C 943.283 -0.616379 3.37721 0
M  V30 9886 C 942.369 0.230917 4.23471 0
M  V30 9887 N 942.76 1.30264 4.88738 0
M  V30 9888 C 941.058 0.0155016 4.45997 0
M  V30 9889 C 941.759 1.82141 5.52449 0
M  V30 9890 N 940.735 1.12508 5.3183 0
M  V30 9891 H 944.537 1.03939 2.74907 0
M  V30 9892 H 942.051 0.667353 1.48055 0
M  V30 9893 H 944.048 -1.06582 4.03046 0
M  V30 9894 H 942.708 -1.43429 2.91304 0
M  V30 9895 H 943.719 1.68545 4.89707 0
M  V30 9896 H 940.396 -0.770128 4.10336 0
M  V30 9897 H 941.786 2.7181 6.14466 0
M  V30 9898 N 944.506 -1.46559 0.579492 0
M  V30 9899 C 945.436 -2.33059 -0.143437 0
M  V30 9900 C 946.417 -1.4515 -0.886868 0
M  V30 9901 O 947.602 -1.73973 -0.862961 0
M  V30 9902 C 944.732 -3.27364 -1.15973 0
M  V30 9903 C 943.686 -4.24689 -0.531348 0
M  V30 9904 C 943.012 -5.08479 -1.65388 0
M  V30 9905 C 944.312 -5.1961 0.529391 0
M  V30 9906 H 946.006 -2.93753 0.578762 0
M  V30 9907 H 943.552 -1.41256 0.279775 0
M  V30 9908 H 945.505 -3.86732 -1.67382 0
M  V30 9909 H 944.229 -2.64771 -1.91217 0
M  V30 9910 H 942.888 -3.6658 -0.0383749 0
M  V30 9911 H 942.536 -4.42273 -2.3959 0
M  V30 9912 H 942.236 -5.74387 -1.23909 0
M  V30 9913 H 943.76 -5.70709 -2.17079 0
M  V30 9914 H 945.174 -5.73212 0.100506 0
M  V30 9915 H 943.571 -5.93843 0.86432 0
M  V30 9916 H 944.641 -4.63737 1.4169 0
M  V30 9917 N 945.984 -0.3171 -1.54377 0
M  V30 9918 C 947.214 0.289138 -2.04567 0
M  V30 9919 C 947.622 1.46833 -1.19318 0
M  V30 9920 O 946.965 1.82436 -0.215141 0
M  V30 9921 C 947.027 0.792994 -3.50645 0
M  V30 9922 C 946.691 -0.263033 -4.56242 0
M  V30 9923 C 947.688 -1.09694 -5.08196 0
M  V30 9924 C 945.373 -0.409364 -5.00629 0
M  V30 9925 C 947.367 -2.06297 -6.03092 0
M  V30 9926 C 945.054 -1.37882 -5.95342 0
M  V30 9927 C 946.052 -2.20409 -6.46459 0
M  V30 9928 O 945.74 -3.15708 -7.39313 0
M  V30 9929 H 945.472 0.0644005 -0.672925 0
M  V30 9930 H 948.026 -0.459438 -2.00196 0
M  V30 9931 H 946.256 1.59237 -3.52392 0
M  V30 9932 H 947.945 1.31687 -3.83944 0
M  V30 9933 H 948.711 -0.994842 -4.74687 0
M  V30 9934 H 944.59 0.223091 -4.6046 0
M  V30 9935 H 948.134 -2.70751 -6.42915 0
M  V30 9936 H 944.031 -1.48158 -6.28267 0
M  V30 9937 H 944.799 -3.10873 -7.57166 0
M  V30 9938 N 947.462 1.57535 -0.0451378 0
M  V30 9939 C 948.69 1.96761 0.639742 0
M  V30 9940 C 949.105 0.922405 1.64734 0
M  V30 9941 O 948.462 -0.0940535 1.82257 0
M  V30 9942 C 948.513 3.36066 1.33199 0
M  V30 9943 O 948.234 4.36579 0.364757 0
M  V30 9944 C 949.735 3.90015 2.1072 0
M  V30 9945 H 946.955 0.64769 0.175324 0
M  V30 9946 H 949.499 2.04206 -0.109651 0
M  V30 9947 H 947.654 3.2979 2.03266 0
M  V30 9948 H 948.068 5.17432 0.858168 0
M  V30 9949 H 949.542 4.89785 2.54586 0
M  V30 9950 H 950.019 3.25117 2.95288 0
M  V30 9951 H 950.625 3.99609 1.45577 0
M  V30 9952 N 948.94 -0.228186 1.55939 0
M  V30 9953 C 949.87 -1.28607 1.94891 0
M  V30 9954 C 950.851 -1.49236 0.816245 0
M  V30 9955 O 952.036 -1.61531 1.07803 0
M  V30 9956 C 949.166 -2.63719 2.25986 0
M  V30 9957 C 948.12 -2.57757 3.4168 0
M  V30 9958 C 947.446 -3.96837 3.58364 0
M  V30 9959 C 948.746 -2.13116 4.76843 0
M  V30 9960 H 950.44 -0.962531 2.83506 0
M  V30 9961 H 947.986 -0.461577 1.36402 0
M  V30 9962 H 949.939 -3.37878 2.51826 0
M  V30 9963 H 948.663 -2.97747 1.34217 0
M  V30 9964 H 947.322 -1.86055 3.15878 0
M  V30 9965 H 946.97 -4.28162 2.63982 0
M  V30 9966 H 946.67 -3.93731 4.36176 0
M  V30 9967 H 948.194 -4.72668 3.86545 0
M  V30 9968 H 949.608 -2.77015 5.01932 0
M  V30 9969 H 948.005 -2.21083 5.57891 0
M  V30 9970 H 949.075 -1.08326 4.72645 0
M  V30 9971 N 950.418 -1.49637 -0.494624 0
M  V30 9972 C 951.665 -1.59445 -1.24834 0
M  V30 9973 C 951.993 -0.284028 -1.92415 0
M  V30 9974 O 951.248 0.728519 -1.81634 0
M  V30 9975 C 951.547 -2.70749 -2.33302 0
M  V30 9976 C 951.213 -4.12034 -1.83135 0
M  V30 9977 C 949.875 -4.50482 -1.69173 0
M  V30 9978 C 952.227 -5.00432 -1.4566 0
M  V30 9979 C 949.555 -5.75093 -1.16124 0
M  V30 9980 C 951.907 -6.25568 -0.940608 0
M  V30 9981 C 950.571 -6.62839 -0.787432 0
M  V30 9982 H 949.841 -0.583451 -0.456799 0
M  V30 9983 H 952.488 -1.8349 -0.548044 0
M  V30 9984 H 950.793 -2.407 -3.09145 0
M  V30 9985 H 952.49 -2.75546 -2.91334 0
M  V30 9986 H 949.08 -3.8169 -1.94964 0
M  V30 9987 H 953.264 -4.71379 -1.55291 0
M  V30 9988 H 948.52 -6.02665 -1.02982 0
M  V30 9989 H 952.694 -6.93439 -0.641467 0
M  V30 9990 H 950.321 -7.59279 -0.374191 0
M  V30 9991 N 951.896 0.746133 -1.38819 0
M  V30 9992 C 952.846 1.85085 -1.33145 0
M  V30 9993 C 953.83 1.59466 -0.214339 0
M  V30 9994 O 955.022 1.71159 -0.450943 0
M  V30 9995 C 952.151 3.22884 -1.16623 0
M  V30 9996 C 951.237 3.54369 -2.32988 0
M  V30 9997 N 951.628 3.56863 -3.58445 0
M  V30 9998 C 949.926 3.84674 -2.25703 0
M  V30 9999 C 950.627 3.85827 -4.3533 0
M  V30 10000 N 949.603 4.03037 -3.64777 0
M  V30 10001 H 953.405 1.85301 -2.28124 0
M  V30 10002 H 950.919 0.943847 -1.32156 0
M  V30 10003 H 952.916 4.0195 -1.10642 0
M  V30 10004 H 951.576 3.23914 -0.225841 0
M  V30 10005 H 952.587 3.38443 -3.92017 0
M  V30 10006 H 949.264 3.93375 -1.39864 0
M  V30 10007 H 950.654 3.94317 -5.44025 0
M  V30 10008 N 953.375 1.23811 0.975125 0
M  V30 10009 C 954.307 0.981779 2.07108 0
M  V30 10010 C 955.32 -0.0461211 1.62735 0
M  V30 10011 O 956.509 0.190039 1.77486 0
M  V30 10012 C 953.609 0.458364 3.35786 0
M  V30 10013 C 952.782 1.54767 4.09104 0
M  V30 10014 C 951.841 1.0282 5.16057 0
M  V30 10015 O 950.867 1.71831 5.42644 0
M  V30 10016 N 952.069 -0.141243 5.80328 0
M  V30 10017 H 954.834 1.92537 2.29673 0
M  V30 10018 H 952.395 1.1474 1.14221 0
M  V30 10019 H 954.387 0.0957686 4.04587 0
M  V30 10020 H 952.957 -0.390768 3.10148 0
M  V30 10021 H 952.177 2.08279 3.34684 0
M  V30 10022 H 953.465 2.28006 4.54853 0
M  V30 10023 H 952.863 -0.718382 5.6112 0
M  V30 10024 H 951.42 -0.445052 6.50279 0
M  V30 10025 N 954.853 -1.17469 1.05066 0
M  V30 10026 C 955.816 -2.19648 0.654793 0
M  V30 10027 C 956.816 -1.58107 -0.293063 0
M  V30 10028 O 958.006 -1.74029 -0.077106 0
M  V30 10029 C 955.138 -3.40878 -0.0384437 0
M  V30 10030 H 956.331 -2.56184 1.55915 0
M  V30 10031 H 953.884 -1.31528 0.844396 0
M  V30 10032 H 954.619 -3.09885 -0.956133 0
M  V30 10033 H 954.404 -3.86792 0.642961 0
M  V30 10034 H 955.894 -4.1651 -0.301568 0
M  V30 10035 N 956.331 -0.831506 -1.3388 0
M  V30 10036 C 957.281 -0.231656 -2.2682 0
M  V30 10037 C 958.265 0.609075 -1.48926 0
M  V30 10038 O 959.457 0.462249 -1.70857 0
M  V30 10039 C 956.586 0.59846 -3.38043 0
M  V30 10040 C 955.672 -0.253372 -4.23342 0
M  V30 10041 N 956.063 -1.32854 -4.8804 0
M  V30 10042 C 954.361 -0.0391537 -4.45983 0
M  V30 10043 C 955.062 -1.85069 -5.51475 0
M  V30 10044 N 954.038 -1.15327 -5.31226 0
M  V30 10045 H 957.84 -1.05396 -2.74352 0
M  V30 10046 H 955.354 -0.675195 -1.47699 0
M  V30 10047 H 957.351 1.04443 -4.03605 0
M  V30 10048 H 956.011 1.41882 -2.92061 0
M  V30 10049 H 957.022 -1.71139 -4.88806 0
M  V30 10050 H 953.699 0.748356 -4.10738 0
M  V30 10051 H 955.089 -2.75065 -6.13016 0
M  V30 10052 N 957.809 1.4625 -0.587256 0
M  V30 10053 C 959.055 2.02662 -0.0746851 0
M  V30 10054 C 959.388 1.45723 1.28368 0
M  V30 10055 O 958.663 0.624062 1.84216 0
M  V30 10056 C 958.946 3.60097 -0.0138109 0
M  V30 10057 C 958.799 4.27412 -1.4014 0
M  V30 10058 C 960.118 4.34744 0.684491 0
M  V30 10059 H 957.237 0.736444 -0.0286144 0
M  V30 10060 H 959.879 1.74341 -0.755328 0
M  V30 10061 H 958.029 3.84357 0.56583 0
M  V30 10062 H 959.701 4.14401 -2.02656 0
M  V30 10063 H 957.944 3.86598 -1.96785 0
M  V30 10064 H 958.615 5.362 -1.31124 0
M  V30 10065 H 961.091 4.15657 0.192023 0
M  V30 10066 H 959.967 5.44468 0.696127 0
M  V30 10067 H 960.228 4.06132 1.74669 0
M  V30 10068 N 959.287 0.325282 1.54207 0
M  V30 10069 C 960.25 -0.527228 2.23054 0
M  V30 10070 C 961.25 -1.04217 1.22456 0
M  V30 10071 O 962.44 -0.934325 1.47024 0
M  V30 10072 C 959.572 -1.7325 2.93594 0
M  V30 10073 H 960.765 0.0746423 2.99807 0
M  V30 10074 H 958.318 0.0763872 1.56113 0
M  V30 10075 H 959.053 -2.37356 2.20981 0
M  V30 10076 H 958.838 -1.37065 3.67363 0
M  V30 10077 H 960.328 -2.3376 3.46043 0
M  V30 10078 N 960.765 -1.57509 0.0534917 0
M  V30 10079 C 962.013 -1.92402 -0.618548 0
M  V30 10080 C 962.334 -0.93273 -1.71246 0
M  V30 10081 O 961.604 0.0220495 -1.95888 0
M  V30 10082 H 960.184 -0.710233 -0.23147 0
M  V30 10083 H 962.846 -1.94606 0.10704 0
M  V30 10084 H 961.942 -2.93704 -1.05566 0
M  V30 10085 N 962.243 0.219913 -1.56058 0
M  V30 10086 C 963.153 1.29349 -1.95719 0
M  V30 10087 C 964.169 1.5119 -0.861248 0
M  V30 10088 O 965.345 1.64289 -1.16495 0
M  V30 10089 C 962.41 2.6229 -2.26726 0
M  V30 10090 C 961.471 2.48738 -3.49897 0
M  V30 10091 C 960.704 3.75339 -3.79416 0
M  V30 10092 O 960.927 4.78427 -3.10586 0
M  V30 10093 O 959.861 3.72352 -4.72903 0
M  V30 10094 H 963.687 0.986979 -2.87215 0
M  V30 10095 H 961.272 0.42291 -1.43289 0
M  V30 10096 H 963.154 3.408 -2.47857 0
M  V30 10097 H 961.829 2.92619 -1.38404 0
M  V30 10098 H 960.736 1.68422 -3.34043 0
M  V30 10099 H 962.069 2.23347 -4.38608 0
M  V30 10100 N 963.721 1.49897 0.486681 0
M  V30 10101 C 964.949 1.63837 1.26353 0
M  V30 10102 C 965.364 0.315428 1.86146 0
M  V30 10103 O 964.721 -0.700831 1.68507 0
M  V30 10104 C 964.772 2.71792 2.38351 0
M  V30 10105 O 964.493 3.98956 1.81013 0
M  V30 10106 C 965.994 2.96566 3.2949 0
M  V30 10107 H 963.214 0.551158 0.382709 0
M  V30 10108 H 965.758 1.96023 0.582694 0
M  V30 10109 H 963.913 2.42344 3.02238 0
M  V30 10110 H 964.327 4.58536 2.54647 0
M  V30 10111 H 965.801 3.75803 4.04322 0
M  V30 10112 H 966.278 2.07031 3.87343 0
M  V30 10113 H 966.884 3.27485 2.71355 0
M  V30 10114 N 965.199 -0.738761 1.39212 0
M  V30 10115 C 966.445 -1.50046 1.36433 0
M  V30 10116 C 966.778 -1.94157 -0.0409474 0
M  V30 10117 O 966.053 -1.66515 -1.00514 0
M  V30 10118 C 966.336 -2.74277 2.33333 0
M  V30 10119 C 966.189 -2.36209 3.82786 0
M  V30 10120 C 967.508 -3.76361 2.28123 0
M  V30 10121 H 964.627 -0.544294 0.496903 0
M  V30 10122 H 967.269 -0.845005 1.70175 0
M  V30 10123 H 965.419 -3.30204 2.04689 0
M  V30 10124 H 967.091 -1.85942 4.22165 0
M  V30 10125 H 965.334 -1.68483 3.99745 0
M  V30 10126 H 966.005 -3.25156 4.46069 0
M  V30 10127 H 968.481 -3.30009 2.53443 0
M  V30 10128 H 967.357 -4.60957 2.9801 0
M  V30 10129 H 967.618 -4.23013 1.28499 0
M  V30 10130 N 966.677 -1.24326 -0.968545 0
M  V30 10131 C 967.64 -1.03591 -2.04454 0
M  V30 10132 C 968.64 0.0064809 -1.60799 0
M  V30 10133 O 969.83 -0.234404 -1.72616 0
M  V30 10134 C 966.962 -0.56992 -3.36102 0
M  V30 10135 H 968.155 -1.99092 -2.24282 0
M  V30 10136 H 965.708 -1.06537 -1.14366 0
M  V30 10137 H 966.443 0.388325 -3.21967 0
M  V30 10138 H 966.228 -1.32227 -3.69132 0
M  V30 10139 H 967.718 -0.445854 -4.15213 0
M  V30 10140 N 968.156 1.1691 -1.05688 0
M  V30 10141 C 969.572 1.39288 -0.779167 0
M  V30 10142 C 969.772 1.91587 0.624231 0
M  V30 10143 O 968.828 2.11072 1.38582 0
M  V30 10144 C 970.141 2.37914 -1.83895 0
M  V30 10145 C 971.689 2.51611 -1.86175 0
M  V30 10146 C 972.164 3.53514 -2.9119 0
M  V30 10147 N 973.655 3.61036 -2.90184 0
M  V30 10148 C 974.39 4.39657 -3.68088 0
M  V30 10149 N 973.886 5.21752 -4.55793 0
M  V30 10150 N 975.679 4.3458 -3.56507 0
M  V30 10151 H 967.83 0.81296 -1.96226 0
M  V30 10152 H 970.093 0.419818 -0.849975 0
M  V30 10153 H 969.799 2.06568 -2.84645 0
M  V30 10154 H 969.673 3.37483 -1.68479 0
M  V30 10155 H 972.06 2.82264 -0.86087 0
M  V30 10156 H 972.141 1.52099 -2.05668 0
M  V30 10157 H 971.785 3.23599 -3.91467 0
M  V30 10158 H 971.715 4.52742 -2.68947 0
M  V30 10159 H 974.206 3.02428 -2.26596 0
M  V30 10160 H 974.519 5.78939 -5.11907 0
M  V30 10161 H 972.864 5.21116 -4.59851 0
M  V30 10162 H 976.055 3.69501 -2.87379 0
M  V30 10163 H 976.228 4.95607 -4.17466 0
M  V30 10164 N 969.634 0.838594 1.33437 0
M  V30 10165 C 971.045 0.490934 1.8013 0
M  V30 10166 C 971.396 -0.990024 1.6939 0
M  V30 10167 O 970.521 -1.77139 1.24302 0
M  V30 10168 C 971.116 0.884347 3.27055 0
M  V30 10169 C 969.675 0.588829 3.71766 0
M  V30 10170 C 968.822 1.09282 2.54858 0
M  V30 10171 H 971.773 1.02732 1.20962 0
M  V30 10172 H 971.794 0.194283 3.80004 0
M  V30 10173 H 971.306 1.96225 3.34839 0
M  V30 10174 H 969.407 -0.479018 3.69508 0
M  V30 10175 H 969.52 1.14387 4.65245 0
M  V30 10176 H 967.884 0.513702 2.49466 0
M  V30 10177 H 968.667 2.1775 2.65405 0
M  V30 10178 N 971.112 -1.45937 0.595003 0
M  V30 10179 C 972.042 -2.33198 -0.11871 0
M  V30 10180 C 973.023 -1.46083 -0.871423 0
M  V30 10181 O 974.208 -1.74879 -0.844461 0
M  V30 10182 C 971.338 -3.28576 -1.12495 0
M  V30 10183 C 970.292 -4.25229 -0.486275 0
M  V30 10184 C 969.618 -5.10204 -1.59986 0
M  V30 10185 C 970.918 -5.19019 0.584473 0
M  V30 10186 H 972.612 -2.93122 0.609886 0
M  V30 10187 H 970.158 -1.40951 0.294742 0
M  V30 10188 H 972.111 -3.88485 -1.6327 0
M  V30 10189 H 970.835 -2.66784 -1.88398 0
M  V30 10190 H 969.494 -3.666 0.000507962 0
M  V30 10191 H 969.142 -4.44789 -2.34886 0
M  V30 10192 H 968.842 -5.75669 -1.1781 0
M  V30 10193 H 970.366 -5.7298 -2.11014 0
M  V30 10194 H 971.78 -5.73073 0.161297 0
M  V30 10195 H 970.177 -5.92893 0.927256 0
M  V30 10196 H 971.247 -4.62208 1.46601 0
M  V30 10197 N 972.59 -0.333456 -1.54032 0
M  V30 10198 C 973.837 0.266133 -2.00744 0
M  V30 10199 C 974.165 1.51361 -1.22148 0
M  V30 10200 O 973.42 1.93473 -0.294368 0
M  V30 10201 C 973.719 0.63565 -3.51702 0
M  V30 10202 C 973.385 -0.513786 -4.47963 0
M  V30 10203 C 972.047 -0.829253 -4.74001 0
M  V30 10204 C 974.399 -1.2854 -5.05101 0
M  V30 10205 C 971.727 -1.91888 -5.54433 0
M  V30 10206 C 974.079 -2.3652 -5.86721 0
M  V30 10207 C 972.743 -2.68637 -6.11057 0
M  V30 10208 H 972.013 0.097385 -0.734573 0
M  V30 10209 H 974.66 -0.459282 -1.85911 0
M  V30 10210 H 972.965 1.44163 -3.64313 0
M  V30 10211 H 974.662 1.11129 -3.85294 0
M  V30 10212 H 971.252 -0.25784 -4.27824 0
M  V30 10213 H 975.436 -1.05494 -4.84958 0
M  V30 10214 H 970.692 -2.17208 -5.71516 0
M  V30 10215 H 974.866 -2.96747 -6.30011 0
M  V30 10216 H 972.493 -3.53197 -6.73169 0
M  V30 10217 N 974.068 1.57479 -0.061844 0
M  V30 10218 C 974.998 2.15181 0.9066 0
M  V30 10219 C 975.979 1.07624 1.31724 0
M  V30 10220 O 977.164 1.35614 1.39006 0
M  V30 10221 C 974.294 2.70542 2.17771 0
M  V30 10222 C 973.248 3.83178 1.9068 0
M  V30 10223 C 972.574 4.25099 3.24337 0
M  V30 10224 C 973.874 5.07853 1.21994 0
M  V30 10225 H 975.568 2.96355 0.42594 0
M  V30 10226 H 973.114 1.42556 0.203435 0
M  V30 10227 H 975.067 3.09552 2.85929 0
M  V30 10228 H 973.791 1.86575 2.68062 0
M  V30 10229 H 972.45 3.44656 1.24931 0
M  V30 10230 H 972.098 3.38069 3.72449 0
M  V30 10231 H 971.798 5.01021 3.07005 0
M  V30 10232 H 973.322 4.66718 3.93709 0
M  V30 10233 H 974.736 5.44242 1.80204 0
M  V30 10234 H 973.133 5.88987 1.14954 0
M  V30 10235 H 974.203 4.84497 0.197536 0
M  V30 10236 N 975.546 -0.211634 1.56173 0
M  V30 10237 C 976.456 -1.2831 1.96402 0
M  V30 10238 C 977.472 -1.50731 0.869254 0
M  V30 10239 O 978.648 -1.63669 1.17365 0
M  V30 10240 C 975.713 -2.61084 2.28114 0
M  V30 10241 C 974.774 -2.46879 3.51211 0
M  V30 10242 C 974.007 -3.73321 3.81401 0
M  V30 10243 O 974.23 -4.76773 3.13119 0
M  V30 10244 O 973.164 -3.69839 4.74871 0
M  V30 10245 H 976.99 -0.971733 2.87734 0
M  V30 10246 H 974.575 -0.415305 1.43512 0
M  V30 10247 H 976.457 -3.39481 2.49661 0
M  V30 10248 H 975.132 -2.91881 1.39954 0
M  V30 10249 H 974.039 -1.66648 3.34932 0
M  V30 10250 H 975.372 -2.21018 4.39786 0
M  V30 10251 N 977.024 -1.50153 -0.478725 0
M  V30 10252 C 978.271 -1.6076 -1.23136 0
M  V30 10253 C 978.599 -0.30442 -1.92103 0
M  V30 10254 O 977.854 0.709213 -1.82397 0
M  V30 10255 C 978.153 -2.73208 -2.30417 0
M  V30 10256 C 977.819 -4.13953 -1.78755 0
M  V30 10257 C 976.481 -4.52251 -1.64386 0
M  V30 10258 C 978.833 -5.01949 -1.40344 0
M  V30 10259 C 976.161 -5.76292 -1.10018 0
M  V30 10260 C 978.513 -6.2653 -0.874206 0
M  V30 10261 C 977.177 -6.63637 -0.717085 0
M  V30 10262 H 976.447 -0.588264 -0.450585 0
M  V30 10263 H 979.094 -1.84061 -0.528551 0
M  V30 10264 H 977.399 -2.43965 -3.06575 0
M  V30 10265 H 979.096 -2.7862 -2.88395 0
M  V30 10266 H 975.686 -3.83736 -1.90904 0
M  V30 10267 H 979.87 -4.73 -1.50283 0
M  V30 10268 H 975.126 -6.03723 -0.965838 0
M  V30 10269 H 979.3 -6.94081 -0.567883 0
M  V30 10270 H 976.927 -7.59633 -0.293639 0
M  V30 10271 N 978.502 0.731368 -1.39602 0
M  V30 10272 C 979.913 1.30981 -1.33045 0
M  V30 10273 C 980.264 1.962 0.00349918 0
M  V30 10274 O 979.389 1.96539 0.905615 0
M  V30 10275 C 979.984 2.3817 -2.40958 0
M  V30 10276 C 978.543 2.91678 -2.3791 0
M  V30 10277 C 977.69 1.65286 -2.22656 0
M  V30 10278 H 980.641 0.528615 -1.49637 0
M  V30 10279 H 980.662 3.18645 -2.07955 0
M  V30 10280 H 980.174 1.90673 -3.38032 0
M  V30 10281 H 978.275 3.43446 -1.44485 0
M  V30 10282 H 978.388 3.44545 -3.32904 0
M  V30 10283 H 976.752 1.89759 -1.69893 0
M  V30 10284 H 977.535 1.19836 -3.21705 0
M  V30 10285 N 979.98 1.24838 0.961938 0
M  V30 10286 C 980.927 1.04582 2.05745 0
M  V30 10287 C 981.897 -0.0427281 1.66045 0
M  V30 10288 O 983.082 0.113026 1.90465 0
M  V30 10289 C 980.222 0.66284 3.38675 0
M  V30 10290 C 979.335 1.82548 3.91536 0
M  V30 10291 C 978.47 1.38753 5.12758 0
M  V30 10292 C 977.509 2.51976 5.5783 0
M  V30 10293 N 976.646 2.09009 6.70268 0
M  V30 10294 H 981.486 1.98343 2.22405 0
M  V30 10295 H 979.023 0.987822 1.08998 0
M  V30 10296 H 980.981 0.421788 4.15062 0
M  V30 10297 H 979.611 -0.237776 3.21923 0
M  V30 10298 H 978.663 2.18004 3.11735 0
M  V30 10299 H 979.975 2.67601 4.20941 0
M  V30 10300 H 979.129 1.1057 5.96539 0
M  V30 10301 H 977.868 0.507618 4.85051 0
M  V30 10302 H 976.873 2.80912 4.72619 0
M  V30 10303 H 978.098 3.40534 5.87549 0
M  V30 10304 H 976.044 1.23423 6.44285 0
M  V30 10305 H 975.961 2.87613 6.99153 0
M  V30 10306 H 977.229 1.83981 7.57477 0
M  V30 10307 N 981.458 -1.16348 1.06306 0
M  V30 10308 C 982.735 -1.829 0.69331 0
M  V30 10309 C 983.115 -1.94298 -0.82531 0
M  V30 10310 O 982.463 -1.48619 -1.73565 0
M  V30 10311 C 982.673 -3.1989 1.3954 0
M  V30 10312 C 984.021 -3.95662 1.54068 0
M  V30 10313 O 985.045 -3.29408 1.35532 0
M  V30 10314 O 983.904 -5.14422 1.84479 0
M  V30 10315 H 980.998 -0.789738 0.245445 0
M  V30 10316 H 983.544 -1.23549 1.16334 0
M  V30 10317 H 982.316 -3.06629 2.43093 0
M  V30 10318 H 981.939 -3.86918 0.915453 0
M  V30 10319 N 982.937 -0.845659 -1.3299 0
M  V30 10320 C 984.162 -0.457435 -2.02293 0
M  V30 10321 C 984.587 0.935634 -1.63179 0
M  V30 10322 O 983.945 1.61297 -0.827835 0
M  V30 10323 C 983.993 -0.593665 -3.5568 0
M  V30 10324 O 983.097 0.37729 -4.10671 0
M  V30 10325 H 982.438 -0.185022 -0.637701 0
M  V30 10326 H 984.968 -1.14237 -1.69738 0
M  V30 10327 H 984.978 -0.477834 -4.05192 0
M  V30 10328 H 983.653 -1.60957 -3.83491 0
M  V30 10329 H 982.23 0.218448 -3.7226 0
M  V30 10330 N 984.415 1.45619 -0.602734 0
M  V30 10331 C 985.64 2.07157 -0.100429 0
M  V30 10332 C 986.065 1.44524 1.20393 0
M  V30 10333 O 985.423 0.536191 1.7319 0
M  V30 10334 C 985.471 3.60587 0.0308604 0
M  V30 10335 O 984.575 3.97944 1.08234 0
M  V30 10336 H 983.916 0.6601 -0.0718643 0
M  V30 10337 H 986.446 1.86948 -0.831366 0
M  V30 10338 H 986.456 4.07348 0.230634 0
M  V30 10339 H 985.131 4.05561 -0.921581 0
M  V30 10340 H 983.708 3.62862 0.859414 0
M  V30 10341 N 985.893 0.34162 1.53853 0
M  V30 10342 C 987.121 -0.256929 2.05299 0
M  V30 10343 C 987.536 -1.44366 1.21671 0
M  V30 10344 O 986.893 -1.80758 0.251584 0
M  V30 10345 C 986.944 -0.673854 3.55164 0
M  V30 10346 O 986.665 0.465687 4.35618 0
M  V30 10347 C 988.166 -1.33332 4.22773 0
M  V30 10348 H 985.386 -0.0499445 0.669139 0
M  V30 10349 H 987.93 0.493048 1.98467 0
M  V30 10350 H 986.085 -1.37378 3.62224 0
M  V30 10351 H 986.499 0.133723 5.2433 0
M  V30 10352 H 987.973 -1.57582 5.29029 0
M  V30 10353 H 988.45 -2.28628 3.75001 0
M  V30 10354 H 989.056 -0.675489 4.19901 0
M  V30 10355 N 987.371 -1.57444 0.0701946 0
M  V30 10356 C 988.617 -1.94528 -0.594177 0
M  V30 10357 C 988.972 -0.949898 -1.67316 0
M  V30 10358 O 988.265 0.0280668 -1.91579 0
M  V30 10359 C 988.459 -3.36044 -1.21694 0
M  V30 10360 C 988.288 -4.49256 -0.199806 0
M  V30 10361 C 987.058 -5.04843 0.214963 0
M  V30 10362 C 989.256 -5.11217 0.562312 0
M  V30 10363 N 987.238 -6.01595 1.22297 0
M  V30 10364 C 988.609 -6.03453 1.42284 0
M  V30 10365 C 990.664 -4.94043 0.618555 0
M  V30 10366 C 989.367 -6.80359 2.33461 0
M  V30 10367 C 991.393 -5.71591 1.51783 0
M  V30 10368 C 990.755 -6.63474 2.36604 0
M  V30 10369 H 986.854 -0.758941 -0.1885 0
M  V30 10370 H 989.438 -1.94145 0.146965 0
M  V30 10371 H 987.609 -3.37168 -1.92801 0
M  V30 10372 H 989.341 -3.60368 -1.84165 0
M  V30 10373 H 986.096 -4.73303 -0.167835 0
M  V30 10374 H 986.52 -6.5467 1.72443 0
M  V30 10375 H 991.162 -4.22794 -0.0230235 0
M  V30 10376 H 988.88 -7.50886 2.98656 0
M  V30 10377 H 992.466 -5.60324 1.56616 0
M  V30 10378 H 991.346 -7.22432 3.0506 0
M  V30 10379 N 988.849 0.203349 -1.56283 0
M  V30 10380 C 990.077 0.941426 -1.84241 0
M  V30 10381 C 990.492 1.77197 -0.651658 0
M  V30 10382 O 989.849 1.78506 0.379713 0
M  V30 10383 C 989.9 1.84429 -3.10915 0
M  V30 10384 O 989.621 1.04729 -4.25398 0
M  V30 10385 C 991.122 2.69474 -3.51993 0
M  V30 10386 H 988.342 0.27507 -0.612027 0
M  V30 10387 H 990.886 0.213088 -2.03387 0
M  V30 10388 H 989.041 2.52635 -2.93691 0
M  V30 10389 H 989.455 1.66179 -4.97478 0
M  V30 10390 H 990.929 3.28495 -4.43616 0
M  V30 10391 H 991.406 3.42775 -2.74594 0
M  V30 10392 H 992.012 2.06652 -3.71719 0
M  V30 10393 N 990.327 1.50405 0.470755 0
M  V30 10394 C 991.573 1.6165 1.22462 0
M  V30 10395 C 991.906 0.316034 1.91611 0
M  V30 10396 O 991.181 -0.682509 1.82132 0
M  V30 10397 C 991.464 2.79702 2.26801 0
M  V30 10398 C 991.317 4.19631 1.61955 0
M  V30 10399 C 992.636 2.93313 3.28109 0
M  V30 10400 H 989.755 0.588345 0.443868 0
M  V30 10401 H 992.397 1.82792 0.518376 0
M  V30 10402 H 990.547 2.61807 2.87036 0
M  V30 10403 H 992.219 4.49117 1.05316 0
M  V30 10404 H 990.462 4.23874 0.922674 0
M  V30 10405 H 991.133 4.98162 2.37779 0
M  V30 10406 H 993.609 3.09697 2.77897 0
M  V30 10407 H 992.485 3.77537 3.98443 0
M  V30 10408 H 992.746 2.03942 3.9225 0
M  V30 10409 N 991.805 -0.723954 1.39988 0
M  V30 10410 C 993.082 -1.4763 1.28316 0
M  V30 10411 C 993.462 -2.10852 -0.102302 0
M  V30 10412 O 992.81 -1.9948 -1.11445 0
M  V30 10413 C 993.02 -2.51878 2.41574 0
M  V30 10414 C 994.368 -3.17948 2.81415 0
M  V30 10415 O 995.392 -2.62195 2.41106 0
M  V30 10416 O 994.251 -4.18858 3.51027 0
M  V30 10417 H 991.345 -0.656092 0.50346 0
M  V30 10418 H 993.891 -0.75684 1.51888 0
M  V30 10419 H 992.663 -2.03618 3.34149 0
M  V30 10420 H 992.286 -3.3137 2.19727 0
M  V30 10421 N 993.283 -1.25346 -0.955304 0
M  V30 10422 C 994.233 -1.02358 -2.03732 0
M  V30 10423 C 995.217 0.0392941 -1.60852 0
M  V30 10424 O 996.409 -0.175959 -1.76123 0
M  V30 10425 C 993.538 -0.643552 -3.37214 0
M  V30 10426 C 992.624 -1.74315 -3.8662 0
M  V30 10427 N 993.015 -2.97816 -4.08827 0
M  V30 10428 C 991.313 -1.62351 -4.15401 0
M  V30 10429 C 992.014 -3.69185 -4.4953 0
M  V30 10430 N 990.99 -2.96803 -4.55422 0
M  V30 10431 H 994.792 -1.96119 -2.18894 0
M  V30 10432 H 992.306 -1.15655 -1.14007 0
M  V30 10433 H 994.303 -0.460053 -4.14354 0
M  V30 10434 H 992.963 0.286738 -3.23431 0
M  V30 10435 H 993.974 -3.33868 -3.95919 0
M  V30 10436 H 990.651 -0.762133 -4.10485 0
M  V30 10437 H 992.041 -4.7519 -4.7502 0
M  V30 10438 N 994.761 1.15782 -1.06922 0
M  V30 10439 C 995.693 2.19978 -0.643604 0
M  V30 10440 C 996.706 1.59981 0.301653 0
M  V30 10441 O 997.895 1.78265 0.0916508 0
M  V30 10442 C 994.995 3.38815 0.0757973 0
M  V30 10443 C 994.168 4.28363 -0.884545 0
M  V30 10444 C 993.227 5.25807 -0.203233 0
M  V30 10445 O 992.253 5.62924 -0.842904 0
M  V30 10446 N 993.455 5.70874 1.05279 0
M  V30 10447 H 996.22 2.57112 -1.53992 0
M  V30 10448 H 993.781 1.30855 -0.953344 0
M  V30 10449 H 995.773 4.01052 0.542151 0
M  V30 10450 H 994.343 3.00133 0.874 0
M  V30 10451 H 993.563 3.63292 -1.53012 0
M  V30 10452 H 994.851 4.85067 -1.53581 0
M  V30 10453 H 994.249 5.42822 1.5925 0
M  V30 10454 H 992.806 6.35171 1.46289 0
M  V30 10455 N 996.239 0.8527 1.3254 0
M  V30 10456 C 997.169 0.311234 2.31416 0
M  V30 10457 C 998.15 -0.588557 1.59593 0
M  V30 10458 O 999.335 -0.509211 1.87405 0
M  V30 10459 C 996.465 -0.502892 3.4364 0
M  V30 10460 C 995.419 0.302296 4.26931 0
M  V30 10461 C 994.745 -0.636445 5.30899 0
M  V30 10462 C 996.045 1.52697 4.99481 0
M  V30 10463 H 997.739 1.13742 2.76953 0
M  V30 10464 H 995.285 0.548389 1.33149 0
M  V30 10465 H 997.238 -0.892092 4.11849 0
M  V30 10466 H 995.962 -1.36242 2.96826 0
M  V30 10467 H 994.621 0.673226 3.60365 0
M  V30 10468 H 994.269 -1.49277 4.80339 0
M  V30 10469 H 993.969 -0.101716 5.87512 0
M  V30 10470 H 995.493 -1.02286 6.01972 0
M  V30 10471 H 996.907 1.21017 5.60382 0
M  V30 10472 H 995.304 1.9995 5.65809 0
M  V30 10473 H 996.374 2.28929 4.27457 0
M  V30 10474 N 997.718 -1.45297 0.610449 0
M  V30 10475 C 998.648 -2.33311 -0.0939698 0
M  V30 10476 C 999.629 -1.46999 -0.85588 0
M  V30 10477 O 1000.81 -1.75764 -0.825865 0
M  V30 10478 C 997.944 -3.29751 -1.09003 0
M  V30 10479 C 996.898 -4.2572 -0.441146 0
M  V30 10480 C 996.224 -5.11873 -1.54566 0
M  V30 10481 C 997.524 -5.1837 0.639489 0
M  V30 10482 H 999.218 -2.92459 0.640941 0
M  V30 10483 H 996.764 -1.40631 0.309675 0
M  V30 10484 H 998.717 -3.90195 -1.59141 0
M  V30 10485 H 997.441 -2.68768 -1.85557 0
M  V30 10486 H 996.1 -3.66579 0.0393908 0
M  V30 10487 H 995.748 -4.47256 -2.30155 0
M  V30 10488 H 995.448 -5.76886 -1.11698 0
M  V30 10489 H 996.972 -5.75185 -2.04925 0
M  V30 10490 H 998.386 -5.7287 0.22207 0
M  V30 10491 H 996.783 -5.91876 0.990089 0
M  V30 10492 H 997.853 -4.60627 1.51495 0
M  V30 10493 N 999.196 -0.349774 -1.5367 0
M  V30 10494 C 1000.44 0.237837 -2.02005 0
M  V30 10495 C 1000.8 1.477 -1.23298 0
M  V30 10496 O 1000.09 1.8901 -0.313947 0
M  V30 10497 C 1000.28 0.598311 -3.52356 0
M  V30 10498 C 1000.11 -0.604368 -4.4562 0
M  V30 10499 C 998.883 -1.1116 -4.92922 0
M  V30 10500 C 1001.08 -1.46474 -4.93001 0
M  V30 10501 N 999.063 -2.27595 -5.70152 0
M  V30 10502 C 1000.43 -2.47593 -5.68417 0
M  V30 10503 C 1002.49 -1.48947 -4.75099 0
M  V30 10504 C 1001.19 -3.51021 -6.27835 0
M  V30 10505 C 1003.22 -2.51259 -5.35372 0
M  V30 10506 C 1002.58 -3.51103 -6.1066 0
M  V30 10507 H 998.679 0.0501688 -0.780389 0
M  V30 10508 H 1001.26 -0.490748 -1.88414 0
M  V30 10509 H 999.434 1.29599 -3.6614 0
M  V30 10510 H 1001.17 1.16965 -3.87429 0
M  V30 10511 H 997.921 -0.678699 -4.68712 0
M  V30 10512 H 998.345 -2.864 -6.13436 0
M  V30 10513 H 1002.99 -0.731138 -4.1643 0
M  V30 10514 H 1000.7 -4.27745 -6.85609 0
M  V30 10515 H 1004.29 -2.54006 -5.23423 0
M  V30 10516 H 1003.17 -4.28974 -6.56469 0
M  V30 10517 N 1000.67 1.57404 -0.0785433 0
M  V30 10518 C 1001.92 1.93361 0.58786 0
M  V30 10519 C 1002.24 0.959856 1.6974 0
M  V30 10520 O 1001.51 0.0091173 1.95898 0
M  V30 10521 H 1000.09 0.713825 0.220141 0
M  V30 10522 H 1002.75 1.94411 -0.137986 0
M  V30 10523 H 1001.85 2.95346 1.00881 0
M  V30 10524 N 1002.15 -0.195058 1.56388 0
M  V30 10525 C 1003.06 -1.26219 1.97752 0
M  V30 10526 C 1004.08 -1.49801 0.885192 0
M  V30 10527 O 1005.25 -1.62415 1.19094 0
M  V30 10528 C 1002.32 -2.5865 2.3087 0
M  V30 10529 C 1001.38 -2.4314 3.5381 0
M  V30 10530 C 1000.61 -3.69255 3.85339 0
M  V30 10531 O 1000.84 -4.73425 3.18159 0
M  V30 10532 O 999.77 -3.64782 4.78767 0
M  V30 10533 H 1003.6 -0.941161 2.88749 0
M  V30 10534 H 1001.18 -0.40006 1.43944 0
M  V30 10535 H 1003.06 -3.36814 2.53247 0
M  V30 10536 H 1001.74 -2.9038 1.43042 0
M  V30 10537 H 1000.64 -1.63086 3.3668 0
M  V30 10538 H 1001.98 -2.16341 4.42105 0
M  V30 10539 N 1003.63 -1.50653 -0.462772 0
M  V30 10540 C 1004.59 -1.69561 -1.54213 0
M  V30 10541 C 1005.59 -0.566106 -1.50505 0
M  V30 10542 O 1006.78 -0.833273 -1.52978 0
M  V30 10543 C 1003.91 -1.72856 -2.93826 0
M  V30 10544 H 1005.11 -2.65867 -1.38761 0
M  V30 10545 H 1002.66 -1.40259 -0.689728 0
M  V30 10546 H 1003.4 -0.78273 -3.14712 0
M  V30 10547 H 1003.18 -2.54919 -2.97924 0
M  V30 10548 H 1004.67 -1.89411 -3.72174 0
M  V30 10549 N 1005.11 0.71652 -1.4037 0
M  V30 10550 C 1006.04 1.84345 -1.43315 0
M  V30 10551 C 1007.02 1.67537 -0.294186 0
M  V30 10552 O 1008.2 1.87582 -0.502671 0
M  V30 10553 C 1005.33 3.2229 -1.29408 0
M  V30 10554 C 1004.29 3.53769 -2.40897 0
M  V30 10555 C 1003.61 4.90847 -2.12068 0
M  V30 10556 C 1004.91 3.54862 -3.83237 0
M  V30 10557 H 1006.61 1.82138 -2.37626 0
M  V30 10558 H 1004.15 0.874873 -1.14376 0
M  V30 10559 H 1006.11 4.00819 -1.30085 0
M  V30 10560 H 1004.83 3.2507 -0.31573 0
M  V30 10561 H 1003.49 2.77579 -2.39469 0
M  V30 10562 H 1003.14 4.90229 -1.12626 0
M  V30 10563 H 1002.84 5.12875 -2.86762 0
M  V30 10564 H 1004.36 5.71711 -2.14426 0
M  V30 10565 H 1005.78 4.23432 -3.86494 0
M  V30 10566 H 1004.17 3.88416 -4.57442 0
M  V30 10567 H 1005.24 2.54266 -4.12888 0
M  V30 10568 N 1006.59 1.25851 0.948643 0
M  V30 10569 C 1007.52 1.09248 2.06367 0
M  V30 10570 C 1008.5 -0.000205168 1.701 0
M  V30 10571 O 1009.68 0.170442 1.93451 0
M  V30 10572 C 1006.81 0.716777 3.39823 0
M  V30 10573 C 1005.77 1.76036 3.90122 0
M  V30 10574 C 1005.09 1.23918 5.20143 0
M  V30 10575 C 1006.39 3.16039 4.15833 0
M  V30 10576 H 1008.09 2.02518 2.20515 0
M  V30 10577 H 1005.63 0.975093 1.05962 0
M  V30 10578 H 1007.59 0.587531 4.17284 0
M  V30 10579 H 1006.31 -0.251626 3.25629 0
M  V30 10580 H 1004.97 1.87815 3.14835 0
M  V30 10581 H 1004.62 0.260836 5.02323 0
M  V30 10582 H 1004.32 1.93673 5.54765 0
M  V30 10583 H 1005.84 1.12245 6.00194 0
M  V30 10584 H 1007.25 3.0738 4.83933 0
M  V30 10585 H 1005.65 3.83317 4.61723 0
M  V30 10586 H 1006.72 3.62652 3.21887 0
M  V30 10587 N 1008.06 -1.15214 1.07534 0
M  V30 10588 C 1009.31 -1.85388 0.794617 0
M  V30 10589 C 1009.63 -1.83331 -0.681838 0
M  V30 10590 O 1010.83 -2.49207 -1.0774 0
M  V30 10591 C 1009.29 -3.32747 1.37141 0
M  V30 10592 C 1008.9 -3.43244 2.87902 0
M  V30 10593 C 1010.64 -4.08093 1.16879 0
M  V30 10594 C 1008.55 -4.84762 3.38763 0
M  V30 10595 H 1007.48 -0.694499 0.293577 0
M  V30 10596 H 1010.13 -1.29944 1.29564 0
M  V30 10597 H 1008.51 -3.87874 0.798121 0
M  V30 10598 H 1009.68 -2.98214 3.51291 0
M  V30 10599 H 1008 -2.81345 3.06975 0
M  V30 10600 H 1010.6 -5.12535 1.52353 0
M  V30 10601 H 1010.94 -4.1616 0.107958 0
M  V30 10602 H 1011.47 -3.59241 1.70854 0
M  V30 10603 H 1008.21 -4.81879 4.4438 0
M  V30 10604 H 1007.73 -5.30366 2.80128 0
M  V30 10605 H 1009.41 -5.53624 3.34827 0
M  V30 10606 N 1009.54 -0.859717 -1.32086 0
M  V30 10607 C 1010.77 -0.479724 -2.01262 0
M  V30 10608 C 1011.19 0.924985 -1.64589 0
M  V30 10609 O 1010.54 1.60439 -0.869803 0
M  V30 10610 C 1010.59 -0.615128 -3.56228 0
M  V30 10611 O 1010.31 -1.96451 -3.91585 0
M  V30 10612 C 1011.82 -0.234804 -4.42678 0
M  V30 10613 H 1009.04 -0.188007 -0.644123 0
M  V30 10614 H 1011.58 -1.15805 -1.68551 0
M  V30 10615 H 1009.73 0.0155268 -3.87397 0
M  V30 10616 H 1010.15 -1.96491 -4.86304 0
M  V30 10617 H 1011.62 -0.380534 -5.50687 0
M  V30 10618 H 1012.1 0.825189 -4.31378 0
M  V30 10619 H 1012.71 -0.840739 -4.16907 0
M  V30 10620 N 1011.02 1.44971 -0.618145 0
M  V30 10621 C 1012.43 1.85611 -0.201334 0
M  V30 10622 C 1012.78 1.51698 1.24427 0
M  V30 10623 O 1011.91 0.94875 1.94493 0
M  V30 10624 C 1012.5 3.36897 -0.358619 0
M  V30 10625 C 1011.06 3.764 0.00358196 0
M  V30 10626 C 1010.21 2.68881 -0.678118 0
M  V30 10627 H 1013.16 1.35622 -0.824152 0
M  V30 10628 H 1013.18 3.78326 0.406176 0
M  V30 10629 H 1012.69 3.61548 -1.41084 0
M  V30 10630 H 1010.79 3.57365 1.05457 0
M  V30 10631 H 1010.91 4.77449 -0.397427 0
M  V30 10632 H 1009.27 2.54442 -0.114699 0
M  V30 10633 H 1010.05 2.96367 -1.73268 0
M  V30 10634 N 1012.5 0.357919 1.53482 0
M  V30 10635 C 1013.74 -0.23451 2.0144 0
M  V30 10636 C 1014.08 -1.49044 1.24497 0
M  V30 10637 O 1013.35 -1.91566 0.336535 0
M  V30 10638 C 1013.64 -0.534193 3.56116 0
M  V30 10639 C 1013.49 0.734834 4.43757 0
M  V30 10640 C 1014.81 -1.33793 4.1927 0
M  V30 10641 H 1011.93 -0.0837595 0.732225 0
M  V30 10642 H 1014.57 0.481297 1.83803 0
M  V30 10643 H 1012.72 -1.144 3.71275 0
M  V30 10644 H 1014.39 1.37251 4.40409 0
M  V30 10645 H 1012.63 1.35678 4.12036 0
M  V30 10646 H 1013.3 0.48021 5.49907 0
M  V30 10647 H 1015.78 -0.822158 4.07897 0
M  V30 10648 H 1014.66 -1.51636 5.27539 0
M  V30 10649 H 1014.92 -2.34423 3.74831 0
M  V30 10650 N 1013.98 -1.5736 0.0868897 0
M  V30 10651 C 1014.91 -2.16596 -0.872252 0
M  V30 10652 C 1015.89 -1.09706 -1.29995 0
M  V30 10653 O 1017.07 -1.37808 -1.36831 0
M  V30 10654 C 1014.2 -2.73972 -2.1344 0
M  V30 10655 C 1013.16 -3.86163 -1.8456 0
M  V30 10656 C 1012.48 -4.30206 -3.17533 0
M  V30 10657 C 1013.78 -5.0973 -1.13899 0
M  V30 10658 H 1015.48 -2.96995 -0.378738 0
M  V30 10659 H 1013.02 -1.42861 -0.18073 0
M  V30 10660 H 1014.98 -3.14062 -2.80968 0
M  V30 10661 H 1013.7 -1.90817 -2.6506 0
M  V30 10662 H 1012.36 -3.466 -1.19432 0
M  V30 10663 H 1012.01 -3.43951 -3.67024 0
M  V30 10664 H 1011.71 -5.05841 -2.98996 0
M  V30 10665 H 1013.23 -4.72922 -3.86234 0
M  V30 10666 H 1014.64 -5.4704 -1.71523 0
M  V30 10667 H 1013.04 -5.90741 -1.05569 0
M  V30 10668 H 1014.11 -4.8475 -0.120432 0
M  V30 10669 N 1015.45 0.186762 -1.56489 0
M  V30 10670 C 1016.39 1.25565 -1.91745 0
M  V30 10671 C 1017.4 1.4128 -0.80894 0
M  V30 10672 O 1018.59 1.41558 -1.08737 0
M  V30 10673 C 1015.69 2.62662 -2.14154 0
M  V30 10674 C 1014.86 2.68448 -3.45333 0
M  V30 10675 C 1013.92 3.86798 -3.56754 0
M  V30 10676 O 1012.95 3.73514 -4.29507 0
M  V30 10677 N 1014.15 5.02607 -2.90459 0
M  V30 10678 H 1016.91 0.956351 -2.84032 0
M  V30 10679 H 1014.47 0.376631 -1.57458 0
M  V30 10680 H 1016.47 3.40277 -2.19075 0
M  V30 10681 H 1015.04 2.85046 -1.28326 0
M  V30 10682 H 1014.26 1.77044 -3.52206 0
M  V30 10683 H 1015.54 2.69311 -4.31682 0
M  V30 10684 H 1014.94 5.163 -2.31194 0
M  V30 10685 H 1013.5 5.78139 -3.00996 0
M  V30 10686 N 1016.93 1.50896 0.454776 0
M  V30 10687 C 1017.9 1.70377 1.53312 0
M  V30 10688 C 1018.9 0.57408 1.50203 0
M  V30 10689 O 1020.09 0.841374 1.52534 0
M  V30 10690 C 1017.22 1.74411 2.92905 0
M  V30 10691 H 1018.41 2.66599 1.37349 0
M  V30 10692 H 1015.96 1.40622 0.68228 0
M  V30 10693 H 1016.7 0.799408 3.14293 0
M  V30 10694 H 1016.48 2.56496 2.96568 0
M  V30 10695 H 1017.97 1.91382 3.71164 0
M  V30 10696 N 1018.41 -0.709066 1.40748 0
M  V30 10697 C 1019.66 -1.46611 1.39103 0
M  V30 10698 C 1019.98 -1.95 -0.00365366 0
M  V30 10699 O 1019.25 -1.70791 -0.959541 0
M  V30 10700 H 1017.83 -0.543954 0.511979 0
M  V30 10701 H 1020.49 -0.840141 1.75863 0
M  V30 10702 H 1019.59 -2.33581 2.06994 0
M  V30 10703 N 1019.89 -1.26353 -0.941956 0
M  V30 10704 C 1020.84 -1.07842 -2.04056 0
M  V30 10705 C 1021.81 0.0163064 -1.66092 0
M  V30 10706 O 1022.99 -0.143313 -1.90261 0
M  V30 10707 C 1020.13 -0.716636 -3.37577 0
M  V30 10708 C 1019.24 -1.88754 -3.88582 0
M  V30 10709 C 1018.38 -1.46893 -5.10486 0
M  V30 10710 C 1017.42 -2.60819 -5.53751 0
M  V30 10711 N 1016.56 -2.19646 -6.66858 0
M  V30 10712 H 1021.4 -2.01856 -2.19221 0
M  V30 10713 H 1018.93 -1.00504 -1.07412 0
M  V30 10714 H 1020.89 -0.487768 -4.14339 0
M  V30 10715 H 1019.52 0.18653 -3.22261 0
M  V30 10716 H 1018.57 -2.22936 -3.08227 0
M  V30 10717 H 1019.88 -2.74264 -4.1663 0
M  V30 10718 H 1019.04 -1.20047 -5.94705 0
M  V30 10719 H 1017.78 -0.584721 -4.84182 0
M  V30 10720 H 1016.78 -2.88396 -4.6809 0
M  V30 10721 H 1018.01 -3.49838 -5.82057 0
M  V30 10722 H 1015.95 -1.33657 -6.4224 0
M  V30 10723 H 1015.87 -2.987 -6.94489 0
M  V30 10724 H 1017.14 -1.96009 -7.54454 0
M  V30 10725 N 1021.37 1.14642 -1.08144 0
M  V30 10726 C 1022.33 2.17834 -0.712799 0
M  V30 10727 C 1023.33 1.58828 0.251041 0
M  V30 10728 O 1024.52 1.74173 0.0309381 0
M  V30 10729 C 1021.65 3.4086 -0.0519477 0
M  V30 10730 H 1022.85 2.51961 -1.62653 0
M  V30 10731 H 1020.4 1.29243 -0.878971 0
M  V30 10732 H 1021.13 3.12311 0.873636 0
M  V30 10733 H 1020.92 3.84952 -0.745286 0
M  V30 10734 H 1022.41 4.17163 0.191031 0
M  V30 10735 N 1022.85 0.866709 1.31628 0
M  V30 10736 C 1023.76 0.323408 2.3236 0
M  V30 10737 C 1024.77 -0.564995 1.64572 0
M  V30 10738 O 1025.95 -0.462489 1.96018 0
M  V30 10739 C 1023.01 -0.469045 3.43513 0
M  V30 10740 C 1022.07 0.446928 4.26967 0
M  V30 10741 C 1021.31 -0.307799 5.32812 0
M  V30 10742 O 1021.53 -1.5363 5.49321 0
M  V30 10743 O 1020.46 0.332653 6.0098 0
M  V30 10744 H 1024.29 1.15827 2.80745 0
M  V30 10745 H 1021.87 0.629987 1.35468 0
M  V30 10746 H 1023.76 -0.918405 4.1127 0
M  V30 10747 H 1022.43 -1.28051 2.97296 0
M  V30 10748 H 1021.34 0.944719 3.61975 0
M  V30 10749 H 1022.67 1.2239 4.76741 0
M  V30 10750 N 1024.32 -1.44642 0.625825 0
M  V30 10751 C 1025.57 -2.02393 0.128391 0
M  V30 10752 C 1025.9 -1.49075 -1.2446 0
M  V30 10753 O 1025.18 -0.672684 -1.82497 0
M  V30 10754 C 1025.46 -3.59934 0.109279 0
M  V30 10755 C 1025.31 -4.23546 1.51423 0
M  V30 10756 C 1026.63 -4.36406 -0.568985 0
M  V30 10757 H 1023.75 -0.735427 0.0481299 0
M  V30 10758 H 1026.39 -1.72277 0.801286 0
M  V30 10759 H 1024.54 -3.85722 -0.463726 0
M  V30 10760 H 1026.22 -4.08882 2.13572 0
M  V30 10761 H 1024.46 -3.81245 2.06966 0
M  V30 10762 H 1025.13 -5.32535 1.45294 0
M  V30 10763 H 1027.61 -4.1602 -0.0817516 0
M  V30 10764 H 1026.48 -5.46122 -0.551527 0
M  V30 10765 H 1026.74 -4.1062 -1.6384 0
M  V30 10766 N 1025.8 -0.366053 -1.5329 0
M  V30 10767 C 1027.03 0.224236 -2.05681 0
M  V30 10768 C 1027.44 1.42412 -1.23952 0
M  V30 10769 O 1026.8 1.80334 -0.280309 0
M  V30 10770 C 1026.85 0.617266 -3.56191 0
M  V30 10771 O 1026.57 -0.534931 -4.34822 0
M  V30 10772 C 1028.07 1.26589 -4.24841 0
M  V30 10773 H 1025.29 0.0392928 -0.669849 0
M  V30 10774 H 1027.84 -0.52456 -1.97658 0
M  V30 10775 H 1025.99 1.31598 -3.64364 0
M  V30 10776 H 1026.41 -0.217123 -5.2405 0
M  V30 10777 H 1027.88 1.49146 -5.31469 0
M  V30 10778 H 1028.36 2.22633 -3.78591 0
M  V30 10779 H 1028.96 0.6086 -4.20923 0
M  V30 10780 N 1027.28 1.57312 -0.0952337 0
M  V30 10781 C 1028.53 1.93974 0.567319 0
M  V30 10782 C 1028.85 0.977805 1.68713 0
M  V30 10783 O 1028.12 0.0298944 1.95877 0
M  V30 10784 H 1026.7 0.71612 0.212558 0
M  V30 10785 H 1029.36 1.94254 -0.158598 0
M  V30 10786 H 1028.46 2.964 0.977423 0
M  V30 10787 N 1028.76 -0.17846 1.56586 0
M  V30 10788 C 1029.99 -0.910674 1.85446 0
M  V30 10789 C 1030.4 -1.76647 0.677675 0
M  V30 10790 O 1029.74 -1.80086 -0.362584 0
M  V30 10791 C 1029.8 -1.84363 3.08627 0
M  V30 10792 C 1029.46 -1.16814 4.41818 0
M  V30 10793 C 1030.46 -0.53703 5.17119 0
M  V30 10794 C 1028.15 -1.16703 4.88555 0
M  V30 10795 C 1030.14 0.0861778 6.37342 0
M  V30 10796 C 1027.83 -0.539992 6.0871 0
M  V30 10797 C 1028.83 0.0855135 6.82946 0
M  V30 10798 O 1028.51 0.70268 8.00823 0
M  V30 10799 H 1028.25 -0.270377 0.619574 0
M  V30 10800 H 1030.8 -0.185591 2.0456 0
M  V30 10801 H 1029.03 -2.60884 2.85441 0
M  V30 10802 H 1030.72 -2.44506 3.23993 0
M  V30 10803 H 1031.48 -0.529915 4.82096 0
M  V30 10804 H 1027.36 -1.64329 4.30717 0
M  V30 10805 H 1030.91 0.575011 6.95226 0
M  V30 10806 H 1026.8 -0.544666 6.43198 0
M  V30 10807 H 1027.57 0.601224 8.16289 0
M  V30 10808 N 1030.24 -1.51135 -0.446768 0
M  V30 10809 C 1031.48 -1.63336 -1.19698 0
M  V30 10810 C 1031.81 -0.345099 -1.91414 0
M  V30 10811 O 1031.07 0.670365 -1.8386 0
M  V30 10812 C 1031.36 -2.78034 -2.2457 0
M  V30 10813 C 1031.03 -4.17652 -1.69934 0
M  V30 10814 C 1029.69 -4.55636 -1.54756 0
M  V30 10815 C 1032.04 -5.04813 -1.29665 0
M  V30 10816 C 1029.37 -5.78496 -0.977689 0
M  V30 10817 C 1031.72 -6.28244 -0.741112 0
M  V30 10818 C 1030.39 -6.65009 -0.576156 0
M  V30 10819 H 1029.66 -0.597689 -0.438006 0
M  V30 10820 H 1032.31 -1.85141 -0.48939 0
M  V30 10821 H 1030.61 -2.50413 -3.01331 0
M  V30 10822 H 1032.31 -2.84675 -2.8242 0
M  V30 10823 H 1028.9 -3.87699 -1.82722 0
M  V30 10824 H 1033.08 -4.76081 -1.40216 0
M  V30 10825 H 1028.34 -6.05636 -0.837563 0
M  V30 10826 H 1032.51 -6.95129 -0.42053 0
M  V30 10827 H 1030.14 -7.60085 -0.132443 0
M  V30 10828 N 1031.71 0.701592 -1.41122 0
M  V30 10829 C 1033.12 1.28129 -1.35793 0
M  V30 10830 C 1033.48 1.96163 -0.0381185 0
M  V30 10831 O 1032.6 1.98416 0.863723 0
M  V30 10832 C 1033.2 2.33005 -2.45955 0
M  V30 10833 C 1031.75 2.86566 -2.44043 0
M  V30 10834 C 1030.9 1.60526 -2.26112 0
M  V30 10835 H 1033.85 0.496756 -1.50725 0
M  V30 10836 H 1033.87 3.14163 -2.14667 0
M  V30 10837 H 1033.39 1.8346 -3.42 0
M  V30 10838 H 1031.49 3.40304 -1.51737 0
M  V30 10839 H 1031.6 3.37406 -3.40138 0
M  V30 10840 H 1029.96 1.86113 -1.7388 0
M  V30 10841 H 1030.75 1.12985 -3.24175 0
M  V30 10842 N 1033.19 1.2685 0.935242 0
M  V30 10843 C 1034.12 1.1143 2.05196 0
M  V30 10844 C 1035.1 0.0178362 1.70091 0
M  V30 10845 O 1036.29 0.190951 1.93259 0
M  V30 10846 C 1033.42 0.752779 3.39044 0
M  V30 10847 C 1032.37 1.80164 3.88233 0
M  V30 10848 C 1031.7 1.29428 5.18799 0
M  V30 10849 C 1033 3.20431 4.12457 0
M  V30 10850 H 1034.69 2.04845 2.18355 0
M  V30 10851 H 1032.24 0.986276 1.04922 0
M  V30 10852 H 1034.19 0.631757 4.16637 0
M  V30 10853 H 1032.91 -0.217075 3.25878 0
M  V30 10854 H 1031.57 1.91144 3.12825 0
M  V30 10855 H 1031.22 0.3141 5.02018 0
M  V30 10856 H 1030.92 1.99546 5.5268 0
M  V30 10857 H 1032.45 1.18605 5.9897 0
M  V30 10858 H 1033.86 3.12495 4.80645 0
M  V30 10859 H 1032.26 3.88193 4.57631 0
M  V30 10860 H 1033.33 3.66046 3.18023 0
M  V30 10861 N 1034.67 -1.14067 1.0875 0
M  V30 10862 C 1035.92 -1.84819 0.817698 0
M  V30 10863 C 1036.24 -1.83545 -0.658488 0
M  V30 10864 O 1035.51 -1.28633 -1.47751 0
M  V30 10865 H 1034.09 -0.68433 0.299502 0
M  V30 10866 H 1036.75 -1.38208 1.37421 0
M  V30 10867 H 1035.85 -2.89541 1.16501 0
M  V30 10868 N 1036.15 -0.873678 -1.31166 0
M  V30 10869 C 1037.38 -0.501043 -2.00742 0
M  V30 10870 C 1037.79 0.907477 -1.65561 0
M  V30 10871 O 1037.15 1.59507 -0.886771 0
M  V30 10872 C 1037.2 -0.652877 -3.55556 0
M  V30 10873 O 1036.92 -2.00593 -3.89479 0
M  V30 10874 C 1038.42 -0.281742 -4.42404 0
M  V30 10875 H 1035.64 -0.194829 -0.642092 0
M  V30 10876 H 1038.19 -1.17587 -1.67313 0
M  V30 10877 H 1036.34 -0.0255627 -3.87392 0
M  V30 10878 H 1036.75 -2.01638 -4.84193 0
M  V30 10879 H 1038.23 -0.43892 -5.50252 0
M  V30 10880 H 1038.71 0.779389 -4.32229 0
M  V30 10881 H 1039.31 -0.88491 -4.15992 0
M  V30 10882 N 1037.63 1.44308 -0.633487 0
M  V30 10883 C 1038.87 2.02863 -0.14765 0
M  V30 10884 C 1039.23 1.48956 1.21778 0
M  V30 10885 O 1038.52 0.664997 1.7969 0
M  V30 10886 C 1038.71 3.57316 -0.0773886 0
M  V30 10887 C 1038.54 4.26208 -1.43446 0
M  V30 10888 C 1037.31 4.63087 -2.02184 0
M  V30 10889 C 1039.51 4.56501 -2.36879 0
M  V30 10890 N 1037.49 5.16957 -3.31102 0
M  V30 10891 C 1038.86 5.11479 -3.50413 0
M  V30 10892 C 1040.92 4.38454 -2.35929 0
M  V30 10893 C 1039.62 5.50311 -4.63196 0
M  V30 10894 C 1041.65 4.78336 -3.47777 0
M  V30 10895 C 1041.01 5.3343 -4.60035 0
M  V30 10896 H 1037.11 0.775835 -0.0980038 0
M  V30 10897 H 1039.69 1.75767 -0.837495 0
M  V30 10898 H 1037.86 3.84019 0.581743 0
M  V30 10899 H 1039.6 4.02541 0.417494 0
M  V30 10900 H 1036.35 4.47482 -1.55103 0
M  V30 10901 H 1036.78 5.48366 -3.97019 0
M  V30 10902 H 1041.42 3.9515 -1.50387 0
M  V30 10903 H 1039.14 5.92568 -5.49444 0
M  V30 10904 H 1042.72 4.66084 -3.4822 0
M  V30 10905 H 1041.6 5.63719 -5.45151 0
M  V30 10906 N 1039.1 0.374177 1.53094 0
M  V30 10907 C 1040.33 -0.213015 2.05499 0
M  V30 10908 C 1040.74 -1.42303 1.24686 0
M  V30 10909 O 1040.09 -1.81512 0.282702 0
M  V30 10910 C 1040.15 -0.662308 3.53346 0
M  V30 10911 C 1039.81 0.432183 4.54952 0
M  V30 10912 C 1040.81 1.2848 5.03775 0
M  V30 10913 C 1038.49 0.594887 4.98765 0
M  V30 10914 C 1040.49 2.28538 5.9502 0
M  V30 10915 C 1038.17 1.59882 5.89814 0
M  V30 10916 C 1039.17 2.4425 6.37833 0
M  V30 10917 O 1038.86 3.4293 7.27086 0
M  V30 10918 H 1038.59 -0.0393809 0.674852 0
M  V30 10919 H 1041.15 0.533423 1.98353 0
M  V30 10920 H 1039.38 -1.46049 3.5806 0
M  V30 10921 H 1041.07 -1.17347 3.88567 0
M  V30 10922 H 1041.83 1.17033 4.70668 0
M  V30 10923 H 1037.71 -0.0520401 4.60971 0
M  V30 10924 H 1041.25 2.94426 6.32423 0
M  V30 10925 H 1037.15 1.71373 6.22335 0
M  V30 10926 H 1037.92 3.3876 7.45107 0
M  V30 10927 N 1040.58 -1.57259 0.103575 0
M  V30 10928 C 1041.86 -1.86143 -0.600852 0
M  V30 10929 C 1042.24 -1.00198 -1.85805 0
M  V30 10930 O 1041.59 -0.0766791 -2.28371 0
M  V30 10931 C 1041.8 -3.36978 -0.908108 0
M  V30 10932 C 1043.15 -4.05228 -1.26788 0
M  V30 10933 O 1044.17 -3.41908 -0.998859 0
M  V30 10934 O 1043.03 -5.16971 -1.7721 0
M  V30 10935 H 1040.12 -0.770064 -0.301547 0
M  V30 10936 H 1042.67 -1.69147 0.136914 0
M  V30 10937 H 1041.44 -3.91296 -0.0165615 0
M  V30 10938 H 1041.06 -3.5935 -1.70156 0
M  V30 10939 N 1042.06 0.170153 -1.56679 0
M  V30 10940 C 1042.99 1.21285 -1.9953 0
M  V30 10941 C 1043.97 1.46104 -0.871071 0
M  V30 10942 O 1045.16 1.57419 -1.13724 0
M  V30 10943 C 1042.29 2.5515 -2.35618 0
M  V30 10944 C 1041.24 2.44898 -3.51011 0
M  V30 10945 C 1040.57 3.83263 -3.72845 0
M  V30 10946 C 1041.87 1.95271 -4.84424 0
M  V30 10947 H 1043.56 0.856646 -2.86883 0
M  V30 10948 H 1041.11 0.410634 -1.38021 0
M  V30 10949 H 1043.06 3.28299 -2.64193 0
M  V30 10950 H 1041.78 2.92561 -1.45175 0
M  V30 10951 H 1040.44 1.74203 -3.22566 0
M  V30 10952 H 1040.09 4.18069 -2.79691 0
M  V30 10953 H 1039.79 3.77272 -4.50488 0
M  V30 10954 H 1041.31 4.57996 -4.03822 0
M  V30 10955 H 1042.73 2.58195 -5.11867 0
M  V30 10956 H 1041.13 2.00225 -5.65712 0
M  V30 10957 H 1042.2 0.90709 -4.7634 0
M  V30 10958 N 1043.54 1.5137 0.438746 0
M  V30 10959 C 1044.47 1.68774 1.55074 0
M  V30 10960 C 1045.48 0.568436 1.52554 0
M  V30 10961 O 1046.67 0.842707 1.57355 0
M  V30 10962 C 1043.77 1.68592 2.9399 0
M  V30 10963 C 1042.95 2.97084 3.2103 0
M  V30 10964 C 1042 2.89108 4.39663 0
M  V30 10965 O 1041.03 3.63052 4.38385 0
M  V30 10966 N 1042.23 2.04863 5.4315 0
M  V30 10967 H 1045 2.647 1.40549 0
M  V30 10968 H 1042.56 1.49238 0.627663 0
M  V30 10969 H 1044.55 1.60826 3.71372 0
M  V30 10970 H 1043.12 0.802657 3.02119 0
M  V30 10971 H 1042.34 3.18729 2.3196 0
M  V30 10972 H 1043.63 3.82143 3.35923 0
M  V30 10973 H 1043.03 1.4416 5.47023 0
M  V30 10974 H 1041.58 2.02977 6.1939 0
M  V30 10975 N 1045.02 -0.694098 1.41492 0
M  V30 10976 C 1046.24 -1.48286 1.44288 0
M  V30 10977 C 1046.66 -1.88737 0.0485783 0
M  V30 10978 O 1046.02 -1.56881 -0.932449 0
M  V30 10979 C 1046.07 -2.74446 2.3529 0
M  V30 10980 O 1045.79 -2.35698 3.69294 0
M  V30 10981 C 1047.29 -3.68175 2.46905 0
M  V30 10982 H 1044.51 -0.45692 0.491391 0
M  V30 10983 H 1047.05 -0.854477 1.85793 0
M  V30 10984 H 1045.21 -3.33518 1.9709 0
M  V30 10985 H 1045.62 -3.17029 4.17843 0
M  V30 10986 H 1047.1 -4.53476 3.14743 0
M  V30 10987 H 1047.57 -4.12763 1.50078 0
M  V30 10988 H 1048.18 -3.15006 2.85747 0
M  V30 10989 N 1046.49 -1.27344 -0.928501 0
M  V30 10990 C 1047.74 -1.13804 -1.67859 0
M  V30 10991 C 1048.07 0.31555 -1.91619 0
M  V30 10992 O 1047.35 1.23087 -1.50599 0
M  V30 10993 C 1047.63 -1.9213 -3.04562 0
M  V30 10994 C 1047.48 -3.45468 -2.88048 0
M  V30 10995 C 1048.8 -1.72513 -4.04879 0
M  V30 10996 H 1045.92 -0.414796 -0.609191 0
M  V30 10997 H 1048.56 -1.5649 -1.07753 0
M  V30 10998 H 1046.71 -1.55853 -3.55868 0
M  V30 10999 H 1048.39 -3.9157 -2.43865 0
M  V30 11000 H 1046.63 -3.71849 -2.23407 0
M  V30 11001 H 1047.3 -3.95515 -3.85061 0
M  V30 11002 H 1049.78 -2.04143 -3.62581 0
M  V30 11003 H 1048.65 -2.29713 -4.98521 0
M  V30 11004 H 1048.91 -0.672856 -4.3695 0
M  V30 11005 N 1047.97 1.13488 -1.09353 0
M  V30 11006 C 1049.38 1.66299 -0.848609 0
M  V30 11007 C 1049.73 1.86044 0.623051 0
M  V30 11008 O 1048.86 1.57871 1.48005 0
M  V30 11009 C 1049.45 3.02087 -1.53391 0
M  V30 11010 C 1048.01 3.51893 -1.33598 0
M  V30 11011 C 1047.16 2.27154 -1.59048 0
M  V30 11012 H 1050.11 0.974208 -1.25279 0
M  V30 11013 H 1050.13 3.68018 -0.966587 0
M  V30 11014 H 1049.64 2.87684 -2.60498 0
M  V30 11015 H 1047.75 3.715 -0.286045 0
M  V30 11016 H 1047.86 4.32059 -2.0703 0
M  V30 11017 H 1046.22 2.33708 -1.01256 0
M  V30 11018 H 1047.01 2.15317 -2.67383 0
M  V30 11019 N 1049.45 0.880621 1.30701 0
M  V30 11020 C 1050.7 0.497611 1.966 0
M  V30 11021 C 1051.03 -0.949901 1.69383 0
M  V30 11022 O 1050.31 -1.67054 0.996152 0
M  V30 11023 C 1050.59 0.767919 3.51817 0
M  V30 11024 C 1050.44 2.26574 3.88567 0
M  V30 11025 C 1051.76 0.241502 4.39437 0
M  V30 11026 H 1048.88 0.182267 0.714106 0
M  V30 11027 H 1051.52 1.10382 1.54648 0
M  V30 11028 H 1049.67 0.251967 3.87682 0
M  V30 11029 H 1051.34 2.84977 3.62748 0
M  V30 11030 H 1049.59 2.73411 3.36792 0
M  V30 11031 H 1050.26 2.40549 4.9683 0
M  V30 11032 H 1052.73 0.683051 4.10455 0
M  V30 11033 H 1051.61 0.459997 5.46969 0
M  V30 11034 H 1051.87 -0.857068 4.33713 0
M  V30 11035 N 1050.93 -1.4397 0.641131 0
M  V30 11036 C 1051.84 -2.34526 -0.058742 0
M  V30 11037 C 1052.86 -1.53194 -0.825088 0
M  V30 11038 O 1054.03 -1.85888 -0.775081 0
M  V30 11039 C 1051.1 -3.31313 -1.02139 0
M  V30 11040 C 1050.16 -4.28552 -0.253319 0
M  V30 11041 C 1049.39 -5.20715 -1.17012 0
M  V30 11042 O 1049.61 -5.17028 -2.40911 0
M  V30 11043 O 1048.55 -5.9839 -0.649039 0
M  V30 11044 H 1052.37 -2.95843 0.686329 0
M  V30 11045 H 1049.96 -1.43909 0.401316 0
M  V30 11046 H 1051.84 -3.90862 -1.57496 0
M  V30 11047 H 1050.52 -2.72516 -1.7469 0
M  V30 11048 H 1049.42 -3.72519 0.343531 0
M  V30 11049 H 1050.76 -4.90297 0.432372 0
M  V30 11050 N 1052.41 -0.382291 -1.52893 0
M  V30 11051 C 1053.37 0.44408 -2.24857 0
M  V30 11052 C 1054.37 0.996004 -1.26239 0
M  V30 11053 O 1055.56 0.879114 -1.5039 0
M  V30 11054 C 1052.69 1.62234 -2.99822 0
M  V30 11055 H 1053.89 -0.185862 -2.99324 0
M  V30 11056 H 1051.44 -0.134275 -1.55722 0
M  V30 11057 H 1052.17 2.28991 -2.29638 0
M  V30 11058 H 1051.96 1.23336 -3.72197 0
M  V30 11059 H 1053.45 2.20756 -3.54481 0
M  V30 11060 N 1053.89 1.57202 -0.111913 0
M  V30 11061 C 1054.82 2.17957 0.837683 0
M  V30 11062 C 1055.8 1.1176 1.28233 0
M  V30 11063 O 1056.98 1.39967 1.34621 0
M  V30 11064 C 1054.11 2.77333 2.09054 0
M  V30 11065 C 1053.07 3.8905 1.78393 0
M  V30 11066 C 1052.39 4.35203 3.10649 0
M  V30 11067 C 1053.69 5.11477 1.05775 0
M  V30 11068 H 1055.39 2.9756 0.331441 0
M  V30 11069 H 1052.93 1.43131 0.157979 0
M  V30 11070 H 1054.88 3.18492 2.75936 0
M  V30 11071 H 1053.61 1.95009 2.6199 0
M  V30 11072 H 1052.27 3.48456 1.13903 0
M  V30 11073 H 1051.92 3.49747 3.61506 0
M  V30 11074 H 1051.62 5.10534 2.9091 0
M  V30 11075 H 1053.14 4.79007 3.78661 0
M  V30 11076 H 1054.55 5.497 1.62798 0
M  V30 11077 H 1052.95 5.92346 0.961573 0
M  V30 11078 H 1054.02 4.84881 0.043297 0
M  V30 11079 N 1055.36 -0.161842 1.56767 0
M  V30 11080 C 1056.61 -0.875192 1.82167 0
M  V30 11081 C 1056.93 -1.82367 0.690444 0
M  V30 11082 O 1056.2 -1.93756 -0.289023 0
M  V30 11083 H 1054.78 -0.326178 0.672024 0
M  V30 11084 H 1057.44 -0.159392 1.94247 0
M  V30 11085 H 1056.54 -1.44639 2.76561 0
M  V30 11086 N 1056.84 -1.516 -0.430713 0
M  V30 11087 C 1058.07 -1.687 -1.20644 0
M  V30 11088 C 1058.49 -0.386555 -1.84085 0
M  V30 11089 O 1057.85 0.653952 -1.69095 0
M  V30 11090 C 1057.9 -2.80887 -2.2613 0
M  V30 11091 O 1057 -2.44952 -3.31772 0
M  V30 11092 H 1056.34 -0.562289 -0.353167 0
M  V30 11093 H 1058.87 -1.98198 -0.507807 0
M  V30 11094 H 1058.88 -3.05167 -2.70809 0
M  V30 11095 H 1057.56 -3.75249 -1.79334 0
M  V30 11096 H 1056.13 -2.31267 -2.92523 0
M  V30 11097 N 1058.32 0.686584 -1.41858 0
M  V30 11098 C 1059.25 1.81264 -1.47193 0
M  V30 11099 C 1060.23 1.66875 -0.329657 0
M  V30 11100 O 1061.42 1.86473 -0.542347 0
M  V30 11101 C 1058.55 3.19472 -1.36216 0
M  V30 11102 C 1057.5 3.4858 -2.48347 0
M  V30 11103 C 1056.83 4.86239 -2.22432 0
M  V30 11104 C 1058.13 3.46653 -3.90678 0
M  V30 11105 H 1059.82 1.77057 -2.41436 0
M  V30 11106 H 1057.37 0.850415 -1.16206 0
M  V30 11107 H 1059.32 3.97969 -1.38558 0
M  V30 11108 H 1058.04 3.24327 -0.384611 0
M  V30 11109 H 1056.7 2.72437 -2.45303 0
M  V30 11110 H 1056.35 4.8773 -1.22999 0
M  V30 11111 H 1056.05 5.06677 -2.97577 0
M  V30 11112 H 1057.57 5.67034 -2.26505 0
M  V30 11113 H 1058.99 4.15139 -3.95389 0
M  V30 11114 H 1057.38 3.78625 -4.65578 0
M  V30 11115 H 1058.45 2.45451 -4.18189 0
M  V30 11116 N 1059.8 1.27835 0.921735 0
M  V30 11117 C 1061.21 1.13151 1.48505 0
M  V30 11118 C 1061.56 -0.281373 1.94172 0
M  V30 11119 O 1060.68 -1.17487 1.8173 0
M  V30 11120 C 1061.28 2.04792 2.69899 0
M  V30 11121 C 1059.84 1.94196 3.22436 0
M  V30 11122 C 1058.99 1.96999 1.95158 0
M  V30 11123 H 1061.94 1.40641 0.735241 0
M  V30 11124 H 1061.96 1.60724 3.44889 0
M  V30 11125 H 1061.47 3.07615 2.36631 0
M  V30 11126 H 1059.57 0.943805 3.60448 0
M  V30 11127 H 1059.68 2.80744 3.88226 0
M  V30 11128 H 1058.05 1.41301 2.11911 0
M  V30 11129 H 1058.83 3.01487 1.64196 0
M  V30 11130 N 1061.28 -1.12907 1.09954 0
M  V30 11131 C 1062.69 -1.65847 0.857417 0
M  V30 11132 C 1063.04 -1.86372 -0.613176 0
M  V30 11133 O 1062.16 -1.58654 -1.47166 0
M  V30 11134 C 1062.76 -3.01269 1.54991 0
M  V30 11135 C 1061.32 -3.51179 1.35462 0
M  V30 11136 C 1060.46 -2.26307 1.60251 0
M  V30 11137 H 1063.41 -0.96755 1.25794 0
M  V30 11138 H 1063.44 -3.675 0.986091 0
M  V30 11139 H 1062.95 -2.86299 2.6202 0
M  V30 11140 H 1061.05 -3.71343 0.305742 0
M  V30 11141 H 1061.16 -4.30955 2.09318 0
M  V30 11142 H 1059.53 -2.33167 1.02494 0
M  V30 11143 H 1060.31 -2.13896 2.68521 0
M  V30 11144 N 1062.75 -0.88754 -1.30232 0
M  V30 11145 C 1064.16 -0.55745 -1.78184 0
M  V30 11146 C 1064.52 0.926474 -1.72948 0
M  V30 11147 O 1063.64 1.72403 -1.3079 0
M  V30 11148 C 1064.24 -1.00512 -3.23547 0
M  V30 11149 C 1062.79 -0.726402 -3.69324 0
M  V30 11150 C 1061.94 -1.18666 -2.50627 0
M  V30 11151 H 1064.89 -1.07151 -1.17066 0
M  V30 11152 H 1064.91 -0.335185 -3.79021 0
M  V30 11153 H 1064.43 -2.08517 -3.27326 0
M  V30 11154 H 1062.53 0.341548 -3.71031 0
M  V30 11155 H 1062.64 -1.31575 -4.60679 0
M  V30 11156 H 1061 -0.605936 -2.47387 0
M  V30 11157 H 1061.79 -2.2745 -2.57141 0
M  V30 11158 N 1064.23 1.43628 -0.648757 0
M  V30 11159 C 1065.64 1.85142 -0.24066 0
M  V30 11160 C 1065.99 1.54304 1.21181 0
M  V30 11161 O 1065.12 0.989792 1.92437 0
M  V30 11162 C 1065.71 3.3606 -0.429999 0
M  V30 11163 C 1064.27 3.76323 -0.0762588 0
M  V30 11164 C 1063.42 2.67382 -0.734999 0
M  V30 11165 H 1066.37 1.33844 -0.852734 0
M  V30 11166 H 1066.39 3.79102 0.325836 0
M  V30 11167 H 1065.9 3.58474 -1.48721 0
M  V30 11168 H 1064.01 3.59521 0.978529 0
M  V30 11169 H 1064.12 4.76498 -0.498612 0
M  V30 11170 H 1062.48 2.54141 -0.168644 0
M  V30 11171 H 1063.27 2.92625 -1.79515 0
M  V30 11172 N 1065.71 0.390394 1.52688 0
M  V30 11173 C 1066.67 -0.432149 2.25089 0
M  V30 11174 C 1067.67 -0.989296 1.26766 0
M  V30 11175 O 1068.86 -0.871126 1.50854 0
M  V30 11176 C 1066 -1.60642 3.00678 0
M  V30 11177 H 1067.19 0.201734 2.99221 0
M  V30 11178 H 1064.74 0.142531 1.55649 0
M  V30 11179 H 1065.48 -2.2777 2.3085 0
M  V30 11180 H 1065.26 -1.21361 3.72846 0
M  V30 11181 H 1066.75 -2.18873 3.55647 0
M  V30 11182 N 1067.19 -1.57141 0.120249 0
M  V30 11183 C 1068.15 -2.14213 -0.815185 0
M  V30 11184 C 1069.15 -1.07731 -1.19376 0
M  V30 11185 O 1070.34 -1.33502 -1.11906 0
M  V30 11186 C 1067.47 -2.68339 -2.10255 0
M  V30 11187 H 1068.67 -2.98197 -0.319166 0
M  V30 11188 H 1066.22 -1.55767 -0.128997 0
M  V30 11189 H 1066.95 -1.87946 -2.64285 0
M  V30 11190 H 1066.74 -3.46216 -1.84057 0
M  V30 11191 H 1068.23 -3.124 -2.77121 0
M  V30 11192 N 1068.67 0.153526 -1.5685 0
M  V30 11193 C 1070.08 0.714247 -1.72498 0
M  V30 11194 C 1070.43 1.81968 -0.733621 0
M  V30 11195 O 1069.55 2.16163 0.10118 0
M  V30 11196 C 1070.15 1.30238 -3.12767 0
M  V30 11197 C 1068.71 1.80974 -3.30038 0
M  V30 11198 C 1067.85 0.695638 -2.68433 0
M  V30 11199 H 1070.81 -0.0720733 -1.58536 0
M  V30 11200 H 1070.83 2.17217 -3.12405 0
M  V30 11201 H 1070.34 0.497605 -3.84897 0
M  V30 11202 H 1068.44 2.64039 -2.62895 0
M  V30 11203 H 1068.55 1.94294 -4.37934 0
M  V30 11204 H 1066.92 1.12061 -2.28723 0
M  V30 11205 H 1067.7 -0.0975885 -3.43161 0
M  V30 11206 N 1070.14 1.51827 0.422667 0
M  V30 11207 C 1071.56 1.40328 0.760275 0
M  V30 11208 C 1071.76 0.497119 1.95272 0
M  V30 11209 O 1070.82 -0.0422083 2.52465 0
M  V30 11210 C 1072.13 2.82622 1.02689 0
M  V30 11211 C 1073.68 2.91874 1.13044 0
M  V30 11212 C 1074.15 4.35107 1.4299 0
M  V30 11213 N 1075.64 4.3828 1.49883 0
M  V30 11214 C 1076.38 5.46153 1.74655 0
M  V30 11215 N 1075.87 6.64165 1.9712 0
M  V30 11216 N 1077.67 5.33651 1.76558 0
M  V30 11217 H 1069.82 2.09285 -0.362455 0
M  V30 11218 H 1072.08 0.94273 -0.0998161 0
M  V30 11219 H 1071.79 3.50991 0.223226 0
M  V30 11220 H 1071.66 3.22844 1.95068 0
M  V30 11221 H 1074.05 2.23694 1.92471 0
M  V30 11222 H 1074.13 2.55128 0.185326 0
M  V30 11223 H 1073.77 5.03841 0.640848 0
M  V30 11224 H 1073.7 4.69377 2.38731 0
M  V30 11225 H 1076.19 3.53206 1.34366 0
M  V30 11226 H 1076.51 7.42165 2.15434 0
M  V30 11227 H 1074.85 6.67255 1.94413 0
M  V30 11228 H 1078.04 4.40436 1.58536 0
M  V30 11229 H 1078.22 6.17798 1.95525 0
M  V30 11230 N 1071.62 -0.679052 1.4222 0
M  V30 11231 C 1072.53 -1.82221 1.47759 0
M  V30 11232 C 1073.55 -1.70092 0.3667 0
M  V30 11233 O 1074.72 -1.91718 0.616957 0
M  V30 11234 C 1071.79 -3.18332 1.37351 0
M  V30 11235 C 1070.85 -3.42449 2.58896 0
M  V30 11236 C 1070.08 -4.72067 2.48976 0
M  V30 11237 O 1070.31 -5.49683 1.5233 0
M  V30 11238 O 1069.24 -4.97333 3.39033 0
M  V30 11239 H 1073.07 -1.80504 2.44238 0
M  V30 11240 H 1070.65 -0.834251 1.23938 0
M  V30 11241 H 1072.53 -3.99563 1.33893 0
M  V30 11242 H 1071.21 -3.20696 0.439965 0
M  V30 11243 H 1070.12 -2.61083 2.6793 0
M  V30 11244 H 1071.45 -3.44912 3.51136 0
M  V30 11245 N 1073.1 -1.28322 -0.914942 0
M  V30 11246 C 1074.51 -1.13937 -1.47903 0
M  V30 11247 C 1074.86 0.271072 -1.94318 0
M  V30 11248 O 1073.99 1.16522 -1.8235 0
M  V30 11249 C 1074.58 -2.06221 -2.68809 0
M  V30 11250 C 1073.14 -1.95903 -3.21402 0
M  V30 11251 C 1072.29 -1.98031 -1.94111 0
M  V30 11252 H 1075.24 -1.41029 -0.727772 0
M  V30 11253 H 1075.26 -1.6255 -3.44031 0
M  V30 11254 H 1074.77 -3.08866 -2.34997 0
M  V30 11255 H 1072.87 -0.962907 -3.59943 0
M  V30 11256 H 1072.99 -2.82799 -3.86732 0
M  V30 11257 H 1071.35 -1.42423 -2.11158 0
M  V30 11258 H 1072.13 -3.02354 -1.62595 0
M  V30 11259 N 1074.58 1.12322 -1.10551 0
M  V30 11260 C 1075.54 2.16273 -0.758844 0
M  V30 11261 C 1076.54 1.59325 0.217294 0
M  V30 11262 O 1077.73 1.74199 -0.00601346 0
M  V30 11263 C 1074.86 3.40674 -0.124238 0
M  V30 11264 H 1076.06 2.48454 -1.6796 0
M  V30 11265 H 1073.61 1.2735 -0.906188 0
M  V30 11266 H 1074.34 3.14094 0.807194 0
M  V30 11267 H 1074.13 3.83284 -0.826772 0
M  V30 11268 H 1075.62 4.17474 0.102502 0
M  V30 11269 N 1076.06 0.894434 1.2976 0
M  V30 11270 C 1077.31 0.513673 1.95049 0
M  V30 11271 C 1077.62 -0.943744 1.71327 0
M  V30 11272 O 1078.82 -1.43179 2.30678 0
M  V30 11273 C 1077.28 0.867751 3.49282 0
M  V30 11274 C 1076.89 2.34358 3.81812 0
M  V30 11275 C 1078.63 0.556645 4.20835 0
M  V30 11276 C 1076.54 2.63879 5.29265 0
M  V30 11277 H 1075.47 0.188375 0.73009 0
M  V30 11278 H 1078.12 1.09071 1.47566 0
M  V30 11279 H 1076.5 0.2197 3.9539 0
M  V30 11280 H 1077.68 3.03674 3.46581 0
M  V30 11281 H 1075.99 2.62318 3.23386 0
M  V30 11282 H 1078.59 0.754123 5.29355 0
M  V30 11283 H 1078.93 -0.504526 4.13231 0
M  V30 11284 H 1079.46 1.1623 3.80441 0
M  V30 11285 H 1076.2 3.68774 5.41928 0
M  V30 11286 H 1075.72 1.99182 5.65762 0
M  V30 11287 H 1077.4 2.49871 5.96803 0
M  V30 11288 N 1077.53 -1.43282 0.656365 0
M  V30 11289 C 1078.48 -2.27932 -0.0557069 0
M  V30 11290 C 1079.47 -1.40075 -0.791698 0
M  V30 11291 O 1080.66 -1.6368 -0.673646 0
M  V30 11292 C 1077.79 -3.27821 -1.01923 0
M  V30 11293 C 1076.88 -4.23164 -0.281545 0
M  V30 11294 N 1077.27 -5.00882 0.703629 0
M  V30 11295 C 1075.56 -4.42928 -0.522558 0
M  V30 11296 C 1076.27 -5.70384 1.14177 0
M  V30 11297 N 1075.24 -5.41517 0.475394 0
M  V30 11298 H 1079.04 -2.85437 0.70022 0
M  V30 11299 H 1076.56 -1.55023 0.483902 0
M  V30 11300 H 1078.55 -3.87248 -1.54418 0
M  V30 11301 H 1077.21 -2.71878 -1.77518 0
M  V30 11302 H 1078.23 -5.06461 1.08247 0
M  V30 11303 H 1074.9 -3.98051 -1.25944 0
M  V30 11304 H 1076.29 -6.42765 1.95711 0
M  V30 11305 N 1079.01 -0.398486 -1.52479 0
M  V30 11306 C 1080.24 0.183059 -2.06591 0
M  V30 11307 C 1080.66 1.3898 -1.26753 0
M  V30 11308 O 1080.02 1.78885 -0.294959 0
M  V30 11309 C 1080.07 0.522392 -3.56796 0
M  V30 11310 O 1079.17 1.61499 -3.79462 0
M  V30 11311 H 1078.51 0.0188411 -0.663733 0
M  V30 11312 H 1081.04 -0.56861 -1.9654 0
M  V30 11313 H 1081.05 0.784078 -4.00395 0
M  V30 11314 H 1079.73 -0.359807 -4.14341 0
M  V30 11315 H 1078.31 1.3463 -3.47749 0
M  V30 11316 N 1080.49 1.57075 -0.12858 0
M  V30 11317 C 1081.4 2.19369 0.831533 0
M  V30 11318 C 1082.42 1.17258 1.28555 0
M  V30 11319 O 1083.59 1.49766 1.34656 0
M  V30 11320 C 1080.66 2.78846 2.06024 0
M  V30 11321 C 1079.72 3.96024 1.65722 0
M  V30 11322 C 1078.95 4.52655 2.82735 0
M  V30 11323 O 1079.18 4.08175 3.98434 0
M  V30 11324 O 1078.11 5.43198 2.59268 0
M  V30 11325 H 1081.94 3.01887 0.331352 0
M  V30 11326 H 1079.52 1.49081 0.0975226 0
M  V30 11327 H 1081.4 3.16721 2.77967 0
M  V30 11328 H 1080.08 1.99353 2.5503 0
M  V30 11329 H 1078.98 3.62899 0.908574 0
M  V30 11330 H 1080.32 4.76981 1.21449 0
M  V30 11331 N 1081.97 -0.145205 1.5693 0
M  V30 11332 C 1083.22 -0.855822 1.83085 0
M  V30 11333 C 1083.54 -1.81625 0.709747 0
M  V30 11334 O 1082.81 -1.94052 -0.268456 0
M  V30 11335 H 1081.39 -0.319032 0.675446 0
M  V30 11336 H 1084.05 -0.138781 1.94405 0
M  V30 11337 H 1083.15 -1.41698 2.78079 0
M  V30 11338 N 1083.45 -1.52049 -0.414609 0
M  V30 11339 C 1084.38 -1.7122 -1.52369 0
M  V30 11340 C 1085.39 -0.592634 -1.5163 0
M  V30 11341 O 1086.58 -0.867634 -1.55995 0
M  V30 11342 C 1083.68 -1.73247 -2.91271 0
M  V30 11343 C 1082.85 -3.02153 -3.16263 0
M  V30 11344 C 1081.91 -2.96066 -4.35007 0
M  V30 11345 O 1080.94 -3.69981 -4.32554 0
M  V30 11346 N 1082.14 -2.13478 -5.39822 0
M  V30 11347 H 1084.91 -2.66902 -1.3632 0
M  V30 11348 H 1082.47 -1.50218 -0.603842 0
M  V30 11349 H 1084.46 -1.66714 -3.68766 0
M  V30 11350 H 1083.03 -0.85062 -3.00804 0
M  V30 11351 H 1082.25 -3.22379 -2.2686 0
M  V30 11352 H 1083.54 -3.87439 -3.29801 0
M  V30 11353 H 1082.94 -1.52844 -5.44661 0
M  V30 11354 H 1081.49 -2.12805 -6.16082 0
M  V30 11355 N 1084.93 0.6715 -1.42579 0
M  V30 11356 C 1086.17 1.43214 -1.44435 0
M  V30 11357 C 1086.53 1.92304 -0.0608703 0
M  V30 11358 O 1085.82 1.68204 0.917499 0
M  V30 11359 C 1086.01 2.64256 -2.40632 0
M  V30 11360 C 1085.84 2.2701 -3.88197 0
M  V30 11361 C 1084.61 2.16211 -4.56706 0
M  V30 11362 C 1086.81 1.88447 -4.78531 0
M  V30 11363 N 1084.79 1.72104 -5.89282 0
M  V30 11364 C 1086.16 1.55284 -6.00239 0
M  V30 11365 C 1088.22 1.75469 -4.65956 0
M  V30 11366 C 1086.92 1.10444 -7.1077 0
M  V30 11367 C 1088.95 1.32034 -5.76473 0
M  V30 11368 C 1088.31 0.997961 -6.97295 0
M  V30 11369 H 1084.41 0.520415 -0.583688 0
M  V30 11370 H 1086.99 0.774581 -1.78629 0
M  V30 11371 H 1085.16 3.27696 -2.08494 0
M  V30 11372 H 1086.9 3.30865 -2.33046 0
M  V30 11373 H 1083.65 2.35386 -4.10963 0
M  V30 11374 H 1084.07 1.52464 -6.59609 0
M  V30 11375 H 1088.72 1.99038 -3.7302 0
M  V30 11376 H 1086.43 0.856218 -8.03551 0
M  V30 11377 H 1090.02 1.22507 -5.68756 0
M  V30 11378 H 1088.9 0.666968 -7.81359 0
M  V30 11379 N 1086.4 1.28806 0.908124 0
M  V30 11380 C 1087.65 1.1646 1.66027 0
M  V30 11381 C 1087.98 -0.285025 1.92097 0
M  V30 11382 O 1087.26 -1.20675 1.52538 0
M  V30 11383 C 1087.54 1.96951 3.01467 0
M  V30 11384 C 1087.39 3.50007 2.82515 0
M  V30 11385 C 1088.71 1.78932 4.02084 0
M  V30 11386 H 1085.83 0.424435 0.602515 0
M  V30 11387 H 1088.47 1.58185 1.0525 0
M  V30 11388 H 1086.62 1.61495 3.53344 0
M  V30 11389 H 1088.3 3.95401 2.37605 0
M  V30 11390 H 1086.54 3.75356 2.17463 0
M  V30 11391 H 1087.21 4.01591 3.7872 0
M  V30 11392 H 1089.69 2.09885 3.59287 0
M  V30 11393 H 1088.56 2.37615 4.94803 0
M  V30 11394 H 1088.82 0.742286 4.35824 0
M  V30 11395 N 1087.88 -1.11734 1.11145 0
M  V30 11396 C 1089.11 -1.87215 0.880811 0
M  V30 11397 C 1089.52 -1.80016 -0.569195 0
M  V30 11398 O 1088.88 -1.17926 -1.39283 0
M  V30 11399 C 1088.93 -3.36146 1.32998 0
M  V30 11400 O 1088.65 -3.43187 2.72313 0
M  V30 11401 C 1090.15 -4.28542 1.1343 0
M  V30 11402 H 1087.37 -0.592123 0.315645 0
M  V30 11403 H 1089.92 -1.41335 1.478 0
M  V30 11404 H 1088.07 -3.79542 0.776308 0
M  V30 11405 H 1088.49 -4.359 2.91705 0
M  V30 11406 H 1089.96 -5.31295 1.49764 0
M  V30 11407 H 1090.44 -4.39138 0.0735859 0
M  V30 11408 H 1091.04 -3.90935 1.67481 0
M  V30 11409 N 1089.36 -0.901303 -1.29284 0
M  V30 11410 C 1090.29 -0.396909 -2.30102 0
M  V30 11411 C 1091.27 0.528919 -1.61668 0
M  V30 11412 O 1092.46 0.439306 -1.89166 0
M  V30 11413 C 1089.59 0.375006 -3.45269 0
M  V30 11414 C 1088.54 -0.46054 -4.25515 0
M  V30 11415 C 1087.87 0.438967 -5.32895 0
M  V30 11416 C 1089.17 -1.7113 -4.93469 0
M  V30 11417 H 1090.86 -1.23943 -2.72541 0
M  V30 11418 H 1088.41 -0.597428 -1.31022 0
M  V30 11419 H 1090.36 0.738622 -4.14876 0
M  V30 11420 H 1089.08 1.25132 -3.01678 0
M  V30 11421 H 1087.74 -0.80651 -3.57618 0
M  V30 11422 H 1087.39 1.31346 -4.85548 0
M  V30 11423 H 1087.09 -0.116406 -5.87485 0
M  V30 11424 H 1088.61 0.79874 -6.05353 0
M  V30 11425 H 1090.03 -1.41732 -5.55504 0
M  V30 11426 H 1088.42 -2.20811 -5.57999 0
M  V30 11427 H 1089.49 -2.44636 -4.18666 0
M  V30 11428 N 1090.84 1.42931 -0.663954 0
M  V30 11429 C 1092.25 1.84877 -0.260283 0
M  V30 11430 C 1092.6 1.5558 1.19538 0
M  V30 11431 O 1091.72 1.01015 1.91377 0
M  V30 11432 C 1092.32 3.35585 -0.465618 0
M  V30 11433 C 1090.88 3.76221 -0.116169 0
M  V30 11434 C 1090.03 2.66587 -0.763317 0
M  V30 11435 H 1092.98 1.32932 -0.866882 0
M  V30 11436 H 1093 3.79427 0.285608 0
M  V30 11437 H 1092.51 3.56877 -1.52515 0
M  V30 11438 H 1090.61 3.60539 0.940342 0
M  V30 11439 H 1090.72 4.75943 -0.549123 0
M  V30 11440 H 1089.09 2.53948 -0.19559 0
M  V30 11441 H 1089.87 2.90704 -1.82609 0
M  V30 11442 N 1092.32 0.406567 1.52266 0
M  V30 11443 C 1093.28 -0.408251 2.25535 0
M  V30 11444 C 1094.28 -0.975795 1.27808 0
M  V30 11445 O 1095.47 -0.855077 1.5177 0
M  V30 11446 C 1092.6 -1.57443 3.02365 0
M  V30 11447 H 1093.79 0.233459 2.9899 0
M  V30 11448 H 1091.35 0.159032 1.55489 0
M  V30 11449 H 1092.08 -2.25308 2.33252 0
M  V30 11450 H 1091.87 -1.17399 3.74112 0
M  V30 11451 H 1093.36 -2.15088 3.57948 0
M  V30 11452 N 1093.79 -1.57004 0.136909 0
M  V30 11453 C 1095.21 -1.82675 -0.385577 0
M  V30 11454 C 1095.56 -1.05508 -1.65416 0
M  V30 11455 O 1094.68 -0.297207 -2.14349 0
M  V30 11456 C 1095.28 -3.31356 -0.706326 0
M  V30 11457 C 1093.84 -3.57644 -1.17337 0
M  V30 11458 C 1092.98 -2.7664 -0.191239 0
M  V30 11459 H 1095.93 -1.54522 0.36177 0
M  V30 11460 H 1095.95 -3.4696 -1.56201 0
M  V30 11461 H 1095.47 -3.87492 0.217147 0
M  V30 11462 H 1093.57 -3.06883 -2.11313 0
M  V30 11463 H 1093.68 -4.66152 -1.10632 0
M  V30 11464 H 1092.04 -2.45403 -0.681867 0
M  V30 11465 H 1092.83 -3.35543 0.725647 0
M  V30 11466 N 1095.27 0.136881 -1.57004 0
M  V30 11467 C 1096.2 1.17026 -2.02057 0
M  V30 11468 C 1097.18 1.44223 -0.901866 0
M  V30 11469 O 1098.37 1.54971 -1.17037 0
M  V30 11470 C 1095.5 2.50095 -2.40977 0
M  V30 11471 C 1094.45 2.37398 -3.56127 0
M  V30 11472 C 1093.78 3.75268 -3.80891 0
M  V30 11473 C 1095.08 1.84952 -4.88457 0
M  V30 11474 H 1096.77 0.795601 -2.88636 0
M  V30 11475 H 1094.32 0.381266 -1.38861 0
M  V30 11476 H 1096.27 3.22621 -2.71097 0
M  V30 11477 H 1095 2.89416 -1.51348 0
M  V30 11478 H 1093.65 1.67322 -3.26188 0
M  V30 11479 H 1093.3 4.12043 -2.88496 0
M  V30 11480 H 1093 3.67631 -4.5839 0
M  V30 11481 H 1094.53 4.49327 -4.13446 0
M  V30 11482 H 1095.94 2.4728 -5.17229 0
M  V30 11483 H 1094.34 1.88181 -5.69832 0
M  V30 11484 H 1095.41 0.805848 -4.78157 0
M  V30 11485 N 1096.75 1.52266 0.40654 0
M  V30 11486 C 1098.03 1.57018 1.1664 0
M  V30 11487 C 1098.41 0.352752 2.08132 0
M  V30 11488 O 1097.76 -0.660208 2.18754 0
M  V30 11489 C 1097.97 2.90016 1.94143 0
M  V30 11490 C 1099.31 3.43112 2.50119 0
M  V30 11491 O 1100.34 2.91773 2.0432 0
M  V30 11492 O 1099.2 4.32765 3.33731 0
M  V30 11493 H 1096.29 0.632574 0.532709 0
M  V30 11494 H 1098.84 1.64595 0.413111 0
M  V30 11495 H 1097.61 3.70071 1.27134 0
M  V30 11496 H 1097.23 2.85744 2.76471 0
M  V30 11497 N 1098.23 -0.663929 1.42933 0
M  V30 11498 C 1099.46 -1.45192 1.474 0
M  V30 11499 C 1099.87 -1.88592 0.0886014 0
M  V30 11500 O 1099.23 -1.58824 -0.898962 0
M  V30 11501 C 1099.28 -2.69394 2.41059 0
M  V30 11502 O 1099 -2.27812 3.7421 0
M  V30 11503 C 1100.5 -3.62855 2.54659 0
M  V30 11504 H 1097.72 -0.446394 0.500973 0
M  V30 11505 H 1100.27 -0.814875 1.87563 0
M  V30 11506 H 1098.42 -3.29262 2.0412 0
M  V30 11507 H 1098.83 -3.08095 4.24474 0
M  V30 11508 H 1100.31 -4.46698 3.24291 0
M  V30 11509 H 1100.79 -4.09487 1.58799 0
M  V30 11510 H 1101.39 -3.08874 2.92364 0
M  V30 11511 N 1099.71 -1.29285 -0.901281 0
M  V30 11512 C 1100.96 -1.16538 -1.64626 0
M  V30 11513 C 1101.27 0.282623 -1.93547 0
M  V30 11514 O 1102.47 0.531396 -2.66249 0
M  V30 11515 C 1100.93 -2.03809 -2.96631 0
M  V30 11516 C 1100.54 -3.53423 -2.75311 0
M  V30 11517 C 1102.28 -1.99782 -3.7455 0
M  V30 11518 C 1100.19 -4.32804 -4.03032 0
M  V30 11519 H 1099.12 -0.432561 -0.617581 0
M  V30 11520 H 1101.77 -1.53912 -0.999159 0
M  V30 11521 H 1100.15 -1.59302 -3.62545 0
M  V30 11522 H 1101.33 -4.05971 -2.18 0
M  V30 11523 H 1099.64 -3.59106 -2.10789 0
M  V30 11524 H 1102.24 -2.5635 -4.69243 0
M  V30 11525 H 1102.58 -0.97743 -4.04663 0
M  V30 11526 H 1103.11 -2.42324 -3.15474 0
M  V30 11527 H 1099.85 -5.35473 -3.78086 0
M  V30 11528 H 1099.37 -3.85025 -4.59909 0
M  V30 11529 H 1101.05 -4.43383 -4.71191 0
M  V30 11530 N 1101.18 1.11143 -1.11736 0
M  V30 11531 C 1102.13 2.19358 -0.773626 0
M  V30 11532 C 1103.13 1.67744 0.236288 0
M  V30 11533 O 1104.33 1.79748 0.09525 0
M  V30 11534 H 1100.71 0.715218 -0.232309 0
M  V30 11535 H 1102.68 2.45594 -1.69487 0
M  V30 11536 C 1101.43 3.46895 -0.236457 0
M  V30 11537 H 1100.75 3.86967 -1.00483 0
M  V30 11538 H 1102.19 4.23986 -0.034168 0
M  V30 11539 C 1100.65 3.20641 1.03397 0
M  V30 11540 O 1101.18 3.41629 2.11312 0
M  V30 11541 N 1099.39 2.74356 0.957986 0
M  V30 11542 H 1098.93 2.57477 0.0796924 0
M  V30 11543 H 1098.89 2.57166 1.80867 0
M  V30 11544 N 1102.66 0.908147 1.28804 0
M  V30 11545 C 1103.91 0.539201 1.95501 0
M  V30 11546 C 1104.24 -0.913759 1.7136 0
M  V30 11547 O 1103.52 -1.64904 1.03136 0
M  V30 11548 C 1103.8 0.842372 3.50109 0
M  V30 11549 C 1103.65 2.34765 3.83673 0
M  V30 11550 C 1104.97 0.334658 4.38826 0
M  V30 11551 H 1102.09 0.197373 0.71008 0
M  V30 11552 H 1104.73 1.13637 1.52272 0
M  V30 11553 H 1102.88 0.334143 3.8706 0
M  V30 11554 H 1104.55 2.92607 3.56621 0
M  V30 11555 H 1102.8 2.80494 3.30916 0
M  V30 11556 H 1103.47 2.51034 4.91616 0
M  V30 11557 H 1105.94 0.769961 4.08914 0
M  V30 11558 H 1104.82 0.575914 5.4587 0
M  V30 11559 H 1105.08 -0.764878 4.35433 0
M  V30 11560 N 1104.14 -1.42577 0.671525 0
M  V30 11561 C 1105.09 -2.27978 -0.0315286 0
M  V30 11562 C 1106.07 -1.40907 -0.776796 0
M  V30 11563 O 1107.27 -1.64385 -0.656248 0
M  V30 11564 C 1104.4 -3.28884 -0.9844 0
M  V30 11565 C 1103.48 -4.23439 -0.236647 0
M  V30 11566 N 1103.87 -5.00107 0.756714 0
M  V30 11567 C 1102.17 -4.43457 -0.475551 0
M  V30 11568 C 1102.87 -5.69141 1.20221 0
M  V30 11569 N 1101.85 -5.40983 0.532802 0
M  V30 11570 H 1105.65 -2.84678 0.730455 0
M  V30 11571 H 1103.16 -1.54501 0.500317 0
M  V30 11572 H 1105.16 -3.88864 -1.50302 0
M  V30 11573 H 1103.82 -2.73745 -1.74625 0
M  V30 11574 H 1104.83 -5.05285 1.13613 0
M  V30 11575 H 1101.51 -3.99364 -1.21715 0
M  V30 11576 H 1102.9 -6.40653 2.02517 0
M  V30 11577 N 1105.62 -0.414636 -1.52048 0
M  V30 11578 C 1106.55 0.399119 -2.30064 0
M  V30 11579 C 1107.53 1.04126 -1.34506 0
M  V30 11580 O 1108.71 1.04923 -1.63416 0
M  V30 11581 C 1105.84 1.51305 -3.12608 0
M  V30 11582 C 1104.8 0.995621 -4.16259 0
M  V30 11583 C 1104.12 2.20357 -4.87183 0
M  V30 11584 C 1105.42 0.0458178 -5.2228 0
M  V30 11585 H 1107.12 -0.251879 -2.98339 0
M  V30 11586 H 1104.66 -0.122579 -1.43477 0
M  V30 11587 H 1106.62 2.08936 -3.65956 0
M  V30 11588 H 1105.34 2.19201 -2.42113 0
M  V30 11589 H 1104 0.441676 -3.6393 0
M  V30 11590 H 1103.65 2.8682 -4.13211 0
M  V30 11591 H 1103.35 1.86385 -5.57256 0
M  V30 11592 H 1104.87 2.78584 -5.43345 0
M  V30 11593 H 1106.29 0.531102 -5.70835 0
M  V30 11594 H 1104.68 -0.20536 -5.99749 0
M  V30 11595 H 1105.75 -0.897807 -4.76516 0
M  V30 11596 N 1107.1 1.56929 -0.145233 0
M  V30 11597 C 1108.51 1.58196 0.211194 0
M  V30 11598 C 1108.71 1.15941 1.64803 0
M  V30 11599 O 1107.77 0.858888 2.37443 0
M  V30 11600 C 1109.08 3.00665 -0.0459569 0
M  V30 11601 C 1110.63 3.12995 0.0178913 0
M  V30 11602 C 1111.1 4.5751 -0.211905 0
M  V30 11603 N 1112.6 4.62928 -0.158772 0
M  V30 11604 C 1113.33 5.72555 -0.311111 0
M  V30 11605 N 1112.83 6.90838 -0.521074 0
M  V30 11606 N 1114.62 5.61549 -0.248838 0
M  V30 11607 H 1106.77 1.8269 -1.08342 0
M  V30 11608 H 1109.03 0.845514 -0.428731 0
M  V30 11609 H 1108.74 3.35962 -1.0403 0
M  V30 11610 H 1108.61 3.71125 0.674246 0
M  V30 11611 H 1111 2.7754 1.00278 0
M  V30 11612 H 1111.08 2.45025 -0.734612 0
M  V30 11613 H 1110.73 4.93669 -1.19389 0
M  V30 11614 H 1110.66 5.23604 0.560901 0
M  V30 11615 H 1113.15 3.779 -0.00107283 0
M  V30 11616 H 1113.46 7.70248 -0.62747 0
M  V30 11617 H 1111.8 6.92761 -0.557374 0
M  V30 11618 H 1115 4.68022 -0.0855821 0
M  V30 11619 H 1115.17 6.46937 -0.370997 0
M  V30 11620 N 1108.58 -0.128553 1.57075 0
M  V30 11621 C 1109.54 -1.14215 1.98715 0
M  V30 11622 C 1110.54 -1.34843 0.876019 0
M  V30 11623 O 1111.73 -1.31522 1.14227 0
M  V30 11624 C 1108.86 -2.49865 2.31905 0
M  V30 11625 H 1110.05 -0.784481 2.89458 0
M  V30 11626 H 1107.61 -0.372531 1.51796 0
M  V30 11627 H 1108.34 -2.9057 1.44012 0
M  V30 11628 H 1108.13 -2.3625 3.12935 0
M  V30 11629 H 1109.62 -3.22832 2.64895 0
M  V30 11630 N 1110.05 -1.5248 -0.398459 0
M  V30 11631 C 1111.3 -1.66731 -1.14215 0
M  V30 11632 C 1111.62 -0.404957 -1.90749 0
M  V30 11633 O 1110.89 0.580434 -1.87104 0
M  V30 11634 H 1109.47 -0.614577 -0.424622 0
M  V30 11635 H 1112.13 -1.89561 -0.453059 0
M  V30 11636 H 1111.23 -2.51336 -1.85031 0
M  V30 11637 N 1111.53 0.65634 -1.43283 0
M  V30 11638 C 1112.76 1.44199 -1.47954 0
M  V30 11639 C 1113.17 1.88961 -0.0950315 0
M  V30 11640 O 1112.51 1.59895 0.904388 0
M  V30 11641 C 1112.57 2.71161 -2.36033 0
M  V30 11642 C 1112.24 2.48359 -3.83623 0
M  V30 11643 C 1113.24 2.1178 -4.74811 0
M  V30 11644 C 1110.92 2.6278 -4.28079 0
M  V30 11645 C 1112.91 1.89915 -6.0845 0
M  V30 11646 C 1110.6 2.4053 -5.61772 0
M  V30 11647 C 1111.6 2.04154 -6.51775 0
M  V30 11648 O 1111.29 1.82134 -7.82996 0
M  V30 11649 H 1111.02 0.449567 -0.504842 0
M  V30 11650 H 1113.57 0.812234 -1.88658 0
M  V30 11651 H 1111.8 3.36685 -1.9021 0
M  V30 11652 H 1113.49 3.33102 -2.31944 0
M  V30 11653 H 1114.26 2.00217 -4.41744 0
M  V30 11654 H 1110.14 2.9007 -3.58302 0
M  V30 11655 H 1113.68 1.61445 -6.78661 0
M  V30 11656 H 1109.58 2.51695 -5.94407 0
M  V30 11657 H 1110.35 1.96584 -7.94542 0
M  V30 11658 N 1113.01 1.29761 0.894412 0
M  V30 11659 C 1114.26 1.17409 1.64006 0
M  V30 11660 C 1114.57 -0.272355 1.93695 0
M  V30 11661 O 1115.78 -0.517269 2.66527 0
M  V30 11662 C 1114.23 2.05379 2.95546 0
M  V30 11663 C 1113.84 3.54878 2.73433 0
M  V30 11664 C 1115.59 2.01765 3.73485 0
M  V30 11665 C 1113.49 4.34935 4.00731 0
M  V30 11666 H 1112.42 0.43583 0.615279 0
M  V30 11667 H 1115.07 1.5444 0.990983 0
M  V30 11668 H 1113.46 1.61222 3.61695 0
M  V30 11669 H 1114.63 4.07122 2.15844 0
M  V30 11670 H 1112.94 3.60218 2.08882 0
M  V30 11671 H 1115.54 2.58835 4.67877 0
M  V30 11672 H 1115.88 0.998876 4.04139 0
M  V30 11673 H 1116.42 2.43994 3.14184 0
M  V30 11674 H 1113.16 5.3747 3.75241 0
M  V30 11675 H 1112.68 3.87458 4.5786 0
M  V30 11676 H 1114.36 4.45875 4.68833 0
M  V30 11677 N 1114.49 -1.10549 1.12324 0
M  V30 11678 C 1115.74 -1.81851 0.872531 0
M  V30 11679 C 1116.05 -1.86058 -0.603468 0
M  V30 11680 O 1117.26 -2.53553 -0.970736 0
M  V30 11681 C 1115.71 -3.26631 1.51131 0
M  V30 11682 C 1115.32 -3.30725 3.02201 0
M  V30 11683 C 1117.06 -4.02768 1.34082 0
M  V30 11684 C 1114.97 -4.69957 3.59018 0
M  V30 11685 H 1113.9 -0.681422 0.322769 0
M  V30 11686 H 1116.55 -1.24332 1.34959 0
M  V30 11687 H 1114.93 -3.8414 0.961913 0
M  V30 11688 H 1116.11 -2.83046 3.63623 0
M  V30 11689 H 1114.42 -2.68072 3.18632 0
M  V30 11690 H 1117.02 -5.05612 1.73955 0
M  V30 11691 H 1117.36 -4.15328 0.284369 0
M  V30 11692 H 1117.9 -3.51671 1.85937 0
M  V30 11693 H 1114.63 -4.62597 4.64418 0
M  V30 11694 H 1114.15 -5.18008 3.02371 0
M  V30 11695 H 1115.83 -5.38925 3.58007 0
M  V30 11696 N 1115.97 -0.914965 -1.28321 0
M  V30 11697 C 1117.38 -0.59512 -1.76961 0
M  V30 11698 C 1117.73 0.88958 -1.74874 0
M  V30 11699 O 1116.85 1.6959 -1.34418 0
M  V30 11700 C 1117.45 -1.07353 -3.21342 0
M  V30 11701 C 1116.01 -0.804577 -3.677 0
M  V30 11702 C 1115.15 -1.23955 -2.48053 0
M  V30 11703 H 1118.1 -1.0961 -1.14767 0
M  V30 11704 H 1118.13 -0.415506 -3.78225 0
M  V30 11705 H 1117.64 -2.15413 -3.22829 0
M  V30 11706 H 1115.74 0.26277 -3.71672 0
M  V30 11707 H 1115.85 -1.41317 -4.57784 0
M  V30 11708 H 1114.22 -0.658274 -2.46046 0
M  V30 11709 H 1115 -2.32853 -2.52258 0
M  V30 11710 N 1117.44 1.42219 -0.679077 0
M  V30 11711 C 1118.37 2.33493 -0.0174528 0
M  V30 11712 C 1119.35 1.50915 0.78477 0
M  V30 11713 O 1120.54 1.79504 0.741065 0
M  V30 11714 C 1117.67 3.34576 0.931463 0
M  V30 11715 C 1116.62 4.2734 0.237527 0
M  V30 11716 C 1115.95 5.18664 1.29967 0
M  V30 11717 C 1117.25 5.14729 -0.886082 0
M  V30 11718 H 1118.94 2.89068 -0.779748 0
M  V30 11719 H 1116.49 1.38993 -0.376419 0
M  V30 11720 H 1118.44 3.97343 1.40343 0
M  V30 11721 H 1117.17 2.77315 1.72523 0
M  V30 11722 H 1115.83 3.65973 -0.214245 0
M  V30 11723 H 1115.47 4.57727 2.08554 0
M  V30 11724 H 1115.17 5.81558 0.840463 0
M  V30 11725 H 1116.7 5.84308 1.77249 0
M  V30 11726 H 1118.11 5.71158 -0.495141 0
M  V30 11727 H 1116.51 5.86478 -1.27135 0
M  V30 11728 H 1117.58 4.52874 -1.733 0
M  V30 11729 N 1118.92 0.422693 1.51826 0
M  V30 11730 C 1119.85 -0.43167 2.25098 0
M  V30 11731 C 1120.87 -0.998758 1.28564 0
M  V30 11732 O 1122.06 -0.89539 1.54418 0
M  V30 11733 C 1119.16 -1.61426 2.97985 0
M  V30 11734 C 1118.33 -1.16866 4.21499 0
M  V30 11735 C 1117.39 -2.2197 4.77091 0
M  V30 11736 O 1116.41 -1.82004 5.39317 0
M  V30 11737 N 1117.62 -3.54293 4.59844 0
M  V30 11738 H 1120.38 0.196255 2.99057 0
M  V30 11739 H 1117.94 0.25079 1.59946 0
M  V30 11740 H 1119.93 -2.31331 3.32066 0
M  V30 11741 H 1118.5 -2.14783 2.27128 0
M  V30 11742 H 1117.72 -0.297217 3.93078 0
M  V30 11743 H 1119.01 -0.848106 5.01682 0
M  V30 11744 H 1118.41 -3.89505 4.10247 0
M  V30 11745 H 1116.97 -4.20135 4.98327 0
M  V30 11746 N 1120.4 -1.5685 0.153553 0
M  V30 11747 C 1121.65 -1.95946 -0.494936 0
M  V30 11748 C 1121.97 -1.03975 -1.64967 0
M  V30 11749 O 1121.24 -0.102572 -1.95631 0
M  V30 11750 H 1119.82 -0.723516 -0.185833 0
M  V30 11751 H 1122.48 -1.93531 0.230585 0
M  V30 11752 H 1121.58 -2.99823 -0.866743 0
M  V30 11753 N 1121.88 0.120221 -1.57141 0
M  V30 11754 C 1123.29 0.677497 -1.73974 0
M  V30 11755 C 1123.64 1.80371 -0.772055 0
M  V30 11756 O 1122.76 2.16329 0.0553062 0
M  V30 11757 C 1123.36 1.23575 -3.1546 0
M  V30 11758 C 1121.92 1.73933 -3.33803 0
M  V30 11759 C 1121.07 0.638542 -2.69848 0
M  V30 11760 H 1124.02 -0.105685 -1.58348 0
M  V30 11761 H 1124.04 2.10542 -3.16942 0
M  V30 11762 H 1123.55 0.415851 -3.85866 0
M  V30 11763 H 1121.65 2.58404 -2.68437 0
M  V30 11764 H 1121.76 1.84961 -4.41957 0
M  V30 11765 H 1120.13 1.07185 -2.31049 0
M  V30 11766 H 1120.91 -0.170356 -3.42877 0
M  V30 11767 N 1123.36 1.52689 0.390367 0
M  V30 11768 C 1124.6 1.67335 1.13329 0
M  V30 11769 C 1124.93 0.415068 1.90531 0
M  V30 11770 O 1124.2 -0.570504 1.87409 0
M  V30 11771 H 1122.78 0.616821 0.421356 0
M  V30 11772 H 1125.44 1.89799 0.443 0
M  V30 11773 H 1124.53 2.52314 1.83696 0
M  V30 11774 N 1124.83 -0.648732 1.43629 0
M  V30 11775 C 1125.76 -1.77298 1.51947 0
M  V30 11776 C 1126.75 -1.65942 0.373785 0
M  V30 11777 O 1127.93 -1.8497 0.591596 0
M  V30 11778 C 1125.06 -3.15749 1.44638 0
M  V30 11779 C 1124.01 -3.41872 2.57502 0
M  V30 11780 C 1123.34 -4.8017 2.35246 0
M  V30 11781 C 1124.64 -3.36173 3.99731 0
M  V30 11782 H 1126.33 -1.70594 2.46045 0
M  V30 11783 H 1123.88 -0.819306 1.1842 0
M  V30 11784 H 1125.83 -3.94156 1.4906 0
M  V30 11785 H 1124.56 -3.23194 0.470466 0
M  V30 11786 H 1123.22 -2.65838 2.5244 0
M  V30 11787 H 1122.86 -4.84297 1.35887 0
M  V30 11788 H 1122.56 -4.9861 3.10906 0
M  V30 11789 H 1124.09 -5.6083 2.41459 0
M  V30 11790 H 1125.5 -4.0451 4.06257 0
M  V30 11791 H 1123.9 -3.66148 4.75453 0
M  V30 11792 H 1124.97 -2.34277 4.24549 0
M  V30 11793 N 1126.31 -1.30234 -0.887518 0
M  V30 11794 C 1127.54 -1.21829 -1.67229 0
M  V30 11795 C 1127.96 0.219251 -1.87523 0
M  V30 11796 O 1127.31 1.14526 -1.42091 0
M  V30 11797 C 1127.36 -1.94044 -3.05007 0
M  V30 11798 O 1127.08 -3.32185 -2.85631 0
M  V30 11799 C 1128.59 -1.92265 -3.99436 0
M  V30 11800 H 1125.81 -0.421716 -0.521916 0
M  V30 11801 H 1128.35 -1.71816 -1.10903 0
M  V30 11802 H 1126.5 -1.47861 -3.58072 0
M  V30 11803 H 1126.92 -3.68724 -3.73018 0
M  V30 11804 H 1128.39 -2.47336 -4.93486 0
M  V30 11805 H 1128.87 -0.900984 -4.29859 0
M  V30 11806 H 1129.48 -2.38247 -3.52305 0
M  V30 11807 N 1127.79 1.09952 -1.12909 0
M  V30 11808 C 1129.02 1.8579 -0.910483 0
M  V30 11809 C 1129.43 1.80898 0.540484 0
M  V30 11810 O 1128.79 1.20126 1.3739 0
M  V30 11811 C 1128.84 3.33987 -1.38329 0
M  V30 11812 O 1128.56 3.38811 -2.77739 0
M  V30 11813 C 1130.06 4.26683 -1.20234 0
M  V30 11814 H 1127.28 0.587026 -0.325025 0
M  V30 11815 H 1129.83 1.38965 -1.5003 0
M  V30 11816 H 1127.98 3.78259 -0.836592 0
M  V30 11817 H 1128.4 4.31204 -2.98603 0
M  V30 11818 H 1129.87 5.28846 -1.58197 0
M  V30 11819 H 1130.35 4.38966 -0.14344 0
M  V30 11820 H 1130.95 3.88221 -1.73679 0
M  V30 11821 N 1129.27 0.921757 1.27833 0
M  V30 11822 C 1130.5 0.575202 1.98744 0
M  V30 11823 C 1130.91 -0.845405 1.68815 0
M  V30 11824 O 1130.27 -1.56106 0.94536 0
M  V30 11825 C 1130.32 0.784389 3.52888 0
M  V30 11826 O 1130.04 2.1491 3.81766 0
M  V30 11827 C 1131.54 0.445744 4.41053 0
M  V30 11828 H 1128.76 0.218525 0.634419 0
M  V30 11829 H 1131.31 1.23715 1.62834 0
M  V30 11830 H 1129.46 0.169323 3.8703 0
M  V30 11831 H 1129.87 2.19469 4.76375 0
M  V30 11832 H 1131.35 0.64284 5.48244 0
M  V30 11833 H 1131.83 -0.618433 4.34824 0
M  V30 11834 H 1132.43 1.03869 4.12421 0
M  V30 11835 N 1130.75 -1.41857 0.686609 0
M  V30 11836 C 1131.66 -2.34595 0.0159005 0
M  V30 11837 C 1132.67 -1.55741 -0.775933 0
M  V30 11838 O 1133.85 -1.8826 -0.71555 0
M  V30 11839 C 1130.91 -3.34395 -0.915473 0
M  V30 11840 C 1129.97 -4.29141 -0.116851 0
M  V30 11841 C 1129.21 -5.24174 -1.00386 0
M  V30 11842 O 1129.43 -5.24431 -2.2434 0
M  V30 11843 O 1128.36 -6.00152 -0.458337 0
M  V30 11844 H 1132.19 -2.9351 0.780101 0
M  V30 11845 H 1129.78 -1.42559 0.446896 0
M  V30 11846 H 1131.66 -3.95675 -1.44981 0
M  V30 11847 H 1130.33 -2.77936 -1.65932 0
M  V30 11848 H 1129.24 -3.71238 0.461871 0
M  V30 11849 H 1130.57 -4.88673 0.588138 0
M  V30 11850 N 1132.22 -0.430739 -1.51599 0
M  V30 11851 C 1133.45 0.139197 -2.06932 0
M  V30 11852 C 1133.87 1.3626 -1.29672 0
M  V30 11853 O 1133.23 1.78219 -0.332836 0
M  V30 11854 C 1133.28 0.446593 -3.57824 0
M  V30 11855 O 1132.38 1.53414 -3.82803 0
M  V30 11856 H 1131.73 0.00475812 -0.663983 0
M  V30 11857 H 1134.26 -0.610171 -1.9529 0
M  V30 11858 H 1134.27 0.698972 -4.01968 0
M  V30 11859 H 1132.94 -0.447613 -4.13484 0
M  V30 11860 H 1131.52 1.27224 -3.50526 0
M  V30 11861 N 1133.7 1.56767 -0.161869 0
M  V30 11862 C 1135.12 1.58412 0.194403 0
M  V30 11863 C 1135.32 1.17682 1.63564 0
M  V30 11864 O 1134.37 0.884024 2.36519 0
M  V30 11865 C 1135.69 3.00599 -0.0778438 0
M  V30 11866 C 1137.24 3.12996 -0.015307 0
M  V30 11867 C 1137.71 4.57259 -0.260418 0
M  V30 11868 N 1139.2 4.62733 -0.207863 0
M  V30 11869 C 1139.94 5.72193 -0.371821 0
M  V30 11870 N 1139.43 6.90246 -0.594318 0
M  V30 11871 N 1141.23 5.61253 -0.308384 0
M  V30 11872 H 1133.38 1.81531 -1.10274 0
M  V30 11873 H 1135.64 0.840919 -0.437675 0
M  V30 11874 H 1135.35 3.3484 -1.07587 0
M  V30 11875 H 1135.22 3.71819 0.634845 0
M  V30 11876 H 1137.61 2.78588 0.97329 0
M  V30 11877 H 1137.69 2.44232 -0.760559 0
M  V30 11878 H 1137.33 4.92375 -1.24618 0
M  V30 11879 H 1137.26 5.2417 0.505334 0
M  V30 11880 H 1139.75 3.77878 -0.0411541 0
M  V30 11881 H 1140.07 7.6954 -0.70913 0
M  V30 11882 H 1138.41 6.92131 -0.630819 0
M  V30 11883 H 1141.6 4.67905 -0.135217 0
M  V30 11884 H 1141.77 6.46507 -0.439592 0
M  V30 11885 N 1135.18 -0.111886 1.57202 0
M  V30 11886 C 1136.11 -1.16274 1.97517 0
M  V30 11887 C 1137.13 -1.37259 0.875425 0
M  V30 11888 O 1138.31 -1.36208 1.15367 0
M  V30 11889 C 1135.41 -2.52145 2.26442 0
M  V30 11890 C 1134.59 -2.51666 3.57747 0
M  V30 11891 C 1133.65 -3.69337 3.74802 0
M  V30 11892 O 1132.67 -3.52596 4.46839 0
M  V30 11893 N 1133.87 -4.88177 3.14108 0
M  V30 11894 H 1136.64 -0.819747 2.88271 0
M  V30 11895 H 1134.2 -0.301076 1.59076 0
M  V30 11896 H 1136.19 -3.29437 2.3506 0
M  V30 11897 H 1134.76 -2.78599 1.41779 0
M  V30 11898 H 1133.98 -1.60038 3.60252 0
M  V30 11899 H 1135.27 -2.48408 4.44039 0
M  V30 11900 H 1134.67 -5.04682 2.55564 0
M  V30 11901 H 1133.23 -5.6312 3.28237 0
M  V30 11902 N 1136.66 -1.52894 -0.382264 0
M  V30 11903 C 1137.59 -1.74413 -1.48703 0
M  V30 11904 C 1138.6 -0.624663 -1.50339 0
M  V30 11905 O 1139.79 -0.900527 -1.54119 0
M  V30 11906 C 1136.89 -1.79387 -2.8753 0
M  V30 11907 C 1136.07 -3.08794 -3.09783 0
M  V30 11908 C 1135.12 -3.05226 -4.2863 0
M  V30 11909 O 1134.15 -3.79073 -4.24609 0
M  V30 11910 N 1135.35 -2.2488 -5.35172 0
M  V30 11911 H 1138.12 -2.69734 -1.30628 0
M  V30 11912 H 1135.68 -1.51465 -0.571842 0
M  V30 11913 H 1137.67 -1.74498 -3.65147 0
M  V30 11914 H 1136.24 -0.914233 -2.98932 0
M  V30 11915 H 1135.46 -3.27118 -2.19971 0
M  V30 11916 H 1136.75 -3.94347 -3.21509 0
M  V30 11917 H 1136.15 -1.64363 -5.41296 0
M  V30 11918 H 1134.7 -2.25825 -6.1143 0
M  V30 11919 N 1138.14 0.641106 -1.43971 0
M  V30 11920 C 1139.55 1.22254 -1.41106 0
M  V30 11921 C 1139.9 1.95825 -0.121284 0
M  V30 11922 O 1139.02 2.01901 0.77879 0
M  V30 11923 C 1139.62 2.22364 -2.55617 0
M  V30 11924 C 1138.18 2.75957 -2.55978 0
M  V30 11925 C 1137.33 1.50792 -2.32717 0
M  V30 11926 H 1140.28 0.432381 -1.52696 0
M  V30 11927 H 1140.3 3.04775 -2.27799 0
M  V30 11928 H 1139.81 1.68789 -3.49474 0
M  V30 11929 H 1137.91 3.33562 -1.66034 0
M  V30 11930 H 1138.02 3.22676 -3.54142 0
M  V30 11931 H 1136.39 1.7857 -1.81617 0
M  V30 11932 H 1137.17 0.991343 -3.28675 0
M  V30 11933 N 1139.62 1.30703 0.880598 0
M  V30 11934 C 1140.55 1.11783 1.98947 0
M  V30 11935 C 1141.53 0.0242461 1.62582 0
M  V30 11936 O 1142.71 0.178641 1.87652 0
M  V30 11937 C 1139.84 0.705762 3.31265 0
M  V30 11938 C 1138.88 1.80084 3.86616 0
M  V30 11939 S 1139.72 3.40416 4.13373 0
M  V30 11940 C 1140.87 3.01122 5.48704 0
M  V30 11941 H 1141.11 2.05658 2.14691 0
M  V30 11942 H 1138.64 1.15067 1.02951 0
M  V30 11943 H 1140.6 0.474754 4.07745 0
M  V30 11944 H 1139.26 -0.213699 3.13372 0
M  V30 11945 H 1138.45 1.4649 4.82241 0
M  V30 11946 H 1138.05 1.98636 3.16891 0
M  V30 11947 H 1140.34 2.49355 6.29943 0
M  V30 11948 H 1141.29 3.95671 5.87239 0
M  V30 11949 H 1141.7 2.38865 5.11472 0
M  V30 11950 N 1141.09 -1.09351 1.1349 0
M  V30 11951 C 1142.06 -2.14185 0.815919 0
M  V30 11952 C 1143.06 -1.59845 -0.174976 0
M  V30 11953 O 1144.25 -1.74122 0.0521971 0
M  V30 11954 C 1141.38 -3.40224 0.214517 0
M  V30 11955 H 1142.57 -2.43913 1.74489 0
M  V30 11956 H 1140.12 -1.24902 0.939634 0
M  V30 11957 H 1140.86 -3.16123 -0.723634 0
M  V30 11958 H 1140.64 -3.80958 0.928102 0
M  V30 11959 H 1142.13 -4.17599 0.00821999 0
M  V30 11960 N 1142.57 -0.928524 -1.27343 0
M  V30 11961 C 1143.5 -0.445627 -2.29208 0
M  V30 11962 C 1144.48 0.494508 -1.62753 0
M  V30 11963 O 1145.67 0.399082 -1.90055 0
M  V30 11964 C 1142.8 0.301684 -3.45987 0
M  V30 11965 C 1141.75 -0.550695 -4.24442 0
M  V30 11966 C 1141.08 0.325833 -5.33706 0
M  V30 11967 C 1142.38 -1.81559 -4.89728 0
M  V30 11968 H 1144.07 -1.29696 -2.69851 0
M  V30 11969 H 1141.62 -0.625085 -1.29725 0
M  V30 11970 H 1143.57 0.650455 -4.1635 0
M  V30 11971 H 1142.29 1.18705 -3.04264 0
M  V30 11972 H 1140.95 -0.882185 -3.55827 0
M  V30 11973 H 1140.6 1.21018 -4.88225 0
M  V30 11974 H 1140.3 -0.240994 -5.87106 0
M  V30 11975 H 1141.83 0.670156 -6.06911 0
M  V30 11976 H 1143.24 -1.53483 -5.52373 0
M  V30 11977 H 1141.64 -2.32598 -5.53189 0
M  V30 11978 H 1142.71 -2.53461 -4.13383 0
M  V30 11979 N 1144.05 1.41491 -0.694123 0
M  V30 11980 C 1145.01 2.2917 -0.0368562 0
M  V30 11981 C 1146.01 1.44305 0.709426 0
M  V30 11982 O 1147.2 1.6547 0.544533 0
M  V30 11983 C 1144.33 3.27156 0.958201 0
M  V30 11984 H 1145.53 2.88787 -0.808829 0
M  V30 11985 H 1143.08 1.49453 -0.457538 0
M  V30 11986 H 1143.82 2.72516 1.75799 0
M  V30 11987 H 1143.6 3.89776 0.426227 0
M  V30 11988 H 1145.09 3.92863 1.41592 0
M  V30 11989 N 1145.53 0.438773 1.51369 0
M  V30 11990 C 1146.77 -0.127401 2.02399 0
M  V30 11991 C 1147.11 -1.42235 1.32223 0
M  V30 11992 O 1146.38 -1.89513 0.437607 0
M  V30 11993 C 1146.66 -0.344673 3.58447 0
M  V30 11994 C 1146.52 0.969027 4.39238 0
M  V30 11995 C 1147.84 -1.11381 4.25773 0
M  V30 11996 H 1144.96 -0.0448281 0.735635 0
M  V30 11997 H 1147.6 0.57805 1.80993 0
M  V30 11998 H 1145.75 -0.945582 3.76817 0
M  V30 11999 H 1147.42 1.60403 4.32514 0
M  V30 12000 H 1145.66 1.57329 4.04265 0
M  V30 12001 H 1146.33 0.771029 5.46589 0
M  V30 12002 H 1148.81 -0.604785 4.11681 0
M  V30 12003 H 1147.69 -1.23459 5.34835 0
M  V30 12004 H 1147.95 -2.14225 3.8673 0
M  V30 12005 N 1147.01 -1.56678 0.170181 0
M  V30 12006 C 1147.97 -2.16698 -0.746622 0
M  V30 12007 C 1148.97 -1.11475 -1.15888 0
M  V30 12008 O 1150.16 -1.36994 -1.07602 0
M  V30 12009 C 1147.29 -2.74892 -2.01612 0
M  V30 12010 H 1148.48 -2.99061 -0.224135 0
M  V30 12011 H 1146.04 -1.56098 -0.0793761 0
M  V30 12012 H 1146.77 -1.96259 -2.58172 0
M  V30 12013 H 1146.56 -3.51896 -1.72949 0
M  V30 12014 H 1148.05 -3.21058 -2.67042 0
M  V30 12015 N 1148.48 0.103547 -1.57259 0
M  V30 12016 C 1149.41 1.12714 -2.04494 0
M  V30 12017 C 1150.39 1.42278 -0.932255 0
M  V30 12018 O 1151.58 1.52453 -1.20298 0
M  V30 12019 C 1148.71 2.44927 -2.46228 0
M  V30 12020 C 1147.66 2.2979 -3.61082 0
M  V30 12021 C 1146.99 3.67105 -3.88765 0
M  V30 12022 C 1148.29 1.7455 -4.9227 0
M  V30 12023 H 1149.98 0.734198 -2.90258 0
M  V30 12024 H 1147.53 0.351725 -1.39638 0
M  V30 12025 H 1149.48 3.16798 -2.77879 0
M  V30 12026 H 1148.21 2.8614 -1.57453 0
M  V30 12027 H 1146.87 1.60366 -3.29664 0
M  V30 12028 H 1146.51 4.05831 -2.97171 0
M  V30 12029 H 1146.21 3.57825 -4.66084 0
M  V30 12030 H 1147.74 4.40456 -4.22884 0
M  V30 12031 H 1149.15 2.36253 -5.22358 0
M  V30 12032 H 1147.55 1.76051 -5.73695 0
M  V30 12033 H 1148.62 0.704242 -4.79759 0
M  V30 12034 N 1149.96 1.53094 0.37415 0
M  V30 12035 C 1151.19 1.72758 1.13852 0
M  V30 12036 C 1151.6 0.452638 1.83294 0
M  V30 12037 O 1150.96 -0.573906 1.73241 0
M  V30 12038 C 1151.01 2.88724 2.17534 0
M  V30 12039 O 1150.73 4.11284 1.5092 0
M  V30 12040 C 1152.23 3.2019 3.06584 0
M  V30 12041 H 1149.45 0.578028 0.340771 0
M  V30 12042 H 1152 1.99805 0.435683 0
M  V30 12043 H 1150.15 2.64096 2.83429 0
M  V30 12044 H 1150.57 4.76162 2.19932 0
M  V30 12045 H 1152.04 4.04759 3.75332 0
M  V30 12046 H 1152.52 2.35193 3.70919 0
M  V30 12047 H 1153.12 3.46712 2.46315 0
M  V30 12048 N 1151.44 -0.633461 1.44309 0
M  V30 12049 C 1152.39 -1.74554 1.50995 0
M  V30 12050 C 1153.36 -1.62199 0.357873 0
M  V30 12051 O 1154.54 -1.82156 0.567787 0
M  V30 12052 C 1151.68 -3.12792 1.45791 0
M  V30 12053 C 1150.79 -3.3614 2.71356 0
M  V30 12054 C 1149.93 -4.64337 2.58002 0
M  V30 12055 C 1148.97 -4.80855 3.78741 0
M  V30 12056 N 1148.11 -6.00327 3.64077 0
M  V30 12057 H 1152.95 -1.68174 2.46011 0
M  V30 12058 H 1150.48 -0.820407 1.22097 0
M  V30 12059 H 1152.44 -3.92735 1.40765 0
M  V30 12060 H 1151.07 -3.18193 0.543445 0
M  V30 12061 H 1150.12 -2.50154 2.86579 0
M  V30 12062 H 1151.43 -3.44226 3.60985 0
M  V30 12063 H 1150.59 -5.52437 2.50795 0
M  V30 12064 H 1149.33 -4.58605 1.65929 0
M  V30 12065 H 1148.33 -3.91185 3.86334 0
M  V30 12066 H 1149.56 -4.88403 4.71847 0
M  V30 12067 H 1147.5 -5.9569 2.74754 0
M  V30 12068 H 1147.42 -6.09459 4.47321 0
M  V30 12069 H 1148.69 -6.90995 3.60758 0
M  V30 12070 N 1152.92 -1.31168 -0.873655 0
M  V30 12071 C 1154.17 -1.20404 -1.62319 0
M  V30 12072 C 1154.49 0.238829 -1.93532 0
M  V30 12073 O 1153.76 1.15854 -1.57971 0
M  V30 12074 H 1152.34 -0.442632 -0.601736 0
M  V30 12075 H 1155 -1.64445 -1.04613 0
M  V30 12076 H 1154.1 -1.77309 -2.56842 0
M  V30 12077 N 1154.4 1.08748 -1.14068 0
M  V30 12078 C 1155.64 1.80707 -0.904947 0
M  V30 12079 C 1155.97 1.86478 0.570167 0
M  V30 12080 O 1155.24 1.35536 1.41445 0
M  V30 12081 H 1153.82 0.669261 -0.331811 0
M  V30 12082 H 1156.48 1.31494 -1.43859 0
M  V30 12083 H 1155.57 2.83653 -1.30182 0
M  V30 12084 N 1155.87 0.935264 1.26849 0
M  V30 12085 C 1156.78 0.446122 2.30319 0
M  V30 12086 C 1157.8 -0.476965 1.67335 0
M  V30 12087 O 1158.98 -0.357934 1.98194 0
M  V30 12088 C 1156.04 -0.286297 3.45516 0
M  V30 12089 C 1155.1 0.672626 4.23998 0
M  V30 12090 C 1154.34 -0.0249345 5.33694 0
M  V30 12091 O 1154.56 -1.24296 5.56693 0
M  V30 12092 O 1153.49 0.650752 5.98372 0
M  V30 12093 H 1157.32 1.30546 2.74211 0
M  V30 12094 H 1154.9 0.70091 1.31938 0
M  V30 12095 H 1156.79 -0.699109 4.1556 0
M  V30 12096 H 1155.46 -1.12112 3.03665 0
M  V30 12097 H 1154.37 1.13527 3.56458 0
M  V30 12098 H 1155.7 1.47489 4.69583 0
M  V30 12099 N 1157.35 -1.41121 0.701616 0
M  V30 12100 C 1158.32 -2.29148 0.0490091 0
M  V30 12101 C 1159.32 -1.44679 -0.701763 0
M  V30 12102 O 1160.51 -1.65757 -0.53575 0
M  V30 12103 C 1157.64 -3.2766 -0.940837 0
M  V30 12104 H 1158.83 -2.88354 0.824133 0
M  V30 12105 H 1156.38 -1.49209 0.465457 0
M  V30 12106 H 1157.12 -2.73445 -1.74351 0
M  V30 12107 H 1156.9 -3.89997 -0.405551 0
M  V30 12108 H 1158.39 -3.93609 -1.39507 0
M  V30 12109 N 1158.83 -0.446794 -1.51134 0
M  V30 12110 C 1160.25 -0.0995905 -1.59289 0
M  V30 12111 C 1160.45 1.39191 -1.45699 0
M  V30 12112 O 1159.5 2.1628 -1.30303 0
M  V30 12113 C 1160.82 -0.628135 -2.94066 0
M  V30 12114 C 1162.36 -0.589409 -3.074 0
M  V30 12115 C 1162.84 -1.09509 -4.44715 0
M  V30 12116 N 1164.33 -1.05347 -4.51061 0
M  V30 12117 C 1165.06 -1.41551 -5.55654 0
M  V30 12118 N 1164.56 -1.85086 -6.67619 0
M  V30 12119 N 1166.35 -1.33307 -5.46064 0
M  V30 12120 H 1158.5 -1.41713 -1.58213 0
M  V30 12121 H 1160.77 -0.584555 -0.746324 0
M  V30 12122 H 1160.47 -1.67205 -3.09411 0
M  V30 12123 H 1160.35 -0.0582398 -3.77155 0
M  V30 12124 H 1162.73 0.445541 -2.91717 0
M  V30 12125 H 1162.82 -1.19582 -2.26128 0
M  V30 12126 H 1162.46 -2.12855 -4.61146 0
M  V30 12127 H 1162.39 -0.465122 -5.24542 0
M  V30 12128 H 1164.88 -0.733877 -3.70706 0
M  V30 12129 H 1165.19 -2.10923 -7.43459 0
M  V30 12130 H 1163.54 -1.8902 -6.68802 0
M  V30 12131 H 1166.73 -0.991547 -4.57478 0
M  V30 12132 H 1166.9 -1.6185 -6.27462 0
M  V30 12133 N 1160.31 1.56586 -0.178487 0
M  V30 12134 C 1161.56 1.96709 0.4637 0
M  V30 12135 C 1161.88 1.06586 1.63292 0
M  V30 12136 O 1161.15 0.133683 1.95443 0
M  V30 12137 H 1159.73 0.726381 0.174299 0
M  V30 12138 H 1162.39 1.9314 -0.261345 0
M  V30 12139 H 1161.49 3.01164 0.818934 0
M  V30 12140 N 1161.79 -0.095206 1.57312 0
M  V30 12141 C 1162.7 -1.13388 2.05379 0
M  V30 12142 C 1163.71 -1.43868 0.978668 0
M  V30 12143 O 1164.89 -1.54512 1.29182 0
M  V30 12144 C 1161.95 -2.43444 2.46852 0
M  V30 12145 C 1161.01 -2.20146 3.68557 0
M  V30 12146 C 1160.25 -3.44001 4.08043 0
M  V30 12147 O 1160.47 -4.52233 3.47623 0
M  V30 12148 O 1159.4 -3.33596 5.00997 0
M  V30 12149 H 1163.23 -0.755622 2.9415 0
M  V30 12150 H 1160.82 -0.307707 1.46197 0
M  V30 12151 H 1162.7 -3.20027 2.74155 0
M  V30 12152 H 1161.37 -2.80696 1.61219 0
M  V30 12153 H 1160.28 -1.41345 3.46371 0
M  V30 12154 H 1161.61 -1.87787 4.54969 0
M  V30 12155 N 1163.26 -1.53291 -0.366026 0
M  V30 12156 C 1164.19 -1.82675 -1.45437 0
M  V30 12157 C 1165.18 -0.680227 -1.55907 0
M  V30 12158 O 1166.36 -0.930032 -1.70482 0
M  V30 12159 C 1163.49 -2.01626 -2.8278 0
M  V30 12160 C 1162.44 -3.17391 -2.87135 0
M  V30 12161 C 1161.77 -3.21634 -4.27148 0
M  V30 12162 C 1163.07 -4.5599 -2.54697 0
M  V30 12163 H 1164.76 -2.73818 -1.21096 0
M  V30 12164 H 1162.31 -1.31754 -0.581108 0
M  V30 12165 H 1164.26 -2.20765 -3.58944 0
M  V30 12166 H 1162.99 -1.07193 -3.08508 0
M  V30 12167 H 1161.65 -2.98071 -2.13422 0
M  V30 12168 H 1161.29 -2.2484 -4.49951 0
M  V30 12169 H 1160.99 -3.99414 -4.30978 0
M  V30 12170 H 1162.52 -3.42957 -5.05186 0
M  V30 12171 H 1163.93 -4.75294 -3.20575 0
M  V30 12172 H 1162.33 -5.36008 -2.69844 0
M  V30 12173 H 1163.4 -4.61133 -1.49949 0
M  V30 12174 N 1164.74 0.6258 -1.44643 0
M  V30 12175 C 1165.99 1.38525 -1.47706 0
M  V30 12176 C 1166.32 1.94179 -0.111703 0
M  V30 12177 O 1165.57 1.74432 0.887237 0
M  V30 12178 C 1165.87 2.56466 -2.48917 0
M  V30 12179 C 1165.54 2.19069 -3.94106 0
M  V30 12180 C 1164.2 2.08583 -4.33643 0
M  V30 12181 C 1166.55 1.89608 -4.85488 0
M  V30 12182 C 1163.88 1.66831 -5.6248 0
M  V30 12183 C 1166.23 1.49347 -6.14718 0
M  V30 12184 C 1164.9 1.37406 -6.53204 0
M  V30 12185 H 1164.17 0.506899 -0.540494 0
M  V30 12186 H 1166.81 0.709128 -1.77887 0
M  V30 12187 H 1165.12 3.29335 -2.12239 0
M  V30 12188 H 1166.81 3.14695 -2.48532 0
M  V30 12189 H 1163.4 2.28151 -3.62829 0
M  V30 12190 H 1167.59 1.96616 -4.55693 0
M  V30 12191 H 1162.84 1.56195 -5.91112 0
M  V30 12192 H 1167.02 1.2559 -6.84982 0
M  V30 12193 H 1164.65 1.04826 -7.52938 0
M  V30 12194 N 1166.22 1.31629 0.866686 0
M  V30 12195 C 1167.47 1.22693 1.62228 0
M  V30 12196 C 1167.82 -0.212134 1.91227 0
M  V30 12197 O 1167.11 -1.1465 1.53512 0
M  V30 12198 C 1167.31 2.00775 2.95676 0
M  V30 12199 C 1167.14 3.52128 2.79708 0
M  V30 12200 C 1165.91 4.21476 2.78722 0
M  V30 12201 C 1168.11 4.47013 2.5433 0
M  V30 12202 N 1166.09 5.58963 2.53838 0
M  V30 12203 C 1167.46 5.72192 2.3874 0
M  V30 12204 C 1169.51 4.36404 2.39701 0
M  V30 12205 C 1168.22 6.8796 2.10008 0
M  V30 12206 C 1170.24 5.51959 2.12358 0
M  V30 12207 C 1169.6 6.76129 1.97559 0
M  V30 12208 H 1165.7 0.504088 0.597845 0
M  V30 12209 H 1168.29 1.65856 1.01979 0
M  V30 12210 H 1166.46 1.59975 3.53924 0
M  V30 12211 H 1168.19 1.83831 3.60539 0
M  V30 12212 H 1164.95 3.73478 2.91224 0
M  V30 12213 H 1165.37 6.31362 2.44358 0
M  V30 12214 H 1170.01 3.41066 2.49868 0
M  V30 12215 H 1167.73 7.83321 1.98578 0
M  V30 12216 H 1171.32 5.45669 2.01834 0
M  V30 12217 H 1170.2 7.64033 1.76701 0
M  V30 12218 N 1167.7 -1.08142 1.14644 0
M  V30 12219 C 1168.98 -1.77254 0.827071 0
M  V30 12220 C 1169.36 -1.99885 -0.67891 0
M  V30 12221 O 1168.7 -1.61084 -1.62062 0
M  V30 12222 C 1168.91 -3.08658 1.62884 0
M  V30 12223 C 1170.26 -3.83143 1.82993 0
M  V30 12224 O 1171.29 -3.18447 1.59593 0
M  V30 12225 O 1170.15 -4.9932 2.2213 0
M  V30 12226 H 1167.24 -0.769356 0.30335 0
M  V30 12227 H 1169.79 -1.1458 1.25178 0
M  V30 12228 H 1168.56 -2.87753 2.65168 0
M  V30 12229 H 1168.18 -3.79061 1.19994 0
M  V30 12230 N 1169.18 -0.941978 -1.26351 0
M  V30 12231 C 1170.45 -0.507822 -1.88893 0
M  V30 12232 C 1170.83 1.0146 -1.85119 0
M  V30 12233 O 1170.18 1.87495 -1.30606 0
M  V30 12234 C 1170.39 -1.07007 -3.3219 0
M  V30 12235 C 1171.74 -1.13922 -4.09032 0
M  V30 12236 O 1172.76 -1.02072 -3.41262 0
M  V30 12237 O 1171.62 -1.32362 -5.30229 0
M  V30 12238 H 1168.72 -0.165621 -0.810246 0
M  V30 12239 H 1171.26 -1.03459 -1.34515 0
M  V30 12240 H 1170.04 -2.11366 -3.29302 0
M  V30 12241 H 1169.66 -0.525797 -3.94108 0
M  V30 12242 N 1170.66 1.40747 -0.709091 0
M  V30 12243 C 1171.9 2.00606 -0.245324 0
M  V30 12244 C 1172.22 1.56489 1.16346 0
M  V30 12245 O 1171.49 0.801456 1.78755 0
M  V30 12246 H 1170.07 0.741833 -0.0877098 0
M  V30 12247 H 1172.74 1.72178 -0.913271 0
M  V30 12248 H 1171.83 3.10901 -0.273322 0
M  V30 12249 N 1172.13 0.454803 1.50895 0
M  V30 12250 C 1173.04 -0.353495 2.31921 0
M  V30 12251 C 1174.06 -1.01136 1.41589 0
M  V30 12252 O 1175.24 -1.00291 1.74653 0
M  V30 12253 C 1172.3 -1.43032 3.15821 0
M  V30 12254 C 1171.36 -0.790763 4.21954 0
M  V30 12255 C 1170.59 -1.81628 5.01843 0
M  V30 12256 O 1170.82 -3.04078 4.8259 0
M  V30 12257 O 1169.75 -1.39713 5.8546 0
M  V30 12258 H 1173.58 0.308463 3.02129 0
M  V30 12259 H 1171.16 0.216971 1.47816 0
M  V30 12260 H 1173.04 -2.05444 3.67927 0
M  V30 12261 H 1171.72 -2.07605 2.48358 0
M  V30 12262 H 1170.63 -0.128127 3.73881 0
M  V30 12263 H 1171.96 -0.188251 4.9184 0
M  V30 12264 N 1173.61 -1.56489 0.186789 0
M  V30 12265 C 1174.84 -2.02163 -0.463126 0
M  V30 12266 C 1175.26 -1.06612 -1.54969 0
M  V30 12267 O 1174.62 -0.0482139 -1.81236 0
M  V30 12268 C 1174.67 -3.46337 -1.00416 0
M  V30 12269 O 1173.77 -3.53889 -2.11747 0
M  V30 12270 H 1173.11 -0.65496 -0.109194 0
M  V30 12271 H 1175.64 -2.02459 0.295227 0
M  V30 12272 H 1175.65 -3.85959 -1.32287 0
M  V30 12273 H 1174.33 -4.15376 -0.208693 0
M  V30 12274 H 1172.9 -3.26136 -1.80803 0
M  V30 12275 N 1175.09 0.086862 -1.5736 0
M  V30 12276 C 1176.02 1.10538 -2.05678 0
M  V30 12277 C 1177 1.41281 -0.947293 0
M  V30 12278 O 1178.19 1.51169 -1.21908 0
M  V30 12279 C 1175.32 2.42302 -2.48812 0
M  V30 12280 C 1174.27 2.25948 -3.63499 0
M  V30 12281 C 1173.6 3.62961 -3.92637 0
M  V30 12282 C 1174.9 1.69319 -4.94094 0
M  V30 12283 H 1176.59 0.703371 -2.91021 0
M  V30 12284 H 1174.14 0.336895 -1.40004 0
M  V30 12285 H 1176.09 3.13833 -2.81224 0
M  V30 12286 H 1174.81 2.84454 -1.60479 0
M  V30 12287 H 1173.47 1.5686 -3.31347 0
M  V30 12288 H 1173.12 4.02656 -3.01459 0
M  V30 12289 H 1172.82 3.52862 -4.69853 0
M  V30 12290 H 1174.34 4.35946 -4.27531 0
M  V30 12291 H 1175.76 2.30699 -5.24834 0
M  V30 12292 H 1174.15 1.69957 -5.7553 0
M  V30 12293 H 1175.22 0.653318 -4.80479 0
M  V30 12294 N 1176.57 1.53483 0.357892 0
M  V30 12295 C 1177.48 1.83434 1.4625 0
M  V30 12296 C 1178.49 0.723313 1.58254 0
M  V30 12297 O 1179.67 1.01416 1.74002 0
M  V30 12298 C 1176.73 2.0249 2.81423 0
M  V30 12299 C 1175.8 3.26378 2.78883 0
M  V30 12300 C 1175.03 3.44516 4.07608 0
M  V30 12301 O 1175.25 2.66787 5.04163 0
M  V30 12302 O 1174.19 4.37898 4.12952 0
M  V30 12303 H 1178.01 2.77294 1.23861 0
M  V30 12304 H 1175.6 1.38958 0.548722 0
M  V30 12305 H 1177.48 2.16552 3.61501 0
M  V30 12306 H 1176.15 1.11819 3.03773 0
M  V30 12307 H 1175.06 3.17733 1.97475 0
M  V30 12308 H 1176.39 4.16996 2.61486 0
M  V30 12309 N 1178.05 -0.61812 1.44973 0
M  V30 12310 C 1179.29 -1.37944 1.48658 0
M  V30 12311 C 1179.62 -1.93805 0.123749 0
M  V30 12312 O 1178.9 -1.74434 -0.860401 0
M  V30 12313 C 1179.18 -2.53515 2.55739 0
M  V30 12314 C 1179.04 -2.02918 4.01428 0
M  V30 12315 C 1180.35 -3.55674 2.59199 0
M  V30 12316 H 1177.47 -0.500223 0.541244 0
M  V30 12317 H 1180.12 -0.69774 1.76725 0
M  V30 12318 H 1178.27 -3.11669 2.31937 0
M  V30 12319 H 1179.94 -1.49494 4.36405 0
M  V30 12320 H 1178.18 -1.33999 4.12586 0
M  V30 12321 H 1178.85 -2.86181 4.72021 0
M  V30 12322 H 1181.33 -3.07343 2.80499 0
M  V30 12323 H 1180.2 -4.34042 3.36004 0
M  V30 12324 H 1180.46 -4.10601 1.63888 0
M  V30 12325 N 1179.52 -1.32087 -0.859693 0
M  V30 12326 C 1180.45 -1.23204 -1.98351 0
M  V30 12327 C 1181.43 -0.116974 -1.69697 0
M  V30 12328 O 1182.62 -0.303301 -1.91817 0
M  V30 12329 C 1179.75 -0.949171 -3.34078 0
M  V30 12330 C 1178.7 -2.02493 -3.77069 0
M  V30 12331 C 1178.03 -1.59455 -5.1037 0
M  V30 12332 C 1179.33 -3.43934 -3.93074 0
M  V30 12333 H 1181.02 -2.17227 -2.0604 0
M  V30 12334 H 1178.57 -1.04577 -0.989931 0
M  V30 12335 H 1180.52 -0.873594 -4.12245 0
M  V30 12336 H 1179.25 0.0267095 -3.26589 0
M  V30 12337 H 1177.91 -2.09057 -3.01149 0
M  V30 12338 H 1177.55 -0.606256 -4.99333 0
M  V30 12339 H 1177.25 -2.31429 -5.40106 0
M  V30 12340 H 1178.78 -1.53325 -5.91036 0
M  V30 12341 H 1180.19 -3.39986 -4.61608 0
M  V30 12342 H 1178.59 -4.14214 -4.3422 0
M  V30 12343 H 1179.66 -3.83965 -2.9614 0
M  V30 12344 N 1181 1.07532 -1.15215 0
M  V30 12345 C 1181.91 2.18222 -0.861192 0
M  V30 12346 C 1182.93 1.73246 0.161798 0
M  V30 12347 O 1184.1 2.01397 -0.0118386 0
M  V30 12348 C 1181.17 3.44902 -0.352601 0
M  V30 12349 C 1180.23 4.04455 -1.43926 0
M  V30 12350 C 1179.46 5.25089 -0.954841 0
M  V30 12351 O 1179.69 5.70048 0.200294 0
M  V30 12352 O 1178.62 5.76269 -1.73774 0
M  V30 12353 H 1182.45 2.45599 -1.78648 0
M  V30 12354 H 1180.03 1.16835 -0.93112 0
M  V30 12355 H 1181.91 4.21333 -0.0753347 0
M  V30 12356 H 1180.59 3.19082 0.544841 0
M  V30 12357 H 1179.49 3.29573 -1.7701 0
M  V30 12358 H 1180.83 4.34544 -2.31155 0
M  V30 12359 N 1182.48 0.948665 1.2585 0
M  V30 12360 C 1183.9 0.652147 1.45668 0
M  V30 12361 C 1184.1 -0.792217 1.85273 0
M  V30 12362 O 1183.15 -1.56812 1.97905 0
M  V30 12363 C 1184.47 1.61998 2.53332 0
M  V30 12364 C 1186.01 1.6305 2.67178 0
M  V30 12365 C 1186.49 2.58582 3.78021 0
M  V30 12366 N 1187.98 2.56911 3.85423 0
M  V30 12367 C 1188.71 3.27511 4.70664 0
M  V30 12368 N 1188.21 4.07563 5.60236 0
M  V30 12369 N 1190 3.16427 4.64576 0
M  V30 12370 H 1182.15 1.88215 0.984325 0
M  V30 12371 H 1184.42 0.809251 0.493778 0
M  V30 12372 H 1184.12 2.65137 2.31075 0
M  V30 12373 H 1184 1.37784 3.51134 0
M  V30 12374 H 1186.38 0.606315 2.88804 0
M  V30 12375 H 1186.47 1.9132 1.69795 0
M  V30 12376 H 1186.11 3.61122 3.57146 0
M  V30 12377 H 1186.04 2.27598 4.74875 0
M  V30 12378 H 1188.53 1.9879 3.21389 0
M  V30 12379 H 1188.84 4.58367 6.22189 0
M  V30 12380 H 1187.19 4.11662 5.59964 0
M  V30 12381 H 1190.38 2.53364 3.93604 0
M  V30 12382 H 1190.55 3.71714 5.30785 0
M  V30 12383 N 1183.96 -1.40369 0.716545 0
M  V30 12384 C 1185.21 -2.00473 0.255959 0
M  V30 12385 C 1185.53 -1.57104 -1.15514 0
M  V30 12386 O 1184.8 -0.810925 -1.78328 0
M  V30 12387 H 1183.38 -0.741357 0.0916427 0
M  V30 12388 H 1186.04 -1.71692 0.922389 0
M  V30 12389 H 1185.14 -3.10752 0.289806 0
M  V30 12390 N 1185.44 -0.462799 -1.50652 0
M  V30 12391 C 1186.4 0.324264 -2.26895 0
M  V30 12392 C 1187.4 0.927687 -1.31342 0
M  V30 12393 O 1188.59 0.798159 -1.54839 0
M  V30 12394 C 1185.72 1.46113 -3.08 0
M  V30 12395 H 1186.91 -0.344266 -2.97917 0
M  V30 12396 H 1184.47 -0.216631 -1.54791 0
M  V30 12397 H 1185.2 2.16496 -2.41454 0
M  V30 12398 H 1184.99 1.03433 -3.78212 0
M  V30 12399 H 1186.48 2.01655 -3.65684 0
M  V30 12400 N 1186.91 1.56388 -0.195085 0
M  V30 12401 C 1188.14 2.0167 0.448637 0
M  V30 12402 C 1188.55 1.07439 1.55736 0
M  V30 12403 O 1187.9 0.071441 1.83561 0
M  V30 12404 C 1187.96 3.43348 1.06547 0
M  V30 12405 C 1187.62 4.569 0.0954901 0
M  V30 12406 C 1188.62 5.15232 -0.695116 0
M  V30 12407 C 1186.3 5.02298 -0.0155889 0
M  V30 12408 C 1188.3 6.1741 -1.58377 0
M  V30 12409 C 1185.98 6.0432 -0.907799 0
M  V30 12410 C 1186.98 6.6175 -1.69045 0
M  V30 12411 O 1186.67 7.6179 -2.56771 0
M  V30 12412 H 1186.4 0.665805 0.116962 0
M  V30 12413 H 1188.96 2.03182 -0.301062 0
M  V30 12414 H 1187.19 3.38823 1.86376 0
M  V30 12415 H 1188.88 3.72438 1.61385 0
M  V30 12416 H 1189.64 4.81026 -0.619604 0
M  V30 12417 H 1185.52 4.57293 0.583424 0
M  V30 12418 H 1189.06 6.62164 -2.1951 0
M  V30 12419 H 1184.96 6.37949 -0.984427 0
M  V30 12420 H 1185.73 7.79209 -2.50551 0
M  V30 12421 N 1188.39 -0.0785156 1.57404 0
M  V30 12422 C 1189.62 -0.792042 1.9114 0
M  V30 12423 C 1190.04 -1.71458 0.790408 0
M  V30 12424 O 1189.39 -1.80959 -0.236662 0
M  V30 12425 C 1189.44 -1.59138 3.24588 0
M  V30 12426 O 1189.16 -0.705931 4.32375 0
M  V30 12427 C 1190.67 -2.4065 3.72293 0
M  V30 12428 H 1187.89 -0.225566 0.63195 0
M  V30 12429 H 1190.43 -0.0507929 2.04437 0
M  V30 12430 H 1188.58 -2.28498 3.12838 0
M  V30 12431 H 1189 -1.26121 5.09111 0
M  V30 12432 H 1190.47 -2.92204 4.68317 0
M  V30 12433 H 1190.95 -3.1987 3.00965 0
M  V30 12434 H 1191.56 -1.7646 3.86965 0
M  V30 12435 N 1189.87 -1.5367 -0.349747 0
M  V30 12436 C 1190.8 -1.77528 -1.4497 0
M  V30 12437 C 1191.82 -0.656412 -1.4898 0
M  V30 12438 O 1193 -0.933016 -1.52174 0
M  V30 12439 C 1190.1 -1.85445 -2.8366 0
M  V30 12440 C 1189.28 -3.15295 -3.03163 0
M  V30 12441 C 1188.34 -3.1425 -4.22059 0
M  V30 12442 O 1187.36 -3.87994 -4.16472 0
M  V30 12443 N 1188.56 -2.36181 -5.30282 0
M  V30 12444 H 1191.33 -2.72444 -1.24877 0
M  V30 12445 H 1188.89 -1.52644 -0.539586 0
M  V30 12446 H 1190.88 -1.82204 -3.61364 0
M  V30 12447 H 1189.45 -0.977436 -2.96926 0
M  V30 12448 H 1188.67 -3.31711 -2.12983 0
M  V30 12449 H 1189.96 -4.01078 -3.13072 0
M  V30 12450 H 1189.36 -1.75808 -5.37688 0
M  V30 12451 H 1187.92 -2.38744 -6.06502 0
M  V30 12452 N 1191.35 0.610423 -1.45298 0
M  V30 12453 C 1192.59 1.37154 -1.49388 0
M  V30 12454 C 1192.93 1.93737 -0.134025 0
M  V30 12455 O 1192.2 1.74888 0.851138 0
M  V30 12456 C 1192.49 2.52155 -2.5708 0
M  V30 12457 C 1192.34 2.00786 -4.02498 0
M  V30 12458 C 1193.66 3.54294 -2.61082 0
M  V30 12459 H 1190.78 0.497346 -0.54389 0
M  V30 12460 H 1193.42 0.688358 -1.77092 0
M  V30 12461 H 1191.57 3.10434 -2.33587 0
M  V30 12462 H 1193.24 1.47178 -4.37191 0
M  V30 12463 H 1191.48 1.31809 -4.1329 0
M  V30 12464 H 1192.15 2.83674 -4.73533 0
M  V30 12465 H 1194.63 3.05851 -2.82125 0
M  V30 12466 H 1193.51 4.32254 -3.38301 0
M  V30 12467 H 1193.77 4.09726 -1.66063 0
M  V30 12468 N 1192.83 1.32541 0.852676 0
M  V30 12469 C 1194.08 1.22567 1.60188 0
M  V30 12470 C 1194.39 -0.210594 1.94463 0
M  V30 12471 O 1195.59 -0.432214 2.68038 0
M  V30 12472 C 1194.05 2.14678 2.88862 0
M  V30 12473 C 1193.66 3.63398 2.62004 0
M  V30 12474 C 1195.4 2.13545 3.66877 0
M  V30 12475 C 1193.31 4.47464 3.86691 0
M  V30 12476 H 1192.24 0.455184 0.601102 0
M  V30 12477 H 1194.89 1.57515 0.941347 0
M  V30 12478 H 1193.27 1.72647 3.56383 0
M  V30 12479 H 1194.45 4.13783 2.02782 0
M  V30 12480 H 1192.76 3.66681 1.97316 0
M  V30 12481 H 1195.36 2.73589 4.59405 0
M  V30 12482 H 1195.7 1.12694 4.00756 0
M  V30 12483 H 1196.23 2.53866 3.06263 0
M  V30 12484 H 1192.97 5.49136 3.57952 0
M  V30 12485 H 1192.49 4.01829 4.45302 0
M  V30 12486 H 1194.17 4.60565 4.5441 0
M  V30 12487 N 1194.3 -1.0692 1.15784 0
M  V30 12488 C 1195.55 -1.796 0.935429 0
M  V30 12489 C 1195.88 -1.86935 -0.537173 0
M  V30 12490 O 1195.13 -1.35244 -1.41448 0
M  V30 12491 C 1195.43 -3.24389 1.50022 0
M  V30 12492 C 1195.1 -3.37145 2.99406 0
M  V30 12493 C 1193.76 -3.40334 3.40186 0
M  V30 12494 C 1196.11 -3.39584 3.95389 0
M  V30 12495 C 1193.44 -3.43569 4.75581 0
M  V30 12496 C 1195.79 -3.44356 5.30661 0
M  V30 12497 C 1194.46 -3.45824 5.70931 0
M  V30 12498 H 1193.73 -0.657201 0.342298 0
M  V30 12499 H 1196.37 -1.25784 1.44397 0
M  V30 12500 H 1194.68 -3.81015 0.91297 0
M  V30 12501 H 1196.38 -3.79209 1.30389 0
M  V30 12502 H 1192.97 -3.35365 2.66887 0
M  V30 12503 H 1197.15 -3.36337 3.64954 0
M  V30 12504 H 1192.41 -3.43006 5.06119 0
M  V30 12505 H 1196.58 -3.4519 6.04828 0
M  V30 12506 H 1194.21 -3.48084 6.75826 0
M  V30 12507 N 1195.78 -0.955326 -1.25345 0
M  V30 12508 C 1196.71 -0.494145 -2.28211 0
M  V30 12509 C 1197.69 0.459875 -1.63766 0
M  V30 12510 O 1198.88 0.358679 -1.90859 0
M  V30 12511 C 1196.01 0.228228 -3.46549 0
M  V30 12512 C 1194.96 -0.640601 -4.23179 0
M  V30 12513 C 1194.29 0.212553 -5.34277 0
M  V30 12514 C 1195.59 -1.91906 -4.85767 0
M  V30 12515 H 1197.28 -1.35391 -2.67039 0
M  V30 12516 H 1194.83 -0.652462 -1.2837 0
M  V30 12517 H 1196.78 0.561995 -4.17636 0
M  V30 12518 H 1195.51 1.12224 -3.06714 0
M  V30 12519 H 1194.16 -0.957462 -3.53876 0
M  V30 12520 H 1193.81 1.10634 -4.90682 0
M  V30 12521 H 1193.51 -0.365473 -5.86462 0
M  V30 12522 H 1195.04 0.541271 -6.08196 0
M  V30 12523 H 1196.45 -1.65165 -5.48993 0
M  V30 12524 H 1194.85 -2.44279 -5.48131 0
M  V30 12525 H 1195.92 -2.62173 -4.07914 0
M  V30 12526 N 1197.26 1.39987 -0.723979 0
M  V30 12527 C 1198.22 2.29041 -0.0854583 0
M  V30 12528 C 1199.22 1.45777 0.678657 0
M  V30 12529 O 1200.41 1.66588 0.509311 0
M  V30 12530 C 1197.55 3.29115 0.88859 0
M  V30 12531 H 1198.74 2.87006 -0.869903 0
M  V30 12532 H 1196.29 1.48449 -0.489136 0
M  V30 12533 H 1197.03 2.76184 1.69979 0
M  V30 12534 H 1196.81 3.90593 0.343454 0
M  V30 12535 H 1198.3 3.95778 1.33227 0
M  V30 12536 N 1198.74 0.470782 1.50404 0
M  V30 12537 C 1200.16 0.124919 1.5911 0
M  V30 12538 C 1200.36 -1.36855 1.47895 0
M  V30 12539 O 1199.41 -2.1418 1.33728 0
M  V30 12540 C 1200.72 0.674839 2.9303 0
M  V30 12541 C 1202.27 0.638239 3.06424 0
M  V30 12542 C 1202.75 1.1657 4.42917 0
M  V30 12543 N 1204.24 1.1251 4.49328 0
M  V30 12544 C 1204.97 1.50373 5.53331 0
M  V30 12545 N 1204.47 1.95684 6.6459 0
M  V30 12546 N 1206.26 1.41978 5.43874 0
M  V30 12547 H 1198.41 1.44212 1.55938 0
M  V30 12548 H 1200.68 0.596354 0.73693 0
M  V30 12549 H 1200.38 1.72106 3.06712 0
M  V30 12550 H 1200.26 0.118234 3.77015 0
M  V30 12551 H 1202.64 -0.399075 2.92389 0
M  V30 12552 H 1202.72 1.23164 2.24197 0
M  V30 12553 H 1202.37 2.20164 4.57701 0
M  V30 12554 H 1202.3 0.548513 5.23736 0
M  V30 12555 H 1204.79 0.79276 3.69491 0
M  V30 12556 H 1205.1 2.22724 7.40009 0
M  V30 12557 H 1203.45 1.99636 6.65711 0
M  V30 12558 H 1206.64 1.0642 4.55842 0
M  V30 12559 H 1206.81 1.71812 6.24808 0
M  V30 12560 N 1200.22 -1.56282 0.203376 0
M  V30 12561 C 1201.17 -2.20822 -0.730784 0
M  V30 12562 C 1202.16 -1.18193 -1.21354 0
M  V30 12563 O 1203.37 -1.36318 -1.17547 0
M  V30 12564 H 1199.74 -0.707792 -0.254036 0
M  V30 12565 H 1201.71 -2.97955 -0.162825 0
M  V30 12566 C 1200.46 -2.88803 -1.93618 0
M  V30 12567 H 1199.78 -3.67521 -1.57379 0
M  V30 12568 H 1201.22 -3.37387 -2.56799 0
M  V30 12569 C 1199.68 -1.90285 -2.78017 0
M  V30 12570 O 1200.21 -1.40833 -3.76203 0
M  V30 12571 N 1198.42 -1.58332 -2.43679 0
M  V30 12572 H 1197.97 -1.9874 -1.63891 0
M  V30 12573 H 1197.92 -0.926722 -3.00432 0
M  V30 12574 N 1201.7 0.070167 -1.57444 0
M  V30 12575 C 1202.64 1.10193 -2.04842 0
M  V30 12576 C 1203.64 1.39978 -0.954069 0
M  V30 12577 O 1204.84 1.39366 -1.13917 0
M  V30 12578 H 1201.22 0.372699 -0.653146 0
M  V30 12579 H 1203.19 0.676033 -2.90641 0
M  V30 12580 C 1201.94 2.40679 -2.50936 0
M  V30 12581 H 1201.26 2.1861 -3.34738 0
M  V30 12582 H 1202.7 3.11315 -2.87852 0
M  V30 12583 C 1201.16 3.06754 -1.39297 0
M  V30 12584 O 1201.69 3.949 -0.735989 0
M  V30 12585 N 1199.9 2.67404 -1.13769 0
M  V30 12586 H 1199.44 1.95813 -1.67376 0
M  V30 12587 H 1199.4 3.11937 -0.392787 0
M  V30 12588 N 1203.17 1.53854 0.341593 0
M  V30 12589 C 1204.4 1.75134 1.10162 0
M  V30 12590 C 1204.82 0.491415 1.82292 0
M  V30 12591 O 1204.17 -0.53703 1.7442 0
M  V30 12592 C 1204.22 2.93273 2.1136 0
M  V30 12593 O 1203.95 4.14393 1.42162 0
M  V30 12594 C 1205.45 3.26621 2.99723 0
M  V30 12595 H 1202.67 0.585126 0.328434 0
M  V30 12596 H 1205.21 2.00684 0.393204 0
M  V30 12597 H 1203.37 2.70048 2.77764 0
M  V30 12598 H 1203.78 4.8072 2.09783 0
M  V30 12599 H 1205.25 4.12629 3.66662 0
M  V30 12600 H 1205.73 2.43008 3.65847 0
M  V30 12601 H 1206.34 3.51858 2.38906 0
M  V30 12602 N 1204.65 -0.602709 1.4562 0
M  V30 12603 C 1205.9 -1.35769 1.49163 0
M  V30 12604 C 1206.21 -1.95102 0.139485 0
M  V30 12605 O 1207.42 -2.71449 0.0525919 0
M  V30 12606 C 1205.88 -2.45959 2.62739 0
M  V30 12607 C 1205.48 -1.93017 4.04288 0
M  V30 12608 C 1207.23 -3.22926 2.75534 0
M  V30 12609 C 1205.13 -3.00718 5.09237 0
M  V30 12610 H 1204.06 -0.510317 0.555061 0
M  V30 12611 H 1206.72 -0.645434 1.71774 0
M  V30 12612 H 1205.1 -3.19892 2.3342 0
M  V30 12613 H 1206.27 -1.2576 4.43307 0
M  V30 12614 H 1204.59 -1.2878 3.95986 0
M  V30 12615 H 1207.18 -4.03267 3.51112 0
M  V30 12616 H 1207.53 -3.74243 1.82339 0
M  V30 12617 H 1208.06 -2.56095 3.04402 0
M  V30 12618 H 1204.8 -2.54312 6.04157 0
M  V30 12619 H 1204.32 -3.66526 4.74783 0
M  V30 12620 H 1206 -3.65016 5.34202 0
M  V30 12621 N 1206.13 -1.32992 -0.845635 0
M  V30 12622 C 1207.38 -1.24249 -1.60281 0
M  V30 12623 C 1207.71 0.193049 -1.93238 0
M  V30 12624 O 1206.98 1.1326 -1.58122 0
M  V30 12625 C 1207.27 -2.1111 -2.91727 0
M  V30 12626 C 1207.12 -3.63088 -2.65494 0
M  V30 12627 C 1208.44 -1.97913 -3.93089 0
M  V30 12628 H 1205.56 -0.452698 -0.581578 0
M  V30 12629 H 1208.2 -1.63026 -0.975828 0
M  V30 12630 H 1206.35 -1.78169 -3.45236 0
M  V30 12631 H 1208.02 -4.06287 -2.18469 0
M  V30 12632 H 1206.26 -3.85304 -1.99306 0
M  V30 12633 H 1206.94 -4.19202 -3.59129 0
M  V30 12634 H 1209.41 -2.26788 -3.48864 0
M  V30 12635 H 1208.29 -2.60952 -4.82903 0
M  V30 12636 H 1208.55 -0.949378 -4.31786 0
M  V30 12637 N 1207.61 1.06304 -1.1635 0
M  V30 12638 C 1208.56 2.15879 -0.865967 0
M  V30 12639 C 1209.55 1.68595 0.164929 0
M  V30 12640 O 1210.76 1.7999 0.0189271 0
M  V30 12641 H 1207.13 0.704721 -0.262435 0
M  V30 12642 H 1209.1 2.38185 -1.79751 0
M  V30 12643 C 1207.85 3.4558 -0.383374 0
M  V30 12644 H 1207.17 3.82356 -1.16806 0
M  V30 12645 H 1208.61 4.2346 -0.213964 0
M  V30 12646 C 1207.07 3.24738 0.897044 0
M  V30 12647 O 1207.6 3.50284 1.96632 0
M  V30 12648 N 1205.81 2.78172 0.840761 0
M  V30 12649 H 1205.36 2.57583 -0.029584 0
M  V30 12650 H 1205.31 2.64606 1.69797 0
M  V30 12651 N 1209.09 0.96196 1.24836 0
M  V30 12652 C 1210 0.494876 2.29321 0
M  V30 12653 C 1211.01 -0.441363 1.68309 0
M  V30 12654 O 1212.19 -0.315814 1.98908 0
M  V30 12655 C 1209.25 -0.212944 3.46045 0
M  V30 12656 C 1208.31 0.762411 4.22476 0
M  V30 12657 C 1207.55 0.0882756 5.33627 0
M  V30 12658 O 1207.77 -1.12459 5.59204 0
M  V30 12659 O 1206.7 0.777529 5.96857 0
M  V30 12660 H 1210.53 1.36333 2.7138 0
M  V30 12661 H 1208.11 0.728738 1.30421 0
M  V30 12662 H 1210 -0.610805 4.1695 0
M  V30 12663 H 1208.67 -1.05645 3.05975 0
M  V30 12664 H 1207.58 1.21062 3.5397 0
M  V30 12665 H 1208.91 1.57416 4.66349 0
M  V30 12666 N 1210.56 -1.39601 0.731392 0
M  V30 12667 C 1211.49 -2.33268 0.1041 0
M  V30 12668 C 1212.47 -1.53724 -0.728219 0
M  V30 12669 O 1213.66 -1.82131 -0.673933 0
M  V30 12670 C 1210.79 -3.37802 -0.806646 0
M  V30 12671 C 1209.74 -4.27928 -0.0787588 0
M  V30 12672 C 1209.07 -5.23131 -1.10628 0
M  V30 12673 C 1210.37 -5.11086 1.07651 0
M  V30 12674 H 1212.06 -2.85975 0.886496 0
M  V30 12675 H 1209.61 -1.375 0.427746 0
M  V30 12676 H 1211.56 -4.02278 -1.25499 0
M  V30 12677 H 1210.29 -2.83527 -1.62112 0
M  V30 12678 H 1208.95 -3.64926 0.349926 0
M  V30 12679 H 1208.59 -4.65152 -1.91422 0
M  V30 12680 H 1208.29 -5.84277 -0.624043 0
M  V30 12681 H 1209.82 -5.90483 -1.5544 0
M  V30 12682 H 1211.23 -5.68927 0.706781 0
M  V30 12683 H 1209.63 -5.81356 1.48814 0
M  V30 12684 H 1210.7 -4.46131 1.89988 0
M  V30 12685 N 1212.04 -0.478751 -1.50152 0
M  V30 12686 C 1213.29 0.073694 -2.02666 0
M  V30 12687 C 1213.62 1.38679 -1.35947 0
M  V30 12688 O 1212.9 1.88286 -0.4877 0
M  V30 12689 C 1213.18 0.249516 -3.59235 0
M  V30 12690 C 1213.03 -1.08514 -4.36514 0
M  V30 12691 C 1214.35 1.00053 -4.28576 0
M  V30 12692 H 1211.47 0.0253082 -0.736565 0
M  V30 12693 H 1214.11 -0.625834 -1.79397 0
M  V30 12694 H 1212.26 0.845343 -3.79192 0
M  V30 12695 H 1213.93 -1.71814 -4.28109 0
M  V30 12696 H 1212.18 -1.67992 -3.99952 0
M  V30 12697 H 1212.85 -0.915676 -5.44352 0
M  V30 12698 H 1215.32 0.495422 -4.1314 0
M  V30 12699 H 1214.2 1.09236 -5.37921 0
M  V30 12700 H 1214.46 2.03896 -3.92274 0
M  V30 12701 N 1213.52 1.56172 -0.211661 0
M  V30 12702 C 1214.94 1.5895 0.143907 0
M  V30 12703 C 1215.14 1.22826 1.59737 0
M  V30 12704 O 1214.19 0.958823 2.33587 0
M  V30 12705 C 1215.51 3.00199 -0.173438 0
M  V30 12706 C 1217.05 3.12789 -0.114877 0
M  V30 12707 C 1217.53 4.56199 -0.405759 0
M  V30 12708 N 1219.02 4.61838 -0.354973 0
M  V30 12709 C 1219.75 5.70721 -0.553671 0
M  V30 12710 N 1219.25 6.88006 -0.813613 0
M  V30 12711 N 1221.04 5.59988 -0.486787 0
M  V30 12712 H 1213.19 1.77931 -1.15993 0
M  V30 12713 H 1215.46 0.826569 -0.464206 0
M  V30 12714 H 1215.16 3.31248 -1.18186 0
M  V30 12715 H 1215.04 3.73651 0.516232 0
M  V30 12716 H 1217.42 2.81543 0.884166 0
M  V30 12717 H 1217.51 2.41688 -0.837875 0
M  V30 12718 H 1217.15 4.88161 -1.40219 0
M  V30 12719 H 1217.08 5.25512 0.338318 0
M  V30 12720 H 1219.57 3.77555 -0.161352 0
M  V30 12721 H 1219.88 7.66894 -0.953594 0
M  V30 12722 H 1218.23 6.89774 -0.850696 0
M  V30 12723 H 1221.42 4.67238 -0.284009 0
M  V30 12724 H 1221.59 6.44781 -0.645051 0
M  V30 12725 N 1215 -0.0618163 1.57479 0
M  V30 12726 C 1216.24 -0.760193 1.88013 0
M  V30 12727 C 1216.58 -1.76718 0.805258 0
M  V30 12728 O 1215.85 -1.93633 -0.183408 0
M  V30 12729 C 1216.14 -1.45924 3.29208 0
M  V30 12730 C 1215.99 -0.467994 4.47359 0
M  V30 12731 C 1217.31 -2.40166 3.68793 0
M  V30 12732 H 1214.43 -0.274896 0.683814 0
M  V30 12733 H 1217.07 -0.0232433 1.89986 0
M  V30 12734 H 1215.22 -2.08741 3.27657 0
M  V30 12735 H 1216.89 0.155735 4.61037 0
M  V30 12736 H 1215.13 0.215797 4.33263 0
M  V30 12737 H 1215.8 -0.994942 5.42959 0
M  V30 12738 H 1218.28 -1.87419 3.71501 0
M  V30 12739 H 1217.16 -2.86076 4.68457 0
M  V30 12740 H 1217.42 -3.25413 2.99264 0
M  V30 12741 N 1216.48 -1.54033 -0.333429 0
M  V30 12742 C 1217.7 -1.75716 -1.09232 0
M  V30 12743 C 1218.12 -0.501076 -1.82029 0
M  V30 12744 O 1217.48 0.527772 -1.74702 0
M  V30 12745 C 1217.53 -2.9439 -2.09802 0
M  V30 12746 O 1217.25 -4.15141 -1.39963 0
M  V30 12747 C 1218.75 -3.28206 -2.97987 0
M  V30 12748 H 1215.97 -0.586859 -0.325326 0
M  V30 12749 H 1218.51 -2.0089 -0.382555 0
M  V30 12750 H 1216.67 -2.71518 -2.76327 0
M  V30 12751 H 1217.08 -4.81826 -2.0723 0
M  V30 12752 H 1218.56 -4.14568 -3.64469 0
M  V30 12753 H 1219.03 -2.44944 -3.64553 0
M  V30 12754 H 1219.64 -3.5312 -2.37036 0
M  V30 12755 N 1217.95 0.594978 -1.45938 0
M  V30 12756 C 1219.18 1.38482 -1.54394 0
M  V30 12757 C 1219.6 1.87222 -0.181563 0
M  V30 12758 O 1218.96 1.60869 0.836119 0
M  V30 12759 C 1219.01 2.55676 -2.54287 0
M  V30 12760 O 1218.11 3.5672 -2.06941 0
M  V30 12761 H 1217.46 0.412918 -0.519995 0
M  V30 12762 H 1219.99 0.722899 -1.91404 0
M  V30 12763 H 1220 3.02756 -2.73501 0
M  V30 12764 H 1218.67 2.19552 -3.53228 0
M  V30 12765 H 1217.25 3.16204 -1.97661 0
M  V30 12766 N 1219.43 1.33438 0.838571 0
M  V30 12767 C 1220.34 1.25753 1.98049 0
M  V30 12768 C 1221.36 0.168051 1.73187 0
M  V30 12769 O 1222.53 0.391691 1.97554 0
M  V30 12770 C 1219.6 0.997148 3.32051 0
M  V30 12771 C 1218.66 2.17667 3.70027 0
M  V30 12772 C 1217.89 1.92861 4.97635 0
M  V30 12773 O 1218.12 0.879072 5.63585 0
M  V30 12774 O 1217.05 2.79402 5.33121 0
M  V30 12775 H 1220.88 2.21786 2.07472 0
M  V30 12776 H 1218.46 1.13488 0.971645 0
M  V30 12777 H 1220.34 0.869099 4.1234 0
M  V30 12778 H 1219.02 0.0671036 3.2363 0
M  V30 12779 H 1217.93 2.36025 2.90246 0
M  V30 12780 H 1219.26 3.09006 3.83114 0
M  V30 12781 N 1220.91 -1.05686 1.16912 0
M  V30 12782 C 1222.16 -1.78244 0.95254 0
M  V30 12783 C 1222.48 -1.87924 -0.520525 0
M  V30 12784 O 1221.75 -1.39239 -1.37802 0
M  V30 12785 H 1220.33 -0.660228 0.349439 0
M  V30 12786 H 1222.99 -1.27634 1.47294 0
M  V30 12787 H 1222.09 -2.80102 1.37657 0
M  V30 12788 N 1222.39 -0.968567 -1.24324 0
M  V30 12789 C 1223.35 -0.504307 -2.23583 0
M  V30 12790 C 1224.35 0.399626 -1.55755 0
M  V30 12791 O 1225.54 0.194966 -1.73106 0
M  V30 12792 C 1222.67 0.26956 -3.39833 0
M  V30 12793 H 1223.87 -1.3818 -2.6617 0
M  V30 12794 H 1221.42 -0.753241 -1.36952 0
M  V30 12795 H 1222.15 1.16411 -3.02686 0
M  V30 12796 H 1221.94 -0.379133 -3.90263 0
M  V30 12797 H 1223.43 0.583376 -4.13505 0
M  V30 12798 N 1223.87 1.39211 -0.738786 0
M  V30 12799 C 1225.11 2.0004 -0.28782 0
M  V30 12800 C 1225.44 1.58921 1.13 0
M  V30 12801 O 1224.71 0.839193 1.77015 0
M  V30 12802 H 1223.29 0.739805 -0.103425 0
M  V30 12803 H 1225.95 1.70202 -0.949587 0
M  V30 12804 H 1225.04 3.10251 -0.339208 0
M  V30 12805 N 1225.34 0.486708 1.49896 0
M  V30 12806 C 1226.27 -0.288898 2.31706 0
M  V30 12807 C 1227.26 -0.975901 1.3932 0
M  V30 12808 O 1228.44 -0.970065 1.68236 0
M  V30 12809 C 1225.57 -1.36218 3.19471 0
M  V30 12810 C 1224.52 -0.795884 4.20535 0
M  V30 12811 C 1223.85 -1.96862 4.97141 0
M  V30 12812 C 1225.15 0.203421 5.21904 0
M  V30 12813 H 1226.84 0.393934 2.96797 0
M  V30 12814 H 1224.39 0.190894 1.42729 0
M  V30 12815 H 1226.34 -1.91238 3.75508 0
M  V30 12816 H 1225.07 -2.074 2.52295 0
M  V30 12817 H 1223.73 -0.267538 3.65622 0
M  V30 12818 H 1223.37 -2.66779 4.26425 0
M  V30 12819 H 1223.07 -1.59585 5.65514 0
M  V30 12820 H 1224.6 -2.52343 5.56017 0
M  V30 12821 H 1226.01 -0.258144 5.72719 0
M  V30 12822 H 1224.41 0.491273 5.98086 0
M  V30 12823 H 1225.48 1.12414 4.7169 0
M  V30 12824 N 1226.82 -1.56058 0.219941 0
M  V30 12825 C 1227.76 -2.17494 -0.723133 0
M  V30 12826 C 1228.77 -1.14356 -1.15873 0
M  V30 12827 O 1229.96 -1.41343 -1.09016 0
M  V30 12828 C 1227.06 -2.74242 -1.99109 0
M  V30 12829 C 1226.23 -4.02533 -1.71132 0
M  V30 12830 C 1225.29 -4.43862 -2.82618 0
M  V30 12831 O 1224.32 -5.10792 -2.51157 0
M  V30 12832 N 1225.52 -4.09412 -4.11537 0
M  V30 12833 H 1228.28 -2.99048 -0.197619 0
M  V30 12834 H 1225.84 -1.61853 0.0388738 0
M  V30 12835 H 1227.84 -2.98862 -2.7288 0
M  V30 12836 H 1226.41 -1.97 -2.42713 0
M  V30 12837 H 1225.63 -3.85786 -0.810128 0
M  V30 12838 H 1226.91 -4.86227 -1.49868 0
M  V30 12839 H 1226.31 -3.55624 -4.39941 0
M  V30 12840 H 1224.87 -4.38928 -4.81857 0
M  V30 12841 N 1228.3 0.053464 -1.57509 0
M  V30 12842 C 1229.23 1.06151 -2.07977 0
M  V30 12843 C 1230.21 1.3924 -0.977047 0
M  V30 12844 O 1231.4 1.48549 -1.25087 0
M  V30 12845 C 1228.53 2.36969 -2.53895 0
M  V30 12846 C 1227.48 2.18186 -3.6821 0
M  V30 12847 C 1226.81 3.54551 -4.00247 0
M  V30 12848 C 1228.11 1.588 -4.97574 0
M  V30 12849 H 1229.8 0.641483 -2.92447 0
M  V30 12850 H 1227.35 0.307122 -1.40687 0
M  V30 12851 H 1229.3 3.07797 -2.87817 0
M  V30 12852 H 1228.02 2.80986 -1.66476 0
M  V30 12853 H 1226.68 1.49796 -3.34599 0
M  V30 12854 H 1226.33 3.96171 -3.09932 0
M  V30 12855 H 1226.03 3.42816 -4.77232 0
M  V30 12856 H 1227.56 4.2678 -4.36682 0
M  V30 12857 H 1228.97 2.19515 -5.29609 0
M  V30 12858 H 1227.37 1.57711 -5.79006 0
M  V30 12859 H 1228.44 0.551254 -4.81756 0
M  V30 12860 N 1229.78 1.54207 0.325255 0
M  V30 12861 C 1230.71 1.79812 1.42128 0
M  V30 12862 C 1231.72 0.68003 1.47917 0
M  V30 12863 O 1232.91 0.957107 1.50671 0
M  V30 12864 C 1230.01 1.89935 2.80674 0
M  V30 12865 C 1229.19 3.20078 2.98108 0
M  V30 12866 C 1228.25 3.20924 4.17006 0
M  V30 12867 O 1227.27 3.94571 4.10247 0
M  V30 12868 N 1228.47 2.44588 5.26457 0
M  V30 12869 H 1231.24 2.74396 1.20527 0
M  V30 12870 H 1228.8 1.53483 0.515233 0
M  V30 12871 H 1230.79 1.8793 3.58419 0
M  V30 12872 H 1229.36 1.02455 2.95333 0
M  V30 12873 H 1228.58 3.35057 2.07679 0
M  V30 12874 H 1229.87 4.06008 3.06651 0
M  V30 12875 H 1229.27 1.8434 5.34823 0
M  V30 12876 H 1227.82 2.48363 6.02627 0
M  V30 12877 N 1231.26 -0.58723 1.46251 0
M  V30 12878 C 1232.2 -1.69662 1.56472 0
M  V30 12879 C 1233.17 -1.60978 0.409294 0
M  V30 12880 O 1234.36 -1.80257 0.625451 0
M  V30 12881 C 1231.5 -3.07996 1.55669 0
M  V30 12882 C 1230.61 -3.27337 2.81913 0
M  V30 12883 C 1229.75 -4.55894 2.72644 0
M  V30 12884 C 1228.79 -4.68562 3.93847 0
M  V30 12885 N 1227.92 -5.8844 3.82991 0
M  V30 12886 H 1232.76 -1.60262 2.51237 0
M  V30 12887 H 1230.3 -0.781148 1.24645 0
M  V30 12888 H 1232.26 -3.88058 1.53189 0
M  V30 12889 H 1230.89 -3.16303 0.6444 0
M  V30 12890 H 1229.94 -2.4091 2.94392 0
M  V30 12891 H 1231.25 -3.32567 3.71754 0
M  V30 12892 H 1230.41 -5.44178 2.68244 0
M  V30 12893 H 1229.15 -4.53094 1.80435 0
M  V30 12894 H 1228.15 -3.78696 3.98584 0
M  V30 12895 H 1229.38 -4.73144 4.87146 0
M  V30 12896 H 1227.32 -5.86647 2.93566 0
M  V30 12897 H 1227.24 -5.94919 4.66484 0
M  V30 12898 H 1228.51 -6.79168 3.82559 0
M  V30 12899 N 1232.74 -1.33881 -0.831482 0
M  V30 12900 C 1233.98 -1.25942 -1.58955 0
M  V30 12901 C 1234.31 0.172542 -1.93432 0
M  V30 12902 O 1233.59 1.11577 -1.59314 0
M  V30 12903 C 1233.87 -2.14193 -2.89471 0
M  V30 12904 C 1233.73 -3.65883 -2.61628 0
M  V30 12905 C 1235.04 -2.02071 -3.90967 0
M  V30 12906 H 1232.16 -0.458841 -0.576744 0
M  V30 12907 H 1234.81 -1.64052 -0.958482 0
M  V30 12908 H 1232.96 -1.81821 -3.43327 0
M  V30 12909 H 1234.63 -4.08581 -2.14148 0
M  V30 12910 H 1232.87 -3.87397 -1.95208 0
M  V30 12911 H 1233.54 -4.22988 -3.54662 0
M  V30 12912 H 1236.02 -2.30476 -3.46439 0
M  V30 12913 H 1234.89 -2.66059 -4.80108 0
M  V30 12914 H 1235.15 -0.995121 -4.30755 0
M  V30 12915 N 1234.21 1.05064 -1.1747 0
M  V30 12916 C 1235.44 1.81761 -0.988464 0
M  V30 12917 C 1235.86 1.83028 0.463272 0
M  V30 12918 O 1235.21 1.25846 1.32171 0
M  V30 12919 C 1235.26 3.2782 -1.5237 0
M  V30 12920 O 1234.99 3.26726 -2.91859 0
M  V30 12921 C 1236.49 4.212 -1.38223 0
M  V30 12922 H 1233.71 0.572712 -0.349631 0
M  V30 12923 H 1236.25 1.32477 -1.55789 0
M  V30 12924 H 1234.41 3.7437 -0.996272 0
M  V30 12925 H 1234.82 4.18151 -3.16623 0
M  V30 12926 H 1236.29 5.2166 -1.80485 0
M  V30 12927 H 1236.77 4.37962 -0.329491 0
M  V30 12928 H 1237.38 3.80506 -1.89988 0
M  V30 12929 N 1235.69 0.975146 1.23809 0
M  V30 12930 C 1236.94 0.642074 1.92367 0
M  V30 12931 C 1237.27 -0.82164 1.75962 0
M  V30 12932 O 1236.55 -1.59205 1.11732 0
M  V30 12933 C 1236.83 1.02677 3.45151 0
M  V30 12934 C 1236.68 2.54773 3.7069 0
M  V30 12935 C 1238 0.5668 4.36435 0
M  V30 12936 H 1235.12 0.234735 0.698619 0
M  V30 12937 H 1237.76 1.21549 1.46034 0
M  V30 12938 H 1235.91 0.538846 3.84745 0
M  V30 12939 H 1237.58 3.11099 3.4061 0
M  V30 12940 H 1235.83 2.97641 3.15583 0
M  V30 12941 H 1236.5 2.7674 4.77618 0
M  V30 12942 H 1238.97 0.985635 4.04258 0
M  V30 12943 H 1237.85 0.864458 5.4205 0
M  V30 12944 H 1238.11 -0.532989 4.38875 0
M  V30 12945 N 1237.17 -1.38817 0.746158 0
M  V30 12946 C 1238.1 -2.33144 0.128836 0
M  V30 12947 C 1239.08 -1.54487 -0.711873 0
M  V30 12948 O 1240.27 -1.82836 -0.654577 0
M  V30 12949 C 1237.4 -3.38639 -0.770772 0
M  V30 12950 C 1236.35 -4.27987 -0.0333669 0
M  V30 12951 C 1235.68 -5.24274 -1.05073 0
M  V30 12952 C 1236.98 -5.09915 1.13066 0
M  V30 12953 H 1238.67 -2.85019 0.916778 0
M  V30 12954 H 1236.22 -1.37039 0.442306 0
M  V30 12955 H 1238.17 -4.03587 -1.21225 0
M  V30 12956 H 1236.89 -2.8523 -1.59095 0
M  V30 12957 H 1235.55 -3.64534 0.388612 0
M  V30 12958 H 1235.2 -4.67156 -1.86478 0
M  V30 12959 H 1234.9 -5.84906 -0.562037 0
M  V30 12960 H 1236.42 -5.92099 -1.49169 0
M  V30 12961 H 1237.84 -5.68145 0.767084 0
M  V30 12962 H 1236.23 -5.79744 1.54972 0
M  V30 12963 H 1237.3 -4.4409 1.94709 0
M  V30 12964 N 1238.65 -0.49465 -1.49636 0
M  V30 12965 C 1239.9 0.0520143 -2.02033 0
M  V30 12966 C 1240.22 1.38071 -1.37701 0
M  V30 12967 O 1239.49 1.88589 -0.530181 0
M  V30 12968 H 1238.07 0.0222123 -0.74667 0
M  V30 12969 H 1240.73 -0.650445 -1.83726 0
M  V30 12970 H 1239.82 0.186337 -3.11543 0
M  V30 12971 N 1240.13 1.55939 -0.228214 0
M  V30 12972 C 1241.37 1.9877 0.402272 0
M  V30 12973 C 1241.7 1.11587 1.5894 0
M  V30 12974 O 1240.98 0.175032 1.93711 0
M  V30 12975 C 1241.26 3.50396 0.830353 0
M  V30 12976 C 1241.12 4.4835 -0.360876 0
M  V30 12977 C 1242.43 4.06602 1.68413 0
M  V30 12978 H 1239.55 0.722646 0.144746 0
M  V30 12979 H 1242.2 1.87186 -0.325784 0
M  V30 12980 H 1240.35 3.60398 1.4507 0
M  V30 12981 H 1242.02 4.5035 -0.999113 0
M  V30 12982 H 1240.26 4.21946 -1.00719 0
M  V30 12983 H 1240.93 5.51997 -0.0183074 0
M  V30 12984 H 1243.41 3.99585 1.16064 0
M  V30 12985 H 1242.28 5.12998 1.95254 0
M  V30 12986 H 1242.54 3.53897 2.64971 0
M  V30 12987 N 1241.6 -0.0451101 1.57535 0
M  V30 12988 C 1242.57 -1.03521 2.0449 0
M  V30 12989 C 1243.57 -1.30009 0.946265 0
M  V30 12990 O 1244.76 -1.25282 1.21038 0
M  V30 12991 C 1241.89 -2.37221 2.44824 0
M  V30 12992 H 1243.08 -0.629943 2.93209 0
M  V30 12993 H 1240.64 -0.291544 1.53557 0
M  V30 12994 H 1241.37 -2.82528 1.59212 0
M  V30 12995 H 1241.16 -2.19329 3.25018 0
M  V30 12996 H 1242.65 -3.08337 2.81635 0
M  V30 12997 N 1243.08 -1.54377 -0.317073 0
M  V30 12998 C 1244.31 -1.76865 -1.07362 0
M  V30 12999 C 1244.73 -0.520354 -1.81488 0
M  V30 13000 O 1244.08 0.509213 -1.75252 0
M  V30 13001 C 1244.13 -2.96598 -2.06668 0
M  V30 13002 O 1243.85 -4.16602 -1.35552 0
M  V30 13003 C 1245.36 -3.31348 -2.94489 0
M  V30 13004 H 1242.58 -0.590277 -0.319083 0
M  V30 13005 H 1245.12 -2.01284 -0.361227 0
M  V30 13006 H 1243.27 -2.74433 -2.73432 0
M  V30 13007 H 1243.69 -4.83996 -2.02108 0
M  V30 13008 H 1245.16 -4.1841 -3.60051 0
M  V30 13009 H 1245.64 -2.48797 -3.61935 0
M  V30 13010 H 1246.25 -3.55614 -2.33278 0
M  V30 13011 N 1244.56 0.579466 -1.4656 0
M  V30 13012 C 1245.52 1.67033 -1.56948 0
M  V30 13013 C 1246.52 1.54481 -0.446361 0
M  V30 13014 O 1247.71 1.5904 -0.710767 0
M  V30 13015 C 1244.85 3.06474 -1.49286 0
M  V30 13016 H 1246.04 1.59179 -2.54169 0
M  V30 13017 H 1243.59 0.797573 -1.34419 0
M  V30 13018 H 1244.33 3.1988 -0.533572 0
M  V30 13019 H 1244.11 3.16993 -2.30776 0
M  V30 13020 H 1245.6 3.85879 -1.59648 0
M  V30 13021 N 1246.04 1.3432 0.824371 0
M  V30 13022 C 1247.45 1.23855 1.39703 0
M  V30 13023 C 1247.8 -0.136566 1.95724 0
M  V30 13024 O 1246.93 -1.03683 1.89944 0
M  V30 13025 C 1247.52 2.24249 2.53965 0
M  V30 13026 C 1246.08 2.17578 3.07143 0
M  V30 13027 C 1245.23 2.10933 1.80008 0
M  V30 13028 H 1248.18 1.45707 0.628891 0
M  V30 13029 H 1248.2 1.85864 3.32016 0
M  V30 13030 H 1247.71 3.24321 2.13161 0
M  V30 13031 H 1245.81 1.20858 3.52455 0
M  V30 13032 H 1245.92 3.08769 3.66331 0
M  V30 13033 H 1244.29 1.56631 2.00845 0
M  V30 13034 H 1245.07 3.12836 1.4138 0
M  V30 13035 N 1247.52 -1.0444 1.18026 0
M  V30 13036 C 1248.45 -2.12388 0.86162 0
M  V30 13037 C 1249.46 -1.62204 -0.139196 0
M  V30 13038 O 1250.65 -1.78282 0.0881334 0
M  V30 13039 C 1247.75 -3.37859 0.265407 0
M  V30 13040 C 1246.92 -4.17292 1.31096 0
M  V30 13041 C 1245.98 -5.21096 0.731121 0
M  V30 13042 O 1245.01 -5.5159 1.40488 0
M  V30 13043 N 1246.21 -5.78568 -0.473194 0
M  V30 13044 H 1248.98 -2.40317 1.79074 0
M  V30 13045 H 1246.54 -1.20601 1.08014 0
M  V30 13046 H 1248.53 -4.04472 -0.135976 0
M  V30 13047 H 1247.1 -3.07403 -0.567658 0
M  V30 13048 H 1246.32 -3.46057 1.8878 0
M  V30 13049 H 1247.61 -4.67158 2.01596 0
M  V30 13050 H 1247 -5.56088 -1.03839 0
M  V30 13051 H 1245.56 -6.46665 -0.816545 0
M  V30 13052 N 1248.99 -0.981699 -1.2329 0
M  V30 13053 C 1249.93 -0.481042 -2.24095 0
M  V30 13054 C 1250.94 0.417818 -1.57347 0
M  V30 13055 O 1252.13 0.221746 -1.77117 0
M  V30 13056 C 1249.23 0.323324 -3.37354 0
M  V30 13057 C 1248.4 -0.568975 -4.33684 0
M  V30 13058 C 1247.46 0.181761 -5.25886 0
M  V30 13059 O 1246.49 -0.429059 -5.67581 0
M  V30 13060 N 1247.69 1.46737 -5.61648 0
M  V30 13061 H 1250.45 -1.34781 -2.67683 0
M  V30 13062 H 1248.01 -0.855117 -1.37475 0
M  V30 13063 H 1250.01 0.833934 -3.96015 0
M  V30 13064 H 1248.58 1.09111 -2.9294 0
M  V30 13065 H 1247.8 -1.2604 -3.73507 0
M  V30 13066 H 1249.08 -1.17704 -4.94998 0
M  V30 13067 H 1248.48 1.98513 -5.29725 0
M  V30 13068 H 1247.04 1.92339 -6.22775 0
M  V30 13069 N 1250.47 1.3842 -0.753509 0
M  V30 13070 C 1251.72 2.00415 -0.310091 0
M  V30 13071 C 1252.05 1.59675 1.10532 0
M  V30 13072 O 1251.33 0.834261 1.757 0
M  V30 13073 C 1251.61 3.57488 -0.432897 0
M  V30 13074 C 1251.46 4.08193 -1.88941 0
M  V30 13075 C 1252.78 4.39757 0.173763 0
M  V30 13076 H 1249.9 0.728107 -0.114147 0
M  V30 13077 H 1252.54 1.64363 -0.953138 0
M  V30 13078 H 1250.69 3.88331 0.114563 0
M  V30 13079 H 1252.36 3.87993 -2.49517 0
M  V30 13080 H 1250.61 3.61063 -2.4045 0
M  V30 13081 H 1251.28 5.17291 -1.9265 0
M  V30 13082 H 1253.75 4.15066 -0.293137 0
M  V30 13083 H 1252.63 5.4887 0.057594 0
M  V30 13084 H 1252.89 4.23704 1.26205 0
M  V30 13085 N 1251.95 0.502579 1.49372 0
M  V30 13086 C 1252.88 -0.264307 2.31999 0
M  V30 13087 C 1253.86 -0.96107 1.40348 0
M  V30 13088 O 1255.05 -0.952167 1.69255 0
M  V30 13089 C 1252.18 -1.32822 3.20898 0
M  V30 13090 C 1251.13 -0.751236 4.21355 0
M  V30 13091 C 1250.46 -1.91578 4.99201 0
M  V30 13092 C 1251.76 0.258764 5.21659 0
M  V30 13093 H 1253.45 0.425391 2.96363 0
M  V30 13094 H 1251 0.206022 1.42519 0
M  V30 13095 H 1252.95 -1.87245 3.77515 0
M  V30 13096 H 1251.67 -2.04712 2.54481 0
M  V30 13097 H 1250.33 -0.228743 3.65886 0
M  V30 13098 H 1249.98 -2.62241 4.2923 0
M  V30 13099 H 1249.68 -1.53578 5.67175 0
M  V30 13100 H 1251.2 -2.46432 5.58663 0
M  V30 13101 H 1252.62 -0.197385 5.7296 0
M  V30 13102 H 1251.02 0.554681 5.97531 0
M  V30 13103 H 1252.09 1.1741 4.70471 0
M  V30 13104 N 1253.43 -1.55816 0.23648 0
M  V30 13105 C 1254.65 -2.03534 -0.398575 0
M  V30 13106 C 1255.08 -1.11488 -1.51499 0
M  V30 13107 O 1254.44 -0.105848 -1.80991 0
M  V30 13108 C 1254.48 -3.49356 -0.893467 0
M  V30 13109 O 1253.59 -3.60446 -2.00381 0
M  V30 13110 H 1252.93 -0.658102 -0.0883021 0
M  V30 13111 H 1255.46 -2.01417 0.359488 0
M  V30 13112 H 1255.47 -3.89972 -1.19941 0
M  V30 13113 H 1254.14 -4.1583 -0.0764388 0
M  V30 13114 H 1252.72 -3.31723 -1.70336 0
M  V30 13115 N 1254.91 0.036755 -1.57557 0
M  V30 13116 C 1255.85 1.05823 -2.07133 0
M  V30 13117 C 1256.85 1.37923 -0.983546 0
M  V30 13118 O 1258.05 1.36918 -1.16848 0
M  V30 13119 H 1254.43 0.358761 -0.660905 0
M  V30 13120 H 1256.4 0.614232 -2.9201 0
M  V30 13121 C 1255.15 2.35302 -2.55985 0
M  V30 13122 H 1254.47 2.11461 -3.393 0
M  V30 13123 H 1255.91 3.05139 -2.94391 0
M  V30 13124 C 1254.37 3.0373 -1.45773 0
M  V30 13125 O 1254.9 3.9325 -0.819587 0
M  V30 13126 N 1253.11 2.64931 -1.19416 0
M  V30 13127 H 1252.65 1.92219 -1.71492 0
M  V30 13128 H 1252.61 3.11033 -0.458865 0
M  V30 13129 N 1256.39 1.54543 0.308881 0
M  V30 13130 C 1257.63 1.73107 1.043 0
M  V30 13131 C 1257.95 0.515481 1.88063 0
M  V30 13132 O 1257.22 -0.47036 1.90169 0
M  V30 13133 H 1255.8 0.638289 0.388068 0
M  V30 13134 H 1258.47 1.9188 0.341769 0
M  V30 13135 H 1257.56 2.61697 1.70063 0
M  V30 13136 N 1257.86 -0.571685 1.46866 0
M  V30 13137 C 1259.11 -1.33145 1.52972 0
M  V30 13138 C 1259.44 -1.93314 0.185344 0
M  V30 13139 O 1258.72 -1.77083 -0.80447 0
M  V30 13140 C 1259 -2.4525 2.63675 0
M  V30 13141 C 1258.85 -1.90044 4.0768 0
M  V30 13142 C 1260.17 -3.47247 2.70384 0
M  V30 13143 H 1257.29 -0.482751 0.556885 0
M  V30 13144 H 1259.93 -0.641163 1.78855 0
M  V30 13145 H 1258.08 -3.04132 2.41735 0
M  V30 13146 H 1259.76 -1.35535 4.4094 0
M  V30 13147 H 1258 -1.20805 4.1664 0
M  V30 13148 H 1258.67 -2.71019 4.80887 0
M  V30 13149 H 1261.15 -2.98263 2.90135 0
M  V30 13150 H 1260.02 -4.23132 3.49643 0
M  V30 13151 H 1260.28 -4.05179 1.76868 0
M  V30 13152 N 1259.34 -1.34755 -0.817236 0
M  V30 13153 C 1260.75 -1.24594 -1.39044 0
M  V30 13154 C 1261.1 0.126184 -1.95794 0
M  V30 13155 O 1260.23 1.02675 -1.90491 0
M  V30 13156 C 1260.82 -2.25592 -2.52772 0
M  V30 13157 C 1259.38 -2.19204 -3.05984 0
M  V30 13158 C 1258.53 -2.11884 -1.78886 0
M  V30 13159 H 1261.48 -1.46039 -0.621155 0
M  V30 13160 H 1261.5 -1.87622 -3.31026 0
M  V30 13161 H 1261.01 -3.25447 -2.11438 0
M  V30 13162 H 1259.11 -1.22725 -3.51809 0
M  V30 13163 H 1259.23 -3.10707 -3.64689 0
M  V30 13164 H 1257.59 -1.57694 -2.00012 0
M  V30 13165 H 1258.37 -3.13582 -1.39719 0
M  V30 13166 N 1260.82 1.03812 -1.18578 0
M  V30 13167 C 1262.07 1.77319 -0.984173 0
M  V30 13168 C 1262.4 1.88052 0.484789 0
M  V30 13169 O 1261.67 1.3905 1.35998 0
M  V30 13170 C 1261.96 3.20448 -1.6427 0
M  V30 13171 C 1261.81 3.17643 -3.1847 0
M  V30 13172 C 1263.13 4.18623 -1.35805 0
M  V30 13173 H 1260.25 0.643681 -0.358949 0
M  V30 13174 H 1262.89 1.21249 -1.46283 0
M  V30 13175 H 1261.04 3.68324 -1.23572 0
M  V30 13176 H 1262.71 2.77738 -3.6832 0
M  V30 13177 H 1260.95 2.55606 -3.50497 0
M  V30 13178 H 1261.63 4.18724 -3.59686 0
M  V30 13179 H 1264.1 3.79306 -1.71073 0
M  V30 13180 H 1262.98 5.16982 -1.84446 0
M  V30 13181 H 1263.24 4.41203 -0.281418 0
M  V30 13182 N 1262.3 0.988223 1.22768 0
M  V30 13183 C 1263.52 0.679426 1.95955 0
M  V30 13184 C 1263.95 -0.748483 1.72567 0
M  V30 13185 O 1263.31 -1.51097 1.00197 0
M  V30 13186 C 1263.35 0.985284 3.46878 0
M  V30 13187 O 1262.46 0.0814607 4.1232 0
M  V30 13188 H 1261.8 0.254749 0.613188 0
M  V30 13189 H 1264.33 1.32393 1.55991 0
M  V30 13190 H 1264.34 0.925198 3.97371 0
M  V30 13191 H 1263.01 2.02581 3.63227 0
M  V30 13192 H 1261.59 0.196629 3.72381 0
M  V30 13193 N 1263.78 -1.38018 0.760839 0
M  V30 13194 C 1264.72 -2.32251 0.127425 0
M  V30 13195 C 1265.72 -1.54387 -0.69722 0
M  V30 13196 O 1266.92 -1.69864 -0.595505 0
M  V30 13197 H 1263.3 -0.751666 0.0224141 0
M  V30 13198 H 1265.27 -2.8327 0.93813 0
M  V30 13199 C 1264.02 -3.39606 -0.745849 0
M  V30 13200 H 1263.34 -3.99618 -0.120679 0
M  V30 13201 H 1264.78 -4.07931 -1.15621 0
M  V30 13202 C 1263.24 -2.78778 -1.89167 0
M  V30 13203 O 1263.77 -2.68661 -2.98637 0
M  V30 13204 N 1261.98 -2.36481 -1.68894 0
M  V30 13205 H 1261.52 -2.4491 -0.798551 0
M  V30 13206 H 1261.48 -1.96126 -2.45728 0
M  V30 13207 N 1265.25 -0.510493 -1.49103 0
M  V30 13208 C 1266.5 0.0306436 -2.02477 0
M  V30 13209 C 1266.83 1.36113 -1.38937 0
M  V30 13210 O 1266.08 1.88731 -0.517584 0
M  V30 13211 C 1266.38 0.221921 -3.5671 0
M  V30 13212 C 1266.05 -1.03176 -4.38937 0
M  V30 13213 C 1264.71 -1.37539 -4.61125 0
M  V30 13214 C 1267.06 -1.86464 -4.86704 0
M  V30 13215 C 1264.39 -2.55124 -5.28326 0
M  V30 13216 C 1266.74 -3.03211 -5.55199 0
M  V30 13217 C 1265.41 -3.37943 -5.75631 0
M  V30 13218 H 1264.68 0.0112133 -0.740915 0
M  V30 13219 H 1267.32 -0.672574 -1.79301 0
M  V30 13220 H 1265.63 1.00775 -3.78618 0
M  V30 13221 H 1267.33 0.655223 -3.95611 0
M  V30 13222 H 1263.92 -0.754105 -4.21914 0
M  V30 13223 H 1268.1 -1.61229 -4.69381 0
M  V30 13224 H 1263.36 -2.8226 -5.42346 0
M  V30 13225 H 1267.53 -3.68068 -5.91185 0
M  V30 13226 H 1265.16 -4.29158 -6.27477 0
M  V30 13227 N 1266.73 1.55688 -0.24474 0
M  V30 13228 C 1267.96 2.0329 0.384808 0
M  V30 13229 C 1268.37 1.12405 1.51692 0
M  V30 13230 O 1267.73 0.138056 1.81977 0
M  V30 13231 C 1267.78 3.50255 0.894635 0
M  V30 13232 O 1267.5 4.37677 -0.192365 0
M  V30 13233 C 1269 4.13608 1.59509 0
M  V30 13234 H 1266.22 0.664706 0.0916908 0
M  V30 13235 H 1268.77 2.01162 -0.367973 0
M  V30 13236 H 1266.92 3.52924 1.5976 0
M  V30 13237 H 1267.34 5.2414 0.194424 0
M  V30 13238 H 1268.81 5.1814 1.90356 0
M  V30 13239 H 1269.29 3.5997 2.51631 0
M  V30 13240 H 1269.89 4.14856 0.936749 0
M  V30 13241 N 1268.21 -0.0283989 1.57574 0
M  V30 13242 C 1269.44 -0.729772 1.93282 0
M  V30 13243 C 1269.85 -1.69384 0.842959 0
M  V30 13244 O 1269.19 -1.82722 -0.189286 0
M  V30 13245 C 1269.25 -1.54107 3.24794 0
M  V30 13246 C 1268.92 -0.741709 4.50941 0
M  V30 13247 C 1269.91 -0.0416985 5.19883 0
M  V30 13248 C 1267.6 -0.696053 4.97454 0
M  V30 13249 C 1269.59 0.693261 6.33619 0
M  V30 13250 C 1267.28 0.042651 6.11085 0
M  V30 13251 C 1268.28 0.736067 6.79022 0
M  V30 13252 O 1267.97 1.46278 7.9048 0
M  V30 13253 H 1267.7 -0.210092 0.642524 0
M  V30 13254 H 1270.25 0.0102277 2.05397 0
M  V30 13255 H 1268.48 -2.3249 3.09007 0
M  V30 13256 H 1270.17 -2.12512 3.45823 0
M  V30 13257 H 1270.94 -0.0679975 4.84952 0
M  V30 13258 H 1266.82 -1.22528 4.44419 0
M  V30 13259 H 1270.36 1.23504 6.8658 0
M  V30 13260 H 1266.26 0.0708708 6.45461 0
M  V30 13261 H 1267.02 1.37652 8.06842 0
M  V30 13262 N 1269.69 -1.54705 -0.300681 0
M  V30 13263 C 1270.91 -1.78318 -1.05913 0
M  V30 13264 C 1271.34 -0.541177 -1.80147 0
M  V30 13265 O 1270.7 0.508291 -1.74029 0
M  V30 13266 C 1270.74 -2.99041 -2.01511 0
M  V30 13267 O 1269.85 -2.72188 -3.09818 0
M  V30 13268 H 1269.19 -0.590197 -0.304242 0
M  V30 13269 H 1271.72 -2.01789 -0.338006 0
M  V30 13270 H 1271.73 -3.2702 -2.43971 0
M  V30 13271 H 1270.4 -3.89098 -1.46886 0
M  V30 13272 H 1268.98 -2.55227 -2.71871 0
M  V30 13273 N 1271.17 0.563888 -1.47167 0
M  V30 13274 C 1272.58 1.14603 -1.47388 0
M  V30 13275 C 1272.93 1.94907 -0.224916 0
M  V30 13276 O 1272.05 2.05745 0.670672 0
M  V30 13277 C 1272.65 2.08501 -2.67044 0
M  V30 13278 C 1271.21 2.62 -2.70246 0
M  V30 13279 C 1270.35 1.38244 -2.40383 0
M  V30 13280 H 1273.31 0.350833 -1.54774 0
M  V30 13281 H 1273.33 2.92272 -2.43634 0
M  V30 13282 H 1272.84 1.50027 -3.57929 0
M  V30 13283 H 1270.94 3.24292 -1.83482 0
M  V30 13284 H 1271.05 3.0345 -3.70749 0
M  V30 13285 H 1269.42 1.68692 -1.90827 0
M  V30 13286 H 1270.2 0.815726 -3.33468 0
M  V30 13287 N 1272.64 1.35187 0.810078 0
M  V30 13288 C 1273.92 1.18832 1.55365 0
M  V30 13289 C 1274.3 -0.233956 2.098 0
M  V30 13290 O 1273.65 -1.23701 1.92121 0
M  V30 13291 C 1273.86 2.25351 2.66492 0
M  V30 13292 C 1275.21 2.60981 3.34924 0
M  V30 13293 O 1276.23 2.24238 2.7676 0
M  V30 13294 O 1275.09 3.24147 4.3999 0
M  V30 13295 H 1272.18 0.461446 0.686292 0
M  V30 13296 H 1274.73 1.46858 0.850341 0
M  V30 13297 H 1273.5 3.20762 2.24115 0
M  V30 13298 H 1273.13 1.98575 3.44462 0
M  V30 13299 N 1274.12 -1.03182 1.19127 0
M  V30 13300 C 1275.35 -1.80165 1.01726 0
M  V30 13301 C 1275.77 -1.83742 -0.434095 0
M  V30 13302 O 1275.12 -1.27932 -1.30152 0
M  V30 13303 C 1275.17 -3.25354 1.57566 0
M  V30 13304 O 1274.89 -3.22042 2.9702 0
M  V30 13305 C 1276.4 -4.18948 1.44906 0
M  V30 13306 H 1273.62 -0.567078 0.358698 0
M  V30 13307 H 1276.16 -1.29982 1.57877 0
M  V30 13308 H 1274.31 -3.72738 1.0557 0
M  V30 13309 H 1274.73 -4.13061 3.23235 0
M  V30 13310 H 1276.2 -5.18723 1.88762 0
M  V30 13311 H 1276.68 -4.37383 0.399125 0
M  V30 13312 H 1277.29 -3.77435 1.96018 0
M  V30 13313 N 1275.6 -0.99472 -1.22242 0
M  V30 13314 C 1276.55 -0.546504 -2.24236 0
M  V30 13315 C 1277.52 0.422101 -1.60647 0
M  V30 13316 O 1278.7 0.326452 -1.87987 0
M  V30 13317 C 1275.84 0.130909 -3.44852 0
M  V30 13318 C 1274.96 -0.879653 -4.22949 0
M  V30 13319 C 1274.09 -0.175569 -5.3091 0
M  V30 13320 C 1273.13 -1.17438 -6.00729 0
M  V30 13321 N 1272.27 -0.498474 -7.00328 0
M  V30 13322 H 1277.11 -1.42099 -2.61939 0
M  V30 13323 H 1274.64 -0.711755 -1.28734 0
M  V30 13324 H 1276.6 0.540596 -4.13683 0
M  V30 13325 H 1275.23 0.96917 -3.07907 0
M  V30 13326 H 1274.28 -1.40765 -3.53397 0
M  V30 13327 H 1275.6 -1.64017 -4.71062 0
M  V30 13328 H 1274.75 0.290756 -6.06003 0
M  V30 13329 H 1273.49 0.617438 -4.83776 0
M  V30 13330 H 1272.49 -1.65131 -5.24416 0
M  V30 13331 H 1273.72 -1.96829 -6.4995 0
M  V30 13332 H 1271.66 0.275063 -6.55423 0
M  V30 13333 H 1271.58 -1.19741 -7.46457 0
M  V30 13334 H 1272.85 -0.0550119 -7.79481 0
M  V30 13335 N 1277.08 1.37613 -0.768148 0
M  V30 13336 C 1278.32 2.00075 -0.331331 0
M  V30 13337 C 1278.66 1.60839 1.08833 0
M  V30 13338 O 1277.93 0.852849 1.74805 0
M  V30 13339 C 1278.22 3.57009 -0.470789 0
M  V30 13340 C 1278.07 4.06166 -1.9326 0
M  V30 13341 C 1279.39 4.39916 0.127111 0
M  V30 13342 H 1276.51 0.726855 -0.121864 0
M  V30 13343 H 1279.15 1.63343 -0.970518 0
M  V30 13344 H 1277.3 3.88431 0.0733688 0
M  V30 13345 H 1278.97 3.85325 -2.53618 0
M  V30 13346 H 1277.21 3.58492 -2.44266 0
M  V30 13347 H 1277.88 5.15219 -1.98125 0
M  V30 13348 H 1280.36 4.14732 -0.337144 0
M  V30 13349 H 1279.24 5.489 -0.000624226 0
M  V30 13350 H 1279.5 4.25018 1.21704 0
M  V30 13351 N 1278.56 0.518393 1.4883 0
M  V30 13352 C 1279.49 -0.239685 2.32267 0
M  V30 13353 C 1280.47 -0.94613 1.41359 0
M  V30 13354 O 1281.65 -0.934162 1.70256 0
M  V30 13355 C 1278.78 -1.29411 3.22289 0
M  V30 13356 C 1277.74 -0.706504 4.22129 0
M  V30 13357 C 1277.06 -1.86273 5.01205 0
M  V30 13358 C 1278.36 0.314079 5.21355 0
M  V30 13359 H 1280.06 0.4568 2.95895 0
M  V30 13360 H 1277.6 0.221126 1.42292 0
M  V30 13361 H 1279.56 -1.8323 3.7948 0
M  V30 13362 H 1278.28 -2.02001 2.56638 0
M  V30 13363 H 1276.94 -0.189924 3.66108 0
M  V30 13364 H 1276.59 -2.57674 4.31988 0
M  V30 13365 H 1276.29 -1.47554 5.68772 0
M  V30 13366 H 1277.81 -2.40492 5.61245 0
M  V30 13367 H 1279.22 -0.136604 5.73137 0
M  V30 13368 H 1277.62 0.618026 5.96909 0
M  V30 13369 H 1278.69 1.22394 4.69199 0
M  V30 13370 N 1280.03 -1.55556 0.252993 0
M  V30 13371 C 1281.31 -1.91022 -0.420696 0
M  V30 13372 C 1281.69 -1.17452 -1.75409 0
M  V30 13373 O 1281.04 -0.294 -2.26601 0
M  V30 13374 C 1281.25 -3.441 -0.582787 0
M  V30 13375 C 1282.6 -4.15468 -0.875873 0
M  V30 13376 O 1283.62 -3.49872 -0.668425 0
M  V30 13377 O 1282.48 -5.31508 -1.27128 0
M  V30 13378 H 1279.57 -0.7953 -0.226776 0
M  V30 13379 H 1282.12 -1.67072 0.297511 0
M  V30 13380 H 1280.89 -3.89673 0.356474 0
M  V30 13381 H 1280.52 -3.73933 -1.3513 0
M  V30 13382 N 1281.51 0.0200419 -1.57587 0
M  V30 13383 C 1282.76 0.708115 -1.88861 0
M  V30 13384 C 1283.07 1.76036 -0.852693 0
M  V30 13385 O 1284.28 2.50165 -1.05497 0
M  V30 13386 C 1282.74 1.31057 -3.3519 0
M  V30 13387 C 1282.34 0.294202 -4.47033 0
M  V30 13388 C 1284.09 1.97799 -3.756 0
M  V30 13389 C 1282 0.905508 -5.84427 0
M  V30 13390 H 1280.93 0.268236 -0.704674 0
M  V30 13391 H 1283.58 -0.0372162 -1.83462 0
M  V30 13392 H 1281.96 2.1059 -3.35362 0
M  V30 13393 H 1283.13 -0.475081 -4.58344 0
M  V30 13394 H 1281.45 -0.271644 -4.15513 0
M  V30 13395 H 1284.04 2.44404 -4.75574 0
M  V30 13396 H 1284.39 2.80004 -3.08064 0
M  V30 13397 H 1284.92 1.25028 -3.77641 0
M  V30 13398 H 1281.66 0.122685 -6.55385 0
M  V30 13399 H 1281.18 1.64442 -5.76818 0
M  V30 13400 H 1282.86 1.41016 -6.31446 0
M  V30 13401 N 1282.99 1.54862 0.292472 0
M  V30 13402 C 1284.23 1.76289 1.03448 0
M  V30 13403 C 1284.59 0.541914 1.84194 0
M  V30 13404 O 1285.8 0.634075 2.61214 0
M  V30 13405 C 1284.07 3.02112 1.90953 0
M  V30 13406 S 1285.63 3.44577 2.71683 0
M  V30 13407 H 1282.44 0.619596 0.348744 0
M  V30 13408 H 1285.05 1.93075 0.306952 0
M  V30 13409 H 1283.75 3.89091 1.30523 0
M  V30 13410 H 1283.28 2.87937 2.68059 0
M  V30 13411 H 1285.3 3.02318 3.93469 0
M  V30 13412 N 1284.47 -0.556076 1.47464 0
M  V30 13413 C 1285.71 -1.31515 1.54375 0
M  V30 13414 C 1286.05 -1.93106 0.205837 0
M  V30 13415 O 1285.32 -1.77927 -0.785643 0
M  V30 13416 C 1285.61 -2.4244 2.66261 0
M  V30 13417 C 1285.46 -1.8571 4.09673 0
M  V30 13418 C 1286.78 -3.4436 2.74051 0
M  V30 13419 H 1283.9 -0.476817 0.561974 0
M  V30 13420 H 1286.54 -0.622157 1.79525 0
M  V30 13421 H 1284.69 -3.01551 2.44948 0
M  V30 13422 H 1286.36 -1.30851 4.42353 0
M  V30 13423 H 1284.6 -1.16379 4.17898 0
M  V30 13424 H 1285.27 -2.65904 4.83735 0
M  V30 13425 H 1287.75 -2.95169 2.93282 0
M  V30 13426 H 1286.63 -4.194 3.54111 0
M  V30 13427 H 1286.89 -4.03281 1.81155 0
M  V30 13428 N 1285.95 -1.35615 -0.802897 0
M  V30 13429 C 1287.17 -1.32377 -1.59659 0
M  V30 13430 C 1287.6 0.0954235 -1.87858 0
M  V30 13431 O 1286.96 1.06336 -1.46842 0
M  V30 13432 C 1287 -2.13972 -2.90256 0
M  V30 13433 O 1286.11 -1.52296 -3.83249 0
M  V30 13434 H 1285.45 -0.453699 -0.484823 0
M  V30 13435 H 1287.98 -1.78708 -0.996217 0
M  V30 13436 H 1287.99 -2.26061 -3.39647 0
M  V30 13437 H 1286.66 -3.17145 -2.69057 0
M  V30 13438 H 1285.24 -1.49068 -3.41809 0
M  V30 13439 N 1287.43 1.02549 -1.19673 0
M  V30 13440 C 1288.36 2.12794 -0.961289 0
M  V30 13441 C 1289.34 1.69766 0.106575 0
M  V30 13442 O 1290.52 1.94138 -0.0491358 0
M  V30 13443 C 1287.65 3.4364 -0.502868 0
M  V30 13444 C 1286.61 4.00367 -1.51296 0
M  V30 13445 C 1285.93 5.26874 -0.911491 0
M  V30 13446 C 1287.23 4.34782 -2.89416 0
M  V30 13447 H 1288.93 2.32748 -1.88331 0
M  V30 13448 H 1286.47 1.11852 -0.906922 0
M  V30 13449 H 1288.42 4.20141 -0.325436 0
M  V30 13450 H 1287.15 3.23418 0.454764 0
M  V30 13451 H 1285.81 3.25964 -1.67759 0
M  V30 13452 H 1285.46 5.02971 0.0537982 0
M  V30 13453 H 1285.16 5.65791 -1.58602 0
M  V30 13454 H 1286.68 6.06039 -0.74493 0
M  V30 13455 H 1288.09 5.02207 -2.76516 0
M  V30 13456 H 1286.49 4.8479 -3.53693 0
M  V30 13457 H 1287.56 3.43935 -3.41814 0
M  V30 13458 N 1288.9 1.00119 1.21713 0
M  V30 13459 C 1289.83 0.578504 2.2622 0
M  V30 13460 C 1290.81 -0.398777 1.6536 0
M  V30 13461 O 1292 -0.287596 1.92059 0
M  V30 13462 C 1289.13 -0.0994508 3.47158 0
M  V30 13463 C 1288.08 0.79722 4.2051 0
M  V30 13464 C 1287.41 -0.0141125 5.34698 0
M  V30 13465 C 1288.71 2.09802 4.7831 0
M  V30 13466 H 1290.4 1.45208 2.6183 0
M  V30 13467 H 1287.95 0.699656 1.2586 0
M  V30 13468 H 1289.9 -0.406605 4.19434 0
M  V30 13469 H 1288.63 -1.00763 3.10667 0
M  V30 13470 H 1287.29 1.08814 3.50079 0
M  V30 13471 H 1286.93 -0.923468 4.9445 0
M  V30 13472 H 1286.63 0.582883 5.84702 0
M  V30 13473 H 1288.16 -0.31517 6.09786 0
M  V30 13474 H 1289.57 1.85427 5.42485 0
M  V30 13475 H 1287.97 2.64455 5.38687 0
M  V30 13476 H 1289.04 2.77132 3.97902 0
M  V30 13477 N 1290.38 -1.37203 0.775435 0
M  V30 13478 C 1291.31 -2.27933 0.110444 0
M  V30 13479 C 1292.29 -1.46513 -0.705179 0
M  V30 13480 O 1293.48 -1.7584 -0.679154 0
M  V30 13481 C 1290.6 -3.27868 -0.84971 0
M  V30 13482 C 1289.65 -4.26338 -0.117627 0
M  V30 13483 S 1290.48 -5.21952 1.19691 0
M  V30 13484 C 1291.64 -6.25438 0.240393 0
M  V30 13485 H 1291.87 -2.83985 0.879766 0
M  V30 13486 H 1289.4 -1.43533 0.568996 0
M  V30 13487 H 1291.36 -3.85952 -1.39827 0
M  V30 13488 H 1290.02 -2.70756 -1.59217 0
M  V30 13489 H 1289.22 -4.96855 -0.845639 0
M  V30 13490 H 1288.82 -3.72263 0.360041 0
M  V30 13491 H 1291.11 -6.74962 -0.585867 0
M  V30 13492 H 1292.05 -7.02178 0.913846 0
M  V30 13493 H 1292.46 -5.64301 -0.150043 0
M  V30 13494 N 1291.86 -0.526279 -1.48553 0
M  V30 13495 C 1293.11 0.00914839 -2.02098 0
M  V30 13496 C 1293.43 1.35119 -1.40598 0
M  V30 13497 O 1292.7 1.87422 -0.570065 0
M  V30 13498 H 1291.28 0.00636935 -0.746973 0
M  V30 13499 H 1293.94 -0.689269 -1.82305 0
M  V30 13500 H 1293.04 0.120212 -3.11868 0
M  V30 13501 N 1293.34 1.5542 -0.261239 0
M  V30 13502 C 1294.25 2.25627 0.642625 0
M  V30 13503 C 1295.26 1.27732 1.18155 0
M  V30 13504 O 1296.44 1.60639 1.21479 0
M  V30 13505 C 1293.5 2.95303 1.8165 0
M  V30 13506 C 1292.57 4.08644 1.31563 0
M  V30 13507 C 1291.8 4.74988 2.43355 0
M  V30 13508 O 1292.02 4.40474 3.62407 0
M  V30 13509 O 1290.96 5.63217 2.12299 0
M  V30 13510 H 1294.78 3.03609 0.0743091 0
M  V30 13511 H 1292.37 1.49372 -0.0291754 0
M  V30 13512 H 1294.25 3.3914 2.50125 0
M  V30 13513 H 1292.92 2.2025 2.37217 0
M  V30 13514 H 1291.83 3.69294 0.597746 0
M  V30 13515 H 1293.16 4.85558 0.805878 0
M  V30 13516 N 1294.82 -0.0116844 1.57596 0
M  V30 13517 C 1295.75 -1.03477 2.04512 0
M  V30 13518 C 1296.76 -1.31414 0.960945 0
M  V30 13519 O 1297.95 -1.28596 1.23796 0
M  V30 13520 C 1295.05 -2.37234 2.42019 0
M  V30 13521 C 1294.22 -2.28405 3.73028 0
M  V30 13522 C 1293.28 -3.44753 3.97532 0
M  V30 13523 O 1292.31 -3.23465 4.68358 0
M  V30 13524 N 1293.51 -4.67212 3.44518 0
M  V30 13525 H 1296.27 -0.634758 2.92901 0
M  V30 13526 H 1293.84 -0.1993 1.60669 0
M  V30 13527 H 1295.83 -3.13821 2.55535 0
M  V30 13528 H 1294.4 -2.69018 1.5921 0
M  V30 13529 H 1293.62 -1.36804 3.697 0
M  V30 13530 H 1294.91 -2.19666 4.58938 0
M  V30 13531 H 1294.3 -4.87407 2.87142 0
M  V30 13532 H 1292.86 -5.41105 3.63384 0
M  V30 13533 N 1296.29 -1.55015 -0.284256 0
M  V30 13534 C 1297.54 -1.7509 -1.01733 0
M  V30 13535 C 1297.87 -0.545803 -1.86685 0
M  V30 13536 O 1297.12 0.471951 -1.89924 0
M  V30 13537 C 1297.42 -3.00246 -1.93874 0
M  V30 13538 C 1297.09 -4.33295 -1.24764 0
M  V30 13539 C 1295.75 -4.69459 -1.0565 0
M  V30 13540 C 1298.1 -5.15704 -0.754939 0
M  V30 13541 C 1295.43 -5.85596 -0.35976 0
M  V30 13542 C 1297.78 -6.32559 -0.0718473 0
M  V30 13543 C 1296.45 -6.67371 0.131104 0
M  V30 13544 H 1295.72 -0.6407 -0.372269 0
M  V30 13545 H 1298.36 -1.89282 -0.290638 0
M  V30 13546 H 1296.67 -2.80907 -2.73127 0
M  V30 13547 H 1298.37 -3.12974 -2.50696 0
M  V30 13548 H 1294.96 -4.04865 -1.4065 0
M  V30 13549 H 1299.14 -4.8825 -0.89027 0
M  V30 13550 H 1294.4 -6.11099 -0.19169 0
M  V30 13551 H 1298.57 -6.95675 0.317743 0
M  V30 13552 H 1296.2 -7.57215 0.672977 0
M  V30 13553 N 1297.77 0.548248 -1.47757 0
M  V30 13554 C 1298.7 1.66409 -1.63799 0
M  V30 13555 C 1299.68 1.62973 -0.487211 0
M  V30 13556 O 1300.87 1.80455 -0.717612 0
M  V30 13557 C 1298 3.05035 -1.66046 0
M  V30 13558 C 1296.95 3.23322 -2.80441 0
M  V30 13559 C 1296.28 4.62824 -2.67765 0
M  V30 13560 C 1297.58 3.07837 -4.2194 0
M  V30 13561 H 1299.27 1.53239 -2.57212 0
M  V30 13562 H 1296.82 0.735783 -1.23783 0
M  V30 13563 H 1298.77 3.82951 -1.75859 0
M  V30 13564 H 1297.49 3.19185 -0.69199 0
M  V30 13565 H 1296.15 2.47816 -2.70153 0
M  V30 13566 H 1295.8 4.73786 -1.68927 0
M  V30 13567 H 1295.5 4.76007 -3.44515 0
M  V30 13568 H 1297.03 5.42864 -2.7952 0
M  V30 13569 H 1298.44 3.75563 -4.33157 0
M  V30 13570 H 1296.84 3.32525 -4.99547 0
M  V30 13571 H 1297.91 2.04474 -4.3968 0
M  V30 13572 N 1299.25 1.36039 0.795694 0
M  V30 13573 C 1300.5 1.30112 1.5556 0
M  V30 13574 C 1300.83 -0.121197 1.93821 0
M  V30 13575 O 1300.1 -1.07313 1.62216 0
M  V30 13576 C 1300.39 2.21792 2.8369 0
M  V30 13577 C 1300.24 3.72691 2.51836 0
M  V30 13578 C 1301.56 2.12365 3.85472 0
M  V30 13579 H 1298.68 0.473971 0.564376 0
M  V30 13580 H 1301.32 1.66536 0.91465 0
M  V30 13581 H 1299.47 1.9086 3.38386 0
M  V30 13582 H 1301.14 4.14115 2.0324 0
M  V30 13583 H 1299.38 3.92436 1.84869 0
M  V30 13584 H 1300.06 4.32242 3.43323 0
M  V30 13585 H 1302.53 2.3958 3.40207 0
M  V30 13586 H 1301.41 2.78695 4.72885 0
M  V30 13587 H 1301.67 1.10898 4.27965 0
M  V30 13588 N 1300.73 -1.01913 1.20215 0
M  V30 13589 C 1301.95 -1.79613 1.03702 0
M  V30 13590 C 1302.38 -1.83591 -0.409374 0
M  V30 13591 O 1301.74 -1.26911 -1.29473 0
M  V30 13592 C 1301.78 -3.22052 1.62219 0
M  V30 13593 O 1300.89 -4.03374 0.858106 0
M  V30 13594 H 1300.23 -0.554095 0.365889 0
M  V30 13595 H 1302.76 -1.28203 1.59452 0
M  V30 13596 H 1302.77 -3.72772 1.65847 0
M  V30 13597 H 1301.44 -3.18471 2.67487 0
M  V30 13598 H 1300.02 -3.6198 0.895835 0
M  V30 13599 N 1302.21 -1.00763 -1.2118 0
M  V30 13600 C 1303.45 -0.702542 -1.90882 0
M  V30 13601 C 1303.81 0.758686 -1.7681 0
M  V30 13602 O 1303.1 1.54313 -1.1357 0
M  V30 13603 C 1303.29 -1.06187 -3.41261 0
M  V30 13604 C 1303.12 -2.55648 -3.69965 0
M  V30 13605 C 1301.89 -3.2229 -3.89175 0
M  V30 13606 C 1304.09 -3.53814 -3.73256 0
M  V30 13607 N 1302.07 -4.61075 -4.05319 0
M  V30 13608 C 1303.44 -4.7812 -3.94716 0
M  V30 13609 C 1305.5 -3.47913 -3.56175 0
M  V30 13610 C 1304.2 -5.97242 -4.00867 0
M  V30 13611 C 1306.23 -4.66427 -3.63593 0
M  V30 13612 C 1305.59 -5.89539 -3.85517 0
M  V30 13613 H 1301.69 -0.3086 -0.718533 0
M  V30 13614 H 1304.27 -1.29063 -1.45776 0
M  V30 13615 H 1302.44 -0.502205 -3.8514 0
M  V30 13616 H 1304.18 -0.711246 -3.98401 0
M  V30 13617 H 1300.93 -2.7273 -3.87189 0
M  V30 13618 H 1301.36 -5.33105 -4.17287 0
M  V30 13619 H 1306 -2.53735 -3.38199 0
M  V30 13620 H 1303.72 -6.9181 -4.17642 0
M  V30 13621 H 1307.3 -4.63467 -3.51695 0
M  V30 13622 H 1306.18 -6.79711 -3.91104 0
M  V30 13623 N 1303.68 1.3679 -0.7827 0
M  V30 13624 C 1304.92 2.01252 -0.357327 0
M  V30 13625 C 1305.29 1.60782 1.04944 0
M  V30 13626 O 1306.49 2.17785 1.57553 0
M  V30 13627 C 1304.76 3.53766 -0.508352 0
M  V30 13628 S 1306.32 4.38471 -0.169862 0
M  V30 13629 H 1303.14 0.697701 -0.136875 0
M  V30 13630 H 1305.74 1.66799 -1.01972 0
M  V30 13631 H 1304.44 3.80708 -1.53262 0
M  V30 13632 H 1303.97 3.93032 0.170209 0
M  V30 13633 H 1305.99 4.85373 1.03088 0
M  V30 13634 O 1305.2 0.675472 1.46696 0
M  V30 13635 H 1305.89 0.207859 1.92582 0
M  V30 END ATOM
M  V30 BEGIN BOND
M  V30 END BOND
M  V30 END CTAB
M  END
$$$$
