drugbank_drug|DB01270 Ranibizumab Heavy Chain
 OpenBabel12092119113D

  0  0  0     0  0            999 V3000
M  V30 BEGIN CTAB
M  V30 COUNTS 3460 3512 0 0 0
M  V30 BEGIN ATOM
M  V30 1 H -0.908 1.98254 -0.117106 0
M  V30 2 N 0 1.576 0 0
M  V30 3 C 0.91 2.11853 1.00774 0
M  V30 4 C 1.926 1.06379 1.37693 0
M  V30 5 O 3.102 1.3828 1.46426 0
M  V30 6 C 0.167 2.61108 2.28087 0
M  V30 7 C -0.772 3.81183 1.9748 0
M  V30 8 C -1.539 4.28079 3.18723 0
M  V30 9 O -1.316 3.74307 4.30407 0
M  V30 10 O -2.382 5.20234 3.02721 0
M  V30 11 H 1.444 2.98177 0.576547 0
M  V30 12 H -0.971 1.47789 0.218828 0
M  V30 13 H 0.911 2.92987 3.0288 0
M  V30 14 H -0.414 1.77881 2.70444 0
M  V30 15 H -1.507 3.54277 1.20162 0
M  V30 16 H -0.174 4.65482 1.5996 0
M  V30 17 N 1.4781 -0.272755 1.55222 0
M  V30 18 C 2.7241 -1.00581 1.761 0
M  V30 19 C 3.0571 -1.85932 0.560625 0
M  V30 20 O 2.3321 -1.89416 -0.441801 0
M  V30 21 C 2.6151 -1.88816 3.06628 0
M  V30 22 C 2.4681 -1.06457 4.37021 0
M  V30 23 C 3.7871 -2.8752 3.33197 0
M  V30 24 H 0.9061 -0.364244 0.640699 0
M  V30 25 H 3.5481 -0.278189 1.87952 0
M  V30 26 H 1.6981 -2.50856 2.96654 0
M  V30 27 H 3.3701 -0.464863 4.58952 0
M  V30 28 H 1.6131 -0.368043 4.32236 0
M  V30 29 H 2.2841 -1.71514 5.24678 0
M  V30 30 H 4.7601 -2.35615 3.42965 0
M  V30 31 H 3.6361 -3.46399 4.25792 0
M  V30 32 H 3.8971 -3.62657 2.52849 0
M  V30 33 N 2.9562 -1.48159 -0.537278 0
M  V30 34 C 3.8882 -1.58218 -1.65831 0
M  V30 35 C 4.9012 -0.466948 -1.5596 0
M  V30 36 O 6.0902 -0.73747 -1.62553 0
M  V30 37 C 3.1902 -1.48906 -3.04434 0
M  V30 38 C 2.3632 -2.75343 -3.3986 0
M  V30 39 C 1.4222 -2.59588 -4.57712 0
M  V30 40 O 0.4482 -3.33457 -4.61297 0
M  V30 41 N 1.6502 -1.68724 -5.55439 0
M  V30 42 H 4.4152 -2.54891 -1.57641 0
M  V30 43 H 1.9762 -1.4479 -0.724386 0
M  V30 44 H 3.9682 -1.36072 -3.81139 0
M  V30 45 H 2.5382 -0.602368 -3.06741 0
M  V30 46 H 1.7582 -3.02795 -2.52406 0
M  V30 47 H 3.0462 -3.5924 -3.60311 0
M  V30 48 H 2.4442 -1.07898 -5.55315 0
M  V30 49 H 1.0012 -1.61832 -6.3139 0
M  V30 50 N 4.4343 0.785586 -1.36625 0
M  V30 51 C 5.3643 1.91259 -1.33949 0
M  V30 52 C 6.3453 1.68795 -0.210325 0
M  V30 53 O 7.5303 1.89854 -0.408561 0
M  V30 54 C 4.6603 3.28339 -1.13186 0
M  V30 55 C 3.6143 3.65335 -2.22967 0
M  V30 56 C 2.9403 5.00806 -1.87342 0
M  V30 57 C 4.2403 3.7352 -3.65075 0
M  V30 58 H 5.9343 1.93755 -2.28253 0
M  V30 59 H 3.4803 0.930788 -1.09874 0
M  V30 60 H 5.4333 4.06804 -1.09948 0
M  V30 61 H 4.1573 3.2624 -0.153332 0
M  V30 62 H 2.8163 2.89169 -2.25337 0
M  V30 63 H 2.4643 4.95233 -0.880545 0
M  V30 64 H 2.1643 5.26529 -2.60846 0
M  V30 65 H 3.6883 5.81687 -1.85667 0
M  V30 66 H 5.1023 4.42168 -3.64911 0
M  V30 67 H 3.4993 4.10731 -4.37516 0
M  V30 68 H 4.5693 2.74527 -3.99703 0
M  V30 69 N 5.9124 1.20967 1.01018 0
M  V30 70 C 7.1584 1.02526 1.74975 0
M  V30 71 C 7.4914 -0.4408 1.89131 0
M  V30 72 O 6.7664 -1.32718 1.42184 0
M  V30 73 C 7.0494 1.71699 3.1653 0
M  V30 74 C 6.9024 3.25791 3.10129 0
M  V30 75 C 8.2214 1.45531 4.15342 0
M  V30 76 H 5.3404 0.373863 0.635134 0
M  V30 77 H 7.9824 1.49071 1.17805 0
M  V30 78 H 6.1324 1.32128 3.65341 0
M  V30 79 H 7.8044 3.74697 2.69072 0
M  V30 80 H 6.0474 3.56363 2.47362 0
M  V30 81 H 6.7184 3.69353 4.10222 0
M  V30 82 H 9.1944 1.79872 3.75213 0
M  V30 83 H 8.0704 1.96453 5.1254 0
M  V30 84 H 8.3314 0.384237 4.40427 0
M  V30 85 N 7.3905 -1.2043 1.01659 0
M  V30 86 C 8.3005 -2.2689 0.596484 0
M  V30 87 C 9.3165 -1.70107 -0.36599 0
M  V30 88 O 10.4925 -2.00117 -0.226942 0
M  V30 89 C 7.5575 -3.4665 -0.0586659 0
M  V30 90 C 6.6185 -4.18662 0.949751 0
M  V30 91 C 5.8515 -5.32705 0.32577 0
M  V30 92 O 6.0745 -5.63656 -0.874509 0
M  V30 93 O 5.0085 -5.92803 1.04249 0
M  V30 94 H 8.8345 -2.65041 1.4828 0
M  V30 95 H 6.4195 -1.27048 0.786082 0
M  V30 96 H 8.3015 -4.19256 -0.424564 0
M  V30 97 H 6.9765 -3.10375 -0.91918 0
M  V30 98 H 5.8835 -3.48229 1.36702 0
M  V30 99 H 7.2165 -4.58878 1.78023 0
M  V30 100 N 8.8686 -0.792821 -1.36206 0
M  V30 101 C 10.0936 -0.377701 -2.03932 0
M  V30 102 C 10.5186 0.998947 -1.59382 0
M  V30 103 O 9.8766 1.64421 -0.763903 0
M  V30 104 C 9.9246 -0.453635 -3.57735 0
M  V30 105 O 9.0286 0.538151 -4.08874 0
M  V30 106 H 8.3696 -0.159855 -0.644471 0
M  V30 107 H 10.8996 -1.07488 -1.7409 0
M  V30 108 H 10.9096 -0.318464 -4.06755 0
M  V30 109 H 9.5846 -1.45784 -3.89512 0
M  V30 110 H 8.1616 0.364359 -3.71116 0
M  V30 111 N 10.3467 1.47872 -0.545128 0
M  V30 112 C 11.5947 2.02093 -0.016553 0
M  V30 113 C 11.9157 1.42305 1.3332 0
M  V30 114 O 11.1857 0.593853 1.86682 0
M  V30 115 H 9.7657 0.746993 -0.00313038 0
M  V30 116 H 12.4277 1.81414 -0.712397 0
M  V30 117 H 11.5237 3.11996 0.0805422 0
M  V30 118 N 11.8248 0.280983 1.55075 0
M  V30 119 C 13.0728 -0.333455 1.9933 0
M  V30 120 C 13.3938 -1.55937 1.17085 0
M  V30 121 O 12.6638 -1.94143 0.261805 0
M  V30 122 H 11.2438 -0.126197 0.736263 0
M  V30 123 H 13.9058 0.387678 1.91005 0
M  V30 124 H 13.0018 -0.619292 3.05894 0
M  V30 125 N 13.3029 -1.57598 0.00835791 0
M  V30 126 C 14.5509 -1.90551 -0.6734 0
M  V30 127 C 14.8719 -0.883301 -1.73847 0
M  V30 128 O 14.1419 0.0781442 -1.95744 0
M  V30 129 H 12.7219 -0.703312 -0.251717 0
M  V30 130 H 15.3839 -1.94833 0.0512592 0
M  V30 131 H 14.4799 -2.9056 -1.13935 0
M  V30 132 N 14.781 0.264519 -1.55364 0
M  V30 133 C 15.711 1.33121 -1.91836 0
M  V30 134 C 16.692 1.51101 -0.781192 0
M  V30 135 O 17.877 1.64003 -1.04003 0
M  V30 136 C 15.007 2.68921 -2.19769 0
M  V30 137 C 13.961 2.65661 -3.35571 0
M  V30 138 C 13.287 4.05093 -3.49004 0
M  V30 139 C 14.587 2.24187 -4.71739 0
M  V30 140 H 16.281 1.02844 -2.81182 0
M  V30 141 H 13.827 0.493286 -1.35287 0
M  V30 142 H 15.78 3.43663 -2.43872 0
M  V30 143 H 14.504 3.00799 -1.27231 0
M  V30 144 H 13.163 1.93377 -3.1145 0
M  V30 145 H 12.811 4.34206 -2.53917 0
M  V30 146 H 12.511 4.03804 -4.26868 0
M  V30 147 H 14.035 4.81561 -3.75408 0
M  V30 148 H 15.449 2.88654 -4.9533 0
M  V30 149 H 13.846 2.34044 -5.52579 0
M  V30 150 H 14.916 1.19327 -4.69988 0
M  V30 151 N 16.2591 1.48442 0.529413 0
M  V30 152 C 17.5051 1.5672 1.28711 0
M  V30 153 C 17.8381 0.2406 1.92704 0
M  V30 154 O 17.1131 -0.753454 1.79313 0
M  V30 155 C 17.3961 2.70587 2.37603 0
M  V30 156 C 17.2491 4.12953 1.78297 0
M  V30 157 C 18.5681 2.80212 3.39366 0
M  V30 158 H 15.6871 0.570474 0.466613 0
M  V30 159 H 18.3291 1.80617 0.589706 0
M  V30 160 H 16.4791 2.50342 2.97088 0
M  V30 161 H 18.1511 4.44639 1.22858 0
M  V30 162 H 16.3941 4.19927 1.0883 0
M  V30 163 H 17.0651 4.88448 2.57144 0
M  V30 164 H 19.5411 2.98553 2.89836 0
M  V30 165 H 18.4171 3.61611 4.12951 0
M  V30 166 H 18.6781 1.88393 3.99951 0
M  V30 167 N 17.7372 -0.778329 1.37039 0
M  V30 168 C 18.6692 -1.90034 1.2814 0
M  V30 169 C 19.6822 -1.61585 0.198558 0
M  V30 170 O 20.8712 -1.72625 0.454175 0
M  V30 171 C 17.9712 -3.25108 0.956968 0
M  V30 172 C 17.1442 -3.81253 2.14394 0
M  V30 173 C 16.2032 -4.94789 1.79082 0
M  V30 174 O 15.2292 -5.10721 2.51301 0
M  V30 175 N 16.4312 -5.75878 0.731043 0
M  V30 176 H 19.1962 -1.98186 2.24816 0
M  V30 177 H 16.7572 -0.957129 1.30578 0
M  V30 178 H 18.7492 -3.9857 0.701701 0
M  V30 179 H 17.3192 -3.125 0.0789812 0
M  V30 180 H 16.5392 -2.99647 2.56135 0
M  V30 181 H 17.8272 -4.15495 2.93668 0
M  V30 182 H 17.2252 -5.65547 0.131618 0
M  V30 183 H 15.7822 -6.49596 0.535622 0
M  V30 184 N 19.2153 -1.21501 -1.00376 0
M  V30 185 C 20.6263 -1.03146 -1.55621 0
M  V30 186 C 20.9773 0.408375 -1.91903 0
M  V30 187 O 20.1023 1.29177 -1.73616 0
M  V30 188 C 20.6973 -1.86612 -2.82775 0
M  V30 189 C 19.2563 -1.72586 -3.34501 0
M  V30 190 C 18.4033 -1.83747 -2.07683 0
M  V30 191 H 21.3543 -1.35505 -0.826081 0
M  V30 192 H 21.3753 -1.3771 -3.54706 0
M  V30 193 H 20.8873 -2.91399 -2.56336 0
M  V30 194 H 18.9883 -0.704877 -3.65872 0
M  V30 195 H 19.1013 -2.54623 -4.05837 0
M  V30 196 H 17.4653 -1.27069 -2.20739 0
M  V30 197 H 18.2483 -2.90044 -1.83655 0
M  V30 198 N 20.6934 1.19889 -1.02296 0
M  V30 199 C 21.9414 1.89046 -0.714558 0
M  V30 200 C 22.2624 1.79636 0.758681 0
M  V30 201 O 21.5324 1.20292 1.54618 0
M  V30 202 H 20.1124 0.699802 -0.261317 0
M  V30 203 H 22.7744 1.45574 -1.29592 0
M  V30 204 H 21.8704 2.95524 -1.0036 0
M  V30 205 N 22.1715 0.800033 1.35784 0
M  V30 206 C 23.4195 0.376597 1.9856 0
M  V30 207 C 23.7405 -1.05812 1.63795 0
M  V30 208 O 23.0105 -1.73103 0.917171 0
M  V30 209 H 21.5905 0.136261 0.734467 0
M  V30 210 H 24.2525 1.02442 1.65806 0
M  V30 211 H 23.3485 0.477002 3.08433 0
M  V30 212 N 23.6496 -1.47581 0.552962 0
M  V30 213 C 24.8746 -2.07378 0.0300593 0
M  V30 214 C 25.2996 -1.40355 -1.25229 0
M  V30 215 O 24.6576 -0.477099 -1.7491 0
M  V30 216 C 24.7056 -3.60274 -0.153231 0
M  V30 217 O 23.8096 -3.94041 -1.21678 0
M  V30 218 H 23.1506 -0.662158 0.0494182 0
M  V30 219 H 25.6806 -1.89662 0.767434 0
M  V30 220 H 25.6906 -4.0633 -0.368761 0
M  V30 221 H 24.3656 -4.08455 0.783397 0
M  V30 222 H 22.9426 -3.59735 -0.982079 0
M  V30 223 N 25.1277 -0.289203 -1.54924 0
M  V30 224 C 26.0577 0.58549 -2.2604 0
M  V30 225 C 27.0387 1.14753 -1.25562 0
M  V30 226 O 28.2237 1.17906 -1.54311 0
M  V30 227 C 25.3537 1.76305 -2.99222 0
M  V30 228 C 24.3077 1.33191 -4.06748 0
M  V30 229 C 23.6337 2.5937 -4.6758 0
M  V30 230 C 24.9337 0.471775 -5.20165 0
M  V30 231 H 26.6277 -0.00763532 -2.99399 0
M  V30 232 H 24.1737 -0.00511229 -1.43999 0
M  V30 233 H 26.1267 2.38097 -3.47689 0
M  V30 234 H 24.8507 2.38223 -2.23422 0
M  V30 235 H 23.5097 0.737121 -3.59113 0
M  V30 236 H 23.1577 3.19576 -3.88433 0
M  V30 237 H 22.8577 2.31228 -5.40192 0
M  V30 238 H 24.3817 3.21985 -5.18804 0
M  V30 239 H 25.7957 0.995056 -5.64599 0
M  V30 240 H 24.1927 0.284639 -5.99425 0
M  V30 241 H 25.2627 -0.506041 -4.82252 0
M  V30 242 N 26.6058 1.57591 -0.0167156 0
M  V30 243 C 28.0218 1.55946 0.339557 0
M  V30 244 C 28.2218 1.02109 1.73713 0
M  V30 245 O 27.2778 0.662303 2.43659 0
M  V30 246 C 28.5908 3.00037 0.199499 0
M  V30 247 C 30.1388 3.11805 0.273193 0
M  V30 248 C 30.6138 4.57713 0.162068 0
M  V30 249 N 32.1048 4.6268 0.219444 0
M  V30 250 C 32.8398 5.73185 0.157054 0
M  V30 251 N 32.3358 6.92786 0.0442936 0
M  V30 252 N 34.1288 5.61707 0.21014 0
M  V30 253 H 26.2798 1.90921 -0.930758 0
M  V30 254 H 28.5428 0.877674 -0.358319 0
M  V30 255 H 28.2488 3.4333 -0.76273 0
M  V30 256 H 28.1228 3.64387 0.974786 0
M  V30 257 H 30.5098 2.68433 1.22587 0
M  V30 258 H 30.5908 2.50201 -0.532256 0
M  V30 259 H 30.2348 5.01763 -0.78714 0
M  V30 260 H 30.1648 5.17283 0.986222 0
M  V30 261 H 32.6558 3.76649 0.307246 0
M  V30 262 H 32.9688 7.728 0.00304069 0
M  V30 263 H 31.3138 6.94999 0.00968457 0
M  V30 264 H 34.5048 4.6716 0.296546 0
M  V30 265 H 34.6778 6.47807 0.158054 0
M  V30 266 N 28.0839 -0.256276 1.55502 0
M  V30 267 C 29.0139 -1.32102 1.92539 0
M  V30 268 C 29.9949 -1.50684 0.789194 0
M  V30 269 O 31.1799 -1.63449 1.04872 0
M  V30 270 C 28.3099 -2.67752 2.21192 0
M  V30 271 C 27.2639 -2.63878 3.36975 0
M  V30 272 C 26.5899 -4.03236 3.51147 0
M  V30 273 C 27.8899 -2.21682 4.72921 0
M  V30 274 H 29.5839 -1.01351 2.81724 0
M  V30 275 H 27.1299 -0.486105 1.35547 0
M  V30 276 H 29.0829 -3.42365 2.45691 0
M  V30 277 H 27.8069 -3.0012 1.28824 0
M  V30 278 H 26.4659 -1.91722 3.12471 0
M  V30 279 H 26.1139 -4.32854 2.56216 0
M  V30 280 H 25.8139 -4.01535 4.29003 0
M  V30 281 H 27.3379 -4.79563 3.77957 0
M  V30 282 H 28.7519 -2.86023 4.96854 0
M  V30 283 H 27.1489 -2.3111 5.53812 0
M  V30 284 H 28.2189 -1.16833 4.70615 0
M  V30 285 N 29.562 -1.4872 -0.521534 0
M  V30 286 C 30.787 -1.61101 -1.30618 0
M  V30 287 C 31.212 -0.274611 -1.86085 0
M  V30 288 O 30.57 0.754937 -1.64834 0
M  V30 289 C 30.618 -2.66709 -2.4269 0
M  V30 290 O 29.722 -2.24456 -3.45967 0
M  V30 291 H 29.063 -0.539921 -0.386499 0
M  V30 292 H 31.593 -1.94767 -0.626645 0
M  V30 293 H 31.603 -2.88245 -2.88754 0
M  V30 294 H 30.278 -3.63727 -2.01682 0
M  V30 295 H 28.855 -2.13168 -3.05964 0
M  V30 296 N 31.0401 0.771051 -1.3745 0
M  V30 297 C 32.2801 1.54264 -1.34096 0
M  V30 298 C 32.6441 1.91858 0.0737639 0
M  V30 299 O 33.8451 2.67797 0.23203 0
M  V30 300 C 32.1161 2.77326 -2.25445 0
M  V30 301 S 33.6751 3.67383 -2.39948 0
M  V30 302 H 30.4931 0.528122 -0.476034 0
M  V30 303 H 33.0951 0.906633 -1.73206 0
M  V30 304 H 31.7991 2.47788 -3.27153 0
M  V30 305 H 31.3301 3.45886 -1.87421 0
M  V30 306 H 33.3451 4.69334 -1.61059 0
M  V30 307 N 32.5182 1.22032 0.997298 0
M  V30 308 C 33.4812 0.987909 2.06816 0
M  V30 309 C 34.4812 -0.0440084 1.6074 0
M  V30 310 O 35.6712 0.194053 1.73116 0
M  V30 311 C 32.8032 0.49132 3.37341 0
M  V30 312 H 33.9962 1.93803 2.28868 0
M  V30 313 H 31.5492 1.03838 1.16822 0
M  V30 314 H 32.2842 -0.463364 3.20973 0
M  V30 315 H 32.0692 1.23575 3.72118 0
M  V30 316 H 33.5592 0.348824 4.16141 0
M  V30 317 N 33.9963 -1.19345 1.0293 0
M  V30 318 C 34.9593 -2.20793 0.615069 0
M  V30 319 C 35.9593 -1.57553 -0.321533 0
M  V30 320 O 37.1493 -1.73862 -0.108483 0
M  V30 321 C 34.2813 -3.40754 -0.0999222 0
M  V30 322 H 35.4743 -2.58955 1.51269 0
M  V30 323 H 33.0273 -1.3303 0.820534 0
M  V30 324 H 33.7623 -3.0811 -1.01187 0
M  V30 325 H 33.5473 -3.87889 0.57309 0
M  V30 326 H 35.0373 -4.15898 -0.376645 0
M  V30 327 N 35.4744 -0.807222 -1.35358 0
M  V30 328 C 36.6994 -0.399309 -2.0352 0
M  V30 329 C 37.1244 0.981986 -1.60433 0
M  V30 330 O 36.4824 1.63601 -0.781299 0
M  V30 331 C 36.5304 -0.491552 -3.57234 0
M  V30 332 O 35.6344 0.494754 -4.09421 0
M  V30 333 H 34.9754 -0.166682 -0.642739 0
M  V30 334 H 37.5054 -1.09328 -1.72941 0
M  V30 335 H 37.5154 -0.361588 -4.06395 0
M  V30 336 H 36.1904 -1.49907 -3.87944 0
M  V30 337 H 34.7674 0.324977 -3.71481 0
M  V30 338 N 36.9525 1.47285 -0.560781 0
M  V30 339 C 38.2005 2.02064 -0.0379868 0
M  V30 340 C 38.5215 1.43711 1.31803 0
M  V30 341 O 37.7915 0.61362 1.86042 0
M  V30 342 H 36.3715 0.746918 -0.0110531 0
M  V30 343 H 39.0335 1.80648 -0.731598 0
M  V30 344 H 38.1295 3.12064 0.0474463 0
M  V30 345 N 38.4306 0.297415 1.54768 0
M  V30 346 C 39.6606 -0.315165 2.04182 0
M  V30 347 C 40.0686 -1.4834 1.17439 0
M  V30 348 O 39.4116 -1.82695 0.191891 0
M  V30 349 C 39.4736 -0.837583 3.49607 0
M  V30 350 C 39.1376 0.204912 4.5654 0
M  V30 351 C 40.1346 1.03214 5.09552 0
M  V30 352 C 37.8196 0.345578 5.0111 0
M  V30 353 C 39.8136 1.986 6.05671 0
M  V30 354 C 37.5006 1.30289 5.97049 0
M  V30 355 C 38.4986 2.12159 6.49213 0
M  V30 356 O 38.1866 3.06268 7.43273 0
M  V30 357 H 37.9186 -0.0729646 0.672051 0
M  V30 358 H 40.4726 0.433907 2.00765 0
M  V30 359 H 38.7026 -1.63712 3.50336 0
M  V30 360 H 40.3916 -1.36566 3.82236 0
M  V30 361 H 41.1576 0.934312 4.75916 0
M  V30 362 H 37.0366 -0.28171 4.60138 0
M  V30 363 H 40.5806 2.62542 6.46311 0
M  V30 364 H 36.4776 1.40145 6.30103 0
M  V30 365 H 37.2456 3.01205 7.61064 0
M  V30 366 N 39.9087 -1.5758 0.0250728 0
M  V30 367 C 41.1857 -1.82917 -0.692873 0
M  V30 368 C 41.5657 -0.908137 -1.90568 0
M  V30 369 O 40.9137 0.0372298 -2.2847 0
M  V30 370 C 41.1237 -3.32034 -1.07492 0
M  V30 371 C 42.4717 -3.98406 -1.46826 0
M  V30 372 O 43.4957 -3.36505 -1.16801 0
M  V30 373 O 42.3547 -5.07497 -2.02754 0
M  V30 374 H 39.4487 -0.754079 -0.33955 0
M  V30 375 H 41.9947 -1.69619 0.0524456 0
M  V30 376 H 40.7667 -3.90728 -0.211552 0
M  V30 377 H 40.3897 -3.50424 -1.87854 0
M  V30 378 N 41.3868 0.248026 -1.55636 0
M  V30 379 C 42.6338 0.976224 -1.77415 0
M  V30 380 C 42.9618 1.85361 -0.589193 0
M  V30 381 O 42.2168 1.90973 0.427529 0
M  V30 382 C 42.5158 1.86819 -3.04686 0
M  V30 383 C 42.1818 1.14625 -4.36087 0
M  V30 384 C 40.8438 0.946723 -4.71795 0
M  V30 385 C 43.1958 0.634463 -5.17324 0
M  V30 386 C 40.5238 0.223091 -5.86276 0
M  V30 387 C 42.8758 -0.0756959 -6.32555 0
M  V30 388 C 41.5398 -0.286711 -6.66884 0
M  V30 389 H 40.8098 0.357226 -0.649208 0
M  V30 390 H 43.4568 0.246415 -1.89908 0
M  V30 391 H 41.7618 2.66502 -2.872 0
M  V30 392 H 43.4588 2.43329 -3.18735 0
M  V30 393 H 40.0488 1.3117 -4.08035 0
M  V30 394 H 44.2328 0.77616 -4.90193 0
M  V30 395 H 39.4888 0.0491185 -6.1138 0
M  V30 396 H 43.6628 -0.479899 -6.94745 0
M  V30 397 H 41.2898 -0.849389 -7.5544 0
M  V30 398 N 42.8649 1.48995 0.513639 0
M  V30 399 C 44.0929 1.61531 1.29288 0
M  V30 400 C 44.5079 0.281801 1.86685 0
M  V30 401 O 43.8649 -0.731111 1.67215 0
M  V30 402 C 43.9159 2.67449 2.43215 0
M  V30 403 O 43.6369 3.95626 1.88179 0
M  V30 404 C 45.1379 2.90575 3.34785 0
M  V30 405 H 42.3579 0.544165 0.392588 0
M  V30 406 H 44.9019 1.9494 0.617956 0
M  V30 407 H 43.0569 2.36853 3.0656 0
M  V30 408 H 43.4709 4.53868 2.62876 0
M  V30 409 H 44.9449 3.68449 4.11035 0
M  V30 410 H 45.4219 2.00011 3.91015 0
M  V30 411 H 46.0279 3.22538 2.77218 0
M  V30 412 N 44.343 -0.763751 1.37857 0
M  V30 413 C 45.293 -1.86765 1.30777 0
M  V30 414 C 46.277 -1.59726 0.194015 0
M  V30 415 O 47.469 -1.7172 0.42911 0
M  V30 416 C 44.598 -3.24343 1.12502 0
M  V30 417 C 43.684 -3.57307 2.28456 0
M  V30 418 N 44.075 -3.61398 3.53871 0
M  V30 419 C 42.373 -3.87517 2.20786 0
M  V30 420 C 43.074 -3.91339 4.30382 0
M  V30 421 N 42.05 -4.07649 3.59615 0
M  V30 422 H 45.852 -1.88191 2.25746 0
M  V30 423 H 43.366 -0.9606 1.30944 0
M  V30 424 H 45.363 -4.03327 1.05514 0
M  V30 425 H 44.023 -3.24175 0.184574 0
M  V30 426 H 45.034 -3.43407 3.87675 0
M  V30 427 H 41.711 -3.95125 1.34844 0
M  V30 428 H 43.101 -4.01213 5.3896 0
M  V30 429 N 45.8211 -1.22559 -0.990812 0
M  V30 430 C 47.0511 -1.07623 -1.76355 0
M  V30 431 C 47.4591 0.37601 -1.85426 0
M  V30 432 O 46.8021 1.27228 -1.32509 0
M  V30 433 C 46.8641 -1.61507 -3.21179 0
M  V30 434 C 46.5281 -3.10146 -3.35646 0
M  V30 435 C 47.5251 -4.07553 -3.22796 0
M  V30 436 C 45.2101 -3.49644 -3.60631 0
M  V30 437 C 47.2041 -5.42442 -3.34716 0
M  V30 438 C 44.8911 -4.84682 -3.72192 0
M  V30 439 C 45.8891 -5.8089 -3.59243 0
M  V30 440 O 45.5771 -7.13476 -3.70415 0
M  V30 441 H 45.3091 -0.377745 -0.560611 0
M  V30 442 H 47.8631 -1.62658 -1.25425 0
M  V30 443 H 46.0931 -1.00881 -3.73309 0
M  V30 444 H 47.7821 -1.42202 -3.80175 0
M  V30 445 H 48.5481 -3.78381 -3.03403 0
M  V30 446 H 44.4271 -2.75282 -3.69785 0
M  V30 447 H 47.9711 -6.17518 -3.24526 0
M  V30 448 H 43.8681 -5.13534 -3.91092 0
M  V30 449 H 44.6361 -7.21083 -3.87275 0
M  V30 450 N 47.2992 1.18797 -1.03562 0
M  V30 451 C 48.5472 1.88278 -0.734569 0
M  V30 452 C 48.8682 1.8043 0.739586 0
M  V30 453 O 48.1382 1.21925 1.53333 0
M  V30 454 H 46.7182 0.696991 -0.268725 0
M  V30 455 H 49.3802 1.44192 -1.31129 0
M  V30 456 H 48.4762 2.94443 -1.03489 0
M  V30 457 N 48.7773 0.814389 1.34928 0
M  V30 458 C 49.7103 0.175641 2.27523 0
M  V30 459 C 50.6883 -0.662953 1.48471 0
M  V30 460 O 51.8723 -0.628545 1.77712 0
M  V30 461 C 48.9993 -0.755516 3.30166 0
M  V30 462 C 48.0453 0.00445305 4.265 0
M  V30 463 S 48.8783 1.34582 5.18313 0
M  V30 464 C 50.0343 0.419315 6.24494 0
M  V30 465 H 50.2673 0.960691 2.8135 0
M  V30 466 H 47.8003 0.609846 1.41846 0
M  V30 467 H 49.7583 -1.28723 3.89796 0
M  V30 468 H 48.4193 -1.51402 2.75202 0
M  V30 469 H 47.6123 -0.703077 4.99072 0
M  V30 470 H 47.2143 0.466447 3.7108 0
M  V30 471 H 49.5063 -0.392432 6.76362 0
M  V30 472 H 50.4493 1.11446 6.99275 0
M  V30 473 H 50.8573 0.0115389 5.64499 0
M  V30 474 N 50.2554 -1.46986 0.568584 0
M  V30 475 C 51.2034 -2.31858 -0.185649 0
M  V30 476 C 52.1974 -1.43624 -0.898249 0
M  V30 477 O 53.4034 -1.60327 -0.818242 0
M  V30 478 H 49.7784 -0.747866 -0.0787399 0
M  V30 479 H 51.7494 -2.93303 0.549191 0
M  V30 480 C 50.4984 -3.26513 -1.19519 0
M  V30 481 H 49.8214 -3.94377 -0.656285 0
M  V30 482 H 51.2614 -3.88707 -1.6936 0
M  V30 483 C 49.7204 -2.50847 -2.24894 0
M  V30 484 O 50.2504 -2.26119 -3.32014 0
M  V30 485 N 48.4564 -2.11656 -1.99124 0
M  V30 486 H 48.0034 -2.31966 -1.12024 0
M  V30 487 H 47.9614 -1.61347 -2.69842 0
M  V30 488 N 51.7335 -0.305618 -1.54608 0
M  V30 489 C 52.9795 0.295595 -2.01241 0
M  V30 490 C 53.3345 1.51171 -1.19018 0
M  V30 491 O 52.6275 1.89832 -0.259684 0
M  V30 492 C 52.8215 0.698983 -3.50498 0
M  V30 493 C 52.6505 -0.476491 -4.47168 0
M  V30 494 C 51.4205 -0.969963 -4.95903 0
M  V30 495 C 53.6185 -1.32294 -4.96994 0
M  V30 496 N 51.6005 -2.11172 -5.76437 0
M  V30 497 C 52.9715 -2.31212 -5.75275 0
M  V30 498 C 55.0265 -1.35278 -4.7917 0
M  V30 499 C 53.7295 -3.32896 -6.37631 0
M  V30 500 C 55.7555 -2.35823 -5.42348 0
M  V30 501 C 55.1175 -3.33469 -6.20466 0
M  V30 502 H 51.2165 0.0724992 -0.778632 0
M  V30 503 H 53.8005 -0.436583 -1.89742 0
M  V30 504 H 51.9715 1.40032 -3.62278 0
M  V30 505 H 53.7035 1.28013 -3.8392 0
M  V30 506 H 50.4585 -0.544178 -4.70463 0
M  V30 507 H 50.8825 -2.68714 -6.21387 0
M  V30 508 H 55.5245 -0.61157 -4.18354 0
M  V30 509 H 53.2425 -4.07933 -6.97579 0
M  V30 510 H 56.8285 -2.38911 -5.30484 0
M  V30 511 H 55.7085 -4.09996 -6.68485 0
M  V30 512 N 53.2116 1.57565 -0.0334293 0
M  V30 513 C 54.4576 1.92262 0.645226 0
M  V30 514 C 54.7906 0.910543 1.71531 0
M  V30 515 O 54.0656 -0.066099 1.94388 0
M  V30 516 C 54.3486 3.37422 1.2577 0
M  V30 517 C 54.2016 4.49369 0.196891 0
M  V30 518 C 55.5206 3.82628 2.17449 0
M  V30 519 H 52.6396 0.699171 0.233085 0
M  V30 520 H 55.2816 1.89779 -0.0915694 0
M  V30 521 H 53.4316 3.39669 1.88566 0
M  V30 522 H 55.1036 4.59254 -0.433962 0
M  V30 523 H 53.3466 4.31168 -0.477137 0
M  V30 524 H 54.0176 5.47978 0.665124 0
M  V30 525 H 56.4936 3.82145 1.64634 0
M  V30 526 H 55.3696 4.84883 2.57254 0
M  V30 527 H 55.6306 3.18376 3.0674 0
M  V30 528 N 54.6897 -0.239769 1.55765 0
M  V30 529 C 56.1057 -0.588624 1.48349 0
M  V30 530 C 56.3057 -1.88005 0.72502 0
M  V30 531 O 55.3617 -2.51186 0.257269 0
M  V30 532 C 56.6747 -0.68474 2.928 0
M  V30 533 C 58.2227 -0.77659 3.03213 0
M  V30 534 C 58.6977 -0.904207 4.48986 0
M  V30 535 N 60.1887 -0.968896 4.52953 0
M  V30 536 C 60.9237 -1.08703 5.63002 0
M  V30 537 N 60.4197 -1.17026 6.82845 0
M  V30 538 N 62.2127 -1.12074 5.50814 0
M  V30 539 H 54.3637 0.607911 2.03515 0
M  V30 540 H 56.6267 0.21083 0.924259 0
M  V30 541 H 56.3327 0.194284 3.51163 0
M  V30 542 H 56.2067 -1.55435 3.43686 0
M  V30 543 H 58.5937 -1.64606 2.44926 0
M  V30 544 H 58.6747 0.118315 2.55526 0
M  V30 545 H 58.3187 -0.0392633 5.07885 0
M  V30 546 H 58.2487 -1.81426 4.9436 0
M  V30 547 H 60.7397 -0.915633 3.6664 0
M  V30 548 H 61.0527 -1.25966 7.62465 0
M  V30 549 H 59.3977 -1.13971 6.85591 0
M  V30 550 H 62.5887 -1.05226 4.5612 0
M  V30 551 H 62.7617 -1.20936 6.36615 0
M  V30 552 N 56.1678 -1.49265 -0.50573 0
M  V30 553 C 57.0998 -1.617 -1.62437 0
M  V30 554 C 58.1128 -0.499924 -1.54934 0
M  V30 555 O 59.3018 -0.771785 -1.60953 0
M  V30 556 C 56.4018 -1.5533 -3.01207 0
M  V30 557 C 55.5748 -2.8249 -3.33943 0
M  V30 558 C 54.6338 -2.69238 -4.52103 0
M  V30 559 O 53.6598 -3.43167 -4.5412 0
M  V30 560 N 54.8618 -1.80468 -5.51735 0
M  V30 561 H 57.6268 -2.58177 -1.52199 0
M  V30 562 H 55.1878 -1.46294 -0.693511 0
M  V30 563 H 57.1798 -1.44125 -3.78167 0
M  V30 564 H 55.7498 -0.667297 -3.05395 0
M  V30 565 H 54.9698 -3.08081 -2.45926 0
M  V30 566 H 56.2578 -3.66802 -3.5261 0
M  V30 567 H 55.6558 -1.19653 -5.52901 0
M  V30 568 H 54.2128 -1.75188 -6.27816 0
M  V30 569 N 57.6459 0.756429 -1.3826 0
M  V30 570 C 58.6089 1.85176 -1.35065 0
M  V30 571 C 59.6089 1.58818 -0.251703 0
M  V30 572 O 60.7989 1.66615 -0.508433 0
M  V30 573 C 57.9309 3.22596 -1.10201 0
M  V30 574 H 59.1239 1.89417 -2.3251 0
M  V30 575 H 56.6769 0.95783 -1.23512 0
M  V30 576 H 57.4119 3.24025 -0.133504 0
M  V30 577 H 57.1969 3.43122 -1.89762 0
M  V30 578 H 58.6869 4.02673 -1.10654 0
M  V30 579 N 59.124 1.23083 0.984299 0
M  V30 580 C 60.535 1.05609 1.5396 0
M  V30 581 C 60.886 -0.377793 1.92528 0
M  V30 582 O 60.011 -1.26398 1.75649 0
M  V30 583 C 60.606 1.91087 2.7977 0
M  V30 584 C 59.165 1.77885 3.31713 0
M  V30 585 C 58.312 1.87028 2.04733 0
M  V30 586 H 61.263 1.36802 0.804419 0
M  V30 587 H 61.284 1.43336 3.5247 0
M  V30 588 H 60.796 2.9544 2.51668 0
M  V30 589 H 58.897 0.762995 3.64704 0
M  V30 590 H 59.01 2.61047 4.01735 0
M  V30 591 H 57.374 1.30565 2.18689 0
M  V30 592 H 58.157 2.92929 1.79017 0
M  V30 593 N 60.6021 -1.18246 1.0419 0
M  V30 594 C 61.8501 -1.87886 0.744543 0
M  V30 595 C 62.1711 -1.8082 -0.730006 0
M  V30 596 O 61.4411 -1.22736 -1.52685 0
M  V30 597 H 60.0211 -0.695556 0.272417 0
M  V30 598 H 62.6831 -1.43494 1.31892 0
M  V30 599 H 61.7791 -2.9389 1.05049 0
M  V30 600 N 62.0802 -0.821533 -1.34494 0
M  V30 601 C 63.0272 -0.240397 -2.29545 0
M  V30 602 C 63.9972 0.634031 -1.53523 0
M  V30 603 O 65.1822 0.575966 -1.81899 0
M  V30 604 C 62.3222 0.592869 -3.39969 0
M  V30 605 C 61.4352 -0.30365 -4.30932 0
M  V30 606 C 60.5702 0.539049 -5.28458 0
M  V30 607 C 59.6092 -0.356942 -6.11058 0
M  V30 608 N 58.7462 0.446603 -7.00678 0
M  V30 609 H 63.5862 -1.05632 -2.7865 0
M  V30 610 H 61.1232 -0.532413 -1.37127 0
M  V30 611 H 63.0812 1.09129 -4.02675 0
M  V30 612 H 61.7112 1.37392 -2.92102 0
M  V30 613 H 60.7632 -0.920276 -3.691 0
M  V30 614 H 62.0752 -0.992661 -4.88823 0
M  V30 615 H 61.2292 1.102 -5.96608 0
M  V30 616 H 59.9682 1.26157 -4.71101 0
M  V30 617 H 58.9732 -0.932047 -5.41842 0
M  V30 618 H 60.1982 -1.07755 -6.70497 0
M  V30 619 H 58.1442 1.15282 -6.45791 0
M  V30 620 H 58.0612 -0.184048 -7.55776 0
M  V30 621 H 59.3292 0.992352 -7.73158 0
M  V30 622 N 63.5583 1.46682 -0.576371 0
M  V30 623 C 64.8063 2.02013 -0.0594163 0
M  V30 624 C 65.1273 1.45101 1.30271 0
M  V30 625 O 64.3973 0.633317 1.8538 0
M  V30 626 H 62.9773 0.746759 -0.0189745 0
M  V30 627 H 65.6393 1.79862 -0.750717 0
M  V30 628 H 64.7353 3.12097 0.014345 0
M  V30 629 N 65.0364 0.313813 1.54444 0
M  V30 630 C 65.9664 -0.549454 2.26943 0
M  V30 631 C 66.9474 -1.12741 1.27372 0
M  V30 632 O 68.1324 -1.15436 1.56167 0
M  V30 633 C 65.2624 -1.71523 3.01989 0
M  V30 634 C 64.2164 -1.26703 4.08816 0
M  V30 635 C 63.5424 -2.51898 4.71647 0
M  V30 636 C 64.8424 -0.388962 5.2085 0
M  V30 637 H 66.5364 0.0552661 2.99349 0
M  V30 638 H 64.0824 0.0280207 1.43973 0
M  V30 639 H 66.0354 -2.32535 3.51433 0
M  V30 640 H 64.7594 -2.34639 2.27183 0
M  V30 641 H 63.4184 -0.679896 3.6024 0
M  V30 642 H 63.0664 -3.13356 3.93468 0
M  V30 643 H 62.7664 -2.22605 5.43802 0
M  V30 644 H 64.2904 -3.1369 5.23861 0
M  V30 645 H 65.7044 -0.905107 5.6611 0
M  V30 646 H 64.1014 -0.18924 5.99802 0
M  V30 647 H 65.1714 0.582699 4.81386 0
M  V30 648 N 66.5145 -1.57545 0.0417849 0
M  V30 649 C 67.4245 -2.14451 -0.951213 0
M  V30 650 C 68.4405 -1.09992 -1.34825 0
M  V30 651 O 69.6165 -1.42114 -1.42708 0
M  V30 652 C 66.6815 -2.67063 -2.21084 0
M  V30 653 C 65.7425 -3.86284 -1.87304 0
M  V30 654 C 64.9755 -4.36378 -3.07261 0
M  V30 655 O 65.1985 -3.85587 -4.20332 0
M  V30 656 O 64.1325 -5.28077 -2.88822 0
M  V30 657 H 67.9585 -2.99601 -0.497287 0
M  V30 658 H 65.5435 -1.48317 -0.179567 0
M  V30 659 H 67.4255 -3.00914 -2.95006 0
M  V30 660 H 66.1005 -1.84989 -2.65633 0
M  V30 661 H 65.0075 -3.57338 -1.10727 0
M  V30 662 H 66.3405 -4.6956 -1.47562 0
M  V30 663 N 67.9926 0.231505 -1.5589 0
M  V30 664 C 69.2386 0.954429 -1.79617 0
M  V30 665 C 69.5936 1.82367 -0.613199 0
M  V30 666 O 68.8866 1.87524 0.393094 0
M  V30 667 C 69.0806 1.83577 -3.0665 0
M  V30 668 C 68.9096 1.05334 -4.3719 0
M  V30 669 C 67.6796 0.75225 -4.99669 0
M  V30 670 C 69.8776 0.423444 -5.12554 0
M  V30 671 N 67.8596 -0.052627 -6.13877 0
M  V30 672 C 69.2306 -0.245287 -6.19515 0
M  V30 673 C 71.2856 0.335466 -4.96769 0
M  V30 674 C 69.9886 -0.993566 -7.12405 0
M  V30 675 C 72.0146 -0.399321 -5.9005 0
M  V30 676 C 71.3766 -1.05663 -6.9643 0
M  V30 677 H 67.4756 0.329846 -0.709031 0
M  V30 678 H 70.0596 0.226172 -1.93382 0
M  V30 679 H 68.2306 2.53592 -2.94186 0
M  V30 680 H 69.9626 2.49541 -3.18608 0
M  V30 681 H 66.7176 1.06783 -4.61405 0
M  V30 682 H 67.1416 -0.443609 -6.75545 0
M  V30 683 H 71.7836 0.829311 -4.14587 0
M  V30 684 H 69.5016 -1.49896 -7.94076 0
M  V30 685 H 73.0876 -0.468265 -5.79913 0
M  V30 686 H 71.9676 -1.61612 -7.67366 0
M  V30 687 N 69.4707 1.49531 0.497807 0
M  V30 688 C 70.7167 1.59415 1.25358 0
M  V30 689 C 71.0497 0.281422 1.9215 0
M  V30 690 O 70.3247 -0.715249 1.80871 0
M  V30 691 C 70.6077 2.75566 2.3181 0
M  V30 692 C 70.4607 4.16642 1.69498 0
M  V30 693 C 71.7797 2.87347 3.33346 0
M  V30 694 H 68.8987 0.580244 0.454408 0
M  V30 695 H 71.5407 1.81827 0.551262 0
M  V30 696 H 69.6907 2.56587 2.91711 0
M  V30 697 H 71.3627 4.47145 1.13399 0
M  V30 698 H 69.6057 4.22141 0.998978 0
M  V30 699 H 70.2767 4.93792 2.46725 0
M  V30 700 H 72.7527 3.04634 2.83438 0
M  V30 701 H 71.6287 3.70289 4.05188 0
M  V30 702 H 71.8897 1.96834 3.95865 0
M  V30 703 N 70.9488 -0.749086 1.3866 0
M  V30 704 C 72.1968 -1.50535 1.34847 0
M  V30 705 C 72.5178 -1.94909 -0.0595016 0
M  V30 706 O 71.7878 -1.67973 -1.00806 0
M  V30 707 H 70.3678 -0.558395 0.49619 0
M  V30 708 H 73.0298 -0.890165 1.73384 0
M  V30 709 H 72.1258 -2.39413 2.00219 0
M  V30 710 N 72.4269 -1.23603 -0.977757 0
M  V30 711 C 73.6729 -1.08136 -1.72274 0
M  V30 712 C 74.0279 0.377453 -1.88661 0
M  V30 713 O 73.3209 1.27552 -1.42972 0
M  V30 714 C 73.5149 -1.7433 -3.11999 0
M  V30 715 C 73.3439 -3.26498 -3.0924 0
M  V30 716 C 72.1139 -3.9567 -3.14282 0
M  V30 717 C 74.3119 -4.2323 -2.92201 0
M  V30 718 N 72.2939 -5.34799 -3.01436 0
M  V30 719 C 73.6649 -5.49289 -2.87544 0
M  V30 720 C 75.7199 -4.13931 -2.76705 0
M  V30 721 C 74.4229 -6.67116 -2.68978 0
M  V30 722 C 76.4489 -5.31424 -2.59504 0
M  V30 723 C 75.8109 -6.5641 -2.55548 0
M  V30 724 H 71.9099 -0.450247 -0.639376 0
M  V30 725 H 74.4939 -1.5637 -1.16002 0
M  V30 726 H 72.6649 -1.28624 -3.66484 0
M  V30 727 H 74.3969 -1.51815 -3.75146 0
M  V30 728 H 71.1519 -3.46767 -3.22567 0
M  V30 729 H 71.5759 -6.07748 -2.98281 0
M  V30 730 H 76.2179 -3.1807 -2.78552 0
M  V30 731 H 73.9359 -7.63109 -2.65876 0
M  V30 732 H 77.5219 -5.26072 -2.48474 0
M  V30 733 H 76.4019 -7.45795 -2.42405 0
M  V30 734 N 73.905 1.17692 -1.04816 0
M  V30 735 C 75.154 1.87192 -0.751132 0
M  V30 736 C 75.467 1.8169 0.724441 0
M  V30 737 O 76.673 2.46625 1.13527 0
M  V30 738 C 75.129 3.35857 -1.29338 0
M  V30 739 C 74.737 3.4987 -2.79812 0
M  V30 740 C 76.481 4.10709 -1.07322 0
M  V30 741 C 74.388 4.92536 -3.27356 0
M  V30 742 H 73.318 0.701162 -0.277288 0
M  V30 743 H 75.969 1.32932 -1.26496 0
M  V30 744 H 74.351 3.89631 -0.707376 0
M  V30 745 H 75.525 3.06332 -3.44235 0
M  V30 746 H 73.84 2.88433 -3.00325 0
M  V30 747 H 76.437 5.15952 -1.4035 0
M  V30 748 H 76.78 4.16299 -0.0108001 0
M  V30 749 H 77.313 3.6313 -1.62423 0
M  V30 750 H 74.052 4.92119 -4.33012 0
M  V30 751 H 73.572 5.3676 -2.67673 0
M  V30 752 H 75.251 5.61288 -3.21815 0
M  V30 753 N 75.3831 0.828654 1.34056 0
M  V30 754 C 76.3311 0.242973 2.31327 0
M  V30 755 C 77.3251 -0.61944 1.57668 0
M  V30 756 O 78.5311 -0.51014 1.7262 0
M  V30 757 H 74.9061 0.059834 0.749616 0
M  V30 758 H 76.8771 1.07809 2.78244 0
M  V30 759 C 75.6261 -0.575733 3.429 0
M  V30 760 H 74.9491 0.0785582 3.99723 0
M  V30 761 H 76.3891 -0.951547 4.13185 0
M  V30 762 C 74.8481 -1.75044 2.87856 0
M  V30 763 O 75.3781 -2.84882 2.83205 0
M  V30 764 N 73.5841 -1.56903 2.44602 0
M  V30 765 H 73.1311 -0.675547 2.48584 0
M  V30 766 H 73.0891 -2.35652 2.08124 0
M  V30 767 N 76.8612 -1.46375 0.584142 0
M  V30 768 C 78.0892 -2.06761 0.0759296 0
M  V30 769 C 78.5042 -1.43266 -1.22965 0
M  V30 770 O 77.8612 -0.538458 -1.74376 0
M  V30 771 C 77.9122 -3.61375 -0.0950384 0
M  V30 772 O 77.6332 -4.22495 1.15887 0
M  V30 773 C 79.1342 -4.38693 -0.637434 0
M  V30 774 H 76.3542 -0.668479 0.0581075 0
M  V30 775 H 78.8982 -1.8798 0.805218 0
M  V30 776 H 77.0532 -3.79578 -0.774554 0
M  V30 777 H 77.4672 -5.15385 0.973598 0
M  V30 778 H 78.9412 -5.47464 -0.706237 0
M  V30 779 H 79.4182 -4.06836 -1.65472 0
M  V30 780 H 80.0242 -4.25299 0.00725967 0
M  V30 781 N 78.3393 -0.321999 -1.54275 0
M  V30 782 C 79.5693 0.282642 -2.04658 0
M  V30 783 C 79.9773 1.46453 -1.19784 0
M  V30 784 O 79.3203 1.82367 -0.220932 0
M  V30 785 C 79.3823 0.781857 -3.50895 0
M  V30 786 C 79.0463 -0.277517 -4.56157 0
M  V30 787 C 80.0433 -1.11307 -5.07845 0
M  V30 788 C 77.7283 -0.425256 -5.00497 0
M  V30 789 C 79.7223 -2.08211 -6.02434 0
M  V30 790 C 77.4093 -1.39771 -5.94901 0
M  V30 791 C 78.4073 -2.2246 -6.45756 0
M  V30 792 O 78.0953 -3.18054 -7.38307 0
M  V30 793 H 77.8273 0.0622636 -0.673126 0
M  V30 794 H 80.3813 -0.465792 -2.00049 0
M  V30 795 H 78.6113 1.58118 -3.52896 0
M  V30 796 H 80.3003 1.30467 -3.84361 0
M  V30 797 H 81.0663 -1.00991 -4.74369 0
M  V30 798 H 76.9453 0.20847 -4.60528 0
M  V30 799 H 80.4893 -2.72791 -6.42052 0
M  V30 800 H 76.3863 -1.50152 -6.27794 0
M  V30 801 H 77.1543 -3.13275 -7.56175 0
M  V30 802 N 79.8174 1.5752 -0.0501392 0
M  V30 803 C 81.0454 1.96963 0.633492 0
M  V30 804 C 81.4604 0.927631 1.6444 0
M  V30 805 O 80.8174 -0.0882665 1.82286 0
M  V30 806 C 80.8684 3.36487 1.32132 0
M  V30 807 O 80.5894 4.36693 0.350894 0
M  V30 808 C 82.0904 3.90682 2.09481 0
M  V30 809 H 79.3104 0.648244 0.173266 0
M  V30 810 H 81.8544 2.0417 -0.116134 0
M  V30 811 H 80.0094 3.30434 2.02218 0
M  V30 812 H 80.4234 5.17702 0.841735 0
M  V30 813 H 81.8974 4.90591 2.5303 0
M  V30 814 H 82.3744 3.26053 2.94255 0
M  V30 815 H 82.9804 4.00069 1.44307 0
M  V30 816 N 81.2955 -0.223234 1.56011 0
M  V30 817 C 82.5435 -0.946003 1.78592 0
M  V30 818 C 82.8645 -1.84936 0.618349 0
M  V30 819 O 82.1345 -1.92473 -0.364833 0
M  V30 820 H 80.7145 -0.352298 0.658707 0
M  V30 821 H 83.3765 -0.235494 1.93472 0
M  V30 822 H 82.4725 -1.55381 2.70672 0
M  V30 823 N 82.7736 -1.49793 -0.48987 0
M  V30 824 C 83.6836 -1.70036 -1.61632 0
M  V30 825 C 84.6996 -0.583102 -1.63939 0
M  V30 826 O 85.8756 -0.859169 -1.82154 0
M  V30 827 C 82.9406 -1.77277 -2.97949 0
M  V30 828 C 82.0016 -3.00918 -3.06181 0
M  V30 829 C 81.2346 -3.07804 -4.35996 0
M  V30 830 O 81.4576 -2.21982 -5.25433 0
M  V30 831 O 80.3916 -4.00369 -4.49431 0
M  V30 832 H 84.2176 -2.65486 -1.47482 0
M  V30 833 H 81.8026 -1.33666 -0.667362 0
M  V30 834 H 83.6846 -1.84329 -3.78947 0
M  V30 835 H 82.3596 -0.850076 -3.12339 0
M  V30 836 H 81.2666 -2.99377 -2.2433 0
M  V30 837 H 82.5996 -3.92704 -2.96723 0
M  V30 838 N 84.2517 0.741722 -1.39055 0
M  V30 839 C 85.6627 1.31966 -1.32068 0
M  V30 840 C 86.0137 1.96192 0.0180797 0
M  V30 841 O 85.1387 1.95861 0.920196 0
M  V30 842 C 85.7337 2.39954 -2.39181 0
M  V30 843 C 84.2927 2.93438 -2.35735 0
M  V30 844 C 83.4397 1.66936 -2.21422 0
M  V30 845 H 86.3907 0.539721 -1.4924 0
M  V30 846 H 86.4117 3.20182 -2.05581 0
M  V30 847 H 85.9237 1.9318 -3.36605 0
M  V30 848 H 84.0247 3.4451 -1.41929 0
M  V30 849 H 84.1377 3.4701 -3.30335 0
M  V30 850 H 82.5017 1.91016 -1.68478 0
M  V30 851 H 83.2847 1.22224 -3.20806 0
M  V30 852 N 85.7298 1.2412 0.971189 0
M  V30 853 C 86.9578 1.10575 1.74874 0
M  V30 854 C 87.3728 -0.342017 1.85676 0
M  V30 855 O 86.7298 -1.23617 1.34258 0
M  V30 856 C 86.7808 1.73579 3.171 0
M  V30 857 O 86.5018 3.12695 3.06844 0
M  V30 858 C 88.0028 1.65598 4.11208 0
M  V30 859 H 85.2228 0.386504 0.548503 0
M  V30 860 H 87.7668 1.64156 1.21955 0
M  V30 861 H 85.9218 1.24009 3.67016 0
M  V30 862 H 86.3358 3.43412 3.96445 0
M  V30 863 H 87.8098 2.1437 5.08674 0
M  V30 864 H 88.2868 0.616532 4.34851 0
M  V30 865 H 88.8928 2.14578 3.67201 0
M  V30 866 N 87.2079 -1.17134 1.05439 0
M  V30 867 C 88.4379 -1.91094 0.785274 0
M  V30 868 C 88.8459 -1.77198 -0.663142 0
M  V30 869 O 88.1889 -1.10835 -1.46497 0
M  V30 870 C 88.2509 -3.42594 1.08949 0
M  V30 871 C 87.9149 -3.80274 2.53458 0
M  V30 872 C 88.9119 -3.82912 3.51673 0
M  V30 873 C 86.5969 -4.11162 2.88532 0
M  V30 874 C 88.5909 -4.15913 4.83006 0
M  V30 875 C 86.2779 -4.43831 4.20068 0
M  V30 876 C 87.2759 -4.46185 5.17115 0
M  V30 877 O 86.9639 -4.78083 6.46291 0
M  V30 878 H 86.6959 -0.613073 0.284811 0
M  V30 879 H 89.2499 -1.49461 1.40893 0
M  V30 880 H 87.4799 -3.84534 0.408741 0
M  V30 881 H 89.1689 -3.97817 0.805991 0
M  V30 882 H 89.9349 -3.5917 3.25917 0
M  V30 883 H 85.8139 -4.085 2.13656 0
M  V30 884 H 89.3579 -4.17665 5.5875 0
M  V30 885 H 85.2549 -4.67037 4.45586 0
M  V30 886 H 86.0229 -4.9593 6.51149 0
M  V30 887 N 88.686 -0.835752 -1.33615 0
M  V30 888 C 89.649 -0.272 -2.2758 0
M  V30 889 C 90.649 0.557487 -1.50827 0
M  V30 890 O 91.839 0.37173 -1.70188 0
M  V30 891 C 88.971 0.617173 -3.35267 0
M  V30 892 H 90.164 -1.10111 -2.78954 0
M  V30 893 H 87.717 -0.608594 -1.43965 0
M  V30 894 H 88.452 1.46884 -2.89129 0
M  V30 895 H 88.237 0.0237066 -3.92093 0
M  V30 896 H 89.727 1.005 -4.05326 0
M  V30 897 N 90.1641 1.46063 -0.591896 0
M  V30 898 C 91.1271 2.28854 0.125973 0
M  V30 899 C 92.1271 1.38903 0.810107 0
M  V30 900 O 93.3171 1.61186 0.66066 0
M  V30 901 C 90.4491 3.19526 1.1881 0
M  V30 902 H 91.6421 2.93802 -0.601717 0
M  V30 903 H 89.1951 1.52325 -0.350254 0
M  V30 904 H 89.9301 2.59345 1.94707 0
M  V30 905 H 89.7151 3.85766 0.701936 0
M  V30 906 H 91.2051 3.81817 1.69132 0
M  V30 907 N 91.6422 0.330177 1.54103 0
M  V30 908 C 92.9192 -0.325007 1.92881 0
M  V30 909 C 93.2992 -1.6934 1.26045 0
M  V30 910 O 92.6472 -2.24855 0.406526 0
M  V30 911 C 92.8572 -0.410634 3.46576 0
M  V30 912 C 94.2052 -0.667801 4.19316 0
M  V30 913 O 95.2292 -0.49329 3.52768 0
M  V30 914 O 94.0882 -1.00491 5.37181 0
M  V30 915 H 91.1822 -0.186873 0.80561 0
M  V30 916 H 93.7282 0.380376 1.65382 0
M  V30 917 H 92.5002 0.550164 3.87413 0
M  V30 918 H 92.1232 -1.16333 3.802 0
M  V30 919 N 93.1203 -1.57491 0.0584922 0
M  V30 920 C 94.3673 -1.92978 -0.613648 0
M  V30 921 C 94.6953 -0.937461 -1.70417 0
M  V30 922 O 93.9503 0.049078 -1.95638 0
M  V30 923 C 94.2493 -3.3513 -1.24188 0
M  V30 924 C 93.9153 -4.50037 -0.278826 0
M  V30 925 C 92.5773 -4.81198 -0.0138447 0
M  V30 926 C 94.9293 -5.19807 0.380777 0
M  V30 927 C 92.2573 -5.79473 0.918052 0
M  V30 928 C 94.6093 -6.19079 1.30091 0
M  V30 929 C 93.2733 -6.48665 1.57449 0
M  V30 930 H 92.5433 -0.706157 -0.22455 0
M  V30 931 H 95.1903 -1.91082 0.126533 0
M  V30 932 H 93.4953 -3.33429 -2.05749 0
M  V30 933 H 95.1923 -3.59871 -1.769 0
M  V30 934 H 91.7823 -4.25726 -0.495539 0
M  V30 935 H 95.9663 -4.95939 0.189158 0
M  V30 936 H 91.2223 -6.00727 1.1374 0
M  V30 937 H 95.3963 -6.7225 1.81804 0
M  V30 938 H 93.0233 -7.24628 2.29822 0
M  V30 939 N 94.5984 0.214957 -1.56127 0
M  V30 940 C 95.5454 1.26642 -1.92952 0
M  V30 941 C 96.5154 1.46244 -0.78753 0
M  V30 942 O 97.7004 1.59704 -1.04399 0
M  V30 943 C 94.8404 2.6104 -2.25726 0
M  V30 944 C 93.9534 2.49183 -3.52891 0
M  V30 945 C 93.0884 3.76149 -3.7508 0
M  V30 946 C 92.1274 3.59041 -4.95738 0
M  V30 947 N 91.2644 4.77972 -5.14283 0
M  V30 948 H 96.1044 0.945384 -2.82607 0
M  V30 949 H 93.6414 0.455489 -1.3987 0
M  V30 950 H 95.5994 3.39313 -2.42739 0
M  V30 951 H 94.2294 2.91227 -1.39236 0
M  V30 952 H 93.2814 1.6231 -3.44034 0
M  V30 953 H 94.5934 2.32466 -4.41318 0
M  V30 954 H 93.7474 4.62865 -3.92226 0
M  V30 955 H 92.4864 3.95799 -2.84947 0
M  V30 956 H 91.4914 2.7071 -4.78535 0
M  V30 957 H 92.7164 3.40856 -5.87362 0
M  V30 958 H 90.6624 4.97923 -4.27093 0
M  V30 959 H 90.5794 4.64006 -5.96853 0
M  V30 960 H 91.8474 5.66096 -5.35869 0
M  V30 961 N 96.0765 1.50051 0.48192 0
M  V30 962 C 97.4925 1.37237 0.814756 0
M  V30 963 C 97.6925 0.420109 1.97072 0
M  V30 964 O 96.7485 -0.141246 2.52105 0
M  V30 965 C 98.0615 2.78375 1.13701 0
M  V30 966 C 99.6095 2.87213 1.2441 0
M  V30 967 C 100.084 4.29161 1.59954 0
M  V30 968 N 101.575 4.32061 1.66967 0
M  V30 969 C 102.31 5.38879 1.95952 0
M  V30 970 N 101.806 6.55918 2.23031 0
M  V30 971 N 103.599 5.26312 1.97363 0
M  V30 972 H 95.7505 2.10546 -0.28005 0
M  V30 973 H 98.0135 0.945921 -0.0627454 0
M  V30 974 H 97.7195 3.49845 0.360787 0
M  V30 975 H 97.5935 3.14941 2.07586 0
M  V30 976 H 99.9805 2.15969 2.01101 0
M  V30 977 H 100.061 2.54204 0.285299 0
M  V30 978 H 99.7055 5.00938 0.838067 0
M  V30 979 H 99.6355 4.59648 2.56966 0
M  V30 980 H 102.126 3.47661 1.48123 0
M  V30 981 H 102.439 7.33139 2.44391 0
M  V30 982 H 100.784 6.59112 2.20447 0
M  V30 983 H 103.975 4.33876 1.75697 0
M  V30 984 H 104.148 6.09649 2.19618 0
M  V30 985 N 97.5546 -0.734337 1.39446 0
M  V30 986 C 98.9706 -1.03997 1.21065 0
M  V30 987 C 99.1706 -2.01369 0.0727019 0
M  V30 988 O 98.2266 -2.45856 -0.575426 0
M  V30 989 C 99.5396 -1.60163 2.54496 0
M  V30 990 C 101.088 -1.7224 2.61347 0
M  V30 991 C 101.563 -2.31814 3.95002 0
M  V30 992 N 103.054 -2.39223 3.96644 0
M  V30 993 C 103.789 -2.86258 4.96834 0
M  V30 994 N 103.285 -3.33184 6.07421 0
M  V30 995 N 105.078 -2.85473 4.84213 0
M  V30 996 H 97.2286 -0.0885624 2.12215 0
M  V30 997 H 99.4916 -0.10191 0.942506 0
M  V30 998 H 99.1976 -0.960811 3.38321 0
M  V30 999 H 99.0716 -2.5896 2.74262 0
M  V30 1000 H 101.459 -2.35443 1.77906 0
M  V30 1001 H 101.54 -0.720939 2.4543 0
M  V30 1002 H 101.184 -1.69238 4.78875 0
M  V30 1003 H 101.114 -3.32638 4.08239 0
M  V30 1004 H 103.605 -2.06057 3.16779 0
M  V30 1005 H 103.918 -3.67586 6.7978 0
M  V30 1006 H 102.263 -3.31191 6.11013 0
M  V30 1007 H 105.454 -2.48136 3.96921 0
M  V30 1008 H 105.627 -3.21814 5.62441 0
M  V30 1009 N 99.0327 -1.24633 -0.964593 0
M  V30 1010 C 100.28 -1.08788 -1.70796 0
M  V30 1011 C 100.608 0.372783 -1.90894 0
M  V30 1012 O 99.8627 1.29167 -1.47018 0
M  V30 1013 C 100.162 -1.7763 -3.10133 0
M  V30 1014 C 99.8277 -3.27557 -3.09866 0
M  V30 1015 C 98.4897 -3.6846 -3.09501 0
M  V30 1016 C 100.842 -4.23389 -3.03959 0
M  V30 1017 C 98.1697 -5.03624 -3.00965 0
M  V30 1018 C 100.522 -5.58565 -2.96965 0
M  V30 1019 C 99.1857 -5.98809 -2.9493 0
M  V30 1020 H 98.4557 -0.398084 -0.624988 0
M  V30 1021 H 101.103 -1.54777 -1.12767 0
M  V30 1022 H 99.4077 -1.24044 -3.71645 0
M  V30 1023 H 101.105 -1.62832 -3.66451 0
M  V30 1024 H 97.6947 -2.95006 -3.10917 0
M  V30 1025 H 101.879 -3.92787 -3.03368 0
M  V30 1026 H 97.1347 -5.33998 -2.97752 0
M  V30 1027 H 101.309 -6.32523 -2.91354 0
M  V30 1028 H 98.9357 -7.03505 -2.88071 0
M  V30 1029 N 100.511 1.16574 -1.06058 0
M  V30 1030 C 101.739 1.90952 -0.796552 0
M  V30 1031 C 102.154 1.77302 0.648808 0
M  V30 1032 O 101.511 1.11605 1.44397 0
M  V30 1033 C 101.562 3.41736 -1.17894 0
M  V30 1034 O 101.283 3.54975 -2.56758 0
M  V30 1035 C 102.784 4.33169 -0.942308 0
M  V30 1036 H 100.004 0.605594 -0.288959 0
M  V30 1037 H 102.548 1.47777 -1.41358 0
M  V30 1038 H 100.703 3.82623 -0.606491 0
M  V30 1039 H 101.117 4.4846 -2.72 0
M  V30 1040 H 102.591 5.37439 -1.25952 0
M  V30 1041 H 103.068 4.3903 0.122078 0
M  V30 1042 H 103.674 3.98007 -1.49902 0
M  V30 1043 N 101.989 0.842826 1.3317 0
M  V30 1044 C 103.236 0.440447 1.97652 0
M  V30 1045 C 103.564 -1.00123 1.6675 0
M  V30 1046 O 102.819 -1.7155 0.941761 0
M  V30 1047 C 103.118 0.612607 3.52111 0
M  V30 1048 C 102.784 2.02297 4.02972 0
M  V30 1049 C 101.446 2.40874 4.16573 0
M  V30 1050 C 103.798 2.94402 4.30089 0
M  V30 1051 C 101.126 3.70852 4.54627 0
M  V30 1052 C 103.478 4.23865 4.69597 0
M  V30 1053 C 102.142 4.62392 4.81404 0
M  V30 1054 H 101.412 0.161171 0.72326 0
M  V30 1055 H 104.059 1.07061 1.58777 0
M  V30 1056 H 102.364 -0.100849 3.9167 0
M  V30 1057 H 104.061 0.2815 4.00011 0
M  V30 1058 H 100.651 1.71338 3.92863 0
M  V30 1059 H 104.835 2.65835 4.19101 0
M  V30 1060 H 100.091 4.00501 4.61962 0
M  V30 1061 H 104.265 4.95306 4.89536 0
M  V30 1062 H 101.892 5.63154 5.10648 0
M  V30 1063 N 103.467 -1.45747 0.599634 0
M  V30 1064 C 104.692 -2.07178 0.0960198 0
M  V30 1065 C 105.117 -1.44268 -1.207 0
M  V30 1066 O 104.475 -0.532503 -1.73303 0
M  V30 1067 C 104.523 -3.60579 -0.0385348 0
M  V30 1068 O 103.627 -3.97713 -1.0908 0
M  V30 1069 H 102.968 -0.660251 0.0704593 0
M  V30 1070 H 105.498 -1.87124 0.827385 0
M  V30 1071 H 105.508 -4.07298 -0.239304 0
M  V30 1072 H 104.183 -4.05756 0.912947 0
M  V30 1073 H 102.76 -3.62678 -0.867135 0
M  V30 1074 N 104.945 -0.338344 -1.53925 0
M  V30 1075 C 105.875 0.51328 -2.27789 0
M  V30 1076 C 106.856 1.107 -1.29149 0
M  V30 1077 O 108.041 1.12937 -1.57984 0
M  V30 1078 C 105.171 1.66697 -3.04679 0
M  V30 1079 C 104.125 1.20183 -4.1078 0
M  V30 1080 C 103.451 2.44363 -4.75595 0
M  V30 1081 C 104.751 0.30605 -5.21403 0
M  V30 1082 H 106.445 -0.102883 -2.99223 0
M  V30 1083 H 103.991 -0.0509219 -1.4391 0
M  V30 1084 H 105.944 2.26915 -3.55088 0
M  V30 1085 H 104.668 2.30995 -2.30887 0
M  V30 1086 H 103.327 0.622499 -3.61276 0
M  V30 1087 H 102.975 3.07057 -3.98403 0
M  V30 1088 H 102.675 2.13925 -5.47275 0
M  V30 1089 H 104.199 3.05317 -5.28786 0
M  V30 1090 H 105.613 0.814929 -5.67478 0
M  V30 1091 H 104.01 0.0937929 -6.00027 0
M  V30 1092 H 105.08 -0.65921 -4.80398 0
M  V30 1093 N 106.423 1.57458 -0.0668435 0
M  V30 1094 C 107.7 1.8469 0.644132 0
M  V30 1095 C 108.08 0.958343 1.88093 0
M  V30 1096 O 107.428 0.0233579 2.28488 0
M  V30 1097 C 107.638 3.34767 0.986509 0
M  V30 1098 C 108.986 4.02159 1.36212 0
M  V30 1099 O 110.01 3.39484 1.07839 0
M  V30 1100 O 108.869 5.12694 1.89227 0
M  V30 1101 H 105.963 0.762816 0.319437 0
M  V30 1102 H 108.509 1.6942 -0.0973986 0
M  V30 1103 H 107.281 3.91151 0.107883 0
M  V30 1104 H 106.904 3.55281 1.78497 0
M  V30 1105 N 107.901 -0.206675 1.56239 0
M  V30 1106 C 109.129 -0.945345 1.8404 0
M  V30 1107 C 109.544 -1.77336 0.647885 0
M  V30 1108 O 108.901 -1.78425 -0.383511 0
M  V30 1109 C 108.952 -1.8509 3.10522 0
M  V30 1110 O 108.673 -1.05634 4.25174 0
M  V30 1111 C 110.174 -2.70222 3.51418 0
M  V30 1112 H 107.394 -0.276372 0.61144 0
M  V30 1113 H 109.938 -0.217417 2.03341 0
M  V30 1114 H 108.093 -2.53259 2.93153 0
M  V30 1115 H 108.507 -1.67238 4.97124 0
M  V30 1116 H 109.981 -3.29438 4.42916 0
M  V30 1117 H 110.458 -3.43358 2.73864 0
M  V30 1118 H 111.064 -2.07443 3.71278 0
M  V30 1119 N 109.379 -1.50304 -0.473955 0
M  V30 1120 C 110.604 -1.65175 -1.25427 0
M  V30 1121 C 111.029 -0.333673 -1.85117 0
M  V30 1122 O 110.387 0.702114 -1.67153 0
M  V30 1123 C 110.435 -2.74295 -2.34082 0
M  V30 1124 O 109.539 -2.35349 -3.38651 0
M  V30 1125 H 108.88 -0.551944 -0.369126 0
M  V30 1126 H 111.41 -1.96662 -0.564364 0
M  V30 1127 H 111.42 -2.97285 -2.79438 0
M  V30 1128 H 110.095 -3.69959 -1.90008 0
M  V30 1129 H 108.672 -2.22794 -2.99027 0
M  V30 1130 N 110.857 0.726932 -1.39834 0
M  V30 1131 C 111.804 1.841 -1.39197 0
M  V30 1132 C 112.774 1.642 -0.250502 0
M  V30 1133 O 113.959 1.85494 -0.446846 0
M  V30 1134 C 111.099 3.21697 -1.24919 0
M  V30 1135 C 110.212 3.53247 -2.48678 0
M  V30 1136 C 109.347 4.80289 -2.26928 0
M  V30 1137 C 108.386 5.04707 -3.4632 0
M  V30 1138 N 107.523 6.22956 -3.23836 0
M  V30 1139 H 112.363 1.83979 -2.34427 0
M  V30 1140 H 109.9 0.898876 -1.16442 0
M  V30 1141 H 111.858 4.01137 -1.1465 0
M  V30 1142 H 110.488 3.21076 -0.333153 0
M  V30 1143 H 109.54 2.68447 -2.69519 0
M  V30 1144 H 110.852 3.67205 -3.37582 0
M  V30 1145 H 110.006 5.67725 -2.13947 0
M  V30 1146 H 108.745 4.68519 -1.35431 0
M  V30 1147 H 107.75 4.1573 -3.5979 0
M  V30 1148 H 108.975 5.18357 -4.38729 0
M  V30 1149 H 106.921 6.12459 -2.35011 0
M  V30 1150 H 106.838 6.37539 -4.063 0
M  V30 1151 H 108.106 7.1321 -3.14566 0
M  V30 1152 N 112.336 1.25143 0.95797 0
M  V30 1153 C 113.561 1.12521 1.74223 0
M  V30 1154 C 113.986 -0.317402 1.85403 0
M  V30 1155 O 113.344 -1.2299 1.33204 0
M  V30 1156 C 113.392 1.78062 3.1357 0
M  V30 1157 O 112.496 1.058 3.98598 0
M  V30 1158 H 111.837 0.39304 0.535178 0
M  V30 1159 H 114.367 1.65641 1.201 0
M  V30 1160 H 114.377 1.84213 3.64046 0
M  V30 1161 H 113.052 2.83021 3.04749 0
M  V30 1162 H 111.629 1.07506 3.57067 0
M  V30 1163 N 113.814 -1.1601 1.06675 0
M  V30 1164 C 115.042 -1.90527 0.806667 0
M  V30 1165 C 115.457 -1.77643 -0.639396 0
M  V30 1166 O 114.814 -1.12369 -1.43803 0
M  V30 1167 C 114.865 -3.41106 1.19705 0
M  V30 1168 O 114.586 -3.53608 2.58636 0
M  V30 1169 C 116.087 -4.32663 0.965266 0
M  V30 1170 H 113.307 -0.604053 0.292166 0
M  V30 1171 H 115.851 -1.47026 1.4214 0
M  V30 1172 H 114.006 -3.82296 0.626774 0
M  V30 1173 H 114.42 -4.47011 2.74375 0
M  V30 1174 H 115.894 -5.36763 1.288 0
M  V30 1175 H 116.371 -4.39089 -0.0987936 0
M  V30 1176 H 116.977 -3.97206 1.52011 0
M  V30 1177 N 115.292 -0.849877 -1.32721 0
M  V30 1178 C 116.255 -0.296122 -2.27279 0
M  V30 1179 C 117.255 0.541458 -1.5141 0
M  V30 1180 O 118.445 0.353658 -1.70572 0
M  V30 1181 C 115.577 0.581579 -3.35902 0
M  V30 1182 H 116.77 -1.13064 -2.77771 0
M  V30 1183 H 114.323 -0.62383 -1.43311 0
M  V30 1184 H 115.058 1.43809 -2.9067 0
M  V30 1185 H 114.843 -0.0178814 -3.92096 0
M  V30 1186 H 116.333 0.961951 -4.0637 0
M  V30 1187 N 116.77 1.45427 -0.607355 0
M  V30 1188 C 118 2.06314 -0.108656 0
M  V30 1189 C 118.408 1.45269 1.21217 0
M  V30 1190 O 117.751 0.561115 1.74921 0
M  V30 1191 C 117.813 3.59345 0.105618 0
M  V30 1192 C 117.477 4.42723 -1.13337 0
M  V30 1193 C 118.474 4.77715 -2.05145 0
M  V30 1194 C 116.159 4.83478 -1.36213 0
M  V30 1195 C 118.153 5.52317 -3.18158 0
M  V30 1196 C 115.84 5.57835 -2.49527 0
M  V30 1197 C 116.838 5.92171 -3.40327 0
M  V30 1198 O 116.526 6.65019 -4.51669 0
M  V30 1199 H 116.258 0.672782 -0.0658842 0
M  V30 1200 H 118.812 1.87664 -0.834945 0
M  V30 1201 H 117.042 3.76394 0.886796 0
M  V30 1202 H 118.731 4.02076 0.555886 0
M  V30 1203 H 119.497 4.46787 -1.88697 0
M  V30 1204 H 115.376 4.56188 -0.664362 0
M  V30 1205 H 118.92 5.79036 -3.89054 0
M  V30 1206 H 114.817 5.88177 -2.65928 0
M  V30 1207 H 115.585 6.83469 -4.50348 0
M  V30 1208 N 118.248 0.346503 1.53744 0
M  V30 1209 C 119.178 -0.501193 2.28058 0
M  V30 1210 C 120.159 -1.10014 1.29734 0
M  V30 1211 O 121.344 -1.12097 1.58581 0
M  V30 1212 C 118.474 -1.65078 3.05559 0
M  V30 1213 C 117.428 -1.18003 4.11411 0
M  V30 1214 C 116.754 -2.41837 4.76884 0
M  V30 1215 C 118.054 -0.278394 5.21558 0
M  V30 1216 H 119.748 0.11875 2.99164 0
M  V30 1217 H 117.294 0.0585531 1.43881 0
M  V30 1218 H 119.247 -2.25028 3.56287 0
M  V30 1219 H 117.971 -2.29767 2.32109 0
M  V30 1220 H 116.63 -0.603331 3.61601 0
M  V30 1221 H 116.278 -3.0494 4.00026 0
M  V30 1222 H 115.978 -2.1102 5.48402 0
M  V30 1223 H 117.502 -3.02508 5.30397 0
M  V30 1224 H 118.916 -0.784823 5.67903 0
M  V30 1225 H 117.313 -0.0619707 6.00068 0
M  V30 1226 H 118.383 0.684677 4.80042 0
M  V30 1227 N 119.726 -1.57421 0.075193 0
M  V30 1228 C 120.658 -2.09904 -0.920483 0
M  V30 1229 C 121.671 -1.03191 -1.25918 0
M  V30 1230 O 122.86 -1.30695 -1.21577 0
M  V30 1231 C 119.96 -2.54726 -2.23534 0
M  V30 1232 C 119.133 -3.8505 -2.07498 0
M  V30 1233 C 118.192 -4.15929 -3.22319 0
M  V30 1234 O 117.218 -4.85474 -2.9716 0
M  V30 1235 N 118.42 -3.69745 -4.47514 0
M  V30 1236 H 121.185 -2.95954 -0.472359 0
M  V30 1237 H 118.746 -1.61523 -0.110444 0
M  V30 1238 H 120.738 -2.72443 -2.9926 0
M  V30 1239 H 119.308 -1.73795 -2.59835 0
M  V30 1240 H 118.528 -3.76679 -1.16219 0
M  V30 1241 H 119.816 -4.70348 -1.94038 0
M  V30 1242 H 119.214 -3.13569 -4.7084 0
M  V30 1243 H 117.771 -3.92655 -5.20255 0
M  V30 1244 N 121.204 0.198386 -1.56346 0
M  V30 1245 C 122.137 1.27381 -1.89339 0
M  V30 1246 C 123.115 1.44106 -0.753134 0
M  V30 1247 O 124.299 1.59549 -1.00381 0
M  V30 1248 C 121.426 2.6409 -2.12071 0
M  V30 1249 C 120.472 2.64253 -3.34772 0
M  V30 1250 S 121.305 2.16013 -4.89999 0
M  V30 1251 C 122.461 3.54553 -5.15794 0
M  V30 1252 H 122.694 0.992058 -2.8026 0
M  V30 1253 H 120.227 0.401726 -1.49082 0
M  V30 1254 H 122.185 3.42786 -2.2585 0
M  V30 1255 H 120.846 2.89478 -1.21906 0
M  V30 1256 H 120.039 3.64768 -3.47794 0
M  V30 1257 H 119.641 1.93637 -3.1997 0
M  V30 1258 H 121.933 4.50396 -5.06112 0
M  V30 1259 H 122.876 3.46428 -6.1757 0
M  V30 1260 H 123.284 3.49313 -4.43442 0
M  V30 1261 N 122.682 1.50554 0.465978 0
M  V30 1262 C 123.63 1.70324 1.58406 0
M  V30 1263 C 124.624 0.569139 1.59553 0
M  V30 1264 O 125.83 0.749776 1.63641 0
M  V30 1265 H 122.205 0.537688 0.525734 0
M  V30 1266 H 124.176 2.64104 1.38894 0
M  V30 1267 C 122.925 1.81928 2.96307 0
M  V30 1268 H 122.248 2.68586 2.96144 0
M  V30 1269 H 123.688 1.99784 3.73982 0
M  V30 1270 C 122.147 0.572095 3.32007 0
M  V30 1271 O 122.677 -0.286416 4.00678 0
M  V30 1272 N 120.883 0.424606 2.87481 0
M  V30 1273 H 120.43 1.12427 2.31771 0
M  V30 1274 H 120.388 -0.408697 3.11732 0
M  V30 1275 N 124.16 -0.719506 1.40217 0
M  V30 1276 C 125.385 -1.51371 1.4178 0
M  V30 1277 C 125.81 -1.88091 0.0182355 0
M  V30 1278 O 125.168 -1.52997 -0.972707 0
M  V30 1279 C 125.216 -2.768 2.31115 0
M  V30 1280 O 124.32 -3.73349 1.7517 0
M  V30 1281 H 123.661 -0.456529 0.482159 0
M  V30 1282 H 126.191 -0.88644 1.844 0
M  V30 1283 H 126.201 -3.25371 2.46167 0
M  V30 1284 H 124.876 -2.49407 3.3282 0
M  V30 1285 H 123.453 -3.32179 1.69444 0
M  V30 1286 N 125.638 -1.25649 -0.95132 0
M  V30 1287 C 126.568 -1.08808 -2.06599 0
M  V30 1288 C 127.549 0.00382547 -1.701 0
M  V30 1289 O 128.734 -0.166325 -1.93486 0
M  V30 1290 C 125.864 -0.709542 -3.39975 0
M  V30 1291 C 124.818 -1.75206 -3.90496 0
M  V30 1292 C 124.144 -1.22811 -5.20405 0
M  V30 1293 C 125.444 -3.15153 -4.16504 0
M  V30 1294 H 127.138 -2.02048 -2.20946 0
M  V30 1295 H 124.684 -0.972835 -1.06169 0
M  V30 1296 H 126.637 -0.578649 -4.17408 0
M  V30 1297 H 125.361 0.258556 -3.25575 0
M  V30 1298 H 124.02 -1.87145 -3.15234 0
M  V30 1299 H 123.668 -0.250145 -5.02378 0
M  V30 1300 H 123.368 -1.92492 -5.55176 0
M  V30 1301 H 124.892 -1.10968 -6.00432 0
M  V30 1302 H 126.306 -3.06349 -4.84586 0
M  V30 1303 H 124.703 -3.82333 -4.62538 0
M  V30 1304 H 125.773 -3.61966 -3.22658 0
M  V30 1305 N 127.117 1.15442 -1.07289 0
M  V30 1306 C 128.533 1.38201 -0.798288 0
M  V30 1307 C 128.733 1.92429 0.597769 0
M  V30 1308 O 127.789 2.12962 1.3566 0
M  V30 1309 C 129.102 2.35357 -1.87156 0
M  V30 1310 C 130.65 2.49021 -1.89624 0
M  V30 1311 C 131.125 3.49468 -2.96034 0
M  V30 1312 N 132.616 3.57003 -2.95132 0
M  V30 1313 C 133.351 4.34543 -3.74112 0
M  V30 1314 N 132.847 5.15421 -4.6294 0
M  V30 1315 N 134.64 4.29625 -3.62462 0
M  V30 1316 H 126.791 0.78584 -1.97328 0
M  V30 1317 H 129.054 0.408065 -0.855679 0
M  V30 1318 H 128.76 2.02626 -2.87464 0
M  V30 1319 H 128.634 3.35129 -1.73114 0
M  V30 1320 H 131.021 2.81051 -0.899687 0
M  V30 1321 H 131.102 1.4925 -2.07745 0
M  V30 1322 H 130.746 3.18173 -3.95889 0
M  V30 1323 H 130.676 4.48992 -2.75161 0
M  V30 1324 H 133.167 2.99276 -2.30743 0
M  V30 1325 H 133.48 5.7183 -5.19837 0
M  V30 1326 H 131.825 5.14729 -4.66989 0
M  V30 1327 H 135.016 3.65505 -2.92444 0
M  V30 1328 H 135.189 4.89807 -4.24256 0
M  V30 1329 N 128.595 0.856903 1.32268 0
M  V30 1330 C 129.558 0.308171 2.27119 0
M  V30 1331 C 130.558 -0.533421 1.51695 0
M  V30 1332 O 131.748 -0.344607 1.70757 0
M  V30 1333 C 128.88 -0.563757 3.36206 0
M  V30 1334 H 130.073 1.14535 2.77167 0
M  V30 1335 H 127.626 0.631421 1.42978 0
M  V30 1336 H 128.361 -1.42266 2.91429 0
M  V30 1337 H 128.146 0.0386749 3.92081 0
M  V30 1338 H 129.636 -0.940386 4.06874 0
M  V30 1339 N 130.073 -1.45103 0.615059 0
M  V30 1340 C 130.983 -2.34382 -0.101034 0
M  V30 1341 C 131.999 -1.51681 -0.852585 0
M  V30 1342 O 133.175 -1.8446 -0.808484 0
M  V30 1343 C 130.24 -3.29417 -1.08099 0
M  V30 1344 C 129.301 -4.28025 -0.330577 0
M  V30 1345 C 128.534 -5.1852 -1.26385 0
M  V30 1346 O 128.757 -5.12598 -2.50198 0
M  V30 1347 O 127.691 -5.97122 -0.756866 0
M  V30 1348 H 131.517 -2.97033 0.632855 0
M  V30 1349 H 129.102 -1.4461 0.375293 0
M  V30 1350 H 130.984 -3.87958 -1.6452 0
M  V30 1351 H 129.659 -2.69321 -1.79577 0
M  V30 1352 H 128.566 -3.73078 0.276283 0
M  V30 1353 H 129.899 -4.90997 0.343866 0
M  V30 1354 N 131.551 -0.354651 -1.53558 0
M  V30 1355 C 132.828 0.294281 -1.93374 0
M  V30 1356 C 133.208 1.67313 -1.28723 0
M  V30 1357 O 132.556 2.24179 -0.442247 0
M  V30 1358 C 132.766 0.355445 -3.47185 0
M  V30 1359 C 134.114 0.601007 -4.20325 0
M  V30 1360 O 135.138 0.437106 -3.53508 0
M  V30 1361 O 133.997 0.919322 -5.38712 0
M  V30 1362 H 131.091 0.174033 -0.808481 0
M  V30 1363 H 133.637 -0.406638 -1.64756 0
M  V30 1364 H 132.409 -0.611729 -3.86489 0
M  V30 1365 H 132.032 1.1027 -3.82003 0
M  V30 1366 N 133.029 1.57378 -0.0835403 0
M  V30 1367 C 134.257 1.98263 0.59157 0
M  V30 1368 C 134.672 0.962302 1.62435 0
M  V30 1369 O 134.029 -0.049581 1.82433 0
M  V30 1370 C 134.08 3.39214 1.24965 0
M  V30 1371 O 133.801 4.37339 0.258186 0
M  V30 1372 C 135.302 3.95038 2.01147 0
M  V30 1373 H 132.522 0.651773 0.159477 0
M  V30 1374 H 135.066 2.03878 -0.159415 0
M  V30 1375 H 133.221 3.34649 1.95164 0
M  V30 1376 H 133.635 5.19371 0.731734 0
M  V30 1377 H 135.109 4.95848 2.42567 0
M  V30 1378 H 135.586 3.32222 2.87272 0
M  V30 1379 H 136.192 4.0304 1.35789 0
M  V30 1380 N 134.507 -0.190092 1.56449 0
M  V30 1381 C 135.47 -1.21925 1.9408 0
M  V30 1382 C 136.47 -1.38176 0.822431 0
M  V30 1383 O 137.66 -1.35903 1.08977 0
M  V30 1384 C 134.792 -2.58773 2.21922 0
M  V30 1385 H 135.985 -0.897464 2.86157 0
M  V30 1386 H 133.538 -0.43181 1.50217 0
M  V30 1387 H 134.273 -2.95998 1.32499 0
M  V30 1388 H 134.058 -2.48348 3.03424 0
M  V30 1389 H 135.548 -3.32978 2.52022 0
M  V30 1390 N 135.985 -1.50799 -0.457987 0
M  V30 1391 C 137.231 -1.62683 -1.21088 0
M  V30 1392 C 137.564 -0.332268 -1.91336 0
M  V30 1393 O 136.839 0.667043 -1.82704 0
M  V30 1394 C 137.122 -2.81615 -2.24422 0
M  V30 1395 C 136.975 -4.20989 -1.58392 0
M  V30 1396 C 138.294 -2.96085 -3.2561 0
M  V30 1397 H 135.413 -0.592087 -0.438864 0
M  V30 1398 H 138.055 -1.83225 -0.50286 0
M  V30 1399 H 136.205 -2.64231 -2.84806 0
M  V30 1400 H 137.877 -4.49994 -1.01504 0
M  V30 1401 H 136.12 -4.24641 -0.886704 0
M  V30 1402 H 136.791 -5.0016 -2.33547 0
M  V30 1403 H 139.267 -3.12042 -2.75262 0
M  V30 1404 H 138.143 -3.80902 -3.95228 0
M  V30 1405 H 138.404 -2.0726 -3.90507 0
M  V30 1406 N 137.463 0.71206 -1.40597 0
M  V30 1407 C 138.693 1.49894 -1.42181 0
M  V30 1408 C 139.101 1.89189 -0.0208078 0
M  V30 1409 O 138.444 1.56223 0.966436 0
M  V30 1410 C 138.506 2.80215 -2.25211 0
M  V30 1411 C 138.17 2.63221 -3.73582 0
M  V30 1412 C 139.167 2.30249 -4.66135 0
M  V30 1413 C 136.852 2.79376 -4.17438 0
M  V30 1414 C 138.846 2.13645 -6.00529 0
M  V30 1415 C 136.533 2.6239 -5.51901 0
M  V30 1416 C 137.531 2.29573 -6.43262 0
M  V30 1417 O 137.219 2.12719 -7.75246 0
M  V30 1418 H 136.951 0.469031 -0.486812 0
M  V30 1419 H 139.505 0.88564 -1.85326 0
M  V30 1420 H 137.735 3.4389 -1.76852 0
M  V30 1421 H 139.424 3.41947 -2.18694 0
M  V30 1422 H 140.19 2.17398 -4.33547 0
M  V30 1423 H 136.069 3.03906 -3.46644 0
M  V30 1424 H 139.613 1.87953 -6.71803 0
M  V30 1425 H 135.51 2.74826 -5.84073 0
M  V30 1426 H 136.278 2.27611 -7.86216 0
M  V30 1427 N 138.941 1.26152 0.944643 0
M  V30 1428 C 140.171 1.14094 1.72239 0
M  V30 1429 C 140.579 -0.306931 1.86694 0
M  V30 1430 O 139.922 -1.22222 1.3714 0
M  V30 1431 C 139.984 1.73316 3.14963 0
M  V30 1432 C 139.648 3.2239 3.23904 0
M  V30 1433 C 140.645 4.19252 3.07447 0
M  V30 1434 C 138.33 3.62788 3.47405 0
M  V30 1435 C 140.324 5.54491 3.14353 0
M  V30 1436 C 138.011 4.98162 3.53947 0
M  V30 1437 C 139.009 5.93823 3.37436 0
M  V30 1438 O 138.697 7.26732 3.43679 0
M  V30 1439 H 138.429 0.398292 0.546205 0
M  V30 1440 H 140.983 1.67201 1.19301 0
M  V30 1441 H 139.213 1.14667 3.69308 0
M  V30 1442 H 140.902 1.56214 3.74636 0
M  V30 1443 H 141.668 3.8938 2.8915 0
M  V30 1444 H 137.547 2.88816 3.59313 0
M  V30 1445 H 141.091 6.29137 3.01384 0
M  V30 1446 H 136.988 5.27695 3.71763 0
M  V30 1447 H 137.756 7.3496 3.60245 0
M  V30 1448 N 140.419 -1.14872 1.07899 0
M  V30 1449 C 141.659 -1.8745 0.814965 0
M  V30 1450 C 142.023 -1.80758 -0.64733 0
M  V30 1451 O 143.224 -2.48422 -1.02664 0
M  V30 1452 C 141.495 -3.32286 1.31607 0
M  V30 1453 S 143.054 -4.22537 1.18357 0
M  V30 1454 H 139.872 -0.646833 0.295174 0
M  V30 1455 H 142.474 -1.38555 1.37923 0
M  V30 1456 H 141.178 -3.34703 2.37491 0
M  V30 1457 H 140.709 -3.86238 0.747261 0
M  V30 1458 H 142.724 -4.96044 0.124586 0
M  V30 1459 N 141.898 -0.863906 -1.31812 0
M  V30 1460 C 142.861 -0.320212 -2.26952 0
M  V30 1461 C 143.861 0.525369 -1.51975 0
M  V30 1462 O 145.051 0.335547 -1.70938 0
M  V30 1463 C 142.183 0.545919 -3.365 0
M  V30 1464 H 143.376 -1.16004 -2.76556 0
M  V30 1465 H 140.929 -0.638995 -1.42641 0
M  V30 1466 H 141.664 1.40718 -2.92179 0
M  V30 1467 H 141.449 -0.0594674 -3.92055 0
M  V30 1468 H 142.939 0.918796 -4.07367 0
M  V30 1469 N 143.376 1.44774 -0.622745 0
M  V30 1470 C 144.323 2.30635 0.0871679 0
M  V30 1471 C 145.293 1.42994 0.845097 0
M  V30 1472 O 146.478 1.71907 0.827812 0
M  V30 1473 C 143.618 3.28144 1.06844 0
M  V30 1474 C 142.731 4.30888 0.309809 0
M  V30 1475 C 141.866 5.15494 1.28215 0
M  V30 1476 C 140.905 6.09953 0.512198 0
M  V30 1477 N 140.042 6.87287 1.43458 0
M  V30 1478 H 144.882 2.90803 -0.650974 0
M  V30 1479 H 142.419 1.43286 -0.33281 0
M  V30 1480 H 144.377 3.83157 1.65066 0
M  V30 1481 H 143.007 2.69695 1.77382 0
M  V30 1482 H 142.059 3.78414 -0.388181 0
M  V30 1483 H 143.371 4.97955 -0.290254 0
M  V30 1484 H 142.525 5.74983 1.93596 0
M  V30 1485 H 141.264 4.48481 1.91614 0
M  V30 1486 H 140.269 5.49581 -0.155151 0
M  V30 1487 H 141.494 6.78999 -0.116958 0
M  V30 1488 H 139.44 6.2295 2.05594 0
M  V30 1489 H 139.357 7.50763 0.888335 0
M  V30 1490 H 140.625 7.51306 2.07749 0
M  V30 1491 N 144.854 0.36279 1.53368 0
M  V30 1492 C 146.084 -0.228281 2.05335 0
M  V30 1493 C 146.492 -1.43226 1.23625 0
M  V30 1494 O 145.835 -1.81717 0.269206 0
M  V30 1495 C 145.897 -0.688549 3.52845 0
M  V30 1496 C 145.561 0.398362 4.5526 0
M  V30 1497 C 146.558 1.24732 5.04716 0
M  V30 1498 C 144.243 0.557805 4.99193 0
M  V30 1499 C 146.237 2.2411 5.96702 0
M  V30 1500 C 143.924 1.55495 5.90986 0
M  V30 1501 C 144.922 2.39503 6.39631 0
M  V30 1502 O 144.61 3.37517 7.29615 0
M  V30 1503 H 144.342 -0.044395 0.674541 0
M  V30 1504 H 146.896 0.518668 1.98744 0
M  V30 1505 H 145.126 -1.48706 3.56964 0
M  V30 1506 H 146.815 -1.20231 3.87685 0
M  V30 1507 H 147.581 1.13532 4.71525 0
M  V30 1508 H 143.46 -0.0862959 4.60919 0
M  V30 1509 H 147.004 2.89718 6.34594 0
M  V30 1510 H 142.901 1.66744 6.23592 0
M  V30 1511 H 143.669 3.33213 7.47604 0
M  V30 1512 N 146.332 -1.57332 0.0918853 0
M  V30 1513 C 147.743 -1.81496 -0.437739 0
M  V30 1514 C 148.094 -1.00727 -1.6837 0
M  V30 1515 O 147.219 -0.235694 -2.15113 0
M  V30 1516 C 147.814 -3.29197 -0.800939 0
M  V30 1517 C 146.373 -3.54136 -1.27532 0
M  V30 1518 C 145.52 -2.75979 -0.270392 0
M  V30 1519 H 148.471 -1.55494 0.317366 0
M  V30 1520 H 148.492 -3.42344 -1.66074 0
M  V30 1521 H 148.004 -3.87955 0.106078 0
M  V30 1522 H 146.105 -3.00705 -2.20016 0
M  V30 1523 H 146.218 -4.62792 -1.23938 0
M  V30 1524 H 144.582 -2.43349 -0.751872 0
M  V30 1525 H 145.365 -3.37484 0.629248 0
M  V30 1526 N 147.81 0.181792 -1.56548 0
M  V30 1527 C 149.04 0.914618 -1.85252 0
M  V30 1528 C 149.448 1.76791 -0.673914 0
M  V30 1529 O 148.791 1.80009 0.366416 0
M  V30 1530 C 148.853 1.85019 -3.08234 0
M  V30 1531 C 148.517 1.17754 -4.41569 0
M  V30 1532 C 149.514 0.548035 -5.17003 0
M  V30 1533 C 147.199 1.17742 -4.88305 0
M  V30 1534 C 149.193 -0.0726128 -6.37359 0
M  V30 1535 C 146.88 0.552946 -6.08593 0
M  V30 1536 C 147.878 -0.070978 -6.82963 0
M  V30 1537 O 147.566 -0.685635 -8.00971 0
M  V30 1538 H 147.298 0.271695 -0.618998 0
M  V30 1539 H 149.852 0.189944 -2.0452 0
M  V30 1540 H 148.082 2.61491 -2.84885 0
M  V30 1541 H 149.771 2.45195 -3.23472 0
M  V30 1542 H 150.537 0.540174 -4.81982 0
M  V30 1543 H 146.416 1.65246 -4.30366 0
M  V30 1544 H 149.96 -0.560213 -6.95347 0
M  V30 1545 H 145.857 0.558354 -6.43081 0
M  V30 1546 H 146.625 -0.58385 -8.16415 0
M  V30 1547 N 149.288 1.51039 0.449983 0
M  V30 1548 C 150.518 1.66627 1.22143 0
M  V30 1549 C 150.926 0.357776 1.85786 0
M  V30 1550 O 150.269 -0.672424 1.70951 0
M  V30 1551 C 150.331 2.71562 2.35573 0
M  V30 1552 C 149.995 4.14526 1.92399 0
M  V30 1553 C 150.992 4.99717 1.43453 0
M  V30 1554 C 148.677 4.60559 2.00475 0
M  V30 1555 C 150.671 6.28998 1.03155 0
M  V30 1556 C 148.358 5.8984 1.59788 0
M  V30 1557 C 149.356 6.73886 1.11208 0
M  V30 1558 O 149.044 8.0075 0.710935 0
M  V30 1559 H 148.776 0.562635 0.374724 0
M  V30 1560 H 151.33 1.98146 0.541036 0
M  V30 1561 H 149.56 2.3533 3.06849 0
M  V30 1562 H 151.249 2.76156 2.97478 0
M  V30 1563 H 152.015 4.65361 1.36618 0
M  V30 1564 H 147.894 3.95273 2.37235 0
M  V30 1565 H 151.438 6.9455 0.651663 0
M  V30 1566 H 147.335 6.23713 1.66289 0
M  V30 1567 H 148.103 8.142 0.837913 0
M  V30 1568 N 150.766 -0.704594 1.40972 0
M  V30 1569 C 151.996 -1.49138 1.42974 0
M  V30 1570 C 152.404 -1.89175 0.0308406 0
M  V30 1571 O 151.747 -1.56734 -0.958138 0
M  V30 1572 C 151.809 -2.79016 2.26694 0
M  V30 1573 C 151.473 -2.61236 3.74973 0
M  V30 1574 C 152.47 -2.27773 4.67349 0
M  V30 1575 C 150.155 -2.77158 4.18914 0
M  V30 1576 C 152.149 -2.10457 6.01653 0
M  V30 1577 C 149.836 -2.59459 5.53285 0
M  V30 1578 C 150.834 -2.26158 6.4447 0
M  V30 1579 O 150.522 -2.08605 7.76363 0
M  V30 1580 H 150.254 -0.466443 0.489292 0
M  V30 1581 H 152.808 -0.8758 1.85793 0
M  V30 1582 H 151.038 -3.42947 1.78673 0
M  V30 1583 H 152.727 -3.40782 2.20504 0
M  V30 1584 H 153.493 -2.15095 4.34694 0
M  V30 1585 H 149.372 -3.02064 3.48251 0
M  V30 1586 H 152.916 -1.84387 6.72791 0
M  V30 1587 H 148.813 -2.71725 5.85522 0
M  V30 1588 H 149.581 -2.23439 7.87412 0
M  V30 1589 N 152.244 -1.26651 -0.937939 0
M  V30 1590 C 153.492 -1.12165 -1.68118 0
M  V30 1591 C 153.813 0.334983 -1.92101 0
M  V30 1592 O 153.083 1.23583 -1.52 0
M  V30 1593 H 151.663 -0.412093 -0.623048 0
M  V30 1594 H 154.325 -1.59027 -1.12678 0
M  V30 1595 H 153.421 -1.64289 -2.6536 0
M  V30 1596 N 153.722 1.14298 -1.08507 0
M  V30 1597 C 154.95 1.89219 -0.836876 0
M  V30 1598 C 155.365 1.78638 0.611054 0
M  V30 1599 O 154.722 1.14643 1.41998 0
M  V30 1600 C 154.773 3.39158 -1.25116 0
M  V30 1601 O 154.494 3.49449 -2.64229 0
M  V30 1602 C 155.995 4.31073 -1.03398 0
M  V30 1603 H 153.215 0.599328 -0.301739 0
M  V30 1604 H 155.759 1.44746 -1.44461 0
M  V30 1605 H 153.914 3.81251 -0.687514 0
M  V30 1606 H 154.328 4.42589 -2.81452 0
M  V30 1607 H 155.802 5.34646 -1.37323 0
M  V30 1608 H 156.279 4.3919 0.0289259 0
M  V30 1609 H 156.885 3.94738 -1.58311 0
M  V30 1610 N 155.201 0.870884 1.31352 0
M  V30 1611 C 156.426 0.495957 2.01383 0
M  V30 1612 C 156.851 -0.904324 1.64935 0
M  V30 1613 O 156.209 -1.59687 0.858466 0
M  V30 1614 C 156.257 0.661433 3.54482 0
M  V30 1615 O 155.361 -0.298851 4.11316 0
M  V30 1616 H 154.702 0.197158 0.634054 0
M  V30 1617 H 157.232 1.17455 1.67527 0
M  V30 1618 H 157.242 0.555072 4.04207 0
M  V30 1619 H 155.917 1.68246 3.8035 0
M  V30 1620 H 154.494 -0.147368 3.72609 0
M  V30 1621 N 156.679 -1.44442 0.630414 0
M  V30 1622 C 157.629 -2.27794 -0.0968103 0
M  V30 1623 C 158.613 -1.38624 -0.816834 0
M  V30 1624 O 159.805 -1.62438 -0.70306 0
M  V30 1625 C 156.934 -3.25929 -1.07819 0
M  V30 1626 C 156.02 -4.22588 -0.357826 0
M  V30 1627 N 156.411 -5.0207 0.613169 0
M  V30 1628 C 154.709 -4.41914 -0.602365 0
M  V30 1629 C 155.41 -5.72351 1.03871 0
M  V30 1630 N 154.386 -5.42287 0.377642 0
M  V30 1631 H 158.188 -2.86653 0.648621 0
M  V30 1632 H 155.702 -1.55871 0.455862 0
M  V30 1633 H 157.699 -3.84399 -1.61378 0
M  V30 1634 H 156.359 -2.68631 -1.82393 0
M  V30 1635 H 157.37 -5.08331 0.990947 0
M  V30 1636 H 154.047 -3.95714 -1.33103 0
M  V30 1637 H 155.437 -6.4619 1.84086 0
M  V30 1638 N 158.157 -0.370918 -1.53173 0
M  V30 1639 C 159.403 0.209976 -2.02313 0
M  V30 1640 C 159.758 1.45987 -1.25322 0
M  V30 1641 O 159.051 1.8856 -0.339965 0
M  V30 1642 C 159.245 0.549696 -3.53147 0
M  V30 1643 C 159.074 -0.665721 -4.44745 0
M  V30 1644 C 157.844 -1.17942 -4.91343 0
M  V30 1645 C 160.042 -1.53255 -4.90935 0
M  V30 1646 N 158.024 -2.35431 -5.66962 0
M  V30 1647 C 159.395 -2.55403 -5.64951 0
M  V30 1648 C 161.45 -1.5548 -4.73002 0
M  V30 1649 C 160.153 -3.5964 -6.22938 0
M  V30 1650 C 162.179 -2.58613 -5.31858 0
M  V30 1651 C 161.541 -3.59485 -6.05764 0
M  V30 1652 H 157.64 0.0394095 -0.781006 0
M  V30 1653 H 160.224 -0.516666 -1.8772 0
M  V30 1654 H 158.395 1.24541 -3.67891 0
M  V30 1655 H 160.127 1.11614 -3.89004 0
M  V30 1656 H 156.882 -0.743228 -4.67732 0
M  V30 1657 H 157.306 -2.94827 -6.09431 0
M  V30 1658 H 161.948 -0.788457 -4.15383 0
M  V30 1659 H 159.666 -4.37153 -6.79649 0
M  V30 1660 H 163.252 -2.61195 -5.19873 0
M  V30 1661 H 162.132 -4.3798 -6.50495 0
M  V30 1662 N 159.635 1.57281 -0.100228 0
M  V30 1663 C 160.865 1.98591 0.569681 0
M  V30 1664 C 161.273 0.978315 1.61943 0
M  V30 1665 O 160.616 -0.0396108 1.83657 0
M  V30 1666 C 160.678 3.36282 1.271 0
M  V30 1667 C 160.342 4.55488 0.371409 0
M  V30 1668 C 161.339 5.18491 -0.382504 0
M  V30 1669 C 159.024 5.01474 0.287965 0
M  V30 1670 C 161.018 6.25852 -1.20779 0
M  V30 1671 C 158.705 6.08701 -0.540965 0
M  V30 1672 C 159.703 6.70755 -1.28749 0
M  V30 1673 O 159.391 7.75914 -2.10269 0
M  V30 1674 H 159.123 0.65752 0.156982 0
M  V30 1675 H 161.677 2.0463 -0.177734 0
M  V30 1676 H 159.907 3.26941 2.0651 0
M  V30 1677 H 161.596 3.62005 1.83595 0
M  V30 1678 H 162.362 4.83891 -0.3278 0
M  V30 1679 H 158.241 4.52932 0.858689 0
M  V30 1680 H 161.785 6.74218 -1.79096 0
M  V30 1681 H 157.682 6.42732 -0.597131 0
M  V30 1682 H 158.45 7.92925 -2.03007 0
M  V30 1683 N 161.113 -0.173488 1.56642 0
M  V30 1684 C 162.36 -0.890465 1.81871 0
M  V30 1685 C 162.688 -1.82339 0.67696 0
M  V30 1686 O 161.943 -1.92795 -0.335926 0
M  V30 1687 C 162.242 -1.72069 3.13252 0
M  V30 1688 C 161.908 -0.936878 4.41059 0
M  V30 1689 C 160.57 -0.720545 4.75775 0
M  V30 1690 C 162.922 -0.386919 5.19762 0
M  V30 1691 C 160.25 0.0568829 5.86672 0
M  V30 1692 C 162.602 0.37741 6.31473 0
M  V30 1693 C 161.266 0.604563 6.64757 0
M  V30 1694 H 160.536 -0.325844 0.665512 0
M  V30 1695 H 163.183 -0.155527 1.90867 0
M  V30 1696 H 161.488 -2.52496 2.99588 0
M  V30 1697 H 163.185 -2.27844 3.29982 0
M  V30 1698 H 159.775 -1.11553 4.13828 0
M  V30 1699 H 163.959 -0.541398 4.93338 0
M  V30 1700 H 159.215 0.242635 6.10918 0
M  V30 1701 H 163.389 0.810825 6.91664 0
M  V30 1702 H 161.016 1.20885 7.50527 0
M  V30 1703 N 162.591 -1.51276 -0.441967 0
M  V30 1704 C 163.868 -1.54252 -1.20273 0
M  V30 1705 C 164.248 -0.30408 -2.08898 0
M  V30 1706 O 163.596 0.711084 -2.17154 0
M  V30 1707 C 163.806 -2.85406 -2.00859 0
M  V30 1708 C 165.154 -3.37181 -2.58059 0
M  V30 1709 O 166.178 -2.86925 -2.11074 0
M  V30 1710 O 165.037 -4.24858 -3.43741 0
M  V30 1711 H 162.131 -0.619969 -0.547328 0
M  V30 1712 H 164.677 -1.63586 -0.451413 0
M  V30 1713 H 163.449 -3.67003 -1.35736 0
M  V30 1714 H 163.072 -2.79213 -2.83065 0
M  V30 1715 N 164.069 0.697108 -1.41344 0
M  V30 1716 C 165.315 1.4593 -1.40827 0
M  V30 1717 C 165.648 1.94193 -0.0167098 0
M  V30 1718 O 164.923 1.69425 0.955263 0
M  V30 1719 C 165.206 2.67229 -2.41373 0
M  V30 1720 C 165.059 2.24741 -3.8963 0
M  V30 1721 C 166.378 3.69423 -2.39196 0
M  V30 1722 H 163.497 0.529303 -0.512842 0
M  V30 1723 H 166.139 0.794112 -1.72609 0
M  V30 1724 H 164.289 3.23982 -2.14401 0
M  V30 1725 H 165.961 1.73327 -4.27499 0
M  V30 1726 H 164.204 1.56542 -4.0457 0
M  V30 1727 H 164.875 3.1177 -4.55525 0
M  V30 1728 H 167.351 3.2234 -2.63128 0
M  V30 1729 H 166.227 4.51907 -3.11563 0
M  V30 1730 H 166.488 4.19012 -1.41001 0
M  V30 1731 N 165.547 1.27147 0.931209 0
M  V30 1732 C 166.793 1.14455 1.68141 0
M  V30 1733 C 167.148 -0.307172 1.89932 0
M  V30 1734 O 166.441 -1.22158 1.47607 0
M  V30 1735 C 166.635 1.8579 3.05314 0
M  V30 1736 C 166.464 3.3775 2.96909 0
M  V30 1737 C 165.234 4.07062 2.99381 0
M  V30 1738 C 167.432 4.33783 2.76291 0
M  V30 1739 N 165.414 5.45618 2.8138 0
M  V30 1740 C 166.785 5.59582 2.6696 0
M  V30 1741 C 168.84 4.23915 2.61152 0
M  V30 1742 C 167.543 6.76639 2.44033 0
M  V30 1743 C 169.569 5.40689 2.39602 0
M  V30 1744 C 168.931 6.65443 2.3101 0
M  V30 1745 H 165.03 0.473667 0.622225 0
M  V30 1746 H 167.614 1.60568 1.10118 0
M  V30 1747 H 165.785 1.42138 3.61457 0
M  V30 1748 H 167.517 1.65634 3.69253 0
M  V30 1749 H 164.272 3.585 3.09475 0
M  V30 1750 H 164.696 6.184 2.75519 0
M  V30 1751 H 169.338 3.28189 2.66555 0
M  V30 1752 H 167.056 7.72451 2.3737 0
M  V30 1753 H 170.642 5.34932 2.28778 0
M  V30 1754 H 169.522 7.54277 2.14558 0
M  V30 1755 N 167.025 -1.13721 1.09112 0
M  V30 1756 C 168.273 -1.84559 0.823562 0
M  V30 1757 C 168.594 -1.83754 -0.652658 0
M  V30 1758 O 167.864 -1.29102 -1.47342 0
M  V30 1759 H 166.444 -0.683376 0.301673 0
M  V30 1760 H 169.106 -1.37771 1.37859 0
M  V30 1761 H 168.202 -2.8917 1.17419 0
M  V30 1762 N 168.503 -0.877838 -1.30888 0
M  V30 1763 C 169.435 -0.296607 -2.27273 0
M  V30 1764 C 170.448 0.544799 -1.53414 0
M  V30 1765 O 171.637 0.365511 -1.74718 0
M  V30 1766 C 168.737 0.597481 -3.33592 0
M  V30 1767 C 167.91 -0.213251 -4.3688 0
M  V30 1768 C 166.969 0.610208 -5.2265 0
M  V30 1769 O 165.995 0.035441 -5.69189 0
M  V30 1770 N 167.197 1.92071 -5.47804 0
M  V30 1771 H 169.962 -1.12492 -2.77787 0
M  V30 1772 H 167.523 -0.740105 -1.43993 0
M  V30 1773 H 169.515 1.15425 -3.87891 0
M  V30 1774 H 168.085 1.32647 -2.83061 0
M  V30 1775 H 167.305 -0.951466 -3.82545 0
M  V30 1776 H 168.593 -0.769262 -5.02951 0
M  V30 1777 H 167.991 2.4107 -5.11763 0
M  V30 1778 H 166.548 2.42508 -6.05007 0
M  V30 1779 N 169.982 1.44106 -0.638065 0
M  V30 1780 C 171.23 2.01579 -0.145043 0
M  V30 1781 C 171.551 1.50496 1.24 0
M  V30 1782 O 170.821 0.711374 1.82527 0
M  V30 1783 H 169.401 0.745282 -0.05063 0
M  V30 1784 H 172.063 1.76516 -0.826327 0
M  V30 1785 H 171.159 3.11877 -0.118039 0
M  V30 1786 N 171.46 0.379036 1.52974 0
M  V30 1787 C 172.688 -0.20679 2.05864 0
M  V30 1788 C 173.103 -1.41356 1.25155 0
M  V30 1789 O 172.46 -1.8009 0.295588 0
M  V30 1790 C 172.511 -0.587045 3.56702 0
M  V30 1791 O 172.232 0.571776 4.34353 0
M  V30 1792 C 173.733 -1.22983 4.25899 0
M  V30 1793 H 170.953 -0.0336123 0.670158 0
M  V30 1794 H 173.497 0.541298 1.97206 0
M  V30 1795 H 171.652 -1.28504 3.65466 0
M  V30 1796 H 172.066 0.261544 5.23847 0
M  V30 1797 H 173.54 -1.44635 5.32715 0
M  V30 1798 H 174.017 -2.19416 3.80465 0
M  V30 1799 H 174.623 -0.572892 4.21424 0
M  V30 1800 N 172.938 -1.57226 0.108567 0
M  V30 1801 C 173.868 -2.17778 -0.84232 0
M  V30 1802 C 174.849 -1.11487 -1.2847 0
M  V30 1803 O 176.034 -1.39681 -1.34918 0
M  V30 1804 C 173.164 -2.76888 -2.09644 0
M  V30 1805 C 172.118 -3.88669 -1.79221 0
M  V30 1806 C 171.444 -4.34541 -3.11574 0
M  V30 1807 C 172.744 -5.11251 -1.06864 0
M  V30 1808 H 174.438 -2.97489 -0.337774 0
M  V30 1809 H 171.984 -1.43097 -0.161025 0
M  V30 1810 H 173.937 -3.17904 -2.76614 0
M  V30 1811 H 172.661 -1.94451 -2.62405 0
M  V30 1812 H 171.32 -3.48213 -1.14644 0
M  V30 1813 H 170.968 -3.48977 -3.62249 0
M  V30 1814 H 170.668 -5.09914 -2.91996 0
M  V30 1815 H 172.192 -4.782 -3.7968 0
M  V30 1816 H 173.606 -5.49352 -1.63968 0
M  V30 1817 H 172.003 -5.9214 -0.974178 0
M  V30 1818 H 173.073 -4.8487 -0.0536168 0
M  V30 1819 N 174.416 0.165178 -1.56732 0
M  V30 1820 C 175.662 0.882112 -1.82611 0
M  V30 1821 C 175.995 1.81628 -0.687378 0
M  V30 1822 O 175.27 1.92009 0.310267 0
M  V30 1823 C 175.553 1.67245 -3.18906 0
M  V30 1824 C 175.406 0.760987 -4.43316 0
M  V30 1825 C 176.725 2.63884 -3.52212 0
M  V30 1826 H 173.844 0.319242 -0.664269 0
M  V30 1827 H 176.486 0.148052 -1.89422 0
M  V30 1828 H 174.636 2.29824 -3.1323 0
M  V30 1829 H 176.308 0.147596 -4.61064 0
M  V30 1830 H 174.551 0.0694102 -4.33744 0
M  V30 1831 H 175.222 1.34962 -5.35247 0
M  V30 1832 H 177.698 2.11429 -3.58381 0
M  V30 1833 H 176.574 3.16245 -4.48643 0
M  V30 1834 H 176.835 3.44377 -2.77231 0
M  V30 1835 N 175.894 1.51508 0.433938 0
M  V30 1836 C 177.122 1.68157 1.20543 0
M  V30 1837 C 177.537 0.380362 1.84929 0
M  V30 1838 O 176.894 -0.641446 1.70856 0
M  V30 1839 C 176.945 2.79965 2.28696 0
M  V30 1840 O 176.666 4.05045 1.66943 0
M  V30 1841 C 178.167 3.07912 3.18912 0
M  V30 1842 H 175.387 0.56421 0.363191 0
M  V30 1843 H 177.931 1.97941 0.513754 0
M  V30 1844 H 176.086 2.5277 2.93574 0
M  V30 1845 H 176.5 4.67165 2.38448 0
M  V30 1846 H 177.974 3.89719 3.90926 0
M  V30 1847 H 178.451 2.20456 3.79863 0
M  V30 1848 H 179.057 3.36779 2.59731 0
M  V30 1849 N 177.372 -0.689602 1.41712 0
M  V30 1850 C 178.618 -1.45181 1.41599 0
M  V30 1851 C 178.951 -1.94181 0.0270081 0
M  V30 1852 O 178.226 -1.6993 -0.946265 0
M  V30 1853 C 178.509 -2.65945 2.42787 0
M  V30 1854 C 178.362 -2.22672 3.90816 0
M  V30 1855 C 179.681 -3.68149 2.41151 0
M  V30 1856 H 176.8 -0.526576 0.515642 0
M  V30 1857 H 179.442 -0.784947 1.73028 0
M  V30 1858 H 177.592 -3.2284 2.16116 0
M  V30 1859 H 179.264 -1.71058 4.28412 0
M  V30 1860 H 177.507 -1.54394 4.05395 0
M  V30 1861 H 178.178 -3.0935 4.57172 0
M  V30 1862 H 180.654 -3.2094 2.64834 0
M  V30 1863 H 179.53 -4.50248 3.13955 0
M  V30 1864 H 179.791 -4.18259 1.43221 0
M  V30 1865 N 178.85 -1.27639 -0.924453 0
M  V30 1866 C 180.075 -1.17101 -1.71179 0
M  V30 1867 C 180.5 0.268134 -1.86179 0
M  V30 1868 O 179.858 1.19415 -1.36418 0
M  V30 1869 C 179.906 -1.86313 -3.08739 0
M  V30 1870 O 179.01 -1.16331 -3.95652 0
M  V30 1871 H 178.351 -0.407091 -0.524569 0
M  V30 1872 H 180.881 -1.68767 -1.15666 0
M  V30 1873 H 180.891 -1.938 -3.59034 0
M  V30 1874 H 179.566 -2.91001 -2.97138 0
M  V30 1875 H 178.143 -1.16935 -3.54091 0
M  V30 1876 N 180.328 1.1314 -1.09713 0
M  V30 1877 C 181.553 1.88862 -0.857081 0
M  V30 1878 C 181.978 1.78729 0.586304 0
M  V30 1879 O 181.336 1.13692 1.41222 0
M  V30 1880 C 181.384 3.36325 -1.30069 0
M  V30 1881 O 180.488 4.09815 -0.461007 0
M  V30 1882 H 179.829 0.587108 -0.310162 0
M  V30 1883 H 182.359 1.43129 -1.46203 0
M  V30 1884 H 182.369 3.87157 -1.28738 0
M  V30 1885 H 181.044 3.43017 -2.35185 0
M  V30 1886 H 179.621 3.68986 -0.538888 0
M  V30 1887 N 181.806 0.884767 1.30421 0
M  V30 1888 C 182.769 0.356277 2.26414 0
M  V30 1889 C 183.769 -0.501124 1.52792 0
M  V30 1890 O 184.959 -0.30831 1.7145 0
M  V30 1891 C 182.091 -0.492316 3.37326 0
M  V30 1892 H 183.284 1.20389 2.74675 0
M  V30 1893 H 180.837 0.661607 1.41607 0
M  V30 1894 H 181.572 -1.36052 2.94381 0
M  V30 1895 H 181.357 0.121832 3.91911 0
M  V30 1896 H 182.847 -0.853871 4.08777 0
M  V30 1897 N 183.284 -1.43765 0.645699 0
M  V30 1898 C 184.509 -2.06767 0.161883 0
M  V30 1899 C 184.934 -1.48034 -1.16049 0
M  V30 1900 O 184.292 -0.587369 -1.71522 0
M  V30 1901 C 184.34 -3.60519 0.0762003 0
M  V30 1902 O 183.444 -4.00982 -0.963721 0
M  V30 1903 H 182.785 -0.657675 0.091429 0
M  V30 1904 H 185.315 -1.84397 0.886499 0
M  V30 1905 H 185.325 -4.07853 -0.109604 0
M  V30 1906 H 184 -4.02646 1.04157 0
M  V30 1907 H 182.577 -3.65253 -0.751312 0
M  V30 1908 N 184.763 -0.387143 -1.52771 0
M  V30 1909 C 185.991 0.195869 -2.05971 0
M  V30 1910 C 186.406 1.40691 -1.25903 0
M  V30 1911 O 185.763 1.79931 -0.305134 0
M  V30 1912 C 185.814 0.56812 -3.57008 0
M  V30 1913 O 185.535 -0.594803 -4.34043 0
M  V30 1914 C 187.036 1.20723 -4.26545 0
M  V30 1915 H 184.256 0.0300578 -0.670326 0
M  V30 1916 H 186.8 -0.551749 -1.96916 0
M  V30 1917 H 184.955 1.26564 -3.66143 0
M  V30 1918 H 185.369 -0.289322 -5.23701 0
M  V30 1919 H 186.843 1.41807 -5.33474 0
M  V30 1920 H 187.32 2.17395 -3.81623 0
M  V30 1921 H 187.926 0.550535 -4.21722 0
M  V30 1922 N 186.241 1.57166 -0.116904 0
M  V30 1923 C 187.188 2.15202 0.83408 0
M  V30 1924 C 188.158 1.07644 1.26499 0
M  V30 1925 O 189.343 1.35541 1.34288 0
M  V30 1926 C 186.483 2.75405 2.07957 0
M  V30 1927 C 185.596 3.97264 1.69721 0
M  V30 1928 C 184.731 4.45561 2.89221 0
M  V30 1929 C 183.77 5.59956 2.47215 0
M  V30 1930 N 182.907 6.03006 3.59622 0
M  V30 1931 H 187.747 2.96141 0.332335 0
M  V30 1932 H 185.284 1.46309 0.152349 0
M  V30 1933 H 187.242 3.08439 2.80929 0
M  V30 1934 H 185.872 1.97159 2.55594 0
M  V30 1935 H 184.924 3.70404 0.866316 0
M  V30 1936 H 186.236 4.80226 1.34849 0
M  V30 1937 H 185.39 4.80493 3.7042 0
M  V30 1938 H 184.129 3.61544 3.27318 0
M  V30 1939 H 183.134 5.2463 1.64448 0
M  V30 1940 H 184.359 6.45738 2.10238 0
M  V30 1941 H 182.305 5.21931 3.97396 0
M  V30 1942 H 182.222 6.80819 3.28667 0
M  V30 1943 H 183.49 6.42576 4.41267 0
M  V30 1944 N 187.719 -0.156864 1.56817 0
M  V30 1945 C 188.967 -0.869404 1.82444 0
M  V30 1946 C 189.288 -1.82147 0.69623 0
M  V30 1947 O 188.558 -1.93847 -0.28287 0
M  V30 1948 H 187.138 -0.324043 0.673056 0
M  V30 1949 H 189.8 -0.153224 1.94297 0
M  V30 1950 H 188.896 -1.43761 2.77019 0
M  V30 1951 N 189.197 -1.51736 -0.425897 0
M  V30 1952 C 190.608 -1.5732 -1.00536 0
M  V30 1953 C 190.959 -0.403537 -1.92005 0
M  V30 1954 O 190.084 0.478256 -2.11049 0
M  V30 1955 C 190.679 -2.85119 -1.8301 0
M  V30 1956 C 189.238 -2.93236 -2.35987 0
M  V30 1957 C 188.385 -2.52098 -1.15508 0
M  V30 1958 H 191.336 -1.57348 -0.206739 0
M  V30 1959 H 191.357 -2.69526 -2.68581 0
M  V30 1960 H 190.869 -3.7023 -1.16411 0
M  V30 1961 H 188.97 -2.12581 -3.06007 0
M  V30 1962 H 189.083 -3.9713 -2.68001 0
M  V30 1963 H 187.447 -2.05558 -1.50393 0
M  V30 1964 H 188.23 -3.39565 -0.505014 0
M  V30 1965 N 190.675 0.682077 -1.42076 0
M  V30 1966 C 191.9 1.47558 -1.45744 0
M  V30 1967 C 192.325 1.87977 -0.0680981 0
M  V30 1968 O 191.683 1.55522 0.9318 0
M  V30 1969 C 191.731 2.70575 -2.38373 0
M  V30 1970 O 190.835 3.68573 -1.85007 0
M  V30 1971 H 190.176 0.443585 -0.494093 0
M  V30 1972 H 192.706 0.837238 -1.86686 0
M  V30 1973 H 192.716 3.18729 -2.54707 0
M  V30 1974 H 191.391 2.40495 -3.39315 0
M  V30 1975 H 189.968 3.2757 -1.78192 0
M  V30 1976 N 192.153 1.28127 0.917671 0
M  V30 1977 C 193.399 1.15223 1.66888 0
M  V30 1978 C 193.732 -0.299293 1.9188 0
M  V30 1979 O 193.007 -1.21805 1.51637 0
M  V30 1980 C 193.29 1.94706 3.02922 0
M  V30 1981 C 193.143 3.47898 2.85109 0
M  V30 1982 C 194.462 1.75939 4.03402 0
M  V30 1983 H 191.581 0.419946 0.605652 0
M  V30 1984 H 194.223 1.57398 1.06423 0
M  V30 1985 H 192.373 1.58864 3.54534 0
M  V30 1986 H 194.045 3.93624 2.40537 0
M  V30 1987 H 192.288 3.7373 2.20246 0
M  V30 1988 H 192.959 3.98765 3.81694 0
M  V30 1989 H 195.435 2.07209 3.60837 0
M  V30 1990 H 194.311 2.33931 4.96556 0
M  V30 1991 H 194.572 0.709877 4.36364 0
M  V30 1992 N 193.631 -1.12557 1.10312 0
M  V30 1993 C 194.878 -1.84038 0.844759 0
M  V30 1994 C 195.206 -1.84026 -0.629668 0
M  V30 1995 O 194.461 -1.28026 -1.48013 0
M  V30 1996 C 194.76 -3.31462 1.33669 0
M  V30 1997 C 194.426 -3.51647 2.82232 0
M  V30 1998 C 193.088 -3.56864 3.22802 0
M  V30 1999 C 195.44 -3.58867 3.77974 0
M  V30 2000 C 192.768 -3.66844 4.57867 0
M  V30 2001 C 195.12 -3.70375 5.1284 0
M  V30 2002 C 193.784 -3.73848 5.52986 0
M  V30 2003 H 193.054 -0.673444 0.309119 0
M  V30 2004 H 195.701 -1.32824 1.37949 0
M  V30 2005 H 194.006 -3.85091 0.721949 0
M  V30 2006 H 195.703 -3.85236 1.11329 0
M  V30 2007 H 192.293 -3.48249 2.49842 0
M  V30 2008 H 196.477 -3.54107 3.47738 0
M  V30 2009 H 191.733 -3.67804 4.88396 0
M  V30 2010 H 195.907 -3.74904 5.86873 0
M  V30 2011 H 193.534 -3.81333 6.57639 0
M  V30 2012 N 195.109 -0.891671 -1.2995 0
M  V30 2013 C 196.52 -0.563104 -1.78006 0
M  V30 2014 C 196.871 0.920978 -1.73241 0
M  V30 2015 O 195.996 1.71987 -1.31337 0
M  V30 2016 C 196.591 -1.01539 -3.23226 0
M  V30 2017 C 195.15 -0.738124 -3.69092 0
M  V30 2018 C 194.297 -1.19461 -2.50249 0
M  V30 2019 H 197.248 -1.07522 -1.16725 0
M  V30 2020 H 197.269 -0.347217 -3.78912 0
M  V30 2021 H 196.781 -2.09555 -3.26662 0
M  V30 2022 H 194.882 0.329766 -3.71138 0
M  V30 2023 H 194.995 -1.33037 -4.60259 0
M  V30 2024 H 193.359 -0.613787 -2.47194 0
M  V30 2025 H 194.142 -2.28265 -2.56417 0
M  V30 2026 N 196.587 1.43421 -0.653314 0
M  V30 2027 C 197.517 2.33487 0.0246656 0
M  V30 2028 C 198.498 1.49475 0.811863 0
M  V30 2029 O 199.683 1.78139 0.773322 0
M  V30 2030 C 196.813 3.32841 0.99166 0
M  V30 2031 C 195.767 4.26842 0.314568 0
M  V30 2032 C 195.093 5.16236 1.39302 0
M  V30 2033 C 196.393 5.16243 -0.793095 0
M  V30 2034 H 198.087 2.90427 -0.727481 0
M  V30 2035 H 195.633 1.39649 -0.351287 0
M  V30 2036 H 197.586 3.94747 1.47487 0
M  V30 2037 H 196.31 2.74158 1.77497 0
M  V30 2038 H 194.969 3.663 -0.148199 0
M  V30 2039 H 194.617 4.53891 2.16776 0
M  V30 2040 H 194.317 5.79948 0.945223 0
M  V30 2041 H 195.841 5.81015 1.87759 0
M  V30 2042 H 197.255 5.71958 -0.392039 0
M  V30 2043 H 195.652 5.88676 -1.16536 0
M  V30 2044 H 196.722 4.55927 -1.65103 0
M  V30 2045 N 198.065 0.39524 1.52563 0
M  V30 2046 C 199.028 -0.425001 2.25225 0
M  V30 2047 C 200.028 -0.985266 1.27079 0
M  V30 2048 O 201.218 -0.866332 1.5113 0
M  V30 2049 C 198.35 -1.59686 3.01186 0
M  V30 2050 H 199.543 0.211233 2.99155 0
M  V30 2051 H 197.096 0.147472 1.55603 0
M  V30 2052 H 197.831 -2.27035 2.31572 0
M  V30 2053 H 197.616 -1.20176 3.73229 0
M  V30 2054 H 199.106 -2.17743 3.5634 0
M  V30 2055 N 199.544 -1.57102 0.125237 0
M  V30 2056 C 200.955 -1.82384 -0.399142 0
M  V30 2057 C 201.306 -1.04276 -1.66195 0
M  V30 2058 O 200.431 -0.281269 -2.14564 0
M  V30 2059 C 201.026 -3.30821 -0.730932 0
M  V30 2060 C 199.585 -3.56762 -1.19992 0
M  V30 2061 C 198.732 -2.7649 -0.211792 0
M  V30 2062 H 201.683 -1.54786 0.350277 0
M  V30 2063 H 201.704 -3.4579 -1.58775 0
M  V30 2064 H 201.216 -3.87643 0.188345 0
M  V30 2065 H 199.317 -3.05305 -2.13588 0
M  V30 2066 H 199.43 -4.65317 -1.14093 0
M  V30 2067 H 197.794 -2.4489 -0.700085 0
M  V30 2068 H 198.577 -3.36073 0.700691 0
M  V30 2069 N 201.022 0.148545 -1.56898 0
M  V30 2070 C 202.247 0.880385 -1.87787 0
M  V30 2071 C 202.672 1.74018 -0.714093 0
M  V30 2072 O 202.03 1.78153 0.336343 0
M  V30 2073 C 202.078 1.71422 -3.17249 0
M  V30 2074 O 201.182 2.8183 -3.01074 0
M  V30 2075 H 200.523 0.245301 -0.617028 0
M  V30 2076 H 203.053 0.139826 -2.04122 0
M  V30 2077 H 203.063 2.10954 -3.49231 0
M  V30 2078 H 201.738 1.08284 -4.01556 0
M  V30 2079 H 200.315 2.45715 -2.80497 0
M  V30 2080 N 202.5 1.5196 0.417844 0
M  V30 2081 C 203.725 1.69717 1.1921 0
M  V30 2082 C 204.15 0.402148 1.83751 0
M  V30 2083 O 203.508 -0.639593 1.69643 0
M  V30 2084 C 203.556 2.82794 2.2374 0
M  V30 2085 O 202.66 2.47756 3.29683 0
M  V30 2086 H 202.001 0.565263 0.348387 0
M  V30 2087 H 204.531 1.98621 0.490985 0
M  V30 2088 H 204.541 3.07452 2.68212 0
M  V30 2089 H 203.216 3.76756 1.76146 0
M  V30 2090 H 201.793 2.33739 2.90552 0
M  V30 2091 N 203.978 -0.674533 1.42435 0
M  V30 2092 C 204.925 -1.78807 1.45934 0
M  V30 2093 C 205.895 -1.63157 0.311271 0
M  V30 2094 O 207.08 -1.83707 0.515383 0
M  V30 2095 C 204.22 -3.16839 1.36773 0
M  V30 2096 C 203.333 -3.43774 2.61617 0
M  V30 2097 C 202.468 -4.71536 2.44597 0
M  V30 2098 C 201.507 -4.91505 3.64814 0
M  V30 2099 N 200.644 -6.10508 3.46734 0
M  V30 2100 H 205.484 -1.75151 2.41093 0
M  V30 2101 H 203.021 -0.85504 1.19697 0
M  V30 2102 H 204.979 -3.96606 1.29459 0
M  V30 2103 H 203.609 -3.19619 0.452089 0
M  V30 2104 H 202.661 -2.58259 2.79297 0
M  V30 2105 H 203.973 -3.54423 3.50978 0
M  V30 2106 H 203.127 -5.59393 2.3487 0
M  V30 2107 H 201.866 -4.6317 1.52726 0
M  V30 2108 H 200.871 -4.0209 3.74972 0
M  V30 2109 H 202.096 -5.01716 4.57665 0
M  V30 2110 H 200.042 -6.03315 2.5758 0
M  V30 2111 H 199.959 -6.2202 4.29682 0
M  V30 2112 H 201.227 -7.01044 3.40819 0
M  V30 2113 N 205.456 -1.28612 -0.910864 0
M  V30 2114 C 206.681 -1.1891 -1.69927 0
M  V30 2115 C 207.106 0.248372 -1.86453 0
M  V30 2116 O 206.464 1.17961 -1.37676 0
M  V30 2117 C 206.512 -1.89578 -3.06745 0
M  V30 2118 O 205.616 -1.20521 -3.94396 0
M  V30 2119 H 204.957 -0.412632 -0.520222 0
M  V30 2120 H 207.487 -1.69985 -1.1387 0
M  V30 2121 H 207.497 -1.97597 -3.56958 0
M  V30 2122 H 206.172 -2.94136 -2.94035 0
M  V30 2123 H 204.749 -1.20684 -3.52831 0
M  V30 2124 N 206.934 1.1197 -1.10907 0
M  V30 2125 C 208.162 1.87402 -0.876824 0
M  V30 2126 C 208.577 1.79894 0.573025 0
M  V30 2127 O 207.934 1.17629 1.39534 0
M  V30 2128 C 207.985 3.36428 -1.32282 0
M  V30 2129 O 207.706 3.43765 -2.71582 0
M  V30 2130 C 209.207 4.28783 -1.12518 0
M  V30 2131 H 206.427 0.592793 -0.314384 0
M  V30 2132 H 208.971 1.41649 -1.47499 0
M  V30 2133 H 207.126 3.79706 -0.768229 0
M  V30 2134 H 207.54 4.3652 -2.90776 0
M  V30 2135 H 209.014 5.31613 -1.48633 0
M  V30 2136 H 209.491 4.39153 -0.0642394 0
M  V30 2137 H 210.097 3.91291 -1.66648 0
M  V30 2138 N 208.412 0.89855 1.29475 0
M  V30 2139 C 209.637 0.538561 2.00285 0
M  V30 2140 C 210.062 -0.869135 1.66816 0
M  V30 2141 O 209.42 -1.57831 0.892145 0
M  V30 2142 C 209.468 0.736475 3.52999 0
M  V30 2143 O 208.572 -0.211537 4.11857 0
M  V30 2144 H 207.913 0.210563 0.62973 0
M  V30 2145 H 210.443 1.20982 1.64998 0
M  V30 2146 H 210.453 0.640685 4.02938 0
M  V30 2147 H 209.128 1.76276 3.76696 0
M  V30 2148 H 207.705 -0.0682991 3.72837 0
M  V30 2149 N 209.89 -1.43072 0.660911 0
M  V30 2150 C 211.138 -2.01323 0.177094 0
M  V30 2151 C 211.459 -1.5245 -1.2159 0
M  V30 2152 O 210.729 -0.740322 -1.81373 0
M  V30 2153 H 209.309 -0.744382 0.0624804 0
M  V30 2154 H 211.971 -1.75179 0.854305 0
M  V30 2155 H 211.067 -3.11649 0.167641 0
M  V30 2156 N 211.368 -0.403325 -1.52352 0
M  V30 2157 C 212.616 0.174003 -2.0135 0
M  V30 2158 C 212.937 1.46139 -1.29106 0
M  V30 2159 O 212.207 1.91448 -0.415253 0
M  V30 2160 H 210.787 0.0672911 -0.743963 0
M  V30 2161 H 213.449 -0.538235 -1.87321 0
M  V30 2162 H 212.545 0.374254 -3.09848 0
M  V30 2163 N 212.846 1.57033 -0.133567 0
M  V30 2164 C 214.074 2.00044 0.528195 0
M  V30 2165 C 214.489 1.01349 1.59291 0
M  V30 2166 O 213.846 0.00848369 1.82498 0
M  V30 2167 C 213.897 3.43018 1.1411 0
M  V30 2168 O 213.618 4.37939 0.11892 0
M  V30 2169 C 215.119 4.01237 1.88477 0
M  V30 2170 H 212.339 0.656517 0.138661 0
M  V30 2171 H 214.883 2.03267 -0.224196 0
M  V30 2172 H 213.038 3.40688 1.84418 0
M  V30 2173 H 213.452 5.21436 0.56613 0
M  V30 2174 H 214.926 5.03314 2.26669 0
M  V30 2175 H 215.403 3.41193 2.76558 0
M  V30 2176 H 216.009 4.07156 1.22898 0
M  V30 2177 N 214.325 -0.140222 1.56975 0
M  V30 2178 C 215.288 -1.15689 1.97861 0
M  V30 2179 C 216.288 -1.3549 0.865974 0
M  V30 2180 O 217.478 -1.32367 1.13246 0
M  V30 2181 C 214.61 -2.51582 2.30042 0
M  V30 2182 H 215.803 -0.805971 2.88867 0
M  V30 2183 H 213.356 -0.383801 1.51515 0
M  V30 2184 H 214.091 -2.91632 1.41849 0
M  V30 2185 H 213.876 -2.38569 3.11171 0
M  V30 2186 H 215.366 -3.24792 2.62488 0
M  V30 2187 N 215.803 -1.52179 -0.40978 0
M  V30 2188 C 216.766 -1.74853 -1.48186 0
M  V30 2189 C 217.766 -0.618417 -1.48433 0
M  V30 2190 O 218.956 -0.886286 -1.49969 0
M  V30 2191 C 216.088 -1.8303 -2.87598 0
M  V30 2192 H 217.281 -2.70559 -1.29374 0
M  V30 2193 H 214.834 -1.42586 -0.640233 0
M  V30 2194 H 215.569 -0.89236 -3.11781 0
M  V30 2195 H 215.354 -2.65187 -2.88822 0
M  V30 2196 H 216.844 -2.02316 -3.65319 0
M  V30 2197 N 217.281 0.66697 -1.42791 0
M  V30 2198 C 218.211 1.79218 -1.49677 0
M  V30 2199 C 219.192 1.66405 -0.352623 0
M  V30 2200 O 220.377 1.85708 -0.567993 0
M  V30 2201 C 217.507 3.17565 -1.40605 0
M  V30 2202 C 216.461 3.45124 -2.53127 0
M  V30 2203 C 215.787 4.83127 -2.29112 0
M  V30 2204 C 217.087 3.41236 -3.95418 0
M  V30 2205 H 218.781 1.73713 -2.43853 0
M  V30 2206 H 216.327 0.83432 -1.17367 0
M  V30 2207 H 218.28 3.96022 -1.44029 0
M  V30 2208 H 217.004 3.23767 -0.429271 0
M  V30 2209 H 215.663 2.69031 -2.49034 0
M  V30 2210 H 215.311 4.85988 -1.29709 0
M  V30 2211 H 215.011 5.02528 -3.04531 0
M  V30 2212 H 216.535 5.63859 -2.34297 0
M  V30 2213 H 217.949 4.09651 -4.01073 0
M  V30 2214 H 216.346 3.72173 -4.70752 0
M  V30 2215 H 217.416 2.39665 -4.21532 0
M  V30 2216 N 218.759 1.29093 0.90403 0
M  V30 2217 C 220.007 1.16583 1.65085 0
M  V30 2218 C 220.328 -0.283933 1.92922 0
M  V30 2219 O 219.598 -1.19509 1.55224 0
M  V30 2220 H 218.178 0.428467 0.611903 0
M  V30 2221 H 220.84 1.61959 1.08422 0
M  V30 2222 H 219.936 1.71266 2.6091 0
M  V30 2223 N 220.237 -1.11381 1.11499 0
M  V30 2224 C 221.477 -1.84763 0.874188 0
M  V30 2225 C 221.841 -1.82726 -0.589496 0
M  V30 2226 O 223.042 -2.51562 -0.947089 0
M  V30 2227 C 221.313 -3.27931 1.42112 0
M  V30 2228 S 222.872 -4.18557 1.31739 0
M  V30 2229 H 219.69 -0.637115 0.315603 0
M  V30 2230 H 222.292 -1.34097 1.42261 0
M  V30 2231 H 220.996 -3.26978 2.48019 0
M  V30 2232 H 220.527 -3.83665 0.869761 0
M  V30 2233 H 222.542 -4.95396 0.282335 0
M  V30 2234 N 221.715 -0.905404 -1.28997 0
M  V30 2235 C 222.645 -0.404212 -2.29975 0
M  V30 2236 C 223.626 0.523784 -1.61835 0
M  V30 2237 O 224.811 0.433298 -1.89304 0
M  V30 2238 C 221.941 0.364042 -3.45387 0
M  V30 2239 C 220.895 -0.474048 -4.25367 0
M  V30 2240 C 220.221 0.422045 -5.33032 0
M  V30 2241 C 221.521 -1.72696 -4.92923 0
M  V30 2242 H 223.215 -1.24807 -2.72146 0
M  V30 2243 H 220.761 -0.601585 -1.30832 0
M  V30 2244 H 222.714 0.725447 -4.15109 0
M  V30 2245 H 221.438 1.24174 -3.02074 0
M  V30 2246 H 220.097 -0.81786 -3.57361 0
M  V30 2247 H 219.745 1.29804 -4.85963 0
M  V30 2248 H 219.445 -0.135057 -5.87445 0
M  V30 2249 H 220.969 0.779517 -6.05604 0
M  V30 2250 H 222.383 -1.43495 -5.55051 0
M  V30 2251 H 220.78 -2.22582 -5.57295 0
M  V30 2252 H 221.85 -2.45964 -4.17887 0
M  V30 2253 N 223.193 1.4272 -0.668489 0
M  V30 2254 C 224.439 2.01923 -0.188419 0
M  V30 2255 C 224.772 1.52704 1.19979 0
M  V30 2256 O 224.047 0.726566 1.8042 0
M  V30 2257 C 224.33 3.59451 -0.216085 0
M  V30 2258 C 224.183 4.18864 -1.6393 0
M  V30 2259 C 225.502 4.37903 0.439179 0
M  V30 2260 H 222.621 0.733674 -0.0699412 0
M  V30 2261 H 225.263 1.69822 -0.852076 0
M  V30 2262 H 223.413 3.86929 0.349012 0
M  V30 2263 H 225.085 4.02362 -2.25616 0
M  V30 2264 H 223.328 3.74933 -2.18193 0
M  V30 2265 H 223.999 5.27987 -1.61039 0
M  V30 2266 H 226.475 4.16079 -0.0417878 0
M  V30 2267 H 225.351 5.47519 0.389157 0
M  V30 2268 H 225.612 4.15303 1.51577 0
M  V30 2269 N 224.671 0.411399 1.52136 0
M  V30 2270 C 225.618 -0.412975 2.27075 0
M  V30 2271 C 226.588 -1.03912 1.29582 0
M  V30 2272 O 227.773 -1.06296 1.58448 0
M  V30 2273 C 224.913 -1.52247 3.09701 0
M  V30 2274 C 224.026 -0.917021 4.22155 0
M  V30 2275 C 223.161 -1.9994 4.92135 0
M  V30 2276 C 222.2 -1.37101 5.96548 0
M  V30 2277 N 221.337 -2.39364 6.60038 0
M  V30 2278 H 226.177 0.232499 2.97092 0
M  V30 2279 H 223.714 0.126496 1.46555 0
M  V30 2280 H 225.672 -2.17674 3.55913 0
M  V30 2281 H 224.302 -2.13794 2.41851 0
M  V30 2282 H 223.354 -0.151742 3.80097 0
M  V30 2283 H 224.666 -0.418006 4.97045 0
M  V30 2284 H 223.82 -2.73088 5.41763 0
M  V30 2285 H 222.559 -2.53208 4.16818 0
M  V30 2286 H 221.564 -0.624873 5.46237 0
M  V30 2287 H 222.789 -0.845998 6.7381 0
M  V30 2288 H 220.735 -2.91759 5.87548 0
M  V30 2289 H 220.652 -1.9428 7.3061 0
M  V30 2290 H 221.92 -3.12074 7.14304 0
M  V30 2291 N 226.149 -1.5696 0.141893 0
M  V30 2292 C 227.426 -1.87553 -0.555281 0
M  V30 2293 C 227.806 -1.04699 -1.83306 0
M  V30 2294 O 227.154 -0.132346 -2.28116 0
M  V30 2295 C 227.364 -3.39093 -0.825664 0
M  V30 2296 C 228.712 -4.08199 -1.16869 0
M  V30 2297 O 229.736 -3.44242 -0.915185 0
M  V30 2298 O 228.595 -5.21139 -1.6455 0
M  V30 2299 H 225.689 -0.777188 -0.282679 0
M  V30 2300 H 228.235 -1.68763 0.17812 0
M  V30 2301 H 227.007 -3.91221 0.0788633 0
M  V30 2302 H 226.63 -3.63393 -1.61343 0
M  V30 2303 N 227.627 0.131896 -1.57047 0
M  V30 2304 C 228.857 0.855219 -1.88068 0
M  V30 2305 C 229.265 1.74557 -0.729817 0
M  V30 2306 O 228.608 1.81083 0.308962 0
M  V30 2307 C 228.67 1.75119 -3.13964 0
M  V30 2308 C 228.334 1.03646 -4.45091 0
M  V30 2309 C 229.331 0.383276 -5.18485 0
M  V30 2310 C 227.016 1.02148 -4.91804 0
M  V30 2311 C 229.01 -0.275347 -6.36805 0
M  V30 2312 C 226.697 0.359047 -6.10044 0
M  V30 2313 C 227.695 -0.288222 -6.82392 0
M  V30 2314 O 227.383 -0.94011 -7.98384 0
M  V30 2315 H 227.115 0.251864 -0.627328 0
M  V30 2316 H 229.669 0.124782 -2.05021 0
M  V30 2317 H 227.899 2.52295 -2.9306 0
M  V30 2318 H 229.588 2.3478 -3.31109 0
M  V30 2319 H 230.354 0.386562 -4.83457 0
M  V30 2320 H 226.233 1.5147 -4.35405 0
M  V30 2321 H 229.777 -0.781148 -6.93213 0
M  V30 2322 H 225.674 0.35348 -6.44531 0
M  V30 2323 H 226.442 -0.84329 -8.14144 0
M  V30 2324 N 229.106 1.52395 0.401703 0
M  V30 2325 C 230.353 1.66817 1.14796 0
M  V30 2326 C 230.681 0.401772 1.90305 0
M  V30 2327 O 229.936 -0.615487 1.85769 0
M  V30 2328 C 230.235 2.84578 2.16217 0
M  V30 2329 C 229.901 4.22513 1.5746 0
M  V30 2330 C 228.563 4.60029 1.41161 0
M  V30 2331 C 230.915 5.0844 1.14622 0
M  V30 2332 C 228.243 5.81144 0.80552 0
M  V30 2333 C 230.595 6.30167 0.55428 0
M  V30 2334 C 229.259 6.66426 0.378482 0
M  V30 2335 H 228.529 0.610428 0.420069 0
M  V30 2336 H 231.176 1.86512 0.434212 0
M  V30 2337 H 229.481 2.59248 2.93764 0
M  V30 2338 H 231.178 2.92933 2.73845 0
M  V30 2339 H 227.768 3.92953 1.71132 0
M  V30 2340 H 231.952 4.80034 1.26021 0
M  V30 2341 H 227.208 6.07855 0.657399 0
M  V30 2342 H 231.382 6.96071 0.213983 0
M  V30 2343 H 229.009 7.60143 -0.0932606 0
M  V30 2344 N 230.584 -0.659388 1.43143 0
M  V30 2345 C 231.995 -1.24041 1.39537 0
M  V30 2346 C 232.346 -1.95963 0.0963364 0
M  V30 2347 O 231.471 -2.00892 -0.804438 0
M  V30 2348 C 232.066 -2.25601 2.52764 0
M  V30 2349 C 230.625 -2.79195 2.52443 0
M  V30 2350 C 229.772 -1.53743 2.30778 0
M  V30 2351 H 232.723 -0.451792 1.52133 0
M  V30 2352 H 232.744 -3.07651 2.23899 0
M  V30 2353 H 232.256 -1.73226 3.47296 0
M  V30 2354 H 230.357 -3.35649 1.61773 0
M  V30 2355 H 230.47 -3.2716 3.50004 0
M  V30 2356 H 228.834 -1.80869 1.79328 0
M  V30 2357 H 229.617 -1.03312 3.27386 0
M  V30 2358 N 232.062 -1.29571 -0.897171 0
M  V30 2359 C 232.972 -1.16808 -2.03453 0
M  V30 2360 C 233.988 -0.0907471 -1.73763 0
M  V30 2361 O 235.164 -0.303312 -1.99103 0
M  V30 2362 C 232.229 -0.848264 -3.36163 0
M  V30 2363 C 231.29 -2.0097 -3.79354 0
M  V30 2364 C 230.523 -1.70505 -5.05731 0
M  V30 2365 O 230.746 -0.62718 -5.66941 0
M  V30 2366 O 229.68 -2.5538 -5.45036 0
M  V30 2367 H 233.506 -2.12325 -2.17144 0
M  V30 2368 H 231.091 -1.09047 -1.02123 0
M  V30 2369 H 232.973 -0.684581 -4.15802 0
M  V30 2370 H 231.648 0.0771071 -3.23608 0
M  V30 2371 H 230.555 -2.22863 -3.00471 0
M  V30 2372 H 231.888 -2.91636 -3.96496 0
M  V30 2373 N 233.54 1.10788 -1.12088 0
M  V30 2374 C 234.951 1.64181 -0.88891 0
M  V30 2375 C 235.302 1.87508 0.577498 0
M  V30 2376 O 234.427 1.61434 1.44112 0
M  V30 2377 C 235.022 2.98257 -1.60712 0
M  V30 2378 C 233.581 3.4853 -1.42139 0
M  V30 2379 C 232.728 2.23208 -1.6454 0
M  V30 2380 H 235.679 0.943368 -1.27618 0
M  V30 2381 H 235.7 3.65552 -1.05604 0
M  V30 2382 H 235.212 2.81246 -2.67436 0
M  V30 2383 H 233.313 3.70692 -0.376552 0
M  V30 2384 H 233.426 4.26882 -2.17505 0
M  V30 2385 H 231.79 2.31169 -1.06925 0
M  V30 2386 H 232.573 2.08733 -2.72554 0
M  V30 2387 N 235.018 0.912232 1.28515 0
M  V30 2388 C 236.264 0.545405 1.95328 0
M  V30 2389 C 236.597 -0.908313 1.71649 0
M  V30 2390 O 235.872 -1.64575 1.03659 0
M  V30 2391 C 236.155 0.853483 3.4984 0
M  V30 2392 C 236.008 2.35982 3.82926 0
M  V30 2393 C 237.327 0.348589 4.38717 0
M  V30 2394 H 234.446 0.199626 0.709449 0
M  V30 2395 H 237.088 1.1412 1.5191 0
M  V30 2396 H 235.238 0.34643 3.86952 0
M  V30 2397 H 236.91 2.93738 3.55691 0
M  V30 2398 H 235.153 2.81543 3.30024 0
M  V30 2399 H 235.824 2.52593 4.90816 0
M  V30 2400 H 238.3 0.78294 4.08668 0
M  V30 2401 H 237.176 0.593242 5.45685 0
M  V30 2402 H 237.437 -0.751049 4.35674 0
M  V30 2403 N 236.496 -1.42363 0.676048 0
M  V30 2404 C 237.724 -2.05859 0.207268 0
M  V30 2405 C 238.139 -1.50796 -1.13605 0
M  V30 2406 O 237.496 -0.648265 -1.70598 0
M  V30 2407 C 237.547 -3.61248 0.134975 0
M  V30 2408 O 237.268 -4.1427 1.42521 0
M  V30 2409 C 238.769 -4.41859 -0.357151 0
M  V30 2410 H 235.989 -0.663431 0.100503 0
M  V30 2411 H 238.533 -1.82479 0.923136 0
M  V30 2412 H 236.688 -3.83735 -0.531588 0
M  V30 2413 H 237.102 -5.0815 1.29939 0
M  V30 2414 H 238.576 -5.50847 -0.356641 0
M  V30 2415 H 239.053 -4.16536 -1.39264 0
M  V30 2416 H 239.659 -4.24392 0.27772 0
M  V30 2417 N 237.974 -0.419461 -1.51915 0
M  V30 2418 C 239.22 0.153166 -2.02221 0
M  V30 2419 C 239.553 1.43907 -1.30401 0
M  V30 2420 O 238.828 1.90055 -0.413438 0
M  V30 2421 C 239.111 0.390291 -3.57979 0
M  V30 2422 C 238.964 -0.913014 -4.40436 0
M  V30 2423 C 240.283 1.16794 -4.2432 0
M  V30 2424 H 237.402 0.0541924 -0.735005 0
M  V30 2425 H 240.044 -0.554955 -1.81715 0
M  V30 2426 H 238.194 0.993491 -3.75582 0
M  V30 2427 H 239.866 -1.54882 -4.34522 0
M  V30 2428 H 238.109 -1.52168 -4.06236 0
M  V30 2429 H 238.78 -0.701361 -5.47526 0
M  V30 2430 H 241.256 0.657161 -4.10878 0
M  V30 2431 H 240.132 1.3026 -5.3322 0
M  V30 2432 H 240.393 2.19132 -3.83971 0
M  V30 2433 N 239.452 1.56882 -0.150215 0
M  V30 2434 C 240.677 2.01027 0.510184 0
M  V30 2435 C 241.102 1.02966 1.57415 0
M  V30 2436 O 240.46 0.00590158 1.81299 0
M  V30 2437 C 240.508 3.43899 1.08472 0
M  V30 2438 O 239.612 3.4885 2.19948 0
M  V30 2439 H 238.953 0.652233 0.124451 0
M  V30 2440 H 241.483 2.03093 -0.247894 0
M  V30 2441 H 241.493 3.82766 1.41259 0
M  V30 2442 H 240.168 4.14776 0.305582 0
M  V30 2443 H 238.745 3.21827 1.88366 0
M  V30 2444 N 240.93 -0.123565 1.57115 0
M  V30 2445 C 242.176 -0.828428 1.85765 0
M  V30 2446 C 242.531 -1.77709 0.737371 0
M  V30 2447 O 241.824 -1.89787 -0.262978 0
M  V30 2448 C 242.018 -1.62016 3.18568 0
M  V30 2449 C 241.847 -0.749663 4.43407 0
M  V30 2450 C 240.617 -0.406251 5.03664 0
M  V30 2451 C 242.815 -0.0693505 5.14253 0
M  V30 2452 N 240.797 0.475389 6.12057 0
M  V30 2453 C 242.168 0.671474 6.16353 0
M  V30 2454 C 244.223 0.00754393 4.97899 0
M  V30 2455 C 242.926 1.48197 7.03868 0
M  V30 2456 C 244.952 0.804845 5.85898 0
M  V30 2457 C 244.314 1.53388 6.87497 0
M  V30 2458 H 240.413 -0.280219 0.73007 0
M  V30 2459 H 242.997 -0.0924183 1.94481 0
M  V30 2460 H 241.168 -2.32724 3.10957 0
M  V30 2461 H 242.9 -2.27 3.35042 0
M  V30 2462 H 239.655 -0.747446 4.67665 0
M  V30 2463 H 240.079 0.907924 6.70884 0
M  V30 2464 H 244.721 -0.541741 4.19315 0
M  V30 2465 H 242.439 2.04242 7.81864 0
M  V30 2466 H 246.025 0.866642 5.75309 0
M  V30 2467 H 244.905 2.1409 7.5441 0
M  V30 2468 N 242.408 -1.52605 -0.393616 0
M  V30 2469 C 243.356 -1.77688 -1.50099 0
M  V30 2470 C 244.35 -0.644615 -1.56656 0
M  V30 2471 O 245.556 -0.826997 -1.59877 0
M  V30 2472 H 241.931 -0.562159 -0.499481 0
M  V30 2473 H 243.902 -2.7043 -1.26135 0
M  V30 2474 C 242.651 -1.95858 -2.87289 0
M  V30 2475 H 241.974 -2.8241 -2.82992 0
M  V30 2476 H 243.414 -2.174 -3.64024 0
M  V30 2477 C 241.873 -0.729848 -3.28899 0
M  V30 2478 O 242.403 0.0949217 -4.01588 0
M  V30 2479 N 240.609 -0.561283 -2.85128 0
M  V30 2480 H 240.156 -1.23357 -2.26143 0
M  V30 2481 H 240.114 0.2595 -3.13327 0
M  V30 2482 N 243.887 0.651787 -1.4349 0
M  V30 2483 C 245.112 1.44434 -1.48841 0
M  V30 2484 C 245.537 1.8779 -0.107955 0
M  V30 2485 O 244.895 1.57464 0.898602 0
M  V30 2486 C 244.943 2.65458 -2.44059 0
M  V30 2487 O 244.047 3.64566 -1.92784 0
M  V30 2488 H 243.388 0.433005 -0.503391 0
M  V30 2489 H 245.918 0.797451 -1.88419 0
M  V30 2490 H 245.928 3.13255 -2.6141 0
M  V30 2491 H 244.603 2.33244 -3.4434 0
M  V30 2492 H 243.18 3.23716 -1.851 0
M  V30 2493 N 245.365 1.30045 0.890287 0
M  V30 2494 C 246.613 1.18327 1.63839 0
M  V30 2495 C 246.934 -0.263455 1.93212 0
M  V30 2496 O 246.204 -1.17856 1.56482 0
M  V30 2497 H 244.784 0.434933 0.607324 0
M  V30 2498 H 247.446 1.631 1.06698 0
M  V30 2499 H 246.542 1.74024 2.59079 0
M  V30 2500 N 246.843 -1.10192 1.12674 0
M  V30 2501 C 247.806 -2.14786 0.799979 0
M  V30 2502 C 248.806 -1.59711 -0.18685 0
M  V30 2503 O 249.996 -1.74156 0.0392558 0
M  V30 2504 C 247.128 -3.40374 0.189228 0
M  V30 2505 H 248.321 -2.45203 1.72671 0
M  V30 2506 H 245.874 -1.25597 0.930326 0
M  V30 2507 H 246.609 -3.15577 -0.747107 0
M  V30 2508 H 246.394 -3.81637 0.899766 0
M  V30 2509 H 247.884 -4.17594 -0.0228143 0
M  V30 2510 N 248.321 -0.919034 -1.28029 0
M  V30 2511 C 249.251 -0.428581 -2.29533 0
M  V30 2512 C 250.232 0.50659 -1.62381 0
M  V30 2513 O 251.417 0.413195 -1.89753 0
M  V30 2514 C 248.547 0.327388 -3.45753 0
M  V30 2515 C 247.501 -0.519137 -4.2484 0
M  V30 2516 C 246.827 0.365486 -5.33449 0
M  V30 2517 C 248.127 -1.77914 -4.91064 0
M  V30 2518 H 249.821 -1.27687 -2.70807 0
M  V30 2519 H 247.367 -0.615428 -1.30186 0
M  V30 2520 H 249.32 0.681378 -4.15855 0
M  V30 2521 H 248.044 1.20963 -3.03374 0
M  V30 2522 H 246.703 -0.855717 -3.56473 0
M  V30 2523 H 246.351 1.24642 -4.87312 0
M  V30 2524 H 246.051 -0.197356 -5.87268 0
M  V30 2525 H 247.575 0.715241 -6.06396 0
M  V30 2526 H 248.989 -1.49374 -5.53498 0
M  V30 2527 H 247.386 -2.2848 -5.54903 0
M  V30 2528 H 248.456 -2.50382 -4.15255 0
M  V30 2529 N 249.799 1.42003 -0.683588 0
M  V30 2530 C 251.027 2.05746 -0.218182 0
M  V30 2531 C 251.442 1.51396 1.12804 0
M  V30 2532 O 250.799 0.657303 1.70252 0
M  V30 2533 C 250.85 3.61171 -0.154131 0
M  V30 2534 O 250.571 4.13508 -1.44716 0
M  V30 2535 C 252.072 4.42042 0.333713 0
M  V30 2536 H 249.292 0.662888 -0.10402 0
M  V30 2537 H 251.836 1.81987 -0.9328 0
M  V30 2538 H 249.991 3.84012 0.511231 0
M  V30 2539 H 250.405 5.07453 -1.32632 0
M  V30 2540 H 251.879 5.51028 0.327423 0
M  V30 2541 H 252.356 4.17269 1.37053 0
M  V30 2542 H 252.962 4.24239 -0.300222 0
M  V30 2543 N 251.277 0.427512 1.51691 0
M  V30 2544 C 252.502 -0.143601 2.06902 0
M  V30 2545 C 252.927 -1.36536 1.29382 0
M  V30 2546 O 252.285 -1.78289 0.329043 0
M  V30 2547 C 252.333 -0.454207 3.57728 0
M  V30 2548 O 251.437 -1.54228 3.82475 0
M  V30 2549 H 250.778 -0.00617128 0.663971 0
M  V30 2550 H 253.308 0.606014 1.95419 0
M  V30 2551 H 253.318 -0.707525 4.01818 0
M  V30 2552 H 251.993 0.438812 4.13579 0
M  V30 2553 H 250.57 -1.2797 3.50254 0
M  V30 2554 N 252.755 -1.56801 0.158532 0
M  V30 2555 C 254.003 -1.96102 -0.488712 0
M  V30 2556 C 254.324 -1.04498 -1.64636 0
M  V30 2557 O 253.594 -0.108783 -1.95598 0
M  V30 2558 H 252.174 -0.724102 -0.183535 0
M  V30 2559 H 254.836 -1.93457 0.236728 0
M  V30 2560 H 253.932 -3.00097 -0.857219 0
M  V30 2561 N 254.233 0.115231 -1.57178 0
M  V30 2562 C 255.479 0.82357 -1.85325 0
M  V30 2563 C 255.812 1.79349 -0.744814 0
M  V30 2564 O 255.087 1.92899 0.249024 0
M  V30 2565 C 255.37 1.57014 -3.24066 0
M  V30 2566 C 255.223 0.619565 -4.45513 0
M  V30 2567 C 256.542 2.52545 -3.60429 0
M  V30 2568 H 253.661 0.297948 -0.674089 0
M  V30 2569 H 256.303 0.0877138 -1.89797 0
M  V30 2570 H 254.453 2.19742 -3.20383 0
M  V30 2571 H 256.125 0.000837639 -4.613 0
M  V30 2572 H 254.368 -0.0686174 -4.33746 0
M  V30 2573 H 255.039 1.17866 -5.3927 0
M  V30 2574 H 257.515 1.9992 -3.64926 0
M  V30 2575 H 256.391 3.01811 -4.58477 0
M  V30 2576 H 256.652 3.35383 -2.88047 0
M  V30 2577 N 255.711 1.52812 0.385517 0
M  V30 2578 C 256.661 1.74219 1.47078 0
M  V30 2579 C 257.645 0.59632 1.49442 0
M  V30 2580 O 258.837 0.85428 1.5502 0
M  V30 2581 C 255.966 1.9176 2.84751 0
M  V30 2582 C 255.052 3.12289 2.86943 0
M  V30 2583 N 255.443 4.34575 2.58802 0
M  V30 2584 C 253.741 3.12605 3.1811 0
M  V30 2585 C 254.442 5.162 2.68166 0
M  V30 2586 N 253.418 4.51964 3.02043 0
M  V30 2587 H 257.22 2.6639 1.24152 0
M  V30 2588 H 254.734 1.51166 0.593504 0
M  V30 2589 H 256.731 2.05218 3.62893 0
M  V30 2590 H 255.391 1.00805 3.08656 0
M  V30 2591 H 256.402 4.62649 2.32759 0
M  V30 2592 H 253.079 2.31472 3.47458 0
M  V30 2593 H 254.469 6.23689 2.49923 0
M  V30 2594 N 257.189 -0.644168 1.43834 0
M  V30 2595 C 258.417 -1.43147 1.49387 0
M  V30 2596 C 258.832 -1.88452 0.114583 0
M  V30 2597 O 258.189 -1.60047 -0.876989 0
M  V30 2598 C 258.24 -2.66046 2.44748 0
M  V30 2599 O 257.961 -2.22633 3.77314 0
M  V30 2600 C 259.462 -3.59311 2.59635 0
M  V30 2601 H 256.682 -0.439447 0.507077 0
M  V30 2602 H 259.226 -0.78895 1.88669 0
M  V30 2603 H 257.381 -3.26418 2.08638 0
M  V30 2604 H 257.795 -3.02216 4.28679 0
M  V30 2605 H 259.269 -4.42187 3.30416 0
M  V30 2606 H 259.746 -4.07259 1.64427 0
M  V30 2607 H 260.352 -3.04816 2.96593 0
M  V30 2608 N 258.668 -1.30515 -0.883378 0
M  V30 2609 C 259.915 -1.1943 -1.63532 0
M  V30 2610 C 260.243 0.250627 -1.92878 0
M  V30 2611 O 259.498 1.19556 -1.54935 0
M  V30 2612 C 259.797 -1.96994 -2.98209 0
M  V30 2613 C 259.463 -3.466 -2.88408 0
M  V30 2614 C 258.125 -3.87397 -2.85442 0
M  V30 2615 C 260.477 -4.41863 -2.76418 0
M  V30 2616 C 257.805 -5.21745 -2.68327 0
M  V30 2617 C 260.157 -5.7632 -2.60841 0
M  V30 2618 C 258.821 -6.16354 -2.56251 0
M  V30 2619 H 258.091 -0.437025 -0.598406 0
M  V30 2620 H 260.738 -1.61635 -1.02696 0
M  V30 2621 H 259.043 -1.47429 -3.63004 0
M  V30 2622 H 260.74 -1.85808 -3.55354 0
M  V30 2623 H 257.33 -3.14182 -2.91527 0
M  V30 2624 H 261.514 -4.11285 -2.77775 0
M  V30 2625 H 256.77 -5.51853 -2.63189 0
M  V30 2626 H 260.944 -6.49772 -2.50538 0
M  V30 2627 H 258.571 -7.20401 -2.42748 0
M  V30 2628 N 260.146 1.09593 -1.13257 0
M  V30 2629 C 261.557 1.63229 -0.906274 0
M  V30 2630 C 261.908 1.8811 0.557578 0
M  V30 2631 O 261.033 1.62953 1.42391 0
M  V30 2632 C 261.628 2.96535 -1.63867 0
M  V30 2633 C 260.187 3.47003 -1.45828 0
M  V30 2634 C 259.334 2.2145 -1.66898 0
M  V30 2635 H 262.285 0.92978 -1.28611 0
M  V30 2636 H 262.306 3.64411 -1.09476 0
M  V30 2637 H 261.818 2.78394 -2.70404 0
M  V30 2638 H 259.919 3.70272 -0.415848 0
M  V30 2639 H 260.032 4.24551 -2.2202 0
M  V30 2640 H 258.396 2.30022 -1.09371 0
M  V30 2641 H 259.179 2.0583 -2.74752 0
M  V30 2642 N 261.624 0.925811 1.2754 0
M  V30 2643 C 262.587 0.428129 2.25166 0
M  V30 2644 C 263.587 -0.452261 1.54309 0
M  V30 2645 O 264.777 -0.253608 1.72344 0
M  V30 2646 C 261.909 -0.384749 3.38722 0
M  V30 2647 H 263.102 1.29066 2.70706 0
M  V30 2648 H 260.655 0.706323 1.3943 0
M  V30 2649 H 261.39 -1.26618 2.98561 0
M  V30 2650 H 261.175 0.246454 3.91325 0
M  V30 2651 H 262.665 -0.723389 4.11287 0
M  V30 2652 N 263.102 -1.41638 0.69111 0
M  V30 2653 C 264.348 -2.01598 0.220519 0
M  V30 2654 C 264.681 -1.54594 -1.17535 0
M  V30 2655 O 263.956 -0.755177 -1.79241 0
M  V30 2656 C 264.239 -3.59062 0.273243 0
M  V30 2657 C 264.092 -4.16203 1.70573 0
M  V30 2658 C 265.411 -4.38546 -0.369457 0
M  V30 2659 H 262.53 -0.732468 0.0816045 0
M  V30 2660 H 265.172 -1.68445 0.878986 0
M  V30 2661 H 263.322 -3.87435 -0.287411 0
M  V30 2662 H 264.994 -3.98722 2.31989 0
M  V30 2663 H 263.237 -3.71414 2.2413 0
M  V30 2664 H 263.908 -5.25358 1.69419 0
M  V30 2665 H 266.384 -4.1596 0.107977 0
M  V30 2666 H 265.26 -5.48069 -0.302002 0
M  V30 2667 H 265.521 -4.17662 -1.44951 0
M  V30 2668 N 264.58 -0.43555 -1.51462 0
M  V30 2669 C 265.51 0.367376 -2.30592 0
M  V30 2670 C 266.491 1.02263 -1.35928 0
M  V30 2671 O 267.676 1.02661 -1.64847 0
M  V30 2672 C 264.806 1.46983 -3.14664 0
M  V30 2673 C 263.76 0.938161 -4.17591 0
M  V30 2674 C 263.086 2.13622 -4.90173 0
M  V30 2675 C 264.386 -0.0261621 -5.22293 0
M  V30 2676 H 266.08 -0.292969 -2.97963 0
M  V30 2677 H 263.626 -0.14234 -1.43295 0
M  V30 2678 H 265.579 2.03873 -3.688 0
M  V30 2679 H 264.303 2.15843 -2.4511 0
M  V30 2680 H 262.962 0.391481 -3.64504 0
M  V30 2681 H 262.61 2.81098 -4.17124 0
M  V30 2682 H 262.31 1.78688 -5.59772 0
M  V30 2683 H 263.834 2.7107 -5.47132 0
M  V30 2684 H 265.248 0.452384 -5.71512 0
M  V30 2685 H 263.645 -0.287992 -5.99409 0
M  V30 2686 H 264.715 -0.963391 -4.75233 0
M  V30 2687 N 266.058 1.56714 -0.166846 0
M  V30 2688 C 266.99 2.14914 0.796537 0
M  V30 2689 C 268.003 1.10357 1.19688 0
M  V30 2690 O 269.192 1.37561 1.13751 0
M  V30 2691 C 266.292 2.67326 2.08303 0
M  V30 2692 C 265.465 3.96493 1.84696 0
M  V30 2693 C 264.524 4.34014 2.97521 0
M  V30 2694 O 263.55 5.01973 2.6835 0
M  V30 2695 N 264.752 3.95208 4.25196 0
M  V30 2696 H 267.517 2.98205 0.299006 0
M  V30 2697 H 265.078 1.61892 0.0160839 0
M  V30 2698 H 267.07 2.89428 2.82867 0
M  V30 2699 H 265.64 1.88649 2.4926 0
M  V30 2700 H 264.86 3.82814 0.940602 0
M  V30 2701 H 266.148 4.8086 1.66285 0
M  V30 2702 H 265.546 3.40487 4.51758 0
M  V30 2703 H 264.103 4.2232 4.96477 0
M  V30 2704 N 267.536 -0.106894 1.57237 0
M  V30 2705 C 268.761 -0.830287 1.90055 0
M  V30 2706 C 269.186 -1.72064 0.75998 0
M  V30 2707 O 268.544 -1.78982 -0.288991 0
M  V30 2708 C 268.592 -1.6295 3.21683 0
M  V30 2709 O 267.696 -2.73748 3.08441 0
M  V30 2710 H 267.037 -0.228855 0.623315 0
M  V30 2711 H 269.567 -0.085658 2.04421 0
M  V30 2712 H 269.577 -2.01621 3.54701 0
M  V30 2713 H 268.252 -0.975989 4.04286 0
M  V30 2714 H 266.829 -2.38192 2.86913 0
M  V30 2715 N 269.014 -1.53014 -0.377408 0
M  V30 2716 C 270.239 -1.72818 -1.14668 0
M  V30 2717 C 270.664 -0.450725 -1.8262 0
M  V30 2718 O 270.022 0.59439 -1.7128 0
M  V30 2719 C 270.07 -2.88627 -2.16164 0
M  V30 2720 O 269.174 -2.56409 -3.22998 0
M  V30 2721 H 268.515 -0.574301 -0.333278 0
M  V30 2722 H 271.045 -1.99853 -0.438152 0
M  V30 2723 H 271.055 -3.14455 -2.59966 0
M  V30 2724 H 269.73 -3.81294 -1.66095 0
M  V30 2725 H 268.307 -2.4136 -2.84253 0
M  V30 2726 N 270.492 0.636531 -1.44174 0
M  V30 2727 C 271.74 1.39343 -1.46383 0
M  V30 2728 C 272.061 1.94766 -0.0955715 0
M  V30 2729 O 271.331 1.75452 0.871395 0
M  V30 2730 H 269.911 0.517199 -0.538994 0
M  V30 2731 H 272.573 0.74957 -1.7991 0
M  V30 2732 H 271.669 2.22746 -2.18611 0
M  V30 2733 N 271.97 1.30982 0.876444 0
M  V30 2734 C 272.9 1.20668 1.99903 0
M  V30 2735 C 273.881 0.095354 1.69833 0
M  V30 2736 O 275.066 0.27885 1.92188 0
M  V30 2737 C 272.196 0.90655 3.3526 0
M  V30 2738 C 271.15 1.97675 3.79617 0
M  V30 2739 C 270.476 1.52943 5.1236 0
M  V30 2740 C 271.776 3.389 3.97422 0
M  V30 2741 H 273.47 2.14586 2.0879 0
M  V30 2742 H 271.016 1.03308 1.00317 0
M  V30 2743 H 272.969 0.821025 4.13324 0
M  V30 2744 H 271.693 -0.0682969 3.26529 0
M  V30 2745 H 270.352 2.05205 3.03787 0
M  V30 2746 H 270 0.54262 5.00065 0
M  V30 2747 H 269.7 2.24532 5.43009 0
M  V30 2748 H 271.224 1.45786 5.92941 0
M  V30 2749 H 272.638 3.34081 4.659 0
M  V30 2750 H 271.035 4.0865 4.3946 0
M  V30 2751 H 272.105 3.80163 3.01006 0
M  V30 2752 N 273.449 -1.08991 1.13837 0
M  V30 2753 C 274.679 -1.84743 0.924859 0
M  V30 2754 C 275.087 -1.81629 -0.529874 0
M  V30 2755 O 274.43 -1.21397 -1.37872 0
M  V30 2756 C 274.492 -3.33568 1.34061 0
M  V30 2757 C 274.156 -3.60425 2.80968 0
M  V30 2758 C 275.153 -3.55771 3.79108 0
M  V30 2759 C 272.838 -3.88627 3.18236 0
M  V30 2760 C 274.832 -3.78939 5.12527 0
M  V30 2761 C 272.519 -4.11449 4.51833 0
M  V30 2762 C 273.517 -4.06598 5.48787 0
M  V30 2763 O 273.205 -4.28826 6.79973 0
M  V30 2764 H 272.937 -0.590258 0.329502 0
M  V30 2765 H 275.491 -1.38598 1.51591 0
M  V30 2766 H 273.721 -3.80442 0.692853 0
M  V30 2767 H 275.41 -3.90743 1.09886 0
M  V30 2768 H 276.176 -3.34005 3.51661 0
M  V30 2769 H 272.055 -3.91526 2.43369 0
M  V30 2770 H 275.599 -3.75068 5.88192 0
M  V30 2771 H 271.496 -4.32698 4.79002 0
M  V30 2772 H 272.264 -4.46264 6.86142 0
M  V30 2773 N 274.927 -0.932562 -1.27047 0
M  V30 2774 C 276.152 -0.591474 -1.98787 0
M  V30 2775 C 276.577 0.824601 -1.69062 0
M  V30 2776 O 275.935 1.5541 -0.933677 0
M  V30 2777 C 275.983 -0.829808 -3.50922 0
M  V30 2778 O 275.087 0.102266 -4.12273 0
M  V30 2779 H 274.428 -0.227185 -0.623926 0
M  V30 2780 H 276.958 -1.25314 -1.61733 0
M  V30 2781 H 276.968 -0.747292 -4.01098 0
M  V30 2782 H 275.643 -1.86201 -3.7189 0
M  V30 2783 H 274.22 -0.0305761 -3.72887 0
M  V30 2784 N 276.405 1.4127 -0.698611 0
M  V30 2785 C 277.335 2.33447 -0.049629 0
M  V30 2786 C 278.316 1.51982 0.763898 0
M  V30 2787 O 279.501 1.80509 0.716257 0
M  V30 2788 C 276.631 3.35828 0.885267 0
M  V30 2789 C 275.585 4.27627 0.178613 0
M  V30 2790 C 274.911 5.20406 1.22807 0
M  V30 2791 C 276.211 5.13459 -0.956933 0
M  V30 2792 H 277.905 2.87966 -0.81951 0
M  V30 2793 H 275.451 1.38461 -0.395538 0
M  V30 2794 H 277.404 3.9924 1.34854 0
M  V30 2795 H 276.128 2.79666 1.68685 0
M  V30 2796 H 274.787 3.65643 -0.26466 0
M  V30 2797 H 274.435 4.60558 2.02226 0
M  V30 2798 H 274.135 5.82661 0.760239 0
M  V30 2799 H 275.659 5.86695 1.69179 0
M  V30 2800 H 277.073 5.70421 -0.573805 0
M  V30 2801 H 275.47 5.8467 -1.35205 0
M  V30 2802 H 276.54 4.50443 -1.79524 0
M  V30 2803 N 277.883 0.443576 1.51229 0
M  V30 2804 C 279.108 -0.121648 2.07043 0
M  V30 2805 C 279.533 -1.35156 1.30823 0
M  V30 2806 O 278.891 -1.7793 0.347934 0
M  V30 2807 C 278.939 -0.41624 3.5819 0
M  V30 2808 O 278.043 -1.50163 3.8409 0
M  V30 2809 H 277.384 0.000871367 0.663999 0
M  V30 2810 H 279.914 0.626706 1.94765 0
M  V30 2811 H 279.924 -0.664867 4.02546 0
M  V30 2812 H 278.599 0.482653 4.1309 0
M  V30 2813 H 277.176 -1.24248 3.51592 0
M  V30 2814 N 279.361 -1.56624 0.175154 0
M  V30 2815 C 280.586 -2.01813 -0.478137 0
M  V30 2816 C 281.011 -1.05457 -1.55757 0
M  V30 2817 O 280.369 -0.0347439 -1.81267 0
M  V30 2818 C 280.417 -3.45581 -1.02987 0
M  V30 2819 O 279.521 -3.52305 -2.14371 0
M  V30 2820 H 278.862 -0.65413 -0.114059 0
M  V30 2821 H 281.392 -2.02673 0.280173 0
M  V30 2822 H 281.402 -3.84965 -1.35151 0
M  V30 2823 H 280.077 -4.1521 -0.239556 0
M  V30 2824 H 278.654 -3.24783 -1.83222 0
M  V30 2825 N 280.839 0.0985539 -1.57292 0
M  V30 2826 C 282.085 0.803867 -1.86188 0
M  V30 2827 C 282.418 1.78549 -0.763794 0
M  V30 2828 O 281.693 1.93153 0.22855 0
M  V30 2829 C 281.976 1.53568 -3.25713 0
M  V30 2830 C 281.829 0.572277 -4.46145 0
M  V30 2831 C 283.148 2.48708 -3.63087 0
M  V30 2832 H 280.267 0.290781 -0.677211 0
M  V30 2833 H 282.909 0.0675783 -1.8988 0
M  V30 2834 H 281.059 2.16332 -3.22696 0
M  V30 2835 H 282.731 -0.0480894 -4.61275 0
M  V30 2836 H 280.974 -0.114618 -4.33649 0
M  V30 2837 H 281.645 1.12139 -5.40489 0
M  V30 2838 H 284.121 1.96039 -3.67026 0
M  V30 2839 H 282.997 2.96932 -4.61652 0
M  V30 2840 H 283.258 3.32309 -2.91588 0
M  V30 2841 N 282.317 1.53212 0.369288 0
M  V30 2842 C 283.563 1.69466 1.11397 0
M  V30 2843 C 283.896 0.443257 1.89074 0
M  V30 2844 O 283.171 -0.559386 1.86282 0
M  V30 2845 C 283.454 2.9422 2.07621 0
M  V30 2846 C 283.307 4.29508 1.33577 0
M  V30 2847 C 284.626 3.14565 3.07794 0
M  V30 2848 H 281.745 0.616667 0.403597 0
M  V30 2849 H 284.387 1.85845 0.395179 0
M  V30 2850 H 282.537 2.80387 2.68916 0
M  V30 2851 H 284.209 4.55147 0.750955 0
M  V30 2852 H 282.452 4.29088 0.637618 0
M  V30 2853 H 283.123 5.12926 2.03989 0
M  V30 2854 H 285.599 3.2756 2.56601 0
M  V30 2855 H 284.475 4.03297 3.72348 0
M  V30 2856 H 284.736 2.29675 3.77759 0
M  V30 2857 N 283.795 -0.628877 1.44509 0
M  V30 2858 C 285.023 -1.41554 1.50897 0
M  V30 2859 C 285.438 -1.8832 0.134564 0
M  V30 2860 O 284.795 -1.60969 -0.859965 0
M  V30 2861 C 284.846 -2.63435 2.47556 0
M  V30 2862 O 284.567 -2.18619 3.79654 0
M  V30 2863 C 286.068 -3.56537 2.63431 0
M  V30 2864 H 283.288 -0.434044 0.511709 0
M  V30 2865 H 285.832 -0.768895 1.89495 0
M  V30 2866 H 283.987 -3.24187 2.12089 0
M  V30 2867 H 284.401 -2.97652 4.31861 0
M  V30 2868 H 285.875 -4.38657 3.35088 0
M  V30 2869 H 286.352 -4.05493 1.68738 0
M  V30 2870 H 286.958 -3.01653 2.9981 0
M  V30 2871 N 285.273 -1.31445 -0.869486 0
M  V30 2872 C 286.519 -1.21337 -1.62496 0
M  V30 2873 C 286.852 0.227872 -1.92858 0
M  V30 2874 O 286.127 1.16094 -1.56053 0
M  V30 2875 C 286.41 -2.05814 -2.95487 0
M  V30 2876 C 286.263 -3.5824 -2.72 0
M  V30 2877 C 287.582 -1.9079 -3.96594 0
M  V30 2878 H 284.701 -0.442135 -0.589649 0
M  V30 2879 H 287.343 -1.6124 -1.00507 0
M  V30 2880 H 285.493 -1.71913 -3.48394 0
M  V30 2881 H 287.165 -4.0228 -2.25762 0
M  V30 2882 H 285.408 -3.81647 -2.06224 0
M  V30 2883 H 286.079 -4.12657 -3.66631 0
M  V30 2884 H 288.555 -2.20459 -3.52898 0
M  V30 2885 H 287.431 -2.52199 -4.87531 0
M  V30 2886 H 287.692 -0.871341 -4.33428 0
M  V30 2887 N 286.751 1.08385 -1.14413 0
M  V30 2888 C 288.162 1.62258 -0.923535 0
M  V30 2889 C 288.513 1.88691 0.537595 0
M  V30 2890 O 287.638 1.64454 1.40655 0
M  V30 2891 C 288.233 2.94781 -1.67002 0
M  V30 2892 C 286.792 3.45437 -1.495 0
M  V30 2893 C 285.939 2.19668 -1.69238 0
M  V30 2894 H 288.89 0.916086 -1.2959 0
M  V30 2895 H 288.911 3.63229 -1.13334 0
M  V30 2896 H 288.423 2.7551 -2.73342 0
M  V30 2897 H 286.524 3.6981 -0.455097 0
M  V30 2898 H 286.637 4.22173 -2.2651 0
M  V30 2899 H 285.001 2.28849 -1.11804 0
M  V30 2900 H 285.784 2.02905 -2.7692 0
M  V30 2901 N 288.23 0.939286 1.26551 0
M  V30 2902 C 289.455 0.602008 1.98471 0
M  V30 2903 C 289.88 -0.815624 1.69497 0
M  V30 2904 O 289.238 -1.54912 0.941905 0
M  V30 2905 C 289.286 0.848407 3.50477 0
M  V30 2906 O 288.39 -0.0804009 4.12322 0
M  V30 2907 H 287.731 0.23049 0.622712 0
M  V30 2908 H 290.261 1.2617 1.61066 0
M  V30 2909 H 290.271 0.768553 4.00696 0
M  V30 2910 H 288.946 1.88171 3.70897 0
M  V30 2911 H 287.523 0.0503508 3.72866 0
M  V30 2912 N 289.708 -1.40897 0.706093 0
M  V30 2913 C 290.933 -2.05895 0.249435 0
M  V30 2914 C 291.358 -1.52823 -1.09666 0
M  V30 2915 O 290.716 -0.659589 -1.68876 0
M  V30 2916 C 290.764 -3.59872 0.22904 0
M  V30 2917 O 289.868 -4.04708 -0.792784 0
M  V30 2918 H 289.209 -0.653206 0.119241 0
M  V30 2919 H 291.739 -1.80471 0.96391 0
M  V30 2920 H 291.749 -4.07951 0.0634791 0
M  V30 2921 H 290.424 -3.97866 1.21141 0
M  V30 2922 H 289.001 -3.68111 -0.59572 0
M  V30 2923 N 291.186 -0.45159 -1.50991 0
M  V30 2924 C 292.411 0.110667 -2.07105 0
M  V30 2925 C 292.836 1.3446 -1.31538 0
M  V30 2926 O 292.194 1.77743 -0.357365 0
M  V30 2927 C 292.242 0.397238 -3.58405 0
M  V30 2928 O 291.346 1.48124 -3.84881 0
M  V30 2929 H 290.687 -0.00439271 -0.663985 0
M  V30 2930 H 293.217 -0.637026 -1.9443 0
M  V30 2931 H 293.227 0.64351 -4.02893 0
M  V30 2932 H 291.902 -0.504553 -4.12828 0
M  V30 2933 H 290.479 1.22381 -3.52246 0
M  V30 2934 N 292.664 1.56529 -0.183458 0
M  V30 2935 C 293.594 2.21549 0.737456 0
M  V30 2936 C 294.575 1.17489 1.23005 0
M  V30 2937 O 295.76 1.45959 1.281 0
M  V30 2938 C 292.89 2.86575 1.96194 0
M  V30 2939 C 291.844 3.96778 1.60473 0
M  V30 2940 C 291.17 4.48911 2.90487 0
M  V30 2941 C 292.47 5.15767 0.823497 0
M  V30 2942 H 294.164 2.98761 0.195453 0
M  V30 2943 H 291.71 1.43702 0.0925686 0
M  V30 2944 H 293.663 3.30739 2.61131 0
M  V30 2945 H 292.387 2.06749 2.52828 0
M  V30 2946 H 291.046 3.53286 0.978997 0
M  V30 2947 H 290.694 3.65862 3.45186 0
M  V30 2948 H 290.394 5.23265 2.67335 0
M  V30 2949 H 291.918 4.95771 3.56432 0
M  V30 2950 H 293.332 5.56549 1.37571 0
M  V30 2951 H 291.729 5.96114 0.690551 0
M  V30 2952 H 292.799 4.84574 -0.177782 0
M  V30 2953 N 294.142 -0.090211 1.57342 0
M  V30 2954 C 295.39 -0.791241 1.85967 0
M  V30 2955 C 295.711 -1.7903 0.772859 0
M  V30 2956 O 294.981 -1.94872 -0.200398 0
M  V30 2957 H 293.561 -0.295205 0.686195 0
M  V30 2958 H 296.223 -0.0706782 1.94772 0
M  V30 2959 H 295.319 -1.31882 2.82867 0
M  V30 2960 N 295.62 -1.53406 -0.361157 0
M  V30 2961 C 296.848 -1.73717 -1.12383 0
M  V30 2962 C 297.263 -0.468161 -1.82904 0
M  V30 2963 O 296.62 0.559198 -1.73722 0
M  V30 2964 C 296.671 -2.90558 -2.15078 0
M  V30 2965 O 296.392 -4.12549 -1.47428 0
M  V30 2966 C 297.893 -3.22777 -3.03858 0
M  V30 2967 H 295.113 -0.580896 -0.335858 0
M  V30 2968 H 297.657 -2.00167 -0.418728 0
M  V30 2969 H 295.812 -2.66489 -2.8118 0
M  V30 2970 H 296.226 -4.78009 -2.15887 0
M  V30 2971 H 297.7 -4.07927 -3.71887 0
M  V30 2972 H 298.177 -2.38329 -3.68912 0
M  V30 2973 H 298.783 -3.48787 -2.43367 0
M  V30 2974 N 297.098 0.621204 -1.44841 0
M  V30 2975 C 298.03 1.74615 -1.48466 0
M  V30 2976 C 299.043 1.58377 -0.37691 0
M  V30 2977 O 300.232 1.66508 -0.643215 0
M  V30 2978 C 297.332 3.12459 -1.31236 0
M  V30 2979 C 296.505 3.55064 -2.55438 0
M  V30 2980 C 295.564 4.71821 -2.32963 0
M  V30 2981 O 294.59 4.79628 -3.06505 0
M  V30 2982 N 295.792 5.64186 -1.36654 0
M  V30 2983 H 298.557 1.71973 -2.45449 0
M  V30 2984 H 296.118 0.806077 -1.40407 0
M  V30 2985 H 298.11 3.88302 -1.14032 0
M  V30 2986 H 296.68 3.09686 -0.4258 0
M  V30 2987 H 295.9 2.69324 -2.87851 0
M  V30 2988 H 297.188 3.80284 -3.38026 0
M  V30 2989 H 296.586 5.6058 -0.759344 0
M  V30 2990 H 295.143 6.39618 -1.25425 0
M  V30 2991 N 298.576 1.31904 0.862503 0
M  V30 2992 C 299.804 1.24998 1.64873 0
M  V30 2993 C 300.219 -0.183425 1.87907 0
M  V30 2994 O 299.576 -1.11794 1.44251 0
M  V30 2995 C 299.627 1.99829 3.01248 0
M  V30 2996 O 299.348 3.37575 2.79239 0
M  V30 2997 C 300.849 1.99852 3.95694 0
M  V30 2998 H 298.069 0.431599 0.513773 0
M  V30 2999 H 300.613 1.73901 1.07604 0
M  V30 3000 H 298.768 1.54668 3.55185 0
M  V30 3001 H 299.182 3.75776 3.65914 0
M  V30 3002 H 300.656 2.56709 4.88676 0
M  V30 3003 H 301.133 0.982852 4.28062 0
M  V30 3004 H 301.739 2.44926 3.47694 0
M  V30 3005 N 300.054 -1.07777 1.14986 0
M  V30 3006 C 301.284 -1.83752 0.944402 0
M  V30 3007 C 301.692 -1.8218 -0.51058 0
M  V30 3008 O 301.035 -1.22852 -1.36576 0
M  V30 3009 C 301.097 -3.32128 1.37592 0
M  V30 3010 C 300.761 -3.57425 2.84775 0
M  V30 3011 C 301.758 -3.5173 3.8286 0
M  V30 3012 C 299.443 -3.8523 3.2234 0
M  V30 3013 C 301.437 -3.73482 5.16517 0
M  V30 3014 C 299.124 -4.06634 4.56171 0
M  V30 3015 C 300.122 -4.00754 5.53069 0
M  V30 3016 O 299.81 -4.2159 6.84483 0
M  V30 3017 H 299.542 -0.58673 0.335744 0
M  V30 3018 H 302.096 -1.36982 1.53052 0
M  V30 3019 H 300.326 -3.79686 0.733165 0
M  V30 3020 H 302.015 -3.89555 1.14024 0
M  V30 3021 H 302.781 -3.30256 3.55184 0
M  V30 3022 H 298.66 -3.88923 2.47508 0
M  V30 3023 H 302.204 -3.68808 5.92137 0
M  V30 3024 H 298.101 -4.27593 4.83564 0
M  V30 3025 H 298.869 -4.38961 6.90837 0
M  V30 3026 N 301.532 -0.945985 -1.26051 0
M  V30 3027 C 302.781 -0.591836 -1.92822 0
M  V30 3028 C 303.094 0.873956 -1.7499 0
M  V30 3029 O 304.3 1.33769 -2.36259 0
M  V30 3030 C 302.756 -1.00776 -3.45503 0
M  V30 3031 C 302.364 -2.4955 -3.7206 0
M  V30 3032 C 304.108 -0.725735 -4.1825 0
M  V30 3033 C 302.015 -2.84988 -5.18205 0
M  V30 3034 H 300.945 -0.217635 -0.721908 0
M  V30 3035 H 303.596 -1.14927 -1.43052 0
M  V30 3036 H 301.978 -0.378812 -3.94184 0
M  V30 3037 H 303.152 -3.1739 -3.34066 0
M  V30 3038 H 301.467 -2.75133 -3.12555 0
M  V30 3039 H 304.064 -0.966771 -5.25887 0
M  V30 3040 H 304.407 0.337639 -4.14929 0
M  V30 3041 H 304.94 -1.31463 -3.7545 0
M  V30 3042 H 301.679 -3.90307 -5.26631 0
M  V30 3043 H 301.199 -2.21813 -5.57278 0
M  V30 3044 H 302.878 -2.73712 -5.86252 0
M  V30 3045 N 303.011 1.40521 -0.713556 0
M  V30 3046 C 304.251 2.02783 -0.256584 0
M  V30 3047 C 304.615 1.55352 1.12827 0
M  V30 3048 O 305.816 2.09663 1.68211 0
M  V30 3049 C 304.087 3.5586 -0.331414 0
M  V30 3050 S 305.646 4.38773 0.0488703 0
M  V30 3051 H 302.464 0.703655 -0.101934 0
M  V30 3052 H 305.066 1.71674 -0.935325 0
M  V30 3053 H 303.77 3.87874 -1.34098 0
M  V30 3054 H 303.301 3.91695 0.365873 0
M  V30 3055 H 305.316 4.79633 1.2715 0
M  V30 3056 N 304.489 0.459591 1.5075 0
M  V30 3057 C 305.437 -0.354678 2.2988 0
M  V30 3058 C 306.431 -1.00086 1.36672 0
M  V30 3059 O 307.637 -0.933277 1.53915 0
M  V30 3060 H 304.012 -0.13321 0.740107 0
M  V30 3061 H 305.983 0.333269 2.96533 0
M  V30 3062 C 304.732 -1.43073 3.169 0
M  V30 3063 H 304.055 -0.942882 3.88523 0
M  V30 3064 H 305.495 -1.97328 3.75284 0
M  V30 3065 C 303.954 -2.42633 2.33732 0
M  V30 3066 O 304.484 -3.47658 2.01238 0
M  V30 3067 N 302.69 -2.14066 1.9653 0
M  V30 3068 H 302.237 -1.28685 2.23155 0
M  V30 3069 H 302.195 -2.80917 1.41185 0
M  V30 3070 N 305.967 -1.56429 0.191757 0
M  V30 3071 C 307.213 -1.97777 -0.448554 0
M  V30 3072 C 307.546 -1.07847 -1.61501 0
M  V30 3073 O 306.821 -0.129774 -1.94067 0
M  V30 3074 C 307.104 -3.48362 -0.911906 0
M  V30 3075 C 306.957 -4.4907 0.256136 0
M  V30 3076 C 308.276 -4.02561 -1.77857 0
M  V30 3077 H 305.395 -0.719071 -0.161572 0
M  V30 3078 H 308.037 -1.87896 0.282007 0
M  V30 3079 H 306.187 -3.56914 -1.53442 0
M  V30 3080 H 307.859 -4.5256 0.893733 0
M  V30 3081 H 306.102 -4.24181 0.908436 0
M  V30 3082 H 306.773 -5.51889 -0.11053 0
M  V30 3083 H 309.249 -3.96767 -1.25359 0
M  V30 3084 H 308.125 -5.08301 -2.07174 0
M  V30 3085 H 308.386 -3.47616 -2.73158 0
M  V30 3086 N 307.445 0.0818655 -1.57387 0
M  V30 3087 C 308.393 1.11712 -2.04018 0
M  V30 3088 C 309.387 1.40683 -0.94364 0
M  V30 3089 O 310.593 1.40209 -1.12878 0
M  V30 3090 H 306.968 0.377542 -0.650358 0
M  V30 3091 H 308.939 0.697614 -2.90131 0
M  V30 3092 C 307.688 2.42537 -2.49141 0
M  V30 3093 H 307.011 2.21092 -3.33104 0
M  V30 3094 H 308.451 3.13446 -2.85531 0
M  V30 3095 C 306.91 3.0778 -1.37014 0
M  V30 3096 O 307.44 3.95436 -0.706621 0
M  V30 3097 N 305.646 2.68242 -1.11779 0
M  V30 3098 H 305.193 1.97052 -1.65917 0
M  V30 3099 H 305.151 3.1222 -0.369594 0
M  V30 3100 N 308.923 1.53595 0.353017 0
M  V30 3101 C 309.873 1.77299 1.43349 0
M  V30 3102 C 310.857 0.627884 1.48143 0
M  V30 3103 O 312.049 0.88697 1.53173 0
M  V30 3104 C 309.178 1.97757 2.80619 0
M  V30 3105 C 308.264 3.18305 2.80254 0
M  V30 3106 N 308.655 4.39967 2.49526 0
M  V30 3107 C 306.953 3.19283 3.11407 0
M  V30 3108 C 307.654 5.21772 2.57156 0
M  V30 3109 N 306.63 4.58269 2.92388 0
M  V30 3110 H 310.432 2.68963 1.18474 0
M  V30 3111 H 307.946 1.52391 0.561306 0
M  V30 3112 H 309.943 2.1287 3.58458 0
M  V30 3113 H 308.603 1.07329 3.06448 0
M  V30 3114 H 309.614 4.67482 2.22893 0
M  V30 3115 H 306.291 2.3879 3.4247 0
M  V30 3116 H 307.681 6.2885 2.36638 0
M  V30 3117 N 310.401 -0.613514 1.45168 0
M  V30 3118 C 311.348 -1.72456 1.53387 0
M  V30 3119 C 312.318 -1.6169 0.380191 0
M  V30 3120 O 313.503 -1.81356 0.592836 0
M  V30 3121 C 310.643 -3.10753 1.50088 0
M  V30 3122 C 309.756 -3.32368 2.75963 0
M  V30 3123 C 308.891 -4.60737 2.64376 0
M  V30 3124 C 307.93 -4.7559 3.85332 0
M  V30 3125 N 307.067 -5.95253 3.72315 0
M  V30 3126 H 311.907 -1.64768 2.48305 0
M  V30 3127 H 309.444 -0.803503 1.23216 0
M  V30 3128 H 311.402 -3.90758 1.46164 0
M  V30 3129 H 310.032 -3.17413 0.587243 0
M  V30 3130 H 309.084 -2.4618 2.89999 0
M  V30 3131 H 310.396 -3.39218 3.65695 0
M  V30 3132 H 309.55 -5.48928 2.58385 0
M  V30 3133 H 308.289 -4.56275 1.72233 0
M  V30 3134 H 307.294 -3.85824 3.91688 0
M  V30 3135 H 308.519 -4.81854 4.78533 0
M  V30 3136 H 306.465 -5.91847 2.82937 0
M  V30 3137 H 306.382 -6.03236 4.55677 0
M  V30 3138 H 307.65 -6.85958 3.70246 0
M  V30 3139 N 311.879 -1.3236 -0.855495 0
M  V30 3140 C 313.29 -1.2056 -1.42556 0
M  V30 3141 C 313.641 0.182209 -1.95352 0
M  V30 3142 O 312.766 1.08088 -1.87472 0
M  V30 3143 C 313.361 -2.1826 -2.59129 0
M  V30 3144 C 311.92 -2.10351 -3.12137 0
M  V30 3145 C 311.067 -2.06674 -1.84882 0
M  V30 3146 H 314.018 -1.442 -0.662727 0
M  V30 3147 H 314.039 -1.78064 -3.36264 0
M  V30 3148 H 313.551 -3.19257 -2.20673 0
M  V30 3149 H 311.652 -1.12599 -3.55179 0
M  V30 3150 H 311.765 -3.00135 -3.73438 0
M  V30 3151 H 310.129 -1.51901 -2.04446 0
M  V30 3152 H 310.912 -3.09451 -1.48643 0
M  V30 3153 N 313.357 1.07166 -1.15556 0
M  V30 3154 C 314.582 1.84053 -0.955988 0
M  V30 3155 C 315.007 1.81586 0.490739 0
M  V30 3156 O 314.365 1.21018 1.34997 0
M  V30 3157 C 314.413 3.28957 -1.47714 0
M  V30 3158 O 313.517 4.06795 -0.677593 0
M  V30 3159 H 312.858 0.569842 -0.340847 0
M  V30 3160 H 315.388 1.35178 -1.53584 0
M  V30 3161 H 315.398 3.79788 -1.4908 0
M  V30 3162 H 314.073 3.30068 -2.53037 0
M  V30 3163 H 312.65 3.6561 -0.733721 0
M  V30 3164 N 314.835 0.952656 1.25548 0
M  V30 3165 C 315.783 0.462354 2.27958 0
M  V30 3166 C 316.777 -0.46634 1.62855 0
M  V30 3167 O 317.983 -0.343287 1.76696 0
M  V30 3168 H 314.358 0.13101 0.7405 0
M  V30 3169 H 316.329 1.33839 2.66702 0
M  V30 3170 C 315.078 -0.24628 3.46827 0
M  V30 3171 H 314.401 0.459192 3.97154 0
M  V30 3172 H 315.841 -0.553393 4.20373 0
M  V30 3173 C 314.3 -1.4681 3.0323 0
M  V30 3174 O 314.83 -2.56591 3.09069 0
M  V30 3175 N 313.036 -1.32874 2.58443 0
M  V30 3176 H 312.583 -0.435536 2.53891 0
M  V30 3177 H 312.541 -2.14742 2.29637 0
M  V30 3178 N 316.313 -1.40141 0.720998 0
M  V30 3179 C 317.541 -2.05096 0.272656 0
M  V30 3180 C 317.956 -1.54334 -1.0875 0
M  V30 3181 O 317.313 -0.702211 -1.6845 0
M  V30 3182 C 317.364 -3.60636 0.249835 0
M  V30 3183 O 317.085 -4.09526 1.55629 0
M  V30 3184 C 318.586 -4.42772 -0.216396 0
M  V30 3185 H 315.806 -0.659897 0.121558 0
M  V30 3186 H 318.35 -1.79449 0.980723 0
M  V30 3187 H 316.505 -3.85232 -0.409237 0
M  V30 3188 H 316.919 -5.03758 1.4604 0
M  V30 3189 H 318.393 -5.51702 -0.181212 0
M  V30 3190 H 318.87 -4.20756 -1.25941 0
M  V30 3191 H 319.476 -4.23294 0.412596 0
M  V30 3192 N 317.792 -0.46758 -1.50504 0
M  V30 3193 C 318.739 0.328413 -2.28452 0
M  V30 3194 C 319.709 0.990313 -1.33349 0
M  V30 3195 O 320.894 1.00343 -1.62284 0
M  V30 3196 C 318.034 1.40648 -3.15138 0
M  V30 3197 C 317.147 0.759709 -4.25267 0
M  V30 3198 C 316.282 1.81537 -4.99217 0
M  V30 3199 C 315.321 1.14866 -6.01226 0
M  V30 3200 N 314.458 2.14702 -6.68467 0
M  V30 3201 H 319.298 -0.342603 -2.96024 0
M  V30 3202 H 316.835 -0.180801 -1.45985 0
M  V30 3203 H 318.793 2.04315 -3.63746 0
M  V30 3204 H 317.423 2.04671 -2.49619 0
M  V30 3205 H 316.475 0.0105671 -3.80399 0
M  V30 3206 H 317.787 0.233243 -4.98254 0
M  V30 3207 H 316.941 2.52793 -5.51526 0
M  V30 3208 H 315.68 2.37564 -4.25928 0
M  V30 3209 H 314.685 0.42171 -5.4818 0
M  V30 3210 H 315.91 0.595334 -6.76485 0
M  V30 3211 H 313.856 2.69752 -5.97972 0
M  V30 3212 H 313.773 1.6703 -7.37317 0
M  V30 3213 H 315.041 2.85348 -7.25394 0
M  V30 3214 N 319.27 1.56325 -0.20005 0
M  V30 3215 C 320.516 1.98012 0.438059 0
M  V30 3216 C 320.849 1.08702 1.60927 0
M  V30 3217 O 320.124 0.140064 1.93995 0
M  V30 3218 C 320.407 3.48841 0.893419 0
M  V30 3219 C 320.26 4.48928 -0.279947 0
M  V30 3220 C 321.579 4.03498 1.75719 0
M  V30 3221 H 318.698 0.719918 0.157757 0
M  V30 3222 H 321.34 1.87743 -0.291968 0
M  V30 3223 H 319.49 3.57723 1.51547 0
M  V30 3224 H 321.162 4.52079 -0.91772 0
M  V30 3225 H 319.405 4.23694 -0.930919 0
M  V30 3226 H 320.076 5.5194 0.0812601 0
M  V30 3227 H 322.552 3.97427 1.23253 0
M  V30 3228 H 321.428 5.09393 2.04476 0
M  V30 3229 H 321.689 3.4906 2.71311 0
M  V30 3230 N 320.748 -0.0735177 1.57428 0
M  V30 3231 C 322.025 -0.805903 1.78226 0
M  V30 3232 C 322.405 -1.95874 0.787189 0
M  V30 3233 O 321.753 -2.2779 -0.180029 0
M  V30 3234 C 321.963 -1.28045 3.24662 0
M  V30 3235 C 323.311 -1.71453 3.88444 0
M  V30 3236 O 324.335 -1.37616 3.28543 0
M  V30 3237 O 323.194 -2.34093 4.93825 0
M  V30 3238 H 320.288 -0.386041 0.73137 0
M  V30 3239 H 322.834 -0.0537269 1.69615 0
M  V30 3240 H 321.606 -0.455476 3.8864 0
M  V30 3241 H 321.229 -2.094 3.37991 0
M  V30 3242 N 322.226 -1.5378 -0.344866 0
M  V30 3243 C 323.173 -1.81676 -1.42346 0
M  V30 3244 C 324.143 -0.662376 -1.52321 0
M  V30 3245 O 325.328 -0.906675 -1.67881 0
M  V30 3246 C 322.468 -2.03087 -2.79015 0
M  V30 3247 C 321.581 -3.30799 -2.77842 0
M  V30 3248 C 320.716 -3.42285 -4.0622 0
M  V30 3249 C 319.755 -4.6395 -3.9927 0
M  V30 3250 N 318.892 -4.72477 -5.19336 0
M  V30 3251 H 323.732 -2.73703 -1.17858 0
M  V30 3252 H 321.269 -1.35568 -0.570949 0
M  V30 3253 H 323.227 -2.1349 -3.58438 0
M  V30 3254 H 321.857 -1.14375 -3.01858 0
M  V30 3255 H 320.909 -3.29244 -1.90533 0
M  V30 3256 H 322.221 -4.20314 -2.68584 0
M  V30 3257 H 321.375 -3.52113 -4.94066 0
M  V30 3258 H 320.114 -2.50823 -4.18258 0
M  V30 3259 H 319.119 -4.54201 -3.09809 0
M  V30 3260 H 320.344 -5.56775 -3.88817 0
M  V30 3261 H 318.29 -3.83924 -5.3192 0
M  V30 3262 H 318.207 -5.55927 -5.12329 0
M  V30 3263 H 319.475 -4.86613 -6.08957 0
M  V30 3264 N 323.704 0.605807 -1.45491 0
M  V30 3265 C 324.651 1.7164 -1.54299 0
M  V30 3266 C 325.621 1.61486 -0.388761 0
M  V30 3267 O 326.806 1.81039 -0.602445 0
M  V30 3268 C 323.946 3.09953 -1.51734 0
M  V30 3269 C 323.059 3.309 -2.77721 0
M  V30 3270 C 322.194 4.59329 -2.66816 0
M  V30 3271 C 321.233 4.7354 -3.87848 0
M  V30 3272 N 320.37 5.9327 -3.75467 0
M  V30 3273 H 325.21 1.63449 -2.49176 0
M  V30 3274 H 322.747 0.796957 -1.23641 0
M  V30 3275 H 324.705 3.89977 -1.48235 0
M  V30 3276 H 323.335 3.17098 -0.604068 0
M  V30 3277 H 322.387 2.44639 -2.913 0
M  V30 3278 H 323.699 3.37274 -3.67488 0
M  V30 3279 H 322.853 5.4755 -2.61292 0
M  V30 3280 H 321.592 4.55355 -1.74651 0
M  V30 3281 H 320.597 3.83741 -3.93729 0
M  V30 3282 H 321.822 4.79309 -4.81082 0
M  V30 3283 H 319.768 5.90338 -2.86072 0
M  V30 3284 H 319.685 6.00811 -4.5887 0
M  V30 3285 H 320.953 6.83984 -3.73879 0
M  V30 3286 N 325.182 1.32811 0.848464 0
M  V30 3287 C 326.428 1.23907 1.60546 0
M  V30 3288 C 326.761 -0.197161 1.93197 0
M  V30 3289 O 326.036 -1.13596 1.5788 0
M  V30 3290 C 326.319 2.10489 2.92175 0
M  V30 3291 C 326.172 3.62522 2.66266 0
M  V30 3292 C 327.491 1.97075 3.93509 0
M  V30 3293 H 324.61 0.451459 0.58254 0
M  V30 3294 H 327.252 1.62818 0.979296 0
M  V30 3295 H 325.402 1.77434 3.45614 0
M  V30 3296 H 327.074 4.05821 2.19334 0
M  V30 3297 H 325.317 3.84879 2.00126 0
M  V30 3298 H 325.988 4.18437 3.6002 0
M  V30 3299 H 328.464 2.26045 3.49346 0
M  V30 3300 H 327.34 2.59923 4.83457 0
M  V30 3301 H 327.601 0.940186 4.31987 0
M  V30 3302 N 326.66 -1.06551 1.16123 0
M  V30 3303 C 327.57 -2.17484 0.879662 0
M  V30 3304 C 328.586 -1.73377 -0.147104 0
M  V30 3305 O 329.762 -2.01379 0.0289128 0
M  V30 3306 C 326.827 -3.44591 0.381829 0
M  V30 3307 C 325.888 -4.0322 1.4735 0
M  V30 3308 C 325.121 -5.24261 0.999324 0
M  V30 3309 O 325.344 -5.70198 -0.151957 0
M  V30 3310 O 324.278 -5.74775 1.78653 0
M  V30 3311 H 328.104 -2.44075 1.80724 0
M  V30 3312 H 325.689 -1.16042 0.940992 0
M  V30 3313 H 327.571 -4.21254 0.111053 0
M  V30 3314 H 326.246 -3.19532 -0.51777 0
M  V30 3315 H 325.153 -3.2806 1.79798 0
M  V30 3316 H 326.486 -4.32568 2.34831 0
M  V30 3317 N 328.138 -0.959301 -1.25041 0
M  V30 3318 C 329.549 -0.65667 -1.74771 0
M  V30 3319 C 329.9 0.827852 -1.77879 0
M  V30 3320 O 329.025 1.64783 -1.40269 0
M  V30 3321 C 329.62 -1.1853 -3.1739 0
M  V30 3322 C 328.179 -0.932734 -3.6466 0
M  V30 3323 C 327.326 -1.32558 -2.43564 0
M  V30 3324 H 330.277 -1.13558 -1.10862 0
M  V30 3325 H 330.298 -0.547582 -3.76539 0
M  V30 3326 H 329.81 -2.26576 -3.15095 0
M  V30 3327 H 327.911 0.13257 -3.72364 0
M  V30 3328 H 328.024 -1.57248 -4.52559 0
M  V30 3329 H 326.388 -0.743956 -2.43593 0
M  V30 3330 H 327.171 -2.41537 -2.43957 0
M  V30 3331 N 329.616 1.39756 -0.72842 0
M  V30 3332 C 330.563 2.30647 -0.0841519 0
M  V30 3333 C 331.533 1.48869 0.7367 0
M  V30 3334 O 332.718 1.77574 0.698015 0
M  V30 3335 C 329.858 3.35165 0.822091 0
M  V30 3336 C 328.971 4.31999 -0.0106663 0
M  V30 3337 C 328.106 5.23585 0.896241 0
M  V30 3338 C 327.145 6.12072 0.0583381 0
M  V30 3339 N 326.282 6.96035 0.920818 0
M  V30 3340 H 331.122 2.85173 -0.864891 0
M  V30 3341 H 328.659 1.40422 -0.438179 0
M  V30 3342 H 330.617 3.94345 1.36189 0
M  V30 3343 H 329.247 2.8211 1.56888 0
M  V30 3344 H 328.299 3.74492 -0.66781 0
M  V30 3345 H 329.611 4.9443 -0.658825 0
M  V30 3346 H 328.765 5.87759 1.50412 0
M  V30 3347 H 327.504 4.61459 1.57819 0
M  V30 3348 H 326.509 5.46916 -0.562389 0
M  V30 3349 H 327.734 6.76261 -0.6203 0
M  V30 3350 H 325.68 6.36485 1.58818 0
M  V30 3351 H 325.597 7.55284 0.32899 0
M  V30 3352 H 326.865 7.64646 1.51447 0
M  V30 3353 N 331.094 0.475555 1.50254 0
M  V30 3354 C 332.319 -0.0777042 2.07254 0
M  V30 3355 C 332.744 -1.3235 1.3366 0
M  V30 3356 O 332.102 -1.77152 0.385597 0
M  V30 3357 C 332.15 -0.340169 3.58992 0
M  V30 3358 O 331.254 -1.41982 3.87188 0
M  V30 3359 H 330.595 0.0149556 0.663832 0
M  V30 3360 H 333.125 0.667878 1.93392 0
M  V30 3361 H 333.135 -0.579332 4.03866 0
M  V30 3362 H 331.81 0.570167 4.11973 0
M  V30 3363 H 330.387 -1.16762 3.54148 0
M  V30 3364 N 332.573 -1.56217 0.208337 0
M  V30 3365 C 333.813 -1.99849 -0.428927 0
M  V30 3366 C 334.177 -1.09262 -1.57879 0
M  V30 3367 O 335.378 -1.42185 -2.28116 0
M  V30 3368 C 333.649 -3.46777 -0.864879 0
M  V30 3369 S 335.208 -4.12434 -1.49811 0
M  V30 3370 H 332.026 -0.697742 -0.136665 0
M  V30 3371 H 334.628 -1.92953 0.314519 0
M  V30 3372 H 333.332 -4.10396 -0.0181326 0
M  V30 3373 H 332.863 -3.57518 -1.64147 0
M  V30 3374 H 334.878 -4.10532 -2.78707 0
M  V30 3375 N 334.051 0.0651679 -1.57465 0
M  V30 3376 C 335.328 0.79644 -1.78651 0
M  V30 3377 C 335.708 1.95454 -0.797566 0
M  V30 3378 O 335.056 2.27882 0.167946 0
M  V30 3379 C 335.266 1.26322 -3.25337 0
M  V30 3380 C 336.614 1.6939 -3.89348 0
M  V30 3381 O 337.638 1.35872 -3.29268 0
M  V30 3382 O 336.497 2.31471 -4.95059 0
M  V30 3383 H 333.591 0.382157 -0.733407 0
M  V30 3384 H 336.137 0.0447311 -1.69641 0
M  V30 3385 H 334.909 0.434859 -3.88876 0
M  V30 3386 H 334.532 2.07604 -3.39096 0
M  V30 3387 N 335.529 1.53961 0.336706 0
M  V30 3388 C 336.476 1.82428 1.41381 0
M  V30 3389 C 337.446 0.670444 1.51968 0
M  V30 3390 O 338.631 0.915565 1.67398 0
M  V30 3391 C 335.771 2.04564 2.77934 0
M  V30 3392 C 334.884 3.32267 2.76084 0
M  V30 3393 C 334.019 3.44434 4.04399 0
M  V30 3394 C 333.058 4.66061 3.96804 0
M  V30 3395 N 332.195 4.75224 5.16823 0
M  V30 3396 H 337.035 2.74324 1.16405 0
M  V30 3397 H 334.572 1.35869 0.563752 0
M  V30 3398 H 336.53 2.15388 3.57301 0
M  V30 3399 H 335.16 1.15974 3.01247 0
M  V30 3400 H 334.212 3.3025 1.88784 0
M  V30 3401 H 335.524 4.21733 2.66351 0
M  V30 3402 H 334.678 3.54728 4.92192 0
M  V30 3403 H 333.417 2.53037 4.16921 0
M  V30 3404 H 332.422 4.55838 3.07396 0
M  V30 3405 H 333.647 5.58829 3.85858 0
M  V30 3406 H 331.593 3.86739 5.29876 0
M  V30 3407 H 331.51 5.58636 5.09374 0
M  V30 3408 H 332.778 4.89835 6.06367 0
M  V30 3409 N 337.007 -0.598083 1.45811 0
M  V30 3410 C 338.235 -1.38322 1.53866 0
M  V30 3411 C 338.65 -1.87992 0.174479 0
M  V30 3412 O 338.007 -1.62756 -0.825627 0
M  V30 3413 C 338.058 -2.58125 2.53089 0
M  V30 3414 O 337.779 -2.10516 3.84206 0
M  V30 3415 C 339.28 -3.50869 2.70935 0
M  V30 3416 H 336.5 -0.423093 0.520801 0
M  V30 3417 H 339.044 -0.728527 1.91083 0
M  V30 3418 H 337.199 -3.19615 2.18917 0
M  V30 3419 H 337.613 -2.88425 4.38077 0
M  V30 3420 H 339.087 -4.31451 3.44317 0
M  V30 3421 H 339.564 -4.01822 1.77301 0
M  V30 3422 H 340.17 -2.95225 3.06141 0
M  V30 3423 N 338.485 -1.33259 -0.841409 0
M  V30 3424 C 339.435 -1.19872 -1.93945 0
M  V30 3425 C 340.419 -0.102269 -1.60575 0
M  V30 3426 O 341.611 -0.330114 -1.73894 0
M  V30 3427 C 338.74 -0.937517 -3.30251 0
M  V30 3428 C 337.826 -2.07629 -3.69799 0
M  V30 3429 N 338.217 -3.32604 -3.81062 0
M  V30 3430 C 336.515 -1.98242 -3.9952 0
M  V30 3431 C 337.216 -4.07275 -4.15333 0
M  V30 3432 N 336.192 -3.35691 -4.27566 0
M  V30 3433 H 339.994 -2.14604 -2.00805 0
M  V30 3434 H 337.508 -1.2523 -1.03398 0
M  V30 3435 H 339.505 -0.822545 -4.08705 0
M  V30 3436 H 338.165 0.00128798 -3.247 0
M  V30 3437 H 339.176 -3.67382 -3.65035 0
M  V30 3438 H 335.853 -1.12005 -4.02195 0
M  V30 3439 H 337.243 -5.1511 -4.31406 0
M  V30 3440 N 339.963 1.05934 -1.16686 0
M  V30 3441 C 340.893 2.1546 -0.899949 0
M  V30 3442 C 341.874 1.69391 0.155154 0
M  V30 3443 O 343.059 1.94199 0.00648693 0
M  V30 3444 C 340.189 3.44939 -0.404241 0
M  V30 3445 C 339.143 4.04536 -1.39767 0
M  V30 3446 C 338.469 5.29268 -0.760216 0
M  V30 3447 C 339.769 4.42893 -2.76845 0
M  V30 3448 H 341.463 2.38046 -1.81588 0
M  V30 3449 H 339.009 1.14404 -0.874514 0
M  V30 3450 H 340.962 4.20901 -0.204971 0
M  V30 3451 H 339.686 3.21983 0.547206 0
M  V30 3452 H 338.345 3.30635 -1.58355 0
M  V30 3453 H 337.993 5.02611 0.197831 0
M  V30 3454 H 337.693 5.70101 -1.42332 0
M  V30 3455 H 339.217 6.07924 -0.57105 0
M  V30 3456 H 340.631 5.09921 -2.62019 0
M  V30 3457 H 339.028 4.94721 -3.39663 0
M  V30 3458 H 340.098 3.53584 -3.31823 0
M  V30 3459 O 341.48 1.09547 1.18667 0
M  V30 3460 H 342.171 0.792406 1.7675 0
M  V30 END ATOM
M  V30 BEGIN BOND
M  V30 END BOND
M  V30 END CTAB
M  END
$$$$
