drugbank_drug|DB04925 P98119|URT1_DESRO Salivary plasminogen activator alpha 1 precursor - Desmodus rotundus
 OpenBabel12092119113D

  0  0  0     0  0            999 V3000
M  V30 BEGIN CTAB
M  V30 COUNTS 7390 7480 0 0 0
M  V30 BEGIN ATOM
M  V30 1 H -0.908 1.98254 -0.117106 0
M  V30 2 N 0 1.576 0 0
M  V30 3 C 0.933 2.03868 1.02534 0
M  V30 4 C 1.911 0.928543 1.3348 0
M  V30 5 O 3.095 1.19667 1.45644 0
M  V30 6 C 0.222 2.43627 2.35294 0
M  V30 7 C -0.732 3.65373 2.2001 0
M  V30 8 S 0.101 5.13292 1.52614 0
M  V30 9 C 1.257 5.56322 2.86805 0
M  V30 10 H 1.49 2.90518 0.631377 0
M  V30 11 H -0.977 1.52953 0.210867 0
M  V30 12 H 0.981 2.67203 3.11629 0
M  V30 13 H -0.358 1.57376 2.7183 0
M  V30 14 H -1.165 3.90944 3.18086 0
M  V30 15 H -1.563 3.418 1.51819 0
M  V30 16 H 0.729 5.58782 3.83104 0
M  V30 17 H 1.672 6.56266 2.65933 0
M  V30 18 H 2.08 4.83886 2.90714 0
M  V30 19 N 1.4781 -0.272755 1.55222 0
M  V30 20 C 2.7241 -1.00581 1.761 0
M  V30 21 C 3.0571 -1.85932 0.560625 0
M  V30 22 O 2.3321 -1.89416 -0.441801 0
M  V30 23 C 2.6151 -1.88816 3.06628 0
M  V30 24 C 2.4681 -1.06457 4.37021 0
M  V30 25 C 3.7871 -2.8752 3.33197 0
M  V30 26 H 0.9061 -0.364244 0.640699 0
M  V30 27 H 3.5481 -0.278189 1.87952 0
M  V30 28 H 1.6981 -2.50856 2.96654 0
M  V30 29 H 3.3701 -0.464863 4.58952 0
M  V30 30 H 1.6131 -0.368043 4.32236 0
M  V30 31 H 2.2841 -1.71514 5.24678 0
M  V30 32 H 4.7601 -2.35615 3.42965 0
M  V30 33 H 3.6361 -3.46399 4.25792 0
M  V30 34 H 3.8971 -3.62657 2.52849 0
M  V30 35 N 2.9562 -1.48159 -0.537278 0
M  V30 36 C 3.9042 -1.62573 -1.66352 0
M  V30 37 C 4.8982 -0.492366 -1.62087 0
M  V30 38 O 6.1042 -0.670847 -1.67032 0
M  V30 39 H 2.4792 -0.511992 -0.550789 0
M  V30 40 H 4.4502 -2.57176 -1.51337 0
M  V30 41 C 3.1992 -1.67583 -3.04649 0
M  V30 42 H 2.5222 -2.54151 -3.08622 0
M  V30 43 H 3.9622 -1.81713 -3.83088 0
M  V30 44 C 2.4212 -0.413039 -3.34358 0
M  V30 45 O 2.9512 0.477259 -3.98855 0
M  V30 46 N 1.1572 -0.286961 -2.8918 0
M  V30 47 H 0.7042 -1.01241 -2.36871 0
M  V30 48 H 0.6622 0.556963 -3.09427 0
M  V30 49 N 4.4343 0.785586 -1.36625 0
M  V30 50 C 5.6623 1.57448 -1.3423 0
M  V30 51 C 6.0773 1.88649 0.0755653 0
M  V30 52 O 5.4343 1.50414 1.03354 0
M  V30 53 C 5.4853 2.89316 -2.16745 0
M  V30 54 O 5.2063 2.59459 -3.53005 0
M  V30 55 C 6.7073 3.83606 -2.22174 0
M  V30 56 H 3.9273 0.488226 -0.4603 0
M  V30 57 H 6.4713 0.974733 -1.79775 0
M  V30 58 H 4.6263 3.4575 -1.74745 0
M  V30 59 H 5.0403 3.43804 -3.96105 0
M  V30 60 H 6.5143 4.73181 -2.8426 0
M  V30 61 H 6.9913 4.21734 -1.22627 0
M  V30 62 H 7.5973 3.33104 -2.64427 0
M  V30 63 N 5.9124 1.20967 1.01018 0
M  V30 64 C 6.8454 0.907578 2.09376 0
M  V30 65 C 7.8234 -0.142868 1.61971 0
M  V30 66 O 9.0074 -0.0150391 1.88494 0
M  V30 67 C 6.1344 0.361791 3.36762 0
M  V30 68 C 5.1804 1.39423 4.03068 0
M  V30 69 S 6.0134 2.96159 4.4615 0
M  V30 70 C 7.1694 2.43173 5.7673 0
M  V30 71 H 7.4024 1.82519 2.34678 0
M  V30 72 H 4.9354 1.03884 1.14225 0
M  V30 73 H 6.8934 0.0534523 4.10465 0
M  V30 74 H 5.5544 -0.53443 3.0952 0
M  V30 75 H 4.7474 0.961853 4.94737 0
M  V30 76 H 4.3494 1.65038 3.35617 0
M  V30 77 H 6.6414 1.83335 6.52223 0
M  V30 78 H 7.5844 3.33264 6.24773 0
M  V30 79 H 7.9924 1.85069 5.33301 0
M  V30 80 N 7.3905 -1.2043 1.01659 0
M  V30 81 C 8.3375 -2.23215 0.586822 0
M  V30 82 C 9.3075 -1.61382 -0.393085 0
M  V30 83 O 10.4925 -1.88544 -0.292525 0
M  V30 84 C 7.6325 -3.45032 -0.0687464 0
M  V30 85 C 6.7455 -4.21296 0.955724 0
M  V30 86 C 5.8805 -5.30507 0.271208 0
M  V30 87 C 4.9195 -5.98515 1.28244 0
M  V30 88 N 4.0565 -6.99316 0.62459 0
M  V30 89 H 8.8965 -2.59336 1.46796 0
M  V30 90 H 6.4335 -1.27431 0.734836 0
M  V30 91 H 8.3915 -4.1459 -0.465965 0
M  V30 92 H 7.0215 -3.09604 -0.913529 0
M  V30 93 H 6.0735 -3.50803 1.4711 0
M  V30 94 H 7.3855 -4.6803 1.72479 0
M  V30 95 H 6.5395 -6.06428 -0.18151 0
M  V30 96 H 5.2785 -4.8481 -0.530163 0
M  V30 97 H 4.2835 -5.21355 1.74554 0
M  V30 98 H 5.5085 -6.46298 2.08509 0
M  V30 99 H 3.4545 -6.55812 -0.156914 0
M  V30 100 H 3.3715 -7.44178 1.33172 0
M  V30 101 H 4.6395 -7.79255 0.195462 0
M  V30 102 N 8.8686 -0.792821 -1.36206 0
M  V30 103 C 10.0966 -0.378825 -2.03402 0
M  V30 104 C 10.5116 1.00586 -1.59774 0
M  V30 105 O 9.8686 1.64574 -0.788764 0
M  V30 106 C 9.9196 -0.43683 -3.58851 0
M  V30 107 O 9.6406 -1.76691 -4.00889 0
M  V30 108 C 11.1416 -0.0138943 -4.43298 0
M  V30 109 H 8.3616 -0.155673 -0.652692 0
M  V30 110 H 10.9056 -1.07261 -1.74113 0
M  V30 111 H 9.0606 0.208575 -3.86838 0
M  V30 112 H 9.4746 -1.72011 -4.95492 0
M  V30 113 H 10.9486 -0.105615 -5.51899 0
M  V30 114 H 11.4256 1.03915 -4.2673 0
M  V30 115 H 12.0316 -0.63192 -4.20579 0
M  V30 116 N 10.3467 1.47872 -0.545128 0
M  V30 117 C 11.2937 2.29849 0.2093 0
M  V30 118 C 12.2637 1.38313 0.919707 0
M  V30 119 O 13.4487 1.67277 0.917772 0
M  V30 120 C 10.5887 3.22019 1.24088 0
M  V30 121 C 9.7017 4.2864 0.537778 0
M  V30 122 C 8.8367 5.07973 1.5536 0
M  V30 123 C 7.8757 6.06381 0.8348 0
M  V30 124 N 7.0127 6.78717 1.79688 0
M  V30 125 H 11.8527 2.93845 -0.49591 0
M  V30 126 H 9.3897 1.44848 -0.256389 0
M  V30 127 H 11.3477 3.73868 1.85144 0
M  V30 128 H 9.9777 2.59914 1.91428 0
M  V30 129 H 9.0297 3.7994 -0.187046 0
M  V30 130 H 10.3417 4.98793 -0.0258907 0
M  V30 131 H 9.4957 5.63912 2.23803 0
M  V30 132 H 8.2347 4.37693 2.15118 0
M  V30 133 H 7.2397 5.49631 0.136388 0
M  V30 134 H 8.4647 6.78665 0.24313 0
M  V30 135 H 6.4107 6.11177 2.38326 0
M  V30 136 H 6.3277 7.44998 1.28505 0
M  V30 137 H 7.5957 7.39237 2.47282 0
M  V30 138 N 11.8248 0.280983 1.55075 0
M  V30 139 C 12.7548 -0.597469 2.25727 0
M  V30 140 C 13.7358 -1.15417 1.24952 0
M  V30 141 O 14.9208 -1.18722 1.53684 0
M  V30 142 C 12.0508 -1.7789 2.98283 0
M  V30 143 C 11.0048 -1.35347 4.06036 0
M  V30 144 C 10.3308 -2.61846 4.66198 0
M  V30 145 C 11.6308 -0.499354 5.19907 0
M  V30 146 H 13.3248 -0.00824265 2.99399 0
M  V30 147 H 10.8708 -0.0025244 1.44 0
M  V30 148 H 12.8238 -2.39937 3.46422 0
M  V30 149 H 11.5478 -2.39405 2.22155 0
M  V30 150 H 10.2068 -0.756156 3.58717 0
M  V30 151 H 9.8548 -3.21632 3.86732 0
M  V30 152 H 9.5548 -2.3409 5.38958 0
M  V30 153 H 11.0788 -3.24732 5.1709 0
M  V30 154 H 12.4928 -1.02498 5.64063 0
M  V30 155 H 10.8898 -0.316424 5.99265 0
M  V30 156 H 11.9598 0.480459 4.82514 0
M  V30 157 N 13.3029 -1.57598 0.00835791 0
M  V30 158 C 14.2329 -2.1198 -0.979113 0
M  V30 159 C 15.2139 -1.03091 -1.35301 0
M  V30 160 O 16.3989 -1.30818 -1.43528 0
M  V30 161 C 13.5289 -2.62995 -2.26828 0
M  V30 162 C 12.4829 -3.76485 -2.03576 0
M  V30 163 C 11.8089 -4.13846 -3.38579 0
M  V30 164 C 13.1089 -5.0342 -1.39161 0
M  V30 165 H 14.8029 -2.94738 -0.526281 0
M  V30 166 H 12.3489 -1.41783 -0.251704 0
M  V30 167 H 14.3019 -2.99669 -2.96271 0
M  V30 168 H 13.0259 -1.7737 -2.7424 0
M  V30 169 H 11.6849 -3.40217 -1.36557 0
M  V30 170 H 11.3329 -3.25232 -3.83709 0
M  V30 171 H 11.0329 -4.90312 -3.23834 0
M  V30 172 H 12.5569 -4.53086 -4.09323 0
M  V30 173 H 13.9709 -5.37812 -1.98573 0
M  V30 174 H 12.3679 -5.84746 -1.34878 0
M  V30 175 H 13.4379 -4.83548 -0.361868 0
M  V30 176 N 14.781 0.264519 -1.55364 0
M  V30 177 C 16.021 1.00254 -1.78125 0
M  V30 178 C 16.385 1.83187 -0.575017 0
M  V30 179 O 17.586 2.60029 -0.681042 0
M  V30 180 C 15.857 1.85478 -3.05504 0
M  V30 181 S 17.416 2.6543 -3.49417 0
M  V30 182 H 14.234 0.337522 -0.625779 0
M  V30 183 H 16.836 0.272111 -1.93597 0
M  V30 184 H 15.54 1.23491 -3.9138 0
M  V30 185 H 15.071 2.62827 -2.92721 0
M  V30 186 H 17.086 3.87958 -3.09359 0
M  V30 187 N 16.2591 1.48442 0.529413 0
M  V30 188 C 17.5051 1.5672 1.28711 0
M  V30 189 C 17.8381 0.2406 1.92704 0
M  V30 190 O 17.1131 -0.753454 1.79313 0
M  V30 191 C 17.3961 2.70587 2.37603 0
M  V30 192 C 17.2491 4.12953 1.78297 0
M  V30 193 C 18.5681 2.80212 3.39366 0
M  V30 194 H 15.6871 0.570474 0.466613 0
M  V30 195 H 18.3291 1.80617 0.589706 0
M  V30 196 H 16.4791 2.50342 2.97088 0
M  V30 197 H 18.1511 4.44639 1.22858 0
M  V30 198 H 16.3941 4.19927 1.0883 0
M  V30 199 H 17.0651 4.88448 2.57144 0
M  V30 200 H 19.5411 2.98553 2.89836 0
M  V30 201 H 18.4171 3.61611 4.12951 0
M  V30 202 H 18.6781 1.88393 3.99951 0
M  V30 203 N 17.7372 -0.778329 1.37039 0
M  V30 204 C 18.6672 -1.90546 1.34962 0
M  V30 205 C 19.6482 -1.68681 0.219274 0
M  V30 206 O 20.8332 -1.89634 0.418624 0
M  V30 207 C 17.9632 -3.27734 1.14925 0
M  V30 208 C 16.9172 -3.64147 2.24902 0
M  V30 209 C 16.2432 -4.99806 1.89996 0
M  V30 210 C 17.5432 -3.71579 3.67051 0
M  V30 211 H 19.2372 -1.92541 2.29277 0
M  V30 212 H 16.7832 -0.924948 1.10366 0
M  V30 213 H 18.7362 -4.06215 1.12104 0
M  V30 214 H 17.4602 -3.26154 0.170631 0
M  V30 215 H 16.1192 -2.8797 2.26868 0
M  V30 216 H 15.7672 -4.94759 0.906796 0
M  V30 217 H 15.4672 -5.25139 2.63634 0
M  V30 218 H 16.9912 -5.80694 1.88749 0
M  V30 219 H 18.4052 -4.40227 3.67251 0
M  V30 220 H 16.8022 -4.08405 4.39688 0
M  V30 221 H 17.8722 -2.72404 4.01154 0
M  V30 222 N 19.2153 -1.21501 -1.00376 0
M  V30 223 C 20.1453 -0.999478 -2.11028 0
M  V30 224 C 21.1263 0.0759671 -1.6993 0
M  V30 225 O 22.3113 -0.0841106 -1.94018 0
M  V30 226 C 19.4413 -0.564709 -3.42678 0
M  V30 227 C 18.3953 -1.58486 -3.97576 0
M  V30 228 C 17.7213 -1.00628 -5.25146 0
M  V30 229 C 19.0213 -2.97204 -4.29496 0
M  V30 230 H 20.7153 -1.92495 -2.29317 0
M  V30 231 H 18.2613 -0.92693 -1.102 0
M  V30 232 H 20.2143 -0.401091 -4.19487 0
M  V30 233 H 18.9383 0.396411 -3.24185 0
M  V30 234 H 17.5973 -1.73606 -3.22888 0
M  V30 235 H 17.2453 -0.0368439 -5.02987 0
M  V30 236 H 16.9453 -1.68771 -5.62841 0
M  V30 237 H 18.4693 -0.854015 -6.04598 0
M  V30 238 H 19.8833 -2.8552 -4.97143 0
M  V30 239 H 18.2803 -3.62372 -4.78338 0
M  V30 240 H 19.3503 -3.47956 -3.3772 0
M  V30 241 N 20.6934 1.19889 -1.02296 0
M  V30 242 C 21.6234 2.25141 -0.619174 0
M  V30 243 C 22.6044 1.66051 0.368915 0
M  V30 244 O 23.7894 1.92546 0.252941 0
M  V30 245 C 20.9194 3.4728 0.0368783 0
M  V30 246 C 19.8734 4.19005 -0.872865 0
M  V30 247 C 19.1994 5.34637 -0.0822402 0
M  V30 248 C 20.4994 4.74452 -2.18387 0
M  V30 249 H 22.1934 2.59171 -1.49903 0
M  V30 250 H 19.7394 1.24579 -0.722222 0
M  V30 251 H 21.6924 4.20098 0.330958 0
M  V30 252 H 20.4164 3.12433 0.95149 0
M  V30 253 H 19.0754 3.48061 -1.15105 0
M  V30 254 H 18.7234 4.96034 0.83422 0
M  V30 255 H 18.4234 5.83557 -0.688149 0
M  V30 256 H 19.9474 6.10255 0.205238 0
M  V30 257 H 21.3614 5.39055 -1.95172 0
M  V30 258 H 19.7584 5.33834 -2.74119 0
M  V30 259 H 20.8284 3.92844 -2.84257 0
M  V30 260 N 22.1715 0.800033 1.35784 0
M  V30 261 C 23.4115 0.382891 2.00782 0
M  V30 262 C 23.7755 -1.02891 1.62103 0
M  V30 263 O 24.9765 -1.54771 2.19771 0
M  V30 264 C 23.2475 0.553299 3.53091 0
M  V30 265 S 24.8065 0.225608 4.3822 0
M  V30 266 H 21.6245 0.145737 0.695904 0
M  V30 267 H 24.2265 1.04085 1.65489 0
M  V30 268 H 22.9305 1.58091 3.78729 0
M  V30 269 H 22.4615 -0.120214 3.93216 0
M  V30 270 H 24.4765 -0.969074 4.86645 0
M  V30 271 N 23.6496 -1.47581 0.552962 0
M  V30 272 C 24.8976 -2.02082 0.0272703 0
M  V30 273 C 25.2186 -1.4301 -1.32563 0
M  V30 274 O 24.4886 -0.603745 -1.86365 0
M  V30 275 H 23.0686 -0.746966 0.00709182 0
M  V30 276 H 25.7306 -1.81033 0.722008 0
M  V30 277 H 24.8266 -3.12034 -0.0639951 0
M  V30 278 N 25.1277 -0.289203 -1.54924 0
M  V30 279 C 26.0907 0.579144 -2.21762 0
M  V30 280 C 27.0907 1.07047 -1.1999 0
M  V30 281 O 28.2807 0.968384 -1.44803 0
M  V30 282 C 25.4127 1.80055 -2.8947 0
M  V30 283 H 26.6057 -0.00464908 -2.999 0
M  V30 284 H 24.1587 -0.0399306 -1.56249 0
M  V30 285 H 24.8937 2.42449 -2.15381 0
M  V30 286 H 24.6787 1.45602 -3.64064 0
M  V30 287 H 26.1687 2.41773 -3.40493 0
M  V30 288 N 26.6058 1.57591 -0.0167156 0
M  V30 289 C 27.8518 1.91567 0.665582 0
M  V30 290 C 28.1848 0.892298 1.72487 0
M  V30 291 O 27.4598 -0.0867127 1.94307 0
M  V30 292 C 27.7428 3.36069 1.29342 0
M  V30 293 C 27.5958 4.49135 0.244541 0
M  V30 294 C 28.9148 3.803 2.21495 0
M  V30 295 H 26.0338 0.69666 0.240488 0
M  V30 296 H 28.6758 1.89866 -0.0714356 0
M  V30 297 H 26.8258 3.3765 1.92158 0
M  V30 298 H 28.4978 4.59689 -0.385228 0
M  V30 299 H 26.7408 4.3165 -0.431379 0
M  V30 300 H 27.4118 5.47242 0.723207 0
M  V30 301 H 29.8878 3.80377 1.68678 0
M  V30 302 H 28.7638 4.82127 2.62382 0
M  V30 303 H 29.0248 3.15104 3.101 0
M  V30 304 N 28.0839 -0.256276 1.55502 0
M  V30 305 C 29.3309 -0.985619 1.76895 0
M  V30 306 C 29.6589 -1.85671 0.579355 0
M  V30 307 O 28.9139 -1.90744 -0.437651 0
M  V30 308 C 29.2129 -1.88432 3.03691 0
M  V30 309 C 28.8789 -1.16936 4.35473 0
M  V30 310 C 27.5409 -0.97173 4.71286 0
M  V30 311 C 29.8929 -0.661889 5.1698 0
M  V30 312 C 27.2209 -0.254179 5.86149 0
M  V30 313 C 29.5729 0.042149 6.32586 0
M  V30 314 C 28.2369 0.25134 6.67027 0
M  V30 315 H 27.5069 -0.360663 0.647304 0
M  V30 316 H 30.1539 -0.256483 1.89775 0
M  V30 317 H 28.4589 -2.68021 2.85783 0
M  V30 318 H 30.1559 -2.45015 3.1744 0
M  V30 319 H 26.7459 -1.33332 4.07333 0
M  V30 320 H 30.9299 -0.802145 4.89775 0
M  V30 321 H 26.1859 -0.0815408 6.11346 0
M  V30 322 H 30.3599 0.443049 6.94989 0
M  V30 323 H 27.9869 0.809314 7.5588 0
M  V30 324 N 29.562 -1.4872 -0.521534 0
M  V30 325 C 30.787 -1.61101 -1.30618 0
M  V30 326 C 31.212 -0.274611 -1.86085 0
M  V30 327 O 30.57 0.754937 -1.64834 0
M  V30 328 C 30.618 -2.66709 -2.4269 0
M  V30 329 O 29.722 -2.24456 -3.45967 0
M  V30 330 H 29.063 -0.539921 -0.386499 0
M  V30 331 H 31.593 -1.94767 -0.626645 0
M  V30 332 H 31.603 -2.88245 -2.88754 0
M  V30 333 H 30.278 -3.63727 -2.01682 0
M  V30 334 H 28.855 -2.13168 -3.05964 0
M  V30 335 N 31.0401 0.771051 -1.3745 0
M  V30 336 C 31.9701 1.89827 -1.3597 0
M  V30 337 C 32.9511 1.68562 -0.228216 0
M  V30 338 O 34.1361 1.8941 -0.428675 0
M  V30 339 C 31.2661 3.2712 -1.16662 0
M  V30 340 C 30.2201 3.6295 -2.2683 0
M  V30 341 C 29.5461 4.98791 -1.92644 0
M  V30 342 C 30.8461 3.69627 -3.69017 0
M  V30 343 H 32.5401 1.91323 -2.30295 0
M  V30 344 H 30.0861 0.919082 -1.10855 0
M  V30 345 H 32.0391 4.05615 -1.14256 0
M  V30 346 H 30.7631 3.26059 -0.187926 0
M  V30 347 H 29.4221 2.86763 -2.28392 0
M  V30 348 H 29.0701 4.94271 -0.933021 0
M  V30 349 H 28.7701 5.23733 -2.66416 0
M  V30 350 H 30.2941 5.79685 -1.91826 0
M  V30 351 H 31.7081 4.38273 -3.69581 0
M  V30 352 H 30.1051 4.06067 -4.41848 0
M  V30 353 H 31.1751 2.70273 -4.02592 0
M  V30 354 N 32.5182 1.22032 0.997298 0
M  V30 355 C 33.9292 1.0397 1.55071 0
M  V30 356 C 34.2802 -0.398192 1.92117 0
M  V30 357 O 33.4052 -1.28254 1.74298 0
M  V30 358 C 34.0002 1.88109 2.81781 0
M  V30 359 C 32.5592 1.74357 3.33581 0
M  V30 360 C 31.7062 1.84846 2.06706 0
M  V30 361 H 34.6572 1.35941 0.818883 0
M  V30 362 H 34.6782 1.39589 3.53971 0
M  V30 363 H 34.1902 2.92754 2.54787 0
M  V30 364 H 32.2912 0.72427 3.65493 0
M  V30 365 H 32.4042 2.56772 4.04481 0
M  V30 366 H 30.7682 1.28238 2.20062 0
M  V30 367 H 31.5512 2.91014 1.82114 0
M  V30 368 N 33.9963 -1.19345 1.0293 0
M  V30 369 C 35.4123 -1.41069 0.746446 0
M  V30 370 C 35.6123 -1.90078 -0.668776 0
M  V30 371 O 34.6683 -2.0778 -1.4347 0
M  V30 372 C 35.9813 -2.42141 1.78292 0
M  V30 373 C 37.5293 -2.55887 1.80252 0
M  V30 374 C 38.0043 -3.60214 2.8286 0
M  V30 375 N 39.4953 -3.67711 2.81679 0
M  V30 376 C 40.2303 -4.48128 3.57727 0
M  V30 377 N 39.7263 -5.32248 4.43491 0
M  V30 378 N 41.5193 -4.42782 3.46267 0
M  V30 379 H 33.6703 -0.858536 1.94275 0
M  V30 380 H 35.9333 -0.439541 0.839945 0
M  V30 381 H 35.6393 -2.13155 2.79746 0
M  V30 382 H 35.5133 -3.41323 1.60557 0
M  V30 383 H 37.9003 -2.84196 0.794757 0
M  V30 384 H 37.9813 -1.56858 2.02062 0
M  V30 385 H 37.6253 -3.32647 3.83807 0
M  V30 386 H 37.5553 -4.58895 2.58307 0
M  V30 387 H 40.0463 -3.07634 2.19476 0
M  V30 388 H 40.3593 -5.90729 4.98256 0
M  V30 389 H 38.7043 -5.31707 4.47564 0
M  V30 390 H 41.8953 -3.76107 2.78677 0
M  V30 391 H 42.0683 -5.05215 4.05785 0
M  V30 392 N 35.4744 -0.807222 -1.35358 0
M  V30 393 C 36.4064 -0.175717 -2.28525 0
M  V30 394 C 37.4194 0.625354 -1.5031 0
M  V30 395 O 38.6084 0.457611 -1.72535 0
M  V30 396 C 35.7084 0.773471 -3.29956 0
M  V30 397 C 34.8814 0.0186296 -4.37396 0
M  V30 398 C 33.9404 0.886395 -5.18681 0
M  V30 399 O 32.9664 0.337106 -5.68201 0
M  V30 400 N 34.1684 2.20839 -5.36852 0
M  V30 401 H 36.9334 -0.976091 -2.83359 0
M  V30 402 H 34.4944 -0.662737 -1.47714 0
M  V30 403 H 36.4864 1.35824 -3.81227 0
M  V30 404 H 35.0564 1.47465 -2.75632 0
M  V30 405 H 34.2764 -0.747349 -3.87051 0
M  V30 406 H 35.5644 -0.501577 -5.06322 0
M  V30 407 H 34.9624 2.67858 -4.98265 0
M  V30 408 H 33.5194 2.74237 -5.91301 0
M  V30 409 N 36.9525 1.47285 -0.560781 0
M  V30 410 C 37.8625 2.33846 0.187954 0
M  V30 411 C 38.8785 1.48412 0.908293 0
M  V30 412 O 40.0545 1.81332 0.876388 0
M  V30 413 C 37.1195 3.25178 1.2025 0
M  V30 414 C 36.1805 4.26504 0.489208 0
M  V30 415 C 35.4135 5.13472 1.45542 0
M  V30 416 O 35.6365 5.02959 2.6905 0
M  V30 417 O 34.5705 5.93902 0.977963 0
M  V30 418 H 38.3965 2.99177 -0.522177 0
M  V30 419 H 35.9815 1.45903 -0.321364 0
M  V30 420 H 37.8635 3.81584 1.78805 0
M  V30 421 H 36.5385 2.6247 1.89449 0
M  V30 422 H 35.4455 3.73847 -0.137627 0
M  V30 423 H 36.7785 4.91935 -0.161399 0
M  V30 424 N 38.4306 0.297415 1.54768 0
M  V30 425 C 39.6586 -0.315623 2.04478 0
M  V30 426 C 40.0736 -1.47792 1.17486 0
M  V30 427 O 39.4306 -1.81404 0.19971 0
M  V30 428 C 39.4816 -0.7753 3.53088 0
M  V30 429 O 39.2026 0.340732 4.36773 0
M  V30 430 C 40.7036 -1.45386 4.18781 0
M  V30 431 H 37.9236 -0.0690887 0.667434 0
M  V30 432 H 40.4676 0.436003 1.99798 0
M  V30 433 H 38.6226 -1.47696 3.58141 0
M  V30 434 H 39.0366 -0.0165035 5.24497 0
M  V30 435 H 40.5106 -1.72669 5.24299 0
M  V30 436 H 40.9876 -2.39275 3.68299 0
M  V30 437 H 41.5936 -0.795475 4.17795 0
M  V30 438 N 39.9087 -1.5758 0.0250728 0
M  V30 439 C 41.1387 -1.95646 -0.663783 0
M  V30 440 C 41.5467 -0.899935 -1.66427 0
M  V30 441 O 40.8897 0.127191 -1.83259 0
M  V30 442 C 40.9517 -3.29835 -1.43 0
M  V30 443 C 40.6157 -4.53197 -0.588305 0
M  V30 444 C 41.6127 -5.19726 0.13469 0
M  V30 445 C 39.2977 -4.99529 -0.526897 0
M  V30 446 C 41.2917 -6.30902 0.90781 0
M  V30 447 C 38.9787 -6.10589 0.24993 0
M  V30 448 C 39.9767 -6.76134 0.965994 0
M  V30 449 O 39.6647 -7.85062 1.7301 0
M  V30 450 H 39.3967 -0.649282 -0.188174 0
M  V30 451 H 41.9507 -2.05245 0.0799006 0
M  V30 452 H 40.1807 -3.16716 -2.21873 0
M  V30 453 H 41.8697 -3.52833 -2.00658 0
M  V30 454 H 42.6357 -4.84904 0.0965562 0
M  V30 455 H 38.5147 -4.48319 -1.07381 0
M  V30 456 H 42.0587 -6.81995 1.46724 0
M  V30 457 H 37.9557 -6.44849 0.289795 0
M  V30 458 H 38.7237 -8.01708 1.64944 0
M  V30 459 N 41.3868 0.248026 -1.55636 0
M  V30 460 C 42.8028 0.596483 -1.48035 0
M  V30 461 C 43.0028 1.88386 -0.715039 0
M  V30 462 O 42.0588 2.51319 -0.243944 0
M  V30 463 C 43.3718 0.700258 -2.92433 0
M  V30 464 C 44.9198 0.792659 -3.02797 0
M  V30 465 C 45.3948 0.928005 -4.485 0
M  V30 466 N 46.8858 0.992903 -4.52433 0
M  V30 467 C 47.6208 1.11687 -5.62418 0
M  V30 468 N 47.1168 1.20645 -6.82214 0
M  V30 469 N 48.9098 1.14994 -5.50212 0
M  V30 470 H 41.0608 -0.597109 -2.03834 0
M  V30 471 H 43.3238 -0.205925 -0.925364 0
M  V30 472 H 43.0298 -0.175658 -3.51261 0
M  V30 473 H 42.9038 1.57255 -3.42857 0
M  V30 474 H 45.2908 1.65903 -2.4405 0
M  V30 475 H 45.3718 -0.104762 -2.55585 0
M  V30 476 H 45.0158 0.0661971 -5.07857 0
M  V30 477 H 44.9458 1.84045 -4.93391 0
M  V30 478 H 47.4368 0.935064 -3.66149 0
M  V30 479 H 47.7498 1.30008 -7.61786 0
M  V30 480 H 46.0948 1.17605 -6.84977 0
M  V30 481 H 49.2858 1.07643 -4.55555 0
M  V30 482 H 49.4588 1.24311 -6.35965 0
M  V30 483 N 42.8649 1.48995 0.513639 0
M  V30 484 C 43.7969 1.60836 1.63293 0
M  V30 485 C 44.8099 0.491701 1.55197 0
M  V30 486 O 45.9989 0.763238 1.6136 0
M  V30 487 C 43.0989 1.53731 3.02027 0
M  V30 488 C 42.2719 2.80715 3.35437 0
M  V30 489 C 41.3309 2.66837 4.53525 0
M  V30 490 O 40.3569 3.40753 4.55934 0
M  V30 491 N 41.5589 1.77539 5.52684 0
M  V30 492 H 44.3239 2.57366 1.53566 0
M  V30 493 H 41.8849 1.45925 0.701259 0
M  V30 494 H 43.8769 1.42118 3.78926 0
M  V30 495 H 42.4469 0.651092 3.05744 0
M  V30 496 H 41.6669 3.06772 2.47557 0
M  V30 497 H 42.9549 3.64927 3.54551 0
M  V30 498 H 42.3529 1.16719 5.53528 0
M  V30 499 H 40.9099 1.71856 6.28736 0
M  V30 500 N 44.343 -0.763751 1.37857 0
M  V30 501 C 45.273 -1.89103 1.36975 0
M  V30 502 C 46.254 -1.68439 0.237152 0
M  V30 503 O 47.439 -1.8918 0.438713 0
M  V30 504 C 44.569 -3.26496 1.18395 0
M  V30 505 C 43.523 -3.61741 2.28751 0
M  V30 506 C 42.849 -4.97762 1.95286 0
M  V30 507 C 44.149 -3.67665 3.70972 0
M  V30 508 H 45.843 -1.90099 2.31307 0
M  V30 509 H 43.389 -0.91319 1.11341 0
M  V30 510 H 45.342 -4.05003 1.16406 0
M  V30 511 H 44.066 -3.25955 0.205215 0
M  V30 512 H 42.725 -2.85547 2.29909 0
M  V30 513 H 42.373 -4.93769 0.959221 0
M  V30 514 H 42.073 -5.22313 2.69189 0
M  V30 515 H 43.597 -5.7866 1.94898 0
M  V30 516 H 45.011 -4.36307 3.719 0
M  V30 517 H 43.408 -4.03718 4.43995 0
M  V30 518 H 44.478 -2.68134 4.0402 0
M  V30 519 N 45.8211 -1.22559 -0.990812 0
M  V30 520 C 46.7841 -0.998863 -2.0629 0
M  V30 521 C 47.7841 0.0354834 -1.60761 0
M  V30 522 O 48.9741 -0.203231 -1.7301 0
M  V30 523 C 46.1061 -0.509203 -3.37076 0
M  V30 524 H 47.2991 -1.95014 -2.27837 0
M  V30 525 H 44.8521 -1.04456 -1.16269 0
M  V30 526 H 45.5871 0.446335 -3.21214 0
M  V30 527 H 45.3721 -1.25547 -3.71457 0
M  V30 528 H 46.8621 -0.370888 -4.1595 0
M  V30 529 N 47.2992 1.18797 -1.03562 0
M  V30 530 C 48.7152 1.40671 -0.753917 0
M  V30 531 C 48.9152 1.9043 0.658686 0
M  V30 532 O 47.9712 2.08538 1.42366 0
M  V30 533 C 49.2842 2.41192 -1.79574 0
M  V30 534 C 50.8322 2.54928 -1.81606 0
M  V30 535 C 51.3072 3.58709 -2.84766 0
M  V30 536 N 52.7982 3.66212 -2.83625 0
M  V30 537 C 53.5332 4.46225 -3.60098 0
M  V30 538 N 53.0292 5.29888 -4.46308 0
M  V30 539 N 54.8222 4.40939 -3.4861 0
M  V30 540 H 46.9732 0.848221 -1.94728 0
M  V30 541 H 49.2362 0.435081 -0.842264 0
M  V30 542 H 48.9422 2.11669 -2.80872 0
M  V30 543 H 48.8162 3.40467 -1.62365 0
M  V30 544 H 51.2032 2.83771 -0.809817 0
M  V30 545 H 51.2842 1.55784 -2.02891 0
M  V30 546 H 50.9282 3.30607 -3.85566 0
M  V30 547 H 50.8582 4.57519 -2.60737 0
M  V30 548 H 53.3492 3.06466 -2.21105 0
M  V30 549 H 53.6622 5.88078 -5.01382 0
M  V30 550 H 52.0072 5.29326 -4.50377 0
M  V30 551 H 55.1982 3.74624 -2.80668 0
M  V30 552 H 55.3712 5.03056 -4.08459 0
M  V30 553 N 48.7773 0.814389 1.34928 0
M  V30 554 C 50.0253 0.397636 1.9815 0
M  V30 555 C 50.3463 -1.04069 1.64908 0
M  V30 556 O 49.6163 -1.72121 0.93548 0
M  V30 557 H 48.1963 0.144043 0.732981 0
M  V30 558 H 50.8583 1.04195 1.6471 0
M  V30 559 H 49.9543 0.509688 3.0791 0
M  V30 560 N 50.2554 -1.46986 0.568584 0
M  V30 561 C 51.4804 -2.07335 0.0520528 0
M  V30 562 C 51.9054 -1.41675 -1.23733 0
M  V30 563 O 51.2634 -0.495623 -1.74394 0
M  V30 564 C 51.3114 -3.60417 -0.11501 0
M  V30 565 O 50.4154 -3.95309 -1.17492 0
M  V30 566 H 49.7564 -0.661597 0.0564385 0
M  V30 567 H 52.2864 -1.88837 0.787507 0
M  V30 568 H 52.2964 -4.06698 -0.325644 0
M  V30 569 H 50.9714 -4.07601 0.826675 0
M  V30 570 H 49.5484 -3.60757 -0.943869 0
M  V30 571 N 51.7335 -0.305618 -1.54608 0
M  V30 572 C 53.1495 0.0476228 -1.59529 0
M  V30 573 C 53.3495 1.52025 -1.32252 0
M  V30 574 O 52.4055 2.27368 -1.09818 0
M  V30 575 C 53.7185 -0.354471 -2.98603 0
M  V30 576 C 55.2665 -0.303622 -3.11524 0
M  V30 577 C 55.7415 -0.680608 -4.52915 0
M  V30 578 N 57.2325 -0.63332 -4.5885 0
M  V30 579 C 57.9675 -0.897432 -5.66334 0
M  V30 580 N 57.4635 -1.22775 -6.81834 0
M  V30 581 N 59.2565 -0.824186 -5.56025 0
M  V30 582 H 51.4075 -1.2653 -1.70599 0
M  V30 583 H 53.6705 -0.513291 -0.797017 0
M  V30 584 H 53.3765 -1.3798 -3.23503 0
M  V30 585 H 53.2505 0.289568 -3.76087 0
M  V30 586 H 55.6375 0.712472 -2.8637 0
M  V30 587 H 55.7185 -0.982348 -2.36185 0
M  V30 588 H 55.3625 -1.69453 -4.78799 0
M  V30 589 H 55.2925 0.0202385 -5.26596 0
M  V30 590 H 57.7835 -0.389138 -3.75891 0
M  V30 591 H 58.0965 -1.41513 -7.59733 0
M  V30 592 H 56.4415 -1.26583 -6.83375 0
M  V30 593 H 59.6325 -0.565748 -4.64669 0
M  V30 594 H 59.8055 -1.03338 -6.39707 0
M  V30 595 N 53.2116 1.57565 -0.0334293 0
M  V30 596 C 54.1746 2.09393 0.932048 0
M  V30 597 C 55.1746 1.00986 1.25134 0
M  V30 598 O 56.3646 1.27129 1.19096 0
M  V30 599 C 53.4966 2.56338 2.2473 0
M  V30 600 H 54.6896 2.95984 0.483085 0
M  V30 601 H 52.2426 1.54819 0.21468 0
M  V30 602 H 52.9776 1.7309 2.74245 0
M  V30 603 H 52.7626 3.35542 2.02865 0
M  V30 604 H 54.2526 2.96646 2.93923 0
M  V30 605 N 54.6897 -0.239769 1.55765 0
M  V30 606 C 55.9197 -0.982743 1.8173 0
M  V30 607 C 56.3277 -1.7917 0.607835 0
M  V30 608 O 55.6707 -1.78525 -0.432973 0
M  V30 609 C 55.7327 -1.96332 3.01155 0
M  V30 610 C 55.3967 -1.34062 4.36894 0
M  V30 611 C 56.3937 -0.739539 5.14613 0
M  V30 612 C 54.0787 -1.35784 4.83599 0
M  V30 613 C 56.0727 -0.163989 6.37189 0
M  V30 614 C 53.7597 -0.778441 6.06122 0
M  V30 615 C 54.7577 -0.182548 6.82756 0
M  V30 616 O 54.4457 0.387887 8.02964 0
M  V30 617 H 54.1777 -0.294481 0.608487 0
M  V30 618 H 56.7317 -0.26572 2.03674 0
M  V30 619 H 54.9617 -2.71884 2.74984 0
M  V30 620 H 56.6507 -2.57032 3.14149 0
M  V30 621 H 57.4167 -0.718687 4.79646 0
M  V30 622 H 53.2957 -1.81105 4.23936 0
M  V30 623 H 56.8397 0.301753 6.96947 0
M  V30 624 H 52.7367 -0.796645 6.40565 0
M  V30 625 H 53.5047 0.28044 8.18019 0
M  V30 626 N 56.1678 -1.49265 -0.50573 0
M  V30 627 C 57.4158 -1.582 -1.25766 0
M  V30 628 C 57.7368 -0.268482 -1.93143 0
M  V30 629 O 57.0068 0.711833 -1.8251 0
M  V30 630 H 55.5868 -0.582873 -0.467191 0
M  V30 631 H 58.2488 -1.85865 -0.586525 0
M  V30 632 H 57.3448 -2.37563 -2.02412 0
M  V30 633 N 57.6459 0.756429 -1.3826 0
M  V30 634 C 58.8919 1.51772 -1.34511 0
M  V30 635 C 59.2249 1.94089 0.0656691 0
M  V30 636 O 58.4999 1.65221 1.02626 0
M  V30 637 C 58.7829 2.77226 -2.29821 0
M  V30 638 C 58.6359 2.41065 -3.79747 0
M  V30 639 C 59.9549 3.79236 -2.23312 0
M  V30 640 H 57.0739 0.550578 -0.489931 0
M  V30 641 H 59.7159 0.866607 -1.69086 0
M  V30 642 H 57.8659 3.32784 -2.00467 0
M  V30 643 H 59.5379 1.91303 -4.19763 0
M  V30 644 H 57.7809 1.7356 -3.97567 0
M  V30 645 H 58.4519 3.3081 -4.41892 0
M  V30 646 H 60.9279 3.3321 -2.49219 0
M  V30 647 H 59.8039 4.64714 -2.92116 0
M  V30 648 H 60.0649 4.24615 -1.23102 0
M  V30 649 N 59.124 1.23083 0.984299 0
M  V30 650 C 60.087 1.00979 2.05757 0
M  V30 651 C 61.087 -0.0269573 1.60777 0
M  V30 652 O 62.277 0.212403 1.729 0
M  V30 653 C 59.409 0.527072 3.36801 0
M  V30 654 H 60.602 1.9622 2.26799 0
M  V30 655 H 58.155 1.05072 1.15714 0
M  V30 656 H 58.89 -0.429294 3.21446 0
M  V30 657 H 58.675 1.27515 3.70786 0
M  V30 658 H 60.165 0.392942 4.15747 0
M  V30 659 N 60.6021 -1.18246 1.0419 0
M  V30 660 C 61.8421 -1.89948 0.754916 0
M  V30 661 C 62.2061 -1.78608 -0.70451 0
M  V30 662 O 63.4071 -2.4503 -1.10516 0
M  V30 663 C 61.6781 -3.36305 1.20969 0
M  V30 664 S 63.2371 -4.26088 1.04854 0
M  V30 665 H 60.0551 -0.655897 0.274446 0
M  V30 666 H 62.6571 -1.42873 1.33445 0
M  V30 667 H 61.3611 -3.42089 2.26722 0
M  V30 668 H 60.8921 -3.8842 0.624004 0
M  V30 669 H 62.9071 -4.96189 -0.0332896 0
M  V30 670 N 62.0802 -0.821533 -1.34494 0
M  V30 671 C 63.0272 -0.240397 -2.29545 0
M  V30 672 C 63.9972 0.634031 -1.53523 0
M  V30 673 O 65.1822 0.575966 -1.81899 0
M  V30 674 C 62.3222 0.592869 -3.39969 0
M  V30 675 C 61.4352 -0.30365 -4.30932 0
M  V30 676 C 60.5702 0.539049 -5.28458 0
M  V30 677 C 59.6092 -0.356942 -6.11058 0
M  V30 678 N 58.7462 0.446603 -7.00678 0
M  V30 679 H 63.5862 -1.05632 -2.7865 0
M  V30 680 H 61.1232 -0.532413 -1.37127 0
M  V30 681 H 63.0812 1.09129 -4.02675 0
M  V30 682 H 61.7112 1.37392 -2.92102 0
M  V30 683 H 60.7632 -0.920276 -3.691 0
M  V30 684 H 62.0752 -0.992661 -4.88823 0
M  V30 685 H 61.2292 1.102 -5.96608 0
M  V30 686 H 59.9682 1.26157 -4.71101 0
M  V30 687 H 58.9732 -0.932047 -5.41842 0
M  V30 688 H 60.1982 -1.07755 -6.70497 0
M  V30 689 H 58.1442 1.15282 -6.45791 0
M  V30 690 H 58.0612 -0.184048 -7.55776 0
M  V30 691 H 59.3292 0.992352 -7.73158 0
M  V30 692 N 63.5583 1.46682 -0.576371 0
M  V30 693 C 64.8353 1.95599 0.00703437 0
M  V30 694 C 65.2153 1.51904 1.46589 0
M  V30 695 O 64.5633 0.766755 2.15251 0
M  V30 696 C 64.7733 3.4864 -0.158404 0
M  V30 697 C 66.1213 4.24594 -0.0229439 0
M  V30 698 O 67.1453 3.56094 -0.0869173 0
M  V30 699 O 66.0043 5.46373 0.118015 0
M  V30 700 H 63.0983 0.825275 0.053384 0
M  V30 701 H 65.6443 1.56996 -0.644244 0
M  V30 702 H 64.4163 3.7331 -1.17282 0
M  V30 703 H 64.0393 3.94057 0.5296 0
M  V30 704 N 65.0364 0.313813 1.54444 0
M  V30 705 C 65.9464 -0.565714 2.27677 0
M  V30 706 C 66.9624 -1.13754 1.31666 0
M  V30 707 O 68.1384 -1.15959 1.64668 0
M  V30 708 C 65.2034 -1.71528 3.01296 0
M  V30 709 C 64.2644 -1.17624 4.12872 0
M  V30 710 C 63.4974 -2.27102 4.8297 0
M  V30 711 O 63.7204 -3.47256 4.52514 0
M  V30 712 O 62.6544 -1.9307 5.70094 0
M  V30 713 H 66.4804 0.0287296 3.03686 0
M  V30 714 H 64.0654 0.0798312 1.49187 0
M  V30 715 H 65.9474 -2.38476 3.4743 0
M  V30 716 H 64.6224 -2.29608 2.2817 0
M  V30 717 H 63.5294 -0.472124 3.71109 0
M  V30 718 H 64.8624 -0.640695 4.88012 0
M  V30 719 N 66.5145 -1.57545 0.0417849 0
M  V30 720 C 67.7635 -1.91494 -0.633492 0
M  V30 721 C 68.0765 -0.921084 -1.72556 0
M  V30 722 O 69.2825 -1.15228 -2.45835 0
M  V30 723 C 67.7385 -3.40072 -1.17808 0
M  V30 724 C 67.3465 -4.47843 -0.118633 0
M  V30 725 C 69.0905 -3.8307 -1.82915 0
M  V30 726 C 66.9975 -5.87529 -0.675578 0
M  V30 727 H 65.9275 -0.714653 -0.24039 0
M  V30 728 H 68.5785 -1.83175 0.109148 0
M  V30 729 H 66.9605 -3.43364 -1.97274 0
M  V30 730 H 68.1345 -4.56128 0.654494 0
M  V30 731 H 66.4495 -4.14128 0.434414 0
M  V30 732 H 69.0465 -4.84794 -2.25563 0
M  V30 733 H 69.3895 -3.1881 -2.67705 0
M  V30 734 H 69.9225 -3.82255 -1.10119 0
M  V30 735 H 66.6615 -6.55362 0.134475 0
M  V30 736 H 66.1815 -5.82824 -1.4169 0
M  V30 737 H 67.8605 -6.36491 -1.1614 0
M  V30 738 N 67.9926 0.231505 -1.5589 0
M  V30 739 C 69.2206 0.974505 -1.82513 0
M  V30 740 C 69.6356 1.78344 -0.619591 0
M  V30 741 O 68.9926 1.77792 0.411848 0
M  V30 742 C 69.0436 1.90007 -3.07538 0
M  V30 743 O 68.7646 1.12385 -4.2344 0
M  V30 744 C 70.2656 2.75779 -3.47075 0
M  V30 745 H 67.4856 0.286065 -0.606966 0
M  V30 746 H 70.0296 0.249739 -2.02969 0
M  V30 747 H 68.1846 2.57891 -2.89086 0
M  V30 748 H 68.5986 1.75125 -4.944 0
M  V30 749 H 70.0726 3.36443 -4.37619 0
M  V30 750 H 70.5496 3.47672 -2.68367 0
M  V30 751 H 71.1556 2.13323 -3.67931 0
M  V30 752 N 69.4707 1.49531 0.497807 0
M  V30 753 C 70.4027 1.62559 1.61578 0
M  V30 754 C 71.4157 0.508134 1.54667 0
M  V30 755 O 72.6047 0.780309 1.60541 0
M  V30 756 C 69.7047 1.56925 3.00379 0
M  V30 757 C 68.8777 2.84257 3.3244 0
M  V30 758 C 67.9367 2.71632 4.50669 0
M  V30 759 O 66.9627 3.4557 4.52294 0
M  V30 760 N 68.1647 1.83391 5.5077 0
M  V30 761 H 70.9297 2.58981 1.50828 0
M  V30 762 H 68.4907 1.4666 0.685743 0
M  V30 763 H 70.4827 1.46129 3.77397 0
M  V30 764 H 69.0527 0.683483 3.05037 0
M  V30 765 H 68.2727 3.09381 2.44289 0
M  V30 766 H 69.5607 3.68666 3.5066 0
M  V30 767 H 68.9587 1.22583 5.52259 0
M  V30 768 H 67.5157 1.78515 6.26878 0
M  V30 769 N 70.9488 -0.749086 1.3866 0
M  V30 770 C 71.8818 -1.87111 1.30631 0
M  V30 771 C 72.8598 -1.61572 0.18251 0
M  V30 772 O 74.0438 -1.85019 0.360592 0
M  V30 773 C 71.1708 -3.22815 1.02511 0
M  V30 774 C 70.2168 -3.67234 2.1689 0
M  V30 775 S 71.0498 -3.78245 3.79066 0
M  V30 776 C 72.2058 -5.16761 3.53142 0
M  V30 777 H 72.4388 -1.93636 2.25594 0
M  V30 778 H 69.9718 -0.912525 1.24549 0
M  V30 779 H 71.9298 -4.01181 0.869701 0
M  V30 780 H 70.5908 -3.13964 0.0925884 0
M  V30 781 H 69.7838 -4.65677 1.92771 0
M  V30 782 H 69.3858 -2.96034 2.28561 0
M  V30 783 H 71.6778 -6.02656 3.09534 0
M  V30 784 H 72.6208 -5.45902 4.50995 0
M  V30 785 H 73.0288 -4.85771 2.87554 0
M  V30 786 N 72.4269 -1.23603 -0.977757 0
M  V30 787 C 73.6549 -1.09646 -1.75458 0
M  V30 788 C 74.0699 0.351859 -1.85492 0
M  V30 789 O 73.4269 1.24327 -1.336 0
M  V30 790 C 73.4779 -1.71895 -3.18016 0
M  V30 791 O 73.1989 -3.11063 -3.08498 0
M  V30 792 C 74.6999 -1.63415 -4.12081 0
M  V30 793 H 71.9199 -0.38359 -0.550545 0
M  V30 794 H 74.4639 -1.63507 -1.22824 0
M  V30 795 H 72.6189 -1.22061 -3.67668 0
M  V30 796 H 73.0329 -3.41305 -3.9826 0
M  V30 797 H 74.5069 -2.11669 -5.09804 0
M  V30 798 H 74.9839 -0.593462 -4.35172 0
M  V30 799 H 75.5899 -2.12628 -3.68334 0
M  V30 800 N 73.905 1.17692 -1.04816 0
M  V30 801 C 75.135 1.91508 -0.775128 0
M  V30 802 C 75.543 1.76844 0.67253 0
M  V30 803 O 74.886 1.10057 1.47082 0
M  V30 804 C 74.948 3.43167 -1.0713 0
M  V30 805 C 74.612 3.81612 -2.51438 0
M  V30 806 C 75.609 3.84772 -3.49638 0
M  V30 807 C 73.294 4.12687 -2.86348 0
M  V30 808 C 75.288 4.18469 -4.80794 0
M  V30 809 C 72.975 4.46053 -4.17708 0
M  V30 810 C 73.973 4.48921 -5.14741 0
M  V30 811 O 73.661 4.81504 -6.43746 0
M  V30 812 H 73.393 0.614575 -0.281555 0
M  V30 813 H 75.947 1.50206 -1.40098 0
M  V30 814 H 74.177 3.84745 -0.388342 0
M  V30 815 H 75.866 3.98239 -0.784883 0
M  V30 816 H 76.632 3.60893 -3.24008 0
M  V30 817 H 72.511 4.09627 -2.11486 0
M  V30 818 H 76.055 4.20623 -5.56527 0
M  V30 819 H 71.952 4.69393 -4.43103 0
M  V30 820 H 72.72 4.99377 -6.4851 0
M  V30 821 N 75.3831 0.828654 1.34056 0
M  V30 822 C 76.7991 0.515135 1.51058 0
M  V30 823 C 76.9991 -0.959581 1.77184 0
M  V30 824 O 76.0551 -1.74382 1.82612 0
M  V30 825 C 77.3681 1.37963 2.67183 0
M  V30 826 C 78.9161 1.37735 2.81066 0
M  V30 827 C 79.3911 2.22645 4.00241 0
M  V30 828 N 80.8821 2.203 4.07458 0
M  V30 829 C 81.6171 2.82744 4.98842 0
M  V30 830 N 81.1131 3.54201 5.9541 0
M  V30 831 N 82.9061 2.72268 4.91759 0
M  V30 832 H 75.0571 1.78343 1.15358 0
M  V30 833 H 77.3201 0.760304 0.566252 0
M  V30 834 H 77.0261 2.42714 2.54525 0
M  V30 835 H 76.9001 1.0484 3.62338 0
M  V30 836 H 79.2871 0.337593 2.93163 0
M  V30 837 H 79.3681 1.74859 1.86703 0
M  V30 838 H 79.0121 3.26674 3.88905 0
M  V30 839 H 78.9421 1.82869 4.93829 0
M  V30 840 H 81.4331 1.68327 3.38341 0
M  V30 841 H 81.7461 3.9908 6.61782 0
M  V30 842 H 80.0911 3.58308 5.95517 0
M  V30 843 H 83.2821 2.16014 4.15278 0
M  V30 844 H 83.4551 3.21219 5.62781 0
M  V30 845 N 76.8612 -1.46375 0.584142 0
M  V30 846 C 78.2772 -1.57694 0.245929 0
M  V30 847 C 78.4772 -1.57903 -1.25175 0
M  V30 848 O 77.5332 -1.49676 -2.03355 0
M  V30 849 C 78.8462 -2.87028 0.896402 0
M  V30 850 C 80.3942 -3.00662 0.870127 0
M  V30 851 C 80.8692 -4.32734 1.50017 0
M  V30 852 N 82.3602 -4.39436 1.46458 0
M  V30 853 C 83.0952 -5.40248 1.92144 0
M  V30 854 N 82.5912 -6.47726 2.4581 0
M  V30 855 N 84.3842 -5.31459 1.83052 0
M  V30 856 H 76.5352 -1.44483 1.55687 0
M  V30 857 H 78.7982 -0.689291 0.650831 0
M  V30 858 H 78.5042 -2.9269 1.95002 0
M  V30 859 H 78.3782 -3.75014 0.405486 0
M  V30 860 H 80.7652 -2.94581 -0.174871 0
M  V30 861 H 80.8462 -2.14148 1.39908 0
M  V30 862 H 80.4902 -4.39573 2.54437 0
M  V30 863 H 80.4202 -5.18025 0.946432 0
M  V30 864 H 82.9112 -3.62367 1.07231 0
M  V30 865 H 83.2242 -7.20863 2.78525 0
M  V30 866 H 81.5692 -6.48542 2.49836 0
M  V30 867 H 84.7602 -4.46396 1.40883 0
M  V30 868 H 84.9332 -6.09881 2.18973 0
M  V30 869 N 78.3393 -0.321999 -1.54275 0
M  V30 870 C 79.2713 0.578671 -2.21775 0
M  V30 871 C 80.2843 1.08109 -1.21722 0
M  V30 872 O 81.4733 0.994938 -1.482 0
M  V30 873 C 78.5733 1.80661 -2.86731 0
M  V30 874 C 77.7463 1.44314 -4.12907 0
M  V30 875 C 76.8053 2.52845 -4.61472 0
M  V30 876 O 75.8313 2.17054 -5.2619 0
M  V30 877 N 77.0333 3.83748 -4.35566 0
M  V30 878 H 79.7983 0.000709447 -2.997 0
M  V30 879 H 77.3593 -0.145132 -1.61248 0
M  V30 880 H 79.3513 2.52655 -3.16145 0
M  V30 881 H 77.9213 2.29245 -2.12521 0
M  V30 882 H 77.1413 0.554906 -3.90275 0
M  V30 883 H 78.4293 1.17598 -4.95023 0
M  V30 884 H 77.8273 4.15625 -3.83761 0
M  V30 885 H 76.3843 4.51977 -4.69638 0
M  V30 886 N 79.8174 1.5752 -0.0501392 0
M  V30 887 C 80.7274 2.14952 0.939827 0
M  V30 888 C 81.7434 1.10706 1.34239 0
M  V30 889 O 82.9194 1.42869 1.41952 0
M  V30 890 C 79.9844 2.68232 2.19665 0
M  V30 891 C 79.0454 3.87272 1.85253 0
M  V30 892 C 78.2784 4.38002 3.04943 0
M  V30 893 O 78.5014 3.87811 4.18281 0
M  V30 894 O 77.4354 5.29602 2.86017 0
M  V30 895 H 81.2614 2.9986 0.481392 0
M  V30 896 H 78.8464 1.4841 0.171699 0
M  V30 897 H 80.7284 3.02475 2.93406 0
M  V30 898 H 79.4034 1.86395 2.64648 0
M  V30 899 H 78.3104 3.5792 1.0883 0
M  V30 900 H 79.6434 4.70336 1.4507 0
M  V30 901 N 81.2955 -0.223234 1.56011 0
M  V30 902 C 82.5205 -0.968978 1.83373 0
M  V30 903 C 82.9455 -1.77227 0.630254 0
M  V30 904 O 82.3035 -1.76345 -0.420959 0
M  V30 905 C 82.3515 -1.86363 3.08709 0
M  V30 906 O 81.4555 -2.95873 2.87285 0
M  V30 907 H 80.7965 -0.274461 0.604622 0
M  V30 908 H 83.3265 -0.237056 2.03222 0
M  V30 909 H 83.3365 -2.27376 3.38768 0
M  V30 910 H 82.0115 -1.27319 3.95933 0
M  V30 911 H 80.5885 -2.58818 2.68454 0
M  V30 912 N 82.7736 -1.49793 -0.48987 0
M  V30 913 C 84.0196 -1.61049 -1.24236 0
M  V30 914 C 84.3746 -0.298412 -1.90072 0
M  V30 915 O 83.6676 0.702262 -1.78266 0
M  V30 916 C 83.8616 -2.71488 -2.32441 0
M  V30 917 C 83.6906 -4.13308 -1.77218 0
M  V30 918 C 82.4606 -4.79955 -1.58023 0
M  V30 919 C 84.6586 -4.98176 -1.27772 0
M  V30 920 N 82.6406 -6.06052 -0.978465 0
M  V30 921 C 84.0116 -6.14843 -0.798 0
M  V30 922 C 86.0666 -4.84091 -1.16449 0
M  V30 923 C 84.7696 -7.18975 -0.216245 0
M  V30 924 C 86.7956 -5.88382 -0.596698 0
M  V30 925 C 86.1576 -7.04285 -0.127262 0
M  V30 926 H 82.2566 -0.643611 -0.444172 0
M  V30 927 H 84.8406 -1.86842 -0.54754 0
M  V30 928 H 83.0116 -2.47449 -2.99372 0
M  V30 929 H 84.7436 -2.72205 -2.99477 0
M  V30 930 H 81.4986 -4.36936 -1.82712 0
M  V30 931 H 81.9226 -6.73407 -0.696534 0
M  V30 932 H 86.5646 -3.94786 -1.5134 0
M  V30 933 H 84.2826 -8.0797 0.144903 0
M  V30 934 H 87.8686 -5.79545 -0.511716 0
M  V30 935 H 86.7486 -7.83606 0.30523 0
M  V30 936 N 84.2517 0.741722 -1.39055 0
M  V30 937 C 85.1817 1.869 -1.39966 0
M  V30 938 C 86.1627 1.6804 -0.26392 0
M  V30 939 O 87.3477 1.88458 -0.468755 0
M  V30 940 C 84.4777 3.24572 -1.23574 0
M  V30 941 C 83.4317 3.58056 -2.34477 0
M  V30 942 C 82.7577 4.94593 -2.0318 0
M  V30 943 C 84.0577 3.61716 -3.76774 0
M  V30 944 H 85.7517 1.86395 -2.34302 0
M  V30 945 H 83.2977 0.895361 -1.1278 0
M  V30 946 H 85.2507 4.031 -1.22834 0
M  V30 947 H 83.9747 3.25587 -0.257045 0
M  V30 948 H 82.6337 2.81854 -2.34423 0
M  V30 949 H 82.2817 4.92181 -1.03765 0
M  V30 950 H 81.9817 5.17964 -2.77465 0
M  V30 951 H 83.5057 5.75486 -2.04079 0
M  V30 952 H 84.9197 4.30335 -3.78794 0
M  V30 953 H 83.3167 3.96603 -4.50362 0
M  V30 954 H 84.3867 2.61672 -4.08235 0
M  V30 955 N 85.7298 1.2412 0.971189 0
M  V30 956 C 87.1458 1.00584 1.23916 0
M  V30 957 C 87.3458 -0.287481 1.99439 0
M  V30 958 O 86.4018 -1.00454 2.31658 0
M  V30 959 C 87.7148 2.21864 2.0297 0
M  V30 960 C 89.2628 2.26452 2.16076 0
M  V30 961 C 89.7378 3.47343 2.98524 0
M  V30 962 N 91.2288 3.47639 3.06107 0
M  V30 963 C 91.9638 4.37837 3.70251 0
M  V30 964 N 91.4598 5.38286 4.36142 0
M  V30 965 N 93.2528 4.25558 3.67228 0
M  V30 966 H 85.4038 2.07236 0.465499 0
M  V30 967 H 87.6668 0.909236 0.268315 0
M  V30 968 H 87.3728 3.15771 1.54861 0
M  V30 969 H 87.2468 2.23698 3.03709 0
M  V30 970 H 89.6338 1.33078 2.6339 0
M  V30 971 H 89.7148 2.28645 1.14696 0
M  V30 972 H 89.3588 4.41029 2.51905 0
M  V30 973 H 89.2888 3.42393 4.00093 0
M  V30 974 H 91.7798 2.74966 2.59233 0
M  V30 975 H 92.0928 6.03352 4.82894 0
M  V30 976 H 90.4378 5.42176 4.34822 0
M  V30 977 H 93.6288 3.46322 3.14927 0
M  V30 978 H 93.8018 4.96054 4.16935 0
M  V30 979 N 87.2079 -1.17134 1.05439 0
M  V30 980 C 88.6189 -1.69084 0.791676 0
M  V30 981 C 88.9699 -1.83822 -0.685839 0
M  V30 982 O 88.0949 -1.52757 -1.53278 0
M  V30 983 C 88.6899 -3.07119 1.4305 0
M  V30 984 C 87.2489 -3.56225 1.21577 0
M  V30 985 C 86.3959 -2.32421 1.51247 0
M  V30 986 H 89.3469 -1.01617 1.219 0
M  V30 987 H 89.3679 -3.71087 0.84112 0
M  V30 988 H 88.8799 -2.9636 2.50584 0
M  V30 989 H 86.9809 -3.72257 0.159787 0
M  V30 990 H 87.0939 -4.38837 1.92246 0
M  V30 991 H 85.4579 -2.3701 0.932653 0
M  V30 992 H 86.2409 -2.24268 2.5992 0
M  V30 993 N 88.686 -0.835752 -1.33615 0
M  V30 994 C 89.596 -0.269088 -2.33052 0
M  V30 995 C 90.612 0.603251 -1.63208 0
M  V30 996 O 91.788 0.508112 -1.94885 0
M  V30 997 C 88.853 0.549091 -3.42324 0
M  V30 998 C 87.914 -0.347156 -4.27894 0
M  V30 999 C 87.147 0.43207 -5.31948 0
M  V30 1000 O 87.37 1.66409 -5.45586 0
M  V30 1001 O 86.304 -0.192298 -6.01593 0
M  V30 1002 H 90.13 -1.09243 -2.83372 0
M  V30 1003 H 87.715 -0.598198 -1.36901 0
M  V30 1004 H 89.597 1.01414 -4.09015 0
M  V30 1005 H 88.272 1.34955 -2.94226 0
M  V30 1006 H 87.179 -0.859979 -3.64081 0
M  V30 1007 H 88.512 -1.1123 -4.79467 0
M  V30 1008 N 90.1641 1.46063 -0.591896 0
M  V30 1009 C 91.4101 2.02638 -0.0811191 0
M  V30 1010 C 91.7431 1.4613 1.27905 0
M  V30 1011 O 91.0181 0.629908 1.84017 0
M  V30 1012 C 91.3011 3.60091 -0.0252436 0
M  V30 1013 C 91.1541 4.26965 -1.41496 0
M  V30 1014 C 92.4731 4.3496 0.670685 0
M  V30 1015 H 89.5921 0.73635 -0.0309524 0
M  V30 1016 H 92.2341 1.741 -0.760859 0
M  V30 1017 H 90.3841 3.84535 0.553624 0
M  V30 1018 H 92.0561 4.13756 -2.0397 0
M  V30 1019 H 90.2991 3.85971 -1.98011 0
M  V30 1020 H 90.9701 5.35781 -1.32825 0
M  V30 1021 H 93.4461 4.15716 0.178825 0
M  V30 1022 H 92.3221 5.44686 0.678837 0
M  V30 1023 H 92.5831 4.06685 1.73379 0
M  V30 1024 N 91.6422 0.330177 1.54103 0
M  V30 1025 C 93.0582 -0.0222371 1.59585 0
M  V30 1026 C 93.2582 -1.49902 1.34654 0
M  V30 1027 O 92.3142 -2.25592 1.13421 0
M  V30 1028 C 93.6272 0.401932 2.98002 0
M  V30 1029 C 95.1752 0.353145 3.11001 0
M  V30 1030 C 95.6502 0.752576 4.51775 0
M  V30 1031 N 97.1412 0.706239 4.57784 0
M  V30 1032 C 97.8762 0.987417 5.64834 0
M  V30 1033 N 97.3722 1.33607 6.79795 0
M  V30 1034 N 99.1652 0.91254 5.54643 0
M  V30 1035 H 91.3162 1.29228 1.68564 0
M  V30 1036 H 93.5792 0.525906 0.78875 0
M  V30 1037 H 93.2852 1.4311 3.21267 0
M  V30 1038 H 93.1592 -0.229699 3.765 0
M  V30 1039 H 95.5462 -0.666822 2.87467 0
M  V30 1040 H 95.6272 1.0198 2.34593 0
M  V30 1041 H 95.2712 1.77049 4.76042 0
M  V30 1042 H 95.2012 0.0635409 5.26562 0
M  V30 1043 H 97.6922 0.44889 3.75224 0
M  V30 1044 H 98.0052 1.53582 7.57385 0
M  V30 1045 H 96.3502 1.37439 6.81275 0
M  V30 1046 H 99.5412 0.639601 4.6371 0
M  V30 1047 H 99.7142 1.13503 6.37982 0
M  V30 1048 N 93.1203 -1.57491 0.0584922 0
M  V30 1049 C 94.3453 -1.97711 -0.62652 0
M  V30 1050 C 94.7703 -0.936132 -1.63151 0
M  V30 1051 O 94.1283 0.099811 -1.81025 0
M  V30 1052 C 94.1763 -3.36989 -1.28338 0
M  V30 1053 O 93.2803 -3.35433 -2.39913 0
M  V30 1054 H 92.6213 -0.643868 -0.162266 0
M  V30 1055 H 95.1513 -2.04193 0.129064 0
M  V30 1056 H 95.1613 -3.73879 -1.63335 0
M  V30 1057 H 93.8363 -4.12289 -0.546889 0
M  V30 1058 H 92.4133 -3.10298 -2.06809 0
M  V30 1059 N 94.5984 0.214957 -1.56127 0
M  V30 1060 C 95.5454 1.26642 -1.92952 0
M  V30 1061 C 96.5154 1.46244 -0.78753 0
M  V30 1062 O 97.7004 1.59704 -1.04399 0
M  V30 1063 C 94.8404 2.6104 -2.25726 0
M  V30 1064 C 93.9534 2.49183 -3.52891 0
M  V30 1065 C 93.0884 3.76149 -3.7508 0
M  V30 1066 C 92.1274 3.59041 -4.95738 0
M  V30 1067 N 91.2644 4.77972 -5.14283 0
M  V30 1068 H 96.1044 0.945384 -2.82607 0
M  V30 1069 H 93.6414 0.455489 -1.3987 0
M  V30 1070 H 95.5994 3.39313 -2.42739 0
M  V30 1071 H 94.2294 2.91227 -1.39236 0
M  V30 1072 H 93.2814 1.6231 -3.44034 0
M  V30 1073 H 94.5934 2.32466 -4.41318 0
M  V30 1074 H 93.7474 4.62865 -3.92226 0
M  V30 1075 H 92.4864 3.95799 -2.84947 0
M  V30 1076 H 91.4914 2.7071 -4.78535 0
M  V30 1077 H 92.7164 3.40856 -5.87362 0
M  V30 1078 H 90.6624 4.97923 -4.27093 0
M  V30 1079 H 90.5794 4.64006 -5.96853 0
M  V30 1080 H 91.8474 5.66096 -5.35869 0
M  V30 1081 N 96.0765 1.50051 0.48192 0
M  V30 1082 C 97.4925 1.37237 0.814756 0
M  V30 1083 C 97.6925 0.420109 1.97072 0
M  V30 1084 O 96.7485 -0.141246 2.52105 0
M  V30 1085 C 98.0615 2.78375 1.13701 0
M  V30 1086 C 99.6095 2.87213 1.2441 0
M  V30 1087 C 100.084 4.29161 1.59954 0
M  V30 1088 N 101.575 4.32061 1.66967 0
M  V30 1089 C 102.31 5.38879 1.95952 0
M  V30 1090 N 101.806 6.55918 2.23031 0
M  V30 1091 N 103.599 5.26312 1.97363 0
M  V30 1092 H 95.7505 2.10546 -0.28005 0
M  V30 1093 H 98.0135 0.945921 -0.0627454 0
M  V30 1094 H 97.7195 3.49845 0.360787 0
M  V30 1095 H 97.5935 3.14941 2.07586 0
M  V30 1096 H 99.9805 2.15969 2.01101 0
M  V30 1097 H 100.061 2.54204 0.285299 0
M  V30 1098 H 99.7055 5.00938 0.838067 0
M  V30 1099 H 99.6355 4.59648 2.56966 0
M  V30 1100 H 102.126 3.47661 1.48123 0
M  V30 1101 H 102.439 7.33139 2.44391 0
M  V30 1102 H 100.784 6.59112 2.20447 0
M  V30 1103 H 103.975 4.33876 1.75697 0
M  V30 1104 H 104.148 6.09649 2.19618 0
M  V30 1105 N 97.5546 -0.734337 1.39446 0
M  V30 1106 C 98.8006 -1.49613 1.36908 0
M  V30 1107 C 99.1336 -1.94169 -0.0347829 0
M  V30 1108 O 98.4086 -1.66833 -0.999847 0
M  V30 1109 C 98.6916 -2.73534 2.34203 0
M  V30 1110 C 98.5446 -2.34993 3.83534 0
M  V30 1111 C 99.8636 -3.75635 2.29317 0
M  V30 1112 H 96.9826 -0.542714 0.498629 0
M  V30 1113 H 99.6246 -0.839597 1.70443 0
M  V30 1114 H 97.7746 -3.29553 2.05736 0
M  V30 1115 H 99.4466 -1.84601 4.22753 0
M  V30 1116 H 97.6896 -1.67213 4.00278 0
M  V30 1117 H 98.3606 -3.23738 4.47099 0
M  V30 1118 H 100.837 -3.29203 2.54489 0
M  V30 1119 H 99.7126 -4.60008 2.99472 0
M  V30 1120 H 99.9736 -4.22603 1.29842 0
M  V30 1121 N 99.0327 -1.24633 -0.964593 0
M  V30 1122 C 99.9427 -1.05859 -2.09359 0
M  V30 1123 C 100.959 0.00148855 -1.74 0
M  V30 1124 O 102.135 -0.197346 -2.00431 0
M  V30 1125 C 99.1997 -0.668879 -3.40187 0
M  V30 1126 C 98.2607 -1.80578 -3.89474 0
M  V30 1127 C 97.4937 -1.43457 -5.14058 0
M  V30 1128 O 97.7167 -0.325775 -5.69469 0
M  V30 1129 O 96.6507 -2.2613 -5.57807 0
M  V30 1130 H 100.477 -2.00516 -2.28094 0
M  V30 1131 H 98.0617 -1.03481 -1.0776 0
M  V30 1132 H 99.9437 -0.463211 -4.18846 0
M  V30 1133 H 98.6187 0.248536 -3.22744 0
M  V30 1134 H 97.5257 -2.06623 -3.11862 0
M  V30 1135 H 98.8587 -2.70208 -4.11398 0
M  V30 1136 N 100.511 1.16574 -1.06058 0
M  V30 1137 C 101.461 2.18854 -0.63929 0
M  V30 1138 C 102.445 1.57505 0.328798 0
M  V30 1139 O 103.637 1.76408 0.144623 0
M  V30 1140 C 100.766 3.43291 -0.0247203 0
M  V30 1141 C 99.8518 4.11722 -1.01716 0
M  V30 1142 N 100.243 4.55841 -2.19186 0
M  V30 1143 C 98.5408 4.37872 -0.847569 0
M  V30 1144 C 99.2418 5.08751 -2.82042 0
M  V30 1145 N 98.2178 5.01489 -2.09784 0
M  V30 1146 H 102.02 2.5068 -1.53417 0
M  V30 1147 H 99.5338 1.32999 -0.931935 0
M  V30 1148 H 101.531 4.15856 0.294915 0
M  V30 1149 H 100.191 3.12954 0.865448 0
M  V30 1150 H 101.202 4.49649 -2.56975 0
M  V30 1151 H 97.8788 4.17499 -0.00918848 0
M  V30 1152 H 99.2688 5.52944 -3.81709 0
M  V30 1153 N 101.989 0.842826 1.3317 0
M  V30 1154 C 103.229 0.446574 1.99462 0
M  V30 1155 C 103.593 -0.976818 1.65295 0
M  V30 1156 O 104.794 -1.477 2.24584 0
M  V30 1157 C 103.065 0.665353 3.51152 0
M  V30 1158 S 104.624 0.364911 4.3728 0
M  V30 1159 H 101.442 0.167803 0.690915 0
M  V30 1160 H 104.044 1.09297 1.62094 0
M  V30 1161 H 102.748 1.7006 3.73507 0
M  V30 1162 H 102.279 0.00494568 3.934 0
M  V30 1163 H 104.294 -0.813761 4.89482 0
M  V30 1164 N 103.467 -1.45747 0.599634 0
M  V30 1165 C 104.399 -2.28628 -0.161879 0
M  V30 1166 C 105.412 -1.39494 -0.839367 0
M  V30 1167 O 106.601 -1.63941 -0.706089 0
M  V30 1168 C 103.701 -3.15014 -1.24976 0
M  V30 1169 C 102.874 -4.32378 -0.660935 0
M  V30 1170 C 101.933 -5.00033 -1.63869 0
M  V30 1171 O 100.959 -5.57085 -1.1681 0
M  V30 1172 N 102.161 -4.98589 -2.97303 0
M  V30 1173 H 104.926 -2.94624 0.549265 0
M  V30 1174 H 102.487 -1.55847 0.438565 0
M  V30 1175 H 104.479 -3.5714 -1.9035 0
M  V30 1176 H 103.049 -2.5098 -1.86354 0
M  V30 1177 H 102.269 -3.9383 0.170688 0
M  V30 1178 H 103.557 -5.08197 -0.247619 0
M  V30 1179 H 102.955 -4.53514 -3.38145 0
M  V30 1180 H 101.512 -5.44603 -3.58121 0
M  V30 1181 N 104.945 -0.338344 -1.53925 0
M  V30 1182 C 106.185 0.260168 -2.02737 0
M  V30 1183 C 106.549 1.48181 -1.22092 0
M  V30 1184 O 107.75 2.15416 -1.60777 0
M  V30 1185 C 106.021 0.571627 -3.52799 0
M  V30 1186 S 107.58 1.14769 -4.23525 0
M  V30 1187 H 104.398 0.077791 -0.706732 0
M  V30 1188 H 107 -0.474899 -1.89644 0
M  V30 1189 H 105.704 -0.325392 -4.09108 0
M  V30 1190 H 105.235 1.3365 -3.70002 0
M  V30 1191 H 107.25 2.43372 -4.32417 0
M  V30 1192 N 106.423 1.57458 -0.0668435 0
M  V30 1193 C 107.7 1.8469 0.644132 0
M  V30 1194 C 108.08 0.958343 1.88093 0
M  V30 1195 O 107.428 0.0233579 2.28488 0
M  V30 1196 C 107.638 3.34767 0.986509 0
M  V30 1197 C 108.986 4.02159 1.36212 0
M  V30 1198 O 110.01 3.39484 1.07839 0
M  V30 1199 O 108.869 5.12694 1.89227 0
M  V30 1200 H 105.963 0.762816 0.319437 0
M  V30 1201 H 108.509 1.6942 -0.0973986 0
M  V30 1202 H 107.281 3.91151 0.107883 0
M  V30 1203 H 106.904 3.55281 1.78497 0
M  V30 1204 N 107.901 -0.206675 1.56239 0
M  V30 1205 C 109.317 -0.557025 1.49564 0
M  V30 1206 C 109.517 -1.86424 0.764735 0
M  V30 1207 O 108.573 -2.50584 0.310491 0
M  V30 1208 C 109.886 -0.622478 2.94186 0
M  V30 1209 C 111.434 -0.712099 3.04792 0
M  V30 1210 C 111.909 -0.808767 4.50803 0
M  V30 1211 N 113.4 -0.8726 4.54907 0
M  V30 1212 C 114.135 -0.967365 5.65181 0
M  V30 1213 N 113.631 -1.02515 6.85173 0
M  V30 1214 N 115.424 -1.00366 5.53067 0
M  V30 1215 H 107.575 0.650943 2.02179 0
M  V30 1216 H 109.838 0.230387 0.919579 0
M  V30 1217 H 109.544 0.268727 3.50672 0
M  V30 1218 H 109.418 -1.4811 3.46905 0
M  V30 1219 H 111.805 -1.59374 2.48363 0
M  V30 1220 H 111.886 0.172489 2.55218 0
M  V30 1221 H 111.53 0.0684754 5.07854 0
M  V30 1222 H 111.46 -1.70899 4.98098 0
M  V30 1223 H 113.951 -0.837657 3.68499 0
M  V30 1224 H 114.264 -1.09765 7.64965 0
M  V30 1225 H 112.609 -0.994026 6.87855 0
M  V30 1226 H 115.8 -0.95527 4.58249 0
M  V30 1227 H 115.973 -1.07405 6.39037 0
M  V30 1228 N 109.379 -1.50304 -0.473955 0
M  V30 1229 C 110.627 -1.60832 -1.22382 0
M  V30 1230 C 110.948 -0.30939 -1.9253 0
M  V30 1231 O 110.218 0.67296 -1.83978 0
M  V30 1232 H 108.798 -0.592652 -0.454723 0
M  V30 1233 H 111.46 -1.87068 -0.546968 0
M  V30 1234 H 110.556 -2.41803 -1.97327 0
M  V30 1235 N 110.857 0.726932 -1.39834 0
M  V30 1236 C 111.789 1.85147 -1.35104 0
M  V30 1237 C 112.802 1.60736 -0.258392 0
M  V30 1238 O 113.991 1.70821 -0.517931 0
M  V30 1239 C 111.091 3.21332 -1.07697 0
M  V30 1240 C 110.264 3.73033 -2.28396 0
M  V30 1241 C 109.323 4.87802 -1.97322 0
M  V30 1242 O 108.349 5.01043 -2.70083 0
M  V30 1243 N 109.551 5.72768 -0.944273 0
M  V30 1244 H 112.316 1.89706 -2.32017 0
M  V30 1245 H 109.877 0.908006 -1.3404 0
M  V30 1246 H 111.869 3.95691 -0.849144 0
M  V30 1247 H 110.439 3.11992 -0.194909 0
M  V30 1248 H 109.659 2.89934 -2.6708 0
M  V30 1249 H 110.947 4.0431 -3.08887 0
M  V30 1250 H 110.345 5.64669 -0.341427 0
M  V30 1251 H 108.902 6.4716 -0.776346 0
M  V30 1252 N 112.336 1.25143 0.95797 0
M  V30 1253 C 113.299 1.05321 2.03569 0
M  V30 1254 C 114.299 0.007152 1.60798 0
M  V30 1255 O 115.489 0.24903 1.72411 0
M  V30 1256 C 112.621 0.598394 3.35607 0
M  V30 1257 H 113.814 2.00986 2.22586 0
M  V30 1258 H 111.367 1.07502 1.13459 0
M  V30 1259 H 112.102 -0.361014 3.22284 0
M  V30 1260 H 111.887 1.35351 3.67998 0
M  V30 1261 H 113.377 0.48104 4.1482 0
M  V30 1262 N 113.814 -1.1601 1.06675 0
M  V30 1263 C 115.23 -1.38622 0.790948 0
M  V30 1264 C 115.43 -1.92109 -0.607965 0
M  V30 1265 O 114.486 -2.12239 -1.36787 0
M  V30 1266 C 115.799 -2.36347 1.85905 0
M  V30 1267 C 117.347 -2.50023 1.88301 0
M  V30 1268 C 117.822 -3.51033 2.94176 0
M  V30 1269 N 119.313 -3.58563 2.93235 0
M  V30 1270 C 120.048 -4.36521 3.71803 0
M  V30 1271 N 119.544 -5.17869 4.602 0
M  V30 1272 N 121.337 -4.31541 3.60178 0
M  V30 1273 H 113.488 -0.796294 1.96908 0
M  V30 1274 H 115.751 -0.412597 0.853503 0
M  V30 1275 H 115.457 -2.04147 2.86386 0
M  V30 1276 H 115.331 -3.36042 1.71334 0
M  V30 1277 H 117.718 -2.81524 0.884769 0
M  V30 1278 H 117.799 -1.5035 2.06951 0
M  V30 1279 H 117.443 -3.20268 3.94196 0
M  V30 1280 H 117.373 -4.50445 2.72776 0
M  V30 1281 H 119.864 -3.00496 2.29152 0
M  V30 1282 H 120.177 -5.74578 5.16797 0
M  V30 1283 H 118.522 -5.17199 4.64253 0
M  V30 1284 H 121.713 -3.67051 2.90502 0
M  V30 1285 H 121.886 -4.9205 4.21653 0
M  V30 1286 N 115.292 -0.849877 -1.32721 0
M  V30 1287 C 116.532 -0.457146 -1.99222 0
M  V30 1288 C 116.896 0.968038 -1.6581 0
M  V30 1289 O 118.097 1.46507 -2.25364 0
M  V30 1290 C 116.368 -0.683966 -3.50794 0
M  V30 1291 S 117.927 -0.388095 -4.3708 0
M  V30 1292 H 114.745 -0.171464 -0.690015 0
M  V30 1293 H 117.347 -1.10155 -1.61512 0
M  V30 1294 H 116.051 -1.72038 -3.726 0
M  V30 1295 H 115.582 -0.0258086 -3.93392 0
M  V30 1296 H 117.597 0.787791 -4.89906 0
M  V30 1297 N 116.77 1.45427 -0.607355 0
M  V30 1298 C 117.72 2.27612 0.133038 0
M  V30 1299 C 118.704 1.37307 0.838785 0
M  V30 1300 O 119.896 1.61299 0.728813 0
M  V30 1301 C 117.025 3.24173 1.12991 0
M  V30 1302 C 116.111 4.21965 0.425011 0
M  V30 1303 N 116.502 5.02982 -0.533217 0
M  V30 1304 C 114.8 4.40899 0.672593 0
M  V30 1305 C 115.501 5.73931 -0.947518 0
M  V30 1306 N 114.477 5.42819 -0.291321 0
M  V30 1307 H 118.279 2.87649 -0.602935 0
M  V30 1308 H 115.793 1.56576 -0.431006 0
M  V30 1309 H 117.79 3.81783 1.67473 0
M  V30 1310 H 116.45 2.65696 1.86644 0
M  V30 1311 H 117.461 5.09843 -0.90995 0
M  V30 1312 H 114.138 3.93547 1.39382 0
M  V30 1313 H 115.528 6.49037 -1.73782 0
M  V30 1314 N 118.248 0.346503 1.53744 0
M  V30 1315 C 119.476 -0.25041 2.05379 0
M  V30 1316 C 119.891 -1.43979 1.22129 0
M  V30 1317 O 119.248 -1.80677 0.257321 0
M  V30 1318 C 119.299 -0.662575 3.55376 0
M  V30 1319 O 119.02 0.479515 4.35468 0
M  V30 1320 C 120.521 -1.31989 4.23195 0
M  V30 1321 H 117.741 -0.0478198 0.669294 0
M  V30 1322 H 120.285 0.499346 1.9831 0
M  V30 1323 H 118.44 -1.36227 3.62658 0
M  V30 1324 H 118.854 0.15037 5.24284 0
M  V30 1325 H 120.328 -1.55902 5.29527 0
M  V30 1326 H 120.805 -2.27436 3.75725 0
M  V30 1327 H 121.411 -0.662154 4.20114 0
M  V30 1328 N 119.726 -1.57421 0.075193 0
M  V30 1329 C 120.972 -1.93905 -0.594025 0
M  V30 1330 C 121.305 -0.955701 -1.69056 0
M  V30 1331 O 120.58 0.0145373 -1.94495 0
M  V30 1332 C 120.863 -3.40638 -1.1678 0
M  V30 1333 C 120.716 -4.49733 -0.0776792 0
M  V30 1334 C 122.035 -3.88259 -2.07228 0
M  V30 1335 H 119.154 -0.705105 -0.214466 0
M  V30 1336 H 121.796 -1.8947 0.141854 0
M  V30 1337 H 119.946 -3.44549 -1.79494 0
M  V30 1338 H 121.618 -4.57942 0.555573 0
M  V30 1339 H 119.861 -4.29751 0.591286 0
M  V30 1340 H 120.532 -5.49549 -0.519603 0
M  V30 1341 H 123.008 -3.86376 -1.54445 0
M  V30 1342 H 121.884 -4.91533 -2.44308 0
M  V30 1343 H 122.145 -3.26396 -2.98191 0
M  V30 1344 N 121.204 0.198386 -1.56346 0
M  V30 1345 C 122.615 0.763358 -1.70381 0
M  V30 1346 C 122.966 1.83995 -0.681203 0
M  V30 1347 O 122.091 2.15785 0.16305 0
M  V30 1348 C 122.686 1.39143 -3.08909 0
M  V30 1349 C 121.245 1.90352 -3.2472 0
M  V30 1350 C 120.392 0.772233 -2.6633 0
M  V30 1351 H 123.343 -0.0266377 -1.58678 0
M  V30 1352 H 123.364 2.26076 -3.06055 0
M  V30 1353 H 122.876 0.607638 -3.83314 0
M  V30 1354 H 120.977 2.71461 -2.55225 0
M  V30 1355 H 121.09 2.06757 -4.3219 0
M  V30 1356 H 119.454 1.18566 -2.2542 0
M  V30 1357 H 120.237 0.00073556 -3.433 0
M  V30 1358 N 122.682 1.50554 0.465978 0
M  V30 1359 C 123.928 1.62038 1.21949 0
M  V30 1360 C 124.261 0.322116 1.9151 0
M  V30 1361 O 123.536 -0.676723 1.82348 0
M  V30 1362 C 123.819 2.80421 2.25912 0
M  V30 1363 C 123.672 4.20144 1.60622 0
M  V30 1364 C 124.991 2.94354 3.27176 0
M  V30 1365 H 122.11 0.589752 0.441998 0
M  V30 1366 H 124.752 1.82956 0.51257 0
M  V30 1367 H 122.902 2.62717 2.86203 0
M  V30 1368 H 124.574 4.49449 1.03889 0
M  V30 1369 H 122.817 4.24165 0.909211 0
M  V30 1370 H 123.488 4.98914 2.36196 0
M  V30 1371 H 125.964 3.10578 2.76913 0
M  V30 1372 H 124.84 3.788 3.97242 0
M  V30 1373 H 125.101 2.05186 3.916 0
M  V30 1374 N 124.16 -0.719506 1.40217 0
M  V30 1375 C 125.108 -1.85493 1.40339 0
M  V30 1376 C 126.102 -1.66995 0.284415 0
M  V30 1377 O 127.308 -1.74148 0.455252 0
M  V30 1378 H 123.683 -0.610857 0.438586 0
M  V30 1379 H 125.654 -1.82506 2.36081 0
M  V30 1380 C 124.403 -3.23321 1.27901 0
M  V30 1381 H 123.726 -3.38159 2.1328 0
M  V30 1382 H 125.166 -4.02914 1.32045 0
M  V30 1383 C 123.625 -3.36898 -0.0111355 0
M  V30 1384 O 124.155 -3.89674 -0.975538 0
M  V30 1385 N 122.361 -2.90492 -0.0793393 0
M  V30 1386 H 121.908 -2.47731 0.706183 0
M  V30 1387 H 121.866 -2.99955 -0.942038 0
M  V30 1388 N 125.638 -1.25649 -0.95132 0
M  V30 1389 C 126.863 -1.13443 -1.73624 0
M  V30 1390 C 127.288 0.307565 -1.85568 0
M  V30 1391 O 126.646 1.22282 -1.33854 0
M  V30 1392 C 126.694 -1.79723 -3.12621 0
M  V30 1393 O 125.798 -1.07912 -3.98031 0
M  V30 1394 H 125.139 -0.395872 -0.533086 0
M  V30 1395 H 127.669 -1.66276 -1.1922 0
M  V30 1396 H 127.679 -1.86141 -3.63064 0
M  V30 1397 H 126.354 -2.84633 -3.03244 0
M  V30 1398 H 124.931 -1.09398 -3.56492 0
M  V30 1399 N 127.117 1.15442 -1.07289 0
M  V30 1400 C 128.357 1.8788 -0.805012 0
M  V30 1401 C 128.721 1.80413 0.656907 0
M  V30 1402 O 129.922 2.47874 1.0398 0
M  V30 1403 C 128.193 3.3298 -1.29843 0
M  V30 1404 S 129.752 4.23158 -1.16114 0
M  V30 1405 H 126.57 0.64839 -0.291739 0
M  V30 1406 H 129.172 1.39285 -1.37186 0
M  V30 1407 H 127.876 3.35958 -2.35712 0
M  V30 1408 H 127.407 3.86629 -0.726767 0
M  V30 1409 H 129.422 4.96103 -0.0982778 0
M  V30 1410 N 128.595 0.856903 1.32268 0
M  V30 1411 C 129.82 0.474569 2.01897 0
M  V30 1412 C 130.245 -0.921766 1.63967 0
M  V30 1413 O 129.603 -1.60589 0.84148 0
M  V30 1414 C 129.651 0.623799 3.55164 0
M  V30 1415 O 128.755 -0.342459 4.10976 0
M  V30 1416 H 128.096 0.190422 0.63611 0
M  V30 1417 H 130.626 1.15672 1.68764 0
M  V30 1418 H 130.636 0.512169 4.04773 0
M  V30 1419 H 129.311 1.64202 3.82113 0
M  V30 1420 H 127.888 -0.18688 3.72431 0
M  V30 1421 N 130.073 -1.45103 0.615059 0
M  V30 1422 C 130.983 -2.34382 -0.101034 0
M  V30 1423 C 131.999 -1.51681 -0.852585 0
M  V30 1424 O 133.175 -1.8446 -0.808484 0
M  V30 1425 C 130.24 -3.29417 -1.08099 0
M  V30 1426 C 129.301 -4.28025 -0.330577 0
M  V30 1427 C 128.534 -5.1852 -1.26385 0
M  V30 1428 O 128.757 -5.12598 -2.50198 0
M  V30 1429 O 127.691 -5.97122 -0.756866 0
M  V30 1430 H 131.517 -2.97033 0.632855 0
M  V30 1431 H 129.102 -1.4461 0.375293 0
M  V30 1432 H 130.984 -3.87958 -1.6452 0
M  V30 1433 H 129.659 -2.69321 -1.79577 0
M  V30 1434 H 128.566 -3.73078 0.276283 0
M  V30 1435 H 129.899 -4.90997 0.343866 0
M  V30 1436 N 131.551 -0.354651 -1.53558 0
M  V30 1437 C 132.962 0.126902 -1.86268 0
M  V30 1438 C 133.313 1.49075 -1.27558 0
M  V30 1439 O 132.438 2.08105 -0.5934 0
M  V30 1440 C 133.033 0.237046 -3.3797 0
M  V30 1441 C 131.592 0.662842 -3.70518 0
M  V30 1442 C 130.739 -0.196652 -2.76602 0
M  V30 1443 H 133.69 -0.573849 -1.47962 0
M  V30 1444 H 133.711 1.06259 -3.65362 0
M  V30 1445 H 133.223 -0.755725 -3.80671 0
M  V30 1446 H 131.324 1.66424 -3.33367 0
M  V30 1447 H 131.437 0.445034 -4.77029 0
M  V30 1448 H 129.801 0.332763 -2.52517 0
M  V30 1449 H 130.584 -1.18676 -3.22135 0
M  V30 1450 N 133.029 1.57378 -0.0835403 0
M  V30 1451 C 134.445 1.57246 0.273109 0
M  V30 1452 C 134.645 1.09385 1.69225 0
M  V30 1453 O 133.701 0.765051 2.40631 0
M  V30 1454 C 135.014 3.00614 0.0720628 0
M  V30 1455 C 136.562 3.12684 0.1407 0
M  V30 1456 C 137.037 4.57989 -0.0322094 0
M  V30 1457 N 138.528 4.63194 0.0230085 0
M  V30 1458 C 139.263 5.73335 -0.0861941 0
M  V30 1459 N 138.759 6.9235 -0.24958 0
M  V30 1460 N 140.552 5.62093 -0.0282886 0
M  V30 1461 H 132.703 1.86801 -1.0109 0
M  V30 1462 H 134.966 0.861687 -0.395222 0
M  V30 1463 H 134.672 3.39786 -0.907662 0
M  V30 1464 H 134.546 3.68193 0.81936 0
M  V30 1465 H 136.933 2.73391 1.11092 0
M  V30 1466 H 137.014 2.47719 -0.637896 0
M  V30 1467 H 136.658 4.97973 -0.999247 0
M  V30 1468 H 136.588 5.21 0.765937 0
M  V30 1469 H 139.079 3.77613 0.14722 0
M  V30 1470 H 139.392 7.72117 -0.324733 0
M  V30 1471 H 137.737 6.94415 -0.285097 0
M  V30 1472 H 140.928 4.67997 0.0981408 0
M  V30 1473 H 141.101 6.47895 -0.116845 0
M  V30 1474 N 134.507 -0.190092 1.56449 0
M  V30 1475 C 135.747 -0.916414 1.82705 0
M  V30 1476 C 136.111 -1.80235 0.661763 0
M  V30 1477 O 137.312 -2.56484 0.80433 0
M  V30 1478 C 135.583 -1.70691 3.14005 0
M  V30 1479 S 137.142 -2.48457 3.61683 0
M  V30 1480 H 133.96 -0.307281 0.64117 0
M  V30 1481 H 136.562 -0.179433 1.94675 0
M  V30 1482 H 135.266 -1.04677 3.96826 0
M  V30 1483 H 134.797 -2.48562 3.04927 0
M  V30 1484 H 136.812 -3.72756 3.27517 0
M  V30 1485 N 135.985 -1.50799 -0.457987 0
M  V30 1486 C 137.232 -1.62442 -1.20908 0
M  V30 1487 C 137.56 -0.330865 -1.91665 0
M  V30 1488 O 136.815 0.68401 -1.83357 0
M  V30 1489 C 137.114 -2.76358 -2.2663 0
M  V30 1490 C 136.78 -4.16378 -1.73033 0
M  V30 1491 C 135.442 -4.54473 -1.58138 0
M  V30 1492 C 137.794 -5.03836 -1.33413 0
M  V30 1493 C 135.122 -5.77754 -1.02065 0
M  V30 1494 C 137.474 -6.27676 -0.78778 0
M  V30 1495 C 136.138 -6.64562 -0.625561 0
M  V30 1496 H 135.408 -0.594417 -0.442435 0
M  V30 1497 H 138.055 -1.84772 -0.503136 0
M  V30 1498 H 136.36 -2.48167 -3.03184 0
M  V30 1499 H 138.057 -2.82568 -2.84528 0
M  V30 1500 H 134.647 -3.86331 -1.85598 0
M  V30 1501 H 138.831 -4.75026 -1.4375 0
M  V30 1502 H 134.087 -6.04997 -0.882547 0
M  V30 1503 H 138.261 -6.94797 -0.472177 0
M  V30 1504 H 135.888 -7.59965 -0.188926 0
M  V30 1505 N 137.463 0.71206 -1.40597 0
M  V30 1506 C 138.411 1.84746 -1.41321 0
M  V30 1507 C 139.405 1.66842 -0.293268 0
M  V30 1508 O 140.611 1.73904 -0.464481 0
M  V30 1509 H 136.986 0.608522 -0.441819 0
M  V30 1510 H 138.957 1.81252 -2.37045 0
M  V30 1511 C 137.706 3.22638 -1.29614 0
M  V30 1512 H 137.029 3.37023 -2.15071 0
M  V30 1513 H 138.469 4.02209 -1.3418 0
M  V30 1514 C 136.928 3.36899 -0.00673121 0
M  V30 1515 O 137.458 3.90186 0.954859 0
M  V30 1516 N 135.664 2.9053 0.0639327 0
M  V30 1517 H 135.211 2.47353 -0.719311 0
M  V30 1518 H 135.169 3.0045 0.926118 0
M  V30 1519 N 138.941 1.26152 0.944643 0
M  V30 1520 C 140.189 1.11271 1.6871 0
M  V30 1521 C 140.51 -0.345166 1.91921 0
M  V30 1522 O 139.78 -1.24387 1.51343 0
M  V30 1523 H 138.36 0.408783 0.625224 0
M  V30 1524 H 141.022 1.58427 1.1352 0
M  V30 1525 H 140.118 1.62879 2.66227 0
M  V30 1526 N 140.419 -1.14872 1.07899 0
M  V30 1527 C 141.667 -1.85422 0.803941 0
M  V30 1528 C 141.988 -1.83051 -0.67211 0
M  V30 1529 O 141.258 -1.27532 -1.48703 0
M  V30 1530 H 139.838 -0.686537 0.294408 0
M  V30 1531 H 142.5 -1.39226 1.3639 0
M  V30 1532 H 141.596 -2.90399 1.14346 0
M  V30 1533 N 141.898 -0.863906 -1.31812 0
M  V30 1534 C 143.126 -0.486111 -2.01108 0
M  V30 1535 C 143.541 0.919755 -1.64882 0
M  V30 1536 O 142.898 1.60162 -0.874893 0
M  V30 1537 C 142.949 -0.626435 -3.56031 0
M  V30 1538 O 142.67 -1.97693 -3.90959 0
M  V30 1539 C 144.171 -0.248857 -4.42601 0
M  V30 1540 H 141.391 -0.190052 -0.643523 0
M  V30 1541 H 143.935 -1.1634 -1.68182 0
M  V30 1542 H 142.09 0.00322717 -3.874 0
M  V30 1543 H 142.504 -1.98034 -4.85678 0
M  V30 1544 H 143.978 -0.398016 -5.50563 0
M  V30 1545 H 144.455 0.811489 -4.31638 0
M  V30 1546 H 145.061 -0.853971 -4.16638 0
M  V30 1547 N 143.376 1.44774 -0.622745 0
M  V30 1548 C 144.616 2.04004 -0.127102 0
M  V30 1549 C 144.98 1.47862 1.22478 0
M  V30 1550 O 146.181 1.98541 1.81204 0
M  V30 1551 C 144.452 3.57247 -0.104429 0
M  V30 1552 S 146.011 4.37574 0.327814 0
M  V30 1553 H 142.829 0.708713 -0.0569776 0
M  V30 1554 H 145.431 1.77275 -0.824253 0
M  V30 1555 H 144.135 3.95616 -1.09159 0
M  V30 1556 H 143.666 3.88575 0.614236 0
M  V30 1557 H 145.681 4.70575 1.57395 0
M  V30 1558 N 144.854 0.36279 1.53368 0
M  V30 1559 C 146.1 -0.220702 2.02199 0
M  V30 1560 C 146.455 -1.46649 1.24546 0
M  V30 1561 O 145.748 -1.88737 0.32996 0
M  V30 1562 C 145.942 -0.568417 3.52851 0
M  V30 1563 C 145.771 0.642126 4.45092 0
M  V30 1564 C 144.541 1.15335 4.91961 0
M  V30 1565 C 146.739 1.50649 4.91741 0
M  V30 1566 N 144.721 2.3242 5.68202 0
M  V30 1567 C 146.092 2.52404 5.66297 0
M  V30 1568 C 148.147 1.52969 4.73819 0
M  V30 1569 C 146.85 3.56331 6.24836 0
M  V30 1570 C 148.876 2.55789 5.33222 0
M  V30 1571 C 148.238 3.56268 6.07662 0
M  V30 1572 H 144.337 -0.0435508 0.780786 0
M  V30 1573 H 146.921 0.506704 1.87991 0
M  V30 1574 H 145.092 -1.2649 3.67226 0
M  V30 1575 H 146.824 -1.13676 3.88407 0
M  V30 1576 H 143.579 0.718412 4.68119 0
M  V30 1577 H 144.003 2.91591 6.10986 0
M  V30 1578 H 148.645 0.766418 4.15795 0
M  V30 1579 H 146.363 4.33543 6.81958 0
M  V30 1580 H 149.949 2.58435 5.21251 0
M  V30 1581 H 148.829 4.34524 6.52808 0
M  V30 1582 N 146.332 -1.57332 0.0918853 0
M  V30 1583 C 147.264 -2.10869 -0.898168 0
M  V30 1584 C 148.277 -1.04521 -1.24817 0
M  V30 1585 O 149.466 -1.31977 -1.20184 0
M  V30 1586 C 146.566 -2.57083 -2.2082 0
M  V30 1587 C 145.739 -3.87229 -2.03402 0
M  V30 1588 C 144.798 -4.19324 -3.17889 0
M  V30 1589 O 143.824 -4.88598 -2.91994 0
M  V30 1590 N 145.026 -3.74471 -4.43567 0
M  V30 1591 H 147.791 -2.96439 -0.440943 0
M  V30 1592 H 145.352 -1.61631 -0.0933064 0
M  V30 1593 H 147.344 -2.75602 -2.96354 0
M  V30 1594 H 145.914 -1.76541 -2.57977 0
M  V30 1595 H 145.134 -3.7789 -1.12218 0
M  V30 1596 H 146.422 -4.72379 -1.89038 0
M  V30 1597 H 145.82 -3.18546 -4.67488 0
M  V30 1598 H 144.377 -3.98151 -5.16061 0
M  V30 1599 N 147.81 0.181792 -1.56548 0
M  V30 1600 C 148.773 1.20894 -1.94724 0
M  V30 1601 C 149.773 1.37738 -0.829747 0
M  V30 1602 O 150.963 1.35323 -1.09697 0
M  V30 1603 C 148.095 2.57593 -2.23291 0
M  V30 1604 H 149.288 0.882275 -2.86629 0
M  V30 1605 H 146.841 0.423838 -1.50444 0
M  V30 1606 H 147.576 2.95291 -1.34067 0
M  V30 1607 H 147.361 2.46735 -3.04736 0
M  V30 1608 H 148.851 3.31637 -2.53785 0
M  V30 1609 N 149.288 1.51039 0.449983 0
M  V30 1610 C 150.534 1.63322 1.20223 0
M  V30 1611 C 150.867 0.34241 1.91158 0
M  V30 1612 O 150.142 -0.657344 1.83055 0
M  V30 1613 C 150.425 2.82801 2.22925 0
M  V30 1614 C 150.278 4.21823 1.56157 0
M  V30 1615 C 151.597 2.97807 3.24035 0
M  V30 1616 H 148.716 0.594407 0.435718 0
M  V30 1617 H 151.358 1.83489 0.493136 0
M  V30 1618 H 149.508 2.65738 2.834 0
M  V30 1619 H 151.18 4.50526 0.991162 0
M  V30 1620 H 149.423 4.25105 0.864172 0
M  V30 1621 H 150.094 5.01391 2.30891 0
M  V30 1622 H 152.57 3.13497 2.73603 0
M  V30 1623 H 151.446 3.82992 3.93202 0
M  V30 1624 H 151.707 2.09328 3.89402 0
M  V30 1625 N 150.766 -0.704594 1.40972 0
M  V30 1626 C 151.996 -1.49138 1.42974 0
M  V30 1627 C 152.404 -1.89175 0.0308406 0
M  V30 1628 O 151.747 -1.56734 -0.958138 0
M  V30 1629 C 151.809 -2.79016 2.26694 0
M  V30 1630 C 151.473 -2.61236 3.74973 0
M  V30 1631 C 152.47 -2.27773 4.67349 0
M  V30 1632 C 150.155 -2.77158 4.18914 0
M  V30 1633 C 152.149 -2.10457 6.01653 0
M  V30 1634 C 149.836 -2.59459 5.53285 0
M  V30 1635 C 150.834 -2.26158 6.4447 0
M  V30 1636 O 150.522 -2.08605 7.76363 0
M  V30 1637 H 150.254 -0.466443 0.489292 0
M  V30 1638 H 152.808 -0.8758 1.85793 0
M  V30 1639 H 151.038 -3.42947 1.78673 0
M  V30 1640 H 152.727 -3.40782 2.20504 0
M  V30 1641 H 153.493 -2.15095 4.34694 0
M  V30 1642 H 149.372 -3.02064 3.48251 0
M  V30 1643 H 152.916 -1.84387 6.72791 0
M  V30 1644 H 148.813 -2.71725 5.85522 0
M  V30 1645 H 149.581 -2.23439 7.87412 0
M  V30 1646 N 152.244 -1.26651 -0.937939 0
M  V30 1647 C 153.491 -1.12387 -1.6845 0
M  V30 1648 C 153.819 0.332208 -1.91642 0
M  V30 1649 O 153.074 1.2602 -1.49725 0
M  V30 1650 C 153.373 -1.84168 -3.06295 0
M  V30 1651 C 153.039 -3.34056 -3.02849 0
M  V30 1652 C 151.701 -3.74942 -3.01616 0
M  V30 1653 C 154.053 -4.29741 -2.9491 0
M  V30 1654 C 151.381 -5.09894 -2.90215 0
M  V30 1655 C 153.733 -5.64738 -2.8505 0
M  V30 1656 C 152.397 -6.0493 -2.82162 0
M  V30 1657 H 151.667 -0.411252 -0.616403 0
M  V30 1658 H 154.314 -1.57134 -1.09459 0
M  V30 1659 H 152.619 -1.319 -3.6893 0
M  V30 1660 H 154.316 -1.70569 -3.62915 0
M  V30 1661 H 150.906 -3.01534 -3.0459 0
M  V30 1662 H 155.09 -3.99133 -2.94969 0
M  V30 1663 H 150.346 -5.40194 -2.86358 0
M  V30 1664 H 154.52 -6.38561 -2.77872 0
M  V30 1665 H 152.147 -7.09457 -2.73084 0
M  V30 1666 N 153.722 1.14298 -1.08507 0
M  V30 1667 C 154.947 1.8976 -0.837001 0
M  V30 1668 C 155.372 1.78097 0.605228 0
M  V30 1669 O 154.73 1.12188 1.4242 0
M  V30 1670 C 154.778 3.37685 -1.26495 0
M  V30 1671 O 153.882 4.10281 -0.417514 0
M  V30 1672 H 153.223 0.590365 -0.303917 0
M  V30 1673 H 155.753 1.44672 -1.44676 0
M  V30 1674 H 155.763 3.88501 -1.24625 0
M  V30 1675 H 154.438 3.45492 -2.31534 0
M  V30 1676 H 153.015 3.69536 -0.499722 0
M  V30 1677 N 155.201 0.870884 1.31352 0
M  V30 1678 C 156.478 0.402907 1.91405 0
M  V30 1679 C 156.858 -1.11512 1.79244 0
M  V30 1680 O 156.206 -1.94411 1.2007 0
M  V30 1681 C 156.416 0.885301 3.37585 0
M  V30 1682 C 157.764 0.911971 4.14691 0
M  V30 1683 O 158.788 0.831016 3.46371 0
M  V30 1684 O 157.647 1.02927 5.3672 0
M  V30 1685 H 154.741 0.120698 0.818145 0
M  V30 1686 H 157.287 0.958857 1.40014 0
M  V30 1687 H 156.059 1.92889 3.40455 0
M  V30 1688 H 155.682 0.307714 3.96407 0
M  V30 1689 N 156.679 -1.44442 0.630414 0
M  V30 1690 C 157.926 -2.02052 0.134617 0
M  V30 1691 C 158.254 -1.49576 -1.24327 0
M  V30 1692 O 157.509 -0.669806 -1.83881 0
M  V30 1693 C 157.808 -3.57332 0.0697835 0
M  V30 1694 C 157.474 -4.29058 1.38635 0
M  V30 1695 C 156.136 -4.4837 1.74694 0
M  V30 1696 C 158.488 -4.69872 2.25543 0
M  V30 1697 C 155.816 -5.05756 2.97369 0
M  V30 1698 C 158.168 -5.28616 3.47487 0
M  V30 1699 C 156.832 -5.46147 3.8377 0
M  V30 1700 H 156.102 -0.739361 0.0492598 0
M  V30 1701 H 158.749 -1.73217 0.816586 0
M  V30 1702 H 157.054 -3.85577 -0.695553 0
M  V30 1703 H 158.751 -3.99637 -0.330344 0
M  V30 1704 H 155.341 -4.14357 1.09574 0
M  V30 1705 H 159.525 -4.54666 1.98979 0
M  V30 1706 H 154.781 -5.17515 3.25558 0
M  V30 1707 H 158.955 -5.59192 4.15063 0
M  V30 1708 H 156.582 -5.9038 4.7891 0
M  V30 1709 N 158.157 -0.370918 -1.53173 0
M  V30 1710 C 159.403 0.217423 -2.01631 0
M  V30 1711 C 159.736 1.47983 -1.25756 0
M  V30 1712 O 159.011 1.91274 -0.352764 0
M  V30 1713 C 159.294 0.503982 -3.56556 0
M  V30 1714 C 159.147 -0.77243 -4.43118 0
M  V30 1715 C 160.466 1.30234 -4.20389 0
M  V30 1716 H 157.585 0.0775486 -0.732909 0
M  V30 1717 H 160.227 -0.496863 -1.83388 0
M  V30 1718 H 158.377 1.11248 -3.72231 0
M  V30 1719 H 160.049 -1.4098 -4.39229 0
M  V30 1720 H 158.292 -1.39167 -4.10871 0
M  V30 1721 H 158.963 -0.526815 -5.4948 0
M  V30 1722 H 161.439 0.787546 -4.08579 0
M  V30 1723 H 160.315 1.47158 -5.28806 0
M  V30 1724 H 160.576 2.31237 -3.76805 0
M  V30 1725 N 159.635 1.57281 -0.100228 0
M  V30 1726 C 160.875 1.96419 0.56558 0
M  V30 1727 C 161.239 0.981265 1.65031 0
M  V30 1728 O 162.44 1.26133 2.37369 0
M  V30 1729 C 160.711 3.39996 1.10171 0
M  V30 1730 S 162.27 4.01134 1.77867 0
M  V30 1731 H 159.088 0.68667 0.184406 0
M  V30 1732 H 161.69 1.94662 -0.180851 0
M  V30 1733 H 160.394 4.09296 0.300803 0
M  V30 1734 H 159.925 3.45361 1.88385 0
M  V30 1735 H 161.94 3.90358 3.06326 0
M  V30 1736 N 161.113 -0.173488 1.56642 0
M  V30 1737 C 162.045 -1.23935 1.92802 0
M  V30 1738 C 163.058 -1.40589 0.820889 0
M  V30 1739 O 164.247 -1.40631 1.09933 0
M  V30 1740 C 161.347 -2.60837 2.16373 0
M  V30 1741 C 160.52 -2.6551 3.47596 0
M  V30 1742 C 159.579 -3.8376 3.60021 0
M  V30 1743 O 158.605 -3.69859 4.32658 0
M  V30 1744 N 159.807 -5.00127 2.94709 0
M  V30 1745 H 162.572 -0.932236 2.84832 0
M  V30 1746 H 160.133 -0.363268 1.57772 0
M  V30 1747 H 162.125 -3.38407 2.21952 0
M  V30 1748 H 160.695 -2.83948 1.30738 0
M  V30 1749 H 159.915 -1.74052 3.53694 0
M  V30 1750 H 161.203 -2.65641 4.33949 0
M  V30 1751 H 160.601 -5.14322 2.35563 0
M  V30 1752 H 159.158 -5.75567 3.05886 0
M  V30 1753 N 162.591 -1.51276 -0.441967 0
M  V30 1754 C 163.831 -1.65372 -1.20132 0
M  V30 1755 C 164.195 -0.359871 -1.88597 0
M  V30 1756 O 165.396 -0.376551 -2.66149 0
M  V30 1757 C 163.667 -2.8207 -2.1948 0
M  V30 1758 S 165.226 -3.16467 -3.03964 0
M  V30 1759 H 162.044 -0.582669 -0.407453 0
M  V30 1760 H 164.646 -1.89166 -0.493609 0
M  V30 1761 H 163.35 -3.74523 -1.67812 0
M  V30 1762 H 162.881 -2.6045 -2.94838 0
M  V30 1763 H 164.896 -2.62543 -4.21053 0
M  V30 1764 N 164.069 0.697108 -1.41344 0
M  V30 1765 C 165.48 1.27697 -1.36199 0
M  V30 1766 C 165.831 1.9615 -0.0443463 0
M  V30 1767 O 164.956 1.98689 0.857419 0
M  V30 1768 C 165.551 2.32223 -2.46694 0
M  V30 1769 C 164.11 2.8579 -2.44952 0
M  V30 1770 C 163.257 1.59807 -2.26621 0
M  V30 1771 H 166.208 0.491968 -1.50882 0
M  V30 1772 H 166.229 3.1348 -2.15664 0
M  V30 1773 H 165.741 1.82373 -3.42581 0
M  V30 1774 H 163.842 3.3982 -1.52817 0
M  V30 1775 H 163.955 3.36325 -3.41207 0
M  V30 1776 H 162.319 1.8556 -1.7447 0
M  V30 1777 H 163.102 1.11956 -3.24532 0
M  V30 1778 N 165.547 1.27147 0.931209 0
M  V30 1779 C 166.51 1.09615 2.01289 0
M  V30 1780 C 167.51 0.0412581 1.60747 0
M  V30 1781 O 168.7 0.285545 1.71844 0
M  V30 1782 C 165.832 0.669447 3.34262 0
M  V30 1783 H 167.025 2.05662 2.18273 0
M  V30 1784 H 164.578 1.09885 1.11153 0
M  V30 1785 H 165.313 -0.292572 3.22978 0
M  V30 1786 H 165.098 1.43127 3.65044 0
M  V30 1787 H 166.588 0.568921 4.13706 0
M  V30 1788 N 167.025 -1.13721 1.09112 0
M  V30 1789 C 168.273 -1.84559 0.823562 0
M  V30 1790 C 168.594 -1.83754 -0.652658 0
M  V30 1791 O 167.864 -1.29102 -1.47342 0
M  V30 1792 H 166.444 -0.683376 0.301673 0
M  V30 1793 H 169.106 -1.37771 1.37859 0
M  V30 1794 H 168.202 -2.8917 1.17419 0
M  V30 1795 N 168.503 -0.877838 -1.30888 0
M  V30 1796 C 169.733 -0.506678 -2.00291 0
M  V30 1797 C 170.141 0.907449 -1.66018 0
M  V30 1798 O 169.484 1.60719 -0.88967 0
M  V30 1799 C 169.546 -0.59323 -3.54572 0
M  V30 1800 C 169.21 -1.97038 -4.12341 0
M  V30 1801 C 170.207 -2.93889 -4.28865 0
M  V30 1802 C 167.892 -2.27383 -4.47886 0
M  V30 1803 C 169.886 -4.19224 -4.80136 0
M  V30 1804 C 167.573 -3.52965 -4.98857 0
M  V30 1805 C 168.571 -4.48701 -5.14934 0
M  V30 1806 O 168.259 -5.72056 -5.64808 0
M  V30 1807 H 167.991 -0.1951 -0.647234 0
M  V30 1808 H 170.545 -1.18301 -1.6791 0
M  V30 1809 H 168.775 0.140057 -3.86446 0
M  V30 1810 H 170.464 -0.234372 -4.05223 0
M  V30 1811 H 171.23 -2.71756 -4.01714 0
M  V30 1812 H 167.109 -1.53639 -4.34645 0
M  V30 1813 H 170.653 -4.93956 -4.92599 0
M  V30 1814 H 166.55 -3.74939 -5.25443 0
M  V30 1815 H 167.318 -5.74337 -5.83163 0
M  V30 1816 N 169.982 1.44106 -0.638065 0
M  V30 1817 C 171.21 2.06336 -0.152615 0
M  V30 1818 C 171.625 1.47731 1.17563 0
M  V30 1819 O 170.982 0.602806 1.72257 0
M  V30 1820 C 171.033 3.61479 -0.0391491 0
M  V30 1821 O 170.754 4.17903 -1.31487 0
M  V30 1822 C 172.255 4.40757 0.474176 0
M  V30 1823 H 169.475 0.665862 -0.0828776 0
M  V30 1824 H 172.019 1.84862 -0.87443 0
M  V30 1825 H 170.174 3.82191 0.633142 0
M  V30 1826 H 170.588 5.11416 -1.16421 0
M  V30 1827 H 172.062 5.49707 0.502562 0
M  V30 1828 H 172.539 4.12697 1.50258 0
M  V30 1829 H 173.145 4.24979 -0.165102 0
M  V30 1830 N 171.46 0.379036 1.52974 0
M  V30 1831 C 172.708 -0.206014 2.01047 0
M  V30 1832 C 173.029 -1.48175 1.26765 0
M  V30 1833 O 172.299 -1.92085 0.384743 0
M  V30 1834 H 170.879 -0.0791184 0.742798 0
M  V30 1835 H 173.541 0.508366 1.88153 0
M  V30 1836 H 172.637 -0.423501 3.09213 0
M  V30 1837 N 172.938 -1.57226 0.108567 0
M  V30 1838 C 173.885 -2.14756 -0.845481 0
M  V30 1839 C 174.855 -1.06971 -1.27068 0
M  V30 1840 O 176.04 -1.34827 -1.35005 0
M  V30 1841 C 173.18 -2.74298 -2.09415 0
M  V30 1842 C 172.293 -3.96358 -1.71826 0
M  V30 1843 C 171.428 -4.44021 -2.9158 0
M  V30 1844 C 170.467 -5.58637 -2.50181 0
M  V30 1845 N 169.604 -6.01091 -3.62814 0
M  V30 1846 H 174.444 -2.95961 -0.348035 0
M  V30 1847 H 171.981 -1.46226 -0.160106 0
M  V30 1848 H 173.939 -3.06945 -2.82561 0
M  V30 1849 H 172.569 -1.95801 -2.56636 0
M  V30 1850 H 171.621 -3.69939 -0.885947 0
M  V30 1851 H 172.933 -4.79504 -1.37394 0
M  V30 1852 H 172.087 -4.78522 -3.72963 0
M  V30 1853 H 170.826 -3.59803 -3.29231 0
M  V30 1854 H 169.831 -5.23751 -1.67228 0
M  V30 1855 H 171.056 -6.44613 -2.13659 0
M  V30 1856 H 169.002 -5.19817 -4.00158 0
M  V30 1857 H 168.919 -6.79066 -3.32273 0
M  V30 1858 H 170.187 -6.40227 -4.44668 0
M  V30 1859 N 174.416 0.165178 -1.56732 0
M  V30 1860 C 175.832 0.517174 -1.50988 0
M  V30 1861 C 176.032 1.84331 -0.813894 0
M  V30 1862 O 175.088 2.49672 -0.37682 0
M  V30 1863 C 176.401 0.544261 -2.95733 0
M  V30 1864 C 177.949 0.631039 -3.06573 0
M  V30 1865 C 178.424 0.68896 -4.52788 0
M  V30 1866 N 179.915 0.751683 -4.5706 0
M  V30 1867 C 180.65 0.817177 -5.67547 0
M  V30 1868 N 180.146 0.843129 -6.8765 0
M  V30 1869 N 181.939 0.856668 -5.55534 0
M  V30 1870 H 174.09 -0.704318 -2.00382 0
M  V30 1871 H 176.353 -0.254687 -0.913148 0
M  V30 1872 H 176.059 -0.361607 -3.49836 0
M  V30 1873 H 175.933 1.3886 -3.5071 0
M  V30 1874 H 178.32 1.52733 -2.52501 0
M  V30 1875 H 178.401 -0.240095 -2.54671 0
M  V30 1876 H 178.045 -0.2031 -5.07494 0
M  V30 1877 H 177.975 1.57633 -5.02454 0
M  V30 1878 H 180.466 0.739661 -3.70591 0
M  V30 1879 H 180.779 0.894448 -7.67606 0
M  V30 1880 H 179.124 0.811304 -6.90248 0
M  V30 1881 H 182.315 0.833437 -4.60621 0
M  V30 1882 H 182.488 0.904247 -6.4166 0
M  V30 1883 N 175.894 1.51508 0.433938 0
M  V30 1884 C 177.134 1.66006 1.19253 0
M  V30 1885 C 177.498 0.369868 1.88404 0
M  V30 1886 O 178.699 0.39066 2.65946 0
M  V30 1887 C 176.97 2.83229 2.17981 0
M  V30 1888 S 178.529 3.18075 3.02281 0
M  V30 1889 H 175.347 0.584821 0.404358 0
M  V30 1890 H 177.949 1.89425 0.48357 0
M  V30 1891 H 176.653 3.75407 1.65824 0
M  V30 1892 H 176.184 2.6201 2.93453 0
M  V30 1893 H 178.199 2.64772 4.19655 0
M  V30 1894 N 177.372 -0.689602 1.41712 0
M  V30 1895 C 178.282 -1.83314 1.46401 0
M  V30 1896 C 179.298 -1.7036 0.35405 0
M  V30 1897 O 180.474 -1.92171 0.602692 0
M  V30 1898 C 177.539 -3.19344 1.34982 0
M  V30 1899 C 176.6 -3.44363 2.56344 0
M  V30 1900 C 175.833 -4.73904 2.45461 0
M  V30 1901 O 176.056 -5.508 1.48241 0
M  V30 1902 O 174.99 -4.99839 3.35328 0
M  V30 1903 H 178.816 -1.82314 2.42889 0
M  V30 1904 H 176.401 -0.843438 1.23315 0
M  V30 1905 H 178.283 -4.00547 1.3092 0
M  V30 1906 H 176.958 -3.21014 0.41612 0
M  V30 1907 H 175.865 -2.63067 2.65982 0
M  V30 1908 H 177.198 -3.47512 3.48563 0
M  V30 1909 N 178.85 -1.27639 -0.924453 0
M  V30 1910 C 180.096 -1.14336 -1.67497 0
M  V30 1911 C 180.429 0.309465 -1.91718 0
M  V30 1912 O 179.704 1.22608 -1.50989 0
M  V30 1913 C 179.987 -1.93096 -3.0395 0
M  V30 1914 C 179.84 -3.46381 -2.8695 0
M  V30 1915 C 181.159 -1.73798 -4.0433 0
M  V30 1916 H 178.278 -0.416728 -0.607871 0
M  V30 1917 H 180.92 -1.56832 -1.07256 0
M  V30 1918 H 179.07 -1.56982 -3.55372 0
M  V30 1919 H 180.742 -3.92343 -2.42621 0
M  V30 1920 H 178.985 -3.72557 -2.22225 0
M  V30 1921 H 179.656 -3.96735 -3.83804 0
M  V30 1922 H 182.132 -2.05293 -3.61931 0
M  V30 1923 H 181.008 -2.31294 -4.97789 0
M  V30 1924 H 181.269 -0.686725 -4.36734 0
M  V30 1925 N 180.328 1.1314 -1.09713 0
M  V30 1926 C 181.605 1.80762 -0.747302 0
M  V30 1927 C 181.985 1.96663 0.767265 0
M  V30 1928 O 181.333 1.53706 1.69076 0
M  V30 1929 C 181.543 3.15606 -1.48975 0
M  V30 1930 C 182.891 3.90914 -1.65746 0
M  V30 1931 O 183.915 3.25239 -1.45251 0
M  V30 1932 O 182.774 5.08718 -1.9967 0
M  V30 1933 H 179.868 0.782103 -0.268782 0
M  V30 1934 H 182.414 1.20041 -1.19951 0
M  V30 1935 H 181.186 2.99278 -2.52088 0
M  V30 1936 H 180.809 3.84029 -1.02991 0
M  V30 1937 N 181.806 0.884767 1.30421 0
M  V30 1938 C 183.034 0.518044 2.0031 0
M  V30 1939 C 183.449 -0.893408 1.66324 0
M  V30 1940 O 182.806 -1.5875 0.900262 0
M  V30 1941 C 182.857 0.682997 3.54989 0
M  V30 1942 O 182.578 2.03888 3.87764 0
M  V30 1943 C 184.079 0.31924 4.42149 0
M  V30 1944 H 181.299 0.200265 0.640418 0
M  V30 1945 H 183.843 1.19001 1.6631 0
M  V30 1946 H 181.998 0.0584052 3.87356 0
M  V30 1947 H 182.412 2.05735 4.82466 0
M  V30 1948 H 183.886 0.485555 5.4986 0
M  V30 1949 H 184.363 -0.742717 4.32875 0
M  V30 1950 H 184.969 0.920147 4.15227 0
M  V30 1951 N 183.284 -1.43765 0.645699 0
M  V30 1952 C 184.7 -1.56509 0.312591 0
M  V30 1953 C 184.9 -1.6307 -1.18365 0
M  V30 1954 O 183.956 -1.58167 -1.96824 0
M  V30 1955 C 185.269 -2.82968 1.01733 0
M  V30 1956 C 186.817 -2.96701 0.996865 0
M  V30 1957 C 187.292 -4.25982 1.68236 0
M  V30 1958 N 188.783 -4.32829 1.64964 0
M  V30 1959 C 189.518 -5.31613 2.14885 0
M  V30 1960 N 189.014 -6.36718 2.73061 0
M  V30 1961 N 190.807 -5.23217 2.05428 0
M  V30 1962 H 182.958 -1.3775 1.61675 0
M  V30 1963 H 185.221 -0.661067 0.679481 0
M  V30 1964 H 184.927 -2.84156 2.0724 0
M  V30 1965 H 184.801 -3.72957 0.564177 0
M  V30 1966 H 187.188 -2.95058 -0.0497719 0
M  V30 1967 H 187.269 -2.08022 1.48865 0
M  V30 1968 H 186.913 -4.28386 2.72852 0
M  V30 1969 H 186.843 -5.13545 1.16529 0
M  V30 1970 H 189.334 -3.57493 1.22503 0
M  V30 1971 H 189.647 -7.08401 3.08848 0
M  V30 1972 H 187.992 -6.37362 2.77118 0
M  V30 1973 H 191.183 -4.40019 1.59689 0
M  V30 1974 H 191.356 -6.00045 2.44643 0
M  V30 1975 N 184.763 -0.387143 -1.52771 0
M  V30 1976 C 185.726 0.436939 -2.24997 0
M  V30 1977 C 186.726 0.991991 -1.26555 0
M  V30 1978 O 187.916 0.874335 -1.50669 0
M  V30 1979 C 185.048 1.61281 -3.00335 0
M  V30 1980 H 186.241 -0.195365 -2.99263 0
M  V30 1981 H 183.794 -0.139218 -1.55679 0
M  V30 1982 H 184.529 2.2826 -2.30364 0
M  V30 1983 H 184.314 1.22154 -3.72587 0
M  V30 1984 H 185.804 2.19629 -3.5518 0
M  V30 1985 N 186.241 1.57166 -0.116904 0
M  V30 1986 C 187.469 1.99473 0.549383 0
M  V30 1987 C 187.884 0.996541 1.60357 0
M  V30 1988 O 187.241 -0.0108731 1.82497 0
M  V30 1989 C 187.292 3.41788 1.17741 0
M  V30 1990 O 187.013 4.37788 0.165362 0
M  V30 1991 C 188.514 3.99216 1.92722 0
M  V30 1992 H 185.734 0.655009 0.145616 0
M  V30 1993 H 188.278 2.03494 -0.202625 0
M  V30 1994 H 186.433 3.38713 1.88021 0
M  V30 1995 H 186.847 5.20806 0.621403 0
M  V30 1996 H 188.321 5.00882 2.31995 0
M  V30 1997 H 188.798 3.3824 2.80161 0
M  V30 1998 H 189.404 4.0583 1.27209 0
M  V30 1999 N 187.719 -0.156864 1.56817 0
M  V30 2000 C 188.959 -0.877453 1.84608 0
M  V30 2001 C 189.323 -1.78791 0.699845 0
M  V30 2002 O 190.524 -2.5472 0.858553 0
M  V30 2003 C 188.795 -1.63992 3.17555 0
M  V30 2004 S 190.354 -2.40729 3.66872 0
M  V30 2005 H 187.172 -0.293612 0.647544 0
M  V30 2006 H 189.774 -0.138099 1.95012 0
M  V30 2007 H 188.478 -0.962363 3.98957 0
M  V30 2008 H 188.009 -2.42038 3.10131 0
M  V30 2009 H 190.024 -3.65725 3.3535 0
M  V30 2010 N 189.197 -1.51736 -0.425897 0
M  V30 2011 C 190.427 -1.68549 -1.19476 0
M  V30 2012 C 190.835 -0.387288 -1.85194 0
M  V30 2013 O 190.178 0.645142 -1.71999 0
M  V30 2014 C 190.24 -2.75275 -2.31223 0
M  V30 2015 C 189.904 -4.17534 -1.8578 0
M  V30 2016 C 190.901 -5.01936 -1.35485 0
M  V30 2017 C 188.586 -4.6369 -1.93123 0
M  V30 2018 C 190.58 -6.30559 -0.931347 0
M  V30 2019 C 188.267 -5.92307 -1.50384 0
M  V30 2020 C 189.265 -6.75569 -1.00473 0
M  V30 2021 O 188.953 -8.0178 -0.583452 0
M  V30 2022 H 188.685 -0.568525 -0.365725 0
M  V30 2023 H 191.239 -1.98982 -0.509444 0
M  V30 2024 H 189.469 -2.40182 -3.03067 0
M  V30 2025 H 191.158 -2.80853 -2.93047 0
M  V30 2026 H 191.924 -4.67475 -1.29197 0
M  V30 2027 H 187.803 -3.98997 -2.30916 0
M  V30 2028 H 191.347 -6.95498 -0.541084 0
M  V30 2029 H 187.244 -6.2628 -1.56346 0
M  V30 2030 H 188.012 -8.1543 -0.708275 0
M  V30 2031 N 190.675 0.682077 -1.42076 0
M  V30 2032 C 191.585 1.82535 -1.47371 0
M  V30 2033 C 192.601 1.7017 -0.363079 0
M  V30 2034 O 193.777 1.91848 -0.612875 0
M  V30 2035 C 190.842 3.18624 -1.36674 0
M  V30 2036 C 189.903 3.42999 -2.58167 0
M  V30 2037 C 189.136 4.72595 -2.4797 0
M  V30 2038 O 189.359 5.50006 -1.5116 0
M  V30 2039 O 188.293 4.98054 -3.37974 0
M  V30 2040 H 192.119 1.81023 -2.43853 0
M  V30 2041 H 189.704 0.836887 -1.2376 0
M  V30 2042 H 191.586 3.99847 -1.33043 0
M  V30 2043 H 190.261 3.20789 -0.433138 0
M  V30 2044 H 189.168 2.61653 -2.67373 0
M  V30 2045 H 190.501 3.45659 -3.50401 0
M  V30 2046 N 192.153 1.28127 0.917671 0
M  V30 2047 C 193.401 1.14825 1.66312 0
M  V30 2048 C 193.722 -0.304379 1.9261 0
M  V30 2049 O 192.992 -1.21149 1.53947 0
M  V30 2050 H 191.572 0.421953 0.616413 0
M  V30 2051 H 194.234 1.608 1.10134 0
M  V30 2052 H 193.33 1.68489 2.62712 0
M  V30 2053 N 193.631 -1.12557 1.10312 0
M  V30 2054 C 194.563 -2.17971 0.708625 0
M  V30 2055 C 195.576 -1.60806 -0.254027 0
M  V30 2056 O 196.765 -1.78458 -0.0386891 0
M  V30 2057 C 193.865 -3.38891 0.0248198 0
M  V30 2058 C 193.038 -4.25548 1.01132 0
M  V30 2059 C 192.097 -5.24972 0.35924 0
M  V30 2060 O 191.123 -5.60174 1.00965 0
M  V30 2061 N 192.325 -5.73747 -0.882847 0
M  V30 2062 H 195.09 -2.52427 1.61557 0
M  V30 2063 H 192.651 -1.27967 0.991771 0
M  V30 2064 H 194.643 -4.02485 -0.422852 0
M  V30 2065 H 193.213 -3.02596 -0.784514 0
M  V30 2066 H 192.433 -3.58589 1.6373 0
M  V30 2067 H 193.721 -4.80294 1.67914 0
M  V30 2068 H 193.119 -5.4731 -1.43065 0
M  V30 2069 H 191.676 -6.39234 -1.27369 0
M  V30 2070 N 195.109 -0.891671 -1.2995 0
M  V30 2071 C 196.357 -0.512486 -1.95494 0
M  V30 2072 C 196.678 0.942776 -1.70695 0
M  V30 2073 O 195.948 1.66374 -1.03424 0
M  V30 2074 H 194.528 -0.186533 -0.723336 0
M  V30 2075 H 197.19 -1.13621 -1.58355 0
M  V30 2076 H 196.286 -0.688342 -3.04415 0
M  V30 2077 N 196.587 1.43421 -0.653314 0
M  V30 2078 C 197.833 2.02111 -0.166992 0
M  V30 2079 C 198.166 1.51423 1.21592 0
M  V30 2080 O 197.441 0.707389 1.8118 0
M  V30 2081 C 197.724 3.5966 -0.177948 0
M  V30 2082 C 197.577 4.20579 -1.59478 0
M  V30 2083 C 198.896 4.37413 0.4856 0
M  V30 2084 H 196.015 0.734374 -0.0621557 0
M  V30 2085 H 198.657 1.70717 -0.834016 0
M  V30 2086 H 196.807 3.86537 0.390032 0
M  V30 2087 H 198.479 4.04732 -2.21336 0
M  V30 2088 H 196.722 3.77226 -2.14204 0
M  V30 2089 H 197.393 5.29665 -1.5543 0
M  V30 2090 H 199.869 4.161 0.00234528 0
M  V30 2091 H 198.745 5.47075 0.447207 0
M  V30 2092 H 199.006 4.13672 1.55974 0
M  V30 2093 N 198.065 0.39524 1.52563 0
M  V30 2094 C 199.293 -0.184943 2.06072 0
M  V30 2095 C 199.708 -1.40021 1.26647 0
M  V30 2096 O 199.065 -1.79767 0.314672 0
M  V30 2097 C 199.116 -0.549179 3.57304 0
M  V30 2098 O 198.837 0.617813 4.33722 0
M  V30 2099 C 200.338 -1.18459 4.2718 0
M  V30 2100 H 197.558 -0.0265025 0.670476 0
M  V30 2101 H 200.102 0.562184 1.96621 0
M  V30 2102 H 198.257 -1.2462 3.66809 0
M  V30 2103 H 198.671 0.317091 5.23541 0
M  V30 2104 H 200.145 -1.38976 5.34219 0
M  V30 2105 H 200.622 -2.15368 3.82771 0
M  V30 2106 H 201.228 -0.528163 4.22008 0
M  V30 2107 N 199.544 -1.57102 0.125237 0
M  V30 2108 C 200.774 -1.99472 -0.538015 0
M  V30 2109 C 201.182 -1.00395 -1.60366 0
M  V30 2110 O 200.525 0.0103875 -1.83697 0
M  V30 2111 C 200.587 -3.38262 -1.21734 0
M  V30 2112 C 200.251 -4.56021 -0.298897 0
M  V30 2113 C 201.248 -5.17817 0.464943 0
M  V30 2114 C 198.933 -5.01869 -0.208149 0
M  V30 2115 C 200.927 -6.23852 1.3072 0
M  V30 2116 C 198.614 -6.07763 0.637736 0
M  V30 2117 C 199.612 -6.68622 1.39403 0
M  V30 2118 O 199.3 -7.7247 2.22586 0
M  V30 2119 H 199.032 -0.659934 -0.146501 0
M  V30 2120 H 201.586 -2.04321 0.210267 0
M  V30 2121 H 199.816 -3.30185 -2.01282 0
M  V30 2122 H 201.505 -3.6488 -1.77813 0
M  V30 2123 H 202.271 -4.83308 0.404741 0
M  V30 2124 H 198.15 -4.54241 -0.786522 0
M  V30 2125 H 201.694 -6.71284 1.898 0
M  V30 2126 H 197.591 -6.41701 0.699309 0
M  V30 2127 H 198.359 -7.89595 2.15596 0
M  V30 2128 N 201.022 0.148545 -1.56898 0
M  V30 2129 C 202.438 0.501131 -1.51528 0
M  V30 2130 C 202.638 1.83458 -0.833399 0
M  V30 2131 O 201.694 2.49259 -0.40328 0
M  V30 2132 C 203.007 0.512864 -2.96294 0
M  V30 2133 C 204.555 0.598487 -3.07225 0
M  V30 2134 C 205.03 0.640897 -4.53494 0
M  V30 2135 N 206.521 0.703163 -4.57832 0
M  V30 2136 C 207.256 0.756935 -5.68382 0
M  V30 2137 N 206.752 0.770147 -6.88506 0
M  V30 2138 N 208.545 0.797698 -5.56411 0
M  V30 2139 H 200.696 -0.725532 -1.99624 0
M  V30 2140 H 202.959 -0.264358 -0.910395 0
M  V30 2141 H 202.665 -0.398691 -3.49433 0
M  V30 2142 H 202.539 1.35133 -3.52163 0
M  V30 2143 H 204.926 1.50046 -2.54106 0
M  V30 2144 H 205.007 -0.267093 -2.54402 0
M  V30 2145 H 204.651 -0.256915 -5.0725 0
M  V30 2146 H 204.581 1.52295 -5.04097 0
M  V30 2147 H 207.072 0.700314 -3.71354 0
M  V30 2148 H 207.385 0.812983 -7.68512 0
M  V30 2149 H 205.73 0.738049 -6.9107 0
M  V30 2150 H 208.921 0.784535 -4.61479 0
M  V30 2151 H 209.094 0.83614 -6.42583 0
M  V30 2152 N 202.5 1.5196 0.417844 0
M  V30 2153 C 203.748 1.65263 1.16329 0
M  V30 2154 C 204.069 0.380634 1.91249 0
M  V30 2155 O 203.339 -0.604214 1.86349 0
M  V30 2156 H 201.919 0.60912 0.432414 0
M  V30 2157 H 204.581 1.88969 0.477162 0
M  V30 2158 H 203.677 2.4896 1.88217 0
M  V30 2159 N 203.978 -0.674533 1.42435 0
M  V30 2160 C 205.206 -1.46283 1.46317 0
M  V30 2161 C 205.621 -1.88653 0.0745836 0
M  V30 2162 O 204.978 -1.58151 -0.91074 0
M  V30 2163 C 205.029 -2.71178 2.3905 0
M  V30 2164 O 204.75 -2.30586 3.72507 0
M  V30 2165 C 206.251 -3.64738 2.51955 0
M  V30 2166 H 203.471 -0.450104 0.497642 0
M  V30 2167 H 206.015 -0.828792 1.86953 0
M  V30 2168 H 204.17 -3.3077 2.01667 0
M  V30 2169 H 204.584 -3.11241 4.22172 0
M  V30 2170 H 206.058 -4.49096 3.20962 0
M  V30 2171 H 206.535 -4.10656 1.55752 0
M  V30 2172 H 207.141 -3.11038 2.90061 0
M  V30 2173 N 205.456 -1.28612 -0.910864 0
M  V30 2174 C 206.702 -1.17116 -1.66299 0
M  V30 2175 C 207.057 0.276917 -1.90397 0
M  V30 2176 O 206.35 1.19795 -1.49532 0
M  V30 2177 C 206.544 -1.90624 -3.0232 0
M  V30 2178 C 206.373 -3.42431 -2.91498 0
M  V30 2179 C 205.143 -4.11773 -2.92867 0
M  V30 2180 C 207.341 -4.38124 -2.69355 0
M  V30 2181 N 205.323 -5.50025 -2.72664 0
M  V30 2182 C 206.694 -5.63759 -2.58023 0
M  V30 2183 C 208.749 -4.28016 -2.54375 0
M  V30 2184 C 207.452 -6.80436 -2.33238 0
M  V30 2185 C 209.478 -5.44433 -2.30969 0
M  V30 2186 C 208.84 -6.69034 -2.20394 0
M  V30 2187 H 204.939 -0.483506 -0.61461 0
M  V30 2188 H 207.523 -1.62299 -1.0755 0
M  V30 2189 H 205.694 -1.4787 -3.5915 0
M  V30 2190 H 207.426 -1.71488 -3.66571 0
M  V30 2191 H 204.181 -3.63378 -3.03732 0
M  V30 2192 H 204.605 -6.22705 -2.65646 0
M  V30 2193 H 209.247 -3.32388 -2.613 0
M  V30 2194 H 206.965 -7.7613 -2.25051 0
M  V30 2195 H 210.551 -5.38504 -2.20238 0
M  V30 2196 H 209.431 -7.57595 -2.02531 0
M  V30 2197 N 206.934 1.1197 -1.10907 0
M  V30 2198 C 208.159 1.87942 -0.877064 0
M  V30 2199 C 208.584 1.79341 0.567314 0
M  V30 2200 O 207.942 1.15184 1.40009 0
M  V30 2201 C 207.99 3.34926 -1.33629 0
M  V30 2202 O 207.094 4.09303 -0.504447 0
M  V30 2203 H 206.435 0.583785 -0.316371 0
M  V30 2204 H 208.965 1.4157 -1.47712 0
M  V30 2205 H 208.975 3.8577 -1.32837 0
M  V30 2206 H 207.65 3.40504 -2.3881 0
M  V30 2207 H 206.227 3.68393 -0.577993 0
M  V30 2208 N 208.412 0.89855 1.29475 0
M  V30 2209 C 209.64 0.539261 1.99749 0
M  V30 2210 C 210.055 -0.875716 1.67262 0
M  V30 2211 O 209.412 -1.57786 0.917049 0
M  V30 2212 C 209.463 0.72061 3.54245 0
M  V30 2213 O 209.184 2.07989 3.8558 0
M  V30 2214 C 210.685 0.366118 4.41786 0
M  V30 2215 H 207.905 0.207047 0.638258 0
M  V30 2216 H 210.449 1.20758 1.65039 0
M  V30 2217 H 208.604 0.0994862 3.87272 0
M  V30 2218 H 209.018 2.10841 4.80257 0
M  V30 2219 H 210.492 0.543848 5.49314 0
M  V30 2220 H 210.969 -0.696763 4.33638 0
M  V30 2221 H 211.575 0.964135 4.14228 0
M  V30 2222 N 209.89 -1.43072 0.660911 0
M  V30 2223 C 210.853 -2.29194 -0.0166406 0
M  V30 2224 C 211.853 -1.42609 -0.742912 0
M  V30 2225 O 213.043 -1.64155 -0.583004 0
M  V30 2226 C 210.175 -3.24831 -1.0343 0
M  V30 2227 H 211.368 -2.90596 0.741208 0
M  V30 2228 H 208.921 -1.5048 0.422532 0
M  V30 2229 H 209.656 -2.68339 -1.82111 0
M  V30 2230 H 209.441 -3.88676 -0.517082 0
M  V30 2231 H 210.931 -3.89451 -1.50723 0
M  V30 2232 N 211.368 -0.403325 -1.52352 0
M  V30 2233 C 212.278 0.432009 -2.30588 0
M  V30 2234 C 213.294 1.05884 -1.38075 0
M  V30 2235 O 214.47 1.06161 -1.71148 0
M  V30 2236 C 211.535 1.53669 -3.10784 0
M  V30 2237 C 210.596 0.933525 -4.19027 0
M  V30 2238 C 209.829 1.98557 -4.9539 0
M  V30 2239 O 210.052 3.20283 -4.71991 0
M  V30 2240 O 208.986 1.59504 -5.80381 0
M  V30 2241 H 212.812 -0.205739 -3.03002 0
M  V30 2242 H 210.397 -0.166675 -1.48467 0
M  V30 2243 H 212.279 2.17814 -3.60742 0
M  V30 2244 H 210.954 2.15915 -2.41169 0
M  V30 2245 H 209.861 0.254954 -3.7323 0
M  V30 2246 H 211.194 0.35508 -4.90918 0
M  V30 2247 N 212.846 1.57033 -0.133567 0
M  V30 2248 C 214.071 2.00475 0.531477 0
M  V30 2249 C 214.496 1.01291 1.58499 0
M  V30 2250 O 213.854 -0.0133279 1.81295 0
M  V30 2251 C 213.902 3.42729 1.12113 0
M  V30 2252 O 213.006 3.46498 2.23636 0
M  V30 2253 H 212.347 0.650876 0.131362 0
M  V30 2254 H 214.877 2.03344 -0.22634 0
M  V30 2255 H 214.887 3.81246 1.4531 0
M  V30 2256 H 213.562 4.14428 0.349557 0
M  V30 2257 H 212.139 3.19811 1.91769 0
M  V30 2258 N 214.325 -0.140222 1.56975 0
M  V30 2259 C 215.741 -0.493088 1.51792 0
M  V30 2260 C 215.941 -1.83013 0.843116 0
M  V30 2261 O 214.997 -2.49041 0.416493 0
M  V30 2262 C 216.31 -0.497144 2.96562 0
M  V30 2263 C 217.858 -0.582186 3.07538 0
M  V30 2264 C 218.333 -0.616838 4.53827 0
M  V30 2265 N 219.824 -0.678873 4.58198 0
M  V30 2266 C 220.559 -0.726782 5.68775 0
M  V30 2267 N 220.055 -0.733623 6.88905 0
M  V30 2268 N 221.848 -0.768179 5.56826 0
M  V30 2269 H 213.999 0.736108 1.99237 0
M  V30 2270 H 216.262 0.269182 0.90898 0
M  V30 2271 H 215.968 0.417217 3.49217 0
M  V30 2272 H 215.842 -1.33263 3.52875 0
M  V30 2273 H 218.229 -1.48697 2.54899 0
M  V30 2274 H 218.31 0.280581 2.54257 0
M  V30 2275 H 217.954 0.283812 5.07106 0
M  V30 2276 H 217.884 -1.49619 5.04898 0
M  V30 2277 H 220.375 -0.68061 3.7172 0
M  V30 2278 H 220.688 -0.772215 7.68932 0
M  V30 2279 H 219.033 -0.701389 6.91452 0
M  V30 2280 H 222.224 -0.760051 4.61888 0
M  V30 2281 H 222.397 -0.80205 6.43017 0
M  V30 2282 N 215.803 -1.52179 -0.40978 0
M  V30 2283 C 217.049 -1.66453 -1.15851 0
M  V30 2284 C 217.382 -0.392972 -1.90182 0
M  V30 2285 O 216.657 0.608579 -1.84734 0
M  V30 2286 C 216.94 -2.88612 -2.15349 0
M  V30 2287 C 216.793 -4.25815 -1.44918 0
M  V30 2288 C 218.112 -3.06294 -3.16026 0
M  V30 2289 H 215.231 -0.60575 -0.419805 0
M  V30 2290 H 217.873 -1.84732 -0.444314 0
M  V30 2291 H 216.023 -2.73158 -2.76255 0
M  V30 2292 H 217.695 -4.52995 -0.871365 0
M  V30 2293 H 215.938 -4.27247 -0.751159 0
M  V30 2294 H 216.609 -5.07337 -2.17516 0
M  V30 2295 H 219.085 -3.20641 -2.65195 0
M  V30 2296 H 217.961 -3.93283 -3.8291 0
M  V30 2297 H 218.222 -2.19579 -3.83715 0
M  V30 2298 N 217.281 0.66697 -1.42791 0
M  V30 2299 C 218.191 1.80962 -1.49299 0
M  V30 2300 C 219.207 1.69775 -0.381108 0
M  V30 2301 O 220.383 1.91188 -0.633188 0
M  V30 2302 C 217.448 3.17156 -1.40045 0
M  V30 2303 C 216.509 3.40242 -2.6179 0
M  V30 2304 C 215.742 4.69939 -2.52969 0
M  V30 2305 O 215.965 5.48372 -1.56985 0
M  V30 2306 O 214.899 4.94441 -3.43237 0
M  V30 2307 H 218.725 1.78427 -2.45759 0
M  V30 2308 H 216.31 0.823713 -1.24641 0
M  V30 2309 H 218.192 3.98413 -1.37276 0
M  V30 2310 H 216.867 3.20312 -0.467138 0
M  V30 2311 H 215.774 2.58802 -2.70134 0
M  V30 2312 H 217.107 3.41923 -3.54047 0
M  V30 2313 N 218.759 1.29093 0.90403 0
M  V30 2314 C 219.999 1.18076 1.66845 0
M  V30 2315 C 220.363 -0.26436 1.90171 0
M  V30 2316 O 221.564 -0.497423 2.64157 0
M  V30 2317 C 219.835 1.96722 2.98388 0
M  V30 2318 S 221.394 2.0219 3.89441 0
M  V30 2319 H 218.212 0.421104 0.572881 0
M  V30 2320 H 220.814 1.63322 1.07453 0
M  V30 2321 H 219.518 3.00866 2.7912 0
M  V30 2322 H 219.049 1.52064 3.62823 0
M  V30 2323 H 221.064 1.13545 4.83034 0
M  V30 2324 N 220.237 -1.11381 1.11499 0
M  V30 2325 C 221.486 -1.82494 0.858993 0
M  V30 2326 C 221.799 -1.85605 -0.617278 0
M  V30 2327 O 223.005 -2.52824 -0.989552 0
M  V30 2328 C 221.461 -3.27745 1.48699 0
M  V30 2329 C 221.069 -3.32961 2.99735 0
M  V30 2330 C 222.813 -4.03754 1.31085 0
M  V30 2331 C 220.72 -4.72612 3.55516 0
M  V30 2332 H 219.65 -0.683802 0.317696 0
M  V30 2333 H 222.301 -1.25331 1.34031 0
M  V30 2334 H 220.683 -3.84844 0.933339 0
M  V30 2335 H 221.857 -2.85741 3.61509 0
M  V30 2336 H 220.172 -2.70433 3.16631 0
M  V30 2337 H 222.769 -5.06891 1.70192 0
M  V30 2338 H 223.112 -4.15527 0.253496 0
M  V30 2339 H 223.645 -3.53043 1.83318 0
M  V30 2340 H 220.384 -4.66036 4.60967 0
M  V30 2341 H 219.904 -5.2024 2.98513 0
M  V30 2342 H 221.583 -5.4157 3.53992 0
M  V30 2343 N 221.715 -0.905404 -1.28997 0
M  V30 2344 C 222.663 -0.377431 -2.29517 0
M  V30 2345 C 223.657 0.526461 -1.61012 0
M  V30 2346 O 224.863 0.40863 -1.753 0
M  V30 2347 H 221.238 -0.103437 -0.744852 0
M  V30 2348 H 223.209 -1.23848 -2.71485 0
M  V30 2349 C 221.958 0.374833 -3.45674 0
M  V30 2350 H 221.281 -0.311474 -3.98585 0
M  V30 2351 H 222.721 0.70903 -4.1803 0
M  V30 2352 C 221.18 1.57963 -2.97572 0
M  V30 2353 O 221.71 2.67886 -2.99333 0
M  V30 2354 N 219.916 1.42375 -2.53333 0
M  V30 2355 H 219.463 0.529466 -2.521 0
M  V30 2356 H 219.421 2.23117 -2.21509 0
M  V30 2357 N 223.193 1.4272 -0.668489 0
M  V30 2358 C 224.439 2.02443 -0.197076 0
M  V30 2359 C 224.794 1.51882 1.18109 0
M  V30 2360 O 224.087 0.708618 1.78015 0
M  V30 2361 C 224.281 3.57021 -0.164499 0
M  V30 2362 C 224.11 4.22583 -1.53797 0
M  V30 2363 C 222.88 4.58019 -2.13416 0
M  V30 2364 C 225.078 4.50588 -2.47941 0
M  V30 2365 N 223.06 5.08729 -3.4361 0
M  V30 2366 C 224.431 5.02782 -3.62782 0
M  V30 2367 C 226.486 4.32571 -2.46551 0
M  V30 2368 C 225.189 5.38852 -4.76478 0
M  V30 2369 C 227.215 4.69713 -3.59338 0
M  V30 2370 C 226.577 5.22053 -4.72906 0
M  V30 2371 H 222.676 0.773214 -0.116894 0
M  V30 2372 H 225.26 1.73673 -0.880108 0
M  V30 2373 H 223.431 3.85323 0.487925 0
M  V30 2374 H 225.163 4.03439 0.319207 0
M  V30 2375 H 221.918 4.43566 -1.65969 0
M  V30 2376 H 222.342 5.38521 -4.10273 0
M  V30 2377 H 226.984 3.91365 -1.59978 0
M  V30 2378 H 224.702 5.78993 -5.63731 0
M  V30 2379 H 228.288 4.57454 -3.59482 0
M  V30 2380 H 227.168 5.50258 -5.58736 0
M  V30 2381 N 224.671 0.411399 1.52136 0
M  V30 2382 C 225.619 -0.427633 2.28635 0
M  V30 2383 C 226.613 -1.04383 1.33419 0
M  V30 2384 O 227.819 -0.981772 1.50868 0
M  V30 2385 H 224.194 -0.156689 0.735495 0
M  V30 2386 H 226.165 0.238761 2.97443 0
M  V30 2387 C 224.914 -1.53082 3.12188 0
M  V30 2388 H 224.237 -1.06601 3.85326 0
M  V30 2389 H 225.677 -2.09167 3.68816 0
M  V30 2390 C 224.136 -2.49946 2.25895 0
M  V30 2391 O 224.666 -3.53884 1.90076 0
M  V30 2392 N 222.872 -2.2021 1.8962 0
M  V30 2393 H 222.419 -1.35719 2.18948 0
M  V30 2394 H 222.377 -2.85266 1.32176 0
M  V30 2395 N 226.149 -1.5696 0.141893 0
M  V30 2396 C 227.374 -2.00754 -0.520838 0
M  V30 2397 C 227.799 -1.0213 -1.57959 0
M  V30 2398 O 227.157 0.00371324 -1.813 0
M  V30 2399 C 227.205 -3.43318 -1.10294 0
M  V30 2400 O 226.309 -3.47679 -2.21795 0
M  V30 2401 H 225.65 -0.651564 -0.127908 0
M  V30 2402 H 228.18 -2.03221 0.23712 0
M  V30 2403 H 228.19 -3.82012 -1.43287 0
M  V30 2404 H 226.865 -4.14608 -0.327574 0
M  V30 2405 H 225.442 -3.20824 -1.9007 0
M  V30 2406 N 227.627 0.131896 -1.57047 0
M  V30 2407 C 228.852 0.860418 -1.8871 0
M  V30 2408 C 229.277 1.73251 -0.73251 0
M  V30 2409 O 228.635 1.785 0.317429 0
M  V30 2410 C 228.683 1.68047 -3.19049 0
M  V30 2411 O 227.787 2.7862 -3.04047 0
M  V30 2412 H 227.128 0.238743 -0.619595 0
M  V30 2413 H 229.658 0.118169 -2.04258 0
M  V30 2414 H 229.668 2.07238 -3.51449 0
M  V30 2415 H 228.343 1.04018 -4.02682 0
M  V30 2416 H 226.92 2.42726 -2.83088 0
M  V30 2417 N 229.106 1.52395 0.401703 0
M  V30 2418 C 230.036 1.79231 1.49661 0
M  V30 2419 C 231.017 0.643654 1.57452 0
M  V30 2420 O 232.202 0.889989 1.72606 0
M  V30 2421 C 229.332 1.94971 2.87409 0
M  V30 2422 C 228.286 3.10604 2.94465 0
M  V30 2423 C 227.612 3.11577 4.34538 0
M  V30 2424 C 228.912 4.49921 2.6527 0
M  V30 2425 H 230.606 2.70917 1.27454 0
M  V30 2426 H 228.152 1.30362 0.6117 0
M  V30 2427 H 230.105 2.12328 3.63999 0
M  V30 2428 H 228.829 0.999632 3.10926 0
M  V30 2429 H 227.488 2.93009 2.20321 0
M  V30 2430 H 227.136 2.14277 4.55076 0
M  V30 2431 H 226.836 3.89247 4.40183 0
M  V30 2432 H 228.36 3.31073 5.13053 0
M  V30 2433 H 229.774 4.67683 3.31581 0
M  V30 2434 H 228.171 5.29564 2.82281 0
M  V30 2435 H 229.241 4.57507 1.60671 0
M  V30 2436 N 230.584 -0.659388 1.43143 0
M  V30 2437 C 231.514 -1.78422 1.50625 0
M  V30 2438 C 232.495 -1.66216 0.361443 0
M  V30 2439 O 233.68 -1.85404 0.577834 0
M  V30 2440 C 230.81 -3.16815 1.42287 0
M  V30 2441 C 229.764 -3.43777 2.54954 0
M  V30 2442 C 229.09 -4.81905 2.31671 0
M  V30 2443 C 230.39 -3.39134 3.97222 0
M  V30 2444 H 232.084 -1.72417 2.44771 0
M  V30 2445 H 229.63 -0.828084 1.17808 0
M  V30 2446 H 231.583 -3.95253 1.46127 0
M  V30 2447 H 230.307 -3.23534 0.446435 0
M  V30 2448 H 228.966 -2.67707 2.50457 0
M  V30 2449 H 228.614 -4.85294 1.32284 0
M  V30 2450 H 228.314 -5.00906 3.07192 0
M  V30 2451 H 229.838 -5.62609 2.37284 0
M  V30 2452 H 231.252 -4.07518 4.03239 0
M  V30 2453 H 229.649 -3.69671 4.72719 0
M  V30 2454 H 230.719 -2.37426 4.22797 0
M  V30 2455 N 232.062 -1.29571 -0.897171 0
M  V30 2456 C 233.29 -1.20583 -1.68129 0
M  V30 2457 C 233.705 0.233181 -1.87354 0
M  V30 2458 O 233.062 1.15579 -1.41236 0
M  V30 2459 C 233.113 -1.91772 -3.06441 0
M  V30 2460 O 232.834 -3.30053 -2.88091 0
M  V30 2461 C 234.335 -1.89291 -4.00854 0
M  V30 2462 H 231.555 -0.417826 -0.525036 0
M  V30 2463 H 234.099 -1.70987 -1.12177 0
M  V30 2464 H 232.254 -1.45196 -3.59161 0
M  V30 2465 H 232.668 -3.65942 -3.75748 0
M  V30 2466 H 234.142 -2.43662 -4.95311 0
M  V30 2467 H 234.619 -0.869014 -4.30517 0
M  V30 2468 H 235.225 -2.35622 -3.54066 0
M  V30 2469 N 233.54 1.10788 -1.12088 0
M  V30 2470 C 234.956 1.34691 -0.856186 0
M  V30 2471 C 235.156 1.94791 0.515615 0
M  V30 2472 O 234.212 2.18524 1.26505 0
M  V30 2473 C 235.525 2.27208 -1.9697 0
M  V30 2474 C 237.073 2.40755 -2.00016 0
M  V30 2475 C 237.548 3.36598 -3.1059 0
M  V30 2476 N 239.039 3.44164 -3.10008 0
M  V30 2477 C 239.774 4.18284 -3.92206 0
M  V30 2478 N 239.27 4.95322 -4.84384 0
M  V30 2479 N 241.063 4.13865 -3.80357 0
M  V30 2480 H 233.214 0.70144 -2.00483 0
M  V30 2481 H 235.477 0.371405 -0.872217 0
M  V30 2482 H 235.183 1.90251 -2.958 0
M  V30 2483 H 235.057 3.27485 -1.87172 0
M  V30 2484 H 237.444 2.76982 -1.01808 0
M  V30 2485 H 237.525 1.40305 -2.13888 0
M  V30 2486 H 237.169 3.01096 -4.09028 0
M  V30 2487 H 237.099 4.36918 -2.93956 0
M  V30 2488 H 239.59 2.8922 -2.43228 0
M  V30 2489 H 239.903 5.49267 -5.43623 0
M  V30 2490 H 238.248 4.94459 -4.884 0
M  V30 2491 H 241.439 3.52773 -3.07683 0
M  V30 2492 H 241.612 4.71372 -4.44649 0
M  V30 2493 N 235.018 0.912232 1.28515 0
M  V30 2494 C 236.434 0.610159 1.47476 0
M  V30 2495 C 236.634 -0.844955 1.82928 0
M  V30 2496 O 235.69 -1.62416 1.93332 0
M  V30 2497 C 237.003 1.54675 2.57868 0
M  V30 2498 C 238.551 1.55331 2.71738 0
M  V30 2499 C 239.026 2.47649 3.85272 0
M  V30 2500 N 240.517 2.45767 3.92623 0
M  V30 2501 C 241.252 3.13896 4.79851 0
M  V30 2502 N 240.748 3.9135 5.71679 0
M  V30 2503 N 242.541 3.02991 4.73448 0
M  V30 2504 H 234.692 1.85318 1.03783 0
M  V30 2505 H 236.955 0.794777 0.516753 0
M  V30 2506 H 236.661 2.5841 2.38574 0
M  V30 2507 H 236.535 1.27671 3.54937 0
M  V30 2508 H 238.922 0.52335 2.90422 0
M  V30 2509 H 239.003 1.86378 1.75205 0
M  V30 2510 H 238.647 3.50745 3.67342 0
M  V30 2511 H 238.577 2.13904 4.81199 0
M  V30 2512 H 241.068 1.89503 3.26951 0
M  V30 2513 H 241.381 4.40359 6.35062 0
M  V30 2514 H 239.726 3.95455 5.71524 0
M  V30 2515 H 242.917 2.41987 4.007 0
M  V30 2516 H 243.09 3.5636 5.41213 0
M  V30 2517 N 236.496 -1.42363 0.676048 0
M  V30 2518 C 237.724 -2.05859 0.207268 0
M  V30 2519 C 238.139 -1.50796 -1.13605 0
M  V30 2520 O 237.496 -0.648265 -1.70598 0
M  V30 2521 C 237.547 -3.61248 0.134975 0
M  V30 2522 O 237.268 -4.1427 1.42521 0
M  V30 2523 C 238.769 -4.41859 -0.357151 0
M  V30 2524 H 235.989 -0.663431 0.100503 0
M  V30 2525 H 238.533 -1.82479 0.923136 0
M  V30 2526 H 236.688 -3.83735 -0.531588 0
M  V30 2527 H 237.102 -5.0815 1.29939 0
M  V30 2528 H 238.576 -5.50847 -0.356641 0
M  V30 2529 H 239.053 -4.16536 -1.39264 0
M  V30 2530 H 239.659 -4.24392 0.27772 0
M  V30 2531 N 237.974 -0.419461 -1.51915 0
M  V30 2532 C 239.204 0.151915 -2.06041 0
M  V30 2533 C 239.612 1.38539 -1.28855 0
M  V30 2534 O 238.955 1.80592 -0.336463 0
M  V30 2535 C 239.017 0.557119 -3.55157 0
M  V30 2536 C 238.681 -0.567054 -4.53468 0
M  V30 2537 C 239.678 -1.43379 -4.99738 0
M  V30 2538 C 237.363 -0.742693 -4.96779 0
M  V30 2539 C 239.357 -2.46102 -5.87973 0
M  V30 2540 C 237.044 -1.77322 -5.84808 0
M  V30 2541 C 238.042 -2.63078 -6.30301 0
M  V30 2542 O 237.73 -3.64364 -7.16585 0
M  V30 2543 H 237.462 0.0193293 -0.675724 0
M  V30 2544 H 240.016 -0.592073 -1.96682 0
M  V30 2545 H 238.246 1.35355 -3.62238 0
M  V30 2546 H 239.935 1.05759 -3.9188 0
M  V30 2547 H 240.701 -1.30954 -4.66986 0
M  V30 2548 H 236.58 -0.0848307 -4.60922 0
M  V30 2549 H 240.124 -3.13071 -6.23404 0
M  V30 2550 H 236.021 -1.89773 -6.16974 0
M  V30 2551 H 236.789 -3.60731 -7.34721 0
M  V30 2552 N 239.452 1.56882 -0.150215 0
M  V30 2553 C 240.4 2.18214 0.805313 0
M  V30 2554 C 241.394 1.14006 1.25296 0
M  V30 2555 O 242.6 1.3225 1.22107 0
M  V30 2556 H 238.975 0.698762 0.277913 0
M  V30 2557 H 240.946 2.97231 0.263862 0
M  V30 2558 C 239.695 2.82065 2.03309 0
M  V30 2559 H 239.018 3.61968 1.69763 0
M  V30 2560 H 240.458 3.28477 2.68103 0
M  V30 2561 C 238.917 1.80739 2.84315 0
M  V30 2562 O 239.447 1.27983 3.80767 0
M  V30 2563 N 237.653 1.4997 2.48913 0
M  V30 2564 H 237.2 1.93062 1.70542 0
M  V30 2565 H 237.158 0.824217 3.03404 0
M  V30 2566 N 240.93 -0.123565 1.57115 0
M  V30 2567 C 242.178 -0.83051 1.84247 0
M  V30 2568 C 242.499 -1.80629 0.73471 0
M  V30 2569 O 241.769 -1.94403 -0.241688 0
M  V30 2570 H 240.349 -0.309694 0.679778 0
M  V30 2571 H 243.011 -0.111976 1.94578 0
M  V30 2572 H 242.107 -1.37852 2.80006 0
M  V30 2573 N 242.408 -1.52605 -0.393616 0
M  V30 2574 C 243.824 -1.41753 -0.733357 0
M  V30 2575 C 244.024 -0.534293 -1.94287 0
M  V30 2576 O 243.08 -0.0059787 -2.52499 0
M  V30 2577 C 244.393 -2.84531 -0.972772 0
M  V30 2578 C 245.941 -2.93978 -1.07453 0
M  V30 2579 C 246.416 -4.37756 -1.3466 0
M  V30 2580 N 247.907 -4.4106 -1.41492 0
M  V30 2581 C 248.642 -5.49387 -1.642 0
M  V30 2582 N 248.138 -6.67806 -1.8441 0
M  V30 2583 N 249.931 -5.36923 -1.66342 0
M  V30 2584 H 242.082 -2.08555 0.402328 0
M  V30 2585 H 244.345 -0.940654 0.117789 0
M  V30 2586 H 244.051 -3.51353 -0.156204 0
M  V30 2587 H 243.925 -3.26508 -1.88871 0
M  V30 2588 H 246.312 -2.27326 -1.88167 0
M  V30 2589 H 246.393 -2.55435 -0.136605 0
M  V30 2590 H 246.037 -5.04972 -0.544581 0
M  V30 2591 H 245.967 -4.73848 -2.2973 0
M  V30 2592 H 248.458 -3.55705 -1.27601 0
M  V30 2593 H 248.771 -7.46141 -2.01231 0
M  V30 2594 H 247.116 -6.70843 -1.81644 0
M  V30 2595 H 250.307 -4.43381 -1.50102 0
M  V30 2596 H 250.48 -6.21416 -1.837 0
M  V30 2597 N 243.887 0.651787 -1.4349 0
M  V30 2598 C 244.82 1.77668 -1.43211 0
M  V30 2599 C 245.798 1.59931 -0.29338 0
M  V30 2600 O 246.982 1.82095 -0.487191 0
M  V30 2601 C 244.109 3.14986 -1.24505 0
M  V30 2602 C 243.155 3.51421 -2.41673 0
M  V30 2603 S 243.988 3.51234 -4.04222 0
M  V30 2604 C 245.144 4.91206 -3.87902 0
M  V30 2605 H 245.377 1.77635 -2.38397 0
M  V30 2606 H 242.91 0.824558 -1.30539 0
M  V30 2607 H 244.868 3.94237 -1.144 0
M  V30 2608 H 243.529 3.1258 -0.308651 0
M  V30 2609 H 242.722 4.51291 -2.24393 0
M  V30 2610 H 242.324 2.79585 -2.48411 0
M  V30 2611 H 244.616 5.79902 -3.50315 0
M  V30 2612 H 245.559 5.13537 -4.8753 0
M  V30 2613 H 245.967 4.64808 -3.20334 0
M  V30 2614 N 245.365 1.30045 0.890287 0
M  V30 2615 C 246.776 1.16738 1.45702 0
M  V30 2616 C 247.127 -0.233939 1.948 0
M  V30 2617 O 246.252 -1.13021 1.84541 0
M  V30 2618 C 246.847 2.11313 2.64825 0
M  V30 2619 C 245.406 2.02001 3.17604 0
M  V30 2620 C 244.553 2.01699 1.90296 0
M  V30 2621 H 247.504 1.42392 0.700726 0
M  V30 2622 H 247.525 1.69086 3.40867 0
M  V30 2623 H 247.037 3.13294 2.2906 0
M  V30 2624 H 245.138 1.03142 3.5804 0
M  V30 2625 H 245.251 2.90128 3.81264 0
M  V30 2626 H 243.615 1.46427 2.08402 0
M  V30 2627 H 244.398 3.05402 1.56795 0
M  V30 2628 N 246.843 -1.10192 1.12674 0
M  V30 2629 C 248.12 -1.78717 0.794965 0
M  V30 2630 C 248.5 -1.98628 -0.714853 0
M  V30 2631 O 247.848 -1.58135 -1.64941 0
M  V30 2632 C 248.058 -3.11546 1.5729 0
M  V30 2633 C 249.406 -3.86382 1.76052 0
M  V30 2634 O 250.43 -3.21274 1.53823 0
M  V30 2635 O 249.289 -5.03246 2.13087 0
M  V30 2636 H 246.383 -0.774702 0.289423 0
M  V30 2637 H 248.929 -1.16819 1.23091 0
M  V30 2638 H 247.701 -2.92489 2.59935 0
M  V30 2639 H 247.324 -3.81164 1.13137 0
M  V30 2640 N 248.321 -0.919034 -1.28029 0
M  V30 2641 C 249.284 -0.416182 -2.2539 0
M  V30 2642 C 250.284 0.460438 -1.54067 0
M  V30 2643 O 251.474 0.262744 -1.72207 0
M  V30 2644 C 248.606 0.402707 -3.38513 0
M  V30 2645 H 249.799 -1.27629 -2.71387 0
M  V30 2646 H 247.352 -0.698919 -1.39803 0
M  V30 2647 H 248.087 1.282 -2.97885 0
M  V30 2648 H 247.872 -0.225698 -3.9145 0
M  V30 2649 H 249.362 0.745191 -4.10897 0
M  V30 2650 N 249.799 1.42003 -0.683588 0
M  V30 2651 C 251.046 2.01413 -0.209514 0
M  V30 2652 C 251.374 1.54088 1.1869 0
M  V30 2653 O 250.629 0.737591 1.81268 0
M  V30 2654 C 250.928 3.56827 -0.202357 0
M  V30 2655 C 250.594 4.23617 -1.54464 0
M  V30 2656 C 249.256 4.41577 -1.91215 0
M  V30 2657 C 251.608 4.61178 -2.42826 0
M  V30 2658 C 248.936 4.9437 -3.15935 0
M  V30 2659 C 251.288 5.15355 -3.66867 0
M  V30 2660 C 249.952 5.31528 -4.03776 0
M  V30 2661 H 249.222 0.737023 -0.0766668 0
M  V30 2662 H 251.869 1.70067 -0.880312 0
M  V30 2663 H 250.174 3.87892 0.551969 0
M  V30 2664 H 251.871 4.00588 0.181793 0
M  V30 2665 H 248.461 4.10004 -1.24877 0
M  V30 2666 H 252.645 4.46968 -2.15717 0
M  V30 2667 H 247.901 5.05076 -3.44541 0
M  V30 2668 H 252.075 5.43402 -4.35531 0
M  V30 2669 H 249.702 5.72199 -5.00492 0
M  V30 2670 N 251.277 0.427512 1.51691 0
M  V30 2671 C 252.225 -0.403359 2.29076 0
M  V30 2672 C 253.219 -1.02962 1.34518 0
M  V30 2673 O 254.425 -0.965715 1.51901 0
M  V30 2674 H 250.8 -0.148879 0.737115 0
M  V30 2675 H 252.771 0.270295 2.97173 0
M  V30 2676 C 251.52 -1.49763 3.13794 0
M  V30 2677 H 250.843 -1.02508 3.86435 0
M  V30 2678 H 252.283 -2.05244 3.71014 0
M  V30 2679 C 250.742 -2.47536 2.28533 0
M  V30 2680 O 251.272 -3.51848 1.93819 0
M  V30 2681 N 249.478 -2.18187 1.91945 0
M  V30 2682 H 249.025 -1.33389 2.20375 0
M  V30 2683 H 248.983 -2.83848 1.35195 0
M  V30 2684 N 252.755 -1.56801 0.158532 0
M  V30 2685 C 253.685 -2.20347 -0.772609 0
M  V30 2686 C 254.666 -1.15518 -1.24859 0
M  V30 2687 O 255.851 -1.43902 -1.30406 0
M  V30 2688 C 252.981 -2.83417 -2.00729 0
M  V30 2689 C 251.935 -3.94174 -1.66765 0
M  V30 2690 C 251.261 -4.44233 -2.97592 0
M  V30 2691 C 252.561 -5.14392 -0.905447 0
M  V30 2692 H 254.255 -2.98413 -0.242959 0
M  V30 2693 H 251.801 -1.43537 -0.115419 0
M  V30 2694 H 253.754 -3.26543 -2.6636 0
M  V30 2695 H 252.478 -2.02701 -2.56086 0
M  V30 2696 H 251.137 -3.51684 -1.03508 0
M  V30 2697 H 250.785 -3.60325 -3.50963 0
M  V30 2698 H 250.485 -5.18945 -2.75626 0
M  V30 2699 H 252.009 -4.90037 -3.64274 0
M  V30 2700 H 253.423 -5.5429 -1.46408 0
M  V30 2701 H 251.82 -5.9494 -0.7853 0
M  V30 2702 H 252.89 -4.84795 0.100668 0
M  V30 2703 N 254.233 0.115231 -1.57178 0
M  V30 2704 C 255.481 0.820727 -1.84685 0
M  V30 2705 C 255.802 1.80237 -0.744279 0
M  V30 2706 O 255.072 1.94529 0.231375 0
M  V30 2707 H 253.652 0.306084 -0.681411 0
M  V30 2708 H 256.314 0.101656 -1.94635 0
M  V30 2709 H 255.41 1.36366 -2.80733 0
M  V30 2710 N 255.711 1.52812 0.385517 0
M  V30 2711 C 256.641 1.80808 1.47752 0
M  V30 2712 C 257.622 0.660318 1.5676 0
M  V30 2713 O 258.807 0.908246 1.71652 0
M  V30 2714 C 255.937 1.98008 2.85324 0
M  V30 2715 C 254.891 3.13709 2.91154 0
M  V30 2716 C 254.217 3.16169 4.31209 0
M  V30 2717 C 255.517 4.52709 2.60483 0
M  V30 2718 H 257.211 2.72253 1.24573 0
M  V30 2719 H 254.757 1.31003 0.597839 0
M  V30 2720 H 256.71 2.16176 3.61726 0
M  V30 2721 H 255.434 1.03255 3.09848 0
M  V30 2722 H 254.093 2.95329 2.17201 0
M  V30 2723 H 253.741 2.19092 4.52778 0
M  V30 2724 H 253.441 3.93894 4.36029 0
M  V30 2725 H 254.965 3.36496 5.09512 0
M  V30 2726 H 256.379 4.71173 3.26602 0
M  V30 2727 H 254.776 5.32528 2.76648 0
M  V30 2728 H 255.846 4.59186 1.55809 0
M  V30 2729 N 257.189 -0.644168 1.43834 0
M  V30 2730 C 258.437 -1.40117 1.45642 0
M  V30 2731 C 258.758 -1.94814 0.0852413 0
M  V30 2732 O 258.028 -1.74988 -0.880688 0
M  V30 2733 H 256.608 -0.52005 0.536243 0
M  V30 2734 H 259.27 -0.7591 1.7951 0
M  V30 2735 H 258.366 -2.23902 2.17427 0
M  V30 2736 N 258.668 -1.30515 -0.883378 0
M  V30 2737 C 259.616 -1.16941 -2.01066 0
M  V30 2738 C 260.61 -0.0809148 -1.69207 0
M  V30 2739 O 261.816 -0.241877 -1.78367 0
M  V30 2740 H 258.191 -0.361705 -0.659298 0
M  V30 2741 H 260.162 -2.12344 -2.09649 0
M  V30 2742 C 258.911 -0.879694 -3.36388 0
M  V30 2743 H 258.234 -1.70936 -3.61415 0
M  V30 2744 H 259.674 -0.82483 -4.159 0
M  V30 2745 C 258.133 0.417409 -3.34304 0
M  V30 2746 O 258.663 1.43843 -3.75063 0
M  V30 2747 N 256.869 0.429141 -2.87414 0
M  V30 2748 H 256.416 -0.402222 -2.5444 0
M  V30 2749 H 256.374 1.29696 -2.86403 0
M  V30 2750 N 260.146 1.09593 -1.13257 0
M  V30 2751 C 261.096 2.14345 -0.777179 0
M  V30 2752 C 262.08 1.59277 0.227966 0
M  V30 2753 O 263.272 1.76971 0.0321413 0
M  V30 2754 C 260.401 3.42439 -0.242991 0
M  V30 2755 C 259.487 4.04419 -1.27694 0
M  V30 2756 N 259.878 4.40979 -2.47732 0
M  V30 2757 C 258.176 4.31596 -1.12432 0
M  V30 2758 C 258.877 4.89784 -3.13826 0
M  V30 2759 N 257.853 4.87133 -2.41252 0
M  V30 2760 H 261.655 2.40415 -1.69049 0
M  V30 2761 H 259.169 1.26803 -1.01463 0
M  V30 2762 H 261.166 4.16889 0.0298496 0
M  V30 2763 H 259.826 3.17824 0.66467 0
M  V30 2764 H 260.837 4.32396 -2.85051 0
M  V30 2765 H 257.514 4.16595 -0.274684 0
M  V30 2766 H 258.904 5.2755 -4.16102 0
M  V30 2767 N 261.624 0.925811 1.2754 0
M  V30 2768 C 262.572 0.413897 2.28888 0
M  V30 2769 C 263.566 -0.500779 1.61829 0
M  V30 2770 O 264.772 -0.38069 1.75928 0
M  V30 2771 H 261.147 0.115274 0.743112 0
M  V30 2772 H 263.118 1.28151 2.69481 0
M  V30 2773 C 261.867 -0.319792 3.46226 0
M  V30 2774 H 261.19 0.374846 3.98039 0
M  V30 2775 H 262.63 -0.642435 4.19105 0
M  V30 2776 C 261.089 -1.53209 3.00048 0
M  V30 2777 O 261.619 -2.6309 3.03557 0
M  V30 2778 N 259.825 -1.38326 2.55566 0
M  V30 2779 H 259.372 -0.489292 2.5291 0
M  V30 2780 H 259.33 -2.19564 2.25031 0
M  V30 2781 N 263.102 -1.41638 0.69111 0
M  V30 2782 C 264.332 -2.0533 0.228758 0
M  V30 2783 C 264.74 -1.52089 -1.12541 0
M  V30 2784 O 264.083 -0.662145 -1.71351 0
M  V30 2785 C 264.145 -3.59349 0.10407 0
M  V30 2786 C 263.809 -4.35362 1.38956 0
M  V30 2787 C 264.806 -4.64942 2.32648 0
M  V30 2788 C 262.491 -4.74714 1.64169 0
M  V30 2789 C 264.485 -5.32828 3.49818 0
M  V30 2790 C 262.172 -5.42338 2.81625 0
M  V30 2791 C 263.17 -5.71322 3.74273 0
M  V30 2792 O 262.858 -6.37554 4.89673 0
M  V30 2793 H 262.59 -0.667796 0.104997 0
M  V30 2794 H 265.144 -1.82477 0.942938 0
M  V30 2795 H 263.374 -3.80924 -0.665839 0
M  V30 2796 H 265.063 -4.04633 -0.320519 0
M  V30 2797 H 265.829 -4.35025 2.14425 0
M  V30 2798 H 261.708 -4.51538 0.929202 0
M  V30 2799 H 265.252 -5.55368 4.22152 0
M  V30 2800 H 261.149 -5.71673 2.99768 0
M  V30 2801 H 261.917 -6.56049 4.8943 0
M  V30 2802 N 264.58 -0.43555 -1.51462 0
M  V30 2803 C 265.82 0.130708 -2.03982 0
M  V30 2804 C 266.184 1.40117 -1.31268 0
M  V30 2805 O 267.385 2.04755 -1.74152 0
M  V30 2806 C 265.656 0.346102 -3.5572 0
M  V30 2807 S 267.215 0.876022 -4.29967 0
M  V30 2808 H 264.033 0.0326881 -0.710248 0
M  V30 2809 H 266.635 -0.594544 -1.8624 0
M  V30 2810 H 265.339 -0.584911 -4.0621 0
M  V30 2811 H 264.87 1.09849 -3.77752 0
M  V30 2812 H 266.885 2.15379 -4.47019 0
M  V30 2813 N 266.058 1.56714 -0.166846 0
M  V30 2814 C 267.474 1.58473 0.189372 0
M  V30 2815 C 267.674 1.18201 1.63189 0
M  V30 2816 O 266.73 0.891528 2.36237 0
M  V30 2817 C 268.043 3.00573 -0.0873872 0
M  V30 2818 C 269.591 3.1299 -0.0252443 0
M  V30 2819 C 270.066 4.57174 -0.274934 0
M  V30 2820 N 271.557 4.62665 -0.222553 0
M  V30 2821 C 272.292 5.72072 -0.389985 0
M  V30 2822 N 271.788 6.90054 -0.616229 0
M  V30 2823 N 273.581 5.61153 -0.326202 0
M  V30 2824 H 265.732 1.8118 -1.10849 0
M  V30 2825 H 267.995 0.839525 -0.440342 0
M  V30 2826 H 267.701 3.34497 -1.0865 0
M  V30 2827 H 267.575 3.72019 0.623037 0
M  V30 2828 H 269.962 2.78895 0.96444 0
M  V30 2829 H 270.043 2.43989 -0.768309 0
M  V30 2830 H 269.687 4.91976 -1.26181 0
M  V30 2831 H 269.617 5.24328 0.48869 0
M  V30 2832 H 272.108 3.77863 -0.0531512 0
M  V30 2833 H 272.421 7.69311 -0.733559 0
M  V30 2834 H 270.766 6.91927 -0.652791 0
M  V30 2835 H 273.957 4.67859 -0.150072 0
M  V30 2836 H 274.13 6.46364 -0.460116 0
M  V30 2837 N 267.536 -0.106894 1.57237 0
M  V30 2838 C 268.484 -1.14944 2.02215 0
M  V30 2839 C 269.478 -1.42167 0.92114 0
M  V30 2840 O 270.684 -1.41987 1.10634 0
M  V30 2841 H 267.059 -0.387841 0.64427 0
M  V30 2842 H 269.03 -0.743683 2.88984 0
M  V30 2843 C 267.779 -2.4647 2.4525 0
M  V30 2844 H 267.102 -2.26363 3.29545 0
M  V30 2845 H 268.542 -3.17948 2.80508 0
M  V30 2846 C 267.001 -3.09921 1.321 0
M  V30 2847 O 267.531 -3.9651 0.643622 0
M  V30 2848 N 265.737 -2.69986 1.07497 0
M  V30 2849 H 265.284 -1.99667 1.62761 0
M  V30 2850 H 265.242 -3.12769 0.319876 0
M  V30 2851 N 269.014 -1.53014 -0.377408 0
M  V30 2852 C 270.425 -1.60438 -0.954798 0
M  V30 2853 C 270.776 -0.464418 -1.90624 0
M  V30 2854 O 269.901 0.41087 -2.12464 0
M  V30 2855 C 270.496 -2.90797 -1.73847 0
M  V30 2856 C 269.055 -3.00595 -2.26538 0
M  V30 2857 C 268.202 -2.55645 -1.07429 0
M  V30 2858 H 271.153 -1.57926 -0.156575 0
M  V30 2859 H 271.174 -2.77935 -2.5987 0
M  V30 2860 H 270.686 -3.73746 -1.04574 0
M  V30 2861 H 268.787 -2.22208 -2.99089 0
M  V30 2862 H 268.9 -4.05456 -2.5523 0
M  V30 2863 H 267.264 -2.10239 -1.43777 0
M  V30 2864 H 268.047 -3.41 -0.396728 0
M  V30 2865 N 270.492 0.636531 -1.44174 0
M  V30 2866 C 271.44 1.76995 -1.50915 0
M  V30 2867 C 272.434 1.65053 -0.381295 0
M  V30 2868 O 273.64 1.71197 -0.55601 0
M  V30 2869 H 270.015 0.584247 -0.473455 0
M  V30 2870 H 271.986 1.68432 -2.4632 0
M  V30 2871 C 270.735 3.15314 -1.46534 0
M  V30 2872 H 270.058 3.25149 -2.32633 0
M  V30 2873 H 271.498 3.9453 -1.55312 0
M  V30 2874 C 269.957 3.3639 -0.185305 0
M  V30 2875 O 270.487 3.94699 0.746688 0
M  V30 2876 N 268.693 2.9046 -0.0901606 0
M  V30 2877 H 268.24 2.43193 -0.849416 0
M  V30 2878 H 268.198 3.04937 0.765553 0
M  V30 2879 N 271.97 1.30982 0.876444 0
M  V30 2880 C 273.218 1.20058 1.62575 0
M  V30 2881 C 273.539 -0.242947 1.93481 0
M  V30 2882 O 272.809 -1.1619 1.57724 0
M  V30 2883 H 271.389 0.44135 0.602677 0
M  V30 2884 H 274.051 1.64222 1.04962 0
M  V30 2885 H 273.147 1.76762 2.57219 0
M  V30 2886 N 273.449 -1.08991 1.13837 0
M  V30 2887 C 274.412 -2.13925 0.822715 0
M  V30 2888 C 275.412 -1.599 -0.1699 0
M  V30 2889 O 276.602 -1.74104 0.0577251 0
M  V30 2890 C 273.734 -3.40155 0.225318 0
M  V30 2891 H 274.927 -2.43358 1.75262 0
M  V30 2892 H 272.48 -1.24603 0.943594 0
M  V30 2893 H 273.215 -3.16352 -0.713594 0
M  V30 2894 H 273 -3.80661 0.940193 0
M  V30 2895 H 274.49 -4.17594 0.0214784 0
M  V30 2896 N 274.927 -0.932562 -1.27047 0
M  V30 2897 C 276.338 -0.619451 -1.76124 0
M  V30 2898 C 276.689 0.865397 -1.76083 0
M  V30 2899 O 275.814 1.67722 -1.36742 0
M  V30 2900 C 276.409 -1.11771 -3.19832 0
M  V30 2901 C 274.968 -0.855174 -3.66557 0
M  V30 2902 C 274.115 -1.27362 -2.46321 0
M  V30 2903 H 277.066 -1.11181 -1.13245 0
M  V30 2904 H 277.087 -0.46759 -3.77616 0
M  V30 2905 H 276.599 -2.19842 -3.1983 0
M  V30 2906 H 274.7 0.211524 -3.71999 0
M  V30 2907 H 274.813 -1.47613 -4.55793 0
M  V30 2908 H 273.177 -0.692119 -2.45116 0
M  V30 2909 H 273.96 -2.36307 -2.49025 0
M  V30 2910 N 276.405 1.4127 -0.698611 0
M  V30 2911 C 277.352 2.30773 -0.0352094 0
M  V30 2912 C 278.322 1.47273 0.768111 0
M  V30 2913 O 279.507 1.76053 0.735524 0
M  V30 2914 C 276.647 3.33346 0.893 0
M  V30 2915 C 275.76 4.31924 0.0809695 0
M  V30 2916 C 274.895 5.21566 1.0071 0
M  V30 2917 C 273.934 6.11811 0.188155 0
M  V30 2918 N 273.071 6.93926 1.06825 0
M  V30 2919 H 277.911 2.86943 -0.804207 0
M  V30 2920 H 275.448 1.4132 -0.408294 0
M  V30 2921 H 277.406 3.91368 1.44523 0
M  V30 2922 H 276.036 2.78719 1.62836 0
M  V30 2923 H 275.088 3.75825 -0.588224 0
M  V30 2924 H 276.4 4.95716 -0.553801 0
M  V30 2925 H 275.554 5.84437 1.62845 0
M  V30 2926 H 274.293 4.58008 1.67572 0
M  V30 2927 H 273.298 5.47986 -0.446254 0
M  V30 2928 H 274.523 6.77425 -0.476716 0
M  V30 2929 H 272.469 6.32973 1.72283 0
M  V30 2930 H 272.386 7.54416 0.489123 0
M  V30 2931 H 273.654 7.61262 1.67632 0
M  V30 2932 N 277.883 0.443576 1.51229 0
M  V30 2933 C 279.294 -0.0180867 1.86691 0
M  V30 2934 C 279.645 -1.41384 1.36033 0
M  V30 2935 O 278.77 -2.04291 0.713722 0
M  V30 2936 C 279.365 -0.039597 3.38777 0
M  V30 2937 C 277.924 -0.445692 3.73752 0
M  V30 2938 C 277.071 0.357584 2.74985 0
M  V30 2939 H 280.022 0.659138 1.44364 0
M  V30 2940 H 280.043 -0.847761 3.70936 0
M  V30 2941 H 279.555 0.976382 3.75617 0
M  V30 2942 H 277.656 -1.46704 3.42503 0
M  V30 2943 H 277.769 -0.166155 4.78812 0
M  V30 2944 H 276.133 -0.184973 2.54027 0
M  V30 2945 H 276.916 1.37256 3.14668 0
M  V30 2946 N 279.361 -1.56624 0.175154 0
M  V30 2947 C 280.607 -1.98061 -0.462976 0
M  V30 2948 C 280.962 -1.05949 -1.60601 0
M  V30 2949 O 280.255 -0.0999027 -1.91339 0
M  V30 2950 C 280.449 -3.43419 -0.989864 0
M  V30 2951 C 280.278 -4.49587 0.100583 0
M  V30 2952 C 279.048 -5.02281 0.551539 0
M  V30 2953 C 281.246 -5.06322 0.902369 0
M  V30 2954 N 279.228 -5.92088 1.62189 0
M  V30 2955 C 280.599 -5.92607 1.82256 0
M  V30 2956 C 282.654 -4.88811 0.947019 0
M  V30 2957 C 281.357 -6.63254 2.78364 0
M  V30 2958 C 283.383 -5.60182 1.89606 0
M  V30 2959 C 282.745 -6.46197 2.80372 0
M  V30 2960 H 278.844 -0.769833 -0.137409 0
M  V30 2961 H 281.428 -1.9273 0.276256 0
M  V30 2962 H 279.599 -3.49288 -1.6986 0
M  V30 2963 H 281.331 -3.7186 -1.59694 0
M  V30 2964 H 278.086 -4.73367 0.148537 0
M  V30 2965 H 278.51 -6.41696 2.15767 0
M  V30 2966 H 283.152 -4.22004 0.259304 0
M  V30 2967 H 280.87 -7.29271 3.48122 0
M  V30 2968 H 284.456 -5.48617 1.93676 0
M  V30 2969 H 283.336 -7.00453 3.52612 0
M  V30 2970 N 280.839 0.0985539 -1.57292 0
M  V30 2971 C 282.079 0.808332 -1.87737 0
M  V30 2972 C 282.443 1.7607 -0.76572 0
M  V30 2973 O 283.644 2.51358 -0.952499 0
M  V30 2974 C 281.915 1.52093 -3.23423 0
M  V30 2975 S 283.474 2.26947 -3.75554 0
M  V30 2976 H 280.292 0.269377 -0.657995 0
M  V30 2977 H 282.894 0.0656269 -1.9539 0
M  V30 2978 H 281.598 0.81363 -4.02254 0
M  V30 2979 H 281.129 2.30361 -3.189 0
M  V30 2980 H 283.144 3.53027 -3.48692 0
M  V30 2981 N 282.317 1.53212 0.369288 0
M  V30 2982 C 283.547 1.72868 1.13139 0
M  V30 2983 C 283.955 0.455754 1.83629 0
M  V30 2984 O 283.298 -0.580861 1.74275 0
M  V30 2985 C 283.36 2.83667 2.20847 0
M  V30 2986 C 283.024 4.24142 1.70155 0
M  V30 2987 C 284.021 5.06619 1.16763 0
M  V30 2988 C 281.706 4.70539 1.7578 0
M  V30 2989 C 283.7 6.33581 0.696678 0
M  V30 2990 C 281.387 5.97481 1.28297 0
M  V30 2991 C 282.385 6.78833 0.753307 0
M  V30 2992 O 282.073 8.03393 0.285475 0
M  V30 2993 H 281.805 0.581707 0.344373 0
M  V30 2994 H 284.359 2.00736 0.435243 0
M  V30 2995 H 282.589 2.51265 2.93944 0
M  V30 2996 H 284.278 2.91536 2.82421 0
M  V30 2997 H 285.044 4.71948 1.11758 0
M  V30 2998 H 280.923 4.07293 2.15949 0
M  V30 2999 H 284.467 6.97027 0.282581 0
M  V30 3000 H 280.364 6.31651 1.32994 0
M  V30 3001 H 281.132 8.17497 0.405145 0
M  V30 3002 N 283.795 -0.628877 1.44509 0
M  V30 3003 C 285.041 -1.39045 1.47629 0
M  V30 3004 C 285.374 -1.93892 0.109343 0
M  V30 3005 O 284.649 -1.7379 -0.87334 0
M  V30 3006 C 284.932 -2.55408 2.53848 0
M  V30 3007 C 284.785 -2.05896 3.99909 0
M  V30 3008 C 286.104 -3.5759 2.56549 0
M  V30 3009 H 283.223 -0.504232 0.537512 0
M  V30 3010 H 285.865 -0.710854 1.76201 0
M  V30 3011 H 284.015 -3.13384 2.29615 0
M  V30 3012 H 285.687 -1.52734 4.35282 0
M  V30 3013 H 283.93 -1.37061 4.11578 0
M  V30 3014 H 284.601 -2.89681 4.69882 0
M  V30 3015 H 287.077 -3.09419 2.78207 0
M  V30 3016 H 285.953 -4.36527 3.32769 0
M  V30 3017 H 286.214 -4.11808 1.60832 0
M  V30 3018 N 285.273 -1.31445 -0.869486 0
M  V30 3019 C 286.522 -1.20517 -1.61736 0
M  V30 3020 C 286.835 0.235341 -1.94179 0
M  V30 3021 O 288.041 0.466312 -2.67465 0
M  V30 3022 C 286.497 -2.10982 -2.91573 0
M  V30 3023 C 286.105 -3.60032 -2.66611 0
M  V30 3024 C 287.849 -2.08856 -3.69567 0
M  V30 3025 C 285.756 -4.42503 -3.92358 0
M  V30 3026 H 284.686 -0.447493 -0.606849 0
M  V30 3027 H 287.337 -1.56303 -0.96133 0
M  V30 3028 H 285.719 -1.68095 -3.58553 0
M  V30 3029 H 286.893 -4.11167 -2.08035 0
M  V30 3030 H 285.208 -3.64139 -2.0197 0
M  V30 3031 H 287.805 -2.67716 -4.62852 0
M  V30 3032 H 288.148 -1.07582 -4.02159 0
M  V30 3033 H 288.681 -2.49945 -3.09471 0
M  V30 3034 H 285.42 -5.44533 -3.64916 0
M  V30 3035 H 284.94 -3.96125 -4.50383 0
M  V30 3036 H 286.619 -4.54741 -4.60238 0
M  V30 3037 N 286.751 1.08385 -1.14413 0
M  V30 3038 C 287.698 2.15311 -0.831265 0
M  V30 3039 C 288.668 1.64751 0.211292 0
M  V30 3040 O 289.853 1.90627 0.0811674 0
M  V30 3041 C 286.993 3.43658 -0.315143 0
M  V30 3042 C 286.106 4.08064 -1.41802 0
M  V30 3043 C 285.241 5.24207 -0.859126 0
M  V30 3044 C 284.28 5.80554 -1.93967 0
M  V30 3045 N 283.417 6.88042 -1.39793 0
M  V30 3046 H 288.257 2.41415 -1.74708 0
M  V30 3047 H 285.794 1.18474 -0.871909 0
M  V30 3048 H 287.752 4.172 0.00230884 0
M  V30 3049 H 286.382 3.17839 0.56378 0
M  V30 3050 H 285.434 3.3228 -1.85187 0
M  V30 3051 H 286.746 4.45962 -2.23427 0
M  V30 3052 H 285.9 6.04689 -0.49359 0
M  V30 3053 H 284.639 4.87699 -0.011932 0
M  V30 3054 H 283.644 4.98725 -2.31415 0
M  V30 3055 H 284.869 6.19121 -2.79046 0
M  V30 3056 H 282.815 6.53493 -0.572919 0
M  V30 3057 H 282.732 7.24767 -2.15054 0
M  V30 3058 H 284 7.72255 -1.0603 0
M  V30 3059 N 288.23 0.939286 1.26551 0
M  V30 3060 C 289.193 0.451987 2.24699 0
M  V30 3061 C 290.193 -0.435869 1.5478 0
M  V30 3062 O 291.383 -0.235314 1.72603 0
M  V30 3063 C 288.515 -0.348801 3.39111 0
M  V30 3064 H 289.708 1.3193 2.69322 0
M  V30 3065 H 287.261 0.721072 1.38673 0
M  V30 3066 H 287.996 -1.23444 2.99887 0
M  V30 3067 H 287.781 0.287945 3.91041 0
M  V30 3068 H 289.271 -0.679726 4.12031 0
M  V30 3069 N 289.708 -1.40897 0.706093 0
M  V30 3070 C 290.956 -2.00657 0.241054 0
M  V30 3071 C 291.277 -1.56241 -1.16678 0
M  V30 3072 O 290.547 -0.79765 -1.78926 0
M  V30 3073 H 289.127 -0.742018 0.0861308 0
M  V30 3074 H 291.789 -1.72372 0.909604 0
M  V30 3075 H 290.885 -3.10958 0.266705 0
M  V30 3076 N 291.186 -0.45159 -1.50991 0
M  V30 3077 C 292.133 0.352625 -2.2809 0
M  V30 3078 C 293.103 1.0044 -1.32291 0
M  V30 3079 O 294.288 1.02058 -1.6121 0
M  V30 3080 C 291.428 1.43983 -3.13629 0
M  V30 3081 C 290.541 0.804772 -4.24438 0
M  V30 3082 C 289.676 1.86822 -4.97263 0
M  V30 3083 C 288.715 1.21236 -5.99973 0
M  V30 3084 N 287.852 2.2178 -6.66152 0
M  V30 3085 H 292.692 -0.311186 -2.96371 0
M  V30 3086 H 290.229 -0.165308 -1.46168 0
M  V30 3087 H 292.187 2.08161 -3.61559 0
M  V30 3088 H 290.817 2.07307 -2.47434 0
M  V30 3089 H 289.869 0.0509129 -3.80366 0
M  V30 3090 H 291.181 0.286076 -4.97979 0
M  V30 3091 H 290.335 2.58628 -5.48813 0
M  V30 3092 H 289.074 2.42068 -4.23385 0
M  V30 3093 H 288.079 0.479828 -5.47702 0
M  V30 3094 H 289.304 0.667051 -6.75816 0
M  V30 3095 H 287.25 2.76079 -5.95077 0
M  V30 3096 H 287.167 1.74841 -7.35504 0
M  V30 3097 H 288.435 2.93026 -7.22327 0
M  V30 3098 N 292.664 1.56529 -0.183458 0
M  V30 3099 C 293.911 1.97244 0.458357 0
M  V30 3100 C 294.239 1.06992 1.62428 0
M  V30 3101 O 293.494 0.106542 1.9541 0
M  V30 3102 C 293.793 3.43939 0.971637 0
M  V30 3103 C 293.459 4.5083 -0.0796784 0
M  V30 3104 C 292.121 4.79786 -0.368584 0
M  V30 3105 C 294.473 5.15138 -0.792638 0
M  V30 3106 C 291.801 5.70345 -1.37563 0
M  V30 3107 C 294.153 6.06784 -1.78875 0
M  V30 3108 C 292.817 6.34102 -2.08497 0
M  V30 3109 H 292.087 0.721768 0.167725 0
M  V30 3110 H 294.734 1.89472 -0.277976 0
M  V30 3111 H 293.039 3.48724 1.78602 0
M  V30 3112 H 294.736 3.72791 1.47744 0
M  V30 3113 H 291.326 4.28317 0.155668 0
M  V30 3114 H 295.51 4.92868 -0.582659 0
M  V30 3115 H 290.766 5.89789 -1.61118 0
M  V30 3116 H 294.94 6.55677 -2.3465 0
M  V30 3117 H 292.567 7.04074 -2.86678 0
M  V30 3118 N 294.142 -0.090211 1.57342 0
M  V30 3119 C 295.37 -0.806224 1.90546 0
M  V30 3120 C 295.785 -1.72041 0.777644 0
M  V30 3121 O 295.142 -1.80778 -0.250103 0
M  V30 3122 C 295.193 -1.61546 3.23396 0
M  V30 3123 O 294.914 -0.738043 4.31839 0
M  V30 3124 C 296.415 -2.4341 3.70495 0
M  V30 3125 H 293.635 -0.230256 0.630257 0
M  V30 3126 H 296.179 -0.0659843 2.04394 0
M  V30 3127 H 294.334 -2.30816 3.11131 0
M  V30 3128 H 294.748 -1.29901 5.08159 0
M  V30 3129 H 296.222 -2.95676 4.66133 0
M  V30 3130 H 296.699 -3.22098 2.98579 0
M  V30 3131 H 297.305 -1.79331 3.85643 0
M  V30 3132 N 295.62 -1.53406 -0.361157 0
M  V30 3133 C 296.845 -1.74024 -1.12829 0
M  V30 3134 C 297.27 -0.470069 -1.82132 0
M  V30 3135 O 296.628 0.57619 -1.719 0
M  V30 3136 C 296.676 -2.90903 -2.13091 0
M  V30 3137 O 295.78 -2.59821 -3.20261 0
M  V30 3138 H 295.121 -0.577804 -0.327168 0
M  V30 3139 H 297.651 -2.00307 -0.41693 0
M  V30 3140 H 297.661 -3.17194 -2.56616 0
M  V30 3141 H 296.336 -3.83034 -1.62042 0
M  V30 3142 H 294.913 -2.44362 -2.81677 0
M  V30 3143 N 297.098 0.621204 -1.44841 0
M  V30 3144 C 298.008 1.7612 -1.5498 0
M  V30 3145 C 299.024 1.68477 -0.434927 0
M  V30 3146 O 300.2 1.89076 -0.693693 0
M  V30 3147 C 297.265 3.1254 -1.50065 0
M  V30 3148 C 296.326 3.31741 -2.72482 0
M  V30 3149 C 295.559 4.61653 -2.67792 0
M  V30 3150 O 295.782 5.431 -1.74352 0
M  V30 3151 O 294.716 4.83271 -3.58794 0
M  V30 3152 H 298.542 1.70518 -2.51311 0
M  V30 3153 H 296.127 0.783643 -1.27198 0
M  V30 3154 H 298.009 3.93844 -1.49882 0
M  V30 3155 H 296.684 3.18663 -0.568806 0
M  V30 3156 H 295.591 2.50077 -2.7823 0
M  V30 3157 H 296.924 3.30486 -3.64746 0
M  V30 3158 N 298.576 1.31904 0.862503 0
M  V30 3159 C 299.801 1.25135 1.65397 0
M  V30 3160 C 300.226 -0.179 1.87246 0
M  V30 3161 O 299.584 -1.1277 1.4196 0
M  V30 3162 C 299.632 2.00832 2.99498 0
M  V30 3163 O 298.736 1.35075 3.89652 0
M  V30 3164 H 298.077 0.431655 0.504549 0
M  V30 3165 H 300.607 1.74094 1.07483 0
M  V30 3166 H 300.617 2.10709 3.49379 0
M  V30 3167 H 299.292 3.04847 2.82916 0
M  V30 3168 H 297.869 1.33696 3.48109 0
M  V30 3169 N 300.054 -1.07777 1.14986 0
M  V30 3170 C 301.294 -1.81888 0.932527 0
M  V30 3171 C 301.658 -1.84509 -0.531064 0
M  V30 3172 O 302.859 -2.54448 -0.866577 0
M  V30 3173 C 301.13 -3.23244 1.52473 0
M  V30 3174 S 302.689 -4.14154 1.44989 0
M  V30 3175 H 299.507 -0.626752 0.335712 0
M  V30 3176 H 302.109 -1.29503 1.46455 0
M  V30 3177 H 300.813 -3.18922 2.58296 0
M  V30 3178 H 300.344 -3.80704 0.991381 0
M  V30 3179 H 302.359 -4.94247 0.439799 0
M  V30 3180 N 301.532 -0.945985 -1.26051 0
M  V30 3181 C 302.757 -0.612525 -1.98149 0
M  V30 3182 C 303.182 0.806623 -1.69927 0
M  V30 3183 O 302.54 1.54411 -0.950108 0
M  V30 3184 C 302.588 -0.866981 -3.50023 0
M  V30 3185 O 301.692 0.0585333 -4.12358 0
M  V30 3186 H 301.033 -0.23379 -0.621481 0
M  V30 3187 H 303.563 -1.27023 -1.60395 0
M  V30 3188 H 303.573 -0.789792 -4.00283 0
M  V30 3189 H 302.248 -1.90135 -3.69894 0
M  V30 3190 H 300.825 -0.0701241 -3.72834 0
M  V30 3191 N 303.011 1.40521 -0.713556 0
M  V30 3192 C 304.257 2.01221 -0.252564 0
M  V30 3193 C 304.59 1.56444 1.1506 0
M  V30 3194 O 303.865 0.783597 1.78017 0
M  V30 3195 C 304.148 3.58582 -0.330332 0
M  V30 3196 C 304.001 4.13437 -1.77173 0
M  V30 3197 C 305.32 4.39079 0.299641 0
M  V30 3198 H 302.439 0.731077 -0.0932471 0
M  V30 3199 H 305.081 1.67026 -0.905673 0
M  V30 3200 H 303.231 3.87844 0.225737 0
M  V30 3201 H 304.903 3.9498 -2.38303 0
M  V30 3202 H 303.146 3.67801 -2.3001 0
M  V30 3203 H 303.817 5.22597 -1.77755 0
M  V30 3204 H 306.293 4.15735 -0.174139 0
M  V30 3205 H 305.169 5.4848 0.214771 0
M  V30 3206 H 305.43 4.19915 1.38288 0
M  V30 3207 N 304.489 0.459591 1.5075 0
M  V30 3208 C 305.9 0.00171547 1.867 0
M  V30 3209 C 306.251 -1.39934 1.37525 0
M  V30 3210 O 305.376 -2.03523 0.735349 0
M  V30 3211 C 305.971 -0.00366298 3.388 0
M  V30 3212 C 304.53 -0.406026 3.74204 0
M  V30 3213 C 303.677 0.38673 2.7459 0
M  V30 3214 H 306.628 0.674413 1.43657 0
M  V30 3215 H 306.649 -0.808371 3.71814 0
M  V30 3216 H 306.161 1.01617 3.74561 0
M  V30 3217 H 304.262 -1.43063 3.4404 0
M  V30 3218 H 304.375 -0.115362 4.78961 0
M  V30 3219 H 302.739 -0.158019 2.54209 0
M  V30 3220 H 303.522 1.40585 3.13194 0
M  V30 3221 N 305.967 -1.56429 0.191757 0
M  V30 3222 C 307.213 -1.97777 -0.448554 0
M  V30 3223 C 307.546 -1.07847 -1.61501 0
M  V30 3224 O 306.821 -0.129774 -1.94067 0
M  V30 3225 C 307.104 -3.48362 -0.911906 0
M  V30 3226 C 306.957 -4.4907 0.256136 0
M  V30 3227 C 308.276 -4.02561 -1.77857 0
M  V30 3228 H 305.395 -0.719071 -0.161572 0
M  V30 3229 H 308.037 -1.87896 0.282007 0
M  V30 3230 H 306.187 -3.56914 -1.53442 0
M  V30 3231 H 307.859 -4.5256 0.893733 0
M  V30 3232 H 306.102 -4.24181 0.908436 0
M  V30 3233 H 306.773 -5.51889 -0.11053 0
M  V30 3234 H 309.249 -3.96767 -1.25359 0
M  V30 3235 H 308.125 -5.08301 -2.07174 0
M  V30 3236 H 308.386 -3.47616 -2.73158 0
M  V30 3237 N 307.445 0.0818655 -1.57387 0
M  V30 3238 C 308.685 0.788375 -1.88584 0
M  V30 3239 C 309.049 1.75248 -0.784351 0
M  V30 3240 O 310.25 2.50334 -0.979105 0
M  V30 3241 C 308.521 1.48654 -3.25018 0
M  V30 3242 S 310.08 2.22951 -3.7794 0
M  V30 3243 H 306.898 0.262383 -0.660815 0
M  V30 3244 H 309.5 0.0448995 -1.95448 0
M  V30 3245 H 308.204 0.770919 -4.03094 0
M  V30 3246 H 307.735 2.26965 -3.21326 0
M  V30 3247 H 309.75 3.49309 -3.52417 0
M  V30 3248 N 308.923 1.53595 0.353017 0
M  V30 3249 C 310.148 1.7462 1.11904 0
M  V30 3250 C 310.573 0.479721 1.8188 0
M  V30 3251 O 309.931 -0.567066 1.72204 0
M  V30 3252 C 309.979 2.92029 2.11545 0
M  V30 3253 O 309.083 2.61516 3.18878 0
M  V30 3254 H 308.424 0.579531 0.324099 0
M  V30 3255 H 310.954 2.00525 0.406301 0
M  V30 3256 H 310.964 3.18551 2.5493 0
M  V30 3257 H 309.639 3.83888 1.60008 0
M  V30 3258 H 308.216 2.45852 2.80377 0
M  V30 3259 N 310.401 -0.613514 1.45168 0
M  V30 3260 C 311.348 -1.72456 1.53387 0
M  V30 3261 C 312.318 -1.6169 0.380191 0
M  V30 3262 O 313.503 -1.81356 0.592836 0
M  V30 3263 C 310.643 -3.10753 1.50088 0
M  V30 3264 C 309.756 -3.32368 2.75963 0
M  V30 3265 C 308.891 -4.60737 2.64376 0
M  V30 3266 C 307.93 -4.7559 3.85332 0
M  V30 3267 N 307.067 -5.95253 3.72315 0
M  V30 3268 H 311.907 -1.64768 2.48305 0
M  V30 3269 H 309.444 -0.803503 1.23216 0
M  V30 3270 H 311.402 -3.90758 1.46164 0
M  V30 3271 H 310.032 -3.17413 0.587243 0
M  V30 3272 H 309.084 -2.4618 2.89999 0
M  V30 3273 H 310.396 -3.39218 3.65695 0
M  V30 3274 H 309.55 -5.48928 2.58385 0
M  V30 3275 H 308.289 -4.56275 1.72233 0
M  V30 3276 H 307.294 -3.85824 3.91688 0
M  V30 3277 H 308.519 -4.81854 4.78533 0
M  V30 3278 H 306.465 -5.91847 2.82937 0
M  V30 3279 H 306.382 -6.03236 4.55677 0
M  V30 3280 H 307.65 -6.85958 3.70246 0
M  V30 3281 N 311.879 -1.3236 -0.855495 0
M  V30 3282 C 312.842 -1.21164 -1.94556 0
M  V30 3283 C 313.842 -0.134908 -1.60233 0
M  V30 3284 O 315.032 -0.385249 -1.69887 0
M  V30 3285 C 312.164 -0.863192 -3.29791 0
M  V30 3286 H 313.357 -2.18038 -2.05911 0
M  V30 3287 H 310.91 -1.16179 -1.04557 0
M  V30 3288 H 311.645 0.103769 -3.24134 0
M  V30 3289 H 311.43 -1.64166 -3.56078 0
M  V30 3290 H 312.92 -0.809156 -4.09686 0
M  V30 3291 N 313.357 1.07166 -1.15556 0
M  V30 3292 C 314.585 1.83514 -0.955519 0
M  V30 3293 C 315 1.82163 0.49621 0
M  V30 3294 O 314.357 1.23441 1.34419 0
M  V30 3295 C 314.408 3.30515 -1.46432 0
M  V30 3296 O 314.129 3.31937 -2.85918 0
M  V30 3297 C 315.63 4.23625 -1.30603 0
M  V30 3298 H 312.85 0.578926 -0.339244 0
M  V30 3299 H 315.394 1.35265 -1.53374 0
M  V30 3300 H 313.549 3.76106 -0.928584 0
M  V30 3301 H 313.963 4.23794 -3.09029 0
M  V30 3302 H 315.437 5.24831 -1.71047 0
M  V30 3303 H 315.914 4.38485 -0.250441 0
M  V30 3304 H 316.52 3.83871 -1.83094 0
M  V30 3305 N 314.835 0.952656 1.25548 0
M  V30 3306 C 316.075 0.614013 1.9496 0
M  V30 3307 C 316.439 -0.833215 1.72978 0
M  V30 3308 O 317.64 -1.28135 2.36294 0
M  V30 3309 C 315.911 0.960562 3.4425 0
M  V30 3310 S 317.47 0.734195 4.32614 0
M  V30 3311 H 314.288 0.225754 0.674208 0
M  V30 3312 H 316.89 1.22641 1.52248 0
M  V30 3313 H 315.594 2.01103 3.57751 0
M  V30 3314 H 315.125 0.338336 3.91942 0
M  V30 3315 H 317.14 -0.395995 4.94617 0
M  V30 3316 N 316.313 -1.40141 0.720998 0
M  V30 3317 C 317.561 -2.0039 0.262323 0
M  V30 3318 C 317.882 -1.57469 -1.15015 0
M  V30 3319 O 317.152 -0.816582 -1.78069 0
M  V30 3320 H 315.732 -0.741063 0.093996 0
M  V30 3321 H 318.394 -1.71398 0.927835 0
M  V30 3322 H 317.49 -3.10658 0.299671 0
M  V30 3323 N 317.792 -0.46758 -1.50504 0
M  V30 3324 C 318.722 0.318381 -2.31319 0
M  V30 3325 C 319.703 0.993564 -1.38066 0
M  V30 3326 O 320.888 0.991411 -1.66987 0
M  V30 3327 C 318.018 1.40275 -3.17711 0
M  V30 3328 C 316.972 0.849373 -4.19487 0
M  V30 3329 C 316.298 2.03177 -4.94594 0
M  V30 3330 C 317.598 -0.136942 -5.2212 0
M  V30 3331 H 319.292 -0.356106 -2.97275 0
M  V30 3332 H 316.838 -0.172703 -1.42961 0
M  V30 3333 H 318.791 1.96004 -3.73042 0
M  V30 3334 H 317.515 2.10596 -2.49634 0
M  V30 3335 H 316.174 0.314076 -3.65252 0
M  V30 3336 H 315.822 2.72187 -4.22993 0
M  V30 3337 H 315.522 1.66774 -5.63436 0
M  V30 3338 H 317.046 2.59403 -5.52759 0
M  V30 3339 H 318.46 0.331056 -5.72343 0
M  V30 3340 H 316.857 -0.41507 -5.98663 0
M  V30 3341 H 317.927 -1.06398 -4.73083 0
M  V30 3342 N 319.27 1.56325 -0.20005 0
M  V30 3343 C 320.686 1.58839 0.155716 0
M  V30 3344 C 320.886 1.21636 1.60645 0
M  V30 3345 O 319.942 0.941437 2.34293 0
M  V30 3346 C 321.255 3.0032 -0.151124 0
M  V30 3347 C 322.803 3.12866 -0.0916284 0
M  V30 3348 C 323.278 4.56488 -0.371845 0
M  V30 3349 N 324.769 4.62089 -0.320641 0
M  V30 3350 C 325.504 5.71116 -0.511243 0
M  V30 3351 N 325 6.88592 -0.762461 0
M  V30 3352 N 326.793 5.60335 -0.445157 0
M  V30 3353 H 318.944 1.78788 -1.14668 0
M  V30 3354 H 321.207 0.829996 -0.458051 0
M  V30 3355 H 320.913 3.32117 -1.15721 0
M  V30 3356 H 320.787 3.73257 0.543986 0
M  V30 3357 H 323.174 2.80878 0.905065 0
M  V30 3358 H 323.255 2.42304 -0.81989 0
M  V30 3359 H 322.899 4.89189 -1.36588 0
M  V30 3360 H 322.829 5.25246 0.377362 0
M  V30 3361 H 325.32 3.77665 -0.13329 0
M  V30 3362 H 325.633 7.67581 -0.896576 0
M  V30 3363 H 323.978 6.90387 -0.799412 0
M  V30 3364 H 327.169 4.67436 -0.249278 0
M  V30 3365 H 327.342 6.45243 -0.597116 0
M  V30 3366 N 320.748 -0.0735177 1.57428 0
M  V30 3367 C 321.695 -1.08756 2.0357 0
M  V30 3368 C 322.665 -1.38559 0.916 0
M  V30 3369 O 323.85 -1.49656 1.18354 0
M  V30 3370 C 320.99 -2.39657 2.48311 0
M  V30 3371 C 320.103 -2.16399 3.73892 0
M  V30 3372 C 319.238 -3.40852 4.07423 0
M  V30 3373 C 318.277 -3.1295 5.2605 0
M  V30 3374 N 317.414 -4.29729 5.55228 0
M  V30 3375 H 322.254 -0.687104 2.8997 0
M  V30 3376 H 319.791 -0.327709 1.43403 0
M  V30 3377 H 321.749 -3.16081 2.72303 0
M  V30 3378 H 320.379 -2.77508 1.64891 0
M  V30 3379 H 319.431 -1.30676 3.57251 0
M  V30 3380 H 320.743 -1.91788 4.60455 0
M  V30 3381 H 319.897 -4.25671 4.32306 0
M  V30 3382 H 318.636 -3.68537 3.19425 0
M  V30 3383 H 317.641 -2.26526 5.00965 0
M  V30 3384 H 318.866 -2.86589 6.15665 0
M  V30 3385 H 316.812 -4.57448 4.70188 0
M  V30 3386 H 316.729 -4.08385 6.36206 0
M  V30 3387 H 317.997 -5.1555 5.84661 0
M  V30 3388 N 322.226 -1.5378 -0.344866 0
M  V30 3389 C 323.456 -1.74646 -1.10374 0
M  V30 3390 C 323.864 -0.48491 -1.8288 0
M  V30 3391 O 323.207 0.553062 -1.75177 0
M  V30 3392 C 323.269 -2.87145 -2.16306 0
M  V30 3393 C 322.933 -4.26795 -1.63386 0
M  V30 3394 C 323.93 -5.08412 -1.08688 0
M  V30 3395 C 321.615 -4.73276 -1.68272 0
M  V30 3396 C 323.609 -6.34609 -0.595792 0
M  V30 3397 C 321.296 -5.99446 -1.18776 0
M  V30 3398 C 322.294 -6.79946 -0.645215 0
M  V30 3399 O 321.982 -8.03745 -0.157626 0
M  V30 3400 H 321.714 -0.587112 -0.335075 0
M  V30 3401 H 324.268 -2.01403 -0.403252 0
M  V30 3402 H 322.498 -2.55909 -2.89909 0
M  V30 3403 H 324.187 -2.95992 -2.77747 0
M  V30 3404 H 324.953 -4.73666 -1.04236 0
M  V30 3405 H 320.832 -4.10677 -2.09442 0
M  V30 3406 H 324.376 -6.97389 -0.171654 0
M  V30 3407 H 320.273 -6.33687 -1.22928 0
M  V30 3408 H 321.041 -8.18038 -0.275037 0
M  V30 3409 N 323.704 0.605807 -1.45491 0
M  V30 3410 C 324.651 1.7164 -1.54299 0
M  V30 3411 C 325.621 1.61486 -0.388761 0
M  V30 3412 O 326.806 1.81039 -0.602445 0
M  V30 3413 C 323.946 3.09953 -1.51734 0
M  V30 3414 C 323.059 3.309 -2.77721 0
M  V30 3415 C 322.194 4.59329 -2.66816 0
M  V30 3416 C 321.233 4.7354 -3.87848 0
M  V30 3417 N 320.37 5.9327 -3.75467 0
M  V30 3418 H 325.21 1.63449 -2.49176 0
M  V30 3419 H 322.747 0.796957 -1.23641 0
M  V30 3420 H 324.705 3.89977 -1.48235 0
M  V30 3421 H 323.335 3.17098 -0.604068 0
M  V30 3422 H 322.387 2.44639 -2.913 0
M  V30 3423 H 323.699 3.37274 -3.67488 0
M  V30 3424 H 322.853 5.4755 -2.61292 0
M  V30 3425 H 321.592 4.55355 -1.74651 0
M  V30 3426 H 320.597 3.83741 -3.93729 0
M  V30 3427 H 321.822 4.79309 -4.81082 0
M  V30 3428 H 319.768 5.90338 -2.86072 0
M  V30 3429 H 319.685 6.00811 -4.5887 0
M  V30 3430 H 320.953 6.83984 -3.73879 0
M  V30 3431 N 325.182 1.32811 0.848464 0
M  V30 3432 C 326.092 1.24278 1.98978 0
M  V30 3433 C 327.108 0.155176 1.73307 0
M  V30 3434 O 328.284 0.376999 1.9784 0
M  V30 3435 C 325.349 0.972444 3.32783 0
M  V30 3436 C 324.41 2.14911 3.71634 0
M  V30 3437 C 323.643 1.89157 4.99054 0
M  V30 3438 O 323.866 0.837165 5.64223 0
M  V30 3439 O 322.8 2.75433 5.35183 0
M  V30 3440 H 326.626 2.20238 2.09115 0
M  V30 3441 H 324.211 1.12762 0.980052 0
M  V30 3442 H 326.093 0.838432 4.12975 0
M  V30 3443 H 324.768 0.043051 3.23671 0
M  V30 3444 H 323.675 2.33862 2.91992 0
M  V30 3445 H 325.008 3.06151 3.85399 0
M  V30 3446 N 326.66 -1.06551 1.16123 0
M  V30 3447 C 328.071 -1.60768 0.949232 0
M  V30 3448 C 328.422 -1.89523 -0.507508 0
M  V30 3449 O 327.547 -1.66671 -1.38021 0
M  V30 3450 C 328.142 -2.92086 1.71671 0
M  V30 3451 C 326.701 -3.43015 1.54977 0
M  V30 3452 C 325.848 -2.16947 1.72711 0
M  V30 3453 H 328.799 -0.895354 1.31031 0
M  V30 3454 H 328.82 -3.6138 1.19099 0
M  V30 3455 H 328.332 -2.71127 2.7769 0
M  V30 3456 H 326.433 -3.69039 0.513873 0
M  V30 3457 H 326.546 -4.18516 2.33198 0
M  V30 3458 H 324.91 -2.27041 1.15431 0
M  V30 3459 H 325.693 -1.98473 2.80113 0
M  V30 3460 N 328.138 -0.959301 -1.25041 0
M  V30 3461 C 329.07 -0.440543 -2.24926 0
M  V30 3462 C 330.083 0.446131 -1.56568 0
M  V30 3463 O 331.272 0.253657 -1.76689 0
M  V30 3464 C 328.372 0.38412 -3.36716 0
M  V30 3465 C 327.545 -0.490658 -4.34639 0
M  V30 3466 C 326.604 0.276587 -5.25473 0
M  V30 3467 O 325.63 -0.326614 -5.68262 0
M  V30 3468 N 326.832 1.56844 -5.5891 0
M  V30 3469 H 329.597 -1.29931 -2.70071 0
M  V30 3470 H 327.158 -0.830181 -1.38995 0
M  V30 3471 H 329.15 0.905228 -3.94446 0
M  V30 3472 H 327.72 1.14377 -2.90924 0
M  V30 3473 H 326.94 -1.19282 -3.7572 0
M  V30 3474 H 328.228 -1.08756 -4.97041 0
M  V30 3475 H 327.626 2.08036 -5.26059 0
M  V30 3476 H 326.183 2.03541 -6.19205 0
M  V30 3477 N 329.616 1.39756 -0.72842 0
M  V30 3478 C 330.546 2.33289 -0.0991354 0
M  V30 3479 C 331.527 1.53568 0.731489 0
M  V30 3480 O 332.712 1.81987 0.677807 0
M  V30 3481 C 329.842 3.3763 0.813834 0
M  V30 3482 C 328.796 4.2791 0.0878663 0
M  V30 3483 C 328.122 5.22894 1.11741 0
M  V30 3484 C 329.422 5.11314 -1.06563 0
M  V30 3485 H 331.116 2.86163 -0.880408 0
M  V30 3486 H 328.662 1.37591 -0.424819 0
M  V30 3487 H 330.615 4.0201 1.26355 0
M  V30 3488 H 329.339 2.83181 1.62715 0
M  V30 3489 H 327.998 3.65 -0.342159 0
M  V30 3490 H 327.646 4.64744 1.92412 0
M  V30 3491 H 327.346 5.84143 0.636477 0
M  V30 3492 H 328.87 5.90151 1.56697 0
M  V30 3493 H 330.284 5.69076 -0.694671 0
M  V30 3494 H 328.681 5.81671 -1.47577 0
M  V30 3495 H 329.751 4.46534 -1.89038 0
M  V30 3496 N 331.094 0.475555 1.50254 0
M  V30 3497 C 332.044 -0.335025 2.25525 0
M  V30 3498 C 333.028 -0.957625 1.29299 0
M  V30 3499 O 334.22 -0.869436 1.54175 0
M  V30 3500 C 331.349 -1.41385 3.12834 0
M  V30 3501 C 330.435 -0.798762 4.1651 0
M  V30 3502 N 330.826 0.0835815 5.05731 0
M  V30 3503 C 329.124 -1.06221 4.33166 0
M  V30 3504 C 329.825 0.433113 5.80085 0
M  V30 3505 N 328.801 -0.1928 5.43258 0
M  V30 3506 H 332.603 0.344612 2.91873 0
M  V30 3507 H 330.117 0.289986 1.5979 0
M  V30 3508 H 332.114 -2.00777 3.65368 0
M  V30 3509 H 330.774 -2.09543 2.48036 0
M  V30 3510 H 331.785 0.452715 5.15918 0
M  V30 3511 H 328.462 -1.73844 3.79585 0
M  V30 3512 H 329.852 1.15346 6.61925 0
M  V30 3513 N 332.573 -1.56217 0.208337 0
M  V30 3514 C 333.798 -2.02782 -0.435222 0
M  V30 3515 C 334.223 -1.08738 -1.53485 0
M  V30 3516 O 333.581 -0.0731855 -1.81152 0
M  V30 3517 C 333.629 -3.47687 -0.956335 0
M  V30 3518 O 332.733 -3.56773 -2.06849 0
M  V30 3519 H 332.074 -0.656403 -0.100158 0
M  V30 3520 H 334.604 -2.02033 0.3231 0
M  V30 3521 H 334.614 -3.87745 -1.26955 0
M  V30 3522 H 333.289 -4.15624 -0.15143 0
M  V30 3523 H 331.866 -3.28597 -1.76292 0
M  V30 3524 N 334.051 0.0651679 -1.57465 0
M  V30 3525 C 335.279 0.775808 -1.91804 0
M  V30 3526 C 335.694 1.70782 -0.804916 0
M  V30 3527 O 335.051 1.81153 0.221311 0
M  V30 3528 C 335.102 1.56381 -3.25925 0
M  V30 3529 O 334.823 0.669248 -4.32958 0
M  V30 3530 C 336.324 2.37485 -3.7432 0
M  V30 3531 H 333.544 0.2202 -0.63384 0
M  V30 3532 H 336.088 0.0334587 -2.04473 0
M  V30 3533 H 334.243 2.25837 -3.14764 0
M  V30 3534 H 334.657 1.21801 -5.10162 0
M  V30 3535 H 336.131 2.88223 -4.70778 0
M  V30 3536 H 336.608 3.17307 -3.03666 0
M  V30 3537 H 337.214 1.73173 -3.88447 0
M  V30 3538 N 335.529 1.53961 0.336706 0
M  V30 3539 C 336.777 1.71197 1.07405 0
M  V30 3540 C 337.098 0.481475 1.88962 0
M  V30 3541 O 336.368 -0.504585 1.8929 0
M  V30 3542 H 334.948 0.631185 0.399517 0
M  V30 3543 H 337.61 1.91232 0.376323 0
M  V30 3544 H 336.706 2.58587 1.74755 0
M  V30 3545 N 337.007 -0.598083 1.45811 0
M  V30 3546 C 338.255 -1.35413 1.50026 0
M  V30 3547 C 338.576 -1.94444 0.147177 0
M  V30 3548 O 337.846 -1.77701 -0.824571 0
M  V30 3549 H 336.426 -0.502727 0.552517 0
M  V30 3550 H 339.088 -0.701606 1.81834 0
M  V30 3551 H 338.184 -2.16871 2.2444 0
M  V30 3552 N 338.485 -1.33259 -0.841409 0
M  V30 3553 C 339.415 -1.25926 -1.96634 0
M  V30 3554 C 340.396 -0.140349 -1.6952 0
M  V30 3555 O 341.581 -0.329707 -1.91381 0
M  V30 3556 C 338.711 -0.99512 -3.32738 0
M  V30 3557 C 337.665 -2.0767 -3.74242 0
M  V30 3558 C 336.991 -1.66474 -5.08125 0
M  V30 3559 C 338.291 -3.49318 -3.88297 0
M  V30 3560 H 339.985 -2.20046 -2.03027 0
M  V30 3561 H 337.531 -1.05931 -0.975425 0
M  V30 3562 H 339.484 -0.930323 -4.11002 0
M  V30 3563 H 338.208 -0.0183004 -3.26595 0
M  V30 3564 H 336.867 -2.13187 -2.98239 0
M  V30 3565 H 336.515 -0.675012 -4.9845 0
M  V30 3566 H 336.215 -2.3885 -5.36865 0
M  V30 3567 H 337.739 -1.61455 -5.88867 0
M  V30 3568 H 339.153 -3.46316 -4.56879 0
M  V30 3569 H 337.55 -4.20158 -4.28471 0
M  V30 3570 H 338.62 -3.8801 -2.9082 0
M  V30 3571 N 339.963 1.05934 -1.16686 0
M  V30 3572 C 341.21 1.788 -0.950622 0
M  V30 3573 C 341.538 1.87384 0.521305 0
M  V30 3574 O 340.793 1.36438 1.40297 0
M  V30 3575 C 341.092 3.23105 -1.52767 0
M  V30 3576 C 340.758 3.34594 -3.02254 0
M  V30 3577 C 339.42 3.37437 -3.43059 0
M  V30 3578 C 341.772 3.36219 -3.98254 0
M  V30 3579 C 339.1 3.39525 -4.78477 0
M  V30 3580 C 341.452 3.39845 -5.33562 0
M  V30 3581 C 340.116 3.40971 -5.73842 0
M  V30 3582 H 339.386 0.654275 -0.347857 0
M  V30 3583 H 342.033 1.24555 -1.45459 0
M  V30 3584 H 340.338 3.80227 -0.94524 0
M  V30 3585 H 342.035 3.7809 -1.336 0
M  V30 3586 H 338.625 3.3309 -2.6972 0
M  V30 3587 H 342.809 3.33231 -3.67792 0
M  V30 3588 H 338.065 3.38703 -5.09009 0
M  V30 3589 H 342.239 3.4005 -6.07733 0
M  V30 3590 H 339.866 3.42342 -6.78753 0
M  V30 3591 N 341.441 0.965919 1.2453 0
M  V30 3592 C 342.669 0.644385 1.96609 0
M  V30 3593 C 343.084 -0.785823 1.71669 0
M  V30 3594 O 342.441 -1.52703 0.999399 0
M  V30 3595 C 342.492 0.907375 3.49927 0
M  V30 3596 O 342.213 2.28136 3.74013 0
M  V30 3597 C 343.714 0.599784 4.39224 0
M  V30 3598 H 340.934 0.240588 0.626385 0
M  V30 3599 H 343.478 1.29337 1.58405 0
M  V30 3600 H 341.633 0.304631 3.862 0
M  V30 3601 H 342.047 2.36002 4.68405 0
M  V30 3602 H 343.521 0.834263 5.45659 0
M  V30 3603 H 343.998 -0.465921 4.36722 0
M  V30 3604 H 344.604 1.18235 4.08535 0
M  V30 3605 N 342.919 -1.39368 0.735821 0
M  V30 3606 C 344.196 -1.94465 0.210395 0
M  V30 3607 C 344.576 -1.67254 -1.28799 0
M  V30 3608 O 343.924 -1.00123 -2.05396 0
M  V30 3609 C 344.134 -3.4472 0.544897 0
M  V30 3610 C 345.482 -4.21708 0.494689 0
M  V30 3611 O 346.506 -3.52922 0.482136 0
M  V30 3612 O 345.365 -5.44299 0.489947 0
M  V30 3613 H 342.459 -0.826096 0.0386666 0
M  V30 3614 H 345.005 -1.48863 0.814735 0
M  V30 3615 H 343.777 -3.57963 1.58045 0
M  V30 3616 H 343.4 -3.97502 -0.08837 0
M  V30 3617 N 344.397 -0.483516 -1.5 0
M  V30 3618 C 345.646 0.0689102 -2.01582 0
M  V30 3619 C 345.959 1.39655 -1.36952 0
M  V30 3620 O 347.165 2.03465 -1.79762 0
M  V30 3621 C 345.621 0.173302 -3.59483 0
M  V30 3622 C 345.229 -1.14665 -4.33077 0
M  V30 3623 C 346.973 0.677024 -4.19066 0
M  V30 3624 C 344.88 -1.00537 -5.82792 0
M  V30 3625 H 343.81 0.0295277 -0.753422 0
M  V30 3626 H 346.461 -0.620295 -1.72698 0
M  V30 3627 H 344.843 0.926569 -3.85007 0
M  V30 3628 H 346.017 -1.91184 -4.19268 0
M  V30 3629 H 344.332 -1.58244 -3.85159 0
M  V30 3630 H 346.929 0.799952 -5.28682 0
M  V30 3631 H 347.272 1.67151 -3.81269 0
M  V30 3632 H 347.805 -0.0192083 -3.97795 0
M  V30 3633 H 344.544 -1.9736 -6.25083 0
M  V30 3634 H 344.064 -0.280776 -5.99142 0
M  V30 3635 H 345.743 -0.677 -6.43448 0
M  V30 3636 N 345.875 1.56104 -0.216619 0
M  V30 3637 C 347.103 2.02563 0.421413 0
M  V30 3638 C 347.518 1.0965 1.53695 0
M  V30 3639 O 346.875 0.10521 1.82196 0
M  V30 3640 C 346.926 3.48584 0.957665 0
M  V30 3641 O 346.647 4.37953 -0.113389 0
M  V30 3642 C 348.148 4.10664 1.66943 0
M  V30 3643 H 345.368 0.662944 0.103665 0
M  V30 3644 H 347.912 2.01793 -0.331629 0
M  V30 3645 H 346.067 3.49985 1.661 0
M  V30 3646 H 346.481 5.23704 0.288932 0
M  V30 3647 H 347.955 5.14622 1.99671 0
M  V30 3648 H 348.432 3.55373 2.58083 0
M  V30 3649 H 349.038 4.13098 1.01142 0
M  V30 3650 N 347.353 -0.0568162 1.57498 0
M  V30 3651 C 348.578 -0.769402 1.92601 0
M  V30 3652 C 349.003 -1.69559 0.814336 0
M  V30 3653 O 348.361 -1.79811 -0.231903 0
M  V30 3654 C 348.409 -1.52634 3.26704 0
M  V30 3655 O 347.513 -2.63797 3.16994 0
M  V30 3656 H 346.854 -0.208909 0.63028 0
M  V30 3657 H 349.384 -0.0205798 2.0459 0
M  V30 3658 H 349.394 -1.90234 3.60936 0
M  V30 3659 H 348.069 -0.846875 4.07186 0
M  V30 3660 H 346.646 -2.28943 2.94346 0
M  V30 3661 N 348.832 -1.54138 -0.328536 0
M  V30 3662 C 349.782 -1.79557 -1.4051 0
M  V30 3663 C 350.766 -0.651373 -1.47126 0
M  V30 3664 O 351.958 -0.911226 -1.51742 0
M  V30 3665 C 349.087 -2.02196 -2.77438 0
M  V30 3666 C 348.173 -3.22724 -2.75155 0
M  V30 3667 N 348.564 -4.43881 -2.42494 0
M  V30 3668 C 346.862 -3.24196 -3.06289 0
M  V30 3669 C 347.563 -5.25797 -2.48822 0
M  V30 3670 N 346.539 -4.62862 -2.8506 0
M  V30 3671 H 350.341 -2.70814 -1.1418 0
M  V30 3672 H 347.855 -1.53265 -0.536991 0
M  V30 3673 H 349.852 -2.18546 -3.55026 0
M  V30 3674 H 348.512 -1.12191 -3.04702 0
M  V30 3675 H 349.523 -4.70969 -2.15428 0
M  V30 3676 H 346.2 -2.44208 -3.38627 0
M  V30 3677 H 347.59 -6.32535 -2.26603 0
M  V30 3678 N 350.31 0.590341 -1.46126 0
M  V30 3679 C 351.721 1.17243 -1.45296 0
M  V30 3680 C 352.072 1.95281 -0.189723 0
M  V30 3681 O 351.197 2.04502 0.707674 0
M  V30 3682 C 351.792 2.13284 -2.6324 0
M  V30 3683 C 350.351 2.66832 -2.65476 0
M  V30 3684 C 349.498 1.42557 -2.3785 0
M  V30 3685 H 352.449 0.378692 -1.54116 0
M  V30 3686 H 352.47 2.96619 -2.38323 0
M  V30 3687 H 351.982 1.56459 -3.55165 0
M  V30 3688 H 350.083 3.27548 -1.77603 0
M  V30 3689 H 350.196 3.10088 -3.65215 0
M  V30 3690 H 348.56 1.72107 -1.87753 0
M  V30 3691 H 349.343 0.875741 -3.31942 0
M  V30 3692 N 351.788 1.33704 0.83433 0
M  V30 3693 C 353.034 1.26612 1.59188 0
M  V30 3694 C 353.389 -0.165439 1.91687 0
M  V30 3695 O 352.682 -1.10873 1.56262 0
M  V30 3696 C 352.876 2.07926 2.90692 0
M  V30 3697 C 352.705 3.58844 2.71038 0
M  V30 3698 C 351.475 4.28148 2.68361 0
M  V30 3699 C 353.673 4.53082 2.43353 0
M  V30 3700 N 351.655 5.64987 2.40132 0
M  V30 3701 C 353.026 5.77843 2.24716 0
M  V30 3702 C 355.081 4.42119 2.28987 0
M  V30 3703 C 353.784 6.92877 1.9317 0
M  V30 3704 C 355.81 5.56973 1.98835 0
M  V30 3705 C 355.172 6.80745 1.81012 0
M  V30 3706 H 351.271 0.518517 0.585375 0
M  V30 3707 H 353.855 1.68294 0.979044 0
M  V30 3708 H 352.026 1.68558 3.49918 0
M  V30 3709 H 353.758 1.92568 3.55949 0
M  V30 3710 H 350.513 3.80469 2.82029 0
M  V30 3711 H 350.937 6.37133 2.28889 0
M  V30 3712 H 355.579 3.47058 2.41477 0
M  V30 3713 H 353.297 7.87931 1.79418 0
M  V30 3714 H 356.883 5.50428 1.88468 0
M  V30 3715 H 355.763 7.68115 1.58017 0
M  V30 3716 N 353.266 -1.05314 1.17247 0
M  V30 3717 C 354.198 -2.13023 0.845812 0
M  V30 3718 C 355.211 -1.62096 -0.151246 0
M  V30 3719 O 356.4 -1.78343 0.0748818 0
M  V30 3720 C 353.5 -3.38047 0.240292 0
M  V30 3721 C 352.673 -4.18255 1.27991 0
M  V30 3722 C 351.732 -5.21625 0.692375 0
M  V30 3723 O 350.758 -5.52619 1.36385 0
M  V30 3724 N 351.96 -5.78201 -0.516178 0
M  V30 3725 H 354.725 -2.41642 1.77283 0
M  V30 3726 H 352.286 -1.21401 1.07115 0
M  V30 3727 H 354.278 -4.04359 -0.16603 0
M  V30 3728 H 352.848 -3.06972 -0.590487 0
M  V30 3729 H 352.068 -3.47451 1.86203 0
M  V30 3730 H 353.356 -4.68643 1.98119 0
M  V30 3731 H 352.754 -5.55301 -1.07969 0
M  V30 3732 H 351.311 -6.4604 -0.86458 0
M  V30 3733 N 354.744 -0.972509 -1.24016 0
M  V30 3734 C 355.707 -0.511403 -2.23422 0
M  V30 3735 C 356.707 0.394679 -1.55881 0
M  V30 3736 O 357.897 0.189469 -1.73167 0
M  V30 3737 C 355.029 0.258769 -3.39916 0
M  V30 3738 H 356.222 -1.39024 -2.6573 0
M  V30 3739 H 353.775 -0.757585 -1.36713 0
M  V30 3740 H 354.51 1.1545 -3.03054 0
M  V30 3741 H 354.295 -0.391522 -3.9014 0
M  V30 3742 H 355.785 0.570244 -4.13688 0
M  V30 3743 N 356.222 1.38976 -0.743202 0
M  V30 3744 C 357.185 2.28901 -0.117014 0
M  V30 3745 C 358.185 1.46698 0.658503 0
M  V30 3746 O 359.375 1.67274 0.486305 0
M  V30 3747 C 356.507 3.30309 0.84315 0
M  V30 3748 H 357.7 2.8578 -0.909373 0
M  V30 3749 H 355.253 1.47761 -0.509547 0
M  V30 3750 H 355.988 2.785 1.66157 0
M  V30 3751 H 355.773 3.91029 0.289594 0
M  V30 3752 H 357.263 3.97577 1.2776 0
M  V30 3753 N 357.7 0.491464 1.49741 0
M  V30 3754 C 358.949 -0.0582189 2.01616 0
M  V30 3755 C 359.262 -1.38927 1.3769 0
M  V30 3756 O 360.468 -2.02509 1.80838 0
M  V30 3757 C 358.924 -0.154235 3.59569 0
M  V30 3758 C 358.532 1.1696 4.32463 0
M  V30 3759 C 360.276 -0.65479 4.1942 0
M  V30 3760 C 358.183 1.03627 5.8225 0
M  V30 3761 H 357.113 -0.0255317 0.753568 0
M  V30 3762 H 359.764 0.629445 1.72367 0
M  V30 3763 H 358.146 -0.906138 3.85493 0
M  V30 3764 H 359.32 1.93405 4.18248 0
M  V30 3765 H 357.635 1.60285 3.84315 0
M  V30 3766 H 360.232 -0.771903 5.29099 0
M  V30 3767 H 360.575 -1.65127 3.8215 0
M  V30 3768 H 361.108 0.040304 3.9778 0
M  V30 3769 H 357.847 2.00672 6.24028 0
M  V30 3770 H 357.367 0.312546 5.98985 0
M  V30 3771 H 359.046 0.711114 6.4308 0
M  V30 3772 N 359.178 -1.55987 0.224894 0
M  V30 3773 C 360.425 -1.9839 -0.4059 0
M  V30 3774 C 360.753 -1.11261 -1.59535 0
M  V30 3775 O 360.008 -0.158314 -1.95059 0
M  V30 3776 C 360.307 -3.46394 -0.880106 0
M  V30 3777 C 359.973 -4.5046 0.19918 0
M  V30 3778 C 358.635 -4.7864 0.495661 0
M  V30 3779 C 360.987 -5.12855 0.928939 0
M  V30 3780 C 358.315 -5.66497 1.52636 0
M  V30 3781 C 360.667 -6.01828 1.949 0
M  V30 3782 C 359.331 -6.28351 2.25236 0
M  V30 3783 H 358.601 -0.725961 -0.148529 0
M  V30 3784 H 361.248 -1.88668 0.328113 0
M  V30 3785 H 359.553 -3.53337 -1.69294 0
M  V30 3786 H 361.25 -3.76577 -1.37808 0
M  V30 3787 H 357.84 -4.28579 -0.0420526 0
M  V30 3788 H 362.024 -4.9115 0.713129 0
M  V30 3789 H 357.28 -5.8531 1.76698 0
M  V30 3790 H 361.454 -6.49225 2.51951 0
M  V30 3791 H 359.081 -6.96226 3.05244 0
M  V30 3792 N 360.656 0.0484629 -1.57525 0
M  V30 3793 C 361.619 1.03956 -2.04269 0
M  V30 3794 C 362.619 1.30211 -0.943496 0
M  V30 3795 O 363.809 1.25539 -1.20771 0
M  V30 3796 C 360.941 2.37742 -2.44319 0
M  V30 3797 H 362.134 0.636182 -2.93075 0
M  V30 3798 H 359.687 0.294811 -1.53494 0
M  V30 3799 H 360.422 2.82866 -1.5861 0
M  V30 3800 H 360.207 2.20021 -3.24551 0
M  V30 3801 H 361.697 3.08936 -2.80978 0
M  V30 3802 N 362.134 1.5431 0.320358 0
M  V30 3803 C 363.066 1.80262 1.41556 0
M  V30 3804 C 364.079 0.684723 1.477 0
M  V30 3805 O 365.268 0.961886 1.50366 0
M  V30 3806 C 362.368 1.90825 2.8007 0
M  V30 3807 C 361.541 3.21023 2.97091 0
M  V30 3808 C 360.6 3.22247 4.15985 0
M  V30 3809 O 359.626 3.95871 4.08992 0
M  V30 3810 N 360.828 2.46258 5.25678 0
M  V30 3811 H 363.593 2.74778 1.19655 0
M  V30 3812 H 361.154 1.53646 0.510358 0
M  V30 3813 H 363.146 1.89067 3.57821 0
M  V30 3814 H 361.716 1.03392 2.95006 0
M  V30 3815 H 360.936 3.35715 2.06614 0
M  V30 3816 H 362.224 4.0698 3.05361 0
M  V30 3817 H 361.622 1.86037 5.34235 0
M  V30 3818 H 360.179 2.50275 6.01835 0
M  V30 3819 N 363.613 -0.582584 1.46437 0
M  V30 3820 C 364.561 -1.71272 1.5738 0
M  V30 3821 C 365.555 -1.63524 0.44229 0
M  V30 3822 O 366.761 -1.69016 0.619166 0
M  V30 3823 H 363.136 -0.566273 0.494813 0
M  V30 3824 H 365.107 -1.59174 2.52401 0
M  V30 3825 C 363.856 -3.09658 1.58136 0
M  V30 3826 H 363.179 -3.16291 2.44541 0
M  V30 3827 H 364.619 -3.88494 1.69847 0
M  V30 3828 C 363.078 -3.3547 0.310026 0
M  V30 3829 O 363.608 -3.97199 -0.599683 0
M  V30 3830 N 361.814 -2.89925 0.197901 0
M  V30 3831 H 361.361 -2.39873 0.93909 0
M  V30 3832 H 361.319 -3.07568 -0.65185 0
M  V30 3833 N 365.091 -1.34144 -0.827227 0
M  V30 3834 C 366.507 -1.13732 -1.11969 0
M  V30 3835 C 366.707 0.0640463 -2.01398 0
M  V30 3836 O 365.763 0.740856 -2.41387 0
M  V30 3837 C 367.076 -2.43047 -1.77055 0
M  V30 3838 C 368.624 -2.49063 -1.89569 0
M  V30 3839 C 369.099 -3.78369 -2.58072 0
M  V30 3840 N 370.59 -3.79505 -2.65575 0
M  V30 3841 C 371.325 -4.76274 -3.19297 0
M  V30 3842 N 370.821 -5.83424 -3.73616 0
M  V30 3843 N 372.614 -4.63735 -3.17658 0
M  V30 3844 H 364.765 -2.11126 -0.232296 0
M  V30 3845 H 367.028 -0.933424 -0.165602 0
M  V30 3846 H 366.734 -3.31025 -1.18807 0
M  V30 3847 H 366.608 -2.56066 -2.76966 0
M  V30 3848 H 368.995 -1.61527 -2.46968 0
M  V30 3849 H 369.076 -2.39975 -0.885745 0
M  V30 3850 H 368.72 -4.66293 -2.01329 0
M  V30 3851 H 368.65 -3.84737 -3.59562 0
M  V30 3852 H 371.141 -3.02074 -2.27068 0
M  V30 3853 H 371.454 -6.53282 -4.12846 0
M  V30 3854 H 369.799 -5.87143 -3.71871 0
M  V30 3855 H 372.99 -3.79177 -2.74486 0
M  V30 3856 H 373.163 -5.39318 -3.59221 0
M  V30 3857 N 366.569 1.04691 -1.17803 0
M  V30 3858 C 367.985 1.29963 -0.926379 0
M  V30 3859 C 368.185 1.97251 0.411635 0
M  V30 3860 O 367.241 2.24922 1.14744 0
M  V30 3861 C 368.554 2.16447 -2.08737 0
M  V30 3862 C 370.102 2.29814 -2.12496 0
M  V30 3863 C 370.577 3.19661 -3.27995 0
M  V30 3864 N 372.068 3.27247 -3.27816 0
M  V30 3865 C 372.803 3.96906 -4.13827 0
M  V30 3866 N 372.299 4.6895 -5.09959 0
M  V30 3867 N 374.092 3.93122 -4.01761 0
M  V30 3868 H 366.243 0.594182 -2.0392 0
M  V30 3869 H 368.506 0.324649 -0.890678 0
M  V30 3870 H 368.212 1.74304 -3.05469 0
M  V30 3871 H 368.086 3.17103 -2.04268 0
M  V30 3872 H 370.473 2.71196 -1.16347 0
M  V30 3873 H 370.554 1.2877 -2.21025 0
M  V30 3874 H 370.198 2.78991 -4.24413 0
M  V30 3875 H 370.128 4.20722 -3.16703 0
M  V30 3876 H 372.619 2.75921 -2.58217 0
M  V30 3877 H 372.932 5.19679 -5.71974 0
M  V30 3878 H 371.277 4.67875 -5.13924 0
M  V30 3879 H 374.468 3.35967 -3.2595 0
M  V30 3880 H 374.641 4.47139 -4.6901 0
M  V30 3881 N 368.047 0.979072 1.23499 0
M  V30 3882 C 369.272 0.664845 1.96455 0
M  V30 3883 C 369.697 -0.761287 1.72006 0
M  V30 3884 O 369.055 -1.51837 0.990713 0
M  V30 3885 C 369.103 0.959479 3.47601 0
M  V30 3886 O 368.207 0.0508168 4.12369 0
M  V30 3887 H 367.548 0.250185 0.615064 0
M  V30 3888 H 370.078 1.31231 1.5697 0
M  V30 3889 H 370.088 0.895642 3.98048 0
M  V30 3890 H 368.763 1.99876 3.64723 0
M  V30 3891 H 367.34 0.16895 3.72517 0
M  V30 3892 N 369.525 -1.3858 0.750561 0
M  V30 3893 C 370.75 -2.04997 0.314812 0
M  V30 3894 C 371.175 -1.56235 -1.04749 0
M  V30 3895 O 370.533 -0.712981 -1.66692 0
M  V30 3896 C 370.581 -3.58961 0.343415 0
M  V30 3897 O 369.685 -4.07025 -0.663628 0
M  V30 3898 H 369.026 -0.649081 0.139962 0
M  V30 3899 H 371.556 -1.77313 1.02084 0
M  V30 3900 H 371.566 -4.07542 0.193233 0
M  V30 3901 H 370.241 -3.93811 1.33738 0
M  V30 3902 H 368.818 -3.6982 -0.478307 0
M  V30 3903 N 371.003 -0.499398 -1.49478 0
M  V30 3904 C 372.251 0.0455996 -2.02049 0
M  V30 3905 C 372.572 1.37633 -1.38138 0
M  V30 3906 O 371.842 1.8842 -0.536166 0
M  V30 3907 H 370.422 0.0198416 -0.746736 0
M  V30 3908 H 373.084 -0.656274 -1.83519 0
M  V30 3909 H 372.18 0.176445 -3.11601 0
M  V30 3910 N 372.481 1.55866 -0.233164 0
M  V30 3911 C 373.391 2.24431 0.683217 0
M  V30 3912 C 374.407 1.2558 1.2044 0
M  V30 3913 O 375.583 1.58422 1.24356 0
M  V30 3914 C 372.648 2.91979 1.86947 0
M  V30 3915 C 371.709 4.06204 1.38912 0
M  V30 3916 C 370.942 4.70522 2.51883 0
M  V30 3917 O 371.165 4.33865 3.70293 0
M  V30 3918 O 370.099 5.59296 2.22423 0
M  V30 3919 H 373.925 3.03426 0.129059 0
M  V30 3920 H 371.51 1.494 -0.0022283 0
M  V30 3921 H 373.392 3.34573 2.56201 0
M  V30 3922 H 372.067 2.15935 2.41151 0
M  V30 3923 H 370.974 3.68155 0.664259 0
M  V30 3924 H 372.307 4.84025 0.893328 0
M  V30 3925 N 373.959 -0.0401083 1.57549 0
M  V30 3926 C 375.375 -0.395556 1.54621 0
M  V30 3927 C 375.575 -1.77281 0.957799 0
M  V30 3928 O 374.631 -2.45888 0.574031 0
M  V30 3929 C 375.944 -0.307535 2.99123 0
M  V30 3930 C 377.492 -0.385425 3.10618 0
M  V30 3931 C 377.967 -0.326973 4.56831 0
M  V30 3932 N 379.458 -0.386102 4.61588 0
M  V30 3933 C 380.193 -0.363591 5.72246 0
M  V30 3934 N 379.689 -0.29402 6.92176 0
M  V30 3935 N 381.482 -0.412503 5.60584 0
M  V30 3936 H 373.633 0.861325 1.94152 0
M  V30 3937 H 375.896 0.326445 0.890021 0
M  V30 3938 H 375.602 0.638461 3.45856 0
M  V30 3939 H 375.476 -1.10552 3.60636 0
M  V30 3940 H 377.863 -1.32185 2.63839 0
M  V30 3941 H 377.944 0.44171 2.51957 0
M  V30 3942 H 377.588 0.605738 5.04275 0
M  V30 3943 H 377.518 -1.17207 5.13391 0
M  V30 3944 H 380.009 -0.442832 3.75296 0
M  V30 3945 H 380.322 -0.28164 7.72287 0
M  V30 3946 H 378.667 -0.260232 6.94513 0
M  V30 3947 H 381.858 -0.464769 4.65787 0
M  V30 3948 H 382.031 -0.391492 6.46816 0
M  V30 3949 N 375.437 -1.54477 -0.31217 0
M  V30 3950 C 376.684 -1.73227 -1.04875 0
M  V30 3951 C 377.012 -0.512042 -1.87639 0
M  V30 3952 O 376.267 0.506131 -1.89042 0
M  V30 3953 C 376.566 -2.967 -1.99258 0
M  V30 3954 C 376.232 -4.30974 -1.32559 0
M  V30 3955 C 374.894 -4.67477 -1.141 0
M  V30 3956 C 377.246 -5.14258 -0.847835 0
M  V30 3957 C 374.574 -5.84852 -0.465326 0
M  V30 3958 C 376.926 -6.32327 -0.185931 0
M  V30 3959 C 375.59 -6.67499 0.0107077 0
M  V30 3960 H 374.86 -0.633881 -0.383765 0
M  V30 3961 H 377.507 -1.88727 -0.324731 0
M  V30 3962 H 375.812 -2.75935 -2.7815 0
M  V30 3963 H 377.509 -3.08401 -2.563 0
M  V30 3964 H 374.099 -4.02262 -1.4793 0
M  V30 3965 H 378.283 -4.86565 -0.978192 0
M  V30 3966 H 373.539 -6.10654 -0.301883 0
M  V30 3967 H 377.713 -6.96135 0.192211 0
M  V30 3968 H 375.34 -7.58306 0.536287 0
M  V30 3969 N 376.915 0.57481 -1.46744 0
M  V30 3970 C 377.845 1.69337 -1.60771 0
M  V30 3971 C 378.826 1.63825 -0.457736 0
M  V30 3972 O 380.011 1.8172 -0.684947 0
M  V30 3973 C 377.141 3.0798 -1.60517 0
M  V30 3974 C 376.095 3.28327 -2.74564 0
M  V30 3975 C 375.421 4.67578 -2.59373 0
M  V30 3976 C 376.721 3.15398 -4.16319 0
M  V30 3977 H 378.415 1.57853 -2.54407 0
M  V30 3978 H 375.961 0.75799 -1.22436 0
M  V30 3979 H 377.914 3.86061 -1.68923 0
M  V30 3980 H 376.638 3.20381 -0.634305 0
M  V30 3981 H 375.297 2.52649 -2.65639 0
M  V30 3982 H 374.945 4.76755 -1.60353 0
M  V30 3983 H 374.645 4.82144 -3.35873 0
M  V30 3984 H 376.169 5.47817 -2.69682 0
M  V30 3985 H 377.583 3.83315 -4.26313 0
M  V30 3986 H 375.98 3.41482 -4.93468 0
M  V30 3987 H 377.05 2.12372 -4.3592 0
M  V30 3988 N 378.394 1.34581 0.820102 0
M  V30 3989 C 379.634 1.28448 1.58998 0
M  V30 3990 C 379.998 -0.142883 1.91468 0
M  V30 3991 O 381.199 -0.328422 2.66786 0
M  V30 3992 C 379.47 2.153 2.85273 0
M  V30 3993 S 381.029 2.26548 3.75794 0
M  V30 3994 H 377.847 0.456685 0.54494 0
M  V30 3995 H 380.449 1.69825 0.968487 0
M  V30 3996 H 379.153 3.18008 2.59421 0
M  V30 3997 H 378.684 1.7483 3.52417 0
M  V30 3998 H 380.699 1.44034 4.74835 0
M  V30 3999 N 379.872 -1.04064 1.18357 0
M  V30 4000 C 381.12 -1.76915 0.977013 0
M  V30 4001 C 381.441 -1.88624 -0.494577 0
M  V30 4002 O 380.711 -1.41125 -1.3587 0
M  V30 4003 H 379.291 -0.65535 0.358504 0
M  V30 4004 H 381.953 -1.25592 1.49039 0
M  V30 4005 H 381.049 -2.78178 1.41504 0
M  V30 4006 N 381.35 -0.985608 -1.22978 0
M  V30 4007 C 382.598 -0.656087 -1.91154 0
M  V30 4008 C 382.919 0.813561 -1.77218 0
M  V30 4009 O 382.189 1.58244 -1.1548 0
M  V30 4010 H 380.769 -0.239674 -0.707506 0
M  V30 4011 H 383.431 -1.25054 -1.49491 0
M  V30 4012 H 382.527 -0.912253 -2.9847 0
M  V30 4013 N 382.828 1.3818 -0.7579 0
M  V30 4014 C 384.077 1.99261 -0.312744 0
M  V30 4015 C 384.39 1.60846 1.11301 0
M  V30 4016 O 385.596 2.14929 1.65885 0
M  V30 4017 C 384.052 3.56294 -0.50821 0
M  V30 4018 C 383.66 4.03657 -1.94333 0
M  V30 4019 C 385.404 4.24313 -0.125982 0
M  V30 4020 C 383.311 5.53347 -2.08712 0
M  V30 4021 H 382.241 0.745456 -0.113185 0
M  V30 4022 H 384.892 1.57889 -0.935056 0
M  V30 4023 H 383.274 3.95575 0.183353 0
M  V30 4024 H 384.448 3.75655 -2.66871 0
M  V30 4025 H 382.763 3.48376 -2.28086 0
M  V30 4026 H 385.36 5.34279 -0.212125 0
M  V30 4027 H 385.703 4.05962 0.921964 0
M  V30 4028 H 386.236 3.90285 -0.769563 0
M  V30 4029 H 382.975 5.76607 -3.11777 0
M  V30 4030 H 382.495 5.83078 -1.4064 0
M  V30 4031 H 384.174 6.19111 -1.87912 0
M  V30 4032 N 384.306 0.507319 1.49211 0
M  V30 4033 C 385.236 -0.256939 2.32082 0
M  V30 4034 C 386.217 -0.956609 1.40652 0
M  V30 4035 O 387.402 -0.946788 1.69557 0
M  V30 4036 C 384.532 -1.31802 3.21318 0
M  V30 4037 C 383.486 -0.737855 4.21592 0
M  V30 4038 C 382.812 -1.89992 4.99807 0
M  V30 4039 C 384.112 0.275325 5.21574 0
M  V30 4040 H 385.806 0.434798 2.96226 0
M  V30 4041 H 383.352 0.210546 1.42452 0
M  V30 4042 H 385.305 -1.86045 3.78107 0
M  V30 4043 H 384.029 -2.03903 2.5513 0
M  V30 4044 H 382.688 -0.217126 3.65956 0
M  V30 4045 H 382.336 -2.60877 4.30061 0
M  V30 4046 H 382.036 -1.51777 5.6766 0
M  V30 4047 H 383.56 -2.44657 5.59442 0
M  V30 4048 H 384.974 -0.179193 5.7302 0
M  V30 4049 H 383.371 0.573649 5.97352 0
M  V30 4050 H 384.441 1.18903 4.70096 0
M  V30 4051 N 385.784 -1.5574 0.241426 0
M  V30 4052 C 387.033 -1.97986 -0.385295 0
M  V30 4053 C 387.346 -1.13267 -1.59468 0
M  V30 4054 O 388.552 -1.45501 -2.2922 0
M  V30 4055 C 387.008 -3.52275 -0.736884 0
M  V30 4056 C 386.616 -4.45726 0.450796 0
M  V30 4057 C 388.36 -4.03189 -1.3281 0
M  V30 4058 C 386.267 -5.91352 0.0756662 0
M  V30 4059 H 385.197 -0.739386 -0.147731 0
M  V30 4060 H 387.848 -1.80308 0.340779 0
M  V30 4061 H 386.23 -3.65628 -1.52094 0
M  V30 4062 H 387.404 -4.44131 1.22819 0
M  V30 4063 H 385.719 -4.05264 0.956573 0
M  V30 4064 H 388.316 -5.09505 -1.62201 0
M  V30 4065 H 388.659 -3.50212 -2.25071 0
M  V30 4066 H 389.192 -3.93141 -0.607069 0
M  V30 4067 H 385.931 -6.48354 0.965272 0
M  V30 4068 H 385.451 -5.96095 -0.665635 0
M  V30 4069 H 387.13 -6.46084 -0.344075 0
M  V30 4070 N 387.262 0.0317525 -1.57568 0
M  V30 4071 C 388.487 0.738664 -1.938 0
M  V30 4072 C 388.912 1.68242 -0.841208 0
M  V30 4073 O 388.27 1.80157 0.203267 0
M  V30 4074 C 388.318 1.47417 -3.29091 0
M  V30 4075 O 387.422 2.5872 -3.2115 0
M  V30 4076 H 386.763 0.198856 -0.633524 0
M  V30 4077 H 389.293 -0.0119713 -2.04596 0
M  V30 4078 H 389.303 1.84468 -3.63917 0
M  V30 4079 H 387.978 0.781988 -4.08482 0
M  V30 4080 H 386.555 2.24231 -2.97951 0
M  V30 4081 N 388.74 1.54641 0.303973 0
M  V30 4082 C 389.965 1.78092 1.06292 0
M  V30 4083 C 390.39 0.537342 1.80262 0
M  V30 4084 O 389.748 -0.511993 1.7392 0
M  V30 4085 C 389.796 2.98612 2.02147 0
M  V30 4086 O 388.9 2.71528 3.10397 0
M  V30 4087 H 388.241 0.589548 0.305497 0
M  V30 4088 H 390.771 2.01716 0.3423 0
M  V30 4089 H 390.781 3.265 2.44667 0
M  V30 4090 H 389.456 3.88785 1.47714 0
M  V30 4091 H 388.033 2.54648 2.72413 0
M  V30 4092 N 390.218 -0.567019 1.47046 0
M  V30 4093 C 391.458 -1.3355 1.54738 0
M  V30 4094 C 391.822 -1.90947 0.200772 0
M  V30 4095 O 393.023 -2.68367 0.152489 0
M  V30 4096 C 391.294 -2.42317 2.62712 0
M  V30 4097 S 392.853 -3.29383 2.89918 0
M  V30 4098 H 389.671 -0.454788 0.546525 0
M  V30 4099 H 392.273 -0.650191 1.84371 0
M  V30 4100 H 390.977 -1.98568 3.59164 0
M  V30 4101 H 390.508 -3.15601 2.34861 0
M  V30 4102 H 392.523 -4.41548 2.26384 0
M  V30 4103 N 391.696 -1.35014 -0.812953 0
M  V30 4104 C 392.942 -1.29129 -1.57154 0
M  V30 4105 C 393.297 0.134922 -1.91926 0
M  V30 4106 O 392.59 1.08373 -1.58006 0
M  V30 4107 C 392.784 -2.12524 -2.87347 0
M  V30 4108 C 392.613 -3.6311 -2.65294 0
M  V30 4109 C 391.383 -4.32363 -2.61516 0
M  V30 4110 C 393.581 -4.56897 -2.36114 0
M  V30 4111 N 391.563 -5.68735 -2.31113 0
M  V30 4112 C 392.934 -5.81345 -2.15494 0
M  V30 4113 C 394.989 -4.45706 -2.21925 0
M  V30 4114 C 393.692 -6.95862 -1.82122 0
M  V30 4115 C 395.718 -5.60066 -1.89948 0
M  V30 4116 C 395.08 -6.83539 -1.7016 0
M  V30 4117 H 391.179 -0.527764 -0.577052 0
M  V30 4118 H 393.763 -1.6983 -0.952146 0
M  V30 4119 H 391.934 -1.74104 -3.47192 0
M  V30 4120 H 393.666 -1.98207 -3.5284 0
M  V30 4121 H 390.421 -3.84907 -2.75941 0
M  V30 4122 H 390.845 -6.40694 -2.18724 0
M  V30 4123 H 395.487 -3.50855 -2.35925 0
M  V30 4124 H 393.205 -7.90685 -1.6686 0
M  V30 4125 H 396.791 -5.53357 -1.79687 0
M  V30 4126 H 395.671 -7.70531 -1.45777 0
M  V30 4127 N 393.175 1.03435 -1.18907 0
M  V30 4128 C 394.421 1.77005 -0.989798 0
M  V30 4129 C 394.754 1.88205 0.478816 0
M  V30 4130 O 394.029 1.39481 1.35556 0
M  V30 4131 C 394.312 3.19925 -1.65287 0
M  V30 4132 C 394.165 3.1663 -3.19477 0
M  V30 4133 C 395.484 4.18189 -1.37134 0
M  V30 4134 H 392.603 0.642538 -0.360991 0
M  V30 4135 H 395.245 1.20784 -1.46667 0
M  V30 4136 H 393.395 3.67929 -1.24741 0
M  V30 4137 H 395.067 2.76567 -3.692 0
M  V30 4138 H 393.31 2.54491 -3.51307 0
M  V30 4139 H 393.981 4.1758 -3.61013 0
M  V30 4140 H 396.457 3.78761 -1.72276 0
M  V30 4141 H 395.333 5.16394 -1.86087 0
M  V30 4142 H 395.594 4.41112 -0.295424 0
M  V30 4143 N 394.653 0.992116 1.22453 0
M  V30 4144 C 395.583 0.561677 2.26644 0
M  V30 4145 C 396.564 -0.411055 1.65059 0
M  V30 4146 O 397.749 -0.301861 1.9184 0
M  V30 4147 C 394.879 -0.125247 3.47074 0
M  V30 4148 C 393.833 0.765948 4.21091 0
M  V30 4149 C 393.159 -0.0538484 5.34673 0
M  V30 4150 C 394.459 2.06242 4.79856 0
M  V30 4151 H 396.153 1.43259 2.62902 0
M  V30 4152 H 393.699 0.690283 1.26377 0
M  V30 4153 H 395.652 -0.437764 4.1912 0
M  V30 4154 H 394.376 -1.03069 3.0991 0
M  V30 4155 H 393.035 1.0621 3.50878 0
M  V30 4156 H 392.683 -0.960188 4.9375 0
M  V30 4157 H 392.383 0.539415 5.85119 0
M  V30 4158 H 393.907 -0.360477 6.09535 0
M  V30 4159 H 395.321 1.8139 5.43848 0
M  V30 4160 H 393.718 2.60444 5.40638 0
M  V30 4161 H 394.788 2.74167 3.99951 0
M  V30 4162 N 396.131 -1.37776 0.765217 0
M  V30 4163 C 397.359 -2.04124 0.337767 0
M  V30 4164 C 397.774 -1.57715 -1.03785 0
M  V30 4165 O 397.131 -0.755447 -1.6613 0
M  V30 4166 C 397.182 -3.59658 0.364442 0
M  V30 4167 O 396.903 -4.04367 1.68579 0
M  V30 4168 C 398.404 -4.43236 -0.0754221 0
M  V30 4169 H 395.624 -0.655696 0.142491 0
M  V30 4170 H 398.168 -1.76238 1.03732 0
M  V30 4171 H 396.323 -3.86339 -0.286471 0
M  V30 4172 H 396.737 -4.98857 1.61993 0
M  V30 4173 H 398.211 -5.52 -0.00560067 0
M  V30 4174 H 398.688 -4.2455 -1.12491 0
M  V30 4175 H 399.294 -4.21767 0.547055 0
M  V30 4176 N 397.609 -0.515225 -1.4894 0
M  V30 4177 C 398.572 0.244681 -2.2789 0
M  V30 4178 C 399.572 0.881166 -1.34507 0
M  V30 4179 O 400.762 0.743497 -1.57537 0
M  V30 4180 C 397.894 1.35247 -3.12923 0
M  V30 4181 H 399.087 -0.448289 -2.96531 0
M  V30 4182 H 396.64 -0.270656 -1.53939 0
M  V30 4183 H 397.375 2.07916 -2.48881 0
M  V30 4184 H 397.16 0.901374 -3.81599 0
M  V30 4185 H 398.65 1.88737 -3.72516 0
M  V30 4186 N 399.087 1.5561 -0.249682 0
M  V30 4187 C 400.05 2.20217 0.635394 0
M  V30 4188 C 401.05 1.17227 1.10066 0
M  V30 4189 O 402.24 1.42292 1.00492 0
M  V30 4190 C 399.372 2.84794 1.87363 0
M  V30 4191 H 400.565 2.99814 0.0716752 0
M  V30 4192 H 398.118 1.563 -0.000153234 0
M  V30 4193 H 398.853 2.09142 2.47851 0
M  V30 4194 H 398.638 3.60241 1.5482 0
M  V30 4195 H 400.128 3.3423 2.5036 0
M  V30 4196 N 400.565 -0.0233959 1.57583 0
M  V30 4197 C 401.515 -1.03023 2.03397 0
M  V30 4198 C 402.499 -1.31701 0.924315 0
M  V30 4199 O 403.691 -1.31191 1.18819 0
M  V30 4200 C 400.82 -2.32961 2.52159 0
M  V30 4201 C 399.906 -2.07349 3.69956 0
M  V30 4202 N 400.297 -1.51814 4.82479 0
M  V30 4203 C 398.595 -2.37606 3.77438 0
M  V30 4204 C 399.296 -1.42136 5.64068 0
M  V30 4205 N 398.272 -1.89891 5.09355 0
M  V30 4206 H 402.074 -0.594962 2.87815 0
M  V30 4207 H 399.588 -0.229586 1.60769 0
M  V30 4208 H 401.585 -3.05906 2.83244 0
M  V30 4209 H 400.245 -2.77162 1.69149 0
M  V30 4210 H 401.256 -1.20008 5.03804 0
M  V30 4211 H 397.933 -2.84842 3.05239 0
M  V30 4212 H 399.323 -0.996405 6.64471 0
M  V30 4213 N 402.043 -1.548 -0.295768 0
M  V30 4214 C 403.283 -1.76069 -1.03823 0
M  V30 4215 C 403.647 -0.537992 -1.84309 0
M  V30 4216 O 404.848 -0.628514 -2.61349 0
M  V30 4217 C 403.119 -3.01705 -1.91596 0
M  V30 4218 S 404.678 -3.43998 -2.72416 0
M  V30 4219 H 401.496 -0.618852 -0.350062 0
M  V30 4220 H 404.098 -1.93009 -0.31106 0
M  V30 4221 H 402.802 -3.88812 -1.31351 0
M  V30 4222 H 402.333 -2.87366 -2.68671 0
M  V30 4223 H 404.348 -3.0148 -3.94112 0
M  V30 4224 N 403.521 0.559213 -1.47345 0
M  V30 4225 C 404.768 1.31648 -1.53867 0
M  V30 4226 C 405.096 1.93468 -0.200104 0
M  V30 4227 O 404.351 1.78295 0.806799 0
M  V30 4228 C 404.65 2.44853 -2.6035 0
M  V30 4229 C 404.316 2.00876 -4.03683 0
M  V30 4230 C 402.978 1.88599 -4.42701 0
M  V30 4231 C 405.33 1.67279 -4.93626 0
M  V30 4232 C 402.658 1.41017 -5.69501 0
M  V30 4233 C 405.01 1.21169 -6.20887 0
M  V30 4234 C 403.674 1.07487 -6.58789 0
M  V30 4235 H 402.944 0.481734 -0.56304 0
M  V30 4236 H 405.591 0.627301 -1.80934 0
M  V30 4237 H 403.896 3.19318 -2.27032 0
M  V30 4238 H 405.593 3.03039 -2.62619 0
M  V30 4239 H 402.183 2.11374 -3.72853 0
M  V30 4240 H 406.367 1.75638 -4.64182 0
M  V30 4241 H 401.623 1.29086 -5.97618 0
M  V30 4242 H 405.797 0.942345 -6.89995 0
M  V30 4243 H 403.424 0.703946 -7.56934 0
M  V30 4244 N 404.999 1.35443 0.805782 0
M  V30 4245 C 405.931 1.24285 1.92577 0
M  V30 4246 C 406.944 0.165962 1.61952 0
M  V30 4247 O 408.133 0.419303 1.73505 0
M  V30 4248 C 405.233 0.891272 3.2697 0
M  V30 4249 C 404.406 2.06669 3.85495 0
M  V30 4250 C 403.465 1.69077 4.98297 0
M  V30 4251 O 402.491 2.4096 5.15681 0
M  V30 4252 N 403.693 0.614869 5.77234 0
M  V30 4253 H 406.458 2.20777 2.02676 0
M  V30 4254 H 404.019 1.28623 0.983243 0
M  V30 4255 H 406.011 0.621256 3.99903 0
M  V30 4256 H 404.581 0.016004 3.12596 0
M  V30 4257 H 403.801 2.50046 3.04747 0
M  V30 4258 H 405.089 2.85237 4.21328 0
M  V30 4259 H 404.487 0.017648 5.65697 0
M  V30 4260 H 403.044 0.404636 6.50543 0
M  V30 4261 N 406.477 -1.02803 1.19454 0
M  V30 4262 C 407.387 -2.14575 0.948408 0
M  V30 4263 C 408.403 -1.73757 -0.091871 0
M  V30 4264 O 409.579 -2.01185 0.0929654 0
M  V30 4265 C 406.644 -3.43202 0.491265 0
M  V30 4266 C 405.705 -3.98328 1.60103 0
M  V30 4267 C 404.938 -5.20816 1.16561 0
M  V30 4268 O 405.161 -5.70392 0.0295238 0
M  V30 4269 O 404.095 -5.68801 1.96849 0
M  V30 4270 H 407.921 -2.38202 1.88397 0
M  V30 4271 H 405.506 -1.12989 0.977433 0
M  V30 4272 H 407.388 -4.20687 0.245015 0
M  V30 4273 H 406.063 -3.21018 -0.415851 0
M  V30 4274 H 404.97 -3.22174 1.90144 0
M  V30 4275 H 406.303 -4.24879 2.48473 0
M  V30 4276 N 407.956 -0.998596 -1.21925 0
M  V30 4277 C 409.181 -0.696015 -1.95372 0
M  V30 4278 C 409.606 0.733826 -1.73195 0
M  V30 4279 O 408.964 1.50242 -1.01474 0
M  V30 4280 C 409.012 -1.01466 -3.4603 0
M  V30 4281 O 408.116 -0.116415 -4.12236 0
M  V30 4282 H 407.457 -0.259938 -0.611006 0
M  V30 4283 H 409.987 -1.33711 -1.54863 0
M  V30 4284 H 409.997 -0.958855 -3.96573 0
M  V30 4285 H 408.672 -2.05653 -3.61497 0
M  V30 4286 H 407.249 -0.228193 -3.72201 0
M  V30 4287 N 409.434 1.37368 -0.772513 0
M  V30 4288 C 410.664 2.03647 -0.348082 0
M  V30 4289 C 411.072 1.58392 1.03482 0
M  V30 4290 O 410.415 0.760921 1.672 0
M  V30 4291 C 410.477 3.58131 -0.313404 0
M  V30 4292 C 410.141 4.2652 -1.64102 0
M  V30 4293 C 411.138 4.50587 -2.5936 0
M  V30 4294 C 408.823 4.64335 -1.91567 0
M  V30 4295 C 410.817 5.11526 -3.80289 0
M  V30 4296 C 408.504 5.24996 -3.12766 0
M  V30 4297 C 409.502 5.48529 -4.06946 0
M  V30 4298 O 409.19 6.07921 -5.26011 0
M  V30 4299 H 408.922 0.660538 -0.143753 0
M  V30 4300 H 411.476 1.76669 -1.04772 0
M  V30 4301 H 409.706 3.84159 0.442617 0
M  V30 4302 H 411.395 4.05813 0.0840613 0
M  V30 4303 H 412.161 4.21784 -2.39423 0
M  V30 4304 H 408.04 4.45353 -1.19088 0
M  V30 4305 H 411.584 5.29811 -4.53813 0
M  V30 4306 H 407.481 5.53223 -3.32588 0
M  V30 4307 H 408.249 6.26398 -5.26847 0
M  V30 4308 N 410.912 0.523116 1.48665 0
M  V30 4309 C 411.842 -0.23231 2.32342 0
M  V30 4310 C 412.823 -0.941637 1.41659 0
M  V30 4311 O 414.008 -0.928751 1.70552 0
M  V30 4312 C 411.138 -1.28387 3.22698 0
M  V30 4313 C 410.092 -0.693098 4.22351 0
M  V30 4314 C 409.418 -1.8468 5.01794 0
M  V30 4315 C 410.718 0.33063 5.21252 0
M  V30 4316 H 412.412 0.466192 2.95748 0
M  V30 4317 H 409.958 0.225643 1.42221 0
M  V30 4318 H 411.911 -1.82024 3.80059 0
M  V30 4319 H 410.635 -2.01186 2.57278 0
M  V30 4320 H 409.294 -0.178299 3.66166 0
M  V30 4321 H 408.942 -2.56301 4.32804 0
M  V30 4322 H 408.642 -1.45747 5.69238 0
M  V30 4323 H 410.166 -2.38709 5.62006 0
M  V30 4324 H 411.58 -0.118407 5.73178 0
M  V30 4325 H 409.977 0.636974 5.9671 0
M  V30 4326 H 411.047 1.23883 4.68808 0
M  V30 4327 N 412.39 -1.55475 0.257931 0
M  V30 4328 C 413.801 -1.8511 -0.243135 0
M  V30 4329 C 414.152 -1.17986 -1.5676 0
M  V30 4330 O 413.277 -0.462102 -2.11409 0
M  V30 4331 C 413.872 -3.35826 -0.447929 0
M  V30 4332 C 412.431 -3.65647 -0.893245 0
M  V30 4333 C 411.578 -2.7729 0.0232965 0
M  V30 4334 H 414.529 -1.51261 0.480199 0
M  V30 4335 H 414.55 -3.58002 -1.28898 0
M  V30 4336 H 414.062 -3.84652 0.516196 0
M  V30 4337 H 412.163 -3.22308 -1.86945 0
M  V30 4338 H 412.276 -4.73312 -0.742469 0
M  V30 4339 H 410.64 -2.49942 -0.490021 0
M  V30 4340 H 411.423 -3.28926 0.982994 0
M  V30 4341 N 413.868 0.0150385 -1.57593 0
M  V30 4342 C 415.145 0.7392 -1.81094 0
M  V30 4343 C 415.525 1.92817 -0.859344 0
M  V30 4344 O 414.873 2.28301 0.095362 0
M  V30 4345 C 415.083 1.15907 -3.29191 0
M  V30 4346 C 416.431 1.56918 -3.9454 0
M  V30 4347 O 417.455 1.25328 -3.33424 0
M  V30 4348 O 416.314 2.15604 -5.02173 0
M  V30 4349 H 413.408 0.358631 -0.745193 0
M  V30 4350 H 415.954 -0.00926156 -1.69697 0
M  V30 4351 H 414.726 0.310921 -3.90063 0
M  V30 4352 H 414.349 1.96711 -3.45529 0
M  V30 4353 N 415.346 1.54954 0.287554 0
M  V30 4354 C 416.278 1.83224 1.37701 0
M  V30 4355 C 417.291 0.715898 1.46215 0
M  V30 4356 O 418.48 0.993565 1.48292 0
M  V30 4357 C 415.58 1.96723 2.75959 0
M  V30 4358 C 414.753 3.27253 2.90215 0
M  V30 4359 C 413.812 3.30998 4.09056 0
M  V30 4360 O 412.838 4.04457 4.00503 0
M  V30 4361 N 414.04 2.57353 5.20336 0
M  V30 4362 H 416.805 2.77254 1.138 0
M  V30 4363 H 414.366 1.54694 0.477652 0
M  V30 4364 H 416.358 1.96615 3.5373 0
M  V30 4365 H 414.928 1.09626 2.92747 0
M  V30 4366 H 414.148 3.40022 1.99447 0
M  V30 4367 H 415.436 4.13365 2.96659 0
M  V30 4368 H 414.834 1.97327 5.30169 0
M  V30 4369 H 413.391 2.62984 5.96391 0
M  V30 4370 N 416.824 -0.551391 1.4764 0
M  V30 4371 C 417.754 -1.66757 1.63445 0
M  V30 4372 C 418.735 -1.63077 0.483742 0
M  V30 4373 O 419.92 -1.80607 0.71377 0
M  V30 4374 C 417.05 -3.05387 1.65396 0
M  V30 4375 C 416.004 -3.23918 2.79752 0
M  V30 4376 C 415.33 -4.63393 2.66779 0
M  V30 4377 C 416.63 -3.08735 4.21284 0
M  V30 4378 H 418.324 -1.53786 2.56886 0
M  V30 4379 H 415.87 -0.738415 1.23626 0
M  V30 4380 H 417.823 -3.83325 1.75043 0
M  V30 4381 H 416.547 -3.19332 0.685195 0
M  V30 4382 H 415.206 -2.48391 2.69625 0
M  V30 4383 H 414.854 -4.74144 1.67918 0
M  V30 4384 H 414.554 -4.7674 3.43501 0
M  V30 4385 H 416.078 -5.43458 2.78364 0
M  V30 4386 H 417.492 -3.76484 4.32357 0
M  V30 4387 H 415.889 -3.33588 4.98838 0
M  V30 4388 H 416.959 -2.0541 4.39243 0
M  V30 4389 N 418.302 -1.35869 -0.798587 0
M  V30 4390 C 419.249 -1.29446 -1.91082 0
M  V30 4391 C 420.219 -0.16487 -1.6528 0
M  V30 4392 O 421.404 -0.349888 -1.87564 0
M  V30 4393 C 418.544 -1.0804 -3.27752 0
M  V30 4394 C 417.657 -2.29993 -3.65687 0
M  V30 4395 C 416.792 -2.01673 -4.91428 0
M  V30 4396 C 415.831 -3.19636 -5.22015 0
M  V30 4397 N 414.968 -2.91039 -6.38937 0
M  V30 4398 H 419.808 -2.24553 -1.95907 0
M  V30 4399 H 417.345 -1.11615 -0.958148 0
M  V30 4400 H 419.303 -0.936586 -4.06551 0
M  V30 4401 H 417.933 -0.16592 -3.22373 0
M  V30 4402 H 416.985 -2.55211 -2.82085 0
M  V30 4403 H 418.297 -3.18052 -3.84245 0
M  V30 4404 H 417.451 -1.84168 -5.78072 0
M  V30 4405 H 416.19 -1.10911 -4.74921 0
M  V30 4406 H 415.195 -3.37709 -4.33858 0
M  V30 4407 H 416.42 -4.11211 -5.40447 0
M  V30 4408 H 414.366 -2.0288 -6.2384 0
M  V30 4409 H 414.283 -3.72635 -6.57784 0
M  V30 4410 H 415.551 -2.77093 -7.28587 0
M  V30 4411 N 419.78 1.02168 -1.19998 0
M  V30 4412 C 421.026 1.75945 -1.00852 0
M  V30 4413 C 421.359 1.88702 0.458828 0
M  V30 4414 O 420.634 1.40911 1.34069 0
M  V30 4415 C 420.917 3.18154 -1.68671 0
M  V30 4416 C 420.77 3.13224 -3.22817 0
M  V30 4417 C 422.089 4.16711 -1.41561 0
M  V30 4418 H 419.208 0.638673 -0.367785 0
M  V30 4419 H 421.85 1.19222 -1.4794 0
M  V30 4420 H 420 3.66586 -1.28636 0
M  V30 4421 H 421.672 2.72635 -3.72112 0
M  V30 4422 H 419.915 2.50751 -3.53986 0
M  V30 4423 H 420.586 4.13728 -3.65422 0
M  V30 4424 H 423.062 3.76913 -1.76284 0
M  V30 4425 H 421.938 5.14391 -1.91553 0
M  V30 4426 H 422.199 4.40774 -0.342193 0
M  V30 4427 N 421.258 1.00505 1.21394 0
M  V30 4428 C 422.504 0.688793 1.90745 0
M  V30 4429 C 422.837 -0.778486 1.77914 0
M  V30 4430 O 422.112 -1.56433 1.15581 0
M  V30 4431 C 422.395 1.11063 3.42545 0
M  V30 4432 C 422.248 2.63737 3.64367 0
M  V30 4433 C 423.567 0.673059 4.34923 0
M  V30 4434 H 420.686 0.251702 0.692687 0
M  V30 4435 H 423.328 1.25074 1.43026 0
M  V30 4436 H 421.478 0.632508 3.83317 0
M  V30 4437 H 423.15 3.19313 3.32922 0
M  V30 4438 H 421.393 3.05248 3.08231 0
M  V30 4439 H 422.064 2.88305 4.70727 0
M  V30 4440 H 424.54 1.08392 4.01734 0
M  V30 4441 H 423.416 0.996383 5.39781 0
M  V30 4442 H 423.677 -0.425808 4.40045 0
M  V30 4443 N 422.737 -1.36956 0.779787 0
M  V30 4444 C 423.667 -2.32761 0.185651 0
M  V30 4445 C 424.648 -1.56177 -0.673989 0
M  V30 4446 O 425.833 -1.84378 -0.609797 0
M  V30 4447 C 422.963 -3.40418 -0.687964 0
M  V30 4448 C 421.917 -4.27941 0.0710102 0
M  V30 4449 C 421.243 -5.26681 -0.922573 0
M  V30 4450 C 422.543 -5.07006 1.25467 0
M  V30 4451 H 424.237 -2.82698 0.986008 0
M  V30 4452 H 421.783 -1.3592 0.475592 0
M  V30 4453 H 423.736 -4.06423 -1.11348 0
M  V30 4454 H 422.46 -2.89025 -1.52093 0
M  V30 4455 H 421.119 -3.63478 0.47739 0
M  V30 4456 H 420.767 -4.71565 -1.7503 0
M  V30 4457 H 420.467 -5.86103 -0.419237 0
M  V30 4458 H 421.991 -5.9556 -1.34686 0
M  V30 4459 H 423.405 -5.66105 0.905401 0
M  V30 4460 H 421.802 -5.75793 1.69063 0
M  V30 4461 H 422.872 -4.3921 2.05481 0
M  V30 4462 N 424.215 -0.530993 -1.48385 0
M  V30 4463 C 425.463 0.00273189 -2.021 0
M  V30 4464 C 425.784 1.34672 -1.41027 0
M  V30 4465 O 425.054 1.8724 -0.576012 0
M  V30 4466 H 423.634 0.00399774 -0.746989 0
M  V30 4467 H 426.296 -0.695054 -1.82085 0
M  V30 4468 H 425.392 0.11031 -3.11905 0
M  V30 4469 N 425.693 1.55336 -0.266172 0
M  V30 4470 C 427.109 1.59356 0.0882065 0
M  V30 4471 C 427.309 1.2834 1.55342 0
M  V30 4472 O 426.365 1.03996 2.30089 0
M  V30 4473 C 427.678 2.99409 -0.278364 0
M  V30 4474 C 429.226 3.12196 -0.224243 0
M  V30 4475 C 429.701 4.545 -0.565123 0
M  V30 4476 N 431.192 4.60313 -0.51634 0
M  V30 4477 C 431.927 5.68434 -0.753013 0
M  V30 4478 N 431.423 6.84738 -1.05383 0
M  V30 4479 N 433.216 5.57942 -0.682414 0
M  V30 4480 H 425.367 1.73764 -1.22147 0
M  V30 4481 H 427.63 0.809822 -0.492841 0
M  V30 4482 H 427.336 3.2691 -1.29703 0
M  V30 4483 H 427.21 3.75228 0.385186 0
M  V30 4484 H 429.597 2.84464 0.78512 0
M  V30 4485 H 429.678 2.38609 -0.921922 0
M  V30 4486 H 429.322 4.82956 -1.57213 0
M  V30 4487 H 429.252 5.26374 0.154248 0
M  V30 4488 H 431.743 3.7676 -0.29335 0
M  V30 4489 H 432.056 7.63088 -1.22133 0
M  V30 4490 H 430.401 6.86375 -1.09151 0
M  V30 4491 H 433.592 4.65958 -0.44731 0
M  V30 4492 H 433.765 6.4213 -0.870248 0
M  V30 4493 N 427.171 -0.0066808 1.57599 0
M  V30 4494 C 428.399 -0.704087 1.94551 0
M  V30 4495 C 428.814 -1.67677 0.867746 0
M  V30 4496 O 428.171 -1.8185 -0.153925 0
M  V30 4497 C 428.222 -1.44177 3.31505 0
M  V30 4498 O 427.943 -0.508097 4.35144 0
M  V30 4499 C 429.444 -2.23429 3.82876 0
M  V30 4500 H 426.664 -0.196523 0.641576 0
M  V30 4501 H 429.208 0.042453 2.04456 0
M  V30 4502 H 427.363 -2.13999 3.22929 0
M  V30 4503 H 427.777 -1.02782 5.14331 0
M  V30 4504 H 429.251 -2.70552 4.8115 0
M  V30 4505 H 429.728 -3.05818 3.15233 0
M  V30 4506 H 430.334 -1.58636 3.94607 0
M  V30 4507 N 428.649 -1.55105 -0.279332 0
M  V30 4508 C 429.879 -1.7917 -1.02867 0
M  V30 4509 C 430.287 -0.56204 -1.80659 0
M  V30 4510 O 429.63 0.478266 -1.77365 0
M  V30 4511 C 429.692 -2.96061 -2.03932 0
M  V30 4512 C 429.356 -4.33341 -1.45137 0
M  V30 4513 C 430.353 -5.12565 -0.870266 0
M  V30 4514 C 428.038 -4.79987 -1.48048 0
M  V30 4515 C 430.032 -6.36565 -0.326097 0
M  V30 4516 C 427.719 -6.03944 -0.932443 0
M  V30 4517 C 428.717 -6.8207 -0.356247 0
M  V30 4518 O 428.405 -8.03691 0.183412 0
M  V30 4519 H 428.137 -0.600796 -0.309872 0
M  V30 4520 H 430.691 -2.02932 -0.317468 0
M  V30 4521 H 428.921 -2.67975 -2.78794 0
M  V30 4522 H 430.61 -3.07506 -2.64943 0
M  V30 4523 H 431.376 -4.77661 -0.840521 0
M  V30 4524 H 427.255 -4.1919 -1.91835 0
M  V30 4525 H 430.799 -6.97489 0.124286 0
M  V30 4526 H 426.696 -6.3833 -0.959407 0
M  V30 4527 H 427.464 -8.18468 0.0721681 0
M  V30 4528 N 430.127 0.543554 -1.4793 0
M  V30 4529 C 431.543 0.870806 -1.3375 0
M  V30 4530 C 431.743 1.9864 -0.338261 0
M  V30 4531 O 430.799 2.51305 0.245371 0
M  V30 4532 C 432.112 1.25114 -2.73435 0
M  V30 4533 C 433.66 1.3618 -2.81823 0
M  V30 4534 C 434.135 1.77563 -4.22179 0
M  V30 4535 N 435.626 1.8469 -4.24787 0
M  V30 4536 C 436.361 2.18067 -5.30315 0
M  V30 4537 N 435.857 2.49963 -6.46135 0
M  V30 4538 N 437.65 2.18958 -5.17701 0
M  V30 4539 H 429.801 -0.19275 -2.11524 0
M  V30 4540 H 432.064 -0.0235777 -0.947707 0
M  V30 4541 H 431.77 0.50514 -3.48053 0
M  V30 4542 H 431.644 2.20431 -3.06088 0
M  V30 4543 H 434.031 2.09859 -2.07468 0
M  V30 4544 H 434.112 0.390169 -2.52807 0
M  V30 4545 H 433.756 1.04449 -4.97044 0
M  V30 4546 H 433.686 2.75753 -4.48629 0
M  V30 4547 H 436.177 1.62372 -3.41239 0
M  V30 4548 H 436.49 2.74497 -7.22406 0
M  V30 4549 H 434.835 2.47513 -6.49432 0
M  V30 4550 H 438.026 1.93488 -4.2624 0
M  V30 4551 H 438.199 2.44639 -6.00047 0
M  V30 4552 N 431.605 1.3629 0.791371 0
M  V30 4553 C 432.851 1.30605 1.55146 0
M  V30 4554 C 433.184 -0.115042 1.93859 0
M  V30 4555 O 432.459 -1.06798 1.62556 0
M  V30 4556 C 432.742 2.22692 2.82985 0
M  V30 4557 C 432.595 3.73489 2.50651 0
M  V30 4558 C 433.914 2.13588 3.84796 0
M  V30 4559 H 431.033 0.475761 0.562868 0
M  V30 4560 H 433.675 1.66825 0.909358 0
M  V30 4561 H 431.825 1.91933 3.37778 0
M  V30 4562 H 433.497 4.14758 2.01924 0
M  V30 4563 H 431.74 3.93021 1.83622 0
M  V30 4564 H 432.411 4.3333 3.41949 0
M  V30 4565 H 434.887 2.40659 3.39445 0
M  V30 4566 H 433.763 2.80195 4.71998 0
M  V30 4567 H 434.024 1.12256 4.27611 0
M  V30 4568 N 433.083 -1.0153 1.20538 0
M  V30 4569 C 434.03 -2.10098 0.955383 0
M  V30 4570 C 435 -1.65702 -0.114878 0
M  V30 4571 O 436.185 -1.90776 0.0301118 0
M  V30 4572 C 433.325 -3.41236 0.514969 0
M  V30 4573 C 432.438 -3.99102 1.65353 0
M  V30 4574 C 431.573 -5.18306 1.16329 0
M  V30 4575 C 430.612 -5.68258 2.27485 0
M  V30 4576 N 429.749 -6.78722 1.7967 0
M  V30 4577 H 434.589 -2.30818 1.88486 0
M  V30 4578 H 432.126 -1.13189 0.939499 0
M  V30 4579 H 434.084 -4.16504 0.240935 0
M  V30 4580 H 432.714 -3.20585 -0.377512 0
M  V30 4581 H 431.766 -3.20918 2.04245 0
M  V30 4582 H 433.078 -4.32177 2.49047 0
M  V30 4583 H 432.232 -6.00782 0.845302 0
M  V30 4584 H 430.971 -4.86799 0.296254 0
M  V30 4585 H 429.976 -4.84385 2.60099 0
M  V30 4586 H 431.201 -6.01798 3.14667 0
M  V30 4587 H 429.147 -6.49042 0.95295 0
M  V30 4588 H 429.064 -7.10996 2.56944 0
M  V30 4589 H 430.332 -7.64759 1.50875 0
M  V30 4590 N 434.561 -1.01147 -1.20859 0
M  V30 4591 C 435.972 -0.730205 -1.71828 0
M  V30 4592 C 436.323 0.751662 -1.8123 0
M  V30 4593 O 435.448 1.58686 -1.47132 0
M  V30 4594 C 436.043 -1.31885 -3.12077 0
M  V30 4595 C 434.602 -1.08656 -3.60376 0
M  V30 4596 C 433.749 -1.42769 -2.37723 0
M  V30 4597 H 436.7 -1.18158 -1.05945 0
M  V30 4598 H 436.721 -0.706793 -3.73878 0
M  V30 4599 H 436.233 -2.39737 -3.05201 0
M  V30 4600 H 434.334 -0.0254814 -3.72591 0
M  V30 4601 H 434.447 -1.76301 -4.45483 0
M  V30 4602 H 432.811 -0.846603 -2.40218 0
M  V30 4603 H 433.594 -2.51666 -2.33493 0
M  V30 4604 N 436.039 1.36541 -0.78704 0
M  V30 4605 C 437.287 1.98911 -0.357633 0
M  V30 4606 C 437.608 1.62778 1.07371 0
M  V30 4607 O 436.878 0.900612 1.73971 0
M  V30 4608 H 435.458 0.735734 -0.129246 0
M  V30 4609 H 438.12 1.66776 -1.00855 0
M  V30 4610 H 437.216 3.08874 -0.447549 0
M  V30 4611 N 437.518 0.538854 1.48102 0
M  V30 4612 C 438.428 -0.222648 2.33541 0
M  V30 4613 C 439.444 -0.930225 1.47047 0
M  V30 4614 O 440.62 -0.903211 1.80011 0
M  V30 4615 C 437.685 -1.25064 3.23357 0
M  V30 4616 C 436.746 -0.552469 4.2573 0
M  V30 4617 C 435.979 -1.53149 5.11254 0
M  V30 4618 O 436.202 -2.76487 4.9891 0
M  V30 4619 O 435.136 -1.06602 5.92385 0
M  V30 4620 H 438.962 0.477707 2.99919 0
M  V30 4621 H 436.547 0.299669 1.46364 0
M  V30 4622 H 438.429 -1.8445 3.78888 0
M  V30 4623 H 437.104 -1.93325 2.59629 0
M  V30 4624 H 436.011 0.082114 3.7401 0
M  V30 4625 H 437.344 0.0883526 4.92121 0
M  V30 4626 N 438.996 -1.55193 0.274407 0
M  V30 4627 C 439.906 -2.26164 -0.623473 0
M  V30 4628 C 440.922 -1.28729 -1.17068 0
M  V30 4629 O 442.098 -1.61663 -1.20112 0
M  V30 4630 C 439.163 -2.96833 -1.7914 0
M  V30 4631 C 438.224 -4.09745 -1.28093 0
M  V30 4632 C 437.457 -4.77034 -2.3932 0
M  V30 4633 O 437.68 -4.4353 -3.5866 0
M  V30 4634 O 436.614 -5.64996 -2.07516 0
M  V30 4635 H 440.44 -3.03661 -0.0485661 0
M  V30 4636 H 438.025 -1.49341 0.0418382 0
M  V30 4637 H 439.907 -3.41248 -2.4724 0
M  V30 4638 H 438.582 -2.22253 -2.35341 0
M  V30 4639 H 437.489 -3.69787 -0.566416 0
M  V30 4640 H 438.822 -4.86224 -0.764683 0
M  V30 4641 N 440.474 -0.00167713 -1.576 0
M  V30 4642 C 441.384 1.00548 -2.1196 0
M  V30 4643 C 442.4 1.3758 -1.06526 0
M  V30 4644 O 443.576 1.46278 -1.38436 0
M  V30 4645 C 440.641 2.27809 -2.6135 0
M  V30 4646 C 439.702 1.97074 -3.81393 0
M  V30 4647 C 438.935 3.18267 -4.28417 0
M  V30 4648 O 439.158 4.30009 -3.74765 0
M  V30 4649 O 438.092 3.02167 -5.20556 0
M  V30 4650 H 441.918 0.573373 -2.98238 0
M  V30 4651 H 439.503 0.217255 -1.47812 0
M  V30 4652 H 441.385 3.02568 -2.93309 0
M  V30 4653 H 440.06 2.70254 -1.78169 0
M  V30 4654 H 438.967 1.19785 -3.54404 0
M  V30 4655 H 440.3 1.59464 -4.65652 0
M  V30 4656 N 441.952 1.55251 0.271103 0
M  V30 4657 C 442.884 1.84675 1.35749 0
M  V30 4658 C 443.897 0.731366 1.45447 0
M  V30 4659 O 445.086 1.00924 1.4723 0
M  V30 4660 C 442.186 1.99638 2.73857 0
M  V30 4661 C 441.359 3.30312 2.86727 0
M  V30 4662 C 440.418 3.35318 4.05522 0
M  V30 4663 O 439.444 4.08682 3.96191 0
M  V30 4664 N 440.646 2.62857 5.17577 0
M  V30 4665 H 443.411 2.78445 1.10853 0
M  V30 4666 H 440.972 1.55191 0.461218 0
M  V30 4667 H 442.964 2.00355 3.51625 0
M  V30 4668 H 441.534 1.12725 2.91568 0
M  V30 4669 H 440.754 3.42118 1.95829 0
M  V30 4670 H 442.042 4.16488 2.92258 0
M  V30 4671 H 441.44 2.02939 5.28046 0
M  V30 4672 H 439.997 2.69295 5.93568 0
M  V30 4673 N 443.43 -0.535701 1.48216 0
M  V30 4674 C 444.658 -1.31671 1.59594 0
M  V30 4675 C 445.073 -1.87083 0.254056 0
M  V30 4676 O 444.43 -1.66112 -0.755854 0
M  V30 4677 C 444.481 -2.47158 2.63809 0
M  V30 4678 O 444.202 -1.94032 3.92789 0
M  V30 4679 C 445.703 -3.39062 2.85573 0
M  V30 4680 H 442.923 -0.400623 0.538277 0
M  V30 4681 H 445.467 -0.646827 1.94001 0
M  V30 4682 H 443.622 -3.10043 2.32276 0
M  V30 4683 H 444.036 -2.69585 4.49916 0
M  V30 4684 H 445.51 -4.16459 3.62306 0
M  V30 4685 H 445.987 -3.93941 1.94184 0
M  V30 4686 H 446.593 -2.81975 3.18387 0
M  V30 4687 N 444.908 -1.36708 -0.784132 0
M  V30 4688 C 446.155 -1.31231 -1.54222 0
M  V30 4689 C 446.483 0.106864 -1.94206 0
M  V30 4690 O 445.738 1.07734 -1.63376 0
M  V30 4691 C 446.037 -2.18571 -2.82774 0
M  V30 4692 C 445.703 -3.67039 -2.61903 0
M  V30 4693 C 444.365 -4.07503 -2.55919 0
M  V30 4694 C 446.717 -4.61149 -2.4288 0
M  V30 4695 C 444.045 -5.40211 -2.28886 0
M  V30 4696 C 446.397 -5.94081 -2.17373 0
M  V30 4697 C 445.061 -6.33664 -2.09825 0
M  V30 4698 H 444.331 -0.48021 -0.56434 0
M  V30 4699 H 446.978 -1.68807 -0.904233 0
M  V30 4700 H 445.283 -1.73949 -3.51068 0
M  V30 4701 H 446.98 -2.11655 -3.40592 0
M  V30 4702 H 443.57 -3.34941 -2.67418 0
M  V30 4703 H 447.754 -4.30756 -2.46501 0
M  V30 4704 H 443.01 -5.69855 -2.21529 0
M  V30 4705 H 447.184 -6.66566 -2.01649 0
M  V30 4706 H 444.811 -7.36423 -1.88641 0
M  V30 4707 N 446.386 1.0089 -1.21074 0
M  V30 4708 C 447.333 2.09588 -0.966512 0
M  V30 4709 C 448.303 1.65761 0.106089 0
M  V30 4710 O 449.488 1.90758 -0.0402287 0
M  V30 4711 C 446.628 3.40958 -0.533058 0
M  V30 4712 C 445.741 3.9822 -1.67467 0
M  V30 4713 C 444.876 5.17682 -1.19076 0
M  V30 4714 C 443.915 5.67043 -2.30496 0
M  V30 4715 N 443.052 6.77759 -1.83267 0
M  V30 4716 H 447.892 2.29815 -1.89708 0
M  V30 4717 H 445.429 1.12689 -0.945489 0
M  V30 4718 H 447.387 4.1637 -0.263019 0
M  V30 4719 H 446.017 3.20781 0.360505 0
M  V30 4720 H 445.069 3.1983 -2.05944 0
M  V30 4721 H 446.381 4.3085 -2.51336 0
M  V30 4722 H 445.535 6.00326 -0.877151 0
M  V30 4723 H 444.274 4.86635 -0.322066 0
M  V30 4724 H 443.279 4.82999 -2.62664 0
M  V30 4725 H 444.504 6.00121 -3.17855 0
M  V30 4726 H 442.45 6.48527 -0.987356 0
M  V30 4727 H 442.367 7.09624 -2.60711 0
M  V30 4728 H 443.635 7.63949 -1.54928 0
M  V30 4729 N 447.864 1.01787 1.20321 0
M  V30 4730 C 449.11 0.708985 1.90003 0
M  V30 4731 C 449.443 -0.759572 1.78729 0
M  V30 4732 O 448.718 -1.55198 1.17234 0
M  V30 4733 C 449.001 1.1469 3.41348 0
M  V30 4734 C 448.854 2.67586 3.61549 0
M  V30 4735 C 450.173 0.71915 4.34185 0
M  V30 4736 H 447.292 0.259034 0.689978 0
M  V30 4737 H 449.934 1.26584 1.41692 0
M  V30 4738 H 448.084 0.673128 3.82624 0
M  V30 4739 H 449.756 3.22826 3.29517 0
M  V30 4740 H 447.999 3.085 3.04976 0
M  V30 4741 H 448.67 2.93281 4.67643 0
M  V30 4742 H 451.146 1.12647 4.00562 0
M  V30 4743 H 450.022 1.05358 5.38694 0
M  V30 4744 H 450.283 -0.379111 4.40472 0
M  V30 4745 N 449.342 -1.36122 0.79427 0
M  V30 4746 C 450.289 -2.29982 0.194101 0
M  V30 4747 C 451.259 -1.52214 -0.664833 0
M  V30 4748 O 452.444 -1.80702 -0.612498 0
M  V30 4749 C 449.584 -3.38706 -0.661244 0
M  V30 4750 C 448.697 -4.31456 0.216766 0
M  V30 4751 C 447.832 -5.27265 -0.645411 0
M  V30 4752 C 446.871 -6.11653 0.233756 0
M  V30 4753 N 446.008 -6.99636 -0.587682 0
M  V30 4754 H 450.848 -2.80722 0.999965 0
M  V30 4755 H 448.385 -1.38172 0.504677 0
M  V30 4756 H 450.343 -4.00394 -1.17219 0
M  V30 4757 H 448.973 -2.89274 -1.43249 0
M  V30 4758 H 448.025 -3.7088 0.845724 0
M  V30 4759 H 449.337 -4.90724 0.893973 0
M  V30 4760 H 448.491 -5.94266 -1.22198 0
M  V30 4761 H 447.23 -4.68463 -1.35623 0
M  V30 4762 H 446.235 -5.4361 0.82269 0
M  V30 4763 H 447.46 -6.72531 0.942247 0
M  V30 4764 H 445.406 -6.43337 -1.2827 0
M  V30 4765 H 445.323 -7.55993 0.0317402 0
M  V30 4766 H 446.591 -7.71001 -1.14792 0
M  V30 4767 N 450.82 -0.546701 -1.47814 0
M  V30 4768 C 451.767 0.206854 -2.29871 0
M  V30 4769 C 452.737 0.918235 -1.38411 0
M  V30 4770 O 453.922 0.915991 -1.67375 0
M  V30 4771 C 451.062 1.23746 -3.22151 0
M  V30 4772 C 450.175 0.533216 -4.28697 0
M  V30 4773 C 449.31 1.5482 -5.08138 0
M  V30 4774 C 448.349 0.828347 -6.06469 0
M  V30 4775 N 447.486 1.78966 -6.78908 0
M  V30 4776 H 452.326 -0.499037 -2.93792 0
M  V30 4777 H 449.863 -0.25793 -1.44821 0
M  V30 4778 H 451.821 1.84746 -3.74065 0
M  V30 4779 H 450.451 1.91151 -2.60117 0
M  V30 4780 H 449.503 -0.191089 -3.7992 0
M  V30 4781 H 450.815 -0.0311987 -4.9879 0
M  V30 4782 H 449.969 2.23202 -5.6415 0
M  V30 4783 H 448.708 2.14652 -4.37922 0
M  V30 4784 H 447.713 0.130539 -5.49645 0
M  V30 4785 H 448.938 0.235907 -6.7869 0
M  V30 4786 H 446.884 2.37675 -6.1143 0
M  V30 4787 H 446.801 1.27712 -7.45135 0
M  V30 4788 H 448.069 2.46496 -7.395 0
M  V30 4789 N 452.299 1.55045 -0.282633 0
M  V30 4790 C 453.529 2.03872 0.334635 0
M  V30 4791 C 453.937 1.16018 1.49454 0
M  V30 4792 O 453.28 0.174449 1.8287 0
M  V30 4793 C 453.342 3.48791 0.870905 0
M  V30 4794 C 453.006 4.56715 -0.161338 0
M  V30 4795 C 454.003 5.10513 -0.983466 0
M  V30 4796 C 451.688 5.01417 -0.297745 0
M  V30 4797 C 453.682 6.07538 -1.92811 0
M  V30 4798 C 451.369 5.98265 -1.24586 0
M  V30 4799 C 452.367 6.51208 -2.05954 0
M  V30 4800 O 452.055 7.46162 -2.99162 0
M  V30 4801 H 451.787 0.671324 0.0793742 0
M  V30 4802 H 454.341 2.01169 -0.41473 0
M  V30 4803 H 452.571 3.48758 1.67047 0
M  V30 4804 H 454.26 3.80916 1.40207 0
M  V30 4805 H 455.026 4.76785 -0.888856 0
M  V30 4806 H 450.905 4.59849 0.325604 0
M  V30 4807 H 454.449 6.48787 -2.56363 0
M  V30 4808 H 450.346 6.31412 -1.34126 0
M  V30 4809 H 451.114 7.63903 -2.93929 0
M  V30 4810 N 453.777 0.010035 1.57597 0
M  V30 4811 C 455.026 -0.671945 1.90178 0
M  V30 4812 C 455.339 -1.74376 0.886131 0
M  V30 4813 O 456.545 -2.48107 1.10252 0
M  V30 4814 C 455.001 -1.24636 3.3763 0
M  V30 4815 C 454.609 -0.208838 4.47513 0
M  V30 4816 C 456.353 -1.90595 3.79307 0
M  V30 4817 C 454.26 -0.793814 5.86048 0
M  V30 4818 H 453.19 -0.25474 0.709665 0
M  V30 4819 H 455.841 0.0722206 1.83358 0
M  V30 4820 H 454.223 -2.04152 3.3932 0
M  V30 4821 H 455.397 0.562463 4.57354 0
M  V30 4822 H 453.712 0.350889 4.14919 0
M  V30 4823 H 456.309 -2.35284 4.80151 0
M  V30 4824 H 456.652 -2.74074 3.13352 0
M  V30 4825 H 457.185 -1.17798 3.79958 0
M  V30 4826 H 453.924 0.00240855 6.555 0
M  V30 4827 H 453.444 -1.53404 5.79851 0
M  V30 4828 H 455.123 -1.2894 6.34022 0
M  V30 4829 N 455.255 -1.55392 -0.262866 0
M  V30 4830 C 456.501 -1.76737 -0.99458 0
M  V30 4831 C 456.834 -0.572453 -1.85571 0
M  V30 4832 O 456.109 0.429732 -1.89693 0
M  V30 4833 C 456.392 -3.07824 -1.8686 0
M  V30 4834 C 456.245 -4.3769 -1.03672 0
M  V30 4835 C 457.564 -3.35021 -2.85393 0
M  V30 4836 H 454.683 -0.643005 -0.360157 0
M  V30 4837 H 457.325 -1.88126 -0.266216 0
M  V30 4838 H 455.475 -2.98245 -2.48962 0
M  V30 4839 H 457.147 -4.59238 -0.43563 0
M  V30 4840 H 455.39 -4.32461 -0.340513 0
M  V30 4841 H 456.061 -5.25759 -1.6817 0
M  V30 4842 H 458.537 -3.44458 -2.33426 0
M  V30 4843 H 457.413 -4.27989 -3.43681 0
M  V30 4844 H 457.674 -2.55153 -3.61039 0
M  V30 4845 N 456.733 0.527833 -1.48498 0
M  V30 4846 C 457.683 1.62844 -1.5958 0
M  V30 4847 C 458.667 1.54397 -0.452809 0
M  V30 4848 O 459.859 1.62381 -0.704364 0
M  V30 4849 C 456.988 3.01557 -1.64067 0
M  V30 4850 C 456.074 3.151 -2.83853 0
M  V30 4851 N 456.465 2.9861 -4.08247 0
M  V30 4852 C 454.763 3.46158 -2.8123 0
M  V30 4853 C 455.464 3.15626 -4.88626 0
M  V30 4854 N 454.44 3.43298 -4.21483 0
M  V30 4855 H 458.242 1.48708 -2.53502 0
M  V30 4856 H 455.756 0.733343 -1.44899 0
M  V30 4857 H 457.753 3.8062 -1.70101 0
M  V30 4858 H 456.413 3.16783 -0.712636 0
M  V30 4859 H 457.424 2.75329 -4.3865 0
M  V30 4860 H 454.101 3.67728 -1.97692 0
M  V30 4861 H 455.491 3.07596 -5.97356 0
M  V30 4862 N 458.211 1.37122 0.776871 0
M  V30 4863 C 459.158 1.3247 1.88998 0
M  V30 4864 C 460.128 0.191143 1.64997 0
M  V30 4865 O 461.313 0.379683 1.86984 0
M  V30 4866 C 458.453 1.13241 3.25992 0
M  V30 4867 C 457.566 2.35782 3.61982 0
M  V30 4868 C 456.701 2.09465 4.88158 0
M  V30 4869 C 455.74 3.279 5.16864 0
M  V30 4870 N 454.877 3.01167 6.34226 0
M  V30 4871 H 459.717 2.27642 1.9231 0
M  V30 4872 H 457.254 1.13125 0.94027 0
M  V30 4873 H 459.212 1.00115 4.0501 0
M  V30 4874 H 457.842 0.217186 3.22069 0
M  V30 4875 H 456.894 2.59666 2.77989 0
M  V30 4876 H 458.206 3.24125 3.79137 0
M  V30 4877 H 457.36 1.93341 5.75069 0
M  V30 4878 H 456.099 1.18452 4.73097 0
M  V30 4879 H 455.104 3.44569 4.2843 0
M  V30 4880 H 456.329 4.19757 5.33836 0
M  V30 4881 H 454.275 2.12779 6.20533 0
M  V30 4882 H 454.192 3.83052 6.51772 0
M  V30 4883 H 455.46 2.88649 7.24087 0
M  V30 4884 N 459.689 -1.00246 1.21608 0
M  V30 4885 C 460.599 -2.12515 0.993709 0
M  V30 4886 C 461.615 -1.73913 -0.0549939 0
M  V30 4887 O 462.791 -2.00943 0.135619 0
M  V30 4888 C 459.856 -3.42083 0.563953 0
M  V30 4889 C 458.917 -3.94843 1.68516 0
M  V30 4890 C 458.15 -5.18226 1.27582 0
M  V30 4891 O 458.373 -5.70201 0.150506 0
M  V30 4892 O 457.307 -5.64497 2.0887 0
M  V30 4893 H 461.133 -2.34152 1.93407 0
M  V30 4894 H 458.718 -1.10891 1.00118 0
M  V30 4895 H 460.6 -4.20073 0.334194 0
M  V30 4896 H 459.275 -3.21828 -0.347665 0
M  V30 4897 H 458.182 -3.18068 1.96935 0
M  V30 4898 H 459.515 -4.19512 2.5743 0
M  V30 4899 N 461.167 -1.02423 -1.1978 0
M  V30 4900 C 462.414 -0.717988 -1.89344 0
M  V30 4901 C 462.742 0.753036 -1.79331 0
M  V30 4902 O 461.997 1.56355 -1.17692 0
M  V30 4903 C 462.296 -1.1088 -3.39765 0
M  V30 4904 C 461.962 -2.57731 -3.6998 0
M  V30 4905 C 460.624 -2.97854 -3.77937 0
M  V30 4906 C 462.976 -3.52763 -3.83677 0
M  V30 4907 C 460.304 -4.31931 -3.97054 0
M  V30 4908 C 462.656 -4.86538 -4.04306 0
M  V30 4909 C 461.32 -5.26356 -4.10494 0
M  V30 4910 H 460.59 -0.26273 -0.692859 0
M  V30 4911 H 463.237 -1.28623 -1.41875 0
M  V30 4912 H 461.542 -0.459094 -3.89101 0
M  V30 4913 H 463.239 -0.849432 -3.919 0
M  V30 4914 H 459.829 -2.25646 -3.64393 0
M  V30 4915 H 464.013 -3.2292 -3.76877 0
M  V30 4916 H 459.269 -4.62324 -4.00083 0
M  V30 4917 H 463.443 -5.60093 -4.13846 0
M  V30 4918 H 461.07 -6.3026 -4.2506 0
M  V30 4919 N 462.645 1.35699 -0.801477 0
M  V30 4920 C 463.922 1.9324 -0.302937 0
M  V30 4921 C 464.302 1.73209 1.20672 0
M  V30 4922 O 463.65 1.09809 2.00385 0
M  V30 4923 C 463.86 3.41728 -0.708747 0
M  V30 4924 C 465.208 4.18868 -0.695328 0
M  V30 4925 O 466.232 3.5022 -0.649971 0
M  V30 4926 O 465.091 5.41342 -0.749081 0
M  V30 4927 H 462.185 0.82331 -0.0780367 0
M  V30 4928 H 464.731 1.44806 -0.884832 0
M  V30 4929 H 463.503 3.50015 -1.74944 0
M  V30 4930 H 463.126 3.97471 -0.101384 0
M  V30 4931 N 464.123 0.554532 1.47522 0
M  V30 4932 C 465.4 -0.0360704 1.95567 0
M  V30 4933 C 465.78 -1.48828 1.49711 0
M  V30 4934 O 465.128 -2.16366 0.734717 0
M  V30 4935 C 465.338 0.106631 3.48837 0
M  V30 4936 C 466.686 -0.0400899 4.24581 0
M  V30 4937 O 467.71 0.0340453 3.56184 0
M  V30 4938 O 466.569 -0.199111 5.46137 0
M  V30 4939 H 463.663 -0.0656294 0.824392 0
M  V30 4940 H 466.209 0.620867 1.57935 0
M  V30 4941 H 464.981 1.11727 3.7501 0
M  V30 4942 H 464.604 -0.58804 3.93227 0
M  V30 4943 N 465.601 -1.54893 0.290851 0
M  V30 4944 C 466.878 -1.91991 -0.373989 0
M  V30 4945 C 467.258 -1.21694 -1.72493 0
M  V30 4946 O 466.606 -0.34917 -2.25816 0
M  V30 4947 C 466.816 -3.45419 -0.498703 0
M  V30 4948 C 468.164 -4.1748 -0.774298 0
M  V30 4949 O 469.188 -3.51398 -0.582908 0
M  V30 4950 O 468.047 -5.3445 -1.14129 0
M  V30 4951 H 465.141 -0.800593 -0.207315 0
M  V30 4952 H 467.687 -1.66297 0.338164 0
M  V30 4953 H 466.459 -3.88688 0.451392 0
M  V30 4954 H 466.082 -3.77117 -1.25972 0
M  V30 4955 N 467.08 -0.0183926 -1.57589 0
M  V30 4956 C 468.308 0.673046 -1.95647 0
M  V30 4957 C 468.723 1.66275 -0.894312 0
M  V30 4958 O 468.08 1.82072 0.124975 0
M  V30 4959 C 468.131 1.38884 -3.33756 0
M  V30 4960 O 467.852 0.438806 -4.35897 0
M  V30 4961 C 469.353 2.1731 -3.86383 0
M  V30 4962 H 466.573 0.186292 -0.644621 0
M  V30 4963 H 469.117 -0.0749748 -2.04363 0
M  V30 4964 H 467.272 2.08835 -3.26293 0
M  V30 4965 H 467.686 0.945869 -5.15901 0
M  V30 4966 H 469.16 2.62863 -4.85394 0
M  V30 4967 H 469.637 3.00764 -3.20059 0
M  V30 4968 H 470.243 1.52339 -3.97081 0
M  V30 4969 N 468.558 1.5553 0.254621 0
M  V30 4970 C 469.788 1.80784 1.00004 0
M  V30 4971 C 470.196 0.59071 1.79742 0
M  V30 4972 O 469.539 -0.449988 1.78103 0
M  V30 4973 C 469.601 2.99268 1.99196 0
M  V30 4974 C 469.265 4.35595 1.38224 0
M  V30 4975 C 470.262 5.13884 0.788611 0
M  V30 4976 C 467.947 4.82281 1.40393 0
M  V30 4977 C 469.941 6.37004 0.224783 0
M  V30 4978 C 467.628 6.05351 0.836243 0
M  V30 4979 C 468.626 6.82551 0.24769 0
M  V30 4980 O 468.314 8.03297 -0.311249 0
M  V30 4981 H 468.046 0.60565 0.300274 0
M  V30 4982 H 470.6 2.03411 0.285143 0
M  V30 4983 H 468.83 2.72377 2.74496 0
M  V30 4984 H 470.519 3.11682 2.60018 0
M  V30 4985 H 471.285 4.78938 0.764423 0
M  V30 4986 H 467.164 4.22189 1.85142 0
M  V30 4987 H 470.708 6.97203 -0.235235 0
M  V30 4988 H 466.605 6.39776 0.857733 0
M  V30 4989 H 467.373 8.1825 -0.20237 0
M  V30 4990 N 470.036 -0.519951 1.48776 0
M  V30 4991 C 470.984 -1.64443 1.64503 0
M  V30 4992 C 471.978 -1.61501 0.511248 0
M  V30 4993 O 473.184 -1.66238 0.690294 0
M  V30 4994 H 469.559 -0.544776 0.518385 0
M  V30 4995 H 471.53 -1.48325 2.58925 0
M  V30 4996 C 470.279 -3.02673 1.71127 0
M  V30 4997 H 469.602 -3.05635 2.57735 0
M  V30 4998 H 471.042 -3.80941 1.86172 0
M  V30 4999 C 469.501 -3.33854 0.452032 0
M  V30 5000 O 470.031 -3.99385 -0.430678 0
M  V30 5001 N 468.237 -2.88825 0.32069 0
M  V30 5002 H 467.784 -2.35674 1.03998 0
M  V30 5003 H 467.742 -3.10056 -0.520814 0
M  V30 5004 N 471.514 -1.37532 -0.769588 0
M  V30 5005 C 472.462 -1.33561 -1.90432 0
M  V30 5006 C 473.456 -0.224027 -1.67912 0
M  V30 5007 O 474.662 -0.392174 -1.75676 0
M  V30 5008 H 471.037 -0.416279 -0.626271 0
M  V30 5009 H 473.008 -2.29348 -1.90899 0
M  V30 5010 C 471.757 -1.16162 -3.27722 0
M  V30 5011 H 471.08 -2.00951 -3.45628 0
M  V30 5012 H 472.52 -1.17434 -4.07413 0
M  V30 5013 C 470.979 0.132583 -3.36639 0
M  V30 5014 O 471.509 1.11539 -3.85904 0
M  V30 5015 N 469.715 0.184013 -2.90017 0
M  V30 5016 H 469.262 -0.616415 -2.50116 0
M  V30 5017 H 469.22 1.04956 -2.96364 0
M  V30 5018 N 472.992 0.995999 -1.22138 0
M  V30 5019 C 474.269 1.70834 -0.952642 0
M  V30 5020 C 474.649 2.04257 0.533119 0
M  V30 5021 O 473.997 1.72343 1.50034 0
M  V30 5022 C 474.207 2.96119 -1.84701 0
M  V30 5023 C 475.555 3.68962 -2.10124 0
M  V30 5024 O 476.579 3.0612 -1.82124 0
M  V30 5025 O 475.438 4.82017 -2.57531 0
M  V30 5026 H 472.532 0.745498 -0.357997 0
M  V30 5027 H 475.078 1.05262 -1.33109 0
M  V30 5028 H 473.85 2.67898 -2.85213 0
M  V30 5029 H 473.473 3.6943 -1.46995 0
M  V30 5030 N 474.47 1.03057 1.19235 0
M  V30 5031 C 475.719 0.72326 1.88287 0
M  V30 5032 C 476.032 -0.751333 1.80594 0
M  V30 5033 O 477.238 -1.17176 2.44912 0
M  V30 5034 C 475.694 1.24338 3.3774 0
M  V30 5035 C 475.302 2.74587 3.53986 0
M  V30 5036 C 477.046 1.01213 4.12257 0
M  V30 5037 C 474.953 3.20009 4.97341 0
M  V30 5038 H 473.883 0.266848 0.705201 0
M  V30 5039 H 476.534 1.24509 1.34795 0
M  V30 5040 H 474.916 0.649457 3.90638 0
M  V30 5041 H 476.09 3.39649 3.11408 0
M  V30 5042 H 474.405 2.9601 2.9286 0
M  V30 5043 H 477.002 1.32675 5.17978 0
M  V30 5044 H 477.345 -0.051001 4.16269 0
M  V30 5045 H 477.878 1.57014 3.65501 0
M  V30 5046 H 474.617 4.25659 4.98493 0
M  V30 5047 H 474.137 2.59676 5.40674 0
M  V30 5048 H 475.816 3.13447 5.66003 0
M  V30 5049 N 475.948 -1.35272 0.808662 0
M  V30 5050 C 476.911 -2.28082 0.226093 0
M  V30 5051 C 477.911 -1.49673 -0.587762 0
M  V30 5052 O 479.101 -1.69404 -0.405943 0
M  V30 5053 C 476.233 -3.33955 -0.684596 0
M  V30 5054 H 477.426 -2.81116 1.04469 0
M  V30 5055 H 474.979 -1.45162 0.579466 0
M  V30 5056 H 475.714 -2.86111 -1.5268 0
M  V30 5057 H 475.499 -3.91965 -0.102699 0
M  V30 5058 H 476.989 -4.03219 -1.08646 0
M  V30 5059 N 477.426 -0.562348 -1.47226 0
M  V30 5060 C 478.356 0.170627 -2.32876 0
M  V30 5061 C 479.337 0.903748 -1.44106 0
M  V30 5062 O 480.522 0.883206 -1.72954 0
M  V30 5063 C 477.652 1.19786 -3.25989 0
M  V30 5064 C 476.606 0.580875 -4.2404 0
M  V30 5065 C 475.932 1.71311 -5.06514 0
M  V30 5066 C 477.232 -0.468714 -5.20193 0
M  V30 5067 H 478.926 -0.544441 -2.94408 0
M  V30 5068 H 476.472 -0.263271 -1.41573 0
M  V30 5069 H 478.425 1.71884 -3.84752 0
M  V30 5070 H 477.149 1.94294 -2.62521 0
M  V30 5071 H 475.808 0.0811538 -3.6651 0
M  V30 5072 H 475.456 2.44736 -4.39447 0
M  V30 5073 H 475.156 1.30604 -5.72902 0
M  V30 5074 H 476.68 2.23725 -5.68137 0
M  V30 5075 H 478.094 -0.0336028 -5.7329 0
M  V30 5076 H 476.491 -0.794957 -5.94811 0
M  V30 5077 H 477.561 -1.36269 -4.65359 0
M  V30 5078 N 478.904 1.54736 -0.299062 0
M  V30 5079 C 479.834 2.26409 0.571085 0
M  V30 5080 C 480.815 1.2629 1.13951 0
M  V30 5081 O 482 1.55059 1.16921 0
M  V30 5082 C 479.13 3.00338 1.74396 0
M  V30 5083 C 478.084 4.07588 1.30599 0
M  V30 5084 C 477.41 4.69222 2.56387 0
M  V30 5085 C 478.71 5.20455 0.438645 0
M  V30 5086 H 480.404 2.99388 -0.0266991 0
M  V30 5087 H 477.95 1.43993 -0.0142812 0
M  V30 5088 H 479.903 3.49198 2.35878 0
M  V30 5089 H 478.627 2.24934 2.36796 0
M  V30 5090 H 477.286 3.59575 0.71424 0
M  V30 5091 H 476.934 3.9046 3.17097 0
M  V30 5092 H 476.634 5.41653 2.27784 0
M  V30 5093 H 478.158 5.20844 3.18675 0
M  V30 5094 H 479.572 5.65221 0.959085 0
M  V30 5095 H 477.969 5.99594 0.246466 0
M  V30 5096 H 479.039 4.8192 -0.536738 0
M  V30 5097 N 480.382 0.0267497 1.57577 0
M  V30 5098 C 481.314 -0.984594 2.06974 0
M  V30 5099 C 482.327 -1.29032 0.992705 0
M  V30 5100 O 483.516 -1.25539 1.26895 0
M  V30 5101 C 480.616 -2.31262 2.47732 0
M  V30 5102 C 479.789 -2.1924 3.78487 0
M  V30 5103 C 478.848 -3.34956 4.05821 0
M  V30 5104 O 477.874 -3.11948 4.76106 0
M  V30 5105 N 479.076 -4.58672 3.55809 0
M  V30 5106 H 481.841 -0.563143 2.94362 0
M  V30 5107 H 479.402 -0.160061 1.61107 0
M  V30 5108 H 481.394 -3.07496 2.63112 0
M  V30 5109 H 479.964 -2.65056 1.65723 0
M  V30 5110 H 479.184 -1.27747 3.72927 0
M  V30 5111 H 480.472 -2.08409 4.64158 0
M  V30 5112 H 479.87 -4.8026 2.98942 0
M  V30 5113 H 478.427 -5.32083 3.76472 0
M  V30 5114 N 481.861 -1.55662 -0.24637 0
M  V30 5115 C 482.791 -1.93377 -1.30873 0
M  V30 5116 C 483.772 -0.798773 -1.50179 0
M  V30 5117 O 484.957 -1.0591 -1.62778 0
M  V30 5118 C 482.087 -2.22893 -2.66338 0
M  V30 5119 C 481.041 -3.38649 -2.61727 0
M  V30 5120 C 480.367 -3.53708 -4.00992 0
M  V30 5121 C 481.667 -4.74323 -2.18666 0
M  V30 5122 H 483.361 -2.82363 -0.995552 0
M  V30 5123 H 480.907 -1.35854 -0.477464 0
M  V30 5124 H 482.86 -2.47866 -3.40794 0
M  V30 5125 H 481.584 -1.30733 -2.99293 0
M  V30 5126 H 480.243 -3.13685 -1.89729 0
M  V30 5127 H 479.891 -2.58967 -4.31214 0
M  V30 5128 H 479.591 -4.31551 -3.98795 0
M  V30 5129 H 481.115 -3.81003 -4.77147 0
M  V30 5130 H 482.529 -4.98665 -2.82854 0
M  V30 5131 H 480.926 -5.55273 -2.27579 0
M  V30 5132 H 481.996 -4.71349 -1.13834 0
M  V30 5133 N 483.339 0.512053 -1.4905 0
M  V30 5134 C 484.286 1.6148 -1.64902 0
M  V30 5135 C 485.256 1.58687 -0.490673 0
M  V30 5136 O 486.441 1.76842 -0.71636 0
M  V30 5137 C 483.581 2.99676 -1.71139 0
M  V30 5138 C 482.694 3.12568 -2.98203 0
M  V30 5139 C 481.829 4.4143 -2.95487 0
M  V30 5140 C 480.868 4.47916 -4.17179 0
M  V30 5141 N 480.005 5.68191 -4.12437 0
M  V30 5142 H 484.845 1.47271 -2.59066 0
M  V30 5143 H 482.382 0.716713 -1.28459 0
M  V30 5144 H 484.34 3.79761 -1.72736 0
M  V30 5145 H 482.97 3.12614 -0.804508 0
M  V30 5146 H 482.022 2.25618 -3.06269 0
M  V30 5147 H 483.334 3.1322 -3.88194 0
M  V30 5148 H 482.488 5.29825 -2.95585 0
M  V30 5149 H 481.227 4.43326 -2.03256 0
M  V30 5150 H 480.232 3.57925 -4.17337 0
M  V30 5151 H 481.457 4.47744 -5.1059 0
M  V30 5152 H 479.403 5.7095 -3.23036 0
M  V30 5153 H 479.32 5.70413 -4.96151 0
M  V30 5154 H 480.588 6.58823 -4.16621 0
M  V30 5155 N 484.817 1.37938 0.762283 0
M  V30 5156 C 486.042 1.37059 1.55659 0
M  V30 5157 C 486.467 -0.0396123 1.88058 0
M  V30 5158 O 485.825 -1.01929 1.49934 0
M  V30 5159 C 485.873 2.22494 2.83776 0
M  V30 5160 O 484.977 1.63607 3.78559 0
M  V30 5161 H 484.318 0.467892 0.47114 0
M  V30 5162 H 486.848 1.81587 0.942725 0
M  V30 5163 H 486.858 2.36045 3.32786 0
M  V30 5164 H 485.533 3.24993 2.59524 0
M  V30 5165 H 484.11 1.5915 3.37233 0
M  V30 5166 N 486.295 -0.989507 1.22664 0
M  V30 5167 C 487.572 -1.70326 0.961688 0
M  V30 5168 C 487.952 -2.04537 -0.522279 0
M  V30 5169 O 487.3 -1.73136 -1.49118 0
M  V30 5170 C 487.51 -2.95135 1.86269 0
M  V30 5171 C 488.858 -3.67842 2.12078 0
M  V30 5172 O 489.882 -3.0515 1.83745 0
M  V30 5173 O 488.741 -4.80644 2.60083 0
M  V30 5174 H 485.835 -0.743589 0.361946 0
M  V30 5175 H 488.381 -1.04555 1.33665 0
M  V30 5176 H 487.153 -2.66382 2.8663 0
M  V30 5177 H 486.776 -3.68645 1.48952 0
M  V30 5178 N 487.773 -1.03688 -1.18687 0
M  V30 5179 C 488.998 -0.757819 -1.93059 0
M  V30 5180 C 489.423 0.678353 -1.75442 0
M  V30 5181 O 488.781 1.46938 -1.06203 0
M  V30 5182 C 488.829 -1.12423 -3.42627 0
M  V30 5183 O 487.933 -0.247505 -4.11657 0
M  V30 5184 H 487.274 -0.279245 -0.602427 0
M  V30 5185 H 489.804 -1.3857 -1.5053 0
M  V30 5186 H 489.814 -1.08454 -3.93322 0
M  V30 5187 H 488.489 -2.17049 -3.54771 0
M  V30 5188 H 487.066 -0.34649 -3.71287 0
M  V30 5189 N 489.251 1.34841 -0.815825 0
M  V30 5190 C 490.662 1.80937 -0.46029 0
M  V30 5191 C 491.013 1.67685 1.01863 0
M  V30 5192 O 490.138 1.21277 1.79223 0
M  V30 5193 C 490.733 3.28509 -0.828708 0
M  V30 5194 C 489.292 3.72712 -0.525644 0
M  V30 5195 C 488.439 2.56676 -1.04941 0
M  V30 5196 H 491.39 1.22688 -1.00664 0
M  V30 5197 H 491.411 3.80279 -0.129757 0
M  V30 5198 H 490.923 3.38122 -1.90513 0
M  V30 5199 H 489.024 3.68642 0.541666 0
M  V30 5200 H 489.137 4.67119 -1.06474 0
M  V30 5201 H 487.501 2.50302 -0.471286 0
M  V30 5202 H 488.284 2.69063 -2.13214 0
M  V30 5203 N 490.729 0.570148 1.46925 0
M  V30 5204 C 491.661 -0.207909 2.28255 0
M  V30 5205 C 492.674 -0.867301 1.37774 0
M  V30 5206 O 493.863 -0.738976 1.62485 0
M  V30 5207 C 490.963 -1.31298 3.12433 0
M  V30 5208 C 490.136 -0.747915 4.30958 0
M  V30 5209 C 489.195 -1.7391 4.9663 0
M  V30 5210 O 488.221 -1.2801 5.54619 0
M  V30 5211 N 489.423 -3.07288 4.92498 0
M  V30 5212 H 492.188 0.489794 2.95671 0
M  V30 5213 H 489.749 0.407076 1.56699 0
M  V30 5214 H 491.741 -1.97507 3.53232 0
M  V30 5215 H 490.311 -1.91373 2.47175 0
M  V30 5216 H 489.531 0.0913066 3.94094 0
M  V30 5217 H 490.819 -0.349958 5.07595 0
M  V30 5218 H 490.217 -3.47213 4.46609 0
M  V30 5219 H 488.774 -3.69021 5.37277 0
M  V30 5220 N 492.207 -1.54576 0.307264 0
M  V30 5221 C 493.447 -2.02172 -0.300962 0
M  V30 5222 C 493.811 -1.19081 -1.50611 0
M  V30 5223 O 495.012 -1.56405 -2.18612 0
M  V30 5224 C 493.283 -3.51576 -0.642591 0
M  V30 5225 S 494.842 -4.21127 -1.23279 0
M  V30 5226 H 491.66 -0.705021 -0.0920141 0
M  V30 5227 H 494.262 -1.90563 0.436594 0
M  V30 5228 H 492.966 -4.09681 0.242901 0
M  V30 5229 H 492.497 -3.67234 -1.41077 0
M  V30 5230 H 494.512 -4.27426 -2.52034 0
M  V30 5231 N 493.685 -0.035106 -1.57561 0
M  V30 5232 C 494.648 0.929819 -2.09492 0
M  V30 5233 C 495.648 1.25026 -1.01119 0
M  V30 5234 O 496.838 1.18961 -1.27255 0
M  V30 5235 C 493.97 2.24457 -2.56577 0
M  V30 5236 H 495.163 0.479935 -2.96035 0
M  V30 5237 H 492.716 0.213033 -1.54841 0
M  V30 5238 H 493.451 2.74061 -1.73382 0
M  V30 5239 H 493.236 2.02508 -3.35757 0
M  V30 5240 H 494.726 2.93607 -2.96959 0
M  V30 5241 N 495.163 1.55791 0.238111 0
M  V30 5242 C 496.095 1.87513 1.31802 0
M  V30 5243 C 497.108 0.762053 1.43863 0
M  V30 5244 O 498.297 1.04024 1.45056 0
M  V30 5245 C 495.397 2.05402 2.69561 0
M  V30 5246 C 494.57 3.3632 2.79656 0
M  V30 5247 C 493.629 3.43844 3.98319 0
M  V30 5248 O 492.655 4.16994 3.87433 0
M  V30 5249 N 493.857 2.73777 5.11885 0
M  V30 5250 H 496.622 2.80734 1.04922 0
M  V30 5251 H 494.183 1.56135 0.428196 0
M  V30 5252 H 496.175 2.07769 3.47296 0
M  V30 5253 H 494.745 1.18884 2.89111 0
M  V30 5254 H 493.965 3.46195 1.88528 0
M  V30 5255 H 495.253 4.22594 2.83358 0
M  V30 5256 H 494.651 2.14094 5.23622 0
M  V30 5257 H 493.208 2.81825 5.87723 0
M  V30 5258 N 496.642 -0.504142 1.49319 0
M  V30 5259 C 497.552 -1.63248 1.68486 0
M  V30 5260 C 498.568 -1.64488 0.567432 0
M  V30 5261 O 499.744 -1.82966 0.841749 0
M  V30 5262 C 496.809 -2.99627 1.74426 0
M  V30 5263 C 495.87 -3.09039 2.97982 0
M  V30 5264 C 495.103 -4.38913 3.0363 0
M  V30 5265 O 495.326 -5.27528 2.16958 0
M  V30 5266 O 494.26 -4.53231 3.96062 0
M  V30 5267 H 498.086 -1.50008 2.64067 0
M  V30 5268 H 495.671 -0.680086 1.33023 0
M  V30 5269 H 497.553 -3.80689 1.80705 0
M  V30 5270 H 496.228 -3.13136 0.820233 0
M  V30 5271 H 495.135 -2.27177 2.97223 0
M  V30 5272 H 496.468 -3.00456 3.89855 0
M  V30 5273 N 498.12 -1.38341 -0.754957 0
M  V30 5274 C 499.345 -1.37882 -1.5493 0
M  V30 5275 C 499.77 0.0296385 -1.88077 0
M  V30 5276 O 499.128 1.01133 -1.50472 0
M  V30 5277 C 499.176 -2.23996 -2.82592 0
M  V30 5278 O 498.28 -1.65612 -3.77686 0
M  V30 5279 H 497.621 -0.470384 -0.468652 0
M  V30 5280 H 500.151 -1.82084 -0.933082 0
M  V30 5281 H 500.161 -2.37806 -3.3153 0
M  V30 5282 H 498.836 -3.26365 -2.57796 0
M  V30 5283 H 497.413 -1.60936 -3.36384 0
M  V30 5284 N 499.598 0.982988 -1.23187 0
M  V30 5285 C 500.875 1.69814 -0.970707 0
M  V30 5286 C 501.255 2.04811 0.511424 0
M  V30 5287 O 500.603 1.73924 1.48198 0
M  V30 5288 C 500.813 2.94143 -1.87831 0
M  V30 5289 C 502.161 3.66712 -2.14026 0
M  V30 5290 O 503.185 3.04171 -1.8536 0
M  V30 5291 O 502.044 4.79258 -2.62629 0
M  V30 5292 H 499.138 0.741659 -0.365884 0
M  V30 5293 H 501.684 1.03844 -1.34218 0
M  V30 5294 H 500.456 2.64858 -2.88038 0
M  V30 5295 H 500.079 3.6785 -1.50905 0
M  V30 5296 N 501.076 1.04316 1.18135 0
M  V30 5297 C 502.301 0.768047 1.92655 0
M  V30 5298 C 502.726 -0.66904 1.758 0
M  V30 5299 O 502.084 -1.46372 1.06981 0
M  V30 5300 C 502.132 1.14239 3.42026 0
M  V30 5301 O 501.236 0.269333 4.1152 0
M  V30 5302 H 500.577 0.282436 0.600937 0
M  V30 5303 H 503.107 1.39367 1.49793 0
M  V30 5304 H 503.117 1.10538 3.92741 0
M  V30 5305 H 501.792 2.18928 3.53615 0
M  V30 5306 H 500.369 0.366175 3.71098 0
M  V30 5307 N 502.554 -1.34406 0.822964 0
M  V30 5308 C 503.8 -1.98578 0.411666 0
M  V30 5309 C 504.133 -1.65093 -1.02264 0
M  V30 5310 O 503.408 -0.92258 -1.71227 0
M  V30 5311 C 503.691 -3.54823 0.614235 0
M  V30 5312 C 503.544 -3.9805 2.09466 0
M  V30 5313 C 504.863 -4.40071 0.050221 0
M  V30 5314 H 501.982 -0.721355 0.151047 0
M  V30 5315 H 504.624 -1.59301 1.03554 0
M  V30 5316 H 502.774 -3.88411 0.0831774 0
M  V30 5317 H 504.446 -3.74795 2.68936 0
M  V30 5318 H 502.689 -3.4836 2.5851 0
M  V30 5319 H 503.36 -5.06819 2.18721 0
M  V30 5320 H 505.836 -4.13037 0.503953 0
M  V30 5321 H 504.712 -5.48452 0.221759 0
M  V30 5322 H 504.973 -4.29576 -1.04482 0
M  V30 5323 N 504.032 -0.577932 -1.46621 0
M  V30 5324 C 505.448 -0.239242 -1.57797 0
M  V30 5325 C 505.648 1.25843 -1.57371 0
M  V30 5326 O 504.704 2.03988 -1.48813 0
M  V30 5327 C 506.017 -0.884227 -2.87405 0
M  V30 5328 C 507.565 -0.857373 -3.01028 0
M  V30 5329 C 508.04 -1.48181 -4.33366 0
M  V30 5330 N 509.531 -1.44593 -4.40053 0
M  V30 5331 C 510.266 -1.89852 -5.41058 0
M  V30 5332 N 509.762 -2.43062 -6.48762 0
M  V30 5333 N 511.555 -1.80797 -5.3223 0
M  V30 5334 H 503.706 -1.55073 -1.45142 0
M  V30 5335 H 505.969 -0.647903 -0.692044 0
M  V30 5336 H 505.675 -1.93759 -2.93514 0
M  V30 5337 H 505.549 -0.389585 -3.75183 0
M  V30 5338 H 507.936 0.187357 -2.94505 0
M  V30 5339 H 508.017 -1.38999 -2.14739 0
M  V30 5340 H 507.661 -2.52572 -4.40647 0
M  V30 5341 H 507.591 -0.924464 -5.18422 0
M  V30 5342 H 510.082 -1.05694 -3.62819 0
M  V30 5343 H 510.395 -2.75466 -7.22038 0
M  V30 5344 H 508.74 -2.47085 -6.49595 0
M  V30 5345 H 511.931 -1.38989 -4.46989 0
M  V30 5346 H 512.104 -2.16385 -6.10804 0
M  V30 5347 N 505.51 1.54411 -0.315457 0
M  V30 5348 C 506.473 2.22713 0.54142 0
M  V30 5349 C 507.473 1.2179 1.04995 0
M  V30 5350 O 508.663 1.46426 0.943667 0
M  V30 5351 C 505.795 2.92485 1.75116 0
M  V30 5352 H 506.988 2.99849 -0.0555508 0
M  V30 5353 H 504.541 1.56159 -0.0664453 0
M  V30 5354 H 505.276 2.19466 2.38758 0
M  V30 5355 H 505.061 3.66483 1.39401 0
M  V30 5356 H 506.551 3.44548 2.35959 0
M  V30 5357 N 506.988 0.0434614 1.5754 0
M  V30 5358 C 508.237 -0.631454 1.91561 0
M  V30 5359 C 508.55 -1.72457 0.92292 0
M  V30 5360 O 509.756 -2.45712 1.15489 0
M  V30 5361 C 508.212 -1.17447 3.40197 0
M  V30 5362 C 507.82 -0.113867 4.47855 0
M  V30 5363 C 509.564 -1.82507 3.83264 0
M  V30 5364 C 507.471 -0.669326 5.876 0
M  V30 5365 H 506.401 -0.239629 0.714908 0
M  V30 5366 H 509.052 0.111097 1.83163 0
M  V30 5367 H 507.434 -1.96909 3.43574 0
M  V30 5368 H 508.608 0.659348 4.56058 0
M  V30 5369 H 506.923 0.438821 4.14081 0
M  V30 5370 H 509.52 -2.25047 4.85034 0
M  V30 5371 H 509.863 -2.67365 3.19095 0
M  V30 5372 H 510.396 -1.09712 3.82372 0
M  V30 5373 H 507.135 0.141449 6.55347 0
M  V30 5374 H 506.655 -1.4107 5.82974 0
M  V30 5375 H 508.334 -1.15463 6.36614 0
M  V30 5376 N 508.466 -1.55915 -0.229846 0
M  V30 5377 C 509.706 -1.80314 -0.962614 0
M  V30 5378 C 510.07 -0.61568 -1.81861 0
M  V30 5379 O 511.271 -0.738795 -2.58448 0
M  V30 5380 C 509.542 -3.0956 -1.78627 0
M  V30 5381 S 511.101 -3.55243 -2.57581 0
M  V30 5382 H 507.919 -0.633142 -0.323499 0
M  V30 5383 H 510.521 -1.94155 -0.228919 0
M  V30 5384 H 509.225 -3.94033 -1.14742 0
M  V30 5385 H 508.756 -2.98503 -2.56241 0
M  V30 5386 H 510.771 -3.17924 -3.80971 0
M  V30 5387 N 509.944 0.496216 -1.49584 0
M  V30 5388 C 510.874 1.60576 -1.69521 0
M  V30 5389 C 511.855 1.61169 -0.543933 0
M  V30 5390 O 513.04 1.77834 -0.78031 0
M  V30 5391 C 510.17 2.99038 -1.76616 0
M  V30 5392 C 509.124 3.13312 -2.91581 0
M  V30 5393 C 508.45 4.53172 -2.83794 0
M  V30 5394 C 509.75 2.92886 -4.32452 0
M  V30 5395 H 511.444 1.44146 -2.62416 0
M  V30 5396 H 508.99 0.692024 -1.26282 0
M  V30 5397 H 510.943 3.76564 -1.8915 0
M  V30 5398 H 509.667 3.16568 -0.80324 0
M  V30 5399 H 508.326 2.38213 -2.78658 0
M  V30 5400 H 507.974 4.67585 -1.854 0
M  V30 5401 H 507.674 4.63662 -3.60958 0
M  V30 5402 H 509.198 5.32752 -2.98342 0
M  V30 5403 H 510.612 3.60178 -4.46032 0
M  V30 5404 H 509.009 3.14844 -5.10875 0
M  V30 5405 H 510.079 1.88966 -4.46565 0
M  V30 5406 N 511.423 1.38739 0.74761 0
M  V30 5407 C 512.834 1.31507 1.32524 0
M  V30 5408 C 513.185 -0.0263963 1.96182 0
M  V30 5409 O 512.31 -0.92849 1.95469 0
M  V30 5410 C 512.905 2.38162 2.40966 0
M  V30 5411 C 511.464 2.34489 2.94434 0
M  V30 5412 C 510.611 2.20712 1.67873 0
M  V30 5413 H 513.562 1.4901 0.546043 0
M  V30 5414 H 513.583 2.04222 3.21051 0
M  V30 5415 H 513.095 3.35783 1.94605 0
M  V30 5416 H 511.196 1.40467 3.45108 0
M  V30 5417 H 511.309 3.28861 3.48407 0
M  V30 5418 H 509.673 1.67667 1.91729 0
M  V30 5419 H 510.456 3.20285 1.23582 0
M  V30 5420 N 512.901 -0.976442 1.23707 0
M  V30 5421 C 513.811 -2.10359 1.03856 0
M  V30 5422 C 514.827 -1.73991 -0.0180919 0
M  V30 5423 O 516.003 -2.0061 0.178211 0
M  V30 5424 C 513.068 -3.40809 0.636387 0
M  V30 5425 C 512.129 -3.91179 1.76854 0
M  V30 5426 C 511.362 -5.15404 1.38546 0
M  V30 5427 O 511.585 -5.69754 0.27142 0
M  V30 5428 O 510.519 -5.5994 2.20797 0
M  V30 5429 H 514.345 -2.29997 1.98331 0
M  V30 5430 H 511.93 -1.08742 1.02448 0
M  V30 5431 H 513.812 -4.19269 0.423223 0
M  V30 5432 H 512.487 -3.22493 -0.279322 0
M  V30 5433 H 511.394 -3.13819 2.03638 0
M  V30 5434 H 512.727 -4.13958 2.6627 0
M  V30 5435 N 514.379 -1.04941 -1.1758 0
M  V30 5436 C 515.342 -0.652456 -2.19717 0
M  V30 5437 C 516.342 0.294745 -1.58076 0
M  V30 5438 O 517.532 0.0789579 -1.74021 0
M  V30 5439 C 514.664 0.0420712 -3.40874 0
M  V30 5440 H 515.857 -1.55642 -2.5635 0
M  V30 5441 H 513.41 -0.842995 -1.31618 0
M  V30 5442 H 514.145 0.95943 -3.09783 0
M  V30 5443 H 513.93 -0.638844 -3.86861 0
M  V30 5444 H 515.42 0.306 -4.16477 0
M  V30 5445 N 515.857 1.33968 -0.830081 0
M  V30 5446 C 516.805 2.31301 -0.245435 0
M  V30 5447 C 517.799 1.57734 0.617762 0
M  V30 5448 O 519.005 1.72674 0.508303 0
M  V30 5449 H 515.38 0.749552 -0.0606316 0
M  V30 5450 H 517.351 2.78129 -1.08105 0
M  V30 5451 C 516.1 3.42961 0.572084 0
M  V30 5452 H 515.423 3.99714 -0.0828118 0
M  V30 5453 H 516.863 4.13286 0.94715 0
M  V30 5454 C 515.322 2.88043 1.74737 0
M  V30 5455 O 515.852 2.83508 2.8458 0
M  V30 5456 N 514.058 2.44768 1.56642 0
M  V30 5457 H 513.605 2.48656 0.672901 0
M  V30 5458 H 513.563 2.08375 2.3543 0
M  V30 5459 N 517.335 0.585699 1.46312 0
M  V30 5460 C 518.265 -0.133556 2.33118 0
M  V30 5461 C 519.246 -0.880707 1.45525 0
M  V30 5462 O 520.431 -0.855579 1.74337 0
M  V30 5463 C 517.561 -1.14585 3.27853 0
M  V30 5464 C 516.515 -0.513341 4.2491 0
M  V30 5465 C 515.841 -1.63231 5.09175 0
M  V30 5466 C 517.141 0.551413 5.19381 0
M  V30 5467 H 518.835 0.59121 2.93505 0
M  V30 5468 H 516.381 0.285761 1.41136 0
M  V30 5469 H 518.334 -1.65741 3.87438 0
M  V30 5470 H 517.058 -1.90093 2.65579 0
M  V30 5471 H 515.717 -0.0228349 3.66593 0
M  V30 5472 H 515.365 -2.37713 4.43285 0
M  V30 5473 H 515.065 -1.21473 5.74907 0
M  V30 5474 H 516.589 -2.14658 5.71624 0
M  V30 5475 H 518.003 0.124804 5.73164 0
M  V30 5476 H 516.4 0.889486 5.93471 0
M  V30 5477 H 517.47 1.43655 4.63132 0
M  V30 5478 N 518.813 -1.54241 0.323641 0
M  V30 5479 C 519.745 -2.21836 -0.576311 0
M  V30 5480 C 520.758 -1.21837 -1.07979 0
M  V30 5481 O 521.947 -1.48306 -0.99336 0
M  V30 5482 C 519.047 -2.86923 -1.80356 0
M  V30 5483 C 518.22 -4.1306 -1.43875 0
M  V30 5484 C 517.279 -4.6174 -2.52353 0
M  V30 5485 O 516.305 -5.26421 -2.16494 0
M  V30 5486 N 517.507 -4.35974 -3.83284 0
M  V30 5487 H 520.272 -2.997 0.00247987 0
M  V30 5488 H 517.833 -1.61233 0.146848 0
M  V30 5489 H 519.825 -3.16414 -2.52318 0
M  V30 5490 H 518.395 -2.12765 -2.29019 0
M  V30 5491 H 517.615 -3.90334 -0.550752 0
M  V30 5492 H 518.903 -4.95148 -1.17071 0
M  V30 5493 H 518.301 -3.84203 -4.15216 0
M  V30 5494 H 516.858 -4.70119 -4.51477 0
M  V30 5495 N 520.291 -0.0518155 -1.57515 0
M  V30 5496 C 521.221 0.920283 -2.146 0
M  V30 5497 C 522.202 1.32406 -1.06783 0
M  V30 5498 O 523.387 1.39866 -1.34726 0
M  V30 5499 C 520.517 2.1949 -2.6915 0
M  V30 5500 C 519.471 1.93116 -3.81956 0
M  V30 5501 C 518.797 3.27037 -4.23026 0
M  V30 5502 C 520.097 1.25225 -5.07066 0
M  V30 5503 H 521.791 0.444801 -2.96077 0
M  V30 5504 H 519.337 0.212508 -1.42423 0
M  V30 5505 H 521.29 2.87894 -3.07725 0
M  V30 5506 H 520.014 2.69244 -1.84865 0
M  V30 5507 H 518.673 1.27123 -3.43854 0
M  V30 5508 H 518.321 3.74595 -3.3569 0
M  V30 5509 H 518.021 3.10189 -4.99056 0
M  V30 5510 H 519.545 3.96673 -4.64202 0
M  V30 5511 H 520.959 1.83666 -5.43083 0
M  V30 5512 H 519.356 1.18702 -5.88243 0
M  V30 5513 H 520.426 0.228382 -4.84362 0
M  V30 5514 N 521.769 1.56035 0.221574 0
M  V30 5515 C 523.18 1.69229 0.788567 0
M  V30 5516 C 523.531 0.653814 1.84986 0
M  V30 5517 O 522.656 -0.195065 2.15519 0
M  V30 5518 C 523.251 3.06809 1.43713 0
M  V30 5519 C 521.81 3.21858 1.95152 0
M  V30 5520 C 520.957 2.65155 0.811685 0
M  V30 5521 H 523.908 1.587 -0.00307894 0
M  V30 5522 H 523.929 3.02666 2.30594 0
M  V30 5523 H 523.441 3.82369 0.664475 0
M  V30 5524 H 521.542 2.51167 2.7522 0
M  V30 5525 H 521.655 4.29073 2.1315 0
M  V30 5526 H 520.019 2.23635 1.21899 0
M  V30 5527 H 520.802 3.43261 0.0516987 0
M  V30 5528 N 523.247 -0.488276 1.49845 0
M  V30 5529 C 524.524 -1.24959 1.50481 0
M  V30 5530 C 524.904 -2.09735 0.239698 0
M  V30 5531 O 524.252 -2.14865 -0.777524 0
M  V30 5532 C 524.462 -2.0954 2.79095 0
M  V30 5533 C 525.81 -2.68305 3.29086 0
M  V30 5534 O 526.834 -2.19797 2.80299 0
M  V30 5535 O 525.693 -3.56643 4.14087 0
M  V30 5536 H 522.787 -0.566133 0.602845 0
M  V30 5537 H 525.333 -0.501504 1.6212 0
M  V30 5538 H 524.105 -1.46958 3.62656 0
M  V30 5539 H 523.728 -2.91517 2.70377 0
M  V30 5540 N 524.725 -1.39134 -0.740242 0
M  V30 5541 C 525.971 -1.37278 -1.50088 0
M  V30 5542 C 526.326 0.0329967 -1.92372 0
M  V30 5543 O 525.619 0.998447 -1.63529 0
M  V30 5544 C 525.813 -2.27457 -2.75678 0
M  V30 5545 C 525.642 -3.76662 -2.45674 0
M  V30 5546 C 524.412 -4.45617 -2.38229 0
M  V30 5547 C 526.61 -4.6877 -2.11563 0
M  V30 5548 N 524.592 -5.80187 -2.00641 0
M  V30 5549 C 525.963 -5.91951 -1.84376 0
M  V30 5550 C 528.018 -4.56843 -1.97987 0
M  V30 5551 C 526.721 -7.04538 -1.4498 0
M  V30 5552 C 528.747 -5.69347 -1.59994 0
M  V30 5553 C 528.109 -6.91597 -1.33687 0
M  V30 5554 H 524.208 -0.557611 -0.548265 0
M  V30 5555 H 526.792 -1.74638 -0.860784 0
M  V30 5556 H 524.963 -1.92263 -3.37475 0
M  V30 5557 H 526.695 -2.16631 -3.41838 0
M  V30 5558 H 523.45 -3.98993 -2.5515 0
M  V30 5559 H 523.874 -6.51387 -1.84454 0
M  V30 5560 H 528.516 -3.62868 -2.16995 0
M  V30 5561 H 526.234 -7.98419 -1.24712 0
M  V30 5562 H 529.82 -5.62104 -1.50102 0
M  V30 5563 H 528.7 -7.77176 -1.04728 0
M  V30 5564 N 526.204 0.969867 -1.24223 0
M  V30 5565 C 527.432 1.74756 -1.10761 0
M  V30 5566 C 527.847 1.85713 0.340041 0
M  V30 5567 O 527.204 1.34389 1.23474 0
M  V30 5568 C 527.255 3.16915 -1.73917 0
M  V30 5569 O 526.976 3.06511 -3.13021 0
M  V30 5570 C 528.477 4.11032 -1.66036 0
M  V30 5571 H 525.697 0.548092 -0.387087 0
M  V30 5572 H 528.241 1.2178 -1.64286 0
M  V30 5573 H 526.396 3.66884 -1.244 0
M  V30 5574 H 526.81 3.96079 -3.43834 0
M  V30 5575 H 528.284 5.08446 -2.14911 0
M  V30 5576 H 528.761 4.34785 -0.621159 0
M  V30 5577 H 529.367 3.66972 -2.14969 0
M  V30 5578 N 527.682 1.05563 1.17022 0
M  V30 5579 C 528.592 0.670758 2.24807 0
M  V30 5580 C 529.608 -0.309865 1.71219 0
M  V30 5581 O 530.784 -0.161025 2.00755 0
M  V30 5582 C 527.849 0.055337 3.46656 0
M  V30 5583 C 526.91 1.08688 4.15314 0
M  V30 5584 C 526.143 0.500736 5.31346 0
M  V30 5585 O 526.366 -0.688718 5.66227 0
M  V30 5586 O 525.3 1.23683 5.89055 0
M  V30 5587 H 529.126 1.56914 2.60023 0
M  V30 5588 H 526.711 0.827428 1.24395 0
M  V30 5589 H 528.593 -0.286492 4.20425 0
M  V30 5590 H 527.268 -0.816638 3.13229 0
M  V30 5591 H 526.175 1.48077 3.43546 0
M  V30 5592 H 527.508 1.93014 4.52777 0
M  V30 5593 N 529.16 -1.33526 0.837174 0
M  V30 5594 C 530.4 -1.99649 0.438115 0
M  V30 5595 C 530.764 -1.64879 -0.983816 0
M  V30 5596 O 531.965 -2.23956 -1.48651 0
M  V30 5597 C 530.236 -3.51431 0.650461 0
M  V30 5598 S 531.795 -4.37431 0.346371 0
M  V30 5599 H 528.613 -0.69162 0.164872 0
M  V30 5600 H 531.215 -1.62556 1.08609 0
M  V30 5601 H 529.919 -3.74225 1.68475 0
M  V30 5602 H 529.45 -3.93398 -0.0117309 0
M  V30 5603 H 531.465 -4.89132 -0.834504 0
M  V30 5604 N 530.638 -0.59345 -1.46 0
M  V30 5605 C 531.548 0.135817 -2.34207 0
M  V30 5606 C 532.564 0.875008 -1.50398 0
M  V30 5607 O 533.74 0.835778 -1.83239 0
M  V30 5608 C 530.805 1.12977 -3.27776 0
M  V30 5609 C 529.866 0.394081 -4.27487 0
M  V30 5610 C 529.099 1.34068 -5.16586 0
M  V30 5611 O 529.322 2.5778 -5.08828 0
M  V30 5612 O 528.256 0.845426 -5.95933 0
M  V30 5613 H 532.082 -0.588691 -2.9794 0
M  V30 5614 H 529.667 -0.353784 -1.45151 0
M  V30 5615 H 531.549 1.70261 -3.85473 0
M  V30 5616 H 530.224 1.83556 -2.66625 0
M  V30 5617 H 529.131 -0.220869 -3.73447 0
M  V30 5618 H 530.464 -0.270939 -4.91454 0
M  V30 5619 N 532.116 1.54067 -0.331816 0
M  V30 5620 C 533.046 2.27569 0.522932 0
M  V30 5621 C 534.027 1.28679 1.11247 0
M  V30 5622 O 535.212 1.57504 1.13605 0
M  V30 5623 C 532.342 3.0397 1.67987 0
M  V30 5624 C 531.296 4.10267 1.21924 0
M  V30 5625 C 530.622 4.74555 2.46377 0
M  V30 5626 C 531.922 5.21268 0.32815 0
M  V30 5627 H 533.616 2.99264 -0.0901977 0
M  V30 5628 H 531.162 1.4393 -0.044821 0
M  V30 5629 H 533.115 3.54123 2.28418 0
M  V30 5630 H 531.839 2.29906 2.31971 0
M  V30 5631 H 530.498 3.61009 0.637809 0
M  V30 5632 H 530.146 3.97098 3.08743 0
M  V30 5633 H 529.846 5.46363 2.16243 0
M  V30 5634 H 531.37 5.27487 3.07555 0
M  V30 5635 H 532.784 5.67128 0.838978 0
M  V30 5636 H 531.181 5.99982 0.119228 0
M  V30 5637 H 532.251 4.80673 -0.638839 0
M  V30 5638 N 533.594 0.0601682 1.57485 0
M  V30 5639 C 534.819 -0.624416 1.97777 0
M  V30 5640 C 535.244 -1.63051 0.937867 0
M  V30 5641 O 534.602 -1.81036 -0.0978845 0
M  V30 5642 C 534.65 -1.27979 3.37126 0
M  V30 5643 O 533.754 -2.39556 3.35688 0
M  V30 5644 H 533.095 -0.161581 0.64404 0
M  V30 5645 H 535.625 0.131237 2.04179 0
M  V30 5646 H 535.635 -1.62937 3.74053 0
M  V30 5647 H 534.31 -0.542501 4.12347 0
M  V30 5648 H 532.887 -2.06478 3.10517 0
M  V30 5649 N 535.072 -1.5615 -0.213296 0
M  V30 5650 C 536.32 -1.79191 -0.934612 0
M  V30 5651 C 536.641 -0.630112 -1.84539 0
M  V30 5652 O 535.911 0.35257 -1.92701 0
M  V30 5653 H 534.491 -0.660937 -0.348097 0
M  V30 5654 H 537.153 -1.93618 -0.22317 0
M  V30 5655 H 536.249 -2.71656 -1.53654 0
M  V30 5656 N 536.55 0.480323 -1.50102 0
M  V30 5657 C 537.78 1.25475 -1.64133 0
M  V30 5658 C 538.188 1.8647 -0.320272 0
M  V30 5659 O 537.531 1.69561 0.70673 0
M  V30 5660 C 537.593 2.40996 -2.6676 0
M  V30 5661 C 537.257 2.00711 -4.10565 0
M  V30 5662 C 538.254 1.53492 -4.96725 0
M  V30 5663 C 535.939 2.09714 -4.56427 0
M  V30 5664 C 537.933 1.15806 -6.26792 0
M  V30 5665 C 535.62 1.7164 -5.86501 0
M  V30 5666 C 536.618 1.24763 -6.71508 0
M  V30 5667 O 536.306 0.872122 -7.99155 0
M  V30 5668 H 536.038 0.385983 -0.554971 0
M  V30 5669 H 538.592 0.580848 -1.97016 0
M  V30 5670 H 536.822 3.11528 -2.291 0
M  V30 5671 H 538.511 3.02981 -2.70106 0
M  V30 5672 H 539.277 1.45966 -4.62514 0
M  V30 5673 H 535.156 2.4515 -3.90413 0
M  V30 5674 H 538.7 0.791465 -6.93096 0
M  V30 5675 H 534.597 1.78822 -6.20236 0
M  V30 5676 H 535.365 1.00178 -8.12346 0
M  V30 5677 N 538.028 1.39524 0.732853 0
M  V30 5678 C 539.276 1.36594 1.48951 0
M  V30 5679 C 539.597 -0.0367507 1.94965 0
M  V30 5680 O 538.867 -0.988391 1.69138 0
M  V30 5681 H 537.447 0.502673 0.552566 0
M  V30 5682 H 540.109 1.74411 0.869869 0
M  V30 5683 H 539.205 2.03 2.3706 0
M  V30 5684 N 539.506 -0.963266 1.24736 0
M  V30 5685 C 540.453 -2.05857 1.04363 0
M  V30 5686 C 541.423 -1.6604 -0.0444951 0
M  V30 5687 O 542.608 -1.90477 0.110999 0
M  V30 5688 C 539.748 -3.38745 0.659235 0
M  V30 5689 C 538.861 -3.9173 1.82131 0
M  V30 5690 C 537.996 -5.12906 1.38208 0
M  V30 5691 C 537.035 -5.58098 2.51382 0
M  V30 5692 N 536.172 -6.7049 2.08295 0
M  V30 5693 H 541.012 -2.22616 1.98107 0
M  V30 5694 H 538.549 -1.09103 0.986661 0
M  V30 5695 H 540.507 -4.15107 0.417371 0
M  V30 5696 H 539.137 -3.21898 -0.241201 0
M  V30 5697 H 538.189 -3.11966 2.17672 0
M  V30 5698 H 539.501 -4.21225 2.67153 0
M  V30 5699 H 538.655 -5.96657 1.09935 0
M  V30 5700 H 537.394 -4.85105 0.502456 0
M  V30 5701 H 536.399 -4.72917 2.80409 0
M  V30 5702 H 537.624 -5.87911 3.39909 0
M  V30 5703 H 535.57 -6.44416 1.22737 0
M  V30 5704 H 535.487 -6.99458 2.86869 0
M  V30 5705 H 536.755 -7.57672 1.83175 0
M  V30 5706 N 540.985 -1.06182 -1.16461 0
M  V30 5707 C 541.935 -0.641619 -2.18786 0
M  V30 5708 C 542.919 0.327122 -1.5754 0
M  V30 5709 O 544.111 0.142746 -1.76423 0
M  V30 5710 C 541.24 -0.0283734 -3.43288 0
M  V30 5711 C 540.326 -1.02154 -4.11613 0
M  V30 5712 N 540.717 -2.19671 -4.55608 0
M  V30 5713 C 539.015 -0.852229 -4.37782 0
M  V30 5714 C 539.716 -2.82583 -5.0845 0
M  V30 5715 N 538.692 -2.10318 -5.01266 0
M  V30 5716 H 542.494 -1.53684 -2.50516 0
M  V30 5717 H 540.008 -0.933349 -1.329 0
M  V30 5718 H 542.005 0.29049 -4.15887 0
M  V30 5719 H 540.665 0.862118 -3.13046 0
M  V30 5720 H 541.676 -2.57453 -4.49375 0
M  V30 5721 H 538.353 -0.0136314 -4.17498 0
M  V30 5722 H 539.743 -3.82298 -5.52538 0
M  V30 5723 N 542.463 1.3308 -0.844243 0
M  V30 5724 C 543.41 2.29104 -0.279323 0
M  V30 5725 C 544.38 1.54577 0.607882 0
M  V30 5726 O 545.565 1.8285 0.545009 0
M  V30 5727 C 542.705 3.40927 0.53508 0
M  V30 5728 C 541.818 4.30354 -0.376749 0
M  V30 5729 C 540.953 5.29297 0.449276 0
M  V30 5730 C 539.992 6.10365 -0.460606 0
M  V30 5731 N 539.129 7.01335 0.327612 0
M  V30 5732 H 543.969 2.76817 -1.10346 0
M  V30 5733 H 541.506 1.36203 -0.555611 0
M  V30 5734 H 543.464 4.04469 1.02278 0
M  V30 5735 H 542.094 2.94391 1.32414 0
M  V30 5736 H 541.146 3.67485 -0.982791 0
M  V30 5737 H 542.458 4.87067 -1.07549 0
M  V30 5738 H 541.612 5.98392 1.00058 0
M  V30 5739 H 540.351 4.73174 1.18143 0
M  V30 5740 H 539.356 5.40182 -1.02388 0
M  V30 5741 H 540.581 6.68571 -1.1912 0
M  V30 5742 H 538.527 6.47655 1.04305 0
M  V30 5743 H 538.444 7.55355 -0.3123 0
M  V30 5744 H 539.712 7.74731 0.86098 0
M  V30 5745 N 543.941 0.601185 1.45683 0
M  V30 5746 C 545.166 0.0982245 2.07167 0
M  V30 5747 C 545.591 -1.20546 1.44396 0
M  V30 5748 O 544.949 -1.73247 0.534347 0
M  V30 5749 C 544.997 -0.0346976 3.60583 0
M  V30 5750 O 544.101 -1.08657 3.97828 0
M  V30 5751 H 543.442 0.0711618 0.660176 0
M  V30 5752 H 545.972 0.829376 1.87036 0
M  V30 5753 H 545.982 -0.234969 4.07323 0
M  V30 5754 H 544.657 0.917265 4.05659 0
M  V30 5755 H 543.234 -0.863275 3.6277 0
M  V30 5756 N 545.419 -1.53889 0.339982 0
M  V30 5757 C 546.644 -2.05741 -0.261798 0
M  V30 5758 C 547.069 -1.21354 -1.43718 0
M  V30 5759 O 546.427 -0.22645 -1.7988 0
M  V30 5760 C 546.475 -3.54542 -0.658228 0
M  V30 5761 O 545.579 -3.7302 -1.75869 0
M  V30 5762 H 544.92 -0.662529 -0.0441672 0
M  V30 5763 H 547.45 -1.98568 0.493161 0
M  V30 5764 H 547.46 -3.9711 -0.936368 0
M  V30 5765 H 546.135 -4.15412 0.201358 0
M  V30 5766 H 544.712 -3.42355 -1.47809 0
M  V30 5767 N 546.897 -0.0685191 -1.57451 0
M  V30 5768 C 548.122 0.613919 -1.98106 0
M  V30 5769 C 548.547 1.62551 -0.946501 0
M  V30 5770 O 547.905 1.81085 0.0882824 0
M  V30 5771 C 547.953 1.26189 -3.378 0
M  V30 5772 O 547.057 2.37773 -3.36954 0
M  V30 5773 H 546.398 0.158163 -0.644888 0
M  V30 5774 H 548.928 -0.142063 -2.04106 0
M  V30 5775 H 548.938 1.60951 -3.74912 0
M  V30 5776 H 547.613 0.520625 -4.12629 0
M  V30 5777 H 546.19 2.04829 -3.11608 0
M  V30 5778 N 548.375 1.56261 0.205012 0
M  V30 5779 C 549.786 1.70056 0.770574 0
M  V30 5780 C 550.137 0.673398 1.84282 0
M  V30 5781 O 549.262 -0.172196 2.15714 0
M  V30 5782 C 549.857 3.08316 1.40451 0
M  V30 5783 C 548.416 3.2391 1.91727 0
M  V30 5784 C 547.563 2.66001 0.783516 0
M  V30 5785 H 550.514 1.58688 -0.019911 0
M  V30 5786 H 550.535 3.05094 2.27371 0
M  V30 5787 H 550.047 3.83053 0.623882 0
M  V30 5788 H 548.148 2.54072 2.7254 0
M  V30 5789 H 548.261 4.3131 2.08588 0
M  V30 5790 H 546.625 2.24915 1.19521 0
M  V30 5791 H 547.408 3.43297 0.0152883 0
M  V30 5792 N 549.853 -0.472356 1.50355 0
M  V30 5793 C 551.1 -1.22453 1.61281 0
M  V30 5794 C 551.428 -1.91972 0.31256 0
M  V30 5795 O 550.683 -1.82696 -0.701475 0
M  V30 5796 C 550.982 -2.29257 2.74182 0
M  V30 5797 C 550.648 -1.76999 4.14708 0
M  V30 5798 C 549.31 -1.62467 4.52944 0
M  V30 5799 C 551.662 -1.38215 5.0254 0
M  V30 5800 C 548.99 -1.07574 5.76754 0
M  V30 5801 C 551.342 -0.847638 6.26895 0
M  V30 5802 C 550.006 -0.688946 6.63935 0
M  V30 5803 H 549.276 -0.448087 0.590168 0
M  V30 5804 H 551.923 -0.520744 1.84284 0
M  V30 5805 H 550.228 -3.05538 2.45263 0
M  V30 5806 H 551.925 -2.87212 2.7984 0
M  V30 5807 H 548.515 -1.89276 3.84542 0
M  V30 5808 H 552.699 -1.48276 4.73633 0
M  V30 5809 H 547.955 -0.940237 6.04127 0
M  V30 5810 H 552.129 -0.538455 6.94315 0
M  V30 5811 H 549.756 -0.261435 7.5975 0
M  V30 5812 N 551.331 -1.39911 -0.725443 0
M  V30 5813 C 552.561 -1.40744 -1.51244 0
M  V30 5814 C 552.969 -0.00275403 -1.892 0
M  V30 5815 O 552.312 0.981299 -1.55294 0
M  V30 5816 C 552.374 -2.22527 -2.82351 0
M  V30 5817 C 552.038 -3.71053 -2.66774 0
M  V30 5818 C 553.035 -4.63916 -2.34686 0
M  V30 5819 C 550.72 -4.14753 -2.83347 0
M  V30 5820 C 552.714 -5.98463 -2.19366 0
M  V30 5821 C 550.401 -5.49372 -2.67644 0
M  V30 5822 C 551.399 -6.41042 -2.357 0
M  V30 5823 O 551.087 -7.73181 -2.20107 0
M  V30 5824 H 550.819 -0.482314 -0.473655 0
M  V30 5825 H 553.373 -1.84472 -0.903284 0
M  V30 5826 H 551.603 -1.73563 -3.45562 0
M  V30 5827 H 553.292 -2.15421 -3.44018 0
M  V30 5828 H 554.058 -4.31453 -2.21525 0
M  V30 5829 H 549.937 -3.43728 -3.072 0
M  V30 5830 H 553.481 -6.69979 -1.94354 0
M  V30 5831 H 549.378 -5.81424 -2.80387 0
M  V30 5832 H 550.146 -7.84008 -2.35103 0
M  V30 5833 N 552.809 0.956637 -1.25245 0
M  V30 5834 C 554.034 1.74104 -1.12706 0
M  V30 5835 C 554.459 1.85436 0.315429 0
M  V30 5836 O 553.817 1.33334 1.22848 0
M  V30 5837 C 553.865 3.1338 -1.78396 0
M  V30 5838 O 552.969 3.98485 -1.06224 0
M  V30 5839 H 552.31 0.53476 -0.393609 0
M  V30 5840 H 554.84 1.19924 -1.65769 0
M  V30 5841 H 554.85 3.6385 -1.846 0
M  V30 5842 H 553.525 3.04448 -2.83345 0
M  V30 5843 H 552.102 3.56952 -1.07886 0
M  V30 5844 N 554.287 1.06798 1.15896 0
M  V30 5845 C 555.197 0.694564 2.24083 0
M  V30 5846 C 556.213 -0.291687 1.71538 0
M  V30 5847 O 557.389 -0.139723 2.00915 0
M  V30 5848 C 554.454 0.0921014 3.46578 0
M  V30 5849 C 553.515 1.13087 4.14137 0
M  V30 5850 C 552.748 0.557064 5.30785 0
M  V30 5851 O 552.971 -0.628623 5.66925 0
M  V30 5852 O 551.905 1.29924 5.8771 0
M  V30 5853 H 555.731 1.59663 2.58344 0
M  V30 5854 H 553.316 0.840575 1.2351 0
M  V30 5855 H 555.198 -0.241884 4.20705 0
M  V30 5856 H 553.873 -0.78337 3.14078 0
M  V30 5857 H 552.78 1.51712 3.41957 0
M  V30 5858 H 554.113 1.97805 4.50704 0
M  V30 5859 N 555.766 -1.3263 0.851289 0
M  V30 5860 C 556.698 -2.27824 0.250757 0
M  V30 5861 C 557.711 -1.52285 -0.575598 0
M  V30 5862 O 558.9 -1.73946 -0.400638 0
M  V30 5863 C 556 -3.3232 -0.664571 0
M  V30 5864 C 555.173 -4.37221 0.125187 0
M  V30 5865 C 554.232 -5.21314 -0.715385 0
M  V30 5866 O 553.258 -5.69002 -0.150111 0
M  V30 5867 N 554.46 -5.43823 -2.03069 0
M  V30 5868 H 557.225 -2.79997 1.06873 0
M  V30 5869 H 554.786 -1.45455 0.710943 0
M  V30 5870 H 556.778 -3.85486 -1.23216 0
M  V30 5871 H 555.348 -2.80331 -1.38323 0
M  V30 5872 H 554.568 -3.84384 0.874199 0
M  V30 5873 H 555.856 -5.04399 0.667774 0
M  V30 5874 H 555.254 -5.06803 -2.51332 0
M  V30 5875 H 553.811 -5.99998 -2.54648 0
M  V30 5876 N 557.244 -0.608902 -1.45362 0
M  V30 5877 C 558.174 0.0964526 -2.33301 0
M  V30 5878 C 559.155 0.857444 -1.46908 0
M  V30 5879 O 560.34 0.827735 -1.75676 0
M  V30 5880 C 557.47 1.09354 -3.29635 0
M  V30 5881 C 556.424 0.445676 -4.25673 0
M  V30 5882 C 555.75 1.5511 -5.11708 0
M  V30 5883 C 557.05 -0.633972 -5.18438 0
M  V30 5884 H 558.744 -0.637829 -2.92527 0
M  V30 5885 H 556.29 -0.308178 -1.40664 0
M  V30 5886 H 558.243 1.59556 -3.90025 0
M  V30 5887 H 556.967 1.85843 -2.6857 0
M  V30 5888 H 555.626 -0.0354897 -3.66583 0
M  V30 5889 H 555.274 2.30631 -4.4701 0
M  V30 5890 H 554.974 1.12311 -5.76767 0
M  V30 5891 H 556.498 2.05537 -5.74967 0
M  V30 5892 H 557.912 -0.215974 -5.72893 0
M  V30 5893 H 556.309 -0.983789 -5.91981 0
M  V30 5894 H 557.379 -1.51005 -4.60788 0
M  V30 5895 N 558.722 1.53707 -0.348139 0
M  V30 5896 C 559.669 2.25173 0.506518 0
M  V30 5897 C 560.639 1.25174 1.09182 0
M  V30 5898 O 561.824 1.53917 1.12757 0
M  V30 5899 C 558.964 3.03141 1.64923 0
M  V30 5900 C 558.077 4.18002 1.0908 0
M  V30 5901 C 557.212 4.83447 2.20119 0
M  V30 5902 C 556.251 5.90369 1.61651 0
M  V30 5903 N 555.388 6.49575 2.66451 0
M  V30 5904 H 560.228 2.97799 -0.109452 0
M  V30 5905 H 557.765 1.46953 -0.0657866 0
M  V30 5906 H 559.723 3.46607 2.32205 0
M  V30 5907 H 558.353 2.32803 2.23612 0
M  V30 5908 H 557.405 3.79145 0.308783 0
M  V30 5909 H 558.717 4.94892 0.623178 0
M  V30 5910 H 557.871 5.30008 2.95257 0
M  V30 5911 H 556.61 4.05991 2.70227 0
M  V30 5912 H 555.615 5.43186 0.850209 0
M  V30 5913 H 556.84 6.69735 1.1239 0
M  V30 5914 H 554.786 5.74981 3.15805 0
M  V30 5915 H 554.703 7.21952 2.24325 0
M  V30 5916 H 555.971 7.00789 3.41344 0
M  V30 5917 N 560.2 0.0768682 1.57412 0
M  V30 5918 C 561.11 -0.903207 2.16516 0
M  V30 5919 C 562.126 -1.32341 1.12968 0
M  V30 5920 O 563.302 -1.39507 1.45258 0
M  V30 5921 C 560.367 -2.1508 2.71922 0
M  V30 5922 C 559.428 -1.78653 3.90361 0
M  V30 5923 C 558.661 -2.97465 4.43114 0
M  V30 5924 O 558.884 -4.11638 3.94854 0
M  V30 5925 O 557.818 -2.76987 5.3438 0
M  V30 5926 H 561.644 -0.430427 3.00634 0
M  V30 5927 H 559.229 -0.146485 1.4868 0
M  V30 5928 H 561.111 -2.8823 3.07411 0
M  V30 5929 H 559.786 -2.61446 1.9086 0
M  V30 5930 H 558.693 -1.0274 3.59716 0
M  V30 5931 H 560.026 -1.37066 4.7273 0
M  V30 5932 N 561.678 -1.56367 -0.196722 0
M  V30 5933 C 562.926 -1.80172 -0.915554 0
M  V30 5934 C 563.247 -0.649649 -1.8386 0
M  V30 5935 O 562.517 0.332111 -1.93064 0
M  V30 5936 H 561.097 -0.664592 -0.341067 0
M  V30 5937 H 563.759 -1.93844 -0.202622 0
M  V30 5938 H 562.855 -2.7327 -1.50764 0
M  V30 5939 N 563.156 0.464375 -1.50603 0
M  V30 5940 C 564.106 1.55929 -1.66343 0
M  V30 5941 C 565.09 1.52338 -0.517887 0
M  V30 5942 O 566.282 1.59248 -0.772601 0
M  V30 5943 C 563.411 2.94327 -1.7671 0
M  V30 5944 C 562.497 3.02777 -2.96962 0
M  V30 5945 N 562.888 2.81026 -4.20545 0
M  V30 5946 C 561.186 3.33919 -2.95659 0
M  V30 5947 C 561.887 2.94618 -5.01573 0
M  V30 5948 N 560.863 3.25112 -4.35664 0
M  V30 5949 H 564.665 1.37822 -2.59581 0
M  V30 5950 H 562.179 0.671227 -1.47879 0
M  V30 5951 H 564.176 3.73063 -1.86091 0
M  V30 5952 H 562.836 3.13476 -0.846353 0
M  V30 5953 H 563.847 2.56477 -4.49933 0
M  V30 5954 H 560.524 3.59013 -2.13111 0
M  V30 5955 H 561.914 2.81984 -6.09865 0
M  V30 5956 N 564.634 1.40294 0.718013 0
M  V30 5957 C 565.88 1.38645 1.48005 0
M  V30 5958 C 566.213 -0.0121202 1.94196 0
M  V30 5959 O 565.488 -0.980309 1.67989 0
M  V30 5960 C 565.771 2.37379 2.70782 0
M  V30 5961 C 565.624 3.8625 2.30501 0
M  V30 5962 C 566.943 2.33685 3.72933 0
M  V30 5963 H 564.062 0.504928 0.536858 0
M  V30 5964 H 566.704 1.71411 0.819649 0
M  V30 5965 H 564.854 2.09568 3.27129 0
M  V30 5966 H 566.526 4.24879 1.79655 0
M  V30 5967 H 564.769 4.02202 1.6253 0
M  V30 5968 H 565.44 4.50847 3.18498 0
M  V30 5969 H 567.916 2.58314 3.2621 0
M  V30 5970 H 566.792 3.0482 4.56482 0
M  V30 5971 H 567.053 1.34765 4.21059 0
M  V30 5972 N 566.112 -0.949982 1.2575 0
M  V30 5973 C 567.528 -1.22191 1.02672 0
M  V30 5974 C 567.728 -1.99898 -0.253588 0
M  V30 5975 O 566.784 -2.33329 -0.965076 0
M  V30 5976 C 568.097 -1.99175 2.25277 0
M  V30 5977 C 569.645 -2.12201 2.30087 0
M  V30 5978 C 570.12 -2.92586 3.5236 0
M  V30 5979 N 571.611 -3.00163 3.52784 0
M  V30 5980 C 572.346 -3.62766 4.44059 0
M  V30 5981 N 571.842 -4.26943 5.45611 0
M  V30 5982 N 573.635 -3.59953 4.3173 0
M  V30 5983 H 565.786 -0.430258 2.07996 0
M  V30 5984 H 568.049 -0.252844 0.91366 0
M  V30 5985 H 567.755 -1.49479 3.18354 0
M  V30 5986 H 567.629 -2.99868 2.28821 0
M  V30 5987 H 570.016 -2.61093 1.3753 0
M  V30 5988 H 570.097 -1.10799 2.30559 0
M  V30 5989 H 569.741 -2.44383 4.45241 0
M  V30 5990 H 569.671 -3.94224 3.49134 0
M  V30 5991 H 572.162 -2.54529 2.79327 0
M  V30 5992 H 572.475 -4.72583 6.11461 0
M  V30 5993 H 570.82 -4.25557 5.49478 0
M  V30 5994 H 574.011 -3.09003 3.51617 0
M  V30 5995 H 574.184 -4.08455 5.03059 0
M  V30 5996 N 567.59 -1.07411 -1.15328 0
M  V30 5997 C 568.52 -0.716472 -2.22236 0
M  V30 5998 C 569.501 0.296373 -1.67498 0
M  V30 5999 O 570.686 0.168989 -1.93463 0
M  V30 6000 C 567.816 -0.114142 -3.47112 0
M  V30 6001 C 566.77 -1.05421 -4.14814 0
M  V30 6002 C 566.096 -0.314604 -5.33774 0
M  V30 6003 C 567.396 -2.38808 -4.64508 0
M  V30 6004 H 569.09 -1.61029 -2.52408 0
M  V30 6005 H 566.636 -0.775702 -1.21321 0
M  V30 6006 H 568.589 0.148001 -4.2114 0
M  V30 6007 H 567.313 0.814755 -3.16274 0
M  V30 6008 H 565.972 -1.30128 -3.42728 0
M  V30 6009 H 565.62 0.617772 -4.99192 0
M  V30 6010 H 565.32 -0.941209 -5.80013 0
M  V30 6011 H 566.844 -0.0602747 -6.1057 0
M  V30 6012 H 568.258 -2.18424 -5.3006 0
M  V30 6013 H 566.655 -2.97069 -5.21412 0
M  V30 6014 H 567.725 -3.01067 -3.80114 0
M  V30 6015 N 569.068 1.32177 -0.85831 0
M  V30 6016 C 570.298 2.01021 -0.476889 0
M  V30 6017 C 570.706 1.64653 0.931995 0
M  V30 6018 O 570.049 0.865713 1.62022 0
M  V30 6019 C 570.111 3.55413 -0.540528 0
M  V30 6020 C 569.775 4.1522 -1.90895 0
M  V30 6021 C 570.772 4.3318 -2.87491 0
M  V30 6022 C 568.457 4.51212 -2.20709 0
M  V30 6023 C 570.451 4.86306 -4.1205 0
M  V30 6024 C 568.138 5.04042 -3.45521 0
M  V30 6025 C 569.136 5.21538 -4.41007 0
M  V30 6026 O 568.824 5.73238 -5.63608 0
M  V30 6027 H 568.556 0.650059 -0.18547 0
M  V30 6028 H 571.11 1.69648 -1.15796 0
M  V30 6029 H 569.34 3.86196 0.19741 0
M  V30 6030 H 571.029 4.05526 -0.174191 0
M  V30 6031 H 571.795 4.05704 -2.65762 0
M  V30 6032 H 567.674 4.36878 -1.4717 0
M  V30 6033 H 571.218 4.99877 -4.86589 0
M  V30 6034 H 567.115 5.30952 -3.67098 0
M  V30 6035 H 567.883 5.91625 -5.65617 0
M  V30 6036 N 570.547 0.616602 1.45037 0
M  V30 6037 C 571.958 0.199359 1.85633 0
M  V30 6038 C 572.309 -1.24588 1.51566 0
M  V30 6039 O 571.434 -1.94594 0.94668 0
M  V30 6040 C 572.029 0.355033 3.36935 0
M  V30 6041 C 570.588 -0.00758748 3.76399 0
M  V30 6042 C 569.735 0.675256 2.68953 0
M  V30 6043 H 572.686 0.822708 1.3571 0
M  V30 6044 H 572.707 -0.410201 3.78282 0
M  V30 6045 H 572.219 1.40699 3.61698 0
M  V30 6046 H 570.32 -1.05837 3.57252 0
M  V30 6047 H 570.433 0.392346 4.77491 0
M  V30 6048 H 568.797 0.111992 2.54454 0
M  V30 6049 H 569.58 1.72952 2.96551 0
M  V30 6050 N 572.025 -1.5352 0.356285 0
M  V30 6051 C 573.25 -2.06007 -0.239961 0
M  V30 6052 C 573.675 -1.22872 -1.42422 0
M  V30 6053 O 573.033 -0.245516 -1.7963 0
M  V30 6054 C 573.081 -3.5522 -0.620587 0
M  V30 6055 O 572.185 -3.74864 -1.71902 0
M  V30 6056 H 571.526 -0.662961 -0.0371377 0
M  V30 6057 H 574.056 -1.98033 0.514194 0
M  V30 6058 H 574.066 -3.98081 -0.894197 0
M  V30 6059 H 572.741 -4.15175 0.245407 0
M  V30 6060 H 571.318 -3.43904 -1.44169 0
M  V30 6061 N 573.503 -0.0852151 -1.57369 0
M  V30 6062 C 574.728 0.592872 -1.98746 0
M  V30 6063 C 575.153 1.61538 -0.963689 0
M  V30 6064 O 574.511 1.81168 0.069071 0
M  V30 6065 C 574.559 1.22599 -3.39119 0
M  V30 6066 O 573.663 2.34185 -3.39457 0
M  V30 6067 H 573.004 0.151314 -0.646529 0
M  V30 6068 H 575.534 -0.163703 -2.03944 0
M  V30 6069 H 575.544 1.56965 -3.76598 0
M  V30 6070 H 574.219 0.476831 -4.13158 0
M  V30 6071 H 572.796 2.01512 -3.13763 0
M  V30 6072 N 574.981 1.5647 0.188427 0
M  V30 6073 C 576.397 1.50204 0.539532 0
M  V30 6074 C 576.597 0.78644 1.85519 0
M  V30 6075 O 575.653 0.339714 2.50204 0
M  V30 6076 C 576.966 2.94893 0.588103 0
M  V30 6077 C 578.514 3.05602 0.67648 0
M  V30 6078 C 578.989 4.51716 0.756101 0
M  V30 6079 N 580.48 4.55894 0.819451 0
M  V30 6080 C 581.215 5.66272 0.90134 0
M  V30 6081 N 580.711 6.86323 0.945118 0
M  V30 6082 N 582.504 5.54201 0.939043 0
M  V30 6083 H 574.655 2.01406 -0.674493 0
M  V30 6084 H 576.918 0.916828 -0.241103 0
M  V30 6085 H 576.624 3.50334 -0.309633 0
M  V30 6086 H 576.498 3.4861 1.44051 0
M  V30 6087 H 578.885 2.50206 1.56465 0
M  V30 6088 H 578.966 2.54999 -0.202262 0
M  V30 6089 H 578.61 5.07739 -0.12774 0
M  V30 6090 H 578.54 5.00058 1.65074 0
M  V30 6091 H 581.031 3.69452 0.794594 0
M  V30 6092 H 581.344 7.66194 1.0083 0
M  V30 6093 H 579.689 6.88968 0.913683 0
M  V30 6094 H 582.88 4.59333 0.901725 0
M  V30 6095 H 583.053 6.40247 0.999402 0
M  V30 6096 N 576.459 -0.456382 1.50847 0
M  V30 6097 C 577.699 -1.21704 1.64218 0
M  V30 6098 C 578.063 -1.88932 0.341859 0
M  V30 6099 O 579.264 -2.66497 0.351137 0
M  V30 6100 C 577.535 -2.22162 2.79962 0
M  V30 6101 S 579.094 -3.0697 3.13552 0
M  V30 6102 H 575.912 -0.412995 0.578754 0
M  V30 6103 H 578.514 -0.511637 1.88686 0
M  V30 6104 H 577.218 -1.71379 3.72904 0
M  V30 6105 H 576.749 -2.9731 2.57624 0
M  V30 6106 H 578.764 -4.23539 2.58513 0
M  V30 6107 N 577.937 -1.40673 -0.710563 0
M  V30 6108 C 578.9 -1.4108 -1.80635 0
M  V30 6109 C 579.9 -0.303783 -1.57904 0
M  V30 6110 O 581.09 -0.562937 -1.64853 0
M  V30 6111 C 578.222 -1.20748 -3.18799 0
M  V30 6112 H 579.415 -2.38612 -1.81671 0
M  V30 6113 H 576.968 -1.26595 -0.916704 0
M  V30 6114 H 577.703 -0.239964 -3.23411 0
M  V30 6115 H 577.488 -2.00941 -3.36698 0
M  V30 6116 H 578.978 -1.23833 -3.98817 0
M  V30 6117 N 579.415 0.9433 -1.26252 0
M  V30 6118 C 580.826 1.50404 -1.10614 0
M  V30 6119 C 581.177 1.93666 0.31429 0
M  V30 6120 O 580.302 1.79709 1.20555 0
M  V30 6121 C 580.897 2.73336 -2.00182 0
M  V30 6122 C 579.456 3.25686 -1.88695 0
M  V30 6123 C 578.603 1.98474 -1.93658 0
M  V30 6124 H 581.554 0.759006 -1.39373 0
M  V30 6125 H 581.575 3.47567 -1.54847 0
M  V30 6126 H 581.087 2.41818 -3.03555 0
M  V30 6127 H 579.188 3.61998 -0.882489 0
M  V30 6128 H 579.301 3.92935 -2.74115 0
M  V30 6129 H 577.665 2.14278 -1.37684 0
M  V30 6130 H 578.448 1.6929 -2.98657 0
M  V30 6131 N 580.893 1.08022 1.14757 0
M  V30 6132 C 581.84 0.706657 2.19716 0
M  V30 6133 C 582.81 -0.30525 1.63271 0
M  V30 6134 O 583.995 -0.19015 1.8985 0
M  V30 6135 C 581.135 0.117914 3.44898 0
M  V30 6136 C 580.248 1.18212 4.15512 0
M  V30 6137 C 579.383 0.557659 5.28265 0
M  V30 6138 C 578.422 1.60418 5.90705 0
M  V30 6139 N 577.559 1.0018 6.94916 0
M  V30 6140 H 582.399 1.60603 2.51019 0
M  V30 6141 H 579.936 0.802664 1.23271 0
M  V30 6142 H 581.894 -0.241112 4.16503 0
M  V30 6143 H 580.524 -0.744788 3.1409 0
M  V30 6144 H 579.576 1.65863 3.42335 0
M  V30 6145 H 580.888 1.97533 4.5802 0
M  V30 6146 H 580.042 0.146654 6.06523 0
M  V30 6147 H 578.781 -0.267249 4.86967 0
M  V30 6148 H 577.786 2.02489 5.11154 0
M  V30 6149 H 579.011 2.43149 6.34078 0
M  V30 6150 H 576.957 0.197917 6.55701 0
M  V30 6151 H 576.874 1.73216 7.35889 0
M  V30 6152 H 578.142 0.616523 7.77058 0
M  V30 6153 N 582.371 -1.3172 0.865308 0
M  V30 6154 C 583.618 -1.96876 0.473931 0
M  V30 6155 C 583.946 -1.68425 -0.972786 0
M  V30 6156 O 583.201 -0.970742 -1.69927 0
M  V30 6157 C 583.5 -3.5102 0.672283 0
M  V30 6158 C 583.166 -3.9948 2.09108 0
M  V30 6159 C 581.828 -4.12425 2.4791 0
M  V30 6160 C 584.18 -4.2503 3.0166 0
M  V30 6161 C 581.508 -4.48267 3.78515 0
M  V30 6162 C 583.86 -4.62335 4.31774 0
M  V30 6163 C 582.524 -4.73486 4.70497 0
M  V30 6164 H 581.794 -0.72042 0.173424 0
M  V30 6165 H 584.441 -1.56937 1.0974 0
M  V30 6166 H 582.746 -3.91785 -0.034356 0
M  V30 6167 H 584.443 -3.99475 0.349353 0
M  V30 6168 H 581.033 -3.89898 1.77981 0
M  V30 6169 H 585.217 -4.14529 2.7291 0
M  V30 6170 H 580.473 -4.55097 4.08285 0
M  V30 6171 H 584.647 -4.81058 5.03543 0
M  V30 6172 H 582.274 -5.01016 5.71741 0
M  V30 6173 N 583.85 -0.624285 -1.44708 0
M  V30 6174 C 584.779 0.0717025 -2.3339 0
M  V30 6175 C 585.76 0.841814 -1.47809 0
M  V30 6176 O 586.946 0.809056 -1.76544 0
M  V30 6177 C 584.076 1.05852 -3.30776 0
M  V30 6178 C 583.029 0.400503 -4.26122 0
M  V30 6179 C 582.356 1.49674 -5.13324 0
M  V30 6180 C 583.656 -0.688924 -5.17737 0
M  V30 6181 H 585.35 -0.668819 -2.91834 0
M  V30 6182 H 582.896 -0.32308 -1.40329 0
M  V30 6183 H 584.849 1.5541 -3.91696 0
M  V30 6184 H 583.572 1.82984 -2.70526 0
M  V30 6185 H 582.231 -0.0743687 -3.66525 0
M  V30 6186 H 581.88 2.25877 -4.49431 0
M  V30 6187 H 581.58 1.06188 -5.77926 0
M  V30 6188 H 583.104 1.99427 -5.77115 0
M  V30 6189 H 584.518 -0.276724 -5.72632 0
M  V30 6190 H 582.915 -1.04652 -5.90904 0
M  V30 6191 H 583.985 -1.55884 -4.5916 0
M  V30 6192 N 585.328 1.53329 -0.364422 0
M  V30 6193 C 586.575 2.01239 0.225634 0
M  V30 6194 C 586.903 1.25172 1.48869 0
M  V30 6195 O 586.158 0.333289 1.92841 0
M  V30 6196 C 586.457 3.52911 0.564661 0
M  V30 6197 C 586.123 4.46837 -0.603936 0
M  V30 6198 C 584.785 4.72234 -0.924585 0
M  V30 6199 C 587.137 5.02409 -1.38691 0
M  V30 6200 C 584.465 5.50454 -2.0302 0
M  V30 6201 C 586.817 5.81836 -2.48293 0
M  V30 6202 C 585.481 6.0552 -2.80894 0
M  V30 6203 H 584.751 0.736386 0.0825654 0
M  V30 6204 H 587.398 1.84948 -0.496645 0
M  V30 6205 H 585.703 3.67144 1.36794 0
M  V30 6206 H 587.4 3.87455 1.03344 0
M  V30 6207 H 583.99 4.27217 -0.343983 0
M  V30 6208 H 588.174 4.82735 -1.15243 0
M  V30 6209 H 583.43 5.67024 -2.28678 0
M  V30 6210 H 587.604 6.23905 -3.0938 0
M  V30 6211 H 585.231 6.65916 -3.66688 0
M  V30 6212 N 586.806 0.0935595 1.57322 0
M  V30 6213 C 587.754 -0.883457 2.15169 0
M  V30 6214 C 588.748 -1.29324 1.09415 0
M  V30 6215 O 589.954 -1.26795 1.27762 0
M  V30 6216 H 586.329 -0.302923 0.688289 0
M  V30 6217 H 588.3 -0.370845 2.96087 0
M  V30 6218 C 587.049 -2.13345 2.74552 0
M  V30 6219 H 586.372 -1.82702 3.55612 0
M  V30 6220 H 587.812 -2.7977 3.18598 0
M  V30 6221 C 586.271 -2.90646 1.70371 0
M  V30 6222 O 586.801 -3.85133 1.14173 0
M  V30 6223 N 585.007 -2.54157 1.40899 0
M  V30 6224 H 584.554 -1.77391 1.86789 0
M  V30 6225 H 584.512 -3.06178 0.714301 0
M  V30 6226 N 588.284 -1.56567 -0.180126 0
M  V30 6227 C 589.231 -1.95725 -1.22313 0
M  V30 6228 C 590.201 -0.819911 -1.44453 0
M  V30 6229 O 591.386 -1.07931 -1.57339 0
M  V30 6230 C 588.526 -2.31484 -2.55947 0
M  V30 6231 C 587.639 -3.58354 -2.4126 0
M  V30 6232 C 586.774 -3.83366 -3.67701 0
M  V30 6233 C 585.813 -5.03612 -3.47909 0
M  V30 6234 N 584.95 -5.24802 -4.66398 0
M  V30 6235 H 589.79 -2.84642 -0.882198 0
M  V30 6236 H 587.327 -1.4085 -0.42422 0
M  V30 6237 H 589.285 -2.50237 -3.33822 0
M  V30 6238 H 587.915 -1.45689 -2.88053 0
M  V30 6239 H 586.967 -3.47565 -1.54606 0
M  V30 6240 H 588.279 -4.46386 -2.22577 0
M  V30 6241 H 587.433 -4.02439 -4.54013 0
M  V30 6242 H 586.172 -2.93692 -3.89353 0
M  V30 6243 H 585.177 -4.84447 -2.59983 0
M  V30 6244 H 586.402 -5.94809 -3.27688 0
M  V30 6245 H 584.348 -4.38079 -4.88286 0
M  V30 6246 H 584.265 -6.07041 -4.50596 0
M  V30 6247 H 585.533 -5.48346 -5.54019 0
M  V30 6248 N 589.762 0.448376 -1.51087 0
M  V30 6249 C 590.99 1.22143 -1.66999 0
M  V30 6250 C 591.405 1.85283 -0.362699 0
M  V30 6251 O 590.762 1.70236 0.65772 0
M  V30 6252 C 590.813 2.31357 -2.7777 0
M  V30 6253 O 590.534 1.70801 -4.03434 0
M  V30 6254 C 592.035 3.21836 -3.04855 0
M  V30 6255 H 589.255 0.368558 -0.560719 0
M  V30 6256 H 591.799 0.532618 -1.97442 0
M  V30 6257 H 589.954 2.95973 -2.49958 0
M  V30 6258 H 590.368 2.42895 -4.64868 0
M  V30 6259 H 591.842 3.94627 -3.85971 0
M  V30 6260 H 592.319 3.81949 -2.16821 0
M  V30 6261 H 592.925 2.62933 -3.34285 0
M  V30 6262 N 591.24 1.41047 0.703093 0
M  V30 6263 C 592.486 1.40207 1.46526 0
M  V30 6264 C 592.819 0.00847763 1.94198 0
M  V30 6265 O 592.094 -0.962437 1.69019 0
M  V30 6266 C 592.377 2.40238 2.6825 0
M  V30 6267 C 592.23 3.88674 2.26391 0
M  V30 6268 C 593.549 2.37627 3.70434 0
M  V30 6269 H 590.668 0.510594 0.531472 0
M  V30 6270 H 593.31 1.72271 0.801422 0
M  V30 6271 H 591.46 2.13026 3.24888 0
M  V30 6272 H 593.132 4.2676 1.75138 0
M  V30 6273 H 591.375 4.03903 1.58255 0
M  V30 6274 H 592.046 4.542 3.13698 0
M  V30 6275 H 594.522 2.61759 3.23452 0
M  V30 6276 H 593.398 3.09645 4.53223 0
M  V30 6277 H 593.659 1.39223 4.19606 0
M  V30 6278 N 592.718 -0.936591 1.26751 0
M  V30 6279 C 593.946 -1.71758 1.15355 0
M  V30 6280 C 594.361 -1.86549 -0.290683 0
M  V30 6281 O 593.718 -1.37616 -1.19868 0
M  V30 6282 C 593.769 -3.12193 1.82258 0
M  V30 6283 O 593.49 -2.98105 3.21038 0
M  V30 6284 C 594.991 -4.06485 1.76875 0
M  V30 6285 H 592.211 -0.537636 0.401483 0
M  V30 6286 H 594.755 -1.17382 1.67457 0
M  V30 6287 H 592.91 -3.63456 1.34083 0
M  V30 6288 H 593.324 -3.86824 3.54214 0
M  V30 6289 H 594.798 -5.02569 2.28316 0
M  V30 6290 H 595.275 -4.32986 0.736216 0
M  V30 6291 H 595.881 -3.61144 2.24623 0
M  V30 6292 N 594.196 -1.08629 -1.14182 0
M  V30 6293 C 595.144 -0.71284 -2.21408 0
M  V30 6294 C 596.138 0.282457 -1.67029 0
M  V30 6295 O 597.344 0.144783 -1.79417 0
M  V30 6296 H 593.719 -0.212497 -0.721352 0
M  V30 6297 H 595.69 -1.6265 -2.50175 0
M  V30 6298 C 594.439 -0.140704 -3.47415 0
M  V30 6299 H 593.762 -0.897739 -3.8959 0
M  V30 6300 H 595.202 0.0827677 -4.23919 0
M  V30 6301 C 593.661 1.122 -3.17668 0
M  V30 6302 O 594.191 2.20652 -3.35672 0
M  V30 6303 N 592.397 1.03328 -2.71609 0
M  V30 6304 H 591.944 0.150666 -2.57159 0
M  V30 6305 H 591.902 1.8789 -2.52081 0
M  V30 6306 N 595.674 1.31259 -0.872281 0
M  V30 6307 C 596.622 2.30404 -0.318897 0
M  V30 6308 C 597.616 1.5962 0.567267 0
M  V30 6309 O 598.822 1.74204 0.453111 0
M  V30 6310 H 595.197 0.747243 -0.0844474 0
M  V30 6311 H 597.168 2.74549 -1.16899 0
M  V30 6312 C 595.917 3.44608 0.462683 0
M  V30 6313 H 595.24 3.99248 -0.209936 0
M  V30 6314 H 596.68 4.1609 0.815187 0
M  V30 6315 C 595.139 2.93456 1.65485 0
M  V30 6316 O 595.669 2.92418 2.75417 0
M  V30 6317 N 593.875 2.49628 1.48776 0
M  V30 6318 H 593.422 2.50671 0.593452 0
M  V30 6319 H 593.38 2.15759 2.28682 0
M  V30 6320 N 597.152 0.631951 1.44375 0
M  V30 6321 C 598.085 -0.121822 2.27875 0
M  V30 6322 C 599.063 -0.850457 1.38586 0
M  V30 6323 O 600.247 -0.854378 1.68026 0
M  V30 6324 C 597.374 -1.17859 3.17533 0
M  V30 6325 C 596.42 -0.550391 4.22934 0
M  V30 6326 S 597.253 0.660145 5.31415 0
M  V30 6327 C 598.409 -0.396613 6.24642 0
M  V30 6328 H 598.642 0.586537 2.91457 0
M  V30 6329 H 596.175 0.420146 1.48574 0
M  V30 6330 H 598.133 -1.78335 3.69739 0
M  V30 6331 H 596.794 -1.85915 2.53169 0
M  V30 6332 H 595.987 -1.34631 4.85685 0
M  V30 6333 H 595.589 -0.0202306 3.73995 0
M  V30 6334 H 597.881 -1.26893 6.65511 0
M  V30 6335 H 598.824 0.195345 7.0783 0
M  V30 6336 H 599.232 -0.72288 5.59852 0
M  V30 6337 N 598.631 -1.53133 0.372548 0
M  V30 6338 C 599.561 -2.28876 -0.462412 0
M  V30 6339 C 600.542 -1.31583 -1.07796 0
M  V30 6340 O 601.727 -1.60461 -1.09389 0
M  V30 6341 C 598.857 -3.08317 -1.59868 0
M  V30 6342 C 597.811 -4.13355 -1.11003 0
M  V30 6343 C 597.137 -4.8092 -2.33708 0
M  V30 6344 C 598.437 -5.21955 -0.18983 0
M  V30 6345 H 600.131 -2.9892 0.169511 0
M  V30 6346 H 597.677 -1.43761 0.0829658 0
M  V30 6347 H 599.63 -3.60055 -2.18949 0
M  V30 6348 H 598.354 -2.35976 -2.25794 0
M  V30 6349 H 597.013 -3.62573 -0.541869 0
M  V30 6350 H 596.661 -4.05144 -2.98106 0
M  V30 6351 H 596.361 -5.51904 -2.01682 0
M  V30 6352 H 597.885 -5.35455 -2.93462 0
M  V30 6353 H 599.299 -5.69153 -0.688319 0
M  V30 6354 H 597.696 -6.00087 0.0398887 0
M  V30 6355 H 598.766 -4.78811 0.766057 0
M  V30 6356 N 600.109 -0.101901 -1.5727 0
M  V30 6357 C 601.349 0.563489 -1.96479 0
M  V30 6358 C 601.713 1.64926 -0.983021 0
M  V30 6359 O 602.914 2.37234 -1.26386 0
M  V30 6360 C 601.185 1.09809 -3.40113 0
M  V30 6361 S 602.744 1.7744 -4.01323 0
M  V30 6362 H 599.562 0.183675 -0.686866 0
M  V30 6363 H 602.164 -0.182922 -1.94642 0
M  V30 6364 H 600.868 0.296447 -4.09328 0
M  V30 6365 H 600.399 1.88018 -3.45562 0
M  V30 6366 H 602.414 3.0591 -3.90683 0
M  V30 6367 N 601.587 1.56661 0.17182 0
M  V30 6368 C 602.55 1.9549 1.19651 0
M  V30 6369 C 603.55 0.838501 1.37207 0
M  V30 6370 O 604.74 1.10556 1.34622 0
M  V30 6371 C 601.872 2.24927 2.56166 0
M  V30 6372 H 603.065 2.87184 0.864007 0
M  V30 6373 H 600.618 1.50711 0.41425 0
M  V30 6374 H 601.353 1.35944 2.94431 0
M  V30 6375 H 601.138 3.06301 2.4479 0
M  V30 6376 H 602.628 2.55891 3.30014 0
M  V30 6377 N 603.065 -0.440357 1.51323 0
M  V30 6378 C 604.313 -1.18769 1.63518 0
M  V30 6379 C 604.634 -1.91793 0.352201 0
M  V30 6380 O 603.904 -1.85432 -0.631811 0
M  V30 6381 H 602.484 -0.441408 0.602634 0
M  V30 6382 H 605.146 -0.505162 1.8824 0
M  V30 6383 H 604.242 -1.91892 2.46138 0
M  V30 6384 N 604.543 -1.41418 -0.695603 0
M  V30 6385 C 605.82 -1.31264 -1.45014 0
M  V30 6386 C 606.2 0.0597994 -2.11015 0
M  V30 6387 O 605.548 1.07403 -2.01685 0
M  V30 6388 C 605.758 -2.466 -2.4696 0
M  V30 6389 C 607.106 -2.87763 -3.12214 0
M  V30 6390 O 608.13 -2.46339 -2.57285 0
M  V30 6391 O 606.989 -3.59395 -4.11701 0
M  V30 6392 H 604.083 -0.516576 -0.645816 0
M  V30 6393 H 606.629 -1.53382 -0.726084 0
M  V30 6394 H 605.401 -3.38183 -1.96845 0
M  V30 6395 H 605.024 -2.26358 -3.26876 0
M  V30 6396 N 606.021 0.929856 -1.27246 0
M  V30 6397 C 607.249 1.71144 -1.16265 0
M  V30 6398 C 607.664 1.867 0.280786 0
M  V30 6399 O 607.021 1.38249 1.19136 0
M  V30 6400 C 607.072 3.11222 -1.83911 0
M  V30 6401 O 606.793 2.96398 -3.22614 0
M  V30 6402 C 608.294 4.05541 -1.79028 0
M  V30 6403 H 605.514 0.535499 -0.404328 0
M  V30 6404 H 608.058 1.16492 -1.68077 0
M  V30 6405 H 606.213 3.6274 -1.36009 0
M  V30 6406 H 606.627 3.8494 -3.56261 0
M  V30 6407 H 608.101 5.01351 -2.30978 0
M  V30 6408 H 608.578 4.32589 -0.759168 0
M  V30 6409 H 609.184 3.59947 -2.26535 0
M  V30 6410 N 607.499 1.09233 1.13605 0
M  V30 6411 C 608.915 0.82163 1.36826 0
M  V30 6412 C 609.115 -0.565021 1.93416 0
M  V30 6413 O 608.171 -1.32026 2.15234 0
M  V30 6414 C 609.484 1.91124 2.32147 0
M  V30 6415 C 611.032 1.93824 2.45767 0
M  V30 6416 C 611.507 3.01923 3.44393 0
M  V30 6417 N 612.998 3.01149 3.51942 0
M  V30 6418 C 613.733 3.81434 4.2813 0
M  V30 6419 N 613.229 4.71621 5.07489 0
M  V30 6420 N 615.022 3.69702 4.23411 0
M  V30 6421 H 607.173 1.98633 0.752234 0
M  V30 6422 H 609.436 0.862482 0.393482 0
M  V30 6423 H 609.142 2.90862 1.97717 0
M  V30 6424 H 609.016 1.78777 3.32142 0
M  V30 6425 H 611.403 0.94726 2.79483 0
M  V30 6426 H 611.484 2.10248 1.45703 0
M  V30 6427 H 611.128 4.01232 3.11408 0
M  V30 6428 H 611.058 2.82742 4.44257 0
M  V30 6429 H 613.549 2.35789 2.95317 0
M  V30 6430 H 613.862 5.29468 5.62924 0
M  V30 6431 H 612.207 4.75658 5.06729 0
M  V30 6432 H 615.398 2.98606 3.60489 0
M  V30 6433 H 615.571 4.32509 4.82535 0
M  V30 6434 N 608.977 -1.30795 0.87923 0
M  V30 6435 C 610.202 -2.01063 0.508769 0
M  V30 6436 C 610.627 -1.65508 -0.893803 0
M  V30 6437 O 609.985 -0.868616 -1.59138 0
M  V30 6438 C 610.033 -3.54054 0.683991 0
M  V30 6439 O 609.137 -4.11498 -0.272654 0
M  V30 6440 H 608.478 -0.632786 0.201191 0
M  V30 6441 H 611.008 -1.66776 1.18519 0
M  V30 6442 H 611.018 -4.03845 0.580798 0
M  V30 6443 H 609.693 -3.79271 1.70665 0
M  V30 6444 H 608.27 -3.72695 -0.12364 0
M  V30 6445 N 610.455 -0.639598 -1.44038 0
M  V30 6446 C 611.703 -0.147188 -2.01563 0
M  V30 6447 C 612.024 1.2384 -1.50628 0
M  V30 6448 O 611.294 1.82452 -0.713316 0
M  V30 6449 H 609.874 -0.0514231 -0.745228 0
M  V30 6450 H 612.536 -0.828205 -1.76428 0
M  V30 6451 H 611.632 -0.121358 -3.11864 0
M  V30 6452 N 611.933 1.52934 -0.380664 0
M  V30 6453 C 612.843 2.29921 0.466192 0
M  V30 6454 C 613.859 1.36488 1.07922 0
M  V30 6455 O 615.035 1.69553 1.0869 0
M  V30 6456 C 612.1 3.08468 1.58266 0
M  V30 6457 C 611.161 4.17595 0.995627 0
M  V30 6458 C 610.394 4.92387 2.05889 0
M  V30 6459 O 610.617 4.67184 3.27254 0
M  V30 6460 O 609.551 5.77949 1.68102 0
M  V30 6461 H 613.377 3.03274 -0.160735 0
M  V30 6462 H 610.962 1.48698 -0.144617 0
M  V30 6463 H 612.844 3.57469 2.23145 0
M  V30 6464 H 611.519 2.37937 2.19471 0
M  V30 6465 H 610.426 3.72811 0.310332 0
M  V30 6466 H 611.759 4.90336 0.427918 0
M  V30 6467 N 613.412 0.11024 1.57214 0
M  V30 6468 C 614.661 -0.549638 1.94067 0
M  V30 6469 C 614.974 -1.68388 0.995234 0
M  V30 6470 O 616.18 -2.40593 1.25807 0
M  V30 6471 C 614.636 -1.02912 3.44873 0
M  V30 6472 C 614.244 0.0761861 4.47935 0
M  V30 6473 C 615.988 -1.66087 3.9066 0
M  V30 6474 C 613.895 -0.419502 5.8991 0
M  V30 6475 H 612.825 -0.209092 0.724428 0
M  V30 6476 H 615.476 0.188683 1.82527 0
M  V30 6477 H 613.858 -1.82159 3.51616 0
M  V30 6478 H 615.032 0.852185 4.52851 0
M  V30 6479 H 613.347 0.614052 4.11847 0
M  V30 6480 H 615.944 -2.04272 4.94143 0
M  V30 6481 H 616.287 -2.53591 3.30148 0
M  V30 6482 H 616.82 -0.933959 3.86681 0
M  V30 6483 H 613.559 0.419277 6.54158 0
M  V30 6484 H 613.079 -1.16217 5.88433 0
M  V30 6485 H 614.758 -0.883577 6.40938 0
M  V30 6486 N 614.89 -1.56749 -0.16351 0
M  V30 6487 C 616.12 -1.86307 -0.892936 0
M  V30 6488 C 616.528 -0.6945 -1.75992 0
M  V30 6489 O 615.871 0.345384 -1.80424 0
M  V30 6490 C 615.933 -3.10372 -1.81409 0
M  V30 6491 C 615.597 -4.42913 -1.12593 0
M  V30 6492 C 616.594 -5.17608 -0.487661 0
M  V30 6493 C 614.279 -4.89646 -1.12035 0
M  V30 6494 C 616.273 -6.3723 0.14699 0
M  V30 6495 C 613.96 -6.09197 -0.481883 0
M  V30 6496 C 614.958 -6.82834 0.150678 0
M  V30 6497 O 614.646 -8.00116 0.779065 0
M  V30 6498 H 614.378 -0.622126 -0.264452 0
M  V30 6499 H 616.932 -2.04728 -0.166063 0
M  V30 6500 H 615.162 -2.87917 -2.58148 0
M  V30 6501 H 616.851 -3.26312 -2.41403 0
M  V30 6502 H 617.617 -4.8258 -0.483888 0
M  V30 6503 H 613.496 -4.32265 -1.60212 0
M  V30 6504 H 617.04 -6.94646 0.641325 0
M  V30 6505 H 612.937 -6.43688 -0.483266 0
M  V30 6506 H 613.705 -8.15678 0.679089 0
M  V30 6507 N 616.368 0.432326 -1.51554 0
M  V30 6508 C 617.779 1.01202 -1.56892 0
M  V30 6509 C 618.13 1.92175 -0.395394 0
M  V30 6510 O 617.255 2.10844 0.487198 0
M  V30 6511 C 617.85 1.84217 -2.8434 0
M  V30 6512 C 616.409 2.37228 -2.92233 0
M  V30 6513 C 615.556 1.16576 -2.51606 0
M  V30 6514 H 618.507 0.213407 -1.57259 0
M  V30 6515 H 618.528 2.69721 -2.68385 0
M  V30 6516 H 618.04 1.17979 -3.69733 0
M  V30 6517 H 616.141 3.06905 -2.11282 0
M  V30 6518 H 616.254 2.69682 -3.95991 0
M  V30 6519 H 614.618 1.51263 -2.04919 0
M  V30 6520 H 615.401 0.519404 -3.39348 0
M  V30 6521 N 617.846 1.41785 0.688094 0
M  V30 6522 C 618.794 1.44436 1.82321 0
M  V30 6523 C 619.788 0.321544 1.6632 0
M  V30 6524 O 620.994 0.493931 1.73091 0
M  V30 6525 H 617.369 0.452084 0.600936 0
M  V30 6526 H 619.34 2.40087 1.77202 0
M  V30 6527 C 618.089 1.35071 3.20392 0
M  V30 6528 H 617.412 2.2076 3.33324 0
M  V30 6529 H 618.852 1.40988 3.99873 0
M  V30 6530 C 617.311 0.0639127 3.36839 0
M  V30 6531 O 617.841 -0.888495 3.91751 0
M  V30 6532 N 616.047 -0.0146114 2.90596 0
M  V30 6533 H 615.594 0.761191 2.46097 0
M  V30 6534 H 615.552 -0.874988 3.01979 0
M  V30 6535 N 619.324 -0.923095 1.27737 0
M  V30 6536 C 620.57 -1.67375 1.14514 0
M  V30 6537 C 620.903 -1.91751 -0.307424 0
M  V30 6538 O 620.178 -1.51119 -1.22447 0
M  V30 6539 C 620.461 -3.03745 1.9342 0
M  V30 6540 C 620.314 -2.86581 3.46686 0
M  V30 6541 C 621.633 -4.04144 1.74228 0
M  V30 6542 H 618.752 -0.607427 0.417374 0
M  V30 6543 H 621.394 -1.07089 1.56946 0
M  V30 6544 H 619.544 -3.55204 1.5736 0
M  V30 6545 H 621.216 -2.42203 3.92601 0
M  V30 6546 H 619.459 -2.21829 3.72793 0
M  V30 6547 H 620.13 -3.83381 3.97143 0
M  V30 6548 H 622.606 -3.61712 2.05678 0
M  V30 6549 H 621.482 -4.97543 2.31824 0
M  V30 6550 H 621.743 -4.36661 0.691373 0
M  V30 6551 N 620.802 -1.09834 -1.13024 0
M  V30 6552 C 621.752 -0.710899 -2.16634 0
M  V30 6553 C 622.736 0.276836 -1.58501 0
M  V30 6554 O 623.928 0.0865457 -1.76788 0
M  V30 6555 C 621.057 -0.137574 -3.43024 0
M  V30 6556 C 620.143 -1.15198 -4.08155 0
M  V30 6557 N 620.534 -2.34054 -4.48388 0
M  V30 6558 C 618.832 -0.991074 -4.34849 0
M  V30 6559 C 619.533 -2.98616 -4.99203 0
M  V30 6560 N 618.509 -2.26159 -4.94321 0
M  V30 6561 H 622.311 -1.61576 -2.455 0
M  V30 6562 H 619.825 -0.975158 -1.29863 0
M  V30 6563 H 621.822 0.158031 -4.166 0
M  V30 6564 H 620.482 0.762088 -3.1563 0
M  V30 6565 H 621.493 -2.7162 -4.40957 0
M  V30 6566 H 618.17 -0.146448 -4.17243 0
M  V30 6567 H 619.56 -3.99683 -5.40096 0
M  V30 6568 N 622.28 1.30327 -0.886154 0
M  V30 6569 C 623.557 1.90922 -0.425217 0
M  V30 6570 C 623.937 1.80533 1.09413 0
M  V30 6571 O 623.285 1.2233 1.92996 0
M  V30 6572 C 623.495 3.36529 -0.924638 0
M  V30 6573 C 624.843 4.13598 -0.960305 0
M  V30 6574 O 625.867 3.45377 -0.871382 0
M  V30 6575 O 624.726 5.35482 -1.09184 0
M  V30 6576 H 621.82 0.81668 -0.130238 0
M  V30 6577 H 624.366 1.38886 -0.975132 0
M  V30 6578 H 623.138 3.38181 -1.96849 0
M  V30 6579 H 622.761 3.96021 -0.353955 0
M  V30 6580 N 623.758 0.647228 1.43697 0
M  V30 6581 C 624.721 -0.0385101 2.29168 0
M  V30 6582 C 625.721 -0.756487 1.41894 0
M  V30 6583 O 626.911 -0.598641 1.63591 0
M  V30 6584 C 624.043 -1.06524 3.23829 0
M  V30 6585 H 625.236 0.713445 2.9129 0
M  V30 6586 H 622.789 0.408153 1.50877 0
M  V30 6587 H 623.524 -1.84664 2.66589 0
M  V30 6588 H 623.309 -0.554147 3.88164 0
M  V30 6589 H 624.799 -1.54432 3.87996 0
M  V30 6590 N 625.236 -1.5273 0.388769 0
M  V30 6591 C 626.476 -2.03483 -0.193372 0
M  V30 6592 C 626.84 -1.26897 -1.44087 0
M  V30 6593 O 628.041 -1.67773 -2.10014 0
M  V30 6594 C 626.312 -3.54488 -0.455325 0
M  V30 6595 S 627.871 -4.27069 -1.00783 0
M  V30 6596 H 624.689 -0.708907 -0.0545131 0
M  V30 6597 H 627.291 -1.8798 0.536993 0
M  V30 6598 H 625.995 -4.07817 0.459722 0
M  V30 6599 H 625.526 -3.74196 -1.21413 0
M  V30 6600 H 627.541 -4.40185 -2.29023 0
M  V30 6601 N 626.714 -0.118576 -1.57153 0
M  V30 6602 C 627.646 0.862247 -2.12363 0
M  V30 6603 C 628.659 1.23025 -1.06625 0
M  V30 6604 O 629.848 1.17927 -1.33998 0
M  V30 6605 C 626.948 2.16425 -2.60794 0
M  V30 6606 C 626.121 1.96801 -3.90626 0
M  V30 6607 C 625.18 3.10726 -4.2466 0
M  V30 6608 O 624.206 2.83659 -4.93484 0
M  V30 6609 N 625.408 4.37147 -3.81946 0
M  V30 6610 H 628.173 0.390564 -2.97144 0
M  V30 6611 H 625.734 0.0658591 -1.61766 0
M  V30 6612 H 627.726 2.91633 -2.80593 0
M  V30 6613 H 626.296 2.54943 -1.80895 0
M  V30 6614 H 625.516 1.05787 -3.7974 0
M  V30 6615 H 626.804 1.80993 -4.7552 0
M  V30 6616 H 626.202 4.62014 -3.26435 0
M  V30 6617 H 624.759 5.09229 -4.06853 0
M  V30 6618 N 628.193 1.56834 0.155195 0
M  V30 6619 C 629.441 1.82536 0.867462 0
M  V30 6620 C 629.762 0.698168 1.82073 0
M  V30 6621 O 629.032 -0.280807 1.93877 0
M  V30 6622 H 627.612 0.673401 0.323327 0
M  V30 6623 H 630.274 1.94313 0.151156 0
M  V30 6624 H 629.37 2.77171 1.43466 0
M  V30 6625 N 629.671 -0.424282 1.51781 0
M  V30 6626 C 630.948 -1.18464 1.55646 0
M  V30 6627 C 631.328 -2.08529 0.328438 0
M  V30 6628 O 630.676 -2.17969 -0.685693 0
M  V30 6629 C 630.886 -1.97514 2.87731 0
M  V30 6630 C 632.234 -2.54106 3.40169 0
M  V30 6631 O 633.258 -2.07711 2.89369 0
M  V30 6632 O 632.117 -3.38759 4.28841 0
M  V30 6633 H 629.211 -0.540055 0.626314 0
M  V30 6634 H 631.757 -0.432291 1.64102 0
M  V30 6635 H 630.529 -1.31444 3.68562 0
M  V30 6636 H 630.152 -2.79787 2.82498 0
M  V30 6637 N 631.149 -1.42148 -0.680565 0
M  V30 6638 C 632.374 -1.45901 -1.47403 0
M  V30 6639 C 632.799 -0.0700985 -1.87969 0
M  V30 6640 O 632.157 0.930145 -1.55621 0
M  V30 6641 C 632.205 -2.38661 -2.70321 0
M  V30 6642 O 631.309 -1.85399 -3.68376 0
M  V30 6643 H 630.65 -0.494565 -0.443059 0
M  V30 6644 H 633.18 -1.86774 -0.835251 0
M  V30 6645 H 633.19 -2.55046 -3.18458 0
M  V30 6646 H 631.865 -3.39571 -2.40134 0
M  V30 6647 H 630.442 -1.78541 -3.2738 0
M  V30 6648 N 632.627 0.916307 -1.28225 0
M  V30 6649 C 633.875 1.6619 -1.15002 0
M  V30 6650 C 634.196 1.92642 0.302329 0
M  V30 6651 O 633.466 1.54076 1.20985 0
M  V30 6652 H 632.046 0.615964 -0.422608 0
M  V30 6653 H 634.708 1.09963 -1.60917 0
M  V30 6654 H 633.804 2.62533 -1.68769 0
M  V30 6655 N 634.105 1.10431 1.1244 0
M  V30 6656 C 635.353 0.845045 1.83585 0
M  V30 6657 C 635.674 -0.631168 1.84503 0
M  V30 6658 O 634.944 -1.45825 1.30813 0
M  V30 6659 H 633.524 0.309628 0.679809 0
M  V30 6660 H 636.186 1.39458 1.36153 0
M  V30 6661 H 635.282 1.20786 2.8778 0
M  V30 6662 N 635.583 -1.29855 0.893053 0
M  V30 6663 C 636.994 -1.77946 0.564998 0
M  V30 6664 C 637.345 -1.73339 -0.919134 0
M  V30 6665 O 636.47 -1.3152 -1.71847 0
M  V30 6666 C 637.065 -3.23118 1.01883 0
M  V30 6667 C 635.624 -3.69013 0.742051 0
M  V30 6668 C 634.771 -2.50121 1.19727 0
M  V30 6669 H 637.722 -1.16611 1.07646 0
M  V30 6670 H 637.743 -3.78875 0.351249 0
M  V30 6671 H 637.255 -3.26439 2.09903 0
M  V30 6672 H 635.356 -3.71173 -0.325816 0
M  V30 6673 H 635.469 -4.60117 1.33527 0
M  V30 6674 H 633.833 -2.47128 0.616418 0
M  V30 6675 H 634.616 -2.56174 2.28538 0
M  V30 6676 N 637.061 -0.65484 -1.43351 0
M  V30 6677 C 637.991 0.0221809 -2.33489 0
M  V30 6678 C 638.972 0.810272 -1.49561 0
M  V30 6679 O 640.157 0.771426 -1.78221 0
M  V30 6680 C 637.287 0.988117 -3.32947 0
M  V30 6681 C 636.241 0.310026 -4.26876 0
M  V30 6682 C 635.567 1.38752 -5.16384 0
M  V30 6683 C 636.867 -0.798589 -5.16159 0
M  V30 6684 H 638.561 -0.730571 -2.9035 0
M  V30 6685 H 636.107 -0.352773 -1.39612 0
M  V30 6686 H 638.06 1.47067 -3.94904 0
M  V30 6687 H 636.784 1.77205 -2.74346 0
M  V30 6688 H 635.443 -0.152097 -3.66284 0
M  V30 6689 H 635.091 2.16293 -4.54121 0
M  V30 6690 H 634.791 0.939051 -5.80048 0
M  V30 6691 H 636.315 1.87141 -5.81215 0
M  V30 6692 H 637.729 -0.398126 -5.71916 0
M  V30 6693 H 636.126 -1.17163 -5.88552 0
M  V30 6694 H 637.196 -1.65588 -4.55751 0
M  V30 6695 N 638.539 1.52521 -0.396863 0
M  V30 6696 C 639.785 2.01971 0.183169 0
M  V30 6697 C 640.118 1.2825 1.45827 0
M  V30 6698 O 639.393 0.385179 1.90648 0
M  V30 6699 C 639.676 3.5736 0.443391 0
M  V30 6700 C 639.529 4.41743 -0.84753 0
M  V30 6701 C 640.848 4.22539 1.2308 0
M  V30 6702 H 637.967 0.734119 0.0650976 0
M  V30 6703 H 640.609 1.82519 -0.527918 0
M  V30 6704 H 638.759 3.74066 1.04914 0
M  V30 6705 H 640.431 4.36773 -1.48414 0
M  V30 6706 H 638.674 4.0845 -1.4612 0
M  V30 6707 H 639.345 5.48507 -0.620003 0
M  V30 6708 H 641.821 4.09857 0.718084 0
M  V30 6709 H 640.697 5.31227 1.38162 0
M  V30 6710 H 640.958 3.80675 2.24808 0
M  V30 6711 N 640.017 0.126909 1.57088 0
M  V30 6712 C 641.257 -0.53216 1.97351 0
M  V30 6713 C 641.621 -1.63342 1.00913 0
M  V30 6714 O 642.822 -2.35194 1.30144 0
M  V30 6715 C 641.093 -1.04385 3.41817 0
M  V30 6716 S 642.652 -1.71033 4.04095 0
M  V30 6717 H 639.47 -0.172724 0.689701 0
M  V30 6718 H 642.072 0.213865 1.94327 0
M  V30 6719 H 640.776 -0.231289 4.09748 0
M  V30 6720 H 640.307 -1.82496 3.48509 0
M  V30 6721 H 642.322 -2.99656 3.95501 0
M  V30 6722 N 641.495 -1.56914 -0.146875 0
M  V30 6723 C 642.428 -1.93425 -1.21087 0
M  V30 6724 C 643.406 -0.800106 -1.41552 0
M  V30 6725 O 644.59 -1.05572 -1.56162 0
M  V30 6726 C 641.717 -2.20639 -2.56975 0
M  V30 6727 C 640.763 -3.43279 -2.53104 0
M  V30 6728 S 641.596 -4.96836 -1.99786 0
M  V30 6729 C 642.752 -5.27172 -3.37403 0
M  V30 6730 H 642.985 -2.8337 -0.899378 0
M  V30 6731 H 640.518 -1.50322 -0.352494 0
M  V30 6732 H 642.476 -2.36998 -3.35175 0
M  V30 6733 H 641.137 -1.31357 -2.85314 0
M  V30 6734 H 640.33 -3.59599 -3.53136 0
M  V30 6735 H 639.932 -3.26163 -1.83012 0
M  V30 6736 H 642.224 -5.20647 -4.33513 0
M  V30 6737 H 643.167 -6.28626 -3.25937 0
M  V30 6738 H 643.575 -4.54687 -3.34544 0
M  V30 6739 N 642.974 0.416227 -1.52004 0
M  V30 6740 C 643.922 1.5272 -1.7544 0
M  V30 6741 C 644.916 1.57596 -0.621289 0
M  V30 6742 O 646.122 1.61087 -0.803172 0
M  V30 6743 H 642.497 0.507772 -0.554682 0
M  V30 6744 H 644.468 1.30136 -2.68528 0
M  V30 6745 C 643.217 2.90165 -1.91571 0
M  V30 6746 H 642.54 2.87154 -2.78178 0
M  V30 6747 H 643.98 3.67211 -2.11972 0
M  V30 6748 C 642.439 3.29947 -0.680942 0
M  V30 6749 O 642.969 4.01403 0.154527 0
M  V30 6750 N 641.175 2.8593 -0.518894 0
M  V30 6751 H 640.722 2.2795 -1.19986 0
M  V30 6752 H 640.68 3.12907 0.305985 0
M  V30 6753 N 644.452 1.42507 0.673017 0
M  V30 6754 C 645.729 1.33554 1.42908 0
M  V30 6755 C 646.109 -0.0262211 2.11084 0
M  V30 6756 O 645.457 -1.04181 2.03368 0
M  V30 6757 C 645.667 2.50498 2.43006 0
M  V30 6758 C 647.015 2.92694 3.07596 0
M  V30 6759 O 648.039 2.50401 2.53333 0
M  V30 6760 O 646.898 3.65899 4.05931 0
M  V30 6761 H 643.992 0.526785 0.637516 0
M  V30 6762 H 646.538 1.54518 0.701591 0
M  V30 6763 H 645.31 3.41272 1.9144 0
M  V30 6764 H 644.933 2.3153 3.23233 0
M  V30 6765 N 645.93 -0.909495 1.28709 0
M  V30 6766 C 646.878 -2.03381 1.12866 0
M  V30 6767 C 647.872 -1.69335 0.0468074 0
M  V30 6768 O 649.078 -1.78819 0.205891 0
M  V30 6769 H 645.453 -0.666452 0.348348 0
M  V30 6770 H 647.424 -2.13885 2.08077 0
M  V30 6771 C 646.173 -3.38092 0.811742 0
M  V30 6772 H 645.496 -3.64786 1.63619 0
M  V30 6773 H 646.936 -4.17477 0.740869 0
M  V30 6774 C 645.395 -3.33395 -0.484679 0
M  V30 6775 O 645.925 -3.72089 -1.5137 0
M  V30 6776 N 644.131 -2.86491 -0.486961 0
M  V30 6777 H 643.678 -2.55199 0.350877 0
M  V30 6778 H 643.636 -2.83731 -1.3544 0
M  V30 6779 N 647.408 -1.11026 -1.11852 0
M  V30 6780 C 648.358 -0.733836 -2.15868 0
M  V30 6781 C 649.342 0.26001 -1.58785 0
M  V30 6782 O 650.534 0.0677901 -1.7687 0
M  V30 6783 C 647.663 -0.173948 -3.42859 0
M  V30 6784 C 646.749 -1.1952 -4.0691 0
M  V30 6785 N 647.14 -2.38797 -4.45881 0
M  V30 6786 C 645.438 -1.03714 -4.33773 0
M  V30 6787 C 646.139 -3.03894 -4.96007 0
M  V30 6788 N 645.115 -2.31389 -4.91894 0
M  V30 6789 H 648.917 -1.64171 -2.43773 0
M  V30 6790 H 646.431 -0.988877 -1.28822 0
M  V30 6791 H 648.428 0.113836 -4.16745 0
M  V30 6792 H 647.088 0.728568 -3.16421 0
M  V30 6793 H 648.099 -2.76281 -4.38051 0
M  V30 6794 H 644.776 -0.190694 -4.17064 0
M  V30 6795 H 646.166 -4.05389 -5.35826 0
M  V30 6796 N 648.886 1.2938 -0.899927 0
M  V30 6797 C 649.819 2.25911 -0.322386 0
M  V30 6798 C 650.797 1.52447 0.565567 0
M  V30 6799 O 651.981 1.81404 0.512324 0
M  V30 6800 C 649.108 3.3436 0.540455 0
M  V30 6801 C 648.154 4.25579 -0.280211 0
M  V30 6802 S 648.987 5.08526 -1.67814 0
M  V30 6803 C 650.143 6.20476 -0.822224 0
M  V30 6804 H 650.376 2.7455 -1.1406 0
M  V30 6805 H 647.909 1.37606 -0.700285 0
M  V30 6806 H 649.867 3.97303 1.0325 0
M  V30 6807 H 648.528 2.84416 1.33291 0
M  V30 6808 H 647.721 5.02574 0.378915 0
M  V30 6809 H 647.323 3.67287 -0.705405 0
M  V30 6810 H 649.615 6.77485 -0.0457138 0
M  V30 6811 H 650.558 6.90606 -1.56426 0
M  V30 6812 H 650.966 5.63243 -0.37651 0
M  V30 6813 N 650.364 0.662433 1.43002 0
M  V30 6814 C 651.592 0.187615 2.06048 0
M  V30 6815 C 652.007 -1.15039 1.49705 0
M  V30 6816 O 651.364 -1.71209 0.631956 0
M  V30 6817 C 651.415 0.100498 3.6136 0
M  V30 6818 O 651.136 1.38562 4.15611 0
M  V30 6819 C 652.637 -0.399298 4.41498 0
M  V30 6820 H 649.857 0.0941675 0.664359 0
M  V30 6821 H 652.401 0.905681 1.83351 0
M  V30 6822 H 650.556 -0.568181 3.83211 0
M  V30 6823 H 650.97 1.25084 5.09366 0
M  V30 6824 H 652.444 -0.409187 5.50481 0
M  V30 6825 H 652.921 -1.43232 4.15188 0
M  V30 6826 H 653.527 0.23721 4.24638 0
M  V30 6827 N 651.842 -1.52309 0.404946 0
M  V30 6828 C 652.772 -2.29805 -0.41376 0
M  V30 6829 C 653.753 -1.3384 -1.0498 0
M  V30 6830 O 654.938 -1.62745 -1.05961 0
M  V30 6831 C 652.068 -3.11639 -1.53292 0
M  V30 6832 C 651.022 -4.15616 -1.02211 0
M  V30 6833 C 650.348 -4.8577 -2.23455 0
M  V30 6834 C 651.648 -5.2224 -0.0790725 0
M  V30 6835 H 653.342 -2.98493 0.232878 0
M  V30 6836 H 650.888 -1.43552 0.113441 0
M  V30 6837 H 652.841 -3.64618 -2.11262 0
M  V30 6838 H 651.565 -2.40712 -2.20738 0
M  V30 6839 H 650.224 -3.63641 -0.46484 0
M  V30 6840 H 649.872 -4.11376 -2.89445 0
M  V30 6841 H 649.572 -5.56058 -1.89929 0
M  V30 6842 H 651.096 -5.4156 -2.82038 0
M  V30 6843 H 652.51 -5.70485 -0.567438 0
M  V30 6844 H 650.907 -5.99867 0.167167 0
M  V30 6845 H 651.977 -4.77078 0.867447 0
M  V30 6846 N 653.32 -0.135238 -1.57019 0
M  V30 6847 C 654.25 0.805235 -2.19176 0
M  V30 6848 C 655.231 1.2656 -1.13651 0
M  V30 6849 O 656.416 1.32528 -1.4195 0
M  V30 6850 C 653.546 2.04914 -2.80406 0
M  V30 6851 C 652.5 1.72598 -3.91655 0
M  V30 6852 C 651.826 3.04154 -4.39766 0
M  V30 6853 C 653.126 0.981709 -5.12991 0
M  V30 6854 H 654.82 0.287232 -2.98019 0
M  V30 6855 H 652.366 0.136714 -1.4335 0
M  V30 6856 H 654.319 2.71178 -3.22553 0
M  V30 6857 H 653.043 2.59067 -1.98877 0
M  V30 6858 H 651.702 1.08717 -3.50109 0
M  V30 6859 H 651.35 3.56274 -3.55075 0
M  V30 6860 H 651.05 2.83299 -5.14796 0
M  V30 6861 H 652.574 3.71509 -4.84576 0
M  V30 6862 H 653.988 1.5462 -5.52056 0
M  V30 6863 H 652.385 0.873533 -5.93708 0
M  V30 6864 H 653.455 -0.0286887 -4.84892 0
M  V30 6865 N 654.798 1.5699 0.138552 0
M  V30 6866 C 656.046 1.83446 0.848053 0
M  V30 6867 C 656.367 0.71744 1.81322 0
M  V30 6868 O 655.637 -0.260228 1.94164 0
M  V30 6869 H 654.217 0.676792 0.316166 0
M  V30 6870 H 656.879 1.94462 0.130538 0
M  V30 6871 H 655.975 2.78677 1.40518 0
M  V30 6872 N 656.276 -0.40816 1.52223 0
M  V30 6873 C 657.525 -1.15212 1.65557 0
M  V30 6874 C 657.838 -1.9163 0.392096 0
M  V30 6875 O 659.044 -2.68458 0.405256 0
M  V30 6876 C 657.5 -2.09691 2.92502 0
M  V30 6877 C 657.108 -1.38785 4.25961 0
M  V30 6878 C 658.852 -2.8434 3.152 0
M  V30 6879 C 656.759 -2.31919 5.44029 0
M  V30 6880 H 655.689 -0.433776 0.616729 0
M  V30 6881 H 658.34 -0.4165 1.78711 0
M  V30 6882 H 656.722 -2.8681 2.7305 0
M  V30 6883 H 657.896 -0.670248 4.55899 0
M  V30 6884 H 656.211 -0.761741 4.09373 0
M  V30 6885 H 658.808 -3.54166 4.00587 0
M  V30 6886 H 659.151 -3.47344 2.29473 0
M  V30 6887 H 659.684 -2.14321 3.35129 0
M  V30 6888 H 656.423 -1.7356 6.32105 0
M  V30 6889 H 655.943 -3.0165 5.18428 0
M  V30 6890 H 657.622 -2.92424 5.77146 0
M  V30 6891 N 657.755 -1.42862 -0.66545 0
M  V30 6892 C 659.004 -1.43119 -1.42126 0
M  V30 6893 C 659.317 -0.0545297 -1.95524 0
M  V30 6894 O 660.523 0.0654747 -2.71421 0
M  V30 6895 C 658.979 -2.51797 -2.5715 0
M  V30 6896 C 658.587 -3.95514 -2.10411 0
M  V30 6897 C 660.331 -2.61233 -3.346 0
M  V30 6898 C 658.238 -4.95682 -3.22573 0
M  V30 6899 H 657.168 -0.532349 -0.533966 0
M  V30 6900 H 659.819 -1.68806 -0.719506 0
M  V30 6901 H 658.201 -2.19292 -3.29738 0
M  V30 6902 H 659.375 -4.3742 -1.44915 0
M  V30 6903 H 657.69 -3.90012 -1.45874 0
M  V30 6904 H 660.287 -3.33248 -4.18151 0
M  V30 6905 H 660.63 -1.65896 -3.81817 0
M  V30 6906 H 661.163 -2.9298 -2.69087 0
M  V30 6907 H 657.902 -5.92529 -2.80338 0
M  V30 6908 H 657.422 -4.58399 -3.86821 0
M  V30 6909 H 659.101 -5.17828 -3.87896 0
M  V30 6910 N 659.233 0.902656 -1.29189 0
M  V30 6911 C 660.458 1.69167 -1.19989 0
M  V30 6912 C 660.883 1.86607 0.236495 0
M  V30 6913 O 660.241 1.38425 1.17082 0
M  V30 6914 C 660.289 3.05532 -1.91527 0
M  V30 6915 O 659.393 3.93621 -1.2303 0
M  V30 6916 H 658.734 0.517584 -0.415936 0
M  V30 6917 H 661.264 1.12785 -1.70706 0
M  V30 6918 H 661.274 3.55693 -1.99866 0
M  V30 6919 H 659.949 2.92156 -2.96003 0
M  V30 6920 H 658.526 3.52055 -1.22928 0
M  V30 6921 N 660.711 1.11618 1.11262 0
M  V30 6922 C 661.957 0.877377 1.83504 0
M  V30 6923 C 662.312 -0.590606 1.83111 0
M  V30 6924 O 661.605 -1.43057 1.27456 0
M  V30 6925 C 661.799 1.37529 3.2988 0
M  V30 6926 C 661.628 2.89014 3.4453 0
M  V30 6927 C 660.398 3.57157 3.57445 0
M  V30 6928 C 662.596 3.8706 3.38658 0
M  V30 6929 N 660.578 4.96842 3.60585 0
M  V30 6930 C 661.949 5.12825 3.4844 0
M  V30 6931 C 664.004 3.79593 3.22201 0
M  V30 6932 C 662.707 6.32002 3.43462 0
M  V30 6933 C 664.733 4.98282 3.18542 0
M  V30 6934 C 664.095 6.22901 3.28897 0
M  V30 6935 H 660.194 0.37422 0.686646 0
M  V30 6936 H 662.778 1.42087 1.33114 0
M  V30 6937 H 660.949 0.85895 3.78783 0
M  V30 6938 H 662.681 1.07944 3.90039 0
M  V30 6939 H 659.436 3.07628 3.60086 0
M  V30 6940 H 659.86 5.69674 3.65788 0
M  V30 6941 H 664.502 2.84149 3.1308 0
M  V30 6942 H 662.22 7.27721 3.51352 0
M  V30 6943 H 665.806 4.94226 3.06972 0
M  V30 6944 H 664.686 7.13202 3.26056 0
M  V30 6945 N 662.189 -1.289 0.906776 0
M  V30 6946 C 663.437 -1.94883 0.535266 0
M  V30 6947 C 663.758 -1.71784 -0.922791 0
M  V30 6948 O 663.028 -1.05359 -1.65156 0
M  V30 6949 H 661.608 -0.721109 0.194962 0
M  V30 6950 H 664.27 -1.57018 1.15461 0
M  V30 6951 H 663.366 -3.03591 0.723821 0
M  V30 6952 N 663.667 -0.670007 -1.42649 0
M  V30 6953 C 664.913 -0.190568 -2.01903 0
M  V30 6954 C 665.246 1.19817 -1.52832 0
M  V30 6955 O 664.521 1.80342 -0.728485 0
M  V30 6956 C 664.804 -0.21991 -3.59428 0
M  V30 6957 C 664.657 -1.64376 -4.18689 0
M  V30 6958 C 665.976 0.434519 -4.3795 0
M  V30 6959 H 663.095 -0.0707219 -0.733599 0
M  V30 6960 H 665.737 -0.853883 -1.69732 0
M  V30 6961 H 663.887 0.344894 -3.86966 0
M  V30 6962 H 665.559 -2.26044 -4.02122 0
M  V30 6963 H 663.802 -2.18591 -3.747 0
M  V30 6964 H 664.473 -1.61601 -5.27815 0
M  V30 6965 H 666.949 -0.0462156 -4.16074 0
M  V30 6966 H 665.825 0.38333 -5.4756 0
M  V30 6967 H 666.086 1.51135 -4.15464 0
M  V30 6968 N 665.145 1.52092 -0.413018 0
M  V30 6969 C 666.393 2.01456 0.161178 0
M  V30 6970 C 666.714 1.30034 1.45314 0
M  V30 6971 O 665.984 0.427435 1.9118 0
M  V30 6972 H 664.564 0.744376 0.0625526 0
M  V30 6973 H 667.226 1.86974 -0.550151 0
M  V30 6974 H 666.322 3.1008 0.354517 0
M  V30 6975 N 666.623 0.143563 1.56945 0
M  V30 6976 C 667.863 -0.511198 1.97904 0
M  V30 6977 C 668.227 -1.62262 1.0264 0
M  V30 6978 O 669.428 -2.338 1.32631 0
M  V30 6979 C 667.699 -1.00753 3.42905 0
M  V30 6980 S 669.258 -1.66737 4.05887 0
M  V30 6981 H 666.076 -0.165399 0.691494 0
M  V30 6982 H 668.678 0.234464 1.94089 0
M  V30 6983 H 667.382 -0.187817 4.0997 0
M  V30 6984 H 666.913 -1.7879 3.50425 0
M  V30 6985 H 668.928 -2.95444 3.98657 0
M  V30 6986 N 668.101 -1.57061 -0.130224 0
M  V30 6987 C 669.349 -1.83893 -0.838313 0
M  V30 6988 C 669.67 -0.727046 -1.80939 0
M  V30 6989 O 668.94 0.249927 -1.94299 0
M  V30 6990 H 667.52 -0.67846 -0.312573 0
M  V30 6991 H 670.182 -1.94529 -0.120224 0
M  V30 6992 H 669.278 -2.79419 -1.39038 0
M  V30 6993 N 669.579 0.400081 -1.52437 0
M  V30 6994 C 670.489 1.51253 -1.79331 0
M  V30 6995 C 671.505 1.60188 -0.679396 0
M  V30 6996 O 672.681 1.76733 -0.965791 0
M  V30 6997 C 669.746 2.869 -1.94652 0
M  V30 6998 C 668.807 2.87777 -3.18564 0
M  V30 6999 C 668.04 4.16954 -3.33145 0
M  V30 7000 O 668.263 5.11329 -2.52783 0
M  V30 7001 O 667.197 4.2487 -4.26343 0
M  V30 7002 H 671.023 1.31461 -2.73773 0
M  V30 7003 H 668.608 0.586834 -1.37392 0
M  V30 7004 H 670.49 3.67336 -2.065 0
M  V30 7005 H 669.165 3.06741 -1.034 0
M  V30 7006 H 668.072 2.06162 -3.12167 0
M  V30 7007 H 669.405 2.72886 -4.09627 0
M  V30 7008 N 671.057 1.43213 0.657864 0
M  V30 7009 C 672.004 1.48011 1.77092 0
M  V30 7010 C 672.974 0.330291 1.62783 0
M  V30 7011 O 674.159 0.536787 1.83094 0
M  V30 7012 C 671.299 1.40461 3.15222 0
M  V30 7013 C 670.412 2.65612 3.40697 0
M  V30 7014 C 669.547 2.50083 4.68649 0
M  V30 7015 C 668.586 3.70525 4.87214 0
M  V30 7016 N 667.723 3.53835 6.0642 0
M  V30 7017 H 672.563 2.43121 1.72326 0
M  V30 7018 H 670.1 1.20687 0.841013 0
M  V30 7019 H 672.058 1.34079 3.95068 0
M  V30 7020 H 670.688 0.489359 3.19069 0
M  V30 7021 H 669.74 2.82292 2.54982 0
M  V30 7022 H 671.052 3.5509 3.50303 0
M  V30 7023 H 670.206 2.41383 5.56614 0
M  V30 7024 H 668.945 1.58121 4.61356 0
M  V30 7025 H 667.95 3.79639 3.97686 0
M  V30 7026 H 669.175 4.63489 4.96341 0
M  V30 7027 H 667.121 2.64604 6.00267 0
M  V30 7028 H 667.038 4.36912 6.16963 0
M  V30 7029 H 668.306 3.48978 6.97019 0
M  V30 7030 N 672.536 -0.895792 1.29666 0
M  V30 7031 C 673.813 -1.62723 1.08538 0
M  V30 7032 C 674.193 -2.07848 -0.369119 0
M  V30 7033 O 673.541 -1.8372 -1.35864 0
M  V30 7034 C 673.751 -2.80505 2.07648 0
M  V30 7035 C 675.099 -3.51098 2.3878 0
M  V30 7036 O 676.123 -2.90679 2.05874 0
M  V30 7037 O 674.982 -4.60028 2.9502 0
M  V30 7038 H 672.076 -0.714692 0.416106 0
M  V30 7039 H 674.622 -0.943517 1.41053 0
M  V30 7040 H 673.394 -2.44386 3.05599 0
M  V30 7041 H 673.017 -3.5658 1.75887 0
M  V30 7042 N 674.014 -1.12206 -1.10668 0
M  V30 7043 C 675.26 -0.877172 -1.82848 0
M  V30 7044 C 675.593 0.595571 -1.84842 0
M  V30 7045 O 674.868 1.44013 -1.30731 0
M  V30 7046 C 675.151 -1.44957 -3.29635 0
M  V30 7047 C 675.004 -2.99051 -3.35989 0
M  V30 7048 C 676.323 -1.10714 -4.25946 0
M  V30 7049 H 673.442 -0.320103 -0.663854 0
M  V30 7050 H 676.084 -1.38827 -1.2972 0
M  V30 7051 H 674.234 -1.01488 -3.7501 0
M  V30 7052 H 675.906 -3.51182 -2.99113 0
M  V30 7053 H 674.149 -3.34705 -2.75962 0
M  V30 7054 H 674.82 -3.34194 -4.39339 0
M  V30 7055 H 677.296 -1.48254 -3.88793 0
M  V30 7056 H 676.172 -1.5343 -5.2702 0
M  V30 7057 H 676.433 -0.019 -4.42096 0
M  V30 7058 N 675.492 1.28418 -0.913599 0
M  V30 7059 C 676.903 1.77024 -0.593237 0
M  V30 7060 C 677.254 1.74779 0.891441 0
M  V30 7061 O 676.379 1.34237 1.69733 0
M  V30 7062 C 676.974 3.21456 -1.07011 0
M  V30 7063 C 675.533 3.67786 -0.800664 0
M  V30 7064 C 674.68 2.48185 -1.23691 0
M  V30 7065 H 677.631 1.14883 -1.09487 0
M  V30 7066 H 677.652 3.78269 -0.411481 0
M  V30 7067 H 677.164 3.23058 -2.1507 0
M  V30 7068 H 675.265 3.71644 0.266725 0
M  V30 7069 H 675.378 4.57934 -1.4083 0
M  V30 7070 H 673.742 2.46116 -0.655655 0
M  V30 7071 H 674.525 2.52506 -2.32585 0
M  V30 7072 N 676.97 0.677563 1.42291 0
M  V30 7073 C 678.218 0.200578 2.01102 0
M  V30 7074 C 678.539 -1.19803 1.53858 0
M  V30 7075 O 677.809 -1.80496 0.761439 0
M  V30 7076 H 676.389 0.0711634 0.743603 0
M  V30 7077 H 679.051 0.874691 1.7417 0
M  V30 7078 H 678.147 0.204 3.11433 0
M  V30 7079 N 678.448 -1.51871 0.421078 0
M  V30 7080 C 679.694 -2.02237 -0.151014 0
M  V30 7081 C 680.027 -1.30554 -1.43768 0
M  V30 7082 O 679.302 -0.41546 -1.90011 0
M  V30 7083 C 679.585 -3.5802 -0.386482 0
M  V30 7084 C 679.438 -4.40339 0.9177 0
M  V30 7085 C 680.757 -4.24444 -1.16342 0
M  V30 7086 H 677.876 -0.735062 -0.0534102 0
M  V30 7087 H 680.518 -1.81656 0.556888 0
M  V30 7088 H 678.668 -3.75688 -0.989494 0
M  V30 7089 H 680.34 -4.34357 1.55344 0
M  V30 7090 H 678.583 -4.06073 1.526 0
M  V30 7091 H 679.254 -5.47451 0.707187 0
M  V30 7092 H 681.73 -4.10948 -0.652788 0
M  V30 7093 H 680.606 -5.33358 -1.29693 0
M  V30 7094 H 680.867 -3.84204 -2.18724 0
M  V30 7095 N 679.926 -0.151884 -1.56866 0
M  V30 7096 C 681.156 0.504081 -2.00356 0
M  V30 7097 C 681.564 1.58639 -1.03103 0
M  V30 7098 O 680.907 1.83688 -0.0207931 0
M  V30 7099 C 680.969 1.15975 -3.40279 0
M  V30 7100 C 680.633 0.221453 -4.56463 0
M  V30 7101 C 681.63 -0.552766 -5.16953 0
M  V30 7102 C 679.315 0.122936 -5.0215 0
M  V30 7103 C 681.309 -1.4129 -6.21543 0
M  V30 7104 C 678.996 -0.740801 -6.06593 0
M  V30 7105 C 679.994 -1.50732 -6.6616 0
M  V30 7106 O 679.682 -2.35666 -7.68581 0
M  V30 7107 H 679.414 0.135279 -0.662326 0
M  V30 7108 H 681.968 -0.244916 -2.03935 0
M  V30 7109 H 680.198 1.95649 -3.33554 0
M  V30 7110 H 681.887 1.71594 -3.67846 0
M  V30 7111 H 682.653 -0.486716 -4.82552 0
M  V30 7112 H 678.532 0.70931 -4.5551 0
M  V30 7113 H 682.076 -2.01166 -6.67966 0
M  V30 7114 H 677.973 -0.808125 -6.40421 0
M  V30 7115 H 678.741 -2.28967 -7.85822 0
M  V30 7116 N 681.404 1.57128 0.121893 0
M  V30 7117 C 682.632 1.88883 0.844451 0
M  V30 7118 C 683.047 0.742824 1.73573 0
M  V30 7119 O 682.404 -0.286475 1.80238 0
M  V30 7120 C 682.455 3.20076 1.68029 0
M  V30 7121 O 682.176 4.30264 0.824898 0
M  V30 7122 C 683.677 3.65515 2.50826 0
M  V30 7123 H 680.897 0.62549 0.242907 0
M  V30 7124 H 683.441 2.04219 0.107151 0
M  V30 7125 H 681.596 3.06418 2.37038 0
M  V30 7126 H 682.01 5.05439 1.40113 0
M  V30 7127 H 683.484 4.60081 3.05008 0
M  V30 7128 H 683.961 2.92029 3.28048 0
M  V30 7129 H 684.567 3.81952 1.87064 0
M  V30 7130 N 682.882 -0.391992 1.52647 0
M  V30 7131 C 683.829 -1.47866 1.77213 0
M  V30 7132 C 684.799 -1.54286 0.615223 0
M  V30 7133 O 685.984 -1.7059 0.854622 0
M  V30 7134 C 683.124 -2.85129 1.94411 0
M  V30 7135 C 682.237 -2.87883 3.22098 0
M  V30 7136 C 681.372 -4.16553 3.29631 0
M  V30 7137 C 680.411 -4.13348 4.51453 0
M  V30 7138 N 679.548 -5.33619 4.56284 0
M  V30 7139 H 684.388 -1.26219 2.6995 0
M  V30 7140 H 681.925 -0.612367 1.33748 0
M  V30 7141 H 683.883 -3.64833 2.02367 0
M  V30 7142 H 682.513 -3.05232 1.05038 0
M  V30 7143 H 681.565 -2.00567 3.23229 0
M  V30 7144 H 682.877 -2.81382 4.11856 0
M  V30 7145 H 682.031 -5.0466 3.36753 0
M  V30 7146 H 680.77 -4.25773 2.37842 0
M  V30 7147 H 679.775 -3.23629 4.44459 0
M  V30 7148 H 681 -4.05754 5.44555 0
M  V30 7149 H 678.946 -5.43474 3.67385 0
M  V30 7150 H 678.863 -5.29182 5.3991 0
M  V30 7151 H 680.131 -6.23632 4.67657 0
M  V30 7152 N 684.36 -1.4356 -0.65026 0
M  V30 7153 C 685.606 -1.45549 -1.41221 0
M  V30 7154 C 685.939 -0.0805472 -1.94033 0
M  V30 7155 O 685.214 0.899043 -1.72475 0
M  V30 7156 C 685.497 -2.50028 -2.59148 0
M  V30 7157 C 685.35 -3.96808 -2.1181 0
M  V30 7158 C 686.669 -2.51212 -3.61359 0
M  V30 7159 H 683.788 -0.529967 -0.512156 0
M  V30 7160 H 686.43 -1.75127 -0.736933 0
M  V30 7161 H 684.58 -2.24937 -3.16758 0
M  V30 7162 H 686.252 -4.32966 -1.59178 0
M  V30 7163 H 684.495 -4.09498 -1.43156 0
M  V30 7164 H 685.166 -4.6553 -2.96625 0
M  V30 7165 H 687.642 -2.73583 -3.13515 0
M  V30 7166 H 686.518 -3.26252 -4.41419 0
M  V30 7167 H 686.779 -1.54701 -4.1415 0
M  V30 7168 N 685.838 0.888903 -1.30139 0
M  V30 7169 C 687.066 1.67358 -1.21651 0
M  V30 7170 C 687.481 1.87499 0.221246 0
M  V30 7171 O 686.838 1.41969 1.14677 0
M  V30 7172 C 686.889 3.05213 -1.93719 0
M  V30 7173 O 686.61 2.85984 -3.31881 0
M  V30 7174 C 688.111 3.9964 -1.9184 0
M  V30 7175 H 685.331 0.522365 -0.42116 0
M  V30 7176 H 687.875 1.11086 -1.71698 0
M  V30 7177 H 686.03 3.5823 -1.4748 0
M  V30 7178 H 686.444 3.73411 -3.68327 0
M  V30 7179 H 687.918 4.93749 -2.46811 0
M  V30 7180 H 688.395 4.29955 -0.896409 0
M  V30 7181 H 689.001 3.52558 -2.37872 0
M  V30 7182 N 687.317 1.12792 1.10072 0
M  V30 7183 C 688.265 0.794523 2.18609 0
M  V30 7184 C 689.259 -0.220271 1.67962 0
M  V30 7185 O 690.465 -0.0780938 1.79831 0
M  V30 7186 H 686.84 0.239123 0.712969 0
M  V30 7187 H 688.811 1.71823 2.43966 0
M  V30 7188 C 687.56 0.269548 3.46654 0
M  V30 7189 H 686.883 1.04171 3.8599 0
M  V30 7190 H 688.323 0.0746242 4.23934 0
M  V30 7191 C 686.782 -1.00333 3.21613 0
M  V30 7192 O 687.312 -2.08042 3.4363 0
M  V30 7193 N 685.518 -0.931763 2.75257 0
M  V30 7194 H 685.065 -0.0551197 2.57541 0
M  V30 7195 H 685.023 -1.78405 2.58881 0
M  V30 7196 N 688.795 -1.27931 0.920396 0
M  V30 7197 C 690.025 -1.98516 0.572256 0
M  V30 7198 C 690.433 -1.68912 -0.852375 0
M  V30 7199 O 689.776 -0.94203 -1.57707 0
M  V30 7200 C 689.838 -3.5243 0.709485 0
M  V30 7201 C 689.502 -4.0564 2.10489 0
M  V30 7202 C 690.499 -4.1897 3.07831 0
M  V30 7203 C 688.184 -4.40168 2.41986 0
M  V30 7204 C 690.178 -4.66093 4.34783 0
M  V30 7205 C 687.865 -4.86983 3.69176 0
M  V30 7206 C 688.863 -4.99903 4.65388 0
M  V30 7207 O 688.551 -5.45694 5.90316 0
M  V30 7208 H 688.283 -0.64047 0.216274 0
M  V30 7209 H 690.837 -1.6393 1.23758 0
M  V30 7210 H 689.067 -3.86698 -0.0129263 0
M  V30 7211 H 690.756 -4.04233 0.367474 0
M  V30 7212 H 691.522 -3.92562 2.84816 0
M  V30 7213 H 687.401 -4.29358 1.67846 0
M  V30 7214 H 690.945 -4.76092 5.09884 0
M  V30 7215 H 686.842 -5.12832 3.92012 0
M  V30 7216 H 687.61 -5.63965 5.932 0
M  V30 7217 N 690.273 -0.685099 -1.4193 0
M  V30 7218 C 691.203 -0.0273506 -2.33484 0
M  V30 7219 C 692.184 0.778366 -1.51246 0
M  V30 7220 O 693.369 0.733449 -1.79817 0
M  V30 7221 C 690.499 0.917272 -3.34968 0
M  V30 7222 C 689.453 0.21941 -4.27437 0
M  V30 7223 C 688.779 1.27768 -5.1921 0
M  V30 7224 C 690.079 -0.907894 -5.14349 0
M  V30 7225 H 691.773 -0.791994 -2.88735 0
M  V30 7226 H 689.319 -0.382308 -1.38832 0
M  V30 7227 H 691.272 1.38657 -3.97935 0
M  V30 7228 H 689.996 1.71346 -2.78043 0
M  V30 7229 H 688.655 -0.229757 -3.65879 0
M  V30 7230 H 688.303 2.06612 -4.58607 0
M  V30 7231 H 688.003 0.815803 -5.81909 0
M  V30 7232 H 689.527 1.7477 -5.85054 0
M  V30 7233 H 690.941 -0.519348 -5.70943 0
M  V30 7234 H 689.338 -1.2962 -5.85934 0
M  V30 7235 H 690.408 -1.75218 -4.52136 0
M  V30 7236 N 691.751 1.51645 -0.429126 0
M  V30 7237 C 692.999 2.01616 0.139802 0
M  V30 7238 C 693.32 1.31568 1.43927 0
M  V30 7239 O 692.59 0.447688 1.90716 0
M  V30 7240 H 691.17 0.744998 0.054654 0
M  V30 7241 H 693.832 1.8638 -0.569952 0
M  V30 7242 H 692.928 3.10439 0.321609 0
M  V30 7243 N 693.229 0.160201 1.56784 0
M  V30 7244 C 694.475 -0.481855 1.9761 0
M  V30 7245 C 694.83 -1.61605 1.04411 0
M  V30 7246 O 694.123 -1.91426 0.0816402 0
M  V30 7247 C 694.317 -1.02259 3.42459 0
M  V30 7248 C 694.146 0.0576781 4.49663 0
M  V30 7249 C 692.916 0.503585 5.02784 0
M  V30 7250 C 695.114 0.854013 5.0716 0
M  V30 7251 N 693.096 1.56532 5.93608 0
M  V30 7252 C 694.467 1.76593 5.94319 0
M  V30 7253 C 696.522 0.900333 4.89692 0
M  V30 7254 C 695.225 2.72023 6.6588 0
M  V30 7255 C 697.251 1.84252 5.61965 0
M  V30 7256 C 696.613 2.74194 6.48843 0
M  V30 7257 H 692.712 -0.144748 0.768487 0
M  V30 7258 H 695.296 0.257853 1.92985 0
M  V30 7259 H 693.467 -1.73186 3.47651 0
M  V30 7260 H 695.199 -1.63235 3.70319 0
M  V30 7261 H 691.954 0.103361 4.73487 0
M  V30 7262 H 692.378 2.09634 6.43726 0
M  V30 7263 H 697.02 0.219023 4.22232 0
M  V30 7264 H 694.738 3.41147 7.3256 0
M  V30 7265 H 698.324 1.88433 5.5044 0
M  V30 7266 H 697.204 3.45912 7.03786 0
M  V30 7267 N 694.707 -1.5719 -0.113559 0
M  V30 7268 C 695.956 -1.84325 -0.818984 0
M  V30 7269 C 696.269 -0.746685 -1.80787 0
M  V30 7270 O 697.475 -0.904596 -2.55987 0
M  V30 7271 C 695.931 -3.26818 -1.50724 0
M  V30 7272 C 695.539 -4.44498 -0.559065 0
M  V30 7273 C 697.283 -3.63196 -2.19748 0
M  V30 7274 C 695.19 -5.7802 -1.25086 0
M  V30 7275 H 694.12 -0.687507 -0.309596 0
M  V30 7276 H 696.771 -1.8336 -0.0717621 0
M  V30 7277 H 695.153 -3.22269 -2.30128 0
M  V30 7278 H 696.327 -4.60356 0.202146 0
M  V30 7279 H 694.642 -4.16393 0.024495 0
M  V30 7280 H 697.239 -4.60226 -2.72206 0
M  V30 7281 H 697.582 -2.90899 -2.97798 0
M  V30 7282 H 698.115 -3.69553 -1.47226 0
M  V30 7283 H 694.854 -6.53501 -0.511539 0
M  V30 7284 H 694.374 -5.66038 -1.98395 0
M  V30 7285 H 696.053 -6.2196 -1.78253 0
M  V30 7286 N 696.185 0.383891 -1.52853 0
M  V30 7287 C 697.601 0.724316 -1.42218 0
M  V30 7288 C 697.801 1.93943 -0.546654 0
M  V30 7289 O 696.857 2.5249 -0.0220562 0
M  V30 7290 C 698.17 0.954635 -2.85144 0
M  V30 7291 C 699.718 1.05579 -2.94656 0
M  V30 7292 C 700.193 1.3187 -4.38605 0
M  V30 7293 N 701.684 1.38681 -4.41952 0
M  V30 7294 C 702.419 1.60699 -5.50421 0
M  V30 7295 N 701.915 1.80154 -6.68967 0
M  V30 7296 N 703.708 1.6292 -5.37972 0
M  V30 7297 H 695.859 -0.4156 -2.08294 0
M  V30 7298 H 698.122 -0.123776 -0.939885 0
M  V30 7299 H 697.828 0.133829 -3.51445 0
M  V30 7300 H 697.702 1.86788 -3.27704 0
M  V30 7301 H 700.089 1.86716 -2.2852 0
M  V30 7302 H 700.17 0.120338 -2.55517 0
M  V30 7303 H 699.814 0.512416 -5.05309 0
M  V30 7304 H 699.744 2.26708 -4.75301 0
M  V30 7305 H 702.235 1.25334 -3.56511 0
M  V30 7306 H 702.548 1.96476 -7.47407 0
M  V30 7307 H 700.893 1.77368 -6.71986 0
M  V30 7308 H 704.084 1.47276 -4.44328 0
M  V30 7309 H 704.257 1.79739 -6.22574 0
M  V30 7310 N 697.663 1.43903 0.642637 0
M  V30 7311 C 698.94 1.36556 1.40043 0
M  V30 7312 C 699.32 0.0185588 2.11092 0
M  V30 7313 O 698.668 -0.998438 2.05532 0
M  V30 7314 C 698.878 2.55596 2.37638 0
M  V30 7315 C 700.226 2.99153 3.01318 0
M  V30 7316 O 701.25 2.55719 2.47965 0
M  V30 7317 O 700.109 3.74427 3.98078 0
M  V30 7318 H 697.203 0.540189 0.626198 0
M  V30 7319 H 699.749 1.55971 0.668657 0
M  V30 7320 H 698.521 3.45256 1.84158 0
M  V30 7321 H 698.144 2.38334 3.18249 0
M  V30 7322 N 699.141 -0.881989 1.30609 0
M  V30 7323 C 700.089 -2.00942 1.17155 0
M  V30 7324 C 701.083 -1.69198 0.0827154 0
M  V30 7325 O 702.289 -1.78342 0.243775 0
M  V30 7326 H 698.664 -0.658913 0.362406 0
M  V30 7327 H 700.635 -2.09423 2.12567 0
M  V30 7328 C 699.384 -3.36294 0.883273 0
M  V30 7329 H 698.707 -3.61233 1.7132 0
M  V30 7330 H 700.147 -4.15812 0.829255 0
M  V30 7331 C 698.606 -3.34348 -0.413851 0
M  V30 7332 O 699.136 -3.75216 -1.43444 0
M  V30 7333 N 697.342 -2.87459 -0.426082 0
M  V30 7334 H 696.889 -2.54397 0.40493 0
M  V30 7335 H 696.847 -2.8654 -1.29391 0
M  V30 7336 N 700.619 -1.13374 -1.09472 0
M  V30 7337 C 701.552 -0.754354 -2.15371 0
M  V30 7338 C 702.53 0.259205 -1.60521 0
M  V30 7339 O 703.714 0.150819 -1.87896 0
M  V30 7340 C 700.841 -0.118197 -3.38494 0
M  V30 7341 C 699.887 -1.10017 -4.12066 0
M  V30 7342 S 700.72 -2.63242 -4.6633 0
M  V30 7343 C 701.876 -2.00984 -5.92753 0
M  V30 7344 H 702.109 -1.65135 -2.4722 0
M  V30 7345 H 699.642 -0.953838 -1.21414 0
M  V30 7346 H 701.6 0.242447 -4.09783 0
M  V30 7347 H 700.261 0.756065 -3.04865 0
M  V30 7348 H 699.454 -0.60287 -5.00381 0
M  V30 7349 H 699.056 -1.40426 -3.46636 0
M  V30 7350 H 701.348 -1.35863 -6.63738 0
M  V30 7351 H 702.291 -2.8738 -6.47162 0
M  V30 7352 H 702.699 -1.46161 -5.4525 0
M  V30 7353 N 702.098 1.27442 -0.927168 0
M  V30 7354 C 703.048 2.24519 -0.396878 0
M  V30 7355 C 704.032 1.52981 0.498555 0
M  V30 7356 O 705.224 1.7378 0.336087 0
M  V30 7357 C 702.353 3.41514 0.349694 0
M  V30 7358 C 701.439 4.20357 -0.562226 0
M  V30 7359 N 701.83 4.7702 -1.68182 0
M  V30 7360 C 700.128 4.44503 -0.365135 0
M  V30 7361 C 700.829 5.36467 -2.24895 0
M  V30 7362 N 699.805 5.21371 -1.5386 0
M  V30 7363 H 703.607 2.65911 -1.25173 0
M  V30 7364 H 701.121 1.42366 -0.78138 0
M  V30 7365 H 703.118 4.10161 0.746536 0
M  V30 7366 H 701.778 3.01653 1.20148 0
M  V30 7367 H 702.789 4.74985 -2.06421 0
M  V30 7368 H 699.466 4.15111 0.446037 0
M  V30 7369 H 700.856 5.91264 -3.1915 0
M  V30 7370 N 703.576 0.692616 1.41565 0
M  V30 7371 C 704.506 0.0397325 2.33466 0
M  V30 7372 C 705.487 -0.770334 1.51657 0
M  V30 7373 O 706.672 -0.723903 1.80203 0
M  V30 7374 C 703.802 -0.899495 3.3545 0
M  V30 7375 C 702.756 -0.196738 4.27548 0
M  V30 7376 C 702.082 -1.25012 5.19881 0
M  V30 7377 C 703.382 0.935158 5.1386 0
M  V30 7378 H 705.076 0.807296 2.88311 0
M  V30 7379 H 702.622 0.389665 1.38628 0
M  V30 7380 H 704.575 -1.36545 3.98665 0
M  V30 7381 H 703.299 -1.69869 2.78948 0
M  V30 7382 H 701.958 0.249158 3.65752 0
M  V30 7383 H 701.606 -2.04177 4.59696 0
M  V30 7384 H 701.306 -0.784931 5.82334 0
M  V30 7385 H 702.83 -1.71665 5.85972 0
M  V30 7386 H 704.244 0.549619 5.70659 0
M  V30 7387 H 702.641 1.32726 5.85238 0
M  V30 7388 H 703.711 1.77613 4.512 0
M  V30 7389 O 705.093 -1.50756 0.579208 0
M  V30 7390 H 705.784 -1.93523 0.0829038 0
M  V30 END ATOM
M  V30 BEGIN BOND
M  V30 END BOND
M  V30 END CTAB
M  END
$$$$
