drugbank_drug|DB04985 PCK3145 (PSP-94 [31-45]) Sequence
 OpenBabel12092119133D

231231  0  0  0  0  0  0  0  0999 V2000
   -0.9080    1.9825   -0.1171 H   0  0  0  0  0 15  0  0  0  0  0  0
    0.0000    1.5760    0.0000 N   0  0  0  0  0 15  0  0  0  0  0  0
    1.4110    1.7863    0.5428 C   0  0  0  0  0 15  0  0  0  0  0  0
    1.7620    0.9074    1.7396 C   0  0  0  0  0 15  0  0  0  0  0  0
    0.8870    0.1099    2.1612 O   0  0  0  0  0 15  0  0  0  0  0  0
    1.4820    3.2397    0.9915 C   0  0  0  0  0 15  0  0  0  0  0  0
    0.0410    3.4610    1.4796 C   0  0  0  0  0 15  0  0  0  0  0  0
   -0.8120    2.7393    0.4308 C   0  0  0  0  0 15  0  0  0  0  0  0
    2.1390    1.5708   -0.2262 H   0  0  0  0  0 15  0  0  0  0  0  0
    2.1600    3.3208    1.8575 H   0  0  0  0  0 15  0  0  0  0  0  0
    1.6720    3.8791    0.1203 H   0  0  0  0  0 15  0  0  0  0  0  0
   -0.2270    2.8737    2.3717 H   0  0  0  0  0 15  0  0  0  0  0  0
   -0.1140    4.5478    1.5071 H   0  0  0  0  0 15  0  0  0  0  0  0
   -1.7500    2.3855    0.8925 H   0  0  0  0  0 15  0  0  0  0  0  0
   -0.9670    3.4058   -0.4314 H   0  0  0  0  0 15  0  0  0  0  0  0
    1.4781   -0.2728    1.5522 N   0  0  0  0  0 15  0  0  0  0  0  0
    2.7261   -1.0023    1.7549 C   0  0  0  0  0 15  0  0  0  0  0  0
    3.0471   -1.8681    0.5592 C   0  0  0  0  0 15  0  0  0  0  0  0
    2.3171   -1.9121   -0.4259 O   0  0  0  0  0 15  0  0  0  0  0  0
    0.8971   -0.3731    0.6472 H   0  0  0  0  0 15  0  0  0  0  0  0
    3.5591   -0.2969    1.9262 H   0  0  0  0  0 15  0  0  0  0  0  0
    2.6551   -1.6391    2.6559 H   0  0  0  0  0 15  0  0  0  0  0  0
    2.9562   -1.4816   -0.5373 N   0  0  0  0  0 15  0  0  0  0  0  0
    4.2332   -1.4629   -1.2984 C   0  0  0  0  0 15  0  0  0  0  0  0
    4.6132   -0.1706   -2.1041 C   0  0  0  0  0 15  0  0  0  0  0  0
    3.9612    0.8477   -2.1219 O   0  0  0  0  0 15  0  0  0  0  0  0
    4.1712   -2.7205   -2.1860 C   0  0  0  0  0 15  0  0  0  0  0  0
    5.5192   -3.2009   -2.7898 C   0  0  0  0  0 15  0  0  0  0  0  0
    6.5432   -2.7292   -2.2889 O   0  0  0  0  0 15  0  0  0  0  0  0
    5.4022   -4.0214   -3.7006 O   0  0  0  0  0 15  0  0  0  0  0  0
    2.4962   -0.5839   -0.5856 H   0  0  0  0  0 15  0  0  0  0  0  0
    5.0422   -1.6038   -0.5545 H   0  0  0  0  0 15  0  0  0  0  0  0
    3.8142   -3.5763   -1.5880 H   0  0  0  0  0 15  0  0  0  0  0  0
    3.4372   -2.6065   -3.0025 H   0  0  0  0  0 15  0  0  0  0  0  0
    4.4343    0.7856   -1.3662 N   0  0  0  0  0 15  0  0  0  0  0  0
    5.6593    1.5796   -1.3440 C   0  0  0  0  0 15  0  0  0  0  0  0
    6.0843    1.8796    0.0715 C   0  0  0  0  0 15  0  0  0  0  0  0
    5.4423    1.4818    1.0446 O   0  0  0  0  0 15  0  0  0  0  0  0
    5.4903    2.8751   -2.1765 C   0  0  0  0  0 15  0  0  0  0  0  0
    4.5943    3.8128   -1.5716 O   0  0  0  0  0 15  0  0  0  0  0  0
    3.9353    0.4790   -0.4598 H   0  0  0  0  0 15  0  0  0  0  0  0
    6.4653    0.9734   -1.7996 H   0  0  0  0  0 15  0  0  0  0  0  0
    6.4753    3.3674   -2.3036 H   0  0  0  0  0 15  0  0  0  0  0  0
    5.1503    2.6500   -3.2054 H   0  0  0  0  0 15  0  0  0  0  0  0
    3.7273    3.3989   -1.5340 H   0  0  0  0  0 15  0  0  0  0  0  0
    5.9124    1.2097    1.0102 N   0  0  0  0  0 15  0  0  0  0  0  0
    7.1404    1.0496    1.7830 C   0  0  0  0  0 15  0  0  0  0  0  0
    7.5554   -0.4009    1.8449 C   0  0  0  0  0 15  0  0  0  0  0  0
    6.9124   -1.2783    1.3026 O   0  0  0  0  0 15  0  0  0  0  0  0
    6.9634    1.6340    3.2246 C   0  0  0  0  0 15  0  0  0  0  0  0
    6.6844    3.0277    3.1664 O   0  0  0  0  0 15  0  0  0  0  0  0
    8.1854    1.5243    4.1627 C   0  0  0  0  0 15  0  0  0  0  0  0
    5.4054    0.3689    0.5605 H   0  0  0  0  0 15  0  0  0  0  0  0
    7.9494    1.6019    1.2712 H   0  0  0  0  0 15  0  0  0  0  0  0
    6.1044    1.1227    3.7078 H   0  0  0  0  0 15  0  0  0  0  0  0
    6.5184    3.3063    4.0717 H   0  0  0  0  0 15  0  0  0  0  0  0
    7.9924    1.9808    5.1524 H   0  0  0  0  0 15  0  0  0  0  0  0
    8.4694    0.4779    4.3659 H   0  0  0  0  0 15  0  0  0  0  0  0
    9.0754    2.0279    3.7384 H   0  0  0  0  0 15  0  0  0  0  0  0
    7.3905   -1.2043    1.0166 N   0  0  0  0  0 15  0  0  0  0  0  0
    8.8065   -1.4185    0.7314 C   0  0  0  0  0 15  0  0  0  0  0  0
    9.0065   -1.8936   -0.6889 C   0  0  0  0  0 15  0  0  0  0  0  0
    8.0625   -2.0625   -1.4567 O   0  0  0  0  0 15  0  0  0  0  0  0
    9.3755   -2.4402    1.7571 C   0  0  0  0  0 15  0  0  0  0  0  0
   10.9235   -2.5778    1.7753 C   0  0  0  0  0 15  0  0  0  0  0  0
   11.3985   -3.6319    2.7902 C   0  0  0  0  0 15  0  0  0  0  0  0
   12.8895   -3.7068    2.7776 N   0  0  0  0  0 15  0  0  0  0  0  0
   13.6245   -4.5190    3.5295 C   0  0  0  0  0 15  0  0  0  0  0  0
   13.1205   -5.3692    4.3782 N   0  0  0  0  0 15  0  0  0  0  0  0
   14.9135   -4.4643    3.4155 N   0  0  0  0  0 15  0  0  0  0  0  0
    7.0645   -0.8791    1.9335 H   0  0  0  0  0 15  0  0  0  0  0  0
    9.3275   -0.4484    0.8352 H   0  0  0  0  0 15  0  0  0  0  0  0
    9.0335   -2.1611    2.7747 H   0  0  0  0  0 15  0  0  0  0  0  0
    8.9075   -3.4301    1.5693 H   0  0  0  0  0 15  0  0  0  0  0  0
   11.2945   -2.8502    0.7646 H   0  0  0  0  0 15  0  0  0  0  0  0
   11.3755   -1.5899    2.0039 H   0  0  0  0  0 15  0  0  0  0  0  0
   11.0195   -3.3670    3.8026 H   0  0  0  0  0 15  0  0  0  0  0  0
   10.9495   -4.6161    2.5343 H   0  0  0  0  0 15  0  0  0  0  0  0
   13.4405   -3.0994    2.1620 H   0  0  0  0  0 15  0  0  0  0  0  0
   13.7535   -5.9598    4.9196 H   0  0  0  0  0 15  0  0  0  0  0  0
   12.0985   -5.3642    4.4190 H   0  0  0  0  0 15  0  0  0  0  0  0
   15.2895   -3.7904    2.7467 H   0  0  0  0  0 15  0  0  0  0  0  0
   15.4625   -5.0949    4.0040 H   0  0  0  0  0 15  0  0  0  0  0  0
    8.8686   -0.7928   -1.3621 N   0  0  0  0  0 15  0  0  0  0  0  0
    9.8156   -0.1917   -2.3000 C   0  0  0  0  0 15  0  0  0  0  0  0
   10.7856    0.6665   -1.5214 C   0  0  0  0  0 15  0  0  0  0  0  0
   11.9706    0.6144   -1.8064 O   0  0  0  0  0 15  0  0  0  0  0  0
    9.1106    0.6648   -3.3864 C   0  0  0  0  0 15  0  0  0  0  0  0
    8.2236   -0.2122   -4.3148 C   0  0  0  0  0 15  0  0  0  0  0  0
    7.3586    0.6510   -5.2720 C   0  0  0  0  0 15  0  0  0  0  0  0
    6.3976   -0.2272   -6.1168 C   0  0  0  0  0 15  0  0  0  0  0  0
    5.5346    0.5951   -6.9957 N   0  0  0  0  0 15  0  0  0  0  0  0
   10.3746   -0.9970   -2.8083 H   0  0  0  0  0 15  0  0  0  0  0  0
    7.9116   -0.5032   -1.3823 H   0  0  0  0  0 15  0  0  0  0  0  0
    9.8696    1.1765   -4.0027 H   0  0  0  0  0 15  0  0  0  0  0  0
    8.4996    1.4356   -2.8912 H   0  0  0  0  0 15  0  0  0  0  0  0
    7.5516   -0.8418   -3.7097 H   0  0  0  0  0 15  0  0  0  0  0  0
    8.8636   -0.8888   -4.9082 H   0  0  0  0  0 15  0  0  0  0  0  0
    8.0176    1.2283   -5.9414 H   0  0  0  0  0 15  0  0  0  0  0  0
    6.7566    1.3612   -4.6832 H   0  0  0  0  0 15  0  0  0  0  0  0
    5.7616   -0.8169   -5.4370 H   0  0  0  0  0 15  0  0  0  0  0  0
    6.9866   -0.9351   -6.7263 H   0  0  0  0  0 15  0  0  0  0  0  0
    4.9326    1.2895   -6.4320 H   0  0  0  0  0 15  0  0  0  0  0  0
    4.8496   -0.0237   -7.5600 H   0  0  0  0  0 15  0  0  0  0  0  0
    6.1176    1.1561   -7.7088 H   0  0  0  0  0 15  0  0  0  0  0  0
   10.3467    1.4787   -0.5451 N   0  0  0  0  0 15  0  0  0  0  0  0
   11.5867    2.0439   -0.0188 C   0  0  0  0  0 15  0  0  0  0  0  0
   11.9507    1.4116    1.3014 C   0  0  0  0  0 15  0  0  0  0  0  0
   13.1517    1.8866    1.9147 O   0  0  0  0  0 15  0  0  0  0  0  0
   11.4227    3.5730    0.0851 C   0  0  0  0  0 15  0  0  0  0  0  0
   12.9817    4.3522    0.5593 S   0  0  0  0  0 15  0  0  0  0  0  0
    9.7997    0.7107   -0.0193 H   0  0  0  0  0 15  0  0  0  0  0  0
   12.4017    1.8139   -0.7291 H   0  0  0  0  0 15  0  0  0  0  0  0
   11.1057    4.0085   -0.8804 H   0  0  0  0  0 15  0  0  0  0  0  0
   10.6367    3.8477    0.8193 H   0  0  0  0  0 15  0  0  0  0  0  0
   12.6517    4.6157    1.8212 H   0  0  0  0  0 15  0  0  0  0  0  0
   11.8248    0.2810    1.5507 N   0  0  0  0  0 15  0  0  0  0  0  0
   12.7578   -0.6454    2.1888 C   0  0  0  0  0 15  0  0  0  0  0  0
   13.7358   -1.1479    1.1516 C   0  0  0  0  0 15  0  0  0  0  0  0
   14.9198   -1.2198    1.4372 O   0  0  0  0  0 15  0  0  0  0  0  0
   12.0468   -1.8809    2.8167 C   0  0  0  0  0 15  0  0  0  0  0  0
   11.0928   -1.5134    3.9874 C   0  0  0  0  0 15  0  0  0  0  0  0
   11.9258   -0.5865    5.3228 S   0  0  0  0  0 15  0  0  0  0  0  0
   13.0818   -1.8302    5.9854 C   0  0  0  0  0 15  0  0  0  0  0  0
   13.3148   -0.1033    2.9712 H   0  0  0  0  0 15  0  0  0  0  0  0
   10.8478    0.0652    1.5426 H   0  0  0  0  0 15  0  0  0  0  0  0
   12.8058   -2.5900    3.1848 H   0  0  0  0  0 15  0  0  0  0  0  0
   11.4668   -2.3942    2.0332 H   0  0  0  0  0 15  0  0  0  0  0  0
   10.6598   -2.4329    4.4139 H   0  0  0  0  0 15  0  0  0  0  0  0
   10.2618   -0.8845    3.6339 H   0  0  0  0  0 15  0  0  0  0  0  0
   12.5538   -2.7734    6.1813 H   0  0  0  0  0 15  0  0  0  0  0  0
   13.4968   -1.4467    6.9316 H   0  0  0  0  0 15  0  0  0  0  0  0
   13.9048   -1.9978    5.2796 H   0  0  0  0  0 15  0  0  0  0  0  0
   13.3029   -1.5760    0.0084 N   0  0  0  0  0 15  0  0  0  0  0  0
   14.5799   -1.8217   -0.7122 C   0  0  0  0  0 15  0  0  0  0  0  0
   14.9599   -0.8879   -1.9152 C   0  0  0  0  0 15  0  0  0  0  0  0
   14.3079    0.0615   -2.2842 O   0  0  0  0  0 15  0  0  0  0  0  0
   14.5179   -3.3088   -1.1101 C   0  0  0  0  0 15  0  0  0  0  0  0
   15.8659   -3.9683   -1.5104 C   0  0  0  0  0 15  0  0  0  0  0  0
   16.8899   -3.3525   -1.2036 O   0  0  0  0  0 15  0  0  0  0  0  0
   15.7489   -5.0532   -2.0813 O   0  0  0  0  0 15  0  0  0  0  0  0
   12.8429   -0.7504   -0.3475 H   0  0  0  0  0 15  0  0  0  0  0  0
   15.3889   -1.6967    0.0345 H   0  0  0  0  0 15  0  0  0  0  0  0
   14.1609   -3.9048   -0.2530 H   0  0  0  0  0 15  0  0  0  0  0  0
   13.7839   -3.4841   -1.9156 H   0  0  0  0  0 15  0  0  0  0  0  0
   14.7810    0.2645   -1.5536 N   0  0  0  0  0 15  0  0  0  0  0  0
   15.7110    1.3312   -1.9184 C   0  0  0  0  0 15  0  0  0  0  0  0
   16.6920    1.5110   -0.7812 C   0  0  0  0  0 15  0  0  0  0  0  0
   17.8770    1.6400   -1.0400 O   0  0  0  0  0 15  0  0  0  0  0  0
   15.0070    2.6892   -2.1977 C   0  0  0  0  0 15  0  0  0  0  0  0
   13.9610    2.6566   -3.3557 C   0  0  0  0  0 15  0  0  0  0  0  0
   13.2870    4.0509   -3.4900 C   0  0  0  0  0 15  0  0  0  0  0  0
   14.5870    2.2419   -4.7174 C   0  0  0  0  0 15  0  0  0  0  0  0
   16.2810    1.0284   -2.8118 H   0  0  0  0  0 15  0  0  0  0  0  0
   13.8270    0.4933   -1.3529 H   0  0  0  0  0 15  0  0  0  0  0  0
   15.7800    3.4366   -2.4387 H   0  0  0  0  0 15  0  0  0  0  0  0
   14.5040    3.0080   -1.2723 H   0  0  0  0  0 15  0  0  0  0  0  0
   13.1630    1.9338   -3.1145 H   0  0  0  0  0 15  0  0  0  0  0  0
   12.8110    4.3421   -2.5392 H   0  0  0  0  0 15  0  0  0  0  0  0
   12.5110    4.0380   -4.2687 H   0  0  0  0  0 15  0  0  0  0  0  0
   14.0350    4.8156   -3.7541 H   0  0  0  0  0 15  0  0  0  0  0  0
   15.4490    2.8865   -4.9533 H   0  0  0  0  0 15  0  0  0  0  0  0
   13.8460    2.3404   -5.5258 H   0  0  0  0  0 15  0  0  0  0  0  0
   14.9160    1.1933   -4.6999 H   0  0  0  0  0 15  0  0  0  0  0  0
   16.2591    1.4844    0.5294 N   0  0  0  0  0 15  0  0  0  0  0  0
   17.2061    1.6301    1.6339 C   0  0  0  0  0 15  0  0  0  0  0  0
   18.1761    0.4721    1.5925 C   0  0  0  0  0 15  0  0  0  0  0  0
   19.3611    0.6957    1.7767 O   0  0  0  0  0 15  0  0  0  0  0  0
   16.5011    1.6763    3.0165 C   0  0  0  0  0 15  0  0  0  0  0  0
   15.6141    2.9454    3.1603 C   0  0  0  0  0 15  0  0  0  0  0  0
   14.7491    2.9032    4.4485 C   0  0  0  0  0 15  0  0  0  0  0  0
   13.7881    4.1192    4.5275 C   0  0  0  0  0 15  0  0  0  0  0  0
   12.9251    4.0578    5.7297 N   0  0  0  0  0 15  0  0  0  0  0  0
   17.7651    2.5733    1.5028 H   0  0  0  0  0 15  0  0  0  0  0  0
   15.3021    1.2761    0.7317 H   0  0  0  0  0 15  0  0  0  0  0  0
   17.2601    1.6829    3.8175 H   0  0  0  0  0 15  0  0  0  0  0  0
   15.8901    0.7680    3.1353 H   0  0  0  0  0 15  0  0  0  0  0  0
   14.9421    3.0361    2.2918 H   0  0  0  0  0 15  0  0  0  0  0  0
   16.2541    3.8451    3.1773 H   0  0  0  0  0 15  0  0  0  0  0  0
   15.4081    2.8938    5.3324 H   0  0  0  0  0 15  0  0  0  0  0  0
   14.1471    1.9807    4.4567 H   0  0  0  0  0 15  0  0  0  0  0  0
   13.1521    4.1313    3.6277 H   0  0  0  0  0 15  0  0  0  0  0  0
   14.3771    5.0533    4.5367 H   0  0  0  0  0 15  0  0  0  0  0  0
   12.3231    3.1635    5.7468 H   0  0  0  0  0 15  0  0  0  0  0  0
   12.2401    4.8946    5.7616 H   0  0  0  0  0 15  0  0  0  0  0  0
   13.5081    4.0890    6.6364 H   0  0  0  0  0 15  0  0  0  0  0  0
   17.7372   -0.7783    1.3704 N   0  0  0  0  0 15  0  0  0  0  0  0
   18.9852   -1.5336    1.3162 C   0  0  0  0  0 15  0  0  0  0  0  0
   19.3062   -1.9474   -0.1008 C   0  0  0  0  0 15  0  0  0  0  0  0
   18.5762   -1.6580   -1.0435 O   0  0  0  0  0 15  0  0  0  0  0  0
   17.1562   -0.5688    0.4842 H   0  0  0  0  0 15  0  0  0  0  0  0
   19.8182   -0.9267    1.7146 H   0  0  0  0  0 15  0  0  0  0  0  0
   18.9142   -2.4361    1.9510 H   0  0  0  0  0 15  0  0  0  0  0  0
   19.2153   -1.2150   -1.0038 N   0  0  0  0  0 15  0  0  0  0  0  0
   20.1633   -0.9724   -2.1130 C   0  0  0  0  0 15  0  0  0  0  0  0
   21.1573    0.0807   -1.6921 C   0  0  0  0  0 15  0  0  0  0  0  0
   22.3633   -0.0708   -1.7986 O   0  0  0  0  0 15  0  0  0  0  0  0
   18.7383   -0.2972   -0.6908 H   0  0  0  0  0 15  0  0  0  0  0  0
   20.7093   -1.9139   -2.2893 H   0  0  0  0  0 15  0  0  0  0  0  0
   19.4583   -0.5551   -3.4324 C   0  0  0  0  0 15  0  0  0  0  0  0
   18.7813   -1.3571   -3.7606 H   0  0  0  0  0 15  0  0  0  0  0  0
   20.2213   -0.4247   -4.2187 H   0  0  0  0  0 15  0  0  0  0  0  0
   18.6803    0.7341   -3.2880 C   0  0  0  0  0 15  0  0  0  0  0  0
   19.2103    1.7894   -3.5965 O   0  0  0  0  0 15  0  0  0  0  0  0
   17.4163    0.7011   -2.8202 N   0  0  0  0  0 15  0  0  0  0  0  0
   16.9633   -0.1579   -2.5712 H   0  0  0  0  0 15  0  0  0  0  0  0
   16.9213    1.5640   -2.7274 H   0  0  0  0  0 15  0  0  0  0  0  0
   20.6934    1.1989   -1.0230 N   0  0  0  0  0 15  0  0  0  0  0  0
   21.6404    2.2290   -0.5987 C   0  0  0  0  0 15  0  0  0  0  0  0
   22.6104    1.6159    0.3845 C   0  0  0  0  0 15  0  0  0  0  0  0
   23.7954    1.8870    0.2825 O   0  0  0  0  0 15  0  0  0  0  0  0
   20.9354    3.4506    0.0504 C   0  0  0  0  0 15  0  0  0  0  0  0
   20.0484    4.2078   -0.9781 C   0  0  0  0  0 15  0  0  0  0  0  0
   19.1834    5.3036   -0.2993 C   0  0  0  0  0 15  0  0  0  0  0  0
   18.2224    5.9783   -1.3142 C   0  0  0  0  0 15  0  0  0  0  0  0
   17.3594    6.9898   -0.6617 N   0  0  0  0  0 15  0  0  0  0  0  0
   22.1994    2.5855   -1.4817 H   0  0  0  0  0 15  0  0  0  0  0  0
   19.7364    1.2704   -0.7416 H   0  0  0  0  0 15  0  0  0  0  0  0
   21.6944    4.1483    0.4440 H   0  0  0  0  0 15  0  0  0  0  0  0
   20.3244    3.1008    0.8971 H   0  0  0  0  0 15  0  0  0  0  0  0
   19.3764    3.5002   -1.4897 H   0  0  0  0  0 15  0  0  0  0  0  0
   20.6884    4.6711   -1.7496 H   0  0  0  0  0 15  0  0  0  0  0  0
   19.8424    6.0652    0.1493 H   0  0  0  0  0 15  0  0  0  0  0  0
   18.5814    4.8508    0.5044 H   0  0  0  0  0 15  0  0  0  0  0  0
   17.5864    5.2042   -1.7732 H   0  0  0  0  0 15  0  0  0  0  0  0
   18.8114    6.4518   -2.1193 H   0  0  0  0  0 15  0  0  0  0  0  0
   16.7574    6.5589    0.1221 H   0  0  0  0  0 15  0  0  0  0  0  0
   16.6744    7.4346   -1.3712 H   0  0  0  0  0 15  0  0  0  0  0  0
   17.9424    7.7914   -0.2368 H   0  0  0  0  0 15  0  0  0  0  0  0
   22.2104    0.9360    1.3161 O   0  0  0  0  0 15  0  0  0  0  0  0
   22.9014    0.5616    1.8538 H   0  0  0  0  0 15  0  0  0  0  0  0
M  END
$$$$
