drugbank_drug|DB04919 Alfimeprase Sequence
 OpenBabel12092119123D

  0  0  0     0  0            999 V3000
M  V30 BEGIN CTAB
M  V30 COUNTS 3126 3157 0 0 0
M  V30 BEGIN ATOM
M  V30 1 H -0.908 1.98254 -0.117106 0
M  V30 2 N 0 1.576 0 0
M  V30 3 C 1.225 1.95249 0.699468 0
M  V30 4 C 1.65 0.874934 1.66513 0
M  V30 5 O 1.008 -0.166929 1.8053 0
M  V30 6 C 1.056 3.31994 1.40756 0
M  V30 7 O 0.16 3.26298 2.52197 0
M  V30 8 H -0.499 0.637402 0.186051 0
M  V30 9 H 2.031 2.04531 -0.05319 0
M  V30 10 H 2.041 3.6756 1.77098 0
M  V30 11 H 0.716 4.09975 0.69953 0
M  V30 12 H -0.707 3.02408 2.18183 0
M  V30 13 N 1.4781 -0.272755 1.55222 0
M  V30 14 C 2.7251 -1.00433 1.7584 0
M  V30 15 C 3.0531 -1.86275 0.559629 0
M  V30 16 O 2.3081 -1.90269 -0.457857 0
M  V30 17 C 2.6071 -1.91642 3.01675 0
M  V30 18 C 2.2731 -1.21548 4.34208 0
M  V30 19 C 0.9351 -1.02166 4.70229 0
M  V30 20 C 3.2871 -0.716684 5.16249 0
M  V30 21 C 0.6151 -0.316334 5.85847 0
M  V30 22 C 2.9671 -0.0249476 6.32595 0
M  V30 23 C 1.6311 0.180579 6.67256 0
M  V30 24 H 0.9011 -0.367509 0.643443 0
M  V30 25 H 3.5481 -0.276596 1.89492 0
M  V30 26 H 1.8531 -2.71037 2.82924 0
M  V30 27 H 3.5501 -2.48369 3.14824 0
M  V30 28 H 0.1401 -1.37645 4.05896 0
M  V30 29 H 4.3241 -0.854047 4.88896 0
M  V30 30 H -0.4199 -0.146378 6.11225 0
M  V30 31 H 3.7541 0.369311 6.9542 0
M  V30 32 H 1.3811 0.729098 7.56696 0
M  V30 33 N 2.9562 -1.48159 -0.537278 0
M  V30 34 C 4.3672 -1.49429 -1.11928 0
M  V30 35 C 4.7182 -0.26 -1.9447 0
M  V30 36 O 3.8432 0.633489 -2.0692 0
M  V30 37 C 4.4382 -2.70758 -2.03656 0
M  V30 38 C 2.9972 -2.74923 -2.57088 0
M  V30 39 C 2.1442 -2.42835 -1.3389 0
M  V30 40 H 5.0952 -1.55381 -0.322886 0
M  V30 41 H 5.1162 -2.48861 -2.87834 0
M  V30 42 H 4.6282 -3.60575 -1.43553 0
M  V30 43 H 2.7292 -1.89296 -3.20933 0
M  V30 44 H 2.8422 -3.76157 -2.9672 0
M  V30 45 H 1.2062 -1.93836 -1.65226 0
M  V30 46 H 1.9892 -3.34884 -0.755504 0
M  V30 47 N 4.4343 0.785586 -1.36625 0
M  V30 48 C 5.3663 1.90711 -1.2713 0
M  V30 49 C 6.3793 1.61688 -0.189986 0
M  V30 50 O 7.5683 1.72864 -0.445014 0
M  V30 51 C 4.6683 3.25611 -0.939713 0
M  V30 52 C 3.8413 3.82385 -2.12369 0
M  V30 53 C 2.9003 4.95732 -1.76456 0
M  V30 54 O 1.9263 5.12047 -2.48589 0
M  V30 55 N 3.1283 5.76258 -0.700492 0
M  V30 56 H 5.8933 1.99376 -2.23762 0
M  V30 57 H 3.4543 0.964041 -1.30069 0
M  V30 58 H 5.4463 3.98937 -0.680554 0
M  V30 59 H 4.0163 3.12538 -0.0624074 0
M  V30 60 H 3.2363 3.01001 -2.54543 0
M  V30 61 H 4.5243 4.17047 -2.9146 0
M  V30 62 H 3.9223 5.65609 -0.101624 0
M  V30 63 H 2.4793 6.4987 -0.501165 0
M  V30 64 N 5.9124 1.20967 1.01018 0
M  V30 65 C 7.3284 0.965905 1.27053 0
M  V30 66 C 7.5284 -0.350785 1.98423 0
M  V30 67 O 6.5844 -1.07773 2.28344 0
M  V30 68 C 7.8974 2.15294 2.09926 0
M  V30 69 C 9.4454 2.19463 2.23171 0
M  V30 70 C 9.9204 3.3767 3.09424 0
M  V30 71 N 11.4114 3.37724 3.17012 0
M  V30 72 C 12.1464 4.25837 3.83993 0
M  V30 73 N 11.6424 5.24138 4.53047 0
M  V30 74 N 13.4354 4.1366 3.80581 0
M  V30 75 H 5.5864 2.0565 0.531194 0
M  V30 76 H 7.8494 0.90024 0.297106 0
M  V30 77 H 7.5554 3.10684 1.64828 0
M  V30 78 H 7.4294 2.13923 3.10672 0
M  V30 79 H 9.8164 1.24632 2.6749 0
M  V30 80 H 9.8974 2.2488 1.21912 0
M  V30 81 H 9.5414 4.32791 2.65808 0
M  V30 82 H 9.4714 3.29491 4.10784 0
M  V30 83 H 11.9624 2.6658 2.6785 0
M  V30 84 H 12.2754 5.87684 5.01844 0
M  V30 85 H 10.6204 5.28068 4.5185 0
M  V30 86 H 13.8114 3.36127 3.25785 0
M  V30 87 H 13.9844 4.82538 4.32505 0
M  V30 88 N 7.3905 -1.2043 1.01659 0
M  V30 89 C 8.6205 -1.93496 0.724081 0
M  V30 90 C 9.0285 -1.74998 -0.71918 0
M  V30 91 O 8.3715 -1.06118 -1.49949 0
M  V30 92 C 8.4335 -3.45886 0.97994 0
M  V30 93 C 8.0975 -3.88145 2.41232 0
M  V30 94 C 9.0945 -3.93907 3.39313 0
M  V30 95 C 6.7795 -4.20134 2.75305 0
M  V30 96 C 8.7735 -4.31069 4.6953 0
M  V30 97 C 6.4605 -4.56971 4.05735 0
M  V30 98 C 7.4585 -4.62411 5.02658 0
M  V30 99 O 7.1465 -4.98403 6.30754 0
M  V30 100 H 6.8785 -0.621824 0.265162 0
M  V30 101 H 9.4325 -1.53867 1.36066 0
M  V30 102 H 7.6625 -3.85639 0.286198 0
M  V30 103 H 9.3515 -4.0018 0.679021 0
M  V30 104 H 10.1175 -3.69357 3.14325 0
M  V30 105 H 5.9965 -4.1509 2.00551 0
M  V30 106 H 9.5405 -4.3523 5.45179 0
M  V30 107 H 5.4375 -4.80977 4.30502 0
M  V30 108 H 6.2055 -5.16395 6.35042 0
M  V30 109 N 8.8686 -0.792821 -1.36206 0
M  V30 110 C 10.1146 -0.36733 -1.99446 0
M  V30 111 C 10.4476 1.05917 -1.62774 0
M  V30 112 O 9.7226 1.7324 -0.88421 0
M  V30 113 C 10.0056 -0.535044 -3.56103 0
M  V30 114 C 9.8586 -2.00548 -4.02617 0
M  V30 115 C 11.1776 0.0478191 -4.40074 0
M  V30 116 H 8.2966 -0.134941 -0.724541 0
M  V30 117 H 10.9386 -0.999794 -1.61568 0
M  V30 118 H 9.0886 0.00336329 -3.885 0
M  V30 119 H 10.7606 -2.60521 -3.80692 0
M  V30 120 H 9.0036 -2.50686 -3.54032 0
M  V30 121 H 9.6746 -2.07377 -5.11565 0
M  V30 122 H 12.1506 -0.411822 -4.14057 0
M  V30 123 H 11.0266 -0.0995336 -5.4881 0
M  V30 124 H 11.2876 1.14025 -4.27142 0
M  V30 125 N 10.3467 1.47872 -0.545128 0
M  V30 126 C 11.2787 2.27869 0.246621 0
M  V30 127 C 12.2917 1.36282 0.890561 0
M  V30 128 O 13.4807 1.61207 0.766449 0
M  V30 129 C 10.5807 3.10159 1.36582 0
M  V30 130 C 9.7537 4.29627 0.820954 0
M  V30 131 C 8.8127 4.93607 1.82314 0
M  V30 132 O 7.8387 5.52366 1.37406 0
M  V30 133 N 9.0407 4.87211 3.15603 0
M  V30 134 H 11.8057 2.96459 -0.439539 0
M  V30 135 H 9.3667 1.57367 -0.380421 0
M  V30 136 H 11.3587 3.49829 2.03474 0
M  V30 137 H 9.9287 2.43891 1.9554 0
M  V30 138 H 9.1487 3.94192 -0.0244032 0
M  V30 139 H 10.4367 5.06928 0.436063 0
M  V30 140 H 9.8347 4.40651 3.54744 0
M  V30 141 H 8.3917 5.30937 3.78087 0
M  V30 142 N 11.8248 0.280983 1.55075 0
M  V30 143 C 12.7548 -0.597469 2.25727 0
M  V30 144 C 13.7358 -1.15417 1.24952 0
M  V30 145 O 14.9208 -1.18722 1.53684 0
M  V30 146 C 12.0508 -1.7789 2.98283 0
M  V30 147 C 11.0048 -1.35347 4.06036 0
M  V30 148 C 10.3308 -2.61846 4.66198 0
M  V30 149 C 11.6308 -0.499354 5.19907 0
M  V30 150 H 13.3248 -0.00824265 2.99399 0
M  V30 151 H 10.8708 -0.0025244 1.44 0
M  V30 152 H 12.8238 -2.39937 3.46422 0
M  V30 153 H 11.5478 -2.39405 2.22155 0
M  V30 154 H 10.2068 -0.756156 3.58717 0
M  V30 155 H 9.8548 -3.21632 3.86732 0
M  V30 156 H 9.5548 -2.3409 5.38958 0
M  V30 157 H 11.0788 -3.24732 5.1709 0
M  V30 158 H 12.4928 -1.02498 5.64063 0
M  V30 159 H 10.8898 -0.316424 5.99265 0
M  V30 160 H 11.9598 0.480459 4.82514 0
M  V30 161 N 13.3029 -1.57598 0.00835791 0
M  V30 162 C 14.5489 -1.91211 -0.675732 0
M  V30 163 C 14.8819 -0.883139 -1.72958 0
M  V30 164 O 14.1569 0.097016 -1.94258 0
M  V30 165 C 14.4399 -3.35379 -1.31123 0
M  V30 166 C 14.2929 -4.48999 -0.268356 0
M  V30 167 C 15.6119 -3.7912 -2.23508 0
M  V30 168 H 12.7309 -0.695374 -0.244179 0
M  V30 169 H 15.3729 -1.89901 0.0613655 0
M  V30 170 H 13.5229 -3.36626 -1.93946 0
M  V30 171 H 15.1949 -4.59887 0.360844 0
M  V30 172 H 13.4379 -4.31873 0.408482 0
M  V30 173 H 14.1089 -5.46851 -0.752218 0
M  V30 174 H 16.5849 -3.79477 -1.70693 0
M  V30 175 H 15.4609 -4.80729 -2.64936 0
M  V30 176 H 15.7219 -3.13455 -3.11766 0
M  V30 177 N 14.781 0.264519 -1.55364 0
M  V30 178 C 16.03 0.992812 -1.75574 0
M  V30 179 C 16.343 1.87142 -0.568979 0
M  V30 180 O 17.549 2.63513 -0.653682 0
M  V30 181 C 16.005 1.81519 -3.10771 0
M  V30 182 C 15.613 0.984839 -4.37041 0
M  V30 183 C 17.357 2.53727 -3.40327 0
M  V30 184 C 15.264 1.80209 -5.63275 0
M  V30 185 H 14.194 0.374412 -0.65447 0
M  V30 186 H 16.845 0.248138 -1.81815 0
M  V30 187 H 15.227 2.60115 -2.98591 0
M  V30 188 H 16.401 0.242455 -4.60162 0
M  V30 189 H 14.716 0.37691 -4.14691 0
M  V30 190 H 17.313 3.15292 -4.3185 0
M  V30 191 H 17.656 3.24447 -2.60845 0
M  V30 192 H 18.189 1.82156 -3.53644 0
M  V30 193 H 14.928 1.13896 -6.45529 0
M  V30 194 H 14.448 2.52022 -5.44284 0
M  V30 195 H 16.127 2.37364 -6.01887 0
M  V30 196 N 16.2591 1.48442 0.529413 0
M  V30 197 C 17.5051 1.5672 1.28711 0
M  V30 198 C 17.8381 0.2406 1.92704 0
M  V30 199 O 17.1131 -0.753454 1.79313 0
M  V30 200 C 17.3961 2.70587 2.37603 0
M  V30 201 C 17.2491 4.12953 1.78297 0
M  V30 202 C 18.5681 2.80212 3.39366 0
M  V30 203 H 15.6871 0.570474 0.466613 0
M  V30 204 H 18.3291 1.80617 0.589706 0
M  V30 205 H 16.4791 2.50342 2.97088 0
M  V30 206 H 18.1511 4.44639 1.22858 0
M  V30 207 H 16.3941 4.19927 1.0883 0
M  V30 208 H 17.0651 4.88448 2.57144 0
M  V30 209 H 19.5411 2.98553 2.89836 0
M  V30 210 H 18.4171 3.61611 4.12951 0
M  V30 211 H 18.6781 1.88393 3.99951 0
M  V30 212 N 17.7372 -0.778329 1.37039 0
M  V30 213 C 18.7002 -1.87301 1.32102 0
M  V30 214 C 19.7002 -1.59198 0.226405 0
M  V30 215 O 20.8902 -1.67403 0.481861 0
M  V30 216 C 18.0222 -3.24309 1.05055 0
M  V30 217 H 19.2152 -1.93093 2.29467 0
M  V30 218 H 16.7682 -0.977358 1.21973 0
M  V30 219 H 17.5032 -3.24196 0.0819373 0
M  V30 220 H 17.2882 -3.46098 1.84279 0
M  V30 221 H 18.7782 -4.04382 1.04234 0
M  V30 222 N 19.2153 -1.21501 -1.00376 0
M  V30 223 C 20.4923 -0.941745 -1.71437 0
M  V30 224 C 20.8723 0.546114 -2.03914 0
M  V30 225 O 20.2203 1.51128 -1.71384 0
M  V30 226 C 20.4303 -1.82812 -2.97289 0
M  V30 227 C 21.7783 -2.07771 -3.70292 0
M  V30 228 O 22.8023 -1.80171 -3.07273 0
M  V30 229 O 21.6613 -2.54456 -4.83647 0
M  V30 230 H 18.7553 -0.353243 -0.747762 0
M  V30 231 H 21.3013 -1.32436 -1.06108 0
M  V30 232 H 20.0733 -2.83501 -2.69709 0
M  V30 233 H 19.6963 -1.4464 -3.70358 0
M  V30 234 N 20.6934 1.19889 -1.02296 0
M  V30 235 C 21.6434 2.20777 -0.56934 0
M  V30 236 C 22.6274 1.56379 0.378741 0
M  V30 237 O 23.8194 1.75859 0.200673 0
M  V30 238 C 20.9484 3.43196 0.0845077 0
M  V30 239 C 20.0344 4.14749 -0.88566 0
M  V30 240 N 20.4254 4.62584 -2.04573 0
M  V30 241 C 18.7234 4.40347 -0.707835 0
M  V30 242 C 19.4244 5.17466 -2.65714 0
M  V30 243 N 18.4004 5.0791 -1.93723 0
M  V30 244 H 22.2024 2.55434 -1.45365 0
M  V30 245 H 19.7164 1.35897 -0.88915 0
M  V30 246 H 21.7134 4.14707 0.427067 0
M  V30 247 H 20.3734 3.10042 0.964574 0
M  V30 248 H 21.3844 4.57597 -2.4254 0
M  V30 249 H 18.0614 4.17317 0.12364 0
M  V30 250 H 19.4514 5.64808 -3.63925 0
M  V30 251 N 22.1715 0.800033 1.35784 0
M  V30 252 C 23.5875 0.482977 1.52117 0
M  V30 253 C 23.7875 -0.996948 1.75109 0
M  V30 254 O 22.8435 -1.78216 1.78872 0
M  V30 255 C 24.1565 1.32264 2.70049 0
M  V30 256 C 25.7045 1.31742 2.83924 0
M  V30 257 C 26.1795 2.14106 4.04874 0
M  V30 258 N 27.6705 2.11607 4.12039 0
M  V30 259 C 28.4055 2.72099 5.04727 0
M  V30 260 N 27.9015 3.41492 6.02789 0
M  V30 261 N 29.6945 2.61776 4.97423 0
M  V30 262 H 21.8455 1.75856 1.19115 0
M  V30 263 H 24.1085 0.748122 0.582252 0
M  V30 264 H 23.8145 2.37261 2.59616 0
M  V30 265 H 23.6885 0.971303 3.6448 0
M  V30 266 H 26.0755 0.275333 2.93813 0
M  V30 267 H 26.1565 1.70859 1.9037 0
M  V30 268 H 25.8005 3.18351 3.95746 0
M  V30 269 H 25.7305 1.72353 4.97596 0
M  V30 270 H 28.2215 1.61112 3.41835 0
M  V30 271 H 28.5345 3.84953 6.70098 0
M  V30 272 H 26.8795 3.45596 6.02983 0
M  V30 273 H 30.0705 2.07157 4.19766 0
M  V30 274 H 30.2435 3.0921 5.69468 0
M  V30 275 N 23.6496 -1.47581 0.552962 0
M  V30 276 C 24.5826 -2.26883 -0.244857 0
M  V30 277 C 25.5606 -1.33784 -0.924147 0
M  V30 278 O 26.7446 -1.6316 -0.943981 0
M  V30 279 C 23.8716 -3.10695 -1.34856 0
M  V30 280 C 22.9176 -4.19339 -0.778268 0
M  V30 281 S 23.7506 -5.34207 0.37184 0
M  V30 282 C 24.9066 -6.21584 -0.733779 0
M  V30 283 H 25.1396 -2.94202 0.428087 0
M  V30 284 H 22.6726 -1.50628 0.339197 0
M  V30 285 H 24.6306 -3.59555 -1.98066 0
M  V30 286 H 23.2916 -2.42746 -1.99332 0
M  V30 287 H 22.4846 -4.77695 -1.60696 0
M  V30 288 H 22.0866 -3.73338 -0.222422 0
M  V30 289 H 24.3786 -6.57676 -1.62692 0
M  V30 290 H 25.3216 -7.07851 -0.187668 0
M  V30 291 H 25.7296 -5.55125 -1.02454 0
M  V30 292 N 25.1277 -0.289203 -1.54924 0
M  V30 293 C 26.0757 0.607966 -2.24514 0
M  V30 294 C 27.0697 1.14655 -1.24702 0
M  V30 295 O 28.2757 1.09856 -1.4259 0
M  V30 296 H 24.6507 0.21464 -0.720718 0
M  V30 297 H 26.6217 -0.00164182 -2.984 0
M  V30 298 C 25.3707 1.77406 -2.99036 0
M  V30 299 H 24.6937 1.36884 -3.75637 0
M  V30 300 H 26.1337 2.37814 -3.51028 0
M  V30 301 C 24.5927 2.67107 -2.05318 0
M  V30 302 O 25.1227 3.6787 -1.61353 0
M  V30 303 N 23.3287 2.34582 -1.71521 0
M  V30 304 H 22.8757 1.52688 -2.07471 0
M  V30 305 H 22.8337 2.94867 -1.0909 0
M  V30 306 N 26.6058 1.57591 -0.0167156 0
M  V30 307 C 27.8338 1.95575 0.675128 0
M  V30 308 C 28.2488 0.892542 1.6637 0
M  V30 309 O 27.6058 -0.126912 1.82058 0
M  V30 310 C 27.6568 3.33608 1.39239 0
M  V30 311 O 27.3778 4.3585 0.443444 0
M  V30 312 C 28.8788 3.86151 2.17721 0
M  V30 313 H 26.0988 0.644423 0.186978 0
M  V30 314 H 28.6428 2.0437 -0.0728 0
M  V30 315 H 26.7978 3.2607 2.09182 0
M  V30 316 H 27.2118 5.158 0.951358 0
M  V30 317 H 28.6858 4.85114 2.63379 0
M  V30 318 H 29.1628 3.19738 3.01105 0
M  V30 319 H 29.7688 3.96918 1.52761 0
M  V30 320 N 28.0839 -0.256276 1.55502 0
M  V30 321 C 29.0309 -1.31714 1.89526 0
M  V30 322 C 30.0009 -1.4828 0.748479 0
M  V30 323 O 31.1859 -1.62416 1.00128 0
M  V30 324 C 28.3259 -2.66933 2.18725 0
M  V30 325 C 27.4389 -2.58452 3.4616 0
M  V30 326 C 26.5739 -3.85961 3.64976 0
M  V30 327 C 25.6129 -3.72059 4.86044 0
M  V30 328 N 24.7499 -4.9144 5.01429 0
M  V30 329 H 29.5899 -1.01998 2.80001 0
M  V30 330 H 27.1269 -0.492413 1.38613 0
M  V30 331 H 29.0849 -3.4563 2.33657 0
M  V30 332 H 27.7149 -2.94816 1.31466 0
M  V30 333 H 26.7669 -1.71374 3.3961 0
M  V30 334 H 28.0789 -2.44085 4.34999 0
M  V30 335 H 27.2329 -4.73101 3.79816 0
M  V30 336 H 25.9719 -4.03215 2.74353 0
M  V30 337 H 24.9769 -2.83302 4.7119 0
M  V30 338 H 26.2019 -3.56309 5.78118 0
M  V30 339 H 24.1479 -5.09072 4.13741 0
M  V30 340 H 24.0649 -4.79668 5.84341 0
M  V30 341 H 25.3329 -5.80104 5.20672 0
M  V30 342 N 29.562 -1.4872 -0.521534 0
M  V30 343 C 30.792 -1.6061 -1.29954 0
M  V30 344 C 31.2 -0.268728 -1.87282 0
M  V30 345 O 30.543 0.753221 -1.67548 0
M  V30 346 C 30.605 -2.60013 -2.48261 0
M  V30 347 C 30.269 -4.04874 -2.11957 0
M  V30 348 C 31.266 -4.92304 -1.67132 0
M  V30 349 C 28.951 -4.5047 -2.22221 0
M  V30 350 C 30.945 -6.2336 -1.33047 0
M  V30 351 C 28.632 -5.81544 -1.87748 0
M  V30 352 C 29.63 -6.67812 -1.43234 0
M  V30 353 O 29.318 -7.96446 -1.09217 0
M  V30 354 H 29.05 -0.544116 -0.401141 0
M  V30 355 H 31.604 -1.95339 -0.634958 0
M  V30 356 H 29.834 -2.20422 -3.17728 0
M  V30 357 H 31.523 -2.61648 -3.10315 0
M  V30 358 H 32.289 -4.58312 -1.58665 0
M  V30 359 H 28.168 -3.83504 -2.55823 0
M  V30 360 H 31.712 -6.90649 -0.982299 0
M  V30 361 H 27.609 -6.15069 -1.95858 0
M  V30 362 H 28.377 -8.09275 -1.22542 0
M  V30 363 N 31.0401 0.771051 -1.3745 0
M  V30 364 C 31.9881 1.90574 -1.33358 0
M  V30 365 C 32.9821 1.67936 -0.22224 0
M  V30 366 O 34.1881 1.75717 -0.390304 0
M  V30 367 H 30.5631 0.626714 -0.415612 0
M  V30 368 H 32.5341 1.91142 -2.29144 0
M  V30 369 C 31.2831 3.27845 -1.15813 0
M  V30 370 H 30.6061 3.45842 -2.00583 0
M  V30 371 H 32.0461 4.07538 -1.17 0
M  V30 372 C 30.5051 3.36625 0.136165 0
M  V30 373 O 31.0351 3.85785 1.11949 0
M  V30 374 N 29.2411 2.89997 0.187099 0
M  V30 375 H 28.7881 2.50182 -0.613753 0
M  V30 376 H 28.7461 2.96252 1.05272 0
M  V30 377 N 32.5182 1.22032 0.997298 0
M  V30 378 C 33.7662 1.04016 1.73278 0
M  V30 379 C 34.0872 -0.426255 1.90284 0
M  V30 380 O 33.3572 -1.30694 1.45931 0
M  V30 381 H 31.9372 0.381897 0.642 0
M  V30 382 H 34.5992 1.5347 1.20137 0
M  V30 383 H 33.6952 1.51441 2.72896 0
M  V30 384 N 33.9963 -1.19345 1.0293 0
M  V30 385 C 35.2733 -1.84811 0.640642 0
M  V30 386 C 35.6533 -1.91855 -0.88062 0
M  V30 387 O 35.0013 -1.43587 -1.7775 0
M  V30 388 C 35.2113 -3.23755 1.30321 0
M  V30 389 C 36.5593 -3.99912 1.42673 0
M  V30 390 O 37.5833 -3.33155 1.26041 0
M  V30 391 O 36.4423 -5.19494 1.6967 0
M  V30 392 H 33.5363 -0.796443 0.222726 0
M  V30 393 H 36.0823 -1.26831 1.12748 0
M  V30 394 H 34.8543 -3.13466 2.34211 0
M  V30 395 H 34.4773 -3.89381 0.804261 0
M  V30 396 N 35.4744 -0.807222 -1.35358 0
M  V30 397 C 36.6994 -0.399309 -2.0352 0
M  V30 398 C 37.1244 0.981986 -1.60433 0
M  V30 399 O 36.4824 1.63601 -0.781299 0
M  V30 400 C 36.5304 -0.491552 -3.57234 0
M  V30 401 O 35.6344 0.494754 -4.09421 0
M  V30 402 H 34.9754 -0.166682 -0.642739 0
M  V30 403 H 37.5054 -1.09328 -1.72941 0
M  V30 404 H 37.5154 -0.361588 -4.06395 0
M  V30 405 H 36.1904 -1.49907 -3.87944 0
M  V30 406 H 34.7674 0.324977 -3.71481 0
M  V30 407 N 36.9525 1.47285 -0.560781 0
M  V30 408 C 38.2295 1.9558 0.0277798 0
M  V30 409 C 38.6095 1.5034 1.48192 0
M  V30 410 O 37.9575 0.743882 2.16052 0
M  V30 411 C 38.1675 3.48789 -0.121418 0
M  V30 412 C 39.5155 4.24594 0.0220912 0
M  V30 413 O 40.5395 3.56166 -0.0491439 0
M  V30 414 O 39.3985 5.46217 0.175958 0
M  V30 415 H 36.4925 0.824663 0.0621342 0
M  V30 416 H 39.0385 1.5767 -0.627556 0
M  V30 417 H 37.8105 3.74533 -1.13316 0
M  V30 418 H 37.4335 3.93473 0.571366 0
M  V30 419 N 38.4306 0.297415 1.54768 0
M  V30 420 C 39.3776 -0.580276 2.23386 0
M  V30 421 C 40.3476 -1.13238 1.21517 0
M  V30 422 O 41.5326 -1.17757 1.50126 0
M  V30 423 C 38.6726 -1.74801 2.97555 0
M  V30 424 C 37.7856 -1.22764 4.1419 0
M  V30 425 C 36.9206 -2.35895 4.75949 0
M  V30 426 C 35.9596 -1.80974 5.84735 0
M  V30 427 N 35.0966 -2.87664 6.40464 0
M  V30 428 H 39.9366 0.0114833 2.97998 0
M  V30 429 H 37.4736 0.0174361 1.4709 0
M  V30 430 H 39.4316 -2.43475 3.38786 0
M  V30 431 H 38.0616 -2.31145 2.25326 0
M  V30 432 H 37.1136 -0.433271 3.77924 0
M  V30 433 H 38.4256 -0.785551 4.92575 0
M  V30 434 H 37.5796 -3.12523 5.20014 0
M  V30 435 H 36.3186 -2.83429 3.96887 0
M  V30 436 H 35.3236 -1.02834 5.40097 0
M  V30 437 H 36.5486 -1.34348 6.65678 0
M  V30 438 H 34.4946 -3.34538 5.64287 0
M  V30 439 H 34.4116 -2.4794 7.14186 0
M  V30 440 H 35.6796 -3.642 6.89187 0
M  V30 441 N 39.9087 -1.5758 0.0250728 0
M  V30 442 C 41.1577 -1.90811 -0.653767 0
M  V30 443 C 41.4707 -0.90273 -1.73523 0
M  V30 444 O 42.6767 -1.12614 -2.47043 0
M  V30 445 C 41.1327 -3.38804 -1.21409 0
M  V30 446 C 40.7407 -4.47692 -0.166126 0
M  V30 447 C 42.4847 -3.81108 -1.86967 0
M  V30 448 C 40.3917 -5.86779 -0.737856 0
M  V30 449 H 39.3217 -0.712063 -0.247956 0
M  V30 450 H 41.9727 -1.83281 0.0897137 0
M  V30 451 H 40.3547 -3.41252 -2.00905 0
M  V30 452 H 41.5287 -4.56797 0.606079 0
M  V30 453 H 39.8437 -4.14565 0.390466 0
M  V30 454 H 42.4407 -4.82375 -2.30692 0
M  V30 455 H 42.7837 -3.15953 -2.71071 0
M  V30 456 H 43.3167 -3.81065 -1.14167 0
M  V30 457 H 40.0557 -6.55468 0.0649577 0
M  V30 458 H 39.5757 -5.81288 -1.47864 0
M  V30 459 H 41.2547 -6.35223 -1.22884 0
M  V30 460 N 41.3868 0.248026 -1.55636 0
M  V30 461 C 42.8028 0.596483 -1.48035 0
M  V30 462 C 43.0028 1.88386 -0.715039 0
M  V30 463 O 42.0588 2.51319 -0.243944 0
M  V30 464 C 43.3718 0.700258 -2.92433 0
M  V30 465 C 44.9198 0.792659 -3.02797 0
M  V30 466 C 45.3948 0.928005 -4.485 0
M  V30 467 N 46.8858 0.992903 -4.52433 0
M  V30 468 C 47.6208 1.11687 -5.62418 0
M  V30 469 N 47.1168 1.20645 -6.82214 0
M  V30 470 N 48.9098 1.14994 -5.50212 0
M  V30 471 H 41.0608 -0.597109 -2.03834 0
M  V30 472 H 43.3238 -0.205925 -0.925364 0
M  V30 473 H 43.0298 -0.175658 -3.51261 0
M  V30 474 H 42.9038 1.57255 -3.42857 0
M  V30 475 H 45.2908 1.65903 -2.4405 0
M  V30 476 H 45.3718 -0.104762 -2.55585 0
M  V30 477 H 45.0158 0.0661971 -5.07857 0
M  V30 478 H 44.9458 1.84045 -4.93391 0
M  V30 479 H 47.4368 0.935064 -3.66149 0
M  V30 480 H 47.7498 1.30008 -7.61786 0
M  V30 481 H 46.0948 1.17605 -6.84977 0
M  V30 482 H 49.2858 1.07643 -4.55555 0
M  V30 483 H 49.4588 1.24311 -6.35965 0
M  V30 484 N 42.8649 1.48995 0.513639 0
M  V30 485 C 43.7969 1.60836 1.63293 0
M  V30 486 C 44.8099 0.491701 1.55197 0
M  V30 487 O 45.9989 0.763238 1.6136 0
M  V30 488 C 43.0989 1.53731 3.02027 0
M  V30 489 C 42.2719 2.80715 3.35437 0
M  V30 490 C 41.3309 2.66837 4.53525 0
M  V30 491 O 40.3569 3.40753 4.55934 0
M  V30 492 N 41.5589 1.77539 5.52684 0
M  V30 493 H 44.3239 2.57366 1.53566 0
M  V30 494 H 41.8849 1.45925 0.701259 0
M  V30 495 H 43.8769 1.42118 3.78926 0
M  V30 496 H 42.4469 0.651092 3.05744 0
M  V30 497 H 41.6669 3.06772 2.47557 0
M  V30 498 H 42.9549 3.64927 3.54551 0
M  V30 499 H 42.3529 1.16719 5.53528 0
M  V30 500 H 40.9099 1.71856 6.28736 0
M  V30 501 N 44.343 -0.763751 1.37857 0
M  V30 502 C 45.589 -1.52396 1.3471 0
M  V30 503 C 45.944 -1.92288 -0.0656435 0
M  V30 504 O 45.237 -1.6181 -1.02606 0
M  V30 505 C 45.431 -2.79499 2.22745 0
M  V30 506 C 45.26 -2.52031 3.72438 0
M  V30 507 C 44.03 -2.45759 4.4151 0
M  V30 508 C 46.228 -2.19489 4.65112 0
M  V30 509 N 44.21 -2.1046 5.76697 0
M  V30 510 C 45.581 -1.94396 5.88736 0
M  V30 511 C 47.636 -2.05712 4.53417 0
M  V30 512 C 46.339 -1.56917 7.01975 0
M  V30 513 C 48.365 -1.69634 5.66549 0
M  V30 514 C 47.727 -1.45407 6.89229 0
M  V30 515 H 43.826 -0.55765 0.548225 0
M  V30 516 H 46.41 -0.890302 1.73152 0
M  V30 517 H 44.581 -3.4069 1.86507 0
M  V30 518 H 46.313 -3.45465 2.10798 0
M  V30 519 H 43.068 -2.61885 3.94605 0
M  V30 520 H 43.492 -1.95484 6.48163 0
M  V30 521 H 48.134 -2.23123 3.59133 0
M  V30 522 H 45.852 -1.38246 7.96187 0
M  V30 523 H 49.438 -1.59621 5.59475 0
M  V30 524 H 48.318 -1.17904 7.75286 0
M  V30 525 N 45.8211 -1.22559 -0.990812 0
M  V30 526 C 47.0671 -1.05297 -1.73322 0
M  V30 527 C 47.4001 0.410655 -1.89808 0
M  V30 528 O 46.6751 1.30439 -1.44277 0
M  V30 529 C 46.9581 -1.76713 -3.13759 0
M  V30 530 C 46.8111 -3.30684 -3.04907 0
M  V30 531 C 48.1301 -1.52121 -4.12974 0
M  V30 532 H 45.2491 -0.38392 -0.629106 0
M  V30 533 H 47.8911 -1.50926 -1.15418 0
M  V30 534 H 46.0411 -1.37924 -3.63193 0
M  V30 535 H 47.7131 -3.7893 -2.63077 0
M  V30 536 H 45.9561 -3.60253 -2.41661 0
M  V30 537 H 46.6271 -3.75833 -4.04294 0
M  V30 538 H 49.1031 -1.85819 -3.72304 0
M  V30 539 H 47.9791 -2.04582 -5.0935 0
M  V30 540 H 48.2401 -0.454257 -4.3976 0
M  V30 541 N 47.2992 1.18797 -1.03562 0
M  V30 542 C 48.2492 2.20161 -0.592724 0
M  V30 543 C 49.2332 1.56772 0.362133 0
M  V30 544 O 50.4252 1.76062 0.182009 0
M  V30 545 C 47.5542 3.43266 0.0481024 0
M  V30 546 C 46.6402 4.13786 -0.9296 0
M  V30 547 N 47.0312 4.60388 -2.09467 0
M  V30 548 C 45.3292 4.39572 -0.754499 0
M  V30 549 C 46.0302 5.14619 -2.71187 0
M  V30 550 N 45.0062 5.05826 -1.991 0
M  V30 551 H 48.8082 2.53877 -1.48066 0
M  V30 552 H 46.3222 1.34946 -0.903514 0
M  V30 553 H 48.3192 4.15136 0.383058 0
M  V30 554 H 46.9792 3.11048 0.931636 0
M  V30 555 H 47.9902 4.54999 -2.47379 0
M  V30 556 H 44.6672 4.17425 0.0793713 0
M  V30 557 H 46.0572 5.60917 -3.69895 0
M  V30 558 N 48.7773 0.814389 1.34928 0
M  V30 559 C 49.7093 0.187834 2.28429 0
M  V30 560 C 50.7223 -0.617374 1.5064 0
M  V30 561 O 51.9113 -0.448454 1.72775 0
M  V30 562 C 49.0113 -0.755962 3.30361 0
M  V30 563 C 48.1843 0.00456686 4.374 0
M  V30 564 C 47.2433 -0.858876 5.19143 0
M  V30 565 O 46.2693 -0.306968 5.68372 0
M  V30 566 N 47.4713 -2.17988 5.38016 0
M  V30 567 H 50.2363 0.991105 2.82838 0
M  V30 568 H 47.7973 0.670561 1.4736 0
M  V30 569 H 49.7893 -1.338 3.81942 0
M  V30 570 H 48.3593 -1.46001 2.7641 0
M  V30 571 H 47.5793 0.767865 3.86649 0
M  V30 572 H 48.8673 0.528422 5.06049 0
M  V30 573 H 48.2653 -2.65212 4.99679 0
M  V30 574 H 46.8223 -2.71098 5.92747 0
M  V30 575 N 50.2554 -1.46986 0.568584 0
M  V30 576 C 51.5044 -2.01646 0.0465894 0
M  V30 577 C 51.8174 -1.44721 -1.31587 0
M  V30 578 O 53.0234 -1.91113 -1.92842 0
M  V30 579 C 51.4794 -3.59885 0.032752 0
M  V30 580 C 51.0874 -4.25804 1.39266 0
M  V30 581 C 52.8314 -4.22255 -0.436038 0
M  V30 582 C 50.7384 -5.76081 1.33732 0
M  V30 583 H 49.6684 -0.753876 0.013647 0
M  V30 584 H 52.3194 -1.68864 0.718131 0
M  V30 585 H 50.7014 -3.8968 -0.704669 0
M  V30 586 H 51.8754 -4.07637 2.1487 0
M  V30 587 H 50.1904 -3.7547 1.80032 0
M  V30 588 H 52.7874 -5.32394 -0.49602 0
M  V30 589 H 53.1304 -3.90212 -1.45053 0
M  V30 590 H 53.6634 -3.97033 0.246877 0
M  V30 591 H 50.4024 -6.12761 2.32817 0
M  V30 592 H 49.9224 -5.96553 0.623267 0
M  V30 593 H 51.6014 -6.38518 1.0442 0
M  V30 594 N 51.7335 -0.305618 -1.54608 0
M  V30 595 C 52.9795 0.302746 -2.00528 0
M  V30 596 C 53.3125 1.53184 -1.19367 0
M  V30 597 O 52.5875 1.92598 -0.271321 0
M  V30 598 C 52.8705 0.654756 -3.54097 0
M  V30 599 C 52.7235 -0.583793 -4.45995 0
M  V30 600 C 54.0425 1.47947 -4.14487 0
M  V30 601 H 51.1615 0.108564 -0.72896 0
M  V30 602 H 53.8035 -0.418634 -1.85331 0
M  V30 603 H 51.9535 1.26935 -3.67178 0
M  V30 604 H 53.6255 -1.22224 -4.44814 0
M  V30 605 H 51.8685 -1.21615 -4.16404 0
M  V30 606 H 52.5395 -0.293287 -5.5122 0
M  V30 607 H 55.0155 0.96013 -4.04871 0
M  V30 608 H 53.8915 1.69454 -5.22088 0
M  V30 609 H 54.1525 2.47011 -3.66658 0
M  V30 610 N 53.2116 1.57565 -0.0334293 0
M  V30 611 C 54.1596 2.1164 0.96496 0
M  V30 612 C 55.1536 1.04398 1.33407 0
M  V30 613 O 56.3596 1.22828 1.3158 0
M  V30 614 H 52.7346 0.676222 0.32898 0
M  V30 615 H 54.7056 2.94455 0.483614 0
M  V30 616 C 53.4546 2.66207 2.23672 0
M  V30 617 H 52.7776 3.48378 1.96145 0
M  V30 618 H 54.2176 3.07685 2.9173 0
M  V30 619 C 52.6766 1.59151 2.96939 0
M  V30 620 O 53.2066 0.993858 3.89211 0
M  V30 621 N 51.4126 1.31093 2.59351 0
M  V30 622 H 50.9596 1.7988 1.84393 0
M  V30 623 H 50.9176 0.596889 3.08682 0
M  V30 624 N 54.6897 -0.239769 1.55765 0
M  V30 625 C 55.9177 -0.98417 1.81994 0
M  V30 626 C 56.3327 -1.7867 0.610124 0
M  V30 627 O 55.6897 -1.77571 -0.421271 0
M  V30 628 C 55.7407 -1.91635 3.06526 0
M  V30 629 O 55.4617 -1.14629 4.22838 0
M  V30 630 C 56.9627 -2.77616 3.45607 0
M  V30 631 H 54.1827 -0.28928 0.605441 0
M  V30 632 H 56.7267 -0.260499 2.02834 0
M  V30 633 H 54.8817 -2.5942 2.87715 0
M  V30 634 H 55.2957 -1.77745 4.93464 0
M  V30 635 H 56.7697 -3.38759 4.35828 0
M  V30 636 H 57.2467 -3.4909 2.6652 0
M  V30 637 H 57.8527 -2.15271 3.66795 0
M  V30 638 N 56.1678 -1.49265 -0.50573 0
M  V30 639 C 57.4168 -1.57761 -1.25675 0
M  V30 640 C 57.7298 -0.267371 -1.93764 0
M  V30 641 O 58.9358 -0.230827 -2.70517 0
M  V30 642 C 57.3918 -2.78332 -2.28165 0
M  V30 643 C 56.9998 -4.16096 -1.66037 0
M  V30 644 C 58.7438 -2.96155 -3.04125 0
M  V30 645 C 56.6508 -5.27895 -2.6661 0
M  V30 646 H 55.5808 -0.587391 -0.472745 0
M  V30 647 H 58.2318 -1.75644 -0.53118 0
M  V30 648 H 56.6138 -2.53934 -3.03865 0
M  V30 649 H 57.7878 -4.50612 -0.963622 0
M  V30 650 H 56.1028 -4.03591 -1.02484 0
M  V30 651 H 58.6998 -3.76849 -3.79327 0
M  V30 652 H 59.0428 -2.06534 -3.61455 0
M  V30 653 H 59.5758 -3.2057 -2.35541 0
M  V30 654 H 56.3148 -6.1956 -2.14068 0
M  V30 655 H 55.8348 -4.97839 -3.34539 0
M  V30 656 H 57.5138 -5.57031 -3.29129 0
M  V30 657 N 57.6459 0.756429 -1.3826 0
M  V30 658 C 58.5939 1.89149 -1.35372 0
M  V30 659 C 59.5879 1.67691 -0.24004 0
M  V30 660 O 60.7939 1.75294 -0.408919 0
M  V30 661 H 57.1689 0.622271 -0.422236 0
M  V30 662 H 59.1399 1.88701 -2.31159 0
M  V30 663 C 57.8889 3.26599 -1.19284 0
M  V30 664 H 57.2119 3.43695 -2.0424 0
M  V30 665 H 58.6519 4.06274 -1.21316 0
M  V30 666 C 57.1109 3.3675 0.100454 0
M  V30 667 O 57.6409 3.86951 1.07851 0
M  V30 668 N 55.8469 2.90179 0.15633 0
M  V30 669 H 55.3939 2.49517 -0.640253 0
M  V30 670 H 55.3519 2.97352 1.02123 0
M  V30 671 N 59.124 1.23083 0.984299 0
M  V30 672 C 60.034 1.02515 2.11016 0
M  V30 673 C 61.05 -0.0291702 1.73976 0
M  V30 674 O 62.226 0.165434 2.00719 0
M  V30 675 C 59.291 0.614673 3.41208 0
M  V30 676 C 58.352 1.74359 3.92297 0
M  V30 677 C 57.585 1.35261 5.16275 0
M  V30 678 O 57.808 0.235136 5.69915 0
M  V30 679 O 56.742 2.17227 5.61334 0
M  V30 680 H 60.568 1.96862 2.31255 0
M  V30 681 H 58.153 1.01753 1.09392 0
M  V30 682 H 60.035 0.396518 4.1953 0
M  V30 683 H 58.71 -0.299851 3.22308 0
M  V30 684 H 57.617 2.01635 3.1511 0
M  V30 685 H 58.95 2.63629 4.15645 0
M  V30 686 N 60.6021 -1.18246 1.0419 0
M  V30 687 C 61.8511 -1.87588 0.741194 0
M  V30 688 C 62.1641 -1.81303 -0.734066 0
M  V30 689 O 63.3701 -2.46019 -1.14834 0
M  V30 690 C 61.8261 -3.36538 1.27555 0
M  V30 691 C 61.4341 -3.51349 2.77953 0
M  V30 692 C 63.1781 -4.11273 1.05143 0
M  V30 693 C 61.0851 -4.94265 3.2474 0
M  V30 694 H 60.0151 -0.702622 0.273565 0
M  V30 695 H 62.6661 -1.33601 1.25789 0
M  V30 696 H 61.0481 -3.9 0.686703 0
M  V30 697 H 62.2221 -3.08153 3.42605 0
M  V30 698 H 60.5371 -2.90022 2.98791 0
M  V30 699 H 63.1341 -5.16689 1.37611 0
M  V30 700 H 63.4771 -4.16298 -0.0112774 0
M  V30 701 H 64.0101 -3.63987 1.60495 0
M  V30 702 H 60.7491 -4.94408 4.30396 0
M  V30 703 H 60.2691 -5.38172 2.64823 0
M  V30 704 H 61.9481 -5.62987 3.18834 0
M  V30 705 N 62.0802 -0.821533 -1.34494 0
M  V30 706 C 63.3102 -0.421272 -2.02259 0
M  V30 707 C 63.7182 0.977047 -1.6202 0
M  V30 708 O 63.0612 1.64348 -0.820703 0
M  V30 709 C 63.1232 -0.44231 -3.56769 0
M  V30 710 C 62.7872 -1.79372 -4.20327 0
M  V30 711 C 63.7842 -2.75435 -4.40944 0
M  V30 712 C 61.4692 -2.08182 -4.57127 0
M  V30 713 C 63.4632 -3.98482 -4.97484 0
M  V30 714 C 61.1502 -3.31489 -5.13379 0
M  V30 715 C 62.1482 -4.26457 -5.33501 0
M  V30 716 O 61.8362 -5.47585 -5.88562 0
M  V30 717 H 61.5682 -0.167473 -0.654927 0
M  V30 718 H 64.1222 -1.11073 -1.72777 0
M  V30 719 H 62.3522 0.303836 -3.85505 0
M  V30 720 H 64.0412 -0.0622925 -4.05852 0
M  V30 721 H 64.8072 -2.54473 -4.12878 0
M  V30 722 H 60.6862 -1.35066 -4.4077 0
M  V30 723 H 64.2302 -4.72618 -5.13106 0
M  V30 724 H 60.1272 -3.52316 -5.40873 0
M  V30 725 H 60.8952 -5.49086 -6.06998 0
M  V30 726 N 63.5583 1.46682 -0.576371 0
M  V30 727 C 64.9743 1.57822 -0.237562 0
M  V30 728 C 65.1743 1.57237 1.26011 0
M  V30 729 O 64.2303 1.48596 2.04146 0
M  V30 730 C 65.5433 2.87499 -0.881168 0
M  V30 731 C 67.0913 3.01119 -0.85417 0
M  V30 732 C 67.5663 4.33524 -1.4772 0
M  V30 733 N 69.0573 4.40207 -1.44125 0
M  V30 734 C 69.7923 5.4126 -1.89276 0
M  V30 735 N 69.2883 6.49021 -2.42371 0
M  V30 736 N 71.0813 5.32422 -1.80231 0
M  V30 737 H 63.2323 1.45306 -1.54919 0
M  V30 738 H 65.4953 0.692733 -0.647167 0
M  V30 739 H 65.2013 2.9372 -1.93447 0
M  V30 740 H 65.0753 3.75224 -0.385592 0
M  V30 741 H 67.4623 2.94485 0.190491 0
M  V30 742 H 67.5433 2.14887 -1.3877 0
M  V30 743 H 67.1873 4.40916 -2.52103 0
M  V30 744 H 67.1173 5.1852 -0.918947 0
M  V30 745 H 69.6083 3.62931 -1.05307 0
M  V30 746 H 69.9213 7.2233 -2.74698 0
M  V30 747 H 68.2663 6.49858 -2.46393 0
M  V30 748 H 71.4573 4.47137 -1.38514 0
M  V30 749 H 71.6303 6.11034 -2.15735 0
M  V30 750 N 65.0364 0.313813 1.54444 0
M  V30 751 C 66.4474 -0.176243 1.85866 0
M  V30 752 C 66.7984 -1.52405 1.23561 0
M  V30 753 O 65.9234 -2.09605 0.538016 0
M  V30 754 C 66.5184 -0.32657 3.37222 0
M  V30 755 C 65.0774 -0.760846 3.6863 0
M  V30 756 C 64.2244 0.123247 2.77026 0
M  V30 757 H 67.1754 0.534418 1.49431 0
M  V30 758 H 67.1964 -1.15908 3.62416 0
M  V30 759 H 66.7084 0.654531 3.82541 0
M  V30 760 H 64.8094 -1.75204 3.28838 0
M  V30 761 H 64.9224 -0.571353 4.75681 0
M  V30 762 H 63.2864 -0.399597 2.51546 0
M  V30 763 H 64.0694 1.10094 3.25168 0
M  V30 764 N 66.5145 -1.57545 0.0417849 0
M  V30 765 C 67.4445 -2.14009 -0.933929 0
M  V30 766 C 68.4255 -1.05938 -1.33083 0
M  V30 767 O 69.6105 -1.33833 -1.40721 0
M  V30 768 C 66.7405 -2.67747 -2.21199 0
M  V30 769 C 65.6945 -3.80718 -1.95544 0
M  V30 770 C 65.0205 -4.20935 -3.29724 0
M  V30 771 C 66.3205 -5.06258 -1.28452 0
M  V30 772 H 68.0145 -2.95788 -0.463645 0
M  V30 773 H 65.5605 -1.42285 -0.221573 0
M  V30 774 H 67.5135 -3.05886 -2.89848 0
M  V30 775 H 66.2375 -1.83147 -2.70416 0
M  V30 776 H 64.8965 -3.43037 -1.2931 0
M  V30 777 H 64.5445 -3.33298 -3.76724 0
M  V30 778 H 64.2445 -4.9707 -3.13361 0
M  V30 779 H 65.7685 -4.61666 -3.9962 0
M  V30 780 H 67.1825 -5.41903 -1.8712 0
M  V30 781 H 65.5795 -5.87475 -1.22445 0
M  V30 782 H 66.6495 -4.84207 -0.259219 0
M  V30 783 N 67.9926 0.231505 -1.5589 0
M  V30 784 C 68.9406 1.30649 -1.92441 0
M  V30 785 C 69.9346 1.49037 -0.805254 0
M  V30 786 O 71.1406 1.50329 -0.990007 0
M  V30 787 H 67.5156 0.437812 -0.611412 0
M  V30 788 H 69.4866 0.970973 -2.82161 0
M  V30 789 C 68.2356 2.65179 -2.24889 0
M  V30 790 H 67.5586 2.51835 -3.10514 0
M  V30 791 H 68.9986 3.39234 -2.54355 0
M  V30 792 C 67.4576 3.19439 -1.07054 0
M  V30 793 O 67.9876 4.00371 -0.326499 0
M  V30 794 N 66.1936 2.77675 -0.85703 0
M  V30 795 H 65.7406 2.11969 -1.46379 0
M  V30 796 H 65.6986 3.14321 -0.0703223 0
M  V30 797 N 69.4707 1.49531 0.497807 0
M  V30 798 C 70.7197 1.58426 1.24837 0
M  V30 799 C 71.0327 0.277643 1.93619 0
M  V30 800 O 72.2387 0.24517 2.70391 0
M  V30 801 C 70.6947 2.79538 2.26686 0
M  V30 802 C 70.3027 4.16971 1.63828 0
M  V30 803 C 72.0467 2.97764 3.0255 0
M  V30 804 C 69.9537 5.29301 2.63807 0
M  V30 805 H 68.8837 0.58989 0.469623 0
M  V30 806 H 71.5347 1.75923 0.521857 0
M  V30 807 H 69.9167 2.55542 3.02514 0
M  V30 808 H 71.0907 4.51116 0.939711 0
M  V30 809 H 69.4057 4.04129 1.00342 0
M  V30 810 H 72.0027 3.78856 3.77323 0
M  V30 811 H 72.3457 2.08448 3.60354 0
M  V30 812 H 72.8787 3.21815 2.33838 0
M  V30 813 H 69.6177 6.20687 2.10779 0
M  V30 814 H 69.1377 4.99606 3.31894 0
M  V30 815 H 70.8167 5.58768 3.2617 0
M  V30 816 N 70.9488 -0.749086 1.3866 0
M  V30 817 C 71.8808 -1.87273 1.32142 0
M  V30 818 C 72.8938 -1.61127 0.232787 0
M  V30 819 O 74.0828 -1.71623 0.49069 0
M  V30 820 C 71.1828 -3.23005 1.02571 0
M  V30 821 C 70.3558 -3.7662 2.22433 0
M  V30 822 C 69.4148 -4.90879 1.89537 0
M  V30 823 O 68.4408 -5.05276 2.62078 0
M  V30 824 N 69.6428 -5.74198 0.853031 0
M  V30 825 H 72.4078 -1.93373 2.28969 0
M  V30 826 H 69.9688 -0.929216 1.32579 0
M  V30 827 H 71.9608 -3.96992 0.786085 0
M  V30 828 H 70.5308 -3.12262 0.145249 0
M  V30 829 H 69.7508 -2.94147 2.62434 0
M  V30 830 H 71.0388 -4.09173 3.02415 0
M  V30 831 H 70.4368 -5.6514 0.25155 0
M  V30 832 H 68.9938 -6.48313 0.67329 0
M  V30 833 N 72.4269 -1.23603 -0.977757 0
M  V30 834 C 73.6739 -1.06971 -1.71941 0
M  V30 835 C 74.0019 0.393009 -1.90488 0
M  V30 836 O 73.2569 1.30719 -1.4564 0
M  V30 837 C 73.5559 -1.7433 -3.11999 0
M  V30 838 C 73.2219 -3.24252 -3.13323 0
M  V30 839 C 71.8839 -3.65156 -3.13392 0
M  V30 840 C 74.2359 -4.20141 -3.08433 0
M  V30 841 C 71.5639 -5.00403 -3.0629 0
M  V30 842 C 73.9159 -5.55384 -3.02873 0
M  V30 843 C 72.5799 -5.95647 -3.01265 0
M  V30 844 H 71.8499 -0.391433 -0.629175 0
M  V30 845 H 74.4969 -1.53572 -1.14403 0
M  V30 846 H 72.8019 -1.20096 -3.7294 0
M  V30 847 H 74.4989 -1.58936 -3.68158 0
M  V30 848 H 71.0889 -2.91692 -3.14029 0
M  V30 849 H 75.2729 -3.89547 -3.07517 0
M  V30 850 H 70.5289 -5.3081 -3.03399 0
M  V30 851 H 74.7029 -6.29398 -2.98046 0
M  V30 852 H 72.3299 -7.0041 -2.95516 0
M  V30 853 N 73.905 1.17692 -1.04816 0
M  V30 854 C 75.133 1.91786 -0.776254 0
M  V30 855 C 75.548 1.76604 0.667577 0
M  V30 856 O 74.905 1.10067 1.45573 0
M  V30 857 C 74.956 3.42967 -1.14263 0
M  V30 858 O 74.677 3.57678 -2.52978 0
M  V30 859 C 76.178 4.34144 -0.896311 0
M  V30 860 H 73.398 0.608624 -0.282519 0
M  V30 861 H 75.942 1.49268 -1.39783 0
M  V30 862 H 74.097 3.83245 -0.565874 0
M  V30 863 H 74.511 4.51319 -2.67229 0
M  V30 864 H 75.985 5.38744 -1.20244 0
M  V30 865 H 76.462 4.38876 0.168636 0
M  V30 866 H 77.068 3.99574 -1.45672 0
M  V30 867 N 75.3831 0.828654 1.34056 0
M  V30 868 C 76.3131 0.269443 2.3194 0
M  V30 869 C 77.2941 -0.617247 1.58506 0
M  V30 870 O 78.4791 -0.542931 1.86456 0
M  V30 871 C 75.6091 -0.564793 3.42677 0
M  V30 872 C 74.5631 0.225241 4.27407 0
M  V30 873 C 73.8891 -0.7321 5.29664 0
M  V30 874 C 75.1891 1.43663 5.02154 0
M  V30 875 H 76.8831 1.08728 2.7896 0
M  V30 876 H 74.4291 0.524283 1.34117 0
M  V30 877 H 76.3821 -0.966233 4.10173 0
M  V30 878 H 75.1061 -1.41574 2.9432 0
M  V30 879 H 73.7651 0.608117 3.61521 0
M  V30 880 H 73.4131 -1.57916 4.77568 0
M  V30 881 H 73.1131 -0.20767 5.87233 0
M  V30 882 H 74.6371 -1.13128 6.00029 0
M  V30 883 H 76.0511 1.1089 5.62473 0
M  V30 884 H 74.4481 1.89711 5.69324 0
M  V30 885 H 75.5181 2.21181 4.31517 0
M  V30 886 N 76.8612 -1.46375 0.584142 0
M  V30 887 C 78.1072 -2.02678 0.0703716 0
M  V30 888 C 78.4402 -1.4545 -1.28678 0
M  V30 889 O 77.7152 -0.62014 -1.84349 0
M  V30 890 C 77.9982 -3.60099 0.00614674 0
M  V30 891 C 77.8512 -4.27709 1.3923 0
M  V30 892 C 79.1702 -4.34598 -0.693742 0
M  V30 893 H 76.2892 -0.736504 0.027047 0
M  V30 894 H 78.9312 -1.74501 0.751615 0
M  V30 895 H 77.0812 -3.84236 -0.574009 0
M  V30 896 H 78.7532 -4.14832 2.01773 0
M  V30 897 H 76.9962 -3.87016 1.95962 0
M  V30 898 H 77.6672 -5.36478 1.29982 0
M  V30 899 H 80.1432 -4.15615 -0.200869 0
M  V30 900 H 79.0192 -5.44318 -0.707714 0
M  V30 901 H 79.2802 -4.05759 -1.75533 0
M  V30 902 N 78.3393 -0.321999 -1.54275 0
M  V30 903 C 79.5873 0.280489 -2.00144 0
M  V30 904 C 79.9083 1.52777 -1.21178 0
M  V30 905 O 79.1783 1.9338 -0.313187 0
M  V30 906 H 77.7583 0.106632 -0.73935 0
M  V30 907 H 80.4203 -0.438184 -1.8991 0
M  V30 908 H 79.5163 0.537972 -3.07428 0
M  V30 909 N 79.8174 1.5752 -0.0501392 0
M  V30 910 C 80.7474 2.14502 0.922566 0
M  V30 911 C 81.7284 1.06642 1.3252 0
M  V30 912 O 82.9134 1.34577 1.4001 0
M  V30 913 C 80.0434 2.68916 2.19776 0
M  V30 914 C 78.9974 3.8175 1.93523 0
M  V30 915 C 78.3234 4.22677 3.27487 0
M  V30 916 C 79.6234 5.06932 1.25765 0
M  V30 917 H 81.3174 2.9603 0.447952 0
M  V30 918 H 78.8634 1.42401 0.214024 0
M  V30 919 H 80.8164 3.07419 2.88222 0
M  V30 920 H 79.5404 1.84578 2.69441 0
M  V30 921 H 78.1994 3.43718 1.27489 0
M  V30 922 H 77.8474 3.35291 3.74952 0
M  V30 923 H 77.5474 4.98725 3.1072 0
M  V30 924 H 79.0714 4.63779 3.97166 0
M  V30 925 H 80.4854 5.42888 1.84244 0
M  V30 926 H 78.8824 5.88116 1.19328 0
M  V30 927 H 79.9524 4.84337 0.233536 0
M  V30 928 N 81.2955 -0.223234 1.56011 0
M  V30 929 C 82.2055 -1.29766 1.95443 0
M  V30 930 C 83.2215 -1.51373 0.858028 0
M  V30 931 O 84.3975 -1.64536 1.16146 0
M  V30 932 C 81.4625 -2.62772 2.26167 0
M  V30 933 C 80.5235 -2.49482 3.49367 0
M  V30 934 C 79.7565 -3.76145 3.78616 0
M  V30 935 O 79.9795 -4.79087 3.09568 0
M  V30 936 O 78.9135 -3.73358 4.72109 0
M  V30 937 H 82.7395 -0.99309 2.87004 0
M  V30 938 H 80.3245 -0.425958 1.43199 0
M  V30 939 H 82.2065 -3.41327 2.47131 0
M  V30 940 H 80.8815 -2.92913 1.37781 0
M  V30 941 H 79.7885 -1.69133 3.33684 0
M  V30 942 H 81.1215 -2.2428 4.38131 0
M  V30 943 N 82.7736 -1.49793 -0.48987 0
M  V30 944 C 84.0226 -1.59085 -1.23995 0
M  V30 945 C 84.3356 -0.287907 -1.9347 0
M  V30 946 O 85.5416 -0.259506 -2.70257 0
M  V30 947 C 83.9976 -2.80736 -2.252 0
M  V30 948 C 83.6056 -4.17833 -1.61614 0
M  V30 949 C 85.3496 -2.99364 -3.00967 0
M  V30 950 C 83.2566 -5.30693 -2.60996 0
M  V30 951 H 82.1866 -0.592372 -0.466488 0
M  V30 952 H 84.8376 -1.76197 -0.51252 0
M  V30 953 H 83.2196 -2.57142 -3.01154 0
M  V30 954 H 84.3936 -4.51608 -0.915774 0
M  V30 955 H 82.7086 -4.04656 -0.981977 0
M  V30 956 H 85.3056 -3.80851 -3.75308 0
M  V30 957 H 85.6486 -2.10356 -3.59244 0
M  V30 958 H 86.1816 -3.2305 -2.32128 0
M  V30 959 H 82.9206 -6.21796 -2.07485 0
M  V30 960 H 82.4406 -5.01359 -3.2924 0
M  V30 961 H 84.1196 -5.6049 -3.23202 0
M  V30 962 N 84.2517 0.741722 -1.39055 0
M  V30 963 C 85.4977 1.50234 -1.37118 0
M  V30 964 C 85.8527 1.92368 0.0350439 0
M  V30 965 O 85.1457 1.63422 1.00019 0
M  V30 966 C 85.3397 2.7592 -2.27163 0
M  V30 967 C 85.1687 2.46074 -3.76401 0
M  V30 968 C 83.9387 2.38704 -4.45364 0
M  V30 969 C 86.1367 2.12062 -4.68545 0
M  V30 970 N 84.1187 2.01258 -5.79973 0
M  V30 971 C 85.4897 1.85005 -5.91754 0
M  V30 972 C 87.5447 1.98473 -4.56632 0
M  V30 973 C 86.2477 1.4573 -7.04383 0
M  V30 974 C 88.2737 1.60599 -5.69176 0
M  V30 975 C 87.6357 1.34423 -6.91455 0
M  V30 976 H 83.7347 0.548858 -0.557027 0
M  V30 977 H 86.3187 0.862642 -1.74547 0
M  V30 978 H 84.4897 3.3768 -1.91904 0
M  V30 979 H 86.2217 3.42068 -2.16267 0
M  V30 980 H 82.9767 2.55574 -3.98721 0
M  V30 981 H 83.4007 1.85147 -6.51191 0
M  V30 982 H 88.0427 2.17381 -3.62637 0
M  V30 983 H 85.7607 1.25562 -7.98286 0
M  V30 984 H 89.3467 1.507 -5.61944 0
M  V30 985 H 88.2267 1.05555 -7.77064 0
M  V30 986 N 85.7298 1.2412 0.971189 0
M  V30 987 C 86.9548 1.10667 1.75407 0
M  V30 988 C 87.3798 -0.337048 1.85056 0
M  V30 989 O 86.7378 -1.24396 1.31892 0
M  V30 990 C 86.7858 1.74726 3.15441 0
M  V30 991 O 85.8898 1.01566 3.99697 0
M  V30 992 H 85.2308 0.387341 0.539317 0
M  V30 993 H 87.7608 1.64358 1.2185 0
M  V30 994 H 87.7708 1.80341 3.6598 0
M  V30 995 H 86.4458 2.79773 3.07734 0
M  V30 996 H 85.0228 1.03713 3.58187 0
M  V30 997 N 87.2079 -1.17134 1.05439 0
M  V30 998 C 88.1559 -2.23289 0.651511 0
M  V30 999 C 89.1499 -1.66186 -0.328411 0
M  V30 1000 O 90.3559 -1.78949 -0.194206 0
M  V30 1001 H 86.7309 -0.726938 0.192523 0
M  V30 1002 H 88.7019 -2.54565 1.55689 0
M  V30 1003 C 87.4509 -3.47671 0.0448436 0
M  V30 1004 H 86.7739 -3.91918 0.78996 0
M  V30 1005 H 88.2139 -4.2353 -0.19964 0
M  V30 1006 C 86.6729 -3.14453 -1.20918 0
M  V30 1007 O 87.2029 -3.29459 -2.29825 0
M  V30 1008 N 85.4089 -2.68657 -1.10779 0
M  V30 1009 H 84.9559 -2.56646 -0.221526 0
M  V30 1010 H 84.9139 -2.46804 -1.9477 0
M  V30 1011 N 88.686 -0.835752 -1.33615 0
M  V30 1012 C 89.618 -0.224151 -2.28101 0
M  V30 1013 C 90.631 0.593331 -1.51603 0
M  V30 1014 O 91.82 0.420911 -1.73466 0
M  V30 1015 C 88.92 0.703309 -3.31522 0
M  V30 1016 C 88.093 -0.0741528 -4.37337 0
M  V30 1017 C 87.152 0.776176 -5.20444 0
M  V30 1018 O 86.178 0.216506 -5.68788 0
M  V30 1019 N 87.38 2.09401 -5.41416 0
M  V30 1020 H 90.145 -1.03598 -2.81225 0
M  V30 1021 H 87.706 -0.69392 -1.46275 0
M  V30 1022 H 89.698 1.27707 -3.84022 0
M  V30 1023 H 88.268 1.41585 -2.78698 0
M  V30 1024 H 87.488 -0.82928 -3.85378 0
M  V30 1025 H 88.776 -0.608863 -5.05144 0
M  V30 1026 H 88.174 2.57229 -5.03835 0
M  V30 1027 H 86.731 2.61633 -5.96985 0
M  V30 1028 N 90.1641 1.46063 -0.591896 0
M  V30 1029 C 91.4411 1.95595 -0.0137119 0
M  V30 1030 C 91.8211 1.5345 1.4497 0
M  V30 1031 O 91.1691 0.789543 2.14426 0
M  V30 1032 C 91.3791 3.48453 -0.195373 0
M  V30 1033 C 92.7271 4.24546 -0.0679765 0
M  V30 1034 O 93.7511 3.55982 -0.124681 0
M  V30 1035 O 92.6101 5.46467 0.0600579 0
M  V30 1036 H 89.7041 0.825795 0.0446279 0
M  V30 1037 H 92.2501 1.56303 -0.660859 0
M  V30 1038 H 91.0221 3.72045 -1.21235 0
M  V30 1039 H 90.6451 3.94597 0.487775 0
M  V30 1040 N 91.6422 0.330177 1.54103 0
M  V30 1041 C 92.5722 -0.525353 2.27513 0
M  V30 1042 C 93.5532 -1.11383 1.2856 0
M  V30 1043 O 94.7382 -1.13773 1.57383 0
M  V30 1044 C 91.8682 -1.6831 3.03791 0
M  V30 1045 C 90.8222 -1.2236 4.10137 0
M  V30 1046 C 90.1482 -2.46882 4.74293 0
M  V30 1047 C 91.4482 -0.333697 5.21233 0
M  V30 1048 H 93.1422 0.087013 2.99274 0
M  V30 1049 H 90.6882 0.0432893 1.43935 0
M  V30 1050 H 92.6412 -2.28795 3.5388 0
M  V30 1051 H 91.3652 -2.32216 2.29659 0
M  V30 1052 H 90.0242 -0.64165 3.60941 0
M  V30 1053 H 89.6722 -3.09165 3.96769 0
M  V30 1054 H 89.3722 -2.16825 5.46133 0
M  V30 1055 H 90.8962 -3.08117 5.27159 0
M  V30 1056 H 92.3102 -0.845013 5.67038 0
M  V30 1057 H 90.7072 -0.125612 5.99969 0
M  V30 1058 H 91.7772 0.633724 4.80741 0
M  V30 1059 N 93.1203 -1.57491 0.0584922 0
M  V30 1060 C 94.3693 -1.92155 -0.613146 0
M  V30 1061 C 94.6823 -0.939334 -1.71569 0
M  V30 1062 O 95.8883 -1.17829 -2.44599 0
M  V30 1063 C 94.3443 -3.41303 -1.14195 0
M  V30 1064 C 93.9523 -4.47944 -0.0711265 0
M  V30 1065 C 95.6963 -3.84988 -1.78841 0
M  V30 1066 C 93.6033 -5.88212 -0.613225 0
M  V30 1067 H 92.5333 -0.717162 -0.232796 0
M  V30 1068 H 95.1843 -1.83049 0.12857 0
M  V30 1069 H 93.5663 -3.45437 -1.93621 0
M  V30 1070 H 94.7403 -4.55408 0.702836 0
M  V30 1071 H 93.0553 -4.13644 0.478313 0
M  V30 1072 H 95.6523 -4.87159 -2.20408 0
M  V30 1073 H 95.9953 -3.21632 -2.64308 0
M  V30 1074 H 96.5283 -3.83401 -1.06059 0
M  V30 1075 H 93.2673 -6.55183 0.203978 0
M  V30 1076 H 92.7873 -5.84294 -1.35501 0
M  V30 1077 H 94.4663 -6.37687 -1.09383 0
M  V30 1078 N 94.5984 0.214957 -1.56127 0
M  V30 1079 C 95.8264 0.955092 -1.83536 0
M  V30 1080 C 96.2414 1.77677 -0.638472 0
M  V30 1081 O 95.5984 1.78219 0.392968 0
M  V30 1082 C 95.6494 1.86734 -3.09536 0
M  V30 1083 O 95.3704 1.07887 -4.24608 0
M  V30 1084 C 96.8714 2.72082 -3.4998 0
M  V30 1085 H 94.0914 0.279611 -0.609966 0
M  V30 1086 H 96.6354 0.228197 -2.03223 0
M  V30 1087 H 94.7904 2.5481 -2.91806 0
M  V30 1088 H 95.2044 1.69872 -4.9623 0
M  V30 1089 H 96.6784 3.31782 -4.41163 0
M  V30 1090 H 97.1554 3.44806 -2.7204 0
M  V30 1091 H 97.7614 2.09409 -3.70173 0
M  V30 1092 N 96.0765 1.50051 0.48192 0
M  V30 1093 C 97.3225 1.60736 1.2366 0
M  V30 1094 C 97.6555 0.301786 1.91841 0
M  V30 1095 O 96.9305 -0.696025 1.8162 0
M  V30 1096 C 97.2135 2.78009 2.28874 0
M  V30 1097 C 97.0665 4.18416 1.65069 0
M  V30 1098 C 98.3855 2.90867 3.30279 0
M  V30 1099 H 95.5045 0.585031 0.448228 0
M  V30 1100 H 98.1465 1.82402 0.531946 0
M  V30 1101 H 96.2965 2.59667 2.88973 0
M  V30 1102 H 97.9685 4.48322 1.0865 0
M  V30 1103 H 96.2115 4.23177 0.954148 0
M  V30 1104 H 96.8825 4.96381 2.41474 0
M  V30 1105 H 99.3585 3.07623 2.80191 0
M  V30 1106 H 98.2345 3.74566 4.01238 0
M  V30 1107 H 98.4955 2.01021 3.93755 0
M  V30 1108 N 97.5546 -0.734337 1.39446 0
M  V30 1109 C 98.7826 -1.52358 1.39981 0
M  V30 1110 C 99.1976 -1.88799 -0.0054975 0
M  V30 1111 O 98.5546 -1.54146 -0.976998 0
M  V30 1112 C 98.6056 -2.81072 2.27333 0
M  V30 1113 O 98.3266 -2.46178 3.62392 0
M  V30 1114 C 99.8276 -3.75096 2.36259 0
M  V30 1115 H 97.0476 -0.470806 0.478103 0
M  V30 1116 H 99.5916 -0.907339 1.83269 0
M  V30 1117 H 97.7466 -3.39026 1.87457 0
M  V30 1118 H 98.1606 -3.28866 4.08592 0
M  V30 1119 H 99.6346 -4.62305 3.01626 0
M  V30 1120 H 100.112 -4.16892 1.38194 0
M  V30 1121 H 100.718 -3.23061 2.76608 0
M  V30 1122 N 99.0327 -1.24633 -0.964593 0
M  V30 1123 C 100.258 -1.11596 -1.74818 0
M  V30 1124 C 100.683 0.32723 -1.85232 0
M  V30 1125 O 100.041 1.23695 -1.32549 0
M  V30 1126 C 100.089 -1.76397 -3.1451 0
M  V30 1127 O 99.1927 -1.03685 -3.99153 0
M  V30 1128 H 98.5337 -0.390196 -0.537255 0
M  V30 1129 H 101.064 -1.65002 -1.20977 0
M  V30 1130 H 101.074 -1.8228 -3.65018 0
M  V30 1131 H 99.7487 -2.81401 -3.06246 0
M  V30 1132 H 98.3257 -1.05611 -3.57632 0
M  V30 1133 N 100.511 1.16574 -1.06058 0
M  V30 1134 C 101.757 1.87324 -0.777022 0
M  V30 1135 C 102.09 1.81351 0.694645 0
M  V30 1136 O 101.365 1.22753 1.50871 0
M  V30 1137 C 101.648 3.36991 -1.26922 0
M  V30 1138 C 101.501 3.51667 -2.80447 0
M  V30 1139 C 102.82 4.3131 -0.87521 0
M  V30 1140 H 99.9388 0.680191 -0.28374 0
M  V30 1141 H 102.581 1.37036 -1.3161 0
M  V30 1142 H 100.731 3.79949 -0.81063 0
M  V30 1143 H 102.403 3.17664 -3.34495 0
M  V30 1144 H 100.646 2.93656 -3.19294 0
M  V30 1145 H 101.317 4.56766 -3.0995 0
M  V30 1146 H 103.793 3.9624 -1.27014 0
M  V30 1147 H 102.669 5.34545 -1.2471 0
M  V30 1148 H 102.93 4.41552 0.220071 0
M  V30 1149 N 101.989 0.842826 1.3317 0
M  V30 1150 C 103.214 0.453129 2.02389 0
M  V30 1151 C 103.639 -0.939105 1.6298 0
M  V30 1152 O 102.997 -1.61472 0.8244 0
M  V30 1153 C 103.045 0.586094 3.55805 0
M  V30 1154 O 102.149 -0.386029 4.10589 0
M  V30 1155 H 101.49 0.183664 0.638094 0
M  V30 1156 H 104.02 1.13875 1.69981 0
M  V30 1157 H 104.03 0.469209 4.05293 0
M  V30 1158 H 102.705 1.6014 3.83833 0
M  V30 1159 H 101.282 -0.226371 3.72212 0
M  V30 1160 N 103.467 -1.45747 0.599634 0
M  V30 1161 C 104.417 -2.27538 -0.145107 0
M  V30 1162 C 105.401 -1.3686 -0.846055 0
M  V30 1163 O 106.593 -1.6091 -0.737357 0
M  V30 1164 C 103.722 -3.23569 -1.14708 0
M  V30 1165 C 102.808 -4.21734 -0.447383 0
M  V30 1166 N 103.199 -5.03257 0.506535 0
M  V30 1167 C 101.497 -4.40536 -0.695966 0
M  V30 1168 C 102.198 -5.74426 0.917068 0
M  V30 1169 N 101.174 -5.42966 0.26253 0
M  V30 1170 H 104.976 -2.87965 0.587672 0
M  V30 1171 H 102.49 -1.56803 0.422697 0
M  V30 1172 H 104.487 -3.8089 -1.69495 0
M  V30 1173 H 103.147 -2.64702 -1.8805 0
M  V30 1174 H 104.158 -5.10319 0.882899 0
M  V30 1175 H 100.835 -3.92802 -1.41467 0
M  V30 1176 H 102.225 -6.4995 1.70338 0
M  V30 1177 N 104.945 -0.338344 -1.53925 0
M  V30 1178 C 106.222 0.314774 -1.93051 0
M  V30 1179 C 106.602 1.68669 -1.26941 0
M  V30 1180 O 105.95 2.24636 -0.418445 0
M  V30 1181 C 106.16 0.392249 -3.46789 0
M  V30 1182 C 107.508 0.645554 -4.19664 0
M  V30 1183 O 108.532 0.474575 -3.53024 0
M  V30 1184 O 107.391 0.976408 -5.37707 0
M  V30 1185 H 104.485 0.182598 -0.80659 0
M  V30 1186 H 107.031 -0.389141 -1.65178 0
M  V30 1187 H 105.803 -0.570702 -3.87116 0
M  V30 1188 H 105.426 1.14316 -3.80812 0
M  V30 1189 N 106.423 1.57458 -0.0668435 0
M  V30 1190 C 107.651 1.97624 0.612565 0
M  V30 1191 C 108.066 0.94502 1.63447 0
M  V30 1192 O 107.423 -0.0689276 1.8237 0
M  V30 1193 C 107.474 3.37869 1.28555 0
M  V30 1194 O 107.195 4.3704 0.304557 0
M  V30 1195 C 108.696 3.92882 2.05325 0
M  V30 1196 H 105.916 0.650045 0.166381 0
M  V30 1197 H 108.46 2.04035 -0.137782 0
M  V30 1198 H 106.615 3.3256 1.98702 0
M  V30 1199 H 107.029 5.18565 0.786779 0
M  V30 1200 H 108.503 4.93247 2.47812 0
M  V30 1201 H 108.98 3.29156 2.9078 0
M  V30 1202 H 109.586 4.01577 1.40056 0
M  V30 1203 N 107.901 -0.206675 1.56239 0
M  V30 1204 C 108.831 -1.25909 1.96645 0
M  V30 1205 C 109.812 -1.48097 0.836734 0
M  V30 1206 O 110.997 -1.6003 1.10019 0
M  V30 1207 C 108.127 -2.6058 2.29599 0
M  V30 1208 C 107.081 -2.53024 3.452 0
M  V30 1209 C 106.407 -3.91861 3.63798 0
M  V30 1210 C 107.707 -2.06524 4.79734 0
M  V30 1211 H 109.401 -0.923369 2.84806 0
M  V30 1212 H 106.947 -0.442735 1.37025 0
M  V30 1213 H 108.9 -3.34375 2.56459 0
M  V30 1214 H 107.624 -2.95869 1.38307 0
M  V30 1215 H 106.283 -1.81684 3.18412 0
M  V30 1216 H 105.931 -4.24483 2.69857 0
M  V30 1217 H 105.631 -3.87683 4.4156 0
M  V30 1218 H 107.155 -4.67296 3.93022 0
M  V30 1219 H 108.569 -2.70072 5.05702 0
M  V30 1220 H 106.966 -2.13374 5.60885 0
M  V30 1221 H 108.036 -1.01802 4.74093 0
M  V30 1222 N 109.379 -1.50304 -0.473955 0
M  V30 1223 C 110.342 -1.6841 -1.55469 0
M  V30 1224 C 111.342 -0.554905 -1.50922 0
M  V30 1225 O 112.532 -0.821882 -1.53593 0
M  V30 1226 C 109.664 -1.70667 -2.95102 0
M  V30 1227 H 110.857 -2.64828 -1.40733 0
M  V30 1228 H 108.41 -1.39742 -0.700132 0
M  V30 1229 H 109.145 -0.75932 -3.15285 0
M  V30 1230 H 108.93 -2.52698 -2.9981 0
M  V30 1231 H 110.42 -1.8664 -3.73571 0
M  V30 1232 N 110.857 0.726932 -1.39834 0
M  V30 1233 C 112.082 1.52121 -1.40976 0
M  V30 1234 C 112.507 1.88098 -0.00826029 0
M  V30 1235 O 111.865 1.52479 0.980807 0
M  V30 1236 C 111.913 2.78021 -2.29644 0
M  V30 1237 O 111.017 3.74272 -1.73188 0
M  V30 1238 H 110.358 0.45908 -0.479731 0
M  V30 1239 H 112.888 0.896207 -1.83927 0
M  V30 1240 H 112.898 3.26671 -2.44438 0
M  V30 1241 H 111.573 2.51169 -3.31492 0
M  V30 1242 H 110.15 3.33073 -1.6768 0
M  V30 1243 N 112.336 1.25143 0.95797 0
M  V30 1244 C 113.583 1.09692 1.70217 0
M  V30 1245 C 113.911 -0.362654 1.91089 0
M  V30 1246 O 113.166 -1.28386 1.47701 0
M  V30 1247 C 113.465 1.79272 3.09187 0
M  V30 1248 C 113.131 3.29196 3.08125 0
M  V30 1249 C 111.793 3.70096 3.07543 0
M  V30 1250 C 114.145 4.24995 3.0171 0
M  V30 1251 C 111.473 5.05213 2.9829 0
M  V30 1252 C 113.825 5.60132 2.93999 0
M  V30 1253 C 112.489 6.00365 2.9175 0
M  V30 1254 H 111.759 0.401393 0.622868 0
M  V30 1255 H 114.406 1.55372 1.11945 0
M  V30 1256 H 112.711 1.26014 3.70982 0
M  V30 1257 H 114.408 1.64773 3.65583 0
M  V30 1258 H 110.998 2.96651 3.09348 0
M  V30 1259 H 115.182 3.9439 3.01281 0
M  V30 1260 H 110.438 5.35569 2.94916 0
M  V30 1261 H 114.612 6.3406 2.87996 0
M  V30 1262 H 112.239 7.05023 2.84336 0
M  V30 1263 N 113.814 -1.1601 1.06675 0
M  V30 1264 C 115.062 -1.86264 0.784229 0
M  V30 1265 C 115.383 -1.82328 -0.691488 0
M  V30 1266 O 114.653 -1.25947 -1.50047 0
M  V30 1267 H 113.233 -0.689621 0.28711 0
M  V30 1268 H 115.895 -1.40664 1.34906 0
M  V30 1269 H 114.991 -2.91595 1.11259 0
M  V30 1270 N 115.292 -0.849877 -1.32721 0
M  V30 1271 C 116.24 -0.279745 -2.30912 0
M  V30 1272 C 117.234 0.594278 -1.58634 0
M  V30 1273 O 118.44 0.482613 -1.73409 0
M  V30 1274 H 114.815 -0.0717521 -0.748569 0
M  V30 1275 H 116.786 -1.12222 -2.76494 0
M  V30 1276 C 115.535 0.521108 -3.43773 0
M  V30 1277 H 114.858 -0.142141 -3.99547 0
M  V30 1278 H 116.298 0.885693 -4.14646 0
M  V30 1279 C 114.757 1.70442 -2.90605 0
M  V30 1280 O 115.287 2.8034 -2.87702 0
M  V30 1281 N 113.493 1.52991 -2.47067 0
M  V30 1282 H 113.04 0.635914 -2.49628 0
M  V30 1283 H 112.998 2.32311 -2.11847 0
M  V30 1284 N 116.77 1.45427 -0.607355 0
M  V30 1285 C 118.016 2.03097 -0.111035 0
M  V30 1286 C 118.371 1.46735 1.24445 0
M  V30 1287 O 117.664 0.632478 1.8086 0
M  V30 1288 C 117.858 3.57398 -0.0129263 0
M  V30 1289 C 117.687 4.28726 -1.35735 0
M  V30 1290 C 116.457 4.66659 -1.93798 0
M  V30 1291 C 118.655 4.60699 -2.28607 0
M  V30 1292 N 116.637 5.22845 -3.21723 0
M  V30 1293 C 118.008 5.17716 -3.41131 0
M  V30 1294 C 120.063 4.42638 -2.27982 0
M  V30 1295 C 118.766 5.58576 -4.53194 0
M  V30 1296 C 120.792 4.84531 -3.39093 0
M  V30 1297 C 120.154 5.4164 -4.50339 0
M  V30 1298 H 116.253 0.777476 -0.083994 0
M  V30 1299 H 118.837 1.77249 -0.805655 0
M  V30 1300 H 117.008 3.82907 0.650914 0
M  V30 1301 H 118.74 4.01722 0.490033 0
M  V30 1302 H 115.495 4.50207 -1.47007 0
M  V30 1303 H 115.919 5.55438 -3.87063 0
M  V30 1304 H 120.561 3.97798 -1.43235 0
M  V30 1305 H 118.279 6.02382 -5.38667 0
M  V30 1306 H 121.865 4.72289 -3.39757 0
M  V30 1307 H 120.745 5.73461 -5.34895 0
M  V30 1308 N 118.248 0.346503 1.53744 0
M  V30 1309 C 119.664 -0.00530975 1.59599 0
M  V30 1310 C 119.864 -1.48465 1.36236 0
M  V30 1311 O 118.92 -2.24376 1.15808 0
M  V30 1312 C 120.233 0.433516 2.97559 0
M  V30 1313 C 121.781 0.386111 3.10609 0
M  V30 1314 C 122.256 0.800451 4.50951 0
M  V30 1315 N 123.747 0.754753 4.5701 0
M  V30 1316 C 124.482 1.04727 5.63755 0
M  V30 1317 N 123.978 1.4081 6.7834 0
M  V30 1318 N 125.771 0.971316 5.53644 0
M  V30 1319 H 117.922 1.31009 1.67184 0
M  V30 1320 H 120.185 0.534242 0.783128 0
M  V30 1321 H 119.891 1.46509 3.19731 0
M  V30 1322 H 119.765 -0.189753 3.76722 0
M  V30 1323 H 122.152 -0.636295 2.88158 0
M  V30 1324 H 122.233 1.04462 2.33498 0
M  V30 1325 H 121.877 1.82088 4.74137 0
M  V30 1326 H 121.807 0.119386 5.26465 0
M  V30 1327 H 124.298 0.488662 3.74727 0
M  V30 1328 H 124.611 1.61607 7.55714 0
M  V30 1329 H 122.956 1.44657 6.79779 0
M  V30 1330 H 126.147 0.688748 4.63005 0
M  V30 1331 H 126.32 1.20263 6.36742 0
M  V30 1332 N 119.726 -1.57421 0.075193 0
M  V30 1333 C 120.636 -2.1642 -0.905511 0
M  V30 1334 C 121.652 -1.12828 -1.32461 0
M  V30 1335 O 122.828 -1.45109 -1.39661 0
M  V30 1336 C 119.893 -2.71693 -2.15369 0
M  V30 1337 C 118.954 -3.90171 -1.79068 0
M  V30 1338 C 118.187 -4.42798 -2.97936 0
M  V30 1339 O 118.41 -3.94416 -4.12058 0
M  V30 1340 O 117.344 -5.34085 -2.77555 0
M  V30 1341 H 121.17 -3.00588 -0.433626 0
M  V30 1342 H 118.755 -1.48664 -0.148067 0
M  V30 1343 H 120.637 -3.07104 -2.88557 0
M  V30 1344 H 119.312 -1.90582 -2.61649 0
M  V30 1345 H 118.219 -3.59606 -1.03122 0
M  V30 1346 H 119.552 -4.72584 -1.37569 0
M  V30 1347 N 121.204 0.198386 -1.56346 0
M  V30 1348 C 122.432 0.935572 -1.84539 0
M  V30 1349 C 122.847 1.76989 -0.657281 0
M  V30 1350 O 122.204 1.78626 0.374043 0
M  V30 1351 C 122.255 1.8344 -3.11499 0
M  V30 1352 O 121.976 1.03377 -4.25728 0
M  V30 1353 C 123.477 2.68355 -3.52846 0
M  V30 1354 H 120.697 0.273126 -0.612897 0
M  V30 1355 H 123.241 0.20663 -2.03453 0
M  V30 1356 H 121.396 2.51701 -2.94492 0
M  V30 1357 H 121.81 1.64599 -4.98003 0
M  V30 1358 H 123.284 3.27085 -4.44657 0
M  V30 1359 H 123.761 3.41901 -2.75681 0
M  V30 1360 H 124.367 2.05471 -3.72373 0
M  V30 1361 N 122.682 1.50554 0.465978 0
M  V30 1362 C 123.959 1.5232 1.22712 0
M  V30 1363 C 124.339 0.270807 2.09356 0
M  V30 1364 O 123.687 -0.745541 2.15995 0
M  V30 1365 C 123.897 2.82175 2.05374 0
M  V30 1366 C 125.245 3.33033 2.6339 0
M  V30 1367 O 126.269 2.83531 2.15612 0
M  V30 1368 O 125.128 4.19336 3.50456 0
M  V30 1369 H 122.222 0.611183 0.557122 0
M  V30 1370 H 124.768 1.62847 0.477381 0
M  V30 1371 H 123.54 3.64797 1.41558 0
M  V30 1372 H 123.163 2.74675 2.87471 0
M  V30 1373 N 124.16 -0.719506 1.40217 0
M  V30 1374 C 125.09 -1.8465 1.42922 0
M  V30 1375 C 126.071 -1.67599 0.29062 0
M  V30 1376 O 127.256 -1.87688 0.498677 0
M  V30 1377 C 124.386 -3.22565 1.28722 0
M  V30 1378 C 123.34 -3.54281 2.40144 0
M  V30 1379 C 122.666 -4.91298 2.11023 0
M  V30 1380 C 123.966 -3.55676 3.82481 0
M  V30 1381 H 125.66 -1.82644 2.37237 0
M  V30 1382 H 123.206 -0.877305 1.1419 0
M  V30 1383 H 125.159 -4.01095 1.29232 0
M  V30 1384 H 123.883 -3.25137 0.308811 0
M  V30 1385 H 122.542 -2.78088 2.38877 0
M  V30 1386 H 122.19 -4.90468 1.11582 0
M  V30 1387 H 121.89 -5.13485 2.8567 0
M  V30 1388 H 123.414 -5.72166 2.13209 0
M  V30 1389 H 124.828 -4.24254 3.85592 0
M  V30 1390 H 123.225 -3.89388 4.56614 0
M  V30 1391 H 124.295 -2.55144 4.12346 0
M  V30 1392 N 125.638 -1.25649 -0.95132 0
M  V30 1393 C 126.568 -1.08808 -2.06599 0
M  V30 1394 C 127.549 0.00382547 -1.701 0
M  V30 1395 O 128.734 -0.166325 -1.93486 0
M  V30 1396 C 125.864 -0.709542 -3.39975 0
M  V30 1397 C 124.818 -1.75206 -3.90496 0
M  V30 1398 C 124.144 -1.22811 -5.20405 0
M  V30 1399 C 125.444 -3.15153 -4.16504 0
M  V30 1400 H 127.138 -2.02048 -2.20946 0
M  V30 1401 H 124.684 -0.972835 -1.06169 0
M  V30 1402 H 126.637 -0.578649 -4.17408 0
M  V30 1403 H 125.361 0.258556 -3.25575 0
M  V30 1404 H 124.02 -1.87145 -3.15234 0
M  V30 1405 H 123.668 -0.250145 -5.02378 0
M  V30 1406 H 123.368 -1.92492 -5.55176 0
M  V30 1407 H 124.892 -1.10968 -6.00432 0
M  V30 1408 H 126.306 -3.06349 -4.84586 0
M  V30 1409 H 124.703 -3.82333 -4.62538 0
M  V30 1410 H 125.773 -3.61966 -3.22658 0
M  V30 1411 N 127.117 1.15442 -1.07289 0
M  V30 1412 C 128.533 1.38201 -0.798288 0
M  V30 1413 C 128.733 1.92429 0.597769 0
M  V30 1414 O 127.789 2.12962 1.3566 0
M  V30 1415 C 129.102 2.35357 -1.87156 0
M  V30 1416 C 130.65 2.49021 -1.89624 0
M  V30 1417 C 131.125 3.49468 -2.96034 0
M  V30 1418 N 132.616 3.57003 -2.95132 0
M  V30 1419 C 133.351 4.34543 -3.74112 0
M  V30 1420 N 132.847 5.15421 -4.6294 0
M  V30 1421 N 134.64 4.29625 -3.62462 0
M  V30 1422 H 126.791 0.78584 -1.97328 0
M  V30 1423 H 129.054 0.408065 -0.855679 0
M  V30 1424 H 128.76 2.02626 -2.87464 0
M  V30 1425 H 128.634 3.35129 -1.73114 0
M  V30 1426 H 131.021 2.81051 -0.899687 0
M  V30 1427 H 131.102 1.4925 -2.07745 0
M  V30 1428 H 130.746 3.18173 -3.95889 0
M  V30 1429 H 130.676 4.48992 -2.75161 0
M  V30 1430 H 133.167 2.99276 -2.30743 0
M  V30 1431 H 133.48 5.7183 -5.19837 0
M  V30 1432 H 131.825 5.14729 -4.66989 0
M  V30 1433 H 135.016 3.65505 -2.92444 0
M  V30 1434 H 135.189 4.89807 -4.24256 0
M  V30 1435 N 128.595 0.856903 1.32268 0
M  V30 1436 C 130.011 0.547061 1.49931 0
M  V30 1437 C 130.211 -0.921781 1.7918 0
M  V30 1438 O 129.267 -1.70469 1.8627 0
M  V30 1439 C 130.58 1.43599 2.64196 0
M  V30 1440 C 132.128 1.43665 2.78081 0
M  V30 1441 C 132.603 2.31085 3.95428 0
M  V30 1442 N 134.094 2.28893 4.02694 0
M  V30 1443 C 134.829 2.93262 4.92732 0
M  V30 1444 N 134.325 3.66751 5.87763 0
M  V30 1445 N 136.118 2.82638 4.85873 0
M  V30 1446 H 128.269 1.8075 1.11549 0
M  V30 1447 H 130.532 0.772144 0.549997 0
M  V30 1448 H 130.238 2.48058 2.49319 0
M  V30 1449 H 130.112 1.12502 3.60032 0
M  V30 1450 H 132.499 0.399701 2.92381 0
M  V30 1451 H 132.58 1.7878 1.82952 0
M  V30 1452 H 132.224 3.34849 3.81888 0
M  V30 1453 H 132.154 1.93302 4.89839 0
M  V30 1454 H 134.645 1.75466 3.34694 0
M  V30 1455 H 134.958 4.13027 6.53168 0
M  V30 1456 H 133.303 3.70859 5.87783 0
M  V30 1457 H 136.494 2.24774 4.10602 0
M  V30 1458 H 136.667 3.33084 5.55841 0
M  V30 1459 N 130.073 -1.45103 0.615059 0
M  V30 1460 C 131.005 -2.28786 -0.13762 0
M  V30 1461 C 132.018 -1.40376 -0.824525 0
M  V30 1462 O 133.207 -1.64681 -0.688662 0
M  V30 1463 C 130.307 -3.16322 -1.21628 0
M  V30 1464 C 129.48 -4.33054 -0.615039 0
M  V30 1465 C 128.539 -5.01743 -1.58556 0
M  V30 1466 O 127.565 -5.58293 -1.10895 0
M  V30 1467 N 128.767 -5.01714 -2.91998 0
M  V30 1468 H 131.532 -2.94025 0.580483 0
M  V30 1469 H 129.093 -1.55373 0.45507 0
M  V30 1470 H 131.085 -3.59139 -1.86552 0
M  V30 1471 H 129.655 -2.52943 -1.83681 0
M  V30 1472 H 128.875 -3.93627 0.21245 0
M  V30 1473 H 130.163 -5.08431 -0.193704 0
M  V30 1474 H 129.561 -4.57075 -3.33316 0
M  V30 1475 H 128.118 -5.48371 -3.52325 0
M  V30 1476 N 131.551 -0.354651 -1.53558 0
M  V30 1477 C 132.967 -0.00315426 -1.596 0
M  V30 1478 C 133.167 1.47741 -1.37021 0
M  V30 1479 O 132.223 2.23759 -1.16996 0
M  V30 1480 C 133.536 -0.44929 -2.97325 0
M  V30 1481 C 135.084 -0.402578 -3.104 0
M  V30 1482 C 135.559 -0.824355 -4.5052 0
M  V30 1483 N 137.05 -0.778979 -4.56603 0
M  V30 1484 C 137.785 -1.07715 -5.63192 0
M  V30 1485 N 137.281 -1.44405 -6.77583 0
M  V30 1486 N 139.074 -1.00066 -5.53121 0
M  V30 1487 H 131.225 -1.31893 -1.66487 0
M  V30 1488 H 133.488 -0.538388 -0.780284 0
M  V30 1489 H 133.194 -1.48202 -3.1895 0
M  V30 1490 H 133.068 0.169772 -3.76818 0
M  V30 1491 H 135.455 0.621004 -2.88492 0
M  V30 1492 H 135.536 -1.05699 -2.32941 0
M  V30 1493 H 135.18 -1.846 -4.73165 0
M  V30 1494 H 135.11 -0.147304 -5.26394 0
M  V30 1495 H 137.601 -0.508528 -3.74463 0
M  V30 1496 H 137.914 -1.65612 -7.54846 0
M  V30 1497 H 136.259 -1.4826 -6.79002 0
M  V30 1498 H 139.45 -0.713293 -4.62633 0
M  V30 1499 H 139.623 -1.23638 -6.36096 0
M  V30 1500 N 133.029 1.57378 -0.0835403 0
M  V30 1501 C 133.979 2.09916 0.889905 0
M  V30 1502 C 134.963 1.01151 1.25129 0
M  V30 1503 O 136.155 1.27443 1.2283 0
M  V30 1504 C 133.284 2.67379 2.15322 0
M  V30 1505 C 132.37 3.83167 1.81779 0
M  V30 1506 N 132.761 4.91665 1.18739 0
M  V30 1507 C 131.059 3.92685 2.11459 0
M  V30 1508 C 131.76 5.72409 1.0355 0
M  V30 1509 N 130.736 5.21062 1.54906 0
M  V30 1510 H 134.538 2.91188 0.398378 0
M  V30 1511 H 132.052 1.61956 0.120013 0
M  V30 1512 H 134.049 3.0334 2.8599 0
M  V30 1513 H 132.709 1.87558 2.65051 0
M  V30 1514 H 133.72 5.10784 0.855604 0
M  V30 1515 H 130.397 3.23856 2.63483 0
M  V30 1516 H 131.787 6.69699 0.543425 0
M  V30 1517 N 134.507 -0.190092 1.56449 0
M  V30 1518 C 135.784 -0.935886 1.71757 0
M  V30 1519 C 136.164 -2.01173 0.639726 0
M  V30 1520 O 135.512 -2.25827 -0.348502 0
M  V30 1521 C 135.722 -1.51775 3.1427 0
M  V30 1522 C 137.07 -1.99794 3.74656 0
M  V30 1523 O 138.094 -1.61607 3.1743 0
M  V30 1524 O 136.953 -2.70079 4.751 0
M  V30 1525 H 134.047 -0.439229 0.700719 0
M  V30 1526 H 136.593 -0.179395 1.68749 0
M  V30 1527 H 135.365 -0.742505 3.84191 0
M  V30 1528 H 134.988 -2.33894 3.21527 0
M  V30 1529 N 135.985 -1.50799 -0.457987 0
M  V30 1530 C 136.933 -1.71162 -1.575 0
M  V30 1531 C 137.927 -0.577592 -1.59249 0
M  V30 1532 O 139.133 -0.758443 -1.63241 0
M  V30 1533 H 135.508 -0.540468 -0.522875 0
M  V30 1534 H 137.479 -2.64837 -1.37492 0
M  V30 1535 C 136.228 -1.83496 -2.95338 0
M  V30 1536 H 135.551 -2.70153 -2.94716 0
M  V30 1537 H 136.991 -2.01765 -3.72917 0
M  V30 1538 C 135.45 -0.589694 -3.31699 0
M  V30 1539 O 135.98 0.265163 -4.00824 0
M  V30 1540 N 134.186 -0.439845 -2.87252 0
M  V30 1541 H 133.733 -1.13655 -2.31172 0
M  V30 1542 H 133.691 0.392159 -3.11945 0
M  V30 1543 N 137.463 0.71206 -1.40597 0
M  V30 1544 C 138.426 1.80785 -1.40888 0
M  V30 1545 C 139.426 1.57937 -0.302103 0
M  V30 1546 O 140.616 1.64913 -0.561182 0
M  V30 1547 C 137.748 3.18927 -1.20409 0
M  V30 1548 H 138.941 1.81924 -2.38419 0
M  V30 1549 H 136.494 0.91805 -1.26497 0
M  V30 1550 H 137.229 3.23436 -0.236522 0
M  V30 1551 H 137.014 3.36911 -2.00582 0
M  V30 1552 H 138.504 3.98949 -1.23408 0
M  V30 1553 N 138.941 1.26152 0.944643 0
M  V30 1554 C 139.873 1.03199 2.04652 0
M  V30 1555 C 140.886 -0.00642356 1.62799 0
M  V30 1556 O 142.075 0.233263 1.76969 0
M  V30 1557 C 139.175 0.540111 3.34568 0
M  V30 1558 C 138.348 1.64697 4.05208 0
M  V30 1559 C 137.407 1.15374 5.13396 0
M  V30 1560 O 136.433 1.85013 5.38293 0
M  V30 1561 N 137.635 0.00031529 5.805 0
M  V30 1562 H 140.4 1.9808 2.2491 0
M  V30 1563 H 137.961 1.17491 1.11389 0
M  V30 1564 H 139.953 0.194401 4.04233 0
M  V30 1565 H 138.523 -0.315021 3.11009 0
M  V30 1566 H 137.743 2.16379 3.29506 0
M  V30 1567 H 139.031 2.3903 4.49157 0
M  V30 1568 H 138.429 -0.581336 5.62705 0
M  V30 1569 H 136.986 -0.286346 6.51171 0
M  V30 1570 N 140.419 -1.14872 1.07899 0
M  V30 1571 C 141.349 -2.2193 0.725887 0
M  V30 1572 C 142.33 -1.67622 -0.28927 0
M  V30 1573 O 143.515 -1.93533 -0.160787 0
M  V30 1574 C 140.645 -3.47061 0.128856 0
M  V30 1575 C 139.599 -4.14363 1.07178 0
M  V30 1576 C 138.925 -5.33636 0.337229 0
M  V30 1577 C 140.225 -4.63492 2.40775 0
M  V30 1578 H 141.919 -2.51724 1.62097 0
M  V30 1579 H 139.465 -1.20991 0.780838 0
M  V30 1580 H 141.418 -4.21199 -0.130147 0
M  V30 1581 H 140.142 -3.16617 -0.80134 0
M  V30 1582 H 138.801 -3.42173 1.3158 0
M  V30 1583 H 138.449 -4.99449 -0.596606 0
M  V30 1584 H 138.149 -5.79609 0.965788 0
M  V30 1585 H 139.673 -6.10539 0.0861567 0
M  V30 1586 H 141.087 -5.2913 2.20669 0
M  V30 1587 H 139.484 -5.20148 2.99276 0
M  V30 1588 H 140.554 -3.78834 3.02676 0
M  V30 1589 N 141.898 -0.863906 -1.31812 0
M  V30 1590 C 142.828 -0.330843 -2.31144 0
M  V30 1591 C 143.809 0.575005 -1.60087 0
M  V30 1592 O 144.994 0.493304 -1.8783 0
M  V30 1593 C 142.124 0.47374 -3.44054 0
M  V30 1594 C 141.078 -0.338481 -4.26659 0
M  V30 1595 C 140.404 0.591412 -5.31419 0
M  V30 1596 C 141.704 -1.56926 -4.98168 0
M  V30 1597 H 143.398 -1.16086 -2.75979 0
M  V30 1598 H 140.944 -0.559657 -1.32679 0
M  V30 1599 H 142.897 0.857143 -4.12591 0
M  V30 1600 H 141.621 1.33721 -2.9797 0
M  V30 1601 H 140.28 -0.703754 -3.59782 0
M  V30 1602 H 139.928 1.45199 -4.81587 0
M  V30 1603 H 139.628 0.0519022 -5.87577 0
M  V30 1604 H 141.152 0.97179 -6.02817 0
M  V30 1605 H 142.566 -1.25764 -5.59336 0
M  V30 1606 H 140.963 -2.04739 -5.64094 0
M  V30 1607 H 142.033 -2.32544 -4.25501 0
M  V30 1608 N 143.376 1.44774 -0.622745 0
M  V30 1609 C 144.604 2.06487 -0.130722 0
M  V30 1610 C 145.019 1.46476 1.19123 0
M  V30 1611 O 144.376 0.584502 1.72887 0
M  V30 1612 C 144.427 3.615 -0.000807207 0
M  V30 1613 O 144.148 4.19274 -1.27048 0
M  V30 1614 C 145.649 4.40229 0.520898 0
M  V30 1615 H 142.869 0.666704 -0.0758106 0
M  V30 1616 H 145.413 1.85779 -0.854774 0
M  V30 1617 H 143.568 3.81498 0.673643 0
M  V30 1618 H 143.982 5.12622 -1.1099 0
M  V30 1619 H 145.456 5.49144 0.560838 0
M  V30 1620 H 145.933 4.1108 1.54627 0
M  V30 1621 H 146.539 4.25131 -0.120018 0
M  V30 1622 N 144.854 0.36279 1.53368 0
M  V30 1623 C 145.817 -0.472679 2.24273 0
M  V30 1624 C 146.817 -1.012 1.24961 0
M  V30 1625 O 148.007 -0.898194 1.49259 0
M  V30 1626 C 145.139 -1.66039 2.97731 0
M  V30 1627 H 146.332 0.14773 2.99536 0
M  V30 1628 H 143.885 0.114434 1.55881 0
M  V30 1629 H 144.62 -2.31896 2.26704 0
M  V30 1630 H 144.405 -1.28066 3.70596 0
M  V30 1631 H 145.895 -2.25252 3.51641 0
M  V30 1632 N 146.332 -1.57332 0.0918853 0
M  V30 1633 C 147.581 -1.93412 -0.572249 0
M  V30 1634 C 147.894 -0.975515 -1.69538 0
M  V30 1635 O 149.1 -1.22991 -2.42045 0
M  V30 1636 C 147.556 -3.43648 -1.0693 0
M  V30 1637 C 147.164 -4.47994 0.0239049 0
M  V30 1638 C 148.908 -3.88695 -1.70635 0
M  V30 1639 C 146.815 -5.89381 -0.488319 0
M  V30 1640 H 145.745 -0.721939 -0.217532 0
M  V30 1641 H 148.396 -1.82735 0.167369 0
M  V30 1642 H 146.778 -3.49466 -1.8625 0
M  V30 1643 H 147.952 -4.53815 0.799277 0
M  V30 1644 H 146.267 -4.12536 0.565946 0
M  V30 1645 H 148.864 -4.91725 -2.10025 0
M  V30 1646 H 149.207 -3.27166 -2.57426 0
M  V30 1647 H 149.74 -3.85564 -0.979023 0
M  V30 1648 H 146.479 -6.54602 0.342906 0
M  V30 1649 H 145.999 -5.87037 -1.23077 0
M  V30 1650 H 147.678 -6.39863 -0.958317 0
M  V30 1651 N 147.81 0.181792 -1.56548 0
M  V30 1652 C 149.087 0.926765 -1.72251 0
M  V30 1653 C 149.467 2.00831 -0.650386 0
M  V30 1654 O 148.815 2.26008 0.336521 0
M  V30 1655 C 149.025 1.50106 -3.1507 0
M  V30 1656 C 150.373 1.97805 -3.75711 0
M  V30 1657 O 151.397 1.59922 -3.18282 0
M  V30 1658 O 150.256 2.67555 -4.76525 0
M  V30 1659 H 147.35 0.435506 -0.703039 0
M  V30 1660 H 149.896 0.170443 -1.68842 0
M  V30 1661 H 148.668 0.72212 -3.84579 0
M  V30 1662 H 148.291 2.32186 -3.22763 0
M  V30 1663 N 149.288 1.51039 0.449983 0
M  V30 1664 C 150.535 1.63081 1.20045 0
M  V30 1665 C 150.863 0.341024 1.91487 0
M  V30 1666 O 150.118 -0.674276 1.83717 0
M  V30 1667 C 150.417 2.77556 2.25161 0
M  V30 1668 C 150.083 4.17289 1.70823 0
M  V30 1669 C 148.745 4.55305 1.55725 0
M  V30 1670 C 151.097 5.04536 1.3074 0
M  V30 1671 C 148.425 5.78287 0.989999 0
M  V30 1672 C 150.777 6.28085 0.754482 0
M  V30 1673 C 149.441 6.64885 0.590308 0
M  V30 1674 H 148.711 0.596755 0.439277 0
M  V30 1675 H 151.358 1.85037 0.49333 0
M  V30 1676 H 149.663 2.49771 3.01863 0
M  V30 1677 H 151.36 2.84073 2.83026 0
M  V30 1678 H 147.95 3.8731 1.83546 0
M  V30 1679 H 152.134 4.75782 1.41229 0
M  V30 1680 H 147.39 6.05456 0.850451 0
M  V30 1681 H 151.564 6.95038 0.435324 0
M  V30 1682 H 149.191 7.60055 0.14862 0
M  V30 1683 N 150.766 -0.704594 1.40972 0
M  V30 1684 C 152.043 -1.45847 1.30338 0
M  V30 1685 C 152.423 -2.10973 -0.0732344 0
M  V30 1686 O 151.771 -2.00997 -1.08685 0
M  V30 1687 C 151.981 -2.48525 2.45023 0
M  V30 1688 C 153.329 -3.1404 2.8577 0
M  V30 1689 O 154.353 -2.58848 2.44696 0
M  V30 1690 O 153.212 -4.13981 3.56766 0
M  V30 1691 H 150.306 -0.649092 0.512454 0
M  V30 1692 H 152.852 -0.735836 1.52917 0
M  V30 1693 H 151.624 -1.98994 3.36923 0
M  V30 1694 H 151.247 -3.2831 2.24272 0
M  V30 1695 N 152.244 -1.26651 -0.937939 0
M  V30 1696 C 153.492 -1.12165 -1.68118 0
M  V30 1697 C 153.813 0.334983 -1.92101 0
M  V30 1698 O 153.083 1.23583 -1.52 0
M  V30 1699 H 151.663 -0.412093 -0.623048 0
M  V30 1700 H 154.325 -1.59027 -1.12678 0
M  V30 1701 H 153.421 -1.64289 -2.6536 0
M  V30 1702 N 153.722 1.14298 -1.08507 0
M  V30 1703 C 154.999 1.81544 -0.728088 0
M  V30 1704 C 155.379 1.95838 0.78808 0
M  V30 1705 O 154.727 1.51904 1.70697 0
M  V30 1706 C 154.937 3.17169 -1.45619 0
M  V30 1707 C 156.285 3.9265 -1.61591 0
M  V30 1708 O 157.309 3.26762 -1.41793 0
M  V30 1709 O 156.168 5.10807 -1.94263 0
M  V30 1710 H 153.262 0.78491 -0.260471 0
M  V30 1711 H 155.808 1.21307 -1.18671 0
M  V30 1712 H 154.58 3.01934 -2.489 0
M  V30 1713 H 154.203 3.851 -0.989124 0
M  V30 1714 N 155.201 0.870884 1.31352 0
M  V30 1715 C 156.429 0.49677 2.00848 0
M  V30 1716 C 156.844 -0.910998 1.65367 0
M  V30 1717 O 156.201 -1.59696 0.883374 0
M  V30 1718 C 156.252 0.645308 3.55694 0
M  V30 1719 O 155.973 1.99764 3.89905 0
M  V30 1720 C 157.474 0.272326 4.42463 0
M  V30 1721 H 154.694 0.193462 0.642506 0
M  V30 1722 H 157.238 1.1723 1.67563 0
M  V30 1723 H 155.393 0.0173176 3.87396 0
M  V30 1724 H 155.807 2.00607 4.84621 0
M  V30 1725 H 157.281 0.427208 5.50344 0
M  V30 1726 H 157.758 -0.788587 4.32062 0
M  V30 1727 H 158.364 0.876054 4.1618 0
M  V30 1728 N 156.679 -1.44442 0.630414 0
M  V30 1729 C 157.925 -2.02351 0.134816 0
M  V30 1730 C 158.258 -1.4947 -1.23986 0
M  V30 1731 O 157.533 -0.678475 -1.82283 0
M  V30 1732 C 157.816 -3.59898 0.120707 0
M  V30 1733 C 157.669 -4.23063 1.52767 0
M  V30 1734 C 158.988 -4.36585 -0.555127 0
M  V30 1735 H 156.107 -0.73527 0.0504646 0
M  V30 1736 H 158.749 -1.72022 0.806751 0
M  V30 1737 H 156.899 -3.85868 -0.451477 0
M  V30 1738 H 158.571 -4.08202 2.14869 0
M  V30 1739 H 156.814 -3.80586 2.08175 0
M  V30 1740 H 157.485 -5.32071 1.46984 0
M  V30 1741 H 159.961 -4.16044 -0.0685429 0
M  V30 1742 H 158.837 -5.46294 -0.534185 0
M  V30 1743 H 159.098 -4.11138 -1.62535 0
M  V30 1744 N 158.157 -0.370918 -1.53173 0
M  V30 1745 C 159.405 0.216673 -2.00935 0
M  V30 1746 C 159.726 1.48845 -1.25977 0
M  V30 1747 O 158.996 1.92286 -0.374551 0
M  V30 1748 H 157.576 0.0830565 -0.742368 0
M  V30 1749 H 160.238 -0.49838 -1.8842 0
M  V30 1750 H 159.334 0.439893 -3.08984 0
M  V30 1751 N 159.635 1.57281 -0.100228 0
M  V30 1752 C 160.565 2.17328 0.853857 0
M  V30 1753 C 161.546 1.10804 1.2906 0
M  V30 1754 O 162.731 1.38963 1.35657 0
M  V30 1755 C 159.861 2.75772 2.11109 0
M  V30 1756 C 158.815 3.87713 1.81279 0
M  V30 1757 C 158.141 4.32882 3.13874 0
M  V30 1758 C 159.441 5.10677 1.09574 0
M  V30 1759 H 161.135 2.97305 0.353545 0
M  V30 1760 H 158.681 1.43009 0.168612 0
M  V30 1761 H 160.634 3.16433 2.78296 0
M  V30 1762 H 159.358 1.93057 2.63432 0
M  V30 1763 H 158.017 3.476 1.16489 0
M  V30 1764 H 157.665 3.47051 3.64095 0
M  V30 1765 H 157.365 5.08358 2.94696 0
M  V30 1766 H 158.889 4.7618 3.82211 0
M  V30 1767 H 160.303 5.48474 1.66879 0
M  V30 1768 H 158.7 5.91615 1.00557 0
M  V30 1769 H 159.77 4.84835 0.0793299 0
M  V30 1770 N 161.113 -0.173488 1.56642 0
M  V30 1771 C 162.076 -1.19859 1.95362 0
M  V30 1772 C 163.076 -1.37296 0.83704 0
M  V30 1773 O 164.266 -1.34739 1.10413 0
M  V30 1774 C 161.398 -2.56405 2.24654 0
M  V30 1775 H 162.591 -0.867062 2.87092 0
M  V30 1776 H 160.144 -0.415853 1.50666 0
M  V30 1777 H 160.879 -2.94576 1.35631 0
M  V30 1778 H 160.664 -2.45115 3.06041 0
M  V30 1779 H 162.154 -3.30287 2.5554 0
M  V30 1780 N 162.591 -1.51276 -0.441967 0
M  V30 1781 C 163.821 -1.67273 -1.21257 0
M  V30 1782 C 164.229 -0.367624 -1.85594 0
M  V30 1783 O 163.572 0.663349 -1.71305 0
M  V30 1784 C 163.634 -2.72807 -2.34129 0
M  V30 1785 C 163.298 -4.1554 -1.90198 0
M  V30 1786 C 164.295 -5.00471 -1.40801 0
M  V30 1787 C 161.98 -4.61616 -1.9803 0
M  V30 1788 C 163.974 -6.29536 -0.998174 0
M  V30 1789 C 161.661 -5.90679 -1.56658 0
M  V30 1790 C 162.659 -6.74466 -1.07633 0
M  V30 1791 O 162.347 -8.01116 -0.668459 0
M  V30 1792 H 162.079 -0.564614 -0.371734 0
M  V30 1793 H 164.633 -1.9843 -0.530521 0
M  V30 1794 H 162.863 -2.36954 -3.05597 0
M  V30 1795 H 164.552 -2.77729 -2.96009 0
M  V30 1796 H 165.318 -4.66079 -1.34148 0
M  V30 1797 H 161.197 -3.96526 -2.35135 0
M  V30 1798 H 164.741 -6.94885 -0.61482 0
M  V30 1799 H 160.638 -6.24586 -1.62979 0
M  V30 1800 H 161.406 -8.14633 -0.794722 0
M  V30 1801 N 164.069 0.697108 -1.41344 0
M  V30 1802 C 165.315 1.4593 -1.40827 0
M  V30 1803 C 165.648 1.94193 -0.0167098 0
M  V30 1804 O 164.923 1.69425 0.955263 0
M  V30 1805 C 165.206 2.67229 -2.41373 0
M  V30 1806 C 165.059 2.24741 -3.8963 0
M  V30 1807 C 166.378 3.69423 -2.39196 0
M  V30 1808 H 163.497 0.529303 -0.512842 0
M  V30 1809 H 166.139 0.794112 -1.72609 0
M  V30 1810 H 164.289 3.23982 -2.14401 0
M  V30 1811 H 165.961 1.73327 -4.27499 0
M  V30 1812 H 164.204 1.56542 -4.0457 0
M  V30 1813 H 164.875 3.1177 -4.55525 0
M  V30 1814 H 167.351 3.2234 -2.63128 0
M  V30 1815 H 166.227 4.51907 -3.11563 0
M  V30 1816 H 166.488 4.19012 -1.41001 0
M  V30 1817 N 165.547 1.27147 0.931209 0
M  V30 1818 C 166.795 1.13055 1.6752 0
M  V30 1819 C 167.116 -0.324791 1.92276 0
M  V30 1820 O 166.386 -1.22775 1.52654 0
M  V30 1821 H 164.966 0.415391 0.620854 0
M  V30 1822 H 167.628 1.59623 1.11833 0
M  V30 1823 H 166.724 1.65694 2.64485 0
M  V30 1824 N 167.025 -1.13721 1.09112 0
M  V30 1825 C 168.273 -1.84559 0.823562 0
M  V30 1826 C 168.594 -1.83754 -0.652658 0
M  V30 1827 O 167.864 -1.29102 -1.47342 0
M  V30 1828 H 166.444 -0.683376 0.301673 0
M  V30 1829 H 169.106 -1.37771 1.37859 0
M  V30 1830 H 168.202 -2.8917 1.17419 0
M  V30 1831 N 168.503 -0.877838 -1.30888 0
M  V30 1832 C 169.436 -0.283995 -2.26426 0
M  V30 1833 C 170.414 0.591361 -1.51465 0
M  V30 1834 O 171.598 0.54304 -1.80509 0
M  V30 1835 C 168.725 0.597129 -3.33395 0
M  V30 1836 C 167.771 -0.207937 -4.25993 0
M  V30 1837 S 168.604 -1.59158 -5.11301 0
M  V30 1838 C 169.76 -0.716791 -6.21782 0
M  V30 1839 H 169.993 -1.09383 -2.76446 0
M  V30 1840 H 167.526 -0.676828 -1.38775 0
M  V30 1841 H 169.484 1.09978 -3.95493 0
M  V30 1842 H 168.145 1.38099 -2.82113 0
M  V30 1843 H 167.338 0.464163 -5.01858 0
M  V30 1844 H 166.94 -0.642963 -3.68432 0
M  V30 1845 H 169.232 0.0692833 -6.77465 0
M  V30 1846 H 170.175 -1.44682 -6.93161 0
M  V30 1847 H 170.583 -0.280855 -5.63801 0
M  V30 1848 N 169.982 1.44106 -0.638065 0
M  V30 1849 C 171.222 2.03858 -0.148733 0
M  V30 1850 C 171.586 1.49153 1.20903 0
M  V30 1851 O 172.787 2.00452 1.79088 0
M  V30 1852 C 171.058 3.57117 -0.142314 0
M  V30 1853 S 172.617 4.37897 0.281385 0
M  V30 1854 H 169.435 0.708069 -0.0644912 0
M  V30 1855 H 172.037 1.7639 -0.843009 0
M  V30 1856 H 170.741 3.94436 -1.13349 0
M  V30 1857 H 170.272 3.89205 0.572988 0
M  V30 1858 H 172.287 4.72218 1.52395 0
M  V30 1859 N 171.46 0.379036 1.52974 0
M  V30 1860 C 172.392 -0.495963 2.2377 0
M  V30 1861 C 173.405 -1.03517 1.25651 0
M  V30 1862 O 174.594 -0.939249 1.51791 0
M  V30 1863 C 171.694 -1.69894 2.93239 0
M  V30 1864 C 170.867 -1.2889 4.17979 0
M  V30 1865 C 169.926 -2.35543 4.70538 0
M  V30 1866 O 168.952 -1.97375 5.33883 0
M  V30 1867 N 170.154 -3.67318 4.49508 0
M  V30 1868 H 172.919 0.110523 2.99496 0
M  V30 1869 H 170.48 0.204878 1.60598 0
M  V30 1870 H 172.472 -2.40747 3.25304 0
M  V30 1871 H 171.042 -2.212 2.20883 0
M  V30 1872 H 170.262 -0.409676 3.92065 0
M  V30 1873 H 171.55 -0.991443 4.99047 0
M  V30 1874 H 170.948 -4.01095 3.98923 0
M  V30 1875 H 169.505 -4.34235 4.8609 0
M  V30 1876 N 172.938 -1.57226 0.108567 0
M  V30 1877 C 173.868 -2.17778 -0.84232 0
M  V30 1878 C 174.849 -1.11487 -1.2847 0
M  V30 1879 O 176.034 -1.39681 -1.34918 0
M  V30 1880 C 173.164 -2.76888 -2.09644 0
M  V30 1881 C 172.118 -3.88669 -1.79221 0
M  V30 1882 C 171.444 -4.34541 -3.11574 0
M  V30 1883 C 172.744 -5.11251 -1.06864 0
M  V30 1884 H 174.438 -2.97489 -0.337774 0
M  V30 1885 H 171.984 -1.43097 -0.161025 0
M  V30 1886 H 173.937 -3.17904 -2.76614 0
M  V30 1887 H 172.661 -1.94451 -2.62405 0
M  V30 1888 H 171.32 -3.48213 -1.14644 0
M  V30 1889 H 170.968 -3.48977 -3.62249 0
M  V30 1890 H 170.668 -5.09914 -2.91996 0
M  V30 1891 H 172.192 -4.782 -3.7968 0
M  V30 1892 H 173.606 -5.49352 -1.63968 0
M  V30 1893 H 172.003 -5.9214 -0.974178 0
M  V30 1894 H 173.073 -4.8487 -0.0536168 0
M  V30 1895 N 174.416 0.165178 -1.56732 0
M  V30 1896 C 175.363 1.2044 -1.96883 0
M  V30 1897 C 176.333 1.43664 -0.833657 0
M  V30 1898 O 177.518 1.56302 -1.09427 0
M  V30 1899 C 174.658 2.53727 -2.33916 0
M  V30 1900 C 173.771 2.3783 -3.6064 0
M  V30 1901 C 172.906 3.64026 -3.86857 0
M  V30 1902 C 171.945 3.43088 -5.06909 0
M  V30 1903 N 171.082 4.61369 -5.29229 0
M  V30 1904 H 175.922 0.854996 -2.85471 0
M  V30 1905 H 173.459 0.41076 -1.41249 0
M  V30 1906 H 175.417 3.31419 -2.53411 0
M  V30 1907 H 174.047 2.8665 -1.48431 0
M  V30 1908 H 173.099 1.51282 -3.49024 0
M  V30 1909 H 174.411 2.18308 -4.4849 0
M  V30 1910 H 173.565 4.50152 -4.06753 0
M  V30 1911 H 172.304 3.86533 -2.97394 0
M  V30 1912 H 171.309 2.55349 -4.86906 0
M  V30 1913 H 172.534 3.21997 -5.97909 0
M  V30 1914 H 170.48 4.84084 -4.42718 0
M  V30 1915 H 170.397 4.44783 -6.11313 0
M  V30 1916 H 171.665 5.48761 -5.53608 0
M  V30 1917 N 175.894 1.51508 0.433938 0
M  V30 1918 C 176.844 1.69451 1.52546 0
M  V30 1919 C 177.828 0.548474 1.51263 0
M  V30 1920 O 179.02 0.804529 1.57659 0
M  V30 1921 C 176.149 1.82604 2.90707 0
M  V30 1922 C 175.235 3.03002 2.96733 0
M  V30 1923 N 175.626 4.26121 2.72496 0
M  V30 1924 C 173.924 3.02327 3.27894 0
M  V30 1925 C 174.625 5.07407 2.84452 0
M  V30 1926 N 173.601 4.42126 3.16269 0
M  V30 1927 H 177.403 2.62305 1.32564 0
M  V30 1928 H 174.917 1.49202 0.641297 0
M  V30 1929 H 176.914 1.93569 3.69238 0
M  V30 1930 H 175.574 0.909339 3.11707 0
M  V30 1931 H 176.585 4.55009 2.4736 0
M  V30 1932 H 173.262 2.20301 3.54646 0
M  V30 1933 H 174.652 6.15422 2.69639 0
M  V30 1934 N 177.372 -0.689602 1.41712 0
M  V30 1935 C 178.597 -1.48329 1.44959 0
M  V30 1936 C 179.022 -1.8801 0.0581283 0
M  V30 1937 O 178.38 -1.55026 -0.940035 0
M  V30 1938 C 178.428 -2.71835 2.36935 0
M  V30 1939 O 177.532 -3.69549 1.8305 0
M  V30 1940 H 176.873 -0.446199 0.491734 0
M  V30 1941 H 179.403 -0.847127 1.86239 0
M  V30 1942 H 179.413 -3.20076 2.53013 0
M  V30 1943 H 178.088 -2.42291 3.38035 0
M  V30 1944 H 176.665 -3.2851 1.76452 0
M  V30 1945 N 178.85 -1.27639 -0.924453 0
M  V30 1946 C 180.078 -1.16989 -1.70649 0
M  V30 1947 C 180.493 0.272869 -1.86818 0
M  V30 1948 O 179.85 1.18549 -1.38753 0
M  V30 1949 C 179.901 -1.85229 -3.10439 0
M  V30 1950 O 179.622 -3.23868 -2.95028 0
M  V30 1951 C 181.123 -1.80746 -4.04779 0
M  V30 1952 H 178.343 -0.406595 -0.53378 0
M  V30 1953 H 180.887 -1.68569 -1.15778 0
M  V30 1954 H 179.042 -1.37545 -3.6216 0
M  V30 1955 H 179.456 -3.57889 -3.83426 0
M  V30 1956 H 180.93 -2.33101 -5.00368 0
M  V30 1957 H 181.407 -0.777499 -4.32263 0
M  V30 1958 H 182.013 -2.28059 -3.58984 0
M  V30 1959 N 180.328 1.1314 -1.09713 0
M  V30 1960 C 181.576 1.84119 -0.833338 0
M  V30 1961 C 181.897 1.84097 0.642904 0
M  V30 1962 O 181.167 1.29881 1.46655 0
M  V30 1963 H 179.747 0.681766 -0.305293 0
M  V30 1964 H 182.409 1.37038 -1.38588 0
M  V30 1965 H 181.505 2.88543 -1.18951 0
M  V30 1966 N 181.806 0.884767 1.30421 0
M  V30 1967 C 183.052 0.503851 1.96441 0
M  V30 1968 C 183.385 -0.944518 1.69684 0
M  V30 1969 O 182.66 -1.66737 1.00145 0
M  V30 1970 C 182.943 0.779085 3.51571 0
M  V30 1971 C 182.796 2.27807 3.87846 0
M  V30 1972 C 184.115 0.255452 4.39358 0
M  V30 1973 H 181.234 0.184533 0.713524 0
M  V30 1974 H 183.876 1.10872 1.54297 0
M  V30 1975 H 182.026 0.264274 3.876 0
M  V30 1976 H 183.698 2.86127 3.61841 0
M  V30 1977 H 181.941 2.74479 3.35922 0
M  V30 1978 H 182.612 2.42125 4.96064 0
M  V30 1979 H 185.088 0.696079 4.10236 0
M  V30 1980 H 183.964 0.477361 5.4682 0
M  V30 1981 H 184.225 -0.843293 4.33983 0
M  V30 1982 N 183.284 -1.43765 0.645699 0
M  V30 1983 C 184.533 -2.01116 0.153412 0
M  V30 1984 C 184.846 -1.51493 -1.23731 0
M  V30 1985 O 186.052 -2.01067 -1.8244 0
M  V30 1986 C 184.508 -3.59206 0.223473 0
M  V30 1987 C 184.116 -4.17823 1.61642 0
M  V30 1988 C 185.86 -4.23972 -0.211597 0
M  V30 1989 C 183.767 -5.68183 1.64081 0
M  V30 1990 H 182.697 -0.752093 0.0535891 0
M  V30 1991 H 185.348 -1.6482 0.806633 0
M  V30 1992 H 183.73 -3.92867 -0.497118 0
M  V30 1993 H 184.904 -3.95674 2.36176 0
M  V30 1994 H 183.219 -3.65399 1.99681 0
M  V30 1995 H 185.816 -5.34275 -0.213112 0
M  V30 1996 H 186.159 -3.97352 -1.24165 0
M  V30 1997 H 186.692 -3.95166 0.456988 0
M  V30 1998 H 183.431 -5.99559 2.64971 0
M  V30 1999 H 182.951 -5.9241 0.938611 0
M  V30 2000 H 184.63 -6.32085 1.3812 0
M  V30 2001 N 184.763 -0.387143 -1.52771 0
M  V30 2002 C 185.695 0.484089 -2.2403 0
M  V30 2003 C 186.708 1.02849 -1.26198 0
M  V30 2004 O 187.897 0.931186 -1.52286 0
M  V30 2005 C 184.997 1.68337 -2.94136 0
M  V30 2006 C 184.17 1.26672 -4.18656 0
M  V30 2007 C 183.229 2.33045 -4.7178 0
M  V30 2008 O 182.255 1.94541 -5.34923 0
M  V30 2009 N 183.457 3.64929 -4.5145 0
M  V30 2010 H 186.222 -0.126404 -2.99433 0
M  V30 2011 H 183.783 -0.213392 -1.60488 0
M  V30 2012 H 185.775 2.39019 -3.26577 0
M  V30 2013 H 184.345 2.20025 -2.22053 0
M  V30 2014 H 183.565 0.388878 -3.92277 0
M  V30 2015 H 184.853 0.964964 -4.99566 0
M  V30 2016 H 184.251 3.98974 -4.01044 0
M  V30 2017 H 182.808 4.31651 -4.88386 0
M  V30 2018 N 186.241 1.57166 -0.116904 0
M  V30 2019 C 187.518 1.86645 0.585049 0
M  V30 2020 C 187.898 1.0177 1.84949 0
M  V30 2021 O 187.246 0.0960379 2.28298 0
M  V30 2022 C 187.456 3.37736 0.879507 0
M  V30 2023 C 188.804 4.06289 1.23348 0
M  V30 2024 O 189.828 3.42743 0.969836 0
M  V30 2025 O 188.687 5.18455 1.7282 0
M  V30 2026 H 185.781 0.772593 0.295007 0
M  V30 2027 H 188.327 1.69025 -0.151249 0
M  V30 2028 H 187.099 3.91296 -0.0166136 0
M  V30 2029 H 186.722 3.6078 1.67103 0
M  V30 2030 N 187.719 -0.156864 1.56817 0
M  V30 2031 C 188.669 -1.19891 1.93934 0
M  V30 2032 C 189.653 -1.39061 0.809372 0
M  V30 2033 O 190.845 -1.40789 1.07273 0
M  V30 2034 C 187.974 -2.53493 2.31508 0
M  V30 2035 C 187.06 -2.37957 3.51052 0
M  V30 2036 N 187.451 -1.92158 4.67877 0
M  V30 2037 C 185.749 -2.68739 3.55943 0
M  V30 2038 C 186.45 -1.8943 5.49992 0
M  V30 2039 N 185.426 -2.32375 4.91429 0
M  V30 2040 H 189.228 -0.836746 2.81737 0
M  V30 2041 H 186.742 -0.365012 1.58245 0
M  V30 2042 H 188.739 -3.28811 2.56299 0
M  V30 2043 H 187.399 -2.905 1.45051 0
M  V30 2044 H 188.41 -1.62274 4.91821 0
M  V30 2045 H 185.087 -3.09687 2.80001 0
M  V30 2046 H 186.477 -1.55596 6.53636 0
M  V30 2047 N 189.197 -1.51736 -0.425897 0
M  V30 2048 C 190.422 -1.69082 -1.20108 0
M  V30 2049 C 190.847 -0.392398 -1.83962 0
M  V30 2050 O 190.205 0.64858 -1.69302 0
M  V30 2051 C 190.253 -2.81604 -2.25237 0
M  V30 2052 O 189.357 -2.46004 -3.30992 0
M  V30 2053 H 188.698 -0.563408 -0.35138 0
M  V30 2054 H 191.228 -1.98358 -0.501512 0
M  V30 2055 H 191.238 -3.06025 -2.69838 0
M  V30 2056 H 189.913 -3.75817 -1.78142 0
M  V30 2057 H 188.49 -2.32195 -2.91787 0
M  V30 2058 N 190.675 0.682077 -1.42076 0
M  V30 2059 C 191.638 1.77756 -1.44691 0
M  V30 2060 C 192.638 1.5726 -0.335535 0
M  V30 2061 O 193.828 1.63686 -0.596037 0
M  V30 2062 C 190.96 3.16301 -1.27146 0
M  V30 2063 H 192.153 1.76826 -2.42224 0
M  V30 2064 H 189.706 0.891012 -1.28416 0
M  V30 2065 H 190.441 3.22862 -0.305075 0
M  V30 2066 H 190.226 3.32581 -2.07683 0
M  V30 2067 H 191.716 3.96241 -1.31843 0
M  V30 2068 N 192.153 1.28127 0.917671 0
M  V30 2069 C 193.402 1.14432 1.66097 0
M  V30 2070 C 193.715 -0.307247 1.93172 0
M  V30 2071 O 194.921 -0.565259 2.65551 0
M  V30 2072 C 193.377 2.00015 2.99202 0
M  V30 2073 C 192.985 3.49889 2.79789 0
M  V30 2074 C 194.729 1.94996 3.77064 0
M  V30 2075 C 192.636 4.27636 4.08511 0
M  V30 2076 H 191.566 0.424662 0.62304 0
M  V30 2077 H 194.217 1.52628 1.01868 0
M  V30 2078 H 192.599 1.54672 3.64544 0
M  V30 2079 H 193.773 4.03162 2.23152 0
M  V30 2080 H 192.088 3.56392 2.15345 0
M  V30 2081 H 194.685 2.50354 4.72469 0
M  V30 2082 H 195.028 0.925819 4.05875 0
M  V30 2083 H 195.561 2.38287 3.18534 0
M  V30 2084 H 192.3 5.30615 3.84874 0
M  V30 2085 H 191.82 3.79137 4.64774 0
M  V30 2086 H 193.499 4.37346 4.76799 0
M  V30 2087 N 193.631 -1.12557 1.10312 0
M  V30 2088 C 194.579 -2.20325 0.745629 0
M  V30 2089 C 195.573 -1.67429 -0.25763 0
M  V30 2090 O 196.779 -1.79612 -0.118132 0
M  V30 2091 H 193.154 -0.718118 0.223182 0
M  V30 2092 H 195.125 -2.47733 1.66346 0
M  V30 2093 C 193.874 -3.47168 0.192262 0
M  V30 2094 H 193.197 -3.88215 0.955475 0
M  V30 2095 H 194.637 -4.23995 -0.0198274 0
M  V30 2096 C 193.096 -3.19298 -1.07472 0
M  V30 2097 O 193.626 -3.3891 -2.15645 0
M  V30 2098 N 191.832 -2.73113 -0.992847 0
M  V30 2099 H 191.379 -2.57354 -0.112474 0
M  V30 2100 H 191.337 -2.54842 -1.84127 0
M  V30 2101 N 195.109 -0.891671 -1.2995 0
M  V30 2102 C 196.039 -0.379797 -2.30391 0
M  V30 2103 C 197.02 0.540919 -1.6127 0
M  V30 2104 O 198.205 0.453352 -1.88834 0
M  V30 2105 C 195.335 0.400654 -3.44981 0
M  V30 2106 C 194.289 -0.428905 -4.25846 0
M  V30 2107 C 193.615 0.478557 -5.32554 0
M  V30 2108 C 194.915 -1.67458 -4.94727 0
M  V30 2109 H 196.609 -1.21914 -2.73454 0
M  V30 2110 H 194.155 -0.587675 -1.31462 0
M  V30 2111 H 196.108 0.769434 -4.14316 0
M  V30 2112 H 194.832 1.27371 -3.0074 0
M  V30 2113 H 193.491 -0.779911 -3.58208 0
M  V30 2114 H 193.139 1.34951 -4.84559 0
M  V30 2115 H 192.839 -0.0727433 -5.87555 0
M  V30 2116 H 194.363 0.843705 -6.04743 0
M  V30 2117 H 195.777 -1.376 -5.56542 0
M  V30 2118 H 194.174 -2.16659 -5.59624 0
M  V30 2119 H 195.244 -2.41518 -4.20473 0
M  V30 2120 N 196.587 1.43421 -0.653314 0
M  V30 2121 C 197.517 2.33487 0.0246656 0
M  V30 2122 C 198.498 1.49475 0.811863 0
M  V30 2123 O 199.683 1.78139 0.773322 0
M  V30 2124 C 196.813 3.32841 0.99166 0
M  V30 2125 C 195.767 4.26842 0.314568 0
M  V30 2126 C 195.093 5.16236 1.39302 0
M  V30 2127 C 196.393 5.16243 -0.793095 0
M  V30 2128 H 198.087 2.90427 -0.727481 0
M  V30 2129 H 195.633 1.39649 -0.351287 0
M  V30 2130 H 197.586 3.94747 1.47487 0
M  V30 2131 H 196.31 2.74158 1.77497 0
M  V30 2132 H 194.969 3.663 -0.148199 0
M  V30 2133 H 194.617 4.53891 2.16776 0
M  V30 2134 H 194.317 5.79948 0.945223 0
M  V30 2135 H 195.841 5.81015 1.87759 0
M  V30 2136 H 197.255 5.71958 -0.392039 0
M  V30 2137 H 195.652 5.88676 -1.16536 0
M  V30 2138 H 196.722 4.55927 -1.65103 0
M  V30 2139 N 198.065 0.39524 1.52563 0
M  V30 2140 C 199.311 -0.185318 2.01952 0
M  V30 2141 C 199.644 -1.45964 1.28095 0
M  V30 2142 O 198.919 -1.90689 0.38315 0
M  V30 2143 C 199.202 -0.447193 3.57312 0
M  V30 2144 C 199.055 0.842828 4.41833 0
M  V30 2145 C 200.374 -1.23529 4.22408 0
M  V30 2146 H 197.493 -0.0658788 0.73405 0
M  V30 2147 H 200.135 0.525975 1.82575 0
M  V30 2148 H 198.285 -1.05312 3.73954 0
M  V30 2149 H 199.957 1.4795 4.36931 0
M  V30 2150 H 198.2 1.45686 4.08605 0
M  V30 2151 H 198.871 0.614165 5.48573 0
M  V30 2152 H 201.347 -0.722445 4.0978 0
M  V30 2153 H 200.223 -1.38727 5.3108 0
M  V30 2154 H 200.484 -2.25213 3.80436 0
M  V30 2155 N 199.544 -1.57102 0.125237 0
M  V30 2156 C 200.507 -2.14471 -0.80838 0
M  V30 2157 C 201.507 -1.0811 -1.19033 0
M  V30 2158 O 202.697 -1.33856 -1.11482 0
M  V30 2159 C 199.829 -2.69005 -2.09402 0
M  V30 2160 H 201.022 -2.98297 -0.309696 0
M  V30 2161 H 198.575 -1.55807 -0.124051 0
M  V30 2162 H 199.31 -1.88785 -2.63687 0
M  V30 2163 H 199.095 -3.46799 -1.82957 0
M  V30 2164 H 200.585 -3.13278 -2.76128 0
M  V30 2165 N 201.022 0.148545 -1.56898 0
M  V30 2166 C 201.952 1.18524 -2.01182 0
M  V30 2167 C 202.933 1.4489 -0.891123 0
M  V30 2168 O 204.118 1.55836 -1.15882 0
M  V30 2169 C 201.248 2.51879 -2.39112 0
M  V30 2170 C 200.202 2.40038 -3.54353 0
M  V30 2171 C 199.528 3.78089 -3.78091 0
M  V30 2172 C 200.828 1.88577 -4.87069 0
M  V30 2173 H 202.522 0.817029 -2.88036 0
M  V30 2174 H 200.068 0.391575 -1.38574 0
M  V30 2175 H 202.021 3.24627 -2.68692 0
M  V30 2176 H 200.745 2.90532 -1.49193 0
M  V30 2177 H 199.404 1.69742 -3.24936 0
M  V30 2178 H 199.052 4.14175 -2.85426 0
M  V30 2179 H 198.752 3.71028 -4.55645 0
M  V30 2180 H 200.276 4.52387 -4.10095 0
M  V30 2181 H 201.69 2.51117 -5.15377 0
M  V30 2182 H 200.087 1.9241 -5.68417 0
M  V30 2183 H 201.157 0.84136 -4.77545 0
M  V30 2184 N 202.5 1.5196 0.417844 0
M  V30 2185 C 203.728 1.69426 1.18753 0
M  V30 2186 C 204.143 0.399955 1.84515 0
M  V30 2187 O 203.5 -0.623288 1.71527 0
M  V30 2188 C 203.551 2.82375 2.25714 0
M  V30 2189 O 203.272 4.06793 1.62638 0
M  V30 2190 C 204.773 3.11277 3.15628 0
M  V30 2191 H 201.993 0.568031 0.357186 0
M  V30 2192 H 204.537 1.98475 0.49273 0
M  V30 2193 H 202.692 2.5587 2.90877 0
M  V30 2194 H 203.106 4.69667 2.3348 0
M  V30 2195 H 204.58 3.93843 3.86771 0
M  V30 2196 H 205.057 2.24473 3.77503 0
M  V30 2197 H 205.663 3.39515 2.56144 0
M  V30 2198 N 203.978 -0.674533 1.42435 0
M  V30 2199 C 204.911 -1.79924 1.40366 0
M  V30 2200 C 205.889 -1.60378 0.267899 0
M  V30 2201 O 207.073 -1.82847 0.458159 0
M  V30 2202 C 204.2 -3.16927 1.19478 0
M  V30 2203 C 203.246 -3.55221 2.36051 0
M  V30 2204 S 204.079 -3.5762 3.98583 0
M  V30 2205 C 205.235 -4.97315 3.80038 0
M  V30 2206 H 205.468 -1.81405 2.35541 0
M  V30 2207 H 203.001 -0.845221 1.29211 0
M  V30 2208 H 204.959 -3.96007 1.08114 0
M  V30 2209 H 203.62 -3.13031 0.258883 0
M  V30 2210 H 202.813 -4.54804 2.17185 0
M  V30 2211 H 202.415 -2.83502 2.43932 0
M  V30 2212 H 204.707 -5.85401 3.41045 0
M  V30 2213 H 205.65 -5.21228 4.79298 0
M  V30 2214 H 206.058 -4.69845 3.12899 0
M  V30 2215 N 205.456 -1.28612 -0.910864 0
M  V30 2216 C 206.419 -1.12803 -1.9952 0
M  V30 2217 C 207.419 -0.0668264 -1.60661 0
M  V30 2218 O 208.609 -0.312847 -1.71368 0
M  V30 2219 C 205.741 -0.72254 -3.33155 0
M  V30 2220 H 206.934 -2.09109 -2.14973 0
M  V30 2221 H 204.487 -1.11639 -1.09391 0
M  V30 2222 H 205.222 0.241152 -3.23402 0
M  V30 2223 H 205.007 -1.48916 -3.62721 0
M  V30 2224 H 206.497 -0.634666 -4.12749 0
M  V30 2225 N 206.934 1.1197 -1.10907 0
M  V30 2226 C 207.884 2.15946 -0.731538 0
M  V30 2227 C 208.868 1.58758 0.261699 0
M  V30 2228 O 210.06 1.76863 0.0696722 0
M  V30 2229 C 207.189 3.42877 -0.170299 0
M  V30 2230 C 206.275 4.07037 -1.19087 0
M  V30 2231 N 206.666 4.46135 -2.38322 0
M  V30 2232 C 204.964 4.33884 -1.03252 0
M  V30 2233 C 205.665 4.96331 -3.03366 0
M  V30 2234 N 204.641 4.9214 -2.30865 0
M  V30 2235 H 208.443 2.43947 -1.63912 0
M  V30 2236 H 205.957 1.28927 -0.987505 0
M  V30 2237 H 207.954 4.16732 0.118271 0
M  V30 2238 H 206.614 3.16343 0.731935 0
M  V30 2239 H 207.625 4.38345 -2.75815 0
M  V30 2240 H 204.302 4.17084 -0.186256 0
M  V30 2241 H 205.692 5.36257 -4.04818 0
M  V30 2242 N 208.412 0.89855 1.29475 0
M  V30 2243 C 209.322 0.379974 2.31502 0
M  V30 2244 C 210.338 -0.524695 1.659 0
M  V30 2245 O 211.514 -0.414551 1.97087 0
M  V30 2246 C 208.579 -0.385138 3.44554 0
M  V30 2247 C 207.64 0.550914 4.2575 0
M  V30 2248 C 206.873 -0.177778 5.33404 0
M  V30 2249 O 207.096 -1.40189 5.52904 0
M  V30 2250 O 206.03 0.479106 5.9999 0
M  V30 2251 H 209.856 1.22639 2.77837 0
M  V30 2252 H 207.441 0.662834 1.33891 0
M  V30 2253 H 209.323 -0.817841 4.13388 0
M  V30 2254 H 207.998 -1.20763 3.0033 0
M  V30 2255 H 206.905 1.03271 3.59564 0
M  V30 2256 H 208.238 1.33979 4.73614 0
M  V30 2257 N 209.89 -1.43072 0.660911 0
M  V30 2258 C 210.82 -2.33497 -0.0122829 0
M  V30 2259 C 211.801 -1.49903 -0.803925 0
M  V30 2260 O 212.986 -1.78546 -0.763864 0
M  V30 2261 C 210.116 -3.33363 -0.973994 0
M  V30 2262 C 209.07 -4.27003 -0.291928 0
M  V30 2263 C 208.396 -5.16967 -1.36562 0
M  V30 2264 C 209.696 -5.15816 0.820462 0
M  V30 2265 H 211.39 -2.90038 0.742873 0
M  V30 2266 H 208.936 -1.39461 0.358688 0
M  V30 2267 H 210.889 -3.95524 -1.45392 0
M  V30 2268 H 209.613 -2.75095 -1.7604 0
M  V30 2269 H 208.272 -3.66217 0.167623 0
M  V30 2270 H 207.92 -4.55034 -2.14366 0
M  V30 2271 H 207.62 -5.80441 -0.914454 0
M  V30 2272 H 209.144 -5.82003 -1.84675 0
M  V30 2273 H 210.558 -5.71742 0.422366 0
M  V30 2274 H 208.955 -5.8805 1.19656 0
M  V30 2275 H 210.025 -4.55045 1.67518 0
M  V30 2276 N 211.368 -0.403325 -1.52352 0
M  V30 2277 C 212.616 0.174003 -2.0135 0
M  V30 2278 C 212.937 1.46139 -1.29106 0
M  V30 2279 O 212.207 1.91448 -0.415253 0
M  V30 2280 H 210.787 0.0672911 -0.743963 0
M  V30 2281 H 213.449 -0.538235 -1.87321 0
M  V30 2282 H 212.545 0.374254 -3.09848 0
M  V30 2283 N 212.846 1.57033 -0.133567 0
M  V30 2284 C 213.796 2.12641 0.822671 0
M  V30 2285 C 214.78 1.05081 1.21847 0
M  V30 2286 O 215.972 1.31287 1.18713 0
M  V30 2287 C 213.101 2.74094 2.06706 0
M  V30 2288 C 212.187 3.88757 1.69497 0
M  V30 2289 N 212.578 4.95194 1.03037 0
M  V30 2290 C 210.876 3.99213 1.98859 0
M  V30 2291 C 211.577 5.75414 0.852873 0
M  V30 2292 N 210.553 5.25726 1.3825 0
M  V30 2293 H 214.355 2.92308 0.305537 0
M  V30 2294 H 211.869 1.62256 0.0684276 0
M  V30 2295 H 213.866 3.12285 2.76195 0
M  V30 2296 H 212.526 1.95896 2.5895 0
M  V30 2297 H 213.537 5.13247 0.692669 0
M  V30 2298 H 210.214 3.32075 2.53047 0
M  V30 2299 H 211.604 6.71089 0.330091 0
M  V30 2300 N 214.325 -0.140222 1.56975 0
M  V30 2301 C 215.273 -1.19207 1.99731 0
M  V30 2302 C 216.267 -1.44089 0.890777 0
M  V30 2303 O 217.473 -1.44301 1.07597 0
M  V30 2304 H 213.848 -0.40142 0.635898 0
M  V30 2305 H 215.819 -0.804813 2.87342 0
M  V30 2306 C 214.568 -2.51617 2.39967 0
M  V30 2307 H 213.891 -2.33303 3.24669 0
M  V30 2308 H 215.331 -3.23827 2.73701 0
M  V30 2309 C 213.79 -3.12654 1.25496 0
M  V30 2310 O 214.32 -3.97786 0.559371 0
M  V30 2311 N 212.526 -2.72206 1.01746 0
M  V30 2312 H 212.073 -2.03074 1.58489 0
M  V30 2313 H 212.031 -3.13377 0.253461 0
M  V30 2314 N 215.803 -1.52179 -0.40978 0
M  V30 2315 C 216.733 -1.78435 -1.5061 0
M  V30 2316 C 217.714 -0.635295 -1.57791 0
M  V30 2317 O 218.899 -0.880823 -1.73076 0
M  V30 2318 C 216.029 -1.93444 -2.88439 0
M  V30 2319 C 214.983 -3.09038 -2.96108 0
M  V30 2320 C 214.309 -3.09268 -4.36185 0
M  V30 2321 C 215.609 -4.48508 -2.67652 0
M  V30 2322 H 217.303 -2.70237 -1.28889 0
M  V30 2323 H 214.849 -1.30036 -0.618605 0
M  V30 2324 H 216.802 -2.10394 -3.65119 0
M  V30 2325 H 215.526 -0.983129 -3.11452 0
M  V30 2326 H 214.185 -2.91837 -2.21872 0
M  V30 2327 H 213.833 -2.11861 -4.56206 0
M  V30 2328 H 213.533 -3.86907 -4.42241 0
M  V30 2329 H 215.057 -3.28348 -5.14801 0
M  V30 2330 H 216.471 -4.65918 -3.34056 0
M  V30 2331 H 214.868 -5.28059 -2.85085 0
M  V30 2332 H 215.938 -4.56649 -1.63095 0
M  V30 2333 N 217.281 0.66697 -1.42791 0
M  V30 2334 C 218.529 1.42417 -1.43394 0
M  V30 2335 C 218.85 1.94925 -0.0542373 0
M  V30 2336 O 218.12 1.73564 0.908415 0
M  V30 2337 H 216.7 0.528515 -0.527902 0
M  V30 2338 H 219.362 0.787562 -1.78279 0
M  V30 2339 H 218.458 2.27333 -2.13837 0
M  V30 2340 N 218.759 1.29093 0.90403 0
M  V30 2341 C 219.692 1.08176 2.00931 0
M  V30 2342 C 220.67 -0.005083 1.62599 0
M  V30 2343 O 221.854 0.144765 1.87943 0
M  V30 2344 C 218.981 0.645897 3.32484 0
M  V30 2345 C 218.027 1.73081 3.89801 0
M  V30 2346 S 218.86 3.32905 4.19446 0
M  V30 2347 C 220.016 2.91176 5.54046 0
M  V30 2348 H 220.249 2.01752 2.18365 0
M  V30 2349 H 217.782 1.13191 1.0501 0
M  V30 2350 H 219.74 0.401131 4.08535 0
M  V30 2351 H 218.401 -0.270188 3.12936 0
M  V30 2352 H 217.594 1.37768 4.84805 0
M  V30 2353 H 217.196 1.92888 3.20422 0
M  V30 2354 H 219.488 2.37952 6.34338 0
M  V30 2355 H 220.431 3.85014 5.94281 0
M  V30 2356 H 220.839 2.296 5.15698 0
M  V30 2357 N 220.237 -1.11381 1.11499 0
M  V30 2358 C 221.185 -2.19522 0.768956 0
M  V30 2359 C 222.179 -1.67693 -0.239857 0
M  V30 2360 O 223.385 -1.79727 -0.0990755 0
M  V30 2361 H 219.76 -0.715711 0.230786 0
M  V30 2362 H 221.731 -2.45954 1.68964 0
M  V30 2363 C 220.48 -3.46945 0.229073 0
M  V30 2364 H 219.803 -3.8718 0.996596 0
M  V30 2365 H 221.243 -4.23993 0.0251441 0
M  V30 2366 C 219.702 -3.2042 -1.04079 0
M  V30 2367 O 220.232 -3.41178 -2.12038 0
M  V30 2368 N 218.438 -2.74151 -0.963823 0
M  V30 2369 H 217.985 -2.57459 -0.0851722 0
M  V30 2370 H 217.943 -2.56781 -1.81414 0
M  V30 2371 N 221.715 -0.905404 -1.28997 0
M  V30 2372 C 222.665 -0.358713 -2.25161 0
M  V30 2373 C 223.649 0.524449 -1.52113 0
M  V30 2374 O 224.841 0.365534 -1.73184 0
M  V30 2375 C 221.97 0.407609 -3.40872 0
M  V30 2376 C 221.056 -0.490797 -4.21251 0
M  V30 2377 N 221.447 -1.60061 -4.79806 0
M  V30 2378 C 219.745 -0.289636 -4.45059 0
M  V30 2379 C 220.446 -2.15757 -5.40207 0
M  V30 2380 N 219.422 -1.44988 -5.23908 0
M  V30 2381 H 223.224 -1.20642 -2.67998 0
M  V30 2382 H 220.738 -0.757103 -1.43672 0
M  V30 2383 H 222.735 0.816046 -4.08835 0
M  V30 2384 H 221.395 1.25251 -2.9957 0
M  V30 2385 H 222.406 -1.98329 -4.7842 0
M  V30 2386 H 219.083 0.51643 -4.14294 0
M  V30 2387 H 220.473 -3.09069 -5.96595 0
M  V30 2388 N 223.193 1.4272 -0.668489 0
M  V30 2389 C 224.47 1.95248 -0.117373 0
M  V30 2390 C 224.85 1.60919 1.36632 0
M  V30 2391 O 224.198 0.902095 2.09939 0
M  V30 2392 C 224.408 3.46927 -0.379806 0
M  V30 2393 C 225.756 4.23588 -0.292923 0
M  V30 2394 O 226.78 3.5482 -0.313204 0
M  V30 2395 O 225.639 5.46017 -0.229697 0
M  V30 2396 H 222.733 0.827 0.00079152 0
M  V30 2397 H 225.279 1.52581 -0.742783 0
M  V30 2398 H 224.051 3.65096 -1.40786 0
M  V30 2399 H 223.674 3.96627 0.277923 0
M  V30 2400 N 224.671 0.411399 1.52136 0
M  V30 2401 C 225.919 -0.163322 2.01439 0
M  V30 2402 C 226.24 -1.45453 1.29879 0
M  V30 2403 O 225.51 -1.91225 0.4254 0
M  V30 2404 H 224.09 -0.0633447 0.744309 0
M  V30 2405 H 226.752 0.548161 1.87033 0
M  V30 2406 H 225.848 -0.357817 3.10042 0
M  V30 2407 N 226.149 -1.5696 0.141893 0
M  V30 2408 C 227.097 -2.17784 -0.816874 0
M  V30 2409 C 228.091 -1.1334 -1.25899 0
M  V30 2410 O 229.297 -1.316 -1.22806 0
M  V30 2411 H 225.672 -0.697278 -0.281615 0
M  V30 2412 H 227.643 -2.97087 -0.279621 0
M  V30 2413 C 226.392 -2.80983 -2.04802 0
M  V30 2414 H 225.715 -3.61062 -1.7168 0
M  V30 2415 H 227.155 -3.2705 -2.69841 0
M  V30 2416 C 225.614 -1.79228 -2.8527 0
M  V30 2417 O 226.144 -1.25962 -3.8144 0
M  V30 2418 N 224.35 -1.48647 -2.49704 0
M  V30 2419 H 223.897 -1.92155 -1.71564 0
M  V30 2420 H 223.855 -0.808115 -3.03837 0
M  V30 2421 N 227.627 0.131896 -1.57047 0
M  V30 2422 C 228.559 1.1878 -1.9602 0
M  V30 2423 C 229.572 1.38363 -0.857875 0
M  V30 2424 O 230.761 1.37666 -1.13623 0
M  V30 2425 C 227.861 2.55008 -2.23213 0
M  V30 2426 C 227.034 2.56201 -3.54513 0
M  V30 2427 C 226.093 3.7408 -3.70069 0
M  V30 2428 O 225.119 3.58258 -4.42312 0
M  V30 2429 N 226.321 4.92137 -3.07866 0
M  V30 2430 H 229.086 0.85639 -2.87204 0
M  V30 2431 H 226.647 0.321309 -1.5868 0
M  V30 2432 H 228.639 3.32404 -2.30846 0
M  V30 2433 H 227.209 2.80382 -1.3822 0
M  V30 2434 H 226.429 1.64613 -3.58185 0
M  V30 2435 H 227.717 2.54043 -4.4084 0
M  V30 2436 H 227.115 5.07895 -2.49116 0
M  V30 2437 H 225.672 5.67254 -3.21039 0
M  V30 2438 N 229.106 1.52395 0.401703 0
M  V30 2439 C 230.346 1.68498 1.15705 0
M  V30 2440 C 230.71 0.409748 1.87577 0
M  V30 2441 O 231.911 0.446983 2.65058 0
M  V30 2442 C 230.182 2.87789 2.11924 0
M  V30 2443 S 231.741 3.24415 2.95466 0
M  V30 2444 H 228.559 0.593267 0.391862 0
M  V30 2445 H 231.161 1.90408 0.443282 0
M  V30 2446 H 229.865 3.7884 1.57824 0
M  V30 2447 H 229.396 2.68175 2.87829 0
M  V30 2448 H 231.411 2.73614 4.13944 0
M  V30 2449 N 230.584 -0.659388 1.43143 0
M  V30 2450 C 231.534 -1.7655 1.44271 0
M  V30 2451 C 232.518 -1.57847 0.311961 0
M  V30 2452 O 233.71 -1.68064 0.555306 0
M  V30 2453 C 230.839 -3.15104 1.36251 0
M  V30 2454 C 229.925 -3.39377 2.54331 0
M  V30 2455 N 230.316 -3.34153 3.79704 0
M  V30 2456 C 228.614 -3.70072 2.48922 0
M  V30 2457 C 229.315 -3.58337 4.58225 0
M  V30 2458 N 228.291 -3.79851 3.88863 0
M  V30 2459 H 232.093 -1.70928 2.39083 0
M  V30 2460 H 229.607 -0.860823 1.37708 0
M  V30 2461 H 231.604 -3.94389 1.35141 0
M  V30 2462 H 230.264 -3.21913 0.424531 0
M  V30 2463 H 231.275 -3.13704 4.1208 0
M  V30 2464 H 227.952 -3.84034 1.63781 0
M  V30 2465 H 229.342 -3.60129 5.67236 0
M  V30 2466 N 232.062 -1.29571 -0.897171 0
M  V30 2467 C 233.302 -1.18959 -1.66217 0
M  V30 2468 C 233.666 0.254271 -1.90309 0
M  V30 2469 O 234.867 0.483407 -2.64417 0
M  V30 2470 C 233.138 -1.98302 -2.9734 0
M  V30 2471 S 234.697 -2.04253 -3.88364 0
M  V30 2472 H 231.515 -0.424137 -0.570639 0
M  V30 2473 H 234.117 -1.6389 -1.06585 0
M  V30 2474 H 232.821 -3.02342 -2.77521 0
M  V30 2475 H 232.352 -1.53986 -3.62011 0
M  V30 2476 H 234.367 -1.16105 -4.82425 0
M  V30 2477 N 233.54 1.10788 -1.12088 0
M  V30 2478 C 234.788 1.8231 -0.872205 0
M  V30 2479 C 235.109 1.85419 0.603709 0
M  V30 2480 O 234.379 1.32963 1.43867 0
M  V30 2481 H 232.959 0.675137 -0.319686 0
M  V30 2482 H 235.621 1.34068 -1.41463 0
M  V30 2483 H 234.717 2.85955 -1.25045 0
M  V30 2484 N 235.018 0.912232 1.28515 0
M  V30 2485 C 235.981 0.404223 2.25607 0
M  V30 2486 C 236.981 -0.468602 1.53821 0
M  V30 2487 O 238.171 -0.271873 1.72065 0
M  V30 2488 C 235.303 -0.420653 3.38295 0
M  V30 2489 H 236.496 1.26188 2.7206 0
M  V30 2490 H 234.049 0.691495 1.40171 0
M  V30 2491 H 234.784 -1.29777 2.97201 0
M  V30 2492 H 234.569 0.204935 3.91564 0
M  V30 2493 H 236.059 -0.766971 4.10496 0
M  V30 2494 N 236.496 -1.42363 0.676048 0
M  V30 2495 C 237.444 -2.32596 -0.0131507 0
M  V30 2496 C 238.438 -1.49891 -0.789238 0
M  V30 2497 O 239.644 -1.65955 -0.697061 0
M  V30 2498 H 236.019 -0.751647 -0.0230481 0
M  V30 2499 H 237.99 -2.88421 0.765243 0
M  V30 2500 C 236.739 -3.34479 -0.949702 0
M  V30 2501 H 236.062 -3.98158 -0.361938 0
M  V30 2502 H 237.502 -4.00199 -1.4006 0
M  V30 2503 C 235.961 -2.66838 -2.05667 0
M  V30 2504 O 236.491 -2.50124 -3.14326 0
M  V30 2505 N 234.697 -2.25843 -1.82875 0
M  V30 2506 H 234.244 -2.39637 -0.945085 0
M  V30 2507 H 234.202 -1.80918 -2.5713 0
M  V30 2508 N 237.974 -0.419461 -1.51915 0
M  V30 2509 C 239.199 0.154572 -2.06823 0
M  V30 2510 C 239.624 1.3722 -1.28656 0
M  V30 2511 O 238.982 1.78461 -0.319583 0
M  V30 2512 C 239.03 0.473172 -3.57482 0
M  V30 2513 O 238.134 1.56255 -3.81652 0
M  V30 2514 H 237.475 0.0096924 -0.663929 0
M  V30 2515 H 240.005 -0.595642 -1.95738 0
M  V30 2516 H 240.015 0.728825 -4.01438 0
M  V30 2517 H 238.69 -0.416873 -4.13805 0
M  V30 2518 H 237.267 1.29825 -3.49571 0
M  V30 2519 N 239.452 1.56882 -0.150215 0
M  V30 2520 C 240.692 1.98119 0.502804 0
M  V30 2521 C 241.056 1.03327 1.61826 0
M  V30 2522 O 242.257 1.33621 2.33236 0
M  V30 2523 C 240.528 3.43329 0.992988 0
M  V30 2524 S 242.087 4.0659 1.65015 0
M  V30 2525 H 238.905 0.692189 0.162467 0
M  V30 2526 H 241.507 1.93988 -0.242689 0
M  V30 2527 H 240.211 4.10046 0.170436 0
M  V30 2528 H 239.742 3.5118 1.77303 0
M  V30 2529 H 241.757 3.99906 2.93752 0
M  V30 2530 N 240.93 -0.123565 1.57115 0
M  V30 2531 C 242.176 -0.833386 1.84885 0
M  V30 2532 C 242.509 -1.79742 0.735292 0
M  V30 2533 O 241.784 -1.92764 -0.25925 0
M  V30 2534 C 242.067 -1.5873 3.23228 0
M  V30 2535 C 241.92 -0.643183 4.45178 0
M  V30 2536 C 243.239 -2.54453 3.59085 0
M  V30 2537 H 240.358 -0.301518 0.6725 0
M  V30 2538 H 243 -0.097778 1.89748 0
M  V30 2539 H 241.15 -2.21438 3.19214 0
M  V30 2540 H 242.822 -0.0253015 4.61293 0
M  V30 2541 H 241.065 0.0456139 4.33776 0
M  V30 2542 H 241.736 -1.20724 5.38637 0
M  V30 2543 H 244.212 -2.01853 3.63861 0
M  V30 2544 H 243.088 -3.04238 4.5687 0
M  V30 2545 H 243.349 -3.36906 2.86264 0
M  V30 2546 N 242.408 -1.52605 -0.393616 0
M  V30 2547 C 243.341 -1.71798 -1.50202 0
M  V30 2548 C 244.319 -0.565743 -1.52441 0
M  V30 2549 O 245.503 -0.794987 -1.70916 0
M  V30 2550 C 242.63 -1.7714 -2.88685 0
M  V30 2551 C 241.676 -2.98845 -3.04292 0
M  V30 2552 S 242.509 -4.58909 -2.75976 0
M  V30 2553 C 243.665 -4.6706 -4.1666 0
M  V30 2554 H 243.898 -2.65542 -1.33696 0
M  V30 2555 H 241.431 -1.42839 -0.586195 0
M  V30 2556 H 243.389 -1.80903 -3.68489 0
M  V30 2557 H 242.05 -0.844969 -3.02521 0
M  V30 2558 H 241.243 -2.99111 -4.05646 0
M  V30 2559 H 240.845 -2.9305 -2.32374 0
M  V30 2560 H 243.137 -4.45391 -5.10523 0
M  V30 2561 H 244.08 -5.6905 -4.21412 0
M  V30 2562 H 244.488 -3.95944 -4.02354 0
M  V30 2563 N 243.887 0.651787 -1.4349 0
M  V30 2564 C 244.85 1.74647 -1.48429 0
M  V30 2565 C 245.85 1.56513 -0.368817 0
M  V30 2566 O 247.04 1.62385 -0.630623 0
M  V30 2567 C 244.172 3.13533 -1.33827 0
M  V30 2568 H 245.365 1.71649 -2.4592 0
M  V30 2569 H 242.918 0.863573 -1.30277 0
M  V30 2570 H 243.653 3.22142 -0.37349 0
M  V30 2571 H 243.438 3.28101 -2.14691 0
M  V30 2572 H 244.928 3.93356 -1.40218 0
M  V30 2573 N 245.365 1.30045 0.890287 0
M  V30 2574 C 246.328 1.15963 1.977 0
M  V30 2575 C 247.328 0.0923777 1.60534 0
M  V30 2576 O 248.518 0.340071 1.70848 0
M  V30 2577 C 245.65 0.775451 3.31963 0
M  V30 2578 H 246.843 2.12502 2.11619 0
M  V30 2579 H 244.396 1.13366 1.07601 0
M  V30 2580 H 245.131 -0.189671 3.23745 0
M  V30 2581 H 244.916 1.54668 3.60306 0
M  V30 2582 H 246.406 0.700251 4.11687 0
M  V30 2583 N 246.843 -1.10192 1.12674 0
M  V30 2584 C 247.776 -2.15847 0.740625 0
M  V30 2585 C 248.754 -1.60352 -0.269421 0
M  V30 2586 O 249.938 -1.87796 -0.16278 0
M  V30 2587 C 247.065 -3.38562 0.096641 0
M  V30 2588 C 246.111 -4.12758 1.07391 0
M  V30 2589 S 246.944 -4.67997 2.60267 0
M  V30 2590 C 248.1 -5.94021 1.97206 0
M  V30 2591 H 248.333 -2.48266 1.63558 0
M  V30 2592 H 245.866 -1.22019 0.946087 0
M  V30 2593 H 247.824 -4.09621 -0.268535 0
M  V30 2594 H 246.485 -3.04377 -0.775462 0
M  V30 2595 H 245.678 -5.00755 0.570997 0
M  V30 2596 H 245.28 -3.47523 1.38216 0
M  V30 2597 H 247.572 -6.64589 1.31634 0
M  V30 2598 H 248.515 -6.48979 2.83253 0
M  V30 2599 H 248.923 -5.46169 1.42686 0
M  V30 2600 N 248.321 -0.919034 -1.28029 0
M  V30 2601 C 249.251 -0.428581 -2.29533 0
M  V30 2602 C 250.232 0.50659 -1.62381 0
M  V30 2603 O 251.417 0.413195 -1.89753 0
M  V30 2604 C 248.547 0.327388 -3.45753 0
M  V30 2605 C 247.501 -0.519137 -4.2484 0
M  V30 2606 C 246.827 0.365486 -5.33449 0
M  V30 2607 C 248.127 -1.77914 -4.91064 0
M  V30 2608 H 249.821 -1.27687 -2.70807 0
M  V30 2609 H 247.367 -0.615428 -1.30186 0
M  V30 2610 H 249.32 0.681378 -4.15855 0
M  V30 2611 H 248.044 1.20963 -3.03374 0
M  V30 2612 H 246.703 -0.855717 -3.56473 0
M  V30 2613 H 246.351 1.24642 -4.87312 0
M  V30 2614 H 246.051 -0.197356 -5.87268 0
M  V30 2615 H 247.575 0.715241 -6.06396 0
M  V30 2616 H 248.989 -1.49374 -5.53498 0
M  V30 2617 H 247.386 -2.2848 -5.54903 0
M  V30 2618 H 248.456 -2.50382 -4.15255 0
M  V30 2619 N 249.799 1.42003 -0.683588 0
M  V30 2620 C 251.024 2.06265 -0.216647 0
M  V30 2621 C 251.449 1.51059 1.12083 0
M  V30 2622 O 250.807 0.632638 1.69904 0
M  V30 2623 C 250.855 3.60191 -0.171759 0
M  V30 2624 O 249.959 4.03396 0.857069 0
M  V30 2625 H 249.3 0.65502 -0.108834 0
M  V30 2626 H 251.83 1.81982 -0.935077 0
M  V30 2627 H 251.84 4.08 0.0014303 0
M  V30 2628 H 250.515 3.99743 -1.14796 0
M  V30 2629 H 249.092 3.67117 0.654208 0
M  V30 2630 N 251.277 0.427512 1.51691 0
M  V30 2631 C 252.554 -0.201684 1.94557 0
M  V30 2632 C 252.934 -1.60981 1.36559 0
M  V30 2633 O 252.282 -2.21814 0.548702 0
M  V30 2634 C 252.492 -0.189394 3.48486 0
M  V30 2635 C 253.84 -0.39978 4.22714 0
M  V30 2636 O 254.864 -0.267945 3.55191 0
M  V30 2637 O 253.723 -0.661249 5.42485 0
M  V30 2638 H 250.817 -0.135261 0.815864 0
M  V30 2639 H 253.363 0.484782 1.62628 0
M  V30 2640 H 252.135 0.795431 3.8313 0
M  V30 2641 H 251.758 -0.919187 3.86829 0
M  V30 2642 N 252.755 -1.56801 0.158532 0
M  V30 2643 C 253.687 -2.14488 -0.807923 0
M  V30 2644 C 254.7 -1.09721 -1.20271 0
M  V30 2645 O 255.889 -1.36956 -1.14478 0
M  V30 2646 C 252.989 -2.66217 -2.09718 0
M  V30 2647 C 252.162 -3.95507 -1.86796 0
M  V30 2648 C 251.221 -4.3243 -2.99818 0
M  V30 2649 O 250.247 -5.00543 -2.71008 0
M  V30 2650 N 251.449 -3.92947 -4.27285 0
M  V30 2651 H 254.214 -2.98042 -0.314816 0
M  V30 2652 H 251.775 -1.61881 -0.0246692 0
M  V30 2653 H 253.767 -2.87924 -2.84398 0
M  V30 2654 H 252.337 -1.87324 -2.50257 0
M  V30 2655 H 251.557 -3.82309 -0.96089 0
M  V30 2656 H 252.845 -4.79972 -1.68833 0
M  V30 2657 H 252.243 -3.38087 -4.53557 0
M  V30 2658 H 250.8 -4.19681 -4.9871 0
M  V30 2659 N 254.233 0.115231 -1.57178 0
M  V30 2660 C 255.644 0.67197 -1.74188 0
M  V30 2661 C 255.995 1.80125 -0.777777 0
M  V30 2662 O 255.12 2.16346 0.0484376 0
M  V30 2663 C 255.715 1.22573 -3.1585 0
M  V30 2664 C 254.274 1.72872 -3.34353 0
M  V30 2665 C 253.421 0.629972 -2.70049 0
M  V30 2666 H 256.372 -0.110712 -1.58313 0
M  V30 2667 H 256.393 2.09535 -3.17609 0
M  V30 2668 H 255.905 0.403598 -3.85996 0
M  V30 2669 H 254.006 2.5755 -2.69256 0
M  V30 2670 H 254.119 1.83557 -4.42542 0
M  V30 2671 H 252.483 1.0645 -2.31388 0
M  V30 2672 H 253.266 -0.181241 -3.42821 0
M  V30 2673 N 255.711 1.52812 0.385517 0
M  V30 2674 C 256.936 1.72207 1.15583 0
M  V30 2675 C 257.361 0.441034 1.82857 0
M  V30 2676 O 256.719 -0.603465 1.70962 0
M  V30 2677 C 256.767 2.87476 2.17692 0
M  V30 2678 O 255.871 2.54693 3.24354 0
M  V30 2679 H 255.212 0.572526 0.336319 0
M  V30 2680 H 257.742 1.99618 0.448744 0
M  V30 2681 H 257.752 3.13072 2.6163 0
M  V30 2682 H 256.427 3.80408 1.68115 0
M  V30 2683 H 255.004 2.3985 2.85529 0
M  V30 2684 N 257.189 -0.644168 1.43834 0
M  V30 2685 C 258.136 -1.75671 1.49694 0
M  V30 2686 C 259.106 -1.6246 0.345809 0
M  V30 2687 O 260.291 -1.82573 0.554234 0
M  V30 2688 C 257.431 -3.13867 1.43463 0
M  V30 2689 C 256.544 -3.38147 2.6885 0
M  V30 2690 C 255.679 -4.66241 2.54544 0
M  V30 2691 C 254.718 -4.83657 3.75157 0
M  V30 2692 N 253.855 -6.03016 3.59605 0
M  V30 2693 H 258.695 -1.69998 2.44754 0
M  V30 2694 H 256.232 -0.829458 1.21484 0
M  V30 2695 H 258.19 -3.9377 1.37843 0
M  V30 2696 H 256.82 -3.18588 0.519783 0
M  V30 2697 H 255.872 -2.52276 2.84712 0
M  V30 2698 H 257.184 -3.46899 3.58417 0
M  V30 2699 H 256.338 -5.54285 2.46683 0
M  V30 2700 H 255.077 -4.59826 1.62516 0
M  V30 2701 H 254.082 -3.94046 3.83416 0
M  V30 2702 H 255.307 -4.91896 4.68204 0
M  V30 2703 H 253.253 -5.97715 2.7032 0
M  V30 2704 H 253.17 -6.12766 4.42779 0
M  V30 2705 H 254.438 -6.93657 3.55613 0
M  V30 2706 N 258.668 -1.30515 -0.883378 0
M  V30 2707 C 259.598 -1.19607 -2.00541 0
M  V30 2708 C 260.579 -0.086346 -1.69881 0
M  V30 2709 O 261.764 -0.268654 -1.92333 0
M  V30 2710 C 258.894 -0.888758 -3.35736 0
M  V30 2711 C 257.848 -1.95659 -3.8066 0
M  V30 2712 C 257.174 -1.50224 -5.13164 0
M  V30 2713 C 258.474 -3.36788 -3.99213 0
M  V30 2714 H 260.168 -2.13476 -2.09925 0
M  V30 2715 H 257.714 -1.02775 -1.00863 0
M  V30 2716 H 259.667 -0.799094 -4.13754 0
M  V30 2717 H 258.391 0.0856125 -3.26488 0
M  V30 2718 H 257.05 -2.03591 -3.04871 0
M  V30 2719 H 256.698 -0.516092 -5.00345 0
M  V30 2720 H 256.398 -2.2165 -5.44192 0
M  V30 2721 H 257.922 -1.42639 -5.93706 0
M  V30 2722 H 259.336 -3.31605 -4.67665 0
M  V30 2723 H 257.733 -4.06314 -4.41621 0
M  V30 2724 H 258.803 -3.78561 -3.03017 0
M  V30 2725 N 260.146 1.09593 -1.13257 0
M  V30 2726 C 261.393 1.81734 -0.893257 0
M  V30 2727 C 261.721 1.8563 0.580656 0
M  V30 2728 O 260.976 1.31906 1.44566 0
M  V30 2729 C 261.275 3.27802 -1.42411 0
M  V30 2730 C 260.941 3.44041 -2.91456 0
M  V30 2731 C 259.603 3.48181 -3.3215 0
M  V30 2732 C 261.955 3.48719 -3.87356 0
M  V30 2733 C 259.283 3.54575 -4.67433 0
M  V30 2734 C 261.635 3.56648 -5.2248 0
M  V30 2735 C 260.299 3.59055 -5.62704 0
M  V30 2736 H 259.569 0.665011 -0.326866 0
M  V30 2737 H 262.216 1.2912 -1.41422 0
M  V30 2738 H 260.521 3.83042 -0.823795 0
M  V30 2739 H 262.218 3.82149 -1.21503 0
M  V30 2740 H 258.808 3.41502 -2.58987 0
M  V30 2741 H 262.992 3.44763 -3.57004 0
M  V30 2742 H 258.248 3.54725 -4.97976 0
M  V30 2743 H 262.422 3.59212 -5.96607 0
M  V30 2744 H 260.049 3.63763 -6.67518 0
M  V30 2745 N 261.624 0.925811 1.2754 0
M  V30 2746 C 262.849 0.580924 1.99098 0
M  V30 2747 C 263.274 -0.833555 1.68622 0
M  V30 2748 O 262.632 -1.55903 0.925422 0
M  V30 2749 C 262.68 0.811186 3.51358 0
M  V30 2750 O 261.784 -0.124129 4.12213 0
M  V30 2751 H 261.125 0.223873 0.625122 0
M  V30 2752 H 263.655 1.24455 1.62395 0
M  V30 2753 H 263.665 0.72601 4.01489 0
M  V30 2754 H 262.34 1.84227 3.72872 0
M  V30 2755 H 260.917 0.0108006 3.72898 0
M  V30 2756 N 263.102 -1.41638 0.69111 0
M  V30 2757 C 264.379 -1.95036 0.148421 0
M  V30 2758 C 264.759 -1.63072 -1.34055 0
M  V30 2759 O 264.107 -0.93538 -2.08478 0
M  V30 2760 C 264.317 -3.46279 0.434951 0
M  V30 2761 C 265.665 -4.23069 0.360275 0
M  V30 2762 O 266.689 -3.54277 0.369613 0
M  V30 2763 O 265.548 -5.45583 0.316534 0
M  V30 2764 H 262.642 -0.826908 0.0123654 0
M  V30 2765 H 265.188 -1.5138 0.766963 0
M  V30 2766 H 263.96 -3.6281 1.46576 0
M  V30 2767 H 263.583 -3.97019 -0.214787 0
M  V30 2768 N 264.58 -0.43555 -1.51462 0
M  V30 2769 C 265.82 0.130708 -2.03982 0
M  V30 2770 C 266.184 1.40117 -1.31268 0
M  V30 2771 O 267.385 2.04755 -1.74152 0
M  V30 2772 C 265.656 0.346102 -3.5572 0
M  V30 2773 S 267.215 0.876022 -4.29967 0
M  V30 2774 H 264.033 0.0326881 -0.710248 0
M  V30 2775 H 266.635 -0.594544 -1.8624 0
M  V30 2776 H 265.339 -0.584911 -4.0621 0
M  V30 2777 H 264.87 1.09849 -3.77752 0
M  V30 2778 H 266.885 2.15379 -4.47019 0
M  V30 2779 N 266.058 1.56714 -0.166846 0
M  V30 2780 C 267.283 2.01557 0.488833 0
M  V30 2781 C 267.708 1.0463 1.56314 0
M  V30 2782 O 267.066 0.0251304 1.81283 0
M  V30 2783 C 267.114 3.4503 1.04818 0
M  V30 2784 O 266.218 3.51163 2.16236 0
M  V30 2785 H 265.559 0.653516 0.117526 0
M  V30 2786 H 268.089 2.02818 -0.269421 0
M  V30 2787 H 268.099 3.84243 1.37191 0
M  V30 2788 H 266.774 4.15077 0.261572 0
M  V30 2789 H 265.351 3.23807 1.84942 0
M  V30 2790 N 267.536 -0.106894 1.57237 0
M  V30 2791 C 268.483 -1.13049 2.01217 0
M  V30 2792 C 269.453 -1.40471 0.886403 0
M  V30 2793 O 270.638 -1.52133 1.15153 0
M  V30 2794 C 267.778 -2.4487 2.43172 0
M  V30 2795 C 266.891 -2.24281 3.69218 0
M  V30 2796 C 266.026 -3.49417 4.00101 0
M  V30 2797 C 265.065 -3.24038 5.19294 0
M  V30 2798 N 264.202 -4.41409 5.45988 0
M  V30 2799 H 269.042 -0.748456 2.88448 0
M  V30 2800 H 266.579 -0.358054 1.42676 0
M  V30 2801 H 268.537 -3.21786 2.65537 0
M  V30 2802 H 267.167 -2.80944 1.58967 0
M  V30 2803 H 266.219 -1.38224 3.54398 0
M  V30 2804 H 267.531 -2.01512 4.56283 0
M  V30 2805 H 266.685 -4.34746 4.2318 0
M  V30 2806 H 265.424 -3.75229 3.11535 0
M  V30 2807 H 264.429 -2.37102 4.96047 0
M  V30 2808 H 265.654 -2.99584 6.09447 0
M  V30 2809 H 263.6 -4.67319 4.60379 0
M  V30 2810 H 263.517 -4.21788 6.274 0
M  V30 2811 H 264.785 -5.27836 5.73593 0
M  V30 2812 N 269.014 -1.53014 -0.377408 0
M  V30 2813 C 269.961 -1.78616 -1.46168 0
M  V30 2814 C 270.931 -0.629917 -1.53692 0
M  V30 2815 O 272.116 -0.870861 -1.69766 0
M  V30 2816 C 269.256 -1.97123 -2.8326 0
M  V30 2817 C 268.369 -3.24831 -2.84796 0
M  V30 2818 C 267.504 -3.33591 -4.13389 0
M  V30 2819 C 266.543 -4.55377 -4.09021 0
M  V30 2820 N 265.68 -4.61355 -5.29241 0
M  V30 2821 H 270.52 -2.71142 -1.23637 0
M  V30 2822 H 268.057 -1.34326 -0.599577 0
M  V30 2823 H 270.015 -2.05839 -3.62886 0
M  V30 2824 H 268.645 -1.07946 -3.04216 0
M  V30 2825 H 267.697 -3.25128 -1.97474 0
M  V30 2826 H 269.009 -4.14523 -2.77439 0
M  V30 2827 H 268.163 -3.41554 -5.01424 0
M  V30 2828 H 266.902 -2.41894 -4.23484 0
M  V30 2829 H 265.907 -4.47527 -3.19373 0
M  V30 2830 H 267.132 -5.48402 -4.00539 0
M  V30 2831 H 265.078 -3.72554 -5.39944 0
M  V30 2832 H 264.995 -5.44935 -5.24006 0
M  V30 2833 H 266.263 -4.73586 -6.19141 0
M  V30 2834 N 270.492 0.636531 -1.44174 0
M  V30 2835 C 271.769 1.39463 -1.37148 0
M  V30 2836 C 272.149 2.11082 -0.027507 0
M  V30 2837 O 271.497 2.05954 0.989716 0
M  V30 2838 C 271.707 2.36552 -2.56601 0
M  V30 2839 C 273.055 3.00048 -3.00427 0
M  V30 2840 O 274.079 2.46878 -2.56767 0
M  V30 2841 O 272.938 3.96488 -3.76111 0
M  V30 2842 H 270.032 0.623903 -0.542839 0
M  V30 2843 H 272.578 0.662039 -1.56253 0
M  V30 2844 H 271.35 1.82692 -3.46034 0
M  V30 2845 H 270.973 3.17236 -2.39681 0
M  V30 2846 N 271.97 1.30982 0.876444 0
M  V30 2847 C 273.2 1.23063 1.65949 0
M  V30 2848 C 273.608 -0.207537 1.88058 0
M  V30 2849 O 272.951 -1.14781 1.43426 0
M  V30 2850 C 273.013 1.89768 3.05333 0
M  V30 2851 C 272.677 3.39106 3.0636 0
M  V30 2852 C 273.674 4.3496 2.84791 0
M  V30 2853 C 271.359 3.80693 3.27686 0
M  V30 2854 C 273.353 5.70375 2.84519 0
M  V30 2855 C 271.04 5.16223 3.27043 0
M  V30 2856 C 272.038 6.10875 3.05485 0
M  V30 2857 O 271.726 7.43928 3.04674 0
M  V30 2858 H 271.458 0.426685 0.524324 0
M  V30 2859 H 274.012 1.7329 1.10271 0
M  V30 2860 H 272.242 1.34082 3.6271 0
M  V30 2861 H 273.931 1.75853 3.65829 0
M  V30 2862 H 274.697 4.0416 2.68103 0
M  V30 2863 H 270.576 3.07457 3.43499 0
M  V30 2864 H 274.12 6.44228 2.67611 0
M  V30 2865 H 270.017 5.4666 3.43269 0
M  V30 2866 H 270.785 7.53022 3.2078 0
M  V30 2867 N 273.449 -1.08991 1.13837 0
M  V30 2868 C 274.381 -2.15606 0.777612 0
M  V30 2869 C 275.394 -1.61533 -0.202739 0
M  V30 2870 O 276.583 -1.78491 0.0181055 0
M  V30 2871 C 273.683 -3.3864 0.132623 0
M  V30 2872 C 272.856 -4.22115 1.1462 0
M  V30 2873 C 271.915 -5.23564 0.526074 0
M  V30 2874 O 270.941 -5.56678 1.18735 0
M  V30 2875 N 272.143 -5.76266 -0.699866 0
M  V30 2876 H 274.908 -2.47159 1.69506 0
M  V30 2877 H 272.469 -1.24747 1.03198 0
M  V30 2878 H 274.461 -4.03626 -0.29459 0
M  V30 2879 H 273.031 -3.04938 -0.687849 0
M  V30 2880 H 272.251 -3.53199 1.75055 0
M  V30 2881 H 273.539 -4.74709 1.83109 0
M  V30 2882 H 272.937 -5.51585 -1.25581 0
M  V30 2883 H 271.494 -6.42963 -1.06968 0
M  V30 2884 N 274.927 -0.932562 -1.27047 0
M  V30 2885 C 276.155 -0.592031 -1.98249 0
M  V30 2886 C 276.57 0.831062 -1.69525 0
M  V30 2887 O 275.927 1.55299 -0.958561 0
M  V30 2888 C 275.978 -0.814279 -3.5221 0
M  V30 2889 O 275.699 -2.18139 -3.7993 0
M  V30 2890 C 277.2 -0.483121 -4.4066 0
M  V30 2891 H 274.42 -0.223896 -0.632544 0
M  V30 2892 H 276.964 -1.25091 -1.61779 0
M  V30 2893 H 275.119 -0.20213 -3.86872 0
M  V30 2894 H 275.533 -2.235 -4.74498 0
M  V30 2895 H 277.007 -0.689298 -5.47679 0
M  V30 2896 H 277.484 0.581546 -4.35333 0
M  V30 2897 H 278.09 -1.07362 -4.11526 0
M  V30 2898 N 276.405 1.4127 -0.698611 0
M  V30 2899 C 277.652 2.0118 -0.230865 0
M  V30 2900 C 277.98 1.55338 1.17049 0
M  V30 2901 O 277.235 0.756775 1.80475 0
M  V30 2902 C 277.534 3.56592 -0.240192 0
M  V30 2903 C 277.2 4.21955 -1.58948 0
M  V30 2904 C 275.862 4.39524 -1.95887 0
M  V30 2905 C 278.214 4.58576 -2.47704 0
M  V30 2906 C 275.542 4.90992 -3.2116 0
M  V30 2907 C 277.894 5.11435 -3.72313 0
M  V30 2908 C 276.558 5.27215 -4.0939 0
M  V30 2909 H 275.828 0.736169 -0.0844796 0
M  V30 2910 H 278.475 1.69124 -0.8983 0
M  V30 2911 H 276.78 3.88456 0.510797 0
M  V30 2912 H 278.477 4.00758 0.139296 0
M  V30 2913 H 275.067 4.08657 -1.29219 0
M  V30 2914 H 279.251 4.44654 -2.20445 0
M  V30 2915 H 274.507 5.01393 -3.49878 0
M  V30 2916 H 278.681 5.38752 -4.4127 0
M  V30 2917 H 276.308 5.66859 -5.06533 0
M  V30 2918 N 277.883 0.443576 1.51229 0
M  V30 2919 C 278.813 -0.355142 2.30783 0
M  V30 2920 C 279.794 -1.0154 1.36468 0
M  V30 2921 O 280.979 -1.01785 1.65389 0
M  V30 2922 C 278.109 -1.45312 3.15439 0
M  V30 2923 C 277.063 -0.916002 4.18083 0
M  V30 2924 C 276.389 -2.1102 4.91299 0
M  V30 2925 C 277.689 0.0538602 5.22272 0
M  V30 2926 H 279.383 0.308767 2.97804 0
M  V30 2927 H 276.929 0.149937 1.43217 0
M  V30 2928 H 278.882 -2.01914 3.69876 0
M  V30 2929 H 277.606 -2.14541 2.46252 0
M  V30 2930 H 276.265 -0.372145 3.64706 0
M  V30 2931 H 275.913 -2.78882 4.18609 0
M  V30 2932 H 275.613 -1.75717 5.60712 0
M  V30 2933 H 277.137 -2.68164 5.48562 0
M  V30 2934 H 278.551 -0.422069 5.71744 0
M  V30 2935 H 276.948 0.319776 5.99247 0
M  V30 2936 H 278.018 0.98858 4.74716 0
M  V30 2937 N 279.361 -1.56624 0.175154 0
M  V30 2938 C 280.589 -2.01374 -0.474971 0
M  V30 2939 C 281.004 -1.05537 -1.56548 0
M  V30 2940 O 280.361 -0.0568668 -1.82411 0
M  V30 2941 C 280.412 -3.45923 -1.04975 0
M  V30 2942 O 280.133 -4.381 -0.00276605 0
M  V30 2943 C 281.634 -4.06093 -1.77773 0
M  V30 2944 H 278.854 -0.659962 -0.121206 0
M  V30 2945 H 281.398 -2.02601 0.27801 0
M  V30 2946 H 279.553 -3.45458 -1.75321 0
M  V30 2947 H 279.967 -5.22753 -0.427681 0
M  V30 2948 H 281.441 -5.09147 -2.13245 0
M  V30 2949 H 281.918 -3.48405 -2.67414 0
M  V30 2950 H 282.524 -4.10272 -1.12059 0
M  V30 2951 N 280.839 0.0985539 -1.57292 0
M  V30 2952 C 282.085 0.803867 -1.86188 0
M  V30 2953 C 282.418 1.78549 -0.763794 0
M  V30 2954 O 281.693 1.93153 0.22855 0
M  V30 2955 C 281.976 1.53568 -3.25713 0
M  V30 2956 C 281.829 0.572277 -4.46145 0
M  V30 2957 C 283.148 2.48708 -3.63087 0
M  V30 2958 H 280.267 0.290781 -0.677211 0
M  V30 2959 H 282.909 0.0675783 -1.8988 0
M  V30 2960 H 281.059 2.16332 -3.22696 0
M  V30 2961 H 282.731 -0.0480894 -4.61275 0
M  V30 2962 H 280.974 -0.114618 -4.33649 0
M  V30 2963 H 281.645 1.12139 -5.40489 0
M  V30 2964 H 284.121 1.96039 -3.67026 0
M  V30 2965 H 282.997 2.96932 -4.61652 0
M  V30 2966 H 283.258 3.32309 -2.91588 0
M  V30 2967 N 282.317 1.53212 0.369288 0
M  V30 2968 C 283.265 1.80054 1.47253 0
M  V30 2969 C 284.259 0.669456 1.55611 0
M  V30 2970 O 285.465 0.852328 1.58541 0
M  V30 2971 H 281.84 0.570034 0.490475 0
M  V30 2972 H 283.811 2.72403 1.21817 0
M  V30 2973 C 282.56 2.00403 2.84137 0
M  V30 2974 H 281.883 2.86876 2.78464 0
M  V30 2975 H 283.323 2.23164 3.60519 0
M  V30 2976 C 281.782 0.782081 3.27697 0
M  V30 2977 O 282.312 -0.0310205 4.01688 0
M  V30 2978 N 280.518 0.606573 2.84199 0
M  V30 2979 H 280.065 1.26939 2.24152 0
M  V30 2980 H 280.023 -0.20962 3.137 0
M  V30 2981 N 283.795 -0.628877 1.44509 0
M  V30 2982 C 284.743 -1.76193 1.51852 0
M  V30 2983 C 285.737 -1.64849 0.390042 0
M  V30 2984 O 286.943 -1.709 0.565082 0
M  V30 2985 H 283.318 -0.581728 0.476547 0
M  V30 2986 H 285.289 -1.67123 2.47209 0
M  V30 2987 C 284.038 -3.14533 1.48204 0
M  V30 2988 H 283.361 -3.23911 2.34354 0
M  V30 2989 H 284.801 -3.93701 1.57402 0
M  V30 2990 C 283.26 -3.36287 0.203142 0
M  V30 2991 O 283.79 -3.9509 -0.725745 0
M  V30 2992 N 281.996 -2.90408 0.105563 0
M  V30 2993 H 281.543 -2.42739 0.862301 0
M  V30 2994 H 281.501 -3.05339 -0.749371 0
M  V30 2995 N 285.273 -1.31445 -0.869486 0
M  V30 2996 C 286.684 -1.19042 -1.43826 0
M  V30 2997 C 287.035 0.202919 -1.95148 0
M  V30 2998 O 286.16 1.10071 -1.86315 0
M  V30 2999 C 286.755 -2.15499 -2.6143 0
M  V30 3000 C 285.314 -2.07028 -3.14351 0
M  V30 3001 C 284.461 -2.04701 -1.87063 0
M  V30 3002 H 287.412 -1.43489 -0.677984 0
M  V30 3003 H 287.433 -1.74488 -3.38134 0
M  V30 3004 H 286.945 -3.16899 -2.24046 0
M  V30 3005 H 285.046 -1.08825 -3.56354 0
M  V30 3006 H 285.159 -2.96157 -3.766 0
M  V30 3007 H 283.523 -1.49724 -2.06046 0
M  V30 3008 H 284.306 -3.07857 -1.51917 0
M  V30 3009 N 286.751 1.08385 -1.14413 0
M  V30 3010 C 287.683 2.1519 -0.789036 0
M  V30 3011 C 288.696 1.61638 0.19417 0
M  V30 3012 O 289.885 1.78479 -0.0275711 0
M  V30 3013 C 286.985 3.38565 -0.15058 0
M  V30 3014 C 286.158 4.21501 -1.16857 0
M  V30 3015 C 285.217 5.23277 -0.553832 0
M  V30 3016 O 284.243 5.56041 -1.21686 0
M  V30 3017 N 285.445 5.76629 0.669296 0
M  V30 3018 H 288.21 2.46257 -1.70814 0
M  V30 3019 H 285.771 1.24198 -1.03858 0
M  V30 3020 H 287.763 4.03777 0.273181 0
M  V30 3021 H 286.333 3.05299 0.671667 0
M  V30 3022 H 285.553 3.52265 -1.76926 0
M  V30 3023 H 286.841 4.73731 -1.85624 0
M  V30 3024 H 286.239 5.52243 1.22654 0
M  V30 3025 H 284.796 6.43521 1.03556 0
M  V30 3026 N 288.23 0.939286 1.26551 0
M  V30 3027 C 289.47 0.5933 1.956 0
M  V30 3028 C 289.834 -0.851515 1.72085 0
M  V30 3029 O 291.035 -1.30634 2.34921 0
M  V30 3030 C 289.306 0.923996 3.45249 0
M  V30 3031 S 290.865 0.688269 4.33369 0
M  V30 3032 H 287.683 0.218591 0.676564 0
M  V30 3033 H 290.285 1.2102 1.5354 0
M  V30 3034 H 288.989 1.97297 3.59864 0
M  V30 3035 H 288.52 0.296746 3.92279 0
M  V30 3036 H 290.535 -0.448434 4.9417 0
M  V30 3037 N 289.708 -1.40897 0.706093 0
M  V30 3038 C 290.957 -2.00284 0.238574 0
M  V30 3039 C 291.27 -1.56604 -1.17194 0
M  V30 3040 O 292.476 -2.08624 -1.73748 0
M  V30 3041 C 290.932 -3.57934 0.375623 0
M  V30 3042 C 290.54 -4.10591 1.79217 0
M  V30 3043 C 292.284 -4.24488 -0.0315857 0
M  V30 3044 C 290.191 -5.60712 1.88032 0
M  V30 3045 H 289.121 -0.749144 0.0854398 0
M  V30 3046 H 291.772 -1.61251 0.875813 0
M  V30 3047 H 290.154 -3.94622 -0.330042 0
M  V30 3048 H 291.328 -3.85301 2.52745 0
M  V30 3049 H 289.643 -3.56601 2.15 0
M  V30 3050 H 292.24 -5.34698 0.0136842 0
M  V30 3051 H 292.583 -4.02261 -1.072 0
M  V30 3052 H 293.116 -3.92873 0.624181 0
M  V30 3053 H 289.855 -5.87781 2.90161 0
M  V30 3054 H 289.375 -5.87896 1.18903 0
M  V30 3055 H 291.054 -6.25658 1.64805 0
M  V30 3056 N 291.186 -0.45159 -1.50991 0
M  V30 3057 C 292.116 0.342898 -2.30969 0
M  V30 3058 C 293.097 1.00815 -1.37005 0
M  V30 3059 O 294.282 1.00907 -1.65926 0
M  V30 3060 C 291.412 1.43637 -3.16205 0
M  V30 3061 C 290.366 0.893818 -4.18563 0
M  V30 3062 C 289.692 2.08411 -4.92411 0
M  V30 3063 C 290.992 -0.0815568 -5.22236 0
M  V30 3064 H 292.686 -0.324556 -2.97636 0
M  V30 3065 H 290.232 -0.157531 -1.43136 0
M  V30 3066 H 292.185 1.9995 -3.70942 0
M  V30 3067 H 290.909 2.13232 -2.47386 0
M  V30 3068 H 289.568 0.352798 -3.64898 0
M  V30 3069 H 289.216 2.76658 -4.20082 0
M  V30 3070 H 288.916 1.72741 -5.61636 0
M  V30 3071 H 290.44 2.65251 -5.49976 0
M  V30 3072 H 291.854 0.391742 -5.7196 0
M  V30 3073 H 290.251 -0.351551 -5.99069 0
M  V30 3074 H 291.321 -1.01374 -4.74185 0
M  V30 3075 N 292.664 1.56529 -0.183458 0
M  V30 3076 C 293.612 2.19873 0.758845 0
M  V30 3077 C 294.606 1.16638 1.22849 0
M  V30 3078 O 295.812 1.3481 1.19274 0
M  V30 3079 H 292.187 0.7045 0.263029 0
M  V30 3080 H 294.158 2.97724 0.200755 0
M  V30 3081 C 292.907 2.86314 1.9728 0
M  V30 3082 H 292.23 3.65487 1.62047 0
M  V30 3083 H 293.67 3.3409 2.61075 0
M  V30 3084 C 292.129 1.86729 2.80418 0
M  V30 3085 O 292.659 1.36031 3.77966 0
M  V30 3086 N 290.865 1.55216 2.45675 0
M  V30 3087 H 290.412 1.96636 1.66409 0
M  V30 3088 H 290.37 0.888388 3.01588 0
M  V30 3089 N 294.142 -0.090211 1.57342 0
M  V30 3090 C 295.089 -1.10909 2.02405 0
M  V30 3091 C 296.059 -1.39523 0.901252 0
M  V30 3092 O 297.244 -1.50903 1.1676 0
M  V30 3093 C 294.384 -2.42277 2.45755 0
M  V30 3094 C 293.497 -2.20352 3.71576 0
M  V30 3095 C 292.632 -3.45154 4.03785 0
M  V30 3096 C 291.671 -3.18512 5.22701 0
M  V30 3097 N 290.808 -4.35593 5.50639 0
M  V30 3098 H 295.648 -0.71782 2.89225 0
M  V30 3099 H 293.185 -0.342901 1.43048 0
M  V30 3100 H 295.143 -3.18951 2.68935 0
M  V30 3101 H 293.773 -2.79242 1.61938 0
M  V30 3102 H 292.825 -1.34458 3.55844 0
M  V30 3103 H 294.137 -1.96661 4.58395 0
M  V30 3104 H 293.291 -4.30233 4.27767 0
M  V30 3105 H 292.03 -3.71904 3.15498 0
M  V30 3106 H 291.035 -2.31827 4.98534 0
M  V30 3107 H 292.26 -2.93103 6.12591 0
M  V30 3108 H 290.206 -4.6241 4.6531 0
M  V30 3109 H 290.123 -4.1511 6.31838 0
M  V30 3110 H 291.391 -5.21723 5.7916 0
M  V30 3111 N 295.62 -1.53406 -0.361157 0
M  V30 3112 C 297.031 -1.61442 -0.937728 0
M  V30 3113 C 297.382 -0.48461 -1.90121 0
M  V30 3114 O 296.507 0.388312 -2.12888 0
M  V30 3115 C 297.102 -2.92624 -1.70753 0
M  V30 3116 C 295.661 -3.02981 -2.23337 0
M  V30 3117 C 294.808 -2.5677 -1.04712 0
M  V30 3118 H 297.759 -1.58083 -0.139816 0
M  V30 3119 H 297.78 -2.80675 -2.56908 0
M  V30 3120 H 297.292 -3.74834 -1.00604 0
M  V30 3121 H 295.393 -2.25368 -2.96715 0
M  V30 3122 H 295.506 -4.0814 -2.50916 0
M  V30 3123 H 293.87 -2.11752 -1.41539 0
M  V30 3124 H 294.653 -3.41402 -0.360539 0
M  V30 3125 O 297.137 0.507134 -1.53331 0
M  V30 3126 H 297.828 1.16207 -1.5497 0
M  V30 END ATOM
M  V30 BEGIN BOND
M  V30 END BOND
M  V30 END CTAB
M  END
$$$$
