drugbank_drug|DB05829 Parathyroid hormone
 OpenBabel12092119133D

  0  0  0     0  0            999 V3000
M  V30 BEGIN CTAB
M  V30 COUNTS 1338 1347 0 0 0
M  V30 BEGIN ATOM
M  V30 1 H -0.908 1.98254 -0.117106 0
M  V30 2 N 0 1.576 0 0
M  V30 3 C 1.225 1.95249 0.699468 0
M  V30 4 C 1.65 0.874934 1.66513 0
M  V30 5 O 1.008 -0.166929 1.8053 0
M  V30 6 C 1.056 3.31994 1.40756 0
M  V30 7 O 0.16 3.26298 2.52197 0
M  V30 8 H -0.499 0.637402 0.186051 0
M  V30 9 H 2.031 2.04531 -0.05319 0
M  V30 10 H 2.041 3.6756 1.77098 0
M  V30 11 H 0.716 4.09975 0.69953 0
M  V30 12 H -0.707 3.02408 2.18183 0
M  V30 13 N 1.4781 -0.272755 1.55222 0
M  V30 14 C 2.7241 -1.00581 1.761 0
M  V30 15 C 3.0571 -1.85932 0.560625 0
M  V30 16 O 2.3321 -1.89416 -0.441801 0
M  V30 17 C 2.6151 -1.88816 3.06628 0
M  V30 18 C 2.4681 -1.06457 4.37021 0
M  V30 19 C 3.7871 -2.8752 3.33197 0
M  V30 20 H 0.9061 -0.364244 0.640699 0
M  V30 21 H 3.5481 -0.278189 1.87952 0
M  V30 22 H 1.6981 -2.50856 2.96654 0
M  V30 23 H 3.3701 -0.464863 4.58952 0
M  V30 24 H 1.6131 -0.368043 4.32236 0
M  V30 25 H 2.2841 -1.71514 5.24678 0
M  V30 26 H 4.7601 -2.35615 3.42965 0
M  V30 27 H 3.6361 -3.46399 4.25792 0
M  V30 28 H 3.8971 -3.62657 2.52849 0
M  V30 29 N 2.9562 -1.48159 -0.537278 0
M  V30 30 C 4.1812 -1.59707 -1.32319 0
M  V30 31 C 4.6062 -0.254859 -1.86365 0
M  V30 32 O 3.9642 0.772378 -1.64024 0
M  V30 33 C 4.0122 -2.6412 -2.45505 0
M  V30 34 O 3.1162 -2.20774 -3.48328 0
M  V30 35 H 2.4572 -0.535791 -0.392204 0
M  V30 36 H 4.9872 -1.94092 -0.647268 0
M  V30 37 H 4.9972 -2.85166 -2.91795 0
M  V30 38 H 3.6722 -3.61567 -2.05528 0
M  V30 39 H 2.2492 -2.09911 -3.08207 0
M  V30 40 N 4.4343 0.785586 -1.36625 0
M  V30 41 C 5.3443 1.92964 -1.33425 0
M  V30 42 C 6.3603 1.72394 -0.235851 0
M  V30 43 O 7.5363 1.95866 -0.468878 0
M  V30 44 C 4.6013 3.27884 -1.12662 0
M  V30 45 C 3.6623 3.61204 -2.32013 0
M  V30 46 C 2.8953 4.89687 -2.12231 0
M  V30 47 O 3.1183 5.59704 -1.09945 0
M  V30 48 O 2.0523 5.21752 -3.00098 0
M  V30 49 H 5.8783 1.98613 -2.29753 0
M  V30 50 H 3.4633 0.926384 -1.17211 0
M  V30 51 H 5.3453 4.08614 -1.03016 0
M  V30 52 H 4.0203 3.23118 -0.193991 0
M  V30 53 H 2.9273 2.80765 -2.47228 0
M  V30 54 H 4.2603 3.70698 -3.23796 0
M  V30 55 N 5.9124 1.20967 1.01018 0
M  V30 56 C 7.1614 1.01796 1.74128 0
M  V30 57 C 7.4744 -0.449691 1.90361 0
M  V30 58 O 8.6804 -0.76068 2.60626 0
M  V30 59 C 7.1364 1.7727 3.13215 0
M  V30 60 C 6.7444 3.28171 3.04972 0
M  V30 61 C 8.4884 1.66489 3.90489 0
M  V30 62 C 6.3954 3.96156 4.39107 0
M  V30 63 H 5.3254 0.377276 0.652824 0
M  V30 64 H 7.9764 1.44651 1.12909 0
M  V30 65 H 6.3584 1.27205 3.75013 0
M  V30 66 H 7.5324 3.85499 2.52443 0
M  V30 67 H 5.8474 3.39437 2.41188 0
M  V30 68 H 8.4444 2.14617 4.89738 0
M  V30 69 H 8.7874 0.6222 4.11624 0
M  V30 70 H 9.3204 2.14003 3.35332 0
M  V30 71 H 6.0594 5.00604 4.23174 0
M  V30 72 H 5.5794 3.43617 4.91617 0
M  V30 73 H 7.2584 4.00774 5.07926 0
M  V30 74 N 7.3905 -1.2043 1.01659 0
M  V30 75 C 8.3225 -2.22626 0.544988 0
M  V30 76 C 9.3355 -1.58479 -0.372609 0
M  V30 77 O 10.5245 -1.77679 -0.170958 0
M  V30 78 C 7.6245 -3.38141 -0.22663 0
M  V30 79 C 6.7975 -4.31877 0.692876 0
M  V30 80 C 5.8565 -5.26191 -0.0311616 0
M  V30 81 O 4.8825 -5.6612 0.591343 0
M  V30 82 N 6.0845 -5.65618 -1.30601 0
M  V30 83 H 8.8495 -2.63716 1.42388 0
M  V30 84 H 6.4105 -1.34971 0.894116 0
M  V30 85 H 8.4025 -3.98239 -0.72024 0
M  V30 86 H 6.9725 -2.95943 -1.00681 0
M  V30 87 H 6.1925 -3.69746 1.36679 0
M  V30 88 H 7.4805 -4.91426 1.31824 0
M  V30 89 H 6.8785 -5.3519 -1.83269 0
M  V30 90 H 5.4355 -6.28025 -1.74435 0
M  V30 91 N 8.8686 -0.792821 -1.36206 0
M  V30 92 C 9.7986 -0.207853 -2.32573 0
M  V30 93 C 10.7796 0.659055 -1.56813 0
M  V30 94 O 11.9646 0.592176 -1.84951 0
M  V30 95 C 9.0946 0.655449 -3.41059 0
M  V30 96 C 8.0486 -0.111842 -4.27854 0
M  V30 97 C 7.3746 0.872274 -5.27537 0
M  V30 98 C 8.6746 -1.30299 -5.05786 0
M  V30 99 H 10.3686 -1.01294 -2.81744 0
M  V30 100 H 7.9146 -0.48854 -1.3546 0
M  V30 101 H 9.8676 1.07464 -4.07467 0
M  V30 102 H 8.5916 1.49328 -2.90463 0
M  V30 103 H 7.2506 -0.512053 -3.63006 0
M  V30 104 H 6.8986 1.70523 -4.73214 0
M  V30 105 H 6.5986 0.363291 -5.86476 0
M  V30 106 H 8.1226 1.28996 -5.96818 0
M  V30 107 H 9.5366 -0.959379 -5.65216 0
M  V30 108 H 7.9336 -1.7455 -5.74154 0
M  V30 109 H 9.0036 -2.09663 -4.37229 0
M  V30 110 N 10.3467 1.47872 -0.545128 0
M  V30 111 C 11.2797 2.2675 0.256885 0
M  V30 112 C 12.2577 1.33293 0.931228 0
M  V30 113 O 13.4417 1.62657 0.95262 0
M  V30 114 C 10.5687 3.09976 1.36501 0
M  V30 115 C 9.6147 4.1892 0.800496 0
M  V30 116 S 10.4477 5.34397 -0.343505 0
M  V30 117 C 11.6037 6.21186 0.766733 0
M  V30 118 H 11.8367 2.94425 -0.412479 0
M  V30 119 H 9.3697 1.50806 -0.331204 0
M  V30 120 H 11.3277 3.585 1.9997 0
M  V30 121 H 9.9887 2.41686 2.00616 0
M  V30 122 H 9.1817 4.76836 1.63227 0
M  V30 123 H 8.7837 3.73215 0.242217 0
M  V30 124 H 11.0757 6.56804 1.66178 0
M  V30 125 H 12.0187 7.07742 0.225204 0
M  V30 126 H 12.4267 5.54574 1.05396 0
M  V30 127 N 11.8248 0.280983 1.55075 0
M  V30 128 C 12.7748 -0.618585 2.19448 0
M  V30 129 C 13.7588 -1.11401 1.16098 0
M  V30 130 O 14.9508 -1.0581 1.41891 0
M  V30 131 C 12.0798 -1.79951 2.92357 0
M  V30 132 C 11.1658 -1.321 4.03002 0
M  V30 133 N 11.5568 -0.559044 5.02701 0
M  V30 134 C 9.8548 -1.60346 4.16179 0
M  V30 135 C 10.5558 -0.306722 5.80891 0
M  V30 136 N 9.5318 -0.880825 5.36416 0
M  V30 137 H 13.3338 -0.0286638 2.93886 0
M  V30 138 H 10.8478 0.0848104 1.62178 0
M  V30 139 H 12.8448 -2.45531 3.36927 0
M  V30 140 H 11.5048 -2.39333 2.19431 0
M  V30 141 H 12.5158 -0.205827 5.17491 0
M  V30 142 H 9.1928 -2.20621 3.54447 0
M  V30 143 H 10.5828 0.30391 6.71212 0
M  V30 144 N 13.3029 -1.57598 0.00835791 0
M  V30 145 C 14.2509 -2.10078 -0.998508 0
M  V30 146 C 15.2449 -1.02262 -1.35051 0
M  V30 147 O 16.4509 -1.20719 -1.33518 0
M  V30 148 H 12.8259 -0.670903 -0.339696 0
M  V30 149 H 14.7969 -2.93648 -0.530398 0
M  V30 150 C 13.5459 -2.62615 -2.27879 0
M  V30 151 H 12.8689 -3.45213 -2.01662 0
M  V30 152 H 14.3089 -3.03004 -2.96588 0
M  V30 153 C 12.7679 -1.54407 -2.99433 0
M  V30 154 O 13.2979 -0.931812 -3.90743 0
M  V30 155 N 11.5039 -1.2695 -2.61404 0
M  V30 156 H 11.0509 -1.76924 -1.87232 0
M  V30 157 H 11.0089 -0.547704 -3.09593 0
M  V30 158 N 14.781 0.264519 -1.55364 0
M  V30 159 C 15.711 1.33121 -1.91836 0
M  V30 160 C 16.692 1.51101 -0.781192 0
M  V30 161 O 17.877 1.64003 -1.04003 0
M  V30 162 C 15.007 2.68921 -2.19769 0
M  V30 163 C 13.961 2.65661 -3.35571 0
M  V30 164 C 13.287 4.05093 -3.49004 0
M  V30 165 C 14.587 2.24187 -4.71739 0
M  V30 166 H 16.281 1.02844 -2.81182 0
M  V30 167 H 13.827 0.493286 -1.35287 0
M  V30 168 H 15.78 3.43663 -2.43872 0
M  V30 169 H 14.504 3.00799 -1.27231 0
M  V30 170 H 13.163 1.93377 -3.1145 0
M  V30 171 H 12.811 4.34206 -2.53917 0
M  V30 172 H 12.511 4.03804 -4.26868 0
M  V30 173 H 14.035 4.81561 -3.75408 0
M  V30 174 H 15.449 2.88654 -4.9533 0
M  V30 175 H 13.846 2.34044 -5.52579 0
M  V30 176 H 14.916 1.19327 -4.69988 0
M  V30 177 N 16.2591 1.48442 0.529413 0
M  V30 178 C 17.5071 1.56179 1.28267 0
M  V30 179 C 17.8281 0.237721 1.93546 0
M  V30 180 O 17.0981 -0.740779 1.81354 0
M  V30 181 H 15.6781 0.575367 0.476405 0
M  V30 182 H 18.3401 1.84909 0.61602 0
M  V30 183 H 17.4361 2.34312 2.06165 0
M  V30 184 N 17.7372 -0.778329 1.37039 0
M  V30 185 C 18.6842 -1.89139 1.32269 0
M  V30 186 C 19.6542 -1.65017 0.189387 0
M  V30 187 O 20.8392 -1.87024 0.377693 0
M  V30 188 C 17.9792 -3.26112 1.12894 0
M  V30 189 C 17.0922 -3.62233 2.35396 0
M  V30 190 C 16.2272 -4.8838 2.08946 0
M  V30 191 C 15.2662 -5.17212 3.2735 0
M  V30 192 N 14.4032 -6.34546 3.00492 0
M  V30 193 H 19.2432 -1.92552 2.27437 0
M  V30 194 H 16.7802 -0.941473 1.13025 0
M  V30 195 H 18.7382 -4.05116 0.996835 0
M  V30 196 H 17.3682 -3.22091 0.213758 0
M  V30 197 H 16.4202 -2.78265 2.5937 0
M  V30 198 H 17.7322 -3.79481 3.23721 0
M  V30 199 H 16.8862 -5.75274 1.92729 0
M  V30 200 H 15.6252 -4.73222 1.17949 0
M  V30 201 H 14.6302 -4.28796 3.44113 0
M  V30 202 H 15.8552 -5.34283 4.19188 0
M  V30 203 H 13.8012 -6.20759 2.12118 0
M  V30 204 H 13.7182 -6.52179 3.82358 0
M  V30 205 H 14.9862 -7.24394 2.87879 0
M  V30 206 N 19.2153 -1.21501 -1.00376 0
M  V30 207 C 20.1653 -0.942843 -2.07592 0
M  V30 208 C 21.1493 0.102384 -1.60574 0
M  V30 209 O 22.3413 -0.10671 -1.76678 0
M  V30 210 C 19.4703 -0.510729 -3.3948 0
M  V30 211 C 18.5563 -1.59009 -3.93163 0
M  V30 212 N 18.9473 -2.81544 -4.20198 0
M  V30 213 C 17.2453 -1.45925 -4.21452 0
M  V30 214 C 17.9463 -3.51261 -4.63671 0
M  V30 215 N 16.9223 -2.78703 -4.66718 0
M  V30 216 H 20.7243 -1.87378 -2.26421 0
M  V30 217 H 18.2383 -1.11093 -1.18458 0
M  V30 218 H 20.2353 -0.297101 -4.1584 0
M  V30 219 H 18.8953 0.413436 -3.22057 0
M  V30 220 H 19.9063 -3.18075 -4.08716 0
M  V30 221 H 16.5833 -0.600467 -4.13159 0
M  V30 222 H 17.9733 -4.56183 -4.93302 0
M  V30 223 N 20.6934 1.19889 -1.02296 0
M  V30 224 C 21.6234 2.25141 -0.619174 0
M  V30 225 C 22.6044 1.66051 0.368915 0
M  V30 226 O 23.7894 1.92546 0.252941 0
M  V30 227 C 20.9194 3.4728 0.0368783 0
M  V30 228 C 19.8734 4.19005 -0.872865 0
M  V30 229 C 19.1994 5.34637 -0.0822402 0
M  V30 230 C 20.4994 4.74452 -2.18387 0
M  V30 231 H 22.1934 2.59171 -1.49903 0
M  V30 232 H 19.7394 1.24579 -0.722222 0
M  V30 233 H 21.6924 4.20098 0.330958 0
M  V30 234 H 20.4164 3.12433 0.95149 0
M  V30 235 H 19.0754 3.48061 -1.15105 0
M  V30 236 H 18.7234 4.96034 0.83422 0
M  V30 237 H 18.4234 5.83557 -0.688149 0
M  V30 238 H 19.9474 6.10255 0.205238 0
M  V30 239 H 21.3614 5.39055 -1.95172 0
M  V30 240 H 19.7584 5.33834 -2.74119 0
M  V30 241 H 20.8284 3.92844 -2.84257 0
M  V30 242 N 22.1715 0.800033 1.35784 0
M  V30 243 C 23.1195 0.193851 2.31791 0
M  V30 244 C 24.1135 -0.652744 1.56319 0
M  V30 245 O 25.3195 -0.546641 1.71499 0
M  V30 246 H 21.6945 0.04392 0.750716 0
M  V30 247 H 23.6655 1.01883 2.80468 0
M  V30 248 C 22.4145 -0.648338 3.41602 0
M  V30 249 H 21.7375 -0.00624665 3.998 0
M  V30 250 H 23.1775 -1.03898 4.11073 0
M  V30 251 C 21.6365 -1.8111 2.84079 0
M  V30 252 O 22.1665 -2.90825 2.77099 0
M  V30 253 N 20.3725 -1.62056 2.41218 0
M  V30 254 H 19.9195 -0.728123 2.47095 0
M  V30 255 H 19.8775 -2.40013 2.03079 0
M  V30 256 N 23.6496 -1.47581 0.552962 0
M  V30 257 C 24.8746 -2.07378 0.0300593 0
M  V30 258 C 25.2996 -1.40355 -1.25229 0
M  V30 259 O 24.6576 -0.477099 -1.7491 0
M  V30 260 C 24.7056 -3.60274 -0.153231 0
M  V30 261 O 23.8096 -3.94041 -1.21678 0
M  V30 262 H 23.1506 -0.662158 0.0494182 0
M  V30 263 H 25.6806 -1.89662 0.767434 0
M  V30 264 H 25.6906 -4.0633 -0.368761 0
M  V30 265 H 24.3656 -4.08455 0.783397 0
M  V30 266 H 22.9426 -3.59735 -0.982079 0
M  V30 267 N 25.1277 -0.289203 -1.54924 0
M  V30 268 C 26.0607 0.633823 -2.19221 0
M  V30 269 C 27.0387 1.14174 -1.15772 0
M  V30 270 O 28.2227 1.21211 -1.44361 0
M  V30 271 C 25.3497 1.86592 -2.82668 0
M  V30 272 C 24.3957 1.49227 -3.99542 0
M  V30 273 S 25.2287 0.558312 -5.32582 0
M  V30 274 C 26.3847 1.79847 -5.99505 0
M  V30 275 H 26.6177 0.0875416 -2.97171 0
M  V30 276 H 24.1507 -0.0733899 -1.54225 0
M  V30 277 H 26.1087 2.57305 -3.19851 0
M  V30 278 H 24.7697 2.38335 -2.04585 0
M  V30 279 H 23.9627 2.40945 -4.42676 0
M  V30 280 H 23.5647 0.865193 -3.63855 0
M  V30 281 H 25.8567 2.7406 -6.19595 0
M  V30 282 H 26.7997 1.4099 -6.93922 0
M  V30 283 H 27.2077 1.96982 -5.29016 0
M  V30 284 N 26.6058 1.57591 -0.0167156 0
M  V30 285 C 27.5158 2.1291 0.98521 0
M  V30 286 C 28.5318 1.07834 1.36557 0
M  V30 287 O 29.7078 1.39826 1.44951 0
M  V30 288 C 26.7728 2.63512 2.25305 0
M  V30 289 C 25.8338 3.83256 1.93426 0
M  V30 290 C 25.0668 4.31435 3.14165 0
M  V30 291 O 25.2898 3.78851 4.26413 0
M  V30 292 O 24.2238 5.23416 2.97186 0
M  V30 293 H 28.0498 2.98772 0.544888 0
M  V30 294 H 25.6348 1.48012 0.203141 0
M  V30 295 H 27.5168 2.96183 2.99756 0
M  V30 296 H 26.1918 1.8074 2.68542 0
M  V30 297 H 25.0988 3.55531 1.16398 0
M  V30 298 H 26.4318 4.67153 1.55013 0
M  V30 299 N 28.0839 -0.256276 1.55502 0
M  V30 300 C 29.4999 -0.604325 1.47716 0
M  V30 301 C 29.6999 -1.88763 0.705039 0
M  V30 302 O 28.7559 -2.51445 0.230613 0
M  V30 303 C 30.0689 -0.715756 2.92057 0
M  V30 304 C 31.6169 -0.808706 3.02372 0
M  V30 305 C 32.0919 -0.951777 4.48001 0
M  V30 306 N 33.5829 -1.01688 4.519 0
M  V30 307 C 34.3179 -1.14668 5.61817 0
M  V30 308 N 33.8139 -1.24261 6.81565 0
M  V30 309 N 35.6069 -1.1791 5.49594 0
M  V30 310 H 27.7579 0.586291 2.04148 0
M  V30 311 H 30.0209 0.201015 0.926443 0
M  V30 312 H 29.7269 0.157027 3.51349 0
M  V30 313 H 29.6009 -1.59071 3.42018 0
M  V30 314 H 31.9879 -1.67195 2.43166 0
M  V30 315 H 32.0689 0.0912063 2.55637 0
M  V30 316 H 31.7129 -0.0931291 5.07815 0
M  V30 317 H 31.6429 -1.86659 4.92408 0
M  V30 318 H 34.1339 -0.954468 3.65648 0
M  V30 319 H 34.4469 -1.34046 7.61086 0
M  V30 320 H 32.7919 -1.21236 6.84344 0
M  V30 321 H 35.9829 -1.10057 4.54978 0
M  V30 322 H 36.1559 -1.27681 6.35296 0
M  V30 323 N 29.562 -1.4872 -0.521534 0
M  V30 324 C 30.808 -1.574 -1.27879 0
M  V30 325 C 31.141 -0.250817 -1.92573 0
M  V30 326 O 30.416 0.743934 -1.79711 0
M  V30 327 C 30.699 -2.71843 -2.36164 0
M  V30 328 C 30.552 -4.13893 -1.76105 0
M  V30 329 C 31.871 -2.82008 -3.37875 0
M  V30 330 H 28.99 -0.572941 -0.463581 0
M  V30 331 H 31.632 -1.80927 -0.580119 0
M  V30 332 H 29.782 -2.51914 -2.95756 0
M  V30 333 H 31.454 -4.45284 -1.20499 0
M  V30 334 H 29.697 -4.20498 -1.06601 0
M  V30 335 H 30.368 -4.89804 -2.5455 0
M  V30 336 H 32.844 -3.00086 -2.88249 0
M  V30 337 H 31.72 -3.63796 -4.11028 0
M  V30 338 H 31.981 -1.90511 -3.98946 0
M  V30 339 N 31.0401 0.771051 -1.3745 0
M  V30 340 C 31.9501 1.91538 -1.35464 0
M  V30 341 C 32.9661 1.72134 -0.254123 0
M  V30 342 O 34.1421 1.95358 -0.489626 0
M  V30 343 C 31.2071 3.26671 -1.16134 0
M  V30 344 C 30.2681 3.58723 -2.35831 0
M  V30 345 C 29.5011 4.87409 -2.17413 0
M  V30 346 O 29.7241 5.58506 -1.15876 0
M  V30 347 O 28.6581 5.18539 -3.05615 0
M  V30 348 H 32.4841 1.96165 -2.31847 0
M  V30 349 H 30.0691 0.9139 -1.18187 0
M  V30 350 H 31.9511 4.07499 -1.07345 0
M  V30 351 H 30.6261 3.22894 -0.228251 0
M  V30 352 H 29.5331 2.78127 -2.50192 0
M  V30 353 H 30.8661 3.67243 -3.27709 0
M  V30 354 N 32.5182 1.22032 0.997298 0
M  V30 355 C 33.7642 1.05382 1.73972 0
M  V30 356 C 34.1192 -0.407419 1.88037 0
M  V30 357 O 33.4122 -1.29811 1.40924 0
M  V30 358 C 33.6062 1.69345 3.14733 0
M  V30 359 C 33.4352 3.21537 3.14395 0
M  V30 360 C 32.2052 3.9062 3.20537 0
M  V30 361 C 34.4032 4.18527 2.98897 0
M  V30 362 N 32.3852 5.29935 3.09906 0
M  V30 363 C 33.7562 5.44645 2.96247 0
M  V30 364 C 35.8112 4.09476 2.83255 0
M  V30 365 C 34.5142 6.62752 2.79557 0
M  V30 366 C 36.5402 5.27228 2.67926 0
M  V30 367 C 35.9022 6.52262 2.65959 0
M  V30 368 H 32.0012 0.440018 0.646458 0
M  V30 369 H 34.5852 1.54505 1.18475 0
M  V30 370 H 32.7562 1.22778 3.68484 0
M  V30 371 H 34.4882 1.45828 3.77513 0
M  V30 372 H 31.2432 3.41592 3.28043 0
M  V30 373 H 31.6672 6.02926 3.07912 0
M  V30 374 H 36.3092 3.13598 2.83577 0
M  V30 375 H 34.0272 7.58783 2.77982 0
M  V30 376 H 37.6132 5.22053 2.56812 0
M  V30 377 H 36.4932 7.41844 2.54239 0
M  V30 378 N 33.9963 -1.19345 1.0293 0
M  V30 379 C 34.9263 -2.2481 0.631105 0
M  V30 380 C 35.9073 -1.66245 -0.360104 0
M  V30 381 O 37.0923 -1.92677 -0.242726 0
M  V30 382 C 34.2223 -3.47295 -0.0184607 0
M  V30 383 C 33.1763 -4.18536 0.895073 0
M  V30 384 C 32.5023 -5.34586 0.110592 0
M  V30 385 C 33.8023 -4.73287 2.209 0
M  V30 386 H 35.4963 -2.58372 1.51275 0
M  V30 387 H 33.0423 -1.24194 0.728818 0
M  V30 388 H 34.9953 -4.20268 -0.308675 0
M  V30 389 H 33.7193 -3.12933 -0.934907 0
M  V30 390 H 32.3783 -3.47446 1.16949 0
M  V30 391 H 32.0263 -4.96469 -0.807902 0
M  V30 392 H 31.7263 -5.83183 0.719087 0
M  V30 393 H 33.2503 -6.10355 -0.172871 0
M  V30 394 H 34.6643 -5.38013 1.98028 0
M  V30 395 H 33.0613 -5.32373 2.76946 0
M  V30 396 H 34.1313 -3.91331 2.86336 0
M  V30 397 N 35.4744 -0.807222 -1.35358 0
M  V30 398 C 36.8904 -0.491038 -1.51858 0
M  V30 399 C 37.0904 0.987648 -1.75635 0
M  V30 400 O 36.1464 1.77265 -1.79815 0
M  V30 401 C 37.4594 -1.33695 -2.69344 0
M  V30 402 C 39.0074 -1.33246 -2.83222 0
M  V30 403 C 39.4824 -2.1625 -4.03733 0
M  V30 404 N 40.9734 -2.1379 -4.10911 0
M  V30 405 C 41.7084 -2.74772 -5.03277 0
M  V30 406 N 41.2044 -3.44684 -6.0097 0
M  V30 407 N 42.9974 -2.6441 -4.96028 0
M  V30 408 H 35.1484 -1.76485 -1.18181 0
M  V30 409 H 37.4114 -0.751199 -0.578276 0
M  V30 410 H 37.1174 -2.38634 -2.58354 0
M  V30 411 H 36.9914 -0.990618 -3.6396 0
M  V30 412 H 39.3784 -0.290911 -2.93663 0
M  V30 413 H 39.4594 -1.71866 -1.89461 0
M  V30 414 H 39.1034 -3.20445 -3.94052 0
M  V30 415 H 39.0334 -1.74989 -4.96675 0
M  V30 416 H 41.5244 -1.62923 -3.40976 0
M  V30 417 H 41.8374 -3.88501 -6.68047 0
M  V30 418 H 40.1824 -3.48788 -6.01142 0
M  V30 419 H 43.3734 -2.0938 -4.18662 0
M  V30 420 H 43.5464 -3.12225 -5.6782 0
M  V30 421 N 36.9525 1.47285 -0.560781 0
M  V30 422 C 37.8995 2.30058 0.18491 0
M  V30 423 C 38.8695 1.39281 0.904986 0
M  V30 424 O 40.0545 1.68241 0.899979 0
M  V30 425 C 37.1945 3.23317 1.20666 0
M  V30 426 C 36.3075 4.29186 0.492285 0
M  V30 427 C 35.4425 5.09592 1.49964 0
M  V30 428 C 34.4815 6.07232 0.770439 0
M  V30 429 N 33.6185 6.80584 1.72479 0
M  V30 430 H 38.4585 2.93302 -0.527048 0
M  V30 431 H 35.9955 1.44568 -0.271738 0
M  V30 432 H 37.9535 3.75811 1.81168 0
M  V30 433 H 36.5835 2.61929 1.88661 0
M  V30 434 H 35.6355 3.7972 -0.227333 0
M  V30 435 H 36.9475 4.98738 -0.0787929 0
M  V30 436 H 36.1015 5.66254 2.17809 0
M  V30 437 H 34.8405 4.3995 2.10464 0
M  V30 438 H 33.8455 5.49745 0.0780846 0
M  V30 439 H 35.0705 6.78884 0.171134 0
M  V30 440 H 33.0165 6.1367 2.3183 0
M  V30 441 H 32.9335 7.46319 1.20596 0
M  V30 442 H 34.2015 7.41818 2.39428 0
M  V30 443 N 38.4306 0.297415 1.54768 0
M  V30 444 C 39.3776 -0.580276 2.23386 0
M  V30 445 C 40.3476 -1.13238 1.21517 0
M  V30 446 O 41.5326 -1.17757 1.50126 0
M  V30 447 C 38.6726 -1.74801 2.97555 0
M  V30 448 C 37.7856 -1.22764 4.1419 0
M  V30 449 C 36.9206 -2.35895 4.75949 0
M  V30 450 C 35.9596 -1.80974 5.84735 0
M  V30 451 N 35.0966 -2.87664 6.40464 0
M  V30 452 H 39.9366 0.0114833 2.97998 0
M  V30 453 H 37.4736 0.0174361 1.4709 0
M  V30 454 H 39.4316 -2.43475 3.38786 0
M  V30 455 H 38.0616 -2.31145 2.25326 0
M  V30 456 H 37.1136 -0.433271 3.77924 0
M  V30 457 H 38.4256 -0.785551 4.92575 0
M  V30 458 H 37.5796 -3.12523 5.20014 0
M  V30 459 H 36.3186 -2.83429 3.96887 0
M  V30 460 H 35.3236 -1.02834 5.40097 0
M  V30 461 H 36.5486 -1.34348 6.65678 0
M  V30 462 H 34.4946 -3.34538 5.64287 0
M  V30 463 H 34.4116 -2.4794 7.14186 0
M  V30 464 H 35.6796 -3.642 6.89187 0
M  V30 465 N 39.9087 -1.5758 0.0250728 0
M  V30 466 C 40.8387 -2.13007 -0.956575 0
M  V30 467 C 41.8197 -1.0452 -1.342 0
M  V30 468 O 43.0047 -1.32332 -1.42133 0
M  V30 469 C 40.1347 -2.65386 -2.24026 0
M  V30 470 C 39.0887 -3.78623 -1.99571 0
M  V30 471 C 38.4147 -4.17414 -3.3417 0
M  V30 472 C 39.7147 -5.04867 -1.33814 0
M  V30 473 H 41.4087 -2.9528 -0.494991 0
M  V30 474 H 38.9547 -1.42042 -0.236651 0
M  V30 475 H 40.9077 -3.02794 -2.93076 0
M  V30 476 H 39.6317 -1.80268 -2.72343 0
M  V30 477 H 38.2907 -3.41646 -1.32941 0
M  V30 478 H 37.9387 -3.29284 -3.80238 0
M  V30 479 H 37.6387 -4.93719 -3.18615 0
M  V30 480 H 39.1627 -4.57402 -4.04495 0
M  V30 481 H 40.5767 -5.39888 -1.92857 0
M  V30 482 H 38.9737 -5.86144 -1.28669 0
M  V30 483 H 40.0437 -4.83904 -0.310561 0
M  V30 484 N 41.3868 0.248026 -1.55636 0
M  V30 485 C 42.3188 1.32993 -1.8667 0
M  V30 486 C 43.3318 1.44345 -0.752877 0
M  V30 487 O 44.5208 1.45715 -1.03098 0
M  V30 488 C 41.6208 2.70863 -2.03682 0
M  V30 489 C 40.7938 2.81792 -3.34532 0
M  V30 490 C 39.8528 4.005 -3.41301 0
M  V30 491 O 38.8788 3.9008 -4.14519 0
M  V30 492 N 40.0808 5.13618 -2.70512 0
M  V30 493 H 42.8458 1.06707 -2.8006 0
M  V30 494 H 40.4068 0.438129 -1.55859 0
M  V30 495 H 42.3988 3.48612 -2.05553 0
M  V30 496 H 40.9688 2.89862 -1.17041 0
M  V30 497 H 40.1888 1.90729 -3.44987 0
M  V30 498 H 41.4768 2.86043 -4.20781 0
M  V30 499 H 40.8748 5.24975 -2.10755 0
M  V30 500 H 39.4318 5.89505 -2.78077 0
M  V30 501 N 42.8649 1.48995 0.513639 0
M  V30 502 C 44.1419 1.48338 1.27495 0
M  V30 503 C 44.5219 0.204065 2.10111 0
M  V30 504 O 43.8699 -0.813881 2.13514 0
M  V30 505 C 44.0799 2.75498 2.14247 0
M  V30 506 C 45.4279 3.24484 2.73852 0
M  V30 507 O 46.4519 2.76528 2.24523 0
M  V30 508 O 45.3109 4.07974 3.6362 0
M  V30 509 H 42.4049 0.593149 0.576284 0
M  V30 510 H 44.9509 1.61246 0.528948 0
M  V30 511 H 43.7229 3.60109 1.53092 0
M  V30 512 H 43.3459 2.6539 2.96064 0
M  V30 513 N 44.343 -0.763751 1.37857 0
M  V30 514 C 45.589 -1.52483 1.33704 0
M  V30 515 C 45.922 -1.94051 -0.0759612 0
M  V30 516 O 45.197 -1.64675 -1.03501 0
M  V30 517 C 45.48 -2.78441 2.28348 0
M  V30 518 C 45.333 -2.43075 3.78463 0
M  V30 519 C 46.652 -3.80415 2.21298 0
M  V30 520 H 43.771 -0.553169 0.487005 0
M  V30 521 H 46.413 -0.875562 1.68624 0
M  V30 522 H 44.563 -3.33842 1.987 0
M  V30 523 H 46.235 -1.93527 4.18742 0
M  V30 524 H 44.478 -1.75666 3.96641 0
M  V30 525 H 45.149 -3.33149 4.40132 0
M  V30 526 H 47.625 -3.34527 2.47449 0
M  V30 527 H 46.501 -4.66257 2.89647 0
M  V30 528 H 46.762 -4.25262 1.20849 0
M  V30 529 N 45.8211 -1.22559 -0.990812 0
M  V30 530 C 46.7711 -0.964807 -2.0658 0
M  V30 531 C 47.7551 0.0853472 -1.60673 0
M  V30 532 O 48.9471 -0.125443 -1.76555 0
M  V30 533 C 46.0761 -0.546707 -3.38919 0
M  V30 534 C 45.1621 -1.6317 -3.91454 0
M  V30 535 N 45.5531 -2.85985 -4.17189 0
M  V30 536 C 43.8511 -1.50387 -4.19881 0
M  V30 537 C 44.5521 -3.56159 -4.59919 0
M  V30 538 N 43.5281 -2.83637 -4.63736 0
M  V30 539 H 47.3301 -1.89769 -2.24421 0
M  V30 540 H 44.8441 -1.12343 -1.17273 0
M  V30 541 H 46.8411 -0.34119 -4.15502 0
M  V30 542 H 45.5011 0.379254 -3.22478 0
M  V30 543 H 46.5121 -3.22392 -4.05319 0
M  V30 544 H 43.1891 -0.644254 -4.12499 0
M  V30 545 H 44.5791 -4.6139 -4.88435 0
M  V30 546 N 47.2992 1.18797 -1.03562 0
M  V30 547 C 48.2472 2.24297 -0.615905 0
M  V30 548 C 49.2412 1.65643 0.354808 0
M  V30 549 O 50.4472 1.78618 0.22265 0
M  V30 550 H 46.8222 0.729909 -0.180934 0
M  V30 551 H 48.7932 2.5701 -1.5162 0
M  V30 552 C 47.5422 3.47698 0.0104735 0
M  V30 553 H 46.8652 3.93125 -0.727509 0
M  V30 554 H 48.3052 4.23159 0.266995 0
M  V30 555 C 46.7642 3.12489 1.25905 0
M  V30 556 O 47.2942 3.25761 2.35038 0
M  V30 557 N 45.5002 2.6686 1.15039 0
M  V30 558 H 45.0472 2.56261 0.262328 0
M  V30 559 H 45.0052 2.43674 1.98672 0
M  V30 560 N 48.7773 0.814389 1.34928 0
M  V30 561 C 50.0243 0.398423 1.98542 0
M  V30 562 C 50.3523 -1.03638 1.64589 0
M  V30 563 O 49.6073 -1.73509 0.90516 0
M  V30 564 C 49.9063 0.537781 3.53331 0
M  V30 565 C 49.5723 1.93704 4.07172 0
M  V30 566 C 48.2343 2.31984 4.21589 0
M  V30 567 C 50.5863 2.85213 4.36237 0
M  V30 568 C 47.9143 3.61125 4.62391 0
M  V30 569 C 50.2663 4.13809 4.78482 0
M  V30 570 C 48.9303 4.52077 4.91104 0
M  V30 571 H 48.2003 0.145793 0.726516 0
M  V30 572 H 50.8473 1.03669 1.61012 0
M  V30 573 H 49.1523 -0.183906 3.91368 0
M  V30 574 H 50.8493 0.196588 4.00518 0
M  V30 575 H 47.4393 1.62966 3.96409 0
M  V30 576 H 51.6233 2.56885 4.24645 0
M  V30 577 H 46.8793 3.90612 4.70353 0
M  V30 578 H 51.0533 4.84811 4.99932 0
M  V30 579 H 48.6803 5.52196 5.22478 0
M  V30 580 N 50.2554 -1.46986 0.568584 0
M  V30 581 C 51.5014 -2.02741 0.0488709 0
M  V30 582 C 51.8344 -1.44077 -1.30214 0
M  V30 583 O 51.1094 -0.600552 -1.84996 0
M  V30 584 C 51.3924 -3.60086 -0.032047 0
M  V30 585 C 51.2454 -4.29162 1.34686 0
M  V30 586 C 52.5644 -4.33838 -0.739798 0
M  V30 587 H 49.6834 -0.736749 0.0192338 0
M  V30 588 H 52.3254 -1.75289 0.733065 0
M  V30 589 H 50.4754 -3.83606 -0.61473 0
M  V30 590 H 52.1474 -4.16948 1.97362 0
M  V30 591 H 50.3904 -3.89073 1.91846 0
M  V30 592 H 51.0614 -5.37826 1.24285 0
M  V30 593 H 53.5374 -4.15378 -0.244939 0
M  V30 594 H 52.4134 -5.43537 -0.765406 0
M  V30 595 H 52.6744 -4.03875 -1.79827 0
M  V30 596 N 51.7335 -0.305618 -1.54608 0
M  V30 597 C 52.6965 0.555591 -2.22364 0
M  V30 598 C 53.6965 1.05768 -1.21119 0
M  V30 599 O 54.8865 0.952972 -1.45822 0
M  V30 600 C 52.0185 1.76974 -2.91364 0
M  V30 601 H 53.2115 -0.0364572 -2.99878 0
M  V30 602 H 50.7645 -0.0565007 -1.56198 0
M  V30 603 H 51.4995 2.40151 -2.17941 0
M  V30 604 H 51.2845 1.41732 -3.65588 0
M  V30 605 H 52.7745 2.38148 -3.43038 0
M  V30 606 N 53.2116 1.57565 -0.0334293 0
M  V30 607 C 54.1416 2.13511 0.945265 0
M  V30 608 C 55.1226 1.05231 1.33643 0
M  V30 609 O 56.3076 1.33084 1.41429 0
M  V30 610 C 53.4376 2.6657 2.22616 0
M  V30 611 C 52.3916 3.79676 1.97561 0
M  V30 612 C 51.7176 4.1918 3.31952 0
M  V30 613 C 53.0176 5.0557 1.31135 0
M  V30 614 H 54.7116 2.95538 0.479325 0
M  V30 615 H 52.2576 1.42166 0.229115 0
M  V30 616 H 54.2106 3.04344 2.91466 0
M  V30 617 H 52.9346 1.8171 2.71384 0
M  V30 618 H 51.5936 3.42347 1.31127 0
M  V30 619 H 51.2416 3.31296 3.78487 0
M  V30 620 H 50.9416 4.95402 3.15992 0
M  V30 621 H 52.4656 4.59541 4.02063 0
M  V30 622 H 53.8796 5.40903 1.89992 0
M  V30 623 H 52.2766 5.86818 1.25559 0
M  V30 624 H 53.3466 4.84062 0.284894 0
M  V30 625 N 54.6897 -0.239769 1.55765 0
M  V30 626 C 55.9377 -0.964892 1.77579 0
M  V30 627 C 56.2587 -1.85582 0.598699 0
M  V30 628 O 55.5287 -1.92075 -0.385226 0
M  V30 629 H 54.1087 -0.359265 0.654933 0
M  V30 630 H 56.7707 -0.256001 1.93211 0
M  V30 631 H 55.8667 -1.58243 2.69009 0
M  V30 632 N 56.1678 -1.49265 -0.50573 0
M  V30 633 C 57.1308 -1.65075 -1.59006 0
M  V30 634 C 58.1308 -0.522768 -1.52065 0
M  V30 635 O 59.3208 -0.789117 -1.55302 0
M  V30 636 C 56.4528 -1.64369 -2.98656 0
M  V30 637 H 57.6458 -2.61784 -1.46319 0
M  V30 638 H 55.1988 -1.38226 -0.729616 0
M  V30 639 H 55.9338 -0.692272 -3.16825 0
M  V30 640 H 55.7188 -2.46282 -3.05103 0
M  V30 641 H 57.2088 -1.78674 -3.77446 0
M  V30 642 N 57.6459 0.756429 -1.3826 0
M  V30 643 C 59.0569 1.33359 -1.30661 0
M  V30 644 C 59.4079 1.96161 0.0388875 0
M  V30 645 O 58.5329 1.94874 0.940918 0
M  V30 646 C 59.1279 2.42477 -2.36622 0
M  V30 647 C 57.6869 2.95922 -2.3261 0
M  V30 648 C 56.8339 1.69275 -2.19639 0
M  V30 649 H 59.7849 0.55552 -1.4866 0
M  V30 650 H 59.8059 3.22345 -2.02174 0
M  V30 651 H 59.3179 1.96739 -3.34538 0
M  V30 652 H 57.4189 3.45996 -1.38267 0
M  V30 653 H 57.5319 3.50494 -3.26636 0
M  V30 654 H 55.8959 1.92793 -1.66442 0
M  V30 655 H 56.6789 1.25619 -3.19491 0
M  V30 656 N 59.124 1.23083 0.984299 0
M  V30 657 C 60.054 1.03292 2.09411 0
M  V30 658 C 61.035 -0.048923 1.7003 0
M  V30 659 O 62.22 0.114967 1.93859 0
M  V30 660 C 59.35 0.619155 3.41736 0
M  V30 661 C 58.304 1.64791 3.95004 0
M  V30 662 C 57.63 1.0897 5.23478 0
M  V30 663 C 58.93 3.03999 4.24714 0
M  V30 664 H 60.624 1.96119 2.26225 0
M  V30 665 H 58.17 0.944344 1.08711 0
M  V30 666 H 60.123 0.467777 4.18796 0
M  V30 667 H 58.847 -0.344786 3.24775 0
M  V30 668 H 57.506 1.78721 3.20085 0
M  V30 669 H 57.154 0.11686 5.02864 0
M  V30 670 H 56.854 1.77704 5.60085 0
M  V30 671 H 58.378 0.950093 6.03163 0
M  V30 672 H 59.792 2.93393 4.92538 0
M  V30 673 H 58.189 3.69936 4.72512 0
M  V30 674 H 59.259 3.53285 3.32142 0
M  V30 675 N 60.6021 -1.18246 1.0419 0
M  V30 676 C 61.5651 -2.20128 0.638452 0
M  V30 677 C 62.5651 -1.57885 -0.304805 0
M  V30 678 O 63.7551 -1.73967 -0.0900369 0
M  V30 679 C 60.8871 -3.4084 -0.0637751 0
M  V30 680 H 62.0801 -2.57336 1.54007 0
M  V30 681 H 59.6331 -1.32152 0.834598 0
M  V30 682 H 60.3681 -3.09166 -0.979136 0
M  V30 683 H 60.1531 -3.8726 0.614198 0
M  V30 684 H 61.6431 -4.16274 -0.332512 0
M  V30 685 N 62.0802 -0.821533 -1.34494 0
M  V30 686 C 63.4912 -0.467956 -1.8074 0
M  V30 687 C 63.8422 1.01151 -1.68116 0
M  V30 688 O 62.9672 1.78707 -1.22036 0
M  V30 689 C 63.5622 -0.842627 -3.28154 0
M  V30 690 C 62.1212 -0.541439 -3.72485 0
M  V30 691 C 61.2682 -1.06028 -2.56229 0
M  V30 692 H 64.2192 -1.01183 -1.22261 0
M  V30 693 H 64.2402 -0.145876 -3.8022 0
M  V30 694 H 63.7522 -1.91945 -3.37311 0
M  V30 695 H 61.8532 0.526034 -3.68868 0
M  V30 696 H 61.9662 -1.08453 -4.66663 0
M  V30 697 H 60.3302 -0.481892 -2.501 0
M  V30 698 H 61.1132 -2.14352 -2.68157 0
M  V30 699 N 63.5583 1.46682 -0.576371 0
M  V30 700 C 64.9743 1.57822 -0.237562 0
M  V30 701 C 65.1743 1.57237 1.26011 0
M  V30 702 O 64.2303 1.48596 2.04146 0
M  V30 703 C 65.5433 2.87499 -0.881168 0
M  V30 704 C 67.0913 3.01119 -0.85417 0
M  V30 705 C 67.5663 4.33524 -1.4772 0
M  V30 706 N 69.0573 4.40207 -1.44125 0
M  V30 707 C 69.7923 5.4126 -1.89276 0
M  V30 708 N 69.2883 6.49021 -2.42371 0
M  V30 709 N 71.0813 5.32422 -1.80231 0
M  V30 710 H 63.2323 1.45306 -1.54919 0
M  V30 711 H 65.4953 0.692733 -0.647167 0
M  V30 712 H 65.2013 2.9372 -1.93447 0
M  V30 713 H 65.0753 3.75224 -0.385592 0
M  V30 714 H 67.4623 2.94485 0.190491 0
M  V30 715 H 67.5433 2.14887 -1.3877 0
M  V30 716 H 67.1873 4.40916 -2.52103 0
M  V30 717 H 67.1173 5.1852 -0.918947 0
M  V30 718 H 69.6083 3.62931 -1.05307 0
M  V30 719 H 69.9213 7.2233 -2.74698 0
M  V30 720 H 68.2663 6.49858 -2.46393 0
M  V30 721 H 71.4573 4.47137 -1.38514 0
M  V30 722 H 71.6303 6.11034 -2.15735 0
M  V30 723 N 65.0364 0.313813 1.54444 0
M  V30 724 C 66.3134 -0.345447 1.92525 0
M  V30 725 C 66.6934 -1.70667 1.24242 0
M  V30 726 O 66.0414 -2.25273 0.382654 0
M  V30 727 C 66.2514 -0.44737 3.46121 0
M  V30 728 C 67.5994 -0.712238 4.18584 0
M  V30 729 O 68.6234 -0.530678 3.52225 0
M  V30 730 O 67.4824 -1.06183 5.36085 0
M  V30 731 H 64.5764 -0.195407 0.803583 0
M  V30 732 H 67.1224 0.362813 1.65776 0
M  V30 733 H 65.8944 0.509043 3.87975 0
M  V30 734 H 65.5174 -1.20359 3.78945 0
M  V30 735 N 66.5145 -1.57545 0.0417849 0
M  V30 736 C 67.4775 -2.09885 -0.92093 0
M  V30 737 C 68.4775 -1.01648 -1.24596 0
M  V30 738 O 69.6675 -1.27759 -1.1842 0
M  V30 739 C 66.7995 -2.57527 -2.23367 0
M  V30 740 H 67.9925 -2.96236 -0.467382 0
M  V30 741 H 65.5455 -1.5493 -0.206467 0
M  V30 742 H 66.2805 -1.74542 -2.73323 0
M  V30 743 H 66.0655 -3.36613 -2.01083 0
M  V30 744 H 67.5555 -2.98201 -2.92346 0
M  V30 745 N 67.9926 0.231505 -1.5589 0
M  V30 746 C 69.2406 0.955461 -1.78088 0
M  V30 747 C 69.5616 1.85262 -0.608533 0
M  V30 748 O 68.8316 1.92277 0.375035 0
M  V30 749 H 67.4116 0.355787 -0.656829 0
M  V30 750 H 70.0736 0.245751 -1.93344 0
M  V30 751 H 69.1696 1.56814 -2.69844 0
M  V30 752 N 69.4707 1.49531 0.497807 0
M  V30 753 C 70.6957 1.63159 1.28039 0
M  V30 754 C 71.1207 0.30418 1.85624 0
M  V30 755 O 70.4787 -0.728618 1.66015 0
M  V30 756 C 70.5267 2.70537 2.38416 0
M  V30 757 O 69.6307 2.29931 3.42353 0
M  V30 758 H 68.9717 0.546001 0.377861 0
M  V30 759 H 71.5017 1.9574 0.59558 0
M  V30 760 H 71.5117 2.92802 2.84132 0
M  V30 761 H 70.1867 3.6689 1.95869 0
M  V30 762 H 68.7637 2.18009 3.02533 0
M  V30 763 N 70.9488 -0.749086 1.3866 0
M  V30 764 C 71.8808 -1.87273 1.32142 0
M  V30 765 C 72.8938 -1.61127 0.232787 0
M  V30 766 O 74.0828 -1.71623 0.49069 0
M  V30 767 C 71.1828 -3.23005 1.02571 0
M  V30 768 C 70.3558 -3.7662 2.22433 0
M  V30 769 C 69.4148 -4.90879 1.89537 0
M  V30 770 O 68.4408 -5.05276 2.62078 0
M  V30 771 N 69.6428 -5.74198 0.853031 0
M  V30 772 H 72.4078 -1.93373 2.28969 0
M  V30 773 H 69.9688 -0.929216 1.32579 0
M  V30 774 H 71.9608 -3.96992 0.786085 0
M  V30 775 H 70.5308 -3.12262 0.145249 0
M  V30 776 H 69.7508 -2.94147 2.62434 0
M  V30 777 H 71.0388 -4.09173 3.02415 0
M  V30 778 H 70.4368 -5.6514 0.25155 0
M  V30 779 H 68.9938 -6.48313 0.67329 0
M  V30 780 N 72.4269 -1.23603 -0.977757 0
M  V30 781 C 73.8429 -0.999251 -1.24447 0
M  V30 782 C 74.0429 0.298053 -1.99283 0
M  V30 783 O 73.0989 1.01681 -2.31122 0
M  V30 784 C 74.4119 -2.20784 -2.04144 0
M  V30 785 C 75.9599 -2.25303 -2.17273 0
M  V30 786 C 76.4349 -3.45755 -3.00362 0
M  V30 787 N 77.9259 -3.4601 -3.07947 0
M  V30 788 C 78.6609 -4.35868 -3.72568 0
M  V30 789 N 78.1569 -5.35966 -4.38991 0
M  V30 790 N 79.9499 -4.23605 -3.6948 0
M  V30 791 H 72.1009 -2.06986 -0.476483 0
M  V30 792 H 74.3639 -0.907801 -0.273134 0
M  V30 793 H 74.0699 -3.14945 -1.56533 0
M  V30 794 H 73.9439 -2.22085 -3.04891 0
M  V30 795 H 76.3309 -1.3168 -2.64092 0
M  V30 796 H 76.4119 -2.28033 -1.15907 0
M  V30 797 H 76.0559 -4.39687 -2.5424 0
M  V30 798 H 75.9859 -3.40266 -4.01904 0
M  V30 799 H 78.4769 -2.73588 -2.60688 0
M  V30 800 H 78.7899 -6.00783 -4.86086 0
M  V30 801 H 77.1349 -5.39863 -4.37691 0
M  V30 802 H 80.3259 -3.44647 -3.16759 0
M  V30 803 H 80.4989 -4.93836 -4.1956 0
M  V30 804 N 73.905 1.17692 -1.04816 0
M  V30 805 C 75.316 1.69501 -0.782698 0
M  V30 806 C 75.667 1.83456 0.695577 0
M  V30 807 O 74.792 1.51942 1.54086 0
M  V30 808 C 75.387 3.07874 -1.41419 0
M  V30 809 C 73.946 3.56864 -1.19686 0
M  V30 810 C 73.093 2.3322 -1.50012 0
M  V30 811 H 76.044 1.02262 -1.2136 0
M  V30 812 H 76.065 3.71528 -0.821428 0
M  V30 813 H 75.577 2.97685 -2.49009 0
M  V30 814 H 73.678 3.72337 -0.140043 0
M  V30 815 H 73.791 4.39851 -1.89916 0
M  V30 816 H 72.155 2.37501 -0.920071 0
M  V30 817 H 72.938 2.25644 -2.58727 0
M  V30 818 N 75.3831 0.828654 1.34056 0
M  V30 819 C 76.7991 0.515135 1.51058 0
M  V30 820 C 76.9991 -0.959581 1.77184 0
M  V30 821 O 76.0551 -1.74382 1.82612 0
M  V30 822 C 77.3681 1.37963 2.67183 0
M  V30 823 C 78.9161 1.37735 2.81066 0
M  V30 824 C 79.3911 2.22645 4.00241 0
M  V30 825 N 80.8821 2.203 4.07458 0
M  V30 826 C 81.6171 2.82744 4.98842 0
M  V30 827 N 81.1131 3.54201 5.9541 0
M  V30 828 N 82.9061 2.72268 4.91759 0
M  V30 829 H 75.0571 1.78343 1.15358 0
M  V30 830 H 77.3201 0.760304 0.566252 0
M  V30 831 H 77.0261 2.42714 2.54525 0
M  V30 832 H 76.9001 1.0484 3.62338 0
M  V30 833 H 79.2871 0.337593 2.93163 0
M  V30 834 H 79.3681 1.74859 1.86703 0
M  V30 835 H 79.0121 3.26674 3.88905 0
M  V30 836 H 78.9421 1.82869 4.93829 0
M  V30 837 H 81.4331 1.68327 3.38341 0
M  V30 838 H 81.7461 3.9908 6.61782 0
M  V30 839 H 80.0911 3.58308 5.95517 0
M  V30 840 H 83.2821 2.16014 4.15278 0
M  V30 841 H 83.4551 3.21219 5.62781 0
M  V30 842 N 76.8612 -1.46375 0.584142 0
M  V30 843 C 77.8082 -2.30323 -0.148286 0
M  V30 844 C 78.7782 -1.40703 -0.882713 0
M  V30 845 O 79.9632 -1.69651 -0.873099 0
M  V30 846 C 77.1032 -3.25196 -1.15507 0
M  V30 847 C 76.2162 -4.29915 -0.423943 0
M  V30 848 C 75.3512 -5.11914 -1.41838 0
M  V30 849 C 74.3902 -6.08381 -0.673736 0
M  V30 850 N 73.5272 -6.83242 -1.6163 0
M  V30 851 H 78.3672 -2.92427 0.573644 0
M  V30 852 H 75.9042 -1.44118 0.294703 0
M  V30 853 H 77.8622 -3.78646 -1.75166 0
M  V30 854 H 76.4922 -2.64898 -1.8447 0
M  V30 855 H 75.5442 -3.7931 0.287714 0
M  V30 856 H 76.8562 -4.98549 0.158128 0
M  V30 857 H 76.0102 -5.69648 -2.08773 0
M  V30 858 H 74.7492 -4.43243 -2.03438 0
M  V30 859 H 73.7542 -5.49799 0.00938483 0
M  V30 860 H 74.9792 -6.79071 -0.0631082 0
M  V30 861 H 72.9252 -6.1728 -2.22038 0
M  V30 862 H 72.8422 -7.48144 -1.08707 0
M  V30 863 H 74.1102 -7.45534 -2.27596 0
M  V30 864 N 78.3393 -0.321999 -1.54275 0
M  V30 865 C 79.2863 0.544664 -2.24281 0
M  V30 866 C 80.2563 1.1129 -1.23303 0
M  V30 867 O 81.4413 1.15354 -1.51981 0
M  V30 868 C 78.5813 1.70045 -3.00298 0
M  V30 869 C 77.6943 1.16159 -4.1609 0
M  V30 870 C 76.8293 2.28293 -4.79641 0
M  V30 871 C 75.8683 1.71648 -5.8754 0
M  V30 872 N 75.0053 2.77438 -6.44959 0
M  V30 873 H 79.8453 -0.0588907 -2.97942 0
M  V30 874 H 77.3823 -0.0408345 -1.47043 0
M  V30 875 H 79.3403 2.38054 -3.42616 0
M  V30 876 H 77.9703 2.27531 -2.28975 0
M  V30 877 H 77.0223 0.373092 -3.78566 0
M  V30 878 H 78.3343 0.707087 -4.93763 0
M  V30 879 H 77.4883 3.0421 -5.2492 0
M  V30 880 H 76.2273 2.77079 -4.01346 0
M  V30 881 H 75.2323 0.942282 -5.41665 0
M  V30 882 H 76.4573 1.23741 -6.67731 0
M  V30 883 H 74.4033 3.25519 -5.69538 0
M  V30 884 H 74.3203 2.36547 -7.1804 0
M  V30 885 H 75.5883 3.53189 -6.94894 0
M  V30 886 N 79.8174 1.5752 -0.0501392 0
M  V30 887 C 80.7274 2.14952 0.939827 0
M  V30 888 C 81.7434 1.10706 1.34239 0
M  V30 889 O 82.9194 1.42869 1.41952 0
M  V30 890 C 79.9844 2.68232 2.19665 0
M  V30 891 C 79.0454 3.87272 1.85253 0
M  V30 892 C 78.2784 4.38002 3.04943 0
M  V30 893 O 78.5014 3.87811 4.18281 0
M  V30 894 O 77.4354 5.29602 2.86017 0
M  V30 895 H 81.2614 2.9986 0.481392 0
M  V30 896 H 78.8464 1.4841 0.171699 0
M  V30 897 H 80.7284 3.02475 2.93406 0
M  V30 898 H 79.4034 1.86395 2.64648 0
M  V30 899 H 78.3104 3.5792 1.0883 0
M  V30 900 H 79.6434 4.70336 1.4507 0
M  V30 901 N 81.2955 -0.223234 1.56011 0
M  V30 902 C 82.5725 -0.972108 1.69733 0
M  V30 903 C 82.9525 -2.02485 0.59691 0
M  V30 904 O 82.3005 -2.25037 -0.396324 0
M  V30 905 C 82.5105 -1.58407 3.10979 0
M  V30 906 C 83.8585 -2.07696 3.70334 0
M  V30 907 O 84.8825 -1.68304 3.1393 0
M  V30 908 O 83.7415 -2.80096 4.69264 0
M  V30 909 H 80.8355 -0.453993 0.691245 0
M  V30 910 H 83.3815 -0.215149 1.68331 0
M  V30 911 H 82.1535 -0.823831 3.82529 0
M  V30 912 H 81.7765 -2.40661 3.16493 0
M  V30 913 N 82.7736 -1.49793 -0.48987 0
M  V30 914 C 83.7216 -1.67783 -1.61095 0
M  V30 915 C 84.7156 -0.543683 -1.60438 0
M  V30 916 O 85.9216 -0.723647 -1.64813 0
M  V30 917 H 82.2966 -0.529255 -0.534222 0
M  V30 918 H 84.2676 -2.61861 -1.43078 0
M  V30 919 C 83.0166 -1.77191 -2.99164 0
M  V30 920 H 82.3396 -2.63841 -3.0038 0
M  V30 921 H 83.7796 -1.93809 -3.77113 0
M  V30 922 C 82.2386 -0.519203 -3.32875 0
M  V30 923 O 82.7686 0.350124 -4.00171 0
M  V30 924 N 80.9746 -0.378816 -2.8812 0
M  V30 925 H 80.5216 -1.08725 -2.33531 0
M  V30 926 H 80.4796 0.458239 -3.11043 0
M  V30 927 N 84.2517 0.741722 -1.39055 0
M  V30 928 C 85.4977 1.50336 -1.36113 0
M  V30 929 C 85.8307 1.94148 0.0450796 0
M  V30 930 O 85.1057 1.66301 1.00868 0
M  V30 931 C 85.3887 2.74773 -2.32749 0
M  V30 932 C 85.2417 2.37023 -3.82283 0
M  V30 933 C 86.5607 3.76846 -2.27322 0
M  V30 934 H 83.6797 0.545351 -0.495743 0
M  V30 935 H 86.3217 0.848624 -1.69995 0
M  V30 936 H 84.4717 3.30639 -2.03986 0
M  V30 937 H 86.1437 1.8684 -4.21768 0
M  V30 938 H 84.3867 1.69334 -3.99385 0
M  V30 939 H 85.0577 3.26104 -4.45376 0
M  V30 940 H 87.5337 3.30548 -2.5274 0
M  V30 941 H 86.4097 4.6159 -2.97028 0
M  V30 942 H 86.6707 4.23286 -1.27599 0
M  V30 943 N 85.7298 1.2412 0.971189 0
M  V30 944 C 86.6598 1.05508 2.08304 0
M  V30 945 C 87.6408 -0.0308864 1.70072 0
M  V30 946 O 88.8258 0.135521 1.93727 0
M  V30 947 C 85.9558 0.655365 3.4106 0
M  V30 948 C 84.9098 1.68971 3.93234 0
M  V30 949 C 84.2358 1.14516 5.22293 0
M  V30 950 C 85.5358 3.08487 4.21465 0
M  V30 951 H 87.2298 1.98507 2.24132 0
M  V30 952 H 84.7758 0.955821 1.07704 0
M  V30 953 H 86.7288 0.51217 4.18276 0
M  V30 954 H 85.4528 -0.31032 3.25122 0
M  V30 955 H 84.1118 1.82106 3.18171 0
M  V30 956 H 83.7598 0.170189 5.02712 0
M  V30 957 H 83.4598 1.83635 5.58168 0
M  V30 958 H 84.9838 1.01401 6.02121 0
M  V30 959 H 86.3978 2.98601 4.89398 0
M  V30 960 H 84.7948 3.74926 4.68562 0
M  V30 961 H 85.8648 3.56787 3.28376 0
M  V30 962 N 87.2079 -1.17134 1.05439 0
M  V30 963 C 88.4539 -1.87733 0.767077 0
M  V30 964 C 88.7869 -1.8098 -0.704253 0
M  V30 965 O 88.0619 -1.21951 -1.5152 0
M  V30 966 C 88.3449 -3.37659 1.25133 0
M  V30 967 C 88.1979 -3.53149 2.78578 0
M  V30 968 C 89.5169 -4.31768 0.852324 0
M  V30 969 H 86.6359 -0.681687 0.280129 0
M  V30 970 H 89.2779 -1.37732 1.30881 0
M  V30 971 H 87.4279 -3.80373 0.790469 0
M  V30 972 H 89.0999 -3.19434 3.32806 0
M  V30 973 H 87.3429 -2.95345 3.17732 0
M  V30 974 H 88.0139 -4.58403 3.07523 0
M  V30 975 H 90.4899 -3.96909 1.24911 0
M  V30 976 H 89.3659 -5.35199 1.21873 0
M  V30 977 H 89.6269 -4.41429 -0.243485 0
M  V30 978 N 88.686 -0.835752 -1.33615 0
M  V30 979 C 89.596 -0.269088 -2.33052 0
M  V30 980 C 90.612 0.603251 -1.63208 0
M  V30 981 O 91.788 0.508112 -1.94885 0
M  V30 982 C 88.853 0.549091 -3.42324 0
M  V30 983 C 87.914 -0.347156 -4.27894 0
M  V30 984 C 87.147 0.43207 -5.31948 0
M  V30 985 O 87.37 1.66409 -5.45586 0
M  V30 986 O 86.304 -0.192298 -6.01593 0
M  V30 987 H 90.13 -1.09243 -2.83372 0
M  V30 988 H 87.715 -0.598198 -1.36901 0
M  V30 989 H 89.597 1.01414 -4.09015 0
M  V30 990 H 88.272 1.34955 -2.94226 0
M  V30 991 H 87.179 -0.859979 -3.64081 0
M  V30 992 H 88.512 -1.1123 -4.79467 0
M  V30 993 N 90.1641 1.46063 -0.591896 0
M  V30 994 C 91.3891 2.07226 -0.0850314 0
M  V30 995 C 91.8141 1.43625 1.21463 0
M  V30 996 O 91.1721 0.523305 1.73583 0
M  V30 997 C 91.2201 3.60554 0.0576567 0
M  V30 998 O 90.3241 3.97128 1.11188 0
M  V30 999 H 89.6651 0.660615 -0.0669568 0
M  V30 1000 H 92.1951 1.8756 -0.81745 0
M  V30 1001 H 92.2051 4.07165 0.2609 0
M  V30 1002 H 90.8801 4.06235 -0.891416 0
M  V30 1003 H 89.4571 3.62213 0.886356 0
M  V30 1004 N 91.6422 0.330177 1.54103 0
M  V30 1005 C 92.5922 -0.548456 2.21305 0
M  V30 1006 C 93.5762 -1.07651 1.19583 0
M  V30 1007 O 94.7682 -1.01243 1.45186 0
M  V30 1008 C 91.8972 -1.70559 2.97934 0
M  V30 1009 C 90.9832 -1.19212 4.07 0
M  V30 1010 N 91.3742 -0.398831 5.04225 0
M  V30 1011 C 89.6722 -1.47024 4.2107 0
M  V30 1012 C 90.3732 -0.121761 5.81573 0
M  V30 1013 N 89.3492 -0.709722 5.38947 0
M  V30 1014 H 93.1512 0.0648483 2.93828 0
M  V30 1015 H 90.6652 0.136363 1.61826 0
M  V30 1016 H 92.6622 -2.34688 3.44568 0
M  V30 1017 H 91.3222 -2.32231 2.26934 0
M  V30 1018 H 92.3332 -0.0410869 5.17884 0
M  V30 1019 H 89.0102 -2.09232 3.61287 0
M  V30 1020 H 90.4002 0.517298 6.69906 0
M  V30 1021 N 93.1203 -1.57491 0.0584922 0
M  V30 1022 C 94.0303 -2.15448 -0.928414 0
M  V30 1023 C 95.0463 -1.11416 -1.3365 0
M  V30 1024 O 96.2223 -1.4362 -1.41193 0
M  V30 1025 C 93.2873 -2.69393 -2.18239 0
M  V30 1026 C 92.3483 -3.88249 -1.83196 0
M  V30 1027 C 91.5813 -4.39613 -3.02616 0
M  V30 1028 O 91.8043 -3.90023 -4.16219 0
M  V30 1029 O 90.7383 -5.31111 -2.83204 0
M  V30 1030 H 94.5643 -3.00112 -0.465483 0
M  V30 1031 H 92.1493 -1.48499 -0.163826 0
M  V30 1032 H 94.0313 -3.04026 -2.91798 0
M  V30 1033 H 92.7063 -1.87796 -2.63656 0
M  V30 1034 H 91.6133 -3.58492 -1.06931 0
M  V30 1035 H 92.9463 -4.71098 -1.42573 0
M  V30 1036 N 94.5984 0.214957 -1.56127 0
M  V30 1037 C 95.5454 1.26642 -1.92952 0
M  V30 1038 C 96.5154 1.46244 -0.78753 0
M  V30 1039 O 97.7004 1.59704 -1.04399 0
M  V30 1040 C 94.8404 2.6104 -2.25726 0
M  V30 1041 C 93.9534 2.49183 -3.52891 0
M  V30 1042 C 93.0884 3.76149 -3.7508 0
M  V30 1043 C 92.1274 3.59041 -4.95738 0
M  V30 1044 N 91.2644 4.77972 -5.14283 0
M  V30 1045 H 96.1044 0.945384 -2.82607 0
M  V30 1046 H 93.6414 0.455489 -1.3987 0
M  V30 1047 H 95.5994 3.39313 -2.42739 0
M  V30 1048 H 94.2294 2.91227 -1.39236 0
M  V30 1049 H 93.2814 1.6231 -3.44034 0
M  V30 1050 H 94.5934 2.32466 -4.41318 0
M  V30 1051 H 93.7474 4.62865 -3.92226 0
M  V30 1052 H 92.4864 3.95799 -2.84947 0
M  V30 1053 H 91.4914 2.7071 -4.78535 0
M  V30 1054 H 92.7164 3.40856 -5.87362 0
M  V30 1055 H 90.6624 4.97923 -4.27093 0
M  V30 1056 H 90.5794 4.64006 -5.96853 0
M  V30 1057 H 91.8474 5.66096 -5.35869 0
M  V30 1058 N 96.0765 1.50051 0.48192 0
M  V30 1059 C 97.3015 1.64508 1.26301 0
M  V30 1060 C 97.7265 0.323851 1.85291 0
M  V30 1061 O 97.0845 -0.710969 1.66778 0
M  V30 1062 C 97.1325 2.7305 2.35533 0
M  V30 1063 O 96.2365 2.3355 3.39895 0
M  V30 1064 H 95.5775 0.549978 0.372048 0
M  V30 1065 H 98.1075 1.9636 0.574786 0
M  V30 1066 H 98.1175 2.95799 2.8101 0
M  V30 1067 H 96.7925 3.68946 1.91967 0
M  V30 1068 H 95.3695 2.21205 3.00204 0
M  V30 1069 N 97.5546 -0.734337 1.39446 0
M  V30 1070 C 98.4846 -1.86155 1.40955 0
M  V30 1071 C 99.4656 -1.67898 0.272827 0
M  V30 1072 O 100.651 -1.88207 0.478743 0
M  V30 1073 C 97.7806 -3.23912 1.25294 0
M  V30 1074 C 96.7346 -3.56808 2.36373 0
M  V30 1075 C 96.0606 -4.93508 2.058 0
M  V30 1076 C 97.3606 -3.59713 3.78687 0
M  V30 1077 H 99.0546 -1.8515 2.35287 0
M  V30 1078 H 96.6006 -0.889367 1.13253 0
M  V30 1079 H 98.5536 -4.02443 1.2497 0
M  V30 1080 H 97.2776 -3.25446 0.274308 0
M  V30 1081 H 95.9366 -2.80606 2.35914 0
M  V30 1082 H 95.5846 -4.91623 1.06374 0
M  V30 1083 H 95.2846 -5.16486 2.80208 0
M  V30 1084 H 96.8086 -5.74396 2.07128 0
M  V30 1085 H 98.2226 -4.2832 3.81071 0
M  V30 1086 H 96.6196 -3.94209 4.52459 0
M  V30 1087 H 97.6896 -2.59504 4.09617 0
M  V30 1088 N 99.0327 -1.24633 -0.964593 0
M  V30 1089 C 100.281 -1.08573 -1.70459 0
M  V30 1090 C 100.602 0.375655 -1.91347 0
M  V30 1091 O 99.8717 1.26779 -1.49345 0
M  V30 1092 H 98.4517 -0.398784 -0.631649 0
M  V30 1093 H 101.114 -1.56601 -1.16026 0
M  V30 1094 H 100.21 -1.58623 -2.68785 0
M  V30 1095 N 100.511 1.16574 -1.06058 0
M  V30 1096 C 101.421 2.2452 -0.680282 0
M  V30 1097 C 102.437 1.71348 0.302604 0
M  V30 1098 O 103.613 2.00822 0.152513 0
M  V30 1099 C 100.678 3.46629 -0.0700315 0
M  V30 1100 C 99.7388 4.14849 -1.10448 0
M  V30 1101 C 98.9718 5.31129 -0.523256 0
M  V30 1102 O 99.1948 5.66514 0.664709 0
M  V30 1103 O 98.1288 5.88526 -1.26179 0
M  V30 1104 H 101.955 2.59355 -1.58015 0
M  V30 1105 H 99.5398 1.24043 -0.832694 0
M  V30 1106 H 101.422 4.20543 0.268667 0
M  V30 1107 H 100.097 3.13573 0.803353 0
M  V30 1108 H 99.0038 3.42916 -1.49532 0
M  V30 1109 H 100.337 4.51954 -1.94931 0
M  V30 1110 N 101.989 0.842826 1.3317 0
M  V30 1111 C 102.952 0.284065 2.27433 0
M  V30 1112 C 103.952 -0.54948 1.5112 0
M  V30 1113 O 105.142 -0.362699 1.70382 0
M  V30 1114 C 102.274 -0.599384 3.35589 0
M  V30 1115 H 103.467 1.11589 2.78366 0
M  V30 1116 H 101.02 0.616221 1.4364 0
M  V30 1117 H 101.755 -1.45349 2.89904 0
M  V30 1118 H 101.54 -0.00291266 3.921 0
M  V30 1119 H 103.03 -0.983488 4.05854 0
M  V30 1120 N 103.467 -1.45747 0.599634 0
M  V30 1121 C 104.744 -1.95585 0.0240846 0
M  V30 1122 C 105.124 -1.54217 -1.44154 0
M  V30 1123 O 104.472 -0.800903 -2.14004 0
M  V30 1124 C 104.682 -3.48344 0.21385 0
M  V30 1125 C 106.03 -4.24504 0.0904902 0
M  V30 1126 O 107.054 -3.55911 0.143558 0
M  V30 1127 O 105.913 -5.46491 -0.0310766 0
M  V30 1128 H 103.007 -0.82602 -0.0402478 0
M  V30 1129 H 105.553 -1.55951 0.669139 0
M  V30 1130 H 104.325 -3.71397 1.23206 0
M  V30 1131 H 103.948 -3.9485 -0.466842 0
M  V30 1132 N 104.945 -0.338344 -1.53925 0
M  V30 1133 C 105.892 0.520845 -2.24846 0
M  V30 1134 C 106.862 1.09976 -1.24477 0
M  V30 1135 O 108.047 1.13735 -1.53196 0
M  V30 1136 C 105.187 1.6685 -3.02084 0
M  V30 1137 C 104.3 1.11739 -4.17299 0
M  V30 1138 C 103.435 2.23193 -4.82036 0
M  V30 1139 C 102.474 1.65407 -5.89328 0
M  V30 1140 N 101.611 2.70582 -6.47866 0
M  V30 1141 H 106.451 -0.0904881 -2.97863 0
M  V30 1142 H 103.988 -0.0564282 -1.46992 0
M  V30 1143 H 105.946 2.34407 -3.45122 0
M  V30 1144 H 104.576 2.2509 -2.31375 0
M  V30 1145 H 103.628 0.332919 -3.7894 0
M  V30 1146 H 104.94 0.654677 -4.94485 0
M  V30 1147 H 104.094 2.98626 -5.28117 0
M  V30 1148 H 102.833 2.72807 -4.04262 0
M  V30 1149 H 101.838 0.884779 -5.42634 0
M  V30 1150 H 103.063 1.16652 -6.69006 0
M  V30 1151 H 101.009 3.1946 -5.72959 0
M  V30 1152 H 100.926 2.28917 -7.20509 0
M  V30 1153 H 102.194 3.45799 -6.98601 0
M  V30 1154 N 106.423 1.57458 -0.0668435 0
M  V30 1155 C 107.386 2.11323 0.887422 0
M  V30 1156 C 108.386 1.03618 1.22964 0
M  V30 1157 O 109.576 1.29626 1.16373 0
M  V30 1158 C 106.708 2.61048 2.19242 0
M  V30 1159 H 107.901 2.96942 0.420194 0
M  V30 1160 H 105.454 1.55239 0.181793 0
M  V30 1161 H 106.189 1.78868 2.70512 0
M  V30 1162 H 105.974 3.39769 1.95702 0
M  V30 1163 H 107.464 3.02814 2.87565 0
M  V30 1164 N 107.901 -0.206675 1.56239 0
M  V30 1165 C 109.178 -0.954051 1.70755 0
M  V30 1166 C 109.558 -2.01841 0.618353 0
M  V30 1167 O 108.906 -2.25444 -0.372434 0
M  V30 1168 C 109.116 -1.551 3.12642 0
M  V30 1169 C 110.464 -2.03757 3.72516 0
M  V30 1170 O 111.488 -1.64965 3.15698 0
M  V30 1171 O 110.347 -2.75103 4.72208 0
M  V30 1172 H 107.441 -0.446636 0.696021 0
M  V30 1173 H 109.987 -0.197283 1.68549 0
M  V30 1174 H 108.759 -0.783212 3.83382 0
M  V30 1175 H 108.382 -2.37291 3.19028 0
M  V30 1176 N 109.379 -1.50304 -0.473955 0
M  V30 1177 C 110.625 -1.61389 -1.22806 0
M  V30 1178 C 110.958 -0.311955 -1.91678 0
M  V30 1179 O 110.233 0.686384 -1.81986 0
M  V30 1180 C 110.516 -2.79219 -2.27396 0
M  V30 1181 C 110.369 -4.19286 -1.62848 0
M  V30 1182 C 111.688 -2.92614 -3.28732 0
M  V30 1183 H 108.807 -0.587399 -0.445119 0
M  V30 1184 H 111.449 -1.82681 -0.522265 0
M  V30 1185 H 109.599 -2.61195 -2.87592 0
M  V30 1186 H 111.271 -4.48892 -1.06271 0
M  V30 1187 H 109.514 -4.23677 -0.931693 0
M  V30 1188 H 110.185 -4.97655 -2.38838 0
M  V30 1189 H 112.661 -3.09105 -2.78556 0
M  V30 1190 H 111.537 -3.76688 -3.99246 0
M  V30 1191 H 111.798 -2.03107 -3.92683 0
M  V30 1192 N 110.857 0.726932 -1.39834 0
M  V30 1193 C 111.805 1.86235 -1.39353 0
M  V30 1194 C 112.799 1.67144 -0.275555 0
M  V30 1195 O 114.005 1.74387 -0.44601 0
M  V30 1196 H 110.38 0.613174 -0.43534 0
M  V30 1197 H 112.351 1.83756 -2.35109 0
M  V30 1198 C 111.1 3.23995 -1.26185 0
M  V30 1199 H 110.423 3.39285 -2.11484 0
M  V30 1200 H 111.863 4.03609 -1.29907 0
M  V30 1201 C 110.322 3.36888 0.0290018 0
M  V30 1202 O 110.852 3.89152 0.99619 0
M  V30 1203 N 109.058 2.90446 0.0947437 0
M  V30 1204 H 108.605 2.48102 -0.693035 0
M  V30 1205 H 108.563 2.99451 0.957932 0
M  V30 1206 N 112.336 1.25143 0.95797 0
M  V30 1207 C 113.582 1.09855 1.70469 0
M  V30 1208 C 113.915 -0.360187 1.90831 0
M  V30 1209 O 113.19 -1.26568 1.47685 0
M  V30 1210 C 113.473 1.8497 3.08963 0
M  V30 1211 C 113.326 3.38652 2.96032 0
M  V30 1212 C 114.645 1.63016 4.08795 0
M  V30 1213 H 111.764 0.400465 0.618706 0
M  V30 1214 H 114.406 1.53933 1.11376 0
M  V30 1215 H 112.556 1.47505 3.59409 0
M  V30 1216 H 114.228 3.85772 2.52938 0
M  V30 1217 H 112.471 3.66534 2.32025 0
M  V30 1218 H 113.142 3.8642 3.94187 0
M  V30 1219 H 115.618 1.95625 3.67247 0
M  V30 1220 H 114.494 2.18015 5.03747 0
M  V30 1221 H 114.755 0.570692 4.38401 0
M  V30 1222 N 113.814 -1.1601 1.06675 0
M  V30 1223 C 114.744 -2.22688 0.702307 0
M  V30 1224 C 115.725 -1.67306 -0.307032 0
M  V30 1225 O 116.91 -1.93352 -0.181305 0
M  V30 1226 C 114.04 -3.47178 0.092038 0
M  V30 1227 C 112.994 -4.15477 1.02777 0
M  V30 1228 C 112.32 -5.33963 0.28061 0
M  V30 1229 C 113.62 -4.66019 2.35846 0
M  V30 1230 H 115.314 -2.53429 1.59419 0
M  V30 1231 H 112.86 -1.21813 0.767961 0
M  V30 1232 H 114.813 -4.21037 -0.174814 0
M  V30 1233 H 113.537 -3.15749 -0.834877 0
M  V30 1234 H 112.196 -3.43549 1.27944 0
M  V30 1235 H 111.844 -4.98788 -0.649545 0
M  V30 1236 H 111.544 -5.806 0.904258 0
M  V30 1237 H 113.068 -6.10596 0.021396 0
M  V30 1238 H 114.482 -5.3144 2.15045 0
M  V30 1239 H 112.879 -5.23293 2.93743 0
M  V30 1240 H 113.949 -3.82023 2.98641 0
M  V30 1241 N 115.292 -0.849877 -1.32721 0
M  V30 1242 C 116.52 -0.464754 -2.01613 0
M  V30 1243 C 116.935 0.937191 -1.63897 0
M  V30 1244 O 116.292 1.61081 -0.857856 0
M  V30 1245 C 116.343 -0.588638 -3.56675 0
M  V30 1246 O 116.064 -1.93535 -3.93034 0
M  V30 1247 C 117.565 -0.2019 -4.4284 0
M  V30 1248 H 114.785 -0.183215 -0.645502 0
M  V30 1249 H 117.329 -1.1455 -1.69407 0
M  V30 1250 H 115.484 0.0443159 -3.87375 0
M  V30 1251 H 115.898 -1.92871 -4.87751 0
M  V30 1252 H 117.372 -0.339599 -5.50954 0
M  V30 1253 H 117.849 0.857224 -4.30753 0
M  V30 1254 H 118.455 -0.809733 -4.17521 0
M  V30 1255 N 116.77 1.45427 -0.607355 0
M  V30 1256 C 117.717 2.3053 0.111625 0
M  V30 1257 C 118.687 1.4209 0.860216 0
M  V30 1258 O 119.872 1.71019 0.845998 0
M  V30 1259 C 117.012 3.26992 1.10319 0
M  V30 1260 C 116.125 4.30535 0.355493 0
M  V30 1261 C 115.26 5.14105 1.33676 0
M  V30 1262 C 114.299 6.09376 0.576862 0
M  V30 1263 N 113.436 6.85727 1.5074 0
M  V30 1264 H 118.276 2.91477 -0.620093 0
M  V30 1265 H 115.813 1.43631 -0.317594 0
M  V30 1266 H 117.771 3.81385 1.6912 0
M  V30 1267 H 116.401 2.67799 1.80232 0
M  V30 1268 H 115.453 3.78805 -0.348023 0
M  V30 1269 H 116.765 4.98235 -0.237423 0
M  V30 1270 H 115.919 5.72897 1.99684 0
M  V30 1271 H 114.658 4.46423 1.9636 0
M  V30 1272 H 113.663 5.49715 -0.0968519 0
M  V30 1273 H 114.888 6.79085 -0.0449341 0
M  V30 1274 H 112.834 6.20735 2.12189 0
M  V30 1275 H 112.751 7.49778 0.967913 0
M  V30 1276 H 114.019 7.4906 2.15706 0
M  V30 1277 N 118.248 0.346503 1.53744 0
M  V30 1278 C 119.211 -0.496439 2.23759 0
M  V30 1279 C 120.211 -1.0252 1.2388 0
M  V30 1280 O 121.401 -0.913974 1.48297 0
M  V30 1281 C 118.533 -1.69187 2.95954 0
M  V30 1282 H 119.726 0.115952 2.99676 0
M  V30 1283 H 117.279 0.0978939 1.55993 0
M  V30 1284 H 118.014 -2.34288 2.24231 0
M  V30 1285 H 117.799 -1.31989 3.69217 0
M  V30 1286 H 119.289 -2.28969 3.49232 0
M  V30 1287 N 119.726 -1.57421 0.075193 0
M  V30 1288 C 120.673 -2.12915 -0.890843 0
M  V30 1289 C 121.643 -1.04252 -1.29309 0
M  V30 1290 O 122.828 -1.31933 -1.37834 0
M  V30 1291 C 119.968 -2.69795 -2.15186 0
M  V30 1292 C 119.081 -3.92624 -1.80194 0
M  V30 1293 C 118.216 -4.37736 -3.00933 0
M  V30 1294 C 117.255 -5.53205 -2.61974 0
M  V30 1295 N 116.392 -5.9326 -3.75483 0
M  V30 1296 H 121.232 -2.95156 -0.410735 0
M  V30 1297 H 118.769 -1.45854 -0.191086 0
M  V30 1298 H 120.727 -3.00883 -2.89008 0
M  V30 1299 H 119.357 -1.90313 -2.60731 0
M  V30 1300 H 118.409 -3.67977 -0.964218 0
M  V30 1301 H 119.721 -4.76482 -1.47534 0
M  V30 1302 H 118.875 -4.70503 -3.8303 0
M  V30 1303 H 117.614 -3.52739 -3.36789 0
M  V30 1304 H 116.619 -5.20086 -1.783 0
M  V30 1305 H 117.844 -6.39936 -2.27284 0
M  V30 1306 H 115.79 -5.11212 -4.11094 0
M  V30 1307 H 115.707 -6.71865 -3.46602 0
M  V30 1308 H 116.975 -6.30651 -4.58148 0
M  V30 1309 N 121.204 0.198386 -1.56346 0
M  V30 1310 C 122.429 0.939682 -1.84891 0
M  V30 1311 C 122.854 1.76202 -0.658369 0
M  V30 1312 O 122.212 1.76993 0.392851 0
M  V30 1313 C 122.26 1.81428 -3.11635 0
M  V30 1314 O 121.364 2.91265 -2.91956 0
M  V30 1315 H 120.705 0.264807 -0.608912 0
M  V30 1316 H 123.235 0.204695 -2.03573 0
M  V30 1317 H 123.245 2.21958 -3.42343 0
M  V30 1318 H 121.92 1.21004 -3.97908 0
M  V30 1319 H 120.497 2.54514 -2.72538 0
M  V30 1320 N 122.682 1.50554 0.465978 0
M  V30 1321 C 123.614 1.65949 1.58093 0
M  V30 1322 C 124.627 0.540827 1.53554 0
M  V30 1323 O 125.816 0.814187 1.5885 0
M  V30 1324 C 122.916 1.63261 2.96983 0
M  V30 1325 C 122.089 2.91245 3.26336 0
M  V30 1326 C 121.148 2.8113 4.44806 0
M  V30 1327 O 120.174 3.55086 4.44862 0
M  V30 1328 N 121.376 1.95032 5.46756 0
M  V30 1329 H 124.141 2.62122 1.45301 0
M  V30 1330 H 121.702 1.48082 0.65448 0
M  V30 1331 H 123.694 1.54101 3.74212 0
M  V30 1332 H 122.264 0.748032 3.03518 0
M  V30 1333 H 121.484 3.14493 2.37672 0
M  V30 1334 H 122.772 3.76022 3.42761 0
M  V30 1335 H 122.17 1.3427 5.49534 0
M  V30 1336 H 120.727 1.91772 6.2295 0
M  V30 1337 O 124.199 -0.611556 1.49473 0
M  V30 1338 H 124.89 -1.26607 1.46596 0
M  V30 END ATOM
M  V30 BEGIN BOND
M  V30 END BOND
M  V30 END CTAB
M  END
$$$$
