drugbank_drug|DB05459 P42701|I12R1_HUMAN Interleukin-12 receptor beta-1 chain precursor - Homo sapiens
 OpenBabel12092119123D

  0  0  0     0  0            999 V3000
M  V30 BEGIN CTAB
M  V30 COUNTS 10100 10240 0 0 0
M  V30 BEGIN ATOM
M  V30 1 H -0.908 1.98254 -0.117106 0
M  V30 2 N 0 1.576 0 0
M  V30 3 C 0.933 2.03868 1.02534 0
M  V30 4 C 1.911 0.928543 1.3348 0
M  V30 5 O 3.095 1.19667 1.45644 0
M  V30 6 C 0.222 2.43627 2.35294 0
M  V30 7 C -0.732 3.65373 2.2001 0
M  V30 8 S 0.101 5.13292 1.52614 0
M  V30 9 C 1.257 5.56322 2.86805 0
M  V30 10 H 1.49 2.90518 0.631377 0
M  V30 11 H -0.977 1.52953 0.210867 0
M  V30 12 H 0.981 2.67203 3.11629 0
M  V30 13 H -0.358 1.57376 2.7183 0
M  V30 14 H -1.165 3.90944 3.18086 0
M  V30 15 H -1.563 3.418 1.51819 0
M  V30 16 H 0.729 5.58782 3.83104 0
M  V30 17 H 1.672 6.56266 2.65933 0
M  V30 18 H 2.08 4.83886 2.90714 0
M  V30 19 N 1.4781 -0.272755 1.55222 0
M  V30 20 C 2.3881 -1.35918 1.91216 0
M  V30 21 C 3.4041 -1.54026 0.809436 0
M  V30 22 O 4.5801 -1.68148 1.10852 0
M  V30 23 C 1.6451 -2.69834 2.17693 0
M  V30 24 C 0.7061 -2.6047 3.41253 0
M  V30 25 C -0.0609 -3.88 3.66458 0
M  V30 26 O 0.1621 -4.88693 2.94169 0
M  V30 27 O -0.9039 -3.88189 4.59992 0
M  V30 28 H 2.9221 -1.0839 2.83699 0
M  V30 29 H 0.5071 -0.471301 1.41771 0
M  V30 30 H 2.3891 -3.49017 2.36147 0
M  V30 31 H 1.0641 -2.97148 1.28392 0
M  V30 32 H -0.0289 -1.79663 3.28134 0
M  V30 33 H 1.3041 -2.38106 4.30774 0
M  V30 34 N 2.9562 -1.48159 -0.537278 0
M  V30 35 C 4.3672 -1.49429 -1.11928 0
M  V30 36 C 4.7182 -0.26 -1.9447 0
M  V30 37 O 3.8432 0.633489 -2.0692 0
M  V30 38 C 4.4382 -2.70758 -2.03656 0
M  V30 39 C 2.9972 -2.74923 -2.57088 0
M  V30 40 C 2.1442 -2.42835 -1.3389 0
M  V30 41 H 5.0952 -1.55381 -0.322886 0
M  V30 42 H 5.1162 -2.48861 -2.87834 0
M  V30 43 H 4.6282 -3.60575 -1.43553 0
M  V30 44 H 2.7292 -1.89296 -3.20933 0
M  V30 45 H 2.8422 -3.76157 -2.9672 0
M  V30 46 H 1.2062 -1.93836 -1.65226 0
M  V30 47 H 1.9892 -3.34884 -0.755504 0
M  V30 48 N 4.4343 0.785586 -1.36625 0
M  V30 49 C 5.3643 1.91259 -1.33949 0
M  V30 50 C 6.3453 1.68795 -0.210325 0
M  V30 51 O 7.5303 1.89854 -0.408561 0
M  V30 52 C 4.6603 3.28339 -1.13186 0
M  V30 53 C 3.6143 3.65335 -2.22967 0
M  V30 54 C 2.9403 5.00806 -1.87342 0
M  V30 55 C 4.2403 3.7352 -3.65075 0
M  V30 56 H 5.9343 1.93755 -2.28253 0
M  V30 57 H 3.4803 0.930788 -1.09874 0
M  V30 58 H 5.4333 4.06804 -1.09948 0
M  V30 59 H 4.1573 3.2624 -0.153332 0
M  V30 60 H 2.8163 2.89169 -2.25337 0
M  V30 61 H 2.4643 4.95233 -0.880545 0
M  V30 62 H 2.1643 5.26529 -2.60846 0
M  V30 63 H 3.6883 5.81687 -1.85667 0
M  V30 64 H 5.1023 4.42168 -3.64911 0
M  V30 65 H 3.4993 4.10731 -4.37516 0
M  V30 66 H 4.5693 2.74527 -3.99703 0
M  V30 67 N 5.9124 1.20967 1.01018 0
M  V30 68 C 7.1584 1.02526 1.74975 0
M  V30 69 C 7.4914 -0.4408 1.89131 0
M  V30 70 O 6.7664 -1.32718 1.42184 0
M  V30 71 C 7.0494 1.71699 3.1653 0
M  V30 72 C 6.9024 3.25791 3.10129 0
M  V30 73 C 8.2214 1.45531 4.15342 0
M  V30 74 H 5.3404 0.373863 0.635134 0
M  V30 75 H 7.9824 1.49071 1.17805 0
M  V30 76 H 6.1324 1.32128 3.65341 0
M  V30 77 H 7.8044 3.74697 2.69072 0
M  V30 78 H 6.0474 3.56363 2.47362 0
M  V30 79 H 6.7184 3.69353 4.10222 0
M  V30 80 H 9.1944 1.79872 3.75213 0
M  V30 81 H 8.0704 1.96453 5.1254 0
M  V30 82 H 8.3314 0.384237 4.40427 0
M  V30 83 N 7.3905 -1.2043 1.01659 0
M  V30 84 C 8.6185 -1.93777 0.725132 0
M  V30 85 C 9.0335 -1.74772 -0.714166 0
M  V30 86 O 8.3905 -1.06169 -1.4844 0
M  V30 87 C 8.4415 -3.45876 1.05129 0
M  V30 88 O 8.1625 -3.6426 2.43406 0
M  V30 89 C 9.6635 -4.36368 0.780891 0
M  V30 90 H 6.8835 -0.615901 0.266284 0
M  V30 91 H 9.4275 -1.52922 1.35776 0
M  V30 92 H 7.5825 -3.8461 0.464065 0
M  V30 93 H 7.9965 -4.58246 2.55169 0
M  V30 94 H 9.4705 -5.41743 1.05918 0
M  V30 95 H 9.9475 -4.38275 -0.284937 0
M  V30 96 H 10.5535 -4.03296 1.35027 0
M  V30 97 N 8.8686 -0.792821 -1.36206 0
M  V30 98 C 10.1146 -0.376415 -1.99887 0
M  V30 99 C 10.4696 1.04127 -1.61788 0
M  V30 100 O 9.7626 1.71004 -0.864193 0
M  V30 101 C 9.9566 -0.481501 -3.54142 0
M  V30 102 C 9.7856 -1.90786 -4.07223 0
M  V30 103 C 8.5556 -2.53322 -4.37214 0
M  V30 104 C 10.7536 -2.87048 -4.26741 0
M  V30 105 N 8.7356 -3.8751 -4.7614 0
M  V30 106 C 10.1066 -4.06077 -4.6851 0
M  V30 107 C 12.1616 -2.8406 -4.08918 0
M  V30 108 C 10.8646 -5.22532 -4.94321 0
M  V30 109 C 12.8906 -3.99705 -4.35878 0
M  V30 110 C 12.2526 -5.1748 -4.77906 0
M  V30 111 H 8.3516 -0.185226 -0.759747 0
M  V30 112 H 10.9356 -1.03114 -1.65153 0
M  V30 113 H 9.1066 0.143154 -3.88136 0
M  V30 114 H 10.8386 -0.0410128 -4.04679 0
M  V30 115 H 7.5936 -2.04777 -4.2704 0
M  V30 116 H 8.0176 -4.5656 -4.99882 0
M  V30 117 H 12.6596 -1.94165 -3.75579 0
M  V30 118 H 10.3776 -6.1301 -5.2654 0
M  V30 119 H 13.9636 -3.98758 -4.23655 0
M  V30 120 H 12.8436 -6.05478 -4.98363 0
M  V30 121 N 10.3467 1.47872 -0.545128 0
M  V30 122 C 11.5927 2.02793 -0.0166104 0
M  V30 123 C 11.9257 1.41987 1.32489 0
M  V30 124 O 11.2007 0.571045 1.85928 0
M  V30 125 C 11.4837 3.59989 0.0893294 0
M  V30 126 C 11.3367 4.3125 -1.27841 0
M  V30 127 C 12.6557 4.32606 0.808724 0
M  V30 128 H 9.7747 0.736962 -0.00751035 0
M  V30 129 H 12.4167 1.76433 -0.705085 0
M  V30 130 H 10.5667 3.82579 0.675681 0
M  V30 131 H 12.2387 4.20035 -1.90704 0
M  V30 132 H 10.4817 3.92076 -1.85632 0
M  V30 133 H 11.1527 5.39736 -1.15713 0
M  V30 134 H 13.6287 4.14936 0.310992 0
M  V30 135 H 12.5047 5.42251 0.851782 0
M  V30 136 H 12.7657 4.00963 1.86229 0
M  V30 137 N 11.8248 0.280983 1.55075 0
M  V30 138 C 13.0708 -0.33461 2.00021 0
M  V30 139 C 13.4038 -1.55063 1.16915 0
M  V30 140 O 12.6788 -1.93006 0.240646 0
M  V30 141 C 12.9618 -0.711007 3.53011 0
M  V30 142 C 12.8148 0.512766 4.46868 0
M  V30 143 C 14.1338 -1.54522 4.12081 0
M  V30 144 H 11.2528 -0.120147 0.727141 0
M  V30 145 H 13.8948 0.389097 1.85973 0
M  V30 146 H 12.0448 -1.32761 3.65112 0
M  V30 147 H 13.7168 1.15131 4.46702 0
M  V30 148 H 11.9598 1.14975 4.18286 0
M  V30 149 H 12.6308 0.205556 5.51617 0
M  V30 150 H 15.1068 -1.02442 4.03293 0
M  V30 151 H 13.9828 -1.77739 5.19327 0
M  V30 152 H 14.2438 -2.52813 3.62682 0
M  V30 153 N 13.3029 -1.57598 0.00835791 0
M  V30 154 C 14.7139 -1.7892 -0.53333 0
M  V30 155 C 15.0649 -0.916609 -1.73473 0
M  V30 156 O 14.1899 -0.121336 -2.1606 0
M  V30 157 C 14.7849 -3.24488 -0.974313 0
M  V30 158 C 13.3439 -3.46878 -1.46125 0
M  V30 159 C 12.4909 -2.74157 -0.416302 0
M  V30 160 H 15.4419 -1.56958 0.234495 0
M  V30 161 H 15.4629 -3.3306 -1.83988 0
M  V30 162 H 14.9749 -3.87972 -0.099718 0
M  V30 163 H 13.0759 -2.8862 -2.35646 0
M  V30 164 H 13.1889 -4.55572 -1.48295 0
M  V30 165 H 11.5529 -2.39022 -0.87981 0
M  V30 166 H 12.3359 -3.40345 0.44947 0
M  V30 167 N 14.781 0.264519 -1.55364 0
M  V30 168 C 15.711 1.33121 -1.91836 0
M  V30 169 C 16.692 1.51101 -0.781192 0
M  V30 170 O 17.877 1.64003 -1.04003 0
M  V30 171 C 15.007 2.68921 -2.19769 0
M  V30 172 C 13.961 2.65661 -3.35571 0
M  V30 173 C 13.287 4.05093 -3.49004 0
M  V30 174 C 14.587 2.24187 -4.71739 0
M  V30 175 H 16.281 1.02844 -2.81182 0
M  V30 176 H 13.827 0.493286 -1.35287 0
M  V30 177 H 15.78 3.43663 -2.43872 0
M  V30 178 H 14.504 3.00799 -1.27231 0
M  V30 179 H 13.163 1.93377 -3.1145 0
M  V30 180 H 12.811 4.34206 -2.53917 0
M  V30 181 H 12.511 4.03804 -4.26868 0
M  V30 182 H 14.035 4.81561 -3.75408 0
M  V30 183 H 15.449 2.88654 -4.9533 0
M  V30 184 H 13.846 2.34044 -5.52579 0
M  V30 185 H 14.916 1.19327 -4.69988 0
M  V30 186 N 16.2591 1.48442 0.529413 0
M  V30 187 C 17.1891 1.65902 1.64313 0
M  V30 188 C 18.1701 0.507897 1.6234 0
M  V30 189 O 19.3551 0.740503 1.79528 0
M  V30 190 C 16.4851 1.69911 3.02898 0
M  V30 191 C 15.4391 2.8453 3.19729 0
M  V30 192 C 14.7651 2.73629 4.59381 0
M  V30 193 C 16.0651 4.25821 3.02447 0
M  V30 194 H 17.7591 2.5914 1.49955 0
M  V30 195 H 15.3051 1.24709 0.719982 0
M  V30 196 H 17.2581 1.80715 3.80684 0
M  V30 197 H 15.9821 0.732524 3.18279 0
M  V30 198 H 14.6411 2.73283 2.44361 0
M  V30 199 H 14.2891 1.74938 4.71599 0
M  V30 200 H 13.9891 3.50541 4.71588 0
M  V30 201 H 15.5131 2.86401 5.39265 0
M  V30 202 H 16.9271 4.37898 3.70024 0
M  V30 203 H 15.3241 5.03735 3.26146 0
M  V30 204 H 16.3941 4.42244 1.98867 0
M  V30 205 N 17.7372 -0.778329 1.37039 0
M  V30 206 C 18.9842 -1.53665 1.31884 0
M  V30 207 C 19.3122 -1.9425 -0.0986303 0
M  V30 208 O 18.5672 -1.63832 -1.07041 0
M  V30 209 C 18.8662 -2.81845 2.19768 0
M  V30 210 C 18.5322 -2.60345 3.68146 0
M  V30 211 C 17.1942 -2.5419 4.08584 0
M  V30 212 C 19.5462 -2.40923 4.62175 0
M  V30 213 C 16.8742 -2.26594 5.41177 0
M  V30 214 C 19.2262 -2.14852 5.94997 0
M  V30 215 C 17.8902 -2.07137 6.34547 0
M  V30 216 H 17.1602 -0.562299 0.482598 0
M  V30 217 H 19.8072 -0.897069 1.69189 0
M  V30 218 H 18.1122 -3.50328 1.75436 0
M  V30 219 H 19.8092 -3.39692 2.13097 0
M  V30 220 H 16.3992 -2.65996 3.36072 0
M  V30 221 H 20.5832 -2.44673 4.31797 0
M  V30 222 H 15.8392 -2.19111 5.70789 0
M  V30 223 H 20.0132 -1.98822 6.67415 0
M  V30 224 H 17.6402 -1.85518 7.37216 0
M  V30 225 N 19.2153 -1.21501 -1.00376 0
M  V30 226 C 20.1453 -0.999478 -2.11028 0
M  V30 227 C 21.1263 0.0759671 -1.6993 0
M  V30 228 O 22.3113 -0.0841106 -1.94018 0
M  V30 229 C 19.4413 -0.564709 -3.42678 0
M  V30 230 C 18.3953 -1.58486 -3.97576 0
M  V30 231 C 17.7213 -1.00628 -5.25146 0
M  V30 232 C 19.0213 -2.97204 -4.29496 0
M  V30 233 H 20.7153 -1.92495 -2.29317 0
M  V30 234 H 18.2613 -0.92693 -1.102 0
M  V30 235 H 20.2143 -0.401091 -4.19487 0
M  V30 236 H 18.9383 0.396411 -3.24185 0
M  V30 237 H 17.5973 -1.73606 -3.22888 0
M  V30 238 H 17.2453 -0.0368439 -5.02987 0
M  V30 239 H 16.9453 -1.68771 -5.62841 0
M  V30 240 H 18.4693 -0.854015 -6.04598 0
M  V30 241 H 19.8833 -2.8552 -4.97143 0
M  V30 242 H 18.2803 -3.62372 -4.78338 0
M  V30 243 H 19.3503 -3.47956 -3.3772 0
M  V30 244 N 20.6934 1.19889 -1.02296 0
M  V30 245 C 21.9404 1.8942 -0.715972 0
M  V30 246 C 22.2684 1.79251 0.754944 0
M  V30 247 O 21.5234 1.17526 1.56481 0
M  V30 248 C 21.8224 3.39883 -1.10518 0
M  V30 249 C 21.4884 3.70254 -2.57337 0
M  V30 250 C 20.1504 3.78254 -2.97452 0
M  V30 251 C 22.5024 3.84052 -3.52354 0
M  V30 252 C 19.8304 3.97514 -4.31509 0
M  V30 253 C 22.1824 4.04824 -4.86108 0
M  V30 254 C 20.8464 4.11054 -5.25919 0
M  V30 255 H 20.1164 0.693138 -0.261993 0
M  V30 256 H 22.7634 1.42012 -1.28472 0
M  V30 257 H 21.0684 3.8915 -0.454953 0
M  V30 258 H 22.7654 3.9199 -0.845261 0
M  V30 259 H 19.3554 3.64632 -2.25258 0
M  V30 260 H 23.5394 3.77221 -3.22518 0
M  V30 261 H 18.7954 4.00574 -4.61898 0
M  V30 262 H 22.9694 4.14442 -5.59653 0
M  V30 263 H 20.5964 4.2573 -6.29808 0
M  V30 264 N 22.1715 0.800033 1.35784 0
M  V30 265 C 23.1015 0.220184 2.3246 0
M  V30 266 C 24.0825 -0.65073 1.57161 0
M  V30 267 O 25.2675 -0.582359 1.85263 0
M  V30 268 C 22.3975 -0.637353 3.41402 0
M  V30 269 C 21.3515 0.134531 4.27789 0
M  V30 270 C 20.6775 -0.844285 5.27992 0
M  V30 271 C 21.9775 1.32979 5.05088 0
M  V30 272 H 23.6715 1.02787 2.81203 0
M  V30 273 H 21.2175 0.495717 1.35199 0
M  V30 274 H 23.1705 -1.05302 4.08031 0
M  V30 275 H 21.8945 -1.47785 2.91251 0
M  V30 276 H 20.5535 0.531296 3.6273 0
M  V30 277 H 20.2015 -1.68011 4.74111 0
M  V30 278 H 19.9015 -0.332184 5.8666 0
M  V30 279 H 21.4255 -1.2583 5.97494 0
M  V30 280 H 22.8395 0.98934 5.64699 0
M  V30 281 H 21.2365 1.77593 5.7322 0
M  V30 282 H 22.3065 2.11978 4.36111 0
M  V30 283 N 23.6496 -1.47581 0.552962 0
M  V30 284 C 24.5796 -2.32762 -0.185451 0
M  V30 285 C 25.5606 -1.43527 -0.912905 0
M  V30 286 O 26.7456 -1.72388 -0.894201 0
M  V30 287 C 23.8756 -3.25219 -1.21859 0
M  V30 288 C 22.8296 -4.23661 -0.607864 0
M  V30 289 C 22.1556 -5.05413 -1.74533 0
M  V30 290 C 23.4556 -5.20481 0.435582 0
M  V30 291 H 25.1496 -2.94749 0.525684 0
M  V30 292 H 22.6956 -1.41738 0.254251 0
M  V30 293 H 24.6486 -3.8365 -1.7433 0
M  V30 294 H 23.3726 -2.61279 -1.95961 0
M  V30 295 H 22.0316 -3.66451 -0.104489 0
M  V30 296 H 21.6796 -4.3788 -2.47529 0
M  V30 297 H 21.3796 -5.72059 -1.34249 0
M  V30 298 H 22.9036 -5.66701 -2.27338 0
M  V30 299 H 24.3176 -5.733 -0.00290157 0
M  V30 300 H 22.7146 -5.95305 0.757067 0
M  V30 301 H 23.7846 -4.66217 1.33303 0
M  V30 302 N 25.1277 -0.289203 -1.54924 0
M  V30 303 C 26.3527 0.329299 -2.04769 0
M  V30 304 C 26.7777 1.4763 -1.16564 0
M  V30 305 O 26.1357 1.80527 -0.167186 0
M  V30 306 C 26.1837 0.774438 -3.52186 0
M  V30 307 O 25.2877 1.88038 -3.67036 0
M  V30 308 H 24.6287 0.0659259 -0.660719 0
M  V30 309 H 27.1587 -0.42761 -2.00082 0
M  V30 310 H 27.1687 1.06642 -3.93816 0
M  V30 311 H 25.8437 -0.0646707 -4.1585 0
M  V30 312 H 24.4207 1.58985 -3.3731 0
M  V30 313 N 26.6058 1.57591 -0.0167156 0
M  V30 314 C 28.0218 1.55946 0.339557 0
M  V30 315 C 28.2218 1.02109 1.73713 0
M  V30 316 O 27.2778 0.662303 2.43659 0
M  V30 317 C 28.5908 3.00037 0.199499 0
M  V30 318 C 30.1388 3.11805 0.273193 0
M  V30 319 C 30.6138 4.57713 0.162068 0
M  V30 320 N 32.1048 4.6268 0.219444 0
M  V30 321 C 32.8398 5.73185 0.157054 0
M  V30 322 N 32.3358 6.92786 0.0442936 0
M  V30 323 N 34.1288 5.61707 0.21014 0
M  V30 324 H 26.2798 1.90921 -0.930758 0
M  V30 325 H 28.5428 0.877674 -0.358319 0
M  V30 326 H 28.2488 3.4333 -0.76273 0
M  V30 327 H 28.1228 3.64387 0.974786 0
M  V30 328 H 30.5098 2.68433 1.22587 0
M  V30 329 H 30.5908 2.50201 -0.532256 0
M  V30 330 H 30.2348 5.01763 -0.78714 0
M  V30 331 H 30.1648 5.17283 0.986222 0
M  V30 332 H 32.6558 3.76649 0.307246 0
M  V30 333 H 32.9688 7.728 0.00304069 0
M  V30 334 H 31.3138 6.94999 0.00968457 0
M  V30 335 H 34.5048 4.6716 0.296546 0
M  V30 336 H 34.6778 6.47807 0.158054 0
M  V30 337 N 28.0839 -0.256276 1.55502 0
M  V30 338 C 29.0159 -1.33981 1.85962 0
M  V30 339 C 30.0289 -1.44743 0.745212 0
M  V30 340 O 31.2179 -1.4626 1.02324 0
M  V30 341 C 28.3179 -2.7194 2.02242 0
M  V30 342 C 27.4909 -2.83562 3.33033 0
M  V30 343 C 26.5499 -4.02304 3.39172 0
M  V30 344 O 25.5759 -3.92273 4.12444 0
M  V30 345 N 26.7779 -5.15045 2.67784 0
M  V30 346 H 29.5429 -1.08191 2.7949 0
M  V30 347 H 27.1039 -0.446388 1.55624 0
M  V30 348 H 29.0959 -3.49697 2.03701 0
M  V30 349 H 27.6659 -2.90479 1.15502 0
M  V30 350 H 26.8859 -1.92555 3.43971 0
M  V30 351 H 28.1739 -2.88271 4.19258 0
M  V30 352 H 27.5719 -5.26085 2.07968 0
M  V30 353 H 26.1289 -5.90972 2.74947 0
M  V30 354 N 29.562 -1.4872 -0.521534 0
M  V30 355 C 30.81 -1.56857 -1.27437 0
M  V30 356 C 31.131 -0.247982 -1.93417 0
M  V30 357 O 30.401 0.731151 -1.81744 0
M  V30 358 H 28.981 -0.577885 -0.473347 0
M  V30 359 H 31.643 -1.85233 -0.606205 0
M  V30 360 H 30.739 -2.35402 -2.0492 0
M  V30 361 N 31.0401 0.771051 -1.3745 0
M  V30 362 C 32.0031 1.86598 -1.33093 0
M  V30 363 C 33.0031 1.59076 -0.234845 0
M  V30 364 O 34.1931 1.67145 -0.490732 0
M  V30 365 C 31.3251 3.23747 -1.06773 0
M  V30 366 H 32.5181 1.91873 -2.30488 0
M  V30 367 H 30.0711 0.970876 -1.2249 0
M  V30 368 H 30.8061 3.24148 -0.099129 0
M  V30 369 H 30.5911 3.45115 -1.86112 0
M  V30 370 H 32.0811 4.03824 -1.06377 0
M  V30 371 N 32.5182 1.22032 0.997298 0
M  V30 372 C 33.4812 0.987909 2.06816 0
M  V30 373 C 34.4812 -0.0440084 1.6074 0
M  V30 374 O 35.6712 0.194053 1.73116 0
M  V30 375 C 32.8032 0.49132 3.37341 0
M  V30 376 H 33.9962 1.93803 2.28868 0
M  V30 377 H 31.5492 1.03838 1.16822 0
M  V30 378 H 32.2842 -0.463364 3.20973 0
M  V30 379 H 32.0692 1.23575 3.72118 0
M  V30 380 H 33.5592 0.348824 4.16141 0
M  V30 381 N 33.9963 -1.19345 1.0293 0
M  V30 382 C 35.2363 -1.90738 0.734727 0
M  V30 383 C 35.6003 -1.7785 -0.723414 0
M  V30 384 O 36.8013 -2.43844 -1.13108 0
M  V30 385 C 35.0723 -3.37569 1.17396 0
M  V30 386 S 36.6313 -4.27176 1.00329 0
M  V30 387 H 33.4493 -0.658771 0.267474 0
M  V30 388 H 36.0513 -1.4428 1.31922 0
M  V30 389 H 34.7553 -3.44475 2.23081 0
M  V30 390 H 34.2863 -3.8906 0.582772 0
M  V30 391 H 36.3013 -4.96126 -0.0859152 0
M  V30 392 N 35.4744 -0.807222 -1.35358 0
M  V30 393 C 36.8904 -0.491038 -1.51858 0
M  V30 394 C 37.0904 0.987648 -1.75635 0
M  V30 395 O 36.1464 1.77265 -1.79815 0
M  V30 396 C 37.4594 -1.33695 -2.69344 0
M  V30 397 C 39.0074 -1.33246 -2.83222 0
M  V30 398 C 39.4824 -2.1625 -4.03733 0
M  V30 399 N 40.9734 -2.1379 -4.10911 0
M  V30 400 C 41.7084 -2.74772 -5.03277 0
M  V30 401 N 41.2044 -3.44684 -6.0097 0
M  V30 402 N 42.9974 -2.6441 -4.96028 0
M  V30 403 H 35.1484 -1.76485 -1.18181 0
M  V30 404 H 37.4114 -0.751199 -0.578276 0
M  V30 405 H 37.1174 -2.38634 -2.58354 0
M  V30 406 H 36.9914 -0.990618 -3.6396 0
M  V30 407 H 39.3784 -0.290911 -2.93663 0
M  V30 408 H 39.4594 -1.71866 -1.89461 0
M  V30 409 H 39.1034 -3.20445 -3.94052 0
M  V30 410 H 39.0334 -1.74989 -4.96675 0
M  V30 411 H 41.5244 -1.62923 -3.40976 0
M  V30 412 H 41.8374 -3.88501 -6.68047 0
M  V30 413 H 40.1824 -3.48788 -6.01142 0
M  V30 414 H 43.3734 -2.0938 -4.18662 0
M  V30 415 H 43.5464 -3.12225 -5.6782 0
M  V30 416 N 36.9525 1.47285 -0.560781 0
M  V30 417 C 38.1805 2.06855 -0.0430262 0
M  V30 418 C 38.5955 1.41291 1.25229 0
M  V30 419 O 37.9525 0.510648 1.7521 0
M  V30 420 C 38.0035 3.61178 0.152518 0
M  V30 421 O 37.7245 4.24285 -1.0915 0
M  V30 422 C 39.2255 4.37624 0.707145 0
M  V30 423 H 36.4455 0.669319 -0.0474652 0
M  V30 424 H 38.9895 1.89237 -0.77521 0
M  V30 425 H 37.1445 3.78298 0.834843 0
M  V30 426 H 37.5585 5.16868 -0.891482 0
M  V30 427 H 39.0325 5.46271 0.793244 0
M  V30 428 H 39.5095 4.04152 1.71923 0
M  V30 429 H 40.1155 4.25257 0.0604027 0
M  V30 430 N 38.4306 0.297415 1.54768 0
M  V30 431 C 39.6556 -0.318435 2.04941 0
M  V30 432 C 40.0806 -1.4701 1.17345 0
M  V30 433 O 39.4386 -1.80436 0.176758 0
M  V30 434 C 39.4866 -0.755749 3.52592 0
M  V30 435 O 38.5906 -1.86088 3.68028 0
M  V30 436 H 37.9316 -0.062421 0.661059 0
M  V30 437 H 40.4616 0.438215 1.99852 0
M  V30 438 H 40.4716 -1.04552 3.94376 0
M  V30 439 H 39.1466 0.0867233 4.1581 0
M  V30 440 H 37.7236 -1.57193 3.38149 0
M  V30 441 N 39.9087 -1.5758 0.0250728 0
M  V30 442 C 40.8187 -2.1343 -0.973905 0
M  V30 443 C 41.8347 -1.08556 -1.35984 0
M  V30 444 O 43.0107 -1.40592 -1.44207 0
M  V30 445 C 40.0757 -2.64703 -2.23904 0
M  V30 446 C 39.1367 -3.84276 -1.91391 0
M  V30 447 C 38.3697 -4.33095 -3.11873 0
M  V30 448 O 38.5927 -3.81107 -4.24398 0
M  V30 449 O 37.5267 -5.24984 -2.94406 0
M  V30 450 H 41.3527 -2.99057 -0.529036 0
M  V30 451 H 38.9377 -1.48118 -0.195288 0
M  V30 452 H 40.8197 -2.97769 -2.98181 0
M  V30 453 H 39.4947 -1.82161 -2.6758 0
M  V30 454 H 38.4017 -3.56143 -1.14511 0
M  V30 455 H 39.7347 -4.67968 -1.52534 0
M  V30 456 N 41.3868 0.248026 -1.55636 0
M  V30 457 C 42.6268 0.983592 -1.79178 0
M  V30 458 C 42.9908 1.82567 -0.594414 0
M  V30 459 O 44.1918 2.59292 -0.708583 0
M  V30 460 C 42.4628 1.82228 -3.07454 0
M  V30 461 S 44.0218 2.61709 -3.52213 0
M  V30 462 H 40.8398 0.330866 -0.629324 0
M  V30 463 H 43.4418 0.251562 -1.93875 0
M  V30 464 H 42.1458 1.19333 -3.92668 0
M  V30 465 H 41.6768 2.59708 -2.95492 0
M  V30 466 H 43.6918 3.84655 -3.13457 0
M  V30 467 N 42.8649 1.48995 0.513639 0
M  V30 468 C 44.1049 1.59452 1.27885 0
M  V30 469 C 44.4689 0.269479 1.90099 0
M  V30 470 O 45.6699 0.249139 2.67643 0
M  V30 471 C 43.9409 2.71277 2.32688 0
M  V30 472 S 45.4999 3.01604 3.18717 0
M  V30 473 H 42.3179 0.562565 0.434789 0
M  V30 474 H 44.9199 1.86595 0.583301 0
M  V30 475 H 43.6239 3.66089 1.8549 0
M  V30 476 H 43.1549 2.46086 3.06929 0
M  V30 477 H 45.1699 2.42155 4.331 0
M  V30 478 N 44.343 -0.763751 1.37857 0
M  V30 479 C 45.59 -1.52257 1.33506 0
M  V30 480 C 45.918 -1.94343 -0.078022 0
M  V30 481 O 45.173 -1.64958 -1.05297 0
M  V30 482 C 45.472 -2.79499 2.22745 0
M  V30 483 C 45.138 -2.56426 3.70886 0
M  V30 484 C 43.8 -2.49842 4.11257 0
M  V30 485 C 46.152 -2.36008 4.64704 0
M  V30 486 C 43.48 -2.20841 5.43549 0
M  V30 487 C 45.832 -2.0853 5.97242 0
M  V30 488 C 44.496 -2.00396 6.36709 0
M  V30 489 H 43.766 -0.557149 0.488534 0
M  V30 490 H 46.413 -0.879073 1.70131 0
M  V30 491 H 44.718 -3.48447 1.79142 0
M  V30 492 H 46.415 -3.37413 2.16688 0
M  V30 493 H 43.005 -2.62416 3.38874 0
M  V30 494 H 47.189 -2.40079 4.34368 0
M  V30 495 H 42.445 -2.13045 5.73081 0
M  V30 496 H 46.619 -1.91732 6.69486 0
M  V30 497 H 44.246 -1.77688 7.39142 0
M  V30 498 N 45.8211 -1.22559 -0.990812 0
M  V30 499 C 46.7531 -0.955325 -2.08342 0
M  V30 500 C 47.7661 0.0668408 -1.62663 0
M  V30 501 O 48.9551 -0.167421 -1.77713 0
M  V30 502 C 46.0551 -0.415566 -3.36342 0
M  V30 503 C 45.2281 -1.49544 -4.11042 0
M  V30 504 C 44.2871 -0.962399 -5.17324 0
M  V30 505 O 43.3131 -1.64907 -5.44788 0
M  V30 506 N 44.5151 0.215134 -5.80101 0
M  V30 507 H 47.2801 -1.89596 -2.32106 0
M  V30 508 H 44.8411 -1.13276 -1.15673 0
M  V30 509 H 46.8331 -0.0442386 -4.04676 0
M  V30 510 H 45.4031 0.430232 -3.09625 0
M  V30 511 H 44.6231 -2.04 -3.37309 0
M  V30 512 H 45.9111 -2.22195 -4.57719 0
M  V30 513 H 45.3091 0.789779 -5.6016 0
M  V30 514 H 43.8661 0.527826 -6.49659 0
M  V30 515 N 47.2992 1.18797 -1.03562 0
M  V30 516 C 48.5762 1.84469 -0.650434 0
M  V30 517 C 48.9562 1.92319 0.870433 0
M  V30 518 O 48.3042 1.44528 1.76986 0
M  V30 519 C 48.5142 3.2306 -1.32036 0
M  V30 520 C 49.8622 3.9915 -1.44792 0
M  V30 521 O 50.8862 3.32481 -1.27806 0
M  V30 522 O 49.7452 5.18587 -1.72423 0
M  V30 523 H 46.8392 0.795251 -0.226946 0
M  V30 524 H 49.3852 1.26231 -1.13419 0
M  V30 525 H 48.1572 3.1222 -2.3587 0
M  V30 526 H 47.7802 3.88949 -0.8249 0
M  V30 527 N 48.7773 0.814389 1.34928 0
M  V30 528 C 50.1883 0.458364 1.80986 0
M  V30 529 C 50.5393 -1.02042 1.67577 0
M  V30 530 O 49.6643 -1.79352 1.21086 0
M  V30 531 C 50.2593 0.825212 3.28597 0
M  V30 532 C 48.8183 0.521677 3.72767 0
M  V30 533 C 47.9653 1.04668 2.56788 0
M  V30 534 H 50.9163 1.00533 1.22795 0
M  V30 535 H 50.9373 0.12571 3.80292 0
M  V30 536 H 50.4493 1.90154 3.38324 0
M  V30 537 H 48.5503 -0.545589 3.68584 0
M  V30 538 H 48.6633 1.05977 4.67232 0
M  V30 539 H 47.0273 0.468622 2.50352 0
M  V30 540 H 47.8103 2.12927 2.6929 0
M  V30 541 N 50.2554 -1.46986 0.568584 0
M  V30 542 C 51.6664 -1.86188 0.138219 0
M  V30 543 C 52.0174 -1.47388 -1.29504 0
M  V30 544 O 51.1424 -0.88219 -1.97602 0
M  V30 545 C 51.7374 -3.3792 0.244065 0
M  V30 546 C 50.2964 -3.76171 -0.131335 0
M  V30 547 C 49.4434 -2.71027 0.586465 0
M  V30 548 H 52.3944 -1.38342 0.777645 0
M  V30 549 H 52.4154 -3.76729 -0.534351 0
M  V30 550 H 51.9274 -3.66128 1.28731 0
M  V30 551 H 50.0284 -3.5358 -1.17526 0
M  V30 552 H 50.1414 -4.78523 0.235146 0
M  V30 553 H 48.5054 -2.54684 0.0282722 0
M  V30 554 H 49.2884 -3.02077 1.63109 0
M  V30 555 N 51.7335 -0.305618 -1.54608 0
M  V30 556 C 52.9635 0.304333 -2.04346 0
M  V30 557 C 53.3715 1.47715 -1.18224 0
M  V30 558 O 52.7145 1.82591 -0.201577 0
M  V30 559 C 52.7765 0.819031 -3.50046 0
M  V30 560 C 52.4405 -0.22912 -4.56425 0
M  V30 561 C 53.4375 -1.05914 -5.08997 0
M  V30 562 C 51.1225 -0.372148 -5.0092 0
M  V30 563 C 53.1165 -2.01809 -6.04609 0
M  V30 564 C 50.8035 -1.33454 -5.9635 0
M  V30 565 C 51.8015 -2.15599 -6.48079 0
M  V30 566 O 51.4895 -3.10205 -7.41639 0
M  V30 567 H 51.2215 0.0693996 -0.672428 0
M  V30 568 H 53.7755 -0.444548 -2.00532 0
M  V30 569 H 52.0055 1.61852 -3.51199 0
M  V30 570 H 53.6945 1.34537 -3.82955 0
M  V30 571 H 54.4605 -0.959538 -4.75413 0
M  V30 572 H 50.3395 0.257304 -4.60281 0
M  V30 573 H 53.8835 -2.65966 -6.44909 0
M  V30 574 H 49.7805 -1.43485 -6.29351 0
M  V30 575 H 50.5485 -3.05237 -7.59455 0
M  V30 576 N 53.2116 1.57565 -0.0334293 0
M  V30 577 C 54.6226 1.79746 0.504798 0
M  V30 578 C 54.9736 0.944091 1.71992 0
M  V30 579 O 54.0986 0.155694 2.15839 0
M  V30 580 C 54.6936 3.25997 0.922567 0
M  V30 581 C 53.2526 3.49159 1.40588 0
M  V30 582 C 52.3996 2.74785 0.372633 0
M  V30 583 H 55.3506 1.56565 -0.259436 0
M  V30 584 H 55.3716 3.35945 1.78666 0
M  V30 585 H 54.8836 3.88081 0.0379825 0
M  V30 586 H 52.9846 2.92332 2.31025 0
M  V30 587 H 53.0976 4.57873 1.41028 0
M  V30 588 H 51.4616 2.40391 0.841672 0
M  V30 589 H 52.2446 3.39587 -0.503559 0
M  V30 590 N 54.6897 -0.239769 1.55765 0
M  V30 591 C 55.9667 -0.990056 1.68693 0
M  V30 592 C 56.3467 -2.03107 0.5754 0
M  V30 593 O 55.6947 -2.24604 -0.42017 0
M  V30 594 C 55.9047 -1.61696 3.09282 0
M  V30 595 C 57.2527 -2.11613 3.6811 0
M  V30 596 O 58.2767 -1.71624 3.12127 0
M  V30 597 O 57.1357 -2.85057 4.66267 0
M  V30 598 H 54.2297 -0.461299 0.686391 0
M  V30 599 H 56.7757 -0.232991 1.68093 0
M  V30 600 H 55.5477 -0.864357 3.81634 0
M  V30 601 H 55.1707 -2.44005 3.13923 0
M  V30 602 N 56.1678 -1.49265 -0.50573 0
M  V30 603 C 57.1308 -1.65075 -1.59006 0
M  V30 604 C 58.1308 -0.522768 -1.52065 0
M  V30 605 O 59.3208 -0.789117 -1.55302 0
M  V30 606 C 56.4528 -1.64369 -2.98656 0
M  V30 607 H 57.6458 -2.61784 -1.46319 0
M  V30 608 H 55.1988 -1.38226 -0.729616 0
M  V30 609 H 55.9338 -0.692272 -3.16825 0
M  V30 610 H 55.7188 -2.46282 -3.05103 0
M  V30 611 H 57.2088 -1.78674 -3.77446 0
M  V30 612 N 57.6459 0.756429 -1.3826 0
M  V30 613 C 58.9229 1.50584 -1.24835 0
M  V30 614 C 59.3029 2.10556 0.151485 0
M  V30 615 O 58.6509 1.96825 1.1607 0
M  V30 616 C 58.8609 2.57448 -2.3563 0
M  V30 617 C 60.2089 3.24429 -2.73917 0
M  V30 618 O 61.2329 2.67751 -2.34921 0
M  V30 619 O 60.0919 4.26937 -3.41156 0
M  V30 620 H 57.1859 0.667664 -0.48801 0
M  V30 621 H 59.7319 0.792083 -1.5008 0
M  V30 622 H 58.5039 2.11362 -3.29305 0
M  V30 623 H 58.1269 3.36408 -2.11933 0
M  V30 624 N 59.124 1.23083 0.984299 0
M  V30 625 C 60.349 1.088 1.76571 0
M  V30 626 C 60.774 -0.356657 1.84688 0
M  V30 627 O 60.132 -1.25788 1.30565 0
M  V30 628 C 60.18 1.71371 3.17277 0
M  V30 629 O 59.284 0.973213 4.00752 0
M  V30 630 H 58.625 0.381599 0.543395 0
M  V30 631 H 61.155 1.63057 1.23587 0
M  V30 632 H 61.165 1.76449 3.67872 0
M  V30 633 H 59.84 2.76493 3.10684 0
M  V30 634 H 58.417 0.999078 3.59267 0
M  V30 635 N 60.6021 -1.18246 1.0419 0
M  V30 636 C 61.8501 -1.87886 0.744543 0
M  V30 637 C 62.1711 -1.8082 -0.730006 0
M  V30 638 O 61.4411 -1.22736 -1.52685 0
M  V30 639 H 60.0211 -0.695556 0.272417 0
M  V30 640 H 62.6831 -1.43494 1.31892 0
M  V30 641 H 61.7791 -2.9389 1.05049 0
M  V30 642 N 62.0802 -0.821533 -1.34494 0
M  V30 643 C 63.3052 -0.420873 -2.03085 0
M  V30 644 C 63.7302 0.964915 -1.61465 0
M  V30 645 O 63.0882 1.62763 -0.798607 0
M  V30 646 C 63.1362 -0.529414 -3.56693 0
M  V30 647 O 62.2402 0.451302 -4.09923 0
M  V30 648 H 61.5812 -0.173489 -0.640935 0
M  V30 649 H 64.1112 -1.11157 -1.71771 0
M  V30 650 H 64.1212 -0.404671 -4.05988 0
M  V30 651 H 62.7962 -1.54014 -3.86332 0
M  V30 652 H 61.3732 0.285558 -3.71805 0
M  V30 653 N 63.5583 1.46682 -0.576371 0
M  V30 654 C 64.5213 2.28707 0.150239 0
M  V30 655 C 65.5213 1.38035 0.824794 0
M  V30 656 O 66.7113 1.60476 0.677719 0
M  V30 657 C 63.8433 3.18248 1.22192 0
M  V30 658 H 65.0363 2.94423 -0.570521 0
M  V30 659 H 62.5893 1.52688 -0.334078 0
M  V30 660 H 63.3243 2.57265 1.97447 0
M  V30 661 H 63.1093 3.85 0.742812 0
M  V30 662 H 64.5993 3.80001 1.73172 0
M  V30 663 N 65.0364 0.313813 1.54444 0
M  V30 664 C 66.2614 -0.296681 2.05267 0
M  V30 665 C 66.6864 -1.45757 1.18897 0
M  V30 666 O 66.0444 -1.80239 0.195886 0
M  V30 667 C 66.0924 -0.71831 3.53373 0
M  V30 668 O 65.1964 -1.82175 3.69981 0
M  V30 669 H 64.5374 -0.0554061 0.661684 0
M  V30 670 H 67.0674 0.459387 1.99376 0
M  V30 671 H 67.0774 -1.00364 3.95463 0
M  V30 672 H 65.7524 0.130821 4.15694 0
M  V30 673 H 64.3294 -1.53598 3.39797 0
M  V30 674 N 66.5145 -1.57545 0.0417849 0
M  V30 675 C 67.7625 -1.91937 -0.632829 0
M  V30 676 C 68.0835 -0.919978 -1.71934 0
M  V30 677 O 67.3535 0.0366064 -1.95866 0
M  V30 678 H 65.9335 -0.708493 -0.236742 0
M  V30 679 H 68.5955 -1.9468 0.0925745 0
M  V30 680 H 67.6915 -2.92912 -1.07746 0
M  V30 681 N 67.9926 0.231505 -1.5589 0
M  V30 682 C 69.4036 0.799327 -1.68724 0
M  V30 683 C 69.7546 1.85398 -0.642022 0
M  V30 684 O 68.8796 2.1539 0.208784 0
M  V30 685 C 69.4746 1.45664 -3.05888 0
M  V30 686 C 68.0336 1.97197 -3.20609 0
M  V30 687 C 67.1806 0.828552 -2.64632 0
M  V30 688 H 70.1316 0.00702616 -1.58698 0
M  V30 689 H 70.1526 2.32517 -3.01191 0
M  V30 690 H 69.6646 0.688808 -3.81939 0
M  V30 691 H 67.7656 2.76813 -2.4941 0
M  V30 692 H 67.8786 2.15878 -4.27707 0
M  V30 693 H 66.2426 1.23321 -2.22854 0
M  V30 694 H 67.0256 0.0735544 -3.43221 0
M  V30 695 N 69.4707 1.49531 0.497807 0
M  V30 696 C 70.8867 1.36365 0.829266 0
M  V30 697 C 71.0867 0.399184 1.97506 0
M  V30 698 O 70.1427 -0.167977 2.51941 0
M  V30 699 C 71.4557 2.77153 1.16647 0
M  V30 700 C 73.0037 2.85877 1.27449 0
M  V30 701 C 73.4787 4.2744 1.64497 0
M  V30 702 N 74.9697 4.30265 1.7154 0
M  V30 703 C 75.7047 5.3677 2.01656 0
M  V30 704 N 75.2007 6.53516 2.29976 0
M  V30 705 N 76.9937 5.24189 2.02934 0
M  V30 706 H 69.1447 2.10831 -0.257703 0
M  V30 707 H 71.4077 0.946534 -0.0527091 0
M  V30 708 H 71.1137 3.49442 0.397872 0
M  V30 709 H 70.9877 3.12722 2.10915 0
M  V30 710 H 73.3747 2.13824 2.0338 0
M  V30 711 H 73.4557 2.53887 0.312244 0
M  V30 712 H 73.0997 5.00021 0.891151 0
M  V30 713 H 73.0297 4.56896 2.61827 0
M  V30 714 H 75.5207 3.4607 1.51802 0
M  V30 715 H 75.8337 7.30506 2.52153 0
M  V30 716 H 74.1787 6.56737 2.27425 0
M  V30 717 H 77.3697 4.31988 1.80289 0
M  V30 718 H 77.5427 6.07286 2.26071 0
M  V30 719 N 70.9488 -0.749086 1.3866 0
M  V30 720 C 72.2258 -1.4992 1.25632 0
M  V30 721 C 72.6058 -2.10633 -0.140317 0
M  V30 722 O 71.9538 -1.97437 -1.15025 0
M  V30 723 C 72.1638 -2.56195 2.36992 0
M  V30 724 C 73.5118 -3.22972 2.75634 0
M  V30 725 O 74.5358 -2.66502 2.36337 0
M  V30 726 O 73.3948 -4.25122 3.43415 0
M  V30 727 H 70.4888 -0.665067 0.491544 0
M  V30 728 H 73.0348 -0.784113 1.50498 0
M  V30 729 H 71.8068 -2.09612 3.30422 0
M  V30 730 H 71.4298 -3.35279 2.13714 0
M  V30 731 N 72.4269 -1.23603 -0.977757 0
M  V30 732 C 73.3569 -1.04401 -2.0886 0
M  V30 733 C 74.3379 0.0399052 -1.70053 0
M  V30 734 O 75.5229 -0.125246 -1.93796 0
M  V30 735 C 72.6529 -0.637269 -3.41403 0
M  V30 736 C 71.6069 -1.66883 -3.94124 0
M  V30 737 C 70.9329 -1.11745 -5.22893 0
M  V30 738 C 72.2329 -3.06247 -4.23096 0
M  V30 739 H 73.9269 -1.97316 -2.25182 0
M  V30 740 H 71.4729 -0.950096 -1.08209 0
M  V30 741 H 73.4259 -0.48998 -4.18542 0
M  V30 742 H 72.1499 0.327557 -3.24953 0
M  V30 743 H 70.8089 -1.80416 -3.19133 0
M  V30 744 H 70.4569 -0.143527 -5.02795 0
M  V30 745 H 70.1569 -1.80672 -5.59134 0
M  V30 746 H 71.6809 -0.982067 -6.02651 0
M  V30 747 H 73.0949 -2.96001 -4.90975 0
M  V30 748 H 71.4919 -3.72436 -4.70544 0
M  V30 749 H 72.5619 -3.55041 -3.30263 0
M  V30 750 N 73.905 1.17692 -1.04816 0
M  V30 751 C 75.321 1.39863 -0.768794 0
M  V30 752 C 75.521 1.91118 0.638451 0
M  V30 753 O 74.577 2.10036 1.40146 0
M  V30 754 C 75.89 2.39274 -1.82122 0
M  V30 755 C 77.438 2.52987 -1.843 0
M  V30 756 C 77.913 3.55669 -2.88555 0
M  V30 757 N 79.404 3.63183 -2.87493 0
M  V30 758 C 80.139 4.42381 -3.64811 0
M  V30 759 N 79.635 5.25125 -4.51903 0
M  V30 760 N 81.428 4.37217 -3.53267 0
M  V30 761 H 73.579 0.82752 -1.95617 0
M  V30 762 H 75.842 0.426123 -0.846831 0
M  V30 763 H 75.548 2.08678 -2.83102 0
M  V30 764 H 75.422 3.38725 -1.65967 0
M  V30 765 H 77.809 2.82896 -0.839869 0
M  V30 766 H 77.89 1.53623 -2.04532 0
M  V30 767 H 77.534 3.26499 -3.89051 0
M  V30 768 H 77.464 4.54728 -2.65575 0
M  V30 769 H 79.955 3.04103 -2.24343 0
M  V30 770 H 80.268 5.82728 -5.07591 0
M  V30 771 H 78.613 5.24519 -4.55966 0
M  V30 772 H 81.804 3.71626 -2.84625 0
M  V30 773 H 81.977 4.98696 -4.13771 0
M  V30 774 N 75.3831 0.828654 1.34056 0
M  V30 775 C 76.6231 0.425394 1.99924 0
M  V30 776 C 76.9871 -0.994294 1.64249 0
M  V30 777 O 78.1881 -1.50074 2.23005 0
M  V30 778 C 76.4591 0.628071 3.51838 0
M  V30 779 S 78.0181 0.318511 4.37642 0
M  V30 780 H 74.8361 0.160465 0.692656 0
M  V30 781 H 77.4381 1.07572 1.63244 0
M  V30 782 H 76.1421 1.66089 3.7529 0
M  V30 783 H 75.6731 -0.0367799 3.93383 0
M  V30 784 H 77.6881 -0.865632 4.88591 0
M  V30 785 N 76.8612 -1.46375 0.584142 0
M  V30 786 C 78.0912 -2.06461 0.0758195 0
M  V30 787 C 78.4992 -1.43322 -1.23512 0
M  V30 788 O 77.8422 -0.533216 -1.75791 0
M  V30 789 C 77.9042 -3.59131 -0.162773 0
M  V30 790 C 77.5682 -4.4447 1.06279 0
M  V30 791 C 78.5652 -4.80918 1.97519 0
M  V30 792 C 76.2502 -4.85584 1.28504 0
M  V30 793 C 78.2442 -5.57309 3.09331 0
M  V30 794 C 75.9312 -5.61734 2.4062 0
M  V30 795 C 76.9292 -5.9751 3.30863 0
M  V30 796 O 76.6172 -6.72121 4.41032 0
M  V30 797 H 76.3492 -0.673745 0.0551725 0
M  V30 798 H 78.9032 -1.88969 0.804984 0
M  V30 799 H 77.1332 -3.74936 -0.946565 0
M  V30 800 H 78.8222 -4.0114 -0.619782 0
M  V30 801 H 79.5882 -4.49732 1.81565 0
M  V30 802 H 75.4672 -4.57187 0.591702 0
M  V30 803 H 79.0112 -5.85152 3.79793 0
M  V30 804 H 74.9082 -5.92334 2.56537 0
M  V30 805 H 75.6762 -6.90547 4.39417 0
M  V30 806 N 78.3393 -0.321999 -1.54275 0
M  V30 807 C 79.7553 0.0306999 -1.5957 0
M  V30 808 C 79.9553 1.50614 -1.33857 0
M  V30 809 O 79.0113 2.2619 -1.12223 0
M  V30 810 C 80.3243 -0.386122 -2.98211 0
M  V30 811 C 81.8723 -0.336647 -3.11184 0
M  V30 812 C 82.3473 -0.728607 -4.52167 0
M  V30 813 N 83.8383 -0.681952 -4.58152 0
M  V30 814 C 84.5733 -0.957449 -5.6535 0
M  V30 815 N 84.0693 -1.3 -6.80494 0
M  V30 816 N 85.8623 -0.883113 -5.55119 0
M  V30 817 H 78.0133 -1.28332 -1.69247 0
M  V30 818 H 80.2763 -0.521716 -0.791528 0
M  V30 819 H 79.9823 -1.41404 -3.22022 0
M  V30 820 H 79.8563 0.249662 -3.76373 0
M  V30 821 H 82.2433 0.682058 -2.8711 0
M  V30 822 H 82.3243 -1.00734 -2.3513 0
M  V30 823 H 81.9683 -1.74522 -4.76974 0
M  V30 824 H 81.8983 -0.0356152 -5.26588 0
M  V30 825 H 84.3893 -0.428985 -3.75457 0
M  V30 826 H 84.7023 -1.49563 -7.58189 0
M  V30 827 H 83.0473 -1.33824 -6.81994 0
M  V30 828 H 86.2383 -0.615001 -4.64042 0
M  V30 829 H 86.4113 -1.10118 -6.38575 0
M  V30 830 N 79.8174 1.5752 -0.0501392 0
M  V30 831 C 81.0664 1.91827 0.623328 0
M  V30 832 C 81.3794 0.930222 1.72065 0
M  V30 833 O 82.5854 1.1653 2.4522 0
M  V30 834 C 81.0414 3.40692 1.16003 0
M  V30 835 C 80.6494 4.479 0.0948811 0
M  V30 836 C 82.3934 3.84034 1.80881 0
M  V30 837 C 80.3004 5.87879 0.644411 0
M  V30 838 H 79.2304 0.715918 0.236596 0
M  V30 839 H 81.8814 1.83115 -0.118861 0
M  V30 840 H 80.2634 3.44405 1.9545 0
M  V30 841 H 81.4374 4.55775 -0.678675 0
M  V30 842 H 79.7524 4.13892 -0.45637 0
M  V30 843 H 82.3494 4.85984 2.22988 0
M  V30 844 H 82.6924 3.20225 2.6601 0
M  V30 845 H 83.2254 3.82833 1.0809 0
M  V30 846 H 79.9644 6.55282 -0.169229 0
M  V30 847 H 79.4844 5.83567 1.38598 0
M  V30 848 H 81.1634 6.37098 1.12763 0
M  V30 849 N 81.2955 -0.223234 1.56011 0
M  V30 850 C 82.5205 -0.968978 1.83373 0
M  V30 851 C 82.9455 -1.77227 0.630254 0
M  V30 852 O 82.3035 -1.76345 -0.420959 0
M  V30 853 C 82.3515 -1.86363 3.08709 0
M  V30 854 O 81.4555 -2.95873 2.87285 0
M  V30 855 H 80.7965 -0.274461 0.604622 0
M  V30 856 H 83.3265 -0.237056 2.03222 0
M  V30 857 H 83.3365 -2.27376 3.38768 0
M  V30 858 H 82.0115 -1.27319 3.95933 0
M  V30 859 H 80.5885 -2.58818 2.68454 0
M  V30 860 N 82.7736 -1.49793 -0.48987 0
M  V30 861 C 83.9986 -1.63836 -1.27172 0
M  V30 862 C 84.4236 -0.31402 -1.8546 0
M  V30 863 O 83.7816 0.719803 -1.66399 0
M  V30 864 C 83.8296 -2.71797 -2.36978 0
M  V30 865 O 82.9336 -2.31744 -3.41128 0
M  V30 866 H 82.2746 -0.547997 -0.37496 0
M  V30 867 H 84.8046 -1.96053 -0.585191 0
M  V30 868 H 84.8146 -2.94305 -2.82575 0
M  V30 869 H 83.4896 -3.67923 -1.93921 0
M  V30 870 H 82.0666 -2.1961 -3.01373 0
M  V30 871 N 84.2517 0.741722 -1.39055 0
M  V30 872 C 85.5287 1.49252 -1.26425 0
M  V30 873 C 85.9087 2.10705 0.129144 0
M  V30 874 O 85.2567 1.98045 1.13976 0
M  V30 875 C 85.4667 2.54934 -2.38347 0
M  V30 876 C 86.8147 3.21506 -2.77343 0
M  V30 877 O 87.8387 2.65245 -2.37747 0
M  V30 878 O 86.6977 4.23294 -3.45665 0
M  V30 879 H 83.7917 0.662451 -0.495064 0
M  V30 880 H 86.3377 0.776121 -1.50912 0
M  V30 881 H 85.1097 2.07857 -3.31529 0
M  V30 882 H 84.7327 3.34141 -2.15489 0
M  V30 883 N 85.7298 1.2412 0.971189 0
M  V30 884 C 87.1458 1.00584 1.23916 0
M  V30 885 C 87.3458 -0.287481 1.99439 0
M  V30 886 O 86.4018 -1.00454 2.31658 0
M  V30 887 C 87.7148 2.21864 2.0297 0
M  V30 888 C 89.2628 2.26452 2.16076 0
M  V30 889 C 89.7378 3.47343 2.98524 0
M  V30 890 N 91.2288 3.47639 3.06107 0
M  V30 891 C 91.9638 4.37837 3.70251 0
M  V30 892 N 91.4598 5.38286 4.36142 0
M  V30 893 N 93.2528 4.25558 3.67228 0
M  V30 894 H 85.4038 2.07236 0.465499 0
M  V30 895 H 87.6668 0.909236 0.268315 0
M  V30 896 H 87.3728 3.15771 1.54861 0
M  V30 897 H 87.2468 2.23698 3.03709 0
M  V30 898 H 89.6338 1.33078 2.6339 0
M  V30 899 H 89.7148 2.28645 1.14696 0
M  V30 900 H 89.3588 4.41029 2.51905 0
M  V30 901 H 89.2888 3.42393 4.00093 0
M  V30 902 H 91.7798 2.74966 2.59233 0
M  V30 903 H 92.0928 6.03352 4.82894 0
M  V30 904 H 90.4378 5.42176 4.34822 0
M  V30 905 H 93.6288 3.46322 3.14927 0
M  V30 906 H 93.8018 4.96054 4.16935 0
M  V30 907 N 87.2079 -1.17134 1.05439 0
M  V30 908 C 88.4379 -1.91094 0.785274 0
M  V30 909 C 88.8459 -1.77198 -0.663142 0
M  V30 910 O 88.1889 -1.10835 -1.46497 0
M  V30 911 C 88.2509 -3.42594 1.08949 0
M  V30 912 C 87.9149 -3.80274 2.53458 0
M  V30 913 C 88.9119 -3.82912 3.51673 0
M  V30 914 C 86.5969 -4.11162 2.88532 0
M  V30 915 C 88.5909 -4.15913 4.83006 0
M  V30 916 C 86.2779 -4.43831 4.20068 0
M  V30 917 C 87.2759 -4.46185 5.17115 0
M  V30 918 O 86.9639 -4.78083 6.46291 0
M  V30 919 H 86.6959 -0.613073 0.284811 0
M  V30 920 H 89.2499 -1.49461 1.40893 0
M  V30 921 H 87.4799 -3.84534 0.408741 0
M  V30 922 H 89.1689 -3.97817 0.805991 0
M  V30 923 H 89.9349 -3.5917 3.25917 0
M  V30 924 H 85.8139 -4.085 2.13656 0
M  V30 925 H 89.3579 -4.17665 5.5875 0
M  V30 926 H 85.2549 -4.67037 4.45586 0
M  V30 927 H 86.0229 -4.9593 6.51149 0
M  V30 928 N 88.686 -0.835752 -1.33615 0
M  V30 929 C 89.596 -0.269088 -2.33052 0
M  V30 930 C 90.612 0.603251 -1.63208 0
M  V30 931 O 91.788 0.508112 -1.94885 0
M  V30 932 C 88.853 0.549091 -3.42324 0
M  V30 933 C 87.914 -0.347156 -4.27894 0
M  V30 934 C 87.147 0.43207 -5.31948 0
M  V30 935 O 87.37 1.66409 -5.45586 0
M  V30 936 O 86.304 -0.192298 -6.01593 0
M  V30 937 H 90.13 -1.09243 -2.83372 0
M  V30 938 H 87.715 -0.598198 -1.36901 0
M  V30 939 H 89.597 1.01414 -4.09015 0
M  V30 940 H 88.272 1.34955 -2.94226 0
M  V30 941 H 87.179 -0.859979 -3.64081 0
M  V30 942 H 88.512 -1.1123 -4.79467 0
M  V30 943 N 90.1641 1.46063 -0.591896 0
M  V30 944 C 91.4041 2.04228 -0.0838014 0
M  V30 945 C 91.7681 1.45231 1.25587 0
M  V30 946 O 92.9691 1.94653 1.85375 0
M  V30 947 C 91.2401 3.57389 -0.0286282 0
M  V30 948 S 92.7991 4.3678 0.420557 0
M  V30 949 H 89.6171 0.709762 -0.0419319 0
M  V30 950 H 92.2191 1.78983 -0.786465 0
M  V30 951 H 90.9231 3.97843 -1.00743 0
M  V30 952 H 90.4541 3.87185 0.69652 0
M  V30 953 H 92.4691 4.67131 1.67341 0
M  V30 954 N 91.6422 0.330177 1.54103 0
M  V30 955 C 92.8672 -0.274893 2.0557 0
M  V30 956 C 93.2922 -1.44487 1.20437 0
M  V30 957 O 92.6502 -1.80021 0.214991 0
M  V30 958 C 92.6982 -0.68079 3.54115 0
M  V30 959 O 91.8022 -1.7824 3.71893 0
M  V30 960 H 91.1432 -0.0483849 0.662235 0
M  V30 961 H 93.6732 0.480508 1.98878 0
M  V30 962 H 93.6832 -0.961635 3.96505 0
M  V30 963 H 92.3582 0.174903 4.15532 0
M  V30 964 H 90.9352 -1.49985 3.41407 0
M  V30 965 N 93.1203 -1.57491 0.0584922 0
M  V30 966 C 94.3663 -1.94081 -0.608617 0
M  V30 967 C 94.7213 -0.937438 -1.68017 0
M  V30 968 O 94.0143 0.0423034 -1.91553 0
M  V30 969 C 94.2083 -3.3513 -1.24188 0
M  V30 970 C 94.0373 -4.49095 -0.233187 0
M  V30 971 C 92.8073 -5.04988 0.177439 0
M  V30 972 C 95.0053 -5.1162 0.524306 0
M  V30 973 N 92.9873 -6.02487 1.17823 0
M  V30 974 C 94.3583 -6.04493 1.37796 0
M  V30 975 C 96.4133 -4.94489 0.581822 0
M  V30 976 C 95.1163 -6.82075 2.28399 0
M  V30 977 C 97.1423 -5.72703 1.47531 0
M  V30 978 C 96.5043 -6.65214 2.31667 0
M  V30 979 H 92.6033 -0.75752 -0.194134 0
M  V30 980 H 95.1873 -1.94248 0.132533 0
M  V30 981 H 93.3583 -3.35726 -1.95302 0
M  V30 982 H 95.0903 -3.5899 -1.86838 0
M  V30 983 H 91.8453 -4.73165 -0.203004 0
M  V30 984 H 92.2693 -6.55933 1.67573 0
M  V30 985 H 96.9113 -4.22765 -0.054443 0
M  V30 986 H 94.6293 -7.53085 2.93067 0
M  V30 987 H 98.2153 -5.61472 1.52448 0
M  V30 988 H 97.0953 -7.24679 2.99683 0
M  V30 989 N 94.5984 0.214957 -1.56127 0
M  V30 990 C 95.5304 1.29004 -1.89448 0
M  V30 991 C 96.5434 1.42716 -0.783326 0
M  V30 992 O 97.7324 1.43496 -1.06166 0
M  V30 993 C 94.8324 2.66482 -2.09381 0
M  V30 994 C 94.0054 2.74633 -3.40434 0
M  V30 995 C 93.0644 3.9317 -3.49719 0
M  V30 996 O 92.0904 3.812 -4.227 0
M  V30 997 N 93.2924 5.07765 -2.81346 0
M  V30 998 H 96.0574 1.00743 -2.82261 0
M  V30 999 H 93.6184 0.40497 -1.56753 0
M  V30 1000 H 95.6104 3.44173 -2.12901 0
M  V30 1001 H 94.1804 2.87314 -1.23163 0
M  V30 1002 H 93.4004 1.83368 -3.48955 0
M  V30 1003 H 94.6884 2.77054 -4.26754 0
M  V30 1004 H 94.0864 5.20386 -2.21843 0
M  V30 1005 H 92.6434 5.83474 -2.90519 0
M  V30 1006 N 96.0765 1.50051 0.48192 0
M  V30 1007 C 97.3065 1.63999 1.2565 0
M  V30 1008 C 97.7145 0.318288 1.86504 0
M  V30 1009 O 97.0575 -0.708534 1.69486 0
M  V30 1010 C 97.1195 2.66504 2.4128 0
M  V30 1011 C 96.7835 4.10352 2.01148 0
M  V30 1012 C 97.7805 4.96562 1.54021 0
M  V30 1013 C 95.4655 4.56203 2.10199 0
M  V30 1014 C 97.4595 6.26668 1.16473 0
M  V30 1015 C 95.1465 5.86318 1.72264 0
M  V30 1016 C 96.1445 6.71375 1.25477 0
M  V30 1017 O 95.8325 7.99062 0.880626 0
M  V30 1018 H 95.5645 0.55456 0.386574 0
M  V30 1019 H 98.1185 1.96954 0.582944 0
M  V30 1020 H 96.3485 2.28769 3.11772 0
M  V30 1021 H 98.0375 2.69783 3.03268 0
M  V30 1022 H 98.8035 4.62358 1.46458 0
M  V30 1023 H 94.6825 3.90152 2.45566 0
M  V30 1024 H 98.2265 6.93011 0.798841 0
M  V30 1025 H 94.1235 6.20046 1.79482 0
M  V30 1026 H 94.8915 8.12239 1.01043 0
M  V30 1027 N 97.5546 -0.734337 1.39446 0
M  V30 1028 C 98.4646 -1.87879 1.40495 0
M  V30 1029 C 99.4806 -1.714 0.299672 0
M  V30 1030 O 100.657 -1.93991 0.541249 0
M  V30 1031 C 97.7216 -3.23477 1.24754 0
M  V30 1032 C 96.7826 -3.52344 2.45259 0
M  V30 1033 C 96.0156 -4.81473 2.30259 0
M  V30 1034 O 96.2386 -5.55237 1.30643 0
M  V30 1035 O 95.1726 -5.10254 3.19256 0
M  V30 1036 H 98.9986 -1.89949 2.36966 0
M  V30 1037 H 96.5836 -0.882243 1.20569 0
M  V30 1038 H 98.4656 -4.04509 1.18111 0
M  V30 1039 H 97.1406 -3.22176 0.313781 0
M  V30 1040 H 96.0476 -2.71396 2.57478 0
M  V30 1041 H 97.3806 -3.58426 3.37331 0
M  V30 1042 N 99.0327 -1.24633 -0.964593 0
M  V30 1043 C 100.281 -1.08573 -1.70459 0
M  V30 1044 C 100.602 0.375655 -1.91347 0
M  V30 1045 O 99.8717 1.26779 -1.49345 0
M  V30 1046 H 98.4517 -0.398784 -0.631649 0
M  V30 1047 H 101.114 -1.56601 -1.16026 0
M  V30 1048 H 100.21 -1.58623 -2.68785 0
M  V30 1049 N 100.511 1.16574 -1.06058 0
M  V30 1050 C 101.922 1.68662 -0.800632 0
M  V30 1051 C 102.273 1.84184 0.67608 0
M  V30 1052 O 101.398 1.53568 1.52466 0
M  V30 1053 C 101.993 3.06356 -1.44676 0
M  V30 1054 C 100.552 3.55575 -1.23465 0
M  V30 1055 C 99.6988 2.31616 -1.52477 0
M  V30 1056 H 102.65 1.00969 -1.22438 0
M  V30 1057 H 102.671 3.70636 -0.860788 0
M  V30 1058 H 102.183 2.95027 -2.52152 0
M  V30 1059 H 100.284 3.72167 -0.179527 0
M  V30 1060 H 100.397 4.37812 -1.94571 0
M  V30 1061 H 98.7608 2.36512 -0.945209 0
M  V30 1062 H 99.5438 2.22887 -2.61106 0
M  V30 1063 N 101.989 0.842826 1.3317 0
M  V30 1064 C 103.217 0.454055 2.01856 0
M  V30 1065 C 103.632 -0.94587 1.63397 0
M  V30 1066 O 102.989 -1.61534 0.849302 0
M  V30 1067 C 103.04 0.569715 3.56982 0
M  V30 1068 O 102.761 1.91448 3.94055 0
M  V30 1069 C 104.262 0.178412 4.42941 0
M  V30 1070 H 101.482 0.17979 0.646465 0
M  V30 1071 H 104.026 1.1365 1.70012 0
M  V30 1072 H 102.181 -0.0648587 3.87346 0
M  V30 1073 H 102.595 1.90282 4.88767 0
M  V30 1074 H 104.069 0.310376 5.51127 0
M  V30 1075 H 104.546 -0.880056 4.30293 0
M  V30 1076 H 105.152 0.787579 4.17944 0
M  V30 1077 N 103.467 -1.45747 0.599634 0
M  V30 1078 C 104.43 -2.28917 -0.113835 0
M  V30 1079 C 105.43 -1.3933 -0.802729 0
M  V30 1080 O 106.62 -1.61534 -0.652103 0
M  V30 1081 C 103.752 -3.20152 -1.17114 0
M  V30 1082 H 104.945 -2.93478 0.617289 0
M  V30 1083 H 102.498 -1.52137 0.358327 0
M  V30 1084 H 103.233 -2.60374 -1.93329 0
M  V30 1085 H 103.018 -3.86133 -0.681468 0
M  V30 1086 H 104.508 -3.82708 -1.67105 0
M  V30 1087 N 104.945 -0.338344 -1.53925 0
M  V30 1088 C 106.193 0.259245 -2.0043 0
M  V30 1089 C 106.514 1.51484 -1.22791 0
M  V30 1090 O 105.784 1.93037 -0.33368 0
M  V30 1091 H 104.364 0.0987845 -0.740439 0
M  V30 1092 H 107.026 -0.458302 -1.89435 0
M  V30 1093 H 106.122 0.505334 -3.07982 0
M  V30 1094 N 106.423 1.57458 -0.0668435 0
M  V30 1095 C 107.669 1.93587 0.6043 0
M  V30 1096 C 108.002 0.946722 1.69561 0
M  V30 1097 O 107.277 -0.0248516 1.94484 0
M  V30 1098 C 107.56 3.40014 1.18585 0
M  V30 1099 C 107.413 4.49685 0.101529 0
M  V30 1100 C 108.732 3.87154 2.09284 0
M  V30 1101 H 105.851 0.703958 0.218202 0
M  V30 1102 H 108.493 1.89542 -0.131804 0
M  V30 1103 H 106.643 3.43592 1.81319 0
M  V30 1104 H 108.315 4.5823 -0.531279 0
M  V30 1105 H 106.558 4.30059 -0.568487 0
M  V30 1106 H 107.229 5.49266 0.54874 0
M  V30 1107 H 109.705 3.85551 1.56491 0
M  V30 1108 H 108.581 4.90231 2.46911 0
M  V30 1109 H 108.842 3.2481 2.99918 0
M  V30 1110 N 107.901 -0.206675 1.56239 0
M  V30 1111 C 109.126 -0.949474 1.8439 0
M  V30 1112 C 109.551 -1.76549 0.649016 0
M  V30 1113 O 108.909 -1.76782 -0.402231 0
M  V30 1114 C 108.957 -1.83078 3.10668 0
M  V30 1115 O 108.061 -2.9281 2.90407 0
M  V30 1116 H 107.402 -0.268033 0.607499 0
M  V30 1117 H 109.932 -0.215488 2.03462 0
M  V30 1118 H 109.942 -2.2377 3.41161 0
M  V30 1119 H 108.617 -1.23112 3.97261 0
M  V30 1120 H 107.194 -2.55956 2.71184 0
M  V30 1121 N 109.379 -1.50304 -0.473955 0
M  V30 1122 C 110.329 -1.65347 -1.56985 0
M  V30 1123 C 111.313 -0.508176 -1.52664 0
M  V30 1124 O 112.505 -0.762446 -1.59737 0
M  V30 1125 C 109.634 -1.74832 -2.95447 0
M  V30 1126 C 108.72 -2.95028 -3.04662 0
M  V30 1127 N 109.111 -4.18747 -2.83698 0
M  V30 1128 C 107.409 -2.93527 -3.35795 0
M  V30 1129 C 108.11 -4.99687 -2.97805 0
M  V30 1130 N 107.086 -4.33585 -3.2788 0
M  V30 1131 H 110.888 -2.58698 -1.39472 0
M  V30 1132 H 108.402 -1.47449 -0.680629 0
M  V30 1133 H 110.399 -1.83712 -3.7424 0
M  V30 1134 H 109.059 -0.826376 -3.14008 0
M  V30 1135 H 110.07 -4.48291 -2.59337 0
M  V30 1136 H 106.747 -2.10821 -3.60362 0
M  V30 1137 H 108.137 -6.08057 -2.85861 0
M  V30 1138 N 110.857 0.726932 -1.39834 0
M  V30 1139 C 112.104 1.48664 -1.37496 0
M  V30 1140 C 112.432 1.94482 0.0264678 0
M  V30 1141 O 111.687 1.67692 1.00886 0
M  V30 1142 C 111.986 2.73495 -2.30077 0
M  V30 1143 C 111.652 2.46502 -3.77555 0
M  V30 1144 C 110.314 2.3885 -4.17737 0
M  V30 1145 C 112.666 2.23604 -4.70798 0
M  V30 1146 C 109.994 2.06352 -5.49214 0
M  V30 1147 C 112.346 1.92622 -6.02561 0
M  V30 1148 C 111.01 1.83444 -6.41798 0
M  V30 1149 H 110.28 0.544001 -0.503135 0
M  V30 1150 H 112.927 0.833657 -1.72402 0
M  V30 1151 H 111.232 3.43575 -1.88317 0
M  V30 1152 H 112.929 3.31549 -2.25558 0
M  V30 1153 H 109.519 2.5334 -3.45712 0
M  V30 1154 H 113.703 2.28479 -4.40581 0
M  V30 1155 H 108.959 1.97776 -5.78528 0
M  V30 1156 H 113.133 1.73914 -6.74334 0
M  V30 1157 H 110.76 1.58029 -7.43593 0
M  V30 1158 N 112.336 1.25143 0.95797 0
M  V30 1159 C 113.266 1.07711 2.07173 0
M  V30 1160 C 114.247 -0.0128462 1.70095 0
M  V30 1161 O 115.432 0.156061 1.93572 0
M  V30 1162 C 112.562 0.691503 3.40346 0
M  V30 1163 C 111.516 1.73132 3.9142 0
M  V30 1164 C 110.842 1.20049 5.21049 0
M  V30 1165 C 112.142 3.1294 4.1817 0
M  V30 1166 H 113.836 2.00873 2.22014 0
M  V30 1167 H 111.382 0.967191 1.06684 0
M  V30 1168 H 113.335 0.556505 4.17709 0
M  V30 1169 H 112.059 -0.275819 3.25433 0
M  V30 1170 H 110.718 1.8547 3.16222 0
M  V30 1171 H 110.366 0.223499 5.02503 0
M  V30 1172 H 110.066 1.89545 5.56189 0
M  V30 1173 H 111.59 1.07782 6.01012 0
M  V30 1174 H 113.004 3.03775 4.86203 0
M  V30 1175 H 111.401 3.79875 4.64559 0
M  V30 1176 H 112.471 3.6025 3.24573 0
M  V30 1177 N 113.814 -1.1601 1.06675 0
M  V30 1178 C 115.23 -1.38622 0.790948 0
M  V30 1179 C 115.43 -1.92109 -0.607965 0
M  V30 1180 O 114.486 -2.12239 -1.36787 0
M  V30 1181 C 115.799 -2.36347 1.85905 0
M  V30 1182 C 117.347 -2.50023 1.88301 0
M  V30 1183 C 117.822 -3.51033 2.94176 0
M  V30 1184 N 119.313 -3.58563 2.93235 0
M  V30 1185 C 120.048 -4.36521 3.71803 0
M  V30 1186 N 119.544 -5.17869 4.602 0
M  V30 1187 N 121.337 -4.31541 3.60178 0
M  V30 1188 H 113.488 -0.796294 1.96908 0
M  V30 1189 H 115.751 -0.412597 0.853503 0
M  V30 1190 H 115.457 -2.04147 2.86386 0
M  V30 1191 H 115.331 -3.36042 1.71334 0
M  V30 1192 H 117.718 -2.81524 0.884769 0
M  V30 1193 H 117.799 -1.5035 2.06951 0
M  V30 1194 H 117.443 -3.20268 3.94196 0
M  V30 1195 H 117.373 -4.50445 2.72776 0
M  V30 1196 H 119.864 -3.00496 2.29152 0
M  V30 1197 H 120.177 -5.74578 5.16797 0
M  V30 1198 H 118.522 -5.17199 4.64253 0
M  V30 1199 H 121.713 -3.67051 2.90502 0
M  V30 1200 H 121.886 -4.9205 4.21653 0
M  V30 1201 N 115.292 -0.849877 -1.32721 0
M  V30 1202 C 116.532 -0.457146 -1.99222 0
M  V30 1203 C 116.896 0.968038 -1.6581 0
M  V30 1204 O 118.097 1.46507 -2.25364 0
M  V30 1205 C 116.368 -0.683966 -3.50794 0
M  V30 1206 S 117.927 -0.388095 -4.3708 0
M  V30 1207 H 114.745 -0.171464 -0.690015 0
M  V30 1208 H 117.347 -1.10155 -1.61512 0
M  V30 1209 H 116.051 -1.72038 -3.726 0
M  V30 1210 H 115.582 -0.0258086 -3.93392 0
M  V30 1211 H 117.597 0.787791 -4.89906 0
M  V30 1212 N 116.77 1.45427 -0.607355 0
M  V30 1213 C 118.01 2.04128 -0.105458 0
M  V30 1214 C 118.374 1.46555 1.24039 0
M  V30 1215 O 119.575 1.96608 1.833 0
M  V30 1216 C 117.846 3.57338 -0.0665324 0
M  V30 1217 S 119.405 4.37201 0.374207 0
M  V30 1218 H 116.223 0.709278 -0.0494575 0
M  V30 1219 H 118.825 1.78139 -0.805404 0
M  V30 1220 H 117.529 3.96752 -1.04957 0
M  V30 1221 H 117.06 3.87902 0.655415 0
M  V30 1222 H 119.075 4.6888 1.62377 0
M  V30 1223 N 118.248 0.346503 1.53744 0
M  V30 1224 C 119.178 -0.501193 2.28058 0
M  V30 1225 C 120.159 -1.10014 1.29734 0
M  V30 1226 O 121.344 -1.12097 1.58581 0
M  V30 1227 C 118.474 -1.65078 3.05559 0
M  V30 1228 C 117.428 -1.18003 4.11411 0
M  V30 1229 C 116.754 -2.41837 4.76884 0
M  V30 1230 C 118.054 -0.278394 5.21558 0
M  V30 1231 H 119.748 0.11875 2.99164 0
M  V30 1232 H 117.294 0.0585531 1.43881 0
M  V30 1233 H 119.247 -2.25028 3.56287 0
M  V30 1234 H 117.971 -2.29767 2.32109 0
M  V30 1235 H 116.63 -0.603331 3.61601 0
M  V30 1236 H 116.278 -3.0494 4.00026 0
M  V30 1237 H 115.978 -2.1102 5.48402 0
M  V30 1238 H 117.502 -3.02508 5.30397 0
M  V30 1239 H 118.916 -0.784823 5.67903 0
M  V30 1240 H 117.313 -0.0619707 6.00068 0
M  V30 1241 H 118.383 0.684677 4.80042 0
M  V30 1242 N 119.726 -1.57421 0.075193 0
M  V30 1243 C 120.951 -1.98364 -0.605515 0
M  V30 1244 C 121.376 -0.953383 -1.62149 0
M  V30 1245 O 120.734 0.0806053 -1.81121 0
M  V30 1246 C 120.782 -3.38332 -1.24756 0
M  V30 1247 O 119.886 -3.37959 -2.36342 0
M  V30 1248 H 119.227 -0.645553 -0.155428 0
M  V30 1249 H 121.757 -2.04044 0.150714 0
M  V30 1250 H 121.767 -3.75591 -1.5936 0
M  V30 1251 H 120.442 -4.12846 -0.503129 0
M  V30 1252 H 119.019 -3.12474 -2.03506 0
M  V30 1253 N 121.204 0.198386 -1.56346 0
M  V30 1254 C 122.429 0.939682 -1.84891 0
M  V30 1255 C 122.854 1.76202 -0.658369 0
M  V30 1256 O 122.212 1.76993 0.392851 0
M  V30 1257 C 122.26 1.81428 -3.11635 0
M  V30 1258 O 121.364 2.91265 -2.91956 0
M  V30 1259 H 120.705 0.264807 -0.608912 0
M  V30 1260 H 123.235 0.204695 -2.03573 0
M  V30 1261 H 123.245 2.21958 -3.42343 0
M  V30 1262 H 121.92 1.21004 -3.97908 0
M  V30 1263 H 120.497 2.54514 -2.72538 0
M  V30 1264 N 122.682 1.50554 0.465978 0
M  V30 1265 C 123.93 1.61479 1.21528 0
M  V30 1266 C 124.251 0.319596 1.92363 0
M  V30 1267 O 123.521 -0.663194 1.84333 0
M  V30 1268 H 122.101 0.595055 0.451573 0
M  V30 1269 H 124.763 1.87355 0.53704 0
M  V30 1270 H 123.859 2.42846 1.96042 0
M  V30 1271 N 124.16 -0.719506 1.40217 0
M  V30 1272 C 125.576 -1.02707 1.22161 0
M  V30 1273 C 125.776 -2.0128 0.0940557 0
M  V30 1274 O 124.832 -2.46452 -0.549318 0
M  V30 1275 C 126.145 -1.57454 2.56181 0
M  V30 1276 C 127.693 -1.69458 2.63159 0
M  V30 1277 C 128.168 -2.27611 3.97438 0
M  V30 1278 N 129.659 -2.35002 3.99159 0
M  V30 1279 C 130.394 -2.80972 4.99842 0
M  V30 1280 N 129.89 -3.26723 6.10921 0
M  V30 1281 N 131.683 -2.80321 4.87213 0
M  V30 1282 H 123.834 -0.0660492 2.12297 0
M  V30 1283 H 126.097 -0.0919077 0.943534 0
M  V30 1284 H 125.803 -0.924873 3.39321 0
M  V30 1285 H 125.677 -2.56036 2.76993 0
M  V30 1286 H 128.064 -2.33543 1.80393 0
M  V30 1287 H 128.145 -0.694867 2.46181 0
M  V30 1288 H 127.789 -1.6415 4.80643 0
M  V30 1289 H 127.719 -3.2829 4.11744 0
M  V30 1290 H 130.21 -2.02685 3.18947 0
M  V30 1291 H 130.523 -3.60355 6.8364 0
M  V30 1292 H 128.868 -3.24692 6.14492 0
M  V30 1293 H 132.059 -2.43912 3.9953 0
M  V30 1294 H 132.232 -3.15831 5.65822 0
M  V30 1295 N 125.638 -1.25649 -0.95132 0
M  V30 1296 C 126.878 -1.11802 -1.71113 0
M  V30 1297 C 127.242 0.334758 -1.89059 0
M  V30 1298 O 128.443 0.595121 -2.62129 0
M  V30 1299 C 126.714 -1.85512 -3.05483 0
M  V30 1300 S 128.273 -1.87597 -3.96677 0
M  V30 1301 H 125.091 -0.399552 -0.588115 0
M  V30 1302 H 127.693 -1.59222 -1.1344 0
M  V30 1303 H 126.397 -2.90299 -2.90094 0
M  V30 1304 H 125.928 -1.38493 -3.68216 0
M  V30 1305 H 127.943 -0.955389 -4.86916 0
M  V30 1306 N 127.117 1.15442 -1.07289 0
M  V30 1307 C 128.357 1.8788 -0.805012 0
M  V30 1308 C 128.721 1.80413 0.656907 0
M  V30 1309 O 129.922 2.47874 1.0398 0
M  V30 1310 C 128.193 3.3298 -1.29843 0
M  V30 1311 S 129.752 4.23158 -1.16114 0
M  V30 1312 H 126.57 0.64839 -0.291739 0
M  V30 1313 H 129.172 1.39285 -1.37186 0
M  V30 1314 H 127.876 3.35958 -2.35712 0
M  V30 1315 H 127.407 3.86629 -0.726767 0
M  V30 1316 H 129.422 4.96103 -0.0982778 0
M  V30 1317 N 128.595 0.856903 1.32268 0
M  V30 1318 C 129.825 0.47475 2.01071 0
M  V30 1319 C 130.233 -0.933746 1.64553 0
M  V30 1320 O 129.576 -1.62114 0.863989 0
M  V30 1321 C 129.638 0.536746 3.55471 0
M  V30 1322 C 129.302 1.90453 4.15423 0
M  V30 1323 C 130.299 2.87029 4.33486 0
M  V30 1324 C 127.984 2.20229 4.51447 0
M  V30 1325 C 129.978 4.11532 4.86744 0
M  V30 1326 C 127.665 3.44984 5.0441 0
M  V30 1327 C 128.663 4.40452 5.22007 0
M  V30 1328 O 128.351 5.62998 5.73837 0
M  V30 1329 H 128.083 0.184778 0.650256 0
M  V30 1330 H 130.637 1.15615 1.69771 0
M  V30 1331 H 128.867 -0.20152 3.86175 0
M  V30 1332 H 130.556 0.169875 4.05544 0
M  V30 1333 H 131.322 2.6533 4.05986 0
M  V30 1334 H 127.201 1.46705 4.37034 0
M  V30 1335 H 130.745 4.86056 5.00395 0
M  V30 1336 H 126.642 3.66532 5.31342 0
M  V30 1337 H 127.41 5.64987 5.92226 0
M  V30 1338 N 130.073 -1.45103 0.615059 0
M  V30 1339 C 131.32 -2.02183 0.113179 0
M  V30 1340 C 131.648 -1.48249 -1.25906 0
M  V30 1341 O 130.903 -0.650265 -1.84581 0
M  V30 1342 C 131.202 -3.57386 0.0318797 0
M  V30 1343 C 130.868 -4.30505 1.34077 0
M  V30 1344 C 129.53 -4.50197 1.69929 0
M  V30 1345 C 131.882 -4.72238 2.20546 0
M  V30 1346 C 129.21 -5.08881 2.91988 0
M  V30 1347 C 131.562 -5.32272 3.41861 0
M  V30 1348 C 130.226 -5.50187 3.77956 0
M  V30 1349 H 129.496 -0.739842 0.0414151 0
M  V30 1350 H 132.143 -1.74073 0.798168 0
M  V30 1351 H 130.448 -3.84817 -0.736409 0
M  V30 1352 H 132.145 -3.99264 -0.372712 0
M  V30 1353 H 128.735 -4.15496 1.05173 0
M  V30 1354 H 132.919 -4.56751 1.94146 0
M  V30 1355 H 128.175 -5.20939 3.2005 0
M  V30 1356 H 132.349 -5.63563 4.09109 0
M  V30 1357 H 129.976 -5.95427 4.72622 0
M  V30 1358 N 131.551 -0.354651 -1.53558 0
M  V30 1359 C 132.514 0.484566 -2.24019 0
M  V30 1360 C 133.514 1.01861 -1.24422 0
M  V30 1361 O 134.704 0.906097 -1.4878 0
M  V30 1362 C 131.836 1.67615 -2.96847 0
M  V30 1363 H 133.029 -0.131843 -2.9961 0
M  V30 1364 H 130.582 -0.106165 -1.55939 0
M  V30 1365 H 131.317 2.33095 -2.25471 0
M  V30 1366 H 131.102 1.30029 -3.69912 0
M  V30 1367 H 132.592 2.27114 -3.50441 0
M  V30 1368 N 133.029 1.57378 -0.0835403 0
M  V30 1369 C 133.992 2.12252 0.864959 0
M  V30 1370 C 134.992 1.04916 1.21858 0
M  V30 1371 O 136.182 1.30853 1.14991 0
M  V30 1372 C 133.314 2.63358 2.16461 0
M  V30 1373 H 134.507 2.97371 0.388676 0
M  V30 1374 H 132.06 1.55423 0.165317 0
M  V30 1375 H 132.795 1.81727 2.686 0
M  V30 1376 H 132.58 3.41826 1.92087 0
M  V30 1377 H 134.07 3.05847 2.84337 0
M  V30 1378 N 134.507 -0.190092 1.56449 0
M  V30 1379 C 135.755 -0.907908 1.80559 0
M  V30 1380 C 136.076 -1.83583 0.657438 0
M  V30 1381 O 135.346 -1.93203 -0.323924 0
M  V30 1382 H 133.926 -0.338247 0.666032 0
M  V30 1383 H 136.588 -0.194403 1.93928 0
M  V30 1384 H 135.684 -1.49604 2.73907 0
M  V30 1385 N 135.985 -1.50799 -0.457987 0
M  V30 1386 C 137.21 -1.66496 -1.23668 0
M  V30 1387 C 137.635 -0.353288 -1.84752 0
M  V30 1388 O 136.993 0.684346 -1.67888 0
M  V30 1389 C 137.041 -2.76763 -2.3116 0
M  V30 1390 O 136.145 -2.38928 -3.36136 0
M  V30 1391 H 135.486 -0.555828 -0.363252 0
M  V30 1392 H 138.016 -1.9725 -0.543474 0
M  V30 1393 H 138.026 -3.00232 -2.76269 0
M  V30 1394 H 136.701 -3.71954 -1.86073 0
M  V30 1395 H 135.278 -2.25953 -2.96647 0
M  V30 1396 N 137.463 0.71206 -1.40597 0
M  V30 1397 C 138.426 1.80785 -1.40888 0
M  V30 1398 C 139.426 1.57937 -0.302103 0
M  V30 1399 O 140.616 1.64913 -0.561182 0
M  V30 1400 C 137.748 3.18927 -1.20409 0
M  V30 1401 H 138.941 1.81924 -2.38419 0
M  V30 1402 H 136.494 0.91805 -1.26497 0
M  V30 1403 H 137.229 3.23436 -0.236522 0
M  V30 1404 H 137.014 3.36911 -2.00582 0
M  V30 1405 H 138.504 3.98949 -1.23408 0
M  V30 1406 N 138.941 1.26152 0.944643 0
M  V30 1407 C 140.169 1.14259 1.72489 0
M  V30 1408 C 140.584 -0.302555 1.8636 0
M  V30 1409 O 139.941 -1.20741 1.36849 0
M  V30 1410 C 139.992 1.80266 3.13347 0
M  V30 1411 O 139.713 3.19133 3.00143 0
M  V30 1412 C 141.214 1.74283 4.07603 0
M  V30 1413 H 138.434 0.398051 0.540181 0
M  V30 1414 H 140.978 1.66706 1.18446 0
M  V30 1415 H 139.133 1.31766 3.64303 0
M  V30 1416 H 139.547 3.51744 3.89071 0
M  V30 1417 H 141.021 2.25111 5.04013 0
M  V30 1418 H 141.498 0.708631 4.33446 0
M  V30 1419 H 142.104 2.22319 3.62567 0
M  V30 1420 N 140.419 -1.14872 1.07899 0
M  V30 1421 C 141.835 -1.37776 0.805606 0
M  V30 1422 C 142.035 -1.92743 -0.587555 0
M  V30 1423 O 141.091 -2.13678 -1.34528 0
M  V30 1424 C 142.404 -2.34361 1.88402 0
M  V30 1425 C 143.952 -2.48012 1.90942 0
M  V30 1426 C 144.427 -3.47893 2.97883 0
M  V30 1427 N 145.918 -3.55433 2.97021 0
M  V30 1428 C 146.653 -4.32553 3.76412 0
M  V30 1429 N 146.149 -5.12959 4.65666 0
M  V30 1430 N 147.942 -4.27697 3.64735 0
M  V30 1431 H 140.093 -0.775365 1.97742 0
M  V30 1432 H 142.356 -0.403521 0.857831 0
M  V30 1433 H 142.062 -2.01098 2.88535 0
M  V30 1434 H 141.936 -3.34206 1.74889 0
M  V30 1435 H 144.323 -2.8057 0.914579 0
M  V30 1436 H 144.404 -1.48147 2.08534 0
M  V30 1437 H 144.048 -3.16069 3.97571 0
M  V30 1438 H 143.978 -4.47527 2.77538 0
M  V30 1439 H 146.469 -2.98048 2.32326 0
M  V30 1440 H 146.782 -5.69065 5.22862 0
M  V30 1441 H 145.127 -5.12245 4.69712 0
M  V30 1442 H 148.318 -3.63949 2.94378 0
M  V30 1443 H 148.491 -4.8755 4.26848 0
M  V30 1444 N 141.898 -0.863906 -1.31812 0
M  V30 1445 C 142.828 -0.330843 -2.31144 0
M  V30 1446 C 143.809 0.575005 -1.60087 0
M  V30 1447 O 144.994 0.493304 -1.8783 0
M  V30 1448 C 142.124 0.47374 -3.44054 0
M  V30 1449 C 141.078 -0.338481 -4.26659 0
M  V30 1450 C 140.404 0.591412 -5.31419 0
M  V30 1451 C 141.704 -1.56926 -4.98168 0
M  V30 1452 H 143.398 -1.16086 -2.75979 0
M  V30 1453 H 140.944 -0.559657 -1.32679 0
M  V30 1454 H 142.897 0.857143 -4.12591 0
M  V30 1455 H 141.621 1.33721 -2.9797 0
M  V30 1456 H 140.28 -0.703754 -3.59782 0
M  V30 1457 H 139.928 1.45199 -4.81587 0
M  V30 1458 H 139.628 0.0519022 -5.87577 0
M  V30 1459 H 141.152 0.97179 -6.02817 0
M  V30 1460 H 142.566 -1.25764 -5.59336 0
M  V30 1461 H 140.963 -2.04739 -5.64094 0
M  V30 1462 H 142.033 -2.32544 -4.25501 0
M  V30 1463 N 143.376 1.44774 -0.622745 0
M  V30 1464 C 144.308 2.28856 0.125485 0
M  V30 1465 C 145.321 1.40811 0.817069 0
M  V30 1466 O 146.51 1.65044 0.679918 0
M  V30 1467 C 143.61 3.16963 1.19949 0
M  V30 1468 C 142.783 4.33374 0.592064 0
M  V30 1469 C 141.842 5.02577 1.55893 0
M  V30 1470 O 140.868 5.58873 1.07933 0
M  V30 1471 N 142.07 5.03256 2.89334 0
M  V30 1472 H 144.835 2.93713 -0.596068 0
M  V30 1473 H 142.396 1.55129 -0.463303 0
M  V30 1474 H 144.388 3.60123 1.84644 0
M  V30 1475 H 142.958 2.53913 1.82337 0
M  V30 1476 H 142.178 3.93509 -0.233322 0
M  V30 1477 H 143.466 5.08527 0.166738 0
M  V30 1478 H 142.864 4.58836 3.30887 0
M  V30 1479 H 141.421 5.50232 3.49412 0
M  V30 1480 N 144.854 0.36279 1.53368 0
M  V30 1481 C 146.101 -0.227776 2.01215 0
M  V30 1482 C 146.429 -1.49003 1.25014 0
M  V30 1483 O 145.684 -1.92876 0.331236 0
M  V30 1484 C 145.983 -0.568417 3.52851 0
M  V30 1485 C 145.649 0.59918 4.46901 0
M  V30 1486 C 144.311 0.919559 4.72332 0
M  V30 1487 C 146.663 1.38156 5.02556 0
M  V30 1488 C 143.991 2.02434 5.5067 0
M  V30 1489 C 146.343 2.47674 5.821 0
M  V30 1490 C 145.007 2.8025 6.05819 0
M  V30 1491 H 144.277 -0.083349 0.736297 0
M  V30 1492 H 146.924 0.494677 1.85001 0
M  V30 1493 H 145.229 -1.37185 3.66998 0
M  V30 1494 H 146.926 -1.03756 3.87344 0
M  V30 1495 H 143.516 0.339437 4.27254 0
M  V30 1496 H 147.7 1.14729 4.82857 0
M  V30 1497 H 142.956 2.28075 5.67267 0
M  V30 1498 H 147.13 3.08716 6.24234 0
M  V30 1499 H 144.757 3.65979 6.66306 0
M  V30 1500 N 146.332 -1.57332 0.0918853 0
M  V30 1501 C 147.557 -1.98995 -0.584442 0
M  V30 1502 C 147.982 -0.970528 -1.61128 0
M  V30 1503 O 147.34 0.0613904 -1.81196 0
M  V30 1504 C 147.388 -3.39636 -1.21161 0
M  V30 1505 O 146.492 -3.40447 -2.32744 0
M  V30 1506 H 145.833 -0.647165 -0.148572 0
M  V30 1507 H 148.363 -2.03873 0.172347 0
M  V30 1508 H 148.373 -3.7726 -1.55367 0
M  V30 1509 H 147.048 -4.13356 -0.459313 0
M  V30 1510 H 145.625 -3.14614 -2.0018 0
M  V30 1511 N 147.81 0.181792 -1.56548 0
M  V30 1512 C 149.087 0.926765 -1.72251 0
M  V30 1513 C 149.467 2.00831 -0.650386 0
M  V30 1514 O 148.815 2.26008 0.336521 0
M  V30 1515 C 149.025 1.50106 -3.1507 0
M  V30 1516 C 150.373 1.97805 -3.75711 0
M  V30 1517 O 151.397 1.59922 -3.18282 0
M  V30 1518 O 150.256 2.67555 -4.76525 0
M  V30 1519 H 147.35 0.435506 -0.703039 0
M  V30 1520 H 149.896 0.170443 -1.68842 0
M  V30 1521 H 148.668 0.72212 -3.84579 0
M  V30 1522 H 148.291 2.32186 -3.22763 0
M  V30 1523 N 149.288 1.51039 0.449983 0
M  V30 1524 C 150.22 1.67617 1.56324 0
M  V30 1525 C 151.233 0.557083 1.52972 0
M  V30 1526 O 152.422 0.830989 1.57977 0
M  V30 1527 C 149.522 1.66402 2.95235 0
M  V30 1528 C 148.695 2.9469 3.23229 0
M  V30 1529 C 147.754 2.85832 4.41799 0
M  V30 1530 O 146.78 3.59785 4.41071 0
M  V30 1531 N 147.982 2.00821 5.44657 0
M  V30 1532 H 150.747 2.63648 1.42512 0
M  V30 1533 H 148.308 1.48767 0.638737 0
M  V30 1534 H 150.3 1.58062 3.72557 0
M  V30 1535 H 148.87 0.780182 3.02708 0
M  V30 1536 H 148.09 3.16996 2.34323 0
M  V30 1537 H 149.378 3.79636 3.38754 0
M  V30 1538 H 148.776 1.40091 5.48079 0
M  V30 1539 H 147.333 1.98368 6.20881 0
M  V30 1540 N 150.766 -0.704594 1.40972 0
M  V30 1541 C 151.729 -1.80035 1.41845 0
M  V30 1542 C 152.729 -1.57774 0.310474 0
M  V30 1543 O 153.919 -1.64613 0.56992 0
M  V30 1544 C 151.051 -3.18284 1.22098 0
M  V30 1545 H 152.244 -1.80658 2.3938 0
M  V30 1546 H 149.797 -0.911329 1.26982 0
M  V30 1547 H 150.532 -3.23306 0.253672 0
M  V30 1548 H 150.317 -3.35843 2.02366 0
M  V30 1549 H 151.807 -3.98289 1.25522 0
M  V30 1550 N 152.244 -1.26651 -0.937939 0
M  V30 1551 C 153.492 -1.12165 -1.68118 0
M  V30 1552 C 153.813 0.334983 -1.92101 0
M  V30 1553 O 153.083 1.23583 -1.52 0
M  V30 1554 H 151.663 -0.412093 -0.623048 0
M  V30 1555 H 154.325 -1.59027 -1.12678 0
M  V30 1556 H 153.421 -1.64289 -2.6536 0
M  V30 1557 N 153.722 1.14298 -1.08507 0
M  V30 1558 C 154.968 1.85633 -0.816581 0
M  V30 1559 C 155.301 1.82784 0.656021 0
M  V30 1560 O 154.576 1.25926 1.48233 0
M  V30 1561 C 154.859 3.34223 -1.34041 0
M  V30 1562 C 154.712 3.45639 -2.87843 0
M  V30 1563 C 156.031 4.29356 -0.9665 0
M  V30 1564 H 153.15 0.67402 -0.298104 0
M  V30 1565 H 155.792 1.34214 -1.34487 0
M  V30 1566 H 153.942 3.78144 -0.89104 0
M  V30 1567 H 155.614 3.10498 -3.41158 0
M  V30 1568 H 153.857 2.86817 -3.25451 0
M  V30 1569 H 154.528 4.50089 -3.19569 0
M  V30 1570 H 157.004 3.93457 -1.35391 0
M  V30 1571 H 155.88 5.3178 -1.3602 0
M  V30 1572 H 156.141 4.41919 0.126362 0
M  V30 1573 N 155.201 0.870884 1.31352 0
M  V30 1574 C 156.426 0.495957 2.01383 0
M  V30 1575 C 156.851 -0.904324 1.64935 0
M  V30 1576 O 156.209 -1.59687 0.858466 0
M  V30 1577 C 156.257 0.661433 3.54482 0
M  V30 1578 O 155.361 -0.298851 4.11316 0
M  V30 1579 H 154.702 0.197158 0.634054 0
M  V30 1580 H 157.232 1.17455 1.67527 0
M  V30 1581 H 157.242 0.555072 4.04207 0
M  V30 1582 H 155.917 1.68246 3.8035 0
M  V30 1583 H 154.494 -0.147368 3.72609 0
M  V30 1584 N 156.679 -1.44442 0.630414 0
M  V30 1585 C 157.925 -2.02351 0.134816 0
M  V30 1586 C 158.258 -1.4947 -1.23986 0
M  V30 1587 O 157.533 -0.678475 -1.82283 0
M  V30 1588 C 157.816 -3.59898 0.120707 0
M  V30 1589 C 157.669 -4.23063 1.52767 0
M  V30 1590 C 158.988 -4.36585 -0.555127 0
M  V30 1591 H 156.107 -0.73527 0.0504646 0
M  V30 1592 H 158.749 -1.72022 0.806751 0
M  V30 1593 H 156.899 -3.85868 -0.451477 0
M  V30 1594 H 158.571 -4.08202 2.14869 0
M  V30 1595 H 156.814 -3.80586 2.08175 0
M  V30 1596 H 157.485 -5.32071 1.46984 0
M  V30 1597 H 159.961 -4.16044 -0.0685429 0
M  V30 1598 H 158.837 -5.46294 -0.534185 0
M  V30 1599 H 159.098 -4.11138 -1.62535 0
M  V30 1600 N 158.157 -0.370918 -1.53173 0
M  V30 1601 C 159.087 0.464847 -2.28826 0
M  V30 1602 C 160.068 1.07936 -1.31468 0
M  V30 1603 O 161.253 1.0956 -1.60344 0
M  V30 1604 C 158.383 1.60196 -3.08147 0
M  V30 1605 C 157.337 1.11443 -4.13237 0
M  V30 1606 C 156.663 2.3422 -4.80672 0
M  V30 1607 C 157.963 0.195384 -5.21934 0
M  V30 1608 H 159.657 -0.166329 -2.98938 0
M  V30 1609 H 157.203 -0.0814359 -1.4377 0
M  V30 1610 H 159.156 2.19332 -3.59822 0
M  V30 1611 H 157.88 2.26045 -2.35735 0
M  V30 1612 H 156.539 0.545727 -3.62515 0
M  V30 1613 H 156.187 2.98537 -4.04827 0
M  V30 1614 H 155.887 2.02269 -5.51689 0
M  V30 1615 H 157.411 2.94032 -5.35143 0
M  V30 1616 H 158.825 0.694375 -5.69079 0
M  V30 1617 H 157.222 -0.0335027 -6.00091 0
M  V30 1618 H 158.292 -0.760961 -4.78892 0
M  V30 1619 N 159.635 1.57281 -0.100228 0
M  V30 1620 C 160.865 1.98591 0.569681 0
M  V30 1621 C 161.273 0.978315 1.61943 0
M  V30 1622 O 160.616 -0.0396108 1.83657 0
M  V30 1623 C 160.678 3.36282 1.271 0
M  V30 1624 C 160.342 4.55488 0.371409 0
M  V30 1625 C 161.339 5.18491 -0.382504 0
M  V30 1626 C 159.024 5.01474 0.287965 0
M  V30 1627 C 161.018 6.25852 -1.20779 0
M  V30 1628 C 158.705 6.08701 -0.540965 0
M  V30 1629 C 159.703 6.70755 -1.28749 0
M  V30 1630 O 159.391 7.75914 -2.10269 0
M  V30 1631 H 159.123 0.65752 0.156982 0
M  V30 1632 H 161.677 2.0463 -0.177734 0
M  V30 1633 H 159.907 3.26941 2.0651 0
M  V30 1634 H 161.596 3.62005 1.83595 0
M  V30 1635 H 162.362 4.83891 -0.3278 0
M  V30 1636 H 158.241 4.52932 0.858689 0
M  V30 1637 H 161.785 6.74218 -1.79096 0
M  V30 1638 H 157.682 6.42732 -0.597131 0
M  V30 1639 H 158.45 7.92925 -2.03007 0
M  V30 1640 N 161.113 -0.173488 1.56642 0
M  V30 1641 C 162.341 -0.906095 1.86004 0
M  V30 1642 C 162.756 -1.75921 0.685355 0
M  V30 1643 O 162.113 -1.79198 -0.345578 0
M  V30 1644 C 162.164 -1.78462 3.14378 0
M  V30 1645 O 161.885 -0.965914 4.27319 0
M  V30 1646 C 163.386 -2.62707 3.57071 0
M  V30 1647 H 160.606 -0.263341 0.617165 0
M  V30 1648 H 163.15 -0.174236 2.03756 0
M  V30 1649 H 161.305 -2.46984 2.98459 0
M  V30 1650 H 161.719 -1.56655 5.00559 0
M  V30 1651 H 163.193 -3.19969 4.49804 0
M  V30 1652 H 163.67 -3.37472 2.81086 0
M  V30 1653 H 164.276 -1.99521 3.75595 0
M  V30 1654 N 162.591 -1.51276 -0.441967 0
M  V30 1655 C 163.837 -1.63958 -1.19355 0
M  V30 1656 C 164.17 -0.352543 -1.90973 0
M  V30 1657 O 163.445 0.647627 -1.83401 0
M  V30 1658 C 163.728 -2.83979 -2.21422 0
M  V30 1659 C 163.581 -4.22646 -1.53918 0
M  V30 1660 C 164.9 -2.99521 -3.22451 0
M  V30 1661 H 162.019 -0.596709 -0.432559 0
M  V30 1662 H 164.661 -1.83748 -0.483398 0
M  V30 1663 H 162.811 -2.67237 -2.81987 0
M  V30 1664 H 164.483 -4.51045 -0.967256 0
M  V30 1665 H 162.726 -4.25558 -0.841615 0
M  V30 1666 H 163.397 -5.02609 -2.28229 0
M  V30 1667 H 165.873 -3.14944 -2.71937 0
M  V30 1668 H 164.749 -3.85072 -3.91166 0
M  V30 1669 H 165.01 -2.11391 -3.88287 0
M  V30 1670 N 164.069 0.697108 -1.41344 0
M  V30 1671 C 165.297 1.48593 -1.43972 0
M  V30 1672 C 165.712 1.88747 -0.0445612 0
M  V30 1673 O 165.069 1.56682 0.935785 0
M  V30 1674 C 165.12 2.74946 -2.34706 0
M  V30 1675 O 164.841 2.36484 -3.68791 0
M  V30 1676 C 166.342 3.687 -2.46121 0
M  V30 1677 H 163.562 0.457964 -0.490418 0
M  V30 1678 H 166.106 0.858429 -1.8561 0
M  V30 1679 H 164.261 3.33937 -1.9638 0
M  V30 1680 H 164.675 3.17918 -4.17167 0
M  V30 1681 H 166.149 4.54145 -3.13777 0
M  V30 1682 H 166.626 4.13081 -1.49199 0
M  V30 1683 H 167.232 3.15613 -2.85076 0
M  V30 1684 N 165.547 1.27147 0.931209 0
M  V30 1685 C 166.477 1.12081 2.04842 0
M  V30 1686 C 167.458 0.0232364 1.70084 0
M  V30 1687 O 168.643 0.197085 1.93197 0
M  V30 1688 C 165.773 0.76354 3.38803 0
M  V30 1689 C 164.727 1.81396 3.87659 0
M  V30 1690 C 164.053 1.31075 5.18385 0
M  V30 1691 C 165.353 3.21739 4.11438 0
M  V30 1692 H 167.047 2.05537 2.17703 0
M  V30 1693 H 164.593 0.989603 1.04608 0
M  V30 1694 H 166.546 0.644982 4.16435 0
M  V30 1695 H 165.27 -0.206727 3.25945 0
M  V30 1696 H 163.929 1.92136 3.12217 0
M  V30 1697 H 163.577 0.330037 5.01916 0
M  V30 1698 H 163.277 2.013 5.52044 0
M  V30 1699 H 164.801 1.20506 5.98591 0
M  V30 1700 H 166.215 3.14019 4.79651 0
M  V30 1701 H 164.612 3.89644 4.56397 0
M  V30 1702 H 165.682 3.67054 3.16859 0
M  V30 1703 N 167.025 -1.13721 1.09112 0
M  V30 1704 C 168.271 -1.85413 0.836283 0
M  V30 1705 C 168.626 -1.8175 -0.631249 0
M  V30 1706 O 167.919 -1.24238 -1.45861 0
M  V30 1707 C 168.113 -3.32861 1.30146 0
M  V30 1708 C 167.942 -3.50882 2.81268 0
M  V30 1709 C 166.712 -3.65312 3.49106 0
M  V30 1710 C 168.91 -3.47196 3.7942 0
M  V30 1711 N 166.892 -3.71563 4.88686 0
M  V30 1712 C 168.263 -3.59777 5.04936 0
M  V30 1713 C 170.318 -3.30577 3.72321 0
M  V30 1714 C 169.021 -3.57455 6.24194 0
M  V30 1715 C 171.047 -3.29562 4.91063 0
M  V30 1716 C 170.409 -3.42691 6.15421 0
M  V30 1717 H 166.508 -0.694812 0.358832 0
M  V30 1718 H 169.092 -1.36246 1.39087 0
M  V30 1719 H 167.263 -3.80602 0.774361 0
M  V30 1720 H 168.995 -3.92346 0.99229 0
M  V30 1721 H 165.75 -3.6685 2.9953 0
M  V30 1722 H 166.174 -3.78387 5.61384 0
M  V30 1723 H 170.816 -3.19332 2.77105 0
M  V30 1724 H 168.534 -3.67475 7.19714 0
M  V30 1725 H 172.12 -3.17905 4.87266 0
M  V30 1726 H 171 -3.41862 7.05762 0
M  V30 1727 N 168.503 -0.877838 -1.30888 0
M  V30 1728 C 169.749 -0.493426 -1.96706 0
M  V30 1729 C 170.082 0.953504 -1.6918 0
M  V30 1730 O 169.357 1.67266 -0.992594 0
M  V30 1731 C 169.64 -0.760429 -3.51979 0
M  V30 1732 C 169.493 -2.25747 -3.89048 0
M  V30 1733 C 170.812 -0.232148 -4.39487 0
M  V30 1734 H 167.931 -0.180746 -0.714493 0
M  V30 1735 H 170.573 -1.10052 -1.54882 0
M  V30 1736 H 168.723 -0.243715 -3.87735 0
M  V30 1737 H 170.395 -2.84204 -3.63354 0
M  V30 1738 H 168.638 -2.72694 -3.37373 0
M  V30 1739 H 169.309 -2.39491 -4.97341 0
M  V30 1740 H 171.785 -0.674314 -4.106 0
M  V30 1741 H 170.661 -0.448355 -5.47066 0
M  V30 1742 H 170.922 0.866297 -4.33529 0
M  V30 1743 N 169.982 1.44106 -0.638065 0
M  V30 1744 C 170.892 2.34513 0.0637334 0
M  V30 1745 C 171.908 1.53018 0.828346 0
M  V30 1746 O 173.084 1.85723 0.779036 0
M  V30 1747 C 170.149 3.31095 1.02844 0
M  V30 1748 C 169.21 4.28497 0.26244 0
M  V30 1749 C 168.443 5.20465 1.1812 0
M  V30 1750 O 168.666 5.16514 2.42011 0
M  V30 1751 O 167.6 5.98251 0.661774 0
M  V30 1752 H 171.426 2.95989 -0.68003 0
M  V30 1753 H 169.011 1.43994 -0.398252 0
M  V30 1754 H 170.893 3.90526 1.58327 0
M  V30 1755 H 169.568 2.72144 1.7527 0
M  V30 1756 H 168.475 3.72592 -0.335602 0
M  V30 1757 H 169.808 4.90388 -0.421936 0
M  V30 1758 N 171.46 0.379036 1.52974 0
M  V30 1759 C 172.685 -0.209353 2.06341 0
M  V30 1760 C 173.11 -1.40583 1.24972 0
M  V30 1761 O 172.468 -1.79246 0.272155 0
M  V30 1762 C 172.516 -0.567786 3.56102 0
M  V30 1763 O 171.62 -1.66318 3.77375 0
M  V30 1764 H 170.961 -0.0272919 0.663439 0
M  V30 1765 H 173.491 0.543536 1.97248 0
M  V30 1766 H 173.501 -0.835003 3.99364 0
M  V30 1767 H 172.176 0.307013 4.14765 0
M  V30 1768 H 170.753 -1.39048 3.46006 0
M  V30 1769 N 172.938 -1.57226 0.108567 0
M  V30 1770 C 174.184 -1.95919 -0.546564 0
M  V30 1771 C 174.539 -0.990417 -1.6495 0
M  V30 1772 O 173.832 -0.0186593 -1.91591 0
M  V30 1773 C 174.026 -3.38911 -1.13463 0
M  V30 1774 C 173.855 -4.4961 -0.0901926 0
M  V30 1775 C 172.625 -5.04168 0.338008 0
M  V30 1776 C 174.823 -5.09693 0.686808 0
M  V30 1777 N 172.805 -5.98434 1.36931 0
M  V30 1778 C 174.176 -5.99804 1.56958 0
M  V30 1779 C 176.231 -4.92388 0.738846 0
M  V30 1780 C 174.934 -6.74463 2.49983 0
M  V30 1781 C 176.96 -5.67719 1.65676 0
M  V30 1782 C 176.322 -6.57507 2.52713 0
M  V30 1783 H 172.421 -0.763312 -0.169936 0
M  V30 1784 H 175.005 -1.93728 0.194264 0
M  V30 1785 H 173.176 -3.41769 -1.84522 0
M  V30 1786 H 174.908 -3.64752 -1.75322 0
M  V30 1787 H 171.663 -4.73571 -0.0523673 0
M  V30 1788 H 172.087 -6.5027 1.88356 0
M  V30 1789 H 176.729 -4.22724 0.080084 0
M  V30 1790 H 174.447 -7.4338 3.16878 0
M  V30 1791 H 178.033 -5.56338 1.70233 0
M  V30 1792 H 176.913 -7.14778 3.22586 0
M  V30 1793 N 174.416 0.165178 -1.56732 0
M  V30 1794 C 175.379 1.18822 -1.95995 0
M  V30 1795 C 176.379 1.3685 -0.84431 0
M  V30 1796 O 177.569 1.34152 -1.11126 0
M  V30 1797 C 174.701 2.5521 -2.26011 0
M  V30 1798 H 175.894 0.851825 -2.87548 0
M  V30 1799 H 173.447 0.407857 -1.50885 0
M  V30 1800 H 174.182 2.93852 -1.37191 0
M  V30 1801 H 173.967 2.43489 -3.07336 0
M  V30 1802 H 175.457 3.28927 -2.57288 0
M  V30 1803 N 175.894 1.51508 0.433938 0
M  V30 1804 C 177.31 1.39759 0.770682 0
M  V30 1805 C 177.51 0.482594 1.95636 0
M  V30 1806 O 176.566 -0.0609691 2.52426 0
M  V30 1807 C 177.879 2.81851 1.04787 0
M  V30 1808 C 179.427 2.91025 1.1521 0
M  V30 1809 C 179.902 4.34032 1.46219 0
M  V30 1810 N 181.393 4.37154 1.53136 0
M  V30 1811 C 182.128 5.4484 1.78709 0
M  V30 1812 N 181.624 6.62682 2.02051 0
M  V30 1813 N 183.417 5.32324 1.80519 0
M  V30 1814 H 175.568 2.09548 -0.346892 0
M  V30 1815 H 177.831 0.943446 -0.0928074 0
M  V30 1816 H 177.537 3.50815 0.249304 0
M  V30 1817 H 177.411 3.21386 1.97461 0
M  V30 1818 H 179.798 2.22257 1.94128 0
M  V30 1819 H 179.879 2.54983 0.204281 0
M  V30 1820 H 179.523 5.03351 0.678274 0
M  V30 1821 H 179.453 4.6759 2.42212 0
M  V30 1822 H 181.944 3.52197 1.36987 0
M  V30 1823 H 182.257 7.40543 2.20943 0
M  V30 1824 H 180.602 6.65791 1.99366 0
M  V30 1825 H 183.793 4.39246 1.61805 0
M  V30 1826 H 183.966 6.16328 2.00111 0
M  V30 1827 N 177.372 -0.689602 1.41712 0
M  V30 1828 C 178.32 -1.82475 1.44242 0
M  V30 1829 C 179.314 -1.66354 0.319774 0
M  V30 1830 O 180.52 -1.73143 0.492089 0
M  V30 1831 H 176.895 -0.601416 0.451445 0
M  V30 1832 H 178.866 -1.77458 2.39899 0
M  V30 1833 C 177.615 -3.20535 1.3473 0
M  V30 1834 H 176.938 -3.33559 2.20405 0
M  V30 1835 H 178.378 -4.00023 1.40562 0
M  V30 1836 C 176.837 -3.36846 0.0603281 0
M  V30 1837 O 177.367 -3.91656 -0.892663 0
M  V30 1838 N 175.573 -2.90595 -0.0177039 0
M  V30 1839 H 175.12 -2.46178 0.758572 0
M  V30 1840 H 175.078 -3.01886 -0.878201 0
M  V30 1841 N 178.85 -1.27639 -0.924453 0
M  V30 1842 C 179.782 -1.06442 -2.02985 0
M  V30 1843 C 180.795 -0.0194771 -1.62788 0
M  V30 1844 O 181.984 -0.261388 -1.76576 0
M  V30 1845 C 179.084 -0.59327 -3.33667 0
M  V30 1846 C 178.257 -1.71123 -4.02537 0
M  V30 1847 C 177.316 -1.23527 -5.11495 0
M  V30 1848 O 176.342 -1.93553 -5.35281 0
M  V30 1849 N 177.544 -0.0926678 -5.80426 0
M  V30 1850 H 180.309 -2.01633 -2.2173 0
M  V30 1851 H 177.87 -1.19248 -1.09505 0
M  V30 1852 H 179.862 -0.258686 -4.03872 0
M  V30 1853 H 178.432 0.265502 -3.1147 0
M  V30 1854 H 177.652 -2.21593 -3.26022 0
M  V30 1855 H 178.94 -2.46145 -4.45298 0
M  V30 1856 H 178.338 0.491741 -5.63559 0
M  V30 1857 H 176.895 0.182714 -6.51544 0
M  V30 1858 N 180.328 1.1314 -1.09713 0
M  V30 1859 C 181.556 1.88321 -0.856898 0
M  V30 1860 C 181.971 1.79276 0.592073 0
M  V30 1861 O 181.328 1.16142 1.40774 0
M  V30 1862 C 181.379 3.37812 -1.28706 0
M  V30 1863 O 181.1 3.46627 -2.67921 0
M  V30 1864 C 182.601 4.29952 -1.07964 0
M  V30 1865 H 179.821 0.596094 -0.308079 0
M  V30 1866 H 182.365 1.43205 -1.45988 0
M  V30 1867 H 180.52 3.805 -0.727912 0
M  V30 1868 H 180.934 4.39579 -2.8613 0
M  V30 1869 H 182.408 5.33159 -1.42986 0
M  V30 1870 H 182.885 4.39196 -0.0176577 0
M  V30 1871 H 183.491 3.93036 -1.62489 0
M  V30 1872 N 181.806 0.884767 1.30421 0
M  V30 1873 C 182.716 0.355398 2.31892 0
M  V30 1874 C 183.732 -0.542261 1.65335 0
M  V30 1875 O 184.908 -0.435432 1.96637 0
M  V30 1876 C 181.973 -0.421661 3.44126 0
M  V30 1877 C 181.034 0.505727 4.26311 0
M  V30 1878 C 180.267 -0.234343 5.33185 0
M  V30 1879 O 180.49 -1.46045 5.51386 0
M  V30 1880 O 179.424 0.415443 6.00465 0
M  V30 1881 H 183.25 1.19685 2.79122 0
M  V30 1882 H 180.835 0.648596 1.34587 0
M  V30 1883 H 182.717 -0.861641 4.12497 0
M  V30 1884 H 181.392 -1.23942 2.99032 0
M  V30 1885 H 180.299 0.994513 3.60639 0
M  V30 1886 H 181.632 1.28948 4.75009 0
M  V30 1887 N 183.284 -1.43765 0.645699 0
M  V30 1888 C 184.231 -2.30745 -0.0504648 0
M  V30 1889 C 185.201 -1.4432 -0.822241 0
M  V30 1890 O 186.386 -1.73202 -0.800358 0
M  V30 1891 C 183.526 -3.29802 -1.0161 0
M  V30 1892 C 182.639 -4.31326 -0.241219 0
M  V30 1893 C 181.774 -5.17469 -1.19998 0
M  V30 1894 C 180.813 -6.10691 -0.415094 0
M  V30 1895 N 179.95 -6.89483 -1.32506 0
M  V30 1896 H 184.79 -2.8973 0.697155 0
M  V30 1897 H 182.327 -1.42738 0.355563 0
M  V30 1898 H 184.285 -3.85734 -1.58949 0
M  V30 1899 H 182.915 -2.72483 -1.73069 0
M  V30 1900 H 181.967 -3.77749 0.448334 0
M  V30 1901 H 183.279 -4.9743 0.369437 0
M  V30 1902 H 182.433 -5.7799 -1.84424 0
M  V30 1903 H 181.172 -4.51473 -1.84455 0
M  V30 1904 H 180.177 -5.49265 0.242565 0
M  V30 1905 H 181.402 -6.78727 0.224966 0
M  V30 1906 H 179.348 -6.26142 -1.95657 0
M  V30 1907 H 179.265 -7.52081 -0.768783 0
M  V30 1908 H 180.533 -7.54516 -1.9577 0
M  V30 1909 N 184.763 -0.387143 -1.52771 0
M  V30 1910 C 185.988 0.198407 -2.06449 0
M  V30 1911 C 186.413 1.39918 -1.25716 0
M  V30 1912 O 185.771 1.79099 -0.281657 0
M  V30 1913 C 185.819 0.548893 -3.56398 0
M  V30 1914 O 184.923 1.64315 -3.78252 0
M  V30 1915 H 184.264 0.0237731 -0.663574 0
M  V30 1916 H 186.794 -0.553989 -1.96957 0
M  V30 1917 H 186.804 0.813812 -3.99801 0
M  V30 1918 H 185.479 -0.329005 -4.14597 0
M  V30 1919 H 184.056 1.37211 -3.46738 0
M  V30 1920 N 186.241 1.57166 -0.116904 0
M  V30 1921 C 187.652 1.82169 0.408809 0
M  V30 1922 C 188.003 1.03393 1.66746 0
M  V30 1923 O 187.128 0.269886 2.1471 0
M  V30 1924 C 187.723 3.30429 0.748466 0
M  V30 1925 C 186.282 3.5612 1.21882 0
M  V30 1926 C 185.429 2.76374 0.226452 0
M  V30 1927 H 188.38 1.5497 -0.342063 0
M  V30 1928 H 188.401 3.44943 1.60607 0
M  V30 1929 H 187.913 3.87737 -0.167784 0
M  V30 1930 H 186.014 3.04168 2.15204 0
M  V30 1931 H 186.127 4.64705 1.16559 0
M  V30 1932 H 184.491 2.44515 0.713063 0
M  V30 1933 H 185.274 3.3644 -0.682859 0
M  V30 1934 N 187.719 -0.156864 1.56817 0
M  V30 1935 C 188.629 -1.2136 2.00771 0
M  V30 1936 C 189.645 -1.47598 0.921459 0
M  V30 1937 O 190.821 -1.59462 1.2302 0
M  V30 1938 C 187.886 -2.52943 2.37109 0
M  V30 1939 C 186.947 -2.34439 3.59634 0
M  V30 1940 C 186.18 -3.59748 3.94229 0
M  V30 1941 O 186.403 -4.65526 3.29609 0
M  V30 1942 O 185.337 -3.52998 4.8752 0
M  V30 1943 H 189.163 -0.870468 2.90958 0
M  V30 1944 H 186.748 -0.36484 1.44877 0
M  V30 1945 H 188.63 -3.30538 2.61386 0
M  V30 1946 H 187.305 -2.86806 1.5008 0
M  V30 1947 H 186.212 -1.54828 3.40557 0
M  V30 1948 H 187.545 -2.05496 4.4725 0
M  V30 1949 N 189.197 -1.51736 -0.425897 0
M  V30 1950 C 190.443 -1.65214 -1.1761 0
M  V30 1951 C 190.776 -0.372778 -1.90589 0
M  V30 1952 O 190.051 0.628139 -1.84078 0
M  V30 1953 C 190.334 -2.86312 -2.18398 0
M  V30 1954 C 190.187 -4.24254 -1.49426 0
M  V30 1955 C 191.506 -3.02925 -3.19256 0
M  V30 1956 H 188.625 -0.601263 -0.426206 0
M  V30 1957 H 191.267 -1.8425 -0.463882 0
M  V30 1958 H 189.417 -2.70213 -2.79137 0
M  V30 1959 H 191.089 -4.52046 -0.919362 0
M  V30 1960 H 189.332 -4.26426 -0.796432 0
M  V30 1961 H 190.003 -5.05001 -2.22885 0
M  V30 1962 H 192.479 -3.1781 -2.68581 0
M  V30 1963 H 191.355 -3.89199 -3.8706 0
M  V30 1964 H 191.616 -2.15497 -3.86023 0
M  V30 1965 N 190.675 0.682077 -1.42076 0
M  V30 1966 C 191.903 1.47057 -1.4554 0
M  V30 1967 C 192.318 1.8869 -0.0645779 0
M  V30 1968 O 191.675 1.57666 0.919115 0
M  V30 1969 C 191.726 2.72442 -2.37609 0
M  V30 1970 O 191.447 2.32559 -3.71279 0
M  V30 1971 C 192.948 3.66069 -2.50017 0
M  V30 1972 H 190.168 0.452737 -0.495248 0
M  V30 1973 H 192.712 0.838695 -1.8651 0
M  V30 1974 H 190.867 3.31835 -1.9991 0
M  V30 1975 H 191.281 3.13475 -4.20516 0
M  V30 1976 H 192.755 4.50792 -3.18576 0
M  V30 1977 H 193.232 4.11476 -1.53572 0
M  V30 1978 H 193.838 3.12572 -2.88407 0
M  V30 1979 N 192.153 1.28127 0.917671 0
M  V30 1980 C 193.083 1.14248 2.03641 0
M  V30 1981 C 194.064 0.0412748 1.7005 0
M  V30 1982 O 195.249 0.217566 1.92977 0
M  V30 1983 C 192.379 0.799431 3.37974 0
M  V30 1984 C 191.333 1.85497 3.85713 0
M  V30 1985 C 190.659 1.36565 5.16966 0
M  V30 1986 C 191.959 3.26085 4.08002 0
M  V30 1987 H 193.653 2.07835 2.15511 0
M  V30 1988 H 191.199 1.00064 1.03553 0
M  V30 1989 H 193.152 0.689114 4.15727 0
M  V30 1990 H 191.876 -0.172145 3.26146 0
M  V30 1991 H 190.535 1.95437 3.10161 0
M  V30 1992 H 190.183 0.383253 5.01538 0
M  V30 1993 H 189.883 2.07143 5.49878 0
M  V30 1994 H 191.407 1.26848 5.97279 0
M  V30 1995 H 192.821 3.19089 4.76293 0
M  V30 1996 H 191.218 3.94462 4.52238 0
M  V30 1997 H 192.288 3.70394 3.12948 0
M  V30 1998 N 193.631 -1.12557 1.10312 0
M  V30 1999 C 194.563 -2.17971 0.708625 0
M  V30 2000 C 195.576 -1.60806 -0.254027 0
M  V30 2001 O 196.765 -1.78458 -0.0386891 0
M  V30 2002 C 193.865 -3.38891 0.0248198 0
M  V30 2003 C 193.038 -4.25548 1.01132 0
M  V30 2004 C 192.097 -5.24972 0.35924 0
M  V30 2005 O 191.123 -5.60174 1.00965 0
M  V30 2006 N 192.325 -5.73747 -0.882847 0
M  V30 2007 H 195.09 -2.52427 1.61557 0
M  V30 2008 H 192.651 -1.27967 0.991771 0
M  V30 2009 H 194.643 -4.02485 -0.422852 0
M  V30 2010 H 193.213 -3.02596 -0.784514 0
M  V30 2011 H 192.433 -3.58589 1.6373 0
M  V30 2012 H 193.721 -4.80294 1.67914 0
M  V30 2013 H 193.119 -5.4731 -1.43065 0
M  V30 2014 H 191.676 -6.39234 -1.27369 0
M  V30 2015 N 195.109 -0.891671 -1.2995 0
M  V30 2016 C 196.039 -0.379797 -2.30391 0
M  V30 2017 C 197.02 0.540919 -1.6127 0
M  V30 2018 O 198.205 0.453352 -1.88834 0
M  V30 2019 C 195.335 0.400654 -3.44981 0
M  V30 2020 C 194.289 -0.428905 -4.25846 0
M  V30 2021 C 193.615 0.478557 -5.32554 0
M  V30 2022 C 194.915 -1.67458 -4.94727 0
M  V30 2023 H 196.609 -1.21914 -2.73454 0
M  V30 2024 H 194.155 -0.587675 -1.31462 0
M  V30 2025 H 196.108 0.769434 -4.14316 0
M  V30 2026 H 194.832 1.27371 -3.0074 0
M  V30 2027 H 193.491 -0.779911 -3.58208 0
M  V30 2028 H 193.139 1.34951 -4.84559 0
M  V30 2029 H 192.839 -0.0727433 -5.87555 0
M  V30 2030 H 194.363 0.843705 -6.04743 0
M  V30 2031 H 195.777 -1.376 -5.56542 0
M  V30 2032 H 194.174 -2.16659 -5.59624 0
M  V30 2033 H 195.244 -2.41518 -4.20473 0
M  V30 2034 N 196.587 1.43421 -0.653314 0
M  V30 2035 C 197.817 2.05864 -0.174238 0
M  V30 2036 C 198.225 1.49052 1.16534 0
M  V30 2037 O 197.568 0.616481 1.73047 0
M  V30 2038 C 197.63 3.59499 -0.00875873 0
M  V30 2039 C 197.294 4.38893 -1.27364 0
M  V30 2040 C 198.291 4.70947 -2.20239 0
M  V30 2041 C 195.976 4.789 -1.51525 0
M  V30 2042 C 197.97 5.41916 -3.35568 0
M  V30 2043 C 195.657 5.49614 -2.67147 0
M  V30 2044 C 196.655 5.81044 -3.58994 0
M  V30 2045 O 196.343 6.50313 -4.72597 0
M  V30 2046 H 196.075 0.670345 -0.0872549 0
M  V30 2047 H 198.629 1.84913 -0.894226 0
M  V30 2048 H 196.859 3.79025 0.7666 0
M  V30 2049 H 198.548 4.0364 0.427687 0
M  V30 2050 H 199.314 4.40558 -2.02815 0
M  V30 2051 H 195.193 4.53843 -0.809158 0
M  V30 2052 H 198.737 5.66365 -4.07279 0
M  V30 2053 H 194.634 5.79419 -2.84505 0
M  V30 2054 H 195.402 6.68795 -4.71864 0
M  V30 2055 N 198.065 0.39524 1.52563 0
M  V30 2056 C 199.013 -0.451859 2.28169 0
M  V30 2057 C 200.007 -1.05792 1.32304 0
M  V30 2058 O 201.213 -0.997718 1.49818 0
M  V30 2059 H 197.588 -0.164481 0.733792 0
M  V30 2060 H 199.559 0.207199 2.9768 0
M  V30 2061 C 198.308 -1.56385 3.10546 0
M  V30 2062 H 197.631 -1.10682 3.84174 0
M  V30 2063 H 199.071 -2.13067 3.66577 0
M  V30 2064 C 197.53 -2.52328 2.23231 0
M  V30 2065 O 198.06 -3.5588 1.86312 0
M  V30 2066 N 196.266 -2.22209 1.87274 0
M  V30 2067 H 195.813 -1.38033 2.17496 0
M  V30 2068 H 195.771 -2.86652 1.29143 0
M  V30 2069 N 199.544 -1.57102 0.125237 0
M  V30 2070 C 200.769 -2.0019 -0.542101 0
M  V30 2071 C 201.194 -1.00449 -1.59034 0
M  V30 2072 O 200.552 0.0229423 -1.81285 0
M  V30 2073 C 200.6 -3.42129 -1.13929 0
M  V30 2074 O 199.704 -3.45307 -2.2547 0
M  V30 2075 H 199.045 -0.650171 -0.134812 0
M  V30 2076 H 201.575 -2.03461 0.215553 0
M  V30 2077 H 201.585 -3.80471 -1.4733 0
M  V30 2078 H 200.26 -4.14237 -0.371531 0
M  V30 2079 H 198.837 -3.1879 -1.93462 0
M  V30 2080 N 201.022 0.148545 -1.56898 0
M  V30 2081 C 202.268 0.862694 -1.83536 0
M  V30 2082 C 202.601 1.80889 -0.706604 0
M  V30 2083 O 201.876 1.92328 0.289885 0
M  V30 2084 C 202.159 1.63853 -3.20662 0
M  V30 2085 C 202.012 0.713925 -4.44098 0
M  V30 2086 C 203.331 2.60133 -3.54991 0
M  V30 2087 H 200.45 0.312179 -0.667618 0
M  V30 2088 H 203.092 0.127953 -1.89569 0
M  V30 2089 H 201.242 2.26489 -3.1565 0
M  V30 2090 H 202.914 0.098686 -4.61194 0
M  V30 2091 H 201.157 0.0234019 -4.33794 0
M  V30 2092 H 201.828 1.29278 -5.36648 0
M  V30 2093 H 204.304 2.07616 -3.60603 0
M  V30 2094 H 203.18 3.11468 -4.51972 0
M  V30 2095 H 203.441 3.41417 -2.80868 0
M  V30 2096 N 202.5 1.5196 0.417844 0
M  V30 2097 C 203.447 1.74678 1.50852 0
M  V30 2098 C 204.417 0.588947 1.55308 0
M  V30 2099 O 205.602 0.825544 1.72016 0
M  V30 2100 C 202.742 1.89544 2.88387 0
M  V30 2101 C 201.855 3.17166 2.93309 0
M  V30 2102 C 200.99 3.22513 4.22088 0
M  V30 2103 C 200.029 4.44372 4.20951 0
M  V30 2104 N 199.166 4.47161 5.41287 0
M  V30 2105 H 204.006 2.67768 1.30783 0
M  V30 2106 H 201.543 1.32689 0.63498 0
M  V30 2107 H 203.501 1.96146 3.68216 0
M  V30 2108 H 202.131 0.998424 3.06971 0
M  V30 2109 H 201.183 3.19778 2.06024 0
M  V30 2110 H 202.495 4.07021 2.88332 0
M  V30 2111 H 201.649 3.28139 5.10303 0
M  V30 2112 H 200.388 2.30581 4.29748 0
M  V30 2113 H 199.393 4.38902 3.31127 0
M  V30 2114 H 200.618 5.3759 4.14938 0
M  V30 2115 H 198.564 3.58108 5.49632 0
M  V30 2116 H 198.481 5.3085 5.3827 0
M  V30 2117 H 199.749 4.57005 6.3148 0
M  V30 2118 N 203.978 -0.674533 1.42435 0
M  V30 2119 C 205.208 -1.46071 1.46105 0
M  V30 2120 C 205.616 -1.89067 0.0709605 0
M  V30 2121 O 204.959 -1.58731 -0.924677 0
M  V30 2122 C 205.021 -2.74145 2.32561 0
M  V30 2123 C 204.685 -2.53224 3.8043 0
M  V30 2124 C 205.682 -2.17809 4.72075 0
M  V30 2125 C 203.367 -2.6821 4.24698 0
M  V30 2126 C 205.361 -1.97648 6.05982 0
M  V30 2127 C 203.048 -2.47665 5.58664 0
M  V30 2128 C 204.046 -2.12437 6.49122 0
M  V30 2129 O 203.734 -1.9209 7.80613 0
M  V30 2130 H 203.466 -0.455959 0.499076 0
M  V30 2131 H 206.02 -0.836193 1.87609 0
M  V30 2132 H 204.25 -3.3908 1.85908 0
M  V30 2133 H 205.939 -3.36028 2.27683 0
M  V30 2134 H 206.705 -2.05826 4.39159 0
M  V30 2135 H 202.584 -2.94609 3.54579 0
M  V30 2136 H 206.128 -1.70075 6.7655 0
M  V30 2137 H 202.025 -2.59244 5.91154 0
M  V30 2138 H 202.793 -2.06686 7.91974 0
M  V30 2139 N 205.456 -1.28612 -0.910864 0
M  V30 2140 C 206.366 -1.14643 -2.0468 0
M  V30 2141 C 207.382 -0.0723121 -1.7385 0
M  V30 2142 O 208.558 -0.282178 -1.99413 0
M  V30 2143 C 205.623 -0.812561 -3.37044 0
M  V30 2144 C 204.684 -1.96935 -3.81465 0
M  V30 2145 C 203.917 -1.65131 -5.07511 0
M  V30 2146 O 204.14 -0.567013 -5.67575 0
M  V30 2147 O 203.074 -2.49585 -5.47714 0
M  V30 2148 H 206.9 -2.1001 -2.19384 0
M  V30 2149 H 204.485 -1.07958 -1.03274 0
M  V30 2150 H 206.367 -0.640441 -4.16505 0
M  V30 2151 H 205.042 0.111426 -3.23508 0
M  V30 2152 H 203.949 -2.19664 -3.02818 0
M  V30 2153 H 205.282 -2.87414 -3.99567 0
M  V30 2154 N 206.934 1.1197 -1.10907 0
M  V30 2155 C 208.345 1.65114 -0.871446 0
M  V30 2156 C 208.696 1.86885 0.597353 0
M  V30 2157 O 207.821 1.59896 1.45816 0
M  V30 2158 C 208.416 2.99944 -1.5754 0
M  V30 2159 C 206.975 3.50018 -1.38435 0
M  V30 2160 C 206.122 2.24941 -1.62164 0
M  V30 2161 H 209.073 0.956851 -1.2661 0
M  V30 2162 H 209.094 3.66651 -1.01721 0
M  V30 2163 H 208.606 2.84067 -2.64438 0
M  V30 2164 H 206.707 3.71071 -0.337214 0
M  V30 2165 H 206.82 4.29165 -2.12965 0
M  V30 2166 H 205.184 2.3229 -1.04467 0
M  V30 2167 H 205.967 2.11612 -2.70324 0
M  V30 2168 N 208.412 0.89855 1.29475 0
M  V30 2169 C 209.823 0.572537 1.77705 0
M  V30 2170 C 210.174 -0.911778 1.73727 0
M  V30 2171 O 209.299 -1.71288 1.32247 0
M  V30 2172 C 209.894 1.03252 3.22683 0
M  V30 2173 C 208.453 0.757687 3.68695 0
M  V30 2174 C 207.6 1.20787 2.49612 0
M  V30 2175 H 210.551 1.08139 1.16153 0
M  V30 2176 H 210.572 0.367307 3.78723 0
M  V30 2177 H 210.084 2.11285 3.25546 0
M  V30 2178 H 208.185 -0.310079 3.71308 0
M  V30 2179 H 208.298 1.35476 4.59547 0
M  V30 2180 H 206.662 0.626888 2.46865 0
M  V30 2181 H 207.445 2.29622 2.55203 0
M  V30 2182 N 209.89 -1.43072 0.660911 0
M  V30 2183 C 210.82 -2.33497 -0.0122829 0
M  V30 2184 C 211.801 -1.49903 -0.803925 0
M  V30 2185 O 212.986 -1.78546 -0.763864 0
M  V30 2186 C 210.116 -3.33363 -0.973994 0
M  V30 2187 C 209.07 -4.27003 -0.291928 0
M  V30 2188 C 208.396 -5.16967 -1.36562 0
M  V30 2189 C 209.696 -5.15816 0.820462 0
M  V30 2190 H 211.39 -2.90038 0.742873 0
M  V30 2191 H 208.936 -1.39461 0.358688 0
M  V30 2192 H 210.889 -3.95524 -1.45392 0
M  V30 2193 H 209.613 -2.75095 -1.7604 0
M  V30 2194 H 208.272 -3.66217 0.167623 0
M  V30 2195 H 207.92 -4.55034 -2.14366 0
M  V30 2196 H 207.62 -5.80441 -0.914454 0
M  V30 2197 H 209.144 -5.82003 -1.84675 0
M  V30 2198 H 210.558 -5.71742 0.422366 0
M  V30 2199 H 208.955 -5.8805 1.19656 0
M  V30 2200 H 210.025 -4.55045 1.67518 0
M  V30 2201 N 211.368 -0.403325 -1.52352 0
M  V30 2202 C 212.616 0.174003 -2.0135 0
M  V30 2203 C 212.937 1.46139 -1.29106 0
M  V30 2204 O 212.207 1.91448 -0.415253 0
M  V30 2205 H 210.787 0.0672911 -0.743963 0
M  V30 2206 H 213.449 -0.538235 -1.87321 0
M  V30 2207 H 212.545 0.374254 -3.09848 0
M  V30 2208 N 212.846 1.57033 -0.133567 0
M  V30 2209 C 214.123 1.87256 0.56522 0
M  V30 2210 C 214.503 1.03726 1.83859 0
M  V30 2211 O 213.851 0.120247 2.28183 0
M  V30 2212 C 214.061 3.3865 0.843636 0
M  V30 2213 C 215.409 4.07574 1.19032 0
M  V30 2214 O 216.433 3.43752 0.933429 0
M  V30 2215 O 215.292 5.20259 1.67312 0
M  V30 2216 H 212.386 0.775678 0.286796 0
M  V30 2217 H 214.932 1.68855 -0.169168 0
M  V30 2218 H 213.704 3.91257 -0.0581149 0
M  V30 2219 H 213.327 3.62532 1.63268 0
M  V30 2220 N 214.325 -0.140222 1.56975 0
M  V30 2221 C 215.574 -0.850152 1.82908 0
M  V30 2222 C 215.887 -1.82028 0.715892 0
M  V30 2223 O 217.093 -2.57485 0.861016 0
M  V30 2224 C 215.549 -1.5625 3.24213 0
M  V30 2225 C 215.157 -0.63443 4.43485 0
M  V30 2226 C 216.901 -2.25881 3.59413 0
M  V30 2227 C 214.808 -1.34879 5.75814 0
M  V30 2228 H 213.738 -0.321221 0.682153 0
M  V30 2229 H 216.389 -0.102874 1.83211 0
M  V30 2230 H 214.771 -2.35565 3.18316 0
M  V30 2231 H 215.945 0.12398 4.60633 0
M  V30 2232 H 214.26 -0.0461836 4.16374 0
M  V30 2233 H 216.857 -2.79978 4.5554 0
M  V30 2234 H 217.2 -3.02693 2.85802 0
M  V30 2235 H 217.733 -1.53477 3.67001 0
M  V30 2236 H 214.472 -0.622385 6.52539 0
M  V30 2237 H 213.992 -2.07974 5.6259 0
M  V30 2238 H 215.671 -1.88784 6.18845 0
M  V30 2239 N 215.803 -1.52179 -0.40978 0
M  V30 2240 C 216.75 -1.75475 -1.49924 0
M  V30 2241 C 217.72 -0.597175 -1.54994 0
M  V30 2242 O 218.905 -0.834655 -1.71575 0
M  V30 2243 C 216.045 -1.9107 -2.87378 0
M  V30 2244 C 215.158 -3.18717 -2.91622 0
M  V30 2245 C 214.293 -3.24747 -4.20372 0
M  V30 2246 C 213.332 -4.46598 -4.18588 0
M  V30 2247 N 212.469 -4.50025 -5.38908 0
M  V30 2248 H 217.309 -2.68458 -1.29361 0
M  V30 2249 H 214.846 -1.33024 -0.627934 0
M  V30 2250 H 216.804 -1.98096 -3.6717 0
M  V30 2251 H 215.434 -1.01469 -3.06437 0
M  V30 2252 H 214.486 -3.20866 -2.04326 0
M  V30 2253 H 215.798 -4.08544 -2.86169 0
M  V30 2254 H 214.952 -3.30841 -5.08556 0
M  V30 2255 H 213.691 -2.32857 -4.28519 0
M  V30 2256 H 212.696 -4.40652 -3.28794 0
M  V30 2257 H 213.921 -5.39783 -4.12081 0
M  V30 2258 H 211.867 -3.61017 -5.47725 0
M  V30 2259 H 211.784 -5.33697 -5.35447 0
M  V30 2260 H 213.052 -4.60347 -6.29048 0
M  V30 2261 N 217.281 0.66697 -1.42791 0
M  V30 2262 C 218.527 1.4291 -1.43891 0
M  V30 2263 C 218.86 1.94114 -0.0578972 0
M  V30 2264 O 218.135 1.71414 0.91911 0
M  V30 2265 C 218.418 2.62049 -2.46987 0
M  V30 2266 C 218.271 2.16426 -3.94309 0
M  V30 2267 C 219.59 3.64266 -2.46978 0
M  V30 2268 H 216.709 0.518306 -0.523954 0
M  V30 2269 H 219.351 0.757321 -1.74255 0
M  V30 2270 H 217.501 3.19361 -2.21225 0
M  V30 2271 H 219.173 1.64221 -4.31079 0
M  V30 2272 H 217.416 1.47925 -4.078 0
M  V30 2273 H 218.087 3.02038 -4.62036 0
M  V30 2274 H 220.563 3.16686 -2.69906 0
M  V30 2275 H 219.439 4.45196 -3.21079 0
M  V30 2276 H 219.7 4.15927 -1.49857 0
M  V30 2277 N 218.759 1.29093 0.90403 0
M  V30 2278 C 219.984 1.19809 1.69294 0
M  V30 2279 C 220.409 -0.238481 1.86582 0
M  V30 2280 O 219.767 -1.1723 1.383 0
M  V30 2281 C 219.815 1.91202 3.05736 0
M  V30 2282 O 218.919 1.22611 3.93752 0
M  V30 2283 H 218.26 0.415385 0.518027 0
M  V30 2284 H 220.79 1.70586 1.12967 0
M  V30 2285 H 220.8 1.99487 3.55906 0
M  V30 2286 H 219.475 2.95692 2.92471 0
M  V30 2287 H 218.052 1.22554 3.52186 0
M  V30 2288 N 220.237 -1.11381 1.11499 0
M  V30 2289 C 221.184 -2.17439 0.773887 0
M  V30 2290 C 222.154 -1.64132 -0.254899 0
M  V30 2291 O 223.339 -1.90345 -0.13168 0
M  V30 2292 C 220.479 -3.44373 0.223917 0
M  V30 2293 C 219.592 -4.1168 1.30934 0
M  V30 2294 C 218.727 -5.263 0.71984 0
M  V30 2295 C 217.766 -5.85493 1.78507 0
M  V30 2296 N 216.903 -6.91507 1.21502 0
M  V30 2297 H 221.743 -2.45962 1.68246 0
M  V30 2298 H 219.28 -1.20744 0.840191 0
M  V30 2299 H 221.238 -4.17047 -0.112921 0
M  V30 2300 H 219.868 -3.16232 -0.647851 0
M  V30 2301 H 218.92 -3.37073 1.76312 0
M  V30 2302 H 220.232 -4.51729 2.11524 0
M  V30 2303 H 219.386 -6.05785 0.333094 0
M  V30 2304 H 218.125 -4.87559 -0.117377 0
M  V30 2305 H 217.13 -5.04686 2.18111 0
M  V30 2306 H 218.355 -6.26301 2.62533 0
M  V30 2307 H 216.301 -6.54783 0.399455 0
M  V30 2308 H 216.218 -7.30214 1.95763 0
M  V30 2309 H 217.486 -7.74795 0.855181 0
M  V30 2310 N 221.715 -0.905404 -1.28997 0
M  V30 2311 C 222.645 -0.404212 -2.29975 0
M  V30 2312 C 223.626 0.523784 -1.61835 0
M  V30 2313 O 224.811 0.433298 -1.89304 0
M  V30 2314 C 221.941 0.364042 -3.45387 0
M  V30 2315 C 220.895 -0.474048 -4.25367 0
M  V30 2316 C 220.221 0.422045 -5.33032 0
M  V30 2317 C 221.521 -1.72696 -4.92923 0
M  V30 2318 H 223.215 -1.24807 -2.72146 0
M  V30 2319 H 220.761 -0.601585 -1.30832 0
M  V30 2320 H 222.714 0.725447 -4.15109 0
M  V30 2321 H 221.438 1.24174 -3.02074 0
M  V30 2322 H 220.097 -0.81786 -3.57361 0
M  V30 2323 H 219.745 1.29804 -4.85963 0
M  V30 2324 H 219.445 -0.135057 -5.87445 0
M  V30 2325 H 220.969 0.779517 -6.05604 0
M  V30 2326 H 222.383 -1.43495 -5.55051 0
M  V30 2327 H 220.78 -2.22582 -5.57295 0
M  V30 2328 H 221.85 -2.45964 -4.17887 0
M  V30 2329 N 223.193 1.4272 -0.668489 0
M  V30 2330 C 224.156 2.292 0.00448567 0
M  V30 2331 C 225.156 1.43001 0.735339 0
M  V30 2332 O 226.346 1.64461 0.57429 0
M  V30 2333 C 223.478 3.25375 1.01705 0
M  V30 2334 H 224.671 2.90199 -0.756608 0
M  V30 2335 H 222.224 1.50254 -0.430506 0
M  V30 2336 H 222.959 2.69301 1.80686 0
M  V30 2337 H 222.744 3.88944 0.496463 0
M  V30 2338 H 224.234 3.90245 1.48655 0
M  V30 2339 N 224.671 0.411399 1.52136 0
M  V30 2340 C 225.919 -0.163322 2.01439 0
M  V30 2341 C 226.24 -1.45453 1.29879 0
M  V30 2342 O 225.51 -1.91225 0.4254 0
M  V30 2343 H 224.09 -0.0633447 0.744309 0
M  V30 2344 H 226.752 0.548161 1.87033 0
M  V30 2345 H 225.848 -0.357817 3.10042 0
M  V30 2346 N 226.149 -1.5696 0.141893 0
M  V30 2347 C 227.081 -2.13619 -0.830627 0
M  V30 2348 C 228.094 -1.08439 -1.21428 0
M  V30 2349 O 229.283 -1.35734 -1.15925 0
M  V30 2350 C 226.383 -2.63978 -2.12529 0
M  V30 2351 C 225.556 -3.93504 -1.9098 0
M  V30 2352 C 224.615 -4.29225 -3.04388 0
M  V30 2353 O 223.641 -4.97641 -2.76302 0
M  V30 2354 N 224.843 -3.88393 -4.31429 0
M  V30 2355 H 227.608 -2.97691 -0.34641 0
M  V30 2356 H 225.169 -1.61846 -0.0418375 0
M  V30 2357 H 227.161 -2.84891 -2.87436 0
M  V30 2358 H 225.731 -1.84659 -2.52229 0
M  V30 2359 H 224.951 -3.81269 -1.00139 0
M  V30 2360 H 226.239 -4.78154 -1.73914 0
M  V30 2361 H 225.637 -3.33257 -4.57117 0
M  V30 2362 H 224.194 -4.14368 -5.03133 0
M  V30 2363 N 227.627 0.131896 -1.57047 0
M  V30 2364 C 228.557 1.16384 -2.02428 0
M  V30 2365 C 229.538 1.43936 -0.90644 0
M  V30 2366 O 230.723 1.54599 -1.17528 0
M  V30 2367 C 227.853 2.49328 -2.4177 0
M  V30 2368 C 226.807 2.36266 -3.56879 0
M  V30 2369 C 226.133 3.74057 -3.8208 0
M  V30 2370 C 227.433 1.834 -4.89042 0
M  V30 2371 H 229.127 0.786433 -2.88887 0
M  V30 2372 H 226.673 0.376855 -1.38981 0
M  V30 2373 H 228.626 3.21759 -2.7212 0
M  V30 2374 H 227.35 2.88934 -1.52266 0
M  V30 2375 H 226.009 1.66286 -3.26718 0
M  V30 2376 H 225.657 4.11125 -2.89803 0
M  V30 2377 H 225.357 3.66174 -4.59554 0
M  V30 2378 H 226.881 4.48012 -4.1487 0
M  V30 2379 H 228.295 2.45636 -5.18011 0
M  V30 2380 H 226.692 1.8637 -5.70426 0
M  V30 2381 H 227.762 0.790662 -4.7841 0
M  V30 2382 N 229.106 1.52395 0.401703 0
M  V30 2383 C 230.522 1.41363 0.740864 0
M  V30 2384 C 230.722 0.523982 1.94568 0
M  V30 2385 O 229.778 -0.00741204 2.52499 0
M  V30 2386 C 231.091 2.84011 0.987847 0
M  V30 2387 C 232.639 2.93404 1.09011 0
M  V30 2388 C 233.114 4.37036 1.3698 0
M  V30 2389 N 234.605 4.40304 1.43829 0
M  V30 2390 C 235.34 5.48508 1.67112 0
M  V30 2391 N 234.836 6.66819 1.87949 0
M  V30 2392 N 236.629 5.36034 1.69187 0
M  V30 2393 H 228.78 2.08765 -0.391262 0
M  V30 2394 H 231.043 0.941265 -0.112798 0
M  V30 2395 H 230.749 3.51265 0.174835 0
M  V30 2396 H 230.623 3.25502 1.906 0
M  V30 2397 H 233.01 2.26325 1.8937 0
M  V30 2398 H 233.091 2.55359 0.15015 0
M  V30 2399 H 232.735 5.04676 0.571353 0
M  V30 2400 H 232.665 4.72623 2.3224 0
M  V30 2401 H 235.156 3.55024 1.29486 0
M  V30 2402 H 235.469 7.45063 2.05185 0
M  V30 2403 H 233.814 6.6987 1.85199 0
M  V30 2404 H 237.005 4.42579 1.52451 0
M  V30 2405 H 237.178 6.20434 1.86993 0
M  V30 2406 N 230.584 -0.659388 1.43143 0
M  V30 2407 C 231.517 -1.78425 1.42267 0
M  V30 2408 C 232.495 -1.60085 0.284894 0
M  V30 2409 O 233.679 -1.82351 0.477527 0
M  V30 2410 C 230.806 -3.15642 1.22833 0
M  V30 2411 C 229.852 -3.52698 2.39806 0
M  V30 2412 S 230.685 -3.53372 4.02353 0
M  V30 2413 C 231.841 -4.93256 3.85291 0
M  V30 2414 H 232.074 -1.78897 2.37452 0
M  V30 2415 H 229.607 -0.831469 1.301 0
M  V30 2416 H 231.565 -3.94838 1.12308 0
M  V30 2417 H 230.226 -3.12739 0.29207 0
M  V30 2418 H 229.419 -4.52475 2.21996 0
M  V30 2419 H 229.021 -2.80899 2.46925 0
M  V30 2420 H 231.313 -5.81751 3.47235 0
M  V30 2421 H 232.256 -5.16115 4.84799 0
M  V30 2422 H 232.664 -4.665 3.17865 0
M  V30 2423 N 232.062 -1.29571 -0.897171 0
M  V30 2424 C 232.972 -1.16808 -2.03453 0
M  V30 2425 C 233.988 -0.0907471 -1.73763 0
M  V30 2426 O 235.164 -0.303312 -1.99103 0
M  V30 2427 C 232.229 -0.848264 -3.36163 0
M  V30 2428 C 231.29 -2.0097 -3.79354 0
M  V30 2429 C 230.523 -1.70505 -5.05731 0
M  V30 2430 O 230.746 -0.62718 -5.66941 0
M  V30 2431 O 229.68 -2.5538 -5.45036 0
M  V30 2432 H 233.506 -2.12325 -2.17144 0
M  V30 2433 H 231.091 -1.09047 -1.02123 0
M  V30 2434 H 232.973 -0.684581 -4.15802 0
M  V30 2435 H 231.648 0.0771071 -3.23608 0
M  V30 2436 H 230.555 -2.22863 -3.00471 0
M  V30 2437 H 231.888 -2.91636 -3.96496 0
M  V30 2438 N 233.54 1.10788 -1.12088 0
M  V30 2439 C 234.786 1.8313 -0.885148 0
M  V30 2440 C 235.141 1.8336 0.582839 0
M  V30 2441 O 234.434 1.28062 1.42516 0
M  V30 2442 C 234.628 3.29294 -1.38926 0
M  V30 2443 C 234.457 3.43302 -2.90472 0
M  V30 2444 C 233.227 3.55928 -3.58669 0
M  V30 2445 C 235.425 3.37014 -3.88492 0
M  V30 2446 N 233.407 3.58475 -4.98366 0
M  V30 2447 C 234.778 3.46263 -5.14298 0
M  V30 2448 C 236.833 3.20589 -3.80955 0
M  V30 2449 C 235.536 3.4078 -6.33452 0
M  V30 2450 C 237.562 3.16427 -4.99628 0
M  V30 2451 C 236.924 3.26253 -6.2429 0
M  V30 2452 H 233.023 0.685054 -0.377128 0
M  V30 2453 H 235.607 1.3251 -1.4265 0
M  V30 2454 H 233.778 3.78416 -0.874999 0
M  V30 2455 H 235.51 3.89578 -1.09596 0
M  V30 2456 H 232.265 3.58779 -3.09151 0
M  V30 2457 H 232.689 3.6337 -5.71219 0
M  V30 2458 H 237.331 3.11873 -2.85474 0
M  V30 2459 H 235.049 3.48263 -7.29204 0
M  V30 2460 H 238.635 3.04874 -4.95523 0
M  V30 2461 H 237.515 3.2303 -7.14578 0
M  V30 2462 N 235.018 0.912232 1.28515 0
M  V30 2463 C 235.928 0.404506 2.31086 0
M  V30 2464 C 236.944 -0.50707 1.66448 0
M  V30 2465 O 238.12 -0.393624 1.97516 0
M  V30 2466 C 235.185 -0.348572 3.44943 0
M  V30 2467 C 234.246 0.59604 4.25142 0
M  V30 2468 C 233.479 -0.121194 5.33562 0
M  V30 2469 O 233.702 -1.34317 5.5436 0
M  V30 2470 O 232.636 0.542716 5.99448 0
M  V30 2471 H 236.462 1.25579 2.76521 0
M  V30 2472 H 234.047 0.676998 1.33181 0
M  V30 2473 H 235.929 -0.77395 4.14232 0
M  V30 2474 H 234.604 -1.17571 3.01594 0
M  V30 2475 H 233.511 1.07079 3.58448 0
M  V30 2476 H 234.844 1.38995 4.72167 0
M  V30 2477 N 236.496 -1.42363 0.676048 0
M  V30 2478 C 237.724 -2.05859 0.207268 0
M  V30 2479 C 238.139 -1.50796 -1.13605 0
M  V30 2480 O 237.496 -0.648265 -1.70598 0
M  V30 2481 C 237.547 -3.61248 0.134975 0
M  V30 2482 O 237.268 -4.1427 1.42521 0
M  V30 2483 C 238.769 -4.41859 -0.357151 0
M  V30 2484 H 235.989 -0.663431 0.100503 0
M  V30 2485 H 238.533 -1.82479 0.923136 0
M  V30 2486 H 236.688 -3.83735 -0.531588 0
M  V30 2487 H 237.102 -5.0815 1.29939 0
M  V30 2488 H 238.576 -5.50847 -0.356641 0
M  V30 2489 H 239.053 -4.16536 -1.39264 0
M  V30 2490 H 239.659 -4.24392 0.27772 0
M  V30 2491 N 237.974 -0.419461 -1.51915 0
M  V30 2492 C 239.385 0.0477853 -1.86639 0
M  V30 2493 C 239.736 1.43531 -1.33766 0
M  V30 2494 O 238.861 2.05401 -0.68113 0
M  V30 2495 C 239.456 0.0934885 -3.38671 0
M  V30 2496 C 238.015 0.505097 -3.72996 0
M  V30 2497 C 237.162 -0.313792 -2.75519 0
M  V30 2498 H 240.113 -0.636088 -1.45395 0
M  V30 2499 H 240.134 0.906667 -3.6954 0
M  V30 2500 H 239.646 -0.916501 -3.77123 0
M  V30 2501 H 237.747 1.52135 -3.40126 0
M  V30 2502 H 237.86 0.242309 -4.78487 0
M  V30 2503 H 236.224 0.225363 -2.53701 0
M  V30 2504 H 237.007 -1.32232 -3.16812 0
M  V30 2505 N 239.452 1.56882 -0.150215 0
M  V30 2506 C 240.729 1.87844 0.545327 0
M  V30 2507 C 241.109 1.0567 1.82749 0
M  V30 2508 O 240.457 0.144442 2.28043 0
M  V30 2509 C 240.667 3.39526 0.80767 0
M  V30 2510 C 242.015 4.08814 1.14703 0
M  V30 2511 O 243.039 3.44723 0.896917 0
M  V30 2512 O 241.898 5.22004 1.61784 0
M  V30 2513 H 238.992 0.778677 0.278553 0
M  V30 2514 H 241.538 1.68666 -0.187068 0
M  V30 2515 H 240.31 3.91173 -0.0996096 0
M  V30 2516 H 239.933 3.64243 1.59413 0
M  V30 2517 N 240.93 -0.123565 1.57115 0
M  V30 2518 C 241.878 -1.17082 2.00984 0
M  V30 2519 C 242.872 -1.43136 0.906009 0
M  V30 2520 O 244.078 -1.43152 1.09121 0
M  V30 2521 H 240.453 -0.394653 0.64012 0
M  V30 2522 H 242.424 -0.774292 2.88179 0
M  V30 2523 C 241.173 -2.49057 2.42623 0
M  V30 2524 H 240.496 -2.29846 3.27125 0
M  V30 2525 H 241.936 -3.20906 2.7712 0
M  V30 2526 C 240.395 -3.11305 1.28805 0
M  V30 2527 O 240.925 -3.97171 0.60153 0
M  V30 2528 N 239.131 -2.71111 1.04628 0
M  V30 2529 H 238.678 -2.01382 1.60634 0
M  V30 2530 H 238.636 -3.1309 0.286685 0
M  V30 2531 N 242.408 -1.52605 -0.393616 0
M  V30 2532 C 243.34 -1.73303 -1.49995 0
M  V30 2533 C 244.353 -0.613473 -1.50799 0
M  V30 2534 O 245.542 -0.889049 -1.54784 0
M  V30 2535 C 242.642 -1.77245 -2.88855 0
M  V30 2536 C 241.815 -3.06483 -3.12069 0
M  V30 2537 C 240.874 -3.02033 -4.30886 0
M  V30 2538 O 239.9 -3.75907 -4.27414 0
M  V30 2539 N 241.102 -2.20897 -5.36828 0
M  V30 2540 H 243.867 -2.68756 -1.32629 0
M  V30 2541 H 241.428 -1.51036 -0.583083 0
M  V30 2542 H 243.42 -1.7178 -3.66434 0
M  V30 2543 H 241.99 -0.891993 -2.99603 0
M  V30 2544 H 241.21 -3.25474 -2.22396 0
M  V30 2545 H 242.498 -3.91947 -3.2443 0
M  V30 2546 H 241.896 -1.60336 -5.42502 0
M  V30 2547 H 240.453 -2.21275 -6.13091 0
M  V30 2548 N 243.887 0.651787 -1.4349 0
M  V30 2549 C 245.133 1.41376 -1.45398 0
M  V30 2550 C 245.466 1.94041 -0.0784823 0
M  V30 2551 O 244.741 1.72379 0.900878 0
M  V30 2552 C 245.024 2.59414 -2.49752 0
M  V30 2553 C 244.877 2.12232 -3.96582 0
M  V30 2554 C 246.196 3.61626 -2.50827 0
M  V30 2555 H 243.315 0.512719 -0.529422 0
M  V30 2556 H 245.957 0.738796 -1.75048 0
M  V30 2557 H 244.107 3.16997 -2.246 0
M  V30 2558 H 245.779 1.59639 -4.32797 0
M  V30 2559 H 244.022 1.43592 -4.09346 0
M  V30 2560 H 244.693 2.9712 -4.65214 0
M  V30 2561 H 247.169 3.13805 -2.7325 0
M  V30 2562 H 246.045 4.41766 -3.25783 0
M  V30 2563 H 246.306 4.14314 -1.5426 0
M  V30 2564 N 245.365 1.30045 0.890287 0
M  V30 2565 C 246.613 1.18327 1.63839 0
M  V30 2566 C 246.934 -0.263455 1.93212 0
M  V30 2567 O 246.204 -1.17856 1.56482 0
M  V30 2568 H 244.784 0.434933 0.607324 0
M  V30 2569 H 247.446 1.631 1.06698 0
M  V30 2570 H 246.542 1.74024 2.59079 0
M  V30 2571 N 246.843 -1.10192 1.12674 0
M  V30 2572 C 247.806 -2.14786 0.799979 0
M  V30 2573 C 248.806 -1.59711 -0.18685 0
M  V30 2574 O 249.996 -1.74156 0.0392558 0
M  V30 2575 C 247.128 -3.40374 0.189228 0
M  V30 2576 H 248.321 -2.45203 1.72671 0
M  V30 2577 H 245.874 -1.25597 0.930326 0
M  V30 2578 H 246.609 -3.15577 -0.747107 0
M  V30 2579 H 246.394 -3.81637 0.899766 0
M  V30 2580 H 247.884 -4.17594 -0.0228143 0
M  V30 2581 N 248.321 -0.919034 -1.28029 0
M  V30 2582 C 249.231 -0.416756 -2.30869 0
M  V30 2583 C 250.247 0.498235 -1.66714 0
M  V30 2584 O 251.423 0.383144 -1.97722 0
M  V30 2585 C 248.488 0.330274 -3.45123 0
M  V30 2586 C 247.549 -0.618578 -4.2482 0
M  V30 2587 C 246.782 0.0928959 -5.33619 0
M  V30 2588 O 247.005 1.31375 -5.55065 0
M  V30 2589 O 245.939 -0.574499 -5.99152 0
M  V30 2590 H 249.765 -1.27043 -2.75851 0
M  V30 2591 H 247.35 -0.684052 -1.3282 0
M  V30 2592 H 249.232 0.751972 -4.14636 0
M  V30 2593 H 247.907 1.1597 -3.02213 0
M  V30 2594 H 246.814 -1.08978 -3.57875 0
M  V30 2595 H 248.147 -1.41497 -4.71423 0
M  V30 2596 N 249.799 1.42003 -0.683588 0
M  V30 2597 C 251.045 2.01712 -0.209825 0
M  V30 2598 C 251.378 1.53968 1.18353 0
M  V30 2599 O 250.653 0.745661 1.79639 0
M  V30 2600 C 250.936 3.59202 -0.254197 0
M  V30 2601 C 250.789 4.17102 -1.68363 0
M  V30 2602 C 252.108 4.38344 0.392709 0
M  V30 2603 H 249.227 0.732891 -0.0777189 0
M  V30 2604 H 251.869 1.68909 -0.87004 0
M  V30 2605 H 250.019 3.87278 0.307954 0
M  V30 2606 H 251.691 3.99946 -2.29871 0
M  V30 2607 H 249.934 3.72597 -2.22157 0
M  V30 2608 H 250.605 5.26249 -1.6663 0
M  V30 2609 H 253.081 4.16011 -0.0859162 0
M  V30 2610 H 251.957 5.47901 0.331063 0
M  V30 2611 H 252.218 4.16887 1.47164 0
M  V30 2612 N 251.277 0.427512 1.51691 0
M  V30 2613 C 252.209 -0.424521 2.25234 0
M  V30 2614 C 253.222 -0.994671 1.2888 0
M  V30 2615 O 254.411 -0.890483 1.54702 0
M  V30 2616 C 251.511 -1.60479 2.98496 0
M  V30 2617 C 250.684 -1.15527 4.21868 0
M  V30 2618 C 249.743 -2.20454 4.77793 0
M  V30 2619 O 248.769 -1.8029 5.39893 0
M  V30 2620 N 249.971 -3.52831 4.60967 0
M  V30 2621 H 252.736 0.205749 2.98993 0
M  V30 2622 H 250.297 0.255867 1.59865 0
M  V30 2623 H 252.289 -2.30276 3.32799 0
M  V30 2624 H 250.859 -2.14061 2.27809 0
M  V30 2625 H 250.079 -0.284736 3.9317 0
M  V30 2626 H 251.367 -0.832173 5.01949 0
M  V30 2627 H 250.765 -3.88201 4.11481 0
M  V30 2628 H 249.322 -4.18551 4.99658 0
M  V30 2629 N 252.755 -1.56801 0.158532 0
M  V30 2630 C 254.002 -1.9649 -0.489679 0
M  V30 2631 C 254.33 -1.04394 -1.6411 0
M  V30 2632 O 253.585 -0.0754401 -1.95555 0
M  V30 2633 C 253.884 -3.4235 -1.02623 0
M  V30 2634 C 253.55 -4.50899 0.00794526 0
M  V30 2635 C 252.212 -4.80312 0.292207 0
M  V30 2636 C 254.564 -5.16333 0.710584 0
M  V30 2637 C 251.892 -5.72461 1.28472 0
M  V30 2638 C 254.244 -6.09553 1.69199 0
M  V30 2639 C 252.908 -6.37339 1.98383 0
M  V30 2640 H 252.178 -0.719009 -0.179186 0
M  V30 2641 H 254.825 -1.8989 0.247798 0
M  V30 2642 H 253.13 -3.45838 -1.84128 0
M  V30 2643 H 254.827 -3.70393 -1.53656 0
M  V30 2644 H 251.417 -4.28015 -0.22379 0
M  V30 2645 H 255.601 -4.93732 0.504174 0
M  V30 2646 H 250.857 -5.92278 1.51714 0
M  V30 2647 H 255.031 -6.59327 2.24189 0
M  V30 2648 H 252.658 -7.08546 2.7544 0
M  V30 2649 N 254.233 0.115231 -1.57178 0
M  V30 2650 C 255.649 0.468877 -1.52557 0
M  V30 2651 C 255.849 1.81649 -0.872125 0
M  V30 2652 O 254.905 2.48347 -0.45606 0
M  V30 2653 C 256.218 0.4499 -2.97315 0
M  V30 2654 C 257.766 0.533185 -3.08425 0
M  V30 2655 C 258.241 0.54456 -4.54751 0
M  V30 2656 N 259.732 0.605892 -4.5922 0
M  V30 2657 C 260.467 0.636203 -5.6986 0
M  V30 2658 N 259.963 0.623931 -6.89985 0
M  V30 2659 N 261.756 0.679496 -5.57978 0
M  V30 2660 H 253.907 -0.767712 -1.9804 0
M  V30 2661 H 256.17 -0.283609 -0.904583 0
M  V30 2662 H 255.876 -0.472721 -3.48509 0
M  V30 2663 H 255.75 1.27632 -3.5495 0
M  V30 2664 H 258.137 1.44623 -2.57232 0
M  V30 2665 H 258.218 -0.320995 -2.53778 0
M  V30 2666 H 257.862 -0.364452 -5.06591 0
M  V30 2667 H 257.792 1.41568 -5.07214 0
M  V30 2668 H 260.283 0.621386 -3.72756 0
M  V30 2669 H 260.596 0.649787 -7.70063 0
M  V30 2670 H 258.941 0.591296 -6.9248 0
M  V30 2671 H 262.132 0.686472 -4.63039 0
M  V30 2672 H 262.305 0.69965 -6.44212 0
M  V30 2673 N 255.711 1.52812 0.385517 0
M  V30 2674 C 256.661 1.74219 1.47078 0
M  V30 2675 C 257.645 0.59632 1.49442 0
M  V30 2676 O 258.837 0.85428 1.5502 0
M  V30 2677 C 255.966 1.9176 2.84751 0
M  V30 2678 C 255.052 3.12289 2.86943 0
M  V30 2679 N 255.443 4.34575 2.58802 0
M  V30 2680 C 253.741 3.12605 3.1811 0
M  V30 2681 C 254.442 5.162 2.68166 0
M  V30 2682 N 253.418 4.51964 3.02043 0
M  V30 2683 H 257.22 2.6639 1.24152 0
M  V30 2684 H 254.734 1.51166 0.593504 0
M  V30 2685 H 256.731 2.05218 3.62893 0
M  V30 2686 H 255.391 1.00805 3.08656 0
M  V30 2687 H 256.402 4.62649 2.32759 0
M  V30 2688 H 253.079 2.31472 3.47458 0
M  V30 2689 H 254.469 6.23689 2.49923 0
M  V30 2690 N 257.189 -0.644168 1.43834 0
M  V30 2691 C 258.605 -0.960875 1.27434 0
M  V30 2692 C 258.805 -2.00499 0.200618 0
M  V30 2693 O 257.861 -2.49018 -0.417906 0
M  V30 2694 C 259.174 -1.43653 2.64167 0
M  V30 2695 C 260.722 -1.55271 2.71772 0
M  V30 2696 C 261.197 -2.06224 4.08944 0
M  V30 2697 N 262.688 -2.13513 4.11055 0
M  V30 2698 C 263.423 -2.54081 5.14033 0
M  V30 2699 N 262.919 -2.9388 6.27381 0
M  V30 2700 N 264.712 -2.54101 5.01387 0
M  V30 2701 H 256.863 0.0465779 2.12349 0
M  V30 2702 H 259.126 -0.0417638 0.94708 0
M  V30 2703 H 258.832 -0.743706 3.43747 0
M  V30 2704 H 258.706 -2.40993 2.90176 0
M  V30 2705 H 261.093 -2.23653 1.92519 0
M  V30 2706 H 261.174 -0.563395 2.49519 0
M  V30 2707 H 260.818 -1.38441 4.88668 0
M  V30 2708 H 260.748 -3.06003 4.28567 0
M  V30 2709 H 263.239 -1.85493 3.29242 0
M  V30 2710 H 263.552 -3.2361 7.01781 0
M  V30 2711 H 261.897 -2.91663 6.30839 0
M  V30 2712 H 265.088 -2.22391 4.11898 0
M  V30 2713 H 265.261 -2.85394 5.81768 0
M  V30 2714 N 258.668 -1.30515 -0.883378 0
M  V30 2715 C 259.896 -1.22359 -1.66841 0
M  V30 2716 C 260.311 0.213296 -1.87591 0
M  V30 2717 O 259.668 1.14075 -1.42454 0
M  V30 2718 C 259.719 -1.95011 -3.04389 0
M  V30 2719 O 259.44 -3.3309 -2.84575 0
M  V30 2720 C 260.941 -1.93532 -3.98824 0
M  V30 2721 H 258.161 -0.423371 -0.520575 0
M  V30 2722 H 260.705 -1.72167 -1.10357 0
M  V30 2723 H 258.86 -1.48997 -3.57601 0
M  V30 2724 H 259.274 -3.69907 -3.71846 0
M  V30 2725 H 260.748 -2.48902 -4.92699 0
M  V30 2726 H 261.225 -0.914627 -4.29571 0
M  V30 2727 H 261.831 -2.39364 -3.51547 0
M  V30 2728 N 260.146 1.09593 -1.13257 0
M  V30 2729 C 261.557 1.63229 -0.906274 0
M  V30 2730 C 261.908 1.8811 0.557578 0
M  V30 2731 O 261.033 1.62953 1.42391 0
M  V30 2732 C 261.628 2.96535 -1.63867 0
M  V30 2733 C 260.187 3.47003 -1.45828 0
M  V30 2734 C 259.334 2.2145 -1.66898 0
M  V30 2735 H 262.285 0.92978 -1.28611 0
M  V30 2736 H 262.306 3.64411 -1.09476 0
M  V30 2737 H 261.818 2.78394 -2.70404 0
M  V30 2738 H 259.919 3.70272 -0.415848 0
M  V30 2739 H 260.032 4.24551 -2.2202 0
M  V30 2740 H 258.396 2.30022 -1.09371 0
M  V30 2741 H 259.179 2.0583 -2.74752 0
M  V30 2742 N 261.624 0.925811 1.2754 0
M  V30 2743 C 262.849 0.580924 1.99098 0
M  V30 2744 C 263.274 -0.833555 1.68622 0
M  V30 2745 O 262.632 -1.55903 0.925422 0
M  V30 2746 C 262.68 0.811186 3.51358 0
M  V30 2747 O 261.784 -0.124129 4.12213 0
M  V30 2748 H 261.125 0.223873 0.625122 0
M  V30 2749 H 263.655 1.24455 1.62395 0
M  V30 2750 H 263.665 0.72601 4.01489 0
M  V30 2751 H 262.34 1.84227 3.72872 0
M  V30 2752 H 260.917 0.0108006 3.72898 0
M  V30 2753 N 263.102 -1.41638 0.69111 0
M  V30 2754 C 264.327 -2.06148 0.227583 0
M  V30 2755 C 264.752 -1.51652 -1.11281 0
M  V30 2756 O 264.11 -0.64164 -1.69566 0
M  V30 2757 C 264.158 -3.60095 0.190858 0
M  V30 2758 O 263.262 -4.03845 -0.835664 0
M  V30 2759 H 262.603 -0.654434 0.112306 0
M  V30 2760 H 265.133 -1.81484 0.944714 0
M  V30 2761 H 265.143 -4.07995 0.020207 0
M  V30 2762 H 263.818 -3.99129 1.16915 0
M  V30 2763 H 262.395 -3.67458 -0.63473 0
M  V30 2764 N 264.58 -0.43555 -1.51462 0
M  V30 2765 C 265.991 0.0279871 -1.86679 0
M  V30 2766 C 266.342 1.42104 -1.35281 0
M  V30 2767 O 265.467 2.04667 -0.702878 0
M  V30 2768 C 266.062 0.0575626 -3.38751 0
M  V30 2769 C 264.621 0.465507 -3.7351 0
M  V30 2770 C 263.768 -0.342996 -2.75171 0
M  V30 2771 H 266.719 -0.651473 -1.44712 0
M  V30 2772 H 266.74 0.867421 -3.70481 0
M  V30 2773 H 266.252 -0.956448 -3.7613 0
M  V30 2774 H 264.353 1.48519 -3.41721 0
M  V30 2775 H 264.466 0.191546 -4.78717 0
M  V30 2776 H 262.83 0.198442 -2.53926 0
M  V30 2777 H 263.613 -1.35585 -3.15391 0
M  V30 2778 N 266.058 1.56714 -0.166846 0
M  V30 2779 C 267.304 1.97813 0.473473 0
M  V30 2780 C 267.659 1.05095 1.61161 0
M  V30 2781 O 266.952 0.0897541 1.9139 0
M  V30 2782 C 267.146 3.42889 1.00806 0
M  V30 2783 C 266.975 4.49635 -0.0767392 0
M  V30 2784 C 265.745 5.02566 -0.524894 0
M  V30 2785 C 267.943 5.06793 -0.875504 0
M  V30 2786 N 265.925 5.9294 -1.59047 0
M  V30 2787 C 267.296 5.93565 -1.79111 0
M  V30 2788 C 269.351 4.89306 -0.921083 0
M  V30 2789 C 268.054 6.64721 -2.74843 0
M  V30 2790 C 270.08 5.61179 -1.86633 0
M  V30 2791 C 269.442 6.47675 -2.76942 0
M  V30 2792 H 265.541 0.769093 0.141489 0
M  V30 2793 H 268.125 1.92874 -0.266031 0
M  V30 2794 H 266.296 3.48382 1.7171 0
M  V30 2795 H 268.028 3.71008 1.61664 0
M  V30 2796 H 264.783 4.73439 -0.123432 0
M  V30 2797 H 265.207 6.42831 -2.12361 0
M  V30 2798 H 269.849 4.22136 -0.23692 0
M  V30 2799 H 267.567 7.31107 -3.44249 0
M  V30 2800 H 271.153 5.49636 -1.90764 0
M  V30 2801 H 270.033 7.02313 -3.48893 0
M  V30 2802 N 267.536 -0.106894 1.57237 0
M  V30 2803 C 268.483 -1.13049 2.01217 0
M  V30 2804 C 269.453 -1.40471 0.886403 0
M  V30 2805 O 270.638 -1.52133 1.15153 0
M  V30 2806 C 267.778 -2.4487 2.43172 0
M  V30 2807 C 266.891 -2.24281 3.69218 0
M  V30 2808 C 266.026 -3.49417 4.00101 0
M  V30 2809 C 265.065 -3.24038 5.19294 0
M  V30 2810 N 264.202 -4.41409 5.45988 0
M  V30 2811 H 269.042 -0.748456 2.88448 0
M  V30 2812 H 266.579 -0.358054 1.42676 0
M  V30 2813 H 268.537 -3.21786 2.65537 0
M  V30 2814 H 267.167 -2.80944 1.58967 0
M  V30 2815 H 266.219 -1.38224 3.54398 0
M  V30 2816 H 267.531 -2.01512 4.56283 0
M  V30 2817 H 266.685 -4.34746 4.2318 0
M  V30 2818 H 265.424 -3.75229 3.11535 0
M  V30 2819 H 264.429 -2.37102 4.96047 0
M  V30 2820 H 265.654 -2.99584 6.09447 0
M  V30 2821 H 263.6 -4.67319 4.60379 0
M  V30 2822 H 263.517 -4.21788 6.274 0
M  V30 2823 H 264.785 -5.27836 5.73593 0
M  V30 2824 N 269.014 -1.53014 -0.377408 0
M  V30 2825 C 269.944 -1.81589 -1.46791 0
M  V30 2826 C 270.925 -0.668622 -1.56408 0
M  V30 2827 O 272.11 -0.917337 -1.71168 0
M  V30 2828 C 269.24 -1.99519 -2.8427 0
M  V30 2829 C 268.194 -3.15249 -2.89486 0
M  V30 2830 C 267.52 -3.18451 -4.29527 0
M  V30 2831 C 268.82 -4.54084 -2.58079 0
M  V30 2832 H 270.514 -2.7291 -1.23127 0
M  V30 2833 H 268.06 -1.31319 -0.590883 0
M  V30 2834 H 270.013 -2.18092 -3.60575 0
M  V30 2835 H 268.737 -1.04897 -3.09296 0
M  V30 2836 H 267.396 -2.96477 -2.15631 0
M  V30 2837 H 267.044 -2.2149 -4.5161 0
M  V30 2838 H 266.744 -3.962 -4.33934 0
M  V30 2839 H 268.268 -3.39193 -5.07721 0
M  V30 2840 H 269.682 -4.72899 -3.24098 0
M  V30 2841 H 268.079 -5.33987 -2.7382 0
M  V30 2842 H 269.149 -4.60006 -1.53372 0
M  V30 2843 N 270.492 0.636531 -1.44174 0
M  V30 2844 C 271.74 1.39343 -1.46383 0
M  V30 2845 C 272.061 1.94766 -0.0955715 0
M  V30 2846 O 271.331 1.75452 0.871395 0
M  V30 2847 H 269.911 0.517199 -0.538994 0
M  V30 2848 H 272.573 0.74957 -1.7991 0
M  V30 2849 H 271.669 2.22746 -2.18611 0
M  V30 2850 N 271.97 1.30982 0.876444 0
M  V30 2851 C 273.247 1.10942 1.61094 0
M  V30 2852 C 273.627 -0.338223 2.08373 0
M  V30 2853 O 272.975 -1.33122 1.85717 0
M  V30 2854 C 273.185 2.11789 2.77392 0
M  V30 2855 C 274.533 2.43965 3.47514 0
M  V30 2856 O 275.557 2.10166 2.87591 0
M  V30 2857 O 274.416 3.01817 4.55597 0
M  V30 2858 H 271.51 0.42667 0.708436 0
M  V30 2859 H 274.056 1.42438 0.922474 0
M  V30 2860 H 272.828 3.09194 2.39823 0
M  V30 2861 H 272.451 1.81161 3.5393 0
M  V30 2862 N 273.449 -1.08991 1.13837 0
M  V30 2863 C 274.689 -1.82867 0.913183 0
M  V30 2864 C 275.053 -1.83936 -0.550604 0
M  V30 2865 O 276.254 -2.53515 -0.893515 0
M  V30 2866 C 274.525 -3.24843 1.49036 0
M  V30 2867 S 276.084 -4.15669 1.40588 0
M  V30 2868 H 272.902 -0.630278 0.329046 0
M  V30 2869 H 275.504 -1.31049 1.45073 0
M  V30 2870 H 274.208 -3.21644 2.54899 0
M  V30 2871 H 273.739 -3.81734 0.950947 0
M  V30 2872 H 275.754 -4.94686 0.387353 0
M  V30 2873 N 274.927 -0.932562 -1.27047 0
M  V30 2874 C 276.175 -0.574422 -1.93765 0
M  V30 2875 C 276.496 0.887993 -1.73608 0
M  V30 2876 O 275.766 1.62999 -1.08665 0
M  V30 2877 H 274.346 -0.209451 -0.717035 0
M  V30 2878 H 277.008 -1.18601 -1.5466 0
M  V30 2879 H 276.104 -0.784841 -3.02071 0
M  V30 2880 N 276.405 1.4127 -0.698611 0
M  V30 2881 C 277.816 1.84187 -0.305289 0
M  V30 2882 C 278.167 1.58449 1.15708 0
M  V30 2883 O 277.292 1.05651 1.88856 0
M  V30 2884 C 277.887 3.3435 -0.547314 0
M  V30 2885 C 276.446 3.75826 -0.207878 0
M  V30 2886 C 275.593 2.64647 -0.828099 0
M  V30 2887 H 278.544 1.30778 -0.89904 0
M  V30 2888 H 278.565 3.8001 0.192998 0
M  V30 2889 H 278.077 3.53051 -1.61172 0
M  V30 2890 H 276.178 3.62725 0.852143 0
M  V30 2891 H 276.291 4.74462 -0.665021 0
M  V30 2892 H 274.655 2.53395 -0.257458 0
M  V30 2893 H 275.438 2.86165 -1.89643 0
M  V30 2894 N 277.883 0.443576 1.51229 0
M  V30 2895 C 278.815 -0.400608 2.25672 0
M  V30 2896 C 279.828 -0.980945 1.29928 0
M  V30 2897 O 281.017 -0.874024 1.55638 0
M  V30 2898 C 278.117 -1.57304 3.00181 0
M  V30 2899 C 277.29 -1.11046 4.23069 0
M  V30 2900 C 276.349 -2.15374 4.80105 0
M  V30 2901 O 275.375 -1.74554 5.41774 0
M  V30 2902 N 276.577 -3.47922 4.64683 0
M  V30 2903 H 279.342 0.23745 2.98758 0
M  V30 2904 H 276.903 0.272809 1.59585 0
M  V30 2905 H 278.895 -2.26733 3.35223 0
M  V30 2906 H 277.465 -2.11632 2.30066 0
M  V30 2907 H 276.685 -0.243019 3.9345 0
M  V30 2908 H 277.973 -0.778888 5.02803 0
M  V30 2909 H 277.371 -3.83815 4.15575 0
M  V30 2910 H 275.928 -4.13228 5.0407 0
M  V30 2911 N 279.361 -1.56624 0.175154 0
M  V30 2912 C 280.638 -1.88688 -0.515373 0
M  V30 2913 C 281.018 -1.08564 -1.81044 0
M  V30 2914 O 280.366 -0.180703 -2.27784 0
M  V30 2915 C 280.576 -3.40768 -0.753552 0
M  V30 2916 C 281.924 -4.10587 -1.08184 0
M  V30 2917 O 282.948 -3.46106 -0.841961 0
M  V30 2918 O 281.807 -5.24512 -1.53459 0
M  V30 2919 H 278.901 -0.78301 -0.26613 0
M  V30 2920 H 281.447 -1.68347 0.213877 0
M  V30 2921 H 280.219 -3.90965 0.161829 0
M  V30 2922 H 279.842 -3.66733 -1.53598 0
M  V30 2923 N 280.839 0.0985539 -1.57292 0
M  V30 2924 C 282.116 0.834155 -1.76921 0
M  V30 2925 C 282.496 1.97101 -0.755928 0
M  V30 2926 O 281.844 2.27474 0.216245 0
M  V30 2927 C 282.054 1.33194 -3.22584 0
M  V30 2928 C 283.402 1.77611 -3.85668 0
M  V30 2929 O 284.426 1.42825 -3.26312 0
M  V30 2930 O 283.285 2.4192 -4.90038 0
M  V30 2931 H 280.379 0.397628 -0.725135 0
M  V30 2932 H 282.925 0.0807044 -1.69508 0
M  V30 2933 H 281.697 0.517248 -3.87866 0
M  V30 2934 H 281.32 2.1475 -3.34616 0
M  V30 2935 N 282.317 1.53212 0.369288 0
M  V30 2936 C 283.594 1.59815 1.12776 0
M  V30 2937 C 283.974 0.403402 2.0721 0
M  V30 2938 O 283.322 -0.606667 2.20299 0
M  V30 2939 C 283.532 2.94664 1.87013 0
M  V30 2940 C 284.88 3.49109 2.41677 0
M  V30 2941 O 285.904 2.96669 1.97144 0
M  V30 2942 O 284.763 4.40775 3.23079 0
M  V30 2943 H 281.857 0.645376 0.517125 0
M  V30 2944 H 284.403 1.65553 0.37285 0
M  V30 2945 H 283.175 3.73061 1.18071 0
M  V30 2946 H 282.798 2.92401 2.69421 0
M  V30 2947 N 283.795 -0.628877 1.44509 0
M  V30 2948 C 285.023 -1.41554 1.50897 0
M  V30 2949 C 285.438 -1.8832 0.134564 0
M  V30 2950 O 284.795 -1.60969 -0.859965 0
M  V30 2951 C 284.846 -2.63435 2.47556 0
M  V30 2952 O 284.567 -2.18619 3.79654 0
M  V30 2953 C 286.068 -3.56537 2.63431 0
M  V30 2954 H 283.288 -0.434044 0.511709 0
M  V30 2955 H 285.832 -0.768895 1.89495 0
M  V30 2956 H 283.987 -3.24187 2.12089 0
M  V30 2957 H 284.401 -2.97652 4.31861 0
M  V30 2958 H 285.875 -4.38657 3.35088 0
M  V30 2959 H 286.352 -4.05493 1.68738 0
M  V30 2960 H 286.958 -3.01653 2.9981 0
M  V30 2961 N 285.273 -1.31445 -0.869486 0
M  V30 2962 C 286.183 -1.21097 -2.0093 0
M  V30 2963 C 287.199 -0.127584 -1.73532 0
M  V30 2964 O 288.375 -0.345477 -1.98415 0
M  V30 2965 C 285.44 -0.919378 -3.34288 0
M  V30 2966 C 284.501 -2.08971 -3.75006 0
M  V30 2967 C 283.734 -1.81194 -5.02001 0
M  V30 2968 O 283.957 -0.747296 -5.65484 0
M  V30 2969 O 282.891 -2.66883 -5.39497 0
M  V30 2970 H 286.717 -2.16883 -2.12592 0
M  V30 2971 H 284.302 -1.11189 -0.997868 0
M  V30 2972 H 286.184 -0.772625 -4.14257 0
M  V30 2973 H 284.859 0.00844772 -3.23699 0
M  V30 2974 H 283.766 -2.29187 -2.95676 0
M  V30 2975 H 285.099 -2.9998 -3.90221 0
M  V30 2976 N 286.751 1.08385 -1.14413 0
M  V30 2977 C 287.976 1.85057 -0.936413 0
M  V30 2978 C 288.401 1.81055 0.509971 0
M  V30 2979 O 287.759 1.1958 1.36273 0
M  V30 2980 C 287.807 3.30505 -1.44217 0
M  V30 2981 O 286.911 4.07491 -0.634409 0
M  V30 2982 H 286.252 0.573425 -0.334784 0
M  V30 2983 H 288.782 1.36799 -1.52142 0
M  V30 2984 H 288.792 3.81348 -1.45043 0
M  V30 2985 H 287.467 3.32734 -2.49522 0
M  V30 2986 H 286.044 3.66368 -0.694902 0
M  V30 2987 N 288.23 0.939286 1.26551 0
M  V30 2988 C 289.47 0.5933 1.956 0
M  V30 2989 C 289.834 -0.851515 1.72085 0
M  V30 2990 O 291.035 -1.30634 2.34921 0
M  V30 2991 C 289.306 0.923996 3.45249 0
M  V30 2992 S 290.865 0.688269 4.33369 0
M  V30 2993 H 287.683 0.218591 0.676564 0
M  V30 2994 H 290.285 1.2102 1.5354 0
M  V30 2995 H 288.989 1.97297 3.59864 0
M  V30 2996 H 288.52 0.296746 3.92279 0
M  V30 2997 H 290.535 -0.448434 4.9417 0
M  V30 2998 N 289.708 -1.40897 0.706093 0
M  V30 2999 C 290.638 -2.33418 0.0620085 0
M  V30 3000 C 291.619 -1.52385 -0.755827 0
M  V30 3001 O 292.804 -1.80886 -0.706674 0
M  V30 3002 C 289.934 -3.36293 -0.867445 0
M  V30 3003 C 288.888 -4.27716 -0.155932 0
M  V30 3004 C 288.214 -5.2105 -1.20046 0
M  V30 3005 C 289.514 -5.12944 0.984149 0
M  V30 3006 H 291.208 -2.87527 0.83477 0
M  V30 3007 H 288.754 -1.38249 0.402875 0
M  V30 3008 H 290.707 -3.99949 -1.32735 0
M  V30 3009 H 289.431 -2.80556 -1.67199 0
M  V30 3010 H 288.09 -3.65498 0.284047 0
M  V30 3011 H 287.738 -4.61624 -1.99781 0
M  V30 3012 H 287.438 -5.83056 -0.729328 0
M  V30 3013 H 288.962 -5.87584 -1.66066 0
M  V30 3014 H 290.376 -5.70109 0.604048 0
M  V30 3015 H 288.773 -5.83945 1.38304 0
M  V30 3016 H 289.843 -4.49485 1.81911 0
M  V30 3017 N 291.186 -0.45159 -1.50991 0
M  V30 3018 C 292.426 0.109066 -2.04109 0
M  V30 3019 C 292.79 1.38716 -1.32747 0
M  V30 3020 O 293.991 2.02896 -1.76314 0
M  V30 3021 C 292.262 0.308354 -3.56067 0
M  V30 3022 S 293.821 0.830369 -4.30872 0
M  V30 3023 H 290.639 0.0251531 -0.710555 0
M  V30 3024 H 293.241 -0.614264 -1.85599 0
M  V30 3025 H 291.945 -0.627962 -4.05567 0
M  V30 3026 H 291.476 1.05836 -3.78896 0
M  V30 3027 H 293.491 2.10626 -4.49279 0
M  V30 3028 N 292.664 1.56529 -0.183458 0
M  V30 3029 C 294.075 1.83739 0.331177 0
M  V30 3030 C 294.426 1.10373 1.62211 0
M  V30 3031 O 293.551 0.36071 2.13373 0
M  V30 3032 C 294.146 3.33306 0.607646 0
M  V30 3033 C 292.705 3.60969 1.06668 0
M  V30 3034 C 291.852 2.77086 0.109029 0
M  V30 3035 H 294.803 1.53379 -0.407484 0
M  V30 3036 H 294.824 3.51444 1.45832 0
M  V30 3037 H 294.336 3.86677 -0.332086 0
M  V30 3038 H 292.437 3.13021 2.0211 0
M  V30 3039 H 292.55 4.69231 0.967447 0
M  V30 3040 H 290.914 2.47319 0.608714 0
M  V30 3041 H 291.697 3.33241 -0.82494 0
M  V30 3042 N 294.142 -0.090211 1.57342 0
M  V30 3043 C 295.072 -1.10976 2.05443 0
M  V30 3044 C 296.053 -1.41482 0.944284 0
M  V30 3045 O 297.238 -1.51428 1.21586 0
M  V30 3046 C 294.368 -2.42831 2.48295 0
M  V30 3047 C 293.322 -2.26721 3.63018 0
M  V30 3048 C 292.648 -3.63796 3.91863 0
M  V30 3049 C 293.948 -1.7037 4.93732 0
M  V30 3050 H 295.642 -0.709564 2.9087 0
M  V30 3051 H 293.188 -0.339874 1.39932 0
M  V30 3052 H 295.141 -3.14431 2.80555 0
M  V30 3053 H 293.865 -2.84795 1.59873 0
M  V30 3054 H 292.524 -1.57565 3.31012 0
M  V30 3055 H 292.172 -4.03297 3.00601 0
M  V30 3056 H 291.872 -3.53861 4.69101 0
M  V30 3057 H 293.396 -4.36855 4.26603 0
M  V30 3058 H 294.81 -2.31816 5.24342 0
M  V30 3059 H 293.207 -1.71181 5.75167 0
M  V30 3060 H 294.277 -0.663542 4.80339 0
M  V30 3061 N 295.62 -1.53406 -0.361157 0
M  V30 3062 C 296.53 -1.83122 -1.4664 0
M  V30 3063 C 297.546 -0.719943 -1.58407 0
M  V30 3064 O 298.722 -1.01046 -1.74218 0
M  V30 3065 C 295.787 -2.01891 -2.81853 0
M  V30 3066 C 294.848 -3.25784 -2.79577 0
M  V30 3067 C 294.081 -3.43648 -4.0834 0
M  V30 3068 O 294.304 -2.65714 -5.0473 0
M  V30 3069 O 293.238 -4.37018 -4.13883 0
M  V30 3070 H 297.064 -2.7703 -1.24451 0
M  V30 3071 H 294.649 -1.38841 -0.551678 0
M  V30 3072 H 296.531 -2.15782 -3.61962 0
M  V30 3073 H 295.206 -1.11173 -3.0401 0
M  V30 3074 H 294.113 -3.17312 -1.98151 0
M  V30 3075 H 295.446 -4.16439 -2.62373 0
M  V30 3076 N 297.098 0.621204 -1.44841 0
M  V30 3077 C 298.031 1.7459 -1.46947 0
M  V30 3078 C 299.009 1.59273 -0.327238 0
M  V30 3079 O 300.193 1.81021 -0.525706 0
M  V30 3080 C 297.32 3.12274 -1.31159 0
M  V30 3081 C 296.366 3.46216 -2.49072 0
M  V30 3082 S 297.199 3.4258 -4.11581 0
M  V30 3083 C 298.355 4.82867 -3.98233 0
M  V30 3084 H 298.588 1.72538 -2.42111 0
M  V30 3085 H 296.121 0.796683 -1.32259 0
M  V30 3086 H 298.079 3.91722 -1.22737 0
M  V30 3087 H 296.74 3.11855 -0.374885 0
M  V30 3088 H 295.933 4.4643 -2.33915 0
M  V30 3089 H 295.535 2.74253 -2.54286 0
M  V30 3090 H 297.827 5.7234 -3.62537 0
M  V30 3091 H 298.77 5.0308 -4.98313 0
M  V30 3092 H 299.178 4.57908 -3.30121 0
M  V30 3093 N 298.576 1.31904 0.862503 0
M  V30 3094 C 299.524 1.20125 1.9918 0
M  V30 3095 C 300.518 0.107824 1.69056 0
M  V30 3096 O 301.724 0.270223 1.7796 0
M  V30 3097 H 298.099 0.372148 0.65346 0
M  V30 3098 H 300.07 2.15652 2.06244 0
M  V30 3099 C 298.819 0.933099 3.34946 0
M  V30 3100 H 298.142 1.76664 3.5865 0
M  V30 3101 H 299.582 0.890892 4.14535 0
M  V30 3102 C 298.041 -0.364172 3.34926 0
M  V30 3103 O 298.571 -1.37858 3.77304 0
M  V30 3104 N 296.777 -0.383362 2.8806 0
M  V30 3105 H 296.324 0.442651 2.53768 0
M  V30 3106 H 296.282 -1.25123 2.8843 0
M  V30 3107 N 300.054 -1.07777 1.14986 0
M  V30 3108 C 301.3 -1.80557 0.923422 0
M  V30 3109 C 301.633 -1.86298 -0.548337 0
M  V30 3110 O 300.908 -1.34354 -1.40639 0
M  V30 3111 C 301.191 -3.25839 1.53299 0
M  V30 3112 C 301.044 -3.28269 3.07505 0
M  V30 3113 C 302.363 -4.22991 1.21518 0
M  V30 3114 H 299.482 -0.655493 0.336894 0
M  V30 3115 H 302.124 -1.26144 1.42083 0
M  V30 3116 H 300.274 -3.72306 1.10999 0
M  V30 3117 H 301.946 -2.90079 3.58681 0
M  V30 3118 H 300.189 -2.67355 3.4162 0
M  V30 3119 H 300.86 -4.30691 3.45266 0
M  V30 3120 H 303.336 -3.84894 1.581 0
M  V30 3121 H 302.212 -5.22945 1.66793 0
M  V30 3122 H 302.473 -4.41904 0.131505 0
M  V30 3123 N 301.532 -0.945985 -1.26051 0
M  V30 3124 C 302.495 -0.463897 -2.24456 0
M  V30 3125 C 303.495 0.427655 -1.55009 0
M  V30 3126 O 304.685 0.226157 -1.72726 0
M  V30 3127 C 301.817 0.330812 -3.39291 0
M  V30 3128 H 303.01 -1.33357 -2.68619 0
M  V30 3129 H 300.563 -0.728416 -1.38289 0
M  V30 3130 H 301.298 1.21852 -3.00537 0
M  V30 3131 H 301.083 -0.308679 -3.90883 0
M  V30 3132 H 302.573 0.657865 -4.12386 0
M  V30 3133 N 303.011 1.40521 -0.713556 0
M  V30 3134 C 303.943 2.29191 -0.0203126 0
M  V30 3135 C 304.956 1.45723 0.725864 0
M  V30 3136 O 306.145 1.69033 0.573581 0
M  V30 3137 C 303.245 3.2395 0.995486 0
M  V30 3138 C 302.418 4.36262 0.315256 0
M  V30 3139 C 301.477 5.11474 1.23616 0
M  V30 3140 O 300.503 5.64606 0.721719 0
M  V30 3141 N 301.705 5.20638 2.56743 0
M  V30 3142 H 304.47 2.89327 -0.781652 0
M  V30 3143 H 302.031 1.51869 -0.561022 0
M  V30 3144 H 304.023 3.71137 1.61368 0
M  V30 3145 H 302.593 2.64995 1.6582 0
M  V30 3146 H 301.813 3.91228 -0.483106 0
M  V30 3147 H 303.101 5.08558 -0.157004 0
M  V30 3148 H 302.499 4.7895 3.01037 0
M  V30 3149 H 301.056 5.71339 3.13712 0
M  V30 3150 N 304.489 0.459591 1.5075 0
M  V30 3151 C 305.399 -0.34613 2.32033 0
M  V30 3152 C 306.415 -1.00686 1.41909 0
M  V30 3153 O 307.591 -0.997361 1.7497 0
M  V30 3154 C 304.656 -1.42029 3.16273 0
M  V30 3155 C 303.717 -0.777362 4.22203 0
M  V30 3156 C 302.95 -1.80034 5.02418 0
M  V30 3157 O 303.173 -3.02544 4.83553 0
M  V30 3158 O 302.107 -1.37853 5.85901 0
M  V30 3159 H 305.933 0.318054 3.0203 0
M  V30 3160 H 303.518 0.221663 1.47746 0
M  V30 3161 H 305.4 -2.04275 3.68578 0
M  V30 3162 H 304.075 -2.06815 2.49016 0
M  V30 3163 H 302.982 -0.116256 3.73919 0
M  V30 3164 H 304.315 -0.172634 4.91897 0
M  V30 3165 N 305.967 -1.56429 0.191757 0
M  V30 3166 C 307.214 -1.97485 -0.447891 0
M  V30 3167 C 307.542 -1.07852 -1.61859 0
M  V30 3168 O 306.797 -0.116903 -1.95351 0
M  V30 3169 C 307.096 -3.44449 -0.953384 0
M  V30 3170 C 306.762 -4.50781 0.103586 0
M  V30 3171 C 305.424 -4.79584 0.394023 0
M  V30 3172 C 307.776 -5.1471 0.819946 0
M  V30 3173 C 305.104 -5.69607 1.40585 0
M  V30 3174 C 307.456 -6.05827 1.8209 0
M  V30 3175 C 306.12 -6.32987 2.11857 0
M  V30 3176 H 305.39 -0.722648 -0.163895 0
M  V30 3177 H 308.037 -1.89322 0.28802 0
M  V30 3178 H 306.342 -3.49666 -1.76751 0
M  V30 3179 H 308.039 -3.73569 -1.45765 0
M  V30 3180 H 304.629 -4.28394 -0.132951 0
M  V30 3181 H 308.813 -4.92552 0.608789 0
M  V30 3182 H 304.069 -5.88926 1.64243 0
M  V30 3183 H 308.243 -6.54424 2.38123 0
M  V30 3184 H 305.87 -7.02544 2.90407 0
M  V30 3185 N 307.445 0.0818655 -1.57387 0
M  V30 3186 C 308.377 1.12484 -1.997 0
M  V30 3187 C 309.39 1.35564 -0.90146 0
M  V30 3188 O 310.579 1.33982 -1.17945 0
M  V30 3189 C 307.679 2.47778 -2.31213 0
M  V30 3190 C 306.852 2.44793 -3.62485 0
M  V30 3191 C 305.911 3.62117 -3.81782 0
M  V30 3192 O 304.937 3.44005 -4.53486 0
M  V30 3193 N 306.139 4.82094 -3.23367 0
M  V30 3194 H 308.904 0.764585 -2.89783 0
M  V30 3195 H 306.465 0.270664 -1.59621 0
M  V30 3196 H 308.457 3.24891 -2.41304 0
M  V30 3197 H 307.027 2.75843 -1.4707 0
M  V30 3198 H 306.247 1.53134 -3.6324 0
M  V30 3199 H 307.535 2.39889 -4.48699 0
M  V30 3200 H 306.933 4.99713 -2.65148 0
M  V30 3201 H 305.49 5.56753 -3.38923 0
M  V30 3202 N 308.923 1.53595 0.353017 0
M  V30 3203 C 309.853 1.83902 1.43883 0
M  V30 3204 C 310.834 0.693421 1.55324 0
M  V30 3205 O 312.019 0.944452 1.69687 0
M  V30 3206 C 309.149 2.04016 2.8106 0
M  V30 3207 C 308.103 3.19814 2.84434 0
M  V30 3208 C 307.429 3.25244 4.24406 0
M  V30 3209 C 308.729 4.58133 2.50822 0
M  V30 3210 H 310.423 2.74835 1.1877 0
M  V30 3211 H 307.969 1.32242 0.569917 0
M  V30 3212 H 309.922 2.238 3.57059 0
M  V30 3213 H 308.646 1.09804 3.07588 0
M  V30 3214 H 307.305 2.9987 2.10887 0
M  V30 3215 H 306.953 2.28646 4.48029 0
M  V30 3216 H 306.653 4.03054 4.27576 0
M  V30 3217 H 308.177 3.47228 5.0226 0
M  V30 3218 H 309.591 4.77995 3.16534 0
M  V30 3219 H 307.988 5.38276 2.6529 0
M  V30 3220 H 309.058 4.62387 1.46034 0
M  V30 3221 N 310.401 -0.613514 1.45168 0
M  V30 3222 C 311.817 -0.933629 1.29443 0
M  V30 3223 C 312.017 -2.00028 0.243101 0
M  V30 3224 O 311.073 -2.49848 -0.364992 0
M  V30 3225 C 312.386 -1.38018 2.67155 0
M  V30 3226 C 313.934 -1.49471 2.75004 0
M  V30 3227 C 314.409 -1.97503 4.13227 0
M  V30 3228 N 315.9 -2.04746 4.15491 0
M  V30 3229 C 316.635 -2.43121 5.19307 0
M  V30 3230 N 316.131 -2.80506 6.33473 0
M  V30 3231 N 317.924 -2.43408 5.06664 0
M  V30 3232 H 310.075 0.0916097 2.12202 0
M  V30 3233 H 312.338 -0.0216655 0.947752 0
M  V30 3234 H 312.044 -0.670625 3.45247 0
M  V30 3235 H 311.918 -2.34784 2.95222 0
M  V30 3236 H 314.305 -2.19519 1.9722 0
M  V30 3237 H 314.386 -0.510342 2.50657 0
M  V30 3238 H 314.03 -1.28045 4.91495 0
M  V30 3239 H 313.96 -2.96843 4.34962 0
M  V30 3240 H 316.451 -1.78468 3.33103 0
M  V30 3241 H 316.764 -3.08652 7.08487 0
M  V30 3242 H 315.109 -2.78216 6.36884 0
M  V30 3243 H 318.3 -2.13604 4.16523 0
M  V30 3244 H 318.473 -2.72989 5.87691 0
M  V30 3245 N 311.879 -1.3236 -0.855495 0
M  V30 3246 C 313.295 -1.11332 -1.14356 0
M  V30 3247 C 313.495 0.106751 -2.01217 0
M  V30 3248 O 312.551 0.791891 -2.39761 0
M  V30 3249 C 313.864 -2.39237 -1.82171 0
M  V30 3250 C 315.412 -2.44986 -1.9481 0
M  V30 3251 C 315.887 -3.7281 -2.66039 0
M  V30 3252 N 317.378 -3.73787 -2.73565 0
M  V30 3253 C 318.113 -4.69394 -3.29327 0
M  V30 3254 N 317.609 -5.75367 -3.85907 0
M  V30 3255 N 319.402 -4.56893 -3.27423 0
M  V30 3256 H 311.553 -2.10586 -0.277027 0
M  V30 3257 H 313.816 -0.929701 -0.185364 0
M  V30 3258 H 313.522 -3.28431 -1.25802 0
M  V30 3259 H 313.396 -2.50134 -2.82335 0
M  V30 3260 H 315.783 -1.56252 -2.50338 0
M  V30 3261 H 315.864 -2.38043 -0.936448 0
M  V30 3262 H 315.508 -4.61918 -2.11174 0
M  V30 3263 H 315.438 -3.77024 -3.67642 0
M  V30 3264 H 317.929 -2.97189 -2.33424 0
M  V30 3265 H 318.242 -6.44378 -4.26611 0
M  V30 3266 H 316.587 -5.79123 -3.84242 0
M  V30 3267 H 319.778 -3.73269 -2.82467 0
M  V30 3268 H 319.951 -5.31577 -3.7058 0
M  V30 3269 N 313.357 1.07166 -1.15556 0
M  V30 3270 C 314.773 1.31899 -0.898603 0
M  V30 3271 C 314.973 1.96333 0.453383 0
M  V30 3272 O 314.029 2.22438 1.19489 0
M  V30 3273 C 315.342 2.20826 -2.04099 0
M  V30 3274 C 316.89 2.34269 -2.07574 0
M  V30 3275 C 317.365 3.26546 -3.21141 0
M  V30 3276 N 318.856 3.34127 -3.20801 0
M  V30 3277 C 319.591 4.05595 -4.05315 0
M  V30 3278 N 319.087 4.79661 -4.99897 0
M  V30 3279 N 320.88 4.01555 -3.93332 0
M  V30 3280 H 313.031 0.637302 -2.02613 0
M  V30 3281 H 315.294 0.343468 -0.883591 0
M  V30 3282 H 315 1.80744 -3.01703 0
M  V30 3283 H 314.874 3.21364 -1.97496 0
M  V30 3284 H 317.261 2.73603 -1.10568 0
M  V30 3285 H 317.342 1.33429 -2.18244 0
M  V30 3286 H 316.986 2.87931 -4.184 0
M  V30 3287 H 316.916 4.27345 -3.07708 0
M  V30 3288 H 319.407 2.81336 -2.52306 0
M  V30 3289 H 319.72 5.31694 -5.60822 0
M  V30 3290 H 318.065 4.78671 -5.03884 0
M  V30 3291 H 321.256 3.42806 -3.18751 0
M  V30 3292 H 321.429 4.56987 -4.5942 0
M  V30 3293 N 314.835 0.952656 1.25548 0
M  V30 3294 C 315.767 0.428609 2.25157 0
M  V30 3295 C 316.78 -0.454428 1.56329 0
M  V30 3296 O 317.969 -0.263023 1.76552 0
M  V30 3297 C 315.069 -0.401972 3.36508 0
M  V30 3298 C 314.242 0.467601 4.34893 0
M  V30 3299 C 313.301 -0.30445 5.25319 0
M  V30 3300 O 312.327 0.296473 5.68427 0
M  V30 3301 N 313.529 -1.59805 5.5807 0
M  V30 3302 H 316.294 1.28497 2.70756 0
M  V30 3303 H 313.855 0.822798 1.39433 0
M  V30 3304 H 315.847 -0.926134 3.9396 0
M  V30 3305 H 314.417 -1.15918 2.90313 0
M  V30 3306 H 313.637 1.17288 3.76347 0
M  V30 3307 H 314.925 1.06119 4.97611 0
M  V30 3308 H 314.323 -2.10823 5.24948 0
M  V30 3309 H 312.88 -2.06822 6.18116 0
M  V30 3310 N 316.313 -1.40141 0.720998 0
M  V30 3311 C 317.243 -2.33339 0.0867621 0
M  V30 3312 C 318.224 -1.53178 -0.739622 0
M  V30 3313 O 319.409 -1.81625 -0.687449 0
M  V30 3314 C 316.539 -3.37194 -0.831728 0
M  V30 3315 C 315.493 -4.27857 -0.110558 0
M  V30 3316 C 314.819 -5.22294 -1.14513 0
M  V30 3317 C 316.119 -5.11872 1.0385 0
M  V30 3318 H 317.813 -2.86626 0.865219 0
M  V30 3319 H 315.359 -1.37814 0.417516 0
M  V30 3320 H 317.312 -4.01335 -1.28485 0
M  V30 3321 H 316.036 -2.82314 -1.64214 0
M  V30 3322 H 314.695 -3.65176 0.322797 0
M  V30 3323 H 314.343 -4.63717 -1.94874 0
M  V30 3324 H 314.043 -5.83797 -0.667446 0
M  V30 3325 H 315.567 -5.89312 -1.59824 0
M  V30 3326 H 316.981 -5.69436 0.664482 0
M  V30 3327 H 315.378 -5.82445 1.4449 0
M  V30 3328 H 316.448 -4.4753 1.86668 0
M  V30 3329 N 317.792 -0.46758 -1.50504 0
M  V30 3330 C 319.04 0.0884469 -2.01906 0
M  V30 3331 C 319.361 1.40532 -1.35188 0
M  V30 3332 O 318.631 1.89515 -0.496079 0
M  V30 3333 H 317.211 0.0356765 -0.746148 0
M  V30 3334 H 319.873 -0.6172 -1.84869 0
M  V30 3335 H 318.969 0.2425 -3.11156 0
M  V30 3336 N 319.27 1.56325 -0.20005 0
M  V30 3337 C 320.495 2.02548 0.44597 0
M  V30 3338 C 320.92 1.07922 1.5406 0
M  V30 3339 O 320.278 0.0635775 1.81188 0
M  V30 3340 C 320.326 3.47175 0.974761 0
M  V30 3341 O 319.43 3.55671 2.08739 0
M  V30 3342 H 318.771 0.655862 0.103638 0
M  V30 3343 H 321.301 2.02201 -0.312381 0
M  V30 3344 H 321.311 3.87067 1.2901 0
M  V30 3345 H 319.986 4.15538 0.17347 0
M  V30 3346 H 318.563 3.27657 1.78032 0
M  V30 3347 N 320.748 -0.0735177 1.57428 0
M  V30 3348 C 321.68 -1.11423 2.00294 0
M  V30 3349 C 322.693 -1.35084 0.908637 0
M  V30 3350 O 323.882 -1.33355 1.18654 0
M  V30 3351 C 320.982 -2.46548 2.32523 0
M  V30 3352 C 320.155 -2.42867 3.63778 0
M  V30 3353 C 319.214 -3.60087 3.83697 0
M  V30 3354 O 318.24 -3.41595 4.55304 0
M  V30 3355 N 319.442 -4.80372 3.25919 0
M  V30 3356 H 322.207 -0.749206 2.90184 0
M  V30 3357 H 319.768 -0.262195 1.59763 0
M  V30 3358 H 321.76 -3.23607 2.43024 0
M  V30 3359 H 320.33 -2.75059 1.48531 0
M  V30 3360 H 319.55 -1.51206 3.64047 0
M  V30 3361 H 320.838 -2.37506 4.49965 0
M  V30 3362 H 320.236 -4.983 2.67795 0
M  V30 3363 H 318.793 -5.54948 3.41871 0
M  V30 3364 N 322.226 -1.5378 -0.344866 0
M  V30 3365 C 323.474 -1.70625 -1.08311 0
M  V30 3366 C 323.795 -0.471447 -1.89215 0
M  V30 3367 O 323.065 0.514616 -1.8902 0
M  V30 3368 H 321.645 -0.629058 -0.402859 0
M  V30 3369 H 324.307 -1.9103 -0.386459 0
M  V30 3370 H 323.403 -2.57656 -1.76124 0
M  V30 3371 N 323.704 0.605807 -1.45491 0
M  V30 3372 C 324.929 1.39625 -1.53361 0
M  V30 3373 C 325.354 1.87351 -0.167645 0
M  V30 3374 O 324.712 1.60243 0.848051 0
M  V30 3375 C 324.76 2.57559 -2.5238 0
M  V30 3376 O 323.864 3.58248 -2.04285 0
M  V30 3377 H 323.205 0.416771 -0.516912 0
M  V30 3378 H 325.735 0.737103 -1.90861 0
M  V30 3379 H 325.745 3.0478 -2.71244 0
M  V30 3380 H 324.42 2.22171 -3.51586 0
M  V30 3381 H 322.997 3.17664 -1.95305 0
M  V30 3382 N 325.182 1.32811 0.848464 0
M  V30 3383 C 326.407 1.26882 1.6406 0
M  V30 3384 C 326.832 -0.15913 1.87426 0
M  V30 3385 O 326.19 -1.11258 1.43148 0
M  V30 3386 C 326.238 2.03997 2.97351 0
M  V30 3387 O 325.342 1.39201 3.88197 0
M  V30 3388 H 324.683 0.436982 0.499943 0
M  V30 3389 H 327.213 1.75224 1.0563 0
M  V30 3390 H 327.223 2.14403 3.47124 0
M  V30 3391 H 325.898 3.0783 2.79666 0
M  V30 3392 H 324.475 1.37381 3.46671 0
M  V30 3393 N 326.66 -1.06551 1.16123 0
M  V30 3394 C 327.906 -1.79719 0.952505 0
M  V30 3395 C 328.261 -1.85396 -0.514385 0
M  V30 3396 O 327.554 -1.33263 -1.37665 0
M  V30 3397 C 327.748 -3.23911 1.51052 0
M  V30 3398 C 327.577 -3.32284 3.03013 0
M  V30 3399 C 326.347 -3.42371 3.71632 0
M  V30 3400 C 328.545 -3.22363 4.00732 0
M  V30 3401 N 326.527 -3.39732 5.11327 0
M  V30 3402 C 327.898 -3.26937 5.26794 0
M  V30 3403 C 329.953 -3.0623 3.92591 0
M  V30 3404 C 328.656 -3.17035 6.45663 0
M  V30 3405 C 330.682 -2.97665 5.11028 0
M  V30 3406 C 330.044 -3.02858 6.35969 0
M  V30 3407 H 326.143 -0.670585 0.402293 0
M  V30 3408 H 328.727 -1.27125 1.4747 0
M  V30 3409 H 326.898 -3.74907 1.01484 0
M  V30 3410 H 328.63 -3.85242 1.2398 0
M  V30 3411 H 325.385 -3.47058 3.22254 0
M  V30 3412 H 325.809 -3.41919 5.84312 0
M  V30 3413 H 330.451 -3.01063 2.96852 0
M  V30 3414 H 328.169 -3.2096 7.41627 0
M  V30 3415 H 331.755 -2.86273 5.06497 0
M  V30 3416 H 330.635 -2.96286 7.26075 0
M  V30 3417 N 328.138 -0.959301 -1.25041 0
M  V30 3418 C 329.363 -0.633507 -1.97488 0
M  V30 3419 C 329.788 0.788555 -1.70773 0
M  V30 3420 O 329.146 1.53394 -0.966431 0
M  V30 3421 C 329.194 -0.904057 -3.49083 0
M  V30 3422 O 328.298 0.0147939 -4.12397 0
M  V30 3423 H 327.639 -0.240368 -0.618966 0
M  V30 3424 H 330.169 -1.28717 -1.59038 0
M  V30 3425 H 330.179 -0.832203 -3.99423 0
M  V30 3426 H 328.854 -1.94048 -3.67856 0
M  V30 3427 H 327.431 -0.109664 -3.72739 0
M  V30 3428 N 329.616 1.39756 -0.72842 0
M  V30 3429 C 330.563 2.30647 -0.0841519 0
M  V30 3430 C 331.533 1.48869 0.7367 0
M  V30 3431 O 332.718 1.77574 0.698015 0
M  V30 3432 C 329.858 3.35165 0.822091 0
M  V30 3433 C 328.971 4.31999 -0.0106663 0
M  V30 3434 C 328.106 5.23585 0.896241 0
M  V30 3435 C 327.145 6.12072 0.0583381 0
M  V30 3436 N 326.282 6.96035 0.920818 0
M  V30 3437 H 331.122 2.85173 -0.864891 0
M  V30 3438 H 328.659 1.40422 -0.438179 0
M  V30 3439 H 330.617 3.94345 1.36189 0
M  V30 3440 H 329.247 2.8211 1.56888 0
M  V30 3441 H 328.299 3.74492 -0.66781 0
M  V30 3442 H 329.611 4.9443 -0.658825 0
M  V30 3443 H 328.765 5.87759 1.50412 0
M  V30 3444 H 327.504 4.61459 1.57819 0
M  V30 3445 H 326.509 5.46916 -0.562389 0
M  V30 3446 H 327.734 6.76261 -0.6203 0
M  V30 3447 H 325.68 6.36485 1.58818 0
M  V30 3448 H 325.597 7.55284 0.32899 0
M  V30 3449 H 326.865 7.64646 1.51447 0
M  V30 3450 N 331.094 0.475555 1.50254 0
M  V30 3451 C 332.34 -0.0701075 2.03279 0
M  V30 3452 C 332.695 -1.37007 1.35081 0
M  V30 3453 O 331.988 -1.8577 0.469052 0
M  V30 3454 C 332.182 -0.305114 3.56095 0
M  V30 3455 C 332.011 0.970515 4.39103 0
M  V30 3456 C 330.781 1.51509 4.82051 0
M  V30 3457 C 332.979 1.8671 4.79212 0
M  V30 3458 N 330.961 2.73928 5.49397 0
M  V30 3459 C 332.332 2.93715 5.46014 0
M  V30 3460 C 334.387 1.87695 4.61167 0
M  V30 3461 C 333.09 4.01699 5.96683 0
M  V30 3462 C 335.116 2.94637 5.12779 0
M  V30 3463 C 334.478 4.00361 5.79561 0
M  V30 3464 H 330.577 0.014486 0.781866 0
M  V30 3465 H 333.161 0.644755 1.83714 0
M  V30 3466 H 331.332 -0.989019 3.75597 0
M  V30 3467 H 333.064 -0.845516 3.95769 0
M  V30 3468 H 329.819 1.06367 4.61501 0
M  V30 3469 H 330.243 3.36109 5.87673 0
M  V30 3470 H 334.885 1.07273 4.08965 0
M  V30 3471 H 332.603 4.82934 6.4792 0
M  V30 3472 H 336.189 2.96388 5.00645 0
M  V30 3473 H 335.069 4.81751 6.18778 0
M  V30 3474 N 332.573 -1.56217 0.208337 0
M  V30 3475 C 333.798 -2.02782 -0.435222 0
M  V30 3476 C 334.223 -1.08738 -1.53485 0
M  V30 3477 O 333.581 -0.0731855 -1.81152 0
M  V30 3478 C 333.629 -3.47687 -0.956335 0
M  V30 3479 O 332.733 -3.56773 -2.06849 0
M  V30 3480 H 332.074 -0.656403 -0.100158 0
M  V30 3481 H 334.604 -2.02033 0.3231 0
M  V30 3482 H 334.614 -3.87745 -1.26955 0
M  V30 3483 H 333.289 -4.15624 -0.15143 0
M  V30 3484 H 331.866 -3.28597 -1.76292 0
M  V30 3485 N 334.051 0.0651679 -1.57465 0
M  V30 3486 C 335.276 0.779605 -1.9219 0
M  V30 3487 C 335.701 1.69988 -0.805333 0
M  V30 3488 O 335.059 1.79685 0.241435 0
M  V30 3489 C 335.107 1.54364 -3.2589 0
M  V30 3490 O 334.211 2.65474 -3.1559 0
M  V30 3491 H 333.552 0.212249 -0.629163 0
M  V30 3492 H 336.082 0.0314294 -2.04576 0
M  V30 3493 H 336.092 1.92146 -3.59922 0
M  V30 3494 H 334.767 0.868457 -4.06732 0
M  V30 3495 H 333.344 2.30501 -2.93128 0
M  V30 3496 N 335.529 1.53961 0.336706 0
M  V30 3497 C 336.94 1.62914 0.911925 0
M  V30 3498 C 337.291 0.514795 1.89326 0
M  V30 3499 O 336.416 -0.354395 2.13478 0
M  V30 3500 C 337.011 2.95304 1.66076 0
M  V30 3501 C 335.57 3.06496 2.18489 0
M  V30 3502 C 334.717 2.58403 1.00613 0
M  V30 3503 H 337.668 1.58285 0.114649 0
M  V30 3504 H 337.689 2.84727 2.5241 0
M  V30 3505 H 337.201 3.76387 0.946276 0
M  V30 3506 H 335.302 2.3006 2.93092 0
M  V30 3507 H 335.415 4.1208 2.44391 0
M  V30 3508 H 333.779 2.13977 1.38152 0
M  V30 3509 H 334.562 3.41932 0.306179 0
M  V30 3510 N 337.007 -0.598083 1.45811 0
M  V30 3511 C 338.253 -1.35882 1.50545 0
M  V30 3512 C 338.586 -1.93616 0.150445 0
M  V30 3513 O 337.861 -1.75604 -0.83628 0
M  V30 3514 C 338.144 -2.49966 2.59208 0
M  V30 3515 C 337.997 -1.97367 4.04186 0
M  V30 3516 C 339.316 -3.52068 2.64076 0
M  V30 3517 H 336.435 -0.492717 0.548087 0
M  V30 3518 H 339.077 -0.673319 1.77669 0
M  V30 3519 H 337.227 -3.08443 2.3621 0
M  V30 3520 H 338.899 -1.43466 4.38423 0
M  V30 3521 H 337.142 -1.283 4.14393 0
M  V30 3522 H 337.813 -2.79649 4.75921 0
M  V30 3523 H 340.289 -3.03448 2.84708 0
M  V30 3524 H 339.165 -4.2937 3.41954 0
M  V30 3525 H 339.426 -4.08304 1.69531 0
M  V30 3526 N 338.485 -1.33259 -0.841409 0
M  V30 3527 C 339.725 -1.25902 -1.61022 0
M  V30 3528 C 340.089 0.173325 -1.91216 0
M  V30 3529 O 341.29 0.370824 -2.6623 0
M  V30 3530 C 339.561 -2.10735 -2.88662 0
M  V30 3531 S 341.12 -2.20541 -3.79351 0
M  V30 3532 H 337.938 -0.447958 -0.552137 0
M  V30 3533 H 340.54 -1.68263 -0.995382 0
M  V30 3534 H 339.244 -3.1384 -2.64448 0
M  V30 3535 H 338.775 -1.69201 -3.55154 0
M  V30 3536 H 340.79 -1.36462 -4.77067 0
M  V30 3537 N 339.963 1.05934 -1.16686 0
M  V30 3538 C 341.209 1.79065 -0.95203 0
M  V30 3539 C 341.542 1.87147 0.518629 0
M  V30 3540 O 340.817 1.36574 1.38484 0
M  V30 3541 C 341.1 3.23359 -1.58464 0
M  V30 3542 C 340.953 3.23336 -3.12689 0
M  V30 3543 C 342.272 4.21004 -1.28232 0
M  V30 3544 H 339.391 0.65005 -0.34728 0
M  V30 3545 H 342.033 1.23868 -1.44072 0
M  V30 3546 H 340.183 3.70493 -1.16908 0
M  V30 3547 H 341.855 2.84336 -3.6325 0
M  V30 3548 H 340.098 2.61886 -3.4583 0
M  V30 3549 H 340.769 4.25144 -3.52075 0
M  V30 3550 H 343.245 3.8233 -1.64203 0
M  V30 3551 H 342.121 5.20225 -1.75092 0
M  V30 3552 H 342.382 4.41639 -0.201791 0
M  V30 3553 N 341.441 0.965919 1.2453 0
M  V30 3554 C 342.852 0.665929 1.7442 0
M  V30 3555 C 343.203 -0.818407 1.78316 0
M  V30 3556 O 342.328 -1.64037 1.41141 0
M  V30 3557 C 342.923 1.20211 3.16757 0
M  V30 3558 C 341.482 0.952059 3.6416 0
M  V30 3559 C 340.629 1.33848 2.42858 0
M  V30 3560 H 343.58 1.14144 1.10258 0
M  V30 3561 H 343.601 0.567544 3.76244 0
M  V30 3562 H 343.113 2.28244 3.13889 0
M  V30 3563 H 341.214 -0.112821 3.72429 0
M  V30 3564 H 341.327 1.59645 4.51719 0
M  V30 3565 H 339.691 0.756864 2.43195 0
M  V30 3566 H 340.474 2.42827 2.42673 0
M  V30 3567 N 342.919 -1.39368 0.735821 0
M  V30 3568 C 344.33 -1.83313 0.354015 0
M  V30 3569 C 344.681 -1.61461 -1.11466 0
M  V30 3570 O 343.806 -1.10621 -1.85989 0
M  V30 3571 C 344.401 -3.32781 0.635769 0
M  V30 3572 C 342.96 -3.75142 0.307448 0
M  V30 3573 C 342.107 -2.62358 0.897974 0
M  V30 3574 H 345.058 -1.28349 0.933398 0
M  V30 3575 H 345.079 -3.80388 -0.0921773 0
M  V30 3576 H 344.591 -3.48654 1.70476 0
M  V30 3577 H 342.692 -3.64857 -0.755674 0
M  V30 3578 H 342.805 -4.72532 0.790583 0
M  V30 3579 H 341.169 -2.52624 0.324551 0
M  V30 3580 H 341.952 -2.81036 1.97164 0
M  V30 3581 N 344.397 -0.483516 -1.5 0
M  V30 3582 C 345.307 0.309172 -2.32554 0
M  V30 3583 C 346.323 0.984159 -1.43493 0
M  V30 3584 O 347.499 0.969399 -1.76535 0
M  V30 3585 C 344.564 1.36979 -3.18493 0
M  V30 3586 C 343.625 0.710095 -4.23387 0
M  V30 3587 C 342.858 1.72018 -5.05218 0
M  V30 3588 O 343.081 2.94813 -4.88305 0
M  V30 3589 O 342.015 1.28515 -5.8802 0
M  V30 3590 H 345.841 -0.366064 -3.01486 0
M  V30 3591 H 343.426 -0.24514 -1.47375 0
M  V30 3592 H 345.308 1.98385 -3.71781 0
M  V30 3593 H 343.983 2.02828 -2.52275 0
M  V30 3594 H 342.89 0.0567539 -3.74057 0
M  V30 3595 H 344.223 0.0943557 -4.9211 0
M  V30 3596 N 345.875 1.56104 -0.216619 0
M  V30 3597 C 346.823 2.21434 0.712036 0
M  V30 3598 C 347.817 1.19218 1.20348 0
M  V30 3599 O 349.023 1.3731 1.16387 0
M  V30 3600 H 345.398 0.70992 0.248026 0
M  V30 3601 H 347.369 2.98083 0.137558 0
M  V30 3602 C 346.118 2.90434 1.91163 0
M  V30 3603 H 345.441 3.68842 1.54258 0
M  V30 3604 H 346.881 3.39552 2.5393 0
M  V30 3605 C 345.34 1.92635 2.76394 0
M  V30 3606 O 345.87 1.44017 3.74996 0
M  V30 3607 N 344.076 1.60392 2.42328 0
M  V30 3608 H 343.623 2.00122 1.622 0
M  V30 3609 H 343.581 0.952159 2.99635 0
M  V30 3610 N 347.353 -0.0568162 1.57498 0
M  V30 3611 C 348.764 -0.606858 1.76562 0
M  V30 3612 C 349.115 -1.77114 0.844094 0
M  V30 3613 O 348.24 -2.16376 0.0318911 0
M  V30 3614 C 348.835 -1.10766 3.20182 0
M  V30 3615 C 347.394 -1.60344 3.40539 0
M  V30 3616 C 346.541 -0.529311 2.72201 0
M  V30 3617 H 349.492 0.169393 1.57793 0
M  V30 3618 H 349.513 -1.97602 3.25167 0
M  V30 3619 H 349.025 -0.26006 3.87228 0
M  V30 3620 H 347.126 -2.47379 2.78629 0
M  V30 3621 H 347.239 -1.67006 4.4905 0
M  V30 3622 H 345.603 -0.977893 2.35179 0
M  V30 3623 H 346.386 0.308352 3.41912 0
M  V30 3624 N 348.832 -1.54138 -0.328536 0
M  V30 3625 C 350.243 -1.63395 -0.903272 0
M  V30 3626 C 350.594 -0.524828 -1.8905 0
M  V30 3627 O 349.719 0.343068 -2.13663 0
M  V30 3628 C 350.314 -2.9618 -1.64507 0
M  V30 3629 C 348.873 -3.0765 -2.1686 0
M  V30 3630 C 348.02 -2.58933 -0.992416 0
M  V30 3631 H 350.971 -1.58344 -0.106253 0
M  V30 3632 H 350.992 -2.86061 -2.50897 0
M  V30 3633 H 350.504 -3.76884 -0.926302 0
M  V30 3634 H 348.605 -2.31611 -2.91868 0
M  V30 3635 H 348.718 -4.1337 -2.42202 0
M  V30 3636 H 347.082 -2.14706 -1.37016 0
M  V30 3637 H 347.865 -3.42089 -0.288041 0
M  V30 3638 N 350.31 0.590341 -1.46126 0
M  V30 3639 C 351.242 1.71427 -1.52136 0
M  V30 3640 C 352.255 1.57542 -0.41042 0
M  V30 3641 O 353.444 1.65106 -0.678389 0
M  V30 3642 C 350.544 3.09605 -1.37834 0
M  V30 3643 C 349.717 3.49566 -2.62912 0
M  V30 3644 C 348.776 4.66773 -2.42918 0
M  V30 3645 O 347.802 4.73019 -3.1661 0
M  V30 3646 N 349.004 5.61161 -1.4859 0
M  V30 3647 H 351.769 1.66728 -2.49042 0
M  V30 3648 H 349.33 0.776113 -1.42085 0
M  V30 3649 H 351.322 3.85796 -1.22243 0
M  V30 3650 H 349.892 3.08714 -0.491393 0
M  V30 3651 H 349.112 2.63158 -2.93499 0
M  V30 3652 H 350.4 3.73028 -3.46017 0
M  V30 3653 H 349.798 5.58844 -0.87808 0
M  V30 3654 H 348.355 6.36814 -1.38965 0
M  V30 3655 N 351.788 1.33704 0.83433 0
M  V30 3656 C 353.199 1.22813 1.4062 0
M  V30 3657 C 353.55 -0.151107 1.95617 0
M  V30 3658 O 352.675 -1.05092 1.89168 0
M  V30 3659 C 353.27 2.22355 2.55624 0
M  V30 3660 C 351.829 2.1529 3.08751 0
M  V30 3661 C 350.976 2.09589 1.8157 0
M  V30 3662 H 353.927 1.45236 0.639702 0
M  V30 3663 H 353.948 1.83391 3.33389 0
M  V30 3664 H 353.46 3.22728 2.15566 0
M  V30 3665 H 351.561 1.18235 3.53343 0
M  V30 3666 H 351.674 3.06038 3.68616 0
M  V30 3667 H 350.038 1.55134 2.02004 0
M  V30 3668 H 350.821 3.11777 1.43701 0
M  V30 3669 N 353.266 -1.05314 1.17247 0
M  V30 3670 C 354.198 -2.13023 0.845812 0
M  V30 3671 C 355.211 -1.62096 -0.151246 0
M  V30 3672 O 356.4 -1.78343 0.0748818 0
M  V30 3673 C 353.5 -3.38047 0.240292 0
M  V30 3674 C 352.673 -4.18255 1.27991 0
M  V30 3675 C 351.732 -5.21625 0.692375 0
M  V30 3676 O 350.758 -5.52619 1.36385 0
M  V30 3677 N 351.96 -5.78201 -0.516178 0
M  V30 3678 H 354.725 -2.41642 1.77283 0
M  V30 3679 H 352.286 -1.21401 1.07115 0
M  V30 3680 H 354.278 -4.04359 -0.16603 0
M  V30 3681 H 352.848 -3.06972 -0.590487 0
M  V30 3682 H 352.068 -3.47451 1.86203 0
M  V30 3683 H 353.356 -4.68643 1.98119 0
M  V30 3684 H 352.754 -5.55301 -1.07969 0
M  V30 3685 H 351.311 -6.4604 -0.86458 0
M  V30 3686 N 354.744 -0.972509 -1.24016 0
M  V30 3687 C 355.99 -0.637978 -1.92504 0
M  V30 3688 C 356.323 0.825383 -1.75787 0
M  V30 3689 O 355.598 1.59442 -1.11393 0
M  V30 3690 C 355.881 -1.01942 -3.45369 0
M  V30 3691 C 355.734 -2.53983 -3.71231 0
M  V30 3692 C 357.053 -0.55751 -4.36555 0
M  V30 3693 H 354.172 -0.233248 -0.699117 0
M  V30 3694 H 356.814 -1.21238 -1.46292 0
M  V30 3695 H 354.964 -0.530656 -3.84859 0
M  V30 3696 H 356.636 -3.10374 -3.41271 0
M  V30 3697 H 354.879 -2.96968 -3.16216 0
M  V30 3698 H 355.55 -2.75723 -4.78206 0
M  V30 3699 H 358.026 -0.977029 -4.04467 0
M  V30 3700 H 356.902 -0.85292 -5.42233 0
M  V30 3701 H 357.163 0.542328 -4.38761 0
M  V30 3702 N 356.222 1.38976 -0.743202 0
M  V30 3703 C 357.638 1.53984 -0.419664 0
M  V30 3704 C 357.838 1.70837 1.0685 0
M  V30 3705 O 356.894 1.7135 1.8546 0
M  V30 3706 C 358.207 2.75287 -1.20985 0
M  V30 3707 C 359.755 2.89129 -1.19889 0
M  V30 3708 C 360.23 4.13381 -1.97181 0
M  V30 3709 N 361.721 4.20437 -1.94389 0
M  V30 3710 C 362.456 5.15547 -2.50996 0
M  V30 3711 N 361.952 6.16395 -3.16274 0
M  V30 3712 N 363.745 5.07822 -2.40984 0
M  V30 3713 H 355.896 1.26285 -1.7078 0
M  V30 3714 H 358.159 0.612689 -0.723406 0
M  V30 3715 H 357.865 2.69204 -2.26323 0
M  V30 3716 H 357.739 3.68184 -0.819759 0
M  V30 3717 H 360.126 2.947 -0.153606 0
M  V30 3718 H 360.207 1.97272 -1.62841 0
M  V30 3719 H 359.851 4.08572 -3.01714 0
M  V30 3720 H 359.781 5.04298 -1.51629 0
M  V30 3721 H 362.272 3.48205 -1.46839 0
M  V30 3722 H 362.585 6.85443 -3.56915 0
M  V30 3723 H 360.93 6.16758 -3.20367 0
M  V30 3724 H 364.121 4.27973 -1.89622 0
M  V30 3725 H 364.294 5.81767 -2.85397 0
M  V30 3726 N 357.7 0.491464 1.49741 0
M  V30 3727 C 358.947 -0.0564256 2.02421 0
M  V30 3728 C 359.275 -1.37872 1.37192 0
M  V30 3729 O 358.53 -1.89375 0.493508 0
M  V30 3730 C 358.829 -0.267329 3.56399 0
M  V30 3731 C 358.495 0.975775 4.40215 0
M  V30 3732 C 357.157 1.31655 4.62839 0
M  V30 3733 C 359.509 1.80251 4.89039 0
M  V30 3734 C 356.837 2.48375 5.31532 0
M  V30 3735 C 359.189 2.96116 5.59015 0
M  V30 3736 C 357.853 3.30585 5.79888 0
M  V30 3737 H 357.123 -0.0206476 0.740712 0
M  V30 3738 H 359.77 0.649686 1.80143 0
M  V30 3739 H 358.075 -1.05588 3.77304 0
M  V30 3740 H 359.772 -0.705549 3.94744 0
M  V30 3741 H 356.362 0.700315 4.2284 0
M  V30 3742 H 360.546 1.55239 4.71396 0
M  V30 3743 H 355.802 2.7533 5.45897 0
M  V30 3744 H 359.976 3.60509 5.95824 0
M  V30 3745 H 357.603 4.21132 6.32892 0
M  V30 3746 N 359.178 -1.55987 0.224894 0
M  V30 3747 C 360.403 -2.03232 -0.41369 0
M  V30 3748 C 360.828 -1.10359 -1.52323 0
M  V30 3749 O 360.186 -0.092395 -1.81064 0
M  V30 3750 C 360.234 -3.48682 -0.919405 0
M  V30 3751 O 359.338 -3.58947 -2.03054 0
M  V30 3752 H 358.679 -0.657428 -0.0931903 0
M  V30 3753 H 361.209 -2.01679 0.34451 0
M  V30 3754 H 361.219 -3.8907 -1.22835 0
M  V30 3755 H 359.894 -4.15761 -0.107339 0
M  V30 3756 H 358.471 -3.30448 -1.72796 0
M  V30 3757 N 360.656 0.0484629 -1.57525 0
M  V30 3758 C 361.902 0.744226 -1.88651 0
M  V30 3759 C 362.235 1.76029 -0.820212 0
M  V30 3760 O 361.51 1.93782 0.166985 0
M  V30 3761 C 361.793 1.43128 -3.30434 0
M  V30 3762 C 361.646 0.43005 -4.47739 0
M  V30 3763 C 362.965 2.37031 -3.70816 0
M  V30 3764 H 360.084 0.269089 -0.68612 0
M  V30 3765 H 362.726 0.00713532 -1.89999 0
M  V30 3766 H 360.876 2.05956 -3.29415 0
M  V30 3767 H 362.548 -0.194816 -4.60888 0
M  V30 3768 H 360.791 -0.252522 -4.33064 0
M  V30 3769 H 361.462 0.948874 -5.43783 0
M  V30 3770 H 363.938 1.84263 -3.73077 0
M  V30 3771 H 362.814 2.82094 -4.70865 0
M  V30 3772 H 363.075 3.22864 -3.02012 0
M  V30 3773 N 362.134 1.5431 0.320358 0
M  V30 3774 C 363.044 1.86946 1.41734 0
M  V30 3775 C 364.06 0.761689 1.56443 0
M  V30 3776 O 365.236 1.05629 1.71477 0
M  V30 3777 C 362.301 2.09293 2.76401 0
M  V30 3778 C 361.362 3.33082 2.70841 0
M  V30 3779 C 360.595 3.54353 3.99086 0
M  V30 3780 O 360.818 2.79002 4.97508 0
M  V30 3781 O 359.752 4.47838 4.0215 0
M  V30 3782 H 363.578 2.80232 1.17062 0
M  V30 3783 H 361.163 1.40255 0.514673 0
M  V30 3784 H 363.045 2.25303 3.56113 0
M  V30 3785 H 361.72 1.19194 3.00956 0
M  V30 3786 H 360.627 3.22454 1.89668 0
M  V30 3787 H 361.96 4.23249 2.5124 0
M  V30 3788 N 363.613 -0.582584 1.46437 0
M  V30 3789 C 364.545 -1.70618 1.53043 0
M  V30 3790 C 365.558 -1.57322 0.418769 0
M  V30 3791 O 366.747 -1.64744 0.687136 0
M  V30 3792 C 363.847 -3.08869 1.39474 0
M  V30 3793 C 363.02 -3.48166 2.64762 0
M  V30 3794 C 362.079 -4.65478 2.4539 0
M  V30 3795 O 361.105 -4.71333 3.19114 0
M  V30 3796 N 362.307 -5.60365 1.51564 0
M  V30 3797 H 365.072 -1.65405 2.49923 0
M  V30 3798 H 362.633 -0.768567 1.42494 0
M  V30 3799 H 364.625 -3.85143 1.24287 0
M  V30 3800 H 363.195 -3.08449 0.507758 0
M  V30 3801 H 362.415 -2.61598 2.9489 0
M  V30 3802 H 363.703 -3.71188 3.4799 0
M  V30 3803 H 363.101 -5.5837 0.907705 0
M  V30 3804 H 361.658 -6.36068 1.4234 0
M  V30 3805 N 365.091 -1.34144 -0.827227 0
M  V30 3806 C 366.021 -1.28005 -1.95287 0
M  V30 3807 C 367.002 -0.158321 -1.69362 0
M  V30 3808 O 368.187 -0.349987 -1.9102 0
M  V30 3809 C 365.317 -1.03036 -3.31664 0
M  V30 3810 C 364.271 -2.11628 -3.72019 0
M  V30 3811 C 363.597 -1.71854 -5.0633 0
M  V30 3812 C 364.897 -3.53417 -3.8457 0
M  V30 3813 H 366.591 -2.22187 -2.00682 0
M  V30 3814 H 364.137 -1.0696 -0.964135 0
M  V30 3815 H 366.09 -0.973863 -4.09993 0
M  V30 3816 H 364.814 -0.0529391 -3.26557 0
M  V30 3817 H 363.473 -2.16339 -2.95961 0
M  V30 3818 H 363.121 -0.727841 -4.97706 0
M  V30 3819 H 362.821 -2.44531 -5.34302 0
M  V30 3820 H 364.345 -1.67692 -5.87122 0
M  V30 3821 H 365.759 -3.51142 -4.5318 0
M  V30 3822 H 364.156 -4.24679 -4.2399 0
M  V30 3823 H 365.226 -3.91072 -2.86689 0
M  V30 3824 N 366.569 1.04691 -1.17803 0
M  V30 3825 C 367.817 1.7743 -0.967617 0
M  V30 3826 C 368.138 1.88359 0.504574 0
M  V30 3827 O 367.408 1.40402 1.36617 0
M  V30 3828 H 365.988 0.657242 -0.355024 0
M  V30 3829 H 368.65 1.2638 -1.48371 0
M  V30 3830 H 367.746 2.78924 -1.40027 0
M  V30 3831 N 368.047 0.979072 1.23499 0
M  V30 3832 C 368.979 0.476271 2.24197 0
M  V30 3833 C 369.992 -0.421166 1.57258 0
M  V30 3834 O 371.181 -0.225515 1.7707 0
M  V30 3835 C 368.281 -0.330503 3.37285 0
M  V30 3836 C 367.454 0.559744 4.33804 0
M  V30 3837 C 366.513 -0.192954 5.25846 0
M  V30 3838 O 365.539 0.416978 5.67671 0
M  V30 3839 N 366.741 -1.47932 5.61334 0
M  V30 3840 H 369.506 1.34211 2.67969 0
M  V30 3841 H 367.067 0.852189 1.37657 0
M  V30 3842 H 369.059 -0.842361 3.95836 0
M  V30 3843 H 367.629 -1.09734 2.92707 0
M  V30 3844 H 366.849 1.25245 3.73775 0
M  V30 3845 H 368.137 1.1665 4.95248 0
M  V30 3846 H 367.535 -1.9964 5.29302 0
M  V30 3847 H 366.092 -1.93664 6.22364 0
M  V30 3848 N 369.525 -1.3858 0.750561 0
M  V30 3849 C 370.802 -1.94231 0.231009 0
M  V30 3850 C 371.182 -1.68611 -1.27018 0
M  V30 3851 O 370.53 -1.02296 -2.04323 0
M  V30 3852 C 370.74 -3.44123 0.581428 0
M  V30 3853 C 372.088 -4.2116 0.539389 0
M  V30 3854 O 373.112 -3.52391 0.519541 0
M  V30 3855 O 371.971 -5.43749 0.54765 0
M  V30 3856 H 369.065 -0.825639 0.0474263 0
M  V30 3857 H 371.611 -1.4799 0.830478 0
M  V30 3858 H 370.383 -3.56267 1.61833 0
M  V30 3859 H 370.006 -3.97573 -0.0462047 0
M  V30 3860 N 371.003 -0.499398 -1.49478 0
M  V30 3861 C 372.251 0.0455996 -2.02049 0
M  V30 3862 C 372.572 1.37633 -1.38138 0
M  V30 3863 O 371.842 1.8842 -0.536166 0
M  V30 3864 H 370.422 0.0198416 -0.746736 0
M  V30 3865 H 373.084 -0.656274 -1.83519 0
M  V30 3866 H 372.18 0.176445 -3.11601 0
M  V30 3867 N 372.481 1.55866 -0.233164 0
M  V30 3868 C 373.897 1.59133 0.121988 0
M  V30 3869 C 374.097 1.25016 1.58029 0
M  V30 3870 O 373.153 0.990922 2.32243 0
M  V30 3871 C 374.466 2.99932 -0.214792 0
M  V30 3872 C 376.014 3.12601 -0.157971 0
M  V30 3873 C 376.489 4.55597 -0.46859 0
M  V30 3874 N 377.98 4.61305 -0.418585 0
M  V30 3875 C 378.715 5.69903 -0.63227 0
M  V30 3876 N 378.211 6.86819 -0.90835 0
M  V30 3877 N 380.004 5.59264 -0.563913 0
M  V30 3878 H 372.155 1.76315 -1.18434 0
M  V30 3879 H 374.418 0.820093 -0.475553 0
M  V30 3880 H 374.124 3.29588 -1.22739 0
M  V30 3881 H 373.998 3.74327 0.464691 0
M  V30 3882 H 376.385 2.82735 0.845283 0
M  V30 3883 H 376.466 2.40511 -0.871102 0
M  V30 3884 H 376.11 4.86182 -1.46934 0
M  V30 3885 H 376.04 5.25928 0.265865 0
M  V30 3886 H 378.531 3.77297 -0.213368 0
M  V30 3887 H 378.844 7.65507 -1.05919 0
M  V30 3888 H 377.189 6.88536 -0.945673 0
M  V30 3889 H 380.38 4.66802 -0.348372 0
M  V30 3890 H 380.553 6.43831 -0.733847 0
M  V30 3891 N 373.959 -0.0401083 1.57549 0
M  V30 3892 C 375.375 -0.395556 1.54621 0
M  V30 3893 C 375.575 -1.77281 0.957799 0
M  V30 3894 O 374.631 -2.45888 0.574031 0
M  V30 3895 C 375.944 -0.307535 2.99123 0
M  V30 3896 C 377.492 -0.385425 3.10618 0
M  V30 3897 C 377.967 -0.326973 4.56831 0
M  V30 3898 N 379.458 -0.386102 4.61588 0
M  V30 3899 C 380.193 -0.363591 5.72246 0
M  V30 3900 N 379.689 -0.29402 6.92176 0
M  V30 3901 N 381.482 -0.412503 5.60584 0
M  V30 3902 H 373.633 0.861325 1.94152 0
M  V30 3903 H 375.896 0.326445 0.890021 0
M  V30 3904 H 375.602 0.638461 3.45856 0
M  V30 3905 H 375.476 -1.10552 3.60636 0
M  V30 3906 H 377.863 -1.32185 2.63839 0
M  V30 3907 H 377.944 0.44171 2.51957 0
M  V30 3908 H 377.588 0.605738 5.04275 0
M  V30 3909 H 377.518 -1.17207 5.13391 0
M  V30 3910 H 380.009 -0.442832 3.75296 0
M  V30 3911 H 380.322 -0.28164 7.72287 0
M  V30 3912 H 378.667 -0.260232 6.94513 0
M  V30 3913 H 381.858 -0.464769 4.65787 0
M  V30 3914 H 382.031 -0.391492 6.46816 0
M  V30 3915 N 375.437 -1.54477 -0.31217 0
M  V30 3916 C 376.853 -1.45442 -0.657185 0
M  V30 3917 C 377.053 -0.63653 -1.91182 0
M  V30 3918 O 376.109 -0.139815 -2.52113 0
M  V30 3919 C 377.422 -2.89287 -0.82058 0
M  V30 3920 C 378.97 -2.9926 -0.917188 0
M  V30 3921 C 379.445 -4.44279 -1.11267 0
M  V30 3922 N 380.936 -4.4794 -1.17914 0
M  V30 3923 C 381.671 -5.57318 -1.34848 0
M  V30 3924 N 381.167 -6.76642 -1.48752 0
M  V30 3925 N 382.96 -5.44986 -1.37647 0
M  V30 3926 H 375.111 -2.06129 0.512313 0
M  V30 3927 H 377.374 -0.933088 0.167485 0
M  V30 3928 H 377.08 -3.51687 0.0302604 0
M  V30 3929 H 376.954 -3.36061 -1.71298 0
M  V30 3930 H 379.341 -2.36981 -1.75852 0
M  V30 3931 H 379.422 -2.558 -0.00101257 0
M  V30 3932 H 379.066 -5.07149 -0.27614 0
M  V30 3933 H 378.996 -4.85359 -2.04289 0
M  V30 3934 H 381.487 -3.61969 -1.08567 0
M  V30 3935 H 381.8 -7.55758 -1.61397 0
M  V30 3936 H 380.145 -6.79529 -1.45828 0
M  V30 3937 H 383.336 -4.50715 -1.26388 0
M  V30 3938 H 383.509 -6.3028 -1.50501 0
M  V30 3939 N 376.915 0.57481 -1.46744 0
M  V30 3940 C 377.845 1.69337 -1.60771 0
M  V30 3941 C 378.826 1.63825 -0.457736 0
M  V30 3942 O 380.011 1.8172 -0.684947 0
M  V30 3943 C 377.141 3.0798 -1.60517 0
M  V30 3944 C 376.095 3.28327 -2.74564 0
M  V30 3945 C 375.421 4.67578 -2.59373 0
M  V30 3946 C 376.721 3.15398 -4.16319 0
M  V30 3947 H 378.415 1.57853 -2.54407 0
M  V30 3948 H 375.961 0.75799 -1.22436 0
M  V30 3949 H 377.914 3.86061 -1.68923 0
M  V30 3950 H 376.638 3.20381 -0.634305 0
M  V30 3951 H 375.297 2.52649 -2.65639 0
M  V30 3952 H 374.945 4.76755 -1.60353 0
M  V30 3953 H 374.645 4.82144 -3.35873 0
M  V30 3954 H 376.169 5.47817 -2.69682 0
M  V30 3955 H 377.583 3.83315 -4.26313 0
M  V30 3956 H 375.98 3.41482 -4.93468 0
M  V30 3957 H 377.05 2.12372 -4.3592 0
M  V30 3958 N 378.394 1.34581 0.820102 0
M  V30 3959 C 379.622 1.3018 1.60813 0
M  V30 3960 C 380.037 -0.123551 1.88395 0
M  V30 3961 O 379.394 -1.07148 1.47735 0
M  V30 3962 C 379.445 2.09312 2.94739 0
M  V30 3963 O 379.166 3.46288 2.68358 0
M  V30 3964 C 380.667 2.1234 3.89136 0
M  V30 3965 H 377.887 0.447726 0.499782 0
M  V30 3966 H 380.431 1.77237 1.02017 0
M  V30 3967 H 378.586 1.65889 3.50085 0
M  V30 3968 H 379 3.87227 3.53774 0
M  V30 3969 H 380.474 2.72126 4.80262 0
M  V30 3970 H 380.951 1.11854 4.24718 0
M  V30 3971 H 381.557 2.55864 3.39726 0
M  V30 3972 N 379.872 -1.04064 1.18357 0
M  V30 3973 C 380.802 -2.14001 0.934113 0
M  V30 3974 C 381.783 -1.69616 -0.128186 0
M  V30 3975 O 382.968 -1.94185 0.0244093 0
M  V30 3976 C 380.098 -3.44253 0.459066 0
M  V30 3977 C 379.052 -4.02261 1.46185 0
M  V30 3978 C 378.378 -5.27992 0.844322 0
M  V30 3979 C 379.678 -4.38432 2.83856 0
M  V30 3980 H 381.372 -2.35127 1.85352 0
M  V30 3981 H 378.918 -1.12998 0.892604 0
M  V30 3982 H 380.871 -4.20522 0.271907 0
M  V30 3983 H 379.595 -3.22813 -0.495912 0
M  V30 3984 H 378.254 -3.28074 1.63595 0
M  V30 3985 H 377.902 -5.02862 -0.117845 0
M  V30 3986 H 377.602 -5.67765 1.51384 0
M  V30 3987 H 379.126 -6.06938 0.667693 0
M  V30 3988 H 380.54 -5.05688 2.70098 0
M  V30 3989 H 378.937 -4.89254 3.47491 0
M  V30 3990 H 380.007 -3.4826 3.37406 0
M  V30 3991 N 381.35 -0.985608 -1.22978 0
M  V30 3992 C 382.297 -0.529825 -2.24636 0
M  V30 3993 C 383.267 0.434028 -1.60329 0
M  V30 3994 O 384.452 0.340414 -1.87739 0
M  V30 3995 C 381.592 0.156533 -3.44745 0
M  V30 3996 C 380.705 -0.848197 -4.23591 0
M  V30 3997 C 379.84 -0.136109 -5.31026 0
M  V30 3998 C 378.879 -1.1297 -6.01585 0
M  V30 3999 N 378.016 -0.446415 -7.00679 0
M  V30 4000 H 382.856 -1.40148 -2.62988 0
M  V30 4001 H 380.393 -0.702168 -1.29259 0
M  V30 4002 H 382.351 0.571324 -4.1327 0
M  V30 4003 H 380.981 0.992025 -3.07179 0
M  V30 4004 H 380.033 -1.38135 -3.54433 0
M  V30 4005 H 381.345 -1.60512 -4.72268 0
M  V30 4006 H 380.499 0.335784 -6.0577 0
M  V30 4007 H 379.238 0.653373 -4.83304 0
M  V30 4008 H 378.243 -1.6123 -5.25628 0
M  V30 4009 H 379.468 -1.91993 -6.51395 0
M  V30 4010 H 377.414 0.323763 -6.55201 0
M  V30 4011 H 377.331 -1.1419 -7.47326 0
M  V30 4012 H 378.599 0.00291697 -7.795 0
M  V30 4013 N 382.828 1.3818 -0.7579 0
M  V30 4014 C 383.738 2.3421 -0.135247 0
M  V30 4015 C 384.754 1.59487 0.695683 0
M  V30 4016 O 385.93 1.91657 0.618832 0
M  V30 4017 C 382.995 3.3862 0.744139 0
M  V30 4018 C 382.056 4.2918 -0.101658 0
M  V30 4019 C 381.289 5.28603 0.735851 0
M  V30 4020 O 381.512 5.35166 1.97366 0
M  V30 4021 O 380.446 6.01707 0.152372 0
M  V30 4022 H 384.272 2.8916 -0.928436 0
M  V30 4023 H 381.857 1.40101 -0.518855 0
M  V30 4024 H 383.739 4.02539 1.2466 0
M  V30 4025 H 382.414 2.86019 1.51575 0
M  V30 4026 H 381.321 3.68407 -0.650167 0
M  V30 4027 H 382.654 4.85048 -0.836024 0
M  V30 4028 N 384.306 0.507319 1.49211 0
M  V30 4029 C 385.238 -0.304532 2.27168 0
M  V30 4030 C 386.251 -0.924956 1.33972 0
M  V30 4031 O 387.44 -0.807227 1.59205 0
M  V30 4032 C 384.54 -1.44431 3.06583 0
M  V30 4033 C 383.713 -0.930026 4.27398 0
M  V30 4034 C 382.772 -1.94817 4.88807 0
M  V30 4035 O 381.798 -1.51418 5.4869 0
M  V30 4036 N 383 -3.279 4.79022 0
M  V30 4037 H 385.765 0.36395 2.97482 0
M  V30 4038 H 383.326 0.340249 1.58284 0
M  V30 4039 H 385.318 -2.12311 3.44537 0
M  V30 4040 H 383.888 -2.01684 2.38835 0
M  V30 4041 H 383.108 -0.0759244 3.94127 0
M  V30 4042 H 384.396 -0.564932 5.05654 0
M  V30 4043 H 383.794 -3.65843 4.3148 0
M  V30 4044 H 382.351 -3.91476 5.21142 0
M  V30 4045 N 385.784 -1.5574 0.241426 0
M  V30 4046 C 387.195 -1.84842 -0.262755 0
M  V30 4047 C 387.546 -1.16317 -1.58003 0
M  V30 4048 O 386.671 -0.439653 -2.11887 0
M  V30 4049 C 387.266 -3.35332 -0.483523 0
M  V30 4050 C 385.825 -3.6468 -0.931977 0
M  V30 4051 C 384.972 -2.77299 -0.0061151 0
M  V30 4052 H 387.923 -1.51761 0.464129 0
M  V30 4053 H 387.944 -3.56615 -1.32688 0
M  V30 4054 H 387.456 -3.85178 0.47537 0
M  V30 4055 H 385.557 -3.20307 -1.90353 0
M  V30 4056 H 385.67 -4.72498 -0.792628 0
M  V30 4057 H 384.034 -2.49408 -0.516503 0
M  V30 4058 H 384.817 -3.2995 0.948052 0
M  V30 4059 N 387.262 0.0317525 -1.57568 0
M  V30 4060 C 388.49 0.734949 -1.93407 0
M  V30 4061 C 388.905 1.69036 -0.84096 0
M  V30 4062 O 388.262 1.81582 0.182836 0
M  V30 4063 C 388.313 1.49432 -3.29169 0
M  V30 4064 O 388.034 0.577261 -4.3428 0
M  V30 4065 C 389.535 2.29492 -3.79273 0
M  V30 4066 H 386.755 0.206706 -0.638368 0
M  V30 4067 H 389.299 -0.00992046 -2.04498 0
M  V30 4068 H 387.454 2.1911 -3.19483 0
M  V30 4069 H 387.868 1.10952 -5.1263 0
M  V30 4070 H 389.342 2.78172 -4.76785 0
M  V30 4071 H 389.819 3.10794 -3.10328 0
M  V30 4072 H 390.425 1.64894 -3.92033 0
M  V30 4073 N 388.74 1.54641 0.303973 0
M  V30 4074 C 389.672 1.81754 1.39636 0
M  V30 4075 C 390.685 0.70035 1.46966 0
M  V30 4076 O 391.874 0.97778 1.49338 0
M  V30 4077 C 388.974 1.93785 2.7803 0
M  V30 4078 C 388.147 3.24156 2.93669 0
M  V30 4079 C 387.206 3.26641 4.12544 0
M  V30 4080 O 386.232 4.00187 4.04771 0
M  V30 4081 N 387.434 2.5182 5.23036 0
M  V30 4082 H 390.199 2.76031 1.16734 0
M  V30 4083 H 387.76 1.54178 0.494033 0
M  V30 4084 H 389.752 1.92852 3.55795 0
M  V30 4085 H 388.322 1.06515 2.93893 0
M  V30 4086 H 387.542 3.37887 2.03042 0
M  V30 4087 H 388.83 4.10195 3.01027 0
M  V30 4088 H 388.228 1.91692 5.32232 0
M  V30 4089 H 386.785 2.56644 5.99147 0
M  V30 4090 N 390.218 -0.567019 1.47046 0
M  V30 4091 C 391.148 -1.68482 1.61667 0
M  V30 4092 C 392.129 -1.6358 0.466418 0
M  V30 4093 O 393.314 -1.81354 0.694574 0
M  V30 4094 C 390.444 -3.07124 1.62148 0
M  V30 4095 C 389.398 -3.26867 2.76301 0
M  V30 4096 C 388.724 -4.66196 2.61849 0
M  V30 4097 C 390.024 -3.13186 4.17986 0
M  V30 4098 H 391.718 -1.56502 2.5524 0
M  V30 4099 H 389.264 -0.751486 1.22836 0
M  V30 4100 H 391.217 -3.8516 1.70968 0
M  V30 4101 H 389.941 -3.2004 0.651287 0
M  V30 4102 H 388.6 -2.51237 2.66975 0
M  V30 4103 H 388.248 -4.75898 1.62879 0
M  V30 4104 H 387.948 -4.80356 3.38425 0
M  V30 4105 H 389.472 -5.46379 2.72584 0
M  V30 4106 H 390.886 -3.81049 4.2834 0
M  V30 4107 H 389.283 -3.3886 4.95272 0
M  V30 4108 H 390.353 -2.10057 4.3704 0
M  V30 4109 N 391.696 -1.35014 -0.812953 0
M  V30 4110 C 392.606 -1.2951 -1.95613 0
M  V30 4111 C 393.622 -0.20107 -1.72834 0
M  V30 4112 O 394.798 -0.42932 -1.96771 0
M  V30 4113 C 391.863 -1.06033 -3.30088 0
M  V30 4114 C 390.924 -2.24688 -3.65805 0
M  V30 4115 C 390.157 -2.02322 -4.93864 0
M  V30 4116 O 390.38 -0.986464 -5.61805 0
M  V30 4117 O 389.314 -2.89525 -5.27692 0
M  V30 4118 H 393.14 -2.25705 -2.03202 0
M  V30 4119 H 390.725 -1.15321 -0.949811 0
M  V30 4120 H 392.607 -0.94763 -4.10607 0
M  V30 4121 H 391.282 -0.128852 -3.23443 0
M  V30 4122 H 390.189 -2.41521 -2.85689 0
M  V30 4123 H 391.522 -3.16261 -3.77147 0
M  V30 4124 N 393.175 1.03435 -1.18907 0
M  V30 4125 C 394.105 2.13503 -0.945448 0
M  V30 4126 C 395.086 1.69682 0.119189 0
M  V30 4127 O 396.271 1.94169 -0.034707 0
M  V30 4128 C 393.401 3.44004 -0.477316 0
M  V30 4129 C 392.355 4.0148 -1.48316 0
M  V30 4130 C 391.681 5.27537 -0.872311 0
M  V30 4131 C 392.981 4.36921 -2.86177 0
M  V30 4132 H 394.675 2.34141 -1.86597 0
M  V30 4133 H 392.221 1.12523 -0.898584 0
M  V30 4134 H 394.174 4.20372 -0.294204 0
M  V30 4135 H 392.898 3.23072 0.478786 0
M  V30 4136 H 391.557 3.27201 -1.65332 0
M  V30 4137 H 391.205 5.02917 0.0911752 0
M  V30 4138 H 390.905 5.66954 -1.54393 0
M  V30 4139 H 392.429 6.06576 -0.699871 0
M  V30 4140 H 393.843 5.04248 -2.72776 0
M  V30 4141 H 392.24 4.87405 -3.50081 0
M  V30 4142 H 393.31 3.46466 -3.39248 0
M  V30 4143 N 394.653 0.992116 1.22453 0
M  V30 4144 C 396.064 0.702776 1.72968 0
M  V30 4145 C 396.415 -0.780399 1.80012 0
M  V30 4146 O 395.54 -1.61007 1.44589 0
M  V30 4147 C 396.135 1.26903 3.14135 0
M  V30 4148 C 394.694 1.02909 3.62059 0
M  V30 4149 C 393.841 1.38969 2.39964 0
M  V30 4150 H 396.792 1.16457 1.07812 0
M  V30 4151 H 396.813 0.647223 3.74955 0
M  V30 4152 H 396.325 2.34851 3.08977 0
M  V30 4153 H 394.426 -0.0337979 3.72585 0
M  V30 4154 H 394.539 1.69191 4.48231 0
M  V30 4155 H 392.903 0.808279 2.41535 0
M  V30 4156 H 393.686 2.4792 2.37467 0
M  V30 4157 N 396.131 -1.37776 0.765217 0
M  V30 4158 C 397.041 -2.34135 0.147666 0
M  V30 4159 C 398.057 -1.59854 -0.687215 0
M  V30 4160 O 399.233 -1.91983 -0.608659 0
M  V30 4161 C 396.298 -3.3901 -0.72617 0
M  V30 4162 C 395.359 -4.2912 0.124417 0
M  V30 4163 C 394.592 -5.28986 -0.707807 0
M  V30 4164 O 394.815 -5.36205 -1.94525 0
M  V30 4165 O 393.749 -6.01779 -0.12046 0
M  V30 4166 H 397.575 -2.88664 0.943758 0
M  V30 4167 H 395.16 -1.39824 0.526277 0
M  V30 4168 H 397.042 -4.03195 -1.22524 0
M  V30 4169 H 395.717 -2.86819 -1.50056 0
M  V30 4170 H 394.624 -3.68057 0.669696 0
M  V30 4171 H 395.957 -4.84598 0.861736 0
M  V30 4172 N 397.609 -0.515225 -1.4894 0
M  V30 4173 C 398.857 0.0241671 -2.02086 0
M  V30 4174 C 399.178 1.3616 -1.3959 0
M  V30 4175 O 398.448 1.87841 -0.556121 0
M  V30 4176 H 397.028 0.0119203 -0.746905 0
M  V30 4177 H 399.69 -0.675702 -1.82812 0
M  V30 4178 H 398.786 0.143385 -3.1177 0
M  V30 4179 N 399.087 1.5561 -0.249682 0
M  V30 4180 C 400.327 2.00916 0.37579 0
M  V30 4181 C 400.691 1.13409 1.54927 0
M  V30 4182 O 401.892 1.48183 2.24266 0
M  V30 4183 C 400.163 3.48949 0.772633 0
M  V30 4184 S 401.722 4.16261 1.38824 0
M  V30 4185 H 398.54 0.70112 0.118117 0
M  V30 4186 H 401.142 1.92052 -0.365567 0
M  V30 4187 H 399.846 4.103 -0.090683 0
M  V30 4188 H 399.377 3.61745 1.5461 0
M  V30 4189 H 401.392 4.17778 2.67724 0
M  V30 4190 N 400.565 -0.0233959 1.57583 0
M  V30 4191 C 401.497 -1.04994 2.03737 0
M  V30 4192 C 402.51 -1.32125 0.951152 0
M  V30 4193 O 403.699 -1.29512 1.22837 0
M  V30 4194 C 400.799 -2.39026 2.40249 0
M  V30 4195 C 399.972 -2.31171 3.7132 0
M  V30 4196 C 399.031 -3.47698 3.94959 0
M  V30 4197 O 398.057 -3.26937 4.65941 0
M  V30 4198 N 399.259 -4.6976 3.41037 0
M  V30 4199 H 402.024 -0.656507 2.92421 0
M  V30 4200 H 399.585 -0.211235 1.60516 0
M  V30 4201 H 401.577 -3.15712 2.53196 0
M  V30 4202 H 400.147 -2.70194 1.57207 0
M  V30 4203 H 399.367 -1.39547 3.68674 0
M  V30 4204 H 400.655 -2.23071 4.57293 0
M  V30 4205 H 400.053 -4.89528 2.83512 0
M  V30 4206 H 398.61 -5.43791 3.59353 0
M  V30 4207 N 402.043 -1.548 -0.295768 0
M  V30 4208 C 403.291 -1.73985 -1.02828 0
M  V30 4209 C 403.612 -0.531406 -1.87619 0
M  V30 4210 O 402.882 0.454221 -1.90561 0
M  V30 4211 H 401.462 -0.641556 -0.382642 0
M  V30 4212 H 404.124 -1.92163 -0.325489 0
M  V30 4213 H 403.22 -2.63129 -1.67838 0
M  V30 4214 N 403.521 0.559213 -1.47345 0
M  V30 4215 C 404.451 1.67622 -1.62558 0
M  V30 4216 C 405.432 1.63331 -0.475087 0
M  V30 4217 O 406.617 1.80983 -0.704182 0
M  V30 4218 C 403.747 3.0626 -1.63774 0
M  V30 4219 C 402.701 3.25397 -2.7803 0
M  V30 4220 C 402.027 4.64801 -2.64318 0
M  V30 4221 C 403.327 3.10965 -4.19641 0
M  V30 4222 H 405.021 1.55146 -2.56067 0
M  V30 4223 H 402.567 0.744961 -1.23233 0
M  V30 4224 H 404.52 3.84247 -1.73008 0
M  V30 4225 H 403.244 3.1969 -0.66825 0
M  V30 4226 H 401.903 2.49817 -2.68304 0
M  V30 4227 H 401.551 4.75028 -1.65401 0
M  V30 4228 H 401.251 4.78555 -3.40968 0
M  V30 4229 H 402.775 5.44926 -2.75478 0
M  V30 4230 H 404.189 3.78772 -4.30354 0
M  V30 4231 H 402.586 3.36229 -4.97062 0
M  V30 4232 H 403.656 2.07736 -4.38148 0
M  V30 4233 N 404.999 1.35443 0.805782 0
M  V30 4234 C 405.962 1.28301 1.89925 0
M  V30 4235 C 406.962 0.194285 1.59622 0
M  V30 4236 O 408.152 0.448036 1.6834 0
M  V30 4237 C 405.284 0.984997 3.2636 0
M  V30 4238 H 406.477 2.2553 1.97677 0
M  V30 4239 H 404.03 1.19979 1.00173 0
M  V30 4240 H 404.765 0.016603 3.24296 0
M  V30 4241 H 404.55 1.77269 3.4974 0
M  V30 4242 H 406.04 0.960651 4.064 0
M  V30 4243 N 406.477 -1.02803 1.19454 0
M  V30 4244 C 407.888 -1.57667 0.999899 0
M  V30 4245 C 408.239 -1.91041 -0.446956 0
M  V30 4246 O 407.364 -1.70978 -1.32648 0
M  V30 4247 C 407.959 -2.86477 1.80877 0
M  V30 4248 C 406.518 -3.37911 1.65811 0
M  V30 4249 C 405.665 -2.11343 1.79526 0
M  V30 4250 H 408.616 -0.853214 1.33813 0
M  V30 4251 H 408.637 -3.57408 1.30536 0
M  V30 4252 H 408.149 -2.62155 2.86175 0
M  V30 4253 H 406.25 -3.67218 0.63102 0
M  V30 4254 H 406.363 -4.10885 2.46395 0
M  V30 4255 H 404.727 -2.23254 1.22596 0
M  V30 4256 H 405.51 -1.89461 2.86285 0
M  V30 4257 N 407.956 -0.998596 -1.21925 0
M  V30 4258 C 409.204 -0.676325 -1.90448 0
M  V30 4259 C 409.525 0.794719 -1.78071 0
M  V30 4260 O 408.795 1.5701 -1.17152 0
M  V30 4261 H 407.375 -0.247165 -0.704925 0
M  V30 4262 H 410.037 -1.26633 -1.48156 0
M  V30 4263 H 409.133 -0.943858 -2.97486 0
M  V30 4264 N 409.434 1.37368 -0.772513 0
M  V30 4265 C 410.662 2.03942 -0.348588 0
M  V30 4266 C 411.077 1.58264 1.02947 0
M  V30 4267 O 410.434 0.764246 1.65727 0
M  V30 4268 C 410.485 3.5946 -0.38351 0
M  V30 4269 O 410.206 4.03468 -1.70721 0
M  V30 4270 C 411.707 4.4327 0.0519152 0
M  V30 4271 H 408.927 0.654931 -0.145966 0
M  V30 4272 H 411.471 1.75686 -1.04665 0
M  V30 4273 H 409.626 3.86486 0.265978 0
M  V30 4274 H 410.04 4.97991 -1.64636 0
M  V30 4275 H 411.514 5.51995 -0.0236733 0
M  V30 4276 H 411.991 4.2514 1.10238 0
M  V30 4277 H 412.597 4.21471 -0.569415 0
M  V30 4278 N 410.912 0.523116 1.48665 0
M  V30 4279 C 411.822 -0.247406 2.33292 0
M  V30 4280 C 412.838 -0.945769 1.46052 0
M  V30 4281 O 414.014 -0.922253 1.79043 0
M  V30 4282 C 411.079 -1.28487 3.22012 0
M  V30 4283 C 410.14 -0.597592 4.2512 0
M  V30 4284 C 409.373 -1.58563 5.09601 0
M  V30 4285 O 409.596 -2.81763 4.95949 0
M  V30 4286 O 408.53 -1.12879 5.91221 0
M  V30 4287 H 412.356 0.445869 3.00409 0
M  V30 4288 H 409.941 0.284128 1.46673 0
M  V30 4289 H 411.823 -1.88459 3.7691 0
M  V30 4290 H 410.498 -1.96068 2.57564 0
M  V30 4291 H 409.405 0.0424407 3.74076 0
M  V30 4292 H 410.738 0.0361517 4.92187 0
M  V30 4293 N 412.39 -1.55475 0.257931 0
M  V30 4294 C 413.636 -1.99502 -0.364266 0
M  V30 4295 C 413.969 -1.146 -1.56782 0
M  V30 4296 O 413.244 -0.211968 -1.93342 0
M  V30 4297 C 413.527 -3.51917 -0.763333 0
M  V30 4298 C 413.38 -4.4758 0.446371 0
M  V30 4299 C 414.699 -4.09742 -1.60623 0
M  V30 4300 H 411.818 -0.725277 -0.130929 0
M  V30 4301 H 414.46 -1.8653 0.361446 0
M  V30 4302 H 412.61 -3.63101 -1.38166 0
M  V30 4303 H 414.282 -4.48362 1.08487 0
M  V30 4304 H 412.525 -4.19947 1.08753 0
M  V30 4305 H 413.196 -5.51862 0.123645 0
M  V30 4306 H 415.672 -4.01727 -1.08418 0
M  V30 4307 H 414.548 -5.16631 -1.85429 0
M  V30 4308 H 414.809 -3.58889 -2.58169 0
M  V30 4309 N 413.868 0.0150385 -1.57593 0
M  V30 4310 C 415.096 0.714395 -1.94175 0
M  V30 4311 C 415.511 1.68135 -0.858841 0
M  V30 4312 O 414.868 1.81766 0.163567 0
M  V30 4313 C 414.919 1.45933 -3.30735 0
M  V30 4314 O 414.64 0.531167 -4.34868 0
M  V30 4315 C 416.141 2.25456 -3.81686 0
M  V30 4316 H 413.361 0.199923 -0.640525 0
M  V30 4317 H 415.905 -0.0316096 -2.04476 0
M  V30 4318 H 414.06 2.15709 -3.21789 0
M  V30 4319 H 414.474 1.05509 -5.13778 0
M  V30 4320 H 415.948 2.731 -4.79709 0
M  V30 4321 H 416.425 3.07485 -3.13607 0
M  V30 4322 H 417.031 1.60727 -3.9376 0
M  V30 4323 N 415.346 1.54954 0.287554 0
M  V30 4324 C 416.576 1.78622 1.03816 0
M  V30 4325 C 416.984 0.552451 1.80955 0
M  V30 4326 O 416.327 -0.487665 1.77109 0
M  V30 4327 C 416.389 2.94975 2.055 0
M  V30 4328 C 416.053 4.32565 1.47433 0
M  V30 4329 C 417.05 5.12096 0.897436 0
M  V30 4330 C 414.735 4.79195 1.50591 0
M  V30 4331 C 416.729 6.36383 0.359851 0
M  V30 4332 C 414.416 6.03441 0.964459 0
M  V30 4333 C 415.414 6.81872 0.392413 0
M  V30 4334 O 415.102 8.03777 -0.140788 0
M  V30 4335 H 414.834 0.599144 0.313053 0
M  V30 4336 H 417.388 2.02761 0.328225 0
M  V30 4337 H 415.618 2.66493 2.80211 0
M  V30 4338 H 417.307 3.06097 2.6657 0
M  V30 4339 H 418.073 4.77209 0.865841 0
M  V30 4340 H 413.952 4.18167 1.94055 0
M  V30 4341 H 417.496 6.97545 -0.0872951 0
M  V30 4342 H 413.393 6.37813 0.993246 0
M  V30 4343 H 414.161 8.18495 -0.0287617 0
M  V30 4344 N 416.824 -0.551391 1.4764 0
M  V30 4345 C 418.24 -0.877887 1.33287 0
M  V30 4346 C 418.44 -1.98817 0.327721 0
M  V30 4347 O 417.496 -2.51171 -0.258695 0
M  V30 4348 C 418.809 -1.26563 2.72768 0
M  V30 4349 C 420.357 -1.37673 2.81097 0
M  V30 4350 C 420.832 -1.79799 4.21232 0
M  V30 4351 N 422.323 -1.8694 4.23802 0
M  V30 4352 C 423.058 -2.20876 5.29151 0
M  V30 4353 N 422.554 -2.53386 6.448 0
M  V30 4354 N 424.347 -2.217 5.16532 0
M  V30 4355 H 416.498 0.18153 2.11623 0
M  V30 4356 H 418.761 0.0185514 0.947818 0
M  V30 4357 H 418.467 -0.523591 3.47781 0
M  V30 4358 H 418.341 -2.22052 3.04915 0
M  V30 4359 H 420.728 -2.10956 2.06353 0
M  V30 4360 H 420.809 -0.40357 2.52596 0
M  V30 4361 H 420.453 -1.07083 4.96483 0
M  V30 4362 H 420.383 -2.78128 4.4716 0
M  V30 4363 H 422.874 -1.64179 3.40373 0
M  V30 4364 H 423.187 -2.78325 7.20941 0
M  V30 4365 H 421.532 -2.50953 6.48111 0
M  V30 4366 H 424.723 -1.95745 4.25207 0
M  V30 4367 H 424.896 -2.47818 5.98741 0
M  V30 4368 N 418.302 -1.35869 -0.798587 0
M  V30 4369 C 419.232 -1.32118 -1.92528 0
M  V30 4370 C 420.213 -0.194209 -1.68988 0
M  V30 4371 O 421.398 -0.390426 -1.90235 0
M  V30 4372 C 418.528 -1.10047 -3.29404 0
M  V30 4373 C 417.482 -2.19471 -3.67446 0
M  V30 4374 C 416.808 -1.82555 -5.02571 0
M  V30 4375 C 418.108 -3.61495 -3.76987 0
M  V30 4376 H 419.802 -2.26394 -1.95924 0
M  V30 4377 H 417.348 -1.08981 -0.94123 0
M  V30 4378 H 419.301 -1.06061 -4.07835 0
M  V30 4379 H 418.025 -0.122195 -3.26371 0
M  V30 4380 H 416.684 -2.22568 -2.91306 0
M  V30 4381 H 416.332 -0.833249 -4.9605 0
M  V30 4382 H 416.032 -2.5581 -5.28995 0
M  V30 4383 H 417.556 -1.80108 -5.83432 0
M  V30 4384 H 418.97 -3.60676 -4.4563 0
M  V30 4385 H 417.367 -4.33577 -4.14887 0
M  V30 4386 H 418.437 -3.97065 -2.78329 0
M  V30 4387 N 419.78 1.02168 -1.19998 0
M  V30 4388 C 420.712 2.10705 -0.901994 0
M  V30 4389 C 421.725 1.6244 0.108216 0
M  V30 4390 O 422.914 1.78082 -0.12214 0
M  V30 4391 C 420.014 3.37291 -0.329834 0
M  V30 4392 C 419.187 4.14714 -1.39035 0
M  V30 4393 C 418.246 5.19606 -0.830432 0
M  V30 4394 O 417.272 5.48809 -1.50989 0
M  V30 4395 N 418.474 5.79366 0.362696 0
M  V30 4396 H 421.239 2.36856 -1.83628 0
M  V30 4397 H 418.8 1.18518 -1.10296 0
M  V30 4398 H 420.792 4.04657 0.0587633 0
M  V30 4399 H 419.362 3.0843 0.508891 0
M  V30 4400 H 418.582 3.42392 -1.9535 0
M  V30 4401 H 419.87 4.63226 -2.10474 0
M  V30 4402 H 419.268 5.57968 0.932081 0
M  V30 4403 H 417.825 6.48106 0.69299 0
M  V30 4404 N 421.258 1.00505 1.21394 0
M  V30 4405 C 422.188 0.585684 2.26035 0
M  V30 4406 C 423.169 -0.393525 1.65485 0
M  V30 4407 O 424.354 -0.281497 1.92149 0
M  V30 4408 C 421.484 -0.0884283 3.47187 0
M  V30 4409 C 420.438 0.810567 4.20254 0
M  V30 4410 C 419.764 0.00286382 5.347 0
M  V30 4411 C 421.064 2.1132 4.77641 0
M  V30 4412 H 422.758 1.46039 2.61368 0
M  V30 4413 H 420.304 0.703648 1.25638 0
M  V30 4414 H 422.257 -0.393286 4.19561 0
M  V30 4415 H 420.981 -0.997766 3.10986 0
M  V30 4416 H 419.64 1.09925 3.49731 0
M  V30 4417 H 419.288 -0.907765 4.94741 0
M  V30 4418 H 418.988 0.601444 5.84514 0
M  V30 4419 H 420.512 -0.295808 6.09883 0
M  V30 4420 H 421.926 1.87148 5.41893 0
M  V30 4421 H 420.323 2.66164 5.37845 0
M  V30 4422 H 421.393 2.78393 3.9702 0
M  V30 4423 N 422.737 -1.36956 0.779787 0
M  V30 4424 C 423.687 -2.27539 0.144892 0
M  V30 4425 C 424.671 -1.46493 -0.665488 0
M  V30 4426 O 425.863 -1.68968 -0.527141 0
M  V30 4427 C 422.992 -3.35512 -0.727082 0
M  V30 4428 C 422.078 -4.24001 0.0915642 0
M  V30 4429 N 422.469 -4.92757 1.14125 0
M  V30 4430 C 420.767 -4.45807 -0.131141 0
M  V30 4431 C 421.468 -5.58138 1.6388 0
M  V30 4432 N 420.444 -5.35241 0.94962 0
M  V30 4433 H 424.246 -2.78176 0.948446 0
M  V30 4434 H 421.76 -1.50169 0.618315 0
M  V30 4435 H 423.757 -3.99324 -1.19776 0
M  V30 4436 H 422.417 -2.86431 -1.52929 0
M  V30 4437 H 423.428 -4.94984 1.52353 0
M  V30 4438 H 420.105 -4.07582 -0.904621 0
M  V30 4439 H 421.495 -6.23071 2.51461 0
M  V30 4440 N 424.215 -0.530993 -1.48385 0
M  V30 4441 C 425.148 0.278511 -2.26494 0
M  V30 4442 C 426.126 0.943905 -1.32398 0
M  V30 4443 O 427.31 0.968098 -1.61741 0
M  V30 4444 C 424.437 1.39453 -3.08659 0
M  V30 4445 C 423.483 0.840434 -4.18137 0
M  V30 4446 S 424.316 -0.292496 -5.34701 0
M  V30 4447 C 425.472 0.825973 -6.20426 0
M  V30 4448 H 425.705 -0.384365 -2.94805 0
M  V30 4449 H 423.238 -0.316799 -1.51115 0
M  V30 4450 H 425.196 2.03382 -3.56575 0
M  V30 4451 H 423.857 2.02913 -2.3976 0
M  V30 4452 H 423.05 1.67769 -4.75257 0
M  V30 4453 H 422.652 0.277819 -3.72967 0
M  V30 4454 H 424.944 1.72438 -6.55188 0
M  V30 4455 H 425.887 0.292728 -7.07495 0
M  V30 4456 H 426.295 1.10683 -5.53543 0
M  V30 4457 N 425.693 1.55336 -0.266172 0
M  V30 4458 C 426.623 2.25146 0.618981 0
M  V30 4459 C 427.604 1.23845 1.16604 0
M  V30 4460 O 428.789 1.52544 1.20183 0
M  V30 4461 C 425.919 2.96572 1.80728 0
M  V30 4462 C 424.873 4.04726 1.39215 0
M  V30 4463 C 424.199 4.63678 2.66283 0
M  V30 4464 C 425.499 5.19407 0.548942 0
M  V30 4465 H 427.193 2.99377 0.0368116 0
M  V30 4466 H 424.739 1.43991 0.0162651 0
M  V30 4467 H 426.692 3.44116 2.43232 0
M  V30 4468 H 425.416 2.19861 2.41514 0
M  V30 4469 H 424.075 3.57979 0.790351 0
M  V30 4470 H 423.723 3.83646 3.25308 0
M  V30 4471 H 423.423 5.367 2.39222 0
M  V30 4472 H 424.947 5.13967 3.29651 0
M  V30 4473 H 426.361 5.63059 1.07876 0
M  V30 4474 H 424.758 5.98936 0.373593 0
M  V30 4475 H 425.828 4.8295 -0.434394 0
M  V30 4476 N 427.171 -0.0066808 1.57599 0
M  V30 4477 C 428.396 -0.707738 1.94951 0
M  V30 4478 C 428.821 -1.66882 0.867868 0
M  V30 4479 O 428.179 -1.80457 -0.17458 0
M  V30 4480 C 428.227 -1.42162 3.31394 0
M  V30 4481 O 427.331 -2.53578 3.25226 0
M  V30 4482 H 426.672 -0.188752 0.636607 0
M  V30 4483 H 429.202 0.0445193 2.04552 0
M  V30 4484 H 429.212 -1.78655 3.66806 0
M  V30 4485 H 427.887 -0.716903 4.09675 0
M  V30 4486 H 426.464 -2.19463 3.01481 0
M  V30 4487 N 428.649 -1.55105 -0.279332 0
M  V30 4488 C 429.889 -1.7716 -1.01949 0
M  V30 4489 C 430.253 -0.557511 -1.83728 0
M  V30 4490 O 431.454 -0.656198 -2.60667 0
M  V30 4491 C 429.725 -3.0372 -1.88385 0
M  V30 4492 S 431.284 -3.46868 -2.68752 0
M  V30 4493 H 428.102 -0.62253 -0.343478 0
M  V30 4494 H 430.704 -1.93329 -0.290572 0
M  V30 4495 H 429.408 -3.90184 -1.2722 0
M  V30 4496 H 428.939 -2.902 -2.65608 0
M  V30 4497 H 430.954 -3.05643 -3.90892 0
M  V30 4498 N 430.127 0.543554 -1.4793 0
M  V30 4499 C 431.538 1.12561 -1.48953 0
M  V30 4500 C 431.889 1.94578 -0.251754 0
M  V30 4501 O 431.014 2.0665 0.642255 0
M  V30 4502 C 431.609 2.04801 -2.69892 0
M  V30 4503 C 430.168 2.58251 -2.73831 0
M  V30 4504 C 429.315 1.34918 -2.42265 0
M  V30 4505 H 432.266 0.32947 -1.55242 0
M  V30 4506 H 432.287 2.88886 -2.47639 0
M  V30 4507 H 431.799 1.4508 -3.59963 0
M  V30 4508 H 429.9 3.21732 -1.87934 0
M  V30 4509 H 430.013 2.98312 -3.74895 0
M  V30 4510 H 428.377 1.66046 -1.93134 0
M  V30 4511 H 429.16 0.769693 -3.3456 0
M  V30 4512 N 431.605 1.3629 0.791371 0
M  V30 4513 C 432.845 1.31792 1.56238 0
M  V30 4514 C 433.209 -0.102237 1.91728 0
M  V30 4515 O 434.41 -0.271759 2.67423 0
M  V30 4516 C 432.681 2.21303 2.80642 0
M  V30 4517 S 434.24 2.34468 3.70904 0
M  V30 4518 H 431.058 0.468141 0.535131 0
M  V30 4519 H 433.66 1.71841 0.932246 0
M  V30 4520 H 432.364 3.23439 2.52617 0
M  V30 4521 H 431.895 1.82266 3.4863 0
M  V30 4522 H 433.91 1.54074 4.71673 0
M  V30 4523 N 433.083 -1.0153 1.20538 0
M  V30 4524 C 434.03 -2.10098 0.955383 0
M  V30 4525 C 435 -1.65702 -0.114878 0
M  V30 4526 O 436.185 -1.90776 0.0301118 0
M  V30 4527 C 433.325 -3.41236 0.514969 0
M  V30 4528 C 432.438 -3.99102 1.65353 0
M  V30 4529 C 431.573 -5.18306 1.16329 0
M  V30 4530 C 430.612 -5.68258 2.27485 0
M  V30 4531 N 429.749 -6.78722 1.7967 0
M  V30 4532 H 434.589 -2.30818 1.88486 0
M  V30 4533 H 432.126 -1.13189 0.939499 0
M  V30 4534 H 434.084 -4.16504 0.240935 0
M  V30 4535 H 432.714 -3.20585 -0.377512 0
M  V30 4536 H 431.766 -3.20918 2.04245 0
M  V30 4537 H 433.078 -4.32177 2.49047 0
M  V30 4538 H 432.232 -6.00782 0.845302 0
M  V30 4539 H 430.971 -4.86799 0.296254 0
M  V30 4540 H 429.976 -4.84385 2.60099 0
M  V30 4541 H 431.201 -6.01798 3.14667 0
M  V30 4542 H 429.147 -6.49042 0.95295 0
M  V30 4543 H 429.064 -7.10996 2.56944 0
M  V30 4544 H 430.332 -7.64759 1.50875 0
M  V30 4545 N 434.561 -1.01147 -1.20859 0
M  V30 4546 C 435.524 -0.582224 -2.21682 0
M  V30 4547 C 436.524 0.344887 -1.57058 0
M  V30 4548 O 437.714 0.134281 -1.73682 0
M  V30 4549 C 434.846 0.150496 -3.40568 0
M  V30 4550 H 436.039 -1.47408 -2.61172 0
M  V30 4551 H 433.592 -0.800695 -1.34233 0
M  V30 4552 H 434.327 1.0575 -3.06574 0
M  V30 4553 H 434.112 -0.515444 -3.88697 0
M  V30 4554 H 435.602 0.438344 -4.15293 0
M  V30 4555 N 436.039 1.36541 -0.78704 0
M  V30 4556 C 436.986 2.30082 -0.181901 0
M  V30 4557 C 437.956 1.5186 0.672896 0
M  V30 4558 O 439.141 1.80374 0.622072 0
M  V30 4559 C 436.281 3.3835 0.679197 0
M  V30 4560 C 435.394 4.31565 -0.193882 0
M  V30 4561 C 434.529 5.26915 0.673364 0
M  V30 4562 C 433.568 6.11769 -0.201315 0
M  V30 4563 N 432.705 6.99315 0.624777 0
M  V30 4564 H 437.545 2.81248 -0.985064 0
M  V30 4565 H 435.082 1.38437 -0.497342 0
M  V30 4566 H 437.04 3.99767 1.19341 0
M  V30 4567 H 435.67 2.8851 1.44781 0
M  V30 4568 H 434.722 3.71323 -0.826044 0
M  V30 4569 H 436.034 4.91191 -0.867937 0
M  V30 4570 H 435.188 5.9361 1.25348 0
M  V30 4571 H 433.927 4.67737 1.38105 0
M  V30 4572 H 432.932 5.44039 -0.793849 0
M  V30 4573 H 434.157 6.73022 -0.906568 0
M  V30 4574 H 432.103 6.42648 1.3168 0
M  V30 4575 H 432.02 7.56 0.00835237 0
M  V30 4576 H 433.288 7.70382 1.18879 0
M  V30 4577 N 437.518 0.538854 1.48102 0
M  V30 4578 C 438.481 -0.208395 2.28251 0
M  V30 4579 C 439.481 -0.859656 1.35892 0
M  V30 4580 O 440.671 -0.71834 1.58699 0
M  V30 4581 C 437.803 -1.30252 3.15035 0
M  V30 4582 H 438.996 0.495407 2.9578 0
M  V30 4583 H 436.549 0.295112 1.53489 0
M  V30 4584 H 437.284 -2.0393 2.52157 0
M  V30 4585 H 437.069 -0.840551 3.82985 0
M  V30 4586 H 438.559 -1.82787 3.75471 0
M  V30 4587 N 438.996 -1.55193 0.274407 0
M  V30 4588 C 440.224 -2.03987 -0.345943 0
M  V30 4589 C 440.639 -1.15279 -1.4952 0
M  V30 4590 O 439.996 -0.172759 -1.8168 0
M  V30 4591 C 440.047 -3.51898 -0.827631 0
M  V30 4592 O 439.768 -4.37231 0.275855 0
M  V30 4593 C 441.269 -4.16577 -1.51587 0
M  V30 4594 H 438.489 -0.666335 -0.0789892 0
M  V30 4595 H 441.033 -2.00423 0.406294 0
M  V30 4596 H 439.188 -3.55909 -1.52996 0
M  V30 4597 H 439.602 -5.24415 -0.0943638 0
M  V30 4598 H 441.076 -5.21678 -1.80433 0
M  V30 4599 H 441.553 -3.64707 -2.44716 0
M  V30 4600 H 442.159 -4.16568 -0.857409 0
M  V30 4601 N 440.474 -0.00167713 -1.576 0
M  V30 4602 C 441.89 0.354422 -1.55615 0
M  V30 4603 C 442.09 1.74679 -1.00447 0
M  V30 4604 O 441.146 2.4428 -0.639022 0
M  V30 4605 C 442.459 0.22812 -2.99833 0
M  V30 4606 C 444.007 0.302934 -3.11531 0
M  V30 4607 C 444.482 0.205737 -4.57538 0
M  V30 4608 N 445.973 0.263584 -4.62449 0
M  V30 4609 C 446.708 0.211742 -5.73009 0
M  V30 4610 N 446.204 0.110399 -6.92712 0
M  V30 4611 N 447.997 0.263729 -5.61481 0
M  V30 4612 H 440.148 -0.912498 -1.918 0
M  V30 4613 H 442.411 -0.349928 -0.881053 0
M  V30 4614 H 442.117 -0.729934 -3.44042 0
M  V30 4615 H 441.991 1.00951 -3.6344 0
M  V30 4616 H 444.378 1.25143 -2.67251 0
M  V30 4617 H 444.459 -0.508357 -2.50698 0
M  V30 4618 H 444.103 -0.739225 -5.02492 0
M  V30 4619 H 444.033 1.03554 -5.16318 0
M  V30 4620 H 446.524 0.343173 -3.76339 0
M  V30 4621 H 446.837 0.0767828 -7.72762 0
M  V30 4622 H 445.182 0.0760025 -6.94958 0
M  V30 4623 H 448.373 0.34111 -4.66855 0
M  V30 4624 H 448.546 0.219862 -6.47627 0
M  V30 4625 N 441.952 1.55251 0.271103 0
M  V30 4626 C 443.18 1.79974 1.02064 0
M  V30 4627 C 443.595 0.574003 1.79863 0
M  V30 4628 O 442.952 -0.456962 1.76686 0
M  V30 4629 C 443.003 3.02603 1.97772 0
M  V30 4630 O 442.724 4.20443 1.23124 0
M  V30 4631 C 444.225 3.39944 2.84522 0
M  V30 4632 H 441.445 0.599489 0.301419 0
M  V30 4633 H 443.989 2.02268 0.301313 0
M  V30 4634 H 442.144 2.8243 2.65165 0
M  V30 4635 H 442.558 4.89783 1.87651 0
M  V30 4636 H 444.032 4.28915 3.47471 0
M  V30 4637 H 444.509 2.59432 3.54389 0
M  V30 4638 H 445.115 3.62383 2.22618 0
M  V30 4639 N 443.43 -0.535701 1.48216 0
M  V30 4640 C 444.36 -1.65014 1.65204 0
M  V30 4641 C 445.341 -1.62554 0.501011 0
M  V30 4642 O 446.526 -1.7984 0.732886 0
M  V30 4643 C 443.656 -3.03616 1.68626 0
M  V30 4644 C 442.61 -3.20932 2.83172 0
M  V30 4645 C 441.936 -4.60537 2.71679 0
M  V30 4646 C 443.236 -3.04249 4.24535 0
M  V30 4647 H 444.93 -1.51053 2.58502 0
M  V30 4648 H 442.476 -0.725262 1.24402 0
M  V30 4649 H 444.429 -3.81446 1.79099 0
M  V30 4650 H 443.153 -3.18587 0.719026 0
M  V30 4651 H 441.812 -2.45517 2.72244 0
M  V30 4652 H 441.46 -4.72336 1.72937 0
M  V30 4653 H 441.16 -4.73069 3.48538 0
M  V30 4654 H 442.684 -5.40475 2.84112 0
M  V30 4655 H 444.098 -3.71877 4.36326 0
M  V30 4656 H 442.495 -3.28278 5.02348 0
M  V30 4657 H 443.565 -2.00739 4.41397 0
M  V30 4658 N 444.908 -1.36708 -0.784132 0
M  V30 4659 C 445.858 -1.2799 -1.88686 0
M  V30 4660 C 446.842 -0.170282 -1.59996 0
M  V30 4661 O 448.034 -0.403571 -1.72338 0
M  V30 4662 C 445.163 -1.07674 -3.25977 0
M  V30 4663 C 444.249 -2.23127 -3.60659 0
M  V30 4664 N 444.64 -3.48467 -3.66612 0
M  V30 4665 C 442.938 -2.15009 -3.90752 0
M  V30 4666 C 443.639 -4.24525 -3.97685 0
M  V30 4667 N 442.615 -3.53524 -4.12943 0
M  V30 4668 H 446.417 -2.22927 -1.91522 0
M  V30 4669 H 443.931 -1.29503 -0.979933 0
M  V30 4670 H 445.928 -0.995151 -4.04849 0
M  V30 4671 H 444.588 -0.13643 -3.24413 0
M  V30 4672 H 445.599 -3.82534 -3.49125 0
M  V30 4673 H 442.276 -1.28963 -3.97083 0
M  V30 4674 H 443.666 -5.32944 -4.0917 0
M  V30 4675 N 446.386 1.0089 -1.21074 0
M  V30 4676 C 447.316 2.1145 -0.990523 0
M  V30 4677 C 448.297 1.69897 0.0831699 0
M  V30 4678 O 449.482 1.94052 -0.0758853 0
M  V30 4679 C 446.612 3.42914 -0.550177 0
M  V30 4680 C 445.566 3.98244 -1.56799 0
M  V30 4681 C 444.892 5.25568 -0.984013 0
M  V30 4682 C 446.192 4.30752 -2.95381 0
M  V30 4683 H 447.886 2.3013 -1.91521 0
M  V30 4684 H 445.432 1.10592 -0.92225 0
M  V30 4685 H 447.385 4.19653 -0.383305 0
M  V30 4686 H 446.109 3.24014 0.41015 0
M  V30 4687 H 444.768 3.23621 -1.72236 0
M  V30 4688 H 444.416 5.02998 -0.0155216 0
M  V30 4689 H 444.116 5.63551 -1.66384 0
M  V30 4690 H 445.64 6.04955 -0.828378 0
M  V30 4691 H 447.054 4.98349 -2.8341 0
M  V30 4692 H 445.451 4.79869 -3.60341 0
M  V30 4693 H 446.521 3.39192 -3.46521 0
M  V30 4694 N 447.864 1.01787 1.20321 0
M  V30 4695 C 449.112 0.706538 1.89347 0
M  V30 4696 C 449.433 -0.766289 1.79313 0
M  V30 4697 O 448.703 -1.55126 1.19635 0
M  V30 4698 H 447.283 0.258348 0.700903 0
M  V30 4699 H 449.945 1.28974 1.46122 0
M  V30 4700 H 449.041 0.991066 2.95946 0
M  V30 4701 N 449.342 -1.36122 0.79427 0
M  V30 4702 C 450.289 -2.29982 0.194101 0
M  V30 4703 C 451.259 -1.52214 -0.664833 0
M  V30 4704 O 452.444 -1.80702 -0.612498 0
M  V30 4705 C 449.584 -3.38706 -0.661244 0
M  V30 4706 C 448.697 -4.31456 0.216766 0
M  V30 4707 C 447.832 -5.27265 -0.645411 0
M  V30 4708 C 446.871 -6.11653 0.233756 0
M  V30 4709 N 446.008 -6.99636 -0.587682 0
M  V30 4710 H 450.848 -2.80722 0.999965 0
M  V30 4711 H 448.385 -1.38172 0.504677 0
M  V30 4712 H 450.343 -4.00394 -1.17219 0
M  V30 4713 H 448.973 -2.89274 -1.43249 0
M  V30 4714 H 448.025 -3.7088 0.845724 0
M  V30 4715 H 449.337 -4.90724 0.893973 0
M  V30 4716 H 448.491 -5.94266 -1.22198 0
M  V30 4717 H 447.23 -4.68463 -1.35623 0
M  V30 4718 H 446.235 -5.4361 0.82269 0
M  V30 4719 H 447.46 -6.72531 0.942247 0
M  V30 4720 H 445.406 -6.43337 -1.2827 0
M  V30 4721 H 445.323 -7.55993 0.0317402 0
M  V30 4722 H 446.591 -7.71001 -1.14792 0
M  V30 4723 N 450.82 -0.546701 -1.47814 0
M  V30 4724 C 451.753 0.254472 -2.26777 0
M  V30 4725 C 452.731 0.929809 -1.33392 0
M  V30 4726 O 453.915 0.950889 -1.62759 0
M  V30 4727 C 451.042 1.36171 -3.10121 0
M  V30 4728 C 450.088 0.796038 -4.19005 0
M  V30 4729 S 450.921 -0.349191 -5.3436 0
M  V30 4730 C 452.077 0.760122 -6.21267 0
M  V30 4731 H 452.31 -0.415612 -2.94381 0
M  V30 4732 H 449.843 -0.332809 -1.5077 0
M  V30 4733 H 451.801 1.99588 -3.58713 0
M  V30 4734 H 450.462 2.00359 -2.41899 0
M  V30 4735 H 449.655 1.62719 -4.7701 0
M  V30 4736 H 449.257 0.238246 -3.7324 0
M  V30 4737 H 451.549 1.65479 -6.5698 0
M  V30 4738 H 452.492 0.217673 -7.07765 0
M  V30 4739 H 452.9 1.04806 -5.54685 0
M  V30 4740 N 452.299 1.55045 -0.282633 0
M  V30 4741 C 453.71 1.85473 0.213655 0
M  V30 4742 C 454.061 1.20465 1.54863 0
M  V30 4743 O 453.186 0.495676 2.10647 0
M  V30 4744 C 453.781 3.36496 0.394445 0
M  V30 4745 C 452.34 3.67022 0.834961 0
M  V30 4746 C 451.487 2.77218 -0.0674081 0
M  V30 4747 H 454.438 1.50478 -0.504202 0
M  V30 4748 H 454.459 3.60007 1.23186 0
M  V30 4749 H 453.971 3.83782 -0.577326 0
M  V30 4750 H 452.072 3.25241 1.81794 0
M  V30 4751 H 452.185 4.74433 0.667075 0
M  V30 4752 H 450.549 2.5069 0.450196 0
M  V30 4753 H 451.332 3.2732 -1.0352 0
M  V30 4754 N 453.777 0.010035 1.57597 0
M  V30 4755 C 455.007 -0.682422 1.95004 0
M  V30 4756 C 455.415 -1.67278 0.884014 0
M  V30 4757 O 454.758 -1.83129 -0.144672 0
M  V30 4758 C 454.82 -1.46141 3.28456 0
M  V30 4759 C 454.484 -0.631523 4.52615 0
M  V30 4760 C 455.481 0.0850905 5.1983 0
M  V30 4761 C 453.166 -0.574539 4.99003 0
M  V30 4762 C 455.16 0.847566 6.3174 0
M  V30 4763 C 452.847 0.191655 6.10799 0
M  V30 4764 C 453.845 0.901432 6.77025 0
M  V30 4765 O 453.533 1.65511 7.86677 0
M  V30 4766 H 453.265 -0.194361 0.647456 0
M  V30 4767 H 455.819 0.060312 2.05311 0
M  V30 4768 H 454.049 -2.24885 3.14585 0
M  V30 4769 H 455.738 -2.04016 3.50902 0
M  V30 4770 H 456.504 0.0502812 4.84974 0
M  V30 4771 H 452.383 -1.11654 4.47274 0
M  V30 4772 H 455.927 1.4021 6.83364 0
M  V30 4773 H 451.824 0.228249 6.45096 0
M  V30 4774 H 452.592 1.57287 8.03245 0
M  V30 4775 N 455.255 -1.55392 -0.262866 0
M  V30 4776 C 456.185 -1.91978 -1.32917 0
M  V30 4777 C 457.166 -0.7828 -1.51017 0
M  V30 4778 O 458.351 -1.04178 -1.63892 0
M  V30 4779 C 455.481 -2.20055 -2.68687 0
M  V30 4780 C 454.435 -3.35854 -2.65304 0
M  V30 4781 C 453.761 -3.49435 -4.04721 0
M  V30 4782 C 455.061 -4.71977 -2.23685 0
M  V30 4783 H 456.755 -2.81292 -1.02544 0
M  V30 4784 H 454.301 -1.3534 -0.491846 0
M  V30 4785 H 456.254 -2.44237 -3.43404 0
M  V30 4786 H 454.978 -1.27551 -3.00663 0
M  V30 4787 H 453.637 -3.11655 -1.93045 0
M  V30 4788 H 453.285 -2.54379 -4.33936 0
M  V30 4789 H 452.985 -4.27297 -4.0335 0
M  V30 4790 H 454.509 -3.7592 -4.81161 0
M  V30 4791 H 455.923 -4.95637 -2.88127 0
M  V30 4792 H 454.32 -5.52828 -2.33456 0
M  V30 4793 H 455.39 -4.70115 -1.18827 0
M  V30 4794 N 456.733 0.527833 -1.48498 0
M  V30 4795 C 457.958 1.313 -1.60546 0
M  V30 4796 C 458.383 1.86199 -0.26672 0
M  V30 4797 O 457.741 1.64513 0.761918 0
M  V30 4798 C 457.789 2.43818 -2.65678 0
M  V30 4799 O 456.893 3.46916 -2.22987 0
M  V30 4800 H 456.234 0.388784 -0.538277 0
M  V30 4801 H 458.764 0.634896 -1.945 0
M  V30 4802 H 458.774 2.89973 -2.87018 0
M  V30 4803 H 457.449 2.03222 -3.62869 0
M  V30 4804 H 456.026 3.06864 -2.11869 0
M  V30 4805 N 458.211 1.37122 0.776871 0
M  V30 4806 C 459.459 1.31787 1.53221 0
M  V30 4807 C 459.78 -0.0987589 1.9475 0
M  V30 4808 O 459.05 -1.0417 1.65908 0
M  V30 4809 H 457.63 0.484839 0.568278 0
M  V30 4810 H 460.292 1.71556 0.924917 0
M  V30 4811 H 459.388 1.95355 2.43398 0
M  V30 4812 N 459.689 -1.00246 1.21608 0
M  V30 4813 C 460.652 -2.07233 0.979133 0
M  V30 4814 C 461.652 -1.6072 -0.0508219 0
M  V30 4815 O 462.842 -1.73196 0.186712 0
M  V30 4816 C 459.974 -3.37546 0.477016 0
M  V30 4817 H 461.167 -2.29687 1.92831 0
M  V30 4818 H 458.72 -1.17261 1.03342 0
M  V30 4819 H 459.455 -3.20773 -0.476966 0
M  V30 4820 H 459.24 -3.72638 1.21997 0
M  V30 4821 H 460.73 -4.16285 0.331181 0
M  V30 4822 N 461.167 -1.02423 -1.1978 0
M  V30 4823 C 462.13 -0.605703 -2.21052 0
M  V30 4824 C 463.13 0.328209 -1.57415 0
M  V30 4825 O 464.32 0.115853 -1.73814 0
M  V30 4826 C 461.452 0.114366 -3.40708 0
M  V30 4827 H 462.645 -1.5017 -2.59594 0
M  V30 4828 H 460.198 -0.814888 -1.33376 0
M  V30 4829 H 460.933 1.02492 -3.07678 0
M  V30 4830 H 460.718 -0.556641 -3.88129 0
M  V30 4831 H 462.208 0.394272 -4.15735 0
M  V30 4832 N 462.645 1.35699 -0.801477 0
M  V30 4833 C 463.875 2.02862 -0.3912 0
M  V30 4834 C 464.283 1.60552 1.00099 0
M  V30 4835 O 463.626 0.796215 1.65548 0
M  V30 4836 C 463.688 3.57386 -0.389299 0
M  V30 4837 C 463.352 4.22943 -1.73113 0
M  V30 4838 C 464.349 4.44984 -2.68859 0
M  V30 4839 C 462.034 4.60167 -2.01373 0
M  V30 4840 C 464.028 5.03345 -3.91053 0
M  V30 4841 C 461.715 5.18243 -3.23832 0
M  V30 4842 C 462.713 5.39773 -4.1849 0
M  V30 4843 O 462.401 5.96626 -5.38788 0
M  V30 4844 H 462.133 0.657341 -0.157732 0
M  V30 4845 H 464.687 1.74407 -1.08496 0
M  V30 4846 H 462.917 3.85011 0.361031 0
M  V30 4847 H 464.606 4.059 -0.0020365 0
M  V30 4848 H 465.372 4.1661 -2.48316 0
M  V30 4849 H 461.251 4.42726 -1.28508 0
M  V30 4850 H 464.795 5.20065 -4.64949 0
M  V30 4851 H 460.692 5.46044 -3.44248 0
M  V30 4852 H 461.46 6.15082 -5.40015 0
M  V30 4853 N 464.123 0.554532 1.47522 0
M  V30 4854 C 465.071 -0.207765 2.3167 0
M  V30 4855 C 466.065 -0.911914 1.4276 0
M  V30 4856 O 467.271 -0.833504 1.59539 0
M  V30 4857 H 463.646 -0.0858726 0.747081 0
M  V30 4858 H 465.617 0.521178 2.93813 0
M  V30 4859 C 464.366 -1.2263 3.25357 0
M  V30 4860 H 463.689 -0.693887 3.93732 0
M  V30 4861 H 465.129 -1.73062 3.87073 0
M  V30 4862 C 463.588 -2.27278 2.4869 0
M  V30 4863 O 464.118 -3.34156 2.22941 0
M  V30 4864 N 462.324 -2.01134 2.09746 0
M  V30 4865 H 461.871 -1.14232 2.30887 0
M  V30 4866 H 461.829 -2.71369 1.58765 0
M  V30 4867 N 465.601 -1.54893 0.290851 0
M  V30 4868 C 466.847 -2.0023 -0.321867 0
M  V30 4869 C 467.18 -1.179 -1.54316 0
M  V30 4870 O 466.455 -0.25293 -1.92848 0
M  V30 4871 C 466.738 -3.53456 -0.688515 0
M  V30 4872 C 466.591 -4.46532 0.541209 0
M  V30 4873 C 467.91 -4.13057 -1.51895 0
M  V30 4874 H 465.029 -0.727891 -0.115515 0
M  V30 4875 H 467.671 -1.85722 0.400931 0
M  V30 4876 H 465.821 -3.6595 -1.30433 0
M  V30 4877 H 467.493 -4.4596 1.17973 0
M  V30 4878 H 465.736 -4.17545 1.17636 0
M  V30 4879 H 466.407 -5.51475 0.240675 0
M  V30 4880 H 468.883 -4.03937 -0.99872 0
M  V30 4881 H 467.759 -5.20448 -1.74429 0
M  V30 4882 H 468.02 -3.64284 -2.50498 0
M  V30 4883 N 467.08 -0.0183926 -1.57589 0
M  V30 4884 C 468.043 0.951986 -2.08494 0
M  V30 4885 C 469.043 1.26092 -0.997874 0
M  V30 4886 O 470.233 1.20304 -1.25987 0
M  V30 4887 C 467.365 2.27165 -2.54182 0
M  V30 4888 H 468.558 0.511307 -2.95509 0
M  V30 4889 H 466.111 0.229444 -1.54607 0
M  V30 4890 H 466.846 2.75884 -1.70465 0
M  V30 4891 H 466.631 2.06057 -3.33591 0
M  V30 4892 H 468.121 2.9674 -2.93828 0
M  V30 4893 N 468.558 1.5553 0.254621 0
M  V30 4894 C 469.804 1.77262 0.985193 0
M  V30 4895 C 470.137 0.582286 1.85265 0
M  V30 4896 O 469.412 -0.419666 1.89919 0
M  V30 4897 C 469.695 3.0881 1.85225 0
M  V30 4898 C 469.548 4.38233 1.0135 0
M  V30 4899 C 470.867 3.3653 2.83612 0
M  V30 4900 H 467.986 0.644906 0.356742 0
M  V30 4901 H 470.628 1.88264 0.256236 0
M  V30 4902 H 468.778 2.99562 2.47376 0
M  V30 4903 H 470.45 4.59463 0.411269 0
M  V30 4904 H 468.693 4.32636 0.317574 0
M  V30 4905 H 469.364 5.26644 1.65379 0
M  V30 4906 H 471.84 3.45691 2.31596 0
M  V30 4907 H 470.716 4.29805 3.41407 0
M  V30 4908 H 470.977 2.57064 3.59681 0
M  V30 4909 N 470.036 -0.519951 1.48776 0
M  V30 4910 C 471.285 -1.27175 1.56555 0
M  V30 4911 C 471.598 -1.9401 0.248869 0
M  V30 4912 O 472.804 -2.70725 0.205004 0
M  V30 4913 C 471.26 -2.30811 2.76142 0
M  V30 4914 C 470.868 -1.7 4.14493 0
M  V30 4915 C 472.612 -3.06937 2.9324 0
M  V30 4916 C 470.519 -2.71635 5.25327 0
M  V30 4917 H 469.449 -0.478329 0.582853 0
M  V30 4918 H 472.1 -0.547916 1.75129 0
M  V30 4919 H 470.482 -3.06274 2.51023 0
M  V30 4920 H 471.656 -1.00658 4.49672 0
M  V30 4921 H 469.971 -1.06331 4.02595 0
M  V30 4922 H 472.568 -3.82905 3.73213 0
M  V30 4923 H 472.911 -3.63409 2.03075 0
M  V30 4924 H 473.444 -2.38589 3.18308 0
M  V30 4925 H 470.183 -2.1997 6.1749 0
M  V30 4926 H 469.703 -3.39275 4.94624 0
M  V30 4927 H 471.382 -3.34429 5.53865 0
M  V30 4928 N 471.514 -1.37532 -0.769588 0
M  V30 4929 C 472.739 -1.36231 -1.56384 0
M  V30 4930 C 473.164 0.0495849 -1.88035 0
M  V30 4931 O 472.522 1.02723 -1.49391 0
M  V30 4932 C 472.57 -2.20986 -2.84952 0
M  V30 4933 O 471.674 -1.61597 -3.79421 0
M  V30 4934 H 471.015 -0.465387 -0.473615 0
M  V30 4935 H 473.545 -1.81085 -0.952342 0
M  V30 4936 H 473.555 -2.34277 -3.34034 0
M  V30 4937 H 472.23 -3.23612 -2.61243 0
M  V30 4938 H 470.807 -1.57359 -3.38072 0
M  V30 4939 N 472.992 0.995999 -1.22138 0
M  V30 4940 C 474.217 1.77601 -1.0711 0
M  V30 4941 C 474.642 1.84339 0.374264 0
M  V30 4942 O 474 1.29359 1.27028 0
M  V30 4943 C 474.048 3.18897 -1.68336 0
M  V30 4944 O 473.152 4.01663 -0.934928 0
M  V30 4945 H 472.493 0.547011 -0.376397 0
M  V30 4946 H 475.023 1.25137 -1.6187 0
M  V30 4947 H 475.033 3.69539 -1.72931 0
M  V30 4948 H 473.708 3.13308 -2.73516 0
M  V30 4949 H 472.285 3.60204 -0.964751 0
M  V30 4950 N 474.47 1.03057 1.19235 0
M  V30 4951 C 475.418 0.606391 2.24557 0
M  V30 4952 C 476.412 -0.361826 1.65491 0
M  V30 4953 O 477.618 -0.23022 1.78522 0
M  V30 4954 H 473.993 0.177838 0.730669 0
M  V30 4955 H 475.964 1.50529 2.5765 0
M  V30 4956 C 474.713 -0.0252127 3.47691 0
M  V30 4957 H 474.036 0.710838 3.9343 0
M  V30 4958 H 475.476 -0.284931 4.23042 0
M  V30 4959 C 473.935 -1.27229 3.11953 0
M  V30 4960 O 474.465 -2.36416 3.24762 0
M  V30 4961 N 472.671 -1.16169 2.6637 0
M  V30 4962 H 472.218 -0.273189 2.56147 0
M  V30 4963 H 472.176 -1.99703 2.42829 0
M  V30 4964 N 475.948 -1.35272 0.808662 0
M  V30 4965 C 476.88 -2.28507 0.178149 0
M  V30 4966 C 477.893 -1.50377 -0.623754 0
M  V30 4967 O 479.082 -1.72583 -0.455774 0
M  V30 4968 C 476.182 -3.30038 -0.769959 0
M  V30 4969 C 475.355 -4.37398 -0.0139749 0
M  V30 4970 C 474.414 -5.18775 -0.880875 0
M  V30 4971 O 473.44 -5.68236 -0.331059 0
M  V30 4972 N 474.642 -5.37087 -2.20267 0
M  V30 4973 H 477.407 -2.83255 0.979106 0
M  V30 4974 H 474.968 -1.47643 0.664308 0
M  V30 4975 H 476.96 -3.81371 -1.35418 0
M  V30 4976 H 475.53 -2.75789 -1.47171 0
M  V30 4977 H 474.75 -3.86971 0.751468 0
M  V30 4978 H 476.038 -5.06268 0.506965 0
M  V30 4979 H 475.436 -4.9855 -2.67328 0
M  V30 4980 H 473.993 -5.91593 -2.73608 0
M  V30 4981 N 477.426 -0.562348 -1.47226 0
M  V30 4982 C 478.673 -0.0402165 -2.0246 0
M  V30 4983 C 479.001 1.31169 -1.43614 0
M  V30 4984 O 478.256 1.86805 -0.5833 0
M  V30 4985 C 478.555 0.0969817 -3.57268 0
M  V30 4986 C 478.221 -1.1847 -4.35058 0
M  V30 4987 C 476.883 -1.53588 -4.56031 0
M  V30 4988 C 479.235 -2.03378 -4.79882 0
M  V30 4989 C 476.563 -2.73452 -5.19077 0
M  V30 4990 C 478.915 -3.2245 -5.44251 0
M  V30 4991 C 477.579 -3.57876 -5.63455 0
M  V30 4992 H 476.849 -0.0147163 -0.740854 0
M  V30 4993 H 479.496 -0.734895 -1.76838 0
M  V30 4994 H 477.801 0.87466 -3.81912 0
M  V30 4995 H 479.498 0.516408 -3.97661 0
M  V30 4996 H 476.088 -0.90126 -4.19017 0
M  V30 4997 H 480.272 -1.77553 -4.63453 0
M  V30 4998 H 475.528 -3.01062 -5.32139 0
M  V30 4999 H 479.702 -3.88526 -5.77945 0
M  V30 5000 H 477.329 -4.50849 -6.12078 0
M  V30 5001 N 478.904 1.54736 -0.299062 0
M  V30 5002 C 480.152 1.99706 0.31017 0
M  V30 5003 C 480.473 1.18896 1.54559 0
M  V30 5004 O 479.743 0.284445 1.93824 0
M  V30 5005 H 478.323 0.737686 0.117596 0
M  V30 5006 H 480.985 1.9054 -0.409943 0
M  V30 5007 H 480.081 3.06596 0.58355 0
M  V30 5008 N 480.382 0.0267497 1.57577 0
M  V30 5009 C 481.793 -0.512413 1.79531 0
M  V30 5010 C 482.144 -1.72391 0.936791 0
M  V30 5011 O 481.269 -2.15903 0.146543 0
M  V30 5012 C 481.864 -0.936378 3.25603 0
M  V30 5013 C 480.423 -1.42067 3.4856 0
M  V30 5014 C 479.57 -0.384278 2.74624 0
M  V30 5015 H 482.521 0.252797 1.56674 0
M  V30 5016 H 482.542 -1.80088 3.35184 0
M  V30 5017 H 482.054 -0.0544332 3.88062 0
M  V30 5018 H 480.155 -2.32262 2.9135 0
M  V30 5019 H 480.268 -1.42968 4.57271 0
M  V30 5020 H 478.632 -0.851855 2.40032 0
M  V30 5021 H 479.415 0.489159 3.39797 0
M  V30 5022 N 481.861 -1.55662 -0.24637 0
M  V30 5023 C 483.109 -1.77168 -0.972411 0
M  V30 5024 C 483.43 -0.590827 -1.85834 0
M  V30 5025 O 482.7 0.393365 -1.9191 0
M  V30 5026 H 481.28 -0.653405 -0.362038 0
M  V30 5027 H 483.942 -1.93101 -0.264189 0
M  V30 5028 H 483.038 -2.68335 -1.59382 0
M  V30 5029 N 483.339 0.512053 -1.4905 0
M  V30 5030 C 484.269 1.62365 -1.67809 0
M  V30 5031 C 485.25 1.61737 -0.526809 0
M  V30 5032 O 486.435 1.78651 -0.761404 0
M  V30 5033 C 483.565 3.00895 -1.73435 0
M  V30 5034 C 482.519 3.16387 -2.88242 0
M  V30 5035 C 481.845 4.56157 -2.78971 0
M  V30 5036 C 483.145 2.97457 -4.29321 0
M  V30 5037 H 484.839 1.46921 -2.60873 0
M  V30 5038 H 482.385 0.705379 -1.2554 0
M  V30 5039 H 484.338 3.78549 -1.85145 0
M  V30 5040 H 483.062 3.17403 -0.769619 0
M  V30 5041 H 481.721 2.41155 -2.76116 0
M  V30 5042 H 481.369 4.69525 -1.8043 0
M  V30 5043 H 481.069 4.67465 -3.5602 0
M  V30 5044 H 482.593 5.35886 -2.92675 0
M  V30 5045 H 484.007 3.64888 -4.42187 0
M  V30 5046 H 482.404 3.20245 -5.07507 0
M  V30 5047 H 483.474 1.93692 -4.44535 0
M  V30 5048 N 484.817 1.37938 0.762283 0
M  V30 5049 C 485.765 1.34569 1.89721 0
M  V30 5050 C 486.759 0.232929 1.67791 0
M  V30 5051 O 487.965 0.401485 1.75465 0
M  V30 5052 H 484.34 0.419594 0.624055 0
M  V30 5053 H 486.311 2.30357 1.8968 0
M  V30 5054 C 485.06 1.17898 3.27101 0
M  V30 5055 H 484.383 2.02781 3.44558 0
M  V30 5056 H 485.823 1.19593 4.06784 0
M  V30 5057 C 484.282 -0.114728 3.36705 0
M  V30 5058 O 484.812 -1.0949 3.8649 0
M  V30 5059 N 483.018 -0.16863 2.9011 0
M  V30 5060 H 482.565 0.62967 2.49786 0
M  V30 5061 H 482.523 -1.03383 2.96916 0
M  V30 5062 N 486.295 -0.989507 1.22664 0
M  V30 5063 C 487.227 -2.0824 0.957542 0
M  V30 5064 C 488.24 -1.6267 -0.0651098 0
M  V30 5065 O 489.429 -1.77695 0.169312 0
M  V30 5066 C 486.529 -3.36298 0.419145 0
M  V30 5067 C 485.702 -4.10882 1.49982 0
M  V30 5068 C 484.761 -5.17221 0.967904 0
M  V30 5069 O 483.787 -5.44613 1.65487 0
M  V30 5070 N 484.989 -5.80124 -0.20896 0
M  V30 5071 H 487.754 -2.31904 1.89843 0
M  V30 5072 H 485.315 -1.15552 1.13399 0
M  V30 5073 H 487.307 -4.04671 0.0485451 0
M  V30 5074 H 485.877 -3.09671 -0.426937 0
M  V30 5075 H 485.097 -3.37092 2.04359 0
M  V30 5076 H 486.385 -4.57482 2.22682 0
M  V30 5077 H 485.783 -5.60244 -0.783818 0
M  V30 5078 H 484.34 -6.49715 -0.520913 0
M  V30 5079 N 487.773 -1.03688 -1.18687 0
M  V30 5080 C 489.001 -0.757918 -1.92518 0
M  V30 5081 C 489.416 0.684398 -1.75959 0
M  V30 5082 O 488.773 1.46617 -1.08673 0
M  V30 5083 C 488.824 -1.10985 -3.44042 0
M  V30 5084 O 488.545 -2.49554 -3.60076 0
M  V30 5085 C 490.046 -0.854844 -4.3498 0
M  V30 5086 H 487.266 -0.276699 -0.611293 0
M  V30 5087 H 489.81 -1.38352 -1.50595 0
M  V30 5088 H 487.965 -0.529279 -3.83767 0
M  V30 5089 H 488.379 -2.6291 -4.53849 0
M  V30 5090 H 489.853 -1.15098 -5.39867 0
M  V30 5091 H 490.33 0.210507 -4.38695 0
M  V30 5092 H 490.936 -1.41853 -4.00946 0
M  V30 5093 N 489.251 1.34841 -0.815825 0
M  V30 5094 C 490.497 1.99219 -0.410288 0
M  V30 5095 C 490.852 1.63532 1.01366 0
M  V30 5096 O 490.145 0.893093 1.69512 0
M  V30 5097 C 490.339 3.53273 -0.541541 0
M  V30 5098 C 490.168 4.03927 -1.9767 0
M  V30 5099 C 488.938 4.32852 -2.60706 0
M  V30 5100 C 491.136 4.21808 -2.9425 0
M  V30 5101 N 489.118 4.69494 -3.95536 0
M  V30 5102 C 490.489 4.6155 -4.13971 0
M  V30 5103 C 492.544 4.04038 -2.9096 0
M  V30 5104 C 491.247 4.85381 -5.30847 0
M  V30 5105 C 493.273 4.29031 -4.07046 0
M  V30 5106 C 492.635 4.69054 -5.25517 0
M  V30 5107 H 488.734 0.756494 -0.198094 0
M  V30 5108 H 491.318 1.63379 -1.05902 0
M  V30 5109 H 489.489 3.88323 0.0772544 0
M  V30 5110 H 491.221 4.04551 -0.109694 0
M  V30 5111 H 487.976 4.23503 -2.11995 0
M  V30 5112 H 488.4 4.92061 -4.64979 0
M  V30 5113 H 493.042 3.7223 -2.00512 0
M  V30 5114 H 490.76 5.16059 -6.21859 0
M  V30 5115 H 494.346 4.16826 -4.05891 0
M  V30 5116 H 493.226 4.88014 -6.1385 0
M  V30 5117 N 490.729 0.570148 1.46925 0
M  V30 5118 C 491.679 -0.190921 2.27199 0
M  V30 5119 C 492.663 -0.873457 1.35128 0
M  V30 5120 O 493.855 -0.769627 1.59392 0
M  V30 5121 C 490.984 -1.21204 3.21192 0
M  V30 5122 C 490.07 -0.532261 4.20747 0
M  V30 5123 N 490.461 0.405038 5.04176 0
M  V30 5124 C 488.759 -0.784582 4.39045 0
M  V30 5125 C 489.46 0.801149 5.76157 0
M  V30 5126 N 488.436 0.153082 5.43384 0
M  V30 5127 H 492.238 0.529535 2.8909 0
M  V30 5128 H 489.752 0.391019 1.57622 0
M  V30 5129 H 491.749 -1.77135 3.77398 0
M  V30 5130 H 490.409 -1.93345 2.6086 0
M  V30 5131 H 491.42 0.779903 5.11994 0
M  V30 5132 H 488.097 -1.49352 3.89872 0
M  V30 5133 H 489.487 1.57208 6.5325 0
M  V30 5134 N 492.207 -1.54576 0.307264 0
M  V30 5135 C 493.456 -1.99442 -0.300976 0
M  V30 5136 C 493.769 -1.19928 -1.5452 0
M  V30 5137 O 494.975 -1.55092 -2.22842 0
M  V30 5138 C 493.431 -3.55084 -0.586809 0
M  V30 5139 C 493.039 -4.43413 0.639438 0
M  V30 5140 C 494.783 -4.0846 -1.1559 0
M  V30 5141 C 492.69 -5.90499 0.326411 0
M  V30 5142 H 491.62 -0.744986 -0.116238 0
M  V30 5143 H 494.271 -1.787 0.416947 0
M  V30 5144 H 492.653 -3.71749 -1.36449 0
M  V30 5145 H 493.827 -4.38522 1.41545 0
M  V30 5146 H 492.142 -4.00842 1.1276 0
M  V30 5147 H 494.739 -5.15926 -1.40445 0
M  V30 5148 H 495.082 -3.59443 -2.10015 0
M  V30 5149 H 495.615 -3.95362 -0.439778 0
M  V30 5150 H 492.354 -6.43676 1.23939 0
M  V30 5151 H 491.874 -5.98382 -0.412212 0
M  V30 5152 H 493.553 -6.46962 -0.0697393 0
M  V30 5153 N 493.685 -0.035106 -1.57561 0
M  V30 5154 C 495.096 0.502885 -1.798 0
M  V30 5155 C 495.447 1.71892 -0.945921 0
M  V30 5156 O 494.572 2.15822 -0.157991 0
M  V30 5157 C 495.167 0.919097 -3.26095 0
M  V30 5158 C 493.726 1.40216 -3.49308 0
M  V30 5159 C 492.873 0.369709 -2.74824 0
M  V30 5160 H 495.824 -0.261102 -1.56537 0
M  V30 5161 H 495.845 1.78308 -3.36135 0
M  V30 5162 H 495.357 0.0338526 -3.88085 0
M  V30 5163 H 493.458 2.30714 -2.92578 0
M  V30 5164 H 493.571 1.40541 -4.58023 0
M  V30 5165 H 491.935 0.839113 -2.40481 0
M  V30 5166 H 492.718 -0.507173 -3.39533 0
M  V30 5167 N 495.163 1.55791 0.238111 0
M  V30 5168 C 496.126 1.90239 1.27835 0
M  V30 5169 C 497.126 0.779552 1.4064 0
M  V30 5170 O 498.316 1.04747 1.3919 0
M  V30 5171 C 495.448 2.13859 2.65475 0
M  V30 5172 H 496.641 2.83262 0.985034 0
M  V30 5173 H 494.194 1.48818 0.477799 0
M  V30 5174 H 494.929 1.23334 2.99932 0
M  V30 5175 H 494.714 2.95643 2.57561 0
M  V30 5176 H 496.204 2.41664 3.40571 0
M  V30 5177 N 496.642 -0.504142 1.49319 0
M  V30 5178 C 497.919 -1.26548 1.49147 0
M  V30 5179 C 498.299 -2.09977 0.21744 0
M  V30 5180 O 497.647 -2.14028 -0.800269 0
M  V30 5181 C 497.857 -2.12489 2.76857 0
M  V30 5182 C 499.205 -2.7178 3.26222 0
M  V30 5183 O 500.229 -2.22758 2.77952 0
M  V30 5184 O 499.088 -3.61015 4.10281 0
M  V30 5185 H 496.182 -0.572495 0.596806 0
M  V30 5186 H 498.728 -0.51867 1.61579 0
M  V30 5187 H 497.5 -1.50796 3.61077 0
M  V30 5188 H 497.123 -2.94368 2.6727 0
M  V30 5189 N 498.12 -1.38341 -0.754957 0
M  V30 5190 C 499.348 -1.37704 -1.54419 0
M  V30 5191 C 499.763 0.0335243 -1.8877 0
M  V30 5192 O 499.12 0.999773 -1.52679 0
M  V30 5193 C 499.171 -2.23136 -2.84416 0
M  V30 5194 O 498.892 -3.58697 -2.51531 0
M  V30 5195 C 500.393 -2.30664 -3.78562 0
M  V30 5196 H 497.613 -0.471061 -0.477852 0
M  V30 5197 H 500.157 -1.81902 -0.934446 0
M  V30 5198 H 498.312 -1.82403 -3.41772 0
M  V30 5199 H 498.726 -4.03665 -3.34896 0
M  V30 5200 H 500.2 -2.9473 -4.66732 0
M  V30 5201 H 500.677 -1.3199 -4.18898 0
M  V30 5202 H 501.283 -2.71781 -3.27131 0
M  V30 5203 N 499.598 0.982988 -1.23187 0
M  V30 5204 C 500.548 2.05962 -0.977942 0
M  V30 5205 C 501.532 1.60725 0.0751148 0
M  V30 5206 O 502.724 1.76471 -0.136683 0
M  V30 5207 C 499.853 3.38564 -0.568276 0
M  V30 5208 C 498.939 3.90407 -1.6566 0
M  V30 5209 N 499.33 4.15359 -2.88635 0
M  V30 5210 C 497.628 4.18915 -1.53058 0
M  V30 5211 C 498.329 4.57642 -3.5908 0
M  V30 5212 N 497.305 4.6192 -2.86584 0
M  V30 5213 H 501.107 2.23208 -1.91195 0
M  V30 5214 H 498.621 1.16555 -1.13087 0
M  V30 5215 H 500.618 4.15276 -0.36764 0
M  V30 5216 H 499.278 3.22712 0.358713 0
M  V30 5217 H 500.289 4.03258 -3.24966 0
M  V30 5218 H 496.966 4.12081 -0.670506 0
M  V30 5219 H 498.356 4.85488 -4.6449 0
M  V30 5220 N 501.076 1.04316 1.18135 0
M  V30 5221 C 502.304 0.768117 1.92113 0
M  V30 5222 C 502.719 -0.675057 1.76319 0
M  V30 5223 O 502.076 -1.46038 1.09449 0
M  V30 5224 C 502.127 1.12808 3.43448 0
M  V30 5225 O 501.848 2.5146 3.58747 0
M  V30 5226 C 503.349 0.8779 4.3452 0
M  V30 5227 H 500.569 0.279937 0.609817 0
M  V30 5228 H 503.113 1.39149 1.49859 0
M  V30 5229 H 501.268 0.549623 3.83481 0
M  V30 5230 H 501.682 2.65313 4.52448 0
M  V30 5231 H 503.156 1.17959 5.39249 0
M  V30 5232 H 503.633 -0.187239 4.38801 0
M  V30 5233 H 504.239 1.43977 4.00188 0
M  V30 5234 N 502.554 -1.34406 0.822964 0
M  V30 5235 C 503.464 -2.33298 0.246838 0
M  V30 5236 C 504.48 -1.62625 -0.618797 0
M  V30 5237 O 505.656 -1.94391 -0.526685 0
M  V30 5238 C 502.721 -3.41785 -0.581731 0
M  V30 5239 C 501.782 -4.28206 0.306309 0
M  V30 5240 C 501.015 -5.31512 -0.48281 0
M  V30 5241 O 501.238 -5.43973 -1.71607 0
M  V30 5242 O 500.172 -6.01749 0.134884 0
M  V30 5243 H 503.998 -2.84401 1.06534 0
M  V30 5244 H 501.583 -1.37466 0.585108 0
M  V30 5245 H 503.465 -4.08028 -1.05313 0
M  V30 5246 H 502.14 -2.92925 -1.37756 0
M  V30 5247 H 501.047 -3.64885 0.825199 0
M  V30 5248 H 502.38 -4.80507 1.06649 0
M  V30 5249 N 504.032 -0.577932 -1.46621 0
M  V30 5250 C 505.443 -0.150071 -1.86096 0
M  V30 5251 C 505.794 1.28563 -1.48209 0
M  V30 5252 O 504.919 1.97036 -0.894754 0
M  V30 5253 C 505.514 -0.265576 -3.37758 0
M  V30 5254 C 504.073 0.10738 -3.76247 0
M  V30 5255 C 503.22 -0.603711 -2.70649 0
M  V30 5256 H 506.171 -0.786438 -1.37844 0
M  V30 5257 H 506.192 0.510352 -3.77062 0
M  V30 5258 H 505.704 -1.3106 -3.65301 0
M  V30 5259 H 503.805 1.15272 -3.54321 0
M  V30 5260 H 503.918 -0.26561 -4.78363 0
M  V30 5261 H 502.282 -0.0444884 -2.54661 0
M  V30 5262 H 503.065 -1.65029 -3.01032 0
M  V30 5263 N 505.51 1.54411 -0.315457 0
M  V30 5264 C 506.756 2.00716 0.289972 0
M  V30 5265 C 507.089 1.2034 1.5242 0
M  V30 5266 O 506.364 0.283579 1.92422 0
M  V30 5267 C 506.647 3.54507 0.632196 0
M  V30 5268 C 506.5 4.45615 -0.61218 0
M  V30 5269 C 507.819 4.15421 1.45305 0
M  V30 5270 H 504.938 0.729637 0.10392 0
M  V30 5271 H 507.58 1.8506 -0.430427 0
M  V30 5272 H 505.73 3.67979 1.24595 0
M  V30 5273 H 507.402 4.44026 -1.25053 0
M  V30 5274 H 505.645 4.15621 -1.24264 0
M  V30 5275 H 506.316 5.51022 -0.328379 0
M  V30 5276 H 508.792 4.05474 0.934331 0
M  V30 5277 H 507.668 5.23157 1.66127 0
M  V30 5278 H 507.929 3.68223 2.44671 0
M  V30 5279 N 506.988 0.0434614 1.5754 0
M  V30 5280 C 507.951 -0.918696 2.09982 0
M  V30 5281 C 508.951 -1.24488 1.01781 0
M  V30 5282 O 510.141 -1.18284 1.27885 0
M  V30 5283 C 507.273 -2.23093 2.57764 0
M  V30 5284 H 508.466 -0.464229 2.96285 0
M  V30 5285 H 506.019 -0.204818 1.54952 0
M  V30 5286 H 506.754 -2.73137 1.74832 0
M  V30 5287 H 506.539 -2.00724 3.36827 0
M  V30 5288 H 508.029 -2.92028 2.98512 0
M  V30 5289 N 508.466 -1.55915 -0.229846 0
M  V30 5290 C 509.396 -1.94754 -1.28815 0
M  V30 5291 C 510.377 -0.814657 -1.49323 0
M  V30 5292 O 511.562 -1.07631 -1.61645 0
M  V30 5293 C 508.692 -2.25705 -2.63959 0
M  V30 5294 C 507.646 -3.41406 -2.5812 0
M  V30 5295 C 506.972 -3.57941 -3.97218 0
M  V30 5296 C 508.272 -4.76616 -2.13623 0
M  V30 5297 H 509.966 -2.83404 -0.965547 0
M  V30 5298 H 507.512 -1.36353 -0.463028 0
M  V30 5299 H 509.465 -2.51467 -3.38146 0
M  V30 5300 H 508.189 -1.339 -2.9789 0
M  V30 5301 H 506.848 -3.1568 -1.86391 0
M  V30 5302 H 506.496 -2.63526 -4.28443 0
M  V30 5303 H 506.196 -4.35757 -3.94195 0
M  V30 5304 H 507.72 -3.86042 -4.73079 0
M  V30 5305 H 509.134 -5.01637 -2.77549 0
M  V30 5306 H 507.531 -5.57655 -2.21677 0
M  V30 5307 H 508.601 -4.7253 -1.08829 0
M  V30 5308 N 509.944 0.496216 -1.49584 0
M  V30 5309 C 510.892 1.61805 -1.67098 0
M  V30 5310 C 511.886 1.60667 -0.536877 0
M  V30 5311 O 513.092 1.65118 -0.716654 0
M  V30 5312 H 509.467 0.53646 -0.526986 0
M  V30 5313 H 511.438 1.44187 -2.61252 0
M  V30 5314 C 510.187 2.99912 -1.75921 0
M  V30 5315 H 509.51 3.01496 -2.62565 0
M  V30 5316 H 510.95 3.77931 -1.92209 0
M  V30 5317 C 509.409 3.33092 -0.505088 0
M  V30 5318 O 509.939 4.00019 0.367085 0
M  V30 5319 N 508.145 2.88278 -0.366599 0
M  V30 5320 H 507.692 2.33989 -1.07735 0
M  V30 5321 H 507.65 3.10846 0.47142 0
M  V30 5322 N 511.423 1.38739 0.74761 0
M  V30 5323 C 512.672 1.3459 1.50228 0
M  V30 5324 C 512.985 -0.0595592 1.95509 0
M  V30 5325 O 514.191 -0.22361 2.70578 0
M  V30 5326 C 512.647 2.36377 2.71393 0
M  V30 5327 C 512.255 3.82573 2.33113 0
M  V30 5328 C 513.999 2.41281 3.49262 0
M  V30 5329 C 511.906 4.76032 3.50924 0
M  V30 5330 H 510.836 0.500312 0.564096 0
M  V30 5331 H 513.487 1.64324 0.8167 0
M  V30 5332 H 511.869 1.99694 3.41962 0
M  V30 5333 H 513.043 4.28227 1.70171 0
M  V30 5334 H 511.358 3.80844 1.68365 0
M  V30 5335 H 513.955 3.08301 4.36869 0
M  V30 5336 H 514.298 1.43353 3.9084 0
M  V30 5337 H 514.831 2.76793 2.85711 0
M  V30 5338 H 511.57 5.75177 3.14408 0
M  V30 5339 H 511.09 4.35066 4.12889 0
M  V30 5340 H 512.769 4.94331 4.17427 0
M  V30 5341 N 512.901 -0.976442 1.23707 0
M  V30 5342 C 514.126 -1.75875 1.09922 0
M  V30 5343 C 514.551 -1.84911 -0.34489 0
M  V30 5344 O 513.909 -1.31363 -1.24954 0
M  V30 5345 C 513.957 -3.16179 1.73388 0
M  V30 5346 O 513.061 -4.00124 0.99871 0
M  V30 5347 H 512.402 -0.540954 0.385052 0
M  V30 5348 H 514.932 -1.22546 1.6384 0
M  V30 5349 H 514.942 -3.66741 1.78788 0
M  V30 5350 H 513.617 -3.08917 2.78466 0
M  V30 5351 H 512.194 -3.58624 1.02193 0
M  V30 5352 N 514.379 -1.04941 -1.1758 0
M  V30 5353 C 515.625 -0.759112 -1.88057 0
M  V30 5354 C 515.958 0.711918 -1.8068 0
M  V30 5355 O 515.233 1.52035 -1.21308 0
M  V30 5356 C 515.516 -1.237 -3.38187 0
M  V30 5357 C 515.369 -2.77078 -3.54327 0
M  V30 5358 C 516.688 -0.834014 -4.32125 0
M  V30 5359 H 513.807 -0.277237 -0.682868 0
M  V30 5360 H 516.449 -1.30296 -1.38286 0
M  V30 5361 H 514.599 -0.774337 -3.80705 0
M  V30 5362 H 516.271 -3.31449 -3.20842 0
M  V30 5363 H 514.514 -3.16477 -2.96689 0
M  V30 5364 H 515.185 -3.05577 -4.59703 0
M  V30 5365 H 517.661 -1.23228 -3.97434 0
M  V30 5366 H 516.537 -1.19603 -5.35711 0
M  V30 5367 H 516.798 0.262195 -4.41322 0
M  V30 5368 N 515.857 1.33968 -0.830081 0
M  V30 5369 C 517.105 1.97672 -0.420734 0
M  V30 5370 C 517.426 1.66111 1.02138 0
M  V30 5371 O 516.696 0.955503 1.71017 0
M  V30 5372 H 515.276 0.73125 -0.152587 0
M  V30 5373 H 517.938 1.63483 -1.0611 0
M  V30 5374 H 517.034 3.07294 -0.545588 0
M  V30 5375 N 517.335 0.585699 1.46312 0
M  V30 5376 C 518.563 0.0781299 2.06752 0
M  V30 5377 C 518.978 -1.22812 1.43396 0
M  V30 5378 O 518.335 -1.74318 0.540314 0
M  V30 5379 C 518.386 -0.0911927 3.61385 0
M  V30 5380 O 518.107 1.16336 4.22371 0
M  V30 5381 C 519.608 -0.632765 4.38761 0
M  V30 5382 H 516.828 0.0588188 0.668417 0
M  V30 5383 H 519.372 0.807218 1.87894 0
M  V30 5384 H 517.527 -0.770514 3.7966 0
M  V30 5385 H 517.941 0.979082 5.15281 0
M  V30 5386 H 519.415 -0.70041 5.47538 0
M  V30 5387 H 519.892 -1.65039 4.07012 0
M  V30 5388 H 520.498 0.0117856 4.25298 0
M  V30 5389 N 518.813 -1.54241 0.323641 0
M  V30 5390 C 519.761 -2.25813 -0.557804 0
M  V30 5391 C 520.755 -1.27225 -1.11849 0
M  V30 5392 O 521.961 -1.45001 -1.06652 0
M  V30 5393 H 518.336 -0.72532 -0.198532 0
M  V30 5394 H 520.307 -2.98322 0.0681112 0
M  V30 5395 C 519.056 -3.02913 -1.70701 0
M  V30 5396 H 518.379 -3.78593 -1.28482 0
M  V30 5397 H 519.819 -3.56238 -2.29935 0
M  V30 5398 C 518.278 -2.11217 -2.62467 0
M  V30 5399 O 518.808 -1.69508 -3.64184 0
M  V30 5400 N 517.014 -1.76704 -2.30703 0
M  V30 5401 H 516.561 -2.1082 -1.48029 0
M  V30 5402 H 516.519 -1.15631 -2.92364 0
M  V30 5403 N 520.291 -0.0518155 -1.57515 0
M  V30 5404 C 521.539 0.620595 -1.92336 0
M  V30 5405 C 521.86 1.71345 -0.930907 0
M  V30 5406 O 521.13 1.95885 0.0241341 0
M  V30 5407 H 519.71 0.232226 -0.709986 0
M  V30 5408 H 522.372 -0.104969 -1.94617 0
M  V30 5409 H 521.468 1.05879 -2.93592 0
M  V30 5410 N 521.769 1.56035 0.221574 0
M  V30 5411 C 522.997 1.8313 0.962864 0
M  V30 5412 C 523.412 0.630934 1.77946 0
M  V30 5413 O 522.769 -0.400519 1.78051 0
M  V30 5414 C 522.82 3.08742 1.88045 0
M  V30 5415 O 522.541 4.24147 1.09686 0
M  V30 5416 C 524.042 3.48824 2.73563 0
M  V30 5417 H 521.262 0.608775 0.282194 0
M  V30 5418 H 523.806 2.03124 0.23681 0
M  V30 5419 H 521.961 2.90723 2.56045 0
M  V30 5420 H 522.375 4.95505 1.71974 0
M  V30 5421 H 523.849 4.39752 3.3365 0
M  V30 5422 H 524.326 2.70575 3.45956 0
M  V30 5423 H 524.932 3.69282 2.10976 0
M  V30 5424 N 523.247 -0.488276 1.49845 0
M  V30 5425 C 524.475 -1.26527 1.63702 0
M  V30 5426 C 524.89 -1.8618 0.313447 0
M  V30 5427 O 524.247 -1.68432 -0.702624 0
M  V30 5428 C 524.298 -2.3864 2.71538 0
M  V30 5429 O 524.019 -1.81437 3.98763 0
M  V30 5430 C 525.52 -3.29805 2.96215 0
M  V30 5431 H 522.74 -0.383295 0.55075 0
M  V30 5432 H 525.284 -0.584779 1.95961 0
M  V30 5433 H 523.439 -3.02496 2.42023 0
M  V30 5434 H 523.853 -2.55135 4.58265 0
M  V30 5435 H 525.327 -4.04722 3.75372 0
M  V30 5436 H 525.804 -3.87563 2.06619 0
M  V30 5437 H 526.41 -2.71703 3.27196 0
M  V30 5438 N 524.725 -1.39134 -0.740242 0
M  V30 5439 C 525.658 -1.3182 -1.86276 0
M  V30 5440 C 526.636 -0.192794 -1.61453 0
M  V30 5441 O 527.82 -0.372365 -1.84786 0
M  V30 5442 C 524.947 -1.04564 -3.22155 0
M  V30 5443 C 523.993 -2.19224 -3.65846 0
M  V30 5444 S 524.826 -3.81466 -3.75824 0
M  V30 5445 C 525.982 -3.56425 -5.14502 0
M  V30 5446 H 526.215 -2.26822 -1.92195 0
M  V30 5447 H 523.748 -1.25127 -0.904576 0
M  V30 5448 H 525.706 -0.895228 -4.00619 0
M  V30 5449 H 524.367 -0.112578 -3.13898 0
M  V30 5450 H 523.56 -1.95732 -4.6444 0
M  V30 5451 H 523.162 -2.30441 -2.94572 0
M  V30 5452 H 525.454 -3.13366 -6.00673 0
M  V30 5453 H 526.397 -4.54462 -5.43019 0
M  V30 5454 H 526.805 -2.90641 -4.8393 0
M  V30 5455 N 526.204 0.969867 -1.24223 0
M  V30 5456 C 527.434 1.74502 -1.106 0
M  V30 5457 C 527.842 1.86038 0.344483 0
M  V30 5458 O 527.185 1.3465 1.24961 0
M  V30 5459 C 527.247 3.18391 -1.66935 0
M  V30 5460 C 526.911 3.30334 -3.15798 0
M  V30 5461 C 527.908 3.15832 -4.12973 0
M  V30 5462 C 525.593 3.54644 -3.55715 0
M  V30 5463 C 527.587 3.25461 -5.48045 0
M  V30 5464 C 525.274 3.63912 -4.90929 0
M  V30 5465 C 526.272 3.49332 -5.86904 0
M  V30 5466 O 525.96 3.58251 -7.1966 0
M  V30 5467 H 525.692 0.554119 -0.387206 0
M  V30 5468 H 528.246 1.22646 -1.64764 0
M  V30 5469 H 526.476 3.71543 -1.07203 0
M  V30 5470 H 528.165 3.77707 -1.48634 0
M  V30 5471 H 528.931 2.96937 -3.83476 0
M  V30 5472 H 524.81 3.65059 -2.81519 0
M  V30 5473 H 528.354 3.13998 -6.22937 0
M  V30 5474 H 524.251 3.82319 -5.20098 0
M  V30 5475 H 525.019 3.7498 -7.27552 0
M  V30 5476 N 527.682 1.05563 1.17022 0
M  V30 5477 C 528.928 0.778872 1.87897 0
M  V30 5478 C 529.283 -0.686839 1.79723 0
M  V30 5479 O 528.576 -1.49612 1.19694 0
M  V30 5480 C 528.77 1.19849 3.36706 0
M  V30 5481 C 528.599 2.70345 3.59366 0
M  V30 5482 C 527.369 3.37707 3.75875 0
M  V30 5483 C 529.567 3.68564 3.58699 0
M  V30 5484 N 527.549 4.7703 3.86414 0
M  V30 5485 C 528.92 4.93634 3.75134 0
M  V30 5486 C 530.975 3.6198 3.4187 0
M  V30 5487 C 529.678 6.12907 3.76481 0
M  V30 5488 C 531.704 4.80697 3.44507 0
M  V30 5489 C 531.066 6.04592 3.61453 0
M  V30 5490 H 527.165 0.337297 0.705517 0
M  V30 5491 H 529.749 1.34832 1.40458 0
M  V30 5492 H 527.92 0.656958 3.82804 0
M  V30 5493 H 529.652 0.871172 3.95212 0
M  V30 5494 H 526.407 2.88108 3.75887 0
M  V30 5495 H 526.831 5.49483 3.95471 0
M  V30 5496 H 531.473 2.67154 3.27702 0
M  V30 5497 H 529.191 7.08073 3.89432 0
M  V30 5498 H 532.777 4.77259 3.32738 0
M  V30 5499 H 531.657 6.94916 3.63403 0
M  V30 5500 N 529.16 -1.33526 0.837174 0
M  V30 5501 C 530.571 -1.80182 0.489017 0
M  V30 5502 C 530.922 -1.69285 -0.991826 0
M  V30 5503 O 530.047 -1.24113 -1.77271 0
M  V30 5504 C 530.642 -3.27149 0.880866 0
M  V30 5505 C 529.201 -3.71828 0.584872 0
M  V30 5506 C 528.348 -2.54974 1.09011 0
M  V30 5507 H 531.299 -1.21071 1.02603 0
M  V30 5508 H 531.32 -3.80024 0.190239 0
M  V30 5509 H 530.832 -3.35048 1.95869 0
M  V30 5510 H 528.933 -3.69457 -0.48295 0
M  V30 5511 H 529.046 -4.65366 1.13892 0
M  V30 5512 H 527.41 -2.4952 0.511047 0
M  V30 5513 H 528.193 -2.65637 2.17467 0
M  V30 5514 N 530.638 -0.59345 -1.46 0
M  V30 5515 C 531.601 0.123538 -2.28867 0
M  V30 5516 C 532.601 0.808628 -1.38989 0
M  V30 5517 O 533.791 0.658945 -1.61256 0
M  V30 5518 C 530.923 1.1847 -3.19653 0
M  V30 5519 H 532.116 -0.604843 -2.93737 0
M  V30 5520 H 529.669 -0.351875 -1.52288 0
M  V30 5521 H 530.404 1.94431 -2.59552 0
M  V30 5522 H 530.189 0.69783 -3.8584 0
M  V30 5523 H 531.679 1.68726 -3.81997 0
M  V30 5524 N 532.116 1.54067 -0.331816 0
M  V30 5525 C 533.532 1.59587 0.0205388 0
M  V30 5526 C 533.732 1.34813 1.49759 0
M  V30 5527 O 532.788 1.13661 2.25471 0
M  V30 5528 C 534.101 2.97959 -0.405103 0
M  V30 5529 C 535.649 3.10964 -0.356454 0
M  V30 5530 C 536.124 4.51694 -0.757384 0
M  V30 5531 N 537.615 4.57709 -0.71111 0
M  V30 5532 C 538.35 5.64729 -0.993427 0
M  V30 5533 N 537.846 6.79652 -1.3433 0
M  V30 5534 N 539.639 5.54546 -0.918442 0
M  V30 5535 H 531.79 1.68426 -1.29407 0
M  V30 5536 H 534.053 0.78819 -0.526745 0
M  V30 5537 H 533.759 3.21115 -1.43451 0
M  V30 5538 H 533.633 3.76524 0.225692 0
M  V30 5539 H 536.02 2.87538 0.663763 0
M  V30 5540 H 536.101 2.34484 -1.02229 0
M  V30 5541 H 535.745 4.75853 -1.77555 0
M  V30 5542 H 535.675 5.26555 -0.0691444 0
M  V30 5543 H 538.166 3.75176 -0.452883 0
M  V30 5544 H 538.479 7.57221 -1.54388 0
M  V30 5545 H 536.824 6.81128 -1.38164 0
M  V30 5546 H 540.015 4.63641 -0.644536 0
M  V30 5547 H 540.188 6.37861 -1.14181 0
M  V30 5548 N 533.594 0.0601682 1.57485 0
M  V30 5549 C 534.557 -0.896373 2.10945 0
M  V30 5550 C 535.557 -1.23402 1.03095 0
M  V30 5551 O 536.747 -1.16921 1.29132 0
M  V30 5552 C 533.879 -2.20346 2.60116 0
M  V30 5553 H 535.072 -0.432778 2.96761 0
M  V30 5554 H 532.625 -0.188372 1.55161 0
M  V30 5555 H 533.36 -2.71268 1.7772 0
M  V30 5556 H 533.145 -1.9714 3.38937 0
M  V30 5557 H 534.635 -2.88846 3.01592 0
M  V30 5558 N 535.072 -1.5615 -0.213296 0
M  V30 5559 C 536.004 -1.89586 -1.28802 0
M  V30 5560 C 537.017 -0.784844 -1.42633 0
M  V30 5561 O 538.206 -1.06319 -1.43383 0
M  V30 5562 C 535.306 -2.09665 -2.66259 0
M  V30 5563 C 534.479 -3.40726 -2.7427 0
M  V30 5564 C 533.538 -3.50137 -3.92798 0
M  V30 5565 O 532.564 -4.23105 -3.8075 0
M  V30 5566 N 533.766 -2.81886 -5.07465 0
M  V30 5567 H 536.531 -2.82368 -1.00442 0
M  V30 5568 H 534.092 -1.56796 -0.403302 0
M  V30 5569 H 536.084 -2.13268 -3.43946 0
M  V30 5570 H 534.654 -1.23469 -2.87183 0
M  V30 5571 H 533.874 -3.4915 -1.82997 0
M  V30 5572 H 535.162 -4.27048 -2.76599 0
M  V30 5573 H 534.56 -2.22397 -5.2015 0
M  V30 5574 H 533.117 -2.91139 -5.83165 0
M  V30 5575 N 536.55 0.480323 -1.50102 0
M  V30 5576 C 537.775 1.26126 -1.64642 0
M  V30 5577 C 538.2 1.85257 -0.325823 0
M  V30 5578 O 537.558 1.66854 0.709194 0
M  V30 5579 C 537.606 2.35243 -2.73301 0
M  V30 5580 O 536.71 3.39646 -2.33911 0
M  V30 5581 H 536.051 0.371463 -0.550374 0
M  V30 5582 H 538.581 0.572696 -1.96421 0
M  V30 5583 H 538.591 2.80695 -2.96098 0
M  V30 5584 H 537.266 1.91574 -3.6915 0
M  V30 5585 H 535.843 2.99969 -2.21525 0
M  V30 5586 N 538.028 1.39524 0.732853 0
M  V30 5587 C 538.961 1.32806 1.85574 0
M  V30 5588 C 539.939 0.201354 1.61348 0
M  V30 5589 O 541.123 0.38216 1.84585 0
M  V30 5590 C 538.25 1.06271 3.21596 0
M  V30 5591 C 537.296 2.21161 3.64678 0
M  V30 5592 S 538.129 3.83454 3.73796 0
M  V30 5593 C 539.285 3.59149 5.12604 0
M  V30 5594 H 539.518 2.27838 1.9099 0
M  V30 5595 H 537.051 1.25605 0.897927 0
M  V30 5596 H 539.009 0.916461 4.00139 0
M  V30 5597 H 537.67 0.129223 3.13834 0
M  V30 5598 H 536.863 1.98193 4.63396 0
M  V30 5599 H 536.465 2.32 2.93346 0
M  V30 5600 H 538.757 3.16547 5.99003 0
M  V30 5601 H 539.7 4.57335 5.40602 0
M  V30 5602 H 540.108 2.93203 4.82382 0
M  V30 5603 N 539.506 -0.963266 1.24736 0
M  V30 5604 C 540.734 -1.74166 1.11686 0
M  V30 5605 C 541.149 -1.8589 -0.330187 0
M  V30 5606 O 540.506 -1.35042 -1.2276 0
M  V30 5607 C 540.557 -3.15989 1.75595 0
M  V30 5608 O 540.278 -3.04847 3.14642 0
M  V30 5609 C 541.779 -4.10145 1.68213 0
M  V30 5610 H 538.999 -0.546031 0.389989 0
M  V30 5611 H 541.543 -1.20907 1.64929 0
M  V30 5612 H 539.698 -3.66219 1.26343 0
M  V30 5613 H 540.112 -3.9425 3.4593 0
M  V30 5614 H 541.586 -5.07299 2.17604 0
M  V30 5615 H 542.063 -4.3445 0.644208 0
M  V30 5616 H 542.669 -3.65827 2.16912 0
M  V30 5617 N 540.985 -1.06182 -1.16461 0
M  V30 5618 C 542.215 -0.797425 -1.9059 0
M  V30 5619 C 542.623 0.651845 -1.77616 0
M  V30 5620 O 541.966 1.45788 -1.11766 0
M  V30 5621 C 542.028 -1.11128 -3.41893 0
M  V30 5622 C 541.692 -2.55874 -3.78652 0
M  V30 5623 C 542.689 -3.54104 -3.80665 0
M  V30 5624 C 540.374 -2.91144 -4.09317 0
M  V30 5625 C 542.368 -4.85645 -4.12829 0
M  V30 5626 C 540.055 -4.22885 -4.41148 0
M  V30 5627 C 541.053 -5.19945 -4.42883 0
M  V30 5628 O 540.741 -6.49322 -4.73959 0
M  V30 5629 H 540.473 -0.288709 -0.611247 0
M  V30 5630 H 543.027 -1.41841 -1.4856 0
M  V30 5631 H 541.257 -0.433217 -3.84266 0
M  V30 5632 H 542.946 -0.831306 -3.97296 0
M  V30 5633 H 543.712 -3.28197 -3.57088 0
M  V30 5634 H 539.591 -2.16252 -4.07131 0
M  V30 5635 H 543.135 -5.61398 -4.14099 0
M  V30 5636 H 539.032 -4.48551 -4.6419 0
M  V30 5637 H 539.8 -6.54294 -4.91774 0
M  V30 5638 N 542.463 1.3308 -0.844243 0
M  V30 5639 C 543.703 1.99414 -0.448697 0
M  V30 5640 C 544.067 1.65398 0.975058 0
M  V30 5641 O 545.268 2.24741 1.47461 0
M  V30 5642 C 543.539 3.51081 -0.669089 0
M  V30 5643 S 545.098 4.37241 -0.369564 0
M  V30 5644 H 541.916 0.690736 -0.168538 0
M  V30 5645 H 544.518 1.61977 -1.0947 0
M  V30 5646 H 543.222 3.73326 -1.70457 0
M  V30 5647 H 542.753 3.93399 -0.00913211 0
M  V30 5648 H 544.768 4.89568 0.808552 0
M  V30 5649 N 543.941 0.601185 1.45683 0
M  V30 5650 C 545.19 0.0914953 2.01492 0
M  V30 5651 C 545.503 -1.28331 1.47616 0
M  V30 5652 O 546.709 -1.88537 1.95362 0
M  V30 5653 C 545.165 0.11291 3.59723 0
M  V30 5654 C 544.773 1.48717 4.22596 0
M  V30 5655 C 546.517 -0.341871 4.23121 0
M  V30 5656 C 544.424 1.46531 5.7296 0
M  V30 5657 H 543.354 0.0304365 0.753385 0
M  V30 5658 H 546.005 0.755568 1.67223 0
M  V30 5659 H 544.387 -0.617692 3.91153 0
M  V30 5660 H 545.561 2.23897 4.02749 0
M  V30 5661 H 543.876 1.88351 3.71366 0
M  V30 5662 H 546.473 -0.377304 5.33367 0
M  V30 5663 H 546.816 -1.36325 3.93346 0
M  V30 5664 H 547.349 0.335256 3.96385 0
M  V30 5665 H 544.088 2.46408 6.07423 0
M  V30 5666 H 543.608 0.755997 5.95017 0
M  V30 5667 H 545.287 1.18618 6.36034 0
M  V30 5668 N 545.419 -1.53889 0.339982 0
M  V30 5669 C 546.329 -2.28604 -0.526988 0
M  V30 5670 C 547.345 -1.33578 -1.11503 0
M  V30 5671 O 548.521 -1.66612 -1.13148 0
M  V30 5672 C 545.586 -3.04164 -1.66389 0
M  V30 5673 C 544.647 -4.14809 -1.10599 0
M  V30 5674 C 543.88 -4.86756 -2.18871 0
M  V30 5675 O 544.103 -4.58343 -3.39526 0
M  V30 5676 O 543.037 -5.73289 -1.83366 0
M  V30 5677 H 546.863 -3.03594 0.0802707 0
M  V30 5678 H 544.448 -1.4903 0.105141 0
M  V30 5679 H 546.33 -3.51427 -2.32544 0
M  V30 5680 H 545.005 -2.32035 -2.25703 0
M  V30 5681 H 543.912 -3.71857 -0.409067 0
M  V30 5682 H 545.245 -4.89029 -0.557771 0
M  V30 5683 N 546.897 -0.0685191 -1.57451 0
M  V30 5684 C 548.143 0.596247 -1.94465 0
M  V30 5685 C 548.498 1.67417 -0.948117 0
M  V30 5686 O 547.791 1.91576 0.0301056 0
M  V30 5687 C 547.985 1.22051 -3.35914 0
M  V30 5688 C 547.814 0.204586 -4.49234 0
M  V30 5689 C 546.584 -0.20959 -5.04865 0
M  V30 5690 C 548.782 -0.556872 -5.11276 0
M  V30 5691 N 546.764 -1.21656 -6.01725 0
M  V30 5692 C 548.135 -1.41642 -6.03604 0
M  V30 5693 C 550.19 -0.613297 -4.94108 0
M  V30 5694 C 548.893 -2.32737 -6.80607 0
M  V30 5695 C 550.919 -1.51174 -5.71752 0
M  V30 5696 C 550.281 -2.35898 -6.63726 0
M  V30 5697 H 546.38 0.189307 -0.75874 0
M  V30 5698 H 548.964 -0.144899 -1.9416 0
M  V30 5699 H 547.135 1.9316 -3.36963 0
M  V30 5700 H 548.867 1.84548 -3.60172 0
M  V30 5701 H 545.622 0.172871 -4.73284 0
M  V30 5702 H 546.046 -1.71746 -6.54853 0
M  V30 5703 H 550.688 0.0275228 -4.22791 0
M  V30 5704 H 548.406 -2.97856 -7.51204 0
M  V30 5705 H 551.992 -1.5602 -5.6049 0
M  V30 5706 H 550.872 -3.04291 -7.22756 0
M  V30 5707 N 548.375 1.56261 0.205012 0
M  V30 5708 C 549.307 1.90266 1.27795 0
M  V30 5709 C 550.32 0.792397 1.42214 0
M  V30 5710 O 551.509 1.07077 1.42817 0
M  V30 5711 C 548.609 2.11074 2.65143 0
M  V30 5712 C 547.782 3.42176 2.7246 0
M  V30 5713 C 546.841 3.52216 3.90936 0
M  V30 5714 O 545.867 4.25119 3.78501 0
M  V30 5715 N 547.069 2.84573 5.05963 0
M  V30 5716 H 549.834 2.82896 0.989434 0
M  V30 5717 H 547.395 1.57008 0.394981 0
M  V30 5718 H 549.387 2.15089 3.4281 0
M  V30 5719 H 547.957 1.2499 2.86524 0
M  V30 5720 H 547.177 3.50116 1.81142 0
M  V30 5721 H 548.465 4.28509 2.74331 0
M  V30 5722 H 547.863 2.25152 5.18963 0
M  V30 5723 H 546.42 2.94228 5.81613 0
M  V30 5724 N 549.853 -0.472356 1.50355 0
M  V30 5725 C 551.264 -1.05326 1.54154 0
M  V30 5726 C 551.615 -1.93155 0.344303 0
M  V30 5727 O 550.74 -2.09479 -0.542928 0
M  V30 5728 C 551.335 -1.91691 2.79356 0
M  V30 5729 C 549.894 -2.44892 2.8584 0
M  V30 5730 C 549.041 -1.23205 2.48426 0
M  V30 5731 H 551.992 -0.255027 1.56637 0
M  V30 5732 H 552.013 -2.76742 2.6114 0
M  V30 5733 H 551.525 -1.27741 3.66475 0
M  V30 5734 H 549.626 -3.12399 2.0307 0
M  V30 5735 H 549.739 -2.80086 3.88701 0
M  V30 5736 H 548.103 -1.56643 2.00836 0
M  V30 5737 H 548.886 -0.609194 3.37852 0
M  V30 5738 N 551.331 -1.39911 -0.725443 0
M  V30 5739 C 552.577 -1.37858 -1.48738 0
M  V30 5740 C 552.91 0.0224187 -1.94187 0
M  V30 5741 O 552.185 0.989204 -1.67466 0
M  V30 5742 C 552.468 -2.3594 -2.72038 0
M  V30 5743 C 552.321 -3.85023 -2.32546 0
M  V30 5744 C 553.64 -2.31704 -3.74167 0
M  V30 5745 H 550.759 -0.502074 -0.539528 0
M  V30 5746 H 553.401 -1.70974 -0.828728 0
M  V30 5747 H 551.551 -2.0783 -3.28236 0
M  V30 5748 H 553.223 -4.2392 -1.81905 0
M  V30 5749 H 551.466 -4.01334 -1.64661 0
M  V30 5750 H 552.137 -4.49152 -3.20884 0
M  V30 5751 H 554.613 -2.5658 -3.27576 0
M  V30 5752 H 553.489 -3.02395 -4.58092 0
M  V30 5753 H 553.75 -1.3253 -4.21768 0
M  V30 5754 N 552.809 0.956637 -1.25245 0
M  V30 5755 C 554.057 1.69764 -1.09657 0
M  V30 5756 C 554.378 1.91583 0.363464 0
M  V30 5757 O 553.648 1.50149 1.25825 0
M  V30 5758 H 552.228 0.629097 -0.402798 0
M  V30 5759 H 554.89 1.15026 -1.57337 0
M  V30 5760 H 553.986 2.67769 -1.60331 0
M  V30 5761 N 554.287 1.06798 1.15896 0
M  V30 5762 C 555.219 0.641263 2.20046 0
M  V30 5763 C 556.232 -0.303355 1.59949 0
M  V30 5764 O 557.421 -0.0935478 1.78255 0
M  V30 5765 C 554.521 -0.0794029 3.38807 0
M  V30 5766 C 553.694 0.879986 4.28457 0
M  V30 5767 C 552.753 0.197638 5.25829 0
M  V30 5768 O 551.779 0.836913 5.63014 0
M  V30 5769 N 552.981 -1.05886 5.70761 0
M  V30 5770 H 555.746 1.53718 2.57276 0
M  V30 5771 H 553.307 0.951951 1.30956 0
M  V30 5772 H 555.299 -0.546418 4.00994 0
M  V30 5773 H 553.869 -0.877193 3.0004 0
M  V30 5774 H 553.089 1.52625 3.63454 0
M  V30 5775 H 554.377 1.53065 4.8523 0
M  V30 5776 H 553.775 -1.59828 5.42652 0
M  V30 5777 H 552.332 -1.46965 6.35015 0
M  V30 5778 N 555.766 -1.3263 0.851289 0
M  V30 5779 C 557.043 -1.91982 0.374448 0
M  V30 5780 C 557.423 -1.77568 -1.14161 0
M  V30 5781 O 556.771 -1.1717 -1.96172 0
M  V30 5782 C 556.981 -3.38862 0.835088 0
M  V30 5783 C 558.329 -4.15999 0.850309 0
M  V30 5784 O 559.353 -3.47566 0.779505 0
M  V30 5785 O 558.212 -5.38189 0.949481 0
M  V30 5786 H 555.306 -0.819846 0.10854 0
M  V30 5787 H 557.852 -1.41422 0.937966 0
M  V30 5788 H 556.624 -3.43281 1.87814 0
M  V30 5789 H 556.247 -3.96821 0.248833 0
M  V30 5790 N 557.244 -0.608902 -1.45362 0
M  V30 5791 C 558.492 -0.104401 -2.0183 0
M  V30 5792 C 558.813 1.27007 -1.47967 0
M  V30 5793 O 558.083 1.83924 -0.674455 0
M  V30 5794 H 556.663 -0.0356042 -0.746151 0
M  V30 5795 H 559.325 -0.790596 -1.78145 0
M  V30 5796 H 558.421 -0.0551793 -3.12051 0
M  V30 5797 N 558.722 1.53707 -0.348139 0
M  V30 5798 C 559.97 2.00591 0.246478 0
M  V30 5799 C 560.291 1.23753 1.50699 0
M  V30 5800 O 559.561 0.345964 1.92821 0
M  V30 5801 H 558.141 0.741053 0.0940679 0
M  V30 5802 H 560.803 1.89139 -0.470354 0
M  V30 5803 H 559.899 3.08297 0.485714 0
M  V30 5804 N 560.2 0.0768682 1.57412 0
M  V30 5805 C 561.13 -0.886026 2.16037 0
M  V30 5806 C 562.111 -1.30691 1.08876 0
M  V30 5807 O 563.296 -1.37705 1.36934 0
M  V30 5808 C 560.426 -2.1518 2.72608 0
M  V30 5809 C 559.38 -1.87015 3.8498 0
M  V30 5810 C 558.706 -3.20266 4.28175 0
M  V30 5811 C 560.006 -1.17143 5.08994 0
M  V30 5812 H 561.7 -0.397642 2.96748 0
M  V30 5813 H 559.246 -0.189823 1.42743 0
M  V30 5814 H 561.199 -2.82962 3.12266 0
M  V30 5815 H 559.923 -2.66269 1.89125 0
M  V30 5816 H 558.582 -1.21636 3.45833 0
M  V30 5817 H 558.23 -3.69207 3.41607 0
M  V30 5818 H 557.93 -3.0221 5.03927 0
M  V30 5819 H 559.454 -3.89237 4.70454 0
M  V30 5820 H 560.868 -1.75003 5.45937 0
M  V30 5821 H 559.265 -1.09328 5.90057 0
M  V30 5822 H 560.335 -0.151295 4.84664 0
M  V30 5823 N 561.678 -1.56367 -0.196722 0
M  V30 5824 C 562.641 -1.93561 -1.22746 0
M  V30 5825 C 563.641 -0.816566 -1.38524 0
M  V30 5826 O 564.831 -1.084 -1.36363 0
M  V30 5827 C 561.963 -2.20823 -2.59712 0
M  V30 5828 H 563.156 -2.85774 -0.909586 0
M  V30 5829 H 560.709 -1.50032 -0.438174 0
M  V30 5830 H 561.444 -1.31243 -2.96557 0
M  V30 5831 H 561.229 -3.02368 -2.49632 0
M  V30 5832 H 562.719 -2.50608 -3.34044 0
M  V30 5833 N 563.156 0.464375 -1.50603 0
M  V30 5834 C 564.384 1.23907 -1.65695 0
M  V30 5835 C 564.799 1.85658 -0.343027 0
M  V30 5836 O 564.156 1.69529 0.675739 0
M  V30 5837 C 564.207 2.3429 -2.75301 0
M  V30 5838 O 563.928 1.7507 -4.01599 0
M  V30 5839 C 565.429 3.25051 -3.01424 0
M  V30 5840 H 562.649 0.374485 -0.556778 0
M  V30 5841 H 565.193 0.55353 -1.96866 0
M  V30 5842 H 563.348 2.98607 -2.46804 0
M  V30 5843 H 563.762 2.47812 -4.62266 0
M  V30 5844 H 565.236 3.98699 -3.81763 0
M  V30 5845 H 565.713 3.84227 -2.12758 0
M  V30 5846 H 566.319 2.66463 -3.31477 0
M  V30 5847 N 564.634 1.40294 0.718013 0
M  V30 5848 C 565.874 1.39888 1.49032 0
M  V30 5849 C 566.238 -0.000462935 1.92 0
M  V30 5850 O 567.439 -0.129622 2.68487 0
M  V30 5851 C 565.71 2.35868 2.68516 0
M  V30 5852 S 567.269 2.53799 3.57954 0
M  V30 5853 H 564.087 0.495849 0.509563 0
M  V30 5854 H 566.689 1.76541 0.839846 0
M  V30 5855 H 565.393 3.36375 2.35117 0
M  V30 5856 H 564.924 2.0049 3.38478 0
M  V30 5857 H 566.939 1.78859 4.62843 0
M  V30 5858 N 566.112 -0.949982 1.2575 0
M  V30 5859 C 567.337 -1.73503 1.13628 0
M  V30 5860 C 567.762 -1.85601 -0.30559 0
M  V30 5861 O 567.12 -1.33984 -1.22139 0
M  V30 5862 C 567.168 -3.1243 1.80055 0
M  V30 5863 O 566.272 -3.97916 1.08336 0
M  V30 5864 H 565.613 -0.532665 0.396439 0
M  V30 5865 H 568.143 -1.19043 1.66403 0
M  V30 5866 H 568.153 -3.62866 1.86527 0
M  V30 5867 H 566.828 -3.02941 2.84956 0
M  V30 5868 H 565.405 -3.56375 1.09777 0
M  V30 5869 N 567.59 -1.07411 -1.15328 0
M  V30 5870 C 568.52 -0.716472 -2.22236 0
M  V30 5871 C 569.501 0.296373 -1.67498 0
M  V30 5872 O 570.686 0.168989 -1.93463 0
M  V30 5873 C 567.816 -0.114142 -3.47112 0
M  V30 5874 C 566.77 -1.05421 -4.14814 0
M  V30 5875 C 566.096 -0.314604 -5.33774 0
M  V30 5876 C 567.396 -2.38808 -4.64508 0
M  V30 5877 H 569.09 -1.61029 -2.52408 0
M  V30 5878 H 566.636 -0.775702 -1.21321 0
M  V30 5879 H 568.589 0.148001 -4.2114 0
M  V30 5880 H 567.313 0.814755 -3.16274 0
M  V30 5881 H 565.972 -1.30128 -3.42728 0
M  V30 5882 H 565.62 0.617772 -4.99192 0
M  V30 5883 H 565.32 -0.941209 -5.80013 0
M  V30 5884 H 566.844 -0.0602747 -6.1057 0
M  V30 5885 H 568.258 -2.18424 -5.3006 0
M  V30 5886 H 566.655 -2.97069 -5.21412 0
M  V30 5887 H 567.725 -3.01067 -3.80114 0
M  V30 5888 N 569.068 1.32177 -0.85831 0
M  V30 5889 C 570.296 2.01313 -0.477582 0
M  V30 5890 C 570.711 1.6449 0.926736 0
M  V30 5891 O 570.068 0.868096 1.60531 0
M  V30 5892 C 570.119 3.56293 -0.611337 0
M  V30 5893 O 569.84 3.91794 -1.96034 0
M  V30 5894 C 571.341 4.42702 -0.230093 0
M  V30 5895 H 568.561 0.644323 -0.187322 0
M  V30 5896 H 571.105 1.68674 -1.15626 0
M  V30 5897 H 569.26 3.87395 0.0196494 0
M  V30 5898 H 569.674 4.86513 -1.95973 0
M  V30 5899 H 571.148 5.50727 -0.374674 0
M  V30 5900 H 571.625 4.3129 0.829779 0
M  V30 5901 H 572.231 4.16997 -0.836302 0
M  V30 5902 N 570.547 0.616602 1.45037 0
M  V30 5903 C 571.51 -0.0871112 2.29034 0
M  V30 5904 C 572.51 -0.786414 1.40258 0
M  V30 5905 O 573.7 -0.633207 1.62284 0
M  V30 5906 C 570.832 -1.13369 3.21497 0
M  V30 5907 H 572.025 0.651497 2.92738 0
M  V30 5908 H 569.578 0.376058 1.51709 0
M  V30 5909 H 570.313 -1.90277 2.62612 0
M  V30 5910 H 570.098 -0.636358 3.86902 0
M  V30 5911 H 571.588 -1.62627 3.84633 0
M  V30 5912 N 572.025 -1.5352 0.356285 0
M  V30 5913 C 573.436 -1.86282 -0.12492 0
M  V30 5914 C 573.787 -1.27717 -1.48939 0
M  V30 5915 O 572.912 -0.595614 -2.08042 0
M  V30 5916 C 573.507 -3.37995 -0.23345 0
M  V30 5917 C 572.066 -3.70588 -0.658899 0
M  V30 5918 C 571.213 -2.76581 0.199596 0
M  V30 5919 H 574.164 -1.47901 0.575423 0
M  V30 5920 H 574.185 -3.65475 -1.0587 0
M  V30 5921 H 573.697 -3.8059 0.759776 0
M  V30 5922 H 571.798 -3.33544 -1.66069 0
M  V30 5923 H 571.911 -4.77076 -0.439957 0
M  V30 5924 H 570.275 -2.52552 -0.330076 0
M  V30 5925 H 571.058 -3.22008 1.19019 0
M  V30 5926 N 573.503 -0.0852151 -1.57369 0
M  V30 5927 C 574.435 0.907099 -2.10486 0
M  V30 5928 C 575.448 1.25259 -1.03991 0
M  V30 5929 O 576.637 1.20743 -1.31467 0
M  V30 5930 C 573.737 2.21908 -2.56145 0
M  V30 5931 C 572.91 2.05042 -3.86363 0
M  V30 5932 C 571.969 3.19664 -4.17973 0
M  V30 5933 O 570.995 2.94062 -4.87356 0
M  V30 5934 N 572.197 4.45151 -3.72587 0
M  V30 5935 H 574.962 0.453505 -2.96249 0
M  V30 5936 H 572.523 0.100157 -1.6159 0
M  V30 5937 H 574.515 2.97519 -2.74343 0
M  V30 5938 H 573.085 2.58723 -1.75446 0
M  V30 5939 H 572.305 1.13819 -3.77411 0
M  V30 5940 H 573.593 1.91039 -4.71574 0
M  V30 5941 H 572.991 4.68834 -3.16561 0
M  V30 5942 H 571.548 5.17744 -3.9596 0
M  V30 5943 N 574.981 1.5647 0.188427 0
M  V30 5944 C 576.258 1.71857 0.934058 0
M  V30 5945 C 576.638 0.641867 2.01105 0
M  V30 5946 O 575.986 -0.346098 2.25864 0
M  V30 5947 C 576.196 3.14431 1.5144 0
M  V30 5948 C 577.544 3.74869 1.99396 0
M  V30 5949 O 578.568 3.17601 1.61269 0
M  V30 5950 O 577.427 4.75387 2.69573 0
M  V30 5951 H 574.521 0.701186 0.438483 0
M  V30 5952 H 577.067 1.68768 0.177599 0
M  V30 5953 H 575.839 3.8427 0.738416 0
M  V30 5954 H 575.462 3.21775 2.33552 0
M  V30 5955 N 576.459 -0.456382 1.50847 0
M  V30 5956 C 577.87 -1.03685 1.55262 0
M  V30 5957 C 578.221 -1.92779 0.364771 0
M  V30 5958 O 577.346 -2.10043 -0.52068 0
M  V30 5959 C 577.941 -1.88718 2.81374 0
M  V30 5960 C 576.5 -2.41847 2.88422 0
M  V30 5961 C 575.647 -1.20564 2.49719 0
M  V30 5962 H 578.598 -0.238399 1.56899 0
M  V30 5963 H 578.619 -2.73957 2.6406 0
M  V30 5964 H 578.131 -1.23847 3.67809 0
M  V30 5965 H 576.232 -3.10228 2.06372 0
M  V30 5966 H 576.345 -2.75947 3.9165 0
M  V30 5967 H 574.709 -1.54504 2.02486 0
M  V30 5968 H 575.492 -0.573326 3.38479 0
M  V30 5969 N 577.937 -1.40673 -0.710563 0
M  V30 5970 C 579.214 -1.29718 -1.46398 0
M  V30 5971 C 579.594 0.082177 -2.1094 0
M  V30 5972 O 578.942 1.09536 -2.00534 0
M  V30 5973 C 579.152 -2.43967 -2.49562 0
M  V30 5974 C 580.5 -2.84436 -3.15248 0
M  V30 5975 O 581.524 -2.43597 -2.59883 0
M  V30 5976 O 580.383 -3.55008 -4.1549 0
M  V30 5977 H 577.477 -0.509697 -0.651258 0
M  V30 5978 H 580.023 -1.52603 -0.742312 0
M  V30 5979 H 578.795 -3.36076 -2.0042 0
M  V30 5980 H 578.418 -2.22879 -3.29258 0
M  V30 5981 N 579.415 0.9433 -1.26252 0
M  V30 5982 C 580.826 1.50404 -1.10614 0
M  V30 5983 C 581.177 1.93666 0.31429 0
M  V30 5984 O 580.302 1.79709 1.20555 0
M  V30 5985 C 580.897 2.73336 -2.00182 0
M  V30 5986 C 579.456 3.25686 -1.88695 0
M  V30 5987 C 578.603 1.98474 -1.93658 0
M  V30 5988 H 581.554 0.759006 -1.39373 0
M  V30 5989 H 581.575 3.47567 -1.54847 0
M  V30 5990 H 581.087 2.41818 -3.03555 0
M  V30 5991 H 579.188 3.61998 -0.882489 0
M  V30 5992 H 579.301 3.92935 -2.74115 0
M  V30 5993 H 577.665 2.14278 -1.37684 0
M  V30 5994 H 578.448 1.6929 -2.98657 0
M  V30 5995 N 580.893 1.08022 1.14757 0
M  V30 5996 C 581.856 0.71048 2.1791 0
M  V30 5997 C 582.856 -0.252731 1.58801 0
M  V30 5998 O 584.046 -0.0327915 1.74169 0
M  V30 5999 C 581.178 0.0483203 3.40866 0
M  V30 6000 H 582.371 1.62384 2.52134 0
M  V30 6001 H 579.924 0.877595 1.29337 0
M  V30 6002 H 580.659 -0.876959 3.12218 0
M  V30 6003 H 580.444 0.741189 3.85031 0
M  V30 6004 H 581.934 -0.195471 4.17142 0
M  V30 6005 N 582.371 -1.3172 0.865308 0
M  V30 6006 C 583.619 -1.96487 0.472995 0
M  V30 6007 C 583.94 -1.68761 -0.976975 0
M  V30 6008 O 583.21 -1.00051 -1.68424 0
M  V30 6009 H 581.79 -0.726947 0.171922 0
M  V30 6010 H 584.452 -1.60612 1.10407 0
M  V30 6011 H 583.548 -3.0574 0.62687 0
M  V30 6012 N 583.85 -0.624285 -1.44708 0
M  V30 6013 C 584.783 0.133905 -2.27807 0
M  V30 6014 C 585.76 0.857794 -1.38133 0
M  V30 6015 O 586.945 0.863277 -1.6757 0
M  V30 6016 C 584.072 1.19541 -3.16903 0
M  V30 6017 C 583.118 0.572813 -4.22636 0
M  V30 6018 S 583.951 -0.631953 -5.31758 0
M  V30 6019 C 585.106 0.429733 -6.24423 0
M  V30 6020 H 585.34 -0.571072 -2.91764 0
M  V30 6021 H 582.873 -0.412261 -1.48794 0
M  V30 6022 H 584.831 1.80293 -3.68788 0
M  V30 6023 H 583.492 1.87255 -2.5218 0
M  V30 6024 H 582.685 1.37205 -4.84965 0
M  V30 6025 H 582.287 0.0400641 -3.73979 0
M  V30 6026 H 584.579 1.30421 -6.64828 0
M  V30 6027 H 585.522 -0.157804 -7.07924 0
M  V30 6028 H 585.93 0.75256 -5.59461 0
M  V30 6029 N 585.328 1.53329 -0.364422 0
M  V30 6030 C 586.291 2.24323 0.470292 0
M  V30 6031 C 587.291 1.25068 1.01067 0
M  V30 6032 O 588.481 1.49354 0.896605 0
M  V30 6033 C 585.613 2.97908 1.65722 0
M  V30 6034 H 586.806 2.9952 -0.150917 0
M  V30 6035 H 584.359 1.55868 -0.116092 0
M  V30 6036 H 585.094 2.2695 2.31655 0
M  V30 6037 H 584.879 3.70732 1.27671 0
M  V30 6038 H 586.369 3.5188 2.24878 0
M  V30 6039 N 586.806 0.0935595 1.57322 0
M  V30 6040 C 588.034 -0.578934 1.98635 0
M  V30 6041 C 588.449 -1.61819 0.972626 0
M  V30 6042 O 587.806 -1.82461 -0.0379638 0
M  V30 6043 C 587.857 -1.22802 3.40003 0
M  V30 6044 O 587.578 -0.230334 4.37494 0
M  V30 6045 C 589.079 -1.98627 3.96311 0
M  V30 6046 H 586.299 -0.155324 0.652775 0
M  V30 6047 H 588.843 0.172393 2.03772 0
M  V30 6048 H 586.998 -1.93029 3.35885 0
M  V30 6049 H 587.412 -0.698649 5.19826 0
M  V30 6050 H 588.886 -2.39405 4.97382 0
M  V30 6051 H 589.363 -2.85151 3.34044 0
M  V30 6052 H 589.969 -1.3322 4.03897 0
M  V30 6053 N 588.284 -1.56567 -0.180126 0
M  V30 6054 C 589.514 -1.85349 -0.912647 0
M  V30 6055 C 589.922 -0.675795 -1.76719 0
M  V30 6056 O 589.265 0.3645 -1.80047 0
M  V30 6057 C 589.327 -3.08431 -1.84691 0
M  V30 6058 C 588.991 -4.41694 -1.17284 0
M  V30 6059 C 589.988 -5.17062 -0.542532 0
M  V30 6060 C 587.673 -4.8843 -1.17223 0
M  V30 6061 C 589.667 -6.37351 0.0793953 0
M  V30 6062 C 587.354 -6.08652 -0.54647 0
M  V30 6063 C 588.352 -6.82955 0.0782458 0
M  V30 6064 O 588.04 -8.00897 0.694158 0
M  V30 6065 H 587.772 -0.619286 -0.271036 0
M  V30 6066 H 590.326 -2.0454 -0.187768 0
M  V30 6067 H 588.556 -2.85163 -2.61188 0
M  V30 6068 H 590.245 -3.23733 -2.44851 0
M  V30 6069 H 591.011 -4.8204 -0.535045 0
M  V30 6070 H 586.89 -4.30542 -1.64788 0
M  V30 6071 H 590.434 -6.95287 0.567612 0
M  V30 6072 H 586.331 -6.4314 -0.55151 0
M  V30 6073 H 587.099 -8.16352 0.592537 0
M  V30 6074 N 589.762 0.448376 -1.51087 0
M  V30 6075 C 590.987 1.22605 -1.6728 0
M  V30 6076 C 591.412 1.84524 -0.365045 0
M  V30 6077 O 590.77 1.6832 0.673642 0
M  V30 6078 C 590.818 2.29393 -2.78229 0
M  V30 6079 O 589.922 3.34608 -2.41063 0
M  V30 6080 H 589.263 0.359705 -0.558129 0
M  V30 6081 H 591.793 0.530903 -1.97592 0
M  V30 6082 H 591.803 2.74352 -3.01986 0
M  V30 6083 H 590.478 1.83701 -3.73131 0
M  V30 6084 H 589.055 2.95202 -2.27838 0
M  V30 6085 N 591.24 1.41047 0.703093 0
M  V30 6086 C 592.486 1.41209 1.46396 0
M  V30 6087 C 592.841 0.0180188 1.92392 0
M  V30 6088 O 592.134 -0.954739 1.66118 0
M  V30 6089 C 592.328 2.34686 2.6955 0
M  V30 6090 C 592.157 3.83044 2.35601 0
M  V30 6091 C 590.927 4.51777 2.26331 0
M  V30 6092 C 593.125 4.74215 1.9906 0
M  V30 6093 N 591.107 5.85302 1.85188 0
M  V30 6094 C 592.478 5.96631 1.68616 0
M  V30 6095 C 594.533 4.61932 1.85805 0
M  V30 6096 C 593.236 7.08134 1.26249 0
M  V30 6097 C 595.262 5.73389 1.44842 0
M  V30 6098 C 594.624 6.94899 1.15304 0
M  V30 6099 H 590.723 0.571951 0.533288 0
M  V30 6100 H 593.307 1.76859 0.814179 0
M  V30 6101 H 591.478 2.01143 3.32259 0
M  V30 6102 H 593.21 2.25618 3.35974 0
M  V30 6103 H 589.965 4.05618 2.44482 0
M  V30 6104 H 590.389 6.56049 1.67119 0
M  V30 6105 H 595.031 3.68494 2.07298 0
M  V30 6106 H 592.749 8.01445 1.035 0
M  V30 6107 H 596.335 5.65886 1.35146 0
M  V30 6108 H 595.215 7.79679 0.840854 0
M  V30 6109 N 592.718 -0.936591 1.26751 0
M  V30 6110 C 593.943 -1.72288 1.15462 0
M  V30 6111 C 594.368 -1.85915 -0.285887 0
M  V30 6112 O 593.726 -1.35272 -1.20711 0
M  V30 6113 C 593.774 -3.10503 1.83359 0
M  V30 6114 O 592.878 -3.96745 1.1255 0
M  V30 6115 H 592.219 -0.52843 0.402067 0
M  V30 6116 H 594.749 -1.17271 1.67656 0
M  V30 6117 H 594.759 -3.60867 1.90365 0
M  V30 6118 H 593.434 -2.99901 2.88153 0
M  V30 6119 H 592.011 -3.55191 1.13551 0
M  V30 6120 N 594.196 -1.08629 -1.14182 0
M  V30 6121 C 595.612 -0.814363 -1.3726 0
M  V30 6122 C 595.812 0.575271 -1.93114 0
M  V30 6123 O 594.868 1.33165 -2.1453 0
M  V30 6124 C 596.181 -1.8989 -2.33157 0
M  V30 6125 C 597.729 -1.92518 -2.46791 0
M  V30 6126 C 598.204 -3.00092 -3.45989 0
M  V30 6127 N 599.695 -2.99279 -3.53534 0
M  V30 6128 C 600.43 -3.79158 -4.30147 0
M  V30 6129 N 599.926 -4.68923 -5.09983 0
M  V30 6130 N 601.719 -3.67451 -4.25366 0
M  V30 6131 H 593.87 -1.98232 -0.762758 0
M  V30 6132 H 596.133 -0.860383 -0.398051 0
M  V30 6133 H 595.839 -2.89809 -1.99257 0
M  V30 6134 H 595.713 -1.77013 -3.33086 0
M  V30 6135 H 598.1 -0.932425 -2.79982 0
M  V30 6136 H 598.181 -2.09473 -1.46816 0
M  V30 6137 H 597.825 -3.99575 -3.13532 0
M  V30 6138 H 597.755 -2.80382 -4.45751 0
M  V30 6139 H 600.246 -2.3422 -2.96563 0
M  V30 6140 H 600.559 -5.26475 -5.65724 0
M  V30 6141 H 598.904 -4.72964 -5.09244 0
M  V30 6142 H 602.095 -2.9669 -3.62067 0
M  V30 6143 H 602.268 -4.29944 -4.84822 0
M  V30 6144 N 595.674 1.31259 -0.872281 0
M  V30 6145 C 596.584 2.32221 -0.333255 0
M  V30 6146 C 597.6 1.6481 0.558013 0
M  V30 6147 O 598.776 1.96212 0.454175 0
M  V30 6148 C 595.841 3.43708 0.454479 0
M  V30 6149 C 594.902 4.26774 -0.465024 0
M  V30 6150 C 594.135 5.32937 0.28521 0
M  V30 6151 O 594.358 5.49968 1.513 0
M  V30 6152 O 593.292 6.00834 -0.358126 0
M  V30 6153 H 597.118 2.80252 -1.17016 0
M  V30 6154 H 594.703 1.352 -0.635724 0
M  V30 6155 H 596.585 4.11656 0.900963 0
M  V30 6156 H 595.26 2.97836 1.26789 0
M  V30 6157 H 594.167 3.61571 -0.960055 0
M  V30 6158 H 595.5 4.76217 -1.2441 0
M  V30 6159 N 597.152 0.631951 1.44375 0
M  V30 6160 C 598.377 0.142146 2.06912 0
M  V30 6161 C 598.802 -1.17456 1.4692 0
M  V30 6162 O 598.16 -1.72074 0.570975 0
M  V30 6163 C 598.208 0.0417952 3.60576 0
M  V30 6164 O 597.312 -1.00194 4.00044 0
M  V30 6165 H 596.653 0.0851491 0.658518 0
M  V30 6166 H 599.183 0.868863 1.85235 0
M  V30 6167 H 599.193 -0.148517 4.0773 0
M  V30 6168 H 597.868 1.0031 4.03622 0
M  V30 6169 H 596.445 -0.786131 3.64519 0
M  V30 6170 N 598.631 -1.53133 0.372548 0
M  V30 6171 C 599.879 -2.00958 -0.214534 0
M  V30 6172 C 600.2 -1.26135 -1.48711 0
M  V30 6173 O 599.47 -0.376597 -1.92246 0
M  V30 6174 H 598.05 -0.742456 -0.0822664 0
M  V30 6175 H 600.712 -1.88367 0.500385 0
M  V30 6176 H 599.808 -3.09031 -0.436605 0
M  V30 6177 N 600.109 -0.101901 -1.5727 0
M  V30 6178 C 601.072 0.840129 -2.13247 0
M  V30 6179 C 602.072 1.20625 -1.06331 0
M  V30 6180 O 603.262 1.13456 -1.32186 0
M  V30 6181 C 600.394 2.13372 -2.65867 0
M  V30 6182 H 601.587 0.353945 -2.97804 0
M  V30 6183 H 599.14 0.147167 -1.55606 0
M  V30 6184 H 599.875 2.66461 -1.84849 0
M  V30 6185 H 599.66 1.88085 -3.44044 0
M  V30 6186 H 601.15 2.80748 -3.09145 0
M  V30 6187 N 601.587 1.56661 0.17182 0
M  V30 6188 C 602.52 1.91474 1.24149 0
M  V30 6189 C 603.498 0.777485 1.42807 0
M  V30 6190 O 604.682 1.03075 1.57822 0
M  V30 6191 C 601.809 2.16523 2.60453 0
M  V30 6192 C 600.855 3.39209 2.58533 0
M  V30 6193 S 601.688 4.93594 2.07665 0
M  V30 6194 C 602.844 5.21737 3.45747 0
M  V30 6195 H 603.077 2.81903 0.944346 0
M  V30 6196 H 600.61 1.49743 0.376364 0
M  V30 6197 H 602.568 2.31635 3.38903 0
M  V30 6198 H 601.229 1.26802 2.87368 0
M  V30 6199 H 600.422 3.53935 3.58812 0
M  V30 6200 H 600.024 3.2321 1.88178 0
M  V30 6201 H 602.316 5.13684 4.41741 0
M  V30 6202 H 603.259 6.23361 3.35896 0
M  V30 6203 H 603.667 4.49307 3.41736 0
M  V30 6204 N 603.065 -0.440357 1.51323 0
M  V30 6205 C 604.313 -1.18769 1.63518 0
M  V30 6206 C 604.634 -1.91793 0.352201 0
M  V30 6207 O 603.904 -1.85432 -0.631811 0
M  V30 6208 H 602.484 -0.441408 0.602634 0
M  V30 6209 H 605.146 -0.505162 1.8824 0
M  V30 6210 H 604.242 -1.91892 2.46138 0
M  V30 6211 N 604.543 -1.41418 -0.695603 0
M  V30 6212 C 605.475 -1.39195 -1.82092 0
M  V30 6213 C 606.488 -0.294132 -1.60121 0
M  V30 6214 O 607.677 -0.555854 -1.69625 0
M  V30 6215 C 604.777 -1.14828 -3.18854 0
M  V30 6216 C 603.95 -2.36649 -3.67853 0
M  V30 6217 C 603.009 -2.08139 -4.83285 0
M  V30 6218 O 602.035 -2.81177 -4.94902 0
M  V30 6219 N 603.237 -1.07162 -5.70523 0
M  V30 6220 H 606.002 -2.36185 -1.84491 0
M  V30 6221 H 603.563 -1.3603 -0.877923 0
M  V30 6222 H 605.555 -0.937075 -3.93702 0
M  V30 6223 H 604.125 -0.264358 -3.1148 0
M  V30 6224 H 603.345 -2.73472 -2.83913 0
M  V30 6225 H 604.633 -3.17816 -3.97329 0
M  V30 6226 H 604.031 -0.467124 -5.63768 0
M  V30 6227 H 602.588 -0.920311 -6.4527 0
M  V30 6228 N 606.021 0.929856 -1.27246 0
M  V30 6229 C 606.931 2.0636 -1.11592 0
M  V30 6230 C 607.947 1.73938 -0.046496 0
M  V30 6231 O 609.123 1.9981 -0.252544 0
M  V30 6232 C 606.188 3.38213 -0.762437 0
M  V30 6233 C 605.249 3.84346 -1.9125 0
M  V30 6234 C 604.482 5.09906 -1.57579 0
M  V30 6235 O 604.705 5.68354 -0.482694 0
M  V30 6236 O 603.639 5.51359 -2.41426 0
M  V30 6237 H 607.465 2.22478 -2.0673 0
M  V30 6238 H 605.05 1.04865 -1.06413 0
M  V30 6239 H 606.932 4.1741 -0.57854 0
M  V30 6240 H 605.607 3.23307 0.159439 0
M  V30 6241 H 604.514 3.06045 -2.15144 0
M  V30 6242 H 605.847 4.0379 -2.81451 0
M  V30 6243 N 607.499 1.09233 1.13605 0
M  V30 6244 C 608.446 0.729921 2.18954 0
M  V30 6245 C 609.416 -0.287916 1.63586 0
M  V30 6246 O 610.601 -0.170003 1.90041 0
M  V30 6247 C 607.741 0.154489 3.44754 0
M  V30 6248 C 606.854 1.22613 4.14234 0
M  V30 6249 C 605.989 0.613657 5.27644 0
M  V30 6250 C 605.028 1.66674 5.8897 0
M  V30 6251 N 604.165 1.07545 6.93814 0
M  V30 6252 H 609.005 1.63257 2.49302 0
M  V30 6253 H 606.542 0.815693 1.22413 0
M  V30 6254 H 608.5 -0.196923 4.16735 0
M  V30 6255 H 607.13 -0.711433 3.14863 0
M  V30 6256 H 606.182 1.69485 3.40557 0
M  V30 6257 H 607.494 2.0238 4.55899 0
M  V30 6258 H 606.648 0.210976 6.06333 0
M  V30 6259 H 605.387 -0.215584 4.87223 0
M  V30 6260 H 604.392 2.07899 5.08978 0
M  V30 6261 H 605.617 2.49861 6.31464 0
M  V30 6262 H 603.563 0.267451 6.55455 0
M  V30 6263 H 603.48 1.81011 7.3401 0
M  V30 6264 H 604.748 0.698906 7.7636 0
M  V30 6265 N 608.977 -1.30795 0.87923 0
M  V30 6266 C 610.217 -1.98155 0.50141 0
M  V30 6267 C 610.581 -1.67925 -0.930863 0
M  V30 6268 O 611.782 -2.28572 -1.41451 0
M  V30 6269 C 610.053 -3.49184 0.761937 0
M  V30 6270 S 611.612 -4.36107 0.485361 0
M  V30 6271 H 608.43 -0.686025 0.186792 0
M  V30 6272 H 611.032 -1.59018 1.13726 0
M  V30 6273 H 609.736 -3.68676 1.80295 0
M  V30 6274 H 609.267 -3.93236 0.113432 0
M  V30 6275 H 611.282 -4.9154 -0.678467 0
M  V30 6276 N 610.455 -0.639598 -1.44038 0
M  V30 6277 C 611.685 -0.154586 -2.06021 0
M  V30 6278 C 612.093 1.17951 -1.47933 0
M  V30 6279 O 611.436 1.73627 -0.59994 0
M  V30 6280 C 611.498 0.0255459 -3.59491 0
M  V30 6281 C 611.162 -1.2317 -4.40089 0
M  V30 6282 C 612.159 -2.15735 -4.73027 0
M  V30 6283 C 609.844 -1.46949 -4.80324 0
M  V30 6284 C 611.838 -3.30382 -5.45093 0
M  V30 6285 C 609.525 -2.61891 -5.52138 0
M  V30 6286 C 610.523 -3.53433 -5.84443 0
M  V30 6287 O 610.211 -4.6637 -6.54793 0
M  V30 6288 H 609.943 -0.0808543 -0.671147 0
M  V30 6289 H 612.497 -0.876541 -1.85758 0
M  V30 6290 H 610.727 0.802733 -3.78276 0
M  V30 6291 H 612.416 0.466184 -4.03214 0
M  V30 6292 H 613.182 -1.98602 -4.42473 0
M  V30 6293 H 609.061 -0.765815 -4.54595 0
M  V30 6294 H 612.605 -4.01856 -5.70226 0
M  V30 6295 H 608.502 -2.78964 -5.82108 0
M  V30 6296 H 609.27 -4.6546 -6.73267 0
M  V30 6297 N 611.933 1.52934 -0.380664 0
M  V30 6298 C 613.163 2.05587 0.204302 0
M  V30 6299 C 613.571 1.25288 1.41773 0
M  V30 6300 O 612.914 0.290394 1.8139 0
M  V30 6301 C 612.976 3.53624 0.647324 0
M  V30 6302 C 612.64 4.54765 -0.451465 0
M  V30 6303 C 613.637 5.03226 -1.30614 0
M  V30 6304 C 611.322 4.98508 -0.616025 0
M  V30 6305 C 613.316 5.94046 -2.31058 0
M  V30 6306 C 611.003 5.89131 -1.62381 0
M  V30 6307 C 612.001 6.36792 -2.46952 0
M  V30 6308 O 611.689 7.25626 -3.46009 0
M  V30 6309 H 611.421 0.675013 0.0365198 0
M  V30 6310 H 613.975 1.98125 -0.541827 0
M  V30 6311 H 612.205 3.58676 1.44529 0
M  V30 6312 H 613.894 3.89061 1.15698 0
M  V30 6313 H 614.66 4.70167 -1.19027 0
M  V30 6314 H 610.539 4.60989 0.0324987 0
M  V30 6315 H 614.083 6.3117 -2.97104 0
M  V30 6316 H 609.98 6.21603 -1.7401 0
M  V30 6317 H 610.748 7.43664 -3.41916 0
M  V30 6318 N 613.412 0.11024 1.57214 0
M  V30 6319 C 614.661 -0.549638 1.94067 0
M  V30 6320 C 614.974 -1.68388 0.995234 0
M  V30 6321 O 616.18 -2.40593 1.25807 0
M  V30 6322 C 614.636 -1.02912 3.44873 0
M  V30 6323 C 614.244 0.0761861 4.47935 0
M  V30 6324 C 615.988 -1.66087 3.9066 0
M  V30 6325 C 613.895 -0.419502 5.8991 0
M  V30 6326 H 612.825 -0.209092 0.724428 0
M  V30 6327 H 615.476 0.188683 1.82527 0
M  V30 6328 H 613.858 -1.82159 3.51616 0
M  V30 6329 H 615.032 0.852185 4.52851 0
M  V30 6330 H 613.347 0.614052 4.11847 0
M  V30 6331 H 615.944 -2.04272 4.94143 0
M  V30 6332 H 616.287 -2.53591 3.30148 0
M  V30 6333 H 616.82 -0.933959 3.86681 0
M  V30 6334 H 613.559 0.419277 6.54158 0
M  V30 6335 H 613.079 -1.16217 5.88433 0
M  V30 6336 H 614.758 -0.883577 6.40938 0
M  V30 6337 N 614.89 -1.56749 -0.16351 0
M  V30 6338 C 616.118 -1.86577 -0.894233 0
M  V30 6339 C 616.533 -0.696543 -1.75481 0
M  V30 6340 O 615.89 0.334161 -1.79415 0
M  V30 6341 C 615.941 -3.15508 -1.76456 0
M  V30 6342 O 615.662 -4.27926 -0.938685 0
M  V30 6343 C 617.163 -3.58737 -2.60428 0
M  V30 6344 H 614.383 -0.618829 -0.259405 0
M  V30 6345 H 616.927 -2.03863 -0.161259 0
M  V30 6346 H 615.082 -3.00025 -2.45079 0
M  V30 6347 H 615.496 -5.01546 -1.53465 0
M  V30 6348 H 616.97 -4.51832 -3.17099 0
M  V30 6349 H 617.447 -2.83229 -3.35675 0
M  V30 6350 H 618.053 -3.76858 -1.97125 0
M  V30 6351 N 616.368 0.432326 -1.51554 0
M  V30 6352 C 617.617 1.17831 -1.63703 0
M  V30 6353 C 617.93 1.92229 -0.36156 0
M  V30 6354 O 619.136 2.69069 -0.362495 0
M  V30 6355 C 617.592 2.14318 -2.89129 0
M  V30 6356 C 617.2 1.45544 -4.23699 0
M  V30 6357 C 618.944 2.89319 -3.10636 0
M  V30 6358 C 616.851 2.40545 -5.4027 0
M  V30 6359 H 615.781 0.443533 -0.60975 0
M  V30 6360 H 618.432 0.444878 -1.78026 0
M  V30 6361 H 616.814 2.91117 -2.68452 0
M  V30 6362 H 617.988 0.742693 -4.54775 0
M  V30 6363 H 616.303 0.826772 -4.0811 0
M  V30 6364 H 618.9 3.60495 -3.94902 0
M  V30 6365 H 619.243 3.50951 -2.23918 0
M  V30 6366 H 619.776 2.19625 -3.31677 0
M  V30 6367 H 616.515 1.83594 -6.29264 0
M  V30 6368 H 616.035 3.09859 -5.13563 0
M  V30 6369 H 617.714 3.01569 -5.72421 0
M  V30 6370 N 617.846 1.41785 0.688094 0
M  V30 6371 C 619.093 1.41544 1.44816 0
M  V30 6372 C 619.421 0.0271746 1.94481 0
M  V30 6373 O 618.676 -0.962235 1.7041 0
M  V30 6374 C 618.975 2.37532 2.67046 0
M  V30 6375 C 618.641 3.84209 2.35996 0
M  V30 6376 C 617.303 4.24165 2.27239 0
M  V30 6377 C 619.655 4.76785 2.10536 0
M  V30 6378 C 616.983 5.54695 1.91128 0
M  V30 6379 C 619.335 6.07644 1.75931 0
M  V30 6380 C 617.999 6.46613 1.65675 0
M  V30 6381 H 617.269 0.517945 0.529919 0
M  V30 6382 H 619.916 1.74635 0.785797 0
M  V30 6383 H 618.221 1.9772 3.38251 0
M  V30 6384 H 619.918 2.34615 3.25203 0
M  V30 6385 H 616.508 3.52567 2.4371 0
M  V30 6386 H 620.692 4.46714 2.16242 0
M  V30 6387 H 615.948 5.83762 1.81746 0
M  V30 6388 H 620.122 6.78874 1.55252 0
M  V30 6389 H 617.749 7.47668 1.37463 0
M  V30 6390 N 619.324 -0.923095 1.27737 0
M  V30 6391 C 620.287 -2.00587 1.10894 0
M  V30 6392 C 621.287 -1.60718 0.0514927 0
M  V30 6393 O 622.477 -1.71658 0.296481 0
M  V30 6394 C 619.609 -3.33829 0.690717 0
M  V30 6395 H 620.802 -2.16959 2.07048 0
M  V30 6396 H 618.355 -1.10451 1.1059 0
M  V30 6397 H 619.09 -3.23157 -0.272 0
M  V30 6398 H 618.875 -3.64125 1.45448 0
M  V30 6399 H 620.365 -4.13336 0.595252 0
M  V30 6400 N 620.802 -1.09834 -1.13024 0
M  V30 6401 C 622.027 -0.85909 -1.88771 0
M  V30 6402 C 622.452 0.584402 -1.78791 0
M  V30 6403 O 621.81 1.41101 -1.13842 0
M  V30 6404 C 621.858 -1.30427 -3.36186 0
M  V30 6405 O 620.962 -0.465368 -4.09766 0
M  V30 6406 H 620.303 -0.310786 -0.586778 0
M  V30 6407 H 622.833 -1.46355 -1.42973 0
M  V30 6408 H 622.843 -1.2915 -3.8702 0
M  V30 6409 H 621.518 -2.3555 -3.42767 0
M  V30 6410 H 620.095 -0.542814 -3.68928 0
M  V30 6411 N 622.28 1.30327 -0.886154 0
M  V30 6412 C 623.243 2.26376 -0.358687 0
M  V30 6413 C 624.243 1.52845 0.499498 0
M  V30 6414 O 625.433 1.71483 0.306485 0
M  V30 6415 C 622.565 3.37379 0.488726 0
M  V30 6416 H 623.758 2.74547 -1.20681 0
M  V30 6417 H 621.311 1.41536 -0.663113 0
M  V30 6418 H 622.046 2.94526 1.35739 0
M  V30 6419 H 621.831 3.91897 -0.126003 0
M  V30 6420 H 623.321 4.08868 0.84952 0
M  V30 6421 N 623.758 0.647228 1.43697 0
M  V30 6422 C 624.708 -0.0702191 2.27892 0
M  V30 6423 C 625.692 -0.800601 1.39568 0
M  V30 6424 O 626.884 -0.684055 1.63247 0
M  V30 6425 C 624.013 -1.04008 3.27165 0
M  V30 6426 C 623.099 -0.308484 4.22977 0
M  V30 6427 N 623.49 0.671721 5.0132 0
M  V30 6428 C 621.788 -0.550751 4.42586 0
M  V30 6429 C 622.489 1.10543 5.711 0
M  V30 6430 N 621.465 0.440903 5.41809 0
M  V30 6431 H 625.267 0.682031 2.85877 0
M  V30 6432 H 622.781 0.474022 1.55328 0
M  V30 6433 H 624.778 -1.56881 3.86256 0
M  V30 6434 H 623.438 -1.79246 2.70742 0
M  V30 6435 H 624.449 1.0502 5.0714 0
M  V30 6436 H 621.126 -1.28476 3.97241 0
M  V30 6437 H 622.516 1.91614 6.43998 0
M  V30 6438 N 625.236 -1.5273 0.388769 0
M  V30 6439 C 626.647 -1.86505 -0.0853788 0
M  V30 6440 C 626.998 -1.30847 -1.46197 0
M  V30 6441 O 626.123 -0.639609 -2.06732 0
M  V30 6442 C 626.718 -3.38414 -0.161703 0
M  V30 6443 C 625.277 -3.71902 -0.580144 0
M  V30 6444 C 624.424 -2.76095 0.258218 0
M  V30 6445 H 627.375 -1.46647 0.606665 0
M  V30 6446 H 627.396 -3.67638 -0.980936 0
M  V30 6447 H 626.908 -3.78893 0.840333 0
M  V30 6448 H 625.009 -3.36992 -1.58957 0
M  V30 6449 H 625.122 -4.77902 -0.338663 0
M  V30 6450 H 623.486 -2.53195 -0.276432 0
M  V30 6451 H 624.269 -3.19411 1.25822 0
M  V30 6452 N 626.714 -0.118576 -1.57153 0
M  V30 6453 C 627.624 0.845484 -2.18835 0
M  V30 6454 C 628.64 1.29299 -1.16438 0
M  V30 6455 O 629.816 1.35607 -1.48905 0
M  V30 6456 C 626.881 2.07795 -2.77529 0
M  V30 6457 C 625.942 1.6824 -3.9496 0
M  V30 6458 C 625.175 2.85612 -4.50845 0
M  V30 6459 O 625.398 4.01025 -4.05629 0
M  V30 6460 O 624.332 2.62721 -5.41536 0
M  V30 6461 H 628.158 0.350568 -3.0167 0
M  V30 6462 H 625.743 0.107013 -1.49016 0
M  V30 6463 H 627.625 2.79978 -3.14945 0
M  V30 6464 H 626.3 2.56294 -1.97725 0
M  V30 6465 H 625.207 0.931663 -3.62313 0
M  V30 6466 H 626.54 1.24484 -4.76198 0
M  V30 6467 N 628.193 1.56834 0.155195 0
M  V30 6468 C 629.14 1.97646 1.19184 0
M  V30 6469 C 630.11 0.842788 1.4313 0
M  V30 6470 O 631.295 1.1042 1.55602 0
M  V30 6471 C 628.435 2.35527 2.52232 0
M  V30 6472 C 627.548 3.62147 2.35529 0
M  V30 6473 C 626.683 3.89167 3.61555 0
M  V30 6474 C 625.722 5.09084 3.39853 0
M  V30 6475 N 624.859 5.32156 4.5799 0
M  V30 6476 H 629.699 2.8601 0.836802 0
M  V30 6477 H 627.236 1.41507 0.401758 0
M  V30 6478 H 629.194 2.55516 3.29799 0
M  V30 6479 H 627.824 1.50253 2.85699 0
M  V30 6480 H 626.876 3.4998 1.49057 0
M  V30 6481 H 628.188 4.49871 2.15448 0
M  V30 6482 H 627.342 4.09611 4.47553 0
M  V30 6483 H 626.081 2.9985 3.84632 0
M  V30 6484 H 625.086 4.88522 2.52243 0
M  V30 6485 H 626.311 5.99947 3.18183 0
M  V30 6486 H 624.257 4.45791 4.81255 0
M  V30 6487 H 624.174 6.14133 4.40882 0
M  V30 6488 H 625.442 5.57091 5.45225 0
M  V30 6489 N 629.671 -0.424282 1.51781 0
M  V30 6490 C 630.601 -1.52305 1.7699 0
M  V30 6491 C 631.582 -1.5839 0.620209 0
M  V30 6492 O 632.767 -1.73908 0.864268 0
M  V30 6493 C 629.897 -2.90271 1.90683 0
M  V30 6494 C 628.851 -2.99043 3.06198 0
M  V30 6495 C 628.177 -4.39116 3.05092 0
M  V30 6496 C 629.477 -2.7192 4.45934 0
M  V30 6497 H 631.171 -1.31461 2.68995 0
M  V30 6498 H 628.717 -0.630985 1.29439 0
M  V30 6499 H 630.67 -3.6711 2.06901 0
M  V30 6500 H 629.394 -3.12376 0.953365 0
M  V30 6501 H 628.053 -2.24646 2.89706 0
M  V30 6502 H 627.701 -4.58207 2.07498 0
M  V30 6503 H 627.401 -4.45912 3.82669 0
M  V30 6504 H 628.925 -5.17911 3.2342 0
M  V30 6505 H 630.339 -3.38487 4.62709 0
M  V30 6506 H 628.736 -2.90111 5.25315 0
M  V30 6507 H 629.806 -1.67445 4.55072 0
M  V30 6508 N 631.149 -1.42148 -0.680565 0
M  V30 6509 C 632.377 -1.45696 -1.46902 0
M  V30 6510 C 632.792 -0.0665858 -1.88683 0
M  V30 6511 O 632.149 0.917436 -1.57764 0
M  V30 6512 C 632.2 -2.37898 -2.72188 0
M  V30 6513 O 631.921 -3.71526 -2.32163 0
M  V30 6514 C 633.422 -2.50407 -3.65802 0
M  V30 6515 H 630.642 -0.495729 -0.45221 0
M  V30 6516 H 633.186 -1.866 -0.836709 0
M  V30 6517 H 631.341 -2.00263 -3.31622 0
M  V30 6518 H 631.755 -4.20849 -3.13027 0
M  V30 6519 H 633.229 -3.19056 -4.50452 0
M  V30 6520 H 633.706 -1.5401 -4.11312 0
M  V30 6521 H 634.312 -2.8874 -3.12265 0
M  V30 6522 N 632.627 0.916307 -1.28225 0
M  V30 6523 C 633.557 2.0352 -1.14464 0
M  V30 6524 C 634.538 1.70045 -0.0430844 0
M  V30 6525 O 635.723 1.92954 -0.219619 0
M  V30 6526 C 632.853 3.37889 -0.803027 0
M  V30 6527 C 631.807 3.85516 -1.85908 0
M  V30 6528 C 631.133 5.1682 -1.37116 0
M  V30 6529 C 632.433 4.07655 -3.26519 0
M  V30 6530 H 634.127 2.1529 -2.08064 0
M  V30 6531 H 631.673 1.03446 -1.00174 0
M  V30 6532 H 633.626 4.15654 -0.693537 0
M  V30 6533 H 632.35 3.26164 0.168674 0
M  V30 6534 H 631.009 3.09953 -1.95767 0
M  V30 6535 H 630.657 5.01497 -0.38859 0
M  V30 6536 H 630.357 5.49657 -2.07728 0
M  V30 6537 H 631.881 5.97143 -1.27484 0
M  V30 6538 H 633.295 4.75953 -3.19596 0
M  V30 6539 H 631.692 4.51818 -3.94943 0
M  V30 6540 H 632.762 3.12553 -3.70727 0
M  V30 6541 N 634.105 1.10431 1.1244 0
M  V30 6542 C 635.351 0.857864 1.84424 0
M  V30 6543 C 635.706 -0.609995 1.82474 0
M  V30 6544 O 634.999 -1.44401 1.25932 0
M  V30 6545 C 635.193 1.34022 3.3132 0
M  V30 6546 C 635.022 2.85344 3.47576 0
M  V30 6547 C 633.792 3.53345 3.61213 0
M  V30 6548 C 635.99 3.83446 3.42744 0
M  V30 6549 N 633.972 4.92989 3.65834 0
M  V30 6550 C 635.343 5.09101 3.5386 0
M  V30 6551 C 637.398 3.76154 3.26209 0
M  V30 6552 C 636.101 6.28323 3.50146 0
M  V30 6553 C 638.127 4.94876 3.23809 0
M  V30 6554 C 637.489 6.19378 3.35485 0
M  V30 6555 H 633.588 0.366917 0.690577 0
M  V30 6556 H 636.172 1.40668 1.34613 0
M  V30 6557 H 634.343 0.818727 3.79673 0
M  V30 6558 H 636.075 1.03801 3.91162 0
M  V30 6559 H 632.83 3.03791 3.63329 0
M  V30 6560 H 633.254 5.65762 3.71809 0
M  V30 6561 H 637.896 2.80813 3.16076 0
M  V30 6562 H 635.614 7.23953 3.5905 0
M  V30 6563 H 639.2 4.90942 3.12197 0
M  V30 6564 H 638.08 7.09704 3.33602 0
M  V30 6565 N 635.583 -1.29855 0.893053 0
M  V30 6566 C 636.808 -2.00512 0.530066 0
M  V30 6567 C 637.233 -1.66446 -0.876199 0
M  V30 6568 O 636.591 -0.885446 -1.58207 0
M  V30 6569 C 636.639 -3.53308 0.721505 0
M  V30 6570 O 635.743 -4.11764 -0.228994 0
M  V30 6571 H 635.084 -0.630617 0.207891 0
M  V30 6572 H 637.614 -1.6551 1.20282 0
M  V30 6573 H 637.624 -4.03206 0.623599 0
M  V30 6574 H 636.299 -3.77439 1.74678 0
M  V30 6575 H 634.876 -3.72805 -0.0841034 0
M  V30 6576 N 637.061 -0.65484 -1.43351 0
M  V30 6577 C 638.289 -0.176685 -2.06144 0
M  V30 6578 C 638.704 1.15831 -1.49093 0
M  V30 6579 O 638.061 1.71542 -0.622868 0
M  V30 6580 C 638.112 -0.0813326 -3.61408 0
M  V30 6581 O 637.833 -1.36355 -4.1634 0
M  V30 6582 C 639.334 0.422706 -4.4128 0
M  V30 6583 H 636.554 -0.0906429 -0.66485 0
M  V30 6584 H 639.098 -0.895945 -1.83829 0
M  V30 6585 H 637.253 0.588496 -3.82904 0
M  V30 6586 H 637.667 -1.22381 -5.10023 0
M  V30 6587 H 639.141 0.438375 -5.50257 0
M  V30 6588 H 639.618 1.45432 -4.14423 0
M  V30 6589 H 640.224 -0.214687 -4.24758 0
M  V30 6590 N 638.539 1.52521 -0.396863 0
M  V30 6591 C 639.785 2.01971 0.183169 0
M  V30 6592 C 640.118 1.2825 1.45827 0
M  V30 6593 O 639.393 0.385179 1.90648 0
M  V30 6594 C 639.676 3.5736 0.443391 0
M  V30 6595 C 639.529 4.41743 -0.84753 0
M  V30 6596 C 640.848 4.22539 1.2308 0
M  V30 6597 H 637.967 0.734119 0.0650976 0
M  V30 6598 H 640.609 1.82519 -0.527918 0
M  V30 6599 H 638.759 3.74066 1.04914 0
M  V30 6600 H 640.431 4.36773 -1.48414 0
M  V30 6601 H 638.674 4.0845 -1.4612 0
M  V30 6602 H 639.345 5.48507 -0.620003 0
M  V30 6603 H 641.821 4.09857 0.718084 0
M  V30 6604 H 640.697 5.31227 1.38162 0
M  V30 6605 H 640.958 3.80675 2.24808 0
M  V30 6606 N 640.017 0.126909 1.57088 0
M  V30 6607 C 640.947 -0.816847 2.18746 0
M  V30 6608 C 641.928 -1.27161 1.12979 0
M  V30 6609 O 643.113 -1.33279 1.41246 0
M  V30 6610 C 640.243 -2.06398 2.79315 0
M  V30 6611 C 639.197 -1.74673 3.90735 0
M  V30 6612 C 638.523 -3.06482 4.38147 0
M  V30 6613 C 639.823 -1.0089 5.12463 0
M  V30 6614 H 641.517 -0.303032 2.97863 0
M  V30 6615 H 639.063 -0.144314 1.43275 0
M  V30 6616 H 641.016 -2.72885 3.2111 0
M  V30 6617 H 639.74 -2.60118 1.975 0
M  V30 6618 H 638.399 -1.10572 3.49527 0
M  V30 6619 H 638.047 -3.58152 3.5318 0
M  V30 6620 H 637.747 -2.86025 5.13287 0
M  V30 6621 H 639.271 -3.74073 4.82599 0
M  V30 6622 H 640.685 -1.57546 5.51228 0
M  V30 6623 H 639.082 -0.905006 5.93237 0
M  V30 6624 H 640.152 0.00297335 4.849 0
M  V30 6625 N 641.495 -1.56914 -0.146875 0
M  V30 6626 C 642.72 -1.87881 -0.878386 0
M  V30 6627 C 643.145 -0.715945 -1.73942 0
M  V30 6628 O 642.503 0.334447 -1.78189 0
M  V30 6629 C 642.551 -3.17431 -1.71084 0
M  V30 6630 O 641.655 -3.01374 -2.81509 0
M  V30 6631 H 640.996 -0.617289 -0.244644 0
M  V30 6632 H 643.526 -2.04136 -0.137654 0
M  V30 6633 H 643.536 -3.49455 -2.10582 0
M  V30 6634 H 642.211 -4.01671 -1.07856 0
M  V30 6635 H 640.788 -2.80758 -2.45416 0
M  V30 6636 N 642.974 0.416227 -1.52004 0
M  V30 6637 C 644.202 1.18573 -1.69553 0
M  V30 6638 C 644.617 1.84472 -0.401919 0
M  V30 6639 O 643.974 1.71593 0.621463 0
M  V30 6640 C 644.025 2.25413 -2.82615 0
M  V30 6641 O 643.746 1.62205 -4.06966 0
M  V30 6642 C 645.247 3.15297 -3.11613 0
M  V30 6643 H 642.467 0.356582 -0.56841 0
M  V30 6644 H 645.011 0.490618 -1.98528 0
M  V30 6645 H 643.166 2.90604 -2.56179 0
M  V30 6646 H 643.58 2.3298 -4.69916 0
M  V30 6647 H 645.054 3.86351 -3.94255 0
M  V30 6648 H 645.531 3.77264 -2.24874 0
M  V30 6649 H 646.137 2.55783 -3.39787 0
M  V30 6650 N 644.452 1.42507 0.673017 0
M  V30 6651 C 645.682 1.46261 1.45916 0
M  V30 6652 C 646.09 0.0729724 1.89059 0
M  V30 6653 O 645.433 -0.922987 1.58829 0
M  V30 6654 C 645.495 2.32853 2.73898 0
M  V30 6655 C 645.159 3.80699 2.52819 0
M  V30 6656 C 646.156 4.72307 2.17306 0
M  V30 6657 C 643.841 4.24983 2.67758 0
M  V30 6658 C 645.835 6.06192 1.97003 0
M  V30 6659 C 643.522 5.58927 2.4707 0
M  V30 6660 C 644.52 6.49348 2.11746 0
M  V30 6661 O 644.208 7.80817 1.91259 0
M  V30 6662 H 643.94 0.499561 0.455428 0
M  V30 6663 H 646.494 1.87697 0.834196 0
M  V30 6664 H 644.724 1.86268 3.38882 0
M  V30 6665 H 646.413 2.28041 3.35786 0
M  V30 6666 H 647.179 4.39378 2.05359 0
M  V30 6667 H 643.058 3.54893 2.94231 0
M  V30 6668 H 646.602 6.76731 1.69355 0
M  V30 6669 H 642.499 5.91429 2.58615 0
M  V30 6670 H 643.267 7.92194 2.05843 0
M  V30 6671 N 645.93 -0.909495 1.28709 0
M  V30 6672 C 646.88 -1.9991 1.09636 0
M  V30 6673 C 647.864 -1.60889 0.01872 0
M  V30 6674 O 649.056 -1.75374 0.239338 0
M  V30 6675 C 646.185 -3.34675 0.764702 0
M  V30 6676 C 645.271 -3.80085 1.8814 0
M  V30 6677 N 645.662 -3.97824 3.12361 0
M  V30 6678 C 643.96 -4.09278 1.77221 0
M  V30 6679 C 644.661 -4.35928 3.85151 0
M  V30 6680 N 643.637 -4.44426 3.13028 0
M  V30 6681 H 647.439 -2.11681 2.03883 0
M  V30 6682 H 644.953 -1.09763 1.1969 0
M  V30 6683 H 646.95 -4.12426 0.609132 0
M  V30 6684 H 645.61 -3.24255 -0.169952 0
M  V30 6685 H 646.621 -3.83626 3.47925 0
M  V30 6686 H 643.298 -4.0747 0.909621 0
M  V30 6687 H 644.688 -4.57581 4.92006 0
M  V30 6688 N 647.408 -1.11026 -1.11852 0
M  V30 6689 C 648.655 -0.85646 -1.83497 0
M  V30 6690 C 648.983 0.617938 -1.84423 0
M  V30 6691 O 648.238 1.47194 -1.28966 0
M  V30 6692 C 648.537 -1.35777 -3.30604 0
M  V30 6693 C 648.203 -2.84465 -3.49843 0
M  V30 6694 C 646.865 -3.25068 -3.54802 0
M  V30 6695 C 649.217 -3.80251 -3.56453 0
M  V30 6696 C 646.545 -4.60194 -3.63921 0
M  V30 6697 C 648.897 -5.15188 -3.67102 0
M  V30 6698 C 647.561 -5.55356 -3.70319 0
M  V30 6699 H 646.831 -0.313401 -0.671462 0
M  V30 6700 H 649.478 -1.38792 -1.31943 0
M  V30 6701 H 647.783 -0.746455 -3.84624 0
M  V30 6702 H 649.48 -1.13779 -3.8452 0
M  V30 6703 H 646.07 -2.52054 -3.46651 0
M  V30 6704 H 650.254 -3.49986 -3.51886 0
M  V30 6705 H 645.51 -4.90728 -3.64686 0
M  V30 6706 H 649.684 -5.89248 -3.71159 0
M  V30 6707 H 647.311 -6.60054 -3.77138 0
M  V30 6708 N 648.886 1.2938 -0.899927 0
M  V30 6709 C 650.134 1.95164 -0.524924 0
M  V30 6710 C 650.455 1.71292 0.931888 0
M  V30 6711 O 649.725 1.04481 1.65712 0
M  V30 6712 H 648.305 0.722133 -0.191135 0
M  V30 6713 H 650.967 1.57628 -1.14627 0
M  V30 6714 H 650.063 3.0397 -0.707711 0
M  V30 6715 N 650.364 0.662433 1.43002 0
M  V30 6716 C 651.612 0.179237 2.01304 0
M  V30 6717 C 651.933 -1.21428 1.52579 0
M  V30 6718 O 651.203 -1.81294 0.742252 0
M  V30 6719 H 649.783 0.0632725 0.744316 0
M  V30 6720 H 652.445 0.856169 1.75088 0
M  V30 6721 H 651.541 0.170957 3.11631 0
M  V30 6722 N 651.842 -1.52309 0.404946 0
M  V30 6723 C 652.79 -2.28452 -0.437321 0
M  V30 6724 C 653.784 -1.32975 -1.04948 0
M  V30 6725 O 654.99 -1.50451 -0.988159 0
M  V30 6726 H 651.365 -0.734824 -0.159805 0
M  V30 6727 H 653.336 -2.97542 0.22615 0
M  V30 6728 C 652.085 -3.11536 -1.54404 0
M  V30 6729 H 651.408 -3.84871 -1.08233 0
M  V30 6730 H 652.848 -3.67926 -2.10729 0
M  V30 6731 C 651.307 -2.24833 -2.50902 0
M  V30 6732 O 651.837 -1.88574 -3.54687 0
M  V30 6733 N 650.043 -1.88685 -2.21012 0
M  V30 6734 H 649.59 -2.18371 -1.36646 0
M  V30 6735 H 649.548 -1.30966 -2.85824 0
M  V30 6736 N 653.32 -0.135238 -1.57019 0
M  V30 6737 C 654.283 0.794707 -2.14981 0
M  V30 6738 C 655.283 1.18342 -1.08866 0
M  V30 6739 O 656.473 1.10627 -1.34563 0
M  V30 6740 C 653.605 2.07685 -2.70333 0
M  V30 6741 H 654.798 0.290696 -2.98488 0
M  V30 6742 H 652.351 0.114128 -1.55883 0
M  V30 6743 H 653.086 2.6248 -1.9046 0
M  V30 6744 H 652.871 1.80745 -3.47957 0
M  V30 6745 H 654.361 2.74127 -3.1503 0
M  V30 6746 N 654.798 1.5699 0.138552 0
M  V30 6747 C 656.023 1.88344 0.86841 0
M  V30 6748 C 656.448 0.725159 1.7356 0
M  V30 6749 O 655.806 -0.324992 1.78363 0
M  V30 6750 C 655.854 3.18334 1.69398 0
M  V30 6751 O 654.958 3.02863 2.79907 0
M  V30 6752 H 654.299 0.618577 0.241367 0
M  V30 6753 H 656.829 2.04207 0.126826 0
M  V30 6754 H 656.839 3.50567 2.08726 0
M  V30 6755 H 655.514 4.02238 1.05725 0
M  V30 6756 H 654.091 2.82056 2.43924 0
M  V30 6757 N 656.276 -0.40816 1.52223 0
M  V30 6758 C 657.239 -1.48 1.7501 0
M  V30 6759 C 658.239 -1.48367 0.619996 0
M  V30 6760 O 659.429 -1.49874 0.887881 0
M  V30 6761 C 656.561 -2.87403 1.83336 0
M  V30 6762 H 657.754 -1.29086 2.70697 0
M  V30 6763 H 655.307 -0.638715 1.42654 0
M  V30 6764 H 656.042 -3.11686 0.895677 0
M  V30 6765 H 655.827 -2.8854 2.65494 0
M  V30 6766 H 657.317 -3.65103 2.02705 0
M  V30 6767 N 657.755 -1.42862 -0.66545 0
M  V30 6768 C 658.718 -1.46756 -1.76055 0
M  V30 6769 C 659.718 -0.353866 -1.56858 0
M  V30 6770 O 660.908 -0.615099 -1.62979 0
M  V30 6771 C 658.04 -1.30829 -3.14796 0
M  V30 6772 H 659.233 -2.44271 -1.73987 0
M  V30 6773 H 656.786 -1.29447 -0.875965 0
M  V30 6774 H 657.521 -0.342733 -3.22484 0
M  V30 6775 H 657.306 -2.11551 -3.30134 0
M  V30 6776 H 658.796 -1.36458 -3.94676 0
M  V30 6777 N 659.233 0.902656 -1.29189 0
M  V30 6778 C 660.481 1.6496 -1.16758 0
M  V30 6779 C 660.802 1.92952 0.28188 0
M  V30 6780 O 660.072 1.55351 1.19344 0
M  V30 6781 H 658.652 0.611447 -0.429118 0
M  V30 6782 H 661.314 1.0825 -1.62074 0
M  V30 6783 H 660.41 2.60728 -1.71544 0
M  V30 6784 N 660.711 1.11618 1.11262 0
M  V30 6785 C 661.939 0.888739 1.8684 0
M  V30 6786 C 662.354 -0.561558 1.80255 0
M  V30 6787 O 661.711 -1.38782 1.18515 0
M  V30 6788 C 661.762 1.34422 3.35579 0
M  V30 6789 O 661.483 2.73766 3.42029 0
M  V30 6790 C 662.984 1.15246 4.28058 0
M  V30 6791 H 660.204 0.318152 0.590779 0
M  V30 6792 H 662.748 1.48398 1.40707 0
M  V30 6793 H 660.903 0.79239 3.7921 0
M  V30 6794 H 661.317 2.9355 4.34659 0
M  V30 6795 H 662.791 1.52015 5.30656 0
M  V30 6796 H 663.268 0.0922007 4.39103 0
M  V30 6797 H 663.874 1.69136 3.90222 0
M  V30 6798 N 662.189 -1.289 0.906776 0
M  V30 6799 C 663.6 -1.77336 0.58384 0
M  V30 6800 C 663.951 -1.74304 -0.900697 0
M  V30 6801 O 663.076 -1.33335 -1.70443 0
M  V30 6802 C 663.671 -3.22019 1.05304 0
M  V30 6803 C 662.23 -3.68205 0.781148 0
M  V30 6804 C 661.377 -2.48837 1.22373 0
M  V30 6805 H 664.328 -1.15462 1.08877 0
M  V30 6806 H 664.349 -3.78481 0.391414 0
M  V30 6807 H 663.861 -3.24194 2.13353 0
M  V30 6808 H 661.962 -3.71497 -0.28643 0
M  V30 6809 H 662.075 -4.58675 1.384 0
M  V30 6810 H 660.439 -2.46461 0.642594 0
M  V30 6811 H 661.222 -2.53736 2.31242 0
M  V30 6812 N 663.667 -0.670007 -1.42649 0
M  V30 6813 C 664.617 0.0339546 -2.27975 0
M  V30 6814 C 665.601 0.778295 -1.40824 0
M  V30 6815 O 666.793 0.657997 -1.64315 0
M  V30 6816 C 663.922 0.987899 -3.28779 0
M  V30 6817 C 663.008 0.241153 -4.23414 0
M  V30 6818 N 663.399 -0.751392 -5.00188 0
M  V30 6819 C 661.697 0.480269 -4.43407 0
M  V30 6820 C 662.398 -1.19615 -5.69269 0
M  V30 6821 N 661.374 -0.527045 -5.41039 0
M  V30 6822 H 665.176 -0.727425 -2.84756 0
M  V30 6823 H 662.69 -0.498673 -1.54554 0
M  V30 6824 H 664.687 1.50716 -3.88703 0
M  V30 6825 H 663.347 1.74916 -2.73559 0
M  V30 6826 H 664.358 -1.13075 -5.05405 0
M  V30 6827 H 661.035 1.2214 -3.99234 0
M  V30 6828 H 662.425 -2.01836 -6.40868 0
M  V30 6829 N 665.145 1.52092 -0.413018 0
M  V30 6830 C 666.095 2.23947 0.427993 0
M  V30 6831 C 667.079 1.25229 1.01027 0
M  V30 6832 O 668.271 1.50448 0.932444 0
M  V30 6833 C 665.4 3.0672 1.542 0
M  V30 6834 C 664.486 4.12851 0.970307 0
M  V30 6835 N 664.877 5.05644 0.125611 0
M  V30 6836 C 663.175 4.28404 1.24042 0
M  V30 6837 C 663.876 5.8138 -0.192876 0
M  V30 6838 N 662.852 5.41996 0.417273 0
M  V30 6839 H 666.654 2.93048 -0.223628 0
M  V30 6840 H 664.168 1.60852 -0.223664 0
M  V30 6841 H 666.165 3.56754 2.15714 0
M  V30 6842 H 664.825 2.39159 2.19621 0
M  V30 6843 H 665.836 5.17348 -0.238995 0
M  V30 6844 H 662.513 3.72071 1.89391 0
M  V30 6845 H 663.903 6.66129 -0.878762 0
M  V30 6846 N 666.623 0.143563 1.56945 0
M  V30 6847 C 667.869 -0.50916 1.96304 0
M  V30 6848 C 668.202 -1.64741 1.0283 0
M  V30 6849 O 667.477 -1.94374 0.0700361 0
M  V30 6850 C 667.76 -1.0186 3.45393 0
M  V30 6851 C 667.613 0.117923 4.49645 0
M  V30 6852 C 668.932 -1.90151 3.96901 0
M  V30 6853 H 666.051 -0.183608 0.713763 0
M  V30 6854 H 668.693 0.224095 1.88674 0
M  V30 6855 H 666.843 -1.64345 3.52027 0
M  V30 6856 H 668.515 0.754145 4.55094 0
M  V30 6857 H 666.758 0.777568 4.26774 0
M  V30 6858 H 667.429 -0.280187 5.51288 0
M  V30 6859 H 669.905 -1.375 3.92725 0
M  V30 6860 H 668.781 -2.22707 5.0169 0
M  V30 6861 H 669.042 -2.83718 3.39052 0
M  V30 6862 N 668.101 -1.57061 -0.130224 0
M  V30 6863 C 669.326 -1.88802 -0.858409 0
M  V30 6864 C 669.751 -0.734353 -1.73173 0
M  V30 6865 O 669.109 0.315529 -1.78533 0
M  V30 6866 C 669.157 -3.19228 -1.67708 0
M  V30 6867 O 668.261 -3.04343 -2.78297 0
M  V30 6868 H 667.602 -0.619849 -0.238083 0
M  V30 6869 H 670.132 -2.04271 -0.115995 0
M  V30 6870 H 670.142 -3.51669 -2.06864 0
M  V30 6871 H 668.817 -4.02793 -1.0359 0
M  V30 6872 H 667.394 -2.83346 -2.42425 0
M  V30 6873 N 669.579 0.400081 -1.52437 0
M  V30 6874 C 670.825 1.14788 -1.67187 0
M  V30 6875 C 671.158 1.89928 -0.405074 0
M  V30 6876 O 670.433 1.85118 0.596804 0
M  V30 6877 C 670.716 2.13507 -2.89977 0
M  V30 6878 C 670.569 1.42204 -4.2673 0
M  V30 6879 C 671.888 3.14069 -3.083 0
M  V30 6880 H 669.007 0.415939 -0.608411 0
M  V30 6881 H 671.649 0.432542 -1.85011 0
M  V30 6882 H 669.799 2.7451 -2.74912 0
M  V30 6883 H 671.471 0.842503 -4.53541 0
M  V30 6884 H 669.714 0.723939 -4.27717 0
M  V30 6885 H 670.385 2.14281 -5.08712 0
M  V30 6886 H 672.861 2.63148 -3.22323 0
M  V30 6887 H 671.737 3.80398 -3.95713 0
M  V30 6888 H 671.998 3.82309 -2.22018 0
M  V30 6889 N 671.057 1.43213 0.657864 0
M  V30 6890 C 672.004 1.48011 1.77092 0
M  V30 6891 C 672.974 0.330291 1.62783 0
M  V30 6892 O 674.159 0.536787 1.83094 0
M  V30 6893 C 671.299 1.40461 3.15222 0
M  V30 6894 C 670.412 2.65612 3.40697 0
M  V30 6895 C 669.547 2.50083 4.68649 0
M  V30 6896 C 668.586 3.70525 4.87214 0
M  V30 6897 N 667.723 3.53835 6.0642 0
M  V30 6898 H 672.563 2.43121 1.72326 0
M  V30 6899 H 670.1 1.20687 0.841013 0
M  V30 6900 H 672.058 1.34079 3.95068 0
M  V30 6901 H 670.688 0.489359 3.19069 0
M  V30 6902 H 669.74 2.82292 2.54982 0
M  V30 6903 H 671.052 3.5509 3.50303 0
M  V30 6904 H 670.206 2.41383 5.56614 0
M  V30 6905 H 668.945 1.58121 4.61356 0
M  V30 6906 H 667.95 3.79639 3.97686 0
M  V30 6907 H 669.175 4.63489 4.96341 0
M  V30 6908 H 667.121 2.64604 6.00267 0
M  V30 6909 H 667.038 4.36912 6.16963 0
M  V30 6910 H 668.306 3.48978 6.97019 0
M  V30 6911 N 672.536 -0.895792 1.29666 0
M  V30 6912 C 673.484 -2.02173 1.15017 0
M  V30 6913 C 674.478 -1.69276 0.0647651 0
M  V30 6914 O 675.684 -1.7859 0.224846 0
M  V30 6915 H 672.059 -0.662719 0.355397 0
M  V30 6916 H 674.03 -2.11666 2.10334 0
M  V30 6917 C 672.779 -3.37212 0.847555 0
M  V30 6918 H 672.102 -3.6303 1.67479 0
M  V30 6919 H 673.542 -4.16668 0.785106 0
M  V30 6920 C 672.001 -3.33891 -0.44929 0
M  V30 6921 O 672.531 -3.73673 -1.47415 0
M  V30 6922 N 670.737 -2.86991 -0.456547 0
M  V30 6923 H 670.284 -2.54813 0.377925 0
M  V30 6924 H 670.242 -2.85152 -1.32423 0
M  V30 6925 N 674.014 -1.12206 -1.10668 0
M  V30 6926 C 674.964 -0.75669 -2.15077 0
M  V30 6927 C 675.948 0.243154 -1.59052 0
M  V30 6928 O 677.14 0.0490268 -1.76932 0
M  V30 6929 C 674.269 -0.210303 -3.42655 0
M  V30 6930 C 673.355 -1.23829 -4.05619 0
M  V30 6931 N 673.746 -2.43513 -4.43323 0
M  V30 6932 C 672.044 -1.08309 -4.32649 0
M  V30 6933 C 672.745 -3.09138 -4.92756 0
M  V30 6934 N 671.721 -2.36593 -4.89413 0
M  V30 6935 H 675.523 -1.66747 -2.42018 0
M  V30 6936 H 673.037 -1.00248 -1.27765 0
M  V30 6937 H 675.034 0.0696287 -4.16842 0
M  V30 6938 H 673.694 0.694967 -3.17176 0
M  V30 6939 H 674.705 -2.80912 -4.35097 0
M  V30 6940 H 671.382 -0.234919 -4.16839 0
M  V30 6941 H 672.772 -4.11049 -5.31496 0
M  V30 6942 N 675.492 1.28418 -0.913599 0
M  V30 6943 C 676.717 1.99643 -0.561899 0
M  V30 6944 C 677.142 1.67819 0.849608 0
M  V30 6945 O 676.5 0.910503 1.56779 0
M  V30 6946 C 676.548 3.52116 -0.777622 0
M  V30 6947 O 675.652 4.12076 0.163457 0
M  V30 6948 H 674.993 0.627229 -0.217898 0
M  V30 6949 H 677.523 1.63575 -1.229 0
M  V30 6950 H 677.533 4.02163 -0.687666 0
M  V30 6951 H 676.208 3.74613 -1.8066 0
M  V30 6952 H 674.785 3.72892 0.0247827 0
M  V30 6953 N 676.97 0.677563 1.42291 0
M  V30 6954 C 677.9 0.014968 2.33495 0
M  V30 6955 C 678.881 -0.786376 1.50831 0
M  V30 6956 O 680.066 -0.742975 1.79426 0
M  V30 6957 C 677.196 -0.935023 3.34477 0
M  V30 6958 C 676.15 -0.242074 4.27315 0
M  V30 6959 C 675.476 -1.30519 5.18526 0
M  V30 6960 C 676.776 0.880604 5.14823 0
M  V30 6961 H 678.47 0.776671 2.89151 0
M  V30 6962 H 676.016 0.37494 1.39033 0
M  V30 6963 H 677.969 -1.40766 3.97194 0
M  V30 6964 H 676.693 -1.72818 2.77131 0
M  V30 6965 H 675.352 0.210351 3.65996 0
M  V30 6966 H 675 -2.09041 4.57505 0
M  V30 6967 H 674.7 -0.846652 5.81468 0
M  V30 6968 H 676.224 -1.7787 5.84119 0
M  V30 6969 H 677.638 0.489062 5.7121 0
M  V30 6970 H 676.035 1.26511 5.86613 0
M  V30 6971 H 677.105 1.72818 4.53059 0
M  V30 6972 N 678.448 -1.51871 0.421078 0
M  V30 6973 C 679.725 -1.9447 -0.20993 0
M  V30 6974 C 680.105 -1.35875 -1.61558 0
M  V30 6975 O 679.453 -0.539294 -2.22045 0
M  V30 6976 C 679.663 -3.48402 -0.204165 0
M  V30 6977 C 681.011 -4.2254 -0.417696 0
M  V30 6978 O 682.035 -3.55074 -0.282999 0
M  V30 6979 O 680.894 -5.422 -0.684239 0
M  V30 6980 H 677.988 -0.815283 -0.138718 0
M  V30 6981 H 680.534 -1.62832 0.477884 0
M  V30 6982 H 679.306 -3.83464 0.779183 0
M  V30 6983 H 678.929 -3.86436 -0.935576 0
M  V30 6984 N 679.926 -0.151884 -1.56866 0
M  V30 6985 C 681.151 0.508044 -2.01081 0
M  V30 6986 C 681.576 1.57306 -1.03134 0
M  V30 6987 O 680.934 1.81298 -0.0078309 0
M  V30 6988 C 680.982 1.08106 -3.44014 0
M  V30 6989 O 680.086 2.19577 -3.49084 0
M  V30 6990 H 679.427 0.123757 -0.652365 0
M  V30 6991 H 681.957 -0.250055 -2.03066 0
M  V30 6992 H 681.967 1.40851 -3.82916 0
M  V30 6993 H 680.642 0.301168 -4.14808 0
M  V30 6994 H 679.219 1.88023 -3.22027 0
M  V30 6995 N 681.404 1.57128 0.121893 0
M  V30 6996 C 682.65 1.84974 0.831418 0
M  V30 6997 C 682.983 0.737204 1.79663 0
M  V30 6998 O 682.258 -0.257199 1.92792 0
M  V30 6999 C 682.541 3.23397 1.58386 0
M  V30 7000 C 682.394 4.45246 0.638445 0
M  V30 7001 C 683.713 3.59355 2.54071 0
M  V30 7002 H 680.832 0.67282 0.300803 0
M  V30 7003 H 683.474 1.89759 0.0957587 0
M  V30 7004 H 681.624 3.19449 2.21098 0
M  V30 7005 H 683.296 4.61295 0.0203925 0
M  V30 7006 H 681.539 4.33771 -0.05023 0
M  V30 7007 H 682.21 5.38765 1.20151 0
M  V30 7008 H 684.686 3.64075 2.01465 0
M  V30 7009 H 683.562 4.57193 3.03752 0
M  V30 7010 H 683.823 2.86622 3.36601 0
M  V30 7011 N 682.882 -0.391992 1.52647 0
M  V30 7012 C 684.107 -1.16312 1.71716 0
M  V30 7013 C 684.532 -1.83042 0.433279 0
M  V30 7014 O 683.89 -1.70705 -0.610707 0
M  V30 7015 C 683.938 -2.18908 2.86551 0
M  V30 7016 O 683.042 -3.2543 2.53316 0
M  V30 7017 H 682.383 -0.338743 0.571095 0
M  V30 7018 H 684.913 -0.457202 1.99426 0
M  V30 7019 H 684.923 -2.62954 3.1196 0
M  V30 7020 H 683.598 -1.69726 3.79692 0
M  V30 7021 H 682.175 -2.86543 2.38637 0
M  V30 7022 N 684.36 -1.4356 -0.65026 0
M  V30 7023 C 685.606 -1.45549 -1.41221 0
M  V30 7024 C 685.939 -0.0805472 -1.94033 0
M  V30 7025 O 685.214 0.899043 -1.72475 0
M  V30 7026 C 685.497 -2.50028 -2.59148 0
M  V30 7027 C 685.35 -3.96808 -2.1181 0
M  V30 7028 C 686.669 -2.51212 -3.61359 0
M  V30 7029 H 683.788 -0.529967 -0.512156 0
M  V30 7030 H 686.43 -1.75127 -0.736933 0
M  V30 7031 H 684.58 -2.24937 -3.16758 0
M  V30 7032 H 686.252 -4.32966 -1.59178 0
M  V30 7033 H 684.495 -4.09498 -1.43156 0
M  V30 7034 H 685.166 -4.6553 -2.96625 0
M  V30 7035 H 687.642 -2.73583 -3.13515 0
M  V30 7036 H 686.518 -3.26252 -4.41419 0
M  V30 7037 H 686.779 -1.54701 -4.1415 0
M  V30 7038 N 685.838 0.888903 -1.30139 0
M  V30 7039 C 687.115 1.62145 -1.094 0
M  V30 7040 C 687.495 2.08041 0.358091 0
M  V30 7041 O 686.843 1.84438 1.34888 0
M  V30 7042 C 687.053 2.794 -2.09133 0
M  V30 7043 C 688.401 3.49826 -2.40638 0
M  V30 7044 O 689.425 2.89583 -2.07412 0
M  V30 7045 O 688.284 4.58457 -2.97455 0
M  V30 7046 H 685.378 0.712475 -0.41989 0
M  V30 7047 H 687.924 0.936023 -1.41551 0
M  V30 7048 H 686.696 2.42762 -3.06891 0
M  V30 7049 H 686.319 3.55643 -1.77776 0
M  V30 7050 N 687.317 1.12792 1.10072 0
M  V30 7051 C 688.563 0.89679 1.82563 0
M  V30 7052 C 688.918 -0.571152 1.83727 0
M  V30 7053 O 688.211 -1.41697 1.28967 0
M  V30 7054 C 688.405 1.4102 3.28403 0
M  V30 7055 C 688.234 2.92652 3.41445 0
M  V30 7056 C 687.004 3.60928 3.53637 0
M  V30 7057 C 689.202 3.9063 3.34534 0
M  V30 7058 N 687.184 5.00638 3.55295 0
M  V30 7059 C 688.555 5.16492 3.42981 0
M  V30 7060 C 690.61 3.82989 3.18157 0
M  V30 7061 C 689.313 6.35609 3.3674 0
M  V30 7062 C 691.339 5.01633 3.13239 0
M  V30 7063 C 690.701 6.26355 3.22272 0
M  V30 7064 H 686.8 0.381482 0.682638 0
M  V30 7065 H 689.384 1.43491 1.31599 0
M  V30 7066 H 687.555 0.899077 3.77851 0
M  V30 7067 H 689.287 1.12075 3.88872 0
M  V30 7068 H 686.042 3.11429 3.56803 0
M  V30 7069 H 686.466 5.73521 3.59725 0
M  V30 7070 H 691.108 2.87454 3.10049 0
M  V30 7071 H 688.826 7.31407 3.43613 0
M  V30 7072 H 692.412 4.97454 3.01713 0
M  V30 7073 H 691.292 7.1662 3.18473 0
M  V30 7074 N 688.795 -1.27931 0.920396 0
M  V30 7075 C 689.758 -2.25345 0.41858 0
M  V30 7076 C 690.758 -1.54116 -0.458798 0
M  V30 7077 O 691.948 -1.72235 -0.260912 0
M  V30 7078 C 689.08 -3.38556 -0.399104 0
M  V30 7079 H 690.273 -2.71251 1.27918 0
M  V30 7080 H 687.826 -1.39728 0.700406 0
M  V30 7081 H 688.561 -2.98021 -1.27882 0
M  V30 7082 H 688.346 -3.91426 0.229863 0
M  V30 7083 H 689.836 -4.10976 -0.740817 0
M  V30 7084 N 690.273 -0.685099 -1.4193 0
M  V30 7085 C 691.684 -0.287699 -1.8447 0
M  V30 7086 C 692.035 1.17215 -1.57338 0
M  V30 7087 O 691.16 1.89856 -1.03845 0
M  V30 7088 C 691.755 -0.515385 -3.34857 0
M  V30 7089 C 690.314 -0.172006 -3.76007 0
M  V30 7090 C 689.461 -0.802808 -2.65425 0
M  V30 7091 H 692.412 -0.88652 -1.3163 0
M  V30 7092 H 692.433 0.229251 -3.79809 0
M  V30 7093 H 691.945 -1.57796 -3.54573 0
M  V30 7094 H 690.046 0.886716 -3.61895 0
M  V30 7095 H 690.159 -0.619717 -4.75075 0
M  V30 7096 H 688.523 -0.233267 -2.5363 0
M  V30 7097 H 689.306 -1.86904 -2.87961 0
M  V30 7098 N 691.751 1.51645 -0.429126 0
M  V30 7099 C 692.976 2.06917 0.141399 0
M  V30 7100 C 693.401 1.29527 1.36398 0
M  V30 7101 O 692.759 0.33094 1.78254 0
M  V30 7102 C 692.807 3.57776 0.4504 0
M  V30 7103 O 691.911 3.82639 1.53821 0
M  V30 7104 H 691.252 0.663978 0.0054647 0
M  V30 7105 H 693.782 1.95355 -0.608093 0
M  V30 7106 H 693.792 4.01894 0.703249 0
M  V30 7107 H 692.467 4.13532 -0.443213 0
M  V30 7108 H 691.044 3.5039 1.27597 0
M  V30 7109 N 693.229 0.160201 1.56784 0
M  V30 7110 C 694.159 -0.770264 2.2043 0
M  V30 7111 C 695.14 -1.24736 1.15651 0
M  V30 7112 O 696.325 -1.30253 1.44041 0
M  V30 7113 C 693.455 -2.00427 2.83631 0
M  V30 7114 C 692.409 -1.66345 3.94352 0
M  V30 7115 C 691.735 -2.97119 4.4455 0
M  V30 7116 C 693.035 -0.899972 5.14488 0
M  V30 7117 H 694.729 -0.239783 2.98438 0
M  V30 7118 H 692.275 -0.113891 1.43549 0
M  V30 7119 H 694.228 -2.66012 3.26827 0
M  V30 7120 H 692.952 -2.5587 2.02973 0
M  V30 7121 H 691.611 -1.03133 3.51794 0
M  V30 7122 H 691.259 -3.5058 3.60698 0
M  V30 7123 H 690.959 -2.75073 5.19238 0
M  V30 7124 H 692.483 -3.63753 4.90425 0
M  V30 7125 H 693.897 -1.45818 5.54446 0
M  V30 7126 H 692.294 -0.778968 5.95023 0
M  V30 7127 H 693.364 0.105827 4.84785 0
M  V30 7128 N 694.707 -1.5719 -0.113559 0
M  V30 7129 C 695.637 -2.03772 -1.14013 0
M  V30 7130 C 696.618 -0.923176 -1.42869 0
M  V30 7131 O 697.803 -1.19325 -1.53216 0
M  V30 7132 C 694.933 -2.44663 -2.4649 0
M  V30 7133 C 693.887 -3.59612 -2.32085 0
M  V30 7134 C 693.213 -3.8642 -3.69573 0
M  V30 7135 C 694.513 -4.91149 -1.7768 0
M  V30 7136 H 696.207 -2.89785 -0.752665 0
M  V30 7137 H 693.753 -1.39412 -0.360609 0
M  V30 7138 H 695.706 -2.75857 -3.18561 0
M  V30 7139 H 694.43 -1.55628 -2.87137 0
M  V30 7140 H 693.089 -3.28636 -1.62461 0
M  V30 7141 H 692.737 -2.94581 -4.07715 0
M  V30 7142 H 692.437 -4.63797 -3.60786 0
M  V30 7143 H 693.961 -4.2007 -4.4314 0
M  V30 7144 H 695.375 -5.20843 -2.39574 0
M  V30 7145 H 693.772 -5.72562 -1.79701 0
M  V30 7146 H 694.842 -4.79301 -0.734776 0
M  V30 7147 N 696.185 0.383891 -1.52853 0
M  V30 7148 C 697.41 1.154 -1.7233 0
M  V30 7149 C 697.835 1.82809 -0.44298 0
M  V30 7150 O 697.193 1.71026 0.601645 0
M  V30 7151 C 697.241 2.17386 -2.87708 0
M  V30 7152 O 696.345 3.24082 -2.55038 0
M  V30 7153 H 695.686 0.335709 -0.572883 0
M  V30 7154 H 698.216 0.44662 -1.99666 0
M  V30 7155 H 698.226 2.61296 -3.1335 0
M  V30 7156 H 696.901 1.6771 -3.80587 0
M  V30 7157 H 695.478 2.85273 -2.40153 0
M  V30 7158 N 697.663 1.43903 0.642637 0
M  V30 7159 C 698.891 1.4954 1.42988 0
M  V30 7160 C 699.306 0.116588 1.8844 0
M  V30 7161 O 698.663 -0.875285 1.60141 0
M  V30 7162 C 698.714 2.45031 2.65785 0
M  V30 7163 O 698.435 3.77551 2.22232 0
M  V30 7164 C 699.936 2.60017 3.59035 0
M  V30 7165 H 697.156 0.507544 0.438907 0
M  V30 7166 H 699.7 1.88752 0.786942 0
M  V30 7167 H 697.855 2.08985 3.26196 0
M  V30 7168 H 698.269 4.29001 3.01759 0
M  V30 7169 H 699.743 3.30887 4.41835 0
M  V30 7170 H 700.22 1.64861 4.07084 0
M  V30 7171 H 700.826 2.96918 3.045 0
M  V30 7172 N 699.141 -0.881989 1.30609 0
M  V30 7173 C 700.381 -1.64817 1.20891 0
M  V30 7174 C 700.745 -1.90593 -0.232043 0
M  V30 7175 O 701.946 -2.64964 -0.452516 0
M  V30 7176 C 700.217 -2.95006 2.01758 0
M  V30 7177 S 701.776 -3.85953 2.08771 0
M  V30 7178 H 698.594 -0.565651 0.430767 0
M  V30 7179 H 701.196 -1.04665 1.65122 0
M  V30 7180 H 699.9 -2.73973 3.0556 0
M  V30 7181 H 699.431 -3.60189 1.582 0
M  V30 7182 H 701.446 -4.81037 1.21727 0
M  V30 7183 N 700.619 -1.13374 -1.09472 0
M  V30 7184 C 702.03 -0.90801 -1.63132 0
M  V30 7185 C 702.381 0.555576 -1.8817 0
M  V30 7186 O 701.506 1.42218 -1.63104 0
M  V30 7187 C 702.101 -1.64182 -2.96361 0
M  V30 7188 C 700.66 -1.46197 -3.46848 0
M  V30 7189 C 699.807 -1.67134 -2.21273 0
M  V30 7190 H 702.758 -1.2871 -0.928411 0
M  V30 7191 H 702.779 -1.09863 -3.64294 0
M  V30 7192 H 702.291 -2.707 -2.78106 0
M  V30 7193 H 700.392 -0.419788 -3.70228 0
M  V30 7194 H 700.505 -2.22472 -4.24315 0
M  V30 7195 H 698.869 -1.09616 -2.29905 0
M  V30 7196 H 699.652 -2.74971 -2.05538 0
M  V30 7197 N 702.098 1.27442 -0.927168 0
M  V30 7198 C 703.346 1.94007 -0.566203 0
M  V30 7199 C 703.667 1.7323 0.895345 0
M  V30 7200 O 702.937 1.07973 1.63459 0
M  V30 7201 H 701.517 0.717917 -0.206409 0
M  V30 7202 H 704.179 1.55161 -1.17945 0
M  V30 7203 H 703.275 3.02401 -0.772028 0
M  V30 7204 N 703.576 0.692616 1.41565 0
M  V30 7205 C 704.822 0.222664 2.01574 0
M  V30 7206 C 705.155 -1.1737 1.54719 0
M  V30 7207 O 704.43 -1.79161 0.757084 0
M  V30 7208 C 704.713 0.277064 3.59033 0
M  V30 7209 C 704.566 1.71016 4.16021 0
M  V30 7210 C 705.885 -0.36479 4.38586 0
M  V30 7211 H 703.004 0.0823839 0.732381 0
M  V30 7212 H 705.646 0.880778 1.68352 0
M  V30 7213 H 703.796 -0.283288 3.87466 0
M  V30 7214 H 705.468 2.32413 3.98475 0
M  V30 7215 H 703.711 2.24525 3.71175 0
M  V30 7216 H 704.382 1.69978 5.25178 0
M  V30 7217 H 706.858 0.112404 4.15948 0
M  V30 7218 H 705.734 -0.296169 5.481 0
M  V30 7219 H 705.995 -1.44506 4.17816 0
M  V30 7220 N 705.054 -1.51416 0.437162 0
M  V30 7221 C 705.984 -2.30631 -0.364922 0
M  V30 7222 C 706.965 -1.36037 -1.02118 0
M  V30 7223 O 708.15 -1.64956 -1.02485 0
M  V30 7224 C 705.28 -3.1482 -1.46648 0
M  V30 7225 C 704.234 -4.17691 -0.933717 0
M  V30 7226 C 703.56 -4.904 -2.13101 0
M  V30 7227 C 704.86 -5.2229 0.0317201 0
M  V30 7228 H 706.554 -2.97932 0.29614 0
M  V30 7229 H 704.1 -1.4328 0.143865 0
M  V30 7230 H 706.053 -3.69017 -2.03481 0
M  V30 7231 H 704.777 -2.4534 -2.15583 0
M  V30 7232 H 703.436 -3.64545 -0.387602 0
M  V30 7233 H 703.084 -4.17423 -2.80654 0
M  V30 7234 H 702.784 -5.59962 -1.78092 0
M  V30 7235 H 704.308 -5.4742 -2.70487 0
M  V30 7236 H 705.722 -5.7156 -0.446302 0
M  V30 7237 H 704.119 -5.99378 0.29437 0
M  V30 7238 H 705.189 -4.75131 0.968447 0
M  V30 7239 N 706.532 -0.168513 -1.56696 0
M  V30 7240 C 707.479 0.762875 -2.17828 0
M  V30 7241 C 708.449 1.22892 -1.11745 0
M  V30 7242 O 709.634 1.29759 -1.39883 0
M  V30 7243 C 706.774 1.9879 -2.82093 0
M  V30 7244 C 705.887 1.56568 -4.02629 0
M  V30 7245 C 705.022 2.74416 -4.54829 0
M  V30 7246 C 704.061 2.28671 -5.67782 0
M  V30 7247 N 703.198 3.39602 -6.14504 0
M  V30 7248 H 708.038 0.23479 -2.97074 0
M  V30 7249 H 705.575 0.104163 -1.46731 0
M  V30 7250 H 707.533 2.70636 -3.17509 0
M  V30 7251 H 706.163 2.48973 -2.05456 0
M  V30 7252 H 705.215 0.744067 -3.73052 0
M  V30 7253 H 706.527 1.18988 -4.844 0
M  V30 7254 H 705.681 3.54423 -4.92412 0
M  V30 7255 H 704.42 3.15254 -3.7211 0
M  V30 7256 H 703.425 1.4711 -5.29753 0
M  V30 7257 H 704.65 1.88894 -6.52301 0
M  V30 7258 H 702.596 3.80021 -5.34715 0
M  V30 7259 H 702.513 3.06105 -6.91257 0
M  V30 7260 H 703.781 4.19902 -6.56737 0
M  V30 7261 N 708.01 1.57248 0.105221 0
M  V30 7262 C 708.92 2.04653 1.14693 0
M  V30 7263 C 709.936 0.969488 1.44489 0
M  V30 7264 O 711.112 1.28196 1.55331 0
M  V30 7265 C 708.177 2.45297 2.45011 0
M  V30 7266 C 707.238 3.67148 2.22489 0
M  V30 7267 C 706.471 4.05844 3.46592 0
M  V30 7268 O 706.694 3.44736 4.54437 0
M  V30 7269 O 705.628 4.98862 3.36779 0
M  V30 7270 H 709.454 2.93663 0.774336 0
M  V30 7271 H 707.039 1.45998 0.31701 0
M  V30 7272 H 708.921 2.72112 3.21766 0
M  V30 7273 H 707.596 1.59429 2.81717 0
M  V30 7274 H 706.503 3.45463 1.43547 0
M  V30 7275 H 707.836 4.53764 1.9068 0
M  V30 7276 N 709.488 -0.375779 1.53054 0
M  V30 7277 C 710.718 -1.1387 1.72386 0
M  V30 7278 C 711.126 -1.8382 0.447966 0
M  V30 7279 O 710.469 -1.74027 -0.588244 0
M  V30 7280 C 710.531 -2.22047 2.82728 0
M  V30 7281 C 710.195 -1.71951 4.23417 0
M  V30 7282 C 711.192 -1.18909 5.06119 0
M  V30 7283 C 708.877 -1.77773 4.69789 0
M  V30 7284 C 710.871 -0.723529 6.3328 0
M  V30 7285 C 708.558 -1.30829 5.96931 0
M  V30 7286 C 709.556 -0.782077 6.78508 0
M  V30 7287 O 709.244 -0.319529 8.03265 0
M  V30 7288 H 708.976 -0.346835 0.580242 0
M  V30 7289 H 711.53 -0.443748 2.00549 0
M  V30 7290 H 709.76 -2.95006 2.50017 0
M  V30 7291 H 711.449 -2.83654 2.90336 0
M  V30 7292 H 712.215 -1.13758 4.7147 0
M  V30 7293 H 708.094 -2.17673 4.06373 0
M  V30 7294 H 711.638 -0.312126 6.96901 0
M  V30 7295 H 707.535 -1.3567 6.31081 0
M  V30 7296 H 708.303 -0.439796 8.17318 0
M  V30 7297 N 710.966 -1.44241 -0.634997 0
M  V30 7298 C 712.212 -1.47038 -1.39669 0
M  V30 7299 C 712.545 -0.101122 -1.93937 0
M  V30 7300 O 711.82 0.880699 -1.73418 0
M  V30 7301 C 712.103 -2.52763 -2.56482 0
M  V30 7302 C 711.956 -3.99032 -2.07589 0
M  V30 7303 C 713.275 -2.55031 -3.58674 0
M  V30 7304 H 710.394 -0.53537 -0.506506 0
M  V30 7305 H 713.036 -1.75898 -0.718317 0
M  V30 7306 H 711.186 -2.28284 -3.14354 0
M  V30 7307 H 712.858 -4.3463 -1.54577 0
M  V30 7308 H 711.101 -4.10994 -1.38804 0
M  V30 7309 H 711.772 -4.68649 -2.91671 0
M  V30 7310 H 714.248 -2.76893 -3.10595 0
M  V30 7311 H 713.124 -3.30916 -4.37934 0
M  V30 7312 H 713.385 -1.59085 -4.12486 0
M  V30 7313 N 712.444 0.87505 -1.31075 0
M  V30 7314 C 713.69 1.63009 -1.20647 0
M  V30 7315 C 714.023 1.9276 0.236045 0
M  V30 7316 O 713.298 1.55559 1.16754 0
M  V30 7317 C 713.581 2.96357 -2.0456 0
M  V30 7318 C 713.434 2.73516 -3.57084 0
M  V30 7319 C 714.753 3.974 -1.89107 0
M  V30 7320 H 711.872 0.591518 -0.439631 0
M  V30 7321 H 714.514 1.0119 -1.60812 0
M  V30 7322 H 712.664 3.49119 -1.70435 0
M  V30 7323 H 714.336 2.27465 -4.01319 0
M  V30 7324 H 712.579 2.0784 -3.80769 0
M  V30 7325 H 713.25 3.68377 -4.11099 0
M  V30 7326 H 715.726 3.5383 -2.18961 0
M  V30 7327 H 714.602 4.88596 -2.5013 0
M  V30 7328 H 714.863 4.33794 -0.85296 0
M  V30 7329 N 713.922 1.13953 1.08869 0
M  V30 7330 C 715.338 0.878924 1.33218 0
M  V30 7331 C 715.538 -0.482478 1.95638 0
M  V30 7332 O 714.594 -1.22778 2.2064 0
M  V30 7333 C 715.907 2.00798 2.23832 0
M  V30 7334 C 717.455 2.04073 2.37325 0
M  V30 7335 C 717.93 3.16258 3.31278 0
M  V30 7336 N 719.421 3.15805 3.38853 0
M  V30 7337 C 720.156 3.99249 4.11567 0
M  V30 7338 N 719.652 4.92721 4.87029 0
M  V30 7339 N 721.445 3.87327 4.0735 0
M  V30 7340 H 713.596 2.01645 0.66731 0
M  V30 7341 H 715.859 0.878395 0.356547 0
M  V30 7342 H 715.565 2.98986 1.85203 0
M  V30 7343 H 715.439 1.92704 3.24261 0
M  V30 7344 H 717.826 1.06495 2.75214 0
M  V30 7345 H 717.907 2.16239 1.36654 0
M  V30 7346 H 717.551 4.14079 2.9411 0
M  V30 7347 H 717.481 3.0133 4.31866 0
M  V30 7348 H 719.972 2.48102 2.8505 0
M  V30 7349 H 720.285 5.52867 5.39961 0
M  V30 7350 H 718.63 4.96723 4.86098 0
M  V30 7351 H 721.821 3.13627 3.475 0
M  V30 7352 H 721.994 4.52585 4.63757 0
M  V30 7353 N 715.4 -1.26948 0.933913 0
M  V30 7354 C 716.64 -1.9585 0.585003 0
M  V30 7355 C 717.004 -1.71722 -0.858802 0
M  V30 7356 O 718.205 -2.34366 -1.31629 0
M  V30 7357 C 716.476 -3.45638 0.909352 0
M  V30 7358 S 718.035 -4.33656 0.669892 0
M  V30 7359 H 714.853 -0.677485 0.215721 0
M  V30 7360 H 717.455 -1.54051 1.20368 0
M  V30 7361 H 716.159 -3.60697 1.9577 0
M  V30 7362 H 715.69 -3.92401 0.280115 0
M  V30 7363 H 717.705 -4.93975 -0.469378 0
M  V30 7364 N 716.879 -0.700114 -1.41195 0
M  V30 7365 C 718.295 -0.372114 -1.55201 0
M  V30 7366 C 718.495 1.12053 -1.6747 0
M  V30 7367 O 717.551 1.90642 -1.65566 0
M  V30 7368 C 718.864 -1.12462 -2.78878 0
M  V30 7369 C 720.412 -1.10941 -2.92679 0
M  V30 7370 C 720.887 -1.84376 -4.19249 0
M  V30 7371 N 722.378 -1.81368 -4.26216 0
M  V30 7372 C 723.113 -2.35024 -5.23021 0
M  V30 7373 N 722.609 -2.9717 -6.25829 0
M  V30 7374 N 724.402 -2.25254 -5.14992 0
M  V30 7375 H 716.553 -1.66816 -1.31477 0
M  V30 7376 H 718.816 -0.704223 -0.634644 0
M  V30 7377 H 718.522 -2.17937 -2.76037 0
M  V30 7378 H 718.396 -0.706152 -3.70531 0
M  V30 7379 H 720.783 -0.062911 -2.95033 0
M  V30 7380 H 720.864 -1.56698 -2.02187 0
M  V30 7381 H 720.508 -2.89008 -4.17656 0
M  V30 7382 H 720.438 -1.3605 -5.08722 0
M  V30 7383 H 722.929 -1.36062 -3.52556 0
M  V30 7384 H 723.242 -3.35668 -6.96094 0
M  V30 7385 H 721.587 -3.01249 -6.26318 0
M  V30 7386 H 724.778 -1.76372 -4.33602 0
M  V30 7387 H 724.951 -2.67373 -5.90268 0
M  V30 7388 N 718.357 1.51182 -0.445186 0
M  V30 7389 C 719.634 1.9478 0.178965 0
M  V30 7390 C 720.014 1.38428 1.59376 0
M  V30 7391 O 719.362 0.574552 2.21159 0
M  V30 7392 C 719.572 3.48683 0.148711 0
M  V30 7393 C 720.92 4.23152 0.35042 0
M  V30 7394 O 721.944 3.55479 0.226474 0
M  V30 7395 O 720.803 5.4322 0.597893 0
M  V30 7396 H 717.897 0.817387 0.12573 0
M  V30 7397 H 720.443 1.62051 -0.503729 0
M  V30 7398 H 719.215 3.82176 -0.84009 0
M  V30 7399 H 718.838 3.87875 0.873979 0
M  V30 7400 N 719.835 0.176821 1.56605 0
M  V30 7401 C 720.745 -0.763682 2.21822 0
M  V30 7402 C 721.761 -1.24889 1.21156 0
M  V30 7403 O 722.937 -1.29987 1.53836 0
M  V30 7404 C 720.002 -1.97352 2.8505 0
M  V30 7405 C 719.063 -1.53466 4.00932 0
M  V30 7406 C 718.296 -2.68682 4.61135 0
M  V30 7407 O 718.519 -3.85694 4.20234 0
M  V30 7408 O 717.453 -2.42442 5.50913 0
M  V30 7409 H 721.279 -0.238363 3.02763 0
M  V30 7410 H 718.864 -0.0516331 1.49311 0
M  V30 7411 H 720.746 -2.68096 3.25119 0
M  V30 7412 H 719.421 -2.48779 2.07101 0
M  V30 7413 H 718.328 -0.796551 3.65521 0
M  V30 7414 H 719.661 -1.06724 4.8049 0
M  V30 7415 N 721.313 -1.57302 -0.09688 0
M  V30 7416 C 722.59 -1.7701 -0.832272 0
M  V30 7417 C 722.97 -0.758025 -1.97021 0
M  V30 7418 O 722.318 0.213824 -2.27497 0
M  V30 7419 C 722.528 -3.22725 -1.32851 0
M  V30 7420 C 723.876 -3.85856 -1.772 0
M  V30 7421 O 724.9 -3.26464 -1.42478 0
M  V30 7422 O 723.759 -4.90295 -2.41398 0
M  V30 7423 H 720.853 -0.725558 -0.396856 0
M  V30 7424 H 723.399 -1.69516 -0.0789005 0
M  V30 7425 H 722.171 -3.87921 -0.51312 0
M  V30 7426 H 721.794 -3.34845 -2.14394 0
M  V30 7427 N 722.791 0.367657 -1.53252 0
M  V30 7428 C 724.016 1.13566 -1.73544 0
M  V30 7429 C 724.441 1.82329 -0.462344 0
M  V30 7430 O 723.799 1.71655 0.583472 0
M  V30 7431 C 723.847 2.14322 -2.89997 0
M  V30 7432 O 722.951 3.21359 -2.58461 0
M  V30 7433 H 722.292 0.329614 -0.576412 0
M  V30 7434 H 724.822 0.425417 -2.00128 0
M  V30 7435 H 724.832 2.57958 -3.16104 0
M  V30 7436 H 723.507 1.63664 -3.82344 0
M  V30 7437 H 722.084 2.8271 -2.43165 0
M  V30 7438 N 724.269 1.44576 0.627338 0
M  V30 7439 C 725.216 1.51734 1.73912 0
M  V30 7440 C 726.186 0.364745 1.62046 0
M  V30 7441 O 727.371 0.575503 1.81914 0
M  V30 7442 C 724.511 1.47116 3.12171 0
M  V30 7443 C 723.624 2.72778 3.34986 0
M  V30 7444 C 722.759 2.59968 4.63239 0
M  V30 7445 C 721.798 3.80776 4.79245 0
M  V30 7446 N 720.935 3.66618 5.98778 0
M  V30 7447 H 725.775 2.46722 1.6713 0
M  V30 7448 H 723.312 1.22444 0.815224 0
M  V30 7449 H 725.27 1.42429 3.92135 0
M  V30 7450 H 723.9 0.556928 3.17959 0
M  V30 7451 H 722.952 2.87637 2.48936 0
M  V30 7452 H 724.264 3.62441 3.42692 0
M  V30 7453 H 723.418 2.53135 5.51369 0
M  V30 7454 H 722.157 1.67872 4.57898 0
M  V30 7455 H 721.162 3.87989 3.89544 0
M  V30 7456 H 722.387 4.73913 4.86398 0
M  V30 7457 H 720.333 2.77277 5.9452 0
M  V30 7458 H 720.25 4.499 6.07557 0
M  V30 7459 H 721.518 3.63684 6.89459 0
M  V30 7460 N 725.747 -0.868086 1.31537 0
M  V30 7461 C 726.679 -1.98165 1.15166 0
M  V30 7462 C 727.692 -1.6255 0.0902335 0
M  V30 7463 O 728.881 -1.75272 0.33791 0
M  V30 7464 C 725.981 -3.30772 0.737776 0
M  V30 7465 C 725.154 -3.94716 1.88462 0
M  V30 7466 C 724.213 -5.05641 1.45648 0
M  V30 7467 O 723.239 -5.2636 2.16642 0
M  V30 7468 N 724.441 -5.79474 0.34493 0
M  V30 7469 H 727.206 -2.12754 2.11083 0
M  V30 7470 H 724.767 -1.04217 1.23897 0
M  V30 7471 H 726.759 -4.02366 0.434032 0
M  V30 7472 H 725.329 -3.1233 -0.129834 0
M  V30 7473 H 724.549 -3.16079 2.35558 0
M  V30 7474 H 725.837 -4.34175 2.65273 0
M  V30 7475 H 725.235 -5.65164 -0.246259 0
M  V30 7476 H 723.792 -6.51722 0.100728 0
M  V30 7477 N 727.225 -1.14528 -1.08264 0
M  V30 7478 C 728.471 -0.91576 -1.80947 0
M  V30 7479 C 728.804 0.55623 -1.86064 0
M  V30 7480 O 728.079 1.41207 -1.33756 0
M  V30 7481 C 728.362 -1.51917 -3.26486 0
M  V30 7482 C 728.215 -3.06111 -3.2957 0
M  V30 7483 C 729.534 -1.19724 -4.23502 0
M  V30 7484 H 726.653 -0.334113 -0.656915 0
M  V30 7485 H 729.295 -1.41547 -1.26746 0
M  V30 7486 H 727.445 -1.0942 -3.72773 0
M  V30 7487 H 729.117 -3.57448 -2.91597 0
M  V30 7488 H 727.36 -3.40483 -2.688 0
M  V30 7489 H 728.031 -3.43438 -4.32151 0
M  V30 7490 H 730.507 -1.56467 -3.85561 0
M  V30 7491 H 729.383 -1.64575 -5.23647 0
M  V30 7492 H 729.644 -0.112771 -4.41956 0
M  V30 7493 N 728.703 1.26451 -0.940633 0
M  V30 7494 C 729.928 1.98407 -0.60412 0
M  V30 7495 C 730.353 1.69584 0.81382 0
M  V30 7496 O 729.711 0.943553 1.54812 0
M  V30 7497 C 729.759 3.50387 -0.852136 0
M  V30 7498 O 728.863 4.1233 0.076013 0
M  V30 7499 H 728.204 0.622466 -0.231153 0
M  V30 7500 H 730.734 1.60932 -1.26342 0
M  V30 7501 H 730.744 4.00614 -0.772816 0
M  V30 7502 H 729.419 3.70696 -1.88566 0
M  V30 7503 H 727.996 3.7286 -0.0543187 0
M  V30 7504 N 730.181 0.707592 1.40822 0
M  V30 7505 C 731.091 0.0507246 2.34545 0
M  V30 7506 C 732.107 -0.752727 1.56876 0
M  V30 7507 O 733.283 -0.687524 1.89302 0
M  V30 7508 C 730.348 -0.865731 3.35717 0
M  V30 7509 C 729.409 -0.0531313 4.29267 0
M  V30 7510 C 728.642 -0.925939 5.25606 0
M  V30 7511 O 728.865 -2.16531 5.27703 0
M  V30 7512 O 727.799 -0.369194 6.00767 0
M  V30 7513 H 731.625 0.823587 2.9232 0
M  V30 7514 H 729.21 0.46801 1.4188 0
M  V30 7515 H 731.092 -1.39091 3.97783 0
M  V30 7516 H 729.767 -1.61788 2.80368 0
M  V30 7517 H 728.674 0.516931 3.70511 0
M  V30 7518 H 730.007 0.660617 4.87747 0
M  V30 7519 N 731.66 -1.50943 0.453197 0
M  V30 7520 C 732.61 -2.25003 -0.368467 0
M  V30 7521 C 733.594 -1.27864 -0.976714 0
M  V30 7522 O 734.786 -1.52867 -0.892228 0
M  V30 7523 C 731.915 -3.10701 -1.46014 0
M  V30 7524 C 731.001 -4.15278 -0.860506 0
M  V30 7525 N 731.392 -5.05799 0.00849611 0
M  V30 7526 C 729.69 -4.31542 -1.1264 0
M  V30 7527 C 730.391 -5.80664 0.346951 0
M  V30 7528 N 729.367 -5.42912 -0.273426 0
M  V30 7529 H 733.169 -2.92352 0.301246 0
M  V30 7530 H 730.683 -1.60203 0.266233 0
M  V30 7531 H 732.68 -3.62348 -2.06179 0
M  V30 7532 H 731.34 -2.44898 -2.13202 0
M  V30 7533 H 732.351 -5.16533 0.376077 0
M  V30 7534 H 729.028 -3.76962 -1.7946 0
M  V30 7535 H 730.418 -6.63565 1.05507 0
M  V30 7536 N 733.138 -0.185124 -1.56509 0
M  V30 7537 C 734.549 0.329221 -1.83774 0
M  V30 7538 C 734.9 1.62093 -1.10545 0
M  V30 7539 O 734.025 2.13334 -0.36298 0
M  V30 7540 C 734.62 0.604099 -3.33371 0
M  V30 7541 C 733.179 1.06284 -3.61083 0
M  V30 7542 C 732.326 0.10608 -2.77097 0
M  V30 7543 H 735.277 -0.409116 -1.53336 0
M  V30 7544 H 735.298 1.45458 -3.51599 0
M  V30 7545 H 734.81 -0.336201 -3.86641 0
M  V30 7546 H 732.911 2.01777 -3.13236 0
M  V30 7547 H 733.024 0.962453 -4.69333 0
M  V30 7548 H 731.388 0.606082 -2.47384 0
M  V30 7549 H 732.171 -0.828486 -3.33153 0
M  V30 7550 N 734.616 1.57351 0.0885366 0
M  V30 7551 C 735.862 1.86696 0.791996 0
M  V30 7552 C 736.195 0.775148 1.78059 0
M  V30 7553 O 735.47 -0.216247 1.93294 0
M  V30 7554 C 735.753 3.26684 1.51491 0
M  V30 7555 C 735.606 4.465 0.543858 0
M  V30 7556 C 736.925 3.64664 2.46391 0
M  V30 7557 H 734.044 0.679049 0.286463 0
M  V30 7558 H 736.686 1.89919 0.0554866 0
M  V30 7559 H 734.836 3.24067 2.14273 0
M  V30 7560 H 736.508 4.61235 -0.0774597 0
M  V30 7561 H 734.751 4.33567 -0.142228 0
M  V30 7562 H 735.422 5.41192 1.08696 0
M  V30 7563 H 737.898 3.68267 1.93698 0
M  V30 7564 H 736.774 4.63534 2.93986 0
M  V30 7565 H 737.035 2.93698 3.30445 0
M  V30 7566 N 736.094 -0.359525 1.53444 0
M  V30 7567 C 737.026 -1.46098 1.76602 0
M  V30 7568 C 738.039 -1.49395 0.646912 0
M  V30 7569 O 739.228 -1.52765 0.923307 0
M  V30 7570 C 736.328 -2.84836 1.83635 0
M  V30 7571 C 735.501 -3.05164 3.13358 0
M  V30 7572 C 734.56 -4.24051 3.11556 0
M  V30 7573 O 733.586 -4.18935 3.85334 0
M  V30 7574 N 734.788 -5.31775 2.328 0
M  V30 7575 H 737.553 -1.2661 2.71643 0
M  V30 7576 H 735.114 -0.549294 1.52297 0
M  V30 7577 H 737.106 -3.62516 1.799 0
M  V30 7578 H 735.676 -2.97542 0.958509 0
M  V30 7579 H 734.896 -2.15091 3.30348 0
M  V30 7580 H 736.184 -3.15619 3.99076 0
M  V30 7581 H 735.582 -5.38796 1.7238 0
M  V30 7582 H 734.139 -6.0801 2.34877 0
M  V30 7583 N 737.572 -1.44907 -0.619662 0
M  V30 7584 C 738.983 -1.42905 -1.20146 0
M  V30 7585 C 739.334 -0.150341 -1.95623 0
M  V30 7586 O 738.459 0.748732 -2.03034 0
M  V30 7587 C 739.054 -2.58889 -2.18545 0
M  V30 7588 C 737.613 -2.60046 -2.72127 0
M  V30 7589 C 736.76 -2.3493 -1.4732 0
M  V30 7590 H 739.711 -1.53321 -0.409666 0
M  V30 7591 H 739.732 -2.32298 -3.0136 0
M  V30 7592 H 739.244 -3.51941 -1.63583 0
M  V30 7593 H 737.345 -1.70968 -3.3106 0
M  V30 7594 H 737.458 -3.58893 -3.17384 0
M  V30 7595 H 735.822 -1.84248 -1.75855 0
M  V30 7596 H 736.605 -3.3011 -0.942442 0
M  V30 7597 N 739.05 0.861098 -1.31996 0
M  V30 7598 C 740.278 1.6474 -1.25173 0
M  V30 7599 C 740.693 1.87926 0.181425 0
M  V30 7600 O 740.05 1.4437 1.1164 0
M  V30 7601 C 740.101 3.01036 -2.0015 0
M  V30 7602 O 739.822 2.7888 -3.37872 0
M  V30 7603 C 741.323 3.95481 -2.00273 0
M  V30 7604 H 738.543 0.513314 -0.432146 0
M  V30 7605 H 741.087 1.07419 -1.74016 0
M  V30 7606 H 739.242 3.55021 -1.55046 0
M  V30 7607 H 739.656 3.65514 -3.76165 0
M  V30 7608 H 741.13 4.88403 -2.57229 0
M  V30 7609 H 741.607 4.27957 -0.987407 0
M  V30 7610 H 742.213 3.47433 -2.45296 0
M  V30 7611 N 740.528 1.15101 1.07655 0
M  V30 7612 C 741.438 0.858869 2.18313 0
M  V30 7613 C 742.454 -0.163641 1.73229 0
M  V30 7614 O 743.63 0.00969541 2.01398 0
M  V30 7615 C 740.695 0.34893 3.4494 0
M  V30 7616 C 739.756 1.43495 4.04608 0
M  V30 7617 C 738.989 0.949253 5.2519 0
M  V30 7618 O 739.212 -0.20636 5.70027 0
M  V30 7619 O 738.146 1.73161 5.76454 0
M  V30 7620 H 741.972 1.78386 2.45788 0
M  V30 7621 H 739.557 0.929876 1.16934 0
M  V30 7622 H 741.439 0.070851 4.2134 0
M  V30 7623 H 740.114 -0.548237 3.19024 0
M  V30 7624 H 739.021 1.7666 3.29761 0
M  V30 7625 H 740.354 2.30692 4.3479 0
M  V30 7626 N 742.006 -1.2595 0.947325 0
M  V30 7627 C 743.234 -1.97544 0.615127 0
M  V30 7628 C 743.649 -1.70484 -0.811221 0
M  V30 7629 O 743.006 -0.97662 -1.5417 0
M  V30 7630 C 743.057 -3.51236 0.855328 0
M  V30 7631 O 742.778 -3.77359 2.22558 0
M  V30 7632 C 744.279 -4.40066 0.534515 0
M  V30 7633 H 741.499 -0.629888 0.231263 0
M  V30 7634 H 744.043 -1.60308 1.26971 0
M  V30 7635 H 742.198 -3.8661 0.247266 0
M  V30 7636 H 742.612 -4.71857 2.29022 0
M  V30 7637 H 744.086 -5.46838 0.753168 0
M  V30 7638 H 744.563 -4.35982 -0.530701 0
M  V30 7639 H 745.169 -4.10245 1.12158 0
M  V30 7640 N 743.484 -0.715051 -1.40445 0
M  V30 7641 C 744.416 -0.0227516 -2.29189 0
M  V30 7642 C 745.429 0.724313 -1.458 0
M  V30 7643 O 746.618 0.571781 -1.69094 0
M  V30 7644 C 743.718 0.992038 -3.24055 0
M  V30 7645 C 742.891 0.310613 -4.36296 0
M  V30 7646 C 741.95 1.23071 -5.11605 0
M  V30 7647 O 740.976 0.71571 -5.64682 0
M  V30 7648 N 742.178 2.56188 -5.2091 0
M  V30 7649 H 744.943 -0.78473 -2.89244 0
M  V30 7650 H 742.504 -0.562637 -1.51809 0
M  V30 7651 H 744.496 1.60973 -3.71308 0
M  V30 7652 H 743.066 1.65538 -2.65171 0
M  V30 7653 H 742.286 -0.487269 -3.91177 0
M  V30 7654 H 743.574 -0.162415 -5.08541 0
M  V30 7655 H 742.972 3.00527 -4.7927 0
M  V30 7656 H 741.529 3.13103 -5.71673 0
M  V30 7657 N 744.962 1.50701 -0.461195 0
M  V30 7658 C 746.208 2.02566 0.0973411 0
M  V30 7659 C 746.541 1.3432 1.40257 0
M  V30 7660 O 745.816 0.465692 1.88843 0
M  V30 7661 C 746.099 3.58919 0.291423 0
M  V30 7662 C 745.952 4.37751 -1.03413 0
M  V30 7663 C 747.271 4.27379 1.05048 0
M  V30 7664 H 744.39 0.73622 0.0339026 0
M  V30 7665 H 747.032 1.80115 -0.604855 0
M  V30 7666 H 745.182 3.78179 0.889539 0
M  V30 7667 H 746.854 4.30085 -1.66806 0
M  V30 7668 H 745.097 4.01885 -1.63313 0
M  V30 7669 H 745.768 5.45384 -0.852085 0
M  V30 7670 H 748.244 4.12534 0.543603 0
M  V30 7671 H 747.12 5.36609 1.15506 0
M  V30 7672 H 747.381 3.89868 2.0846 0
M  V30 7673 N 746.441 0.193421 1.56409 0
M  V30 7674 C 747.669 -0.451438 2.01915 0
M  V30 7675 C 748.084 -1.55306 1.07357 0
M  V30 7676 O 747.441 -1.82333 0.0781512 0
M  V30 7677 C 747.492 -1.00931 3.47124 0
M  V30 7678 O 747.213 0.0483623 4.38073 0
M  V30 7679 C 748.714 -1.73021 4.0814 0
M  V30 7680 H 745.934 -0.113495 0.661332 0
M  V30 7681 H 748.478 0.301636 2.02263 0
M  V30 7682 H 746.633 -1.71277 3.47481 0
M  V30 7683 H 747.047 -0.366644 5.23217 0
M  V30 7684 H 748.521 -2.07289 5.11601 0
M  V30 7685 H 748.998 -2.6333 3.51502 0
M  V30 7686 H 749.604 -1.07264 4.11551 0
M  V30 7687 N 747.919 -1.57396 -0.0801906 0
M  V30 7688 C 748.849 -2.06145 -1.09665 0
M  V30 7689 C 749.83 -0.953273 -1.40878 0
M  V30 7690 O 751.015 -1.22548 -1.50651 0
M  V30 7691 C 748.145 -2.49836 -2.41245 0
M  V30 7692 C 747.099 -3.64454 -2.24405 0
M  V30 7693 C 746.425 -3.94172 -3.61293 0
M  V30 7694 C 747.725 -4.94807 -1.67223 0
M  V30 7695 H 749.419 -2.91316 -0.691028 0
M  V30 7696 H 746.965 -1.40145 -0.330957 0
M  V30 7697 H 748.918 -2.82552 -3.12638 0
M  V30 7698 H 747.642 -1.61683 -2.83771 0
M  V30 7699 H 746.301 -3.32008 -1.55454 0
M  V30 7700 H 745.949 -3.03163 -4.01374 0
M  V30 7701 H 745.649 -4.71345 -3.50867 0
M  V30 7702 H 747.173 -4.29376 -4.3413 0
M  V30 7703 H 748.587 -5.25807 -2.28472 0
M  V30 7704 H 746.984 -5.76245 -1.67515 0
M  V30 7705 H 748.054 -4.80751 -0.632944 0
M  V30 7706 N 749.397 0.351382 -1.53633 0
M  V30 7707 C 750.622 1.11718 -1.74739 0
M  V30 7708 C 751.047 1.81829 -0.481657 0
M  V30 7709 O 750.405 1.72264 0.565233 0
M  V30 7710 C 750.453 2.11234 -2.92254 0
M  V30 7711 O 749.557 3.186 -2.61855 0
M  V30 7712 H 748.898 0.323482 -0.579875 0
M  V30 7713 H 751.428 0.404167 -2.00568 0
M  V30 7714 H 751.438 2.54591 -3.18822 0
M  V30 7715 H 750.113 1.59599 -3.84058 0
M  V30 7716 H 748.69 2.80115 -2.4615 0
M  V30 7717 N 750.875 1.45233 0.611969 0
M  V30 7718 C 752.123 1.48727 1.36838 0
M  V30 7719 C 752.444 0.128616 1.94575 0
M  V30 7720 O 751.714 -0.84149 1.76906 0
M  V30 7721 H 750.294 0.547695 0.507976 0
M  V30 7722 H 752.956 1.81156 0.718925 0
M  V30 7723 H 752.052 2.2236 2.19003 0
M  V30 7724 N 752.353 -0.854086 1.3245 0
M  V30 7725 C 753.283 -1.97827 1.24044 0
M  V30 7726 C 754.264 -1.69646 0.124166 0
M  V30 7727 O 755.449 -1.91687 0.31143 0
M  V30 7728 C 752.579 -3.33673 0.963324 0
M  V30 7729 C 751.533 -3.76207 2.04089 0
M  V30 7730 C 750.859 -5.0969 1.61618 0
M  V30 7731 C 752.159 -3.91612 3.45597 0
M  V30 7732 H 753.853 -2.05118 2.18099 0
M  V30 7733 H 751.399 -0.985489 1.04996 0
M  V30 7734 H 753.352 -4.11871 0.891061 0
M  V30 7735 H 752.076 -3.26597 -0.0128649 0
M  V30 7736 H 750.735 -3.0026 2.10332 0
M  V30 7737 H 750.383 -4.99072 0.627418 0
M  V30 7738 H 750.083 -5.3912 2.33717 0
M  V30 7739 H 751.607 -5.90381 1.55829 0
M  V30 7740 H 753.021 -4.60163 3.4194 0
M  V30 7741 H 751.418 -4.3246 4.16051 0
M  V30 7742 H 752.488 -2.9451 3.85217 0
M  V30 7743 N 753.831 -1.1567 -1.07043 0
M  V30 7744 C 755.247 -0.900006 -1.31803 0
M  V30 7745 C 755.447 0.451293 -1.96381 0
M  V30 7746 O 754.503 1.19252 -2.22565 0
M  V30 7747 C 755.816 -2.04334 -2.20609 0
M  V30 7748 C 757.364 -2.07823 -2.34048 0
M  V30 7749 C 757.839 -3.21488 -3.26204 0
M  V30 7750 N 759.33 -3.21156 -3.33786 0
M  V30 7751 C 760.065 -4.05746 -4.05163 0
M  V30 7752 N 759.561 -5.00407 -4.79129 0
M  V30 7753 N 761.354 -3.93759 -4.01136 0
M  V30 7754 H 753.505 -2.02681 -0.635146 0
M  V30 7755 H 755.768 -0.883956 -0.342528 0
M  V30 7756 H 755.474 -3.01895 -1.80423 0
M  V30 7757 H 755.348 -1.97838 -3.21154 0
M  V30 7758 H 757.735 -1.1086 -2.73485 0
M  V30 7759 H 757.816 -2.18386 -1.33197 0
M  V30 7760 H 757.46 -4.18706 -2.87485 0
M  V30 7761 H 757.39 -3.08162 -4.27017 0
M  V30 7762 H 759.881 -2.52606 -2.81067 0
M  V30 7763 H 760.194 -5.61387 -5.31097 0
M  V30 7764 H 758.539 -5.04393 -4.78135 0
M  V30 7765 H 761.73 -3.19115 -3.42466 0
M  V30 7766 H 761.903 -4.59906 -4.56498 0
M  V30 7767 N 755.309 1.25446 -0.953992 0
M  V30 7768 C 756.272 2.24156 -0.478179 0
M  V30 7769 C 757.272 1.55278 0.417776 0
M  V30 7770 O 758.462 1.72866 0.215155 0
M  V30 7771 C 755.594 3.39495 0.309202 0
M  V30 7772 H 756.787 2.67764 -1.35064 0
M  V30 7773 H 754.34 1.37822 -0.737206 0
M  V30 7774 H 755.075 3.01307 1.19936 0
M  V30 7775 H 754.86 3.90679 -0.333562 0
M  V30 7776 H 756.35 4.12796 0.631594 0
M  V30 7777 N 756.787 0.722489 1.40064 0
M  V30 7778 C 758.035 0.264455 2.00362 0
M  V30 7779 C 758.356 -1.14847 1.57592 0
M  V30 7780 O 757.626 -1.77982 0.818477 0
M  V30 7781 H 756.206 0.0947846 0.740962 0
M  V30 7782 H 758.868 0.929659 1.71299 0
M  V30 7783 H 757.964 0.302977 3.10626 0
M  V30 7784 N 758.265 -1.50454 0.469181 0
M  V30 7785 C 759.511 -2.02615 -0.0865971 0
M  V30 7786 C 759.844 -1.35062 -1.39542 0
M  V30 7787 O 759.119 -0.475701 -1.88593 0
M  V30 7788 C 759.402 -3.59068 -0.272385 0
M  V30 7789 C 759.255 -4.37196 1.05733 0
M  V30 7790 C 760.574 -4.2793 -1.0278 0
M  V30 7791 H 757.693 -0.736389 -0.0299977 0
M  V30 7792 H 760.335 -1.79792 0.614399 0
M  V30 7793 H 758.485 -3.78646 -0.869471 0
M  V30 7794 H 760.157 -4.29195 1.69084 0
M  V30 7795 H 758.4 -4.01013 1.65442 0
M  V30 7796 H 759.071 -5.44924 0.880997 0
M  V30 7797 H 761.547 -4.12816 -0.521718 0
M  V30 7798 H 760.423 -5.37214 -1.12659 0
M  V30 7799 H 760.684 -3.90968 -2.0639 0
M  V30 7800 N 759.743 -0.201713 -1.56304 0
M  V30 7801 C 760.706 0.702811 -2.18159 0
M  V30 7802 C 761.706 1.13619 -1.13787 0
M  V30 7803 O 762.896 1.0482 -1.39134 0
M  V30 7804 C 760.028 1.96032 -2.78898 0
M  V30 7805 H 761.221 0.163836 -2.99452 0
M  V30 7806 H 758.774 0.04791 -1.56227 0
M  V30 7807 H 759.509 2.54165 -2.01421 0
M  V30 7808 H 759.294 1.65824 -3.55309 0
M  V30 7809 H 760.784 2.60519 -3.26373 0
M  V30 7810 N 761.222 1.57436 0.0718424 0
M  V30 7811 C 762.452 1.91196 0.782795 0
M  V30 7812 C 762.86 0.795927 1.71644 0
M  V30 7813 O 762.203 -0.239604 1.82131 0
M  V30 7814 C 762.265 3.20421 1.63005 0
M  V30 7815 C 761.929 4.48724 0.865782 0
M  V30 7816 C 762.926 5.19571 0.185051 0
M  V30 7817 C 760.611 4.95345 0.832971 0
M  V30 7818 C 762.605 6.3529 -0.518264 0
M  V30 7819 C 760.292 6.1097 0.125884 0
M  V30 7820 C 761.29 6.80794 -0.548533 0
M  V30 7821 O 760.978 7.94213 -1.24423 0
M  V30 7822 H 760.71 0.636486 0.227731 0
M  V30 7823 H 763.264 2.05348 0.0464187 0
M  V30 7824 H 761.494 3.02478 2.40923 0
M  V30 7825 H 763.183 3.39831 2.21968 0
M  V30 7826 H 763.949 4.8458 0.201707 0
M  V30 7827 H 759.828 4.40871 1.34737 0
M  V30 7828 H 763.372 6.89725 -1.04523 0
M  V30 7829 H 759.269 6.45411 0.107155 0
M  V30 7830 H 760.037 8.10331 -1.1535 0
M  V30 7831 N 762.7 -0.34323 1.53817 0
M  V30 7832 C 763.928 -1.10348 1.75017 0
M  V30 7833 C 764.343 -1.82345 0.489475 0
M  V30 7834 O 763.7 -1.74362 -0.538886 0
M  V30 7835 C 763.751 -2.11672 2.93048 0
M  V30 7836 O 763.472 -1.42603 4.14241 0
M  V30 7837 C 764.973 -3.0007 3.26301 0
M  V30 7838 H 762.193 -0.329056 0.584776 0
M  V30 7839 H 764.737 -0.395339 2.00642 0
M  V30 7840 H 762.892 -2.78051 2.69753 0
M  V30 7841 H 763.306 -2.10294 4.80496 0
M  V30 7842 H 764.78 -3.67101 4.12239 0
M  V30 7843 H 765.257 -3.66105 2.42618 0
M  V30 7844 H 765.863 -2.3928 3.51604 0
M  V30 7845 N 764.178 -1.45556 -0.604258 0
M  V30 7846 C 765.424 -1.49968 -1.36519 0
M  V30 7847 C 765.757 -0.142236 -1.93678 0
M  V30 7848 O 765.032 0.843717 -1.75247 0
M  V30 7849 C 765.315 -2.58146 -2.51063 0
M  V30 7850 C 765.168 -4.03346 -1.99078 0
M  V30 7851 C 766.487 -2.62581 -3.53184 0
M  V30 7852 H 763.606 -0.545993 -0.495036 0
M  V30 7853 H 766.248 -1.77382 -0.680845 0
M  V30 7854 H 764.398 -2.34901 -3.09441 0
M  V30 7855 H 766.07 -4.37811 -1.45323 0
M  V30 7856 H 764.313 -4.13845 -1.30055 0
M  V30 7857 H 764.984 -4.74731 -2.81664 0
M  V30 7858 H 767.46 -2.83419 -3.04652 0
M  V30 7859 H 766.336 -3.40131 -4.30816 0
M  V30 7860 H 766.597 -1.67798 -4.09019 0
M  V30 7861 N 765.656 0.84705 -1.32902 0
M  V30 7862 C 766.588 1.96308 -1.18304 0
M  V30 7863 C 767.601 1.62386 -0.116082 0
M  V30 7864 O 768.79 1.74713 -0.365751 0
M  V30 7865 C 765.89 3.29556 -0.790305 0
M  V30 7866 C 765.063 3.91668 -1.94717 0
M  V30 7867 C 764.122 5.0326 -1.53674 0
M  V30 7868 O 763.148 5.22847 -2.24989 0
M  V30 7869 N 764.35 5.78852 -0.437075 0
M  V30 7870 H 767.115 2.09369 -2.14441 0
M  V30 7871 H 764.676 1.02233 -1.25539 0
M  V30 7872 H 766.668 4.01624 -0.49799 0
M  V30 7873 H 765.238 3.12497 0.0801286 0
M  V30 7874 H 764.458 3.12292 -2.40557 0
M  V30 7875 H 765.746 4.299 -2.72146 0
M  V30 7876 H 765.144 5.65484 0.156316 0
M  V30 7877 H 763.701 6.51479 -0.204399 0
M  V30 7878 N 767.134 1.16236 1.06428 0
M  V30 7879 C 768.38 0.944431 1.79467 0
M  V30 7880 C 768.713 -0.526558 1.86925 0
M  V30 7881 O 767.988 -1.39061 1.35986 0
M  V30 7882 C 768.271 1.57092 3.24028 0
M  V30 7883 C 768.124 3.11315 3.24658 0
M  V30 7884 C 769.443 1.26447 4.21544 0
M  V30 7885 H 766.562 0.344521 0.651517 0
M  V30 7886 H 769.204 1.43545 1.24478 0
M  V30 7887 H 767.354 1.15337 3.70985 0
M  V30 7888 H 769.026 3.62042 2.85873 0
M  V30 7889 H 767.269 3.44716 2.6335 0
M  V30 7890 H 767.94 3.50269 4.26633 0
M  V30 7891 H 770.416 1.62581 3.83023 0
M  V30 7892 H 769.292 1.72885 5.20963 0
M  V30 7893 H 769.553 0.183068 4.41721 0
M  V30 7894 N 768.612 -1.24939 0.960631 0
M  V30 7895 C 770.028 -1.45039 0.666018 0
M  V30 7896 C 770.228 -1.86021 -0.774501 0
M  V30 7897 O 769.284 -1.99392 -1.54916 0
M  V30 7898 C 770.597 -2.51775 1.64408 0
M  V30 7899 C 772.145 -2.6561 1.65592 0
M  V30 7900 C 772.62 -3.75536 2.62177 0
M  V30 7901 N 774.111 -3.82954 2.60577 0
M  V30 7902 C 774.846 -4.67517 3.31987 0
M  V30 7903 N 774.342 -5.56321 4.1289 0
M  V30 7904 N 776.135 -4.61535 3.20845 0
M  V30 7905 H 768.286 -0.96632 1.89145 0
M  V30 7906 H 770.549 -0.486034 0.813926 0
M  V30 7907 H 770.255 -2.28534 2.67329 0
M  V30 7908 H 770.129 -3.49804 1.41128 0
M  V30 7909 H 772.516 -2.88212 0.633846 0
M  V30 7910 H 772.597 -1.67962 1.92931 0
M  V30 7911 H 772.241 -3.53684 3.64514 0
M  V30 7912 H 772.171 -4.72682 2.32119 0
M  V30 7913 H 774.662 -3.19478 2.01847 0
M  V30 7914 H 774.975 -6.17787 4.64283 0
M  V30 7915 H 773.32 -5.5601 4.16987 0
M  V30 7916 H 776.511 -3.91169 2.57108 0
M  V30 7917 H 776.684 -5.27214 3.76762 0
M  V30 7918 N 770.09 -0.729906 -1.39679 0
M  V30 7919 C 771.053 -0.0951668 -2.29002 0
M  V30 7920 C 772.053 0.672471 -1.46063 0
M  V30 7921 O 773.243 0.502245 -1.66803 0
M  V30 7922 C 770.375 0.874631 -3.29489 0
M  V30 7923 H 771.568 -0.882062 -2.86635 0
M  V30 7924 H 769.121 -0.495424 -1.4824 0
M  V30 7925 H 769.856 1.68807 -2.76902 0
M  V30 7926 H 769.641 0.326893 -3.90735 0
M  V30 7927 H 771.131 1.31548 -3.96339 0
M  V30 7928 N 771.568 1.50203 -0.477153 0
M  V30 7929 C 772.845 1.95115 0.137609 0
M  V30 7930 C 773.225 1.41778 1.56404 0
M  V30 7931 O 772.573 0.621333 2.1989 0
M  V30 7932 C 772.783 3.4892 0.0747168 0
M  V30 7933 C 774.131 4.238 0.260585 0
M  V30 7934 O 775.155 3.5588 0.151021 0
M  V30 7935 O 774.014 5.44366 0.482534 0
M  V30 7936 H 771.108 0.81987 0.108364 0
M  V30 7937 H 773.654 1.60946 -0.537989 0
M  V30 7938 H 772.426 3.80308 -0.920966 0
M  V30 7939 H 772.049 3.89642 0.791509 0
M  V30 7940 N 773.046 0.209999 1.56195 0
M  V30 7941 C 774.274 -0.429996 2.02382 0
M  V30 7942 C 774.689 -1.54159 1.08998 0
M  V30 7943 O 774.046 -1.82239 0.0974856 0
M  V30 7944 C 774.097 -0.972433 3.48175 0
M  V30 7945 O 773.818 0.0948231 4.37997 0
M  V30 7946 C 775.319 -1.68683 4.09952 0
M  V30 7947 H 772.539 -0.106475 0.662498 0
M  V30 7948 H 775.083 0.323072 2.01932 0
M  V30 7949 H 773.238 -1.67582 3.49278 0
M  V30 7950 H 773.652 -0.31113 5.23576 0
M  V30 7951 H 775.126 -2.01851 5.13771 0
M  V30 7952 H 775.603 -2.59587 3.54276 0
M  V30 7953 H 776.209 -1.02893 4.12666 0
M  V30 7954 N 774.524 -1.57472 -0.0634922 0
M  V30 7955 C 775.487 -2.03268 -1.059 0
M  V30 7956 C 776.487 -0.931028 -1.31105 0
M  V30 7957 O 777.677 -1.19567 -1.26686 0
M  V30 7958 C 774.809 -2.42039 -2.40062 0
M  V30 7959 H 776.002 -2.92454 -0.664119 0
M  V30 7960 H 773.555 -1.53206 -0.309444 0
M  V30 7961 H 774.29 -1.55904 -2.84367 0
M  V30 7962 H 774.075 -3.22437 -2.23108 0
M  V30 7963 H 775.565 -2.78017 -3.11603 0
M  V30 7964 N 776.003 0.335068 -1.53997 0
M  V30 7965 C 777.249 1.07222 -1.72844 0
M  V30 7966 C 777.604 1.86054 -0.490075 0
M  V30 7967 O 776.897 1.84481 0.517416 0
M  V30 7968 C 777.091 2.0364 -2.9371 0
M  V30 7969 C 776.92 1.34287 -4.29182 0
M  V30 7970 C 775.69 1.08417 -4.93532 0
M  V30 7971 C 777.888 0.764703 -5.08583 0
M  V30 7972 N 775.87 0.357342 -6.12859 0
M  V30 7973 C 777.241 0.168876 -6.1977 0
M  V30 7974 C 779.296 0.666383 -4.9342 0
M  V30 7975 C 777.999 -0.515716 -7.17449 0
M  V30 7976 C 780.025 -0.0044859 -5.914 0
M  V30 7977 C 779.387 -0.589305 -7.01931 0
M  V30 7978 H 775.486 0.376448 -0.685427 0
M  V30 7979 H 778.07 0.354778 -1.9144 0
M  V30 7980 H 776.241 2.72668 -2.76599 0
M  V30 7981 H 777.973 2.70256 -3.01237 0
M  V30 7982 H 774.728 1.37351 -4.53246 0
M  V30 7983 H 775.152 0.00840481 -6.76999 0
M  V30 7984 H 779.794 1.10426 -4.08125 0
M  V30 7985 H 777.512 -0.965457 -8.02312 0
M  V30 7986 H 781.098 -0.0800446 -5.81745 0
M  V30 7987 H 779.978 -1.10019 -7.76444 0
M  V30 7988 N 777.481 1.45874 0.596531 0
M  V30 7989 C 778.411 1.5824 1.71705 0
M  V30 7990 C 779.392 0.433366 1.64487 0
M  V30 7991 O 780.577 0.657895 1.82717 0
M  V30 7992 C 777.707 1.55927 3.10329 0
M  V30 7993 C 776.661 2.69659 3.32367 0
M  V30 7994 C 775.987 2.52403 4.71377 0
M  V30 7995 C 777.287 4.11591 3.21544 0
M  V30 7996 H 778.981 2.52035 1.61613 0
M  V30 7997 H 776.527 1.21297 0.776082 0
M  V30 7998 H 778.48 1.63173 3.88526 0
M  V30 7999 H 777.204 0.586674 3.21288 0
M  V30 8000 H 775.863 2.61859 2.56564 0
M  V30 8001 H 775.511 1.53258 4.79083 0
M  V30 8002 H 775.211 3.28679 4.87077 0
M  V30 8003 H 776.735 2.6152 5.5176 0
M  V30 8004 H 778.149 4.20576 3.89601 0
M  V30 8005 H 776.546 4.88344 3.4877 0
M  V30 8006 H 777.616 4.32719 2.1882 0
M  V30 8007 N 778.959 -0.83999 1.33349 0
M  V30 8008 C 780.375 -1.13049 1.12659 0
M  V30 8009 C 780.575 -2.01328 -0.0832613 0
M  V30 8010 O 779.631 -2.40669 -0.763856 0
M  V30 8011 C 780.944 -1.79366 2.41347 0
M  V30 8012 C 782.492 -1.91937 2.47243 0
M  V30 8013 C 782.967 -2.6167 3.75889 0
M  V30 8014 N 784.458 -2.69184 3.76954 0
M  V30 8015 C 785.193 -3.23827 4.73206 0
M  V30 8016 N 784.689 -3.79166 5.79832 0
M  V30 8017 N 786.482 -3.22068 4.60683 0
M  V30 8018 H 778.633 -0.252432 2.10895 0
M  V30 8019 H 780.896 -0.174501 0.931801 0
M  V30 8020 H 780.602 -1.2196 3.29877 0
M  V30 8021 H 780.476 -2.79396 2.53412 0
M  V30 8022 H 782.863 -2.48498 1.59163 0
M  V30 8023 H 782.944 -0.908604 2.39119 0
M  V30 8024 H 782.588 -2.05769 4.64351 0
M  V30 8025 H 782.518 -3.63217 3.81289 0
M  V30 8026 H 785.009 -2.2994 2.99893 0
M  V30 8027 H 785.322 -4.19061 6.49313 0
M  V30 8028 H 783.667 -3.77457 5.83568 0
M  V30 8029 H 786.858 -2.78092 3.7654 0
M  V30 8030 H 787.031 -3.64351 5.35866 0
M  V30 8031 N 780.437 -1.16799 -1.0581 0
M  V30 8032 C 781.685 -0.950642 -1.78346 0
M  V30 8033 C 782.006 0.522524 -1.87869 0
M  V30 8034 O 781.276 1.3795 -1.39092 0
M  V30 8035 H 779.856 -0.348736 -0.6606 0
M  V30 8036 H 782.518 -1.47158 -1.27791 0
M  V30 8037 H 781.614 -1.37359 -2.80248 0
M  V30 8038 N 781.915 1.24427 -0.967243 0
M  V30 8039 C 783.161 1.92772 -0.629812 0
M  V30 8040 C 783.494 1.75436 0.832827 0
M  V30 8041 O 782.769 1.10716 1.59913 0
M  V30 8042 C 783.052 3.45798 -1.00477 0
M  V30 8043 C 782.905 3.72304 -2.52407 0
M  V30 8044 C 784.224 4.36787 -0.538999 0
M  V30 8045 H 781.343 0.700099 -0.230282 0
M  V30 8046 H 783.985 1.46805 -1.20616 0
M  V30 8047 H 782.135 3.8508 -0.514336 0
M  V30 8048 H 783.807 3.42584 -3.08924 0
M  V30 8049 H 782.05 3.17472 -2.95625 0
M  V30 8050 H 782.721 4.7937 -2.73693 0
M  V30 8051 H 785.197 4.04877 -0.959874 0
M  V30 8052 H 784.073 5.4259 -0.829926 0
M  V30 8053 H 784.334 4.38527 0.560923 0
M  V30 8054 N 783.393 0.737304 1.3929 0
M  V30 8055 C 784.639 0.295581 2.01241 0
M  V30 8056 C 784.994 -1.10561 1.57461 0
M  V30 8057 O 784.287 -1.74346 0.7946 0
M  V30 8058 C 784.481 0.338438 3.55794 0
M  V30 8059 C 784.31 1.74225 4.14579 0
M  V30 8060 C 783.08 2.35502 4.47065 0
M  V30 8061 C 785.278 2.69623 4.37959 0
M  V30 8062 N 783.26 3.68014 4.91365 0
M  V30 8063 C 784.631 3.86873 4.84489 0
M  V30 8064 C 786.686 2.67355 4.2003 0
M  V30 8065 C 785.389 5.02193 5.14971 0
M  V30 8066 C 787.415 3.8182 4.51627 0
M  V30 8067 C 786.777 4.97806 4.98366 0
M  V30 8068 H 782.876 0.154468 0.766592 0
M  V30 8069 H 785.46 0.963768 1.69173 0
M  V30 8070 H 783.631 -0.299406 3.87244 0
M  V30 8071 H 785.363 -0.122053 4.04516 0
M  V30 8072 H 782.118 1.87406 4.34943 0
M  V30 8073 H 782.542 4.36051 5.17869 0
M  V30 8074 H 787.184 1.78876 3.83097 0
M  V30 8075 H 784.902 5.913 5.50809 0
M  V30 8076 H 788.488 3.81366 4.39376 0
M  V30 8077 H 787.368 5.84909 5.22351 0
M  V30 8078 N 784.871 -1.49948 0.485112 0
M  V30 8079 C 786.096 -2.073 -0.0645059 0
M  V30 8080 C 786.521 -1.345 -1.31497 0
M  V30 8081 O 785.879 -0.39687 -1.76903 0
M  V30 8082 C 785.927 -3.59201 -0.317304 0
M  V30 8083 O 785.031 -3.88085 -1.39514 0
M  V30 8084 H 784.372 -0.663723 0.0191822 0
M  V30 8085 H 786.902 -1.92963 0.680179 0
M  V30 8086 H 786.912 -4.04227 -0.553604 0
M  V30 8087 H 785.587 -4.11602 0.596387 0
M  V30 8088 H 784.164 -3.54885 -1.14504 0
M  V30 8089 N 786.349 -0.21828 -1.56081 0
M  V30 8090 C 787.281 0.725447 -2.17416 0
M  V30 8091 C 788.294 1.15995 -1.14233 0
M  V30 8092 O 789.483 1.09166 -1.41227 0
M  V30 8093 C 786.583 1.99401 -2.7403 0
M  V30 8094 C 785.756 1.7156 -4.02351 0
M  V30 8095 C 784.815 2.8309 -4.43561 0
M  V30 8096 O 783.841 2.51701 -5.10525 0
M  V30 8097 N 785.043 4.11972 -4.08973 0
M  V30 8098 H 787.808 0.200801 -2.99027 0
M  V30 8099 H 785.369 -0.0371514 -1.61857 0
M  V30 8100 H 787.361 2.73198 -2.98571 0
M  V30 8101 H 785.931 2.42923 -1.96742 0
M  V30 8102 H 785.151 0.814233 -3.85699 0
M  V30 8103 H 786.439 1.50385 -4.86068 0
M  V30 8104 H 785.837 4.40319 -3.55156 0
M  V30 8105 H 784.394 4.82323 -4.38415 0
M  V30 8106 N 787.827 1.57504 0.0551401 0
M  V30 8107 C 789.238 1.76626 0.604979 0
M  V30 8108 C 789.589 0.845978 1.77024 0
M  V30 8109 O 788.714 0.0341936 2.16373 0
M  V30 8110 C 789.309 3.203 1.10425 0
M  V30 8111 C 787.868 3.4071 1.59981 0
M  V30 8112 C 787.015 2.72258 0.526414 0
M  V30 8113 H 789.966 1.57775 -0.171072 0
M  V30 8114 H 789.987 3.25377 1.97256 0
M  V30 8115 H 789.499 3.87255 0.255939 0
M  V30 8116 H 787.6 2.78892 2.47083 0
M  V30 8117 H 787.713 4.49227 1.66528 0
M  V30 8118 H 786.077 2.35283 0.97539 0
M  V30 8119 H 786.86 3.41879 -0.311991 0
M  V30 8120 N 789.305 -0.326896 1.54172 0
M  V30 8121 C 790.237 -1.42319 1.79661 0
M  V30 8122 C 791.25 -1.47989 0.678456 0
M  V30 8123 O 792.439 -1.50773 0.955503 0
M  V30 8124 C 789.539 -2.80876 1.89636 0
M  V30 8125 C 788.712 -2.98449 3.19761 0
M  V30 8126 C 787.771 -4.17347 3.2048 0
M  V30 8127 O 786.797 -4.10667 3.94134 0
M  V30 8128 N 787.999 -5.26717 2.44027 0
M  V30 8129 H 790.764 -1.20819 2.74268 0
M  V30 8130 H 788.325 -0.516866 1.53428 0
M  V30 8131 H 790.317 -3.58619 1.87549 0
M  V30 8132 H 788.887 -2.95442 1.02141 0
M  V30 8133 H 788.107 -2.08035 3.34836 0
M  V30 8134 H 789.395 -3.07083 4.05681 0
M  V30 8135 H 788.793 -5.35019 1.8377 0
M  V30 8136 H 787.35 -6.02891 2.47721 0
M  V30 8137 N 790.784 -1.46188 -0.588786 0
M  V30 8138 C 792.2 -1.31009 -0.911524 0
M  V30 8139 C 792.4 -0.277017 -1.99587 0
M  V30 8140 O 791.456 0.322532 -2.50432 0
M  V30 8141 C 792.769 -2.69459 -1.33463 0
M  V30 8142 C 794.317 -2.77502 -1.44782 0
M  V30 8143 C 794.792 -4.1652 -1.90461 0
M  V30 8144 N 796.283 -4.18907 -1.97665 0
M  V30 8145 C 797.018 -5.23359 -2.34271 0
M  V30 8146 N 796.514 -6.38143 -2.69714 0
M  V30 8147 N 798.307 -5.10723 -2.34774 0
M  V30 8148 H 790.458 -2.12016 0.127614 0
M  V30 8149 H 792.721 -0.947984 -0.00557599 0
M  V30 8150 H 792.427 -3.46336 -0.611929 0
M  V30 8151 H 792.301 -2.99165 -2.2974 0
M  V30 8152 H 794.688 -2.00917 -2.1614 0
M  V30 8153 H 794.769 -2.51488 -0.467724 0
M  V30 8154 H 794.413 -4.93597 -1.19684 0
M  V30 8155 H 794.343 -4.39937 -2.89418 0
M  V30 8156 H 796.834 -3.36084 -1.72789 0
M  V30 8157 H 797.147 -7.13624 -2.96582 0
M  V30 8158 H 795.492 -6.41514 -2.67366 0
M  V30 8159 H 798.683 -4.20088 -2.06503 0
M  V30 8160 H 798.856 -5.9224 -2.62975 0
M  V30 8161 N 792.262 0.832906 -1.33792 0
M  V30 8162 C 793.509 1.58853 -1.25586 0
M  V30 8163 C 793.837 1.93695 0.176807 0
M  V30 8164 O 793.092 1.59386 1.13554 0
M  V30 8165 C 793.391 2.9047 -2.08235 0
M  V30 8166 C 793.057 2.74965 -3.57358 0
M  V30 8167 C 791.719 2.70444 -3.98012 0
M  V30 8168 C 794.071 2.59347 -4.52093 0
M  V30 8169 C 791.399 2.48212 -5.31608 0
M  V30 8170 C 793.751 2.38649 -5.85858 0
M  V30 8171 C 792.415 2.32533 -6.25687 0
M  V30 8172 H 791.685 0.581285 -0.459553 0
M  V30 8173 H 794.332 0.964501 -1.65438 0
M  V30 8174 H 792.637 3.57111 -1.6118 0
M  V30 8175 H 794.334 3.48001 -1.99239 0
M  V30 8176 H 790.924 2.79319 -3.25083 0
M  V30 8177 H 795.108 2.6187 -4.2159 0
M  V30 8178 H 790.364 2.41929 -5.61498 0
M  V30 8179 H 794.538 2.25549 -6.58863 0
M  V30 8180 H 792.165 2.15067 -7.29143 0
M  V30 8181 N 793.74 1.17359 1.05189 0
M  V30 8182 C 794.965 0.98709 1.82404 0
M  V30 8183 C 795.39 -0.459848 1.82392 0
M  V30 8184 O 794.748 -1.32924 1.23292 0
M  V30 8185 C 794.796 1.53276 3.26403 0
M  V30 8186 O 793.9 0.746541 4.05587 0
M  V30 8187 H 793.241 0.35047 0.563974 0
M  V30 8188 H 795.771 1.55856 1.32552 0
M  V30 8189 H 795.781 1.55504 3.77203 0
M  V30 8190 H 794.456 2.58603 3.25726 0
M  V30 8191 H 793.033 0.795671 3.64312 0
M  V30 8192 N 795.218 -1.23913 0.973828 0
M  V30 8193 C 796.467 -1.91455 0.63464 0
M  V30 8194 C 796.78 -1.76893 -0.834759 0
M  V30 8195 O 797.986 -2.3918 -1.28473 0
M  V30 8196 C 796.442 -3.43172 1.08447 0
M  V30 8197 C 796.05 -3.66409 2.57776 0
M  V30 8198 C 797.794 -4.1653 0.818721 0
M  V30 8199 C 795.701 -5.11728 2.9646 0
M  V30 8200 H 794.631 -0.716881 0.233661 0
M  V30 8201 H 797.282 -1.40457 1.18085 0
M  V30 8202 H 795.664 -3.93242 0.466524 0
M  V30 8203 H 796.838 -3.26913 3.24753 0
M  V30 8204 H 795.153 -3.06349 2.82027 0
M  V30 8205 H 797.75 -5.23603 1.08367 0
M  V30 8206 H 798.093 -4.15578 -0.245128 0
M  V30 8207 H 798.626 -3.72428 1.39793 0
M  V30 8208 H 795.365 -5.17806 4.01941 0
M  V30 8209 H 794.885 -5.52199 2.34172 0
M  V30 8210 H 796.564 -5.80009 2.86703 0
M  V30 8211 N 796.696 -0.74468 -1.38897 0
M  V30 8212 C 797.606 -0.112892 -2.34328 0
M  V30 8213 C 798.622 0.71087 -1.58816 0
M  V30 8214 O 799.798 0.637092 -1.91058 0
M  V30 8215 C 796.863 0.776417 -3.37894 0
M  V30 8216 C 795.924 -0.0606999 -4.29257 0
M  V30 8217 C 795.157 0.786258 -5.27877 0
M  V30 8218 O 795.38 2.02463 -5.33259 0
M  V30 8219 O 794.314 0.209781 -6.01534 0
M  V30 8220 H 798.14 -0.900801 -2.90033 0
M  V30 8221 H 795.725 -0.505462 -1.4059 0
M  V30 8222 H 797.607 1.28496 -4.01331 0
M  V30 8223 H 796.282 1.54297 -2.84559 0
M  V30 8224 H 795.189 -0.614984 -3.69011 0
M  V30 8225 H 796.522 -0.789702 -4.85824 0
M  V30 8226 N 798.174 1.49689 -0.493057 0
M  V30 8227 C 799.42 2.02727 0.0543518 0
M  V30 8228 C 799.753 1.37264 1.37376 0
M  V30 8229 O 799.028 0.505644 1.87812 0
M  V30 8230 C 799.311 3.59456 0.215226 0
M  V30 8231 C 799.164 4.35459 -1.12675 0
M  V30 8232 C 800.483 4.29511 0.959586 0
M  V30 8233 H 797.602 0.736773 0.0182786 0
M  V30 8234 H 800.244 1.78792 -0.642924 0
M  V30 8235 H 798.394 3.79981 0.809122 0
M  V30 8236 H 800.066 4.2645 -1.75891 0
M  V30 8237 H 798.309 3.9833 -1.71801 0
M  V30 8238 H 798.98 5.43454 -0.967578 0
M  V30 8239 H 801.456 4.13594 0.455977 0
M  V30 8240 H 800.332 5.38939 1.04098 0
M  V30 8241 H 800.593 3.94202 2.00144 0
M  V30 8242 N 799.652 0.226554 1.55963 0
M  V30 8243 C 800.584 -0.713907 2.17798 0
M  V30 8244 C 801.597 -1.15387 1.14846 0
M  V30 8245 O 802.786 -1.08416 1.41804 0
M  V30 8246 C 799.886 -1.97945 2.75084 0
M  V30 8247 C 799.059 -1.69424 4.03255 0
M  V30 8248 C 798.118 -2.80734 4.45056 0
M  V30 8249 O 797.144 -2.4899 5.11852 0
M  V30 8250 N 798.346 -4.09797 4.11152 0
M  V30 8251 H 801.111 -0.18494 2.99129 0
M  V30 8252 H 798.672 0.0457346 1.61835 0
M  V30 8253 H 800.664 -2.71611 3.00016 0
M  V30 8254 H 799.234 -2.41876 1.98027 0
M  V30 8255 H 798.454 -0.793767 3.86126 0
M  V30 8256 H 799.742 -1.47806 4.86858 0
M  V30 8257 H 799.14 -4.38429 3.57486 0
M  V30 8258 H 797.697 -4.79992 4.40966 0
M  V30 8259 N 801.13 -1.57531 -0.0467866 0
M  V30 8260 C 802.376 -1.8873 -0.742218 0
M  V30 8261 C 802.709 -0.822084 -1.75941 0
M  V30 8262 O 801.984 0.164922 -1.938 0
M  V30 8263 C 802.267 -3.30586 -1.42776 0
M  V30 8264 C 802.12 -4.47785 -0.425285 0
M  V30 8265 C 803.439 -3.71068 -2.36636 0
M  V30 8266 H 800.558 -0.686406 -0.268359 0
M  V30 8267 H 803.2 -1.89999 -0.00511341 0
M  V30 8268 H 801.35 -3.29634 -2.05605 0
M  V30 8269 H 803.022 -4.60867 0.199721 0
M  V30 8270 H 801.265 -4.33037 0.25713 0
M  V30 8271 H 801.936 -5.43884 -0.943086 0
M  V30 8272 H 804.412 -3.73273 -1.83866 0
M  V30 8273 H 803.288 -4.71165 -2.81593 0
M  V30 8274 H 803.549 -3.02355 -3.22542 0
M  V30 8275 N 802.608 0.318715 -1.54344 0
M  V30 8276 C 803.833 1.07987 -1.77069 0
M  V30 8277 C 804.258 1.80766 -0.520117 0
M  V30 8278 O 803.616 1.73424 0.528566 0
M  V30 8279 C 803.664 2.04987 -2.96669 0
M  V30 8280 O 802.768 3.12974 -2.68554 0
M  V30 8281 H 802.109 0.311109 -0.586606 0
M  V30 8282 H 804.639 0.361533 -2.0138 0
M  V30 8283 H 804.649 2.47771 -3.2415 0
M  V30 8284 H 803.324 1.51417 -3.87357 0
M  V30 8285 H 801.901 2.74831 -2.52037 0
M  V30 8286 N 804.086 1.46499 0.581025 0
M  V30 8287 C 805.363 1.42372 1.34125 0
M  V30 8288 C 805.743 0.108073 2.10823 0
M  V30 8289 O 805.091 -0.910366 2.09582 0
M  V30 8290 C 805.301 2.65445 2.26583 0
M  V30 8291 C 806.649 3.11664 2.88359 0
M  V30 8292 O 807.673 2.66006 2.36896 0
M  V30 8293 O 806.532 3.90974 3.81839 0
M  V30 8294 H 803.626 0.566262 0.602724 0
M  V30 8295 H 806.172 1.58667 0.601903 0
M  V30 8296 H 804.944 3.52756 1.69348 0
M  V30 8297 H 804.567 2.51618 3.07854 0
M  V30 8298 N 805.565 -0.825799 1.34232 0
M  V30 8299 C 806.811 -1.58379 1.27623 0
M  V30 8300 C 807.166 -1.91789 -0.15323 0
M  V30 8301 O 806.459 -1.56965 -1.09875 0
M  V30 8302 C 806.653 -2.89362 2.09772 0
M  V30 8303 C 806.482 -2.68747 3.60562 0
M  V30 8304 C 805.252 -2.6563 4.29848 0
M  V30 8305 C 807.45 -2.40463 4.54623 0
M  V30 8306 N 805.432 -2.3653 5.66504 0
M  V30 8307 C 806.803 -2.21032 5.79262 0
M  V30 8308 C 808.858 -2.26168 4.43568 0
M  V30 8309 C 807.561 -1.88754 6.94093 0
M  V30 8310 C 809.587 -1.95284 5.58228 0
M  V30 8311 C 808.949 -1.76674 6.81884 0
M  V30 8312 H 805.048 -0.582062 0.522234 0
M  V30 8313 H 807.632 -0.968308 1.68914 0
M  V30 8314 H 805.803 -3.48838 1.70783 0
M  V30 8315 H 807.535 -3.54716 1.94831 0
M  V30 8316 H 804.29 -2.79601 3.82257 0
M  V30 8317 H 804.714 -2.24827 6.38578 0
M  V30 8318 H 809.356 -2.39262 3.48588 0
M  V30 8319 H 807.074 -1.74397 7.89057 0
M  V30 8320 H 810.66 -1.84959 5.51617 0
M  V30 8321 H 809.54 -1.53123 7.69105 0
M  V30 8322 N 807.043 -1.17915 -1.04565 0
M  V30 8323 C 807.973 -0.925033 -2.14395 0
M  V30 8324 C 808.954 0.135375 -1.6956 0
M  V30 8325 O 810.139 -0.0161774 -1.94193 0
M  V30 8326 C 807.269 -0.444469 -3.44444 0
M  V30 8327 C 806.223 -1.44478 -4.02877 0
M  V30 8328 C 805.549 -0.821933 -5.28345 0
M  V30 8329 C 806.849 -2.81995 -4.39632 0
M  V30 8330 H 808.543 -1.84354 -2.35911 0
M  V30 8331 H 806.089 -0.887806 -1.13375 0
M  V30 8332 H 808.042 -0.254078 -4.20633 0
M  V30 8333 H 806.766 0.509592 -3.226 0
M  V30 8334 H 805.425 -1.62203 -3.28764 0
M  V30 8335 H 805.073 0.139161 -5.02807 0
M  V30 8336 H 804.773 -1.48976 -5.68401 0
M  V30 8337 H 806.297 -0.641959 -6.07216 0
M  V30 8338 H 807.711 -2.67952 -5.06828 0
M  V30 8339 H 806.108 -3.45414 -4.90723 0
M  V30 8340 H 807.178 -3.35927 -3.49687 0
M  V30 8341 N 808.521 1.23394 -0.980386 0
M  V30 8342 C 809.77 1.91116 -0.644785 0
M  V30 8343 C 810.083 1.77333 0.825367 0
M  V30 8344 O 811.289 2.39858 1.27203 0
M  V30 8345 C 809.745 3.42592 -1.10266 0
M  V30 8346 C 809.353 3.65037 -2.59715 0
M  V30 8347 C 811.097 4.1609 -0.8408 0
M  V30 8348 C 809.004 5.10148 -2.9917 0
M  V30 8349 H 807.934 0.715632 -0.23746 0
M  V30 8350 H 810.585 1.39829 -1.18828 0
M  V30 8351 H 808.967 3.92989 -0.487372 0
M  V30 8352 H 810.141 3.25186 -3.26482 0
M  V30 8353 H 808.456 3.04849 -2.83647 0
M  V30 8354 H 811.053 5.23021 -1.11143 0
M  V30 8355 H 811.396 4.15702 0.223085 0
M  V30 8356 H 811.929 3.71681 -1.41767 0
M  V30 8357 H 808.668 5.15668 -4.04682 0
M  V30 8358 H 808.188 5.50949 -2.37097 0
M  V30 8359 H 809.867 5.7848 -2.89775 0
M  V30 8360 N 809.999 0.752036 1.385 0
M  V30 8361 C 811.246 0.307503 2.00152 0
M  V30 8362 C 811.574 -1.11033 1.59693 0
M  V30 8363 O 810.829 -1.77455 0.825125 0
M  V30 8364 C 811.128 0.376155 3.55415 0
M  V30 8365 C 810.794 1.74942 4.15579 0
M  V30 8366 C 809.456 2.12525 4.31725 0
M  V30 8367 C 811.808 2.65031 4.48785 0
M  V30 8368 C 809.136 3.39671 4.78373 0
M  V30 8369 C 811.488 3.91567 4.96848 0
M  V30 8370 C 810.152 4.2922 5.11201 0
M  V30 8371 H 809.422 0.112523 0.732407 0
M  V30 8372 H 812.069 0.962213 1.65571 0
M  V30 8373 H 810.374 -0.362121 3.90123 0
M  V30 8374 H 812.071 0.0138065 4.00998 0
M  V30 8375 H 808.661 1.44726 4.03426 0
M  V30 8376 H 812.845 2.3726 4.35914 0
M  V30 8377 H 808.101 3.68765 4.8767 0
M  V30 8378 H 812.275 4.61517 5.21512 0
M  V30 8379 H 809.902 5.27805 5.47107 0
M  V30 8380 N 811.477 -1.49425 0.500989 0
M  V30 8381 C 812.724 -2.02453 -0.0435355 0
M  V30 8382 C 813.052 -1.38067 -1.36995 0
M  V30 8383 O 812.307 -0.505557 -1.89057 0
M  V30 8384 C 812.606 -3.56562 -0.24463 0
M  V30 8385 C 812.272 -4.39585 1.00379 0
M  V30 8386 C 810.934 -4.61992 1.346 0
M  V30 8387 C 813.286 -4.87881 1.83361 0
M  V30 8388 C 810.614 -5.2994 2.51755 0
M  V30 8389 C 812.966 -5.57119 2.99669 0
M  V30 8390 C 811.63 -5.77771 3.3427 0
M  V30 8391 H 810.9 -0.740829 -0.0159308 0
M  V30 8392 H 813.547 -1.79725 0.661143 0
M  V30 8393 H 811.852 -3.77969 -1.03183 0
M  V30 8394 H 813.549 -3.95185 -0.6804 0
M  V30 8395 H 810.139 -4.22385 0.727225 0
M  V30 8396 H 814.323 -4.70398 1.58237 0
M  V30 8397 H 809.579 -5.44133 2.788 0
M  V30 8398 H 813.753 -5.93516 3.64296 0
M  V30 8399 H 811.38 -6.30197 4.25154 0
M  V30 8400 N 812.955 -0.234822 -1.55841 0
M  V30 8401 C 813.918 0.656378 -2.196 0
M  V30 8402 C 814.918 1.11179 -1.16171 0
M  V30 8403 O 816.108 1.01845 -1.41326 0
M  V30 8404 C 813.24 1.90072 -2.82993 0
M  V30 8405 H 814.433 0.100281 -2.99732 0
M  V30 8406 H 811.986 0.0147613 -1.56293 0
M  V30 8407 H 812.721 2.49836 -2.06767 0
M  V30 8408 H 812.506 1.5825 -3.58747 0
M  V30 8409 H 813.996 2.53538 -3.31826 0
M  V30 8410 N 814.433 1.57553 0.0384317 0
M  V30 8411 C 815.658 1.93485 0.746872 0
M  V30 8412 C 816.083 0.834069 1.68597 0
M  V30 8413 O 815.441 -0.210902 1.80069 0
M  V30 8414 C 815.489 3.28463 1.4881 0
M  V30 8415 O 814.593 3.20051 2.60079 0
M  V30 8416 H 813.934 0.632675 0.201539 0
M  V30 8417 H 816.464 2.046 -0.00329815 0
M  V30 8418 H 816.474 3.63132 1.86009 0
M  V30 8419 H 815.149 4.08147 0.799297 0
M  V30 8420 H 813.726 2.96998 2.25492 0
M  V30 8421 N 815.911 -0.310526 1.54511 0
M  V30 8422 C 816.841 -1.38757 1.878 0
M  V30 8423 C 817.822 -1.53353 0.735991 0
M  V30 8424 O 819.007 -1.67018 0.990887 0
M  V30 8425 C 816.137 -2.75327 2.11689 0
M  V30 8426 C 815.091 -2.75506 3.27537 0
M  V30 8427 C 814.417 -4.15275 3.36824 0
M  V30 8428 C 815.717 -2.38093 4.64875 0
M  V30 8429 H 817.411 -1.11146 2.78005 0
M  V30 8430 H 814.957 -0.533232 1.33763 0
M  V30 8431 H 816.91 -3.50752 2.33562 0
M  V30 8432 H 815.634 -3.04443 1.18245 0
M  V30 8433 H 814.293 -2.02538 3.05572 0
M  V30 8434 H 813.941 -4.41553 2.40915 0
M  V30 8435 H 813.641 -4.16299 4.14692 0
M  V30 8436 H 815.165 -4.92493 3.60947 0
M  V30 8437 H 816.579 -3.03232 4.86542 0
M  V30 8438 H 814.976 -2.50345 5.45387 0
M  V30 8439 H 816.046 -1.33227 4.66239 0
M  V30 8440 N 817.389 -1.46805 -0.573248 0
M  V30 8441 C 818.637 -1.52302 -1.32847 0
M  V30 8442 C 818.958 -0.180159 -1.94166 0
M  V30 8443 O 818.228 0.794291 -1.79075 0
M  V30 8444 H 816.808 -0.56097 -0.493276 0
M  V30 8445 H 819.47 -1.82998 -0.670642 0
M  V30 8446 H 818.566 -2.28089 -2.13031 0
M  V30 8447 N 818.867 0.818669 -1.34668 0
M  V30 8448 C 820.092 1.61193 -1.30505 0
M  V30 8449 C 820.517 1.87734 0.117341 0
M  V30 8450 O 819.875 1.45591 1.08042 0
M  V30 8451 C 819.923 2.92733 -2.1057 0
M  V30 8452 O 819.027 3.85 -1.47813 0
M  V30 8453 H 818.368 0.490085 -0.44801 0
M  V30 8454 H 820.898 1.01701 -1.77534 0
M  V30 8455 H 820.908 3.42262 -2.22082 0
M  V30 8456 H 819.583 2.7274 -3.13984 0
M  V30 8457 H 818.16 3.43525 -1.45069 0
M  V30 8458 N 820.346 1.18468 1.03938 0
M  V30 8459 C 821.593 0.980833 1.77161 0
M  V30 8460 C 821.921 -0.489425 1.88242 0
M  V30 8461 O 821.176 -1.37961 1.388 0
M  V30 8462 C 821.475 1.58229 3.20466 0
M  V30 8463 C 821.141 3.07889 3.29416 0
M  V30 8464 C 819.803 3.48737 3.31566 0
M  V30 8465 C 822.155 4.03903 3.29411 0
M  V30 8466 C 819.483 4.84171 3.31355 0
M  V30 8467 C 821.835 5.39253 3.3074 0
M  V30 8468 C 820.499 5.79547 3.31182 0
M  V30 8469 H 819.769 0.358912 0.648277 0
M  V30 8470 H 822.416 1.47552 1.22069 0
M  V30 8471 H 820.721 1.00964 3.78568 0
M  V30 8472 H 822.418 1.39998 3.75768 0
M  V30 8473 H 819.008 2.75335 3.28464 0
M  V30 8474 H 823.192 3.73395 3.2694 0
M  V30 8475 H 818.448 5.14685 3.30015 0
M  V30 8476 H 822.622 6.13417 3.29686 0
M  V30 8477 H 820.249 6.84466 3.30772 0
M  V30 8478 N 821.824 -1.22873 0.986916 0
M  V30 8479 C 822.754 -2.2688 0.552064 0
M  V30 8480 C 823.735 -1.64883 -0.418048 0
M  V30 8481 O 824.92 -1.9171 -0.30999 0
M  V30 8482 C 822.05 -3.47018 -0.139959 0
M  V30 8483 C 821.004 -4.21411 0.748091 0
M  V30 8484 C 820.33 -5.34645 -0.0765132 0
M  V30 8485 C 821.63 -4.80726 2.04206 0
M  V30 8486 H 823.324 -2.63507 1.42143 0
M  V30 8487 H 820.87 -1.26668 0.68492 0
M  V30 8488 H 822.823 -4.18931 -0.455527 0
M  V30 8489 H 821.547 -3.0947 -1.04382 0
M  V30 8490 H 820.206 -3.51325 1.04721 0
M  V30 8491 H 819.854 -4.93339 -0.981109 0
M  V30 8492 H 819.554 -5.85342 0.514606 0
M  V30 8493 H 821.078 -6.09377 -0.386313 0
M  V30 8494 H 822.492 -5.44612 1.79083 0
M  V30 8495 H 820.889 -5.41737 2.5815 0
M  V30 8496 H 821.959 -4.01109 2.72469 0
M  V30 8497 N 823.302 -0.75937 -1.38099 0
M  V30 8498 C 824.527 -0.327859 -2.04792 0
M  V30 8499 C 824.952 1.03752 -1.56899 0
M  V30 8500 O 824.31 1.66235 -0.723581 0
M  V30 8501 C 824.358 -0.366264 -3.58735 0
M  V30 8502 O 823.462 0.637697 -4.0744 0
M  V30 8503 H 822.803 -0.144092 -0.648177 0
M  V30 8504 H 825.333 -1.03211 -1.7666 0
M  V30 8505 H 825.343 -0.219179 -4.07411 0
M  V30 8506 H 824.018 -1.36243 -3.92951 0
M  V30 8507 H 822.595 0.454749 -3.70117 0
M  V30 8508 N 824.78 1.49157 -0.508906 0
M  V30 8509 C 826.029 2.0167 0.0346854 0
M  V30 8510 C 826.342 1.39302 1.37311 0
M  V30 8511 O 827.548 1.83189 2.00385 0
M  V30 8512 C 826.004 3.59725 0.112261 0
M  V30 8513 C 825.612 4.31069 -1.21999 0
M  V30 8514 C 827.356 4.20155 0.605798 0
M  V30 8515 C 825.263 5.81001 -1.10415 0
M  V30 8516 H 824.193 0.753814 0.0167355 0
M  V30 8517 H 826.844 1.7162 -0.649518 0
M  V30 8518 H 825.226 3.86525 0.861087 0
M  V30 8519 H 826.4 4.15962 -1.98273 0
M  V30 8520 H 824.715 3.82418 -1.64759 0
M  V30 8521 H 827.312 5.29964 0.710102 0
M  V30 8522 H 827.655 3.84051 1.60656 0
M  V30 8523 H 828.188 3.97705 -0.0867239 0
M  V30 8524 H 824.927 6.21643 -2.07941 0
M  V30 8525 H 824.447 5.9858 -0.382428 0
M  V30 8526 H 826.126 6.42207 -0.786116 0
M  V30 8527 N 826.258 0.243083 1.55714 0
M  V30 8528 C 827.188 -0.652336 2.24203 0
M  V30 8529 C 828.169 -1.1843 1.221 0
M  V30 8530 O 829.354 -1.22435 1.50743 0
M  V30 8531 C 826.484 -1.85111 2.93856 0
M  V30 8532 C 825.438 -1.45208 4.02615 0
M  V30 8533 C 824.764 -2.73137 4.59674 0
M  V30 8534 C 826.064 -0.625988 5.18535 0
M  V30 8535 H 827.758 -0.0812504 2.9929 0
M  V30 8536 H 825.304 -0.0376388 1.43951 0
M  V30 8537 H 827.257 -2.48314 3.40468 0
M  V30 8538 H 825.981 -2.44751 2.16251 0
M  V30 8539 H 824.64 -0.843406 3.56766 0
M  V30 8540 H 824.288 -3.30967 3.78774 0
M  V30 8541 H 823.988 -2.47163 5.33089 0
M  V30 8542 H 825.512 -3.37245 5.09017 0
M  V30 8543 H 826.926 -1.16223 5.61396 0
M  V30 8544 H 825.323 -0.462465 5.98315 0
M  V30 8545 H 826.393 0.362652 4.83542 0
M  V30 8546 N 827.736 -1.57571 -0.0300757 0
M  V30 8547 C 828.666 -2.0953 -1.03051 0
M  V30 8548 C 829.647 -0.99761 -1.37774 0
M  V30 8549 O 830.832 -1.27279 -1.46676 0
M  V30 8550 C 827.962 -2.57385 -2.33174 0
M  V30 8551 C 826.916 -3.71409 -2.12696 0
M  V30 8552 C 826.242 -4.05467 -3.4857 0
M  V30 8553 C 827.542 -4.99877 -1.51396 0
M  V30 8554 H 829.236 -2.93367 -0.597999 0
M  V30 8555 H 826.782 -1.41127 -0.286203 0
M  V30 8556 H 828.735 -2.92355 -3.03491 0
M  V30 8557 H 827.459 -1.70629 -2.78484 0
M  V30 8558 H 826.118 -3.36786 -1.44813 0
M  V30 8559 H 825.766 -3.15779 -3.91526 0
M  V30 8560 H 825.466 -4.82269 -3.35694 0
M  V30 8561 H 826.99 -4.4297 -4.2025 0
M  V30 8562 H 828.404 -5.3281 -2.11629 0
M  V30 8563 H 826.801 -5.81283 -1.49098 0
M  V30 8564 H 827.871 -4.82522 -0.479676 0
M  V30 8565 N 829.214 0.302327 -1.54673 0
M  V30 8566 C 830.46 1.03924 -1.74149 0
M  V30 8567 C 830.793 1.86968 -0.525041 0
M  V30 8568 O 830.068 1.88538 0.477868 0
M  V30 8569 C 830.351 1.94633 -3.02969 0
M  V30 8570 C 830.204 1.14778 -4.34909 0
M  V30 8571 C 831.523 2.93826 -3.27649 0
M  V30 8572 H 828.642 0.376405 -0.633631 0
M  V30 8573 H 831.284 0.314007 -1.87387 0
M  V30 8574 H 829.434 2.56471 -2.91813 0
M  V30 8575 H 831.106 0.552363 -4.57981 0
M  V30 8576 H 829.349 0.450462 -4.31455 0
M  V30 8577 H 830.02 1.81495 -5.21309 0
M  V30 8578 H 832.496 2.42117 -3.38406 0
M  V30 8579 H 831.372 3.54462 -4.19104 0
M  V30 8580 H 831.633 3.67416 -2.45882 0
M  V30 8581 N 830.692 1.47107 0.565454 0
M  V30 8582 C 831.94 1.53005 1.32038 0
M  V30 8583 C 832.261 0.190453 1.94068 0
M  V30 8584 O 831.531 -0.784783 1.79494 0
M  V30 8585 H 830.111 0.563578 0.490294 0
M  V30 8586 H 832.773 1.83351 0.660928 0
M  V30 8587 H 831.869 2.29215 2.11818 0
M  V30 8588 N 832.17 -0.811516 1.35101 0
M  V30 8589 C 833.416 -1.57068 1.28287 0
M  V30 8590 C 833.749 -1.93667 -0.143808 0
M  V30 8591 O 833.024 -1.60953 -1.09199 0
M  V30 8592 C 833.307 -2.86259 2.18466 0
M  V30 8593 C 833.16 -2.56168 3.69727 0
M  V30 8594 C 834.479 -3.87924 2.07852 0
M  V30 8595 H 831.598 -0.569869 0.467353 0
M  V30 8596 H 834.24 -0.934023 1.65457 0
M  V30 8597 H 832.39 -3.4059 1.86898 0
M  V30 8598 H 834.062 -2.08059 4.11715 0
M  V30 8599 H 832.305 -1.89436 3.90252 0
M  V30 8600 H 832.976 -3.48344 4.28206 0
M  V30 8601 H 835.452 -3.4298 2.35593 0
M  V30 8602 H 834.328 -4.76106 2.73157 0
M  V30 8603 H 834.589 -4.2923 1.05896 0
M  V30 8604 N 833.648 -1.19017 -1.03309 0
M  V30 8605 C 834.578 -0.94772 -2.13402 0
M  V30 8606 C 835.559 0.117383 -1.69694 0
M  V30 8607 O 836.744 -0.0367733 -1.94165 0
M  V30 8608 C 833.874 -0.480977 -3.43953 0
M  V30 8609 C 832.828 -1.48743 -4.01322 0
M  V30 8610 C 832.154 -0.877924 -5.27443 0
M  V30 8611 C 833.454 -2.86642 -4.36616 0
M  V30 8612 H 835.148 -1.86846 -2.33942 0
M  V30 8613 H 832.694 -0.899781 -1.12427 0
M  V30 8614 H 834.647 -0.298677 -4.2034 0
M  V30 8615 H 833.371 0.475348 -3.23122 0
M  V30 8616 H 832.03 -1.65681 -3.27025 0
M  V30 8617 H 831.678 0.0858232 -5.02927 0
M  V30 8618 H 831.378 -1.54996 -5.66789 0
M  V30 8619 H 832.902 -0.706326 -6.06501 0
M  V30 8620 H 834.316 -2.73312 -5.03958 0
M  V30 8621 H 832.713 -3.50599 -4.87032 0
M  V30 8622 H 833.783 -3.39617 -3.46105 0
M  V30 8623 N 835.127 1.22348 -0.993418 0
M  V30 8624 C 836.375 1.90733 -0.668246 0
M  V30 8625 C 836.696 1.77732 0.802261 0
M  V30 8626 O 835.966 1.16486 1.57505 0
M  V30 8627 H 834.546 0.705966 -0.244174 0
M  V30 8628 H 837.208 1.48691 -1.26004 0
M  V30 8629 H 836.304 2.97883 -0.931239 0
M  V30 8630 N 836.605 0.766683 1.37694 0
M  V30 8631 C 837.835 0.339446 2.03792 0
M  V30 8632 C 838.243 -1.04153 1.57952 0
M  V30 8633 O 837.586 -1.67521 0.753826 0
M  V30 8634 C 837.648 0.29822 3.58261 0
M  V30 8635 C 837.312 1.62293 4.27212 0
M  V30 8636 C 838.309 2.57447 4.51682 0
M  V30 8637 C 835.994 1.89597 4.65143 0
M  V30 8638 C 837.988 3.78117 5.13134 0
M  V30 8639 C 835.675 3.10538 5.26317 0
M  V30 8640 C 836.673 4.04617 5.50249 0
M  V30 8641 O 836.361 5.23429 6.10145 0
M  V30 8642 H 836.093 0.140952 0.661142 0
M  V30 8643 H 838.647 1.04022 1.77111 0
M  V30 8644 H 836.877 -0.458897 3.83967 0
M  V30 8645 H 838.566 -0.101263 4.05774 0
M  V30 8646 H 839.332 2.37633 4.22795 0
M  V30 8647 H 835.211 1.17199 4.45854 0
M  V30 8648 H 838.755 4.51563 5.3173 0
M  V30 8649 H 834.652 3.3024 5.54628 0
M  V30 8650 H 835.42 5.24187 6.28626 0
M  V30 8651 N 838.083 -1.48885 0.516809 0
M  V30 8652 C 839.013 -2.32241 -0.242157 0
M  V30 8653 C 839.994 -1.41258 -0.947633 0
M  V30 8654 O 841.179 -1.70156 -0.935973 0
M  V30 8655 C 838.309 -3.22151 -1.29754 0
M  V30 8656 C 837.263 -4.22053 -0.710995 0
M  V30 8657 C 836.589 -5.01007 -1.86806 0
M  V30 8658 C 837.889 -5.21388 0.30853 0
M  V30 8659 H 839.583 -2.95943 0.453651 0
M  V30 8660 H 837.129 -1.42316 0.219612 0
M  V30 8661 H 839.082 -3.79284 -1.83634 0
M  V30 8662 H 837.806 -2.56423 -2.02274 0
M  V30 8663 H 836.465 -3.66087 -0.193819 0
M  V30 8664 H 836.113 -4.31713 -2.58133 0
M  V30 8665 H 835.813 -5.68615 -1.48159 0
M  V30 8666 H 837.337 -5.60989 -2.4109 0
M  V30 8667 H 838.751 -5.73122 -0.142703 0
M  V30 8668 H 837.148 -5.96975 0.611673 0
M  V30 8669 H 838.218 -4.69329 1.21894 0
M  V30 8670 N 839.561 -0.251338 -1.55583 0
M  V30 8671 C 840.809 0.371434 -1.98657 0
M  V30 8672 C 841.13 1.58143 -1.14087 0
M  V30 8673 O 840.4 1.94607 -0.224708 0
M  V30 8674 H 838.98 0.140225 -0.733721 0
M  V30 8675 H 841.642 -0.351157 -1.9171 0
M  V30 8676 H 840.738 0.677554 -3.04657 0
M  V30 8677 N 841.039 1.57585 0.0217189 0
M  V30 8678 C 841.969 2.10073 1.01939 0
M  V30 8679 C 842.95 1.0049 1.37243 0
M  V30 8680 O 844.135 1.28055 1.45999 0
M  V30 8681 C 841.265 2.58618 2.31806 0
M  V30 8682 C 840.219 3.72531 2.10724 0
M  V30 8683 C 839.545 4.07309 3.46415 0
M  V30 8684 C 840.845 5.00672 1.48743 0
M  V30 8685 H 842.539 2.9368 0.582432 0
M  V30 8686 H 840.085 1.41277 0.278715 0
M  V30 8687 H 842.038 2.9396 3.01936 0
M  V30 8688 H 840.762 1.72104 2.77575 0
M  V30 8689 H 839.421 3.37549 1.43025 0
M  V30 8690 H 839.069 3.17851 3.89846 0
M  V30 8691 H 838.769 4.84042 3.33132 0
M  V30 8692 H 840.293 4.45192 4.17895 0
M  V30 8693 H 841.707 5.33925 2.088 0
M  V30 8694 H 840.104 5.82065 1.46013 0
M  V30 8695 H 841.174 4.82769 0.45408 0
M  V30 8696 N 842.517 -0.29412 1.54831 0
M  V30 8697 C 843.465 -1.38296 1.87021 0
M  V30 8698 C 844.459 -1.5216 0.744557 0
M  V30 8699 O 845.665 -1.54196 0.92864 0
M  V30 8700 H 842.04 -0.462088 0.593278 0
M  V30 8701 H 844.011 -1.08386 2.7802 0
M  V30 8702 C 842.76 -2.74024 2.14023 0
M  V30 8703 H 842.083 -2.6414 3.00117 0
M  V30 8704 H 843.523 -3.49205 2.40482 0
M  V30 8705 C 841.982 -3.23492 0.940982 0
M  V30 8706 O 842.512 -4.01361 0.164937 0
M  V30 8707 N 840.718 -2.80902 0.744467 0
M  V30 8708 H 840.265 -2.17694 1.37721 0
M  V30 8709 H 840.223 -3.14349 -0.0563652 0
M  V30 8710 N 843.995 -1.47404 -0.557645 0
M  V30 8711 C 845.411 -1.32913 -0.88353 0
M  V30 8712 C 845.611 -0.31929 -1.98954 0
M  V30 8713 O 844.667 0.26934 -2.51059 0
M  V30 8714 C 845.98 -2.72229 -1.27718 0
M  V30 8715 C 847.528 -2.8051 -1.38863 0
M  V30 8716 C 848.003 -4.20466 -1.81583 0
M  V30 8717 N 849.494 -4.23005 -1.88735 0
M  V30 8718 C 850.229 -5.2821 -2.23118 0
M  V30 8719 N 849.725 -6.4372 -2.56117 0
M  V30 8720 N 851.518 -5.15588 -2.23888 0
M  V30 8721 H 843.669 -2.11698 0.172557 0
M  V30 8722 H 845.932 -0.947889 0.0145334 0
M  V30 8723 H 845.638 -3.47556 -0.538329 0
M  V30 8724 H 845.512 -3.03971 -2.23342 0
M  V30 8725 H 847.899 -2.05457 -2.11829 0
M  V30 8726 H 847.98 -2.52423 -0.414274 0
M  V30 8727 H 847.624 -4.96025 -1.09187 0
M  V30 8728 H 847.554 -4.45977 -2.80021 0
M  V30 8729 H 850.045 -3.39674 -1.65621 0
M  V30 8730 H 850.358 -7.19754 -2.81378 0
M  V30 8731 H 848.703 -6.47041 -2.53698 0
M  V30 8732 H 851.894 -4.24374 -1.97546 0
M  V30 8733 H 852.067 -5.97685 -2.50353 0
M  V30 8734 N 845.473 0.80434 -1.35529 0
M  V30 8735 C 846.436 1.89788 -1.28503 0
M  V30 8736 C 847.436 1.59601 -0.195983 0
M  V30 8737 O 848.626 1.68292 -0.449827 0
M  V30 8738 C 845.758 3.26255 -0.98847 0
M  V30 8739 H 846.951 1.97436 -2.25741 0
M  V30 8740 H 844.504 1.00046 -1.20086 0
M  V30 8741 H 845.239 3.24294 -0.0200541 0
M  V30 8742 H 845.024 3.49551 -1.77641 0
M  V30 8743 H 846.514 4.06298 -0.964975 0
M  V30 8744 N 846.951 1.19563 1.02676 0
M  V30 8745 C 847.914 0.937182 2.09164 0
M  V30 8746 C 848.914 -0.0831927 1.60585 0
M  V30 8747 O 850.104 0.15178 1.73538 0
M  V30 8748 C 847.236 0.408912 3.38439 0
M  V30 8749 H 848.429 1.88164 2.33526 0
M  V30 8750 H 845.982 1.00959 1.19319 0
M  V30 8751 H 846.717 -0.541497 3.19747 0
M  V30 8752 H 846.502 1.14464 3.7502 0
M  V30 8753 H 847.992 0.247242 4.16867 0
M  V30 8754 N 848.429 -1.21819 0.999893 0
M  V30 8755 C 849.845 -1.42847 0.711824 0
M  V30 8756 C 850.045 -1.88391 -0.714928 0
M  V30 8757 O 849.101 -2.0422 -1.48494 0
M  V30 8758 C 850.414 -2.46417 1.72334 0
M  V30 8759 C 851.962 -2.60207 1.73958 0
M  V30 8760 C 852.437 -3.67005 2.73992 0
M  V30 8761 N 853.928 -3.7447 2.72628 0
M  V30 8762 C 854.663 -4.56718 3.46693 0
M  V30 8763 N 854.159 -5.42904 4.3038 0
M  V30 8764 N 855.952 -4.51094 3.35366 0
M  V30 8765 H 848.103 -0.905656 1.92124 0
M  V30 8766 H 850.366 -0.459893 0.828977 0
M  V30 8767 H 850.072 -2.19914 2.74465 0
M  V30 8768 H 849.946 -3.45137 1.52186 0
M  V30 8769 H 852.333 -2.8605 0.725217 0
M  V30 8770 H 852.414 -1.61739 1.98177 0
M  V30 8771 H 852.058 -3.41908 3.75582 0
M  V30 8772 H 851.988 -4.65058 2.4704 0
M  V30 8773 H 854.479 -3.12895 2.11909 0
M  V30 8774 H 854.792 -6.02704 4.83702 0
M  V30 8775 H 853.137 -5.42463 4.34464 0
M  V30 8776 H 856.328 -3.82791 2.69423 0
M  V30 8777 H 856.501 -5.1496 3.93344 0
M  V30 8778 N 849.908 -0.773975 -1.37286 0
M  V30 8779 C 850.858 -0.135245 -2.27599 0
M  V30 8780 C 851.842 0.671691 -1.46209 0
M  V30 8781 O 853.034 0.534299 -1.68743 0
M  V30 8782 C 850.163 0.741298 -3.35201 0
M  V30 8783 C 849.249 -0.0735896 -4.24036 0
M  V30 8784 N 849.64 -1.12035 -4.93236 0
M  V30 8785 C 847.938 0.150038 -4.45748 0
M  V30 8786 C 848.639 -1.61512 -5.58828 0
M  V30 8787 N 847.615 -0.926922 -5.35639 0
M  V30 8788 H 851.417 -0.936646 -2.78575 0
M  V30 8789 H 848.931 -0.611944 -1.50429 0
M  V30 8790 H 850.928 1.21468 -3.98812 0
M  V30 8791 H 849.588 1.54142 -2.8578 0
M  V30 8792 H 850.599 -1.50253 -4.95625 0
M  V30 8793 H 847.276 0.921891 -4.07195 0
M  V30 8794 H 848.666 -2.48818 -6.24131 0
M  V30 8795 N 851.386 1.48609 -0.524698 0
M  V30 8796 C 852.316 2.32366 0.229837 0
M  V30 8797 C 853.297 1.41759 0.940129 0
M  V30 8798 O 854.482 1.7065 0.926936 0
M  V30 8799 C 851.612 3.22835 1.28043 0
M  V30 8800 C 850.566 4.22424 0.688603 0
M  V30 8801 C 849.892 5.0199 1.84146 0
M  V30 8802 C 851.192 5.21217 -0.336176 0
M  V30 8803 H 852.886 2.95698 -0.469339 0
M  V30 8804 H 850.432 1.42197 -0.227156 0
M  V30 8805 H 852.385 3.80253 1.8162 0
M  V30 8806 H 851.109 2.57492 2.00912 0
M  V30 8807 H 849.768 3.66185 0.174402 0
M  V30 8808 H 849.416 4.33076 2.5584 0
M  V30 8809 H 849.116 5.69392 1.45142 0
M  V30 8810 H 850.64 5.62259 2.38111 0
M  V30 8811 H 852.054 5.7319 0.112307 0
M  V30 8812 H 850.451 5.96642 -0.643324 0
M  V30 8813 H 851.521 4.68676 -1.24381 0
M  V30 8814 N 852.864 0.259585 1.55447 0
M  V30 8815 C 854.104 -0.362989 2.01151 0
M  V30 8816 C 854.468 -1.54201 1.14394 0
M  V30 8817 O 855.669 -2.23318 1.49608 0
M  V30 8818 C 853.94 -0.750399 3.49434 0
M  V30 8819 S 855.499 -1.3617 4.17137 0
M  V30 8820 H 852.317 -0.11365 0.701858 0
M  V30 8821 H 854.919 0.377788 1.91815 0
M  V30 8822 H 853.623 0.116807 4.10234 0
M  V30 8823 H 853.154 -1.52303 3.62722 0
M  V30 8824 H 855.169 -2.65059 4.19474 0
M  V30 8825 N 854.342 -1.57594 -0.0133615 0
M  V30 8826 C 855.753 -1.78168 -0.557937 0
M  V30 8827 C 856.104 -0.892616 -1.74719 0
M  V30 8828 O 855.229 -0.0915491 -2.16206 0
M  V30 8829 C 855.824 -3.23115 -1.01894 0
M  V30 8830 C 854.383 -3.44831 -1.50892 0
M  V30 8831 C 853.53 -2.73558 -0.454044 0
M  V30 8832 H 856.481 -1.57266 0.212843 0
M  V30 8833 H 856.502 -3.30493 -1.8856 0
M  V30 8834 H 856.014 -3.87798 -0.153175 0
M  V30 8835 H 854.115 -2.85345 -2.39602 0
M  V30 8836 H 854.228 -4.53485 -1.54559 0
M  V30 8837 H 852.592 -2.37787 -0.912666 0
M  V30 8838 H 853.375 -3.40932 0.402524 0
M  V30 8839 N 855.82 0.285905 -1.54985 0
M  V30 8840 C 857.231 0.857869 -1.65824 0
M  V30 8841 C 857.582 1.87531 -0.576763 0
M  V30 8842 O 856.707 2.14528 0.284016 0
M  V30 8843 C 857.302 1.56277 -3.00604 0
M  V30 8844 C 855.861 2.08294 -3.13513 0
M  V30 8845 C 855.008 0.920633 -2.61571 0
M  V30 8846 H 857.959 0.0625463 -1.58577 0
M  V30 8847 H 857.98 2.42912 -2.92872 0
M  V30 8848 H 857.492 0.822017 -3.79295 0
M  V30 8849 H 855.593 2.8537 -2.39572 0
M  V30 8850 H 855.706 2.3071 -4.19892 0
M  V30 8851 H 854.07 1.31043 -2.18403 0
M  V30 8852 H 854.853 0.193594 -3.42754 0
M  V30 8853 N 857.298 1.47698 0.54982 0
M  V30 8854 C 858.228 1.63622 1.66583 0
M  V30 8855 C 859.209 0.485477 1.63025 0
M  V30 8856 O 860.394 0.715692 1.80531 0
M  V30 8857 C 857.524 1.65721 3.05211 0
M  V30 8858 C 856.478 2.80097 3.2362 0
M  V30 8859 C 855.804 2.67272 4.63109 0
M  V30 8860 C 857.104 4.21612 3.08286 0
M  V30 8861 H 858.798 2.57049 1.53512 0
M  V30 8862 H 856.344 1.23705 0.737099 0
M  V30 8863 H 858.297 1.75451 3.83138 0
M  V30 8864 H 857.021 0.688593 3.19258 0
M  V30 8865 H 855.68 2.69889 2.48104 0
M  V30 8866 H 855.328 1.68422 4.73965 0
M  V30 8867 H 855.028 3.44008 4.76374 0
M  V30 8868 H 856.552 2.78942 5.43161 0
M  V30 8869 H 857.966 4.32758 3.76024 0
M  V30 8870 H 856.363 4.99193 3.33057 0
M  V30 8871 H 857.433 4.39462 2.04942 0
M  V30 8872 N 858.776 -0.797141 1.35954 0
M  V30 8873 C 860.187 -1.37179 1.26644 0
M  V30 8874 C 860.538 -1.9596 -0.0971046 0
M  V30 8875 O 859.663 -1.91994 -0.998355 0
M  V30 8876 C 860.258 -2.49395 2.2932 0
M  V30 8877 C 858.817 -3.02697 2.23722 0
M  V30 8878 C 857.964 -1.75721 2.14517 0
M  V30 8879 H 860.915 -0.599407 1.46945 0
M  V30 8880 H 860.936 -3.28204 1.92515 0
M  V30 8881 H 860.448 -2.06584 3.2855 0
M  V30 8882 H 858.549 -3.49948 1.27934 0
M  V30 8883 H 858.662 -3.60036 3.16087 0
M  V30 8884 H 857.026 -1.97649 1.60646 0
M  V30 8885 H 857.809 -1.35049 3.15621 0
M  V30 8886 N 860.254 -1.20106 -1.0204 0
M  V30 8887 C 861.482 -1.0344 -1.79186 0
M  V30 8888 C 861.897 0.416542 -1.84148 0
M  V30 8889 O 861.254 1.28925 -1.29168 0
M  V30 8890 C 861.305 -1.60663 -3.23836 0
M  V30 8891 O 861.026 -3.00079 -3.19193 0
M  V30 8892 C 862.527 -1.48897 -4.17546 0
M  V30 8893 H 859.747 -0.364093 -0.563629 0
M  V30 8894 H 862.291 -1.5911 -1.28469 0
M  V30 8895 H 860.446 -1.09122 -3.71714 0
M  V30 8896 H 860.86 -3.27162 -4.09958 0
M  V30 8897 H 862.334 -1.93703 -5.16898 0
M  V30 8898 H 862.811 -0.440843 -4.36982 0
M  V30 8899 H 863.417 -1.9961 -3.75547 0
M  V30 8900 N 861.732 1.21287 -1.00634 0
M  V30 8901 C 863.143 1.72136 -0.722914 0
M  V30 8902 C 863.494 1.8091 0.759338 0
M  V30 8903 O 862.619 1.46458 1.59308 0
M  V30 8904 C 863.214 3.12633 -1.30561 0
M  V30 8905 C 861.773 3.60833 -1.07127 0
M  V30 8906 C 860.92 2.38326 -1.4176 0
M  V30 8907 H 863.871 1.06445 -1.17708 0
M  V30 8908 H 863.892 3.74174 -0.690937 0
M  V30 8909 H 863.404 3.06215 -2.38441 0
M  V30 8910 H 861.505 3.72599 -0.00968671 0
M  V30 8911 H 861.618 4.46226 -1.74411 0
M  V30 8912 H 859.982 2.40575 -0.836412 0
M  V30 8913 H 860.765 2.34558 -2.50674 0
M  V30 8914 N 863.21 0.781244 1.36873 0
M  V30 8915 C 864.45 0.355185 2.0129 0
M  V30 8916 C 864.814 -1.05115 1.6067 0
M  V30 8917 O 866.015 -1.57785 2.17618 0
M  V30 8918 C 864.286 0.504587 3.5382 0
M  V30 8919 S 865.845 0.165196 4.38489 0
M  V30 8920 H 862.663 0.136133 0.697846 0
M  V30 8921 H 865.265 1.01794 1.66908 0
M  V30 8922 H 863.969 1.52857 3.80871 0
M  V30 8923 H 863.5 -0.174392 3.93013 0
M  V30 8924 H 865.515 -1.03605 4.85263 0
M  V30 8925 N 864.689 -1.48329 0.532571 0
M  V30 8926 C 865.652 -2.2816 -0.218069 0
M  V30 8927 C 866.652 -1.35526 -0.865409 0
M  V30 8928 O 867.842 -1.58394 -0.725061 0
M  V30 8929 C 864.974 -3.1448 -1.31586 0
M  V30 8930 H 866.167 -2.95987 0.482865 0
M  V30 8931 H 863.72 -1.53612 0.288603 0
M  V30 8932 H 864.455 -2.5129 -2.04997 0
M  V30 8933 H 864.24 -3.82625 -0.856779 0
M  V30 8934 H 865.73 -3.74693 -1.84377 0
M  V30 8935 N 866.167 -0.267825 -1.55308 0
M  V30 8936 C 867.392 0.357487 -2.04296 0
M  V30 8937 C 867.817 1.49222 -1.14518 0
M  V30 8938 O 867.175 1.80741 -0.142292 0
M  V30 8939 C 867.223 0.822899 -3.51085 0
M  V30 8940 O 866.327 1.93078 -3.6441 0
M  V30 8941 H 865.668 0.075025 -0.659748 0
M  V30 8942 H 868.198 -0.399996 -2.00652 0
M  V30 8943 H 868.208 1.12059 -3.92309 0
M  V30 8944 H 866.883 -0.0073562 -4.15899 0
M  V30 8945 H 865.46 1.63618 -3.35087 0
M  V30 8946 N 867.645 1.57599 0.00500368 0
M  V30 8947 C 868.87 1.95026 0.705663 0
M  V30 8948 C 869.295 0.869643 1.6679 0
M  V30 8949 O 868.653 -0.172659 1.80476 0
M  V30 8950 C 868.701 3.31545 1.4181 0
M  V30 8951 O 867.805 3.25495 2.53232 0
M  V30 8952 H 867.146 0.636808 0.188074 0
M  V30 8953 H 869.676 2.04547 -0.046696 0
M  V30 8954 H 869.686 3.66996 1.78265 0
M  V30 8955 H 868.361 4.09751 0.712543 0
M  V30 8956 H 866.938 3.01714 2.19142 0
M  V30 8957 N 869.123 -0.277682 1.55134 0
M  V30 8958 C 870.086 -1.32635 1.86924 0
M  V30 8959 C 871.086 -1.42578 0.743507 0
M  V30 8960 O 872.276 -1.4181 1.01171 0
M  V30 8961 C 869.408 -2.70832 2.07034 0
M  V30 8962 H 870.601 -1.0568 2.80663 0
M  V30 8963 H 868.154 -0.515517 1.47554 0
M  V30 8964 H 868.889 -3.02974 1.15661 0
M  V30 8965 H 868.674 -2.65001 2.88993 0
M  V30 8966 H 870.164 -3.46611 2.32918 0
M  V30 8967 N 870.601 -1.47988 -0.541979 0
M  V30 8968 C 871.85 -1.5465 -1.29485 0
M  V30 8969 C 872.163 -0.220041 -1.94358 0
M  V30 8970 O 873.369 -0.164792 -2.70999 0
M  V30 8971 C 871.825 -2.72685 -2.34885 0
M  V30 8972 C 871.433 -4.11923 -1.76134 0
M  V30 8973 C 873.177 -2.88651 -3.11257 0
M  V30 8974 C 871.084 -5.21237 -2.79404 0
M  V30 8975 H 870.014 -0.575688 -0.486928 0
M  V30 8976 H 872.665 -1.74296 -0.573853 0
M  V30 8977 H 871.047 -2.46448 -3.09966 0
M  V30 8978 H 872.221 -4.48128 -1.07322 0
M  V30 8979 H 870.536 -4.00972 -1.12295 0
M  V30 8980 H 873.133 -3.67487 -3.88404 0
M  V30 8981 H 873.476 -1.97658 -3.66384 0
M  V30 8982 H 874.009 -3.14731 -2.43288 0
M  V30 8983 H 870.748 -6.14156 -2.29113 0
M  V30 8984 H 870.268 -4.89533 -3.4658 0
M  V30 8985 H 871.947 -5.48839 -3.42615 0
M  V30 8986 N 872.079 0.78992 -1.36375 0
M  V30 8987 C 872.989 1.93386 -1.32812 0
M  V30 8988 C 874.005 1.72468 -0.230377 0
M  V30 8989 O 875.181 1.96014 -0.462657 0
M  V30 8990 C 872.246 3.2824 -1.11621 0
M  V30 8991 C 871.307 3.61939 -2.30865 0
M  V30 8992 C 870.54 4.90359 -2.10675 0
M  V30 8993 O 870.763 5.6005 -1.08168 0
M  V30 8994 O 869.697 5.22702 -2.9844 0
M  V30 8995 H 873.523 1.99342 -2.29121 0
M  V30 8996 H 871.108 0.9301 -1.16917 0
M  V30 8997 H 872.99 4.08939 -1.01719 0
M  V30 8998 H 871.665 3.23178 -0.183732 0
M  V30 8999 H 870.572 2.81549 -2.46335 0
M  V30 9000 H 871.905 3.71725 -3.22617 0
M  V30 9001 N 873.557 1.20646 1.01402 0
M  V30 9002 C 874.804 1.01819 1.7504 0
M  V30 9003 C 875.132 -0.449386 1.89237 0
M  V30 9004 O 874.387 -1.34985 1.41695 0
M  V30 9005 C 874.686 1.64991 3.17037 0
M  V30 9006 C 874.352 3.14808 3.22811 0
M  V30 9007 C 873.014 3.55692 3.24094 0
M  V30 9008 C 875.366 4.108 3.2077 0
M  V30 9009 C 872.694 4.9109 3.2101 0
M  V30 9010 C 875.046 5.46147 3.19227 0
M  V30 9011 C 873.71 5.86441 3.18815 0
M  V30 9012 H 872.98 0.372582 0.640518 0
M  V30 9013 H 875.627 1.50108 1.18911 0
M  V30 9014 H 873.932 1.08971 3.76341 0
M  V30 9015 H 875.629 1.47937 3.72714 0
M  V30 9016 H 872.219 2.8224 3.2255 0
M  V30 9017 H 876.403 3.80246 3.18946 0
M  V30 9018 H 871.659 5.21569 3.19023 0
M  V30 9019 H 875.833 6.20272 3.166 0
M  V30 9020 H 873.46 6.91328 3.16179 0
M  V30 9021 N 875.035 -1.20752 1.01276 0
M  V30 9022 C 876.446 -1.7175 0.732033 0
M  V30 9023 C 876.797 -1.8131 -0.749733 0
M  V30 9024 O 875.922 -1.47301 -1.58529 0
M  V30 9025 C 876.517 -3.11936 1.32217 0
M  V30 9026 C 875.076 -3.6026 1.09039 0
M  V30 9027 C 874.223 -2.37571 1.43022 0
M  V30 9028 H 877.174 -1.0582 1.1827 0
M  V30 9029 H 877.195 -3.73802 0.710771 0
M  V30 9030 H 876.707 -3.04946 2.40061 0
M  V30 9031 H 874.808 -3.72588 0.0294464 0
M  V30 9032 H 874.921 -4.45295 1.76775 0
M  V30 9033 H 873.285 -2.40128 0.849159 0
M  V30 9034 H 874.068 -2.33225 2.51915 0
M  V30 9035 N 876.513 -0.788492 -1.36457 0
M  V30 9036 C 877.761 -0.359749 -1.98872 0
M  V30 9037 C 878.082 1.07197 -1.62892 0
M  V30 9038 O 877.352 1.73875 -0.902463 0
M  V30 9039 H 875.932 -0.130029 -0.735596 0
M  V30 9040 H 878.594 -1.01033 -1.66668 0
M  V30 9041 H 877.69 -0.450835 -3.08827 0
M  V30 9042 N 877.991 1.48044 -0.54043 0
M  V30 9043 C 879.239 2.02097 -0.0101367 0
M  V30 9044 C 879.56 1.41881 1.33771 0
M  V30 9045 O 878.83 0.587923 1.8687 0
M  V30 9046 H 877.41 0.747 -0.000758716 0
M  V30 9047 H 880.072 1.81639 -0.706634 0
M  V30 9048 H 879.168 3.11969 0.0904474 0
M  V30 9049 N 879.47 0.276058 1.55163 0
M  V30 9050 C 880.417 -0.611006 2.22565 0
M  V30 9051 C 881.387 -1.14902 1.19945 0
M  V30 9052 O 882.572 -1.19815 1.48489 0
M  V30 9053 C 879.712 -1.78885 2.95117 0
M  V30 9054 C 878.825 -1.2846 4.12458 0
M  V30 9055 C 877.96 -2.42432 4.72652 0
M  V30 9056 C 876.999 -1.89015 5.82185 0
M  V30 9057 N 876.136 -2.96463 6.36439 0
M  V30 9058 H 880.976 -0.0295849 2.97985 0
M  V30 9059 H 878.513 -0.00283607 1.471 0
M  V30 9060 H 880.471 -2.48121 3.35398 0
M  V30 9061 H 879.101 -2.34229 2.22119 0
M  V30 9062 H 878.153 -0.485312 3.77292 0
M  V30 9063 H 879.465 -0.853358 4.91446 0
M  V30 9064 H 878.619 -3.19659 5.15658 0
M  V30 9065 H 877.358 -2.88872 3.92943 0
M  V30 9066 H 876.363 -1.10267 5.38629 0
M  V30 9067 H 877.588 -1.43509 6.63763 0
M  V30 9068 H 875.534 -3.42283 5.59623 0
M  V30 9069 H 875.451 -2.57759 7.10701 0
M  V30 9070 H 876.719 -3.73663 6.84103 0
M  V30 9071 N 880.948 -1.576 0.00335426 0
M  V30 9072 C 881.858 -2.12067 -1.00322 0
M  V30 9073 C 882.874 -1.06672 -1.37467 0
M  V30 9074 O 884.05 -1.38592 -1.46131 0
M  V30 9075 C 881.115 -2.61593 -2.27531 0
M  V30 9076 C 880.176 -3.81602 -1.96668 0
M  V30 9077 C 879.409 -4.28756 -3.17811 0
M  V30 9078 O 879.632 -3.75222 -4.2961 0
M  V30 9079 O 878.566 -5.20877 -3.01613 0
M  V30 9080 H 882.392 -2.98299 -0.570199 0
M  V30 9081 H 879.977 -1.47835 -0.215682 0
M  V30 9082 H 881.859 -2.93631 -3.02256 0
M  V30 9083 H 880.534 -1.78457 -2.70065 0
M  V30 9084 H 879.441 -3.54531 -1.19408 0
M  V30 9085 H 880.774 -4.65822 -1.58968 0
M  V30 9086 N 882.426 0.269451 -1.5528 0
M  V30 9087 C 883.654 1.01872 -1.80082 0
M  V30 9088 C 884.069 1.79802 -0.575917 0
M  V30 9089 O 883.426 1.76735 0.455081 0
M  V30 9090 C 883.477 1.9745 -3.02813 0
M  V30 9091 O 883.198 1.22677 -4.20573 0
M  V30 9092 C 884.699 2.8416 -3.40247 0
M  V30 9093 H 881.919 0.300781 -0.59981 0
M  V30 9094 H 884.463 0.29916 -2.023 0
M  V30 9095 H 882.618 2.64864 -2.82712 0
M  V30 9096 H 883.032 1.87129 -4.89982 0
M  V30 9097 H 884.506 3.47014 -4.29284 0
M  V30 9098 H 884.983 3.54113 -2.59809 0
M  V30 9099 H 885.589 2.22232 -3.6262 0
M  V30 9100 N 883.904 1.48273 0.534124 0
M  V30 9101 C 885.15 1.5729 1.28963 0
M  V30 9102 C 885.505 0.241854 1.90874 0
M  V30 9103 O 884.798 -0.754874 1.76103 0
M  V30 9104 C 884.992 2.64468 2.40398 0
M  V30 9105 C 884.821 4.07865 1.8941 0
M  V30 9106 C 883.591 4.75052 1.72202 0
M  V30 9107 C 885.789 4.94163 1.42505 0
M  V30 9108 N 883.771 6.0288 1.15795 0
M  V30 9109 C 885.142 6.12203 0.980176 0
M  V30 9110 C 887.197 4.8042 1.30769 0
M  V30 9111 C 885.9 7.18016 0.429591 0
M  V30 9112 C 887.926 5.86351 0.771107 0
M  V30 9113 C 887.288 7.03597 0.336287 0
M  V30 9114 H 883.387 0.630141 0.463083 0
M  V30 9115 H 885.971 1.85135 0.602767 0
M  V30 9116 H 884.142 2.38453 3.06586 0
M  V30 9117 H 885.874 2.63194 3.07426 0
M  V30 9118 H 882.629 4.3132 1.95603 0
M  V30 9119 H 883.053 6.71043 0.896141 0
M  V30 9120 H 887.695 3.90119 1.62993 0
M  V30 9121 H 885.413 8.08044 0.0950224 0
M  V30 9122 H 888.999 5.77771 0.68354 0
M  V30 9123 H 887.879 7.84167 -0.0724668 0
M  V30 9124 N 885.382 -0.782676 1.36792 0
M  V30 9125 C 886.314 -1.9044 1.27536 0
M  V30 9126 C 887.327 -1.61647 0.193426 0
M  V30 9127 O 888.516 -1.72769 0.448692 0
M  V30 9128 C 885.616 -3.2541 0.946641 0
M  V30 9129 C 884.789 -3.81932 2.13183 0
M  V30 9130 C 883.848 -4.95355 1.7751 0
M  V30 9131 O 882.874 -5.11517 2.49678 0
M  V30 9132 N 884.076 -5.76108 0.712755 0
M  V30 9133 H 886.841 -1.98899 2.24186 0
M  V30 9134 H 884.402 -0.96127 1.30274 0
M  V30 9135 H 886.394 -3.98791 0.689043 0
M  V30 9136 H 884.964 -3.12524 0.0690591 0
M  V30 9137 H 884.184 -3.00459 2.55183 0
M  V30 9138 H 885.472 -4.16426 2.92347 0
M  V30 9139 H 884.87 -5.65586 0.113662 0
M  V30 9140 H 883.427 -6.49762 0.514995 0
M  V30 9141 N 886.86 -1.21182 -1.00761 0
M  V30 9142 C 888.106 -1.03903 -1.74859 0
M  V30 9143 C 888.461 0.423347 -1.87685 0
M  V30 9144 O 887.754 1.31001 -1.39819 0
M  V30 9145 C 887.948 -1.6667 -3.16158 0
M  V30 9146 C 887.777 -3.1886 -3.1711 0
M  V30 9147 C 886.547 -3.87888 -3.23838 0
M  V30 9148 C 888.745 -4.15978 -3.02434 0
M  V30 9149 N 886.727 -5.27289 -3.14388 0
M  V30 9150 C 888.098 -5.42114 -3.00854 0
M  V30 9151 C 890.153 -4.0706 -2.86717 0
M  V30 9152 C 888.856 -6.60358 -2.85166 0
M  V30 9153 C 890.882 -5.24938 -2.72386 0
M  V30 9154 C 890.244 -6.49983 -2.71479 0
M  V30 9155 H 886.343 -0.434522 -0.650165 0
M  V30 9156 H 888.927 -1.53495 -1.1978 0
M  V30 9157 H 887.098 -1.19649 -3.69511 0
M  V30 9158 H 888.83 -1.42622 -3.78736 0
M  V30 9159 H 885.585 -3.38798 -3.30927 0
M  V30 9160 H 886.009 -6.00293 -3.13013 0
M  V30 9161 H 890.651 -3.11183 -2.86226 0
M  V30 9162 H 888.369 -7.56399 -2.84405 0
M  V30 9163 H 891.955 -5.19857 -2.61228 0
M  V30 9164 H 890.835 -7.39662 -2.6052 0
M  V30 9165 N 888.338 1.20213 -1.01915 0
M  V30 9166 C 889.587 1.88968 -0.705261 0
M  V30 9167 C 889.9 1.79869 0.768531 0
M  V30 9168 O 891.106 2.43783 1.19508 0
M  V30 9169 C 889.562 3.38911 -1.21109 0
M  V30 9170 C 889.17 3.5659 -2.71197 0
M  V30 9171 C 890.914 4.13204 -0.97275 0
M  V30 9172 C 888.821 5.00372 -3.15248 0
M  V30 9173 H 887.751 0.707715 -0.260107 0
M  V30 9174 H 890.402 1.35977 -1.23217 0
M  V30 9175 H 888.784 3.9124 -0.612152 0
M  V30 9176 H 889.958 3.14635 -3.36662 0
M  V30 9177 H 888.273 2.95671 -2.93202 0
M  V30 9178 H 890.87 5.19221 -1.27726 0
M  V30 9179 H 891.213 4.16201 0.09072 0
M  V30 9180 H 891.746 3.66983 -1.5352 0
M  V30 9181 H 888.485 5.02532 -4.20882 0
M  V30 9182 H 888.005 5.43127 -2.54505 0
M  V30 9183 H 889.684 5.68969 -3.08032 0
M  V30 9184 N 889.816 0.795718 1.36037 0
M  V30 9185 C 890.764 0.18649 2.31851 0
M  V30 9186 C 891.758 -0.657704 1.56111 0
M  V30 9187 O 892.964 -0.552083 1.71324 0
M  V30 9188 H 889.339 0.0415363 0.750852 0
M  V30 9189 H 891.31 1.00992 2.8079 0
M  V30 9190 C 890.059 -0.65918 3.41394 0
M  V30 9191 H 889.382 -0.01894 3.99796 0
M  V30 9192 H 890.822 -1.05202 4.10741 0
M  V30 9193 C 889.281 -1.82011 2.83502 0
M  V30 9194 O 889.811 -2.91703 2.76174 0
M  V30 9195 N 888.017 -1.62821 2.40703 0
M  V30 9196 H 887.564 -0.735965 2.46863 0
M  V30 9197 H 887.522 -2.40657 2.02316 0
M  V30 9198 N 891.294 -1.47756 0.548274 0
M  V30 9199 C 892.705 -1.8636 0.112547 0
M  V30 9200 C 893.056 -1.45589 -1.31523 0
M  V30 9201 O 892.181 -0.854874 -1.98799 0
M  V30 9202 C 892.776 -3.38224 0.197473 0
M  V30 9203 C 891.335 -3.75954 -0.183163 0
M  V30 9204 C 890.482 -2.7181 0.549059 0
M  V30 9205 H 893.433 -1.394 0.758506 0
M  V30 9206 H 893.454 -3.75957 -0.586217 0
M  V30 9207 H 892.966 -3.67868 1.23673 0
M  V30 9208 H 891.067 -3.51926 -1.22387 0
M  V30 9209 H 891.18 -4.78801 0.169178 0
M  V30 9210 H 889.544 -2.54699 -0.00682862 0
M  V30 9211 H 890.327 -3.04296 1.5893 0
M  V30 9212 N 892.772 -0.284283 -1.55015 0
M  V30 9213 C 894.018 0.330352 -2.00091 0
M  V30 9214 C 894.351 1.54814 -1.17244 0
M  V30 9215 O 893.626 1.92954 -0.244753 0
M  V30 9216 C 893.909 0.703492 -3.53161 0
M  V30 9217 C 893.762 -0.522275 -4.46758 0
M  V30 9218 C 895.081 1.53645 -4.12409 0
M  V30 9219 H 892.2 0.118599 -0.727395 0
M  V30 9220 H 894.842 -0.393054 -1.8589 0
M  V30 9221 H 892.992 1.31983 -3.65394 0
M  V30 9222 H 894.664 -1.16082 -4.46456 0
M  V30 9223 H 892.907 -1.15865 -4.1804 0
M  V30 9224 H 893.578 -0.217295 -5.51572 0
M  V30 9225 H 896.054 1.01583 -4.0351 0
M  V30 9226 H 894.93 1.76633 -5.19704 0
M  V30 9227 H 895.191 2.5204 -3.63219 0
M  V30 9228 N 894.251 1.57596 -0.0117121 0
M  V30 9229 C 895.528 1.82323 0.708356 0
M  V30 9230 C 895.908 0.891947 1.91331 0
M  V30 9231 O 895.256 -0.0565984 2.2843 0
M  V30 9232 C 895.466 3.31111 1.10303 0
M  V30 9233 C 896.814 3.97147 1.50199 0
M  V30 9234 O 897.838 3.35503 1.1965 0
M  V30 9235 O 896.697 5.0576 2.07049 0
M  V30 9236 H 893.791 0.751173 0.345931 0
M  V30 9237 H 896.337 1.69657 -0.0380632 0
M  V30 9238 H 895.109 3.90534 0.24467 0
M  V30 9239 H 894.732 3.48818 1.90818 0
M  V30 9240 N 895.729 -0.261212 1.5542 0
M  V30 9241 C 896.976 -0.99123 1.76581 0
M  V30 9242 C 897.304 -1.85854 0.573457 0
M  V30 9243 O 896.559 -1.90604 -0.443705 0
M  V30 9244 C 896.858 -1.89395 3.03091 0
M  V30 9245 C 896.524 -1.18318 4.351 0
M  V30 9246 C 895.186 -0.986688 4.70975 0
M  V30 9247 C 897.538 -0.678299 5.16767 0
M  V30 9248 C 894.866 -0.272788 5.86065 0
M  V30 9249 C 897.218 0.0220646 6.32596 0
M  V30 9250 C 895.882 0.230161 6.67103 0
M  V30 9251 H 895.152 -0.362717 0.646156 0
M  V30 9252 H 897.799 -0.262506 1.89692 0
M  V30 9253 H 896.104 -2.68927 2.8493 0
M  V30 9254 H 897.801 -2.46022 3.16661 0
M  V30 9255 H 894.391 -1.34625 4.06908 0
M  V30 9256 H 898.575 -0.817691 4.89518 0
M  V30 9257 H 893.831 -0.10095 6.11317 0
M  V30 9258 H 898.005 0.420981 6.95126 0
M  V30 9259 H 895.632 0.785312 7.56133 0
M  V30 9260 N 897.207 -1.48554 -0.526253 0
M  V30 9261 C 898.139 -1.59446 -1.6465 0
M  V30 9262 C 899.152 -0.478525 -1.55608 0
M  V30 9263 O 900.341 -0.74953 -1.62001 0
M  V30 9264 C 897.441 -1.51164 -3.03319 0
M  V30 9265 C 896.614 -2.77861 -3.37805 0
M  V30 9266 C 895.673 -2.62982 -4.5577 0
M  V30 9267 O 894.699 -3.36876 -4.58806 0
M  V30 9268 N 895.901 -1.72847 -5.5417 0
M  V30 9269 H 898.666 -2.56055 -1.55743 0
M  V30 9270 H 896.227 -1.45325 -0.713606 0
M  V30 9271 H 898.219 -1.389 -3.80117 0
M  V30 9272 H 896.789 -0.625147 -3.06285 0
M  V30 9273 H 896.009 -3.04663 -2.50149 0
M  V30 9274 H 897.297 -3.61908 -3.57632 0
M  V30 9275 H 896.695 -1.12022 -5.54498 0
M  V30 9276 H 895.252 -1.6652 -6.3017 0
M  V30 9277 N 898.685 0.775411 -1.37205 0
M  V30 9278 C 899.595 1.91967 -1.34855 0
M  V30 9279 C 900.611 1.72214 -0.248656 0
M  V30 9280 O 901.787 1.95512 -0.483421 0
M  V30 9281 C 898.852 3.27038 -1.15096 0
M  V30 9282 C 897.913 3.5947 -2.34691 0
M  V30 9283 C 897.146 4.88097 -2.15865 0
M  V30 9284 O 897.369 5.58871 -1.14102 0
M  V30 9285 O 896.303 5.19507 -3.03967 0
M  V30 9286 H 900.129 1.969 -2.31223 0
M  V30 9287 H 897.714 0.917647 -1.17897 0
M  V30 9288 H 899.596 4.07837 -1.0605 0
M  V30 9289 H 898.271 3.22965 -0.217999 0
M  V30 9290 H 897.178 2.7892 -2.49308 0
M  V30 9291 H 898.511 3.68282 -3.26541 0
M  V30 9292 N 900.163 1.21714 1.00117 0
M  V30 9293 C 901.073 0.99597 2.12409 0
M  V30 9294 C 902.089 -0.0531431 1.73919 0
M  V30 9295 O 903.265 0.137757 2.00928 0
M  V30 9296 C 900.33 0.567593 3.42022 0
M  V30 9297 C 899.391 1.68936 3.94663 0
M  V30 9298 C 898.624 1.28133 5.1809 0
M  V30 9299 O 898.847 0.156574 5.70185 0
M  V30 9300 O 897.781 2.0947 5.64275 0
M  V30 9301 H 901.607 1.93657 2.33946 0
M  V30 9302 H 899.192 1.00236 1.10784 0
M  V30 9303 H 901.074 0.338664 4.20037 0
M  V30 9304 H 899.749 -0.34424 3.21864 0
M  V30 9305 H 898.656 1.97274 3.17858 0
M  V30 9306 H 899.989 2.57876 4.19238 0
M  V30 9307 N 901.641 -1.19671 1.02551 0
M  V30 9308 C 902.604 -2.20987 0.608055 0
M  V30 9309 C 903.604 -1.5745 -0.326534 0
M  V30 9310 O 904.794 -1.73827 -0.114003 0
M  V30 9311 C 901.926 -3.4072 -0.11074 0
M  V30 9312 H 903.119 -2.59434 1.50446 0
M  V30 9313 H 900.672 -1.3329 0.816307 0
M  V30 9314 H 901.407 -3.07787 -1.02165 0
M  V30 9315 H 901.192 -3.88069 0.560772 0
M  V30 9316 H 902.682 -4.15776 -0.389848 0
M  V30 9317 N 903.119 -0.802921 -1.35613 0
M  V30 9318 C 904.344 -0.392846 -2.03645 0
M  V30 9319 C 904.769 0.987075 -1.6012 0
M  V30 9320 O 904.127 1.63849 -0.776101 0
M  V30 9321 C 904.175 -0.480208 -3.57388 0
M  V30 9322 O 903.279 0.507751 -4.09262 0
M  V30 9323 H 902.62 -0.16464 -0.643265 0
M  V30 9324 H 905.15 -1.08779 -1.73287 0
M  V30 9325 H 905.16 -0.348683 -4.06507 0
M  V30 9326 H 903.835 -1.48675 -3.88418 0
M  V30 9327 H 902.412 0.336769 -3.71376 0
M  V30 9328 N 904.597 1.47463 -0.556102 0
M  V30 9329 C 905.527 2.32801 0.180497 0
M  V30 9330 C 906.508 1.43721 0.909848 0
M  V30 9331 O 907.693 1.72578 0.89053 0
M  V30 9332 C 904.823 3.25478 1.21167 0
M  V30 9333 C 903.777 4.2379 0.598846 0
M  V30 9334 C 903.103 5.05783 1.73457 0
M  V30 9335 C 904.403 5.20387 -0.446659 0
M  V30 9336 H 906.097 2.94636 -0.531956 0
M  V30 9337 H 903.643 1.41683 -0.257267 0
M  V30 9338 H 905.596 3.8402 1.73513 0
M  V30 9339 H 904.32 2.61695 1.95405 0
M  V30 9340 H 902.979 3.66472 0.0966897 0
M  V30 9341 H 902.627 4.38405 2.46596 0
M  V30 9342 H 902.327 5.72343 1.33031 0
M  V30 9343 H 903.851 5.67183 2.26131 0
M  V30 9344 H 905.265 5.73299 -0.00930019 0
M  V30 9345 H 903.662 5.95143 -0.769735 0
M  V30 9346 H 904.732 4.65932 -1.34295 0
M  V30 9347 N 906.075 0.2925 1.54862 0
M  V30 9348 C 907.007 -0.620889 2.2063 0
M  V30 9349 C 908.02 -1.10412 1.19637 0
M  V30 9350 O 909.209 -1.02304 1.46274 0
M  V30 9351 C 906.309 -1.861 2.83232 0
M  V30 9352 C 905.482 -1.52168 4.10078 0
M  V30 9353 C 904.541 -2.61605 4.56562 0
M  V30 9354 O 903.567 -2.27056 5.21952 0
M  V30 9355 N 904.769 -3.9199 4.28163 0
M  V30 9356 H 907.534 -0.0579028 2.99644 0
M  V30 9357 H 905.095 0.114333 1.61496 0
M  V30 9358 H 907.087 -2.58642 3.11266 0
M  V30 9359 H 905.657 -2.33259 2.08108 0
M  V30 9360 H 904.877 -0.629283 3.89145 0
M  V30 9361 H 906.165 -1.27023 4.92689 0
M  V30 9362 H 905.563 -4.22872 3.7576 0
M  V30 9363 H 904.12 -4.60857 4.60928 0
M  V30 9364 N 907.553 -1.57587 0.0200696 0
M  V30 9365 C 908.463 -2.13119 -0.980676 0
M  V30 9366 C 909.479 -1.08124 -1.36328 0
M  V30 9367 O 910.655 -1.40134 -1.44653 0
M  V30 9368 C 907.72 -2.63991 -2.24743 0
M  V30 9369 C 906.781 -3.83667 -1.9261 0
M  V30 9370 C 906.014 -4.32103 -3.13246 0
M  V30 9371 O 906.237 -3.79758 -4.25606 0
M  V30 9372 O 905.171 -5.24047 -2.96072 0
M  V30 9373 H 908.997 -2.98887 -0.538528 0
M  V30 9374 H 906.582 -1.48055 -0.19999 0
M  V30 9375 H 908.464 -2.9682 -2.99125 0
M  V30 9376 H 907.139 -1.81311 -2.68157 0
M  V30 9377 H 906.046 -3.55778 -1.15641 0
M  V30 9378 H 907.379 -4.67482 -1.54019 0
M  V30 9379 N 909.032 0.252966 -1.55557 0
M  V30 9380 C 909.995 1.29645 -1.8901 0
M  V30 9381 C 910.995 1.41378 -0.766096 0
M  V30 9382 O 912.185 1.40183 -1.03414 0
M  V30 9383 C 909.317 2.67504 -2.11316 0
M  V30 9384 H 910.51 1.01202 -2.82309 0
M  V30 9385 H 908.063 0.491977 -1.48355 0
M  V30 9386 H 908.798 3.01095 -1.20466 0
M  V30 9387 H 908.583 2.6037 -2.93172 0
M  V30 9388 H 910.073 3.42861 -2.38403 0
M  V30 9389 N 910.51 1.48831 0.518367 0
M  V30 9390 C 911.44 1.67119 1.63075 0
M  V30 9391 C 912.421 0.519948 1.61958 0
M  V30 9392 O 913.606 0.753824 1.78972 0
M  V30 9393 C 910.736 1.72158 3.01627 0
M  V30 9394 C 909.69 2.86898 3.17606 0
M  V30 9395 C 909.016 2.77035 4.57335 0
M  V30 9396 C 910.316 4.28057 2.99274 0
M  V30 9397 H 912.01 2.60248 1.48025 0
M  V30 9398 H 909.556 1.2524 0.710694 0
M  V30 9399 H 911.509 1.83539 3.7933 0
M  V30 9400 H 910.233 0.756157 3.17726 0
M  V30 9401 H 908.892 2.75091 2.42323 0
M  V30 9402 H 908.54 1.78438 4.70286 0
M  V30 9403 H 908.24 3.54036 4.6897 0
M  V30 9404 H 909.764 2.904 5.37122 0
M  V30 9405 H 911.178 4.40636 3.6676 0
M  V30 9406 H 909.575 5.06145 3.22393 0
M  V30 9407 H 910.645 4.4371 1.95574 0
M  V30 9408 N 911.988 -0.768124 1.37614 0
M  V30 9409 C 913.234 -1.52907 1.33219 0
M  V30 9410 C 913.567 -1.94026 -0.0821218 0
M  V30 9411 O 912.842 -1.64345 -1.04023 0
M  V30 9412 C 913.125 -2.79164 2.27463 0
M  V30 9413 C 912.978 -2.44276 3.7769 0
M  V30 9414 C 914.297 -3.81115 2.20089 0
M  V30 9415 H 911.416 -0.554712 0.485246 0
M  V30 9416 H 914.058 -0.880911 1.68345 0
M  V30 9417 H 912.208 -3.34472 1.97639 0
M  V30 9418 H 913.88 -1.94855 4.18126 0
M  V30 9419 H 912.123 -1.76925 3.96081 0
M  V30 9420 H 912.794 -3.34544 4.39072 0
M  V30 9421 H 915.27 -3.35311 2.46386 0
M  V30 9422 H 914.146 -4.67174 2.88166 0
M  V30 9423 H 914.407 -4.25644 1.19498 0
M  V30 9424 N 913.466 -1.22244 -0.994698 0
M  V30 9425 C 914.712 -1.04746 -1.73655 0
M  V30 9426 C 915.045 0.41668 -1.89677 0
M  V30 9427 O 914.32 1.30897 -1.43862 0
M  V30 9428 C 914.603 -1.75716 -3.14318 0
M  V30 9429 C 914.456 -3.29714 -3.05955 0
M  V30 9430 C 915.775 -1.50809 -4.13455 0
M  V30 9431 H 912.894 -0.381921 -0.630322 0
M  V30 9432 H 915.536 -1.50559 -1.15897 0
M  V30 9433 H 913.686 -1.3677 -3.63629 0
M  V30 9434 H 915.358 -3.78093 -2.64279 0
M  V30 9435 H 913.601 -3.59484 -2.42804 0
M  V30 9436 H 914.272 -3.74547 -4.05485 0
M  V30 9437 H 916.748 -1.84636 -3.72892 0
M  V30 9438 H 915.624 -2.02964 -5.09997 0
M  V30 9439 H 915.885 -0.440292 -4.39902 0
M  V30 9440 N 914.944 1.19125 -1.03184 0
M  V30 9441 C 915.854 2.26112 -0.625329 0
M  V30 9442 C 916.87 1.7056 0.344298 0
M  V30 9443 O 918.046 2.0039 0.20144 0
M  V30 9444 C 915.111 3.46697 0.0145169 0
M  V30 9445 C 914.172 4.17419 -1.00299 0
M  V30 9446 C 913.405 5.32247 -0.393581 0
M  V30 9447 O 913.628 5.64724 0.802659 0
M  V30 9448 O 912.562 5.91428 -1.1179 0
M  V30 9449 H 916.388 2.63131 -1.51643 0
M  V30 9450 H 913.973 1.26036 -0.802197 0
M  V30 9451 H 915.855 4.19762 0.371139 0
M  V30 9452 H 914.53 3.11521 0.879581 0
M  V30 9453 H 913.437 3.4646 -1.41125 0
M  V30 9454 H 914.77 4.56573 -1.83852 0
M  V30 9455 N 916.422 0.810101 1.35185 0
M  V30 9456 C 917.355 0.168416 2.27578 0
M  V30 9457 C 918.333 -0.667664 1.4826 0
M  V30 9458 O 919.517 -0.634184 1.77512 0
M  V30 9459 C 916.644 -0.765994 3.29925 0
M  V30 9460 C 915.69 -0.00908802 4.26499 0
M  V30 9461 S 916.523 1.32936 5.18737 0
M  V30 9462 C 917.679 0.399485 6.24624 0
M  V30 9463 H 917.912 0.951753 2.81654 0
M  V30 9464 H 915.445 0.60534 1.42039 0
M  V30 9465 H 917.403 -1.2996 3.89385 0
M  V30 9466 H 916.064 -1.52275 2.7472 0
M  V30 9467 H 915.257 -0.718919 4.98846 0
M  V30 9468 H 914.859 0.454663 3.71226 0
M  V30 9469 H 917.151 -0.413904 6.76234 0
M  V30 9470 H 918.094 1.09225 6.99625 0
M  V30 9471 H 918.502 -0.00638358 5.645 0
M  V30 9472 N 917.9 -1.47166 0.563914 0
M  V30 9473 C 919.125 -2.0735 0.0454698 0
M  V30 9474 C 919.55 -1.41281 -1.24182 0
M  V30 9475 O 918.908 -0.490084 -1.7455 0
M  V30 9476 C 918.956 -3.60378 -0.126453 0
M  V30 9477 O 918.06 -3.94934 -1.18746 0
M  V30 9478 H 917.401 -0.661773 0.0543377 0
M  V30 9479 H 919.931 -1.89086 0.781508 0
M  V30 9480 H 919.941 -4.06593 -0.338554 0
M  V30 9481 H 918.616 -4.07862 0.81373 0
M  V30 9482 H 917.193 -3.60455 -0.955318 0
M  V30 9483 N 919.378 -0.300708 -1.54705 0
M  V30 9484 C 920.624 0.301982 -2.01146 0
M  V30 9485 C 920.979 1.51548 -1.18537 0
M  V30 9486 O 920.272 1.89914 -0.253656 0
M  V30 9487 C 920.466 0.710108 -3.50275 0
M  V30 9488 C 920.295 -0.462291 -4.47318 0
M  V30 9489 C 919.065 -0.954214 -4.96208 0
M  V30 9490 C 921.263 -1.30716 -4.97411 0
M  V30 9491 N 919.245 -2.09341 -5.77105 0
M  V30 9492 C 920.616 -2.29384 -5.76006 0
M  V30 9493 C 922.671 -1.33756 -4.79597 0
M  V30 9494 C 921.374 -3.30869 -6.38685 0
M  V30 9495 C 923.4 -2.34099 -5.43094 0
M  V30 9496 C 922.762 -3.31498 -6.21521 0
M  V30 9497 H 918.861 0.0749709 -0.778398 0
M  V30 9498 H 921.445 -0.430557 -1.8988 0
M  V30 9499 H 919.616 1.41182 -3.61832 0
M  V30 9500 H 921.348 1.29231 -3.83512 0
M  V30 9501 H 918.103 -0.529238 -4.70634 0
M  V30 9502 H 918.527 -2.66739 -6.22237 0
M  V30 9503 H 923.169 -0.598284 -4.18546 0
M  V30 9504 H 920.887 -4.05717 -6.9887 0
M  V30 9505 H 924.473 -2.37225 -5.31239 0
M  V30 9506 H 923.353 -4.07872 -6.69784 0
M  V30 9507 N 920.856 1.57574 -0.0284266 0
M  V30 9508 C 922.133 1.83064 0.688979 0
M  V30 9509 C 922.513 0.91219 1.90374 0
M  V30 9510 O 921.861 -0.0323672 2.28477 0
M  V30 9511 C 922.071 3.32262 1.06785 0
M  V30 9512 C 923.419 3.98717 1.45978 0
M  V30 9513 O 924.443 3.36753 1.16085 0
M  V30 9514 O 923.302 5.07927 2.01673 0
M  V30 9515 H 920.396 0.7548 0.337944 0
M  V30 9516 H 922.942 1.69607 -0.0560555 0
M  V30 9517 H 921.714 3.90772 0.203235 0
M  V30 9518 H 921.337 3.50823 1.87107 0
M  V30 9519 N 922.334 -0.244713 1.55689 0
M  V30 9520 C 923.281 -1.30301 1.905 0
M  V30 9521 C 924.251 -1.4772 0.759478 0
M  V30 9522 O 925.436 -1.61667 1.01333 0
M  V30 9523 C 922.576 -2.653 2.20703 0
M  V30 9524 C 921.689 -2.55872 3.48071 0
M  V30 9525 C 920.824 -3.83238 3.67834 0
M  V30 9526 C 919.863 -3.68436 4.88796 0
M  V30 9527 N 919 -4.877 5.05068 0
M  V30 9528 H 923.84 -0.999143 2.80751 0
M  V30 9529 H 921.377 -0.482099 1.38976 0
M  V30 9530 H 923.335 -3.43884 2.36219 0
M  V30 9531 H 921.965 -2.93831 1.33653 0
M  V30 9532 H 921.017 -1.68846 3.40874 0
M  V30 9533 H 922.329 -2.40845 4.36801 0
M  V30 9534 H 921.483 -4.70266 3.83321 0
M  V30 9535 H 920.222 -4.01165 2.77341 0
M  V30 9536 H 919.227 -2.79793 4.73282 0
M  V30 9537 H 920.452 -3.52003 5.8075 0
M  V30 9538 H 918.398 -5.05983 4.17513 0
M  V30 9539 H 918.315 -4.75312 5.8789 0
M  V30 9540 H 919.583 -5.76219 5.24969 0
M  V30 9541 N 923.813 -1.49104 -0.510467 0
M  V30 9542 C 925.061 -1.578 -1.26268 0
M  V30 9543 C 925.382 -0.262349 -1.93227 0
M  V30 9544 O 924.652 0.717624 -1.82283 0
M  V30 9545 H 923.232 -0.581387 -0.46904 0
M  V30 9546 H 925.894 -1.85678 -0.592423 0
M  V30 9547 H 924.99 -2.36919 -2.03165 0
M  V30 9548 N 925.291 0.760815 -1.38019 0
M  V30 9549 C 926.201 1.90526 -1.36884 0
M  V30 9550 C 927.217 1.71941 -0.266908 0
M  V30 9551 O 928.393 1.94988 -0.50413 0
M  V30 9552 C 925.458 3.25799 -1.18558 0
M  V30 9553 C 924.519 3.56961 -2.3849 0
M  V30 9554 C 923.752 4.8578 -2.21029 0
M  V30 9555 O 923.975 5.57629 -1.20023 0
M  V30 9556 O 922.909 5.16254 -3.0946 0
M  V30 9557 H 926.735 1.94437 -2.33298 0
M  V30 9558 H 924.32 0.905091 -1.18863 0
M  V30 9559 H 926.202 4.0669 -1.1037 0
M  V30 9560 H 924.877 3.22716 -0.252241 0
M  V30 9561 H 923.784 2.7626 -2.52252 0
M  V30 9562 H 925.117 3.64798 -3.30429 0
M  V30 9563 N 926.769 1.22769 0.988202 0
M  V30 9564 C 928.185 0.988665 1.2529 0
M  V30 9565 C 928.385 -0.314938 1.99024 0
M  V30 9566 O 927.441 -1.03637 2.30251 0
M  V30 9567 C 928.754 2.19046 2.06009 0
M  V30 9568 C 930.302 2.23452 2.19176 0
M  V30 9569 C 930.777 3.43196 3.03283 0
M  V30 9570 N 932.268 3.43387 3.10869 0
M  V30 9571 C 933.003 4.32693 3.7625 0
M  V30 9572 N 932.499 5.32224 4.43519 0
M  V30 9573 N 934.292 4.20457 3.73058 0
M  V30 9574 H 926.443 2.06575 0.494014 0
M  V30 9575 H 928.706 0.905452 0.28082 0
M  V30 9576 H 928.412 3.13607 1.59197 0
M  V30 9577 H 928.286 2.19492 3.06763 0
M  V30 9578 H 930.673 1.29436 2.65199 0
M  V30 9579 H 930.754 2.27042 1.17836 0
M  V30 9580 H 930.398 4.37515 2.57959 0
M  V30 9581 H 930.328 3.36847 4.04774 0
M  V30 9582 H 932.819 2.71368 2.62998 0
M  V30 9583 H 933.132 5.9664 4.91163 0
M  V30 9584 H 931.477 5.36133 4.42252 0
M  V30 9585 H 934.668 3.41949 3.19669 0
M  V30 9586 H 934.841 4.90261 4.23731 0
M  V30 9587 N 928.247 -1.18576 1.03814 0
M  V30 9588 C 929.475 -1.92437 0.759966 0
M  V30 9589 C 929.89 -1.76031 -0.682526 0
M  V30 9590 O 929.247 -1.08829 -1.46501 0
M  V30 9591 C 929.298 -3.43923 1.11351 0
M  V30 9592 O 929.019 -3.5981 2.49937 0
M  V30 9593 C 930.52 -4.34888 0.859472 0
M  V30 9594 H 927.74 -0.610998 0.277349 0
M  V30 9595 H 930.284 -1.50448 1.38512 0
M  V30 9596 H 928.439 -3.83711 0.533362 0
M  V30 9597 H 928.853 -4.53569 2.63393 0
M  V30 9598 H 930.327 -5.39744 1.15672 0
M  V30 9599 H 930.804 -4.38717 -0.205839 0
M  V30 9600 H 931.41 -4.00795 1.42279 0
M  V30 9601 N 929.725 -0.817259 -1.34754 0
M  V30 9602 C 930.635 -0.236946 -2.334 0
M  V30 9603 C 931.651 0.625685 -1.62361 0
M  V30 9604 O 932.827 0.534921 -1.94166 0
M  V30 9605 C 929.892 0.596215 -3.41535 0
M  V30 9606 C 928.953 -0.288154 -4.28332 0
M  V30 9607 C 928.186 0.505337 -5.31302 0
M  V30 9608 O 928.409 1.73912 -5.43241 0
M  V30 9609 O 927.343 -0.109374 -6.01801 0
M  V30 9610 H 931.169 -1.05327 -2.84851 0
M  V30 9611 H 928.754 -0.579275 -1.37713 0
M  V30 9612 H 930.636 1.07041 -4.07578 0
M  V30 9613 H 929.311 1.38997 -2.92338 0
M  V30 9614 H 928.218 -0.809724 -3.65232 0
M  V30 9615 H 929.551 -1.04612 -4.80955 0
M  V30 9616 N 931.203 1.46865 -0.571711 0
M  V30 9617 C 932.614 1.86158 -0.142181 0
M  V30 9618 C 932.965 1.47663 1.2919 0
M  V30 9619 O 932.09 0.886393 1.97413 0
M  V30 9620 C 932.685 3.37867 -0.251256 0
M  V30 9621 C 931.244 3.76198 0.123329 0
M  V30 9622 C 930.391 2.70902 -0.592232 0
M  V30 9623 H 933.342 1.38176 -0.780587 0
M  V30 9624 H 933.363 3.76842 0.526331 0
M  V30 9625 H 932.875 3.65853 -1.2951 0
M  V30 9626 H 930.976 3.53829 1.16773 0
M  V30 9627 H 931.089 4.78471 -0.24533 0
M  V30 9628 H 929.453 2.54678 -0.0336927 0
M  V30 9629 H 930.236 3.01729 -1.63751 0
M  V30 9630 N 932.681 0.308908 1.54543 0
M  V30 9631 C 933.611 -0.556657 2.26768 0
M  V30 9632 C 934.592 -1.13145 1.27013 0
M  V30 9633 O 935.777 -1.15931 1.558 0
M  V30 9634 C 932.907 -1.72481 3.01443 0
M  V30 9635 C 931.861 -1.28001 4.08411 0
M  V30 9636 C 931.187 -2.53395 4.70845 0
M  V30 9637 C 932.487 -0.405497 5.20724 0
M  V30 9638 H 934.181 0.0457618 2.99365 0
M  V30 9639 H 931.727 0.0234495 1.43981 0
M  V30 9640 H 933.68 -2.3365 3.50693 0
M  V30 9641 H 932.404 -2.35359 2.26437 0
M  V30 9642 H 931.063 -0.69133 3.60022 0
M  V30 9643 H 930.711 -3.14604 3.92471 0
M  V30 9644 H 930.411 -2.2433 5.43093 0
M  V30 9645 H 931.935 -3.15352 5.22863 0
M  V30 9646 H 933.349 -0.923076 5.6582 0
M  V30 9647 H 931.746 -0.208282 5.99738 0
M  V30 9648 H 932.816 0.567412 4.81569 0
M  V30 9649 N 934.159 -1.57557 0.0367827 0
M  V30 9650 C 935.069 -2.14148 -0.958017 0
M  V30 9651 C 936.085 -1.09564 -1.35173 0
M  V30 9652 O 937.261 -1.4166 -1.43158 0
M  V30 9653 C 934.326 -2.6636 -2.21931 0
M  V30 9654 C 933.387 -3.85688 -1.8853 0
M  V30 9655 C 932.62 -4.35401 -3.08645 0
M  V30 9656 O 932.843 -3.8425 -4.21554 0
M  V30 9657 O 931.777 -5.27158 -2.90497 0
M  V30 9658 H 935.603 -2.99442 -0.506797 0
M  V30 9659 H 933.188 -1.48259 -0.184275 0
M  V30 9660 H 935.07 -2.99976 -2.9596 0
M  V30 9661 H 933.745 -1.84145 -2.66219 0
M  V30 9662 H 932.652 -3.56985 -1.11861 0
M  V30 9663 H 933.985 -4.69089 -1.49052 0
M  V30 9664 N 935.637 0.236453 -1.55816 0
M  V30 9665 C 936.584 1.29289 -1.91188 0
M  V30 9666 C 937.554 1.47315 -0.767301 0
M  V30 9667 O 938.739 1.61128 -1.02189 0
M  V30 9668 C 935.879 2.64126 -2.22107 0
M  V30 9669 C 934.992 2.54022 -3.49423 0
M  V30 9670 C 934.127 3.81282 -3.69861 0
M  V30 9671 C 933.166 3.65839 -4.90743 0
M  V30 9672 N 932.303 4.85014 -5.07647 0
M  V30 9673 H 937.143 0.98424 -2.81277 0
M  V30 9674 H 934.68 0.474722 -1.39229 0
M  V30 9675 H 936.638 3.42626 -2.3804 0
M  V30 9676 H 935.268 2.93118 -1.35209 0
M  V30 9677 H 934.32 1.67036 -3.41765 0
M  V30 9678 H 935.632 2.38525 -4.38072 0
M  V30 9679 H 934.786 4.68226 -3.8581 0
M  V30 9680 H 933.525 3.99688 -2.79465 0
M  V30 9681 H 932.53 2.77279 -4.74759 0
M  V30 9682 H 933.755 3.48918 -5.82609 0
M  V30 9683 H 931.701 5.03762 -4.20191 0
M  V30 9684 H 931.618 4.72188 -5.90402 0
M  V30 9685 H 932.886 5.73427 -5.28017 0
M  V30 9686 N 937.115 1.49373 0.502552 0
M  V30 9687 C 938.343 1.62488 1.28084 0
M  V30 9688 C 938.758 0.295667 1.86471 0
M  V30 9689 O 938.115 -0.718664 1.67754 0
M  V30 9690 C 938.166 2.69249 2.4122 0
M  V30 9691 O 937.887 3.97014 1.85234 0
M  V30 9692 C 939.388 2.93054 3.32617 0
M  V30 9693 H 936.608 0.547068 0.388533 0
M  V30 9694 H 939.152 1.95394 0.603452 0
M  V30 9695 H 937.307 2.39125 3.04792 0
M  V30 9696 H 937.721 4.55809 2.59496 0
M  V30 9697 H 939.195 3.71493 4.08285 0
M  V30 9698 H 939.672 2.02911 3.89517 0
M  V30 9699 H 940.278 3.24589 2.74813 0
M  V30 9700 N 938.594 -0.753485 1.38421 0
M  V30 9701 C 939.504 -1.89797 1.37892 0
M  V30 9702 C 940.52 -1.71797 0.276023 0
M  V30 9703 O 941.696 -1.94718 0.514464 0
M  V30 9704 C 938.761 -3.25166 1.20284 0
M  V30 9705 C 937.822 -3.55691 2.4038 0
M  V30 9706 C 937.055 -4.84601 2.23602 0
M  V30 9707 O 937.278 -5.56985 1.22979 0
M  V30 9708 O 936.212 -5.14605 3.12194 0
M  V30 9709 H 940.038 -1.93197 2.34326 0
M  V30 9710 H 937.623 -0.898775 1.19342 0
M  V30 9711 H 939.505 -4.06099 1.12525 0
M  V30 9712 H 938.18 -3.22577 0.269352 0
M  V30 9713 H 937.087 -2.74919 2.53714 0
M  V30 9714 H 938.42 -3.6304 3.32359 0
M  V30 9715 N 940.072 -1.23292 -0.981677 0
M  V30 9716 C 941.002 -1.03738 -2.09191 0
M  V30 9717 C 941.983 0.0453041 -1.7004 0
M  V30 9718 O 943.168 -0.119092 -1.93834 0
M  V30 9719 C 940.298 -0.626426 -3.41604 0
M  V30 9720 C 939.252 -1.65631 -3.94652 0
M  V30 9721 C 938.578 -1.10084 -5.23245 0
M  V30 9722 C 939.878 -3.04903 -4.24066 0
M  V30 9723 H 941.572 -1.966 -2.25807 0
M  V30 9724 H 939.118 -0.946656 -1.0851 0
M  V30 9725 H 941.071 -0.476689 -4.18695 0
M  V30 9726 H 939.795 0.337873 -3.24848 0
M  V30 9727 H 938.454 -1.79402 -3.19704 0
M  V30 9728 H 938.102 -0.127562 -5.02838 0
M  V30 9729 H 937.802 -1.78896 -5.59705 0
M  V30 9730 H 939.326 -0.962928 -6.02959 0
M  V30 9731 H 940.74 -2.94441 -4.91912 0
M  V30 9732 H 939.137 -3.70941 -4.71724 0
M  V30 9733 H 940.207 -3.53991 -3.31389 0
M  V30 9734 N 941.55 1.18024 -1.04442 0
M  V30 9735 C 942.961 1.69749 -0.777312 0
M  V30 9736 C 943.312 1.83234 0.701399 0
M  V30 9737 O 942.437 1.51452 1.54568 0
M  V30 9738 C 943.032 3.08321 -1.40441 0
M  V30 9739 C 941.591 3.57243 -1.18553 0
M  V30 9740 C 940.738 2.33695 -1.49271 0
M  V30 9741 H 943.689 1.02647 -1.21035 0
M  V30 9742 H 943.71 3.71787 -0.809628 0
M  V30 9743 H 943.222 2.98474 -2.48062 0
M  V30 9744 H 941.323 3.72379 -0.128221 0
M  V30 9745 H 941.436 4.40451 -1.88519 0
M  V30 9746 H 939.8 2.37792 -0.912526 0
M  V30 9747 H 940.583 2.26464 -2.5801 0
M  V30 9748 N 943.028 0.824394 1.34319 0
M  V30 9749 C 943.938 0.24932 2.33271 0
M  V30 9750 C 944.954 -0.617066 1.62691 0
M  V30 9751 O 946.13 -0.524616 1.94447 0
M  V30 9752 C 943.195 -0.578094 3.41846 0
M  V30 9753 C 942.256 0.310866 4.28173 0
M  V30 9754 C 941.489 -0.477153 5.31563 0
M  V30 9755 O 941.712 -1.71028 5.44156 0
M  V30 9756 O 940.646 0.141287 6.01734 0
M  V30 9757 H 944.472 1.06837 2.84288 0
M  V30 9758 H 942.057 0.58657 1.37403 0
M  V30 9759 H 943.939 -1.04878 4.0814 0
M  V30 9760 H 942.614 -1.37444 2.93071 0
M  V30 9761 H 941.521 0.829081 3.64797 0
M  V30 9762 H 942.854 1.07161 4.80393 0
M  V30 9763 N 944.506 -1.46559 0.579492 0
M  V30 9764 C 945.754 -2.02 0.0637157 0
M  V30 9765 C 946.075 -1.45378 -1.29962 0
M  V30 9766 O 945.345 -0.637262 -1.85245 0
M  V30 9767 H 943.925 -0.746717 0.0205638 0
M  V30 9768 H 946.587 -1.79702 0.754544 0
M  V30 9769 H 945.683 -3.12099 -0.00770254 0
M  V30 9770 N 945.984 -0.3171 -1.54377 0
M  V30 9771 C 946.947 0.53905 -2.22771 0
M  V30 9772 C 947.947 1.04865 -1.21901 0
M  V30 9773 O 949.137 0.942108 -1.46526 0
M  V30 9774 C 946.269 1.74804 -2.92671 0
M  V30 9775 H 947.462 -0.0587417 -2.99842 0
M  V30 9776 H 945.015 -0.068107 -1.56152 0
M  V30 9777 H 945.75 2.38524 -2.1972 0
M  V30 9778 H 945.535 1.39011 -3.66631 0
M  V30 9779 H 947.025 2.35592 -3.44799 0
M  V30 9780 N 947.462 1.57535 -0.0451378 0
M  V30 9781 C 948.873 1.80116 0.491426 0
M  V30 9782 C 949.224 0.956846 1.71286 0
M  V30 9783 O 948.349 0.17173 2.15718 0
M  V30 9784 C 948.944 3.26674 0.898315 0
M  V30 9785 C 947.503 3.50194 1.37989 0
M  V30 9786 C 946.65 2.75054 0.352202 0
M  V30 9787 H 949.601 1.56368 -0.271065 0
M  V30 9788 H 949.622 3.37263 1.76164 0
M  V30 9789 H 949.134 3.88099 0.009141 0
M  V30 9790 H 947.235 2.94041 2.28846 0
M  V30 9791 H 947.348 4.58909 1.37622 0
M  V30 9792 H 945.712 2.4101 0.823784 0
M  V30 9793 H 946.495 3.39203 -0.528782 0
M  V30 9794 N 948.94 -0.228186 1.55939 0
M  V30 9795 C 949.85 -1.30386 1.9503 0
M  V30 9796 C 950.866 -1.51645 0.853218 0
M  V30 9797 O 952.042 -1.64904 1.15623 0
M  V30 9798 C 949.107 -2.63489 2.25332 0
M  V30 9799 C 948.168 -2.5059 3.48573 0
M  V30 9800 C 947.401 -3.77345 3.7742 0
M  V30 9801 O 947.624 -4.80067 3.08045 0
M  V30 9802 O 946.558 -3.74855 4.70922 0
M  V30 9803 H 950.384 -1.0022 2.86687 0
M  V30 9804 H 947.969 -0.430503 1.43063 0
M  V30 9805 H 949.851 -3.4211 2.46046 0
M  V30 9806 H 948.526 -2.93349 1.3685 0
M  V30 9807 H 947.433 -1.70191 3.33145 0
M  V30 9808 H 948.766 -2.2567 4.37417 0
M  V30 9809 N 950.418 -1.49637 -0.494624 0
M  V30 9810 C 951.348 -1.69692 -1.60396 0
M  V30 9811 C 952.329 -0.545648 -1.61111 0
M  V30 9812 O 953.514 -0.782202 -1.77751 0
M  V30 9813 C 950.644 -1.76934 -2.9885 0
M  V30 9814 C 949.598 -2.91915 -3.13001 0
M  V30 9815 C 948.924 -2.84276 -4.5287 0
M  V30 9816 C 950.224 -4.32764 -2.92426 0
M  V30 9817 H 951.918 -2.6257 -1.43866 0
M  V30 9818 H 949.464 -1.26355 -0.690679 0
M  V30 9819 H 951.417 -1.8955 -3.76362 0
M  V30 9820 H 950.141 -0.806609 -3.16483 0
M  V30 9821 H 948.8 -2.78911 -2.37916 0
M  V30 9822 H 948.448 -1.85897 -4.67388 0
M  V30 9823 H 948.148 -3.61452 -4.63278 0
M  V30 9824 H 949.672 -2.98909 -5.32434 0
M  V30 9825 H 951.086 -4.46415 -3.59703 0
M  V30 9826 H 949.483 -5.1121 -3.143 0
M  V30 9827 H 950.553 -4.46765 -1.88491 0
M  V30 9828 N 951.896 0.746133 -1.38819 0
M  V30 9829 C 952.859 1.84167 -1.36437 0
M  V30 9830 C 953.859 1.58626 -0.263499 0
M  V30 9831 O 955.049 1.66233 -0.520801 0
M  V30 9832 C 952.181 3.21769 -1.12596 0
M  V30 9833 H 953.374 1.87684 -2.33912 0
M  V30 9834 H 950.927 0.948625 -1.24221 0
M  V30 9835 H 951.662 3.23917 -0.15758 0
M  V30 9836 H 951.447 3.41702 -1.92307 0
M  V30 9837 H 952.937 4.0184 -1.13643 0
M  V30 9838 N 953.375 1.23811 0.975125 0
M  V30 9839 C 954.305 1.04846 2.08638 0
M  V30 9840 C 955.286 -0.0362859 1.70061 0
M  V30 9841 O 956.471 0.12937 1.93769 0
M  V30 9842 C 953.601 0.644534 3.41267 0
M  V30 9843 C 952.555 1.67722 3.93768 0
M  V30 9844 C 951.881 1.12857 5.22654 0
M  V30 9845 C 953.181 3.07147 4.22443 0
M  V30 9846 H 954.875 1.97795 2.24761 0
M  V30 9847 H 952.421 0.952397 1.08006 0
M  V30 9848 H 954.374 0.498887 4.18436 0
M  V30 9849 H 953.098 -0.320641 3.25022 0
M  V30 9850 H 951.757 1.81095 3.18748 0
M  V30 9851 H 951.405 0.154227 5.02764 0
M  V30 9852 H 951.105 1.81862 5.58749 0
M  V30 9853 H 952.629 0.994891 6.0244 0
M  V30 9854 H 954.043 2.97045 4.90344 0
M  V30 9855 H 952.44 3.73437 4.6975 0
M  V30 9856 H 953.51 3.55743 3.29507 0
M  V30 9857 N 954.853 -1.17469 1.05066 0
M  V30 9858 C 956.13 -1.83625 0.673872 0
M  V30 9859 C 956.51 -1.93412 -0.845871 0
M  V30 9860 O 955.858 -1.4677 -1.75131 0
M  V30 9861 C 956.068 -3.21352 1.36139 0
M  V30 9862 C 957.416 -3.97274 1.49863 0
M  V30 9863 O 958.44 -3.30827 1.3203 0
M  V30 9864 O 957.299 -5.16349 1.79013 0
M  V30 9865 H 954.393 -0.792297 0.237055 0
M  V30 9866 H 956.939 -1.24776 1.15017 0
M  V30 9867 H 955.711 -3.0919 2.39827 0
M  V30 9868 H 955.334 -3.87867 0.874364 0
M  V30 9869 N 956.331 -0.831506 -1.3388 0
M  V30 9870 C 957.559 -0.436925 -2.02234 0
M  V30 9871 C 957.974 0.959689 -1.6259 0
M  V30 9872 O 957.331 1.62248 -0.835576 0
M  V30 9873 C 957.382 -0.539429 -3.57453 0
M  V30 9874 O 957.103 -1.88101 -3.95664 0
M  V30 9875 C 958.604 -0.140852 -4.43076 0
M  V30 9876 H 955.824 -0.174302 -0.647966 0
M  V30 9877 H 958.368 -1.12204 -1.70969 0
M  V30 9878 H 956.523 0.0976959 -3.87277 0
M  V30 9879 H 956.937 -1.86131 -4.90363 0
M  V30 9880 H 958.411 -0.26364 -5.5137 0
M  V30 9881 H 958.888 0.916505 -4.29531 0
M  V30 9882 H 959.494 -0.752117 -4.18597 0
M  V30 9883 N 957.809 1.4625 -0.587256 0
M  V30 9884 C 958.719 2.34147 0.145744 0
M  V30 9885 C 959.735 1.50026 0.881376 0
M  V30 9886 O 960.911 1.82884 0.843539 0
M  V30 9887 C 957.976 3.27294 1.14366 0
M  V30 9888 C 957.037 4.27317 0.412199 0
M  V30 9889 C 956.27 5.16013 1.36257 0
M  V30 9890 O 956.493 5.0773 2.59934 0
M  V30 9891 O 955.427 5.95569 0.870681 0
M  V30 9892 H 959.253 2.98187 -0.576055 0
M  V30 9893 H 956.838 1.45299 -0.347628 0
M  V30 9894 H 958.72 3.84747 1.71894 0
M  V30 9895 H 957.395 2.65845 1.84684 0
M  V30 9896 H 956.302 3.73538 -0.205036 0
M  V30 9897 H 957.635 4.91564 -0.250104 0
M  V30 9898 N 959.287 0.325282 1.54207 0
M  V30 9899 C 960.217 -0.532574 2.27345 0
M  V30 9900 C 961.198 -1.11791 1.28206 0
M  V30 9901 O 962.383 -1.14272 1.57021 0
M  V30 9902 C 959.513 -1.69274 3.03255 0
M  V30 9903 C 958.467 -1.23662 4.09746 0
M  V30 9904 C 957.793 -2.48386 4.73506 0
M  V30 9905 C 959.093 -0.350244 5.21124 0
M  V30 9906 H 960.787 0.0775108 2.993 0
M  V30 9907 H 958.333 0.0387193 1.43948 0
M  V30 9908 H 960.286 -2.29917 3.53152 0
M  V30 9909 H 959.01 -2.32944 2.28921 0
M  V30 9910 H 957.669 -0.653106 3.60735 0
M  V30 9911 H 957.317 -3.10424 3.95786 0
M  V30 9912 H 957.017 -2.18558 5.45441 0
M  V30 9913 H 958.541 -3.09789 5.26178 0
M  V30 9914 H 959.955 -0.863011 5.66767 0
M  V30 9915 H 958.352 -0.14466 5.99926 0
M  V30 9916 H 959.422 0.618457 4.8094 0
M  V30 9917 N 960.765 -1.57509 0.0534917 0
M  V30 9918 C 961.99 -1.97511 -0.632794 0
M  V30 9919 C 962.415 -0.930947 -1.63447 0
M  V30 9920 O 961.773 0.105558 -1.80992 0
M  V30 9921 C 961.821 -3.3658 -1.29407 0
M  V30 9922 O 960.925 -3.3467 -2.40977 0
M  V30 9923 H 960.266 -0.643349 -0.16431 0
M  V30 9924 H 962.796 -2.04232 0.12258 0
M  V30 9925 H 962.806 -3.73359 -1.64521 0
M  V30 9926 H 961.481 -4.12113 -0.559976 0
M  V30 9927 H 960.058 -3.09639 -2.07793 0
M  V30 9928 N 962.243 0.219913 -1.56058 0
M  V30 9929 C 963.173 1.27572 -1.9557 0
M  V30 9930 C 964.154 1.48801 -0.824148 0
M  V30 9931 O 965.339 1.60957 -1.08658 0
M  V30 9932 C 962.469 2.62517 -2.27381 0
M  V30 9933 C 961.423 2.55941 -3.43042 0
M  V30 9934 C 960.749 3.94931 -3.60463 0
M  V30 9935 C 962.049 2.10584 -4.77966 0
M  V30 9936 H 963.743 0.947482 -2.84013 0
M  V30 9937 H 961.289 0.454337 -1.36645 0
M  V30 9938 H 963.242 3.36538 -2.53615 0
M  V30 9939 H 961.966 2.97031 -1.35794 0
M  V30 9940 H 960.625 1.84377 -3.1686 0
M  V30 9941 H 960.273 4.26756 -2.66249 0
M  V30 9942 H 959.973 3.91413 -4.38258 0
M  V30 9943 H 961.497 4.70611 -3.89046 0
M  V30 9944 H 962.911 2.74349 -5.03394 0
M  V30 9945 H 961.308 2.18122 -5.59055 0
M  V30 9946 H 962.378 1.05818 -4.73213 0
M  V30 9947 N 963.721 1.49897 0.486681 0
M  V30 9948 C 964.631 1.70379 1.6127 0
M  V30 9949 C 965.647 0.58659 1.63814 0
M  V30 9950 O 966.823 0.863044 1.81971 0
M  V30 9951 C 963.888 1.77911 2.97571 0
M  V30 9952 C 962.949 3.01569 3.0554 0
M  V30 9953 C 962.182 3.08732 4.35339 0
M  V30 9954 O 962.405 2.23099 5.2496 0
M  V30 9955 O 961.339 4.01325 4.48578 0
M  V30 9956 H 965.165 2.65799 1.46916 0
M  V30 9957 H 962.75 1.33808 0.664516 0
M  V30 9958 H 964.632 1.85135 3.78554 0
M  V30 9959 H 963.307 0.856722 3.12157 0
M  V30 9960 H 962.214 2.99854 2.23693 0
M  V30 9961 H 963.547 3.93335 2.95886 0
M  V30 9962 N 965.199 -0.738761 1.39212 0
M  V30 9963 C 966.476 -1.48982 1.26742 0
M  V30 9964 C 966.856 -2.10732 -0.12466 0
M  V30 9965 O 966.204 -1.98287 -1.13554 0
M  V30 9966 C 966.414 -2.54427 2.38889 0
M  V30 9967 C 967.762 -3.20915 2.78027 0
M  V30 9968 O 968.786 -2.64738 2.38311 0
M  V30 9969 O 967.645 -4.22558 3.46565 0
M  V30 9970 H 964.739 -0.661395 0.496473 0
M  V30 9971 H 967.285 -0.772907 1.51077 0
M  V30 9972 H 966.057 -2.07151 3.3197 0
M  V30 9973 H 965.68 -3.33682 2.162 0
M  V30 9974 N 966.677 -1.24326 -0.968545 0
M  V30 9975 C 967.925 -1.08032 -1.70803 0
M  V30 9976 C 968.246 0.381728 -1.91227 0
M  V30 9977 O 967.516 1.27253 -1.48942 0
M  V30 9978 H 966.096 -0.396777 -0.632912 0
M  V30 9979 H 968.758 -1.56232 -1.16523 0
M  V30 9980 H 967.854 -1.57769 -2.69287 0
M  V30 9981 N 968.156 1.1691 -1.05688 0
M  V30 9982 C 969.433 1.83266 -0.683601 0
M  V30 9983 C 969.813 1.93858 0.835602 0
M  V30 9984 O 969.161 1.47696 1.7435 0
M  V30 9985 C 969.371 3.20625 -1.37842 0
M  V30 9986 C 970.719 3.96473 -1.51967 0
M  V30 9987 O 971.743 3.30122 -1.33783 0
M  V30 9988 O 970.602 5.15393 -1.81749 0
M  V30 9989 H 967.696 0.791028 -0.241254 0
M  V30 9990 H 970.242 1.24165 -1.15677 0
M  V30 9991 H 969.014 3.07914 -2.41463 0
M  V30 9992 H 968.637 3.87398 -0.894921 0
M  V30 9993 N 969.634 0.838594 1.33437 0
M  V30 9994 C 971.05 0.526347 1.50671 0
M  V30 9995 C 971.25 -0.946387 1.77893 0
M  V30 9996 O 970.306 -1.7302 1.83903 0
M  V30 9997 C 971.619 1.39945 2.6615 0
M  V30 9998 C 973.167 1.3982 2.80035 0
M  V30 9999 C 973.642 2.25614 3.98576 0
M  V30 10000 N 975.133 2.23322 4.0581 0
M  V30 10001 C 975.868 2.86443 4.96727 0
M  V30 10002 N 975.364 3.58616 5.92762 0
M  V30 10003 N 977.157 2.75915 4.89722 0
M  V30 10004 H 969.308 1.79195 1.1403 0
M  V30 10005 H 971.571 0.764491 0.560586 0
M  V30 10006 H 971.277 2.44599 2.52714 0
M  V30 10007 H 971.151 1.07529 3.61548 0
M  V30 10008 H 973.538 0.35937 2.92904 0
M  V30 10009 H 973.619 1.76241 1.85399 0
M  V30 10010 H 973.263 3.29555 3.86466 0
M  V30 10011 H 973.193 1.86533 4.92456 0
M  V30 10012 H 975.684 1.70836 3.37081 0
M  V30 10013 H 975.997 4.03987 6.58798 0
M  V30 10014 H 974.342 3.62724 5.92838 0
M  V30 10015 H 977.533 2.19094 4.13661 0
M  V30 10016 H 977.706 3.25393 5.60378 0
M  V30 10017 N 971.112 -1.45937 0.595003 0
M  V30 10018 C 972.352 -2.0421 0.0881479 0
M  V30 10019 C 972.716 -1.45498 -1.25277 0
M  V30 10020 O 973.917 -1.95047 -1.8496 0
M  V30 10021 C 972.188 -3.57382 0.0362346 0
M  V30 10022 S 973.747 -4.36869 -0.41126 0
M  V30 10023 H 970.565 -0.709672 0.0434424 0
M  V30 10024 H 973.167 -1.78815 0.790273 0
M  V30 10025 H 971.871 -3.97628 1.0159 0
M  V30 10026 H 971.402 -3.87332 -0.688278 0
M  V30 10027 H 973.417 -4.67486 -1.66347 0
M  V30 10028 N 972.59 -0.333456 -1.54032 0
M  V30 10029 C 973.537 0.527981 -2.2468 0
M  V30 10030 C 974.507 1.10371 -1.24127 0
M  V30 10031 O 975.692 1.14221 -1.52834 0
M  V30 10032 C 972.832 1.67808 -3.01553 0
M  V30 10033 C 971.945 1.13064 -4.16942 0
M  V30 10034 C 971.08 2.24722 -4.81325 0
M  V30 10035 C 970.119 1.67277 -5.88799 0
M  V30 10036 N 969.256 2.72638 -6.47003 0
M  V30 10037 H 974.096 -0.0810308 -2.9789 0
M  V30 10038 H 971.633 -0.051761 -1.47009 0
M  V30 10039 H 973.591 2.35502 -3.44376 0
M  V30 10040 H 972.221 2.25823 -2.30659 0
M  V30 10041 H 971.273 0.344948 -3.78833 0
M  V30 10042 H 972.585 0.670373 -4.94275 0
M  V30 10043 H 971.739 3.00301 -5.27166 0
M  V30 10044 H 970.478 2.74089 -4.03394 0
M  V30 10045 H 969.483 0.902002 -5.4235 0
M  V30 10046 H 970.708 1.18775 -6.68632 0
M  V30 10047 H 968.654 3.21277 -5.71941 0
M  V30 10048 H 968.571 2.31204 -7.19778 0
M  V30 10049 H 969.839 3.48015 -6.97499 0
M  V30 10050 N 974.068 1.57479 -0.061844 0
M  V30 10051 C 975.031 2.1104 0.894127 0
M  V30 10052 C 976.031 1.03227 1.23292 0
M  V30 10053 O 977.221 1.29256 1.16784 0
M  V30 10054 C 974.353 2.6035 2.20069 0
M  V30 10055 H 975.546 2.96807 0.429619 0
M  V30 10056 H 973.099 1.55181 0.18672 0
M  V30 10057 H 973.834 1.78008 2.71079 0
M  V30 10058 H 973.619 3.39146 1.9678 0
M  V30 10059 H 975.109 3.019 2.88525 0
M  V30 10060 N 975.546 -0.211634 1.56173 0
M  V30 10061 C 976.493 -1.26231 1.93221 0
M  V30 10062 C 977.463 -1.46076 0.790641 0
M  V30 10063 O 978.648 -1.59482 1.04739 0
M  V30 10064 C 975.788 -2.60559 2.26281 0
M  V30 10065 C 974.901 -2.48431 3.5342 0
M  V30 10066 C 974.036 -3.7535 3.7588 0
M  V30 10067 C 973.075 -3.57985 4.96501 0
M  V30 10068 N 972.212 -4.76877 5.15299 0
M  V30 10069 H 977.052 -0.939367 2.82807 0
M  V30 10070 H 974.589 -0.452511 1.39967 0
M  V30 10071 H 976.547 -3.38796 2.43461 0
M  V30 10072 H 975.177 -2.9093 1.39855 0
M  V30 10073 H 974.229 -1.61577 3.44379 0
M  V30 10074 H 975.541 -2.31526 4.41811 0
M  V30 10075 H 974.695 -4.62029 3.9321 0
M  V30 10076 H 973.434 -3.95191 2.85788 0
M  V30 10077 H 972.439 -2.69691 4.79111 0
M  V30 10078 H 973.664 -3.39605 5.88086 0
M  V30 10079 H 971.61 -4.97013 4.28152 0
M  V30 10080 H 971.527 -4.62735 5.9784 0
M  V30 10081 H 972.795 -5.64954 5.37073 0
M  V30 10082 N 977.024 -1.50153 -0.478725 0
M  V30 10083 C 977.957 -1.63089 -1.59616 0
M  V30 10084 C 978.935 -0.479211 -1.55378 0
M  V30 10085 O 980.119 -0.697715 -1.75112 0
M  V30 10086 C 977.246 -1.60643 -2.9818 0
M  V30 10087 C 976.292 -2.81279 -3.206 0
M  V30 10088 S 977.125 -4.42681 -3.0132 0
M  V30 10089 C 978.281 -4.42915 -4.42241 0
M  V30 10090 H 978.514 -2.57612 -1.48402 0
M  V30 10091 H 976.047 -1.39321 -0.665513 0
M  V30 10092 H 978.005 -1.59917 -3.7807 0
M  V30 10093 H 976.666 -0.673684 -3.0679 0
M  V30 10094 H 975.859 -2.7585 -4.21809 0
M  V30 10095 H 975.461 -2.79533 -2.4847 0
M  V30 10096 H 977.753 -4.16007 -5.34737 0
M  V30 10097 H 978.696 -5.44477 -4.52715 0
M  V30 10098 H 979.104 -3.72715 -4.23962 0
M  V30 10099 O 978.541 0.624207 -1.48949 0
M  V30 10100 H 979.232 1.27845 -1.45517 0
M  V30 END ATOM
M  V30 BEGIN BOND
M  V30 END BOND
M  V30 END CTAB
M  END
$$$$
