drugbank_drug|DB05101 3c08_H|Fab72000|Humanized||VH-CH1 (VH(1-115)+CH1(116-213))|||||||223||||MW 24063.8|MW 24063.8|
 OpenBabel12092119123D

  0  0  0     0  0            999 V3000
M  V30 BEGIN CTAB
M  V30 COUNTS 3334 3378 0 0 0
M  V30 BEGIN ATOM
M  V30 1 H -0.908 1.98254 -0.117106 0
M  V30 2 N 0 1.576 0 0
M  V30 3 C 0.932 2.05273 1.01958 0
M  V30 4 C 1.945 0.970662 1.30698 0
M  V30 5 O 3.134 1.24746 1.27674 0
M  V30 6 C 0.234 2.43771 2.35433 0
M  V30 7 C -0.593 3.74711 2.25633 0
M  V30 8 C -1.534 4.00077 3.41796 0
M  V30 9 O -2.508 4.70743 3.19984 0
M  V30 10 N -1.306 3.47973 4.64645 0
M  V30 11 H 1.459 2.93363 0.613025 0
M  V30 12 H -0.98 1.60812 0.187383 0
M  V30 13 H 1.012 2.57855 3.11918 0
M  V30 14 H -0.418 1.612 2.67831 0
M  V30 15 H -1.198 3.70705 1.34059 0
M  V30 16 H 0.09 4.60554 2.16258 0
M  V30 17 H -0.512 2.90748 4.85265 0
M  V30 18 H -1.955 3.67386 5.38396 0
M  V30 19 N 1.4781 -0.272755 1.55222 0
M  V30 20 C 2.7241 -1.00581 1.761 0
M  V30 21 C 3.0571 -1.85932 0.560625 0
M  V30 22 O 2.3321 -1.89416 -0.441801 0
M  V30 23 C 2.6151 -1.88816 3.06628 0
M  V30 24 C 2.4681 -1.06457 4.37021 0
M  V30 25 C 3.7871 -2.8752 3.33197 0
M  V30 26 H 0.9061 -0.364244 0.640699 0
M  V30 27 H 3.5481 -0.278189 1.87952 0
M  V30 28 H 1.6981 -2.50856 2.96654 0
M  V30 29 H 3.3701 -0.464863 4.58952 0
M  V30 30 H 1.6131 -0.368043 4.32236 0
M  V30 31 H 2.2841 -1.71514 5.24678 0
M  V30 32 H 4.7601 -2.35615 3.42965 0
M  V30 33 H 3.6361 -3.46399 4.25792 0
M  V30 34 H 3.8971 -3.62657 2.52849 0
M  V30 35 N 2.9562 -1.48159 -0.537278 0
M  V30 36 C 3.8882 -1.58218 -1.65831 0
M  V30 37 C 4.9012 -0.466948 -1.5596 0
M  V30 38 O 6.0902 -0.73747 -1.62553 0
M  V30 39 C 3.1902 -1.48906 -3.04434 0
M  V30 40 C 2.3632 -2.75343 -3.3986 0
M  V30 41 C 1.4222 -2.59588 -4.57712 0
M  V30 42 O 0.4482 -3.33457 -4.61297 0
M  V30 43 N 1.6502 -1.68724 -5.55439 0
M  V30 44 H 4.4152 -2.54891 -1.57641 0
M  V30 45 H 1.9762 -1.4479 -0.724386 0
M  V30 46 H 3.9682 -1.36072 -3.81139 0
M  V30 47 H 2.5382 -0.602368 -3.06741 0
M  V30 48 H 1.7582 -3.02795 -2.52406 0
M  V30 49 H 3.0462 -3.5924 -3.60311 0
M  V30 50 H 2.4442 -1.07898 -5.55315 0
M  V30 51 H 1.0012 -1.61832 -6.3139 0
M  V30 52 N 4.4343 0.785586 -1.36625 0
M  V30 53 C 5.3643 1.91259 -1.33949 0
M  V30 54 C 6.3453 1.68795 -0.210325 0
M  V30 55 O 7.5303 1.89854 -0.408561 0
M  V30 56 C 4.6603 3.28339 -1.13186 0
M  V30 57 C 3.6143 3.65335 -2.22967 0
M  V30 58 C 2.9403 5.00806 -1.87342 0
M  V30 59 C 4.2403 3.7352 -3.65075 0
M  V30 60 H 5.9343 1.93755 -2.28253 0
M  V30 61 H 3.4803 0.930788 -1.09874 0
M  V30 62 H 5.4333 4.06804 -1.09948 0
M  V30 63 H 4.1573 3.2624 -0.153332 0
M  V30 64 H 2.8163 2.89169 -2.25337 0
M  V30 65 H 2.4643 4.95233 -0.880545 0
M  V30 66 H 2.1643 5.26529 -2.60846 0
M  V30 67 H 3.6883 5.81687 -1.85667 0
M  V30 68 H 5.1023 4.42168 -3.64911 0
M  V30 69 H 3.4993 4.10731 -4.37516 0
M  V30 70 H 4.5693 2.74527 -3.99703 0
M  V30 71 N 5.9124 1.20967 1.01018 0
M  V30 72 C 7.1584 1.02526 1.74975 0
M  V30 73 C 7.4914 -0.4408 1.89131 0
M  V30 74 O 6.7664 -1.32718 1.42184 0
M  V30 75 C 7.0494 1.71699 3.1653 0
M  V30 76 C 6.9024 3.25791 3.10129 0
M  V30 77 C 8.2214 1.45531 4.15342 0
M  V30 78 H 5.3404 0.373863 0.635134 0
M  V30 79 H 7.9824 1.49071 1.17805 0
M  V30 80 H 6.1324 1.32128 3.65341 0
M  V30 81 H 7.8044 3.74697 2.69072 0
M  V30 82 H 6.0474 3.56363 2.47362 0
M  V30 83 H 6.7184 3.69353 4.10222 0
M  V30 84 H 9.1944 1.79872 3.75213 0
M  V30 85 H 8.0704 1.96453 5.1254 0
M  V30 86 H 8.3314 0.384237 4.40427 0
M  V30 87 N 7.3905 -1.2043 1.01659 0
M  V30 88 C 8.3225 -2.22626 0.544988 0
M  V30 89 C 9.3355 -1.58479 -0.372609 0
M  V30 90 O 10.5245 -1.77679 -0.170958 0
M  V30 91 C 7.6245 -3.38141 -0.22663 0
M  V30 92 C 6.7975 -4.31877 0.692876 0
M  V30 93 C 5.8565 -5.26191 -0.0311616 0
M  V30 94 O 4.8825 -5.6612 0.591343 0
M  V30 95 N 6.0845 -5.65618 -1.30601 0
M  V30 96 H 8.8495 -2.63716 1.42388 0
M  V30 97 H 6.4105 -1.34971 0.894116 0
M  V30 98 H 8.4025 -3.98239 -0.72024 0
M  V30 99 H 6.9725 -2.95943 -1.00681 0
M  V30 100 H 6.1925 -3.69746 1.36679 0
M  V30 101 H 7.4805 -4.91426 1.31824 0
M  V30 102 H 6.8785 -5.3519 -1.83269 0
M  V30 103 H 5.4355 -6.28025 -1.74435 0
M  V30 104 N 8.8686 -0.792821 -1.36206 0
M  V30 105 C 10.0936 -0.377701 -2.03932 0
M  V30 106 C 10.5186 0.998947 -1.59382 0
M  V30 107 O 9.8766 1.64421 -0.763903 0
M  V30 108 C 9.9246 -0.453635 -3.57735 0
M  V30 109 O 9.0286 0.538151 -4.08874 0
M  V30 110 H 8.3696 -0.159855 -0.644471 0
M  V30 111 H 10.8996 -1.07488 -1.7409 0
M  V30 112 H 10.9096 -0.318464 -4.06755 0
M  V30 113 H 9.5846 -1.45784 -3.89512 0
M  V30 114 H 8.1616 0.364359 -3.71116 0
M  V30 115 N 10.3467 1.47872 -0.545128 0
M  V30 116 C 11.5947 2.02093 -0.016553 0
M  V30 117 C 11.9157 1.42305 1.3332 0
M  V30 118 O 11.1857 0.593853 1.86682 0
M  V30 119 H 9.7657 0.746993 -0.00313038 0
M  V30 120 H 12.4277 1.81414 -0.712397 0
M  V30 121 H 11.5237 3.11996 0.0805422 0
M  V30 122 N 11.8248 0.280983 1.55075 0
M  V30 123 C 12.7878 -0.590896 2.21452 0
M  V30 124 C 13.7878 -1.07682 1.19421 0
M  V30 125 O 14.9778 -0.97605 1.44288 0
M  V30 126 C 12.1098 -1.81587 2.88511 0
M  V30 127 H 13.3028 -0.0112554 2.99898 0
M  V30 128 H 10.8558 0.0316438 1.56268 0
M  V30 129 H 11.5908 -2.43587 2.14093 0
M  V30 130 H 11.3758 -1.4753 3.63287 0
M  V30 131 H 12.8658 -2.43575 3.39206 0
M  V30 132 N 13.3029 -1.57598 0.00835791 0
M  V30 133 C 14.2129 -2.12385 -0.996487 0
M  V30 134 C 15.2289 -1.07108 -1.37127 0
M  V30 135 O 16.4049 -1.39055 -1.4569 0
M  V30 136 C 13.4699 -2.62314 -2.26699 0
M  V30 137 C 12.5309 -3.82225 -1.95456 0
M  V30 138 C 11.7639 -4.29763 -3.16449 0
M  V30 139 O 11.9869 -3.76584 -4.28416 0
M  V30 140 O 10.9209 -5.21832 -2.99958 0
M  V30 141 H 14.7469 -2.98479 -0.560725 0
M  V30 142 H 12.3319 -1.47903 -0.210987 0
M  V30 143 H 14.2139 -2.94589 -3.01322 0
M  V30 144 H 12.8889 -1.79313 -2.69497 0
M  V30 145 H 11.7959 -3.54909 -1.18282 0
M  V30 146 H 13.1289 -4.66324 -1.57489 0
M  V30 147 N 14.781 0.264519 -1.55364 0
M  V30 148 C 16.027 0.99646 -1.76631 0
M  V30 149 C 16.36 1.85632 -0.570478 0
M  V30 150 O 15.635 1.89647 0.43175 0
M  V30 151 C 15.918 1.87187 -3.07625 0
M  V30 152 C 15.771 1.04138 -4.37579 0
M  V30 153 C 17.09 2.85749 -3.34717 0
M  V30 154 H 14.209 0.360841 -0.642622 0
M  V30 155 H 16.851 0.268218 -1.88097 0
M  V30 156 H 15.001 2.49279 -2.9798 0
M  V30 157 H 16.673 0.440517 -4.59192 0
M  V30 158 H 14.916 0.345115 -4.32425 0
M  V30 159 H 15.587 1.68729 -5.2558 0
M  V30 160 H 18.063 2.33793 -3.4421 0
M  V30 161 H 16.939 3.44136 -4.27623 0
M  V30 162 H 17.2 3.61311 -2.54768 0
M  V30 163 N 16.2591 1.48442 0.529413 0
M  V30 164 C 17.2061 1.63007 1.63394 0
M  V30 165 C 18.1761 0.47212 1.59249 0
M  V30 166 O 19.3611 0.695673 1.77666 0
M  V30 167 C 16.5011 1.6763 3.01653 0
M  V30 168 C 15.6141 2.94535 3.16027 0
M  V30 169 C 14.7491 2.90316 4.44849 0
M  V30 170 C 13.7881 4.11923 4.52754 0
M  V30 171 N 12.9251 4.05777 5.72965 0
M  V30 172 H 17.7651 2.5733 1.50285 0
M  V30 173 H 15.3021 1.27613 0.731656 0
M  V30 174 H 17.2601 1.68292 3.81751 0
M  V30 175 H 15.8901 0.76797 3.13532 0
M  V30 176 H 14.9421 3.03615 2.29177 0
M  V30 177 H 16.2541 3.84512 3.17729 0
M  V30 178 H 15.4081 2.89382 5.33238 0
M  V30 179 H 14.1471 1.98068 4.45668 0
M  V30 180 H 13.1521 4.13131 3.62771 0
M  V30 181 H 14.3771 5.0533 4.53672 0
M  V30 182 H 12.3231 3.16351 5.74681 0
M  V30 183 H 12.2401 4.8946 5.76164 0
M  V30 184 H 13.5081 4.08904 6.6364 0
M  V30 185 N 17.7372 -0.778329 1.37039 0
M  V30 186 C 18.6842 -1.89139 1.32269 0
M  V30 187 C 19.6542 -1.65017 0.189387 0
M  V30 188 O 20.8392 -1.87024 0.377693 0
M  V30 189 C 17.9792 -3.26112 1.12894 0
M  V30 190 C 17.0922 -3.62233 2.35396 0
M  V30 191 C 16.2272 -4.8838 2.08946 0
M  V30 192 C 15.2662 -5.17212 3.2735 0
M  V30 193 N 14.4032 -6.34546 3.00492 0
M  V30 194 H 19.2432 -1.92552 2.27437 0
M  V30 195 H 16.7802 -0.941473 1.13025 0
M  V30 196 H 18.7382 -4.05116 0.996835 0
M  V30 197 H 17.3682 -3.22091 0.213758 0
M  V30 198 H 16.4202 -2.78265 2.5937 0
M  V30 199 H 17.7322 -3.79481 3.23721 0
M  V30 200 H 16.8862 -5.75274 1.92729 0
M  V30 201 H 15.6252 -4.73222 1.17949 0
M  V30 202 H 14.6302 -4.28796 3.44113 0
M  V30 203 H 15.8552 -5.34283 4.19188 0
M  V30 204 H 13.8012 -6.20759 2.12118 0
M  V30 205 H 13.7182 -6.52179 3.82358 0
M  V30 206 H 14.9862 -7.24394 2.87879 0
M  V30 207 N 19.2153 -1.21501 -1.00376 0
M  V30 208 C 20.6263 -1.03146 -1.55621 0
M  V30 209 C 20.9773 0.408375 -1.91903 0
M  V30 210 O 20.1023 1.29177 -1.73616 0
M  V30 211 C 20.6973 -1.86612 -2.82775 0
M  V30 212 C 19.2563 -1.72586 -3.34501 0
M  V30 213 C 18.4033 -1.83747 -2.07683 0
M  V30 214 H 21.3543 -1.35505 -0.826081 0
M  V30 215 H 21.3753 -1.3771 -3.54706 0
M  V30 216 H 20.8873 -2.91399 -2.56336 0
M  V30 217 H 18.9883 -0.704877 -3.65872 0
M  V30 218 H 19.1013 -2.54623 -4.05837 0
M  V30 219 H 17.4653 -1.27069 -2.20739 0
M  V30 220 H 18.2483 -2.90044 -1.83655 0
M  V30 221 N 20.6934 1.19889 -1.02296 0
M  V30 222 C 21.9414 1.89046 -0.714558 0
M  V30 223 C 22.2624 1.79636 0.758681 0
M  V30 224 O 21.5324 1.20292 1.54618 0
M  V30 225 H 20.1124 0.699802 -0.261317 0
M  V30 226 H 22.7744 1.45574 -1.29592 0
M  V30 227 H 21.8704 2.95524 -1.0036 0
M  V30 228 N 22.1715 0.800033 1.35784 0
M  V30 229 C 23.1345 0.211565 2.28221 0
M  V30 230 C 24.1345 -0.59728 1.49296 0
M  V30 231 O 25.3245 -0.416721 1.69142 0
M  V30 232 C 22.4565 -0.705846 3.33513 0
M  V30 233 H 23.6495 1.02677 2.81776 0
M  V30 234 H 21.2025 0.570211 1.45528 0
M  V30 235 H 21.9375 -1.54498 2.85133 0
M  V30 236 H 21.7225 -0.127655 3.91892 0
M  V30 237 H 23.2125 -1.11211 4.02519 0
M  V30 238 N 23.6496 -1.47581 0.552962 0
M  V30 239 C 24.8746 -2.07378 0.0300593 0
M  V30 240 C 25.2996 -1.40355 -1.25229 0
M  V30 241 O 24.6576 -0.477099 -1.7491 0
M  V30 242 C 24.7056 -3.60274 -0.153231 0
M  V30 243 O 23.8096 -3.94041 -1.21678 0
M  V30 244 H 23.1506 -0.662158 0.0494182 0
M  V30 245 H 25.6806 -1.89662 0.767434 0
M  V30 246 H 25.6906 -4.0633 -0.368761 0
M  V30 247 H 24.3656 -4.08455 0.783397 0
M  V30 248 H 22.9426 -3.59735 -0.982079 0
M  V30 249 N 25.1277 -0.289203 -1.54924 0
M  V30 250 C 26.3737 0.323998 -2.00195 0
M  V30 251 C 26.7067 1.54441 -1.17735 0
M  V30 252 O 25.9817 1.92875 -0.250878 0
M  V30 253 C 26.2647 0.692276 -3.53383 0
M  V30 254 C 26.1177 -0.536457 -4.46589 0
M  V30 255 C 27.4367 1.52335 -4.12895 0
M  V30 256 H 24.5557 0.116289 -0.727768 0
M  V30 257 H 27.1977 -0.398954 -1.85764 0
M  V30 258 H 25.3477 1.30822 -3.65811 0
M  V30 259 H 27.0197 -1.17499 -4.46085 0
M  V30 260 H 25.2627 -1.17192 -4.1767 0
M  V30 261 H 25.9337 -0.234806 -5.515 0
M  V30 262 H 28.4097 1.00302 -4.0383 0
M  V30 263 H 27.2857 1.74982 -5.20262 0
M  V30 264 H 27.5467 2.50886 -3.64018 0
M  V30 265 N 26.6058 1.57591 -0.0167156 0
M  V30 266 C 27.5528 2.09462 0.969251 0
M  V30 267 C 28.5228 0.99381 1.33089 0
M  V30 268 O 29.7078 1.26726 1.42636 0
M  V30 269 C 26.8478 2.61622 2.25051 0
M  V30 270 C 25.9608 3.85666 1.94642 0
M  V30 271 C 25.0958 4.26266 3.16972 0
M  V30 272 C 24.1348 5.43101 2.82326 0
M  V30 273 N 23.2718 5.78915 3.97243 0
M  V30 274 H 28.1118 2.93428 0.519997 0
M  V30 275 H 25.6488 1.45044 0.245087 0
M  V30 276 H 27.6068 2.89949 2.99976 0
M  V30 277 H 26.2368 1.80505 2.67615 0
M  V30 278 H 25.2888 3.64145 1.10013 0
M  V30 279 H 26.6008 4.70678 1.65117 0
M  V30 280 H 25.7548 4.55963 4.00228 0
M  V30 281 H 24.4938 3.39996 3.49648 0
M  V30 282 H 23.4988 5.1311 1.97479 0
M  V30 283 H 24.7238 6.3106 2.50879 0
M  V30 284 H 22.6698 4.95602 4.29785 0
M  V30 285 H 22.5868 6.58539 3.71299 0
M  V30 286 H 23.8548 6.13212 4.81239 0
M  V30 287 N 28.0839 -0.256276 1.55502 0
M  V30 288 C 29.3299 -0.987079 1.77157 0
M  V30 289 C 29.6629 -1.85327 0.580315 0
M  V30 290 O 28.9379 -1.89874 -0.421686 0
M  V30 291 C 29.2209 -1.85553 3.08613 0
M  V30 292 C 29.0739 -1.01816 4.38125 0
M  V30 293 C 30.3929 -2.8397 3.36228 0
M  V30 294 H 27.5119 -0.357428 0.644526 0
M  V30 295 H 30.1539 -0.258239 1.88237 0
M  V30 296 H 28.3039 -2.47695 2.99298 0
M  V30 297 H 29.9759 -0.416159 4.59419 0
M  V30 298 H 28.2189 -0.322178 4.32602 0
M  V30 299 H 28.8899 -1.65939 5.26468 0
M  V30 300 H 31.3659 -2.31964 3.45445 0
M  V30 301 H 30.2419 -3.41864 4.29442 0
M  V30 302 H 30.5029 -3.59955 2.56681 0
M  V30 303 N 29.562 -1.4872 -0.521534 0
M  V30 304 C 30.787 -1.61101 -1.30618 0
M  V30 305 C 31.212 -0.274611 -1.86085 0
M  V30 306 O 30.57 0.754937 -1.64834 0
M  V30 307 C 30.618 -2.66709 -2.4269 0
M  V30 308 O 29.722 -2.24456 -3.45967 0
M  V30 309 H 29.063 -0.539921 -0.386499 0
M  V30 310 H 31.593 -1.94767 -0.626645 0
M  V30 311 H 31.603 -2.88245 -2.88754 0
M  V30 312 H 30.278 -3.63727 -2.01682 0
M  V30 313 H 28.855 -2.13168 -3.05964 0
M  V30 314 N 31.0401 0.771051 -1.3745 0
M  V30 315 C 32.2801 1.54264 -1.34096 0
M  V30 316 C 32.6441 1.91858 0.0737639 0
M  V30 317 O 33.8451 2.67797 0.23203 0
M  V30 318 C 32.1161 2.77326 -2.25445 0
M  V30 319 S 33.6751 3.67383 -2.39948 0
M  V30 320 H 30.4931 0.528122 -0.476034 0
M  V30 321 H 33.0951 0.906633 -1.73206 0
M  V30 322 H 31.7991 2.47788 -3.27153 0
M  V30 323 H 31.3301 3.45886 -1.87421 0
M  V30 324 H 33.3451 4.69334 -1.61059 0
M  V30 325 N 32.5182 1.22032 0.997298 0
M  V30 326 C 33.4652 0.986467 2.08656 0
M  V30 327 C 34.4352 -0.0902671 1.65855 0
M  V30 328 O 35.6202 0.0584294 1.90711 0
M  V30 329 C 32.7602 0.565569 3.40434 0
M  V30 330 C 31.8732 1.71259 3.96604 0
M  V30 331 C 31.0082 1.24011 5.16522 0
M  V30 332 C 30.0472 2.35896 5.64818 0
M  V30 333 N 29.1842 1.89726 6.7598 0
M  V30 334 H 34.0242 1.91892 2.27994 0
M  V30 335 H 31.5612 0.956199 1.11782 0
M  V30 336 H 33.5192 0.302738 4.161 0
M  V30 337 H 32.1492 -0.329879 3.2111 0
M  V30 338 H 31.2012 2.08986 3.17851 0
M  V30 339 H 32.5132 2.55436 4.28432 0
M  V30 340 H 31.6672 0.934395 5.99461 0
M  V30 341 H 30.4062 0.368487 4.86306 0
M  V30 342 H 29.4112 2.67261 4.8047 0
M  V30 343 H 30.6362 3.23567 5.97061 0
M  V30 344 H 28.5822 1.0492 6.47555 0
M  V30 345 H 28.4992 2.67471 7.07103 0
M  V30 346 H 29.7672 1.62211 7.62435 0
M  V30 347 N 33.9963 -1.19345 1.0293 0
M  V30 348 C 34.9593 -2.20793 0.615069 0
M  V30 349 C 35.9593 -1.57553 -0.321533 0
M  V30 350 O 37.1493 -1.73862 -0.108483 0
M  V30 351 C 34.2813 -3.40754 -0.0999222 0
M  V30 352 H 35.4743 -2.58955 1.51269 0
M  V30 353 H 33.0273 -1.3303 0.820534 0
M  V30 354 H 33.7623 -3.0811 -1.01187 0
M  V30 355 H 33.5473 -3.87889 0.57309 0
M  V30 356 H 35.0373 -4.15898 -0.376645 0
M  V30 357 N 35.4744 -0.807222 -1.35358 0
M  V30 358 C 36.6994 -0.399309 -2.0352 0
M  V30 359 C 37.1244 0.981986 -1.60433 0
M  V30 360 O 36.4824 1.63601 -0.781299 0
M  V30 361 C 36.5304 -0.491552 -3.57234 0
M  V30 362 O 35.6344 0.494754 -4.09421 0
M  V30 363 H 34.9754 -0.166682 -0.642739 0
M  V30 364 H 37.5054 -1.09328 -1.72941 0
M  V30 365 H 37.5154 -0.361588 -4.06395 0
M  V30 366 H 36.1904 -1.49907 -3.87944 0
M  V30 367 H 34.7674 0.324977 -3.71481 0
M  V30 368 N 36.9525 1.47285 -0.560781 0
M  V30 369 C 38.2005 2.02064 -0.0379868 0
M  V30 370 C 38.5215 1.43711 1.31803 0
M  V30 371 O 37.7915 0.61362 1.86042 0
M  V30 372 H 36.3715 0.746918 -0.0110531 0
M  V30 373 H 39.0335 1.80648 -0.731598 0
M  V30 374 H 38.1295 3.12064 0.0474463 0
M  V30 375 N 38.4306 0.297415 1.54768 0
M  V30 376 C 39.6606 -0.315165 2.04182 0
M  V30 377 C 40.0686 -1.4834 1.17439 0
M  V30 378 O 39.4116 -1.82695 0.191891 0
M  V30 379 C 39.4736 -0.837583 3.49607 0
M  V30 380 C 39.1376 0.204912 4.5654 0
M  V30 381 C 40.1346 1.03214 5.09552 0
M  V30 382 C 37.8196 0.345578 5.0111 0
M  V30 383 C 39.8136 1.986 6.05671 0
M  V30 384 C 37.5006 1.30289 5.97049 0
M  V30 385 C 38.4986 2.12159 6.49213 0
M  V30 386 O 38.1866 3.06268 7.43273 0
M  V30 387 H 37.9186 -0.0729646 0.672051 0
M  V30 388 H 40.4726 0.433907 2.00765 0
M  V30 389 H 38.7026 -1.63712 3.50336 0
M  V30 390 H 40.3916 -1.36566 3.82236 0
M  V30 391 H 41.1576 0.934312 4.75916 0
M  V30 392 H 37.0366 -0.28171 4.60138 0
M  V30 393 H 40.5806 2.62542 6.46311 0
M  V30 394 H 36.4776 1.40145 6.30103 0
M  V30 395 H 37.2456 3.01205 7.61064 0
M  V30 396 N 39.9087 -1.5758 0.0250728 0
M  V30 397 C 41.1367 -1.9593 -0.664747 0
M  V30 398 C 41.5517 -0.901352 -1.65895 0
M  V30 399 O 40.9087 0.117255 -1.82123 0
M  V30 400 C 40.9597 -3.34342 -1.37468 0
M  V30 401 O 40.6807 -4.36079 -0.420324 0
M  V30 402 C 42.1817 -3.873 -2.1567 0
M  V30 403 H 39.4017 -0.645405 -0.183557 0
M  V30 404 H 41.9457 -2.04329 0.0836372 0
M  V30 405 H 40.1007 -3.27175 -2.0745 0
M  V30 406 H 40.5147 -5.16297 -0.923991 0
M  V30 407 H 41.9887 -4.86504 -2.60803 0
M  V30 408 H 42.4657 -3.21331 -2.99405 0
M  V30 409 H 43.0717 -3.97723 -1.50654 0
M  V30 410 N 41.3868 0.248026 -1.55636 0
M  V30 411 C 42.6338 0.976224 -1.77415 0
M  V30 412 C 42.9618 1.85361 -0.589193 0
M  V30 413 O 42.2168 1.90973 0.427529 0
M  V30 414 C 42.5158 1.86819 -3.04686 0
M  V30 415 C 42.1818 1.14625 -4.36087 0
M  V30 416 C 40.8438 0.946723 -4.71795 0
M  V30 417 C 43.1958 0.634463 -5.17324 0
M  V30 418 C 40.5238 0.223091 -5.86276 0
M  V30 419 C 42.8758 -0.0756959 -6.32555 0
M  V30 420 C 41.5398 -0.286711 -6.66884 0
M  V30 421 H 40.8098 0.357226 -0.649208 0
M  V30 422 H 43.4568 0.246415 -1.89908 0
M  V30 423 H 41.7618 2.66502 -2.872 0
M  V30 424 H 43.4588 2.43329 -3.18735 0
M  V30 425 H 40.0488 1.3117 -4.08035 0
M  V30 426 H 44.2328 0.77616 -4.90193 0
M  V30 427 H 39.4888 0.0491185 -6.1138 0
M  V30 428 H 43.6628 -0.479899 -6.94745 0
M  V30 429 H 41.2898 -0.849389 -7.5544 0
M  V30 430 N 42.8649 1.48995 0.513639 0
M  V30 431 C 44.0929 1.61531 1.29288 0
M  V30 432 C 44.5079 0.281801 1.86685 0
M  V30 433 O 43.8649 -0.731111 1.67215 0
M  V30 434 C 43.9159 2.67449 2.43215 0
M  V30 435 O 43.6369 3.95626 1.88179 0
M  V30 436 C 45.1379 2.90575 3.34785 0
M  V30 437 H 42.3579 0.544165 0.392588 0
M  V30 438 H 44.9019 1.9494 0.617956 0
M  V30 439 H 43.0569 2.36853 3.0656 0
M  V30 440 H 43.4709 4.53868 2.62876 0
M  V30 441 H 44.9449 3.68449 4.11035 0
M  V30 442 H 45.4219 2.00011 3.91015 0
M  V30 443 H 46.0279 3.22538 2.77218 0
M  V30 444 N 44.343 -0.763751 1.37857 0
M  V30 445 C 45.568 -1.55805 1.36893 0
M  V30 446 C 45.993 -1.88054 -0.0416135 0
M  V30 447 O 45.351 -1.49825 -1.02089 0
M  V30 448 C 45.399 -2.84012 2.22192 0
M  V30 449 O 44.503 -3.78732 1.63204 0
M  V30 450 H 43.844 -0.471638 0.46739 0
M  V30 451 H 46.374 -0.944657 1.81487 0
M  V30 452 H 46.384 -3.33037 2.35691 0
M  V30 453 H 45.059 -2.59869 3.24716 0
M  V30 454 H 43.636 -3.37402 1.58791 0
M  V30 455 N 45.8211 -1.22559 -0.990812 0
M  V30 456 C 46.7711 -0.964807 -2.0658 0
M  V30 457 C 47.7551 0.0853472 -1.60673 0
M  V30 458 O 48.9471 -0.125443 -1.76555 0
M  V30 459 C 46.0761 -0.546707 -3.38919 0
M  V30 460 C 45.1621 -1.6317 -3.91454 0
M  V30 461 N 45.5531 -2.85985 -4.17189 0
M  V30 462 C 43.8511 -1.50387 -4.19881 0
M  V30 463 C 44.5521 -3.56159 -4.59919 0
M  V30 464 N 43.5281 -2.83637 -4.63736 0
M  V30 465 H 47.3301 -1.89769 -2.24421 0
M  V30 466 H 44.8441 -1.12343 -1.17273 0
M  V30 467 H 46.8411 -0.34119 -4.15502 0
M  V30 468 H 45.5011 0.379254 -3.22478 0
M  V30 469 H 46.5121 -3.22392 -4.05319 0
M  V30 470 H 43.1891 -0.644254 -4.12499 0
M  V30 471 H 44.5791 -4.6139 -4.88435 0
M  V30 472 N 47.2992 1.18797 -1.03562 0
M  V30 473 C 48.5452 1.89192 -0.746867 0
M  V30 474 C 48.9002 1.78531 0.717245 0
M  V30 475 O 48.1932 1.17137 1.51622 0
M  V30 476 C 48.3872 3.38692 -1.14117 0
M  V30 477 C 48.2162 3.63902 -2.64207 0
M  V30 478 C 46.9862 3.81553 -3.31279 0
M  V30 479 C 49.1842 3.64903 -3.62423 0
M  V30 480 N 47.1662 3.94455 -4.70402 0
M  V30 481 C 48.5372 3.83458 -4.87196 0
M  V30 482 C 50.5922 3.47965 -3.56125 0
M  V30 483 C 49.2952 3.86829 -6.06429 0
M  V30 484 C 51.3212 3.52616 -4.7478 0
M  V30 485 C 50.6832 3.71663 -5.9837 0
M  V30 486 H 46.7822 0.711141 -0.325273 0
M  V30 487 H 49.3662 1.42727 -1.32428 0
M  V30 488 H 47.5372 3.83864 -0.591889 0
M  V30 489 H 49.2692 3.96634 -0.803966 0
M  V30 490 H 46.0242 3.80723 -2.81686 0
M  V30 491 H 46.4482 4.0474 -5.42692 0
M  V30 492 H 51.0902 3.32189 -2.61553 0
M  V30 493 H 48.8082 4.01395 -7.01362 0
M  V30 494 H 52.3942 3.40791 -4.71543 0
M  V30 495 H 51.2742 3.75145 -6.88648 0
M  V30 496 N 48.7773 0.814389 1.34928 0
M  V30 497 C 49.7103 0.175641 2.27523 0
M  V30 498 C 50.6883 -0.662953 1.48471 0
M  V30 499 O 51.8723 -0.628545 1.77712 0
M  V30 500 C 48.9993 -0.755516 3.30166 0
M  V30 501 C 48.0453 0.00445305 4.265 0
M  V30 502 S 48.8783 1.34582 5.18313 0
M  V30 503 C 50.0343 0.419315 6.24494 0
M  V30 504 H 50.2673 0.960691 2.8135 0
M  V30 505 H 47.8003 0.609846 1.41846 0
M  V30 506 H 49.7583 -1.28723 3.89796 0
M  V30 507 H 48.4193 -1.51402 2.75202 0
M  V30 508 H 47.6123 -0.703077 4.99072 0
M  V30 509 H 47.2143 0.466447 3.7108 0
M  V30 510 H 49.5063 -0.392432 6.76362 0
M  V30 511 H 50.4493 1.11446 6.99275 0
M  V30 512 H 50.8573 0.0115389 5.64499 0
M  V30 513 N 50.2554 -1.46986 0.568584 0
M  V30 514 C 51.2054 -2.27179 -0.193339 0
M  V30 515 C 52.1894 -1.35035 -0.874895 0
M  V30 516 O 53.3814 -1.5931 -0.771322 0
M  V30 517 C 50.5104 -3.21063 -1.21546 0
M  V30 518 C 49.5964 -4.2069 -0.536738 0
M  V30 519 N 49.9874 -5.04218 0.399673 0
M  V30 520 C 48.2854 -4.38961 -0.789254 0
M  V30 521 C 48.9864 -5.76242 0.795017 0
M  V30 522 N 47.9624 -5.434 0.1473 0
M  V30 523 H 51.7644 -2.89146 0.526458 0
M  V30 524 H 49.2784 -1.57664 0.389342 0
M  V30 525 H 51.2754 -3.77209 -1.77536 0
M  V30 526 H 49.9354 -2.60654 -1.93623 0
M  V30 527 H 50.9464 -5.12077 0.774454 0
M  V30 528 H 47.6234 -3.89713 -1.49767 0
M  V30 529 H 49.0134 -6.53417 1.56513 0
M  V30 530 N 51.7335 -0.305618 -1.54608 0
M  V30 531 C 52.9795 0.295595 -2.01241 0
M  V30 532 C 53.3345 1.51171 -1.19018 0
M  V30 533 O 52.6275 1.89832 -0.259684 0
M  V30 534 C 52.8215 0.698983 -3.50498 0
M  V30 535 C 52.6505 -0.476491 -4.47168 0
M  V30 536 C 51.4205 -0.969963 -4.95903 0
M  V30 537 C 53.6185 -1.32294 -4.96994 0
M  V30 538 N 51.6005 -2.11172 -5.76437 0
M  V30 539 C 52.9715 -2.31212 -5.75275 0
M  V30 540 C 55.0265 -1.35278 -4.7917 0
M  V30 541 C 53.7295 -3.32896 -6.37631 0
M  V30 542 C 55.7555 -2.35823 -5.42348 0
M  V30 543 C 55.1175 -3.33469 -6.20466 0
M  V30 544 H 51.2165 0.0724992 -0.778632 0
M  V30 545 H 53.8005 -0.436583 -1.89742 0
M  V30 546 H 51.9715 1.40032 -3.62278 0
M  V30 547 H 53.7035 1.28013 -3.8392 0
M  V30 548 H 50.4585 -0.544178 -4.70463 0
M  V30 549 H 50.8825 -2.68714 -6.21387 0
M  V30 550 H 55.5245 -0.61157 -4.18354 0
M  V30 551 H 53.2425 -4.07933 -6.97579 0
M  V30 552 H 56.8285 -2.38911 -5.30484 0
M  V30 553 H 55.7085 -4.09996 -6.68485 0
M  V30 554 N 53.2116 1.57565 -0.0334293 0
M  V30 555 C 54.4576 1.92262 0.645226 0
M  V30 556 C 54.7906 0.910543 1.71531 0
M  V30 557 O 54.0656 -0.066099 1.94388 0
M  V30 558 C 54.3486 3.37422 1.2577 0
M  V30 559 C 54.2016 4.49369 0.196891 0
M  V30 560 C 55.5206 3.82628 2.17449 0
M  V30 561 H 52.6396 0.699171 0.233085 0
M  V30 562 H 55.2816 1.89779 -0.0915694 0
M  V30 563 H 53.4316 3.39669 1.88566 0
M  V30 564 H 55.1036 4.59254 -0.433962 0
M  V30 565 H 53.3466 4.31168 -0.477137 0
M  V30 566 H 54.0176 5.47978 0.665124 0
M  V30 567 H 56.4936 3.82145 1.64634 0
M  V30 568 H 55.3696 4.84883 2.57254 0
M  V30 569 H 55.6306 3.18376 3.0674 0
M  V30 570 N 54.6897 -0.239769 1.55765 0
M  V30 571 C 56.1057 -0.588624 1.48349 0
M  V30 572 C 56.3057 -1.88005 0.72502 0
M  V30 573 O 55.3617 -2.51186 0.257269 0
M  V30 574 C 56.6747 -0.68474 2.928 0
M  V30 575 C 58.2227 -0.77659 3.03213 0
M  V30 576 C 58.6977 -0.904207 4.48986 0
M  V30 577 N 60.1887 -0.968896 4.52953 0
M  V30 578 C 60.9237 -1.08703 5.63002 0
M  V30 579 N 60.4197 -1.17026 6.82845 0
M  V30 580 N 62.2127 -1.12074 5.50814 0
M  V30 581 H 54.3637 0.607911 2.03515 0
M  V30 582 H 56.6267 0.21083 0.924259 0
M  V30 583 H 56.3327 0.194284 3.51163 0
M  V30 584 H 56.2067 -1.55435 3.43686 0
M  V30 585 H 58.5937 -1.64606 2.44926 0
M  V30 586 H 58.6747 0.118315 2.55526 0
M  V30 587 H 58.3187 -0.0392633 5.07885 0
M  V30 588 H 58.2487 -1.81426 4.9436 0
M  V30 589 H 60.7397 -0.915633 3.6664 0
M  V30 590 H 61.0527 -1.25966 7.62465 0
M  V30 591 H 59.3977 -1.13971 6.85591 0
M  V30 592 H 62.5887 -1.05226 4.5612 0
M  V30 593 H 62.7617 -1.20936 6.36615 0
M  V30 594 N 56.1678 -1.49265 -0.50573 0
M  V30 595 C 57.0998 -1.617 -1.62437 0
M  V30 596 C 58.1128 -0.499924 -1.54934 0
M  V30 597 O 59.3018 -0.771785 -1.60953 0
M  V30 598 C 56.4018 -1.5533 -3.01207 0
M  V30 599 C 55.5748 -2.8249 -3.33943 0
M  V30 600 C 54.6338 -2.69238 -4.52103 0
M  V30 601 O 53.6598 -3.43167 -4.5412 0
M  V30 602 N 54.8618 -1.80468 -5.51735 0
M  V30 603 H 57.6268 -2.58177 -1.52199 0
M  V30 604 H 55.1878 -1.46294 -0.693511 0
M  V30 605 H 57.1798 -1.44125 -3.78167 0
M  V30 606 H 55.7498 -0.667297 -3.05395 0
M  V30 607 H 54.9698 -3.08081 -2.45926 0
M  V30 608 H 56.2578 -3.66802 -3.5261 0
M  V30 609 H 55.6558 -1.19653 -5.52901 0
M  V30 610 H 54.2128 -1.75188 -6.27816 0
M  V30 611 N 57.6459 0.756429 -1.3826 0
M  V30 612 C 58.6089 1.85176 -1.35065 0
M  V30 613 C 59.6089 1.58818 -0.251703 0
M  V30 614 O 60.7989 1.66615 -0.508433 0
M  V30 615 C 57.9309 3.22596 -1.10201 0
M  V30 616 H 59.1239 1.89417 -2.3251 0
M  V30 617 H 56.6769 0.95783 -1.23512 0
M  V30 618 H 57.4119 3.24025 -0.133504 0
M  V30 619 H 57.1969 3.43122 -1.89762 0
M  V30 620 H 58.6869 4.02673 -1.10654 0
M  V30 621 N 59.124 1.23083 0.984299 0
M  V30 622 C 60.535 1.05609 1.5396 0
M  V30 623 C 60.886 -0.377793 1.92528 0
M  V30 624 O 60.011 -1.26398 1.75649 0
M  V30 625 C 60.606 1.91087 2.7977 0
M  V30 626 C 59.165 1.77885 3.31713 0
M  V30 627 C 58.312 1.87028 2.04733 0
M  V30 628 H 61.263 1.36802 0.804419 0
M  V30 629 H 61.284 1.43336 3.5247 0
M  V30 630 H 60.796 2.9544 2.51668 0
M  V30 631 H 58.897 0.762995 3.64704 0
M  V30 632 H 59.01 2.61047 4.01735 0
M  V30 633 H 57.374 1.30565 2.18689 0
M  V30 634 H 58.157 2.92929 1.79017 0
M  V30 635 N 60.6021 -1.18246 1.0419 0
M  V30 636 C 61.8501 -1.87886 0.744543 0
M  V30 637 C 62.1711 -1.8082 -0.730006 0
M  V30 638 O 61.4411 -1.22736 -1.52685 0
M  V30 639 H 60.0211 -0.695556 0.272417 0
M  V30 640 H 62.6831 -1.43494 1.31892 0
M  V30 641 H 61.7791 -2.9389 1.05049 0
M  V30 642 N 62.0802 -0.821533 -1.34494 0
M  V30 643 C 63.0122 -0.199946 -2.28326 0
M  V30 644 C 64.0252 0.609377 -1.50965 0
M  V30 645 O 65.2142 0.439285 -1.7301 0
M  V30 646 C 62.3142 0.738431 -3.30757 0
M  V30 647 C 61.4872 -0.0277632 -4.37391 0
M  V30 648 C 60.5462 0.831332 -5.19591 0
M  V30 649 O 59.5722 0.276822 -5.68526 0
M  V30 650 N 60.7742 2.15132 -5.39165 0
M  V30 651 H 63.5392 -1.00609 -2.82308 0
M  V30 652 H 61.1002 -0.678366 -1.47003 0
M  V30 653 H 63.0922 1.31773 -3.82646 0
M  V30 654 H 61.6622 1.44533 -2.7718 0
M  V30 655 H 60.8822 -0.788359 -3.86236 0
M  V30 656 H 62.1702 -0.555251 -5.05761 0
M  V30 657 H 61.5682 2.62559 -5.01078 0
M  V30 658 H 60.1252 2.6795 -5.94177 0
M  V30 659 N 63.5583 1.46682 -0.576371 0
M  V30 660 C 64.8063 2.02013 -0.0594163 0
M  V30 661 C 65.1273 1.45101 1.30271 0
M  V30 662 O 64.3973 0.633317 1.8538 0
M  V30 663 H 62.9773 0.746759 -0.0189745 0
M  V30 664 H 65.6393 1.79862 -0.750717 0
M  V30 665 H 64.7353 3.12097 0.014345 0
M  V30 666 N 65.0364 0.313813 1.54444 0
M  V30 667 C 65.9664 -0.549454 2.26943 0
M  V30 668 C 66.9474 -1.12741 1.27372 0
M  V30 669 O 68.1324 -1.15436 1.56167 0
M  V30 670 C 65.2624 -1.71523 3.01989 0
M  V30 671 C 64.2164 -1.26703 4.08816 0
M  V30 672 C 63.5424 -2.51898 4.71647 0
M  V30 673 C 64.8424 -0.388962 5.2085 0
M  V30 674 H 66.5364 0.0552661 2.99349 0
M  V30 675 H 64.0824 0.0280207 1.43973 0
M  V30 676 H 66.0354 -2.32535 3.51433 0
M  V30 677 H 64.7594 -2.34639 2.27183 0
M  V30 678 H 63.4184 -0.679896 3.6024 0
M  V30 679 H 63.0664 -3.13356 3.93468 0
M  V30 680 H 62.7664 -2.22605 5.43802 0
M  V30 681 H 64.2904 -3.1369 5.23861 0
M  V30 682 H 65.7044 -0.905107 5.6611 0
M  V30 683 H 64.1014 -0.18924 5.99802 0
M  V30 684 H 65.1714 0.582699 4.81386 0
M  V30 685 N 66.5145 -1.57545 0.0417849 0
M  V30 686 C 67.4245 -2.14451 -0.951213 0
M  V30 687 C 68.4405 -1.09992 -1.34825 0
M  V30 688 O 69.6165 -1.42114 -1.42708 0
M  V30 689 C 66.6815 -2.67063 -2.21084 0
M  V30 690 C 65.7425 -3.86284 -1.87304 0
M  V30 691 C 64.9755 -4.36378 -3.07261 0
M  V30 692 O 65.1985 -3.85587 -4.20332 0
M  V30 693 O 64.1325 -5.28077 -2.88822 0
M  V30 694 H 67.9585 -2.99601 -0.497287 0
M  V30 695 H 65.5435 -1.48317 -0.179567 0
M  V30 696 H 67.4255 -3.00914 -2.95006 0
M  V30 697 H 66.1005 -1.84989 -2.65633 0
M  V30 698 H 65.0075 -3.57338 -1.10727 0
M  V30 699 H 66.3405 -4.6956 -1.47562 0
M  V30 700 N 67.9926 0.231505 -1.5589 0
M  V30 701 C 69.2386 0.954429 -1.79617 0
M  V30 702 C 69.5936 1.82367 -0.613199 0
M  V30 703 O 68.8866 1.87524 0.393094 0
M  V30 704 C 69.0806 1.83577 -3.0665 0
M  V30 705 C 68.9096 1.05334 -4.3719 0
M  V30 706 C 67.6796 0.75225 -4.99669 0
M  V30 707 C 69.8776 0.423444 -5.12554 0
M  V30 708 N 67.8596 -0.052627 -6.13877 0
M  V30 709 C 69.2306 -0.245287 -6.19515 0
M  V30 710 C 71.2856 0.335466 -4.96769 0
M  V30 711 C 69.9886 -0.993566 -7.12405 0
M  V30 712 C 72.0146 -0.399321 -5.9005 0
M  V30 713 C 71.3766 -1.05663 -6.9643 0
M  V30 714 H 67.4756 0.329846 -0.709031 0
M  V30 715 H 70.0596 0.226172 -1.93382 0
M  V30 716 H 68.2306 2.53592 -2.94186 0
M  V30 717 H 69.9626 2.49541 -3.18608 0
M  V30 718 H 66.7176 1.06783 -4.61405 0
M  V30 719 H 67.1416 -0.443609 -6.75545 0
M  V30 720 H 71.7836 0.829311 -4.14587 0
M  V30 721 H 69.5016 -1.49896 -7.94076 0
M  V30 722 H 73.0876 -0.468265 -5.79913 0
M  V30 723 H 71.9676 -1.61612 -7.67366 0
M  V30 724 N 69.4707 1.49531 0.497807 0
M  V30 725 C 70.7197 1.58426 1.24837 0
M  V30 726 C 71.0327 0.277643 1.93619 0
M  V30 727 O 72.2387 0.24517 2.70391 0
M  V30 728 C 70.6947 2.79538 2.26686 0
M  V30 729 C 70.3027 4.16971 1.63828 0
M  V30 730 C 72.0467 2.97764 3.0255 0
M  V30 731 C 69.9537 5.29301 2.63807 0
M  V30 732 H 68.8837 0.58989 0.469623 0
M  V30 733 H 71.5347 1.75923 0.521857 0
M  V30 734 H 69.9167 2.55542 3.02514 0
M  V30 735 H 71.0907 4.51116 0.939711 0
M  V30 736 H 69.4057 4.04129 1.00342 0
M  V30 737 H 72.0027 3.78856 3.77323 0
M  V30 738 H 72.3457 2.08448 3.60354 0
M  V30 739 H 72.8787 3.21815 2.33838 0
M  V30 740 H 69.6177 6.20687 2.10779 0
M  V30 741 H 69.1377 4.99606 3.31894 0
M  V30 742 H 70.8167 5.58768 3.2617 0
M  V30 743 N 70.9488 -0.749086 1.3866 0
M  V30 744 C 72.1968 -1.50535 1.34847 0
M  V30 745 C 72.5178 -1.94909 -0.0595016 0
M  V30 746 O 71.7878 -1.67973 -1.00806 0
M  V30 747 H 70.3678 -0.558395 0.49619 0
M  V30 748 H 73.0298 -0.890165 1.73384 0
M  V30 749 H 72.1258 -2.39413 2.00219 0
M  V30 750 N 72.4269 -1.23603 -0.977757 0
M  V30 751 C 73.3369 -1.03632 -2.1047 0
M  V30 752 C 74.3529 0.0199435 -1.73989 0
M  V30 753 O 75.5289 -0.176076 -2.00629 0
M  V30 754 C 72.5939 -0.63276 -3.40877 0
M  V30 755 C 71.6549 -1.76437 -3.91367 0
M  V30 756 C 70.8879 -1.37997 -5.15551 0
M  V30 757 O 71.1109 -0.265357 -5.69782 0
M  V30 758 O 70.0449 -2.20201 -5.60174 0
M  V30 759 H 73.8709 -1.98086 -2.30208 0
M  V30 760 H 71.4559 -1.02332 -1.08851 0
M  V30 761 H 73.3379 -0.418761 -4.19314 0
M  V30 762 H 72.0129 0.282754 -3.22463 0
M  V30 763 H 70.9199 -2.03304 -3.14036 0
M  V30 764 H 72.2529 -2.6583 -4.14241 0
M  V30 765 N 73.905 1.17692 -1.04816 0
M  V30 766 C 75.152 1.87859 -0.75599 0
M  V30 767 C 75.48 1.80812 0.716752 0
M  V30 768 O 74.735 1.20819 1.53952 0
M  V30 769 C 75.034 3.37462 -1.17703 0
M  V30 770 C 74.7 3.64713 -2.65133 0
M  V30 771 C 73.362 3.71859 -3.05408 0
M  V30 772 C 75.714 3.76492 -3.60421 0
M  V30 773 C 73.042 3.88271 -4.39843 0
M  V30 774 C 75.394 3.94421 -4.94585 0
M  V30 775 C 74.058 3.99806 -5.3452 0
M  V30 776 H 73.328 0.687425 -0.276636 0
M  V30 777 H 75.975 1.39255 -1.31455 0
M  V30 778 H 74.28 3.88097 -0.537395 0
M  V30 779 H 75.977 3.90109 -0.928218 0
M  V30 780 H 72.567 3.59772 -2.32942 0
M  V30 781 H 76.751 3.70295 -3.30447 0
M  V30 782 H 72.007 3.90687 -4.70291 0
M  V30 783 H 76.181 4.02477 -5.68318 0
M  V30 784 H 73.808 4.12276 -6.38696 0
M  V30 785 N 75.3831 0.828654 1.34056 0
M  V30 786 C 76.3311 0.242973 2.31327 0
M  V30 787 C 77.3251 -0.61944 1.57668 0
M  V30 788 O 78.5311 -0.51014 1.7262 0
M  V30 789 H 74.9061 0.059834 0.749616 0
M  V30 790 H 76.8771 1.07809 2.78244 0
M  V30 791 C 75.6261 -0.575733 3.429 0
M  V30 792 H 74.9491 0.0785582 3.99723 0
M  V30 793 H 76.3891 -0.951547 4.13185 0
M  V30 794 C 74.8481 -1.75044 2.87856 0
M  V30 795 O 75.3781 -2.84882 2.83205 0
M  V30 796 N 73.5841 -1.56903 2.44602 0
M  V30 797 H 73.1311 -0.675547 2.48584 0
M  V30 798 H 73.0891 -2.35652 2.08124 0
M  V30 799 N 76.8612 -1.46375 0.584142 0
M  V30 800 C 78.2722 -1.86031 0.157959 0
M  V30 801 C 78.6232 -1.48753 -1.27933 0
M  V30 802 O 77.7482 -0.903098 -1.96655 0
M  V30 803 C 78.3432 -3.37642 0.279892 0
M  V30 804 C 76.9022 -3.76289 -0.09143 0
M  V30 805 C 76.0492 -2.7039 0.615178 0
M  V30 806 H 79.0002 -1.37509 0.792274 0
M  V30 807 H 79.0212 -3.77275 -0.494364 0
M  V30 808 H 78.5332 -3.64742 1.32607 0
M  V30 809 H 76.6342 -3.54806 -1.13769 0
M  V30 810 H 76.7472 -4.78246 0.285886 0
M  V30 811 H 75.1112 -2.5464 0.0552833 0
M  V30 812 H 75.8942 -3.0033 1.66303 0
M  V30 813 N 78.3393 -0.321999 -1.54275 0
M  V30 814 C 79.5643 0.285791 -2.05422 0
M  V30 815 C 79.9893 1.45124 -1.19669 0
M  V30 816 O 79.3473 1.80132 -0.205441 0
M  V30 817 C 79.3953 0.69956 -3.53749 0
M  V30 818 O 78.4993 1.8021 -3.70942 0
M  V30 819 H 77.8403 0.0518962 -0.661969 0
M  V30 820 H 80.3703 -0.469954 -1.9913 0
M  V30 821 H 80.3803 0.982649 -3.9599 0
M  V30 822 H 79.0553 -0.152864 -4.15619 0
M  V30 823 H 77.6323 1.51794 -3.40607 0
M  V30 824 N 79.8174 1.5752 -0.0501392 0
M  V30 825 C 80.7654 2.12651 0.942459 0
M  V30 826 C 81.7594 1.05807 1.32292 0
M  V30 827 O 82.9654 1.24217 1.3027 0
M  V30 828 H 79.3404 0.679673 0.321789 0
M  V30 829 H 81.3114 2.94951 0.452356 0
M  V30 830 C 80.0604 2.68565 2.20836 0
M  V30 831 H 79.3834 3.50439 1.92439 0
M  V30 832 H 80.8234 3.10761 2.8845 0
M  V30 833 C 79.2824 1.62291 2.95234 0
M  V30 834 O 79.8124 1.03508 3.88135 0
M  V30 835 N 78.0184 1.33836 2.57946 0
M  V30 836 H 77.5654 1.81826 1.82475 0
M  V30 837 H 77.5234 0.629595 3.08032 0
M  V30 838 N 81.2955 -0.223234 1.56011 0
M  V30 839 C 82.5435 -0.946003 1.78592 0
M  V30 840 C 82.8645 -1.84936 0.618349 0
M  V30 841 O 82.1345 -1.92473 -0.364833 0
M  V30 842 H 80.7145 -0.352298 0.658707 0
M  V30 843 H 83.3765 -0.235494 1.93472 0
M  V30 844 H 82.4725 -1.55381 2.70672 0
M  V30 845 N 82.7736 -1.49793 -0.48987 0
M  V30 846 C 84.1896 -1.36803 -0.822022 0
M  V30 847 C 84.3896 -0.409652 -1.97292 0
M  V30 848 O 83.4456 0.154614 -2.52026 0
M  V30 849 C 84.7586 -2.77768 -1.15175 0
M  V30 850 C 86.3066 -2.86549 -1.25931 0
M  V30 851 C 86.7816 -4.28306 -1.62228 0
M  V30 852 N 88.2726 -4.31169 -1.69256 0
M  V30 853 C 89.0076 -5.37832 -1.98807 0
M  V30 854 N 88.5036 -6.54726 -2.26507 0
M  V30 855 N 90.2966 -5.25258 -2.00152 0
M  V30 856 H 82.4476 -2.10691 0.268881 0
M  V30 857 H 84.7106 -0.946241 0.057728 0
M  V30 858 H 84.4166 -3.49648 -0.379335 0
M  V30 859 H 84.2906 -3.13836 -2.09253 0
M  V30 860 H 86.6776 -2.14899 -2.02243 0
M  V30 861 H 86.7586 -2.54049 -0.298776 0
M  V30 862 H 86.4026 -5.00486 -0.864622 0
M  V30 863 H 86.3326 -4.58279 -2.594 0
M  V30 864 H 88.8236 -3.4687 -1.49965 0
M  V30 865 H 89.1366 -7.31833 -2.48276 0
M  V30 866 H 87.4816 -6.57933 -2.23939 0
M  V30 867 H 90.6726 -4.32938 -1.77996 0
M  V30 868 H 90.8456 -6.08476 -2.22848 0
M  V30 869 N 84.2517 0.741722 -1.39055 0
M  V30 870 C 85.4797 1.53098 -1.39171 0
M  V30 871 C 85.8947 1.88794 0.0155099 0
M  V30 872 O 85.2517 1.53626 0.985159 0
M  V30 873 C 85.3027 2.82274 -2.2584 0
M  V30 874 O 85.0237 2.48097 -3.61081 0
M  V30 875 C 86.5247 3.76343 -2.34266 0
M  V30 876 H 83.7447 0.473335 -0.4756 0
M  V30 877 H 86.2887 0.917045 -1.82785 0
M  V30 878 H 84.4437 3.40015 -1.85656 0
M  V30 879 H 84.8577 3.31029 -4.06842 0
M  V30 880 H 86.3317 4.63898 -2.9917 0
M  V30 881 H 86.8087 4.17619 -1.35982 0
M  V30 882 H 87.4147 3.24523 -2.74891 0
M  V30 883 N 85.7298 1.2412 0.971189 0
M  V30 884 C 86.6778 1.02812 2.08644 0
M  V30 885 C 87.6718 -0.0358403 1.69362 0
M  V30 886 O 88.8778 0.118429 1.7961 0
M  V30 887 H 85.2528 0.315428 0.682649 0
M  V30 888 H 87.2238 1.97397 2.23779 0
M  V30 889 C 85.9728 0.645874 3.41649 0
M  V30 890 H 85.2958 1.45632 3.72332 0
M  V30 891 H 86.7358 0.536366 4.20594 0
M  V30 892 C 85.1948 -0.646713 3.30635 0
M  V30 893 O 85.7248 -1.69338 3.64263 0
M  V30 894 N 83.9308 -0.626115 2.83775 0
M  V30 895 H 83.4778 0.225988 2.56607 0
M  V30 896 H 83.4358 -1.49117 2.76788 0
M  V30 897 N 87.2079 -1.17134 1.05439 0
M  V30 898 C 88.4379 -1.91094 0.785274 0
M  V30 899 C 88.8459 -1.77198 -0.663142 0
M  V30 900 O 88.1889 -1.10835 -1.46497 0
M  V30 901 C 88.2509 -3.42594 1.08949 0
M  V30 902 C 87.9149 -3.80274 2.53458 0
M  V30 903 C 88.9119 -3.82912 3.51673 0
M  V30 904 C 86.5969 -4.11162 2.88532 0
M  V30 905 C 88.5909 -4.15913 4.83006 0
M  V30 906 C 86.2779 -4.43831 4.20068 0
M  V30 907 C 87.2759 -4.46185 5.17115 0
M  V30 908 O 86.9639 -4.78083 6.46291 0
M  V30 909 H 86.6959 -0.613073 0.284811 0
M  V30 910 H 89.2499 -1.49461 1.40893 0
M  V30 911 H 87.4799 -3.84534 0.408741 0
M  V30 912 H 89.1689 -3.97817 0.805991 0
M  V30 913 H 89.9349 -3.5917 3.25917 0
M  V30 914 H 85.8139 -4.085 2.13656 0
M  V30 915 H 89.3579 -4.17665 5.5875 0
M  V30 916 H 85.2549 -4.67037 4.45586 0
M  V30 917 H 86.0229 -4.9593 6.51149 0
M  V30 918 N 88.686 -0.835752 -1.33615 0
M  V30 919 C 89.634 -0.255238 -2.31195 0
M  V30 920 C 90.628 0.61107 -1.57995 0
M  V30 921 O 91.834 0.500979 -1.72888 0
M  V30 922 H 88.209 -0.0638085 -0.749288 0
M  V30 923 H 90.18 -1.09283 -2.77669 0
M  V30 924 C 88.929 0.55754 -3.43201 0
M  V30 925 H 88.252 -0.0997553 -3.99676 0
M  V30 926 H 89.692 0.929622 -4.13683 0
M  V30 927 C 88.151 1.73515 -2.88781 0
M  V30 928 O 88.681 2.83376 -2.84712 0
M  V30 929 N 86.887 1.55603 -2.4543 0
M  V30 930 H 86.434 0.662354 -2.48939 0
M  V30 931 H 86.392 2.34545 -2.09371 0
M  V30 932 N 90.1641 1.46063 -0.591896 0
M  V30 933 C 91.0741 2.34192 0.13831 0
M  V30 934 C 92.0901 1.50305 0.876608 0
M  V30 935 O 93.2661 1.8315 0.837728 0
M  V30 936 C 90.3311 3.27656 1.13326 0
M  V30 937 C 89.3921 4.27445 0.39863 0
M  V30 938 C 88.6251 5.16443 1.34618 0
M  V30 939 O 88.8481 5.08553 2.58321 0
M  V30 940 O 87.7821 5.95843 0.851768 0
M  V30 941 H 91.6081 2.98002 -0.58552 0
M  V30 942 H 89.1931 1.45188 -0.352239 0
M  V30 943 H 91.0751 3.85291 1.70671 0
M  V30 944 H 89.7501 2.6643 1.83839 0
M  V30 945 H 88.6571 3.73471 -0.216895 0
M  V30 946 H 89.9901 4.91482 -0.265709 0
M  V30 947 N 91.6422 0.330177 1.54103 0
M  V30 948 C 92.5892 -0.532762 2.24567 0
M  V30 949 C 93.5592 -1.10635 1.23892 0
M  V30 950 O 94.7442 -1.14546 1.5259 0
M  V30 951 C 91.8842 -1.6845 3.01195 0
M  V30 952 C 90.9972 -1.13951 4.167 0
M  V30 953 C 90.1322 -2.25746 4.80845 0
M  V30 954 C 89.1712 -1.6853 5.88442 0
M  V30 955 N 88.3082 -2.74014 6.46421 0
M  V30 956 H 93.1482 0.0746905 2.97906 0
M  V30 957 H 90.6852 0.048632 1.4702 0
M  V30 958 H 92.6432 -2.36234 3.43874 0
M  V30 959 H 91.2732 -2.26314 2.30178 0
M  V30 960 H 90.3252 -0.35301 3.78758 0
M  V30 961 H 91.6372 -0.680892 4.94131 0
M  V30 962 H 90.7912 -3.01422 5.26526 0
M  V30 963 H 89.5302 -2.74947 4.0281 0
M  V30 964 H 88.5352 -0.913543 5.42157 0
M  V30 965 H 89.7602 -1.20198 6.68378 0
M  V30 966 H 87.7062 -3.22494 5.71256 0
M  V30 967 H 87.6232 -2.32735 7.19285 0
M  V30 968 H 88.8912 -3.49499 6.96757 0
M  V30 969 N 93.1203 -1.57491 0.0584922 0
M  V30 970 C 94.3673 -1.92978 -0.613648 0
M  V30 971 C 94.6953 -0.937461 -1.70417 0
M  V30 972 O 93.9503 0.049078 -1.95638 0
M  V30 973 C 94.2493 -3.3513 -1.24188 0
M  V30 974 C 93.9153 -4.50037 -0.278826 0
M  V30 975 C 92.5773 -4.81198 -0.0138447 0
M  V30 976 C 94.9293 -5.19807 0.380777 0
M  V30 977 C 92.2573 -5.79473 0.918052 0
M  V30 978 C 94.6093 -6.19079 1.30091 0
M  V30 979 C 93.2733 -6.48665 1.57449 0
M  V30 980 H 92.5433 -0.706157 -0.22455 0
M  V30 981 H 95.1903 -1.91082 0.126533 0
M  V30 982 H 93.4953 -3.33429 -2.05749 0
M  V30 983 H 95.1923 -3.59871 -1.769 0
M  V30 984 H 91.7823 -4.25726 -0.495539 0
M  V30 985 H 95.9663 -4.95939 0.189158 0
M  V30 986 H 91.2223 -6.00727 1.1374 0
M  V30 987 H 95.3963 -6.7225 1.81804 0
M  V30 988 H 93.0233 -7.24628 2.29822 0
M  V30 989 N 94.5984 0.214957 -1.56127 0
M  V30 990 C 95.5454 1.26642 -1.92952 0
M  V30 991 C 96.5154 1.46244 -0.78753 0
M  V30 992 O 97.7004 1.59704 -1.04399 0
M  V30 993 C 94.8404 2.6104 -2.25726 0
M  V30 994 C 93.9534 2.49183 -3.52891 0
M  V30 995 C 93.0884 3.76149 -3.7508 0
M  V30 996 C 92.1274 3.59041 -4.95738 0
M  V30 997 N 91.2644 4.77972 -5.14283 0
M  V30 998 H 96.1044 0.945384 -2.82607 0
M  V30 999 H 93.6414 0.455489 -1.3987 0
M  V30 1000 H 95.5994 3.39313 -2.42739 0
M  V30 1001 H 94.2294 2.91227 -1.39236 0
M  V30 1002 H 93.2814 1.6231 -3.44034 0
M  V30 1003 H 94.5934 2.32466 -4.41318 0
M  V30 1004 H 93.7474 4.62865 -3.92226 0
M  V30 1005 H 92.4864 3.95799 -2.84947 0
M  V30 1006 H 91.4914 2.7071 -4.78535 0
M  V30 1007 H 92.7164 3.40856 -5.87362 0
M  V30 1008 H 90.6624 4.97923 -4.27093 0
M  V30 1009 H 90.5794 4.64006 -5.96853 0
M  V30 1010 H 91.8474 5.66096 -5.35869 0
M  V30 1011 N 96.0765 1.50051 0.48192 0
M  V30 1012 C 97.3015 1.64508 1.26301 0
M  V30 1013 C 97.7265 0.323851 1.85291 0
M  V30 1014 O 97.0845 -0.710969 1.66778 0
M  V30 1015 C 97.1325 2.7305 2.35533 0
M  V30 1016 O 96.2365 2.3355 3.39895 0
M  V30 1017 H 95.5775 0.549978 0.372048 0
M  V30 1018 H 98.1075 1.9636 0.574786 0
M  V30 1019 H 98.1175 2.95799 2.8101 0
M  V30 1020 H 96.7925 3.68946 1.91967 0
M  V30 1021 H 95.3695 2.21205 3.00204 0
M  V30 1022 N 97.5546 -0.734337 1.39446 0
M  V30 1023 C 98.5016 -1.84835 1.38219 0
M  V30 1024 C 99.4716 -1.64331 0.24179 0
M  V30 1025 O 100.657 -1.85728 0.437002 0
M  V30 1026 C 97.7966 -3.22355 1.23212 0
M  V30 1027 C 96.9096 -3.5456 2.46801 0
M  V30 1028 C 96.0446 -4.81485 2.24377 0
M  V30 1029 C 95.0836 -5.06536 3.43639 0
M  V30 1030 N 94.2206 -6.24665 3.20528 0
M  V30 1031 H 99.0606 -1.85219 2.33448 0
M  V30 1032 H 96.5976 -0.905039 1.15963 0
M  V30 1033 H 98.5556 -4.0174 1.12522 0
M  V30 1034 H 97.1856 -3.21248 0.316121 0
M  V30 1035 H 96.2376 -2.69872 2.68092 0
M  V30 1036 H 97.5496 -3.6899 3.3563 0
M  V30 1037 H 96.7036 -5.68852 2.10933 0
M  V30 1038 H 95.4426 -4.6923 1.32944 0
M  V30 1039 H 94.4476 -4.17632 3.5758 0
M  V30 1040 H 95.6726 -5.20676 4.35974 0
M  V30 1041 H 93.6186 -6.13696 2.3176 0
M  V30 1042 H 93.5356 -6.39685 4.02913 0
M  V30 1043 H 94.8036 -7.14868 3.10779 0
M  V30 1044 N 99.0327 -1.24633 -0.964593 0
M  V30 1045 C 99.9957 -1.0424 -2.04124 0
M  V30 1046 C 100.996 0.00137563 -1.608 0
M  V30 1047 O 102.186 -0.239883 -1.7254 0
M  V30 1048 C 99.3177 -0.580588 -3.3592 0
M  V30 1049 H 100.511 -1.99803 -2.23649 0
M  V30 1050 H 98.0637 -1.06899 -1.14027 0
M  V30 1051 H 98.7987 0.3781 -3.22088 0
M  V30 1052 H 98.5837 -1.33398 -3.6871 0
M  V30 1053 H 100.074 -0.459034 -4.15069 0
M  V30 1054 N 100.511 1.16574 -1.06058 0
M  V30 1055 C 101.739 1.90952 -0.796552 0
M  V30 1056 C 102.154 1.77302 0.648808 0
M  V30 1057 O 101.511 1.11605 1.44397 0
M  V30 1058 C 101.562 3.41736 -1.17894 0
M  V30 1059 O 101.283 3.54975 -2.56758 0
M  V30 1060 C 102.784 4.33169 -0.942308 0
M  V30 1061 H 100.004 0.605594 -0.288959 0
M  V30 1062 H 102.548 1.47777 -1.41358 0
M  V30 1063 H 100.703 3.82623 -0.606491 0
M  V30 1064 H 101.117 4.4846 -2.72 0
M  V30 1065 H 102.591 5.37439 -1.25952 0
M  V30 1066 H 103.068 4.3903 0.122078 0
M  V30 1067 H 103.674 3.98007 -1.49902 0
M  V30 1068 N 101.989 0.842826 1.3317 0
M  V30 1069 C 102.922 0.223862 2.27099 0
M  V30 1070 C 103.9 -0.631311 1.49844 0
M  V30 1071 O 105.084 -0.590708 1.79005 0
M  V30 1072 C 102.211 -0.685313 3.31694 0
M  V30 1073 C 101.257 0.094919 4.26394 0
M  V30 1074 S 102.09 1.45546 5.15341 0
M  V30 1075 C 103.246 0.551685 6.23464 0
M  V30 1076 H 103.479 1.02015 2.79249 0
M  V30 1077 H 101.012 0.639797 1.4052 0
M  V30 1078 H 102.97 -1.20426 3.92438 0
M  V30 1079 H 101.631 -1.4553 2.78352 0
M  V30 1080 H 100.824 -0.597059 5.00451 0
M  V30 1081 H 100.426 0.545054 3.70007 0
M  V30 1082 H 102.718 -0.248877 6.77043 0
M  V30 1083 H 103.661 1.26253 6.96754 0
M  V30 1084 H 104.069 0.131275 5.64347 0
M  V30 1085 N 103.467 -1.45747 0.599634 0
M  V30 1086 C 104.695 -2.06668 0.0978551 0
M  V30 1087 C 105.11 -1.44562 -1.21439 0
M  V30 1088 O 104.467 -0.556923 -1.73795 0
M  V30 1089 C 104.518 -3.61456 -0.0567044 0
M  V30 1090 O 104.239 -4.21242 1.20361 0
M  V30 1091 C 105.74 -4.39345 -0.590869 0
M  V30 1092 H 102.96 -0.667825 0.0651943 0
M  V30 1093 H 105.504 -1.87115 0.82511 0
M  V30 1094 H 103.659 -3.80378 -0.734251 0
M  V30 1095 H 104.073 -5.14323 1.02821 0
M  V30 1096 H 105.547 -5.48182 -0.648131 0
M  V30 1097 H 106.024 -4.08568 -1.61147 0
M  V30 1098 H 106.63 -4.25268 0.0523679 0
M  V30 1099 N 104.945 -0.338344 -1.53925 0
M  V30 1100 C 106.191 0.260143 -2.01125 0
M  V30 1101 C 106.524 1.50617 -1.22589 0
M  V30 1102 O 105.799 1.91979 -0.312113 0
M  V30 1103 C 106.082 0.579499 -3.55407 0
M  V30 1104 C 105.935 -0.678264 -4.44657 0
M  V30 1105 C 107.254 1.39122 -4.17532 0
M  V30 1106 H 104.373 0.0930772 -0.731099 0
M  V30 1107 H 107.015 -0.457852 -1.84401 0
M  V30 1108 H 105.165 1.19118 -3.69788 0
M  V30 1109 H 106.837 -1.31631 -4.42121 0
M  V30 1110 H 105.08 -1.3042 -4.13731 0
M  V30 1111 H 105.751 -0.410143 -5.50474 0
M  V30 1112 H 108.227 0.874035 -4.06817 0
M  V30 1113 H 107.103 1.58342 -5.25565 0
M  V30 1114 H 107.364 2.39178 -3.71815 0
M  V30 1115 N 106.423 1.57458 -0.0668435 0
M  V30 1116 C 107.7 1.8469 0.644132 0
M  V30 1117 C 108.08 0.958343 1.88093 0
M  V30 1118 O 107.428 0.0233579 2.28488 0
M  V30 1119 C 107.638 3.34767 0.986509 0
M  V30 1120 C 108.986 4.02159 1.36212 0
M  V30 1121 O 110.01 3.39484 1.07839 0
M  V30 1122 O 108.869 5.12694 1.89227 0
M  V30 1123 H 105.963 0.762816 0.319437 0
M  V30 1124 H 108.509 1.6942 -0.0973986 0
M  V30 1125 H 107.281 3.91151 0.107883 0
M  V30 1126 H 106.904 3.55281 1.78497 0
M  V30 1127 N 107.901 -0.206675 1.56239 0
M  V30 1128 C 109.129 -0.945345 1.8404 0
M  V30 1129 C 109.544 -1.77336 0.647885 0
M  V30 1130 O 108.901 -1.78425 -0.383511 0
M  V30 1131 C 108.952 -1.8509 3.10522 0
M  V30 1132 O 108.673 -1.05634 4.25174 0
M  V30 1133 C 110.174 -2.70222 3.51418 0
M  V30 1134 H 107.394 -0.276372 0.61144 0
M  V30 1135 H 109.938 -0.217417 2.03341 0
M  V30 1136 H 108.093 -2.53259 2.93153 0
M  V30 1137 H 108.507 -1.67238 4.97124 0
M  V30 1138 H 109.981 -3.29438 4.42916 0
M  V30 1139 H 110.458 -3.43358 2.73864 0
M  V30 1140 H 111.064 -2.07443 3.71278 0
M  V30 1141 N 109.379 -1.50304 -0.473955 0
M  V30 1142 C 110.604 -1.65175 -1.25427 0
M  V30 1143 C 111.029 -0.333673 -1.85117 0
M  V30 1144 O 110.387 0.702114 -1.67153 0
M  V30 1145 C 110.435 -2.74295 -2.34082 0
M  V30 1146 O 109.539 -2.35349 -3.38651 0
M  V30 1147 H 108.88 -0.551944 -0.369126 0
M  V30 1148 H 111.41 -1.96662 -0.564364 0
M  V30 1149 H 111.42 -2.97285 -2.79438 0
M  V30 1150 H 110.095 -3.69959 -1.90008 0
M  V30 1151 H 108.672 -2.22794 -2.99027 0
M  V30 1152 N 110.857 0.726932 -1.39834 0
M  V30 1153 C 112.085 1.51613 -1.40787 0
M  V30 1154 C 112.5 1.88799 -0.00451505 0
M  V30 1155 O 111.857 1.54662 0.968809 0
M  V30 1156 C 111.908 2.79863 -2.28821 0
M  V30 1157 O 111.629 2.44253 -3.63692 0
M  V30 1158 C 113.13 3.73837 -2.38245 0
M  V30 1159 H 110.35 0.468264 -0.480593 0
M  V30 1160 H 112.894 0.897607 -1.83748 0
M  V30 1161 H 111.049 3.38027 -1.89252 0
M  V30 1162 H 111.463 3.26695 -4.1033 0
M  V30 1163 H 112.937 4.60699 -3.04073 0
M  V30 1164 H 113.414 4.16153 -1.40403 0
M  V30 1165 H 114.02 3.21589 -2.78317 0
M  V30 1166 N 112.336 1.25143 0.95797 0
M  V30 1167 C 113.284 1.05019 2.07542 0
M  V30 1168 C 114.278 -0.0178751 1.69391 0
M  V30 1169 O 115.484 0.137472 1.79474 0
M  V30 1170 H 111.859 0.32265 0.679265 0
M  V30 1171 H 113.83 1.99759 2.21673 0
M  V30 1172 C 112.579 0.682074 3.40944 0
M  V30 1173 H 111.902 1.49573 3.70767 0
M  V30 1174 H 113.342 0.580945 4.20001 0
M  V30 1175 C 111.801 -0.611608 3.31302 0
M  V30 1176 O 112.331 -1.65465 3.66038 0
M  V30 1177 N 110.537 -0.595982 2.84423 0
M  V30 1178 H 110.084 0.253192 2.56353 0
M  V30 1179 H 110.042 -1.46173 2.78354 0
M  V30 1180 N 113.814 -1.1601 1.06675 0
M  V30 1181 C 115.042 -1.90527 0.806667 0
M  V30 1182 C 115.457 -1.77643 -0.639396 0
M  V30 1183 O 114.814 -1.12369 -1.43803 0
M  V30 1184 C 114.865 -3.41106 1.19705 0
M  V30 1185 O 114.586 -3.53608 2.58636 0
M  V30 1186 C 116.087 -4.32663 0.965266 0
M  V30 1187 H 113.307 -0.604053 0.292166 0
M  V30 1188 H 115.851 -1.47026 1.4214 0
M  V30 1189 H 114.006 -3.82296 0.626774 0
M  V30 1190 H 114.42 -4.47011 2.74375 0
M  V30 1191 H 115.894 -5.36763 1.288 0
M  V30 1192 H 116.371 -4.39089 -0.0987936 0
M  V30 1193 H 116.977 -3.97206 1.52011 0
M  V30 1194 N 115.292 -0.849877 -1.32721 0
M  V30 1195 C 116.255 -0.296122 -2.27279 0
M  V30 1196 C 117.255 0.541458 -1.5141 0
M  V30 1197 O 118.445 0.353658 -1.70572 0
M  V30 1198 C 115.577 0.581579 -3.35902 0
M  V30 1199 H 116.77 -1.13064 -2.77771 0
M  V30 1200 H 114.323 -0.62383 -1.43311 0
M  V30 1201 H 115.058 1.43809 -2.9067 0
M  V30 1202 H 114.843 -0.0178814 -3.92096 0
M  V30 1203 H 116.333 0.961951 -4.0637 0
M  V30 1204 N 116.77 1.45427 -0.607355 0
M  V30 1205 C 118 2.06314 -0.108656 0
M  V30 1206 C 118.408 1.45269 1.21217 0
M  V30 1207 O 117.751 0.561115 1.74921 0
M  V30 1208 C 117.813 3.59345 0.105618 0
M  V30 1209 C 117.477 4.42723 -1.13337 0
M  V30 1210 C 118.474 4.77715 -2.05145 0
M  V30 1211 C 116.159 4.83478 -1.36213 0
M  V30 1212 C 118.153 5.52317 -3.18158 0
M  V30 1213 C 115.84 5.57835 -2.49527 0
M  V30 1214 C 116.838 5.92171 -3.40327 0
M  V30 1215 O 116.526 6.65019 -4.51669 0
M  V30 1216 H 116.258 0.672782 -0.0658842 0
M  V30 1217 H 118.812 1.87664 -0.834945 0
M  V30 1218 H 117.042 3.76394 0.886796 0
M  V30 1219 H 118.731 4.02076 0.555886 0
M  V30 1220 H 119.497 4.46787 -1.88697 0
M  V30 1221 H 115.376 4.56188 -0.664362 0
M  V30 1222 H 118.92 5.79036 -3.89054 0
M  V30 1223 H 114.817 5.88177 -2.65928 0
M  V30 1224 H 115.585 6.83469 -4.50348 0
M  V30 1225 N 118.248 0.346503 1.53744 0
M  V30 1226 C 119.181 -0.552023 2.21423 0
M  V30 1227 C 120.159 -1.09798 1.19929 0
M  V30 1228 O 121.343 -1.1577 1.4876 0
M  V30 1229 C 118.47 -1.75972 2.89398 0
M  V30 1230 C 117.516 -1.34295 4.04805 0
M  V30 1231 S 118.349 -0.360263 5.34287 0
M  V30 1232 C 119.505 -1.57473 6.05767 0
M  V30 1233 H 119.738 0.0228119 2.97291 0
M  V30 1234 H 117.271 0.130579 1.53847 0
M  V30 1235 H 119.229 -2.45256 3.2918 0
M  V30 1236 H 117.89 -2.30578 2.1329 0
M  V30 1237 H 117.083 -2.24349 4.51313 0
M  V30 1238 H 116.685 -0.729555 3.66815 0
M  V30 1239 H 118.977 -2.50875 6.29339 0
M  V30 1240 H 119.92 -1.15138 6.98676 0
M  V30 1241 H 120.328 -1.77212 5.35963 0
M  V30 1242 N 119.726 -1.57421 0.075193 0
M  V30 1243 C 120.636 -2.1642 -0.905511 0
M  V30 1244 C 121.652 -1.12828 -1.32461 0
M  V30 1245 O 122.828 -1.45109 -1.39661 0
M  V30 1246 C 119.893 -2.71693 -2.15369 0
M  V30 1247 C 118.954 -3.90171 -1.79068 0
M  V30 1248 C 118.187 -4.42798 -2.97936 0
M  V30 1249 O 118.41 -3.94416 -4.12058 0
M  V30 1250 O 117.344 -5.34085 -2.77555 0
M  V30 1251 H 121.17 -3.00588 -0.433626 0
M  V30 1252 H 118.755 -1.48664 -0.148067 0
M  V30 1253 H 120.637 -3.07104 -2.88557 0
M  V30 1254 H 119.312 -1.90582 -2.61649 0
M  V30 1255 H 118.219 -3.59606 -1.03122 0
M  V30 1256 H 119.552 -4.72584 -1.37569 0
M  V30 1257 N 121.204 0.198386 -1.56346 0
M  V30 1258 C 122.134 1.24865 -1.9731 0
M  V30 1259 C 123.115 1.47651 -0.844576 0
M  V30 1260 O 124.3 1.59444 -1.10866 0
M  V30 1261 C 121.43 2.59358 -2.30977 0
M  V30 1262 C 120.384 2.5119 -3.46537 0
M  V30 1263 C 119.71 3.89926 -3.65871 0
M  V30 1264 C 121.01 2.03977 -4.80823 0
M  V30 1265 H 122.704 0.908252 -2.85291 0
M  V30 1266 H 120.25 0.435462 -1.37258 0
M  V30 1267 H 122.203 3.33011 -2.58228 0
M  V30 1268 H 120.927 2.95132 -1.39874 0
M  V30 1269 H 119.586 1.79993 -3.19371 0
M  V30 1270 H 119.234 4.23046 -2.72105 0
M  V30 1271 H 118.934 3.85336 -4.4361 0
M  V30 1272 H 120.458 4.65205 -3.95495 0
M  V30 1273 H 121.872 2.67386 -5.07127 0
M  V30 1274 H 120.269 2.10397 -5.62008 0
M  V30 1275 H 121.339 0.992861 -4.74626 0
M  V30 1276 N 122.682 1.50554 0.465978 0
M  V30 1277 C 123.907 1.65838 1.24549 0
M  V30 1278 C 124.332 0.343486 1.84937 0
M  V30 1279 O 123.69 -0.69324 1.67523 0
M  V30 1280 C 123.738 2.75533 2.32624 0
M  V30 1281 O 122.842 2.37142 3.37398 0
M  V30 1282 H 122.183 0.553893 0.366194 0
M  V30 1283 H 124.713 1.96959 0.553927 0
M  V30 1284 H 124.723 2.98763 2.77857 0
M  V30 1285 H 123.398 3.70962 1.88043 0
M  V30 1286 H 121.975 2.24377 2.97841 0
M  V30 1287 N 124.16 -0.719506 1.40217 0
M  V30 1288 C 125.385 -1.51371 1.4178 0
M  V30 1289 C 125.81 -1.88091 0.0182355 0
M  V30 1290 O 125.168 -1.52997 -0.972707 0
M  V30 1291 C 125.216 -2.768 2.31115 0
M  V30 1292 O 124.32 -3.73349 1.7517 0
M  V30 1293 H 123.661 -0.456529 0.482159 0
M  V30 1294 H 126.191 -0.88644 1.844 0
M  V30 1295 H 126.201 -3.25371 2.46167 0
M  V30 1296 H 124.876 -2.49407 3.3282 0
M  V30 1297 H 123.453 -3.32179 1.69444 0
M  V30 1298 N 125.638 -1.25649 -0.95132 0
M  V30 1299 C 126.568 -1.08808 -2.06599 0
M  V30 1300 C 127.549 0.00382547 -1.701 0
M  V30 1301 O 128.734 -0.166325 -1.93486 0
M  V30 1302 C 125.864 -0.709542 -3.39975 0
M  V30 1303 C 124.818 -1.75206 -3.90496 0
M  V30 1304 C 124.144 -1.22811 -5.20405 0
M  V30 1305 C 125.444 -3.15153 -4.16504 0
M  V30 1306 H 127.138 -2.02048 -2.20946 0
M  V30 1307 H 124.684 -0.972835 -1.06169 0
M  V30 1308 H 126.637 -0.578649 -4.17408 0
M  V30 1309 H 125.361 0.258556 -3.25575 0
M  V30 1310 H 124.02 -1.87145 -3.15234 0
M  V30 1311 H 123.668 -0.250145 -5.02378 0
M  V30 1312 H 123.368 -1.92492 -5.55176 0
M  V30 1313 H 124.892 -1.10968 -6.00432 0
M  V30 1314 H 126.306 -3.06349 -4.84586 0
M  V30 1315 H 124.703 -3.82333 -4.62538 0
M  V30 1316 H 125.773 -3.61966 -3.22658 0
M  V30 1317 N 127.117 1.15442 -1.07289 0
M  V30 1318 C 128.533 1.38201 -0.798288 0
M  V30 1319 C 128.733 1.92429 0.597769 0
M  V30 1320 O 127.789 2.12962 1.3566 0
M  V30 1321 C 129.102 2.35357 -1.87156 0
M  V30 1322 C 130.65 2.49021 -1.89624 0
M  V30 1323 C 131.125 3.49468 -2.96034 0
M  V30 1324 N 132.616 3.57003 -2.95132 0
M  V30 1325 C 133.351 4.34543 -3.74112 0
M  V30 1326 N 132.847 5.15421 -4.6294 0
M  V30 1327 N 134.64 4.29625 -3.62462 0
M  V30 1328 H 126.791 0.78584 -1.97328 0
M  V30 1329 H 129.054 0.408065 -0.855679 0
M  V30 1330 H 128.76 2.02626 -2.87464 0
M  V30 1331 H 128.634 3.35129 -1.73114 0
M  V30 1332 H 131.021 2.81051 -0.899687 0
M  V30 1333 H 131.102 1.4925 -2.07745 0
M  V30 1334 H 130.746 3.18173 -3.95889 0
M  V30 1335 H 130.676 4.48992 -2.75161 0
M  V30 1336 H 133.167 2.99276 -2.30743 0
M  V30 1337 H 133.48 5.7183 -5.19837 0
M  V30 1338 H 131.825 5.14729 -4.66989 0
M  V30 1339 H 135.016 3.65505 -2.92444 0
M  V30 1340 H 135.189 4.89807 -4.24256 0
M  V30 1341 N 128.595 0.856903 1.32268 0
M  V30 1342 C 129.82 0.474569 2.01897 0
M  V30 1343 C 130.245 -0.921766 1.63967 0
M  V30 1344 O 129.603 -1.60589 0.84148 0
M  V30 1345 C 129.651 0.623799 3.55164 0
M  V30 1346 O 128.755 -0.342459 4.10976 0
M  V30 1347 H 128.096 0.190422 0.63611 0
M  V30 1348 H 130.626 1.15672 1.68764 0
M  V30 1349 H 130.636 0.512169 4.04773 0
M  V30 1350 H 129.311 1.64202 3.82113 0
M  V30 1351 H 127.888 -0.18688 3.72431 0
M  V30 1352 N 130.073 -1.45103 0.615059 0
M  V30 1353 C 130.983 -2.34382 -0.101034 0
M  V30 1354 C 131.999 -1.51681 -0.852585 0
M  V30 1355 O 133.175 -1.8446 -0.808484 0
M  V30 1356 C 130.24 -3.29417 -1.08099 0
M  V30 1357 C 129.301 -4.28025 -0.330577 0
M  V30 1358 C 128.534 -5.1852 -1.26385 0
M  V30 1359 O 128.757 -5.12598 -2.50198 0
M  V30 1360 O 127.691 -5.97122 -0.756866 0
M  V30 1361 H 131.517 -2.97033 0.632855 0
M  V30 1362 H 129.102 -1.4461 0.375293 0
M  V30 1363 H 130.984 -3.87958 -1.6452 0
M  V30 1364 H 129.659 -2.69321 -1.79577 0
M  V30 1365 H 128.566 -3.73078 0.276283 0
M  V30 1366 H 129.899 -4.90997 0.343866 0
M  V30 1367 N 131.551 -0.354651 -1.53558 0
M  V30 1368 C 132.828 0.294281 -1.93374 0
M  V30 1369 C 133.208 1.67313 -1.28723 0
M  V30 1370 O 132.556 2.24179 -0.442247 0
M  V30 1371 C 132.766 0.355445 -3.47185 0
M  V30 1372 C 134.114 0.601007 -4.20325 0
M  V30 1373 O 135.138 0.437106 -3.53508 0
M  V30 1374 O 133.997 0.919322 -5.38712 0
M  V30 1375 H 131.091 0.174033 -0.808481 0
M  V30 1376 H 133.637 -0.406638 -1.64756 0
M  V30 1377 H 132.409 -0.611729 -3.86489 0
M  V30 1378 H 132.032 1.1027 -3.82003 0
M  V30 1379 N 133.029 1.57378 -0.0835403 0
M  V30 1380 C 134.257 1.98263 0.59157 0
M  V30 1381 C 134.672 0.962302 1.62435 0
M  V30 1382 O 134.029 -0.049581 1.82433 0
M  V30 1383 C 134.08 3.39214 1.24965 0
M  V30 1384 O 133.801 4.37339 0.258186 0
M  V30 1385 C 135.302 3.95038 2.01147 0
M  V30 1386 H 132.522 0.651773 0.159477 0
M  V30 1387 H 135.066 2.03878 -0.159415 0
M  V30 1388 H 133.221 3.34649 1.95164 0
M  V30 1389 H 133.635 5.19371 0.731734 0
M  V30 1390 H 135.109 4.95848 2.42567 0
M  V30 1391 H 135.586 3.32222 2.87272 0
M  V30 1392 H 136.192 4.0304 1.35789 0
M  V30 1393 N 134.507 -0.190092 1.56449 0
M  V30 1394 C 135.47 -1.21925 1.9408 0
M  V30 1395 C 136.47 -1.38176 0.822431 0
M  V30 1396 O 137.66 -1.35903 1.08977 0
M  V30 1397 C 134.792 -2.58773 2.21922 0
M  V30 1398 H 135.985 -0.897464 2.86157 0
M  V30 1399 H 133.538 -0.43181 1.50217 0
M  V30 1400 H 134.273 -2.95998 1.32499 0
M  V30 1401 H 134.058 -2.48348 3.03424 0
M  V30 1402 H 135.548 -3.32978 2.52022 0
M  V30 1403 N 135.985 -1.50799 -0.457987 0
M  V30 1404 C 137.231 -1.62683 -1.21088 0
M  V30 1405 C 137.564 -0.332268 -1.91336 0
M  V30 1406 O 136.839 0.667043 -1.82704 0
M  V30 1407 C 137.122 -2.81615 -2.24422 0
M  V30 1408 C 136.975 -4.20989 -1.58392 0
M  V30 1409 C 138.294 -2.96085 -3.2561 0
M  V30 1410 H 135.413 -0.592087 -0.438864 0
M  V30 1411 H 138.055 -1.83225 -0.50286 0
M  V30 1412 H 136.205 -2.64231 -2.84806 0
M  V30 1413 H 137.877 -4.49994 -1.01504 0
M  V30 1414 H 136.12 -4.24641 -0.886704 0
M  V30 1415 H 136.791 -5.0016 -2.33547 0
M  V30 1416 H 139.267 -3.12042 -2.75262 0
M  V30 1417 H 138.143 -3.80902 -3.95228 0
M  V30 1418 H 138.404 -2.0726 -3.90507 0
M  V30 1419 N 137.463 0.71206 -1.40597 0
M  V30 1420 C 138.693 1.49894 -1.42181 0
M  V30 1421 C 139.101 1.89189 -0.0208078 0
M  V30 1422 O 138.444 1.56223 0.966436 0
M  V30 1423 C 138.506 2.80215 -2.25211 0
M  V30 1424 C 138.17 2.63221 -3.73582 0
M  V30 1425 C 139.167 2.30249 -4.66135 0
M  V30 1426 C 136.852 2.79376 -4.17438 0
M  V30 1427 C 138.846 2.13645 -6.00529 0
M  V30 1428 C 136.533 2.6239 -5.51901 0
M  V30 1429 C 137.531 2.29573 -6.43262 0
M  V30 1430 O 137.219 2.12719 -7.75246 0
M  V30 1431 H 136.951 0.469031 -0.486812 0
M  V30 1432 H 139.505 0.88564 -1.85326 0
M  V30 1433 H 137.735 3.4389 -1.76852 0
M  V30 1434 H 139.424 3.41947 -2.18694 0
M  V30 1435 H 140.19 2.17398 -4.33547 0
M  V30 1436 H 136.069 3.03906 -3.46644 0
M  V30 1437 H 139.613 1.87953 -6.71803 0
M  V30 1438 H 135.51 2.74826 -5.84073 0
M  V30 1439 H 136.278 2.27611 -7.86216 0
M  V30 1440 N 138.941 1.26152 0.944643 0
M  V30 1441 C 140.171 1.14094 1.72239 0
M  V30 1442 C 140.579 -0.306931 1.86694 0
M  V30 1443 O 139.922 -1.22222 1.3714 0
M  V30 1444 C 139.984 1.73316 3.14963 0
M  V30 1445 C 139.648 3.2239 3.23904 0
M  V30 1446 C 140.645 4.19252 3.07447 0
M  V30 1447 C 138.33 3.62788 3.47405 0
M  V30 1448 C 140.324 5.54491 3.14353 0
M  V30 1449 C 138.011 4.98162 3.53947 0
M  V30 1450 C 139.009 5.93823 3.37436 0
M  V30 1451 O 138.697 7.26732 3.43679 0
M  V30 1452 H 138.429 0.398292 0.546205 0
M  V30 1453 H 140.983 1.67201 1.19301 0
M  V30 1454 H 139.213 1.14667 3.69308 0
M  V30 1455 H 140.902 1.56214 3.74636 0
M  V30 1456 H 141.668 3.8938 2.8915 0
M  V30 1457 H 137.547 2.88816 3.59313 0
M  V30 1458 H 141.091 6.29137 3.01384 0
M  V30 1459 H 136.988 5.27695 3.71763 0
M  V30 1460 H 137.756 7.3496 3.60245 0
M  V30 1461 N 140.419 -1.14872 1.07899 0
M  V30 1462 C 141.659 -1.8745 0.814965 0
M  V30 1463 C 142.023 -1.80758 -0.64733 0
M  V30 1464 O 143.224 -2.48422 -1.02664 0
M  V30 1465 C 141.495 -3.32286 1.31607 0
M  V30 1466 S 143.054 -4.22537 1.18357 0
M  V30 1467 H 139.872 -0.646833 0.295174 0
M  V30 1468 H 142.474 -1.38555 1.37923 0
M  V30 1469 H 141.178 -3.34703 2.37491 0
M  V30 1470 H 140.709 -3.86238 0.747261 0
M  V30 1471 H 142.724 -4.96044 0.124586 0
M  V30 1472 N 141.898 -0.863906 -1.31812 0
M  V30 1473 C 142.861 -0.320212 -2.26952 0
M  V30 1474 C 143.861 0.525369 -1.51975 0
M  V30 1475 O 145.051 0.335547 -1.70938 0
M  V30 1476 C 142.183 0.545919 -3.365 0
M  V30 1477 H 143.376 -1.16004 -2.76556 0
M  V30 1478 H 140.929 -0.638995 -1.42641 0
M  V30 1479 H 141.664 1.40718 -2.92179 0
M  V30 1480 H 141.449 -0.0594674 -3.92055 0
M  V30 1481 H 142.939 0.918796 -4.07367 0
M  V30 1482 N 143.376 1.44774 -0.622745 0
M  V30 1483 C 144.601 2.06999 -0.128968 0
M  V30 1484 C 145.026 1.4617 1.1839 0
M  V30 1485 O 144.384 0.560007 1.72434 0
M  V30 1486 C 144.432 3.60595 -0.0188351 0
M  V30 1487 O 143.536 3.99398 1.02739 0
M  V30 1488 H 142.877 0.659047 -0.0809544 0
M  V30 1489 H 145.407 1.85784 -0.85705 0
M  V30 1490 H 145.417 4.07627 0.174476 0
M  V30 1491 H 144.092 4.04252 -0.977384 0
M  V30 1492 H 142.669 3.64011 0.809326 0
M  V30 1493 N 144.854 0.36279 1.53368 0
M  V30 1494 C 146.27 0.0116182 1.59596 0
M  V30 1495 C 146.47 -1.47012 1.37803 0
M  V30 1496 O 145.526 -2.23136 1.18181 0
M  V30 1497 C 146.839 0.465052 2.97082 0
M  V30 1498 C 148.387 0.419033 3.10182 0
M  V30 1499 C 148.862 0.848235 4.50077 0
M  V30 1500 N 150.353 0.803183 4.56183 0
M  V30 1501 C 151.088 1.107 5.62613 0
M  V30 1502 N 150.584 1.47996 6.76808 0
M  V30 1503 N 152.377 1.02998 5.52583 0
M  V30 1504 H 144.528 1.32775 1.65785 0
M  V30 1505 H 146.791 0.542518 0.777417 0
M  V30 1506 H 146.497 1.49892 3.18159 0
M  V30 1507 H 146.371 -0.149786 3.76902 0
M  V30 1508 H 148.758 -0.605696 2.88817 0
M  V30 1509 H 148.839 1.06933 2.32377 0
M  V30 1510 H 148.483 1.87107 4.7218 0
M  V30 1511 H 148.413 0.175218 5.26308 0
M  V30 1512 H 150.904 0.52838 3.74188 0
M  V30 1513 H 151.217 1.69613 7.53957 0
M  V30 1514 H 149.562 1.51859 6.78206 0
M  V30 1515 H 152.753 0.737817 4.62249 0
M  V30 1516 H 152.926 1.2701 6.35431 0
M  V30 1517 N 146.332 -1.57332 0.0918853 0
M  V30 1518 C 147.609 -1.85691 -0.614668 0
M  V30 1519 C 147.989 -0.988146 -1.86545 0
M  V30 1520 O 147.337 -0.0597055 -2.28422 0
M  V30 1521 C 147.547 -3.36294 -0.933126 0
M  V30 1522 C 148.895 -4.04275 -1.29796 0
M  V30 1523 O 149.919 -3.41157 -1.02424 0
M  V30 1524 O 148.778 -5.1564 -1.81047 0
M  V30 1525 H 145.872 -0.767802 -0.307261 0
M  V30 1526 H 148.418 -1.69244 0.12434 0
M  V30 1527 H 147.19 -3.91273 -0.0456404 0
M  V30 1528 H 146.813 -3.58076 -1.72822 0
M  V30 1529 N 147.81 0.181792 -1.56548 0
M  V30 1530 C 149.04 0.914618 -1.85252 0
M  V30 1531 C 149.448 1.76791 -0.673914 0
M  V30 1532 O 148.791 1.80009 0.366416 0
M  V30 1533 C 148.853 1.85019 -3.08234 0
M  V30 1534 C 148.517 1.17754 -4.41569 0
M  V30 1535 C 149.514 0.548035 -5.17003 0
M  V30 1536 C 147.199 1.17742 -4.88305 0
M  V30 1537 C 149.193 -0.0726128 -6.37359 0
M  V30 1538 C 146.88 0.552946 -6.08593 0
M  V30 1539 C 147.878 -0.070978 -6.82963 0
M  V30 1540 O 147.566 -0.685635 -8.00971 0
M  V30 1541 H 147.298 0.271695 -0.618998 0
M  V30 1542 H 149.852 0.189944 -2.0452 0
M  V30 1543 H 148.082 2.61491 -2.84885 0
M  V30 1544 H 149.771 2.45195 -3.23472 0
M  V30 1545 H 150.537 0.540174 -4.81982 0
M  V30 1546 H 146.416 1.65246 -4.30366 0
M  V30 1547 H 149.96 -0.560213 -6.95347 0
M  V30 1548 H 145.857 0.558354 -6.43081 0
M  V30 1549 H 146.625 -0.58385 -8.16415 0
M  V30 1550 N 149.288 1.51039 0.449983 0
M  V30 1551 C 150.565 1.53612 1.21089 0
M  V30 1552 C 150.945 0.292997 2.09057 0
M  V30 1553 O 150.293 -0.72259 2.16774 0
M  V30 1554 C 150.503 2.84337 2.0237 0
M  V30 1555 C 151.851 3.35807 2.59843 0
M  V30 1556 O 152.875 2.85802 2.12593 0
M  V30 1557 O 151.734 4.23029 3.45989 0
M  V30 1558 H 148.828 0.617057 0.550608 0
M  V30 1559 H 151.374 1.63344 0.460082 0
M  V30 1560 H 150.146 3.66278 1.37681 0
M  V30 1561 H 149.769 2.77708 2.84542 0
M  V30 1562 N 150.766 -0.704594 1.40972 0
M  V30 1563 C 151.996 -1.49138 1.42974 0
M  V30 1564 C 152.404 -1.89175 0.0308406 0
M  V30 1565 O 151.747 -1.56734 -0.958138 0
M  V30 1566 C 151.809 -2.79016 2.26694 0
M  V30 1567 C 151.473 -2.61236 3.74973 0
M  V30 1568 C 152.47 -2.27773 4.67349 0
M  V30 1569 C 150.155 -2.77158 4.18914 0
M  V30 1570 C 152.149 -2.10457 6.01653 0
M  V30 1571 C 149.836 -2.59459 5.53285 0
M  V30 1572 C 150.834 -2.26158 6.4447 0
M  V30 1573 O 150.522 -2.08605 7.76363 0
M  V30 1574 H 150.254 -0.466443 0.489292 0
M  V30 1575 H 152.808 -0.8758 1.85793 0
M  V30 1576 H 151.038 -3.42947 1.78673 0
M  V30 1577 H 152.727 -3.40782 2.20504 0
M  V30 1578 H 153.493 -2.15095 4.34694 0
M  V30 1579 H 149.372 -3.02064 3.48251 0
M  V30 1580 H 152.916 -1.84387 6.72791 0
M  V30 1581 H 148.813 -2.71725 5.85522 0
M  V30 1582 H 149.581 -2.23439 7.87412 0
M  V30 1583 N 152.244 -1.26651 -0.937939 0
M  V30 1584 C 153.521 -1.0313 -1.66204 0
M  V30 1585 C 153.901 0.437256 -2.06522 0
M  V30 1586 O 153.249 1.41831 -1.79154 0
M  V30 1587 C 153.459 -1.98314 -2.87181 0
M  V30 1588 C 154.807 -2.27107 -3.58758 0
M  V30 1589 O 155.831 -1.96205 -2.97291 0
M  V30 1590 O 154.69 -2.79736 -4.69479 0
M  V30 1591 H 151.784 -0.392384 -0.727986 0
M  V30 1592 H 154.33 -1.37874 -0.989382 0
M  V30 1593 H 153.102 -2.97399 -2.54302 0
M  V30 1594 H 152.725 -1.64068 -3.6217 0
M  V30 1595 N 153.722 1.14298 -1.08507 0
M  V30 1596 C 154.97 1.84993 -0.813763 0
M  V30 1597 C 155.291 1.83405 0.662393 0
M  V30 1598 O 154.561 1.28319 1.48024 0
M  V30 1599 H 153.141 0.684966 -0.298045 0
M  V30 1600 H 155.803 1.385 -1.37126 0
M  V30 1601 H 154.899 2.89788 -1.15884 0
M  V30 1602 N 155.201 0.870884 1.31352 0
M  V30 1603 C 156.617 0.562932 1.49343 0
M  V30 1604 C 156.817 -0.902725 1.80148 0
M  V30 1605 O 155.873 -1.68484 1.88067 0
M  V30 1606 C 157.186 1.46393 2.62659 0
M  V30 1607 C 158.734 1.46607 2.76542 0
M  V30 1608 C 159.209 2.35266 3.92955 0
M  V30 1609 N 160.7 2.33151 4.00243 0
M  V30 1610 C 161.435 2.98471 4.89594 0
M  V30 1611 N 160.931 3.72964 5.8384 0
M  V30 1612 N 162.724 2.87775 4.82848 0
M  V30 1613 H 154.875 1.81923 1.09626 0
M  V30 1614 H 157.138 0.777934 0.541777 0
M  V30 1615 H 156.844 2.50689 2.46674 0
M  V30 1616 H 156.718 1.16314 3.58819 0
M  V30 1617 H 159.105 0.43069 2.9194 0
M  V30 1618 H 159.186 1.8071 1.81046 0
M  V30 1619 H 158.83 3.38881 3.78315 0
M  V30 1620 H 158.76 1.98487 4.87761 0
M  V30 1621 H 161.251 1.79006 3.32814 0
M  V30 1622 H 161.564 4.19932 6.4875 0
M  V30 1623 H 159.909 3.77073 5.83816 0
M  V30 1624 H 163.1 2.29116 4.08195 0
M  V30 1625 H 163.273 3.38961 5.52277 0
M  V30 1626 N 156.679 -1.44442 0.630414 0
M  V30 1627 C 157.909 -2.06115 0.141465 0
M  V30 1628 C 158.317 -1.47179 -1.1889 0
M  V30 1629 O 157.66 -0.588873 -1.74006 0
M  V30 1630 C 157.722 -3.59467 -0.0484355 0
M  V30 1631 C 157.386 -4.40864 1.20366 0
M  V30 1632 C 158.383 -4.74391 2.12719 0
M  V30 1633 C 156.068 -4.8125 1.43887 0
M  V30 1634 C 158.062 -5.47186 3.26904 0
M  V30 1635 C 155.749 -5.53795 2.5837 0
M  V30 1636 C 156.747 -5.86682 3.49705 0
M  V30 1637 O 156.435 -6.57749 4.62191 0
M  V30 1638 H 156.167 -0.671648 0.0765792 0
M  V30 1639 H 158.721 -1.86312 0.864695 0
M  V30 1640 H 156.951 -3.77758 -0.826803 0
M  V30 1641 H 158.64 -4.02909 -0.491849 0
M  V30 1642 H 159.406 -4.43728 1.95781 0
M  V30 1643 H 155.285 -4.55073 0.736853 0
M  V30 1644 H 158.829 -5.72773 3.98217 0
M  V30 1645 H 154.726 -5.83872 2.75251 0
M  V30 1646 H 155.494 -6.76217 4.61164 0
M  V30 1647 N 158.157 -0.370918 -1.53173 0
M  V30 1648 C 159.404 0.217102 -2.01333 0
M  V30 1649 C 159.732 1.48338 -1.25802 0
M  V30 1650 O 158.987 1.92698 -0.34146 0
M  V30 1651 C 159.286 0.549696 -3.53147 0
M  V30 1652 C 158.952 -0.622872 -4.46577 0
M  V30 1653 C 157.614 -0.944595 -4.71838 0
M  V30 1654 C 159.966 -1.40819 -5.01816 0
M  V30 1655 C 157.294 -2.05351 -5.49589 0
M  V30 1656 C 159.646 -2.50757 -5.80778 0
M  V30 1657 C 158.31 -2.83458 -6.04324 0
M  V30 1658 H 157.58 0.0794431 -0.736729 0
M  V30 1659 H 160.227 -0.504481 -1.84736 0
M  V30 1660 H 158.532 1.35237 -3.6772 0
M  V30 1661 H 160.229 1.017 -3.87889 0
M  V30 1662 H 156.819 -0.36209 -4.27068 0
M  V30 1663 H 161.003 -1.17289 -4.82242 0
M  V30 1664 H 156.259 -2.3108 -5.6605 0
M  V30 1665 H 160.433 -3.12022 -6.22588 0
M  V30 1666 H 158.06 -3.69508 -6.64355 0
M  V30 1667 N 159.635 1.57281 -0.100228 0
M  V30 1668 C 160.912 1.86014 0.604812 0
M  V30 1669 C 161.292 0.998025 1.86018 0
M  V30 1670 O 160.64 0.0718184 2.28387 0
M  V30 1671 C 160.85 3.36784 0.915278 0
M  V30 1672 C 162.198 4.04957 1.27651 0
M  V30 1673 O 163.222 3.41695 1.00613 0
M  V30 1674 O 162.081 5.16593 1.7831 0
M  V30 1675 H 159.175 0.76942 0.303185 0
M  V30 1676 H 161.721 1.69176 -0.133313 0
M  V30 1677 H 160.493 3.91292 0.0248896 0
M  V30 1678 H 160.116 3.58987 1.70921 0
M  V30 1679 N 161.113 -0.173488 1.56642 0
M  V30 1680 C 162.343 -0.904781 1.85734 0
M  V30 1681 C 162.751 -1.76431 0.68328 0
M  V30 1682 O 162.094 -1.802 -0.356865 0
M  V30 1683 C 162.156 -1.83382 3.09211 0
M  V30 1684 C 161.82 -1.15411 4.42187 0
M  V30 1685 C 162.817 -0.520609 5.17287 0
M  V30 1686 C 160.502 -1.15151 4.88923 0
M  V30 1687 C 162.496 0.106412 6.37311 0
M  V30 1688 C 160.183 -0.520664 6.08878 0
M  V30 1689 C 161.181 0.107196 6.82916 0
M  V30 1690 O 160.869 0.728102 8.00596 0
M  V30 1691 H 160.601 -0.268408 0.62043 0
M  V30 1692 H 163.155 -0.179096 2.04618 0
M  V30 1693 H 161.385 -2.59976 2.86268 0
M  V30 1694 H 163.074 -2.43476 3.24768 0
M  V30 1695 H 163.84 -0.514606 4.82262 0
M  V30 1696 H 159.719 -1.62961 4.31236 0
M  V30 1697 H 163.263 0.597081 6.9504 0
M  V30 1698 H 159.16 -0.524242 6.43368 0
M  V30 1699 H 159.928 0.627138 8.16094 0
M  V30 1700 N 162.591 -1.51276 -0.441967 0
M  V30 1701 C 163.837 -1.6492 -1.1905 0
M  V30 1702 C 164.192 -0.358731 -1.89026 0
M  V30 1703 O 163.485 0.645193 -1.8041 0
M  V30 1704 C 163.679 -2.78746 -2.23686 0
M  V30 1705 C 163.508 -4.18737 -1.63979 0
M  V30 1706 C 162.278 -4.84739 -1.42674 0
M  V30 1707 C 164.476 -5.01988 -1.11858 0
M  V30 1708 N 162.458 -6.08858 -0.785159 0
M  V30 1709 C 163.829 -6.17071 -0.601989 0
M  V30 1710 C 165.884 -4.87551 -1.0099 0
M  V30 1711 C 164.587 -7.19299 0.0126012 0
M  V30 1712 C 166.613 -5.89983 -0.409206 0
M  V30 1713 C 165.975 -7.04333 0.0968651 0
M  V30 1714 H 162.074 -0.657416 -0.423471 0
M  V30 1715 H 164.658 -1.8849 -0.48782 0
M  V30 1716 H 162.829 -2.56848 -2.91348 0
M  V30 1717 H 164.561 -2.81595 -2.90666 0
M  V30 1718 H 161.316 -4.42528 -1.68719 0
M  V30 1719 H 161.74 -6.75282 -0.481942 0
M  V30 1720 H 166.382 -3.99401 -1.38703 0
M  V30 1721 H 164.1 -8.071 0.401879 0
M  V30 1722 H 167.686 -5.8088 -0.327079 0
M  V30 1723 H 166.566 -7.82238 0.554373 0
M  V30 1724 N 164.069 0.697108 -1.41344 0
M  V30 1725 C 165.317 1.45426 -1.40341 0
M  V30 1726 C 165.638 1.94996 -0.0128787 0
M  V30 1727 O 164.908 1.71599 0.945027 0
M  V30 1728 H 163.488 0.539594 -0.516573 0
M  V30 1729 H 166.15 0.825201 -1.76569 0
M  V30 1730 H 165.246 2.31817 -2.08967 0
M  V30 1731 N 165.547 1.27147 0.931209 0
M  V30 1732 C 166.479 1.05364 2.03546 0
M  V30 1733 C 167.492 0.0108438 1.62796 0
M  V30 1734 O 168.681 0.25202 1.76712 0
M  V30 1735 C 165.781 0.575566 3.33977 0
M  V30 1736 C 164.954 1.68985 4.03439 0
M  V30 1737 C 164.013 1.20813 5.12143 0
M  V30 1738 O 163.039 1.90712 5.363 0
M  V30 1739 N 164.241 0.0618851 5.80467 0
M  V30 1740 H 167.006 2.00454 2.22796 0
M  V30 1741 H 164.567 1.18666 1.10136 0
M  V30 1742 H 166.559 0.237264 4.04004 0
M  V30 1743 H 165.129 -0.282016 3.11325 0
M  V30 1744 H 164.349 2.19861 3.27192 0
M  V30 1745 H 165.637 2.4378 4.46597 0
M  V30 1746 H 165.035 -0.521621 5.6329 0
M  V30 1747 H 163.592 -0.217264 6.51438 0
M  V30 1748 N 167.025 -1.13721 1.09112 0
M  V30 1749 C 168.273 -1.84559 0.823562 0
M  V30 1750 C 168.594 -1.83754 -0.652658 0
M  V30 1751 O 167.864 -1.29102 -1.47342 0
M  V30 1752 H 166.444 -0.683376 0.301673 0
M  V30 1753 H 169.106 -1.37771 1.37859 0
M  V30 1754 H 168.202 -2.8917 1.17419 0
M  V30 1755 N 168.503 -0.877838 -1.30888 0
M  V30 1756 C 169.731 -0.507414 -2.00581 0
M  V30 1757 C 170.146 0.902216 -1.65848 0
M  V30 1758 O 169.503 1.59225 -0.891831 0
M  V30 1759 C 169.554 -0.664162 -3.55347 0
M  V30 1760 O 169.275 -2.01829 -3.8884 0
M  V30 1761 C 170.776 -0.295787 -4.42312 0
M  V30 1762 H 167.996 -0.196866 -0.641471 0
M  V30 1763 H 170.54 -1.18117 -1.66939 0
M  V30 1764 H 168.695 -0.0378619 -3.87381 0
M  V30 1765 H 169.109 -2.03174 -4.8355 0
M  V30 1766 H 170.583 -0.456388 -5.5011 0
M  V30 1767 H 171.06 0.765663 -4.32475 0
M  V30 1768 H 171.666 -0.898113 -4.15709 0
M  V30 1769 N 169.982 1.44106 -0.638065 0
M  V30 1770 C 170.912 2.33448 0.0494287 0
M  V30 1771 C 171.893 1.48606 0.827672 0
M  V30 1772 O 173.078 1.77308 0.792173 0
M  V30 1773 C 170.208 3.31771 1.02691 0
M  V30 1774 C 169.162 4.26485 0.359823 0
M  V30 1775 C 168.488 5.14729 1.44769 0
M  V30 1776 C 169.788 5.17056 -0.738296 0
M  V30 1777 H 171.482 2.91183 -0.696636 0
M  V30 1778 H 169.028 1.40014 -0.336456 0
M  V30 1779 H 170.981 3.93161 1.51666 0
M  V30 1780 H 169.705 2.7226 1.80395 0
M  V30 1781 H 168.364 3.66437 -0.10934 0
M  V30 1782 H 168.012 4.51566 2.21578 0
M  V30 1783 H 167.712 5.78913 1.00668 0
M  V30 1784 H 169.236 5.78991 1.93911 0
M  V30 1785 H 170.65 5.72342 -0.331354 0
M  V30 1786 H 169.047 5.89879 -1.10286 0
M  V30 1787 H 170.117 4.57652 -1.60258 0
M  V30 1788 N 171.46 0.379036 1.52974 0
M  V30 1789 C 172.706 -0.206727 2.01744 0
M  V30 1790 C 173.039 -1.47314 1.26539 0
M  V30 1791 O 172.314 -1.91084 0.362903 0
M  V30 1792 C 172.597 -0.485066 3.56818 0
M  V30 1793 C 172.45 0.795919 4.42702 0
M  V30 1794 C 173.769 -1.28003 4.21074 0
M  V30 1795 H 170.888 -0.0736607 0.73331 0
M  V30 1796 H 173.53 0.506581 1.83122 0
M  V30 1797 H 171.68 -1.09272 3.72816 0
M  V30 1798 H 173.352 1.43307 4.38476 0
M  V30 1799 H 171.595 1.41344 4.10127 0
M  V30 1800 H 172.266 0.555947 5.49193 0
M  V30 1801 H 174.742 -0.765867 4.08991 0
M  V30 1802 H 173.618 -1.44352 5.29579 0
M  V30 1803 H 173.879 -2.29236 3.78026 0
M  V30 1804 N 172.938 -1.57226 0.108567 0
M  V30 1805 C 174.166 -1.99179 -0.559954 0
M  V30 1806 C 174.581 -0.988022 -1.60884 0
M  V30 1807 O 173.938 0.0205512 -1.82488 0
M  V30 1808 C 173.989 -3.41159 -1.19552 0
M  V30 1809 O 173.71 -4.37694 -0.188577 0
M  V30 1810 C 175.211 -3.98188 -1.94837 0
M  V30 1811 H 172.431 -0.654228 -0.149088 0
M  V30 1812 H 174.975 -2.03598 0.19183 0
M  V30 1813 H 173.13 -3.37711 -1.89815 0
M  V30 1814 H 173.544 -5.20469 -0.649014 0
M  V30 1815 H 175.018 -4.99644 -2.34648 0
M  V30 1816 H 175.495 -3.3675 -2.81951 0
M  V30 1817 H 176.101 -4.0515 -1.2936 0
M  V30 1818 N 174.416 0.165178 -1.56732 0
M  V30 1819 C 175.662 0.882112 -1.82611 0
M  V30 1820 C 175.995 1.81628 -0.687378 0
M  V30 1821 O 175.27 1.92009 0.310267 0
M  V30 1822 C 175.553 1.67245 -3.18906 0
M  V30 1823 C 175.406 0.760987 -4.43316 0
M  V30 1824 C 176.725 2.63884 -3.52212 0
M  V30 1825 H 173.844 0.319242 -0.664269 0
M  V30 1826 H 176.486 0.148052 -1.89422 0
M  V30 1827 H 174.636 2.29824 -3.1323 0
M  V30 1828 H 176.308 0.147596 -4.61064 0
M  V30 1829 H 174.551 0.0694102 -4.33744 0
M  V30 1830 H 175.222 1.34962 -5.35247 0
M  V30 1831 H 177.698 2.11429 -3.58381 0
M  V30 1832 H 176.574 3.16245 -4.48643 0
M  V30 1833 H 176.835 3.44377 -2.77231 0
M  V30 1834 N 175.894 1.51508 0.433938 0
M  V30 1835 C 177.119 1.68443 1.21003 0
M  V30 1836 C 177.544 0.382636 1.84167 0
M  V30 1837 O 176.902 -0.65755 1.68956 0
M  V30 1838 C 176.95 2.80405 2.26727 0
M  V30 1839 O 176.054 2.44245 3.32292 0
M  V30 1840 H 175.395 0.561536 0.354363 0
M  V30 1841 H 177.925 1.9809 0.512024 0
M  V30 1842 H 177.935 3.0459 2.71457 0
M  V30 1843 H 176.61 3.74867 1.80132 0
M  V30 1844 H 175.187 2.30644 2.93015 0
M  V30 1845 N 177.372 -0.689602 1.41712 0
M  V30 1846 C 178.597 -1.48329 1.44959 0
M  V30 1847 C 179.022 -1.8801 0.0581283 0
M  V30 1848 O 178.38 -1.55026 -0.940035 0
M  V30 1849 C 178.428 -2.71835 2.36935 0
M  V30 1850 O 177.532 -3.69549 1.8305 0
M  V30 1851 H 176.873 -0.446199 0.491734 0
M  V30 1852 H 179.403 -0.847127 1.86239 0
M  V30 1853 H 179.413 -3.20076 2.53013 0
M  V30 1854 H 178.088 -2.42291 3.38035 0
M  V30 1855 H 176.665 -3.2851 1.76452 0
M  V30 1856 N 178.85 -1.27639 -0.924453 0
M  V30 1857 C 179.813 -1.10681 -2.00705 0
M  V30 1858 C 180.813 -0.0497823 -1.60723 0
M  V30 1859 O 182.003 -0.294654 -1.7169 0
M  V30 1860 C 179.135 -0.687164 -3.33902 0
M  V30 1861 H 180.328 -2.06817 -2.17179 0
M  V30 1862 H 177.881 -1.10473 -1.10569 0
M  V30 1863 H 178.616 0.275439 -3.23128 0
M  V30 1864 H 178.401 -1.45061 -3.6428 0
M  V30 1865 H 179.891 -0.590853 -4.13399 0
M  V30 1866 N 180.328 1.1314 -1.09713 0
M  V30 1867 C 181.553 1.88862 -0.857081 0
M  V30 1868 C 181.978 1.78729 0.586304 0
M  V30 1869 O 181.336 1.13692 1.41222 0
M  V30 1870 C 181.384 3.36325 -1.30069 0
M  V30 1871 O 180.488 4.09815 -0.461007 0
M  V30 1872 H 179.829 0.587108 -0.310162 0
M  V30 1873 H 182.359 1.43129 -1.46203 0
M  V30 1874 H 182.369 3.87157 -1.28738 0
M  V30 1875 H 181.044 3.43017 -2.35185 0
M  V30 1876 H 179.621 3.68986 -0.538888 0
M  V30 1877 N 181.806 0.884767 1.30421 0
M  V30 1878 C 183.034 0.518044 2.0031 0
M  V30 1879 C 183.449 -0.893408 1.66324 0
M  V30 1880 O 182.806 -1.5875 0.900262 0
M  V30 1881 C 182.857 0.682997 3.54989 0
M  V30 1882 O 182.578 2.03888 3.87764 0
M  V30 1883 C 184.079 0.31924 4.42149 0
M  V30 1884 H 181.299 0.200265 0.640418 0
M  V30 1885 H 183.843 1.19001 1.6631 0
M  V30 1886 H 181.998 0.0584052 3.87356 0
M  V30 1887 H 182.412 2.05735 4.82466 0
M  V30 1888 H 183.886 0.485555 5.4986 0
M  V30 1889 H 184.363 -0.742717 4.32875 0
M  V30 1890 H 184.969 0.920147 4.15227 0
M  V30 1891 N 183.284 -1.43765 0.645699 0
M  V30 1892 C 184.231 -2.30745 -0.0504648 0
M  V30 1893 C 185.201 -1.4432 -0.822241 0
M  V30 1894 O 186.386 -1.73202 -0.800358 0
M  V30 1895 C 183.526 -3.29802 -1.0161 0
M  V30 1896 C 182.639 -4.31326 -0.241219 0
M  V30 1897 C 181.774 -5.17469 -1.19998 0
M  V30 1898 C 180.813 -6.10691 -0.415094 0
M  V30 1899 N 179.95 -6.89483 -1.32506 0
M  V30 1900 H 184.79 -2.8973 0.697155 0
M  V30 1901 H 182.327 -1.42738 0.355563 0
M  V30 1902 H 184.285 -3.85734 -1.58949 0
M  V30 1903 H 182.915 -2.72483 -1.73069 0
M  V30 1904 H 181.967 -3.77749 0.448334 0
M  V30 1905 H 183.279 -4.9743 0.369437 0
M  V30 1906 H 182.433 -5.7799 -1.84424 0
M  V30 1907 H 181.172 -4.51473 -1.84455 0
M  V30 1908 H 180.177 -5.49265 0.242565 0
M  V30 1909 H 181.402 -6.78727 0.224966 0
M  V30 1910 H 179.348 -6.26142 -1.95657 0
M  V30 1911 H 179.265 -7.52081 -0.768783 0
M  V30 1912 H 180.533 -7.54516 -1.9577 0
M  V30 1913 N 184.763 -0.387143 -1.52771 0
M  V30 1914 C 186.011 0.195349 -2.01154 0
M  V30 1915 C 186.332 1.475 -1.27549 0
M  V30 1916 O 185.602 1.91878 -0.394924 0
M  V30 1917 H 184.182 0.075178 -0.743207 0
M  V30 1918 H 186.844 -0.518337 -1.87881 0
M  V30 1919 H 185.94 0.407096 -3.09434 0
M  V30 1920 N 186.241 1.57166 -0.116904 0
M  V30 1921 C 187.652 1.82169 0.408809 0
M  V30 1922 C 188.003 1.03393 1.66746 0
M  V30 1923 O 187.128 0.269886 2.1471 0
M  V30 1924 C 187.723 3.30429 0.748466 0
M  V30 1925 C 186.282 3.5612 1.21882 0
M  V30 1926 C 185.429 2.76374 0.226452 0
M  V30 1927 H 188.38 1.5497 -0.342063 0
M  V30 1928 H 188.401 3.44943 1.60607 0
M  V30 1929 H 187.913 3.87737 -0.167784 0
M  V30 1930 H 186.014 3.04168 2.15204 0
M  V30 1931 H 186.127 4.64705 1.16559 0
M  V30 1932 H 184.491 2.44515 0.713063 0
M  V30 1933 H 185.274 3.3644 -0.682859 0
M  V30 1934 N 187.719 -0.156864 1.56817 0
M  V30 1935 C 188.944 -0.890331 1.87318 0
M  V30 1936 C 189.369 -1.74394 0.704855 0
M  V30 1937 O 188.727 -1.77972 -0.345786 0
M  V30 1938 C 188.775 -1.73102 3.16336 0
M  V30 1939 O 187.879 -2.83422 2.99576 0
M  V30 1940 H 187.22 -0.24857 0.615718 0
M  V30 1941 H 189.75 -0.150649 2.04045 0
M  V30 1942 H 189.76 -2.12803 3.48107 0
M  V30 1943 H 188.435 -1.10412 4.00976 0
M  V30 1944 H 187.012 -2.47199 2.7919 0
M  V30 1945 N 189.197 -1.51736 -0.425897 0
M  V30 1946 C 190.443 -1.65214 -1.1761 0
M  V30 1947 C 190.776 -0.372778 -1.90589 0
M  V30 1948 O 190.051 0.628139 -1.84078 0
M  V30 1949 C 190.334 -2.86312 -2.18398 0
M  V30 1950 C 190.187 -4.24254 -1.49426 0
M  V30 1951 C 191.506 -3.02925 -3.19256 0
M  V30 1952 H 188.625 -0.601263 -0.426206 0
M  V30 1953 H 191.267 -1.8425 -0.463882 0
M  V30 1954 H 189.417 -2.70213 -2.79137 0
M  V30 1955 H 191.089 -4.52046 -0.919362 0
M  V30 1956 H 189.332 -4.26426 -0.796432 0
M  V30 1957 H 190.003 -5.05001 -2.22885 0
M  V30 1958 H 192.479 -3.1781 -2.68581 0
M  V30 1959 H 191.355 -3.89199 -3.8706 0
M  V30 1960 H 191.616 -2.15497 -3.86023 0
M  V30 1961 N 190.675 0.682077 -1.42076 0
M  V30 1962 C 191.922 1.44215 -1.42156 0
M  V30 1963 C 192.25 1.94468 -0.0354186 0
M  V30 1964 O 191.505 1.70816 0.955002 0
M  V30 1965 C 191.804 2.66036 -2.38662 0
M  V30 1966 C 191.47 2.34366 -3.85206 0
M  V30 1967 C 190.132 2.25439 -4.25124 0
M  V30 1968 C 192.484 2.08513 -4.77673 0
M  V30 1969 C 189.812 1.88775 -5.55501 0
M  V30 1970 C 192.164 1.73354 -6.08384 0
M  V30 1971 C 190.828 1.62933 -6.47309 0
M  V30 1972 H 190.098 0.527718 -0.520187 0
M  V30 1973 H 192.745 0.778387 -1.74967 0
M  V30 1974 H 191.05 3.3741 -1.99152 0
M  V30 1975 H 192.747 3.24205 -2.35991 0
M  V30 1976 H 189.337 2.42213 -3.53597 0
M  V30 1977 H 193.521 2.14346 -4.47626 0
M  V30 1978 H 188.777 1.7927 -5.84527 0
M  V30 1979 H 192.951 1.52373 -6.79526 0
M  V30 1980 H 190.578 1.34292 -7.48244 0
M  V30 1981 N 192.153 1.28127 0.917671 0
M  V30 1982 C 193.564 1.13622 1.48145 0
M  V30 1983 C 193.915 -0.275207 1.9426 0
M  V30 1984 O 193.04 -1.1691 1.82102 0
M  V30 1985 C 193.635 2.05648 2.69248 0
M  V30 1986 C 192.194 1.95219 3.21818 0
M  V30 1987 C 191.341 1.97618 1.94532 0
M  V30 1988 H 194.292 1.40874 0.730772 0
M  V30 1989 H 194.313 1.61818 3.44377 0
M  V30 1990 H 193.825 3.08365 2.35653 0
M  V30 1991 H 191.926 0.955244 3.60147 0
M  V30 1992 H 192.039 2.81976 3.87333 0
M  V30 1993 H 190.403 1.41973 2.11461 0
M  V30 1994 H 191.186 3.02007 1.63238 0
M  V30 1995 N 193.631 -1.12557 1.10312 0
M  V30 1996 C 194.561 -2.20341 0.772798 0
M  V30 1997 C 195.542 -1.68198 -0.25365 0
M  V30 1998 O 196.727 -1.93831 -0.119699 0
M  V30 1999 C 193.857 -3.46709 0.202443 0
M  V30 2000 C 192.811 -4.11996 1.15943 0
M  V30 2001 C 192.137 -5.328 0.450345 0
M  V30 2002 C 193.437 -4.5828 2.50552 0
M  V30 2003 H 195.131 -2.48229 1.674 0
M  V30 2004 H 192.677 -1.19308 0.806326 0
M  V30 2005 H 194.63 -4.2138 -0.0407752 0
M  V30 2006 H 193.354 -3.18245 -0.734001 0
M  V30 2007 H 192.013 -3.39305 1.38808 0
M  V30 2008 H 191.661 -5.00602 -0.490531 0
M  V30 2009 H 191.361 -5.7743 1.08851 0
M  V30 2010 H 192.885 -6.10219 0.215642 0
M  V30 2011 H 194.299 -5.2433 2.31843 0
M  V30 2012 H 192.696 -5.13683 3.10242 0
M  V30 2013 H 193.766 -3.72329 3.10643 0
M  V30 2014 N 195.109 -0.891671 -1.2995 0
M  V30 2015 C 196.072 -0.36828 -2.26222 0
M  V30 2016 C 197.072 0.493014 -1.53056 0
M  V30 2017 O 198.262 0.299213 -1.71611 0
M  V30 2018 C 195.394 0.47442 -3.37583 0
M  V30 2019 H 196.587 -1.21844 -2.74033 0
M  V30 2020 H 194.14 -0.669107 -1.41254 0
M  V30 2021 H 194.875 1.34489 -2.95099 0
M  V30 2022 H 194.66 -0.142615 -3.91841 0
M  V30 2023 H 196.15 0.83218 -4.09224 0
M  V30 2024 N 196.587 1.43421 -0.653314 0
M  V30 2025 C 197.998 1.85065 -0.246537 0
M  V30 2026 C 198.349 1.54688 1.2069 0
M  V30 2027 O 197.474 0.995896 1.92122 0
M  V30 2028 C 198.069 3.35922 -0.440666 0
M  V30 2029 C 196.628 3.76297 -0.0882064 0
M  V30 2030 C 195.775 2.67147 -0.743484 0
M  V30 2031 H 198.726 1.33572 -0.856979 0
M  V30 2032 H 198.747 3.79204 0.313798 0
M  V30 2033 H 198.259 3.58 -1.49858 0
M  V30 2034 H 196.36 3.5983 0.96711 0
M  V30 2035 H 196.473 4.76338 -0.513738 0
M  V30 2036 H 194.837 2.54086 -0.176712 0
M  V30 2037 H 195.62 2.92053 -1.80443 0
M  V30 2038 N 198.065 0.39524 1.52563 0
M  V30 2039 C 199.29 -0.187456 2.06551 0
M  V30 2040 C 199.715 -1.39249 1.26457 0
M  V30 2041 O 199.073 -1.78947 0.291151 0
M  V30 2042 C 199.121 -0.529985 3.56684 0
M  V30 2043 O 198.225 -1.62307 3.79118 0
M  V30 2044 H 197.566 -0.0202537 0.663691 0
M  V30 2045 H 200.096 0.564426 1.96661 0
M  V30 2046 H 200.106 -0.792598 4.00227 0
M  V30 2047 H 198.781 0.350987 4.14416 0
M  V30 2048 H 197.358 -1.3537 3.47461 0
M  V30 2049 N 199.544 -1.57102 0.125237 0
M  V30 2050 C 200.769 -2.0019 -0.542101 0
M  V30 2051 C 201.194 -1.00449 -1.59034 0
M  V30 2052 O 200.552 0.0229423 -1.81285 0
M  V30 2053 C 200.6 -3.42129 -1.13929 0
M  V30 2054 O 199.704 -3.45307 -2.2547 0
M  V30 2055 H 199.045 -0.650171 -0.134812 0
M  V30 2056 H 201.575 -2.03461 0.215553 0
M  V30 2057 H 201.585 -3.80471 -1.4733 0
M  V30 2058 H 200.26 -4.14237 -0.371531 0
M  V30 2059 H 198.837 -3.1879 -1.93462 0
M  V30 2060 N 201.022 0.148545 -1.56898 0
M  V30 2061 C 201.969 1.18345 -1.98149 0
M  V30 2062 C 202.939 1.42772 -0.848848 0
M  V30 2063 O 204.124 1.55132 -1.11079 0
M  V30 2064 C 201.264 2.51231 -2.36594 0
M  V30 2065 C 200.377 2.33991 -3.63142 0
M  V30 2066 C 199.512 3.59902 -3.90697 0
M  V30 2067 C 198.551 3.37692 -5.1052 0
M  V30 2068 N 197.688 4.5573 -5.34092 0
M  V30 2069 H 202.528 0.82467 -2.86362 0
M  V30 2070 H 200.065 0.395756 -1.41676 0
M  V30 2071 H 202.023 3.28713 -2.56912 0
M  V30 2072 H 200.653 2.85059 -1.51463 0
M  V30 2073 H 199.705 1.47572 -3.50609 0
M  V30 2074 H 201.017 2.13539 -4.5078 0
M  V30 2075 H 200.171 4.45813 -4.11505 0
M  V30 2076 H 198.91 3.83357 -3.01477 0
M  V30 2077 H 197.915 2.5017 -4.89587 0
M  V30 2078 H 199.14 3.15637 -6.0129 0
M  V30 2079 H 197.086 4.79361 -4.47827 0
M  V30 2080 H 197.003 4.38274 -6.15996 0
M  V30 2081 H 198.271 5.42858 -5.59397 0
M  V30 2082 N 202.5 1.5196 0.417844 0
M  V30 2083 C 203.725 1.69717 1.1921 0
M  V30 2084 C 204.15 0.402148 1.83751 0
M  V30 2085 O 203.508 -0.639593 1.69643 0
M  V30 2086 C 203.556 2.82794 2.2374 0
M  V30 2087 O 202.66 2.47756 3.29683 0
M  V30 2088 H 202.001 0.565263 0.348387 0
M  V30 2089 H 204.531 1.98621 0.490985 0
M  V30 2090 H 204.541 3.07452 2.68212 0
M  V30 2091 H 203.216 3.76756 1.76146 0
M  V30 2092 H 201.793 2.33739 2.90552 0
M  V30 2093 N 203.978 -0.674533 1.42435 0
M  V30 2094 C 205.206 -1.46283 1.46317 0
M  V30 2095 C 205.621 -1.88653 0.0745836 0
M  V30 2096 O 204.978 -1.58151 -0.91074 0
M  V30 2097 C 205.029 -2.71178 2.3905 0
M  V30 2098 O 204.75 -2.30586 3.72507 0
M  V30 2099 C 206.251 -3.64738 2.51955 0
M  V30 2100 H 203.471 -0.450104 0.497642 0
M  V30 2101 H 206.015 -0.828792 1.86953 0
M  V30 2102 H 204.17 -3.3077 2.01667 0
M  V30 2103 H 204.584 -3.11241 4.22172 0
M  V30 2104 H 206.058 -4.49096 3.20962 0
M  V30 2105 H 206.535 -4.10656 1.55752 0
M  V30 2106 H 207.141 -3.11038 2.90061 0
M  V30 2107 N 205.456 -1.28612 -0.910864 0
M  V30 2108 C 206.681 -1.1891 -1.69927 0
M  V30 2109 C 207.106 0.248372 -1.86453 0
M  V30 2110 O 206.464 1.17961 -1.37676 0
M  V30 2111 C 206.512 -1.89578 -3.06745 0
M  V30 2112 O 205.616 -1.20521 -3.94396 0
M  V30 2113 H 204.957 -0.412632 -0.520222 0
M  V30 2114 H 207.487 -1.69985 -1.1387 0
M  V30 2115 H 207.497 -1.97597 -3.56958 0
M  V30 2116 H 206.172 -2.94136 -2.94035 0
M  V30 2117 H 204.749 -1.20684 -3.52831 0
M  V30 2118 N 206.934 1.1197 -1.10907 0
M  V30 2119 C 208.182 1.83225 -0.852819 0
M  V30 2120 C 208.503 1.84769 0.623341 0
M  V30 2121 O 207.773 1.3143 1.45269 0
M  V30 2122 H 206.353 0.67849 -0.312507 0
M  V30 2123 H 209.015 1.3556 -1.40033 0
M  V30 2124 H 208.111 2.87265 -1.22005 0
M  V30 2125 N 208.412 0.89855 1.29475 0
M  V30 2126 C 209.66 0.522847 1.9522 0
M  V30 2127 C 209.981 -0.93371 1.71192 0
M  V30 2128 O 209.251 -1.65823 1.04305 0
M  V30 2129 H 207.831 0.190366 0.722336 0
M  V30 2130 H 210.493 1.14459 1.5775 0
M  V30 2131 H 209.589 0.704476 3.04045 0
M  V30 2132 N 209.89 -1.43072 0.660911 0
M  V30 2133 C 211.118 -2.06067 0.185422 0
M  V30 2134 C 211.533 -1.49582 -1.15198 0
M  V30 2135 O 210.89 -0.630134 -1.71276 0
M  V30 2136 C 210.941 -3.61371 0.0966523 0
M  V30 2137 O 210.662 -4.15758 1.38119 0
M  V30 2138 C 212.163 -4.41455 -0.403996 0
M  V30 2139 H 209.383 -0.664459 0.0934604 0
M  V30 2140 H 211.927 -1.83447 0.90373 0
M  V30 2141 H 210.082 -3.8315 -0.572259 0
M  V30 2142 H 210.496 -5.09499 1.24542 0
M  V30 2143 H 211.97 -5.50437 -0.415045 0
M  V30 2144 H 212.447 -4.15036 -1.43674 0
M  V30 2145 H 213.053 -4.24663 0.232691 0
M  V30 2146 N 211.368 -0.403325 -1.52352 0
M  V30 2147 C 212.331 0.413051 -2.25447 0
M  V30 2148 C 213.331 0.978513 -1.276 0
M  V30 2149 O 214.521 0.858305 -1.51587 0
M  V30 2150 C 211.653 1.58087 -3.02029 0
M  V30 2151 H 212.846 -0.227094 -2.99039 0
M  V30 2152 H 210.399 -0.155722 -1.55522 0
M  V30 2153 H 211.134 2.25804 -2.32772 0
M  V30 2154 H 210.919 1.18195 -3.73861 0
M  V30 2155 H 212.409 2.1585 -3.57489 0
M  V30 2156 N 212.846 1.57033 -0.133567 0
M  V30 2157 C 213.809 2.14897 0.796995 0
M  V30 2158 C 214.809 1.0874 1.18458 0
M  V30 2159 O 215.999 1.34446 1.1077 0
M  V30 2160 C 213.131 2.70112 2.07973 0
M  V30 2161 H 214.324 2.98457 0.293873 0
M  V30 2162 H 211.877 1.55871 0.115787 0
M  V30 2163 H 212.612 1.9018 2.62682 0
M  V30 2164 H 212.397 3.47764 1.81115 0
M  V30 2165 H 213.887 3.14738 2.74462 0
M  V30 2166 N 214.325 -0.140222 1.56975 0
M  V30 2167 C 215.255 -1.17456 2.01808 0
M  V30 2168 C 216.236 -1.44415 0.898794 0
M  V30 2169 O 217.421 -1.5522 1.16707 0
M  V30 2170 C 214.551 -2.50607 2.40444 0
M  V30 2171 C 213.505 -2.38155 3.55621 0
M  V30 2172 C 212.831 -3.76078 3.80091 0
M  V30 2173 C 214.131 -1.85991 4.88062 0
M  V30 2174 H 215.825 -0.801743 2.88466 0
M  V30 2175 H 213.371 -0.38422 1.38779 0
M  V30 2176 H 215.324 -3.23197 2.7041 0
M  V30 2177 H 214.048 -2.89737 1.50732 0
M  V30 2178 H 212.707 -1.68016 3.25832 0
M  V30 2179 H 212.355 -4.12656 2.87618 0
M  V30 2180 H 212.055 -3.68606 4.57606 0
M  V30 2181 H 213.579 -4.50206 4.12488 0
M  V30 2182 H 214.993 -2.4838 5.16701 0
M  V30 2183 H 213.39 -1.89393 5.6943 0
M  V30 2184 H 214.46 -0.816023 4.77984 0
M  V30 2185 N 215.803 -1.52179 -0.40978 0
M  V30 2186 C 217.051 -1.65878 -1.15451 0
M  V30 2187 C 217.372 -0.390771 -1.91044 0
M  V30 2188 O 216.642 0.594323 -1.86667 0
M  V30 2189 H 215.222 -0.611405 -0.429177 0
M  V30 2190 H 217.884 -1.89219 -0.467134 0
M  V30 2191 H 216.98 -2.49954 -1.86894 0
M  V30 2192 N 217.281 0.66697 -1.42791 0
M  V30 2193 C 218.521 1.43892 -1.4517 0
M  V30 2194 C 218.885 1.91877 -0.0687551 0
M  V30 2195 O 220.086 2.6878 0.0327455 0
M  V30 2196 C 218.357 2.59839 -2.45395 0
M  V30 2197 S 219.916 3.48572 -2.66539 0
M  V30 2198 H 216.734 0.491356 -0.513897 0
M  V30 2199 H 219.336 0.775656 -1.79454 0
M  V30 2200 H 218.04 2.22838 -3.44632 0
M  V30 2201 H 217.571 3.3103 -2.12562 0
M  V30 2202 H 219.586 4.56094 -1.95429 0
M  V30 2203 N 218.759 1.29093 0.90403 0
M  V30 2204 C 219.689 1.16401 2.02418 0
M  V30 2205 C 220.67 0.0593085 1.69997 0
M  V30 2206 O 221.855 0.238021 1.92736 0
M  V30 2207 C 218.985 0.835233 3.37107 0
M  V30 2208 C 217.939 1.89578 3.83724 0
M  V30 2209 C 217.265 1.42041 5.15489 0
M  V30 2210 C 218.565 3.30394 4.04521 0
M  V30 2211 H 220.259 2.10109 2.13295 0
M  V30 2212 H 217.805 1.01157 1.02486 0
M  V30 2213 H 219.758 0.733169 4.14973 0
M  V30 2214 H 218.482 -0.137543 3.2631 0
M  V30 2215 H 217.141 1.98715 3.08071 0
M  V30 2216 H 216.789 0.436426 5.01103 0
M  V30 2217 H 216.489 2.12964 5.4765 0
M  V30 2218 H 218.013 1.33176 5.959 0
M  V30 2219 H 219.427 3.24123 4.72882 0
M  V30 2220 H 217.824 3.99237 4.48029 0
M  V30 2221 H 218.894 3.73692 3.09002 0
M  V30 2222 N 220.237 -1.11381 1.11499 0
M  V30 2223 C 221.483 -1.83403 0.865512 0
M  V30 2224 C 221.816 -1.84459 -0.607329 0
M  V30 2225 O 221.091 -1.29811 -1.44842 0
M  V30 2226 C 221.374 -3.30552 1.42855 0
M  V30 2227 C 221.227 -3.37886 2.96906 0
M  V30 2228 C 222.546 -4.26643 1.08 0
M  V30 2229 H 219.665 -0.665879 0.31587 0
M  V30 2230 H 222.307 -1.30601 1.37998 0
M  V30 2231 H 220.457 -3.75648 0.990985 0
M  V30 2232 H 222.129 -3.01343 3.49271 0
M  V30 2233 H 220.372 -2.78088 3.32941 0
M  V30 2234 H 221.043 -4.41458 3.31389 0
M  V30 2235 H 223.519 -3.89729 1.45775 0
M  V30 2236 H 222.395 -5.27986 1.50072 0
M  V30 2237 H 222.656 -4.42099 -0.00915037 0
M  V30 2238 N 221.715 -0.905404 -1.28997 0
M  V30 2239 C 222.662 -0.385892 -2.27551 0
M  V30 2240 C 223.632 0.535113 -1.57244 0
M  V30 2241 O 224.817 0.459119 -1.85194 0
M  V30 2242 C 221.957 0.375461 -3.43051 0
M  V30 2243 C 221.07 -0.577092 -4.28128 0
M  V30 2244 C 220.205 0.201879 -5.30816 0
M  V30 2245 C 219.244 -0.744829 -6.07551 0
M  V30 2246 N 218.381 9.42587e-05 -7.021 0
M  V30 2247 H 223.221 -1.23139 -2.71368 0
M  V30 2248 H 220.758 -0.618542 -1.33463 0
M  V30 2249 H 222.716 0.832992 -4.088 0
M  V30 2250 H 221.346 1.18537 -3.00248 0
M  V30 2251 H 220.398 -1.15315 -3.62501 0
M  V30 2252 H 221.71 -1.30152 -4.8152 0
M  V30 2253 H 220.864 0.720351 -6.02408 0
M  V30 2254 H 219.603 0.959413 -4.7817 0
M  V30 2255 H 218.608 -1.27475 -5.34818 0
M  V30 2256 H 219.833 -1.50178 -6.62286 0
M  V30 2257 H 217.779 0.739791 -6.51815 0
M  V30 2258 H 217.696 -0.664321 -7.53076 0
M  V30 2259 H 218.964 0.498644 -7.77903 0
M  V30 2260 N 223.193 1.4272 -0.668489 0
M  V30 2261 C 224.47 1.95248 -0.117373 0
M  V30 2262 C 224.85 1.60919 1.36632 0
M  V30 2263 O 224.198 0.902095 2.09939 0
M  V30 2264 C 224.408 3.46927 -0.379806 0
M  V30 2265 C 225.756 4.23588 -0.292923 0
M  V30 2266 O 226.78 3.5482 -0.313204 0
M  V30 2267 O 225.639 5.46017 -0.229697 0
M  V30 2268 H 222.733 0.827 0.00079152 0
M  V30 2269 H 225.279 1.52581 -0.742783 0
M  V30 2270 H 224.051 3.65096 -1.40786 0
M  V30 2271 H 223.674 3.96627 0.277923 0
M  V30 2272 N 224.671 0.411399 1.52136 0
M  V30 2273 C 225.901 -0.16284 2.05957 0
M  V30 2274 C 226.309 -1.3922 1.28119 0
M  V30 2275 O 225.652 -1.80768 0.326881 0
M  V30 2276 C 225.714 -0.575946 3.54856 0
M  V30 2277 C 225.378 0.542998 4.53763 0
M  V30 2278 C 226.375 1.40726 5.00492 0
M  V30 2279 C 224.06 0.716337 4.97166 0
M  V30 2280 C 226.054 2.4298 5.8927 0
M  V30 2281 C 223.741 1.74218 5.8574 0
M  V30 2282 C 224.739 2.59731 6.31687 0
M  V30 2283 O 224.427 3.60558 7.18507 0
M  V30 2284 H 224.159 -0.0229125 0.675612 0
M  V30 2285 H 226.713 0.581634 1.96993 0
M  V30 2286 H 224.943 -1.37274 3.61515 0
M  V30 2287 H 226.632 -1.07836 3.91313 0
M  V30 2288 H 227.398 1.28476 4.67674 0
M  V30 2289 H 223.277 0.0603857 4.6096 0
M  V30 2290 H 226.821 3.0976 6.25055 0
M  V30 2291 H 222.718 1.86498 6.17971 0
M  V30 2292 H 223.486 3.56829 7.36624 0
M  V30 2293 N 226.149 -1.5696 0.141893 0
M  V30 2294 C 227.396 -1.9596 -0.510492 0
M  V30 2295 C 227.724 -1.02648 -1.65208 0
M  V30 2296 O 226.979 -0.0546947 -1.95624 0
M  V30 2297 C 227.278 -3.41242 -1.06249 0
M  V30 2298 C 226.944 -4.50882 -0.0398791 0
M  V30 2299 C 225.606 -4.80595 0.241247 0
M  V30 2300 C 227.958 -5.17058 0.65578 0
M  V30 2301 C 225.286 -5.73792 1.22393 0
M  V30 2302 C 227.638 -6.11313 1.62724 0
M  V30 2303 C 226.302 -6.39407 1.91612 0
M  V30 2304 H 225.572 -0.717068 -0.186802 0
M  V30 2305 H 228.219 -1.90142 0.227643 0
M  V30 2306 H 226.524 -3.43866 -1.87785 0
M  V30 2307 H 228.221 -3.68742 -1.57576 0
M  V30 2308 H 224.811 -4.27754 -0.269174 0
M  V30 2309 H 228.995 -4.94239 0.451779 0
M  V30 2310 H 224.251 -5.93853 1.45424 0
M  V30 2311 H 228.425 -6.61668 2.17183 0
M  V30 2312 H 226.052 -7.11427 2.6791 0
M  V30 2313 N 227.627 0.131896 -1.57047 0
M  V30 2314 C 229.038 0.690407 -1.73465 0
M  V30 2315 C 229.389 1.8094 -0.758629 0
M  V30 2316 O 228.514 2.16282 0.0713813 0
M  V30 2317 C 229.109 1.25916 -3.14532 0
M  V30 2318 C 227.668 1.76409 -3.32501 0
M  V30 2319 C 226.815 0.658579 -2.69366 0
M  V30 2320 H 229.766 -0.0939144 -1.58422 0
M  V30 2321 H 229.787 2.12892 -3.15369 0
M  V30 2322 H 229.299 0.444515 -3.85546 0
M  V30 2323 H 227.4 2.60391 -2.66509 0
M  V30 2324 H 227.513 1.88241 -4.4057 0
M  V30 2325 H 225.877 1.08899 -2.30246 0
M  V30 2326 H 226.66 -0.14487 -3.42994 0
M  V30 2327 N 229.106 1.52395 0.401703 0
M  V30 2328 C 230.016 1.7917 1.51444 0
M  V30 2329 C 231.032 0.677691 1.6026 0
M  V30 2330 O 232.208 0.963909 1.76835 0
M  V30 2331 C 229.273 1.94347 2.87107 0
M  V30 2332 C 228.334 3.18257 2.88116 0
M  V30 2333 C 227.567 3.32701 4.17308 0
M  V30 2334 O 227.79 2.52238 5.11598 0
M  V30 2335 O 226.724 4.25891 4.25324 0
M  V30 2336 H 230.55 2.73633 1.31752 0
M  V30 2337 H 228.135 1.3733 0.588296 0
M  V30 2338 H 230.017 2.06109 3.67555 0
M  V30 2339 H 228.692 1.03073 3.06851 0
M  V30 2340 H 227.599 3.11947 2.06494 0
M  V30 2341 H 228.932 4.09336 2.73322 0
M  V30 2342 N 230.584 -0.659388 1.43143 0
M  V30 2343 C 231.995 -1.24041 1.39537 0
M  V30 2344 C 232.346 -1.95963 0.0963364 0
M  V30 2345 O 231.471 -2.00892 -0.804438 0
M  V30 2346 C 232.066 -2.25601 2.52764 0
M  V30 2347 C 230.625 -2.79195 2.52443 0
M  V30 2348 C 229.772 -1.53743 2.30778 0
M  V30 2349 H 232.723 -0.451792 1.52133 0
M  V30 2350 H 232.744 -3.07651 2.23899 0
M  V30 2351 H 232.256 -1.73226 3.47296 0
M  V30 2352 H 230.357 -3.35649 1.61773 0
M  V30 2353 H 230.47 -3.2716 3.50004 0
M  V30 2354 H 228.834 -1.80869 1.79328 0
M  V30 2355 H 229.617 -1.03312 3.27386 0
M  V30 2356 N 232.062 -1.29571 -0.897171 0
M  V30 2357 C 233.308 -1.17863 -1.65034 0
M  V30 2358 C 233.641 0.268729 -1.92332 0
M  V30 2359 O 232.916 1.19378 -1.53555 0
M  V30 2360 C 233.199 -1.995 -2.99786 0
M  V30 2361 C 233.052 -3.5239 -2.79538 0
M  V30 2362 C 234.371 -1.82335 -4.00552 0
M  V30 2363 H 231.49 -0.429528 -0.598895 0
M  V30 2364 H 234.132 -1.59072 -1.03905 0
M  V30 2365 H 232.282 -1.64485 -3.51962 0
M  V30 2366 H 233.954 -3.97401 -2.34244 0
M  V30 2367 H 232.197 -3.77187 -2.14273 0
M  V30 2368 H 232.868 -4.04787 -3.75302 0
M  V30 2369 H 235.344 -2.12924 -3.57495 0
M  V30 2370 H 234.22 -2.41801 -4.92771 0
M  V30 2371 H 234.481 -0.779209 -4.35179 0
M  V30 2372 N 233.54 1.10788 -1.12088 0
M  V30 2373 C 234.768 1.86461 -0.896651 0
M  V30 2374 C 235.183 1.80492 0.553912 0
M  V30 2375 O 234.54 1.19102 1.38278 0
M  V30 2376 C 234.591 3.35006 -1.35843 0
M  V30 2377 O 234.312 3.40866 -2.75213 0
M  V30 2378 C 235.813 4.27565 -1.1706 0
M  V30 2379 H 233.033 0.589425 -0.320654 0
M  V30 2380 H 235.577 1.40076 -1.48993 0
M  V30 2381 H 233.732 3.7887 -0.808458 0
M  V30 2382 H 234.146 4.33411 -2.9539 0
M  V30 2383 H 235.62 5.30007 -1.54263 0
M  V30 2384 H 236.097 4.3906 -0.110814 0
M  V30 2385 H 236.703 3.89501 -1.70789 0
M  V30 2386 N 235.018 0.912232 1.28515 0
M  V30 2387 C 236.264 0.545405 1.95328 0
M  V30 2388 C 236.597 -0.908313 1.71649 0
M  V30 2389 O 235.872 -1.64575 1.03659 0
M  V30 2390 C 236.155 0.853483 3.4984 0
M  V30 2391 C 236.008 2.35982 3.82926 0
M  V30 2392 C 237.327 0.348589 4.38717 0
M  V30 2393 H 234.446 0.199626 0.709449 0
M  V30 2394 H 237.088 1.1412 1.5191 0
M  V30 2395 H 235.238 0.34643 3.86952 0
M  V30 2396 H 236.91 2.93738 3.55691 0
M  V30 2397 H 235.153 2.81543 3.30024 0
M  V30 2398 H 235.824 2.52593 4.90816 0
M  V30 2399 H 238.3 0.78294 4.08668 0
M  V30 2400 H 237.176 0.593242 5.45685 0
M  V30 2401 H 237.437 -0.751049 4.35674 0
M  V30 2402 N 236.496 -1.42363 0.676048 0
M  V30 2403 C 237.721 -2.06377 0.205705 0
M  V30 2404 C 238.146 -1.50463 -1.12883 0
M  V30 2405 O 237.504 -0.623619 -1.70237 0
M  V30 2406 C 237.552 -3.60277 0.152655 0
M  V30 2407 O 236.656 -4.02935 -0.87845 0
M  V30 2408 H 235.997 -0.655588 0.105359 0
M  V30 2409 H 238.527 -1.82475 0.925412 0
M  V30 2410 H 238.537 -4.07993 -0.0230675 0
M  V30 2411 H 237.212 -4.00346 1.12675 0
M  V30 2412 H 235.789 -3.66764 -0.673668 0
M  V30 2413 N 237.974 -0.419461 -1.51915 0
M  V30 2414 C 239.22 0.145505 -2.02879 0
M  V30 2415 C 239.575 1.41926 -1.29903 0
M  V30 2416 O 238.868 1.87383 -0.399782 0
M  V30 2417 C 239.062 0.437067 -3.54717 0
M  V30 2418 C 238.891 -0.806877 -4.42402 0
M  V30 2419 C 237.661 -1.33514 -4.87342 0
M  V30 2420 C 239.859 -1.68796 -4.85811 0
M  V30 2421 N 237.841 -2.53349 -5.59185 0
M  V30 2422 C 239.212 -2.73247 -5.56539 0
M  V30 2423 C 241.267 -1.70449 -4.67816 0
M  V30 2424 C 239.97 -3.79276 -6.11181 0
M  V30 2425 C 241.996 -2.75403 -5.23361 0
M  V30 2426 C 241.358 -3.78575 -5.9402 0
M  V30 2427 H 237.457 0.0145424 -0.781865 0
M  V30 2428 H 240.041 -0.576126 -1.85981 0
M  V30 2429 H 238.212 1.12774 -3.71667 0
M  V30 2430 H 239.944 0.99182 -3.92358 0
M  V30 2431 H 236.699 -0.891657 -4.65131 0
M  V30 2432 H 237.123 -3.14066 -5.99743 0
M  V30 2433 H 241.765 -0.920209 -4.12664 0
M  V30 2434 H 239.483 -4.58554 -6.65397 0
M  V30 2435 H 243.069 -2.77603 -5.113 0
M  V30 2436 H 241.949 -4.58453 -6.36231 0
M  V30 2437 N 239.452 1.56882 -0.150215 0
M  V30 2438 C 240.4 2.18214 0.805313 0
M  V30 2439 C 241.394 1.14006 1.25296 0
M  V30 2440 O 242.6 1.3225 1.22107 0
M  V30 2441 H 238.975 0.698762 0.277913 0
M  V30 2442 H 240.946 2.97231 0.263862 0
M  V30 2443 C 239.695 2.82065 2.03309 0
M  V30 2444 H 239.018 3.61968 1.69763 0
M  V30 2445 H 240.458 3.28477 2.68103 0
M  V30 2446 C 238.917 1.80739 2.84315 0
M  V30 2447 O 239.447 1.27983 3.80767 0
M  V30 2448 N 237.653 1.4997 2.48913 0
M  V30 2449 H 237.2 1.93062 1.70542 0
M  V30 2450 H 237.158 0.824217 3.03404 0
M  V30 2451 N 240.93 -0.123565 1.57115 0
M  V30 2452 C 242.155 -0.850398 1.89164 0
M  V30 2453 C 242.58 -1.7286 0.741688 0
M  V30 2454 O 241.938 -1.78665 -0.307958 0
M  V30 2455 C 241.986 -1.66353 3.19936 0
M  V30 2456 O 241.09 -2.77004 3.0552 0
M  V30 2457 H 240.431 -0.235454 0.620852 0
M  V30 2458 H 242.961 -0.107335 2.04318 0
M  V30 2459 H 242.971 -2.05372 3.52543 0
M  V30 2460 H 241.646 -1.01881 4.03228 0
M  V30 2461 H 240.223 -2.41221 2.84371 0
M  V30 2462 N 242.408 -1.52605 -0.393616 0
M  V30 2463 C 243.656 -1.67093 -1.13685 0
M  V30 2464 C 243.977 -0.411011 -1.90619 0
M  V30 2465 O 243.247 0.574491 -1.87287 0
M  V30 2466 H 241.827 -0.615923 -0.422668 0
M  V30 2467 H 244.489 -1.89704 -0.447039 0
M  V30 2468 H 243.585 -2.51922 -1.84232 0
M  V30 2469 N 243.887 0.651787 -1.4349 0
M  V30 2470 C 244.85 1.74647 -1.48429 0
M  V30 2471 C 245.85 1.56513 -0.368817 0
M  V30 2472 O 247.04 1.62385 -0.630623 0
M  V30 2473 C 244.172 3.13533 -1.33827 0
M  V30 2474 H 245.365 1.71649 -2.4592 0
M  V30 2475 H 242.918 0.863573 -1.30277 0
M  V30 2476 H 243.653 3.22142 -0.37349 0
M  V30 2477 H 243.438 3.28101 -2.14691 0
M  V30 2478 H 244.928 3.93356 -1.40218 0
M  V30 2479 N 245.365 1.30045 0.890287 0
M  V30 2480 C 246.295 1.18541 2.01172 0
M  V30 2481 C 247.276 0.0773356 1.69924 0
M  V30 2482 O 248.461 0.25845 1.92473 0
M  V30 2483 C 245.591 0.870941 3.36202 0
M  V30 2484 C 244.545 1.93637 3.81692 0
M  V30 2485 C 243.871 1.475 5.13953 0
M  V30 2486 C 245.171 3.34666 4.00994 0
M  V30 2487 H 246.865 2.12359 2.11054 0
M  V30 2488 H 244.411 1.02238 1.01407 0
M  V30 2489 H 246.364 0.777141 4.14172 0
M  V30 2490 H 245.088 -0.102926 3.26438 0
M  V30 2491 H 243.747 2.01972 3.05946 0
M  V30 2492 H 243.395 0.489551 5.00612 0
M  V30 2493 H 243.095 2.1876 5.4536 0
M  V30 2494 H 244.619 1.39489 5.94454 0
M  V30 2495 H 246.033 3.2912 4.69417 0
M  V30 2496 H 244.43 4.03966 4.43769 0
M  V30 2497 H 245.5 3.76949 3.05021 0
M  V30 2498 N 246.843 -1.10192 1.12674 0
M  V30 2499 C 248.071 -1.85983 0.906527 0
M  V30 2500 C 248.486 -1.80783 -0.544333 0
M  V30 2501 O 247.843 -1.19834 -1.37645 0
M  V30 2502 C 247.894 -3.34281 1.37618 0
M  V30 2503 O 247.615 -3.39401 2.77017 0
M  V30 2504 C 249.116 -4.26938 1.19325 0
M  V30 2505 H 246.336 -0.587716 0.323775 0
M  V30 2506 H 248.88 -1.39284 1.49734 0
M  V30 2507 H 247.035 -3.78436 0.828539 0
M  V30 2508 H 247.449 -4.31838 2.97684 0
M  V30 2509 H 248.923 -5.29181 1.57071 0
M  V30 2510 H 249.4 -4.38995 0.134097 0
M  V30 2511 H 250.006 -3.8859 1.72852 0
M  V30 2512 N 248.321 -0.919034 -1.28029 0
M  V30 2513 C 249.546 -0.570357 -1.99403 0
M  V30 2514 C 249.971 0.842486 -1.68178 0
M  V30 2515 O 249.329 1.56391 -0.917141 0
M  V30 2516 C 249.377 -0.792541 -3.51783 0
M  V30 2517 O 248.481 0.145988 -4.12142 0
M  V30 2518 H 247.822 -0.220555 -0.6263 0
M  V30 2519 H 250.352 -1.23592 -1.63053 0
M  V30 2520 H 250.362 -0.704708 -4.01868 0
M  V30 2521 H 249.037 -1.82247 -3.73844 0
M  V30 2522 H 247.614 0.00897528 -3.72899 0
M  V30 2523 N 249.799 1.42003 -0.683588 0
M  V30 2524 C 251.047 2.01015 -0.209101 0
M  V30 2525 C 251.368 1.54365 1.19149 0
M  V30 2526 O 250.638 0.769083 1.80172 0
M  V30 2527 H 249.218 0.743294 -0.074315 0
M  V30 2528 H 251.88 1.73798 -0.882066 0
M  V30 2529 H 250.976 3.11343 -0.2172 0
M  V30 2530 N 251.277 0.427512 1.51691 0
M  V30 2531 C 252.523 -0.142439 2.02299 0
M  V30 2532 C 252.856 -1.43214 1.31162 0
M  V30 2533 O 252.131 -1.89833 0.423511 0
M  V30 2534 C 252.414 -0.371301 3.58181 0
M  V30 2535 C 252.267 0.936358 4.39946 0
M  V30 2536 C 253.586 -1.14542 4.24933 0
M  V30 2537 H 250.705 -0.0502937 0.735282 0
M  V30 2538 H 253.347 0.564584 1.81418 0
M  V30 2539 H 251.497 -0.973559 3.76104 0
M  V30 2540 H 253.169 1.57184 4.33694 0
M  V30 2541 H 251.412 1.5432 4.05423 0
M  V30 2542 H 252.083 0.730388 5.47147 0
M  V30 2543 H 254.559 -0.635362 4.11221 0
M  V30 2544 H 253.435 -1.27431 5.33903 0
M  V30 2545 H 253.696 -2.17093 3.85127 0
M  V30 2546 N 252.755 -1.56801 0.158532 0
M  V30 2547 C 253.705 -2.13923 -0.788738 0
M  V30 2548 C 254.689 -1.07006 -1.2016 0
M  V30 2549 O 255.881 -1.33159 -1.1661 0
M  V30 2550 C 253.01 -2.77348 -2.02319 0
M  V30 2551 C 252.096 -3.91404 -1.6329 0
M  V30 2552 N 252.487 -4.9677 -0.951463 0
M  V30 2553 C 250.785 -4.02326 -1.92482 0
M  V30 2554 C 251.486 -5.76698 -0.761221 0
M  V30 2555 N 250.462 -5.27859 -1.29869 0
M  V30 2556 H 254.264 -2.92757 -0.258995 0
M  V30 2557 H 251.778 -1.62344 -0.0426055 0
M  V30 2558 H 253.775 -3.16639 -2.71192 0
M  V30 2559 H 252.435 -1.99991 -2.558 0
M  V30 2560 H 253.446 -5.14284 -0.610928 0
M  V30 2561 H 250.123 -3.36059 -2.47732 0
M  V30 2562 H 251.513 -6.71529 -0.223284 0
M  V30 2563 N 254.233 0.115231 -1.57178 0
M  V30 2564 C 255.461 0.836437 -1.89239 0
M  V30 2565 C 255.876 1.73256 -0.750175 0
M  V30 2566 O 255.233 1.80357 0.278832 0
M  V30 2567 C 255.284 1.66671 -3.20785 0
M  V30 2568 O 255.005 0.806652 -4.3061 0
M  V30 2569 C 256.506 2.49274 -3.66575 0
M  V30 2570 H 253.726 0.240253 -0.626514 0
M  V30 2571 H 256.27 0.0984932 -2.04263 0
M  V30 2572 H 254.425 2.35737 -3.0742 0
M  V30 2573 H 254.839 1.37969 -5.06028 0
M  V30 2574 H 256.313 3.03055 -4.6137 0
M  V30 2575 H 256.79 3.26807 -2.93417 0
M  V30 2576 H 257.396 1.85443 -3.82741 0
M  V30 2577 N 255.711 1.52812 0.385517 0
M  V30 2578 C 256.958 1.68026 1.1302 0
M  V30 2579 C 257.286 0.421934 1.89868 0
M  V30 2580 O 256.541 -0.595749 1.86412 0
M  V30 2581 C 256.84 2.86856 2.13187 0
M  V30 2582 C 256.506 4.24159 1.5297 0
M  V30 2583 C 255.168 4.61501 1.36274 0
M  V30 2584 C 257.52 5.09627 1.09223 0
M  V30 2585 C 254.848 5.81966 0.743837 0
M  V30 2586 C 257.2 6.30719 0.487411 0
M  V30 2587 C 255.864 6.6679 0.307777 0
M  V30 2588 H 255.134 0.614849 0.413571 0
M  V30 2589 H 257.781 1.86962 0.414405 0
M  V30 2590 H 256.086 2.6235 2.90998 0
M  V30 2591 H 257.783 2.95821 2.70722 0
M  V30 2592 H 254.373 3.94746 1.66954 0
M  V30 2593 H 258.557 4.81343 1.20922 0
M  V30 2594 H 253.813 6.08519 0.592891 0
M  V30 2595 H 257.987 6.96259 0.140143 0
M  V30 2596 H 255.614 7.60001 -0.173879 0
M  V30 2597 N 257.189 -0.644168 1.43834 0
M  V30 2598 C 258.6 -1.22554 1.40845 0
M  V30 2599 C 258.951 -1.9585 0.117115 0
M  V30 2600 O 258.076 -2.01734 -0.783086 0
M  V30 2601 C 258.671 -2.22907 2.55143 0
M  V30 2602 C 257.23 -2.76501 2.5539 0
M  V30 2603 C 256.377 -1.51287 2.32396 0
M  V30 2604 H 259.328 -0.43563 1.52604 0
M  V30 2605 H 259.349 -3.05259 2.2715 0
M  V30 2606 H 258.861 -1.69533 3.49114 0
M  V30 2607 H 256.962 -3.33914 1.65324 0
M  V30 2608 H 257.075 -3.23429 3.53455 0
M  V30 2609 H 255.439 -1.78957 1.81236 0
M  V30 2610 H 256.222 -0.998336 3.28463 0
M  V30 2611 N 258.668 -1.30515 -0.883378 0
M  V30 2612 C 259.631 -1.1701 -1.97082 0
M  V30 2613 C 260.631 -0.10089 -1.60483 0
M  V30 2614 O 261.821 -0.349127 -1.70666 0
M  V30 2615 C 258.953 -0.793045 -3.31547 0
M  V30 2616 H 260.146 -2.13622 -2.10489 0
M  V30 2617 H 257.699 -1.13935 -1.06998 0
M  V30 2618 H 258.434 0.172499 -3.23841 0
M  V30 2619 H 258.219 -1.56576 -3.5948 0
M  V30 2620 H 259.709 -0.722073 -4.1131 0
M  V30 2621 N 260.146 1.09593 -1.13257 0
M  V30 2622 C 261.392 1.82003 -0.89458 0
M  V30 2623 C 261.725 1.85402 0.577906 0
M  V30 2624 O 261 1.32099 1.42759 0
M  V30 2625 C 261.283 3.28237 -1.48096 0
M  V30 2626 C 261.136 3.3312 -3.02244 0
M  V30 2627 C 262.455 4.24871 -1.14774 0
M  V30 2628 H 259.574 0.66077 -0.326424 0
M  V30 2629 H 262.216 1.28389 -1.40058 0
M  V30 2630 H 260.366 3.74024 -1.05062 0
M  V30 2631 H 262.038 2.95748 -3.54021 0
M  V30 2632 H 260.281 2.72756 -3.37323 0
M  V30 2633 H 260.952 4.3613 -3.38371 0
M  V30 2634 H 263.428 3.87361 -1.51957 0
M  V30 2635 H 262.304 5.25532 -1.58452 0
M  V30 2636 H 262.565 4.42058 -0.0611849 0
M  V30 2637 N 261.624 0.925811 1.2754 0
M  V30 2638 C 262.554 0.440748 2.29303 0
M  V30 2639 C 263.535 -0.497971 1.62648 0
M  V30 2640 O 264.72 -0.403126 1.8997 0
M  V30 2641 C 261.85 -0.309048 3.45922 0
M  V30 2642 C 260.804 0.54166 4.24559 0
M  V30 2643 C 260.13 -0.337191 5.33636 0
M  V30 2644 C 261.43 1.80516 4.90114 0
M  V30 2645 H 263.124 1.29121 2.70126 0
M  V30 2646 H 260.67 0.622323 1.29858 0
M  V30 2647 H 262.623 -0.659315 4.1621 0
M  V30 2648 H 261.347 -1.19352 3.04011 0
M  V30 2649 H 260.006 0.874609 3.56014 0
M  V30 2650 H 259.654 -1.22056 4.87966 0
M  V30 2651 H 259.354 0.228497 5.87156 0
M  V30 2652 H 260.878 -0.683072 6.06767 0
M  V30 2653 H 262.292 1.52307 5.52698 0
M  V30 2654 H 260.689 2.3142 5.53683 0
M  V30 2655 H 261.759 2.52581 4.13921 0
M  V30 2656 N 263.102 -1.41638 0.69111 0
M  V30 2657 C 264.034 -2.29194 -0.0161523 0
M  V30 2658 C 265.047 -1.44549 -0.748955 0
M  V30 2659 O 266.236 -1.681 -0.6004 0
M  V30 2660 C 263.336 -3.22325 -1.0469 0
M  V30 2661 C 262.509 -4.35706 -0.384621 0
M  V30 2662 C 261.568 -5.09443 -1.31737 0
M  V30 2663 O 260.594 -5.63386 -0.811451 0
M  V30 2664 N 261.796 -5.16487 -2.64993 0
M  V30 2665 H 264.561 -2.90534 0.735523 0
M  V30 2666 H 262.122 -1.52742 0.53679 0
M  V30 2667 H 264.114 -3.68522 -1.67252 0
M  V30 2668 H 262.684 -2.62323 -1.70015 0
M  V30 2669 H 261.904 -3.91948 0.420804 0
M  V30 2670 H 263.192 -5.08743 0.0760765 0
M  V30 2671 H 262.59 -4.741 -3.08619 0
M  V30 2672 H 261.147 -5.66276 -3.22761 0
M  V30 2673 N 264.58 -0.43555 -1.51462 0
M  V30 2674 C 265.805 0.132627 -2.06976 0
M  V30 2675 C 266.23 1.35848 -1.30104 0
M  V30 2676 O 265.588 1.78112 -0.338493 0
M  V30 2677 C 265.636 0.43523 -3.57964 0
M  V30 2678 O 264.74 1.52198 -3.83288 0
M  V30 2679 H 264.081 0.00265 -0.663995 0
M  V30 2680 H 266.611 -0.616369 -1.95095 0
M  V30 2681 H 266.621 0.686206 -4.02188 0
M  V30 2682 H 265.296 -0.460739 -4.1334 0
M  V30 2683 H 263.873 1.2611 -3.50928 0
M  V30 2684 N 266.058 1.56714 -0.166846 0
M  V30 2685 C 267.283 2.01557 0.488833 0
M  V30 2686 C 267.708 1.0463 1.56314 0
M  V30 2687 O 267.066 0.0251304 1.81283 0
M  V30 2688 C 267.114 3.4503 1.04818 0
M  V30 2689 O 266.218 3.51163 2.16236 0
M  V30 2690 H 265.559 0.653516 0.117526 0
M  V30 2691 H 268.089 2.02818 -0.269421 0
M  V30 2692 H 268.099 3.84243 1.37191 0
M  V30 2693 H 266.774 4.15077 0.261572 0
M  V30 2694 H 265.351 3.23807 1.84942 0
M  V30 2695 N 267.536 -0.106894 1.57237 0
M  V30 2696 C 268.784 -0.810921 1.85117 0
M  V30 2697 C 269.105 -1.7984 0.753827 0
M  V30 2698 O 268.375 -1.94649 -0.221056 0
M  V30 2699 H 266.955 -0.302466 0.683025 0
M  V30 2700 H 269.617 -0.0913324 1.94686 0
M  V30 2701 H 268.713 -1.34875 2.81452 0
M  V30 2702 N 269.014 -1.53014 -0.377408 0
M  V30 2703 C 269.944 -1.81589 -1.46791 0
M  V30 2704 C 270.925 -0.668622 -1.56408 0
M  V30 2705 O 272.11 -0.917337 -1.71168 0
M  V30 2706 C 269.24 -1.99519 -2.8427 0
M  V30 2707 C 268.194 -3.15249 -2.89486 0
M  V30 2708 C 267.52 -3.18451 -4.29527 0
M  V30 2709 C 268.82 -4.54084 -2.58079 0
M  V30 2710 H 270.514 -2.7291 -1.23127 0
M  V30 2711 H 268.06 -1.31319 -0.590883 0
M  V30 2712 H 270.013 -2.18092 -3.60575 0
M  V30 2713 H 268.737 -1.04897 -3.09296 0
M  V30 2714 H 267.396 -2.96477 -2.15631 0
M  V30 2715 H 267.044 -2.2149 -4.5161 0
M  V30 2716 H 266.744 -3.962 -4.33934 0
M  V30 2717 H 268.268 -3.39193 -5.07721 0
M  V30 2718 H 269.682 -4.72899 -3.24098 0
M  V30 2719 H 268.079 -5.33987 -2.7382 0
M  V30 2720 H 269.149 -4.60006 -1.53372 0
M  V30 2721 N 270.492 0.636531 -1.44174 0
M  V30 2722 C 271.722 1.42146 -1.49927 0
M  V30 2723 C 272.13 1.88812 -0.121063 0
M  V30 2724 O 271.473 1.61126 0.882267 0
M  V30 2725 C 271.535 2.67883 -2.39748 0
M  V30 2726 C 271.199 2.43048 -3.8701 0
M  V30 2727 C 272.196 2.05216 -4.77684 0
M  V30 2728 C 269.881 2.56856 -4.3166 0
M  V30 2729 C 271.875 1.81512 -6.11009 0
M  V30 2730 C 269.562 2.32766 -5.65034 0
M  V30 2731 C 270.56 1.95152 -6.54526 0
M  V30 2732 O 270.248 1.71326 -7.85431 0
M  V30 2733 H 269.98 0.442567 -0.51099 0
M  V30 2734 H 272.534 0.786158 -1.8976 0
M  V30 2735 H 270.764 3.34032 -1.94832 0
M  V30 2736 H 272.453 3.29874 -2.36513 0
M  V30 2737 H 273.219 1.94111 -4.44462 0
M  V30 2738 H 269.098 2.85104 -3.62266 0
M  V30 2739 H 272.642 1.52077 -6.80822 0
M  V30 2740 H 268.539 2.43479 -5.97819 0
M  V30 2741 H 269.307 1.85616 -7.97176 0
M  V30 2742 N 271.97 1.30982 0.876444 0
M  V30 2743 C 273.195 1.23373 1.66715 0
M  V30 2744 C 273.62 -0.19885 1.87046 0
M  V30 2745 O 272.978 -1.1427 1.40756 0
M  V30 2746 C 273.026 1.97644 3.01611 0
M  V30 2747 O 272.13 1.30935 3.91062 0
M  V30 2748 H 271.471 0.426279 0.509099 0
M  V30 2749 H 274.001 1.72944 1.09323 0
M  V30 2750 H 274.011 2.06992 3.51594 0
M  V30 2751 H 272.686 3.01829 2.86133 0
M  V30 2752 H 271.263 1.29996 3.49507 0
M  V30 2753 N 273.449 -1.08991 1.13837 0
M  V30 2754 C 274.379 -2.17771 0.842507 0
M  V30 2755 C 275.36 -1.6892 -0.20001 0
M  V30 2756 O 276.545 -1.94113 -0.0579731 0
M  V30 2757 C 273.675 -3.4589 0.312644 0
M  V30 2758 C 272.629 -4.08099 1.28992 0
M  V30 2759 C 271.955 -5.31098 0.619623 0
M  V30 2760 C 273.255 -4.50077 2.65005 0
M  V30 2761 H 274.949 -2.42777 1.75213 0
M  V30 2762 H 272.495 -1.16682 0.843875 0
M  V30 2763 H 274.448 -4.21297 0.0933043 0
M  V30 2764 H 273.172 -3.20419 -0.632382 0
M  V30 2765 H 271.831 -3.34717 1.49533 0
M  V30 2766 H 271.479 -5.0191 -0.33102 0
M  V30 2767 H 271.179 -5.73674 1.27167 0
M  V30 2768 H 272.703 -6.09224 0.409669 0
M  V30 2769 H 274.117 -5.16688 2.48407 0
M  V30 2770 H 272.514 -5.03553 3.26427 0
M  V30 2771 H 273.584 -3.62257 3.22332 0
M  V30 2772 N 274.927 -0.932562 -1.27047 0
M  V30 2773 C 276.152 -0.591474 -1.98787 0
M  V30 2774 C 276.577 0.824601 -1.69062 0
M  V30 2775 O 275.935 1.5541 -0.933677 0
M  V30 2776 C 275.983 -0.829808 -3.50922 0
M  V30 2777 O 275.087 0.102266 -4.12273 0
M  V30 2778 H 274.428 -0.227185 -0.623926 0
M  V30 2779 H 276.958 -1.25314 -1.61733 0
M  V30 2780 H 276.968 -0.747292 -4.01098 0
M  V30 2781 H 275.643 -1.86201 -3.7189 0
M  V30 2782 H 274.22 -0.0305761 -3.72887 0
M  V30 2783 N 276.405 1.4127 -0.698611 0
M  V30 2784 C 277.63 2.06024 -0.238512 0
M  V30 2785 C 278.055 1.5224 1.10475 0
M  V30 2786 O 277.413 0.650623 1.69223 0
M  V30 2787 C 277.461 3.59988 -0.209952 0
M  V30 2788 O 276.565 4.04282 0.814235 0
M  V30 2789 H 275.906 0.653829 -0.115775 0
M  V30 2790 H 278.436 1.8098 -0.954326 0
M  V30 2791 H 278.446 4.07979 -0.0418436 0
M  V30 2792 H 277.121 3.98503 -1.1903 0
M  V30 2793 H 275.698 3.6779 0.615234 0
M  V30 2794 N 277.883 0.443576 1.51229 0
M  V30 2795 C 279.129 -0.120975 2.02439 0
M  V30 2796 C 279.462 -1.41815 1.32674 0
M  V30 2797 O 278.737 -1.89373 0.443622 0
M  V30 2798 C 279.02 -0.333291 3.58554 0
M  V30 2799 C 278.873 0.982968 4.38928 0
M  V30 2800 C 280.192 -1.10028 4.26124 0
M  V30 2801 H 277.311 -0.0424923 0.735774 0
M  V30 2802 H 279.953 0.583794 1.80809 0
M  V30 2803 H 278.103 -0.933614 3.77115 0
M  V30 2804 H 279.775 1.61775 4.32003 0
M  V30 2805 H 278.018 1.58611 4.03763 0
M  V30 2806 H 278.689 0.788379 5.46341 0
M  V30 2807 H 281.165 -0.591711 4.11871 0
M  V30 2808 H 280.041 -1.21761 5.35225 0
M  V30 2809 H 280.302 -2.12996 3.87408 0
M  V30 2810 N 279.361 -1.56624 0.175154 0
M  V30 2811 C 280.607 -1.9729 -0.469506 0
M  V30 2812 C 280.94 -1.06128 -1.62636 0
M  V30 2813 O 280.215 -0.109183 -1.94193 0
M  V30 2814 C 280.498 -3.47375 -0.948804 0
M  V30 2815 C 280.351 -4.49317 0.208491 0
M  V30 2816 C 281.67 -4.00652 -1.82116 0
M  V30 2817 H 278.789 -0.717317 -0.16919 0
M  V30 2818 H 281.431 -1.88184 0.262062 0
M  V30 2819 H 279.581 -3.55267 -1.57219 0
M  V30 2820 H 281.253 -4.53482 0.845682 0
M  V30 2821 H 279.496 -4.25121 0.863395 0
M  V30 2822 H 280.167 -5.51741 -0.169059 0
M  V30 2823 H 282.643 -3.95416 -1.2956 0
M  V30 2824 H 281.519 -5.06075 -2.12554 0
M  V30 2825 H 281.78 -3.44699 -2.7683 0
M  V30 2826 N 280.839 0.0985539 -1.57292 0
M  V30 2827 C 282.067 0.816318 -1.90115 0
M  V30 2828 C 282.482 1.72451 -0.768509 0
M  V30 2829 O 281.839 1.80643 0.259687 0
M  V30 2830 C 281.89 1.63259 -3.22535 0
M  V30 2831 O 281.611 0.760934 -4.31441 0
M  V30 2832 C 283.112 2.45372 -3.69199 0
M  V30 2833 H 280.332 0.233595 -0.629027 0
M  V30 2834 H 282.876 0.0768229 -2.04356 0
M  V30 2835 H 281.031 2.32463 -3.09903 0
M  V30 2836 H 281.445 1.32595 -5.07463 0
M  V30 2837 H 282.919 2.98144 -4.64558 0
M  V30 2838 H 283.396 3.23677 -2.96867 0
M  V30 2839 H 284.002 1.81373 -3.84687 0
M  V30 2840 N 282.317 1.53212 0.369288 0
M  V30 2841 C 283.563 1.69466 1.11397 0
M  V30 2842 C 283.896 0.443257 1.89074 0
M  V30 2843 O 283.171 -0.559386 1.86282 0
M  V30 2844 C 283.454 2.9422 2.07621 0
M  V30 2845 C 283.307 4.29508 1.33577 0
M  V30 2846 C 284.626 3.14565 3.07794 0
M  V30 2847 H 281.745 0.616667 0.403597 0
M  V30 2848 H 284.387 1.85845 0.395179 0
M  V30 2849 H 282.537 2.80387 2.68916 0
M  V30 2850 H 284.209 4.55147 0.750955 0
M  V30 2851 H 282.452 4.29088 0.637618 0
M  V30 2852 H 283.123 5.12926 2.03989 0
M  V30 2853 H 285.599 3.2756 2.56601 0
M  V30 2854 H 284.475 4.03297 3.72348 0
M  V30 2855 H 284.736 2.29675 3.77759 0
M  V30 2856 N 283.795 -0.628877 1.44509 0
M  V30 2857 C 285.206 -1.21054 1.42137 0
M  V30 2858 C 285.557 -1.95715 0.137881 0
M  V30 2859 O 284.682 -2.02554 -0.761645 0
M  V30 2860 C 285.277 -2.20189 2.57493 0
M  V30 2861 C 283.836 -2.73777 2.58308 0
M  V30 2862 C 282.983 -1.48813 2.33987 0
M  V30 2863 H 285.934 -0.41942 1.53057 0
M  V30 2864 H 285.955 -3.02833 2.30375 0
M  V30 2865 H 285.467 -1.6582 3.50892 0
M  V30 2866 H 283.568 -3.32142 1.68856 0
M  V30 2867 H 283.681 -3.19662 3.56865 0
M  V30 2868 H 282.045 -1.77024 1.83124 0
M  V30 2869 H 282.828 -0.963442 3.29504 0
M  V30 2870 N 285.273 -1.31445 -0.869486 0
M  V30 2871 C 286.498 -1.24256 -1.66058 0
M  V30 2872 C 286.923 0.188928 -1.87149 0
M  V30 2873 O 286.281 1.13522 -1.4136 0
M  V30 2874 C 286.329 -1.9924 -3.00559 0
M  V30 2875 O 285.433 -1.33007 -3.90362 0
M  V30 2876 H 284.774 -0.428973 -0.506831 0
M  V30 2877 H 287.304 -1.73521 -1.08404 0
M  V30 2878 H 287.314 -2.08854 -3.50491 0
M  V30 2879 H 285.989 -3.03342 -2.84528 0
M  V30 2880 H 284.566 -1.31848 -3.48813 0
M  V30 2881 N 286.751 1.08385 -1.14413 0
M  V30 2882 C 287.976 1.85057 -0.936413 0
M  V30 2883 C 288.401 1.81055 0.509971 0
M  V30 2884 O 287.759 1.1958 1.36273 0
M  V30 2885 C 287.807 3.30505 -1.44217 0
M  V30 2886 O 286.911 4.07491 -0.634409 0
M  V30 2887 H 286.252 0.573425 -0.334784 0
M  V30 2888 H 288.782 1.36799 -1.52142 0
M  V30 2889 H 288.792 3.81348 -1.45043 0
M  V30 2890 H 287.467 3.32734 -2.49522 0
M  V30 2891 H 286.044 3.66368 -0.694902 0
M  V30 2892 N 288.23 0.939286 1.26551 0
M  V30 2893 C 289.455 0.602008 1.98471 0
M  V30 2894 C 289.88 -0.815624 1.69497 0
M  V30 2895 O 289.238 -1.54912 0.941905 0
M  V30 2896 C 289.286 0.848407 3.50477 0
M  V30 2897 O 288.39 -0.0804009 4.12322 0
M  V30 2898 H 287.731 0.23049 0.622712 0
M  V30 2899 H 290.261 1.2617 1.61066 0
M  V30 2900 H 290.271 0.768553 4.00696 0
M  V30 2901 H 288.946 1.88171 3.70897 0
M  V30 2902 H 287.523 0.0503508 3.72866 0
M  V30 2903 N 289.708 -1.40897 0.706093 0
M  V30 2904 C 290.638 -2.33418 0.0620085 0
M  V30 2905 C 291.619 -1.52385 -0.755827 0
M  V30 2906 O 292.804 -1.80886 -0.706674 0
M  V30 2907 C 289.934 -3.36293 -0.867445 0
M  V30 2908 C 288.888 -4.27716 -0.155932 0
M  V30 2909 C 288.214 -5.2105 -1.20046 0
M  V30 2910 C 289.514 -5.12944 0.984149 0
M  V30 2911 H 291.208 -2.87527 0.83477 0
M  V30 2912 H 288.754 -1.38249 0.402875 0
M  V30 2913 H 290.707 -3.99949 -1.32735 0
M  V30 2914 H 289.431 -2.80556 -1.67199 0
M  V30 2915 H 288.09 -3.65498 0.284047 0
M  V30 2916 H 287.738 -4.61624 -1.99781 0
M  V30 2917 H 287.438 -5.83056 -0.729328 0
M  V30 2918 H 288.962 -5.87584 -1.66066 0
M  V30 2919 H 290.376 -5.70109 0.604048 0
M  V30 2920 H 288.773 -5.83945 1.38304 0
M  V30 2921 H 289.843 -4.49485 1.81911 0
M  V30 2922 N 291.186 -0.45159 -1.50991 0
M  V30 2923 C 292.434 0.109857 -2.01801 0
M  V30 2924 C 292.755 1.41958 -1.3369 0
M  V30 2925 O 292.025 1.9003 -0.475951 0
M  V30 2926 H 290.605 0.0435884 -0.745727 0
M  V30 2927 H 293.267 -0.597557 -1.85514 0
M  V30 2928 H 292.363 0.275489 -3.10882 0
M  V30 2929 N 292.664 1.56529 -0.183458 0
M  V30 2930 C 293.892 2.01623 0.464285 0
M  V30 2931 C 294.307 1.06366 1.55986 0
M  V30 2932 O 293.664 0.0665398 1.82379 0
M  V30 2933 C 293.715 3.46475 1.03139 0
M  V30 2934 O 293.436 4.38095 -0.0204675 0
M  V30 2935 C 294.937 4.0703 1.75617 0
M  V30 2936 H 292.157 0.660596 0.117704 0
M  V30 2937 H 294.701 2.02451 -0.288751 0
M  V30 2938 H 292.856 3.46383 1.73486 0
M  V30 2939 H 293.27 5.22973 0.399952 0
M  V30 2940 H 294.744 5.10271 2.10542 0
M  V30 2941 H 295.221 3.49819 2.65563 0
M  V30 2942 H 295.827 4.1086 1.09882 0
M  V30 2943 N 294.142 -0.090211 1.57342 0
M  V30 2944 C 295.074 -1.13541 1.99101 0
M  V30 2945 C 296.087 -1.3604 0.894258 0
M  V30 2946 O 297.276 -1.34606 1.17233 0
M  V30 2947 C 294.376 -2.49001 2.29895 0
M  V30 2948 C 293.549 -2.46712 3.61182 0
M  V30 2949 C 292.608 -3.64136 3.79857 0
M  V30 2950 O 291.634 -3.46405 4.51655 0
M  V30 2951 N 292.836 -4.83802 3.20806 0
M  V30 2952 H 295.601 -0.779942 2.89373 0
M  V30 2953 H 293.162 -0.279125 1.59476 0
M  V30 2954 H 295.154 -3.26166 2.39578 0
M  V30 2955 H 293.724 -2.76619 1.45605 0
M  V30 2956 H 292.944 -1.55058 3.62423 0
M  V30 2957 H 294.232 -2.42265 4.4742 0
M  V30 2958 H 293.63 -5.01112 2.62494 0
M  V30 2959 H 292.187 -5.58543 3.35966 0
M  V30 2960 N 295.62 -1.53406 -0.361157 0
M  V30 2961 C 296.848 -1.73717 -1.12383 0
M  V30 2962 C 297.263 -0.468161 -1.82904 0
M  V30 2963 O 296.62 0.559198 -1.73722 0
M  V30 2964 C 296.671 -2.90558 -2.15078 0
M  V30 2965 O 296.392 -4.12549 -1.47428 0
M  V30 2966 C 297.893 -3.22777 -3.03858 0
M  V30 2967 H 295.113 -0.580896 -0.335858 0
M  V30 2968 H 297.657 -2.00167 -0.418728 0
M  V30 2969 H 295.812 -2.66489 -2.8118 0
M  V30 2970 H 296.226 -4.78009 -2.15887 0
M  V30 2971 H 297.7 -4.07927 -3.71887 0
M  V30 2972 H 298.177 -2.38329 -3.68912 0
M  V30 2973 H 298.783 -3.48787 -2.43367 0
M  V30 2974 N 297.098 0.621204 -1.44841 0
M  V30 2975 C 298.328 1.40548 -1.51426 0
M  V30 2976 C 298.736 1.88673 -0.141083 0
M  V30 2977 O 298.079 1.62053 0.865128 0
M  V30 2978 C 298.141 2.65325 -2.42576 0
M  V30 2979 C 297.805 2.3893 -3.89566 0
M  V30 2980 C 298.802 2.00138 -4.79834 0
M  V30 2981 C 296.487 2.52263 -4.3436 0
M  V30 2982 C 298.481 1.75021 -6.129 0
M  V30 2983 C 296.168 2.2676 -5.67471 0
M  V30 2984 C 297.166 1.88199 -6.56559 0
M  V30 2985 O 296.854 1.62986 -7.87204 0
M  V30 2986 H 296.586 0.437122 -0.515655 0
M  V30 2987 H 299.14 0.765987 -1.90583 0
M  V30 2988 H 297.37 3.31947 -1.98364 0
M  V30 2989 H 299.059 3.27347 -2.39998 0
M  V30 2990 H 299.825 1.89386 -4.46495 0
M  V30 2991 H 295.704 2.81246 -3.65269 0
M  V30 2992 H 299.248 1.44848 -6.82396 0
M  V30 2993 H 295.145 2.37125 -6.00368 0
M  V30 2994 H 295.913 1.7715 -7.991 0
M  V30 2995 N 298.576 1.31904 0.862503 0
M  V30 2996 C 299.825 1.21373 1.61094 0
M  V30 2997 C 300.138 -0.22504 1.94301 0
M  V30 2998 O 301.344 -0.452121 2.67709 0
M  V30 2999 C 299.8 2.12525 2.9045 0
M  V30 3000 C 299.408 3.61441 2.64697 0
M  V30 3001 C 301.152 2.10813 3.68454 0
M  V30 3002 C 299.059 4.44578 3.90006 0
M  V30 3003 H 297.989 0.450705 0.604468 0
M  V30 3004 H 300.64 1.56811 0.953027 0
M  V30 3005 H 299.022 1.69994 3.57656 0
M  V30 3006 H 300.196 4.12264 2.05851 0
M  V30 3007 H 298.511 3.65205 2.00036 0
M  V30 3008 H 301.108 2.70167 4.61426 0
M  V30 3009 H 301.451 1.09713 4.01583 0
M  V30 3010 H 301.984 2.51583 3.08141 0
M  V30 3011 H 298.723 5.46461 3.62023 0
M  V30 3012 H 298.243 3.98508 4.48276 0
M  V30 3013 H 299.922 4.57176 4.5782 0
M  V30 3014 N 300.054 -1.07777 1.14986 0
M  V30 3015 C 301.294 -1.81888 0.932527 0
M  V30 3016 C 301.658 -1.84509 -0.531064 0
M  V30 3017 O 302.859 -2.54448 -0.866577 0
M  V30 3018 C 301.13 -3.23244 1.52473 0
M  V30 3019 S 302.689 -4.14154 1.44989 0
M  V30 3020 H 299.507 -0.626752 0.335712 0
M  V30 3021 H 302.109 -1.29503 1.46455 0
M  V30 3022 H 300.813 -3.18922 2.58296 0
M  V30 3023 H 300.344 -3.80704 0.991381 0
M  V30 3024 H 302.359 -4.94247 0.439799 0
M  V30 3025 N 301.532 -0.945985 -1.26051 0
M  V30 3026 C 302.48 -0.450259 -2.282 0
M  V30 3027 C 303.474 0.47497 -1.62605 0
M  V30 3028 O 304.68 0.352653 -1.76512 0
M  V30 3029 H 301.055 -0.127081 -0.741184 0
M  V30 3030 H 303.026 -1.32422 -2.67408 0
M  V30 3031 C 301.775 0.26467 -3.46691 0
M  V30 3032 H 301.098 -0.438123 -3.97392 0
M  V30 3033 H 302.538 0.575678 -4.20074 0
M  V30 3034 C 300.997 1.48416 -3.02447 0
M  V30 3035 O 301.527 2.58227 -3.07704 0
M  V30 3036 N 299.733 1.34243 -2.57735 0
M  V30 3037 H 299.28 0.448994 -2.53657 0
M  V30 3038 H 299.238 2.15957 -2.28495 0
M  V30 3039 N 303.011 1.40521 -0.713556 0
M  V30 3040 C 304.257 2.01221 -0.252564 0
M  V30 3041 C 304.59 1.56444 1.1506 0
M  V30 3042 O 303.865 0.783597 1.78017 0
M  V30 3043 C 304.148 3.58582 -0.330332 0
M  V30 3044 C 304.001 4.13437 -1.77173 0
M  V30 3045 C 305.32 4.39079 0.299641 0
M  V30 3046 H 302.439 0.731077 -0.0932471 0
M  V30 3047 H 305.081 1.67026 -0.905673 0
M  V30 3048 H 303.231 3.87844 0.225737 0
M  V30 3049 H 304.903 3.9498 -2.38303 0
M  V30 3050 H 303.146 3.67801 -2.3001 0
M  V30 3051 H 303.817 5.22597 -1.77755 0
M  V30 3052 H 306.293 4.15735 -0.174139 0
M  V30 3053 H 305.169 5.4848 0.214771 0
M  V30 3054 H 305.43 4.19915 1.38288 0
M  V30 3055 N 304.489 0.459591 1.5075 0
M  V30 3056 C 305.437 -0.354678 2.2988 0
M  V30 3057 C 306.431 -1.00086 1.36672 0
M  V30 3058 O 307.637 -0.933277 1.53915 0
M  V30 3059 H 304.012 -0.13321 0.740107 0
M  V30 3060 H 305.983 0.333269 2.96533 0
M  V30 3061 C 304.732 -1.43073 3.169 0
M  V30 3062 H 304.055 -0.942882 3.88523 0
M  V30 3063 H 305.495 -1.97328 3.75284 0
M  V30 3064 C 303.954 -2.42633 2.33732 0
M  V30 3065 O 304.484 -3.47658 2.01238 0
M  V30 3066 N 302.69 -2.14066 1.9653 0
M  V30 3067 H 302.237 -1.28685 2.23155 0
M  V30 3068 H 302.195 -2.80917 1.41185 0
M  V30 3069 N 305.967 -1.56429 0.191757 0
M  V30 3070 C 306.917 -2.15548 -0.743184 0
M  V30 3071 C 307.901 -1.09531 -1.17863 0
M  V30 3072 O 309.093 -1.35602 -1.13759 0
M  V30 3073 C 306.222 -2.81577 -1.96391 0
M  V30 3074 C 305.308 -3.9478 -1.54951 0
M  V30 3075 N 305.699 -4.98677 -0.845876 0
M  V30 3076 C 303.997 -4.06319 -1.83905 0
M  V30 3077 C 304.698 -5.78183 -0.638724 0
M  V30 3078 N 303.674 -5.30495 -1.18643 0
M  V30 3079 H 307.476 -2.9324 -0.196839 0
M  V30 3080 H 304.99 -1.62398 -0.0081603 0
M  V30 3081 H 306.987 -3.22321 -2.64415 0
M  V30 3082 H 305.647 -2.05371 -2.51501 0
M  V30 3083 H 306.658 -5.15464 -0.501704 0
M  V30 3084 H 303.335 -3.41238 -2.40548 0
M  V30 3085 H 304.725 -6.71851 -0.0807929 0
M  V30 3086 N 307.445 0.0818655 -1.57387 0
M  V30 3087 C 308.392 1.09834 -2.0299 0
M  V30 3088 C 309.362 1.39043 -0.908639 0
M  V30 3089 O 310.547 1.50282 -1.17559 0
M  V30 3090 C 307.687 2.40971 -2.47037 0
M  V30 3091 C 306.8 2.18379 -3.7274 0
M  V30 3092 C 305.935 3.43008 -4.0561 0
M  V30 3093 C 304.974 3.15736 -5.24383 0
M  V30 3094 N 304.111 4.32667 -5.52941 0
M  V30 3095 H 308.951 0.702472 -2.89602 0
M  V30 3096 H 306.488 0.33531 -1.43227 0
M  V30 3097 H 308.446 3.1752 -2.70623 0
M  V30 3098 H 307.076 2.78379 -1.63417 0
M  V30 3099 H 306.128 1.32569 -3.56552 0
M  V30 3100 H 307.44 1.94227 -4.59431 0
M  V30 3101 H 306.594 4.27958 -4.30043 0
M  V30 3102 H 305.333 3.70225 -3.17466 0
M  V30 3103 H 304.338 2.2918 -4.99757 0
M  V30 3104 H 305.563 2.8985 -6.14136 0
M  V30 3105 H 303.509 4.59935 -4.67756 0
M  V30 3106 H 303.426 4.11753 -6.34031 0
M  V30 3107 H 304.694 5.18644 -5.81918 0
M  V30 3108 N 308.923 1.53595 0.353017 0
M  V30 3109 C 310.334 1.61937 0.929153 0
M  V30 3110 C 310.685 0.494686 1.89861 0
M  V30 3111 O 309.81 -0.377017 2.1309 0
M  V30 3112 C 310.405 2.93526 1.69199 0
M  V30 3113 C 308.964 3.04161 2.21727 0
M  V30 3114 C 308.111 2.57322 1.03348 0
M  V30 3115 H 311.062 1.58155 0.131431 0
M  V30 3116 H 311.083 2.82034 2.55416 0
M  V30 3117 H 310.595 3.75362 0.986144 0
M  V30 3118 H 308.696 2.26938 2.95516 0
M  V30 3119 H 308.809 4.09465 2.48748 0
M  V30 3120 H 307.173 2.12499 1.40414 0
M  V30 3121 H 307.956 3.41588 0.342428 0
M  V30 3122 N 310.401 -0.613514 1.45168 0
M  V30 3123 C 311.626 -1.40437 1.52618 0
M  V30 3124 C 312.051 -1.87438 0.157707 0
M  V30 3125 O 311.409 -1.59791 -0.856537 0
M  V30 3126 C 311.457 -2.58894 2.51011 0
M  V30 3127 O 310.561 -3.59326 2.02382 0
M  V30 3128 H 309.902 -0.419506 0.514695 0
M  V30 3129 H 312.432 -0.747215 1.90467 0
M  V30 3130 H 312.442 -3.06214 2.69624 0
M  V30 3131 H 311.117 -2.24032 3.50403 0
M  V30 3132 H 309.694 -3.18695 1.93618 0
M  V30 3133 N 311.879 -1.3236 -0.855495 0
M  V30 3134 C 312.827 -1.2118 -1.9854 0
M  V30 3135 C 313.821 -0.116788 -1.68997 0
M  V30 3136 O 315.027 -0.279657 -1.77814 0
M  V30 3137 H 311.402 -0.375608 -0.651477 0
M  V30 3138 H 313.373 -2.16743 -2.05098 0
M  V30 3139 C 312.122 -0.950849 -3.34446 0
M  V30 3140 H 311.445 -1.78563 -3.57708 0
M  V30 3141 H 312.885 -0.912863 -4.14057 0
M  V30 3142 C 311.344 0.346404 -3.35114 0
M  V30 3143 O 311.874 1.35855 -3.7803 0
M  V30 3144 N 310.08 0.36808 -2.88259 0
M  V30 3145 H 309.627 -0.456102 -2.5353 0
M  V30 3146 H 309.585 1.23591 -2.89089 0
M  V30 3147 N 313.357 1.07166 -1.15556 0
M  V30 3148 C 314.585 1.83514 -0.955519 0
M  V30 3149 C 315 1.82163 0.49621 0
M  V30 3150 O 314.357 1.23441 1.34419 0
M  V30 3151 C 314.408 3.30515 -1.46432 0
M  V30 3152 O 314.129 3.31937 -2.85918 0
M  V30 3153 C 315.63 4.23625 -1.30603 0
M  V30 3154 H 312.85 0.578926 -0.339244 0
M  V30 3155 H 315.394 1.35265 -1.53374 0
M  V30 3156 H 313.549 3.76106 -0.928584 0
M  V30 3157 H 313.963 4.23794 -3.09029 0
M  V30 3158 H 315.437 5.24831 -1.71047 0
M  V30 3159 H 315.914 4.38485 -0.250441 0
M  V30 3160 H 316.52 3.83871 -1.83094 0
M  V30 3161 N 314.835 0.952656 1.25548 0
M  V30 3162 C 315.782 0.47008 2.25962 0
M  V30 3163 C 316.752 -0.476384 1.59122 0
M  V30 3164 O 317.937 -0.39007 1.8677 0
M  V30 3165 C 315.077 -0.247881 3.44209 0
M  V30 3166 C 314.19 0.735591 4.25691 0
M  V30 3167 C 313.325 -0.0047306 5.312 0
M  V30 3168 C 312.364 0.969805 6.04368 0
M  V30 3169 N 311.501 0.260486 7.01617 0
M  V30 3170 H 316.341 1.33126 2.66611 0
M  V30 3171 H 313.878 0.66765 1.31076 0
M  V30 3172 H 315.836 -0.680695 4.1161 0
M  V30 3173 H 314.466 -1.07312 3.0444 0
M  V30 3174 H 313.518 1.28689 3.57971 0
M  V30 3175 H 314.83 1.47934 4.76358 0
M  V30 3176 H 313.984 -0.496275 6.04667 0
M  V30 3177 H 312.723 -0.781282 4.81401 0
M  V30 3178 H 311.728 1.47237 5.29718 0
M  V30 3179 H 312.953 1.74655 6.56256 0
M  V30 3180 H 310.899 -0.497364 6.54112 0
M  V30 3181 H 310.816 0.943362 7.50091 0
M  V30 3182 H 312.084 -0.209587 7.79218 0
M  V30 3183 N 316.313 -1.40141 0.720998 0
M  V30 3184 C 317.559 -2.01084 0.263231 0
M  V30 3185 C 317.892 -1.57052 -1.14229 0
M  V30 3186 O 317.167 -0.793027 -1.77599 0
M  V30 3187 C 317.45 -3.58401 0.349344 0
M  V30 3188 C 317.303 -4.12491 1.79363 0
M  V30 3189 C 318.622 -4.39231 -0.276351 0
M  V30 3190 H 315.741 -0.730572 0.0971228 0
M  V30 3191 H 318.383 -1.66543 0.914518 0
M  V30 3192 H 316.533 -3.87958 -0.205165 0
M  V30 3193 H 318.205 -3.93711 2.40394 0
M  V30 3194 H 316.448 -3.66576 2.31958 0
M  V30 3195 H 317.119 -5.21646 1.80524 0
M  V30 3196 H 319.595 -4.15637 0.196184 0
M  V30 3197 H 318.471 -5.48586 -0.185681 0
M  V30 3198 H 318.732 -4.20643 -1.36059 0
M  V30 3199 N 317.792 -0.46758 -1.50504 0
M  V30 3200 C 319.069 0.15003 -1.95024 0
M  V30 3201 C 319.449 1.57304 -1.40779 0
M  V30 3202 O 318.797 2.20281 -0.607319 0
M  V30 3203 C 319.007 0.0969324 -3.48865 0
M  V30 3204 C 320.355 0.287565 -4.23625 0
M  V30 3205 O 321.379 0.173678 -3.55776 0
M  V30 3206 O 320.238 0.517186 -5.44047 0
M  V30 3207 H 317.332 0.113582 -0.819163 0
M  V30 3208 H 319.878 -0.52773 -1.61286 0
M  V30 3209 H 318.65 -0.896732 -3.80886 0
M  V30 3210 H 318.273 0.816303 -3.8913 0
M  V30 3211 N 319.27 1.56325 -0.20005 0
M  V30 3212 C 320.217 2.1932 0.718833 0
M  V30 3213 C 321.187 1.14198 1.20615 0
M  V30 3214 O 322.372 1.42469 1.26914 0
M  V30 3215 C 319.512 2.86041 1.93066 0
M  V30 3216 C 318.625 4.05702 1.48425 0
M  V30 3217 C 317.76 4.60266 2.65196 0
M  V30 3218 C 316.799 5.72273 2.17185 0
M  V30 3219 N 315.936 6.21221 3.27152 0
M  V30 3220 H 320.776 2.97486 0.17489 0
M  V30 3221 H 318.313 1.46911 0.0745794 0
M  V30 3222 H 320.271 3.22897 2.64184 0
M  V30 3223 H 318.901 2.1043 2.44783 0
M  V30 3224 H 317.953 3.74475 0.668755 0
M  V30 3225 H 319.265 4.86699 1.09204 0
M  V30 3226 H 318.419 4.99453 3.4443 0
M  V30 3227 H 317.158 3.78386 3.07693 0
M  V30 3228 H 316.163 5.3261 1.36407 0
M  V30 3229 H 317.388 6.55974 1.75713 0
M  V30 3230 H 315.334 5.42263 3.69171 0
M  V30 3231 H 315.251 6.97284 2.92116 0
M  V30 3232 H 316.519 6.65063 4.06585 0
M  V30 3233 N 320.748 -0.0735177 1.57428 0
M  V30 3234 C 321.695 -1.08756 2.0357 0
M  V30 3235 C 322.665 -1.38559 0.916 0
M  V30 3236 O 323.85 -1.49656 1.18354 0
M  V30 3237 C 320.99 -2.39657 2.48311 0
M  V30 3238 C 320.103 -2.16399 3.73892 0
M  V30 3239 C 319.238 -3.40852 4.07423 0
M  V30 3240 C 318.277 -3.1295 5.2605 0
M  V30 3241 N 317.414 -4.29729 5.55228 0
M  V30 3242 H 322.254 -0.687104 2.8997 0
M  V30 3243 H 319.791 -0.327709 1.43403 0
M  V30 3244 H 321.749 -3.16081 2.72303 0
M  V30 3245 H 320.379 -2.77508 1.64891 0
M  V30 3246 H 319.431 -1.30676 3.57251 0
M  V30 3247 H 320.743 -1.91788 4.60455 0
M  V30 3248 H 319.897 -4.25671 4.32306 0
M  V30 3249 H 318.636 -3.68537 3.19425 0
M  V30 3250 H 317.641 -2.26526 5.00965 0
M  V30 3251 H 318.866 -2.86589 6.15665 0
M  V30 3252 H 316.812 -4.57448 4.70188 0
M  V30 3253 H 316.729 -4.08385 6.36206 0
M  V30 3254 H 317.997 -5.1555 5.84661 0
M  V30 3255 N 322.226 -1.5378 -0.344866 0
M  V30 3256 C 323.472 -1.71216 -1.08687 0
M  V30 3257 C 323.805 -0.473281 -1.88345 0
M  V30 3258 O 323.08 0.52968 -1.87149 0
M  V30 3259 C 323.363 -2.97486 -2.02914 0
M  V30 3260 C 323.216 -4.31579 -1.26727 0
M  V30 3261 C 324.535 -3.19422 -3.0275 0
M  V30 3262 H 321.654 -0.62301 -0.393735 0
M  V30 3263 H 324.296 -1.8645 -0.365563 0
M  V30 3264 H 322.446 -2.84629 -2.64421 0
M  V30 3265 H 324.118 -4.56284 -0.67845 0
M  V30 3266 H 322.361 -4.30049 -0.569273 0
M  V30 3267 H 323.032 -5.16106 -1.95803 0
M  V30 3268 H 325.508 -3.316 -2.51357 0
M  V30 3269 H 324.384 -4.09169 -3.65885 0
M  V30 3270 H 324.645 -2.35656 -3.74057 0
M  V30 3271 N 323.704 0.605807 -1.45491 0
M  V30 3272 C 324.614 1.74466 -1.56839 0
M  V30 3273 C 325.63 1.68006 -0.452772 0
M  V30 3274 O 326.806 1.8833 -0.713708 0
M  V30 3275 C 323.871 3.10931 -1.53371 0
M  V30 3276 C 322.932 3.28832 -2.75986 0
M  V30 3277 C 322.165 4.58787 -2.72673 0
M  V30 3278 O 322.388 5.4122 -1.80102 0
M  V30 3279 O 321.322 4.79438 -3.63899 0
M  V30 3280 H 325.148 1.67843 -2.53106 0
M  V30 3281 H 322.733 0.770108 -1.28022 0
M  V30 3282 H 324.615 3.92233 -1.54051 0
M  V30 3283 H 323.29 3.18042 -0.602572 0
M  V30 3284 H 322.197 2.47112 -2.80867 0
M  V30 3285 H 323.53 3.26599 -3.68231 0
M  V30 3286 N 325.182 1.32811 0.848464 0
M  V30 3287 C 326.593 1.21315 1.41914 0
M  V30 3288 C 326.944 -0.171847 1.95446 0
M  V30 3289 O 326.069 -1.07093 1.88043 0
M  V30 3290 C 326.664 2.19631 2.57968 0
M  V30 3291 C 325.223 2.12003 3.11017 0
M  V30 3292 C 324.37 2.07651 1.83783 0
M  V30 3293 H 327.321 1.44549 0.655071 0
M  V30 3294 H 327.342 1.79845 3.35315 0
M  V30 3295 H 326.854 3.20423 2.18976 0
M  V30 3296 H 324.955 1.14481 3.54577 0
M  V30 3297 H 325.068 3.02111 3.71841 0
M  V30 3298 H 323.432 1.52983 2.03638 0
M  V30 3299 H 324.215 3.10235 1.47 0
M  V30 3300 N 326.66 -1.06551 1.16123 0
M  V30 3301 C 327.607 -2.13961 0.865414 0
M  V30 3302 C 328.577 -1.65066 -0.185055 0
M  V30 3303 O 329.762 -1.90732 -0.05083 0
M  V30 3304 C 326.902 -3.43113 0.369776 0
M  V30 3305 C 326.015 -4.05756 1.48276 0
M  V30 3306 C 325.15 -5.22773 0.942414 0
M  V30 3307 C 324.189 -5.77395 2.03179 0
M  V30 3308 N 323.326 -6.85731 1.50721 0
M  V30 3309 H 328.166 -2.38605 1.78527 0
M  V30 3310 H 325.703 -1.17072 0.890646 0
M  V30 3311 H 327.661 -4.17151 0.0640643 0
M  V30 3312 H 326.291 -3.18695 -0.513143 0
M  V30 3313 H 325.343 -3.29292 1.9045 0
M  V30 3314 H 326.655 -4.42351 2.30493 0
M  V30 3315 H 325.809 -6.03827 0.589729 0
M  V30 3316 H 324.548 -4.87618 0.0895191 0
M  V30 3317 H 323.553 -4.94981 2.3932 0
M  V30 3318 H 324.778 -6.14603 2.8886 0
M  V30 3319 H 322.724 -6.52499 0.676811 0
M  V30 3320 H 322.641 -7.21254 2.26557 0
M  V30 3321 H 323.909 -7.7047 1.18303 0
M  V30 3322 N 328.138 -0.959301 -1.25041 0
M  V30 3323 C 329.363 -0.633507 -1.97488 0
M  V30 3324 C 329.788 0.788555 -1.70773 0
M  V30 3325 O 329.146 1.53394 -0.966431 0
M  V30 3326 C 329.194 -0.904057 -3.49083 0
M  V30 3327 O 328.298 0.0147939 -4.12397 0
M  V30 3328 H 327.639 -0.240368 -0.618966 0
M  V30 3329 H 330.169 -1.28717 -1.59038 0
M  V30 3330 H 330.179 -0.832203 -3.99423 0
M  V30 3331 H 328.854 -1.94048 -3.67856 0
M  V30 3332 H 327.431 -0.109664 -3.72739 0
M  V30 3333 O 329.655 1.36296 -0.866345 0
M  V30 3334 H 330.346 1.88046 -0.464585 0
M  V30 END ATOM
M  V30 BEGIN BOND
M  V30 END BOND
M  V30 END CTAB
M  END
$$$$
