drugbank_drug|DB05259 Example Glatiramer peptide
 OpenBabel12092119133D

829833  0  0  0  0  0  0  0  0999 V2000
   -0.9080    1.9825   -0.1171 H   0  0  0  0  0 15  0  0  0  0  0  0
    0.0000    1.5760    0.0000 N   0  0  0  0  0 15  0  0  0  0  0  0
    0.9100    2.1185    1.0077 C   0  0  0  0  0 15  0  0  0  0  0  0
    1.9260    1.0638    1.3769 C   0  0  0  0  0 15  0  0  0  0  0  0
    3.1020    1.3828    1.4643 O   0  0  0  0  0 15  0  0  0  0  0  0
    0.1670    2.6111    2.2809 C   0  0  0  0  0 15  0  0  0  0  0  0
   -0.7720    3.8118    1.9748 C   0  0  0  0  0 15  0  0  0  0  0  0
   -1.5390    4.2808    3.1872 C   0  0  0  0  0 15  0  0  0  0  0  0
   -1.3160    3.7431    4.3041 O   0  0  0  0  0 15  0  0  0  0  0  0
   -2.3820    5.2023    3.0272 O   0  0  0  0  0 15  0  0  0  0  0  0
    1.4440    2.9818    0.5765 H   0  0  0  0  0 15  0  0  0  0  0  0
   -0.9710    1.4779    0.2188 H   0  0  0  0  0 15  0  0  0  0  0  0
    0.9110    2.9299    3.0288 H   0  0  0  0  0 15  0  0  0  0  0  0
   -0.4140    1.7788    2.7044 H   0  0  0  0  0 15  0  0  0  0  0  0
   -1.5070    3.5428    1.2016 H   0  0  0  0  0 15  0  0  0  0  0  0
   -0.1740    4.6548    1.5996 H   0  0  0  0  0 15  0  0  0  0  0  0
    1.4781   -0.2728    1.5522 N   0  0  0  0  0 15  0  0  0  0  0  0
    2.4411   -1.3204    1.8734 C   0  0  0  0  0 15  0  0  0  0  0  0
    3.4411   -1.4234    0.7480 C   0  0  0  0  0 15  0  0  0  0  0  0
    4.6311   -1.4149    1.0162 O   0  0  0  0  0 15  0  0  0  0  0  0
    1.7631   -2.7017    2.0789 C   0  0  0  0  0 15  0  0  0  0  0  0
    2.9561   -1.0479    2.8100 H   0  0  0  0  0 15  0  0  0  0  0  0
    0.5091   -0.5108    1.4772 H   0  0  0  0  0 15  0  0  0  0  0  0
    1.2441   -3.0260    1.1662 H   0  0  0  0  0 15  0  0  0  0  0  0
    1.0291   -2.6408    2.8983 H   0  0  0  0  0 15  0  0  0  0  0  0
    2.5191   -3.4587    2.3402 H   0  0  0  0  0 15  0  0  0  0  0  0
    2.9562   -1.4816   -0.5373 N   0  0  0  0  0 15  0  0  0  0  0  0
    4.1862   -1.5922   -1.3165 C   0  0  0  0  0 15  0  0  0  0  0  0
    4.5942   -0.2488   -1.8756 C   0  0  0  0  0 15  0  0  0  0  0  0
    3.9372    0.7709   -1.6674 O   0  0  0  0  0 15  0  0  0  0  0  0
    3.9992   -2.5737   -2.5100 C   0  0  0  0  0 15  0  0  0  0  0  0
    3.6632   -4.0260   -2.1624 C   0  0  0  0  0 15  0  0  0  0  0  0
    4.6602   -4.9050   -1.7234 C   0  0  0  0  0 15  0  0  0  0  0  0
    2.3452   -4.4809   -2.2699 C   0  0  0  0  0 15  0  0  0  0  0  0
    4.3392   -6.2191   -1.3965 C   0  0  0  0  0 15  0  0  0  0  0  0
    2.0262   -5.7952   -1.9391 C   0  0  0  0  0 15  0  0  0  0  0  0
    3.0242   -6.6626   -1.5031 C   0  0  0  0  0 15  0  0  0  0  0  0
    2.7122   -7.9524   -1.1766 O   0  0  0  0  0 15  0  0  0  0  0  0
    2.4442   -0.5398   -0.4069 H   0  0  0  0  0 15  0  0  0  0  0  0
    4.9982   -1.9465   -0.6556 H   0  0  0  0  0 15  0  0  0  0  0  0
    3.2282   -2.1704   -3.2005 H   0  0  0  0  0 15  0  0  0  0  0  0
    4.9172   -2.5834   -3.1307 H   0  0  0  0  0 15  0  0  0  0  0  0
    5.6832   -4.5660   -1.6352 H   0  0  0  0  0 15  0  0  0  0  0  0
    1.5622   -3.8077   -2.5988 H   0  0  0  0  0 15  0  0  0  0  0  0
    5.1062   -6.8957   -1.0555 H   0  0  0  0  0 15  0  0  0  0  0  0
    1.0032   -6.1296   -2.0237 H   0  0  0  0  0 15  0  0  0  0  0  0
    1.7712   -8.0793   -1.3112 H   0  0  0  0  0 15  0  0  0  0  0  0
    4.4343    0.7856   -1.3662 N   0  0  0  0  0 15  0  0  0  0  0  0
    5.3813    1.8984   -1.3126 C   0  0  0  0  0 15  0  0  0  0  0  0
    6.3513    1.6511   -0.1806 C   0  0  0  0  0 15  0  0  0  0  0  0
    7.5363    1.8722   -0.3678 O   0  0  0  0  0 15  0  0  0  0  0  0
    4.6763    3.2671   -1.1116 C   0  0  0  0  0 15  0  0  0  0  0  0
    3.7893    3.6348   -2.3347 C   0  0  0  0  0 15  0  0  0  0  0  0
    2.9243    4.8948   -2.0635 C   0  0  0  0  0 15  0  0  0  0  0  0
    1.9633    5.1894   -3.2460 C   0  0  0  0  0 15  0  0  0  0  0  0
    1.1003    6.3613   -2.9712 N   0  0  0  0  0 15  0  0  0  0  0  0
    5.9403    1.9376   -2.2641 H   0  0  0  0  0 15  0  0  0  0  0  0
    3.4773    0.9475   -1.1252 H   0  0  0  0  0 15  0  0  0  0  0  0
    5.4353    4.0564   -0.9753 H   0  0  0  0  0 15  0  0  0  0  0  0
    4.0653    3.2220   -0.1967 H   0  0  0  0  0 15  0  0  0  0  0  0
    3.1173    2.7964   -2.5789 H   0  0  0  0  0 15  0  0  0  0  0  0
    4.4293    3.8119   -3.2170 H   0  0  0  0  0 15  0  0  0  0  0  0
    3.5833    5.7629   -1.8968 H   0  0  0  0  0 15  0  0  0  0  0  0
    2.3223    4.7384   -1.1544 H   0  0  0  0  0 15  0  0  0  0  0  0
    1.3273    4.3062   -3.4183 H   0  0  0  0  0 15  0  0  0  0  0  0
    2.5523    5.3650   -4.1635 H   0  0  0  0  0 15  0  0  0  0  0  0
    0.4983    6.2188   -2.0882 H   0  0  0  0  0 15  0  0  0  0  0  0
    0.4153    6.5420   -3.7889 H   0  0  0  0  0 15  0  0  0  0  0  0
    1.6833    7.2591   -2.8403 H   0  0  0  0  0 15  0  0  0  0  0  0
    5.9124    1.2097    1.0102 N   0  0  0  0  0 15  0  0  0  0  0  0
    6.8754    0.9659    2.0785 C   0  0  0  0  0 15  0  0  0  0  0  0
    7.8754   -0.0611    1.6068 C   0  0  0  0  0 15  0  0  0  0  0  0
    9.0654    0.1757    1.7331 O   0  0  0  0  0 15  0  0  0  0  0  0
    6.1974    0.4555    3.3784 C   0  0  0  0  0 15  0  0  0  0  0  0
    7.3904    1.9136    2.3091 H   0  0  0  0  0 15  0  0  0  0  0  0
    4.9434    1.0259    1.1792 H   0  0  0  0  0 15  0  0  0  0  0  0
    5.6784   -0.4974    3.2046 H   0  0  0  0  0 15  0  0  0  0  0  0
    5.4634    1.1962    3.7341 H   0  0  0  0  0 15  0  0  0  0  0  0
    6.9534    0.3047    4.1649 H   0  0  0  0  0 15  0  0  0  0  0  0
    7.3905   -1.2043    1.0166 N   0  0  0  0  0 15  0  0  0  0  0  0
    8.3535   -2.2143    0.5916 C   0  0  0  0  0 15  0  0  0  0  0  0
    9.3535   -1.5720   -0.3382 C   0  0  0  0  0 15  0  0  0  0  0  0
   10.5435   -1.7374   -0.1269 O   0  0  0  0  0 15  0  0  0  0  0  0
    7.6755   -3.4063   -0.1361 C   0  0  0  0  0 15  0  0  0  0  0  0
    8.8685   -2.6054    1.4851 H   0  0  0  0  0 15  0  0  0  0  0  0
    6.4215   -1.3389    0.8064 H   0  0  0  0  0 15  0  0  0  0  0  0
    7.1565   -3.0702   -1.0445 H   0  0  0  0  0 15  0  0  0  0  0  0
    6.9415   -3.8848    0.5319 H   0  0  0  0  0 15  0  0  0  0  0  0
    8.4315   -4.1548   -0.4207 H   0  0  0  0  0 15  0  0  0  0  0  0
    8.8686   -0.7928   -1.3621 N   0  0  0  0  0 15  0  0  0  0  0  0
    9.7786   -0.1948   -2.3379 C   0  0  0  0  0 15  0  0  0  0  0  0
   10.7946    0.6549   -1.6121 C   0  0  0  0  0 15  0  0  0  0  0  0
   11.9706    0.5699   -1.9317 O   0  0  0  0  0 15  0  0  0  0  0  0
    9.0356    0.6577   -3.4040 C   0  0  0  0  0 15  0  0  0  0  0  0
    8.0966   -0.2108   -4.2878 C   0  0  0  0  0 15  0  0  0  0  0  0
    7.3296    0.6011   -5.3030 C   0  0  0  0  0 15  0  0  0  0  0  0
    7.5526    1.8368   -5.4002 O   0  0  0  0  0 15  0  0  0  0  0  0
    6.4866   -0.0008   -6.0190 O   0  0  0  0  0 15  0  0  0  0  0  0
   10.3126   -1.0017   -2.8670 H   0  0  0  0  0 15  0  0  0  0  0  0
    7.8976   -0.5543   -1.3874 H   0  0  0  0  0 15  0  0  0  0  0  0
    9.7796    1.1438   -4.0558 H   0  0  0  0  0 15  0  0  0  0  0  0
    8.4546    1.4425   -2.8978 H   0  0  0  0  0 15  0  0  0  0  0  0
    7.3616   -0.7437   -3.6663 H   0  0  0  0  0 15  0  0  0  0  0  0
    8.6946   -0.9592   -4.8276 H   0  0  0  0  0 15  0  0  0  0  0  0
   10.3467    1.4787   -0.5451 N   0  0  0  0  0 15  0  0  0  0  0  0
   11.2937    2.2985    0.2093 C   0  0  0  0  0 15  0  0  0  0  0  0
   12.2637    1.3831    0.9197 C   0  0  0  0  0 15  0  0  0  0  0  0
   13.4487    1.6728    0.9178 O   0  0  0  0  0 15  0  0  0  0  0  0
   10.5887    3.2202    1.2409 C   0  0  0  0  0 15  0  0  0  0  0  0
    9.7017    4.2864    0.5378 C   0  0  0  0  0 15  0  0  0  0  0  0
    8.8367    5.0797    1.5536 C   0  0  0  0  0 15  0  0  0  0  0  0
    7.8757    6.0638    0.8348 C   0  0  0  0  0 15  0  0  0  0  0  0
    7.0127    6.7872    1.7969 N   0  0  0  0  0 15  0  0  0  0  0  0
   11.8527    2.9384   -0.4959 H   0  0  0  0  0 15  0  0  0  0  0  0
    9.3897    1.4485   -0.2564 H   0  0  0  0  0 15  0  0  0  0  0  0
   11.3477    3.7387    1.8514 H   0  0  0  0  0 15  0  0  0  0  0  0
    9.9777    2.5991    1.9143 H   0  0  0  0  0 15  0  0  0  0  0  0
    9.0297    3.7994   -0.1870 H   0  0  0  0  0 15  0  0  0  0  0  0
   10.3417    4.9879   -0.0259 H   0  0  0  0  0 15  0  0  0  0  0  0
    9.4957    5.6391    2.2380 H   0  0  0  0  0 15  0  0  0  0  0  0
    8.2347    4.3769    2.1512 H   0  0  0  0  0 15  0  0  0  0  0  0
    7.2397    5.4963    0.1364 H   0  0  0  0  0 15  0  0  0  0  0  0
    8.4647    6.7866    0.2431 H   0  0  0  0  0 15  0  0  0  0  0  0
    6.4107    6.1118    2.3833 H   0  0  0  0  0 15  0  0  0  0  0  0
    6.3277    7.4500    1.2850 H   0  0  0  0  0 15  0  0  0  0  0  0
    7.5957    7.3924    2.4728 H   0  0  0  0  0 15  0  0  0  0  0  0
   11.8248    0.2810    1.5507 N   0  0  0  0  0 15  0  0  0  0  0  0
   12.7878   -0.5909    2.2145 C   0  0  0  0  0 15  0  0  0  0  0  0
   13.7878   -1.0768    1.1942 C   0  0  0  0  0 15  0  0  0  0  0  0
   14.9778   -0.9760    1.4429 O   0  0  0  0  0 15  0  0  0  0  0  0
   12.1098   -1.8159    2.8851 C   0  0  0  0  0 15  0  0  0  0  0  0
   13.3028   -0.0113    2.9990 H   0  0  0  0  0 15  0  0  0  0  0  0
   10.8558    0.0316    1.5627 H   0  0  0  0  0 15  0  0  0  0  0  0
   11.5908   -2.4359    2.1409 H   0  0  0  0  0 15  0  0  0  0  0  0
   11.3758   -1.4753    3.6329 H   0  0  0  0  0 15  0  0  0  0  0  0
   12.8658   -2.4358    3.3921 H   0  0  0  0  0 15  0  0  0  0  0  0
   13.3029   -1.5760    0.0084 N   0  0  0  0  0 15  0  0  0  0  0  0
   14.5329   -1.9493   -0.6845 C   0  0  0  0  0 15  0  0  0  0  0  0
   14.9409   -0.8822   -1.6737 C   0  0  0  0  0 15  0  0  0  0  0  0
   14.2839    0.1466   -1.8311 O   0  0  0  0  0 15  0  0  0  0  0  0
   14.3459   -3.2830   -1.4649 C   0  0  0  0  0 15  0  0  0  0  0  0
   14.0099   -4.5255   -0.6363 C   0  0  0  0  0 15  0  0  0  0  0  0
   15.0069   -5.1984    0.0796 C   0  0  0  0  0 15  0  0  0  0  0  0
   12.6919   -4.9894   -0.5798 C   0  0  0  0  0 15  0  0  0  0  0  0
   14.6859   -6.3183    0.8408 C   0  0  0  0  0 15  0  0  0  0  0  0
   12.3729   -6.1082    0.1852 C   0  0  0  0  0 15  0  0  0  0  0  0
   13.3709   -6.7712    0.8942 C   0  0  0  0  0 15  0  0  0  0  0  0
   13.0589   -7.8685    1.6467 O   0  0  0  0  0 15  0  0  0  0  0  0
   12.7909   -0.6472   -0.1950 H   0  0  0  0  0 15  0  0  0  0  0  0
   15.3449   -2.0532    0.0581 H   0  0  0  0  0 15  0  0  0  0  0  0
   13.5749   -3.1435   -2.2522 H   0  0  0  0  0 15  0  0  0  0  0  0
   15.2639   -3.5069   -2.0439 H   0  0  0  0  0 15  0  0  0  0  0  0
   16.0299   -4.8498    0.0451 H   0  0  0  0  0 15  0  0  0  0  0  0
   11.9089   -4.4716   -1.1213 H   0  0  0  0  0 15  0  0  0  0  0  0
   15.4529   -6.8351    1.3948 H   0  0  0  0  0 15  0  0  0  0  0  0
   11.3499   -6.4512    0.2214 H   0  0  0  0  0 15  0  0  0  0  0  0
   12.1179   -8.0341    1.5643 H   0  0  0  0  0 15  0  0  0  0  0  0
   14.7810    0.2645   -1.5536 N   0  0  0  0  0 15  0  0  0  0  0  0
   15.7440    1.3105   -1.8804 C   0  0  0  0  0 15  0  0  0  0  0  0
   16.7440    1.4194   -0.7556 C   0  0  0  0  0 15  0  0  0  0  0  0
   17.9340    1.4095   -1.0237 O   0  0  0  0  0 15  0  0  0  0  0  0
   15.0660    2.6907   -2.0932 C   0  0  0  0  0 15  0  0  0  0  0  0
   16.2590    1.0330   -2.8155 H   0  0  0  0  0 15  0  0  0  0  0  0
   13.8120    0.5030   -1.4799 H   0  0  0  0  0 15  0  0  0  0  0  0
   14.5470    3.0198   -1.1823 H   0  0  0  0  0 15  0  0  0  0  0  0
   14.3320    2.6254   -2.9123 H   0  0  0  0  0 15  0  0  0  0  0  0
   15.8220    3.4462   -2.3585 H   0  0  0  0  0 15  0  0  0  0  0  0
   16.2591    1.4844    0.5294 N   0  0  0  0  0 15  0  0  0  0  0  0
   17.2221    1.6252    1.6161 C   0  0  0  0  0 15  0  0  0  0  0  0
   18.2221    0.4985    1.5288 C   0  0  0  0  0 15  0  0  0  0  0  0
   19.4121    0.7643    1.5654 O   0  0  0  0  0 15  0  0  0  0  0  0
   16.5441    1.5960    3.0123 C   0  0  0  0  0 15  0  0  0  0  0  0
   17.7371    2.5942    1.5047 H   0  0  0  0  0 15  0  0  0  0  0  0
   15.2901    1.3705    0.7515 H   0  0  0  0  0 15  0  0  0  0  0  0
   16.0251    0.6418    3.1789 H   0  0  0  0  0 15  0  0  0  0  0  0
   15.8101    2.4140    3.0898 H   0  0  0  0  0 15  0  0  0  0  0  0
   17.3001    1.7265    3.8024 H   0  0  0  0  0 15  0  0  0  0  0  0
   17.7372   -0.7783    1.3704 N   0  0  0  0  0 15  0  0  0  0  0  0
   18.6842   -1.8914    1.3227 C   0  0  0  0  0 15  0  0  0  0  0  0
   19.6542   -1.6502    0.1894 C   0  0  0  0  0 15  0  0  0  0  0  0
   20.8392   -1.8702    0.3777 O   0  0  0  0  0 15  0  0  0  0  0  0
   17.9792   -3.2611    1.1289 C   0  0  0  0  0 15  0  0  0  0  0  0
   17.0922   -3.6223    2.3540 C   0  0  0  0  0 15  0  0  0  0  0  0
   16.2272   -4.8838    2.0895 C   0  0  0  0  0 15  0  0  0  0  0  0
   15.2662   -5.1721    3.2735 C   0  0  0  0  0 15  0  0  0  0  0  0
   14.4032   -6.3455    3.0049 N   0  0  0  0  0 15  0  0  0  0  0  0
   19.2432   -1.9255    2.2744 H   0  0  0  0  0 15  0  0  0  0  0  0
   16.7802   -0.9415    1.1303 H   0  0  0  0  0 15  0  0  0  0  0  0
   18.7382   -4.0512    0.9968 H   0  0  0  0  0 15  0  0  0  0  0  0
   17.3682   -3.2209    0.2138 H   0  0  0  0  0 15  0  0  0  0  0  0
   16.4202   -2.7826    2.5937 H   0  0  0  0  0 15  0  0  0  0  0  0
   17.7322   -3.7948    3.2372 H   0  0  0  0  0 15  0  0  0  0  0  0
   16.8862   -5.7527    1.9273 H   0  0  0  0  0 15  0  0  0  0  0  0
   15.6252   -4.7322    1.1795 H   0  0  0  0  0 15  0  0  0  0  0  0
   14.6302   -4.2880    3.4411 H   0  0  0  0  0 15  0  0  0  0  0  0
   15.8552   -5.3428    4.1919 H   0  0  0  0  0 15  0  0  0  0  0  0
   13.8012   -6.2076    2.1212 H   0  0  0  0  0 15  0  0  0  0  0  0
   13.7182   -6.5218    3.8236 H   0  0  0  0  0 15  0  0  0  0  0  0
   14.9862   -7.2439    2.8788 H   0  0  0  0  0 15  0  0  0  0  0  0
   19.2153   -1.2150   -1.0038 N   0  0  0  0  0 15  0  0  0  0  0  0
   20.1253   -0.9914   -2.1262 C   0  0  0  0  0 15  0  0  0  0  0  0
   21.1413    0.0568   -1.7391 C   0  0  0  0  0 15  0  0  0  0  0  0
   22.3173   -0.1335   -2.0096 O   0  0  0  0  0 15  0  0  0  0  0  0
   19.3823   -0.5603   -3.4214 C   0  0  0  0  0 15  0  0  0  0  0  0
   18.4433   -1.6810   -3.9502 C   0  0  0  0  0 15  0  0  0  0  0  0
   17.6763   -1.2703   -5.1836 C   0  0  0  0  0 15  0  0  0  0  0  0
   17.8993   -0.1444   -5.7022 O   0  0  0  0  0 15  0  0  0  0  0  0
   16.8333   -2.0827   -5.6472 O   0  0  0  0  0 15  0  0  0  0  0  0
   20.6593   -1.9316   -2.3436 H   0  0  0  0  0 15  0  0  0  0  0  0
   18.2443   -1.0000   -1.1100 H   0  0  0  0  0 15  0  0  0  0  0  0
   20.1263   -0.3297   -4.2011 H   0  0  0  0  0 15  0  0  0  0  0  0
   18.8013    0.3511   -3.2179 H   0  0  0  0  0 15  0  0  0  0  0  0
   17.7083   -1.9660   -3.1828 H   0  0  0  0  0 15  0  0  0  0  0  0
   19.0413   -2.5698   -4.1979 H   0  0  0  0  0 15  0  0  0  0  0  0
   20.6934    1.1989   -1.0230 N   0  0  0  0  0 15  0  0  0  0  0  0
   21.6564    2.2112   -0.6034 C   0  0  0  0  0 15  0  0  0  0  0  0
   22.6564    1.5738    0.3299 C   0  0  0  0  0 15  0  0  0  0  0  0
   23.8464    1.7380    0.1177 O   0  0  0  0  0 15  0  0  0  0  0  0
   20.9784    3.4070    0.1180 C   0  0  0  0  0 15  0  0  0  0  0  0
   22.1714    2.5975   -1.4989 H   0  0  0  0  0 15  0  0  0  0  0  0
   19.7244    1.3346   -0.8135 H   0  0  0  0  0 15  0  0  0  0  0  0
   20.4594    3.0757    1.0282 H   0  0  0  0  0 15  0  0  0  0  0  0
   20.2444    3.8819   -0.5525 H   0  0  0  0  0 15  0  0  0  0  0  0
   21.7344    4.1569    0.3987 H   0  0  0  0  0 15  0  0  0  0  0  0
   22.1715    0.8000    1.3578 N   0  0  0  0  0 15  0  0  0  0  0  0
   23.1345    0.2116    2.2822 C   0  0  0  0  0 15  0  0  0  0  0  0
   24.1345   -0.5973    1.4930 C   0  0  0  0  0 15  0  0  0  0  0  0
   25.3245   -0.4167    1.6914 O   0  0  0  0  0 15  0  0  0  0  0  0
   22.4565   -0.7058    3.3351 C   0  0  0  0  0 15  0  0  0  0  0  0
   23.6495    1.0268    2.8178 H   0  0  0  0  0 15  0  0  0  0  0  0
   21.2025    0.5702    1.4553 H   0  0  0  0  0 15  0  0  0  0  0  0
   21.9375   -1.5450    2.8513 H   0  0  0  0  0 15  0  0  0  0  0  0
   21.7225   -0.1277    3.9189 H   0  0  0  0  0 15  0  0  0  0  0  0
   23.2125   -1.1121    4.0252 H   0  0  0  0  0 15  0  0  0  0  0  0
   23.6496   -1.4758    0.5530 N   0  0  0  0  0 15  0  0  0  0  0  0
   24.5966   -2.2996   -0.1971 C   0  0  0  0  0 15  0  0  0  0  0  0
   25.5666   -1.3880   -0.9124 C   0  0  0  0  0 15  0  0  0  0  0  0
   26.7516   -1.6776   -0.9089 O   0  0  0  0  0 15  0  0  0  0  0  0
   23.8916   -3.2267   -1.2238 C   0  0  0  0  0 15  0  0  0  0  0  0
   23.0046   -4.2892   -0.5150 C   0  0  0  0  0 15  0  0  0  0  0  0
   22.1396   -5.0879   -1.5266 C   0  0  0  0  0 15  0  0  0  0  0  0
   21.1786   -6.0681   -0.8026 C   0  0  0  0  0 15  0  0  0  0  0  0
   20.3156   -6.7966   -1.7609 N   0  0  0  0  0 15  0  0  0  0  0  0
   25.1556   -2.9358    0.5115 H   0  0  0  0  0 15  0  0  0  0  0  0
   22.6926   -1.4471    0.2641 H   0  0  0  0  0 15  0  0  0  0  0  0
   24.6506   -3.7485   -1.8316 H   0  0  0  0  0 15  0  0  0  0  0  0
   23.2806   -2.6093   -1.9005 H   0  0  0  0  0 15  0  0  0  0  0  0
   22.3326   -3.7984    0.2072 H   0  0  0  0  0 15  0  0  0  0  0  0
   23.6446   -4.9877    0.0523 H   0  0  0  0  0 15  0  0  0  0  0  0
   22.7986   -5.6509   -2.2081 H   0  0  0  0  0 15  0  0  0  0  0  0
   21.5376   -4.3883   -2.1279 H   0  0  0  0  0 15  0  0  0  0  0  0
   20.5426   -5.4970   -0.1072 H   0  0  0  0  0 15  0  0  0  0  0  0
   21.7676   -6.7878   -0.2071 H   0  0  0  0  0 15  0  0  0  0  0  0
   19.7136   -6.1243   -2.3508 H   0  0  0  0  0 15  0  0  0  0  0  0
   19.6306   -7.4567   -1.2455 H   0  0  0  0  0 15  0  0  0  0  0  0
   20.8986   -7.4054   -2.4336 H   0  0  0  0  0 15  0  0  0  0  0  0
   25.1277   -0.2892   -1.5492 N   0  0  0  0  0 15  0  0  0  0  0  0
   26.0377    0.6019   -2.2675 C   0  0  0  0  0 15  0  0  0  0  0  0
   27.0537    1.1583   -1.2984 C   0  0  0  0  0 15  0  0  0  0  0  0
   28.2297    1.1856   -1.6280 O   0  0  0  0  0 15  0  0  0  0  0  0
   25.2947    1.7630   -2.9853 C   0  0  0  0  0 15  0  0  0  0  0  0
   24.3557    1.2418   -4.1095 C   0  0  0  0  0 15  0  0  0  0  0  0
   23.5887    2.3476   -4.7930 C   0  0  0  0  0 15  0  0  0  0  0  0
   23.8117    3.5441   -4.4693 O   0  0  0  0  0 15  0  0  0  0  0  0
   22.7457    2.0212   -5.6695 O   0  0  0  0  0 15  0  0  0  0  0  0
   26.5717    0.0196   -3.0369 H   0  0  0  0  0 15  0  0  0  0  0  0
   24.1567   -0.0561   -1.4929 H   0  0  0  0  0 15  0  0  0  0  0  0
   26.0387    2.4397   -3.4359 H   0  0  0  0  0 15  0  0  0  0  0  0
   24.7137    2.3321   -2.2449 H   0  0  0  0  0 15  0  0  0  0  0  0
   23.6207    0.5311   -3.7031 H   0  0  0  0  0 15  0  0  0  0  0  0
   24.9537    0.7183   -4.8693 H   0  0  0  0  0 15  0  0  0  0  0  0
   26.6058    1.5759   -0.0167 N   0  0  0  0  0 15  0  0  0  0  0  0
   27.5688    2.0839    0.9542 C   0  0  0  0  0 15  0  0  0  0  0  0
   28.5688    0.9965    1.2620 C   0  0  0  0  0 15  0  0  0  0  0  0
   29.7588    1.2586    1.2044 O   0  0  0  0  0 15  0  0  0  0  0  0
   26.8908    2.5394    2.2744 C   0  0  0  0  0 15  0  0  0  0  0  0
   28.0838    2.9545    0.5145 H   0  0  0  0  0 15  0  0  0  0  0  0
   25.6368    1.5458    0.2311 H   0  0  0  0  0 15  0  0  0  0  0  0
   26.3718    1.7017    2.7607 H   0  0  0  0  0 15  0  0  0  0  0  0
   26.1568    3.3337    2.0641 H   0  0  0  0  0 15  0  0  0  0  0  0
   27.6468    2.9351    2.9705 H   0  0  0  0  0 15  0  0  0  0  0  0
   28.0839   -0.2563    1.5550 N   0  0  0  0  0 15  0  0  0  0  0  0
   29.0469   -1.3005    1.8873 C   0  0  0  0  0 15  0  0  0  0  0  0
   30.0469   -1.4154    0.7631 C   0  0  0  0  0 15  0  0  0  0  0  0
   31.2369   -1.4040    1.0312 O   0  0  0  0  0 15  0  0  0  0  0  0
   28.3689   -2.6795    2.1075 C   0  0  0  0  0 15  0  0  0  0  0  0
   29.5619   -1.0180    2.8209 H   0  0  0  0  0 15  0  0  0  0  0  0
   27.1149   -0.4951    1.4825 H   0  0  0  0  0 15  0  0  0  0  0  0
   27.8499   -3.0135    1.1983 H   0  0  0  0  0 15  0  0  0  0  0  0
   27.6349   -2.6099    2.9262 H   0  0  0  0  0 15  0  0  0  0  0  0
   29.1249   -3.4337    2.3767 H   0  0  0  0  0 15  0  0  0  0  0  0
   29.5620   -1.4872   -0.5215 N   0  0  0  0  0 15  0  0  0  0  0  0
   30.5090   -1.6387   -1.6253 C   0  0  0  0  0 15  0  0  0  0  0  0
   31.4790   -0.4806   -1.5900 C   0  0  0  0  0 15  0  0  0  0  0  0
   32.6640   -0.7051   -1.7729 O   0  0  0  0  0 15  0  0  0  0  0  0
   29.8040   -1.6923   -3.0076 C   0  0  0  0  0 15  0  0  0  0  0  0
   28.9170   -2.9621   -3.1446 C   0  0  0  0  0 15  0  0  0  0  0  0
   28.0520   -2.9267   -4.4330 C   0  0  0  0  0 15  0  0  0  0  0  0
   27.0910   -4.1432   -4.5056 C   0  0  0  0  0 15  0  0  0  0  0  0
   26.2280   -4.0881   -5.7081 N   0  0  0  0  0 15  0  0  0  0  0  0
   31.0680   -2.5812   -1.4892 H   0  0  0  0  0 15  0  0  0  0  0  0
   28.6050   -1.2800   -0.7249 H   0  0  0  0  0 15  0  0  0  0  0  0
   30.5630   -1.7031   -3.8085 H   0  0  0  0  0 15  0  0  0  0  0  0
   29.1930   -0.7846   -3.1312 H   0  0  0  0  0 15  0  0  0  0  0  0
   28.2450   -3.0483   -2.2756 H   0  0  0  0  0 15  0  0  0  0  0  0
   29.5570   -3.8619   -3.1569 H   0  0  0  0  0 15  0  0  0  0  0  0
   28.7110   -2.9221   -5.3170 H   0  0  0  0  0 15  0  0  0  0  0  0
   27.4500   -2.0043   -4.4461 H   0  0  0  0  0 15  0  0  0  0  0  0
   26.4550   -4.1505   -3.6058 H   0  0  0  0  0 15  0  0  0  0  0  0
   27.6800   -5.0773   -4.5099 H   0  0  0  0  0 15  0  0  0  0  0  0
   25.6260   -3.1939   -5.7300 H   0  0  0  0  0 15  0  0  0  0  0  0
   25.5430   -4.9251   -5.7356 H   0  0  0  0  0 15  0  0  0  0  0  0
   26.8110   -4.1242   -6.6146 H   0  0  0  0  0 15  0  0  0  0  0  0
   31.0401    0.7711   -1.3745 N   0  0  0  0  0 15  0  0  0  0  0  0
   32.0031    1.8660   -1.3309 C   0  0  0  0  0 15  0  0  0  0  0  0
   33.0031    1.5908   -0.2348 C   0  0  0  0  0 15  0  0  0  0  0  0
   34.1931    1.6715   -0.4907 O   0  0  0  0  0 15  0  0  0  0  0  0
   31.3251    3.2375   -1.0677 C   0  0  0  0  0 15  0  0  0  0  0  0
   32.5181    1.9187   -2.3049 H   0  0  0  0  0 15  0  0  0  0  0  0
   30.0711    0.9709   -1.2249 H   0  0  0  0  0 15  0  0  0  0  0  0
   30.8061    3.2415   -0.0991 H   0  0  0  0  0 15  0  0  0  0  0  0
   30.5911    3.4512   -1.8611 H   0  0  0  0  0 15  0  0  0  0  0  0
   32.0811    4.0382   -1.0638 H   0  0  0  0  0 15  0  0  0  0  0  0
   32.5182    1.2203    0.9973 N   0  0  0  0  0 15  0  0  0  0  0  0
   33.4652    0.9865    2.0866 C   0  0  0  0  0 15  0  0  0  0  0  0
   34.4352   -0.0903    1.6585 C   0  0  0  0  0 15  0  0  0  0  0  0
   35.6202    0.0584    1.9071 O   0  0  0  0  0 15  0  0  0  0  0  0
   32.7602    0.5656    3.4043 C   0  0  0  0  0 15  0  0  0  0  0  0
   31.8732    1.7126    3.9660 C   0  0  0  0  0 15  0  0  0  0  0  0
   31.0082    1.2401    5.1652 C   0  0  0  0  0 15  0  0  0  0  0  0
   30.0472    2.3590    5.6482 C   0  0  0  0  0 15  0  0  0  0  0  0
   29.1842    1.8973    6.7598 N   0  0  0  0  0 15  0  0  0  0  0  0
   34.0242    1.9189    2.2799 H   0  0  0  0  0 15  0  0  0  0  0  0
   31.5612    0.9562    1.1178 H   0  0  0  0  0 15  0  0  0  0  0  0
   33.5192    0.3027    4.1610 H   0  0  0  0  0 15  0  0  0  0  0  0
   32.1492   -0.3299    3.2111 H   0  0  0  0  0 15  0  0  0  0  0  0
   31.2012    2.0899    3.1785 H   0  0  0  0  0 15  0  0  0  0  0  0
   32.5132    2.5544    4.2843 H   0  0  0  0  0 15  0  0  0  0  0  0
   31.6672    0.9344    5.9946 H   0  0  0  0  0 15  0  0  0  0  0  0
   30.4062    0.3685    4.8631 H   0  0  0  0  0 15  0  0  0  0  0  0
   29.4112    2.6726    4.8047 H   0  0  0  0  0 15  0  0  0  0  0  0
   30.6362    3.2357    5.9706 H   0  0  0  0  0 15  0  0  0  0  0  0
   28.5822    1.0492    6.4756 H   0  0  0  0  0 15  0  0  0  0  0  0
   28.4992    2.6747    7.0710 H   0  0  0  0  0 15  0  0  0  0  0  0
   29.7672    1.6221    7.6244 H   0  0  0  0  0 15  0  0  0  0  0  0
   33.9963   -1.1934    1.0293 N   0  0  0  0  0 15  0  0  0  0  0  0
   34.9593   -2.2079    0.6151 C   0  0  0  0  0 15  0  0  0  0  0  0
   35.9593   -1.5755   -0.3215 C   0  0  0  0  0 15  0  0  0  0  0  0
   37.1493   -1.7386   -0.1085 O   0  0  0  0  0 15  0  0  0  0  0  0
   34.2813   -3.4075   -0.0999 C   0  0  0  0  0 15  0  0  0  0  0  0
   35.4743   -2.5896    1.5127 H   0  0  0  0  0 15  0  0  0  0  0  0
   33.0273   -1.3303    0.8205 H   0  0  0  0  0 15  0  0  0  0  0  0
   33.7623   -3.0811   -1.0119 H   0  0  0  0  0 15  0  0  0  0  0  0
   33.5473   -3.8789    0.5731 H   0  0  0  0  0 15  0  0  0  0  0  0
   35.0373   -4.1590   -0.3766 H   0  0  0  0  0 15  0  0  0  0  0  0
   35.4744   -0.8072   -1.3536 N   0  0  0  0  0 15  0  0  0  0  0  0
   36.3844   -0.2196   -2.3357 C   0  0  0  0  0 15  0  0  0  0  0  0
   37.4004    0.6377   -1.6189 C   0  0  0  0  0 15  0  0  0  0  0  0
   38.5764    0.5493   -1.9376 O   0  0  0  0  0 15  0  0  0  0  0  0
   35.6414    0.6216   -3.4108 C   0  0  0  0  0 15  0  0  0  0  0  0
   34.7024   -0.2563   -4.2853 C   0  0  0  0  0 15  0  0  0  0  0  0
   33.9354    0.5448   -5.3091 C   0  0  0  0  0 15  0  0  0  0  0  0
   34.1584    1.7794   -5.4193 O   0  0  0  0  0 15  0  0  0  0  0  0
   33.0924   -0.0646   -6.0187 O   0  0  0  0  0 15  0  0  0  0  0  0
   36.9184   -1.0321   -2.8563 H   0  0  0  0  0 15  0  0  0  0  0  0
   34.5034   -0.5690   -1.3814 H   0  0  0  0  0 15  0  0  0  0  0  0
   36.3854    1.1007   -4.0677 H   0  0  0  0  0 15  0  0  0  0  0  0
   35.0604    1.4117   -2.9130 H   0  0  0  0  0 15  0  0  0  0  0  0
   33.9674   -0.7826   -3.6582 H   0  0  0  0  0 15  0  0  0  0  0  0
   35.3004   -1.0103   -4.8172 H   0  0  0  0  0 15  0  0  0  0  0  0
   36.9525    1.4729   -0.5608 N   0  0  0  0  0 15  0  0  0  0  0  0
   37.8995    2.3006    0.1849 C   0  0  0  0  0 15  0  0  0  0  0  0
   38.8695    1.3928    0.9050 C   0  0  0  0  0 15  0  0  0  0  0  0
   40.0545    1.6824    0.9000 O   0  0  0  0  0 15  0  0  0  0  0  0
   37.1945    3.2332    1.2067 C   0  0  0  0  0 15  0  0  0  0  0  0
   36.3075    4.2919    0.4923 C   0  0  0  0  0 15  0  0  0  0  0  0
   35.4425    5.0959    1.4996 C   0  0  0  0  0 15  0  0  0  0  0  0
   34.4815    6.0723    0.7704 C   0  0  0  0  0 15  0  0  0  0  0  0
   33.6185    6.8058    1.7248 N   0  0  0  0  0 15  0  0  0  0  0  0
   38.4585    2.9330   -0.5270 H   0  0  0  0  0 15  0  0  0  0  0  0
   35.9955    1.4457   -0.2717 H   0  0  0  0  0 15  0  0  0  0  0  0
   37.9535    3.7581    1.8117 H   0  0  0  0  0 15  0  0  0  0  0  0
   36.5835    2.6193    1.8866 H   0  0  0  0  0 15  0  0  0  0  0  0
   35.6355    3.7972   -0.2273 H   0  0  0  0  0 15  0  0  0  0  0  0
   36.9475    4.9874   -0.0788 H   0  0  0  0  0 15  0  0  0  0  0  0
   36.1015    5.6625    2.1781 H   0  0  0  0  0 15  0  0  0  0  0  0
   34.8405    4.3995    2.1046 H   0  0  0  0  0 15  0  0  0  0  0  0
   33.8455    5.4974    0.0781 H   0  0  0  0  0 15  0  0  0  0  0  0
   35.0705    6.7888    0.1711 H   0  0  0  0  0 15  0  0  0  0  0  0
   33.0165    6.1367    2.3183 H   0  0  0  0  0 15  0  0  0  0  0  0
   32.9335    7.4632    1.2060 H   0  0  0  0  0 15  0  0  0  0  0  0
   34.2015    7.4182    2.3943 H   0  0  0  0  0 15  0  0  0  0  0  0
   38.4306    0.2974    1.5477 N   0  0  0  0  0 15  0  0  0  0  0  0
   39.3776   -0.5803    2.2339 C   0  0  0  0  0 15  0  0  0  0  0  0
   40.3476   -1.1324    1.2152 C   0  0  0  0  0 15  0  0  0  0  0  0
   41.5326   -1.1776    1.5013 O   0  0  0  0  0 15  0  0  0  0  0  0
   38.6726   -1.7480    2.9755 C   0  0  0  0  0 15  0  0  0  0  0  0
   37.7856   -1.2276    4.1419 C   0  0  0  0  0 15  0  0  0  0  0  0
   36.9206   -2.3589    4.7595 C   0  0  0  0  0 15  0  0  0  0  0  0
   35.9596   -1.8097    5.8473 C   0  0  0  0  0 15  0  0  0  0  0  0
   35.0966   -2.8766    6.4046 N   0  0  0  0  0 15  0  0  0  0  0  0
   39.9366    0.0115    2.9800 H   0  0  0  0  0 15  0  0  0  0  0  0
   37.4736    0.0174    1.4709 H   0  0  0  0  0 15  0  0  0  0  0  0
   39.4316   -2.4348    3.3879 H   0  0  0  0  0 15  0  0  0  0  0  0
   38.0616   -2.3115    2.2533 H   0  0  0  0  0 15  0  0  0  0  0  0
   37.1136   -0.4333    3.7792 H   0  0  0  0  0 15  0  0  0  0  0  0
   38.4256   -0.7856    4.9258 H   0  0  0  0  0 15  0  0  0  0  0  0
   37.5796   -3.1252    5.2001 H   0  0  0  0  0 15  0  0  0  0  0  0
   36.3186   -2.8343    3.9689 H   0  0  0  0  0 15  0  0  0  0  0  0
   35.3236   -1.0283    5.4010 H   0  0  0  0  0 15  0  0  0  0  0  0
   36.5486   -1.3435    6.6568 H   0  0  0  0  0 15  0  0  0  0  0  0
   34.4946   -3.3454    5.6429 H   0  0  0  0  0 15  0  0  0  0  0  0
   34.4116   -2.4794    7.1419 H   0  0  0  0  0 15  0  0  0  0  0  0
   35.6796   -3.6420    6.8919 H   0  0  0  0  0 15  0  0  0  0  0  0
   39.9087   -1.5758    0.0251 N   0  0  0  0  0 15  0  0  0  0  0  0
   40.8717   -2.0890   -0.9431 C   0  0  0  0  0 15  0  0  0  0  0  0
   41.8717   -1.0032   -1.2567 C   0  0  0  0  0 15  0  0  0  0  0  0
   43.0617   -1.2650   -1.1977 O   0  0  0  0  0 15  0  0  0  0  0  0
   40.1937   -2.5514   -2.2609 C   0  0  0  0  0 15  0  0  0  0  0  0
   41.3867   -2.9572   -0.4988 H   0  0  0  0  0 15  0  0  0  0  0  0
   38.9397   -1.5470   -0.2229 H   0  0  0  0  0 15  0  0  0  0  0  0
   39.6747   -1.7163   -2.7516 H   0  0  0  0  0 15  0  0  0  0  0  0
   39.4597   -3.3446   -2.0464 H   0  0  0  0  0 15  0  0  0  0  0  0
   40.9497   -2.9508   -2.9549 H   0  0  0  0  0 15  0  0  0  0  0  0
   41.3868    0.2480   -1.5564 N   0  0  0  0  0 15  0  0  0  0  0  0
   42.3498    1.2904   -1.8942 C   0  0  0  0  0 15  0  0  0  0  0  0
   43.3498    1.4113   -0.7706 C   0  0  0  0  0 15  0  0  0  0  0  0
   44.5398    1.3985   -1.0386 O   0  0  0  0  0 15  0  0  0  0  0  0
   41.6718    2.6683   -2.1216 C   0  0  0  0  0 15  0  0  0  0  0  0
   42.8648    1.0031   -2.8263 H   0  0  0  0  0 15  0  0  0  0  0  0
   40.4178    0.4873   -1.4851 H   0  0  0  0  0 15  0  0  0  0  0  0
   41.1528    3.0071   -1.2142 H   0  0  0  0  0 15  0  0  0  0  0  0
   40.9378    2.5944   -2.9400 H   0  0  0  0  0 15  0  0  0  0  0  0
   42.4278    3.4210   -2.3949 H   0  0  0  0  0 15  0  0  0  0  0  0
   42.8649    1.4899    0.5136 N   0  0  0  0  0 15  0  0  0  0  0  0
   44.0949    1.6130    1.2910 C   0  0  0  0  0 15  0  0  0  0  0  0
   44.5029    0.2787    1.8714 C   0  0  0  0  0 15  0  0  0  0  0  0
   43.8459   -0.7443    1.6794 O   0  0  0  0  0 15  0  0  0  0  0  0
   43.9079    2.6133    2.4688 C   0  0  0  0  0 15  0  0  0  0  0  0
   43.5719    4.0599    2.0981 C   0  0  0  0  0 15  0  0  0  0  0  0
   44.5689    4.9318    1.6452 C   0  0  0  0  0 15  0  0  0  0  0  0
   42.2539    4.5164    2.1983 C   0  0  0  0  0 15  0  0  0  0  0  0
   44.2479    6.2406    1.2974 C   0  0  0  0  0 15  0  0  0  0  0  0
   41.9349    5.8253    1.8466 C   0  0  0  0  0 15  0  0  0  0  0  0
   42.9329    6.6856    1.3969 C   0  0  0  0  0 15  0  0  0  0  0  0
   42.6209    7.9701    1.0499 O   0  0  0  0  0 15  0  0  0  0  0  0
   42.3529    0.5462    0.3982 H   0  0  0  0  0 15  0  0  0  0  0  0
   44.9069    1.9567    0.6246 H   0  0  0  0  0 15  0  0  0  0  0  0
   43.1369    2.2210    3.1655 H   0  0  0  0  0 15  0  0  0  0  0  0
   44.8259    2.6329    3.0892 H   0  0  0  0  0 15  0  0  0  0  0  0
   45.5919    4.5915    1.5623 H   0  0  0  0  0 15  0  0  0  0  0  0
   41.4709    3.8486    2.5379 H   0  0  0  0  0 15  0  0  0  0  0  0
   45.0149    6.9116    0.9457 H   0  0  0  0  0 15  0  0  0  0  0  0
   40.9119    6.1610    1.9259 H   0  0  0  0  0 15  0  0  0  0  0  0
   41.6799    8.0991    1.1825 H   0  0  0  0  0 15  0  0  0  0  0  0
   44.3430   -0.7638    1.3786 N   0  0  0  0  0 15  0  0  0  0  0  0
   45.3060   -1.8589    1.3408 C   0  0  0  0  0 15  0  0  0  0  0  0
   46.3060   -1.5895    0.2433 C   0  0  0  0  0 15  0  0  0  0  0  0
   47.4960   -1.6688    0.4996 O   0  0  0  0  0 15  0  0  0  0  0  0
   44.6280   -3.2318    1.0849 C   0  0  0  0  0 15  0  0  0  0  0  0
   45.8210   -1.9065    2.3150 H   0  0  0  0  0 15  0  0  0  0  0  0
   43.3740   -0.9644    1.2300 H   0  0  0  0  0 15  0  0  0  0  0  0
   44.1090   -3.2409    0.1163 H   0  0  0  0  0 15  0  0  0  0  0  0
   43.8940   -3.4412    1.8794 H   0  0  0  0  0 15  0  0  0  0  0  0
   45.3840   -4.0325    1.0852 H   0  0  0  0  0 15  0  0  0  0  0  0
   45.8211   -1.2256   -0.9908 N   0  0  0  0  0 15  0  0  0  0  0  0
   46.7681   -0.9975   -2.0813 C   0  0  0  0  0 15  0  0  0  0  0  0
   47.7381    0.0815   -1.6590 C   0  0  0  0  0 15  0  0  0  0  0  0
   48.9231   -0.0685   -1.9068 O   0  0  0  0  0 15  0  0  0  0  0  0
   46.0631   -0.5836   -3.4013 C   0  0  0  0  0 15  0  0  0  0  0  0
   45.1761   -1.7336   -3.9569 C   0  0  0  0  0 15  0  0  0  0  0  0
   44.3111   -1.2675   -5.1586 C   0  0  0  0  0 15  0  0  0  0  0  0
   43.3501   -2.3889   -5.6356 C   0  0  0  0  0 15  0  0  0  0  0  0
   42.4871   -1.9331   -6.7496 N   0  0  0  0  0 15  0  0  0  0  0  0
   47.3271   -1.9310   -2.2697 H   0  0  0  0  0 15  0  0  0  0  0  0
   44.8641   -0.9621   -1.1127 H   0  0  0  0  0 15  0  0  0  0  0  0
   46.8221   -0.3248   -4.1593 H   0  0  0  0  0 15  0  0  0  0  0  0
   45.4521    0.3128   -3.2128 H   0  0  0  0  0 15  0  0  0  0  0  0
   44.5041   -2.1067   -3.1674 H   0  0  0  0  0 15  0  0  0  0  0  0
   45.8161   -2.5770   -4.2707 H   0  0  0  0  0 15  0  0  0  0  0  0
   44.9701   -0.9662   -5.9896 H   0  0  0  0  0 15  0  0  0  0  0  0
   43.7091   -0.3943   -4.8610 H   0  0  0  0  0 15  0  0  0  0  0  0
   42.7141   -2.6981   -4.7905 H   0  0  0  0  0 15  0  0  0  0  0  0
   43.9391   -3.2673   -5.9534 H   0  0  0  0  0 15  0  0  0  0  0  0
   41.8851   -1.0835   -6.4699 H   0  0  0  0  0 15  0  0  0  0  0  0
   41.8021   -2.7122   -7.0568 H   0  0  0  0  0 15  0  0  0  0  0  0
   43.0701   -1.6625   -7.6156 H   0  0  0  0  0 15  0  0  0  0  0  0
   47.2992    1.1880   -1.0356 N   0  0  0  0  0 15  0  0  0  0  0  0
   48.2622    2.2046   -0.6268 C   0  0  0  0  0 15  0  0  0  0  0  0
   49.2622    1.5772    0.3132 C   0  0  0  0  0 15  0  0  0  0  0  0
   50.4522    1.7392    0.0993 O   0  0  0  0  0 15  0  0  0  0  0  0
   47.5842    3.4080    0.0818 C   0  0  0  0  0 15  0  0  0  0  0  0
   48.7772    2.5815   -1.5264 H   0  0  0  0  0 15  0  0  0  0  0  0
   46.3302    1.3259   -0.8276 H   0  0  0  0  0 15  0  0  0  0  0  0
   47.0652    3.0864    0.9955 H   0  0  0  0  0 15  0  0  0  0  0  0
   46.8502    3.8758   -0.5937 H   0  0  0  0  0 15  0  0  0  0  0  0
   48.3402    4.1609    0.3546 H   0  0  0  0  0 15  0  0  0  0  0  0
   48.7773    0.8144    1.3493 N   0  0  0  0  0 15  0  0  0  0  0  0
   49.7243    0.2282    2.2967 C   0  0  0  0  0 15  0  0  0  0  0  0
   50.6943   -0.6422    1.5318 C   0  0  0  0  0 15  0  0  0  0  0  0
   51.8793   -0.5856    1.8159 O   0  0  0  0  0 15  0  0  0  0  0  0
   49.0193   -0.6109    3.3965 C   0  0  0  0  0 15  0  0  0  0  0  0
   48.1323    0.2808    4.3109 C   0  0  0  0  0 15  0  0  0  0  0  0
   47.2673   -0.5671    5.2816 C   0  0  0  0  0 15  0  0  0  0  0  0
   46.3063    0.3245    6.1124 C   0  0  0  0  0 15  0  0  0  0  0  0
   45.4433   -0.4838    7.0043 N   0  0  0  0  0 15  0  0  0  0  0  0
   50.2833    1.0415    2.7921 H   0  0  0  0  0 15  0  0  0  0  0  0
   47.8203    0.5251    1.3741 H   0  0  0  0  0 15  0  0  0  0  0  0
   49.7783   -1.1126    4.0209 H   0  0  0  0  0 15  0  0  0  0  0  0
   48.4083   -1.3894    2.9137 H   0  0  0  0  0 15  0  0  0  0  0  0
   47.4603    0.9007    3.6958 H   0  0  0  0  0 15  0  0  0  0  0  0
   48.7723    0.9667    4.8934 H   0  0  0  0  0 15  0  0  0  0  0  0
   47.9263   -1.1336    5.9601 H   0  0  0  0  0 15  0  0  0  0  0  0
   46.6653   -1.2865    4.7042 H   0  0  0  0  0 15  0  0  0  0  0  0
   45.6703    0.9033    5.4233 H   0  0  0  0  0 15  0  0  0  0  0  0
   46.8953    1.0420    6.7106 H   0  0  0  0  0 15  0  0  0  0  0  0
   44.8413   -1.1871    6.4517 H   0  0  0  0  0 15  0  0  0  0  0  0
   44.7583    0.1440    7.5586 H   0  0  0  0  0 15  0  0  0  0  0  0
   46.0263   -1.0333    7.7262 H   0  0  0  0  0 15  0  0  0  0  0  0
   50.2554   -1.4699    0.5686 N   0  0  0  0  0 15  0  0  0  0  0  0
   51.2184   -2.2862   -0.1624 C   0  0  0  0  0 15  0  0  0  0  0  0
   52.2184   -1.3760   -0.8321 C   0  0  0  0  0 15  0  0  0  0  0  0
   53.4084   -1.6011   -0.6862 O   0  0  0  0  0 15  0  0  0  0  0  0
   50.5404   -3.1760   -1.2388 C   0  0  0  0  0 15  0  0  0  0  0  0
   51.7334   -2.9472    0.5549 H   0  0  0  0  0 15  0  0  0  0  0  0
   49.2864   -1.5286    0.3260 H   0  0  0  0  0 15  0  0  0  0  0  0
   50.0214   -2.5621   -1.9881 H   0  0  0  0  0 15  0  0  0  0  0  0
   49.8064   -3.8460   -0.7632 H   0  0  0  0  0 15  0  0  0  0  0  0
   51.2964   -3.7908   -1.7519 H   0  0  0  0  0 15  0  0  0  0  0  0
   51.7335   -0.3056   -1.5461 N   0  0  0  0  0 15  0  0  0  0  0  0
   52.6965    0.5556   -2.2236 C   0  0  0  0  0 15  0  0  0  0  0  0
   53.6965    1.0577   -1.2112 C   0  0  0  0  0 15  0  0  0  0  0  0
   54.8865    0.9530   -1.4582 O   0  0  0  0  0 15  0  0  0  0  0  0
   52.0185    1.7697   -2.9136 C   0  0  0  0  0 15  0  0  0  0  0  0
   53.2115   -0.0365   -2.9988 H   0  0  0  0  0 15  0  0  0  0  0  0
   50.7645   -0.0565   -1.5620 H   0  0  0  0  0 15  0  0  0  0  0  0
   51.4995    2.4015   -2.1794 H   0  0  0  0  0 15  0  0  0  0  0  0
   51.2845    1.4173   -3.6559 H   0  0  0  0  0 15  0  0  0  0  0  0
   52.7745    2.3815   -3.4304 H   0  0  0  0  0 15  0  0  0  0  0  0
   53.2116    1.5756   -0.0334 N   0  0  0  0  0 15  0  0  0  0  0  0
   54.1586    2.1048    0.9470 C   0  0  0  0  0 15  0  0  0  0  0  0
   55.1286    1.0079    1.3203 C   0  0  0  0  0 15  0  0  0  0  0  0
   56.3136    1.2823    1.4128 O   0  0  0  0  0 15  0  0  0  0  0  0
   53.4536    2.6399    2.2226 C   0  0  0  0  0 15  0  0  0  0  0  0
   52.5666    3.8771    1.9054 C   0  0  0  0  0 15  0  0  0  0  0  0
   51.7016    4.2960    3.1243 C   0  0  0  0  0 15  0  0  0  0  0  0
   50.7406    5.4606    2.7655 C   0  0  0  0  0 15  0  0  0  0  0  0
   49.8776    5.8310    3.9108 N   0  0  0  0  0 15  0  0  0  0  0  0
   54.7176    2.9396    0.4888 H   0  0  0  0  0 15  0  0  0  0  0  0
   52.2546    1.4530    0.2297 H   0  0  0  0  0 15  0  0  0  0  0  0
   54.2126    2.9311    2.9688 H   0  0  0  0  0 15  0  0  0  0  0  0
   52.8426    1.8333    2.6569 H   0  0  0  0  0 15  0  0  0  0  0  0
   51.8946    3.6529    1.0614 H   0  0  0  0  0 15  0  0  0  0  0  0
   53.2066    4.7240    1.6012 H   0  0  0  0  0 15  0  0  0  0  0  0
   52.3606    4.6018    3.9537 H   0  0  0  0  0 15  0  0  0  0  0  0
   51.0996    3.4369    3.4602 H   0  0  0  0  0 15  0  0  0  0  0  0
   50.1046    5.1518    1.9203 H   0  0  0  0  0 15  0  0  0  0  0  0
   51.3296    6.3369    2.4417 H   0  0  0  0  0 15  0  0  0  0  0  0
   49.2756    5.0013    4.2450 H   0  0  0  0  0 15  0  0  0  0  0  0
   49.1926    6.6244    3.6429 H   0  0  0  0  0 15  0  0  0  0  0  0
   50.4606    6.1828    4.7471 H   0  0  0  0  0 15  0  0  0  0  0  0
   54.6897   -0.2398    1.5577 N   0  0  0  0  0 15  0  0  0  0  0  0
   55.9197   -0.9827    1.8173 C   0  0  0  0  0 15  0  0  0  0  0  0
   56.3277   -1.7917    0.6078 C   0  0  0  0  0 15  0  0  0  0  0  0
   55.6707   -1.7852   -0.4330 O   0  0  0  0  0 15  0  0  0  0  0  0
   55.7327   -1.9633    3.0115 C   0  0  0  0  0 15  0  0  0  0  0  0
   55.3967   -1.3406    4.3689 C   0  0  0  0  0 15  0  0  0  0  0  0
   56.3937   -0.7395    5.1461 C   0  0  0  0  0 15  0  0  0  0  0  0
   54.0787   -1.3578    4.8360 C   0  0  0  0  0 15  0  0  0  0  0  0
   56.0727   -0.1640    6.3719 C   0  0  0  0  0 15  0  0  0  0  0  0
   53.7597   -0.7784    6.0612 C   0  0  0  0  0 15  0  0  0  0  0  0
   54.7577   -0.1825    6.8276 C   0  0  0  0  0 15  0  0  0  0  0  0
   54.4457    0.3879    8.0296 O   0  0  0  0  0 15  0  0  0  0  0  0
   54.1777   -0.2945    0.6085 H   0  0  0  0  0 15  0  0  0  0  0  0
   56.7317   -0.2657    2.0367 H   0  0  0  0  0 15  0  0  0  0  0  0
   54.9617   -2.7188    2.7498 H   0  0  0  0  0 15  0  0  0  0  0  0
   56.6507   -2.5703    3.1415 H   0  0  0  0  0 15  0  0  0  0  0  0
   57.4167   -0.7187    4.7965 H   0  0  0  0  0 15  0  0  0  0  0  0
   53.2957   -1.8110    4.2394 H   0  0  0  0  0 15  0  0  0  0  0  0
   56.8397    0.3018    6.9695 H   0  0  0  0  0 15  0  0  0  0  0  0
   52.7367   -0.7966    6.4057 H   0  0  0  0  0 15  0  0  0  0  0  0
   53.5047    0.2804    8.1802 H   0  0  0  0  0 15  0  0  0  0  0  0
   56.1678   -1.4927   -0.5057 N   0  0  0  0  0 15  0  0  0  0  0  0
   57.0778   -1.6831   -1.6343 C   0  0  0  0  0 15  0  0  0  0  0  0
   58.0938   -0.5657   -1.6455 C   0  0  0  0  0 15  0  0  0  0  0  0
   59.2698   -0.8398   -1.8306 O   0  0  0  0  0 15  0  0  0  0  0  0
   56.3348   -1.7411   -2.9981 C   0  0  0  0  0 15  0  0  0  0  0  0
   55.3958   -2.9765   -3.0936 C   0  0  0  0  0 15  0  0  0  0  0  0
   54.6288   -3.0316   -4.3924 C   0  0  0  0  0 15  0  0  0  0  0  0
   54.8518   -2.1640   -5.2776 O   0  0  0  0  0 15  0  0  0  0  0  0
   53.7858   -3.9558   -4.5365 O   0  0  0  0  0 15  0  0  0  0  0  0
   57.6118   -2.6391   -1.5029 H   0  0  0  0  0 15  0  0  0  0  0  0
   55.1968   -1.3295   -0.6815 H   0  0  0  0  0 15  0  0  0  0  0  0
   57.0788   -1.8030   -3.8088 H   0  0  0  0  0 15  0  0  0  0  0  0
   55.7538   -0.8169   -3.1322 H   0  0  0  0  0 15  0  0  0  0  0  0
   54.6608   -2.9698   -2.2749 H   0  0  0  0  0 15  0  0  0  0  0  0
   55.9938   -3.8953   -3.0087 H   0  0  0  0  0 15  0  0  0  0  0  0
   57.6459    0.7564   -1.3826 N   0  0  0  0  0 15  0  0  0  0  0  0
   58.5929    1.8701   -1.3526 C   0  0  0  0  0 15  0  0  0  0  0  0
   59.5629    1.6469   -0.2156 C   0  0  0  0  0 15  0  0  0  0  0  0
   60.7479    1.8640   -0.4074 O   0  0  0  0  0 15  0  0  0  0  0  0
   57.8879    3.2427   -1.1807 C   0  0  0  0  0 15  0  0  0  0  0  0
   57.0009    3.5844   -2.4113 C   0  0  0  0  0 15  0  0  0  0  0  0
   56.1359    4.8499   -2.1669 C   0  0  0  0  0 15  0  0  0  0  0  0
   55.1749    5.1194   -3.3554 C   0  0  0  0  0 15  0  0  0  0  0  0
   54.3119    6.2969   -3.1055 N   0  0  0  0  0 15  0  0  0  0  0  0
   59.1519    1.8891   -2.3047 H   0  0  0  0  0 15  0  0  0  0  0  0
   56.6889    0.9234   -1.1451 H   0  0  0  0  0 15  0  0  0  0  0  0
   58.6469    4.0348   -1.0612 H   0  0  0  0  0 15  0  0  0  0  0  0
   57.2769    3.2171   -0.2650 H   0  0  0  0  0 15  0  0  0  0  0  0
   56.3289    2.7410   -2.6376 H   0  0  0  0  0 15  0  0  0  0  0  0
   57.6409    3.7428   -3.2972 H   0  0  0  0  0 15  0  0  0  0  0  0
   56.7949    5.7214   -2.0186 H   0  0  0  0  0 15  0  0  0  0  0  0
   55.5339    4.7129   -1.2546 H   0  0  0  0  0 15  0  0  0  0  0  0
   54.5389    4.2327   -3.5089 H   0  0  0  0  0 15  0  0  0  0  0  0
   55.7639    5.2755   -4.2764 H   0  0  0  0  0 15  0  0  0  0  0  0
   53.7099    6.1731   -2.2197 H   0  0  0  0  0 15  0  0  0  0  0  0
   53.6269    6.4601   -3.9269 H   0  0  0  0  0 15  0  0  0  0  0  0
   54.8949    7.1972   -2.9937 H   0  0  0  0  0 15  0  0  0  0  0  0
   59.1240    1.2308    0.9843 N   0  0  0  0  0 15  0  0  0  0  0  0
   60.0710    1.0085    2.0760 C   0  0  0  0  0 15  0  0  0  0  0  0
   61.0410   -0.0727    1.6594 C   0  0  0  0  0 15  0  0  0  0  0  0
   62.2260    0.0787    1.9064 O   0  0  0  0  0 15  0  0  0  0  0  0
   59.3660    0.6016    3.3982 C   0  0  0  0  0 15  0  0  0  0  0  0
   58.4790    1.7546    3.9476 C   0  0  0  0  0 15  0  0  0  0  0  0
   57.6140    1.2948    5.1518 C   0  0  0  0  0 15  0  0  0  0  0  0
   56.6530    2.4187    5.6228 C   0  0  0  0  0 15  0  0  0  0  0  0
   55.7900    1.9688    6.7393 N   0  0  0  0  0 15  0  0  0  0  0  0
   60.6300    1.9430    2.2595 H   0  0  0  0  0 15  0  0  0  0  0  0
   58.1670    0.9680    1.1076 H   0  0  0  0  0 15  0  0  0  0  0  0
   60.1250    0.3469    4.1576 H   0  0  0  0  0 15  0  0  0  0  0  0
   58.7550   -0.2958    3.2144 H   0  0  0  0  0 15  0  0  0  0  0  0
   57.8070    2.1235    3.1562 H   0  0  0  0  0 15  0  0  0  0  0  0
   59.1190    2.5997    4.2570 H   0  0  0  0  0 15  0  0  0  0  0  0
   58.2730    0.9979    5.9844 H   0  0  0  0  0 15  0  0  0  0  0  0
   57.0120    0.4200    4.8589 H   0  0  0  0  0 15  0  0  0  0  0  0
   56.0170    2.7234    4.7761 H   0  0  0  0  0 15  0  0  0  0  0  0
   57.2420    3.2988    5.9360 H   0  0  0  0  0 15  0  0  0  0  0  0
   55.1880    1.1178    6.4641 H   0  0  0  0  0 15  0  0  0  0  0  0
   55.1050    2.7496    7.0423 H   0  0  0  0  0 15  0  0  0  0  0  0
   56.3730    1.7029    7.6067 H   0  0  0  0  0 15  0  0  0  0  0  0
   60.6021   -1.1825    1.0419 N   0  0  0  0  0 15  0  0  0  0  0  0
   61.5651   -2.2013    0.6385 C   0  0  0  0  0 15  0  0  0  0  0  0
   62.5651   -1.5788   -0.3048 C   0  0  0  0  0 15  0  0  0  0  0  0
   63.7551   -1.7397   -0.0900 O   0  0  0  0  0 15  0  0  0  0  0  0
   60.8871   -3.4084   -0.0638 C   0  0  0  0  0 15  0  0  0  0  0  0
   62.0801   -2.5734    1.5401 H   0  0  0  0  0 15  0  0  0  0  0  0
   59.6331   -1.3215    0.8346 H   0  0  0  0  0 15  0  0  0  0  0  0
   60.3681   -3.0917   -0.9791 H   0  0  0  0  0 15  0  0  0  0  0  0
   60.1531   -3.8726    0.6142 H   0  0  0  0  0 15  0  0  0  0  0  0
   61.6431   -4.1627   -0.3325 H   0  0  0  0  0 15  0  0  0  0  0  0
   62.0802   -0.8215   -1.3449 N   0  0  0  0  0 15  0  0  0  0  0  0
   63.0272   -0.2404   -2.2954 C   0  0  0  0  0 15  0  0  0  0  0  0
   63.9972    0.6340   -1.5352 C   0  0  0  0  0 15  0  0  0  0  0  0
   65.1822    0.5760   -1.8190 O   0  0  0  0  0 15  0  0  0  0  0  0
   62.3222    0.5929   -3.3997 C   0  0  0  0  0 15  0  0  0  0  0  0
   61.4352   -0.3036   -4.3093 C   0  0  0  0  0 15  0  0  0  0  0  0
   60.5702    0.5390   -5.2846 C   0  0  0  0  0 15  0  0  0  0  0  0
   59.6092   -0.3569   -6.1106 C   0  0  0  0  0 15  0  0  0  0  0  0
   58.7462    0.4466   -7.0068 N   0  0  0  0  0 15  0  0  0  0  0  0
   63.5862   -1.0563   -2.7865 H   0  0  0  0  0 15  0  0  0  0  0  0
   61.1232   -0.5324   -1.3713 H   0  0  0  0  0 15  0  0  0  0  0  0
   63.0812    1.0913   -4.0267 H   0  0  0  0  0 15  0  0  0  0  0  0
   61.7112    1.3739   -2.9210 H   0  0  0  0  0 15  0  0  0  0  0  0
   60.7632   -0.9203   -3.6910 H   0  0  0  0  0 15  0  0  0  0  0  0
   62.0752   -0.9927   -4.8882 H   0  0  0  0  0 15  0  0  0  0  0  0
   61.2292    1.1020   -5.9661 H   0  0  0  0  0 15  0  0  0  0  0  0
   59.9682    1.2616   -4.7110 H   0  0  0  0  0 15  0  0  0  0  0  0
   58.9732   -0.9320   -5.4184 H   0  0  0  0  0 15  0  0  0  0  0  0
   60.1982   -1.0776   -6.7050 H   0  0  0  0  0 15  0  0  0  0  0  0
   58.1442    1.1528   -6.4579 H   0  0  0  0  0 15  0  0  0  0  0  0
   58.0612   -0.1840   -7.5578 H   0  0  0  0  0 15  0  0  0  0  0  0
   59.3292    0.9924   -7.7316 H   0  0  0  0  0 15  0  0  0  0  0  0
   63.5583    1.4668   -0.5764 N   0  0  0  0  0 15  0  0  0  0  0  0
   64.5053    2.3024    0.1605 C   0  0  0  0  0 15  0  0  0  0  0  0
   65.4753    1.4023    0.8902 C   0  0  0  0  0 15  0  0  0  0  0  0
   66.6603    1.6919    0.8821 O   0  0  0  0  0 15  0  0  0  0  0  0
   63.8003    3.2458    1.1723 C   0  0  0  0  0 15  0  0  0  0  0  0
   62.9133    4.2968    0.4467 C   0  0  0  0  0 15  0  0  0  0  0  0
   62.0483    5.1115    1.4455 C   0  0  0  0  0 15  0  0  0  0  0  0
   61.0873    6.0801    0.7060 C   0  0  0  0  0 15  0  0  0  0  0  0
   60.2243    6.8238    1.6525 N   0  0  0  0  0 15  0  0  0  0  0  0
   65.0643    2.9273   -0.5581 H   0  0  0  0  0 15  0  0  0  0  0  0
   62.6013    1.4427   -0.2871 H   0  0  0  0  0 15  0  0  0  0  0  0
   64.5593    3.7771    1.7717 H   0  0  0  0  0 15  0  0  0  0  0  0
   63.1893    2.6392    1.8587 H   0  0  0  0  0 15  0  0  0  0  0  0
   62.2413    3.7946   -0.2676 H   0  0  0  0  0 15  0  0  0  0  0  0
   63.5533    4.9863   -0.1317 H   0  0  0  0  0 15  0  0  0  0  0  0
   62.7073    5.6853    2.1179 H   0  0  0  0  0 15  0  0  0  0  0  0
   61.4463    4.4216    2.0579 H   0  0  0  0  0 15  0  0  0  0  0  0
   60.4513    5.4980    0.0198 H   0  0  0  0  0 15  0  0  0  0  0  0
   61.6763    6.7903    0.0991 H   0  0  0  0  0 15  0  0  0  0  0  0
   59.6223    6.1609    2.2531 H   0  0  0  0  0 15  0  0  0  0  0  0
   59.5393    7.4756    1.1267 H   0  0  0  0  0 15  0  0  0  0  0  0
   60.8073    7.4432    2.3155 H   0  0  0  0  0 15  0  0  0  0  0  0
   65.0364    0.3138    1.5444 N   0  0  0  0  0 15  0  0  0  0  0  0
   65.9994   -0.5438    2.2266 C   0  0  0  0  0 15  0  0  0  0  0  0
   66.9994   -1.0512    1.2168 C   0  0  0  0  0 15  0  0  0  0  0  0
   68.1894   -0.9452    1.4633 O   0  0  0  0  0 15  0  0  0  0  0  0
   65.3214   -1.7543    2.9230 C   0  0  0  0  0 15  0  0  0  0  0  0
   66.5144    0.0524    2.9985 H   0  0  0  0  0 15  0  0  0  0  0  0
   64.0674    0.0648    1.5617 H   0  0  0  0  0 15  0  0  0  0  0  0
   64.8024   -2.3899    2.1921 H   0  0  0  0  0 15  0  0  0  0  0  0
   64.5874   -1.3979    3.6633 H   0  0  0  0  0 15  0  0  0  0  0  0
   66.0774   -2.3633    3.4430 H   0  0  0  0  0 15  0  0  0  0  0  0
   66.5145   -1.5754    0.0418 N   0  0  0  0  0 15  0  0  0  0  0  0
   67.4775   -2.0988   -0.9209 C   0  0  0  0  0 15  0  0  0  0  0  0
   68.4775   -1.0165   -1.2460 C   0  0  0  0  0 15  0  0  0  0  0  0
   69.6675   -1.2776   -1.1842 O   0  0  0  0  0 15  0  0  0  0  0  0
   66.7995   -2.5753   -2.2337 C   0  0  0  0  0 15  0  0  0  0  0  0
   67.9925   -2.9624   -0.4674 H   0  0  0  0  0 15  0  0  0  0  0  0
   65.5455   -1.5493   -0.2065 H   0  0  0  0  0 15  0  0  0  0  0  0
   66.2805   -1.7454   -2.7332 H   0  0  0  0  0 15  0  0  0  0  0  0
   66.0655   -3.3661   -2.0108 H   0  0  0  0  0 15  0  0  0  0  0  0
   67.5555   -2.9820   -2.9235 H   0  0  0  0  0 15  0  0  0  0  0  0
   67.9926    0.2315   -1.5589 N   0  0  0  0  0 15  0  0  0  0  0  0
   68.9556    1.2703   -1.9078 C   0  0  0  0  0 15  0  0  0  0  0  0
   69.9556    1.4031   -0.7855 C   0  0  0  0  0 15  0  0  0  0  0  0
   71.1456    1.3874   -1.0534 O   0  0  0  0  0 15  0  0  0  0  0  0
   68.2776    2.6457   -2.1498 C   0  0  0  0  0 15  0  0  0  0  0  0
   69.4706    0.9730   -2.8368 H   0  0  0  0  0 15  0  0  0  0  0  0
   67.0236    0.4715   -1.4902 H   0  0  0  0  0 15  0  0  0  0  0  0
   67.7586    2.9941   -1.2460 H   0  0  0  0  0 15  0  0  0  0  0  0
   67.5436    2.5631   -2.9673 H   0  0  0  0  0 15  0  0  0  0  0  0
   69.0336    3.3954   -2.4311 H   0  0  0  0  0 15  0  0  0  0  0  0
   69.4707    1.4953    0.4978 N   0  0  0  0  0 15  0  0  0  0  0  0
   70.3807    1.6918    1.6253 C   0  0  0  0  0 15  0  0  0  0  0  0
   71.3967    0.5744    1.6425 C   0  0  0  0  0 15  0  0  0  0  0  0
   72.5727    0.8495    1.8261 O   0  0  0  0  0 15  0  0  0  0  0  0
   69.6377    1.7569    2.9889 C   0  0  0  0  0 15  0  0  0  0  0  0
   68.6987    2.9929    3.0777 C   0  0  0  0  0 15  0  0  0  0  0  0
   67.9317    3.0549    4.3762 C   0  0  0  0  0 15  0  0  0  0  0  0
   68.1547    2.1919    5.2660 O   0  0  0  0  0 15  0  0  0  0  0  0
   67.0887    3.9798    4.5155 O   0  0  0  0  0 15  0  0  0  0  0  0
   70.9147    2.6470    1.4889 H   0  0  0  0  0 15  0  0  0  0  0  0
   68.4997    1.3331    0.6744 H   0  0  0  0  0 15  0  0  0  0  0  0
   70.3817    1.8232    3.7992 H   0  0  0  0  0 15  0  0  0  0  0  0
   69.0567    0.8335    3.1279 H   0  0  0  0  0 15  0  0  0  0  0  0
   67.9637    2.9818    2.2591 H   0  0  0  0  0 15  0  0  0  0  0  0
   69.2967    3.9113    2.9880 H   0  0  0  0  0 15  0  0  0  0  0  0
   70.9488   -0.7491    1.3866 N   0  0  0  0  0 15  0  0  0  0  0  0
   72.1788   -1.5361    1.3816 C   0  0  0  0  0 15  0  0  0  0  0  0
   72.5868   -1.8918   -0.0294 C   0  0  0  0  0 15  0  0  0  0  0  0
   71.9298   -1.5361   -1.0075 O   0  0  0  0  0 15  0  0  0  0  0  0
   71.9918   -2.8609    2.1770 C   0  0  0  0  0 15  0  0  0  0  0  0
   71.6558   -2.7303    3.6647 C   0  0  0  0  0 15  0  0  0  0  0  0
   72.6528   -2.4253    4.5987 C   0  0  0  0  0 15  0  0  0  0  0  0
   70.3378   -2.9035    4.0988 C   0  0  0  0  0 15  0  0  0  0  0  0
   72.3318   -2.2949    5.9465 C   0  0  0  0  0 15  0  0  0  0  0  0
   70.0188   -2.7693    5.4475 C   0  0  0  0  0 15  0  0  0  0  0  0
   71.0168   -2.4655    6.3695 C   0  0  0  0  0 15  0  0  0  0  0  0
   70.7048   -2.3320    7.6933 O   0  0  0  0  0 15  0  0  0  0  0  0
   70.4368   -0.4818    0.4742 H   0  0  0  0  0 15  0  0  0  0  0  0
   72.9908   -0.9345    1.8291 H   0  0  0  0  0 15  0  0  0  0  0  0
   71.2208   -3.4846    1.6767 H   0  0  0  0  0 15  0  0  0  0  0  0
   72.9098   -3.4762    2.0955 H   0  0  0  0  0 15  0  0  0  0  0  0
   73.6758   -2.2882    4.2763 H   0  0  0  0  0 15  0  0  0  0  0  0
   69.5548   -3.1299    3.3846 H   0  0  0  0  0 15  0  0  0  0  0  0
   73.0988   -2.0570    6.6658 H   0  0  0  0  0 15  0  0  0  0  0  0
   68.9958   -2.9022    5.7658 H   0  0  0  0  0 15  0  0  0  0  0  0
   69.7638   -2.4838    7.7990 H   0  0  0  0  0 15  0  0  0  0  0  0
   72.4269   -1.2360   -0.9778 N   0  0  0  0  0 15  0  0  0  0  0  0
   73.3739   -1.0195   -2.0706 C   0  0  0  0  0 15  0  0  0  0  0  0
   74.3439    0.0639   -1.6598 C   0  0  0  0  0 15  0  0  0  0  0  0
   75.5289   -0.0888   -1.9059 O   0  0  0  0  0 15  0  0  0  0  0  0
   72.6689   -0.6197   -3.3949 C   0  0  0  0  0 15  0  0  0  0  0  0
   71.7819   -1.7755   -3.9383 C   0  0  0  0  0 15  0  0  0  0  0  0
   70.9169   -1.3221   -5.1448 C   0  0  0  0  0 15  0  0  0  0  0  0
   69.9559   -2.4485   -5.6099 C   0  0  0  0  0 15  0  0  0  0  0  0
   69.0929   -2.0046   -6.7288 N   0  0  0  0  0 15  0  0  0  0  0  0
   73.9329   -1.9550   -2.2491 H   0  0  0  0  0 15  0  0  0  0  0  0
   71.4699   -0.9739   -1.1025 H   0  0  0  0  0 15  0  0  0  0  0  0
   73.4279   -0.3689   -4.1557 H   0  0  0  0  0 15  0  0  0  0  0  0
   72.0579    0.2788   -3.2159 H   0  0  0  0  0 15  0  0  0  0  0  0
   71.1099   -2.1402   -3.1449 H   0  0  0  0  0 15  0  0  0  0  0  0
   72.4219   -2.6222   -4.2431 H   0  0  0  0  0 15  0  0  0  0  0  0
   71.5759   -1.0296   -5.9790 H   0  0  0  0  0 15  0  0  0  0  0  0
   70.3149   -0.4458   -4.8566 H   0  0  0  0  0 15  0  0  0  0  0  0
   69.3199   -2.7487   -4.7616 H   0  0  0  0  0 15  0  0  0  0  0  0
   70.5449   -3.3302   -5.9184 H   0  0  0  0  0 15  0  0  0  0  0  0
   68.4909   -1.1521   -6.4580 H   0  0  0  0  0 15  0  0  0  0  0  0
   68.4079   -2.7869   -7.0276 H   0  0  0  0  0 15  0  0  0  0  0  0
   69.6759   -1.7432   -7.5976 H   0  0  0  0  0 15  0  0  0  0  0  0
   73.9050    1.1769   -1.0482 N   0  0  0  0  0 15  0  0  0  0  0  0
   74.8520    2.2158   -0.6458 C   0  0  0  0  0 15  0  0  0  0  0  0
   75.8220    1.6237    0.3502 C   0  0  0  0  0 15  0  0  0  0  0  0
   77.0070    1.8925    0.2424 O   0  0  0  0  0 15  0  0  0  0  0  0
   74.1470    3.4509   -0.0228 C   0  0  0  0  0 15  0  0  0  0  0  0
   73.2600    4.1861   -1.0671 C   0  0  0  0  0 15  0  0  0  0  0  0
   72.3950    5.2960   -0.4118 C   0  0  0  0  0 15  0  0  0  0  0  0
   71.4340    5.9490   -1.4407 C   0  0  0  0  0 15  0  0  0  0  0  0
   70.5710    6.9741   -0.8098 N   0  0  0  0  0 15  0  0  0  0  0  0
   75.4110    2.5535   -1.5362 H   0  0  0  0  0 15  0  0  0  0  0  0
   72.9480    1.2544   -0.7684 H   0  0  0  0  0 15  0  0  0  0  0  0
   74.9060    4.1568    0.3559 H   0  0  0  0  0 15  0  0  0  0  0  0
   73.5360    3.1192    0.8311 H   0  0  0  0  0 15  0  0  0  0  0  0
   72.5880    3.4678   -1.5636 H   0  0  0  0  0 15  0  0  0  0  0  0
   73.9000    4.6329   -1.8483 H   0  0  0  0  0 15  0  0  0  0  0  0
   73.0540    6.0670    0.0207 H   0  0  0  0  0 15  0  0  0  0  0  0
   71.7930    4.8605    0.4014 H   0  0  0  0  0 15  0  0  0  0  0  0
   70.7980    5.1654   -1.8832 H   0  0  0  0  0 15  0  0  0  0  0  0
   72.0230    6.4054   -2.2557 H   0  0  0  0  0 15  0  0  0  0  0  0
   69.9690    6.5600   -0.0170 H   0  0  0  0  0 15  0  0  0  0  0  0
   69.8860    7.4039   -1.5286 H   0  0  0  0  0 15  0  0  0  0  0  0
   71.1540    7.7846   -0.4020 H   0  0  0  0  0 15  0  0  0  0  0  0
   75.3831    0.8287    1.3406 N   0  0  0  0  0 15  0  0  0  0  0  0
   76.3301    0.2526    2.2941 C   0  0  0  0  0 15  0  0  0  0  0  0
   77.3001   -0.6259    1.5386 C   0  0  0  0  0 15  0  0  0  0  0  0
   78.4851   -0.5663    1.8220 O   0  0  0  0  0 15  0  0  0  0  0  0
   75.6251   -0.5748    3.4028 C   0  0  0  0  0 15  0  0  0  0  0  0
   74.7381    0.3265    4.3076 C   0  0  0  0  0 15  0  0  0  0  0  0
   73.8731   -0.5110    5.2874 C   0  0  0  0  0 15  0  0  0  0  0  0
   72.9121    0.3893    6.1086 C   0  0  0  0  0 15  0  0  0  0  0  0
   72.0491   -0.4094    7.0091 N   0  0  0  0  0 15  0  0  0  0  0  0
   76.8891    1.0711    2.7809 H   0  0  0  0  0 15  0  0  0  0  0  0
   74.4261    0.5397    1.3684 H   0  0  0  0  0 15  0  0  0  0  0  0
   76.3841   -1.0699    4.0325 H   0  0  0  0  0 15  0  0  0  0  0  0
   75.0141   -1.3584    2.9283 H   0  0  0  0  0 15  0  0  0  0  0  0
   74.0661    0.9398    3.6861 H   0  0  0  0  0 15  0  0  0  0  0  0
   75.3781    1.0186    4.8829 H   0  0  0  0  0 15  0  0  0  0  0  0
   74.5321   -1.0703    5.9718 H   0  0  0  0  0 15  0  0  0  0  0  0
   73.2711   -1.2366    4.7176 H   0  0  0  0  0 15  0  0  0  0  0  0
   72.2761    0.9608    5.4134 H   0  0  0  0  0 15  0  0  0  0  0  0
   73.5011    1.1131    6.6992 H   0  0  0  0  0 15  0  0  0  0  0  0
   71.4471   -1.1186    6.4639 H   0  0  0  0  0 15  0  0  0  0  0  0
   71.3641    0.2241    7.5567 H   0  0  0  0  0 15  0  0  0  0  0  0
   72.6321   -0.9513    7.7367 H   0  0  0  0  0 15  0  0  0  0  0  0
   76.9001   -1.4432    0.7248 O   0  0  0  0  0 15  0  0  0  0  0  0
   77.5911   -1.9177    0.2731 H   0  0  0  0  0 15  0  0  0  0  0  0
M  END
$$$$
