drugbank_drug|DB05332 Amino acid sequence for Fc fusion compound
 OpenBabel12092119133D

  0  0  0     0  0            999 V3000
M  V30 BEGIN CTAB
M  V30 COUNTS 4133 4191 0 0 0
M  V30 BEGIN ATOM
M  V30 1 H -0.908 1.98254 -0.117106 0
M  V30 2 N 0 1.576 0 0
M  V30 3 C 0.933 2.03868 1.02534 0
M  V30 4 C 1.911 0.928543 1.3348 0
M  V30 5 O 3.095 1.19667 1.45644 0
M  V30 6 C 0.222 2.43627 2.35294 0
M  V30 7 C -0.732 3.65373 2.2001 0
M  V30 8 S 0.101 5.13292 1.52614 0
M  V30 9 C 1.257 5.56322 2.86805 0
M  V30 10 H 1.49 2.90518 0.631377 0
M  V30 11 H -0.977 1.52953 0.210867 0
M  V30 12 H 0.981 2.67203 3.11629 0
M  V30 13 H -0.358 1.57376 2.7183 0
M  V30 14 H -1.165 3.90944 3.18086 0
M  V30 15 H -1.563 3.418 1.51819 0
M  V30 16 H 0.729 5.58782 3.83104 0
M  V30 17 H 1.672 6.56266 2.65933 0
M  V30 18 H 2.08 4.83886 2.90714 0
M  V30 19 N 1.4781 -0.272755 1.55222 0
M  V30 20 C 2.7551 -1.02562 1.66555 0
M  V30 21 C 3.1351 -2.04282 0.532189 0
M  V30 22 O 2.4831 -2.23662 -0.467717 0
M  V30 23 C 2.6931 -1.6822 3.05782 0
M  V30 24 C 4.0411 -2.19373 3.63539 0
M  V30 25 O 5.0651 -1.78206 3.08417 0
M  V30 26 O 3.9241 -2.94883 4.60115 0
M  V30 27 H 1.0181 -0.475755 0.676451 0
M  V30 28 H 3.5641 -0.268593 1.67561 0
M  V30 29 H 2.3361 -0.945112 3.79715 0
M  V30 30 H 1.9591 -2.50609 3.08676 0
M  V30 31 N 2.9562 -1.48159 -0.537278 0
M  V30 32 C 3.9032 -1.62138 -1.64256 0
M  V30 33 C 4.8732 -0.463668 -1.59497 0
M  V30 34 O 6.0582 -0.686241 -1.78032 0
M  V30 35 C 3.1982 -1.66028 -3.02537 0
M  V30 36 C 2.3112 -2.92855 -3.17585 0
M  V30 37 C 1.4462 -2.87952 -4.46382 0
M  V30 38 C 0.4852 -4.09516 -4.54932 0
M  V30 39 N -0.3778 -4.02733 -5.75109 0
M  V30 40 H 4.4622 -2.56529 -1.51647 0
M  V30 41 H 1.9992 -1.27224 -0.738414 0
M  V30 42 H 3.9572 -1.66265 -3.82638 0
M  V30 43 H 2.5872 -0.751331 -3.13934 0
M  V30 44 H 1.6392 -3.02395 -2.30784 0
M  V30 45 H 2.9512 -3.82822 -3.19764 0
M  V30 46 H 2.1052 -2.8655 -5.34765 0
M  V30 47 H 0.8442 -1.95702 -4.46712 0
M  V30 48 H -0.1508 -4.11201 -3.64957 0
M  V30 49 H 1.0742 -5.02917 -4.56346 0
M  V30 50 H -0.9798 -3.13299 -5.76351 0
M  V30 51 H -1.0628 -4.86397 -5.78752 0
M  V30 52 H 0.2052 -4.05379 -6.65799 0
M  V30 53 N 4.4343 0.785586 -1.36625 0
M  V30 54 C 5.6623 1.57448 -1.3423 0
M  V30 55 C 6.0773 1.88649 0.0755653 0
M  V30 56 O 5.4343 1.50414 1.03354 0
M  V30 57 C 5.4853 2.89316 -2.16745 0
M  V30 58 O 5.2063 2.59459 -3.53005 0
M  V30 59 C 6.7073 3.83606 -2.22174 0
M  V30 60 H 3.9273 0.488226 -0.4603 0
M  V30 61 H 6.4713 0.974733 -1.79775 0
M  V30 62 H 4.6263 3.4575 -1.74745 0
M  V30 63 H 5.0403 3.43804 -3.96105 0
M  V30 64 H 6.5143 4.73181 -2.8426 0
M  V30 65 H 6.9913 4.21734 -1.22627 0
M  V30 66 H 7.5973 3.33104 -2.64427 0
M  V30 67 N 5.9124 1.20967 1.01018 0
M  V30 68 C 6.8624 0.93182 2.08089 0
M  V30 69 C 7.8464 -0.110898 1.60517 0
M  V30 70 O 9.0384 0.0973392 1.76732 0
M  V30 71 C 6.1674 0.492719 3.39746 0
M  V30 72 C 5.2534 1.56922 3.94 0
M  V30 73 N 5.6444 2.79312 4.21686 0
M  V30 74 C 3.9424 1.43688 4.2222 0
M  V30 75 C 4.6434 3.48797 4.65527 0
M  V30 76 N 3.6194 2.76224 4.68189 0
M  V30 77 H 7.4214 1.86175 2.27412 0
M  V30 78 H 4.9354 1.10463 1.19045 0
M  V30 79 H 6.9324 0.275044 4.15992 0
M  V30 80 H 5.5924 -0.430509 3.21833 0
M  V30 81 H 6.6034 3.15903 4.10397 0
M  V30 82 H 3.2804 0.578548 4.13472 0
M  V30 83 H 4.6704 4.53561 4.95714 0
M  V30 84 N 7.3905 -1.2043 1.01659 0
M  V30 85 C 8.6185 -1.93777 0.725132 0
M  V30 86 C 9.0335 -1.74772 -0.714166 0
M  V30 87 O 8.3905 -1.06169 -1.4844 0
M  V30 88 C 8.4415 -3.45876 1.05129 0
M  V30 89 O 8.1625 -3.6426 2.43406 0
M  V30 90 C 9.6635 -4.36368 0.780891 0
M  V30 91 H 6.8835 -0.615901 0.266284 0
M  V30 92 H 9.4275 -1.52922 1.35776 0
M  V30 93 H 7.5825 -3.8461 0.464065 0
M  V30 94 H 7.9965 -4.58246 2.55169 0
M  V30 95 H 9.4705 -5.41743 1.05918 0
M  V30 96 H 9.9475 -4.38275 -0.284937 0
M  V30 97 H 10.5535 -4.03296 1.35027 0
M  V30 98 N 8.8686 -0.792821 -1.36206 0
M  V30 99 C 10.1086 -0.372238 -2.00982 0
M  V30 100 C 10.4726 1.03749 -1.61555 0
M  V30 101 O 11.6736 1.55934 -2.18948 0
M  V30 102 C 9.9446 -0.534566 -3.5338 0
M  V30 103 S 11.5036 -0.202365 -4.38333 0
M  V30 104 H 8.3216 -0.142044 -0.696667 0
M  V30 105 H 10.9236 -1.03206 -1.66039 0
M  V30 106 H 9.6276 -1.5608 -3.79562 0
M  V30 107 H 9.1586 0.141065 -3.93147 0
M  V30 108 H 11.1736 0.994869 -4.86124 0
M  V30 109 N 10.3467 1.47872 -0.545128 0
M  V30 110 C 11.7577 1.86384 -0.108581 0
M  V30 111 C 12.1087 1.45309 1.31832 0
M  V30 112 O 11.2337 0.850641 1.9898 0
M  V30 113 C 11.8287 3.38265 -0.190274 0
M  V30 114 C 10.3877 3.75914 0.191164 0
M  V30 115 C 9.5347 2.71926 -0.543273 0
M  V30 116 H 12.4857 1.39561 -0.755537 0
M  V30 117 H 12.5067 3.75831 0.594217 0
M  V30 118 H 12.0187 3.6813 -1.2289 0
M  V30 119 H 10.1197 3.51665 1.23136 0
M  V30 120 H 10.2327 4.78836 -0.158987 0
M  V30 121 H 8.5967 2.54697 0.0122495 0
M  V30 122 H 9.3797 3.04634 -1.58282 0
M  V30 123 N 11.8248 0.280983 1.55075 0
M  V30 124 C 13.2358 -0.215629 1.85451 0
M  V30 125 C 13.5868 -1.54991 1.203 0
M  V30 126 O 12.7118 -2.10699 0.493435 0
M  V30 127 C 13.3068 -0.398026 3.36454 0
M  V30 128 C 11.8658 -0.838866 3.66933 0
M  V30 129 C 11.0128 0.064458 2.77225 0
M  V30 130 H 13.9638 0.502601 1.50531 0
M  V30 131 H 13.9848 -1.23569 3.59876 0
M  V30 132 H 13.4968 0.573241 3.83843 0
M  V30 133 H 11.5978 -1.8214 3.25048 0
M  V30 134 H 11.7108 -0.672123 4.74362 0
M  V30 135 H 10.0748 -0.452863 2.50642 0
M  V30 136 H 10.8578 1.03172 3.2743 0
M  V30 137 N 13.3029 -1.57598 0.00835791 0
M  V30 138 C 14.5429 -1.92788 -0.679136 0
M  V30 139 C 14.9069 -0.883378 -1.70471 0
M  V30 140 O 16.1079 -1.12079 -2.44319 0
M  V30 141 C 14.3789 -3.32994 -1.29807 0
M  V30 142 S 15.9379 -3.90082 -2.00952 0
M  V30 143 H 12.7559 -0.67475 -0.224127 0
M  V30 144 H 15.3579 -1.95385 0.0670497 0
M  V30 145 H 14.0619 -4.06846 -0.538922 0
M  V30 146 H 13.5929 -3.33791 -2.082 0
M  V30 147 H 15.6079 -3.71834 -3.28563 0
M  V30 148 N 14.781 0.264519 -1.55364 0
M  V30 149 C 16.192 0.834936 -1.6699 0
M  V30 150 C 16.543 1.86718 -0.602552 0
M  V30 151 O 15.668 2.14899 0.254425 0
M  V30 152 C 16.263 1.5212 -3.02729 0
M  V30 153 C 14.822 2.03954 -3.16354 0
M  V30 154 C 13.969 0.884498 -2.62815 0
M  V30 155 H 16.92 0.0406869 -1.58648 0
M  V30 156 H 16.941 2.38853 -2.96191 0
M  V30 157 H 16.453 0.769668 -3.80392 0
M  V30 158 H 14.554 2.82041 -2.43482 0
M  V30 159 H 14.667 2.24902 -4.23032 0
M  V30 160 H 13.031 1.2802 -2.20188 0
M  V30 161 H 13.814 0.14634 -3.42988 0
M  V30 162 N 16.2591 1.48442 0.529413 0
M  V30 163 C 17.2221 1.62524 1.61612 0
M  V30 164 C 18.2221 0.498509 1.52877 0
M  V30 165 O 19.4121 0.76431 1.56537 0
M  V30 166 C 16.5441 1.59597 3.01233 0
M  V30 167 H 17.7371 2.59423 1.50465 0
M  V30 168 H 15.2901 1.37047 0.751514 0
M  V30 169 H 16.0251 0.641781 3.17886 0
M  V30 170 H 15.8101 2.41397 3.08982 0
M  V30 171 H 17.3001 1.72646 3.80241 0
M  V30 172 N 17.7372 -0.778329 1.37039 0
M  V30 173 C 19.1482 -1.35421 1.28523 0
M  V30 174 C 19.4992 -1.96075 -0.0700901 0
M  V30 175 O 18.6242 -1.93352 -0.971801 0
M  V30 176 C 19.2192 -2.46211 2.32735 0
M  V30 177 C 17.7782 -2.99585 2.27873 0
M  V30 178 C 16.9252 -1.72748 2.16918 0
M  V30 179 H 19.8762 -0.5791 1.47757 0
M  V30 180 H 19.8972 -3.2552 1.9702 0
M  V30 181 H 19.4092 -2.02036 3.31365 0
M  V30 182 H 17.5102 -3.48152 1.32745 0
M  V30 183 H 17.6232 -3.55646 3.21018 0
M  V30 184 H 15.9872 -1.95416 1.63354 0
M  V30 185 H 16.7702 -1.30686 3.17452 0
M  V30 186 N 19.2153 -1.21501 -1.00376 0
M  V30 187 C 20.1253 -0.991447 -2.12621 0
M  V30 188 C 21.1413 0.0568446 -1.73907 0
M  V30 189 O 22.3173 -0.13348 -2.00957 0
M  V30 190 C 19.3823 -0.560312 -3.42142 0
M  V30 191 C 18.4433 -1.68096 -3.95022 0
M  V30 192 C 17.6763 -1.2703 -5.18362 0
M  V30 193 O 17.8993 -0.144438 -5.70217 0
M  V30 194 O 16.8333 -2.08269 -5.64719 0
M  V30 195 H 20.6593 -1.93158 -2.34358 0
M  V30 196 H 18.2443 -0.999999 -1.10997 0
M  V30 197 H 20.1263 -0.329724 -4.20108 0
M  V30 198 H 18.8013 0.351089 -3.2179 0
M  V30 199 H 17.7083 -1.96597 -3.18278 0
M  V30 200 H 19.0413 -2.56983 -4.19786 0
M  V30 201 N 20.6934 1.19889 -1.02296 0
M  V30 202 C 21.6234 2.25141 -0.619174 0
M  V30 203 C 22.6044 1.66051 0.368915 0
M  V30 204 O 23.7894 1.92546 0.252941 0
M  V30 205 C 20.9194 3.4728 0.0368783 0
M  V30 206 C 19.8734 4.19005 -0.872865 0
M  V30 207 C 19.1994 5.34637 -0.0822402 0
M  V30 208 C 20.4994 4.74452 -2.18387 0
M  V30 209 H 22.1934 2.59171 -1.49903 0
M  V30 210 H 19.7394 1.24579 -0.722222 0
M  V30 211 H 21.6924 4.20098 0.330958 0
M  V30 212 H 20.4164 3.12433 0.95149 0
M  V30 213 H 19.0754 3.48061 -1.15105 0
M  V30 214 H 18.7234 4.96034 0.83422 0
M  V30 215 H 18.4234 5.83557 -0.688149 0
M  V30 216 H 19.9474 6.10255 0.205238 0
M  V30 217 H 21.3614 5.39055 -1.95172 0
M  V30 218 H 19.7584 5.33834 -2.74119 0
M  V30 219 H 20.8284 3.92844 -2.84257 0
M  V30 220 N 22.1715 0.800033 1.35784 0
M  V30 221 C 23.1015 0.220184 2.3246 0
M  V30 222 C 24.0825 -0.65073 1.57161 0
M  V30 223 O 25.2675 -0.582359 1.85263 0
M  V30 224 C 22.3975 -0.637353 3.41402 0
M  V30 225 C 21.3515 0.134531 4.27789 0
M  V30 226 C 20.6775 -0.844285 5.27992 0
M  V30 227 C 21.9775 1.32979 5.05088 0
M  V30 228 H 23.6715 1.02787 2.81203 0
M  V30 229 H 21.2175 0.495717 1.35199 0
M  V30 230 H 23.1705 -1.05302 4.08031 0
M  V30 231 H 21.8945 -1.47785 2.91251 0
M  V30 232 H 20.5535 0.531296 3.6273 0
M  V30 233 H 20.2015 -1.68011 4.74111 0
M  V30 234 H 19.9015 -0.332184 5.8666 0
M  V30 235 H 21.4255 -1.2583 5.97494 0
M  V30 236 H 22.8395 0.98934 5.64699 0
M  V30 237 H 21.2365 1.77593 5.7322 0
M  V30 238 H 22.3065 2.11978 4.36111 0
M  V30 239 N 23.6496 -1.47581 0.552962 0
M  V30 240 C 24.8976 -2.02082 0.0272703 0
M  V30 241 C 25.2186 -1.4301 -1.32563 0
M  V30 242 O 24.4886 -0.603745 -1.86365 0
M  V30 243 H 23.0686 -0.746966 0.00709182 0
M  V30 244 H 25.7306 -1.81033 0.722008 0
M  V30 245 H 24.8266 -3.12034 -0.0639951 0
M  V30 246 N 25.1277 -0.289203 -1.54924 0
M  V30 247 C 26.3757 0.322879 -1.99504 0
M  V30 248 C 26.6967 1.55313 -1.1791 0
M  V30 249 O 25.9667 1.94001 -0.272097 0
M  V30 250 H 24.5467 0.122291 -0.736922 0
M  V30 251 H 27.2087 -0.397802 -1.90797 0
M  V30 252 H 26.3047 0.603061 -3.06218 0
M  V30 253 N 26.6058 1.57591 -0.0167156 0
M  V30 254 C 28.0168 1.79201 0.523834 0
M  V30 255 C 28.3678 0.925796 1.72984 0
M  V30 256 O 27.4928 0.132792 2.15992 0
M  V30 257 C 28.0878 3.25 0.957091 0
M  V30 258 C 26.6468 3.47648 1.44283 0
M  V30 259 C 25.7938 2.74374 0.401757 0
M  V30 260 H 28.7448 1.56831 -0.242816 0
M  V30 261 H 28.7658 3.34031 1.82219 0
M  V30 262 H 28.2778 3.88019 0.0791415 0
M  V30 263 H 26.3788 2.89866 2.34113 0
M  V30 264 H 26.4918 4.56352 1.45877 0
M  V30 265 H 24.8558 2.39485 0.867121 0
M  V30 266 H 25.6388 3.40102 -0.467513 0
M  V30 267 N 28.0839 -0.256276 1.55502 0
M  V30 268 C 29.3089 -1.00766 1.81276 0
M  V30 269 C 29.7339 -1.78524 0.59252 0
M  V30 270 O 29.0919 -1.75413 -0.45827 0
M  V30 271 C 29.1399 -1.92869 3.04687 0
M  V30 272 O 28.2439 -3.019 2.80945 0
M  V30 273 H 27.5849 -0.287224 0.598664 0
M  V30 274 H 30.1149 -0.280109 2.02674 0
M  V30 275 H 30.1249 -2.34511 3.33869 0
M  V30 276 H 28.7999 -1.35689 3.93143 0
M  V30 277 H 27.3769 -2.64454 2.62904 0
M  V30 278 N 29.562 -1.4872 -0.521534 0
M  V30 279 C 30.808 -1.574 -1.27879 0
M  V30 280 C 31.141 -0.250817 -1.92573 0
M  V30 281 O 30.416 0.743934 -1.79711 0
M  V30 282 C 30.699 -2.71843 -2.36164 0
M  V30 283 C 30.552 -4.13893 -1.76105 0
M  V30 284 C 31.871 -2.82008 -3.37875 0
M  V30 285 H 28.99 -0.572941 -0.463581 0
M  V30 286 H 31.632 -1.80927 -0.580119 0
M  V30 287 H 29.782 -2.51914 -2.95756 0
M  V30 288 H 31.454 -4.45284 -1.20499 0
M  V30 289 H 29.697 -4.20498 -1.06601 0
M  V30 290 H 30.368 -4.89804 -2.5455 0
M  V30 291 H 32.844 -3.00086 -2.88249 0
M  V30 292 H 31.72 -3.63796 -4.11028 0
M  V30 293 H 31.981 -1.90511 -3.98946 0
M  V30 294 N 31.0401 0.771051 -1.3745 0
M  V30 295 C 32.2871 1.52963 -1.32697 0
M  V30 296 C 32.6151 1.94299 0.0883274 0
M  V30 297 O 31.8701 1.64397 1.0617 0
M  V30 298 C 32.1691 2.80676 -2.2126 0
M  V30 299 C 31.8351 2.58389 -3.69521 0
M  V30 300 C 30.4971 2.52019 -4.09927 0
M  V30 301 C 32.8491 2.38469 -4.63446 0
M  V30 302 C 30.1771 2.23721 -5.42371 0
M  V30 303 C 32.5291 2.11694 -5.96128 0
M  V30 304 C 31.1931 2.03769 -6.35637 0
M  V30 305 H 30.4631 0.559732 -0.485573 0
M  V30 306 H 33.1101 0.888083 -1.69662 0
M  V30 307 H 31.4151 3.49392 -1.77291 0
M  V30 308 H 33.1121 3.38557 -2.14895 0
M  V30 309 H 29.7021 2.6421 -3.37478 0
M  V30 310 H 33.8861 2.4238 -4.33089 0
M  V30 311 H 29.1421 2.16081 -5.71943 0
M  V30 312 H 33.3161 1.9528 -6.6846 0
M  V30 313 H 30.9431 1.81606 -7.38189 0
M  V30 314 N 32.5182 1.22032 0.997298 0
M  V30 315 C 33.4482 1.01065 2.10495 0
M  V30 316 C 34.4292 -0.0669542 1.69968 0
M  V30 317 O 35.6142 0.0943987 1.9397 0
M  V30 318 C 32.7442 0.582874 3.42374 0
M  V30 319 C 31.6982 1.60592 3.96729 0
M  V30 320 C 31.0242 1.03412 5.24605 0
M  V30 321 C 32.3242 2.99478 4.27914 0
M  V30 322 H 34.0182 1.93708 2.28292 0
M  V30 323 H 31.5642 0.932761 1.09707 0
M  V30 324 H 33.5172 0.423332 4.19268 0
M  V30 325 H 32.2412 -0.379213 3.24391 0
M  V30 326 H 30.9002 1.75316 3.21963 0
M  V30 327 H 30.5482 0.063518 5.0296 0
M  V30 328 H 30.2482 1.71754 5.61938 0
M  V30 329 H 31.7722 0.886066 6.04137 0
M  V30 330 H 33.1862 2.88153 4.95622 0
M  V30 331 H 31.5832 3.64903 4.76409 0
M  V30 332 H 32.6532 3.49742 3.3587 0
M  V30 333 N 33.9963 -1.19345 1.0293 0
M  V30 334 C 35.2433 -1.89038 0.726008 0
M  V30 335 C 35.5713 -1.79649 -0.745427 0
M  V30 336 O 34.8263 -1.18354 -1.55855 0
M  V30 337 C 35.1253 -3.39292 1.12319 0
M  V30 338 C 34.7913 -3.68885 2.59297 0
M  V30 339 C 33.4533 -3.76671 2.99453 0
M  V30 340 C 35.8053 -3.82178 3.54386 0
M  V30 341 C 33.1333 -3.9522 4.33611 0
M  V30 342 C 35.4853 -4.0224 4.88248 0
M  V30 343 C 34.1493 -4.08259 5.28092 0
M  V30 344 H 33.4193 -0.691739 0.265665 0
M  V30 345 H 36.0663 -1.41328 1.29223 0
M  V30 346 H 34.3713 -3.88903 0.475584 0
M  V30 347 H 36.0683 -3.91536 0.866037 0
M  V30 348 H 32.6583 -3.63433 2.27189 0
M  V30 349 H 36.8423 -3.75505 3.24514 0
M  V30 350 H 32.0983 -3.98119 4.64016 0
M  V30 351 H 36.2723 -4.11468 5.61843 0
M  V30 352 H 33.8993 -4.22384 6.32057 0
M  V30 353 N 35.4744 -0.807222 -1.35358 0
M  V30 354 C 36.8854 -0.44876 -1.81226 0
M  V30 355 C 37.2364 1.02929 -1.67033 0
M  V30 356 O 36.3614 1.79991 -1.20133 0
M  V30 357 C 36.9564 -0.807774 -3.2903 0
M  V30 358 C 35.5154 -0.501901 -3.73039 0
M  V30 359 C 34.6624 -1.03304 -2.57339 0
M  V30 360 H 37.6134 -0.998808 -1.23327 0
M  V30 361 H 37.6344 -0.10554 -3.80354 0
M  V30 362 H 37.1464 -1.88357 -3.39328 0
M  V30 363 H 35.2474 0.565128 -3.68289 0
M  V30 364 H 35.3604 -1.03497 -4.67787 0
M  V30 365 H 33.7244 -0.455339 -2.50597 0
M  V30 366 H 34.5074 -2.11496 -2.70415 0
M  V30 367 N 36.9525 1.47285 -0.560781 0
M  V30 368 C 38.3635 1.86258 -0.128343 0
M  V30 369 C 38.7145 1.46699 1.30284 0
M  V30 370 O 37.8395 0.871698 1.98067 0
M  V30 371 C 38.4345 3.38044 -0.22614 0
M  V30 372 C 36.9935 3.76096 0.151283 0
M  V30 373 C 36.1405 2.71335 -0.572084 0
M  V30 374 H 39.0915 1.38752 -0.770297 0
M  V30 375 H 39.1125 3.76441 0.554322 0
M  V30 376 H 38.6245 3.66806 -1.26788 0
M  V30 377 H 36.7255 3.52951 1.19399 0
M  V30 378 H 36.8385 4.78641 -0.209765 0
M  V30 379 H 35.2025 2.54696 -0.0147653 0
M  V30 380 H 35.9855 3.02938 -1.61504 0
M  V30 381 N 38.4306 0.297415 1.54768 0
M  V30 382 C 39.3776 -0.580276 2.23386 0
M  V30 383 C 40.3476 -1.13238 1.21517 0
M  V30 384 O 41.5326 -1.17757 1.50126 0
M  V30 385 C 38.6726 -1.74801 2.97555 0
M  V30 386 C 37.7856 -1.22764 4.1419 0
M  V30 387 C 36.9206 -2.35895 4.75949 0
M  V30 388 C 35.9596 -1.80974 5.84735 0
M  V30 389 N 35.0966 -2.87664 6.40464 0
M  V30 390 H 39.9366 0.0114833 2.97998 0
M  V30 391 H 37.4736 0.0174361 1.4709 0
M  V30 392 H 39.4316 -2.43475 3.38786 0
M  V30 393 H 38.0616 -2.31145 2.25326 0
M  V30 394 H 37.1136 -0.433271 3.77924 0
M  V30 395 H 38.4256 -0.785551 4.92575 0
M  V30 396 H 37.5796 -3.12523 5.20014 0
M  V30 397 H 36.3186 -2.83429 3.96887 0
M  V30 398 H 35.3236 -1.02834 5.40097 0
M  V30 399 H 36.5486 -1.34348 6.65678 0
M  V30 400 H 34.4946 -3.34538 5.64287 0
M  V30 401 H 34.4116 -2.4794 7.14186 0
M  V30 402 H 35.6796 -3.642 6.89187 0
M  V30 403 N 39.9087 -1.5758 0.0250728 0
M  V30 404 C 41.3197 -1.79476 -0.514323 0
M  V30 405 C 41.6707 -0.934956 -1.72491 0
M  V30 406 O 40.7957 -0.144245 -2.15919 0
M  V30 407 C 41.3907 -3.25503 -0.939842 0
M  V30 408 C 39.9497 -3.48408 -1.42438 0
M  V30 409 C 39.0967 -2.74583 -0.387201 0
M  V30 410 H 42.0477 -1.567 0.25113 0
M  V30 411 H 42.0687 -3.34992 -1.80445 0
M  V30 412 H 41.5807 -3.88056 -0.0585628 0
M  V30 413 H 39.6817 -2.91103 -2.32572 0
M  V30 414 H 39.7947 -4.57119 -1.43455 0
M  V30 415 H 38.1587 -2.39942 -0.854409 0
M  V30 416 H 38.9417 -3.39849 0.485543 0
M  V30 417 N 41.3868 0.248026 -1.55636 0
M  V30 418 C 42.3338 1.30707 -1.90222 0
M  V30 419 C 43.3038 1.47881 -0.756332 0
M  V30 420 O 44.4888 1.61883 -1.00988 0
M  V30 421 C 41.6288 2.65769 -2.20138 0
M  V30 422 C 40.7418 2.56612 -3.47526 0
M  V30 423 C 39.8768 3.8402 -3.67017 0
M  V30 424 C 38.9158 3.69476 -4.8801 0
M  V30 425 N 38.0528 4.88774 -5.04029 0
M  V30 426 H 42.8928 1.00512 -2.80538 0
M  V30 427 H 40.4298 0.485055 -1.38873 0
M  V30 428 H 42.3878 3.44386 -2.35487 0
M  V30 429 H 41.0178 2.94115 -1.33027 0
M  V30 430 H 40.0698 1.69571 -3.40514 0
M  V30 431 H 41.3818 2.41774 -4.36287 0
M  V30 432 H 40.5358 4.7108 -3.8232 0
M  V30 433 H 39.2748 4.01754 -2.76487 0
M  V30 434 H 38.2798 2.80799 -4.72686 0
M  V30 435 H 39.5048 3.53238 -5.8 0
M  V30 436 H 37.4508 5.0687 -4.16435 0
M  V30 437 H 37.3678 4.76562 -5.86877 0
M  V30 438 H 38.6358 5.77335 -5.23741 0
M  V30 439 N 42.8649 1.48995 0.513639 0
M  V30 440 C 44.1419 1.48338 1.27495 0
M  V30 441 C 44.5219 0.204065 2.10111 0
M  V30 442 O 43.8699 -0.813881 2.13514 0
M  V30 443 C 44.0799 2.75498 2.14247 0
M  V30 444 C 45.4279 3.24484 2.73852 0
M  V30 445 O 46.4519 2.76528 2.24523 0
M  V30 446 O 45.3109 4.07974 3.6362 0
M  V30 447 H 42.4049 0.593149 0.576284 0
M  V30 448 H 44.9509 1.61246 0.528948 0
M  V30 449 H 43.7229 3.60109 1.53092 0
M  V30 450 H 43.3459 2.6539 2.96064 0
M  V30 451 N 44.343 -0.763751 1.37857 0
M  V30 452 C 45.571 -1.55293 1.36718 0
M  V30 453 C 45.986 -1.88745 -0.0455434 0
M  V30 454 O 45.343 -1.52039 -1.00947 0
M  V30 455 C 45.394 -2.85831 2.2132 0
M  V30 456 O 45.115 -2.5381 3.57089 0
M  V30 457 C 46.616 -3.80023 2.28249 0
M  V30 458 H 43.836 -0.480841 0.468009 0
M  V30 459 H 46.38 -0.946009 1.81303 0
M  V30 460 H 44.535 -3.42926 1.80223 0
M  V30 461 H 44.949 -3.37459 4.01524 0
M  V30 462 H 46.423 -4.68599 2.91752 0
M  V30 463 H 46.9 -4.1973 1.2932 0
M  V30 464 H 47.506 -3.28855 2.69693 0
M  V30 465 N 45.8211 -1.22559 -0.990812 0
M  V30 466 C 46.7511 -1.0218 -2.09956 0
M  V30 467 C 47.7321 0.0579394 -1.70001 0
M  V30 468 O 48.9171 -0.104684 -1.93918 0
M  V30 469 C 46.0471 -0.601023 -3.4206 0
M  V30 470 C 45.0011 -1.62694 -3.95872 0
M  V30 471 C 44.3271 -1.06193 -5.24049 0
M  V30 472 C 45.6271 -3.01743 -4.2632 0
M  V30 473 H 47.3211 -1.94916 -2.27262 0
M  V30 474 H 44.8671 -0.938566 -1.09211 0
M  V30 475 H 46.8201 -0.445561 -4.19038 0
M  V30 476 H 45.5441 0.362005 -3.24588 0
M  V30 477 H 44.2031 -1.77021 -3.21028 0
M  V30 478 H 43.8511 -0.0901903 -5.02919 0
M  V30 479 H 43.5511 -1.74732 -5.61019 0
M  V30 480 H 45.0751 -0.918092 -6.03658 0
M  V30 481 H 46.4891 -2.90777 -4.94087 0
M  V30 482 H 44.8861 -3.67425 -4.74467 0
M  V30 483 H 45.9561 -3.51518 -3.34011 0
M  V30 484 N 47.2992 1.18797 -1.03562 0
M  V30 485 C 48.2322 2.2105 -0.56676 0
M  V30 486 C 49.2102 1.57704 0.395993 0
M  V30 487 O 50.3942 1.85908 0.311498 0
M  V30 488 C 47.5212 3.38259 0.172704 0
M  V30 489 C 46.5672 4.19987 -0.74252 0
M  V30 490 S 47.4002 4.87199 -2.22254 0
M  V30 491 C 48.5562 6.07813 -1.49379 0
M  V30 492 H 48.7892 2.60478 -1.43312 0
M  V30 493 H 46.3222 1.29151 -0.846133 0
M  V30 494 H 48.2802 4.06191 0.593191 0
M  V30 495 H 46.9412 2.97252 1.01488 0
M  V30 496 H 46.1342 5.03709 -0.171265 0
M  V30 497 H 45.7362 3.57408 -1.10163 0
M  V30 498 H 48.0282 6.72948 -0.784056 0
M  V30 499 H 48.9712 6.69435 -2.30786 0
M  V30 500 H 49.3792 5.55781 -0.988331 0
M  V30 501 N 48.7773 0.814389 1.34928 0
M  V30 502 C 50.0263 0.394871 1.97797 0
M  V30 503 C 50.3393 -1.04555 1.65311 0
M  V30 504 O 51.5453 -1.56856 2.21604 0
M  V30 505 C 50.0013 0.655103 3.53888 0
M  V30 506 C 49.6093 2.10858 3.95276 0
M  V30 507 C 51.3533 0.301329 4.23429 0
M  V30 508 C 49.2603 2.31415 5.44244 0
M  V30 509 H 48.1903 0.143913 0.740139 0
M  V30 510 H 50.8413 0.999544 1.53888 0
M  V30 511 H 49.2233 -0.0196253 3.95995 0
M  V30 512 H 50.3973 2.82176 3.64298 0
M  V30 513 H 48.7123 2.42297 3.38646 0
M  V30 514 H 51.3093 0.432869 5.32945 0
M  V30 515 H 51.6523 -0.75331 4.09428 0
M  V30 516 H 52.1853 0.930288 3.86769 0
M  V30 517 H 48.9243 3.35353 5.63222 0
M  V30 518 H 48.4443 1.6463 5.76764 0
M  V30 519 H 50.1233 2.13352 6.10811 0
M  V30 520 N 50.2554 -1.46986 0.568584 0
M  V30 521 C 51.4804 -2.07335 0.0520528 0
M  V30 522 C 51.9054 -1.41675 -1.23733 0
M  V30 523 O 51.2634 -0.495623 -1.74394 0
M  V30 524 C 51.3114 -3.60417 -0.11501 0
M  V30 525 O 50.4154 -3.95309 -1.17492 0
M  V30 526 H 49.7564 -0.661597 0.0564385 0
M  V30 527 H 52.2864 -1.88837 0.787507 0
M  V30 528 H 52.2964 -4.06698 -0.325644 0
M  V30 529 H 50.9714 -4.07601 0.826675 0
M  V30 530 H 49.5484 -3.60757 -0.943869 0
M  V30 531 N 51.7335 -0.305618 -1.54608 0
M  V30 532 C 53.1495 0.0476228 -1.59529 0
M  V30 533 C 53.3495 1.52025 -1.32252 0
M  V30 534 O 52.4055 2.27368 -1.09818 0
M  V30 535 C 53.7185 -0.354471 -2.98603 0
M  V30 536 C 55.2665 -0.303622 -3.11524 0
M  V30 537 C 55.7415 -0.680608 -4.52915 0
M  V30 538 N 57.2325 -0.63332 -4.5885 0
M  V30 539 C 57.9675 -0.897432 -5.66334 0
M  V30 540 N 57.4635 -1.22775 -6.81834 0
M  V30 541 N 59.2565 -0.824186 -5.56025 0
M  V30 542 H 51.4075 -1.2653 -1.70599 0
M  V30 543 H 53.6705 -0.513291 -0.797017 0
M  V30 544 H 53.3765 -1.3798 -3.23503 0
M  V30 545 H 53.2505 0.289568 -3.76087 0
M  V30 546 H 55.6375 0.712472 -2.8637 0
M  V30 547 H 55.7185 -0.982348 -2.36185 0
M  V30 548 H 55.3625 -1.69453 -4.78799 0
M  V30 549 H 55.2925 0.0202385 -5.26596 0
M  V30 550 H 57.7835 -0.389138 -3.75891 0
M  V30 551 H 58.0965 -1.41513 -7.59733 0
M  V30 552 H 56.4415 -1.26583 -6.83375 0
M  V30 553 H 59.6325 -0.565748 -4.64669 0
M  V30 554 H 59.8055 -1.03338 -6.39707 0
M  V30 555 N 53.2116 1.57565 -0.0334293 0
M  V30 556 C 54.4396 1.9628 0.654347 0
M  V30 557 C 54.8546 0.910138 1.65414 0
M  V30 558 O 54.2116 -0.107595 1.82183 0
M  V30 559 C 54.2626 3.35067 1.35693 0
M  V30 560 O 53.9836 4.36296 0.397191 0
M  V30 561 C 55.4846 3.88439 2.13613 0
M  V30 562 H 52.7046 0.646369 0.180132 0
M  V30 563 H 55.2486 2.04282 -0.0944721 0
M  V30 564 H 53.4036 3.2827 2.05712 0
M  V30 565 H 53.8176 5.1678 0.896597 0
M  V30 566 H 55.2916 4.8788 2.58219 0
M  V30 567 H 55.7686 3.22914 2.97696 0
M  V30 568 H 56.3746 3.98516 1.48543 0
M  V30 569 N 54.6897 -0.239769 1.55765 0
M  V30 570 C 56.1007 -0.808263 1.68297 0
M  V30 571 C 56.4517 -1.85736 0.632181 0
M  V30 572 O 55.5767 -2.15277 -0.220204 0
M  V30 573 C 56.1717 -1.47284 3.05111 0
M  V30 574 C 54.7307 -1.98895 3.19559 0
M  V30 575 C 53.8777 -0.842575 2.64189 0
M  V30 576 H 56.8287 -0.0154422 1.58692 0
M  V30 577 H 56.8497 -2.34111 2.99954 0
M  V30 578 H 56.3617 -0.709053 3.81568 0
M  V30 579 H 54.4627 -2.78132 2.47938 0
M  V30 580 H 54.5757 -2.18143 4.26556 0
M  V30 581 H 52.9397 -1.24501 2.22197 0
M  V30 582 H 53.7227 -0.0917552 3.43177 0
M  V30 583 N 56.1678 -1.49265 -0.50573 0
M  V30 584 C 57.0778 -1.68312 -1.63427 0
M  V30 585 C 58.0938 -0.565682 -1.64548 0
M  V30 586 O 59.2698 -0.839801 -1.83055 0
M  V30 587 C 56.3348 -1.74107 -2.99813 0
M  V30 588 C 55.3958 -2.97653 -3.09356 0
M  V30 589 C 54.6288 -3.03163 -4.39236 0
M  V30 590 O 54.8518 -2.16396 -5.27758 0
M  V30 591 O 53.7858 -3.9558 -4.53652 0
M  V30 592 H 57.6118 -2.63907 -1.50289 0
M  V30 593 H 55.1968 -1.32951 -0.681502 0
M  V30 594 H 57.0788 -1.803 -3.80881 0
M  V30 595 H 55.7538 -0.816901 -3.13223 0
M  V30 596 H 54.6608 -2.96981 -2.27493 0
M  V30 597 H 55.9938 -3.89535 -3.00871 0
M  V30 598 N 57.6459 0.756429 -1.3826 0
M  V30 599 C 58.8919 1.51772 -1.34511 0
M  V30 600 C 59.2249 1.94089 0.0656691 0
M  V30 601 O 58.4999 1.65221 1.02626 0
M  V30 602 C 58.7829 2.77226 -2.29821 0
M  V30 603 C 58.6359 2.41065 -3.79747 0
M  V30 604 C 59.9549 3.79236 -2.23312 0
M  V30 605 H 57.0739 0.550578 -0.489931 0
M  V30 606 H 59.7159 0.866607 -1.69086 0
M  V30 607 H 57.8659 3.32784 -2.00467 0
M  V30 608 H 59.5379 1.91303 -4.19763 0
M  V30 609 H 57.7809 1.7356 -3.97567 0
M  V30 610 H 58.4519 3.3081 -4.41892 0
M  V30 611 H 60.9279 3.3321 -2.49219 0
M  V30 612 H 59.8039 4.64714 -2.92116 0
M  V30 613 H 60.0649 4.24615 -1.23102 0
M  V30 614 N 59.124 1.23083 0.984299 0
M  V30 615 C 60.352 1.08714 1.76037 0
M  V30 616 C 60.767 -0.361691 1.85303 0
M  V30 617 O 60.124 -1.25034 1.32939 0
M  V30 618 C 60.175 1.70206 3.18923 0
M  V30 619 O 59.896 3.09423 3.10144 0
M  V30 620 C 61.397 1.61227 4.12941 0
M  V30 621 H 58.617 0.380664 0.552572 0
M  V30 622 H 61.161 1.62853 1.23689 0
M  V30 623 H 59.316 1.20109 3.6831 0
M  V30 624 H 59.73 3.39188 4.00065 0
M  V30 625 H 61.204 2.08962 5.10919 0
M  V30 626 H 61.681 0.570375 4.35481 0
M  V30 627 H 62.287 2.10671 3.69456 0
M  V30 628 N 60.6021 -1.18246 1.0419 0
M  V30 629 C 61.8421 -1.89948 0.754916 0
M  V30 630 C 62.2061 -1.78608 -0.70451 0
M  V30 631 O 63.4071 -2.4503 -1.10516 0
M  V30 632 C 61.6781 -3.36305 1.20969 0
M  V30 633 S 63.2371 -4.26088 1.04854 0
M  V30 634 H 60.0551 -0.655897 0.274446 0
M  V30 635 H 62.6571 -1.42873 1.33445 0
M  V30 636 H 61.3611 -3.42089 2.26722 0
M  V30 637 H 60.8921 -3.8842 0.624004 0
M  V30 638 H 62.9071 -4.96189 -0.0332896 0
M  V30 639 N 62.0802 -0.821533 -1.34494 0
M  V30 640 C 63.3262 -0.409552 -1.98622 0
M  V30 641 C 63.6592 1.0244 -1.64984 0
M  V30 642 O 62.9342 1.71325 -0.920758 0
M  V30 643 C 63.2172 -0.610458 -3.54888 0
M  V30 644 C 63.0702 -2.09043 -3.98273 0
M  V30 645 C 64.3892 -0.0455379 -4.40076 0
M  V30 646 H 61.5082 -0.15028 -0.721516 0
M  V30 647 H 64.1502 -1.03384 -1.59411 0
M  V30 648 H 62.3002 -0.079044 -3.8842 0
M  V30 649 H 63.9722 -2.68537 -3.75081 0
M  V30 650 H 62.2152 -2.58139 -3.48635 0
M  V30 651 H 62.8862 -2.18182 -5.07051 0
M  V30 652 H 65.3622 -0.499557 -4.1309 0
M  V30 653 H 64.2382 -0.215922 -5.48475 0
M  V30 654 H 64.4992 1.04939 -4.29465 0
M  V30 655 N 63.5583 1.46682 -0.576371 0
M  V30 656 C 64.8043 2.02712 -0.0596221 0
M  V30 657 C 65.1373 1.44765 1.29448 0
M  V30 658 O 64.4123 0.610355 1.84675 0
M  V30 659 C 64.6953 3.60098 0.0129503 0
M  V30 660 C 64.5483 4.28441 -1.3696 0
M  V30 661 C 65.8673 4.34224 0.71678 0
M  V30 662 H 62.9863 0.736637 -0.0231407 0
M  V30 663 H 65.6283 1.74898 -0.742351 0
M  V30 664 H 63.7783 3.83926 0.594378 0
M  V30 665 H 65.4503 4.15896 -1.9957 0
M  V30 666 H 63.6933 3.8805 -1.93907 0
M  V30 667 H 64.3643 5.3716 -1.27135 0
M  V30 668 H 66.8403 4.15503 0.222908 0
M  V30 669 H 65.7163 5.43936 0.73657 0
M  V30 670 H 65.9773 4.04823 1.77682 0
M  V30 671 N 65.0364 0.313813 1.54444 0
M  V30 672 C 66.2824 -0.292108 2.00685 0
M  V30 673 C 66.6154 -1.52548 1.20177 0
M  V30 674 O 65.8904 -1.92452 0.281531 0
M  V30 675 C 66.1734 -0.635968 3.5444 0
M  V30 676 C 66.0264 0.607437 4.4568 0
M  V30 677 C 67.3454 -1.45747 4.15266 0
M  V30 678 H 64.4644 -0.104697 0.729526 0
M  V30 679 H 67.1064 0.428457 1.85106 0
M  V30 680 H 65.2564 -1.24986 3.67846 0
M  V30 681 H 66.9284 1.24581 4.44159 0
M  V30 682 H 65.1714 1.23822 4.15753 0
M  V30 683 H 65.8424 0.322515 5.51057 0
M  V30 684 H 68.3184 -0.938645 4.05375 0
M  V30 685 H 67.1944 -1.66683 5.2298 0
M  V30 686 H 67.4554 -2.45063 3.67963 0
M  V30 687 N 66.5145 -1.57545 0.0417849 0
M  V30 688 C 67.7915 -1.83642 -0.673433 0
M  V30 689 C 68.1715 -0.928298 -1.89594 0
M  V30 690 O 67.5195 0.0129955 -2.28496 0
M  V30 691 C 67.7295 -3.33155 -1.03964 0
M  V30 692 C 69.0775 -3.99941 -1.42592 0
M  V30 693 O 70.1015 -3.37725 -1.13226 0
M  V30 694 O 68.9605 -5.09619 -1.9736 0
M  V30 695 H 66.0545 -0.757638 -0.331533 0
M  V30 696 H 68.6005 -1.69554 0.070433 0
M  V30 697 H 67.3725 -3.9093 -0.170098 0
M  V30 698 H 66.9955 -3.52396 -1.84126 0
M  V30 699 N 67.9926 0.231505 -1.5589 0
M  V30 700 C 69.2386 0.95877 -1.78705 0
M  V30 701 C 69.5716 1.8438 -0.609725 0
M  V30 702 O 68.8466 1.90521 0.391426 0
M  V30 703 C 69.1296 1.8062 -3.11526 0
M  V30 704 C 68.9826 0.948328 -4.39689 0
M  V30 705 C 70.3016 2.78585 -3.40703 0
M  V30 706 H 67.4206 0.347129 -0.650131 0
M  V30 707 H 70.0626 0.228259 -1.88624 0
M  V30 708 H 68.2126 2.42902 -3.03201 0
M  V30 709 H 69.8846 0.343016 -4.60023 0
M  V30 710 H 68.1276 0.253314 -4.3306 0
M  V30 711 H 68.7986 1.57543 -5.29041 0
M  V30 712 H 71.2746 2.26439 -3.49091 0
M  V30 713 H 70.1506 3.34988 -4.34826 0
M  V30 714 H 70.4116 3.55825 -2.62375 0
M  V30 715 N 69.4707 1.49531 0.497807 0
M  V30 716 C 70.6957 1.63159 1.28039 0
M  V30 717 C 71.1207 0.30418 1.85624 0
M  V30 718 O 70.4787 -0.728618 1.66015 0
M  V30 719 C 70.5267 2.70537 2.38416 0
M  V30 720 O 69.6307 2.29931 3.42353 0
M  V30 721 H 68.9717 0.546001 0.377861 0
M  V30 722 H 71.5017 1.9574 0.59558 0
M  V30 723 H 71.5117 2.92802 2.84132 0
M  V30 724 H 70.1867 3.6689 1.95869 0
M  V30 725 H 68.7637 2.18009 3.02533 0
M  V30 726 N 70.9488 -0.749086 1.3866 0
M  V30 727 C 71.8988 -1.85368 1.32751 0
M  V30 728 C 72.8828 -1.59511 0.210945 0
M  V30 729 O 74.0748 -1.71255 0.447299 0
M  V30 730 C 71.2038 -3.23131 1.15935 0
M  V30 731 C 70.2898 -3.54864 2.32233 0
M  V30 732 N 70.6808 -3.57625 3.57684 0
M  V30 733 C 68.9788 -3.85154 2.24883 0
M  V30 734 C 69.6798 -3.86753 4.34508 0
M  V30 735 N 68.6558 -4.03812 3.63918 0
M  V30 736 H 72.4578 -1.85787 2.27729 0
M  V30 737 H 69.9718 -0.946658 1.31955 0
M  V30 738 H 71.9688 -4.02185 1.09786 0
M  V30 739 H 70.6288 -3.23961 0.218947 0
M  V30 740 H 71.6398 -3.39276 3.91295 0
M  V30 741 H 68.3168 -3.93672 1.39027 0
M  V30 742 H 69.7068 -3.95474 5.43185 0
M  V30 743 N 72.4269 -1.23603 -0.977757 0
M  V30 744 C 73.3369 -1.03632 -2.1047 0
M  V30 745 C 74.3529 0.0199435 -1.73989 0
M  V30 746 O 75.5289 -0.176076 -2.00629 0
M  V30 747 C 72.5939 -0.63276 -3.40877 0
M  V30 748 C 71.6549 -1.76437 -3.91367 0
M  V30 749 C 70.8879 -1.37997 -5.15551 0
M  V30 750 O 71.1109 -0.265357 -5.69782 0
M  V30 751 O 70.0449 -2.20201 -5.60174 0
M  V30 752 H 73.8709 -1.98086 -2.30208 0
M  V30 753 H 71.4559 -1.02332 -1.08851 0
M  V30 754 H 73.3379 -0.418761 -4.19314 0
M  V30 755 H 72.0129 0.282754 -3.22463 0
M  V30 756 H 70.9199 -2.03304 -3.14036 0
M  V30 757 H 72.2529 -2.6583 -4.14241 0
M  V30 758 N 73.905 1.17692 -1.04816 0
M  V30 759 C 75.182 1.83768 -0.669963 0
M  V30 760 C 75.562 1.93232 0.849986 0
M  V30 761 O 74.91 1.46397 1.75443 0
M  V30 762 C 75.12 3.21641 -1.35455 0
M  V30 763 C 76.468 3.97592 -1.49017 0
M  V30 764 O 77.492 3.31107 -1.31326 0
M  V30 765 O 76.351 5.16729 -1.77914 0
M  V30 766 H 73.445 0.792799 -0.235368 0
M  V30 767 H 75.991 1.25021 -1.14751 0
M  V30 768 H 74.763 3.097 -2.39168 0
M  V30 769 H 74.386 3.88052 -0.866107 0
M  V30 770 N 75.3831 0.828654 1.34056 0
M  V30 771 C 76.7941 0.477534 1.8049 0
M  V30 772 C 77.1451 -1.00258 1.6865 0
M  V30 773 O 76.2701 -1.78057 1.22982 0
M  V30 774 C 76.8651 0.860018 3.27703 0
M  V30 775 C 75.4241 0.561185 3.72193 0
M  V30 776 C 74.5711 1.07385 2.55663 0
M  V30 777 H 77.5221 1.0183 1.21722 0
M  V30 778 H 77.5431 0.166038 3.80138 0
M  V30 779 H 77.0551 1.93731 3.36288 0
M  V30 780 H 75.1561 -0.506465 3.69142 0
M  V30 781 H 75.2691 1.10926 4.66082 0
M  V30 782 H 73.6331 0.495149 2.49841 0
M  V30 783 H 74.4161 2.15771 2.67016 0
M  V30 784 N 76.8612 -1.46375 0.584142 0
M  V30 785 C 77.7712 -2.34115 -0.150728 0
M  V30 786 C 78.7872 -1.49838 -0.884567 0
M  V30 787 O 79.9632 -1.82704 -0.847429 0
M  V30 788 C 77.0282 -3.2705 -1.15062 0
M  V30 789 C 76.0892 -4.27228 -0.421293 0
M  V30 790 C 75.3222 -5.15722 -1.37355 0
M  V30 791 O 75.5452 -5.07176 -2.61014 0
M  V30 792 O 74.4792 -5.95383 -0.883355 0
M  V30 793 H 78.3052 -2.98309 0.569708 0
M  V30 794 H 75.8902 -1.45373 0.344535 0
M  V30 795 H 77.7722 -3.84381 -1.72712 0
M  V30 796 H 76.4472 -2.65451 -1.8525 0
M  V30 797 H 75.3542 -3.7358 0.197085 0
M  V30 798 H 76.6872 -4.91616 0.239641 0
M  V30 799 N 78.3393 -0.321999 -1.54275 0
M  V30 800 C 79.5853 0.281461 -2.00837 0
M  V30 801 C 79.9183 1.51909 -1.20985 0
M  V30 802 O 79.1933 1.923 -0.291733 0
M  V30 803 C 79.4763 0.617162 -3.54772 0
M  V30 804 C 79.3293 -0.631064 -4.45351 0
M  V30 805 C 80.6483 1.43542 -4.16033 0
M  V30 806 H 77.7673 0.100826 -0.730071 0
M  V30 807 H 80.4093 -0.438268 -1.84876 0
M  V30 808 H 78.5593 1.23034 -3.68504 0
M  V30 809 H 80.2313 -1.26934 -4.43492 0
M  V30 810 H 78.4743 -1.26025 -4.15091 0
M  V30 811 H 79.1453 -0.351735 -5.50878 0
M  V30 812 H 81.6213 0.917134 -4.05867 0
M  V30 813 H 80.4973 1.63907 -5.23856 0
M  V30 814 H 80.7583 2.43108 -3.69257 0
M  V30 815 N 79.8174 1.5752 -0.0501392 0
M  V30 816 C 80.7644 2.1147 0.924603 0
M  V30 817 C 81.7344 1.02182 1.30951 0
M  V30 818 O 82.9194 1.29723 1.39916 0
M  V30 819 C 80.0594 2.66337 2.19451 0
M  V30 820 C 79.1724 3.89708 1.86418 0
M  V30 821 C 78.3074 4.32893 3.07859 0
M  V30 822 C 77.3464 5.48967 2.70742 0
M  V30 823 N 76.4834 5.87211 3.84874 0
M  V30 824 H 81.3234 2.94465 0.457639 0
M  V30 825 H 78.8604 1.45531 0.214266 0
M  V30 826 H 80.8184 2.96247 2.93758 0
M  V30 827 H 79.4484 1.86141 2.63726 0
M  V30 828 H 78.5004 3.66396 1.02264 0
M  V30 829 H 79.8124 4.74074 1.55096 0
M  V30 830 H 78.9664 4.6435 3.90466 0
M  V30 831 H 77.7054 3.47336 3.42358 0
M  V30 832 H 76.7104 5.17183 1.86551 0
M  V30 833 H 77.9354 6.3624 2.37436 0
M  V30 834 H 75.8814 5.04607 4.19175 0
M  V30 835 H 75.7984 6.66266 3.57247 0
M  V30 836 H 77.0664 6.23282 4.68123 0
M  V30 837 N 81.2955 -0.223234 1.56011 0
M  V30 838 C 82.5425 -0.947875 1.78946 0
M  V30 839 C 82.8705 -1.844 0.618608 0
M  V30 840 O 82.1255 -1.91629 -0.397093 0
M  V30 841 C 82.4245 -1.81948 3.0762 0
M  V30 842 C 82.0905 -1.07672 4.37856 0
M  V30 843 C 80.7525 -0.871544 4.73242 0
M  V30 844 C 83.1045 -0.552081 5.18268 0
M  V30 845 C 80.4325 -0.129791 5.86556 0
M  V30 846 C 82.7845 0.17632 6.32354 0
M  V30 847 C 81.4485 0.39277 6.66343 0
M  V30 848 H 80.7185 -0.346852 0.654809 0
M  V30 849 H 83.3655 -0.216171 1.90276 0
M  V30 850 H 81.6705 -2.61899 2.91404 0
M  V30 851 H 83.3675 -2.38227 3.22566 0
M  V30 852 H 79.9575 -1.24662 4.1007 0
M  V30 853 H 84.1415 -0.698076 4.91366 0
M  V30 854 H 79.3975 0.048153 6.11381 0
M  V30 855 H 83.5715 0.590367 6.93893 0
M  V30 856 H 81.1985 0.969466 7.53993 0
M  V30 857 N 82.7736 -1.49793 -0.48987 0
M  V30 858 C 83.7216 -1.67783 -1.61095 0
M  V30 859 C 84.7156 -0.543683 -1.60438 0
M  V30 860 O 85.9216 -0.723647 -1.64813 0
M  V30 861 H 82.2966 -0.529255 -0.534222 0
M  V30 862 H 84.2676 -2.61861 -1.43078 0
M  V30 863 C 83.0166 -1.77191 -2.99164 0
M  V30 864 H 82.3396 -2.63841 -3.0038 0
M  V30 865 H 83.7796 -1.93809 -3.77113 0
M  V30 866 C 82.2386 -0.519203 -3.32875 0
M  V30 867 O 82.7686 0.350124 -4.00171 0
M  V30 868 N 80.9746 -0.378816 -2.8812 0
M  V30 869 H 80.5216 -1.08725 -2.33531 0
M  V30 870 H 80.4796 0.458239 -3.11043 0
M  V30 871 N 84.2517 0.741722 -1.39055 0
M  V30 872 C 85.4977 1.50234 -1.37118 0
M  V30 873 C 85.8527 1.92368 0.0350439 0
M  V30 874 O 85.1457 1.63422 1.00019 0
M  V30 875 C 85.3397 2.7592 -2.27163 0
M  V30 876 C 85.1687 2.46074 -3.76401 0
M  V30 877 C 83.9387 2.38704 -4.45364 0
M  V30 878 C 86.1367 2.12062 -4.68545 0
M  V30 879 N 84.1187 2.01258 -5.79973 0
M  V30 880 C 85.4897 1.85005 -5.91754 0
M  V30 881 C 87.5447 1.98473 -4.56632 0
M  V30 882 C 86.2477 1.4573 -7.04383 0
M  V30 883 C 88.2737 1.60599 -5.69176 0
M  V30 884 C 87.6357 1.34423 -6.91455 0
M  V30 885 H 83.7347 0.548858 -0.557027 0
M  V30 886 H 86.3187 0.862642 -1.74547 0
M  V30 887 H 84.4897 3.3768 -1.91904 0
M  V30 888 H 86.2217 3.42068 -2.16267 0
M  V30 889 H 82.9767 2.55574 -3.98721 0
M  V30 890 H 83.4007 1.85147 -6.51191 0
M  V30 891 H 88.0427 2.17381 -3.62637 0
M  V30 892 H 85.7607 1.25562 -7.98286 0
M  V30 893 H 89.3467 1.507 -5.61944 0
M  V30 894 H 88.2267 1.05555 -7.77064 0
M  V30 895 N 85.7298 1.2412 0.971189 0
M  V30 896 C 86.9598 1.10415 1.7462 0
M  V30 897 C 87.3678 -0.346462 1.86001 0
M  V30 898 O 86.7108 -1.25104 1.34517 0
M  V30 899 C 86.7728 1.66596 3.18568 0
M  V30 900 C 86.4368 3.15446 3.3067 0
M  V30 901 C 87.4338 4.12636 3.16271 0
M  V30 902 C 85.1188 3.55337 3.55022 0
M  V30 903 C 87.1128 5.47699 3.26044 0
M  V30 904 C 84.7998 4.90542 3.64434 0
M  V30 905 C 85.7978 5.86532 3.49956 0
M  V30 906 O 85.4858 7.19279 3.59017 0
M  V30 907 H 85.2178 0.386616 0.55453 0
M  V30 908 H 87.7718 1.64633 1.22821 0
M  V30 909 H 86.0018 1.06808 3.71657 0
M  V30 910 H 87.6908 1.48232 3.77865 0
M  V30 911 H 88.4568 3.8316 2.97344 0
M  V30 912 H 84.3358 2.8113 3.65359 0
M  V30 913 H 87.8798 6.22603 3.14661 0
M  V30 914 H 83.7768 5.19691 3.82873 0
M  V30 915 H 84.5448 7.27153 3.75754 0
M  V30 916 N 87.2079 -1.17134 1.05439 0
M  V30 917 C 88.4539 -1.87733 0.767077 0
M  V30 918 C 88.7869 -1.8098 -0.704253 0
M  V30 919 O 88.0619 -1.21951 -1.5152 0
M  V30 920 C 88.3449 -3.37659 1.25133 0
M  V30 921 C 88.1979 -3.53149 2.78578 0
M  V30 922 C 89.5169 -4.31768 0.852324 0
M  V30 923 H 86.6359 -0.681687 0.280129 0
M  V30 924 H 89.2779 -1.37732 1.30881 0
M  V30 925 H 87.4279 -3.80373 0.790469 0
M  V30 926 H 89.0999 -3.19434 3.32806 0
M  V30 927 H 87.3429 -2.95345 3.17732 0
M  V30 928 H 88.0139 -4.58403 3.07523 0
M  V30 929 H 90.4899 -3.96909 1.24911 0
M  V30 930 H 89.3659 -5.35199 1.21873 0
M  V30 931 H 89.6269 -4.41429 -0.243485 0
M  V30 932 N 88.686 -0.835752 -1.33615 0
M  V30 933 C 89.963 -0.352017 -1.92406 0
M  V30 934 C 90.343 1.16225 -1.76224 0
M  V30 935 O 89.691 1.97526 -1.14873 0
M  V30 936 C 89.901 -0.795485 -3.39813 0
M  V30 937 C 91.249 -0.801703 -4.16963 0
M  V30 938 O 92.273 -0.738889 -3.48452 0
M  V30 939 O 91.132 -0.886607 -5.3926 0
M  V30 940 H 88.226 -0.0989641 -0.821057 0
M  V30 941 H 90.772 -0.921397 -1.42507 0
M  V30 942 H 89.544 -1.83795 -3.45449 0
M  V30 943 H 89.167 -0.202505 -3.97084 0
M  V30 944 N 90.1641 1.46063 -0.591896 0
M  V30 945 C 91.4121 2.01938 -0.0808391 0
M  V30 946 C 91.7331 1.46475 1.28725 0
M  V30 947 O 91.0031 0.652944 1.84698 0
M  V30 948 H 89.5831 0.746516 -0.0268938 0
M  V30 949 H 92.2451 1.79055 -0.769752 0
M  V30 950 H 91.3411 3.12094 -0.0187578 0
M  V30 951 N 91.6422 0.330177 1.54103 0
M  V30 952 C 92.8882 -0.270806 2.00984 0
M  V30 953 C 93.2212 -1.51265 1.21789 0
M  V30 954 O 92.4962 -1.92142 0.301927 0
M  V30 955 C 92.7792 -0.598339 3.55094 0
M  V30 956 C 92.6322 0.654674 4.4501 0
M  V30 957 C 93.9512 -1.41334 4.16789 0
M  V30 958 H 91.0702 -0.0969531 0.730595 0
M  V30 959 H 93.7122 0.448066 1.84641 0
M  V30 960 H 91.8622 -1.21078 3.69151 0
M  V30 961 H 93.5342 1.29285 4.42813 0
M  V30 962 H 91.7772 1.28224 4.14416 0
M  V30 963 H 92.4482 0.380944 5.50684 0
M  V30 964 H 94.9242 -0.895597 4.06347 0
M  V30 965 H 93.8002 -1.61127 5.24718 0
M  V30 966 H 94.0612 -2.41146 3.70541 0
M  V30 967 N 93.1203 -1.57491 0.0584922 0
M  V30 968 C 94.0303 -2.15448 -0.928414 0
M  V30 969 C 95.0463 -1.11416 -1.3365 0
M  V30 970 O 96.2223 -1.4362 -1.41193 0
M  V30 971 C 93.2873 -2.69393 -2.18239 0
M  V30 972 C 92.3483 -3.88249 -1.83196 0
M  V30 973 C 91.5813 -4.39613 -3.02616 0
M  V30 974 O 91.8043 -3.90023 -4.16219 0
M  V30 975 O 90.7383 -5.31111 -2.83204 0
M  V30 976 H 94.5643 -3.00112 -0.465483 0
M  V30 977 H 92.1493 -1.48499 -0.163826 0
M  V30 978 H 94.0313 -3.04026 -2.91798 0
M  V30 979 H 92.7063 -1.87796 -2.63656 0
M  V30 980 H 91.6133 -3.58492 -1.06931 0
M  V30 981 H 92.9463 -4.71098 -1.42573 0
M  V30 982 N 94.5984 0.214957 -1.56127 0
M  V30 983 C 95.8444 0.939762 -1.79712 0
M  V30 984 C 96.1774 1.83723 -0.629247 0
M  V30 985 O 95.4524 1.90925 0.371197 0
M  V30 986 C 95.7354 1.77306 -3.13424 0
M  V30 987 C 95.5884 0.90164 -4.40671 0
M  V30 988 C 96.9074 2.74956 -3.43638 0
M  V30 989 H 94.0264 0.340214 -0.653776 0
M  V30 990 H 96.6684 0.20824 -1.88855 0
M  V30 991 H 94.8184 2.39673 -3.0576 0
M  V30 992 H 96.4904 0.294206 -4.60361 0
M  V30 993 H 94.7334 0.207368 -4.33304 0
M  V30 994 H 95.4044 1.51923 -5.30682 0
M  V30 995 H 97.8804 2.22724 -3.51473 0
M  V30 996 H 96.7564 3.30358 -4.38355 0
M  V30 997 H 97.0174 3.53023 -2.66134 0
M  V30 998 N 96.0765 1.50051 0.48192 0
M  V30 999 C 97.0265 1.64512 1.5786 0
M  V30 1000 C 98.0105 0.500073 1.52932 0
M  V30 1001 O 99.2025 0.753964 1.60139 0
M  V30 1002 C 96.3315 1.73263 2.9637 0
M  V30 1003 C 95.4175 2.93409 3.06222 0
M  V30 1004 N 95.8085 4.17236 2.85915 0
M  V30 1005 C 94.1065 2.91742 3.37346 0
M  V30 1006 C 94.8075 4.981 3.00451 0
M  V30 1007 N 93.7835 4.3184 3.30174 0
M  V30 1008 H 97.5855 2.57955 1.40842 0
M  V30 1009 H 95.0995 1.47086 0.688439 0
M  V30 1010 H 97.0965 1.81724 3.75209 0
M  V30 1011 H 95.7565 0.809711 3.14442 0
M  V30 1012 H 96.7675 4.46909 2.6171 0
M  V30 1013 H 93.4445 2.08907 3.61475 0
M  V30 1014 H 94.8345 6.06532 2.89082 0
M  V30 1015 N 97.5546 -0.734337 1.39446 0
M  V30 1016 C 98.5026 -1.86971 1.38364 0
M  V30 1017 C 99.4966 -1.67288 0.266687 0
M  V30 1018 O 100.703 -1.74621 0.436755 0
M  V30 1019 H 97.0776 -0.615474 0.432082 0
M  V30 1020 H 99.0486 -1.85 2.34132 0
M  V30 1021 C 97.7976 -3.2466 1.24465 0
M  V30 1022 H 97.1206 -3.40402 2.09682 0
M  V30 1023 H 98.5606 -4.04292 1.27764 0
M  V30 1024 C 97.0196 -3.36867 -0.0468674 0
M  V30 1025 O 97.5496 -3.88618 -1.01681 0
M  V30 1026 N 95.7556 -2.90391 -0.110145 0
M  V30 1027 H 95.3026 -2.48466 0.679868 0
M  V30 1028 H 95.2606 -2.98939 -0.973799 0
M  V30 1029 N 99.0327 -1.24633 -0.964593 0
M  V30 1030 C 99.9957 -1.0424 -2.04124 0
M  V30 1031 C 100.996 0.00137563 -1.608 0
M  V30 1032 O 102.186 -0.239883 -1.7254 0
M  V30 1033 C 99.3177 -0.580588 -3.3592 0
M  V30 1034 H 100.511 -1.99803 -2.23649 0
M  V30 1035 H 98.0637 -1.06899 -1.14027 0
M  V30 1036 H 98.7987 0.3781 -3.22088 0
M  V30 1037 H 98.5837 -1.33398 -3.6871 0
M  V30 1038 H 100.074 -0.459034 -4.15069 0
M  V30 1039 N 100.511 1.16574 -1.06058 0
M  V30 1040 C 101.458 2.20883 -0.669263 0
M  V30 1041 C 102.428 1.62729 0.332918 0
M  V30 1042 O 103.613 1.895 0.222346 0
M  V30 1043 C 100.753 3.45049 -0.0593572 0
M  V30 1044 C 99.8658 4.17458 -1.11143 0
M  V30 1045 C 99.0008 5.29135 -0.467916 0
M  V30 1046 C 98.0398 5.93343 -1.50369 0
M  V30 1047 N 97.1768 6.96516 -0.883706 0
M  V30 1048 H 102.017 2.53709 -1.5632 0
M  V30 1049 H 99.5538 1.24616 -0.781625 0
M  V30 1050 H 101.512 4.16033 0.311771 0
M  V30 1051 H 100.142 3.12781 0.797992 0
M  V30 1052 H 99.1938 3.45101 -1.60029 0
M  V30 1053 H 100.506 4.61307 -1.89731 0
M  V30 1054 H 99.6598 6.06684 -0.0436871 0
M  V30 1055 H 98.3988 4.86443 0.349864 0
M  V30 1056 H 97.4038 5.14517 -1.93784 0
M  V30 1057 H 98.6288 6.38114 -2.32352 0
M  V30 1058 H 96.5748 6.55943 -0.086595 0
M  V30 1059 H 96.4918 7.38723 -1.607 0
M  V30 1060 H 97.7598 7.77993 -0.484543 0
M  V30 1061 N 101.989 0.842826 1.3317 0
M  V30 1062 C 103.217 0.454055 2.01856 0
M  V30 1063 C 103.632 -0.94587 1.63397 0
M  V30 1064 O 102.989 -1.61534 0.849302 0
M  V30 1065 C 103.04 0.569715 3.56982 0
M  V30 1066 O 102.761 1.91448 3.94055 0
M  V30 1067 C 104.262 0.178412 4.42941 0
M  V30 1068 H 101.482 0.17979 0.646465 0
M  V30 1069 H 104.026 1.1365 1.70012 0
M  V30 1070 H 102.181 -0.0648587 3.87346 0
M  V30 1071 H 102.595 1.90282 4.88767 0
M  V30 1072 H 104.069 0.310376 5.51127 0
M  V30 1073 H 104.546 -0.880056 4.30293 0
M  V30 1074 H 105.152 0.787579 4.17944 0
M  V30 1075 N 103.467 -1.45747 0.599634 0
M  V30 1076 C 104.414 -2.30467 -0.123849 0
M  V30 1077 C 105.384 -1.41632 -0.86774 0
M  V30 1078 O 106.569 -1.70568 -0.855056 0
M  V30 1079 C 103.709 -3.26402 -1.12051 0
M  V30 1080 C 102.822 -4.3034 -0.37832 0
M  V30 1081 C 101.957 -5.13389 -1.364 0
M  V30 1082 C 100.996 -6.09061 -0.609171 0
M  V30 1083 N 100.133 -6.84918 -1.54374 0
M  V30 1084 H 104.973 -2.91802 0.604627 0
M  V30 1085 H 102.51 -1.43797 0.309972 0
M  V30 1086 H 104.468 -3.80482 -1.7114 0
M  V30 1087 H 103.098 -2.66839 -1.8165 0
M  V30 1088 H 102.15 -3.78984 0.327929 0
M  V30 1089 H 103.462 -4.98354 0.210997 0
M  V30 1090 H 102.616 -5.7183 -2.02719 0
M  V30 1091 H 101.355 -4.45376 -1.98725 0
M  V30 1092 H 100.36 -5.49758 0.0676979 0
M  V30 1093 H 101.585 -6.79099 0.00891991 0
M  V30 1094 H 99.531 -6.19601 -2.15478 0
M  V30 1095 H 99.448 -7.49254 -1.00766 0
M  V30 1096 H 100.716 -7.47906 -2.19676 0
M  V30 1097 N 104.945 -0.338344 -1.53925 0
M  V30 1098 C 106.356 0.146651 -1.86123 0
M  V30 1099 C 106.707 1.5042 -1.2597 0
M  V30 1100 O 105.832 2.08723 -0.571294 0
M  V30 1101 C 106.427 0.272879 -3.37699 0
M  V30 1102 C 104.986 0.702103 -3.69794 0
M  V30 1103 C 104.133 -0.167304 -2.76795 0
M  V30 1104 H 107.084 -0.558123 -1.48562 0
M  V30 1105 H 107.105 1.10128 -3.64214 0
M  V30 1106 H 106.617 -0.715307 -3.81451 0
M  V30 1107 H 104.718 1.6995 -3.31584 0
M  V30 1108 H 104.831 0.495604 -4.7653 0
M  V30 1109 H 103.195 0.359527 -2.5215 0
M  V30 1110 H 103.978 -1.15253 -3.23375 0
M  V30 1111 N 106.423 1.57458 -0.0668435 0
M  V30 1112 C 107.839 1.56947 0.289772 0
M  V30 1113 C 108.039 1.07584 1.70376 0
M  V30 1114 O 107.095 0.739486 2.41429 0
M  V30 1115 C 108.408 3.0052 0.103943 0
M  V30 1116 C 109.956 3.12517 0.173857 0
M  V30 1117 C 110.431 4.57997 0.0163682 0
M  V30 1118 N 111.922 4.63144 0.0721352 0
M  V30 1119 C 112.657 5.73394 -0.0253794 0
M  V30 1120 N 112.153 6.92576 -0.176133 0
M  V30 1121 N 113.946 5.62091 0.0313305 0
M  V30 1122 H 106.097 1.87863 -0.991027 0
M  V30 1123 H 108.36 0.86583 -0.38606 0
M  V30 1124 H 108.066 3.40729 -0.871572 0
M  V30 1125 H 107.94 3.67304 0.858366 0
M  V30 1126 H 110.327 2.72197 1.13985 0
M  V30 1127 H 110.408 2.48381 -0.611586 0
M  V30 1128 H 110.052 4.99005 -0.946374 0
M  V30 1129 H 109.982 5.20158 0.821153 0
M  V30 1130 H 112.473 3.77436 0.187263 0
M  V30 1131 H 112.786 7.72418 -0.242821 0
M  V30 1132 H 111.131 6.94678 -0.211429 0
M  V30 1133 H 114.322 4.67867 0.147773 0
M  V30 1134 H 114.495 6.47982 -0.048121 0
M  V30 1135 N 107.901 -0.206675 1.56239 0
M  V30 1136 C 108.811 -1.27686 1.96808 0
M  V30 1137 C 109.827 -1.50455 0.874035 0
M  V30 1138 O 111.003 -1.63295 1.17884 0
M  V30 1139 C 108.068 -2.60358 2.28942 0
M  V30 1140 C 107.129 -2.45762 3.51994 0
M  V30 1141 C 106.362 -3.72108 3.82585 0
M  V30 1142 O 106.585 -4.75776 3.14631 0
M  V30 1143 O 105.519 -3.6833 4.76043 0
M  V30 1144 H 109.345 -0.962593 2.88041 0
M  V30 1145 H 106.93 -0.410746 1.43643 0
M  V30 1146 H 108.812 -3.38687 2.50737 0
M  V30 1147 H 107.487 -2.91435 1.4088 0
M  V30 1148 H 106.394 -1.65584 3.35459 0
M  V30 1149 H 107.727 -2.19621 4.40486 0
M  V30 1150 N 109.379 -1.50304 -0.473955 0
M  V30 1151 C 110.289 -1.7174 -1.5982 0
M  V30 1152 C 111.305 -0.600457 -1.63311 0
M  V30 1153 O 112.481 -0.878441 -1.81233 0
M  V30 1154 C 109.546 -1.80427 -2.96052 0
M  V30 1155 C 108.607 -3.04148 -3.02972 0
M  V30 1156 C 107.84 -3.12411 -4.32706 0
M  V30 1157 O 108.063 -2.27542 -5.23049 0
M  V30 1158 O 106.997 -4.05113 -4.45159 0
M  V30 1159 H 110.823 -2.67035 -1.44657 0
M  V30 1160 H 108.408 -1.34366 -0.653148 0
M  V30 1161 H 110.29 -1.88338 -3.7697 0
M  V30 1162 H 108.965 -0.883156 -3.11419 0
M  V30 1163 H 107.872 -3.0174 -2.21142 0
M  V30 1164 H 109.205 -3.95829 -2.92541 0
M  V30 1165 N 110.857 0.726932 -1.39834 0
M  V30 1166 C 111.789 1.85147 -1.35104 0
M  V30 1167 C 112.802 1.60736 -0.258392 0
M  V30 1168 O 113.991 1.70821 -0.517931 0
M  V30 1169 C 111.091 3.21332 -1.07697 0
M  V30 1170 C 110.264 3.73033 -2.28396 0
M  V30 1171 C 109.323 4.87802 -1.97322 0
M  V30 1172 O 108.349 5.01043 -2.70083 0
M  V30 1173 N 109.551 5.72768 -0.944273 0
M  V30 1174 H 112.316 1.89706 -2.32017 0
M  V30 1175 H 109.877 0.908006 -1.3404 0
M  V30 1176 H 111.869 3.95691 -0.849144 0
M  V30 1177 H 110.439 3.11992 -0.194909 0
M  V30 1178 H 109.659 2.89934 -2.6708 0
M  V30 1179 H 110.947 4.0431 -3.08887 0
M  V30 1180 H 110.345 5.64669 -0.341427 0
M  V30 1181 H 108.902 6.4716 -0.776346 0
M  V30 1182 N 112.336 1.25143 0.95797 0
M  V30 1183 C 113.566 1.12261 1.73439 0
M  V30 1184 C 113.974 -0.326715 1.86358 0
M  V30 1185 O 113.317 -1.2367 1.35836 0
M  V30 1186 C 113.379 1.69966 3.16784 0
M  V30 1187 C 113.043 3.18936 3.27305 0
M  V30 1188 C 114.04 4.15968 3.11877 0
M  V30 1189 C 111.725 3.59083 3.51234 0
M  V30 1190 C 113.719 5.51126 3.20217 0
M  V30 1191 C 111.406 4.9438 3.5921 0
M  V30 1192 C 112.404 5.90211 3.43716 0
M  V30 1193 O 112.092 7.23046 3.51368 0
M  V30 1194 H 111.824 0.392476 0.550399 0
M  V30 1195 H 114.378 1.65927 1.21068 0
M  V30 1196 H 112.608 1.10744 3.70503 0
M  V30 1197 H 114.297 1.52232 3.76272 0
M  V30 1198 H 115.063 3.86292 2.93264 0
M  V30 1199 H 110.942 2.84989 3.62356 0
M  V30 1200 H 114.486 6.25905 3.0804 0
M  V30 1201 H 110.383 5.23723 3.77339 0
M  V30 1202 H 111.151 7.31097 3.6802 0
M  V30 1203 N 113.814 -1.1601 1.06675 0
M  V30 1204 C 114.762 -2.22586 0.675157 0
M  V30 1205 C 115.756 -1.66525 -0.310766 0
M  V30 1206 O 116.962 -1.79145 -0.175215 0
M  V30 1207 H 113.337 -0.724855 0.200223 0
M  V30 1208 H 115.308 -2.52899 1.58381 0
M  V30 1209 C 114.057 -3.47604 0.0817162 0
M  V30 1210 H 113.38 -3.91058 0.831484 0
M  V30 1211 H 114.82 -4.23718 -0.154708 0
M  V30 1212 C 113.279 -3.15718 -1.17576 0
M  V30 1213 O 113.809 -3.31878 -2.26318 0
M  V30 1214 N 112.015 -2.69816 -1.07923 0
M  V30 1215 H 111.562 -2.56866 -0.194293 0
M  V30 1216 H 111.52 -2.48855 -1.92141 0
M  V30 1217 N 115.292 -0.849877 -1.32721 0
M  V30 1218 C 116.517 -0.463856 -2.02146 0
M  V30 1219 C 116.942 0.930449 -1.63476 0
M  V30 1220 O 116.3 1.61033 -0.832952 0
M  V30 1221 C 116.348 -0.604955 -3.55489 0
M  V30 1222 O 115.452 0.36425 -4.10788 0
M  V30 1223 H 114.793 -0.187046 -0.637111 0
M  V30 1224 H 117.323 -1.14775 -1.69375 0
M  V30 1225 H 117.333 -0.490696 -4.05038 0
M  V30 1226 H 116.008 -1.62174 -3.82978 0
M  V30 1227 H 114.585 0.206628 -3.72327 0
M  V30 1228 N 116.77 1.45427 -0.607355 0
M  V30 1229 C 117.998 2.06614 -0.108814 0
M  V30 1230 C 118.413 1.45204 1.2067 0
M  V30 1231 O 117.77 0.566132 1.73497 0
M  V30 1232 C 117.821 3.61481 0.0375347 0
M  V30 1233 O 117.542 4.20598 -1.22593 0
M  V30 1234 C 119.043 4.39652 0.567561 0
M  V30 1235 H 116.263 0.66747 -0.0687351 0
M  V30 1236 H 118.807 1.86675 -0.835022 0
M  V30 1237 H 116.962 3.80762 0.714068 0
M  V30 1238 H 117.376 5.1377 -1.05547 0
M  V30 1239 H 118.85 5.48518 0.61905 0
M  V30 1240 H 119.327 4.09417 1.58978 0
M  V30 1241 H 119.933 4.25234 -0.0749202 0
M  V30 1242 N 118.248 0.346503 1.53744 0
M  V30 1243 C 119.478 -0.250047 2.05081 0
M  V30 1244 C 119.886 -1.44529 1.22098 0
M  V30 1245 O 119.229 -1.81992 0.249917 0
M  V30 1246 C 119.291 -0.725934 3.52094 0
M  V30 1247 C 118.955 0.350053 4.55657 0
M  V30 1248 C 119.952 1.19372 5.0601 0
M  V30 1249 C 117.637 0.504827 4.99757 0
M  V30 1250 C 119.631 2.17768 5.99046 0
M  V30 1251 C 117.318 1.49218 5.92602 0
M  V30 1252 C 118.316 2.32706 6.42135 0
M  V30 1253 O 118.004 3.2976 7.33153 0
M  V30 1254 H 117.736 -0.0515469 0.674032 0
M  V30 1255 H 120.29 0.497559 1.99282 0
M  V30 1256 H 118.52 -1.52483 3.55367 0
M  V30 1257 H 120.209 -1.24336 3.86388 0
M  V30 1258 H 120.975 1.08525 4.72702 0
M  V30 1259 H 116.854 -0.135178 4.60802 0
M  V30 1260 H 120.398 2.82971 6.37631 0
M  V30 1261 H 116.295 1.6012 6.25325 0
M  V30 1262 H 117.063 3.25265 7.51096 0
M  V30 1263 N 119.726 -1.57421 0.075193 0
M  V30 1264 C 121.142 -1.57099 -0.281444 0
M  V30 1265 C 121.342 -1.08486 -1.69803 0
M  V30 1266 O 120.398 -0.752279 -2.41033 0
M  V30 1267 C 121.711 -3.00571 -0.0880041 0
M  V30 1268 C 123.259 -3.12605 -0.157281 0
M  V30 1269 C 123.734 -4.57999 0.0079207 0
M  V30 1270 N 125.225 -4.63176 -0.0475725 0
M  V30 1271 C 125.96 -5.73373 0.0557876 0
M  V30 1272 N 125.456 -6.92473 0.21286 0
M  V30 1273 N 127.249 -5.621 -0.00152098 0
M  V30 1274 H 119.4 -1.87335 1.00098 0
M  V30 1275 H 121.663 -0.86377 0.390646 0
M  V30 1276 H 121.369 -3.40262 0.889629 0
M  V30 1277 H 121.243 -3.67754 -0.838875 0
M  V30 1278 H 123.63 -2.72798 -1.1254 0
M  V30 1279 H 123.711 -2.48053 0.62475 0
M  V30 1280 H 123.355 -4.98496 0.972824 0
M  V30 1281 H 123.285 -5.20586 -0.793556 0
M  V30 1282 H 125.776 -3.7753 -0.167244 0
M  V30 1283 H 126.089 -7.72279 0.283781 0
M  V30 1284 H 124.434 -6.94556 0.248267 0
M  V30 1285 H 127.625 -4.67938 -0.122958 0
M  V30 1286 H 127.798 -6.47948 0.0824844 0
M  V30 1287 N 121.204 0.198386 -1.56346 0
M  V30 1288 C 122.45 0.920648 -1.80698 0
M  V30 1289 C 122.783 1.83045 -0.648697 0
M  V30 1290 O 122.058 1.91308 0.350925 0
M  V30 1291 C 122.341 1.73971 -3.15287 0
M  V30 1292 C 122.194 0.85485 -4.41602 0
M  V30 1293 C 123.513 2.71296 -3.46535 0
M  V30 1294 H 120.632 0.333261 -0.657348 0
M  V30 1295 H 123.274 0.188198 -1.89066 0
M  V30 1296 H 121.424 2.36416 -3.08285 0
M  V30 1297 H 123.096 0.245362 -4.60647 0
M  V30 1298 H 121.339 0.161398 -4.335 0
M  V30 1299 H 122.01 1.46286 -5.32264 0
M  V30 1300 H 124.486 2.18983 -3.53816 0
M  V30 1301 H 123.362 3.2569 -4.41834 0
M  V30 1302 H 123.623 3.5018 -2.69864 0
M  V30 1303 N 122.682 1.50554 0.465978 0
M  V30 1304 C 123.928 1.62038 1.21949 0
M  V30 1305 C 124.261 0.322116 1.9151 0
M  V30 1306 O 123.536 -0.676723 1.82348 0
M  V30 1307 C 123.819 2.80421 2.25912 0
M  V30 1308 C 123.672 4.20144 1.60622 0
M  V30 1309 C 124.991 2.94354 3.27176 0
M  V30 1310 H 122.11 0.589752 0.441998 0
M  V30 1311 H 124.752 1.82956 0.51257 0
M  V30 1312 H 122.902 2.62717 2.86203 0
M  V30 1313 H 124.574 4.49449 1.03889 0
M  V30 1314 H 122.817 4.24165 0.909211 0
M  V30 1315 H 123.488 4.98914 2.36196 0
M  V30 1316 H 125.964 3.10578 2.76913 0
M  V30 1317 H 124.84 3.788 3.97242 0
M  V30 1318 H 125.101 2.05186 3.916 0
M  V30 1319 N 124.16 -0.719506 1.40217 0
M  V30 1320 C 125.385 -1.51371 1.4178 0
M  V30 1321 C 125.81 -1.88091 0.0182355 0
M  V30 1322 O 125.168 -1.52997 -0.972707 0
M  V30 1323 C 125.216 -2.768 2.31115 0
M  V30 1324 O 124.32 -3.73349 1.7517 0
M  V30 1325 H 123.661 -0.456529 0.482159 0
M  V30 1326 H 126.191 -0.88644 1.844 0
M  V30 1327 H 126.201 -3.25371 2.46167 0
M  V30 1328 H 124.876 -2.49407 3.3282 0
M  V30 1329 H 123.453 -3.32179 1.69444 0
M  V30 1330 N 125.638 -1.25649 -0.95132 0
M  V30 1331 C 126.884 -1.10757 -1.69884 0
M  V30 1332 C 127.217 0.350061 -1.91019 0
M  V30 1333 O 126.492 1.25783 -1.48354 0
M  V30 1334 C 126.775 -1.86606 -3.07978 0
M  V30 1335 C 126.628 -3.40217 -2.94232 0
M  V30 1336 C 127.947 -1.65182 -4.07925 0
M  V30 1337 H 125.066 -0.40374 -0.616574 0
M  V30 1338 H 127.708 -1.54521 -1.10558 0
M  V30 1339 H 125.858 -1.49409 -3.58621 0
M  V30 1340 H 127.53 -3.87108 -2.50889 0
M  V30 1341 H 125.773 -3.67759 -2.30078 0
M  V30 1342 H 126.444 -3.88505 -3.92133 0
M  V30 1343 H 128.92 -1.9757 -3.66204 0
M  V30 1344 H 127.796 -2.20683 -5.02583 0
M  V30 1345 H 128.057 -0.593933 -4.38092 0
M  V30 1346 N 127.117 1.15442 -1.07289 0
M  V30 1347 C 128.047 2.22312 -0.714107 0
M  V30 1348 C 129.028 1.67467 0.298155 0
M  V30 1349 O 130.213 1.93445 0.171048 0
M  V30 1350 C 127.343 3.47124 -0.110448 0
M  V30 1351 C 126.297 4.14926 -1.04979 0
M  V30 1352 C 125.623 5.33807 -0.308924 0
M  V30 1353 C 126.923 4.64762 -2.38314 0
M  V30 1354 H 128.617 2.5258 -1.6076 0
M  V30 1355 H 126.163 1.21404 -0.77441 0
M  V30 1356 H 128.116 4.21124 0.152482 0
M  V30 1357 H 126.84 3.16187 0.81812 0
M  V30 1358 H 125.499 3.42866 -1.29764 0
M  V30 1359 H 125.147 4.99126 0.623084 0
M  V30 1360 H 124.847 5.80113 -0.935036 0
M  V30 1361 H 126.371 6.10576 -0.0537771 0
M  V30 1362 H 127.785 5.30292 -2.1786 0
M  V30 1363 H 126.182 5.21728 -2.96514 0
M  V30 1364 H 127.252 3.80434 -3.00663 0
M  V30 1365 N 128.595 0.856903 1.32268 0
M  V30 1366 C 129.823 0.475439 2.01363 0
M  V30 1367 C 130.238 -0.928486 1.64392 0
M  V30 1368 O 129.595 -1.60624 0.866387 0
M  V30 1369 C 129.646 0.607545 3.56358 0
M  V30 1370 O 129.367 1.95617 3.92002 0
M  V30 1371 C 130.868 0.225382 4.42727 0
M  V30 1372 H 128.088 0.186636 0.644521 0
M  V30 1373 H 130.632 1.15446 1.68797 0
M  V30 1374 H 128.787 -0.0237719 3.87393 0
M  V30 1375 H 129.201 1.95455 4.86721 0
M  V30 1376 H 130.675 0.368813 5.50767 0
M  V30 1377 H 131.152 -0.834369 4.31202 0
M  V30 1378 H 131.758 0.831864 4.17085 0
M  V30 1379 N 130.073 -1.45103 0.615059 0
M  V30 1380 C 131.319 -2.02483 0.113347 0
M  V30 1381 C 131.652 -1.48146 -1.25564 0
M  V30 1382 O 130.927 -0.659104 -1.82992 0
M  V30 1383 C 131.21 -3.60005 0.0825278 0
M  V30 1384 C 131.063 -4.2466 1.48271 0
M  V30 1385 C 132.382 -4.35972 -0.601401 0
M  V30 1386 H 129.501 -0.735764 0.0426632 0
M  V30 1387 H 132.143 -1.72868 0.788461 0
M  V30 1388 H 130.293 -3.85367 -0.492378 0
M  V30 1389 H 131.965 -4.10458 2.10527 0
M  V30 1390 H 130.208 -3.82772 2.04127 0
M  V30 1391 H 130.879 -5.336 1.41332 0
M  V30 1392 H 133.355 -4.15947 -0.112666 0
M  V30 1393 H 132.231 -5.45697 -0.592097 0
M  V30 1394 H 132.492 -4.09391 -1.66887 0
M  V30 1395 N 131.551 -0.354651 -1.53558 0
M  V30 1396 C 132.481 0.489091 -2.2832 0
M  V30 1397 C 133.462 1.09324 -1.30316 0
M  V30 1398 O 134.647 1.11255 -1.59173 0
M  V30 1399 C 131.777 1.63456 -3.0643 0
M  V30 1400 C 130.731 1.1582 -4.12031 0
M  V30 1401 C 130.057 2.39305 -4.7816 0
M  V30 1402 C 131.357 0.250731 -5.21698 0
M  V30 1403 H 133.051 -0.134614 -2.99097 0
M  V30 1404 H 130.597 -0.0661826 -1.43848 0
M  V30 1405 H 132.55 2.23136 -3.57475 0
M  V30 1406 H 131.274 2.28533 -2.33325 0
M  V30 1407 H 129.933 0.584146 -3.61916 0
M  V30 1408 H 129.581 3.02814 -4.01637 0
M  V30 1409 H 129.281 2.08109 -5.49513 0
M  V30 1410 H 130.805 2.99691 -5.31994 0
M  V30 1411 H 132.219 0.754695 -5.68311 0
M  V30 1412 H 130.616 0.0301468 -6.00092 0
M  V30 1413 H 131.686 -0.710125 -4.79672 0
M  V30 1414 N 133.029 1.57378 -0.0835403 0
M  V30 1415 C 133.979 2.09916 0.889905 0
M  V30 1416 C 134.963 1.01151 1.25129 0
M  V30 1417 O 136.155 1.27443 1.2283 0
M  V30 1418 C 133.284 2.67379 2.15322 0
M  V30 1419 C 132.37 3.83167 1.81779 0
M  V30 1420 N 132.761 4.91665 1.18739 0
M  V30 1421 C 131.059 3.92685 2.11459 0
M  V30 1422 C 131.76 5.72409 1.0355 0
M  V30 1423 N 130.736 5.21062 1.54906 0
M  V30 1424 H 134.538 2.91188 0.398378 0
M  V30 1425 H 132.052 1.61956 0.120013 0
M  V30 1426 H 134.049 3.0334 2.8599 0
M  V30 1427 H 132.709 1.87558 2.65051 0
M  V30 1428 H 133.72 5.10784 0.855604 0
M  V30 1429 H 130.397 3.23856 2.63483 0
M  V30 1430 H 131.787 6.69699 0.543425 0
M  V30 1431 N 134.507 -0.190092 1.56449 0
M  V30 1432 C 135.439 -1.25973 1.91477 0
M  V30 1433 C 136.452 -1.41452 0.805931 0
M  V30 1434 O 137.641 -1.41789 1.08435 0
M  V30 1435 C 134.741 -2.63117 2.13594 0
M  V30 1436 C 133.914 -2.69182 3.4476 0
M  V30 1437 C 132.973 -3.87557 3.5593 0
M  V30 1438 O 131.999 -3.74427 4.28711 0
M  V30 1439 N 133.201 -5.03224 2.89388 0
M  V30 1440 H 135.966 -0.962394 2.83828 0
M  V30 1441 H 133.527 -0.379981 1.57378 0
M  V30 1442 H 135.519 -3.40742 2.1835 0
M  V30 1443 H 134.089 -2.85319 1.27719 0
M  V30 1444 H 133.309 -1.77793 3.51828 0
M  V30 1445 H 134.597 -2.70229 4.31107 0
M  V30 1446 H 133.995 -5.16791 2.30094 0
M  V30 1447 H 132.552 -5.78778 2.99764 0
M  V30 1448 N 135.985 -1.50799 -0.457987 0
M  V30 1449 C 137.262 -1.52968 -1.21902 0
M  V30 1450 C 137.642 -0.281906 -2.09209 0
M  V30 1451 O 136.99 0.734076 -2.16388 0
M  V30 1452 C 137.2 -2.8326 -2.03875 0
M  V30 1453 C 138.548 -3.34425 -2.6162 0
M  V30 1454 O 139.572 -2.8467 -2.14106 0
M  V30 1455 O 138.431 -4.21188 -3.48228 0
M  V30 1456 H 135.525 -0.614129 -0.553873 0
M  V30 1457 H 138.071 -1.63098 -0.468739 0
M  V30 1458 H 136.843 -3.65543 -1.39621 0
M  V30 1459 H 136.466 -2.76195 -2.8601 0
M  V30 1460 N 137.463 0.71206 -1.40597 0
M  V30 1461 C 138.709 1.47292 -1.40274 0
M  V30 1462 C 139.064 1.92399 -0.00576812 0
M  V30 1463 O 138.357 1.65507 0.965297 0
M  V30 1464 C 138.551 2.71039 -2.32965 0
M  V30 1465 C 138.38 2.38035 -3.81536 0
M  V30 1466 C 137.15 2.29203 -4.50327 0
M  V30 1467 C 139.348 2.02076 -4.72938 0
M  V30 1468 N 137.33 1.88911 -5.84111 0
M  V30 1469 C 138.701 1.72412 -5.95545 0
M  V30 1470 C 140.756 1.88742 -4.60739 0
M  V30 1471 C 139.459 1.30756 -7.07316 0
M  V30 1472 C 141.485 1.4849 -5.72455 0
M  V30 1473 C 140.847 1.19726 -6.94151 0
M  V30 1474 H 136.946 0.536919 -0.568544 0
M  V30 1475 H 139.53 0.825424 -1.76337 0
M  V30 1476 H 137.701 3.33533 -1.99023 0
M  V30 1477 H 139.433 3.37404 -2.23474 0
M  V30 1478 H 136.188 2.47059 -4.04053 0
M  V30 1479 H 136.612 1.71293 -6.54972 0
M  V30 1480 H 141.254 2.0964 -3.67166 0
M  V30 1481 H 138.972 1.08601 -8.00769 0
M  V30 1482 H 142.558 1.38747 -5.65014 0
M  V30 1483 H 141.438 0.890482 -7.79128 0
M  V30 1484 N 138.941 1.26152 0.944643 0
M  V30 1485 C 139.871 1.09902 2.06019 0
M  V30 1486 C 140.852 0.00519538 1.70099 0
M  V30 1487 O 142.037 0.176583 1.93396 0
M  V30 1488 C 139.167 0.727562 3.39594 0
M  V30 1489 C 138.121 1.77274 3.89561 0
M  V30 1490 C 137.447 1.25569 5.19747 0
M  V30 1491 C 138.747 3.17357 4.14827 0
M  V30 1492 H 140.441 2.03217 2.19871 0
M  V30 1493 H 137.987 0.978452 1.05652 0
M  V30 1494 H 139.94 0.600777 4.17095 0
M  V30 1495 H 138.664 -0.241287 3.25707 0
M  V30 1496 H 137.323 1.88814 3.14237 0
M  V30 1497 H 136.971 0.276783 5.02238 0
M  V30 1498 H 136.671 1.95433 5.54148 0
M  V30 1499 H 138.195 1.1415 5.99835 0
M  V30 1500 H 139.609 3.08914 4.82954 0
M  V30 1501 H 138.006 3.84781 4.60504 0
M  V30 1502 H 139.076 3.63673 3.20734 0
M  V30 1503 N 140.419 -1.14872 1.07899 0
M  V30 1504 C 141.367 -2.21857 0.698727 0
M  V30 1505 C 142.361 -1.66845 -0.293086 0
M  V30 1506 O 143.567 -1.79321 -0.156204 0
M  V30 1507 H 139.942 -0.722691 0.207899 0
M  V30 1508 H 141.913 -2.51205 1.61054 0
M  V30 1509 C 140.662 -3.47498 0.11858 0
M  V30 1510 H 139.985 -3.90154 0.872914 0
M  V30 1511 H 141.425 -4.23858 -0.109759 0
M  V30 1512 C 139.884 -3.16947 -1.1422 0
M  V30 1513 O 140.414 -3.3426 -2.22785 0
M  V30 1514 N 138.62 -2.70946 -1.05055 0
M  V30 1515 H 138.167 -2.57058 -0.167038 0
M  V30 1516 H 138.125 -2.50879 -1.89491 0
M  V30 1517 N 141.898 -0.863906 -1.31812 0
M  V30 1518 C 143.146 -0.470904 -1.96537 0
M  V30 1519 C 143.467 0.978771 -1.68657 0
M  V30 1520 O 142.737 1.6853 -0.998717 0
M  V30 1521 H 141.317 -0.171148 -0.72713 0
M  V30 1522 H 143.979 -1.10236 -1.60729 0
M  V30 1523 H 143.075 -0.623616 -3.05806 0
M  V30 1524 N 143.376 1.44774 -0.622745 0
M  V30 1525 C 144.323 2.30635 0.0871679 0
M  V30 1526 C 145.293 1.42994 0.845097 0
M  V30 1527 O 146.478 1.71907 0.827812 0
M  V30 1528 C 143.618 3.28144 1.06844 0
M  V30 1529 C 142.731 4.30888 0.309809 0
M  V30 1530 C 141.866 5.15494 1.28215 0
M  V30 1531 C 140.905 6.09953 0.512198 0
M  V30 1532 N 140.042 6.87287 1.43458 0
M  V30 1533 H 144.882 2.90803 -0.650974 0
M  V30 1534 H 142.419 1.43286 -0.33281 0
M  V30 1535 H 144.377 3.83157 1.65066 0
M  V30 1536 H 143.007 2.69695 1.77382 0
M  V30 1537 H 142.059 3.78414 -0.388181 0
M  V30 1538 H 143.371 4.97955 -0.290254 0
M  V30 1539 H 142.525 5.74983 1.93596 0
M  V30 1540 H 141.264 4.48481 1.91614 0
M  V30 1541 H 140.269 5.49581 -0.155151 0
M  V30 1542 H 141.494 6.78999 -0.116958 0
M  V30 1543 H 139.44 6.2295 2.05594 0
M  V30 1544 H 139.357 7.50763 0.888335 0
M  V30 1545 H 140.625 7.51306 2.07749 0
M  V30 1546 N 144.854 0.36279 1.53368 0
M  V30 1547 C 145.764 -0.492994 2.29362 0
M  V30 1548 C 146.78 -1.09507 1.35219 0
M  V30 1549 O 147.956 -1.10662 1.68273 0
M  V30 1550 C 145.021 -1.61855 3.066 0
M  V30 1551 C 144.082 -1.04429 4.16405 0
M  V30 1552 C 143.315 -2.11621 4.89951 0
M  V30 1553 O 143.538 -3.32684 4.63333 0
M  V30 1554 O 142.472 -1.74835 5.75948 0
M  V30 1555 H 146.298 0.125331 3.03441 0
M  V30 1556 H 143.883 0.127253 1.48857 0
M  V30 1557 H 145.765 -2.27302 3.54841 0
M  V30 1558 H 144.44 -2.22233 2.3536 0
M  V30 1559 H 143.347 -0.353819 3.72423 0
M  V30 1560 H 144.68 -0.485113 4.89804 0
M  V30 1561 N 146.332 -1.57332 0.0918853 0
M  V30 1562 C 147.562 -1.98286 -0.580205 0
M  V30 1563 C 147.97 -0.969713 -1.6246 0
M  V30 1564 O 147.313 0.0493501 -1.83634 0
M  V30 1565 C 147.375 -3.35603 -1.28882 0
M  V30 1566 C 147.039 -4.55285 -0.395559 0
M  V30 1567 C 148.036 -5.18687 0.355002 0
M  V30 1568 C 145.721 -5.01314 -0.314556 0
M  V30 1569 C 147.715 -6.26484 1.17458 0
M  V30 1570 C 145.402 -6.08979 0.508677 0
M  V30 1571 C 146.4 -6.71429 1.2519 0
M  V30 1572 O 146.088 -7.77018 2.06151 0
M  V30 1573 H 145.82 -0.656678 -0.160466 0
M  V30 1574 H 148.374 -2.04721 0.16688 0
M  V30 1575 H 146.604 -3.25842 -2.08241 0
M  V30 1576 H 148.293 -3.61026 -1.85512 0
M  V30 1577 H 149.059 -4.84058 0.302134 0
M  V30 1578 H 144.938 -4.5247 -0.882697 0
M  V30 1579 H 148.482 -6.75159 1.75518 0
M  V30 1580 H 144.379 -6.4304 0.563037 0
M  V30 1581 H 145.147 -7.93991 1.98799 0
M  V30 1582 N 147.81 0.181792 -1.56548 0
M  V30 1583 C 148.757 1.22521 -1.95595 0
M  V30 1584 C 149.727 1.4454 -0.818373 0
M  V30 1585 O 150.912 1.57454 -1.07763 0
M  V30 1586 C 148.052 2.56193 -2.31212 0
M  V30 1587 C 147.165 2.41641 -3.58097 0
M  V30 1588 C 146.3 3.68108 -3.82975 0
M  V30 1589 C 145.339 3.48445 -5.03242 0
M  V30 1590 N 144.476 4.66956 -5.24306 0
M  V30 1591 H 149.316 0.885226 -2.84548 0
M  V30 1592 H 146.853 0.425718 -1.40805 0
M  V30 1593 H 148.811 3.34088 -2.49882 0
M  V30 1594 H 147.441 2.88208 -1.45382 0
M  V30 1595 H 146.493 1.54976 -3.474 0
M  V30 1596 H 147.805 2.23052 -4.46149 0
M  V30 1597 H 146.959 4.54441 -4.01956 0
M  V30 1598 H 145.698 3.89666 -2.93278 0
M  V30 1599 H 144.703 2.60499 -4.8417 0
M  V30 1600 H 145.928 3.2832 -5.9446 0
M  V30 1601 H 143.874 4.88752 -4.37559 0
M  V30 1602 H 143.791 4.51242 -6.06561 0
M  V30 1603 H 145.059 5.54602 -5.47756 0
M  V30 1604 N 149.288 1.51039 0.449983 0
M  V30 1605 C 150.528 1.64732 1.21007 0
M  V30 1606 C 150.892 0.349865 1.88785 0
M  V30 1607 O 152.093 0.362431 2.66345 0
M  V30 1608 C 150.364 2.80902 2.20973 0
M  V30 1609 S 151.923 3.14851 3.05638 0
M  V30 1610 H 148.741 0.5805 0.410538 0
M  V30 1611 H 151.343 1.88901 0.503634 0
M  V30 1612 H 150.047 3.73627 1.69796 0
M  V30 1613 H 149.578 2.58882 2.96215 0
M  V30 1614 H 151.593 2.60306 4.22439 0
M  V30 1615 N 150.766 -0.704594 1.40972 0
M  V30 1616 C 151.713 -1.81862 1.42109 0
M  V30 1617 C 152.683 -1.63781 0.276593 0
M  V30 1618 O 153.868 -1.84759 0.4763 0
M  V30 1619 C 151.008 -3.19669 1.30022 0
M  V30 1620 C 150.121 -3.49246 2.54267 0
M  V30 1621 C 149.256 -4.76618 2.3454 0
M  V30 1622 C 148.295 -4.99133 3.54306 0
M  V30 1623 N 147.432 -6.17726 3.33706 0
M  V30 1624 H 152.272 -1.80226 2.37324 0
M  V30 1625 H 149.809 -0.880238 1.17857 0
M  V30 1626 H 151.767 -3.99263 1.21018 0
M  V30 1627 H 150.397 -3.20506 0.384192 0
M  V30 1628 H 149.449 -2.64125 2.73756 0
M  V30 1629 H 150.761 -3.61788 3.43381 0
M  V30 1630 H 149.915 -5.64249 2.22952 0
M  V30 1631 H 148.654 -4.66305 1.42867 0
M  V30 1632 H 147.659 -4.09953 3.66359 0
M  V30 1633 H 148.884 -5.11311 4.4692 0
M  V30 1634 H 146.83 -6.08642 2.44725 0
M  V30 1635 H 146.747 -6.30995 4.16391 0
M  V30 1636 H 148.015 -7.08115 3.25873 0
M  V30 1637 N 152.244 -1.26651 -0.937939 0
M  V30 1638 C 153.49 -1.12553 -1.687 0
M  V30 1639 C 153.823 0.329782 -1.91379 0
M  V30 1640 O 153.098 1.24202 -1.4968 0
M  V30 1641 C 153.381 -1.89862 -3.05981 0
M  V30 1642 C 153.234 -3.43318 -2.90607 0
M  V30 1643 C 154.553 -1.69499 -4.0615 0
M  V30 1644 H 151.672 -0.410257 -0.612257 0
M  V30 1645 H 154.314 -1.55685 -1.08913 0
M  V30 1646 H 152.464 -1.53204 -3.57017 0
M  V30 1647 H 154.136 -3.89747 -2.46769 0
M  V30 1648 H 152.379 -3.70179 -2.26164 0
M  V30 1649 H 153.05 -3.92642 -3.8799 0
M  V30 1650 H 155.526 -2.01442 -3.64088 0
M  V30 1651 H 154.402 -2.26002 -5.00214 0
M  V30 1652 H 154.663 -0.640365 -4.37438 0
M  V30 1653 N 153.722 1.14298 -1.08507 0
M  V30 1654 C 154.947 1.8976 -0.837001 0
M  V30 1655 C 155.372 1.78097 0.605228 0
M  V30 1656 O 154.73 1.12188 1.4242 0
M  V30 1657 C 154.778 3.37685 -1.26495 0
M  V30 1658 O 153.882 4.10281 -0.417514 0
M  V30 1659 H 153.223 0.590365 -0.303917 0
M  V30 1660 H 155.753 1.44672 -1.44676 0
M  V30 1661 H 155.763 3.88501 -1.24625 0
M  V30 1662 H 154.438 3.45492 -2.31534 0
M  V30 1663 H 153.015 3.69536 -0.499722 0
M  V30 1664 N 155.201 0.870884 1.31352 0
M  V30 1665 C 156.149 0.316445 2.30437 0
M  V30 1666 C 157.143 -0.568965 1.59559 0
M  V30 1667 O 158.349 -0.454964 1.74155 0
M  V30 1668 H 154.724 0.0836521 0.747333 0
M  V30 1669 H 156.695 1.16606 2.74673 0
M  V30 1670 C 155.444 -0.46635 3.44558 0
M  V30 1671 H 154.767 0.205687 3.99271 0
M  V30 1672 H 156.207 -0.819614 4.16003 0
M  V30 1673 C 154.666 -1.65797 2.9328 0
M  V30 1674 O 155.196 -2.75728 2.92125 0
M  V30 1675 N 153.402 -1.49041 2.4947 0
M  V30 1676 H 152.949 -0.59612 2.50608 0
M  V30 1677 H 152.907 -2.28911 2.15516 0
M  V30 1678 N 156.679 -1.44442 0.630414 0
M  V30 1679 C 157.626 -2.30678 -0.0749355 0
M  V30 1680 C 158.596 -1.4344 -0.837502 0
M  V30 1681 O 159.781 -1.72343 -0.818684 0
M  V30 1682 C 156.921 -3.28706 -1.05103 0
M  V30 1683 C 156.034 -4.31046 -0.286954 0
M  V30 1684 C 155.169 -5.16167 -1.2548 0
M  V30 1685 C 154.208 -6.10216 -0.479843 0
M  V30 1686 N 153.345 -6.88039 -1.39811 0
M  V30 1687 H 158.185 -2.90454 0.666386 0
M  V30 1688 H 155.722 -1.43107 0.340404 0
M  V30 1689 H 157.68 -3.84027 -1.63031 0
M  V30 1690 H 156.31 -2.70632 -1.75949 0
M  V30 1691 H 155.362 -3.78203 0.408243 0
M  V30 1692 H 156.674 -4.97794 0.316657 0
M  V30 1693 H 155.828 -5.76002 -1.90544 0
M  V30 1694 H 154.567 -4.49491 -1.89233 0
M  V30 1695 H 153.572 -5.49491 0.184295 0
M  V30 1696 H 154.797 -6.78928 0.152965 0
M  V30 1697 H 152.743 -6.24032 -2.02287 0
M  V30 1698 H 152.66 -7.51223 -0.848508 0
M  V30 1699 H 153.928 -7.52397 -2.03762 0
M  V30 1700 N 158.157 -0.370918 -1.53173 0
M  V30 1701 C 159.12 0.460778 -2.24521 0
M  V30 1702 C 160.12 1.00536 -1.25496 0
M  V30 1703 O 161.31 0.890266 -1.49733 0
M  V30 1704 C 158.442 1.64457 -2.98608 0
M  V30 1705 H 159.635 -0.163613 -2.99453 0
M  V30 1706 H 157.188 -0.122699 -1.55818 0
M  V30 1707 H 157.923 2.30691 -2.2793 0
M  V30 1708 H 157.708 1.26099 -3.7127 0
M  V30 1709 H 159.198 2.23384 -3.5283 0
M  V30 1710 N 159.635 1.57281 -0.100228 0
M  V30 1711 C 160.565 2.17328 0.853857 0
M  V30 1712 C 161.546 1.10804 1.2906 0
M  V30 1713 O 162.731 1.38963 1.35657 0
M  V30 1714 C 159.861 2.75772 2.11109 0
M  V30 1715 C 158.815 3.87713 1.81279 0
M  V30 1716 C 158.141 4.32882 3.13874 0
M  V30 1717 C 159.441 5.10677 1.09574 0
M  V30 1718 H 161.135 2.97305 0.353545 0
M  V30 1719 H 158.681 1.43009 0.168612 0
M  V30 1720 H 160.634 3.16433 2.78296 0
M  V30 1721 H 159.358 1.93057 2.63432 0
M  V30 1722 H 158.017 3.476 1.16489 0
M  V30 1723 H 157.665 3.47051 3.64095 0
M  V30 1724 H 157.365 5.08358 2.94696 0
M  V30 1725 H 158.889 4.7618 3.82211 0
M  V30 1726 H 160.303 5.48474 1.66879 0
M  V30 1727 H 158.7 5.91615 1.00557 0
M  V30 1728 H 159.77 4.84835 0.0793299 0
M  V30 1729 N 161.113 -0.173488 1.56642 0
M  V30 1730 C 162.524 -0.736155 1.71574 0
M  V30 1731 C 162.875 -1.82888 0.710389 0
M  V30 1732 O 162 -2.16017 -0.1287 0
M  V30 1733 C 162.595 -1.34211 3.11083 0
M  V30 1734 C 161.154 -1.85162 3.27707 0
M  V30 1735 C 160.301 -0.729765 2.67525 0
M  V30 1736 H 163.252 0.0518786 1.58615 0
M  V30 1737 H 163.273 -2.21178 3.09613 0
M  V30 1738 H 162.785 -0.546579 3.84232 0
M  V30 1739 H 160.886 -2.67366 2.59512 0
M  V30 1740 H 160.999 -1.99855 4.35425 0
M  V30 1741 H 159.363 -1.14965 2.27278 0
M  V30 1742 H 160.146 0.0538806 3.43258 0
M  V30 1743 N 162.591 -1.51276 -0.441967 0
M  V30 1744 C 163.554 -1.7167 -1.51862 0
M  V30 1745 C 164.554 -0.586793 -1.49711 0
M  V30 1746 O 165.744 -0.854276 -1.51815 0
M  V30 1747 C 162.876 -1.76889 -2.91416 0
M  V30 1748 H 164.069 -2.67754 -1.35084 0
M  V30 1749 H 161.622 -1.41196 -0.670333 0
M  V30 1750 H 162.357 -0.826026 -3.13604 0
M  V30 1751 H 162.142 -2.59001 -2.94382 0
M  V30 1752 H 163.632 -1.94522 -3.69528 0
M  V30 1753 N 164.069 0.697108 -1.41344 0
M  V30 1754 C 165.48 1.27697 -1.36199 0
M  V30 1755 C 165.831 1.9615 -0.0443463 0
M  V30 1756 O 164.956 1.98689 0.857419 0
M  V30 1757 C 165.551 2.32223 -2.46694 0
M  V30 1758 C 164.11 2.8579 -2.44952 0
M  V30 1759 C 163.257 1.59807 -2.26621 0
M  V30 1760 H 166.208 0.491968 -1.50882 0
M  V30 1761 H 166.229 3.1348 -2.15664 0
M  V30 1762 H 165.741 1.82373 -3.42581 0
M  V30 1763 H 163.842 3.3982 -1.52817 0
M  V30 1764 H 163.955 3.36325 -3.41207 0
M  V30 1765 H 162.319 1.8556 -1.7447 0
M  V30 1766 H 163.102 1.11956 -3.24532 0
M  V30 1767 N 165.547 1.27147 0.931209 0
M  V30 1768 C 166.796 1.12664 1.67302 0
M  V30 1769 C 167.109 -0.327718 1.92835 0
M  V30 1770 O 168.315 -0.593392 2.64936 0
M  V30 1771 C 166.771 1.9683 3.01307 0
M  V30 1772 C 166.379 3.46901 2.83485 0
M  V30 1773 C 168.123 1.90985 3.79111 0
M  V30 1774 C 166.03 4.23279 4.13024 0
M  V30 1775 H 164.96 0.41803 0.627509 0
M  V30 1776 H 167.611 1.51539 1.03481 0
M  V30 1777 H 165.993 1.50797 3.66164 0
M  V30 1778 H 167.167 4.00773 2.27415 0
M  V30 1779 H 165.482 3.54088 2.19113 0
M  V30 1780 H 168.079 2.45328 4.75098 0
M  V30 1781 H 168.422 0.882718 4.06834 0
M  V30 1782 H 168.955 2.34895 3.21044 0
M  V30 1783 H 165.694 5.26503 3.90481 0
M  V30 1784 H 165.214 3.74186 4.6877 0
M  V30 1785 H 166.893 4.32265 4.81411 0
M  V30 1786 N 167.025 -1.13721 1.09112 0
M  V30 1787 C 167.935 -2.22638 0.73957 0
M  V30 1788 C 168.951 -1.72091 -0.257068 0
M  V30 1789 O 170.127 -2.01155 -0.0992154 0
M  V30 1790 C 167.192 -3.46322 0.16191 0
M  V30 1791 C 166.253 -4.11775 1.21408 0
M  V30 1792 C 165.486 -5.29555 0.663891 0
M  V30 1793 O 165.709 -5.68077 -0.514274 0
M  V30 1794 O 164.643 -5.84973 1.41738 0
M  V30 1795 H 168.469 -2.55074 1.64836 0
M  V30 1796 H 166.054 -1.21791 0.865289 0
M  V30 1797 H 167.936 -4.21107 -0.157073 0
M  V30 1798 H 166.611 -3.15593 -0.719932 0
M  V30 1799 H 165.518 -3.3883 1.58571 0
M  V30 1800 H 166.851 -4.46627 2.06845 0
M  V30 1801 N 168.503 -0.877838 -1.30888 0
M  V30 1802 C 169.45 -0.337538 -2.28318 0
M  V30 1803 C 170.42 0.568346 -1.56074 0
M  V30 1804 O 171.605 0.498298 -1.84178 0
M  V30 1805 C 168.745 0.448142 -3.42178 0
M  V30 1806 C 167.858 -0.48615 -4.29256 0
M  V30 1807 C 166.993 0.314427 -5.30269 0
M  V30 1808 C 166.032 -0.615791 -6.08995 0
M  V30 1809 N 165.169 0.14902 -7.01942 0
M  V30 1810 H 170.009 -1.17356 -2.73919 0
M  V30 1811 H 167.546 -0.590094 -1.34745 0
M  V30 1812 H 169.504 0.919517 -4.06941 0
M  V30 1813 H 168.134 1.24879 -2.97666 0
M  V30 1814 H 167.186 -1.076 -3.64865 0
M  V30 1815 H 168.498 -1.19909 -4.84173 0
M  V30 1816 H 167.652 0.847969 -6.00745 0
M  V30 1817 H 166.391 1.06062 -4.76027 0
M  V30 1818 H 165.396 -1.16102 -5.37401 0
M  V30 1819 H 166.621 -1.36097 -6.65323 0
M  V30 1820 H 164.567 0.877884 -6.50099 0
M  V30 1821 H 164.484 -0.504433 -7.54315 0
M  V30 1822 H 165.752 0.663537 -7.76671 0
M  V30 1823 N 169.982 1.44106 -0.638065 0
M  V30 1824 C 171.21 2.06336 -0.152615 0
M  V30 1825 C 171.625 1.47731 1.17563 0
M  V30 1826 O 170.982 0.602806 1.72257 0
M  V30 1827 C 171.033 3.61479 -0.0391491 0
M  V30 1828 O 170.754 4.17903 -1.31487 0
M  V30 1829 C 172.255 4.40757 0.474176 0
M  V30 1830 H 169.475 0.665862 -0.0828776 0
M  V30 1831 H 172.019 1.84862 -0.87443 0
M  V30 1832 H 170.174 3.82191 0.633142 0
M  V30 1833 H 170.588 5.11416 -1.16421 0
M  V30 1834 H 172.062 5.49707 0.502562 0
M  V30 1835 H 172.539 4.12697 1.50258 0
M  V30 1836 H 173.145 4.24979 -0.165102 0
M  V30 1837 N 171.46 0.379036 1.52974 0
M  V30 1838 C 172.709 -0.207612 2.00629 0
M  V30 1839 C 173.022 -1.48758 1.27006 0
M  V30 1840 O 174.228 -2.15365 1.65318 0
M  V30 1841 C 172.684 -0.42053 3.57435 0
M  V30 1842 C 172.292 0.845587 4.39948 0
M  V30 1843 C 174.036 -0.964102 4.13407 0
M  V30 1844 C 171.943 0.601513 5.88333 0
M  V30 1845 H 170.873 -0.0813591 0.749598 0
M  V30 1846 H 173.524 0.499853 1.76561 0
M  V30 1847 H 171.906 -1.18959 3.7771 0
M  V30 1848 H 173.08 1.61848 4.31442 0
M  V30 1849 H 171.395 1.31336 3.95145 0
M  V30 1850 H 173.992 -1.16225 5.21916 0
M  V30 1851 H 174.335 -1.93019 3.68849 0
M  V30 1852 H 174.868 -0.25487 3.96983 0
M  V30 1853 H 171.607 1.53831 6.37194 0
M  V30 1854 H 171.127 -0.132628 5.99653 0
M  V30 1855 H 172.806 0.232134 6.46583 0
M  V30 1856 N 172.938 -1.57226 0.108567 0
M  V30 1857 C 174.163 -1.99604 -0.563303 0
M  V30 1858 C 174.588 -0.987563 -1.6009 0
M  V30 1859 O 173.946 0.0421687 -1.81251 0
M  V30 1860 C 173.994 -3.40902 -1.17552 0
M  V30 1861 O 173.098 -3.42896 -2.2912 0
M  V30 1862 H 172.439 -0.648704 -0.1417 0
M  V30 1863 H 174.969 -2.03679 0.193961 0
M  V30 1864 H 174.979 -3.78886 -1.51357 0
M  V30 1865 H 173.654 -4.1382 -0.415445 0
M  V30 1866 H 172.231 -3.1672 -1.96832 0
M  V30 1867 N 174.416 0.165178 -1.56732 0
M  V30 1868 C 175.363 1.2044 -1.96883 0
M  V30 1869 C 176.333 1.43664 -0.833657 0
M  V30 1870 O 177.518 1.56302 -1.09427 0
M  V30 1871 C 174.658 2.53727 -2.33916 0
M  V30 1872 C 173.771 2.3783 -3.6064 0
M  V30 1873 C 172.906 3.64026 -3.86857 0
M  V30 1874 C 171.945 3.43088 -5.06909 0
M  V30 1875 N 171.082 4.61369 -5.29229 0
M  V30 1876 H 175.922 0.854996 -2.85471 0
M  V30 1877 H 173.459 0.41076 -1.41249 0
M  V30 1878 H 175.417 3.31419 -2.53411 0
M  V30 1879 H 174.047 2.8665 -1.48431 0
M  V30 1880 H 173.099 1.51282 -3.49024 0
M  V30 1881 H 174.411 2.18308 -4.4849 0
M  V30 1882 H 173.565 4.50152 -4.06753 0
M  V30 1883 H 172.304 3.86533 -2.97394 0
M  V30 1884 H 171.309 2.55349 -4.86906 0
M  V30 1885 H 172.534 3.21997 -5.97909 0
M  V30 1886 H 170.48 4.84084 -4.42718 0
M  V30 1887 H 170.397 4.44783 -6.11313 0
M  V30 1888 H 171.665 5.48761 -5.53608 0
M  V30 1889 N 175.894 1.51508 0.433938 0
M  V30 1890 C 176.857 1.72473 1.50949 0
M  V30 1891 C 177.857 0.594725 1.49398 0
M  V30 1892 O 179.047 0.862315 1.5136 0
M  V30 1893 C 176.179 1.78431 2.90474 0
M  V30 1894 H 177.372 2.68467 1.33662 0
M  V30 1895 H 174.925 1.41549 0.662836 0
M  V30 1896 H 175.66 0.842645 3.13161 0
M  V30 1897 H 175.445 2.60558 2.93005 0
M  V30 1898 H 176.935 1.96479 3.68491 0
M  V30 1899 N 177.372 -0.689602 1.41712 0
M  V30 1900 C 178.319 -1.80345 1.44029 0
M  V30 1901 C 179.289 -1.63478 0.293948 0
M  V30 1902 O 180.474 -1.84244 0.495869 0
M  V30 1903 C 177.614 -3.18272 1.33405 0
M  V30 1904 C 176.727 -3.46529 2.57956 0
M  V30 1905 C 175.862 -4.74103 2.39582 0
M  V30 1906 C 174.901 -4.95347 3.5958 0
M  V30 1907 N 174.038 -6.14151 3.40239 0
M  V30 1908 H 178.878 -1.77698 2.39222 0
M  V30 1909 H 176.415 -0.867688 1.18784 0
M  V30 1910 H 178.373 -3.97956 1.25246 0
M  V30 1911 H 177.003 -3.2008 0.418164 0
M  V30 1912 H 176.055 -2.61207 2.76542 0
M  V30 1913 H 177.367 -3.58126 3.47199 0
M  V30 1914 H 176.521 -5.61853 2.28924 0
M  V30 1915 H 175.26 -4.64763 1.47805 0
M  V30 1916 H 174.265 -4.06044 3.70686 0
M  V30 1917 H 175.49 -5.06542 4.52318 0
M  V30 1918 H 173.436 -6.06013 2.51167 0
M  V30 1919 H 173.353 -6.26543 4.23061 0
M  V30 1920 H 174.621 -7.04619 3.33365 0
M  V30 1921 N 178.85 -1.27639 -0.924453 0
M  V30 1922 C 180.098 -1.13941 -1.66918 0
M  V30 1923 C 180.419 0.314589 -1.92446 0
M  V30 1924 O 179.689 1.21964 -1.53303 0
M  V30 1925 H 178.269 -0.418678 -0.618642 0
M  V30 1926 H 180.931 -1.60213 -1.10985 0
M  V30 1927 H 180.027 -1.67094 -2.63602 0
M  V30 1928 N 180.328 1.1314 -1.09713 0
M  V30 1929 C 181.26 2.18343 -0.697056 0
M  V30 1930 C 182.273 1.60669 0.262551 0
M  V30 1931 O 183.462 1.78435 0.0481527 0
M  V30 1932 C 180.562 3.38899 -0.00684728 0
M  V30 1933 C 179.735 4.26078 -0.988741 0
M  V30 1934 C 178.794 5.25155 -0.331394 0
M  V30 1935 O 177.82 5.60701 -0.979926 0
M  V30 1936 N 179.022 5.73271 0.913261 0
M  V30 1937 H 181.787 2.5328 -1.60216 0
M  V30 1938 H 179.348 1.28491 -0.984971 0
M  V30 1939 H 181.34 4.02255 0.444191 0
M  V30 1940 H 179.91 3.02175 0.800551 0
M  V30 1941 H 179.13 3.59453 -1.61826 0
M  V30 1942 H 180.418 4.81178 -1.65364 0
M  V30 1943 H 179.816 5.46544 1.45966 0
M  V30 1944 H 178.373 6.3855 1.30757 0
M  V30 1945 N 181.806 0.884767 1.30421 0
M  V30 1946 C 183.217 0.553656 1.78302 0
M  V30 1947 C 183.568 -0.930153 1.7275 0
M  V30 1948 O 182.693 -1.72681 1.30423 0
M  V30 1949 C 183.288 0.998234 3.2376 0
M  V30 1950 C 181.847 0.71854 3.69478 0
M  V30 1951 C 180.994 1.18132 2.50879 0
M  V30 1952 H 183.945 1.06901 1.17294 0
M  V30 1953 H 183.966 0.327118 3.79091 0
M  V30 1954 H 183.478 2.0782 3.27769 0
M  V30 1955 H 181.579 -0.349444 3.70958 0
M  V30 1956 H 181.692 1.30595 4.60958 0
M  V30 1957 H 180.056 0.600669 2.47516 0
M  V30 1958 H 180.839 2.26902 2.57624 0
M  V30 1959 N 183.284 -1.43765 0.645699 0
M  V30 1960 C 184.7 -1.56509 0.312591 0
M  V30 1961 C 184.9 -1.6307 -1.18365 0
M  V30 1962 O 183.956 -1.58167 -1.96824 0
M  V30 1963 C 185.269 -2.82968 1.01733 0
M  V30 1964 C 186.817 -2.96701 0.996865 0
M  V30 1965 C 187.292 -4.25982 1.68236 0
M  V30 1966 N 188.783 -4.32829 1.64964 0
M  V30 1967 C 189.518 -5.31613 2.14885 0
M  V30 1968 N 189.014 -6.36718 2.73061 0
M  V30 1969 N 190.807 -5.23217 2.05428 0
M  V30 1970 H 182.958 -1.3775 1.61675 0
M  V30 1971 H 185.221 -0.661067 0.679481 0
M  V30 1972 H 184.927 -2.84156 2.0724 0
M  V30 1973 H 184.801 -3.72957 0.564177 0
M  V30 1974 H 187.188 -2.95058 -0.0497719 0
M  V30 1975 H 187.269 -2.08022 1.48865 0
M  V30 1976 H 186.913 -4.28386 2.72852 0
M  V30 1977 H 186.843 -5.13545 1.16529 0
M  V30 1978 H 189.334 -3.57493 1.22503 0
M  V30 1979 H 189.647 -7.08401 3.08848 0
M  V30 1980 H 187.992 -6.37362 2.77118 0
M  V30 1981 H 191.183 -4.40019 1.59689 0
M  V30 1982 H 191.356 -6.00045 2.44643 0
M  V30 1983 N 184.763 -0.387143 -1.52771 0
M  V30 1984 C 185.673 0.456442 -2.30117 0
M  V30 1985 C 186.689 1.07342 -1.36944 0
M  V30 1986 O 187.865 1.07971 -1.70013 0
M  V30 1987 C 184.93 1.56957 -3.09136 0
M  V30 1988 C 183.991 0.977916 -4.18014 0
M  V30 1989 C 183.224 2.038 -4.93256 0
M  V30 1990 O 183.447 3.25271 -4.68567 0
M  V30 1991 O 182.381 1.6565 -5.78657 0
M  V30 1992 H 186.207 -0.17359 -3.03203 0
M  V30 1993 H 183.792 -0.150919 -1.48636 0
M  V30 1994 H 185.674 2.21628 -3.58412 0
M  V30 1995 H 184.349 2.18461 -2.38865 0
M  V30 1996 H 183.256 0.294525 -3.72939 0
M  V30 1997 H 184.589 0.407128 -4.90513 0
M  V30 1998 N 186.241 1.57166 -0.116904 0
M  V30 1999 C 187.652 1.82169 0.408809 0
M  V30 2000 C 188.003 1.03393 1.66746 0
M  V30 2001 O 187.128 0.269886 2.1471 0
M  V30 2002 C 187.723 3.30429 0.748466 0
M  V30 2003 C 186.282 3.5612 1.21882 0
M  V30 2004 C 185.429 2.76374 0.226452 0
M  V30 2005 H 188.38 1.5497 -0.342063 0
M  V30 2006 H 188.401 3.44943 1.60607 0
M  V30 2007 H 187.913 3.87737 -0.167784 0
M  V30 2008 H 186.014 3.04168 2.15204 0
M  V30 2009 H 186.127 4.64705 1.16559 0
M  V30 2010 H 184.491 2.44515 0.713063 0
M  V30 2011 H 185.274 3.3644 -0.682859 0
M  V30 2012 N 187.719 -0.156864 1.56817 0
M  V30 2013 C 188.651 -1.21883 1.94106 0
M  V30 2014 C 189.664 -1.3971 0.835754 0
M  V30 2015 O 190.853 -1.39457 1.11418 0
M  V30 2016 C 187.953 -2.58527 2.19127 0
M  V30 2017 C 187.126 -2.61809 3.50393 0
M  V30 2018 C 186.185 -3.7992 3.64071 0
M  V30 2019 O 185.211 -3.65249 4.36557 0
M  V30 2020 N 186.413 -4.96973 2.99997 0
M  V30 2021 H 189.178 -0.901974 2.85805 0
M  V30 2022 H 186.739 -0.346513 1.58148 0
M  V30 2023 H 188.731 -3.36034 2.25529 0
M  V30 2024 H 187.301 -2.82545 1.33742 0
M  V30 2025 H 186.521 -1.7029 3.5552 0
M  V30 2026 H 187.809 -2.61024 4.36742 0
M  V30 2027 H 187.207 -5.11794 2.41004 0
M  V30 2028 H 185.764 -5.7229 3.11974 0
M  V30 2029 N 189.197 -1.51736 -0.425897 0
M  V30 2030 C 190.443 -1.65214 -1.1761 0
M  V30 2031 C 190.776 -0.372778 -1.90589 0
M  V30 2032 O 190.051 0.628139 -1.84078 0
M  V30 2033 C 190.334 -2.86312 -2.18398 0
M  V30 2034 C 190.187 -4.24254 -1.49426 0
M  V30 2035 C 191.506 -3.02925 -3.19256 0
M  V30 2036 H 188.625 -0.601263 -0.426206 0
M  V30 2037 H 191.267 -1.8425 -0.463882 0
M  V30 2038 H 189.417 -2.70213 -2.79137 0
M  V30 2039 H 191.089 -4.52046 -0.919362 0
M  V30 2040 H 189.332 -4.26426 -0.796432 0
M  V30 2041 H 190.003 -5.05001 -2.22885 0
M  V30 2042 H 192.479 -3.1781 -2.68581 0
M  V30 2043 H 191.355 -3.89199 -3.8706 0
M  V30 2044 H 191.616 -2.15497 -3.86023 0
M  V30 2045 N 190.675 0.682077 -1.42076 0
M  V30 2046 C 191.905 1.46844 -1.45329 0
M  V30 2047 C 192.313 1.89102 -0.0609328 0
M  V30 2048 O 191.656 1.58238 0.933082 0
M  V30 2049 C 191.718 2.75375 -2.31104 0
M  V30 2050 C 191.382 2.55238 -3.79081 0
M  V30 2051 C 192.379 2.20309 -4.70914 0
M  V30 2052 C 190.064 2.70459 -4.2327 0
M  V30 2053 C 192.058 2.00859 -6.04925 0
M  V30 2054 C 189.745 2.50624 -5.57343 0
M  V30 2055 C 190.743 2.15876 -6.47986 0
M  V30 2056 O 190.431 1.96227 -7.79583 0
M  V30 2057 H 190.163 0.4586 -0.496651 0
M  V30 2058 H 192.717 0.846131 -1.87162 0
M  V30 2059 H 190.947 3.40061 -1.84107 0
M  V30 2060 H 192.636 3.37231 -2.25898 0
M  V30 2061 H 193.402 2.08153 -4.38061 0
M  V30 2062 H 189.281 2.96485 -3.53012 0
M  V30 2063 H 192.825 1.7366 -6.75639 0
M  V30 2064 H 188.722 2.62375 -5.89771 0
M  V30 2065 H 189.49 2.10883 -7.90867 0
M  V30 2066 N 192.153 1.28127 0.917671 0
M  V30 2067 C 193.381 1.17892 1.70026 0
M  V30 2068 C 193.796 -0.262958 1.8696 0
M  V30 2069 O 193.153 -1.17811 1.3938 0
M  V30 2070 C 193.204 1.86872 3.09453 0
M  V30 2071 O 192.925 3.25428 2.93306 0
M  V30 2072 C 194.426 1.8289 4.03815 0
M  V30 2073 H 191.646 0.40942 0.531617 0
M  V30 2074 H 194.19 1.69181 1.14883 0
M  V30 2075 H 192.345 1.39464 3.61426 0
M  V30 2076 H 192.759 3.59918 3.81523 0
M  V30 2077 H 194.233 2.35751 4.99125 0
M  V30 2078 H 194.71 0.800412 4.31845 0
M  V30 2079 H 195.316 2.29959 3.57769 0
M  V30 2080 N 193.631 -1.12557 1.10312 0
M  V30 2081 C 194.561 -2.20341 0.772798 0
M  V30 2082 C 195.542 -1.68198 -0.25365 0
M  V30 2083 O 196.727 -1.93831 -0.119699 0
M  V30 2084 C 193.857 -3.46709 0.202443 0
M  V30 2085 C 192.811 -4.11996 1.15943 0
M  V30 2086 C 192.137 -5.328 0.450345 0
M  V30 2087 C 193.437 -4.5828 2.50552 0
M  V30 2088 H 195.131 -2.48229 1.674 0
M  V30 2089 H 192.677 -1.19308 0.806326 0
M  V30 2090 H 194.63 -4.2138 -0.0407752 0
M  V30 2091 H 193.354 -3.18245 -0.734001 0
M  V30 2092 H 192.013 -3.39305 1.38808 0
M  V30 2093 H 191.661 -5.00602 -0.490531 0
M  V30 2094 H 191.361 -5.7743 1.08851 0
M  V30 2095 H 192.885 -6.10219 0.215642 0
M  V30 2096 H 194.299 -5.2433 2.31843 0
M  V30 2097 H 192.696 -5.13683 3.10242 0
M  V30 2098 H 193.766 -3.72329 3.10643 0
M  V30 2099 N 195.109 -0.891671 -1.2995 0
M  V30 2100 C 196.52 -0.563104 -1.78006 0
M  V30 2101 C 196.871 0.920978 -1.73241 0
M  V30 2102 O 195.996 1.71987 -1.31337 0
M  V30 2103 C 196.591 -1.01539 -3.23226 0
M  V30 2104 C 195.15 -0.738124 -3.69092 0
M  V30 2105 C 194.297 -1.19461 -2.50249 0
M  V30 2106 H 197.248 -1.07522 -1.16725 0
M  V30 2107 H 197.269 -0.347217 -3.78912 0
M  V30 2108 H 196.781 -2.09555 -3.26662 0
M  V30 2109 H 194.882 0.329766 -3.71138 0
M  V30 2110 H 194.995 -1.33037 -4.60259 0
M  V30 2111 H 193.359 -0.613787 -2.47194 0
M  V30 2112 H 194.142 -2.28265 -2.56417 0
M  V30 2113 N 196.587 1.43421 -0.653314 0
M  V30 2114 C 197.998 1.85065 -0.246537 0
M  V30 2115 C 198.349 1.54688 1.2069 0
M  V30 2116 O 197.474 0.995896 1.92122 0
M  V30 2117 C 198.069 3.35922 -0.440666 0
M  V30 2118 C 196.628 3.76297 -0.0882064 0
M  V30 2119 C 195.775 2.67147 -0.743484 0
M  V30 2120 H 198.726 1.33572 -0.856979 0
M  V30 2121 H 198.747 3.79204 0.313798 0
M  V30 2122 H 198.259 3.58 -1.49858 0
M  V30 2123 H 196.36 3.5983 0.96711 0
M  V30 2124 H 196.473 4.76338 -0.513738 0
M  V30 2125 H 194.837 2.54086 -0.176712 0
M  V30 2126 H 195.62 2.92053 -1.80443 0
M  V30 2127 N 198.065 0.39524 1.52563 0
M  V30 2128 C 199.29 -0.187456 2.06551 0
M  V30 2129 C 199.715 -1.39249 1.26457 0
M  V30 2130 O 199.073 -1.78947 0.291151 0
M  V30 2131 C 199.121 -0.529985 3.56684 0
M  V30 2132 O 198.225 -1.62307 3.79118 0
M  V30 2133 H 197.566 -0.0202537 0.663691 0
M  V30 2134 H 200.096 0.564426 1.96661 0
M  V30 2135 H 200.106 -0.792598 4.00227 0
M  V30 2136 H 198.781 0.350987 4.14416 0
M  V30 2137 H 197.358 -1.3537 3.47461 0
M  V30 2138 N 199.544 -1.57102 0.125237 0
M  V30 2139 C 200.96 -1.57915 -0.231322 0
M  V30 2140 C 201.16 -1.13833 -1.66266 0
M  V30 2141 O 200.216 -0.828581 -2.38518 0
M  V30 2142 C 201.529 -3.00699 0.00766489 0
M  V30 2143 C 203.077 -3.12947 -0.0577483 0
M  V30 2144 C 203.552 -4.57742 0.153626 0
M  V30 2145 N 205.043 -4.63092 0.0998073 0
M  V30 2146 C 205.778 -5.72905 0.238174 0
M  V30 2147 N 205.274 -6.91445 0.433057 0
M  V30 2148 N 207.067 -5.6182 0.177308 0
M  V30 2149 H 199.218 -1.84055 1.06007 0
M  V30 2150 H 201.481 -0.850905 0.417929 0
M  V30 2151 H 201.187 -3.3726 0.997431 0
M  V30 2152 H 201.061 -3.70236 -0.721452 0
M  V30 2153 H 203.448 -2.7624 -1.03804 0
M  V30 2154 H 203.529 -2.4594 0.70335 0
M  V30 2155 H 203.173 -4.95149 1.13092 0
M  V30 2156 H 203.103 -5.22848 -0.627534 0
M  V30 2157 H 205.594 -3.77871 -0.047051 0
M  V30 2158 H 205.907 -7.70985 0.529332 0
M  V30 2159 H 204.252 -6.93415 0.469109 0
M  V30 2160 H 207.443 -4.68093 0.0259748 0
M  V30 2161 H 207.616 -6.47357 0.288582 0
M  V30 2162 N 201.022 0.148545 -1.56898 0
M  V30 2163 C 202.299 0.890019 -1.74178 0
M  V30 2164 C 202.679 1.99407 -0.692839 0
M  V30 2165 O 202.027 2.26671 0.288505 0
M  V30 2166 C 202.237 1.43389 -3.18183 0
M  V30 2167 C 203.585 1.89791 -3.79822 0
M  V30 2168 O 204.609 1.53134 -3.21603 0
M  V30 2169 O 203.468 2.57387 -4.82093 0
M  V30 2170 H 200.562 0.420496 -0.712118 0
M  V30 2171 H 203.108 0.134591 -1.69165 0
M  V30 2172 H 201.88 0.640383 -3.86024 0
M  V30 2173 H 201.503 2.25287 -3.27615 0
M  V30 2174 N 202.5 1.5196 0.417844 0
M  V30 2175 C 203.41 1.77554 1.53336 0
M  V30 2176 C 204.426 0.660655 1.6097 0
M  V30 2177 O 205.602 0.945099 1.77848 0
M  V30 2178 C 202.667 1.91291 2.89152 0
M  V30 2179 C 201.728 3.15183 2.91475 0
M  V30 2180 C 200.961 3.28256 4.20813 0
M  V30 2181 O 201.184 2.46798 5.14244 0
M  V30 2182 O 200.118 4.21356 4.29817 0
M  V30 2183 H 203.944 2.7222 1.34647 0
M  V30 2184 H 201.529 1.36698 0.602828 0
M  V30 2185 H 203.411 2.02199 3.69721 0
M  V30 2186 H 202.086 0.998129 3.07927 0
M  V30 2187 H 200.993 3.09739 2.09791 0
M  V30 2188 H 202.326 4.06414 2.77648 0
M  V30 2189 N 203.978 -0.674533 1.42435 0
M  V30 2190 C 204.908 -1.80009 1.48724 0
M  V30 2191 C 205.889 -1.6659 0.343793 0
M  V30 2192 O 207.074 -1.86007 0.558137 0
M  V30 2193 C 204.204 -3.18306 1.38919 0
M  V30 2194 C 203.158 -3.46461 2.51294 0
M  V30 2195 C 202.484 -4.84335 2.26547 0
M  V30 2196 C 203.784 -3.43328 3.93603 0
M  V30 2197 H 205.478 -1.75004 2.42928 0
M  V30 2198 H 203.024 -0.840533 1.16923 0
M  V30 2199 H 204.977 -3.9678 1.41927 0
M  V30 2200 H 203.701 -3.2399 0.412094 0
M  V30 2201 H 202.36 -2.70348 2.47604 0
M  V30 2202 H 202.008 -4.86669 1.2713 0
M  V30 2203 H 201.708 -5.04136 3.01861 0
M  V30 2204 H 203.232 -5.65094 2.31304 0
M  V30 2205 H 204.646 -4.11772 3.98894 0
M  V30 2206 H 203.043 -3.74664 4.68771 0
M  V30 2207 H 204.113 -2.41897 4.20255 0
M  V30 2208 N 205.456 -1.28612 -0.910864 0
M  V30 2209 C 206.684 -1.18792 -1.69399 0
M  V30 2210 C 207.099 0.253039 -1.87097 0
M  V30 2211 O 206.456 1.17071 -1.40003 0
M  V30 2212 C 206.507 -1.88511 -3.08457 0
M  V30 2213 O 206.228 -3.26979 -2.91576 0
M  V30 2214 C 207.729 -1.85029 -4.02839 0
M  V30 2215 H 204.949 -0.412233 -0.529438 0
M  V30 2216 H 207.493 -1.69788 -1.13984 0
M  V30 2217 H 205.648 -1.41379 -3.60681 0
M  V30 2218 H 206.062 -3.61936 -3.79608 0
M  V30 2219 H 207.536 -2.38395 -4.97867 0
M  V30 2220 H 208.013 -0.823303 -4.31414 0
M  V30 2221 H 208.619 -2.31853 -3.56545 0
M  V30 2222 N 206.934 1.1197 -1.10907 0
M  V30 2223 C 207.881 2.17846 -0.762345 0
M  V30 2224 C 208.851 1.63995 0.263599 0
M  V30 2225 O 210.036 1.90273 0.141773 0
M  V30 2226 C 207.176 3.44487 -0.205651 0
M  V30 2227 C 206.289 4.12369 -1.28748 0
M  V30 2228 C 205.424 5.26674 -0.691919 0
M  V30 2229 C 204.463 5.86431 -1.75399 0
M  V30 2230 N 203.6 6.92142 -1.17833 0
M  V30 2231 H 208.44 2.46851 -1.6694 0
M  V30 2232 H 205.977 1.21188 -0.833776 0
M  V30 2233 H 207.935 4.16981 0.135037 0
M  V30 2234 H 206.565 3.15884 0.664613 0
M  V30 2235 H 205.617 3.38003 -1.74522 0
M  V30 2236 H 206.929 4.52844 -2.09125 0
M  V30 2237 H 206.083 6.05953 -0.300963 0
M  V30 2238 H 204.822 4.8749 0.143232 0
M  V30 2239 H 203.827 5.05835 -2.15432 0
M  V30 2240 H 205.052 6.27685 -2.59208 0
M  V30 2241 H 202.998 6.54985 -0.364725 0
M  V30 2242 H 202.915 7.31242 -1.91887 0
M  V30 2243 H 204.183 7.75237 -0.81408 0
M  V30 2244 N 208.412 0.89855 1.29475 0
M  V30 2245 C 209.36 0.365253 2.29714 0
M  V30 2246 C 210.354 -0.534993 1.6073 0
M  V30 2247 O 211.56 -0.417921 1.75081 0
M  V30 2248 H 207.935 0.0994853 0.74539 0
M  V30 2249 H 209.906 1.22406 2.72138 0
M  V30 2250 C 208.655 -0.393159 3.4547 0
M  V30 2251 H 207.978 0.290332 3.98744 0
M  V30 2252 H 209.418 -0.731189 4.17648 0
M  V30 2253 C 207.877 -1.59539 2.9673 0
M  V30 2254 O 208.407 -2.69469 2.97908 0
M  V30 2255 N 206.613 -1.43716 2.52575 0
M  V30 2256 H 206.16 -0.542828 2.51816 0
M  V30 2257 H 206.118 -2.24288 2.20323 0
M  V30 2258 N 209.89 -1.43072 0.660911 0
M  V30 2259 C 210.822 -2.29108 -0.0647641 0
M  V30 2260 C 211.835 -1.42928 -0.779448 0
M  V30 2261 O 213.024 -1.66788 -0.635921 0
M  V30 2262 C 210.124 -3.20032 -1.11503 0
M  V30 2263 C 209.297 -4.34792 -0.476955 0
M  V30 2264 C 208.356 -5.06534 -1.42513 0
M  V30 2265 O 207.382 -5.61538 -0.930771 0
M  V30 2266 N 208.584 -5.1075 -2.75889 0
M  V30 2267 H 211.349 -2.92029 0.673731 0
M  V30 2268 H 208.91 -1.53846 0.50427 0
M  V30 2269 H 210.902 -3.64892 -1.75032 0
M  V30 2270 H 209.472 -2.58658 -1.75541 0
M  V30 2271 H 208.692 -3.92752 0.337572 0
M  V30 2272 H 209.98 -5.0879 -0.0318525 0
M  V30 2273 H 209.378 -4.67447 -3.18606 0
M  V30 2274 H 207.935 -5.59302 -3.347 0
M  V30 2275 N 211.368 -0.403325 -1.52352 0
M  V30 2276 C 212.614 0.174605 -2.02047 0
M  V30 2277 C 212.947 1.45282 -1.28867 0
M  V30 2278 O 212.222 1.90483 -0.393257 0
M  V30 2279 C 212.505 0.428238 -3.57545 0
M  V30 2280 C 212.358 -0.866248 -4.4138 0
M  V30 2281 C 213.677 1.21287 -4.23057 0
M  V30 2282 H 210.796 0.0619851 -0.734389 0
M  V30 2283 H 213.438 -0.53565 -1.82293 0
M  V30 2284 H 211.588 1.03327 -3.74507 0
M  V30 2285 H 213.26 -1.50265 -4.3614 0
M  V30 2286 H 211.503 -1.47851 -4.07827 0
M  V30 2287 H 212.174 -0.643249 -5.48239 0
M  V30 2288 H 214.65 0.700703 -4.10158 0
M  V30 2289 H 213.526 1.35909 -5.31808 0
M  V30 2290 H 213.787 2.23193 -3.81625 0
M  V30 2291 N 212.846 1.57033 -0.133567 0
M  V30 2292 C 214.071 2.00475 0.531477 0
M  V30 2293 C 214.496 1.01291 1.58499 0
M  V30 2294 O 213.854 -0.0133279 1.81295 0
M  V30 2295 C 213.902 3.42729 1.12113 0
M  V30 2296 O 213.006 3.46498 2.23636 0
M  V30 2297 H 212.347 0.650876 0.131362 0
M  V30 2298 H 214.877 2.03344 -0.22634 0
M  V30 2299 H 214.887 3.81246 1.4531 0
M  V30 2300 H 213.562 4.14428 0.349557 0
M  V30 2301 H 212.139 3.19811 1.91769 0
M  V30 2302 N 214.325 -0.140222 1.56975 0
M  V30 2303 C 215.255 -1.17456 2.01808 0
M  V30 2304 C 216.236 -1.44415 0.898794 0
M  V30 2305 O 217.421 -1.5522 1.16707 0
M  V30 2306 C 214.551 -2.50607 2.40444 0
M  V30 2307 C 213.505 -2.38155 3.55621 0
M  V30 2308 C 212.831 -3.76078 3.80091 0
M  V30 2309 C 214.131 -1.85991 4.88062 0
M  V30 2310 H 215.825 -0.801743 2.88466 0
M  V30 2311 H 213.371 -0.38422 1.38779 0
M  V30 2312 H 215.324 -3.23197 2.7041 0
M  V30 2313 H 214.048 -2.89737 1.50732 0
M  V30 2314 H 212.707 -1.68016 3.25832 0
M  V30 2315 H 212.355 -4.12656 2.87618 0
M  V30 2316 H 212.055 -3.68606 4.57606 0
M  V30 2317 H 213.579 -4.50206 4.12488 0
M  V30 2318 H 214.993 -2.4838 5.16701 0
M  V30 2319 H 213.39 -1.89393 5.6943 0
M  V30 2320 H 214.46 -0.816023 4.77984 0
M  V30 2321 N 215.803 -1.52179 -0.40978 0
M  V30 2322 C 217.031 -1.70054 -1.17853 0
M  V30 2323 C 217.446 -0.409735 -1.843 0
M  V30 2324 O 216.803 0.614183 -1.71855 0
M  V30 2325 C 216.854 -2.83568 -2.24213 0
M  V30 2326 O 216.575 -4.0765 -1.60478 0
M  V30 2327 C 218.076 -3.12947 -3.13973 0
M  V30 2328 H 215.296 -0.569917 -0.354169 0
M  V30 2329 H 217.84 -1.98734 -0.482198 0
M  V30 2330 H 215.995 -2.57409 -2.89516 0
M  V30 2331 H 216.409 -4.70899 -2.30986 0
M  V30 2332 H 217.883 -3.95889 -3.84677 0
M  V30 2333 H 218.36 -2.26472 -3.76307 0
M  V30 2334 H 218.966 -3.40868 -2.5434 0
M  V30 2335 N 217.281 0.66697 -1.42791 0
M  V30 2336 C 218.521 1.43892 -1.4517 0
M  V30 2337 C 218.885 1.91877 -0.0687551 0
M  V30 2338 O 220.086 2.6878 0.0327455 0
M  V30 2339 C 218.357 2.59839 -2.45395 0
M  V30 2340 S 219.916 3.48572 -2.66539 0
M  V30 2341 H 216.734 0.491356 -0.513897 0
M  V30 2342 H 219.336 0.775656 -1.79454 0
M  V30 2343 H 218.04 2.22838 -3.44632 0
M  V30 2344 H 217.571 3.3103 -2.12562 0
M  V30 2345 H 219.586 4.56094 -1.95429 0
M  V30 2346 N 218.759 1.29093 0.90403 0
M  V30 2347 C 219.689 1.16401 2.02418 0
M  V30 2348 C 220.67 0.0593085 1.69997 0
M  V30 2349 O 221.855 0.238021 1.92736 0
M  V30 2350 C 218.985 0.835233 3.37107 0
M  V30 2351 C 217.939 1.89578 3.83724 0
M  V30 2352 C 217.265 1.42041 5.15489 0
M  V30 2353 C 218.565 3.30394 4.04521 0
M  V30 2354 H 220.259 2.10109 2.13295 0
M  V30 2355 H 217.805 1.01157 1.02486 0
M  V30 2356 H 219.758 0.733169 4.14973 0
M  V30 2357 H 218.482 -0.137543 3.2631 0
M  V30 2358 H 217.141 1.98715 3.08071 0
M  V30 2359 H 216.789 0.436426 5.01103 0
M  V30 2360 H 216.489 2.12964 5.4765 0
M  V30 2361 H 218.013 1.33176 5.959 0
M  V30 2362 H 219.427 3.24123 4.72882 0
M  V30 2363 H 217.824 3.99237 4.48029 0
M  V30 2364 H 218.894 3.73692 3.09002 0
M  V30 2365 N 220.237 -1.11381 1.11499 0
M  V30 2366 C 221.483 -1.83403 0.865512 0
M  V30 2367 C 221.816 -1.84459 -0.607329 0
M  V30 2368 O 221.091 -1.29811 -1.44842 0
M  V30 2369 C 221.374 -3.30552 1.42855 0
M  V30 2370 C 221.227 -3.37886 2.96906 0
M  V30 2371 C 222.546 -4.26643 1.08 0
M  V30 2372 H 219.665 -0.665879 0.31587 0
M  V30 2373 H 222.307 -1.30601 1.37998 0
M  V30 2374 H 220.457 -3.75648 0.990985 0
M  V30 2375 H 222.129 -3.01343 3.49271 0
M  V30 2376 H 220.372 -2.78088 3.32941 0
M  V30 2377 H 221.043 -4.41458 3.31389 0
M  V30 2378 H 223.519 -3.89729 1.45775 0
M  V30 2379 H 222.395 -5.27986 1.50072 0
M  V30 2380 H 222.656 -4.42099 -0.00915037 0
M  V30 2381 N 221.715 -0.905404 -1.28997 0
M  V30 2382 C 222.662 -0.385892 -2.27551 0
M  V30 2383 C 223.632 0.535113 -1.57244 0
M  V30 2384 O 224.817 0.459119 -1.85194 0
M  V30 2385 C 221.957 0.375461 -3.43051 0
M  V30 2386 C 221.07 -0.577092 -4.28128 0
M  V30 2387 C 220.205 0.201879 -5.30816 0
M  V30 2388 C 219.244 -0.744829 -6.07551 0
M  V30 2389 N 218.381 9.42587e-05 -7.021 0
M  V30 2390 H 223.221 -1.23139 -2.71368 0
M  V30 2391 H 220.758 -0.618542 -1.33463 0
M  V30 2392 H 222.716 0.832992 -4.088 0
M  V30 2393 H 221.346 1.18537 -3.00248 0
M  V30 2394 H 220.398 -1.15315 -3.62501 0
M  V30 2395 H 221.71 -1.30152 -4.8152 0
M  V30 2396 H 220.864 0.720351 -6.02408 0
M  V30 2397 H 219.603 0.959413 -4.7817 0
M  V30 2398 H 218.608 -1.27475 -5.34818 0
M  V30 2399 H 219.833 -1.50178 -6.62286 0
M  V30 2400 H 217.779 0.739791 -6.51815 0
M  V30 2401 H 217.696 -0.664321 -7.53076 0
M  V30 2402 H 218.964 0.498644 -7.77903 0
M  V30 2403 N 223.193 1.4272 -0.668489 0
M  V30 2404 C 224.441 2.01226 -0.187769 0
M  V30 2405 C 224.762 1.53092 1.2078 0
M  V30 2406 O 224.032 0.74993 1.80977 0
M  V30 2407 H 222.612 0.744041 -0.0664272 0
M  V30 2408 H 225.274 1.74723 -0.863583 0
M  V30 2409 H 224.37 3.11556 -0.184166 0
M  V30 2410 N 224.671 0.411399 1.52136 0
M  V30 2411 C 225.918 -0.163645 2.01838 0
M  V30 2412 C 226.246 -1.4495 1.29691 0
M  V30 2413 O 225.501 -1.91725 0.392431 0
M  V30 2414 C 225.8 -0.455872 3.54481 0
M  V30 2415 C 225.466 0.741055 4.44769 0
M  V30 2416 C 224.128 1.06936 4.69167 0
M  V30 2417 C 226.48 1.54075 4.97906 0
M  V30 2418 C 223.808 2.19851 5.43951 0
M  V30 2419 C 226.16 2.66067 5.73926 0
M  V30 2420 C 224.824 2.99381 5.96596 0
M  V30 2421 H 224.094 -0.0598821 0.738576 0
M  V30 2422 H 226.741 0.553283 1.83333 0
M  V30 2423 H 225.046 -1.2544 3.71177 0
M  V30 2424 H 226.743 -0.913802 3.90449 0
M  V30 2425 H 223.333 0.475192 4.25958 0
M  V30 2426 H 227.517 1.30033 4.78963 0
M  V30 2427 H 222.773 2.46006 5.59724 0
M  V30 2428 H 226.947 3.28419 6.14096 0
M  V30 2429 H 224.574 3.86992 6.54325 0
M  V30 2430 N 226.149 -1.5696 0.141893 0
M  V30 2431 C 227.379 -2.00031 -0.516828 0
M  V30 2432 C 227.787 -1.02091 -1.59293 0
M  V30 2433 O 227.13 -0.00909657 -1.83698 0
M  V30 2434 C 227.192 -3.39534 -1.1814 0
M  V30 2435 C 226.856 -4.56313 -0.250513 0
M  V30 2436 C 227.853 -5.17295 0.519839 0
M  V30 2437 C 225.538 -5.02061 -0.154907 0
M  V30 2438 C 227.532 -6.2243 1.3733 0
M  V30 2439 C 225.219 -6.07053 0.702161 0
M  V30 2440 C 226.217 -6.67106 1.46487 0
M  V30 2441 O 225.905 -7.70066 2.30767 0
M  V30 2442 H 225.637 -0.661451 -0.139493 0
M  V30 2443 H 228.191 -2.04086 0.231926 0
M  V30 2444 H 226.421 -3.32302 -1.97769 0
M  V30 2445 H 228.11 -3.66745 -1.73933 0
M  V30 2446 H 228.876 -4.82852 0.45598 0
M  V30 2447 H 224.755 -4.5505 -0.7383 0
M  V30 2448 H 228.299 -6.69233 1.96909 0
M  V30 2449 H 224.196 -6.40923 0.76733 0
M  V30 2450 H 224.964 -7.87264 2.23959 0
M  V30 2451 N 227.627 0.131896 -1.57047 0
M  V30 2452 C 229.038 0.690407 -1.73465 0
M  V30 2453 C 229.389 1.8094 -0.758629 0
M  V30 2454 O 228.514 2.16282 0.0713813 0
M  V30 2455 C 229.109 1.25916 -3.14532 0
M  V30 2456 C 227.668 1.76409 -3.32501 0
M  V30 2457 C 226.815 0.658579 -2.69366 0
M  V30 2458 H 229.766 -0.0939144 -1.58422 0
M  V30 2459 H 229.787 2.12892 -3.15369 0
M  V30 2460 H 229.299 0.444515 -3.85546 0
M  V30 2461 H 227.4 2.60391 -2.66509 0
M  V30 2462 H 227.513 1.88241 -4.4057 0
M  V30 2463 H 225.877 1.08899 -2.30246 0
M  V30 2464 H 226.66 -0.14487 -3.42994 0
M  V30 2465 N 229.106 1.52395 0.401703 0
M  V30 2466 C 230.331 1.70972 1.17403 0
M  V30 2467 C 230.756 0.421615 1.83314 0
M  V30 2468 O 230.114 -0.621564 1.70312 0
M  V30 2469 C 230.162 2.85151 2.20728 0
M  V30 2470 O 229.266 2.51238 3.27037 0
M  V30 2471 H 228.607 0.568927 0.342372 0
M  V30 2472 H 231.137 1.99131 0.469891 0
M  V30 2473 H 231.147 3.10279 2.64936 0
M  V30 2474 H 229.822 3.78603 1.7214 0
M  V30 2475 H 228.399 2.36808 2.88057 0
M  V30 2476 N 230.584 -0.659388 1.43143 0
M  V30 2477 C 231.861 -1.41627 1.34912 0
M  V30 2478 C 232.241 -2.11099 -0.00607785 0
M  V30 2479 O 231.589 -2.04353 -1.02236 0
M  V30 2480 C 231.799 -2.40604 2.52805 0
M  V30 2481 C 233.147 -3.04789 2.95616 0
M  V30 2482 O 234.171 -2.50932 2.52807 0
M  V30 2483 O 233.03 -4.02421 3.69756 0
M  V30 2484 H 230.124 -0.63246 0.532844 0
M  V30 2485 H 232.67 -0.686814 1.5518 0
M  V30 2486 H 231.442 -1.88174 3.43083 0
M  V30 2487 H 231.065 -3.21009 2.34604 0
M  V30 2488 N 232.062 -1.29571 -0.897171 0
M  V30 2489 C 233.311 -1.1706 -1.64256 0
M  V30 2490 C 233.624 0.276476 -1.93636 0
M  V30 2491 O 234.83 0.52294 -2.66416 0
M  V30 2492 C 233.286 -2.0475 -2.95982 0
M  V30 2493 C 232.894 -3.54295 -2.74187 0
M  V30 2494 C 234.638 -2.0097 -3.73914 0
M  V30 2495 C 232.545 -4.34081 -4.01656 0
M  V30 2496 H 231.475 -0.43452 -0.616205 0
M  V30 2497 H 234.126 -1.54229 -0.994268 0
M  V30 2498 H 232.508 -1.60452 -3.62038 0
M  V30 2499 H 233.682 -4.06662 -2.1671 0
M  V30 2500 H 231.997 -3.59773 -2.09648 0
M  V30 2501 H 234.594 -2.57838 -4.68427 0
M  V30 2502 H 234.937 -0.990273 -4.0435 0
M  V30 2503 H 235.47 -2.43325 -3.14703 0
M  V30 2504 H 232.209 -5.36671 -3.76384 0
M  V30 2505 H 231.729 -3.86483 -4.58684 0
M  V30 2506 H 233.408 -4.44877 -4.69781 0
M  V30 2507 N 233.54 1.10788 -1.12088 0
M  V30 2508 C 234.503 2.15207 -0.788577 0
M  V30 2509 C 235.503 1.59609 0.195317 0
M  V30 2510 O 236.693 1.74174 -0.0300193 0
M  V30 2511 C 233.825 3.4047 -0.171174 0
M  V30 2512 H 235.018 2.46116 -1.71368 0
M  V30 2513 H 232.571 1.26089 -0.923652 0
M  V30 2514 H 233.306 3.15176 0.763832 0
M  V30 2515 H 233.091 3.82109 -0.879514 0
M  V30 2516 H 234.581 4.17576 0.04496 0
M  V30 2517 N 235.018 0.912232 1.28515 0
M  V30 2518 C 236.264 0.545405 1.95328 0
M  V30 2519 C 236.597 -0.908313 1.71649 0
M  V30 2520 O 235.872 -1.64575 1.03659 0
M  V30 2521 C 236.155 0.853483 3.4984 0
M  V30 2522 C 236.008 2.35982 3.82926 0
M  V30 2523 C 237.327 0.348589 4.38717 0
M  V30 2524 H 234.446 0.199626 0.709449 0
M  V30 2525 H 237.088 1.1412 1.5191 0
M  V30 2526 H 235.238 0.34643 3.86952 0
M  V30 2527 H 236.91 2.93738 3.55691 0
M  V30 2528 H 235.153 2.81543 3.30024 0
M  V30 2529 H 235.824 2.52593 4.90816 0
M  V30 2530 H 238.3 0.78294 4.08668 0
M  V30 2531 H 237.176 0.593242 5.45685 0
M  V30 2532 H 237.437 -0.751049 4.35674 0
M  V30 2533 N 236.496 -1.42363 0.676048 0
M  V30 2534 C 237.406 -2.346 -0.00153389 0
M  V30 2535 C 238.422 -1.5516 -0.787485 0
M  V30 2536 O 239.598 -1.87723 -0.729521 0
M  V30 2537 C 236.663 -3.33705 -0.940298 0
M  V30 2538 C 235.724 -4.29042 -0.148739 0
M  V30 2539 C 234.957 -5.23413 -1.04279 0
M  V30 2540 O 235.18 -5.22749 -2.28232 0
M  V30 2541 O 234.114 -5.99795 -0.502925 0
M  V30 2542 H 237.94 -2.94082 0.758268 0
M  V30 2543 H 235.525 -1.42888 0.436289 0
M  V30 2544 H 237.407 -3.94586 -1.47917 0
M  V30 2545 H 236.082 -2.76695 -1.67993 0
M  V30 2546 H 234.989 -3.71571 0.43427 0
M  V30 2547 H 236.322 -4.89097 0.551805 0
M  V30 2548 N 237.974 -0.419461 -1.51915 0
M  V30 2549 C 239.22 0.145505 -2.02879 0
M  V30 2550 C 239.575 1.41926 -1.29903 0
M  V30 2551 O 238.868 1.87383 -0.399782 0
M  V30 2552 C 239.062 0.437067 -3.54717 0
M  V30 2553 C 238.891 -0.806877 -4.42402 0
M  V30 2554 C 237.661 -1.33514 -4.87342 0
M  V30 2555 C 239.859 -1.68796 -4.85811 0
M  V30 2556 N 237.841 -2.53349 -5.59185 0
M  V30 2557 C 239.212 -2.73247 -5.56539 0
M  V30 2558 C 241.267 -1.70449 -4.67816 0
M  V30 2559 C 239.97 -3.79276 -6.11181 0
M  V30 2560 C 241.996 -2.75403 -5.23361 0
M  V30 2561 C 241.358 -3.78575 -5.9402 0
M  V30 2562 H 237.457 0.0145424 -0.781865 0
M  V30 2563 H 240.041 -0.576126 -1.85981 0
M  V30 2564 H 238.212 1.12774 -3.71667 0
M  V30 2565 H 239.944 0.99182 -3.92358 0
M  V30 2566 H 236.699 -0.891657 -4.65131 0
M  V30 2567 H 237.123 -3.14066 -5.99743 0
M  V30 2568 H 241.765 -0.920209 -4.12664 0
M  V30 2569 H 239.483 -4.58554 -6.65397 0
M  V30 2570 H 243.069 -2.77603 -5.113 0
M  V30 2571 H 241.949 -4.58453 -6.36231 0
M  V30 2572 N 239.452 1.56882 -0.150215 0
M  V30 2573 C 240.362 2.20494 0.801222 0
M  V30 2574 C 241.378 1.19019 1.26927 0
M  V30 2575 O 242.554 1.51607 1.32579 0
M  V30 2576 C 239.619 2.81659 2.02161 0
M  V30 2577 C 238.68 3.9827 1.60249 0
M  V30 2578 C 237.913 4.56508 2.7647 0
M  V30 2579 O 238.136 4.13627 3.92771 0
M  V30 2580 O 237.07 5.46719 2.51757 0
M  V30 2581 H 240.896 3.02315 0.289717 0
M  V30 2582 H 238.481 1.49202 0.0769684 0
M  V30 2583 H 240.363 3.20522 2.73576 0
M  V30 2584 H 239.038 2.02849 2.52258 0
M  V30 2585 H 237.945 3.64117 0.858477 0
M  V30 2586 H 239.278 4.78609 1.14864 0
M  V30 2587 N 240.93 -0.123565 1.57115 0
M  V30 2588 C 242.155 -0.850398 1.89164 0
M  V30 2589 C 242.58 -1.7286 0.741688 0
M  V30 2590 O 241.938 -1.78665 -0.307958 0
M  V30 2591 C 241.986 -1.66353 3.19936 0
M  V30 2592 O 241.09 -2.77004 3.0552 0
M  V30 2593 H 240.431 -0.235454 0.620852 0
M  V30 2594 H 242.961 -0.107335 2.04318 0
M  V30 2595 H 242.971 -2.05372 3.52543 0
M  V30 2596 H 241.646 -1.01881 4.03228 0
M  V30 2597 H 240.223 -2.41221 2.84371 0
M  V30 2598 N 242.408 -1.52605 -0.393616 0
M  V30 2599 C 243.356 -1.77688 -1.50099 0
M  V30 2600 C 244.35 -0.644615 -1.56656 0
M  V30 2601 O 245.556 -0.826997 -1.59877 0
M  V30 2602 H 241.931 -0.562159 -0.499481 0
M  V30 2603 H 243.902 -2.7043 -1.26135 0
M  V30 2604 C 242.651 -1.95858 -2.87289 0
M  V30 2605 H 241.974 -2.8241 -2.82992 0
M  V30 2606 H 243.414 -2.174 -3.64024 0
M  V30 2607 C 241.873 -0.729848 -3.28899 0
M  V30 2608 O 242.403 0.0949217 -4.01588 0
M  V30 2609 N 240.609 -0.561283 -2.85128 0
M  V30 2610 H 240.156 -1.23357 -2.26143 0
M  V30 2611 H 240.114 0.2595 -3.13327 0
M  V30 2612 N 243.887 0.651787 -1.4349 0
M  V30 2613 C 245.135 1.40888 -1.44897 0
M  V30 2614 C 245.456 1.94856 -0.0749086 0
M  V30 2615 O 244.726 1.74518 0.889956 0
M  V30 2616 H 243.306 0.522887 -0.533478 0
M  V30 2617 H 245.968 0.768609 -1.79104 0
M  V30 2618 H 245.064 2.25052 -2.16236 0
M  V30 2619 N 245.365 1.30045 0.890287 0
M  V30 2620 C 246.297 1.11786 2.00091 0
M  V30 2621 C 247.31 0.0626307 1.62679 0
M  V30 2622 O 248.499 0.308112 1.75821 0
M  V30 2623 C 245.599 0.681527 3.31977 0
M  V30 2624 C 244.772 1.81735 3.97858 0
M  V30 2625 C 243.831 1.37045 5.08041 0
M  V30 2626 O 242.857 2.07677 5.29961 0
M  V30 2627 N 244.059 0.246525 5.79976 0
M  V30 2628 H 246.824 2.07441 2.16306 0
M  V30 2629 H 244.385 1.2211 1.06305 0
M  V30 2630 H 246.377 0.365675 4.03045 0
M  V30 2631 H 244.947 -0.182828 3.12065 0
M  V30 2632 H 244.167 2.30159 3.20032 0
M  V30 2633 H 245.455 2.57865 4.38615 0
M  V30 2634 H 244.853 -0.34215 5.64664 0
M  V30 2635 H 243.41 -0.00990438 6.51799 0
M  V30 2636 N 246.843 -1.10192 1.12674 0
M  V30 2637 C 248.254 -1.63707 0.897604 0
M  V30 2638 C 248.605 -1.87812 -0.567546 0
M  V30 2639 O 247.73 -1.62196 -1.43253 0
M  V30 2640 C 248.325 -2.974 1.62292 0
M  V30 2641 C 246.884 -3.47772 1.43986 0
M  V30 2642 C 246.031 -2.22332 1.65722 0
M  V30 2643 H 248.982 -0.936587 1.28116 0
M  V30 2644 H 249.003 -3.64986 1.07541 0
M  V30 2645 H 248.515 -2.79824 2.68924 0
M  V30 2646 H 246.616 -3.70487 0.396206 0
M  V30 2647 H 246.729 -4.25723 2.19765 0
M  V30 2648 H 245.093 -2.30599 1.08149 0
M  V30 2649 H 245.876 -2.07285 2.73657 0
M  V30 2650 N 248.321 -0.919034 -1.28029 0
M  V30 2651 C 249.231 -0.416756 -2.30869 0
M  V30 2652 C 250.247 0.498235 -1.66714 0
M  V30 2653 O 251.423 0.383144 -1.97722 0
M  V30 2654 C 248.488 0.330274 -3.45123 0
M  V30 2655 C 247.549 -0.618578 -4.2482 0
M  V30 2656 C 246.782 0.0928959 -5.33619 0
M  V30 2657 O 247.005 1.31375 -5.55065 0
M  V30 2658 O 245.939 -0.574499 -5.99152 0
M  V30 2659 H 249.765 -1.27043 -2.75851 0
M  V30 2660 H 247.35 -0.684052 -1.3282 0
M  V30 2661 H 249.232 0.751972 -4.14636 0
M  V30 2662 H 247.907 1.1597 -3.02213 0
M  V30 2663 H 246.814 -1.08978 -3.57875 0
M  V30 2664 H 248.147 -1.41497 -4.71423 0
M  V30 2665 N 249.799 1.42003 -0.683588 0
M  V30 2666 C 250.747 2.326 0.000815408 0
M  V30 2667 C 251.741 1.50308 0.781278 0
M  V30 2668 O 252.947 1.66322 0.688251 0
M  V30 2669 H 249.322 0.751758 0.0190616 0
M  V30 2670 H 251.293 2.88011 -0.780528 0
M  V30 2671 C 250.042 3.34978 0.93195 0
M  V30 2672 H 249.365 3.98345 0.340817 0
M  V30 2673 H 250.805 4.00936 1.37936 0
M  V30 2674 C 249.264 2.67925 2.04249 0
M  V30 2675 O 249.794 2.51788 3.12995 0
M  V30 2676 N 248 2.2681 1.81675 0
M  V30 2677 H 247.547 2.40135 0.932363 0
M  V30 2678 H 247.505 1.8228 2.56167 0
M  V30 2679 N 251.277 0.427512 1.51691 0
M  V30 2680 C 252.225 -0.403359 2.29076 0
M  V30 2681 C 253.219 -1.02962 1.34518 0
M  V30 2682 O 254.425 -0.965715 1.51901 0
M  V30 2683 H 250.8 -0.148879 0.737115 0
M  V30 2684 H 252.771 0.270295 2.97173 0
M  V30 2685 C 251.52 -1.49763 3.13794 0
M  V30 2686 H 250.843 -1.02508 3.86435 0
M  V30 2687 H 252.283 -2.05244 3.71014 0
M  V30 2688 C 250.742 -2.47536 2.28533 0
M  V30 2689 O 251.272 -3.51848 1.93819 0
M  V30 2690 N 249.478 -2.18187 1.91945 0
M  V30 2691 H 249.025 -1.33389 2.20375 0
M  V30 2692 H 248.983 -2.83848 1.35195 0
M  V30 2693 N 252.755 -1.56801 0.158532 0
M  V30 2694 C 253.985 -2.00568 -0.495583 0
M  V30 2695 C 254.393 -1.03774 -1.58201 0
M  V30 2696 O 253.736 -0.0285797 -1.83678 0
M  V30 2697 C 253.798 -3.40768 -1.14532 0
M  V30 2698 C 253.462 -4.56553 -0.202101 0
M  V30 2699 C 254.459 -5.16714 0.574675 0
M  V30 2700 C 252.144 -5.02197 -0.101648 0
M  V30 2701 C 254.138 -6.20939 1.43924 0
M  V30 2702 C 251.825 -6.06274 0.766508 0
M  V30 2703 C 252.823 -6.65515 1.53555 0
M  V30 2704 O 252.511 -7.67575 2.38922 0
M  V30 2705 H 252.243 -0.662893 -0.13247 0
M  V30 2706 H 254.797 -2.03829 0.253559 0
M  V30 2707 H 253.027 -3.34381 -1.94233 0
M  V30 2708 H 254.716 -3.6857 -1.70033 0
M  V30 2709 H 255.482 -4.82341 0.507167 0
M  V30 2710 H 251.361 -4.55807 -0.689994 0
M  V30 2711 H 254.905 -6.67107 2.03996 0
M  V30 2712 H 250.802 -6.40073 0.835266 0
M  V30 2713 H 251.57 -7.84844 2.32296 0
M  V30 2714 N 254.233 0.115231 -1.57178 0
M  V30 2715 C 255.18 1.14115 -2.00615 0
M  V30 2716 C 256.15 1.40939 -0.878941 0
M  V30 2717 O 257.335 1.52741 -1.14345 0
M  V30 2718 C 254.475 2.46156 -2.4187 0
M  V30 2719 C 253.588 2.26236 -3.68024 0
M  V30 2720 C 252.723 3.51534 -3.98243 0
M  V30 2721 C 251.762 3.26787 -5.17568 0
M  V30 2722 N 250.899 4.44298 -5.43639 0
M  V30 2723 H 255.739 0.763743 -2.88047 0
M  V30 2724 H 253.276 0.365615 -1.42484 0
M  V30 2725 H 255.234 3.23189 -2.63827 0
M  V30 2726 H 253.864 2.81783 -1.57475 0
M  V30 2727 H 252.916 1.40102 -3.5366 0
M  V30 2728 H 254.228 2.03929 -4.55208 0
M  V30 2729 H 253.382 4.36984 -4.20868 0
M  V30 2730 H 252.121 3.76876 -3.09541 0
M  V30 2731 H 251.126 2.39729 -4.94783 0
M  V30 2732 H 252.351 3.02812 -6.0785 0
M  V30 2733 H 250.297 4.69754 -4.57895 0
M  V30 2734 H 250.214 4.25109 -6.25154 0
M  V30 2735 H 251.482 5.3087 -5.70786 0
M  V30 2736 N 255.711 1.52812 0.385517 0
M  V30 2737 C 256.939 1.71907 1.15133 0
M  V30 2738 C 257.354 0.439004 1.83625 0
M  V30 2739 O 256.711 -0.586765 1.7281 0
M  V30 2740 C 256.762 2.87099 2.19673 0
M  V30 2741 O 256.483 4.10151 1.53973 0
M  V30 2742 C 257.984 3.17902 3.08955 0
M  V30 2743 H 255.204 0.575479 0.345057 0
M  V30 2744 H 257.748 1.99476 0.45052 0
M  V30 2745 H 255.903 2.61982 2.85384 0
M  V30 2746 H 256.317 4.74514 2.23465 0
M  V30 2747 H 257.791 4.01959 3.7833 0
M  V30 2748 H 258.268 2.3243 3.72657 0
M  V30 2749 H 258.874 3.44871 2.48885 0
M  V30 2750 N 257.189 -0.644168 1.43834 0
M  V30 2751 C 258.417 -1.43147 1.49387 0
M  V30 2752 C 258.832 -1.88452 0.114583 0
M  V30 2753 O 258.189 -1.60047 -0.876989 0
M  V30 2754 C 258.24 -2.66046 2.44748 0
M  V30 2755 O 257.961 -2.22633 3.77314 0
M  V30 2756 C 259.462 -3.59311 2.59635 0
M  V30 2757 H 256.682 -0.439447 0.507077 0
M  V30 2758 H 259.226 -0.78895 1.88669 0
M  V30 2759 H 257.381 -3.26418 2.08638 0
M  V30 2760 H 257.795 -3.02216 4.28679 0
M  V30 2761 H 259.269 -4.42187 3.30416 0
M  V30 2762 H 259.746 -4.07259 1.64427 0
M  V30 2763 H 260.352 -3.04816 2.96593 0
M  V30 2764 N 258.668 -1.30515 -0.883378 0
M  V30 2765 C 260.079 -1.17509 -1.45081 0
M  V30 2766 C 260.43 0.223605 -1.94922 0
M  V30 2767 O 259.555 1.12041 -1.85137 0
M  V30 2768 C 260.15 -2.12715 -2.63701 0
M  V30 2769 C 258.709 -2.03682 -3.16529 0
M  V30 2770 C 257.856 -2.02706 -1.89224 0
M  V30 2771 H 260.807 -1.42762 -0.693165 0
M  V30 2772 H 260.828 -1.70891 -3.39965 0
M  V30 2773 H 260.34 -3.14505 -2.27395 0
M  V30 2774 H 258.441 -1.05039 -3.57488 0
M  V30 2775 H 258.554 -2.92146 -3.7972 0
M  V30 2776 H 256.918 -1.4753 -2.07622 0
M  V30 2777 H 257.701 -3.06229 -1.55174 0
M  V30 2778 N 260.146 1.09593 -1.13257 0
M  V30 2779 C 261.557 1.63229 -0.906274 0
M  V30 2780 C 261.908 1.8811 0.557578 0
M  V30 2781 O 261.033 1.62953 1.42391 0
M  V30 2782 C 261.628 2.96535 -1.63867 0
M  V30 2783 C 260.187 3.47003 -1.45828 0
M  V30 2784 C 259.334 2.2145 -1.66898 0
M  V30 2785 H 262.285 0.92978 -1.28611 0
M  V30 2786 H 262.306 3.64411 -1.09476 0
M  V30 2787 H 261.818 2.78394 -2.70404 0
M  V30 2788 H 259.919 3.70272 -0.415848 0
M  V30 2789 H 260.032 4.24551 -2.2202 0
M  V30 2790 H 258.396 2.30022 -1.09371 0
M  V30 2791 H 259.179 2.0583 -2.74752 0
M  V30 2792 N 261.624 0.925811 1.2754 0
M  V30 2793 C 262.87 0.566092 1.94739 0
M  V30 2794 C 263.203 -0.890057 1.72603 0
M  V30 2795 O 262.478 -1.63467 1.05399 0
M  V30 2796 C 262.761 0.89054 3.48915 0
M  V30 2797 C 262.614 2.4003 3.80402 0
M  V30 2798 C 263.933 0.395101 4.38323 0
M  V30 2799 H 261.052 0.20714 0.707292 0
M  V30 2800 H 263.694 1.15725 1.50691 0
M  V30 2801 H 261.844 0.387452 3.86563 0
M  V30 2802 H 263.516 2.97494 3.52555 0
M  V30 2803 H 261.759 2.85028 3.2702 0
M  V30 2804 H 262.43 2.57785 4.8811 0
M  V30 2805 H 264.906 0.826241 4.07814 0
M  V30 2806 H 263.782 0.651086 5.45025 0
M  V30 2807 H 264.043 -0.704798 4.36446 0
M  V30 2808 N 263.102 -1.41638 0.69111 0
M  V30 2809 C 264.032 -2.3347 0.037248 0
M  V30 2810 C 265.013 -1.51575 -0.771947 0
M  V30 2811 O 266.198 -1.80126 -0.72582 0
M  V30 2812 C 263.328 -3.35354 -0.903064 0
M  V30 2813 C 262.282 -4.27526 -0.201288 0
M  V30 2814 C 261.608 -5.19747 -1.25565 0
M  V30 2815 C 262.908 -5.13959 0.929689 0
M  V30 2816 H 264.602 -2.88397 0.804227 0
M  V30 2817 H 262.148 -1.38669 0.388189 0
M  V30 2818 H 264.101 -3.98519 -1.36969 0
M  V30 2819 H 262.825 -2.78767 -1.70166 0
M  V30 2820 H 261.484 -3.65779 0.245265 0
M  V30 2821 H 261.132 -4.59479 -2.04666 0
M  V30 2822 H 260.832 -5.8225 -0.791128 0
M  V30 2823 H 262.356 -5.85789 -1.72288 0
M  V30 2824 H 263.77 -5.70718 0.543546 0
M  V30 2825 H 262.167 -5.85379 1.32103 0
M  V30 2826 H 263.237 -4.51389 1.77133 0
M  V30 2827 N 264.58 -0.43555 -1.51462 0
M  V30 2828 C 265.857 0.191364 -1.94662 0
M  V30 2829 C 266.237 1.60254 -1.37411 0
M  V30 2830 O 265.585 2.2152 -0.560458 0
M  V30 2831 C 265.795 0.17091 -3.48581 0
M  V30 2832 C 267.143 0.377357 -4.2292 0
M  V30 2833 O 268.167 0.249104 -3.55328 0
M  V30 2834 O 267.026 0.63247 -5.42828 0
M  V30 2835 H 264.12 0.130932 -0.816569 0
M  V30 2836 H 266.666 -0.4934 -1.62369 0
M  V30 2837 H 265.438 -0.815738 -3.82703 0
M  V30 2838 H 265.061 0.898659 -3.87311 0
M  V30 2839 N 266.058 1.56714 -0.166846 0
M  V30 2840 C 267.283 2.01557 0.488833 0
M  V30 2841 C 267.708 1.0463 1.56314 0
M  V30 2842 O 267.066 0.0251304 1.81283 0
M  V30 2843 C 267.114 3.4503 1.04818 0
M  V30 2844 O 266.218 3.51163 2.16236 0
M  V30 2845 H 265.559 0.653516 0.117526 0
M  V30 2846 H 268.089 2.02818 -0.269421 0
M  V30 2847 H 268.099 3.84243 1.37191 0
M  V30 2848 H 266.774 4.15077 0.261572 0
M  V30 2849 H 265.351 3.23807 1.84942 0
M  V30 2850 N 267.536 -0.106894 1.57237 0
M  V30 2851 C 268.813 -0.843526 1.76477 0
M  V30 2852 C 269.193 -1.97499 0.745464 0
M  V30 2853 O 268.541 -2.27357 -0.228306 0
M  V30 2854 C 268.751 -1.34903 3.21873 0
M  V30 2855 C 270.099 -1.79654 3.8472 0
M  V30 2856 O 271.123 -1.44554 3.2555 0
M  V30 2857 O 269.982 -2.44515 4.88748 0
M  V30 2858 H 267.076 -0.401468 0.723016 0
M  V30 2859 H 269.622 -0.0896927 1.69463 0
M  V30 2860 H 268.394 -0.53781 3.87586 0
M  V30 2861 H 268.017 -2.16522 3.33473 0
M  V30 2862 N 269.014 -1.53014 -0.377408 0
M  V30 2863 C 270.262 -1.6829 -1.11906 0
M  V30 2864 C 270.583 -0.431206 -1.90173 0
M  V30 2865 O 269.853 0.554595 -1.87886 0
M  V30 2866 H 268.433 -0.620371 -0.416112 0
M  V30 2867 H 271.095 -1.90167 -0.426893 0
M  V30 2868 H 270.191 -2.53862 -1.8155 0
M  V30 2869 N 270.492 0.636531 -1.44174 0
M  V30 2870 C 271.717 1.42847 -1.50364 0
M  V30 2871 C 272.142 1.87665 -0.127867 0
M  V30 2872 O 271.5 1.58408 0.88185 0
M  V30 2873 C 271.548 2.62854 -2.4686 0
M  V30 2874 O 270.652 3.62501 -1.9664 0
M  V30 2875 H 269.993 0.427642 -0.507955 0
M  V30 2876 H 272.523 0.777422 -1.89255 0
M  V30 2877 H 272.533 3.10465 -2.64718 0
M  V30 2878 H 271.208 2.29578 -3.46795 0
M  V30 2879 H 269.785 3.21735 -1.88523 0
M  V30 2880 N 271.97 1.30982 0.876444 0
M  V30 2881 C 273.217 1.20296 1.62896 0
M  V30 2882 C 273.545 -0.240395 1.93009 0
M  V30 2883 O 272.8 -1.18733 1.55567 0
M  V30 2884 C 273.099 1.98572 2.9716 0
M  V30 2885 C 272.765 3.48125 2.86566 0
M  V30 2886 C 271.427 3.88905 2.83383 0
M  V30 2887 C 273.779 4.43322 2.74071 0
M  V30 2888 C 271.107 5.2316 2.65556 0
M  V30 2889 C 273.459 5.77695 2.57781 0
M  V30 2890 C 272.123 6.17704 2.52979 0
M  V30 2891 H 271.393 0.440193 0.59608 0
M  V30 2892 H 274.04 1.62177 1.01837 0
M  V30 2893 H 272.345 1.49352 3.62217 0
M  V30 2894 H 274.042 1.8769 3.54364 0
M  V30 2895 H 270.632 3.15723 2.89856 0
M  V30 2896 H 274.816 4.12752 2.75589 0
M  V30 2897 H 270.072 5.53241 2.60259 0
M  V30 2898 H 274.246 6.51091 2.47089 0
M  V30 2899 H 271.873 7.21678 2.38924 0
M  V30 2900 N 273.449 -1.08991 1.13837 0
M  V30 2901 C 274.696 -1.81258 0.902882 0
M  V30 2902 C 275.024 -1.85936 -0.570803 0
M  V30 2903 O 274.279 -1.3267 -1.43865 0
M  V30 2904 C 274.578 -3.27042 1.44147 0
M  V30 2905 C 274.244 -3.4249 2.93276 0
M  V30 2906 C 272.906 -3.46414 3.33992 0
M  V30 2907 C 275.258 -3.4666 3.892 0
M  V30 2908 C 272.586 -3.52091 4.69307 0
M  V30 2909 C 274.938 -3.53872 5.24364 0
M  V30 2910 C 273.602 -3.56066 5.646 0
M  V30 2911 H 272.872 -0.663268 0.330388 0
M  V30 2912 H 275.519 -1.28368 1.42105 0
M  V30 2913 H 273.824 -3.82599 0.844097 0
M  V30 2914 H 275.521 -3.81499 1.23528 0
M  V30 2915 H 272.111 -3.40124 2.60794 0
M  V30 2916 H 276.295 -3.42865 3.58828 0
M  V30 2917 H 271.551 -3.52079 4.9985 0
M  V30 2918 H 275.725 -3.56043 5.98503 0
M  V30 2919 H 273.352 -3.60218 6.69438 0
M  V30 2920 N 274.927 -0.932562 -1.27047 0
M  V30 2921 C 275.857 -0.452902 -2.29066 0
M  V30 2922 C 276.838 0.489338 -1.62909 0
M  V30 2923 O 278.023 0.393046 -1.90181 0
M  V30 2924 C 275.153 0.290698 -3.46081 0
M  V30 2925 C 274.107 -0.564168 -4.24265 0
M  V30 2926 C 273.433 0.308886 -5.33807 0
M  V30 2927 C 274.733 -1.83112 -4.89149 0
M  V30 2928 H 276.427 -1.30552 -2.69437 0
M  V30 2929 H 273.973 -0.629201 -1.29526 0
M  V30 2930 H 275.926 0.637233 -4.16554 0
M  V30 2931 H 274.65 1.17738 -3.0464 0
M  V30 2932 H 273.309 -0.893477 -3.55545 0
M  V30 2933 H 272.957 1.19467 -4.88607 0
M  V30 2934 H 272.657 -0.259633 -5.87026 0
M  V30 2935 H 274.181 0.650884 -6.07121 0
M  V30 2936 H 275.595 -1.55236 -5.51883 0
M  V30 2937 H 273.992 -2.34353 -5.52448 0
M  V30 2938 H 275.062 -2.54772 -4.12576 0
M  V30 2939 N 276.405 1.4127 -0.698611 0
M  V30 2940 C 277.635 2.05205 -0.239644 0
M  V30 2941 C 278.043 1.52684 1.11733 0
M  V30 2942 O 277.386 0.671222 1.70998 0
M  V30 2943 C 277.448 3.59289 -0.123126 0
M  V30 2944 C 277.112 4.34619 -1.41263 0
M  V30 2945 C 278.109 4.63701 -2.35111 0
M  V30 2946 C 275.794 4.73837 -1.66684 0
M  V30 2947 C 277.788 5.30966 -3.52639 0
M  V30 2948 C 275.475 5.40837 -2.84498 0
M  V30 2949 C 276.473 5.69329 -3.77298 0
M  V30 2950 O 276.161 6.34949 -4.93047 0
M  V30 2951 H 275.893 0.66723 -0.108537 0
M  V30 2952 H 278.447 1.81974 -0.952602 0
M  V30 2953 H 276.677 3.81272 0.645628 0
M  V30 2954 H 278.366 4.04797 0.299056 0
M  V30 2955 H 279.132 4.33882 -2.16729 0
M  V30 2956 H 275.011 4.51039 -0.953135 0
M  V30 2957 H 278.555 5.53121 -4.25091 0
M  V30 2958 H 274.452 5.70075 -3.02795 0
M  V30 2959 H 275.22 6.53445 -4.92902 0
M  V30 2960 N 277.883 0.443576 1.51229 0
M  V30 2961 C 279.108 -0.121648 2.07043 0
M  V30 2962 C 279.533 -1.35156 1.30823 0
M  V30 2963 O 278.891 -1.7793 0.347934 0
M  V30 2964 C 278.939 -0.41624 3.5819 0
M  V30 2965 O 278.043 -1.50163 3.8409 0
M  V30 2966 H 277.384 0.000871367 0.663999 0
M  V30 2967 H 279.914 0.626706 1.94765 0
M  V30 2968 H 279.924 -0.664867 4.02546 0
M  V30 2969 H 278.599 0.482653 4.1309 0
M  V30 2970 H 277.176 -1.24248 3.51592 0
M  V30 2971 N 279.361 -1.56624 0.175154 0
M  V30 2972 C 280.308 -2.18149 -0.753634 0
M  V30 2973 C 281.278 -1.12265 -1.22417 0
M  V30 2974 O 282.463 -1.40432 -1.29165 0
M  V30 2975 C 279.603 -2.82933 -1.97592 0
M  V30 2976 C 278.716 -4.03289 -1.5486 0
M  V30 2977 C 277.851 -4.55988 -2.72485 0
M  V30 2978 C 276.89 -5.68746 -2.26262 0
M  V30 2979 N 276.027 -6.15938 -3.36994 0
M  V30 2980 H 280.867 -2.9717 -0.222195 0
M  V30 2981 H 278.404 -1.46774 -0.0979422 0
M  V30 2982 H 280.362 -3.18653 -2.69288 0
M  V30 2983 H 278.992 -2.06509 -2.481 0
M  V30 2984 H 278.044 -3.73364 -0.728246 0
M  V30 2985 H 279.356 -4.849 -1.16933 0
M  V30 2986 H 278.51 -4.9391 -3.52332 0
M  V30 2987 H 277.249 -3.73443 -3.13674 0
M  V30 2988 H 276.254 -5.30372 -1.44863 0
M  V30 2989 H 277.479 -6.53095 -1.86127 0
M  V30 2990 H 275.425 -5.36321 -3.77751 0
M  V30 2991 H 275.342 -6.92548 -3.03172 0
M  V30 2992 H 276.61 -6.58511 -4.17114 0
M  V30 2993 N 280.839 0.0985539 -1.57292 0
M  V30 2994 C 281.769 1.12064 -2.04851 0
M  V30 2995 C 282.75 1.41981 -0.936767 0
M  V30 2996 O 283.935 1.52071 -1.20781 0
M  V30 2997 C 281.065 2.44144 -2.47004 0
M  V30 2998 C 280.019 2.28643 -3.6181 0
M  V30 2999 C 279.345 3.65869 -3.89929 0
M  V30 3000 C 280.645 1.72986 -4.92822 0
M  V30 3001 H 282.339 0.724979 -2.9049 0
M  V30 3002 H 279.885 0.34729 -1.39749 0
M  V30 3003 H 281.838 3.15914 -2.78884 0
M  V30 3004 H 280.562 2.85639 -1.5836 0
M  V30 3005 H 279.221 1.59318 -3.30172 0
M  V30 3006 H 278.869 4.04885 -2.98458 0
M  V30 3007 H 278.569 3.56344 -4.67218 0
M  V30 3008 H 280.093 4.39112 -4.2428 0
M  V30 3009 H 281.507 2.34593 -5.23105 0
M  V30 3010 H 279.904 1.74229 -5.74251 0
M  V30 3011 H 280.974 0.689007 -4.7998 0
M  V30 3012 N 282.317 1.53212 0.369288 0
M  V30 3013 C 283.545 1.73119 1.13303 0
M  V30 3014 C 283.96 0.458455 1.83149 0
M  V30 3015 O 283.317 -0.568403 1.73423 0
M  V30 3016 C 283.368 2.89413 2.16616 0
M  V30 3017 O 283.089 4.11761 1.49614 0
M  V30 3018 C 284.59 3.21161 3.05566 0
M  V30 3019 H 281.81 0.579107 0.338934 0
M  V30 3020 H 284.354 1.99942 0.429338 0
M  V30 3021 H 282.509 2.64994 2.82589 0
M  V30 3022 H 282.923 4.76858 2.18419 0
M  V30 3023 H 284.397 4.05949 3.74045 0
M  V30 3024 H 284.874 2.36369 3.70171 0
M  V30 3025 H 285.48 3.47492 2.45213 0
M  V30 3026 N 283.795 -0.628877 1.44509 0
M  V30 3027 C 285.041 -1.39045 1.47629 0
M  V30 3028 C 285.374 -1.93892 0.109343 0
M  V30 3029 O 284.649 -1.7379 -0.87334 0
M  V30 3030 C 284.932 -2.55408 2.53848 0
M  V30 3031 C 284.785 -2.05896 3.99909 0
M  V30 3032 C 286.104 -3.5759 2.56549 0
M  V30 3033 H 283.223 -0.504232 0.537512 0
M  V30 3034 H 285.865 -0.710854 1.76201 0
M  V30 3035 H 284.015 -3.13384 2.29615 0
M  V30 3036 H 285.687 -1.52734 4.35282 0
M  V30 3037 H 283.93 -1.37061 4.11578 0
M  V30 3038 H 284.601 -2.89681 4.69882 0
M  V30 3039 H 287.077 -3.09419 2.78207 0
M  V30 3040 H 285.953 -4.36527 3.32769 0
M  V30 3041 H 286.214 -4.11808 1.60832 0
M  V30 3042 N 285.273 -1.31445 -0.869486 0
M  V30 3043 C 286.55 -1.11795 -1.60503 0
M  V30 3044 C 286.93 0.327168 -2.08549 0
M  V30 3045 O 286.278 1.32135 -1.8642 0
M  V30 3046 C 286.488 -2.13258 -2.76265 0
M  V30 3047 C 287.836 -2.45805 -3.46215 0
M  V30 3048 O 288.86 -2.11688 -2.86473 0
M  V30 3049 O 287.719 -3.04228 -4.5399 0
M  V30 3050 H 284.813 -0.430421 -0.706163 0
M  V30 3051 H 287.359 -1.42925 -0.914907 0
M  V30 3052 H 286.131 -3.10461 -2.3818 0
M  V30 3053 H 285.754 -1.83035 -3.52964 0
M  V30 3054 N 286.751 1.08385 -1.14413 0
M  V30 3055 C 287.698 2.15311 -0.831265 0
M  V30 3056 C 288.668 1.64751 0.211292 0
M  V30 3057 O 289.853 1.90627 0.0811674 0
M  V30 3058 C 286.993 3.43658 -0.315143 0
M  V30 3059 C 286.106 4.08064 -1.41802 0
M  V30 3060 C 285.241 5.24207 -0.859126 0
M  V30 3061 C 284.28 5.80554 -1.93967 0
M  V30 3062 N 283.417 6.88042 -1.39793 0
M  V30 3063 H 288.257 2.41415 -1.74708 0
M  V30 3064 H 285.794 1.18474 -0.871909 0
M  V30 3065 H 287.752 4.172 0.00230884 0
M  V30 3066 H 286.382 3.17839 0.56378 0
M  V30 3067 H 285.434 3.3228 -1.85187 0
M  V30 3068 H 286.746 4.45962 -2.23427 0
M  V30 3069 H 285.9 6.04689 -0.49359 0
M  V30 3070 H 284.639 4.87699 -0.011932 0
M  V30 3071 H 283.644 4.98725 -2.31415 0
M  V30 3072 H 284.869 6.19121 -2.79046 0
M  V30 3073 H 282.815 6.53493 -0.572919 0
M  V30 3074 H 282.732 7.24767 -2.15054 0
M  V30 3075 H 284 7.72255 -1.0603 0
M  V30 3076 N 288.23 0.939286 1.26551 0
M  V30 3077 C 289.455 0.602008 1.98471 0
M  V30 3078 C 289.88 -0.815624 1.69497 0
M  V30 3079 O 289.238 -1.54912 0.941905 0
M  V30 3080 C 289.286 0.848407 3.50477 0
M  V30 3081 O 288.39 -0.0804009 4.12322 0
M  V30 3082 H 287.731 0.23049 0.622712 0
M  V30 3083 H 290.261 1.2617 1.61066 0
M  V30 3084 H 290.271 0.768553 4.00696 0
M  V30 3085 H 288.946 1.88171 3.70897 0
M  V30 3086 H 287.523 0.0503508 3.72866 0
M  V30 3087 N 289.708 -1.40897 0.706093 0
M  V30 3088 C 291.124 -1.55042 0.37869 0
M  V30 3089 C 291.324 -1.67944 -1.11342 0
M  V30 3090 O 290.38 -1.66372 -1.89938 0
M  V30 3091 C 291.693 -2.78398 1.13643 0
M  V30 3092 C 293.241 -2.92206 1.12181 0
M  V30 3093 C 293.716 -4.18463 1.86152 0
M  V30 3094 N 295.207 -4.25443 1.83173 0
M  V30 3095 C 295.942 -5.2202 2.37239 0
M  V30 3096 N 295.438 -6.24563 2.99821 0
M  V30 3097 N 297.231 -5.14033 2.27435 0
M  V30 3098 H 289.382 -1.30769 1.67372 0
M  V30 3099 H 291.645 -0.631653 0.706907 0
M  V30 3100 H 291.351 -2.7511 2.19106 0
M  V30 3101 H 291.225 -3.70228 0.721853 0
M  V30 3102 H 293.612 -2.95004 0.0754171 0
M  V30 3103 H 293.693 -2.01521 1.57554 0
M  V30 3104 H 293.337 -4.16427 2.90776 0
M  V30 3105 H 293.267 -5.08141 1.38206 0
M  V30 3106 H 295.758 -3.51976 1.37556 0
M  V30 3107 H 296.071 -6.94665 3.38616 0
M  V30 3108 H 294.416 -6.25035 3.03902 0
M  V30 3109 H 297.607 -4.3285 1.78208 0
M  V30 3110 H 297.78 -5.89129 2.69873 0
M  V30 3111 N 291.186 -0.45159 -1.50991 0
M  V30 3112 C 292.432 0.102439 -2.03142 0
M  V30 3113 C 292.787 1.39138 -1.32884 0
M  V30 3114 O 292.08 1.86493 -0.439438 0
M  V30 3115 C 292.274 0.361728 -3.55565 0
M  V30 3116 C 292.103 -0.900535 -4.40591 0
M  V30 3117 C 290.873 -1.43821 -4.844 0
M  V30 3118 C 293.071 -1.79063 -4.82121 0
M  V30 3119 N 291.053 -2.65153 -5.53685 0
M  V30 3120 C 292.424 -2.84991 -5.50618 0
M  V30 3121 C 294.479 -1.80334 -4.64095 0
M  V30 3122 C 293.182 -3.92155 -6.02998 0
M  V30 3123 C 295.208 -2.86442 -5.17402 0
M  V30 3124 C 294.57 -3.9109 -5.85857 0
M  V30 3125 H 290.669 -0.00204537 -0.781997 0
M  V30 3126 H 293.253 -0.615446 -1.84717 0
M  V30 3127 H 291.424 1.04865 -3.73976 0
M  V30 3128 H 293.156 0.908372 -3.94374 0
M  V30 3129 H 289.911 -0.990117 -4.63135 0
M  V30 3130 H 290.335 -3.26717 -5.92946 0
M  V30 3131 H 294.977 -1.00753 -4.1062 0
M  V30 3132 H 292.695 -4.72565 -6.55521 0
M  V30 3133 H 296.281 -2.88386 -5.05297 0
M  V30 3134 H 295.161 -4.71845 -6.26364 0
M  V30 3135 N 292.664 1.56529 -0.183458 0
M  V30 3136 C 293.596 2.15747 0.773697 0
M  V30 3137 C 294.609 1.1162 1.1851 0
M  V30 3138 O 295.798 1.3876 1.12285 0
M  V30 3139 C 292.898 2.6952 2.05456 0
M  V30 3140 C 292.071 3.98429 1.8048 0
M  V30 3141 C 291.13 4.37145 2.92901 0
M  V30 3142 O 290.156 5.04791 2.6301 0
M  V30 3143 N 291.358 3.99695 4.2098 0
M  V30 3144 H 294.123 2.98505 0.26736 0
M  V30 3145 H 291.684 1.619 -0.0010878 0
M  V30 3146 H 293.676 2.92412 2.79781 0
M  V30 3147 H 292.246 1.91282 2.47245 0
M  V30 3148 H 291.466 3.8379 0.899947 0
M  V30 3149 H 292.754 4.82597 1.61175 0
M  V30 3150 H 292.152 3.4526 4.48121 0
M  V30 3151 H 290.709 4.27562 4.9197 0
M  V30 3152 N 294.142 -0.090211 1.57342 0
M  V30 3153 C 295.074 -1.13541 1.99101 0
M  V30 3154 C 296.087 -1.3604 0.894258 0
M  V30 3155 O 297.276 -1.34606 1.17233 0
M  V30 3156 C 294.376 -2.49001 2.29895 0
M  V30 3157 C 293.549 -2.46712 3.61182 0
M  V30 3158 C 292.608 -3.64136 3.79857 0
M  V30 3159 O 291.634 -3.46405 4.51655 0
M  V30 3160 N 292.836 -4.83802 3.20806 0
M  V30 3161 H 295.601 -0.779942 2.89373 0
M  V30 3162 H 293.162 -0.279125 1.59476 0
M  V30 3163 H 295.154 -3.26166 2.39578 0
M  V30 3164 H 293.724 -2.76619 1.45605 0
M  V30 3165 H 292.944 -1.55058 3.62423 0
M  V30 3166 H 294.232 -2.42265 4.4742 0
M  V30 3167 H 293.63 -5.01112 2.62494 0
M  V30 3168 H 292.187 -5.58543 3.35966 0
M  V30 3169 N 295.62 -1.53406 -0.361157 0
M  V30 3170 C 296.868 -1.69467 -1.10115 0
M  V30 3171 C 297.189 -0.451352 -1.89705 0
M  V30 3172 O 296.459 0.534636 -1.88463 0
M  V30 3173 H 295.039 -0.624749 -0.409508 0
M  V30 3174 H 297.701 -1.90609 -0.406699 0
M  V30 3175 H 296.797 -2.55774 -1.78847 0
M  V30 3176 N 297.098 0.621204 -1.44841 0
M  V30 3177 C 298.046 1.75385 -1.52784 0
M  V30 3178 C 299.04 1.64639 -0.398779 0
M  V30 3179 O 300.246 1.70598 -0.574137 0
M  V30 3180 H 296.621 0.579193 -0.479625 0
M  V30 3181 H 298.592 1.6581 -2.48092 0
M  V30 3182 C 297.341 3.13742 -1.4987 0
M  V30 3183 H 296.664 3.22663 -2.36069 0
M  V30 3184 H 298.104 3.92861 -1.59487 0
M  V30 3185 C 296.563 3.36175 -0.220973 0
M  V30 3186 O 297.093 3.95469 0.704782 0
M  V30 3187 N 295.299 2.90348 -0.120963 0
M  V30 3188 H 294.846 2.42278 -0.875162 0
M  V30 3189 H 294.804 3.05732 0.733168 0
M  V30 3190 N 298.576 1.31904 0.862503 0
M  V30 3191 C 299.822 1.22197 1.61851 0
M  V30 3192 C 300.155 -0.217641 1.92977 0
M  V30 3193 O 299.43 -1.15264 1.56666 0
M  V30 3194 C 299.713 2.07378 2.94391 0
M  V30 3195 C 299.566 3.59678 2.70096 0
M  V30 3196 C 300.885 1.92891 3.95577 0
M  V30 3197 H 298.004 0.445255 0.587296 0
M  V30 3198 H 300.646 1.6177 0.99651 0
M  V30 3199 H 298.796 1.73758 3.47477 0
M  V30 3200 H 300.468 4.03472 2.23625 0
M  V30 3201 H 298.711 3.82735 2.04197 0
M  V30 3202 H 299.382 4.14595 3.64438 0
M  V30 3203 H 301.858 2.22327 3.51724 0
M  V30 3204 H 300.734 2.54781 4.86187 0
M  V30 3205 H 300.995 0.894315 4.3296 0
M  V30 3206 N 300.054 -1.07777 1.14986 0
M  V30 3207 C 301.301 -1.8029 0.922056 0
M  V30 3208 C 301.629 -1.86531 -0.55105 0
M  V30 3209 O 300.884 -1.34189 -1.42449 0
M  V30 3210 C 301.183 -3.25495 1.47608 0
M  V30 3211 C 300.849 -3.39361 2.96893 0
M  V30 3212 C 299.511 -3.42852 3.37647 0
M  V30 3213 C 301.863 -3.42512 3.92854 0
M  V30 3214 C 299.191 -3.47094 4.73015 0
M  V30 3215 C 301.543 -3.4829 5.28088 0
M  V30 3216 C 300.207 -3.50058 5.68345 0
M  V30 3217 H 299.477 -0.659727 0.337404 0
M  V30 3218 H 302.124 -1.26854 1.43459 0
M  V30 3219 H 300.429 -3.81683 0.88463 0
M  V30 3220 H 302.126 -3.80168 1.27568 0
M  V30 3221 H 298.716 -3.37339 2.64387 0
M  V30 3222 H 302.9 -3.3904 3.62444 0
M  V30 3223 H 298.156 -3.46758 5.03556 0
M  V30 3224 H 302.33 -3.49675 6.02246 0
M  V30 3225 H 299.957 -3.53097 6.73221 0
M  V30 3226 N 301.532 -0.945985 -1.26051 0
M  V30 3227 C 302.757 -0.612525 -1.98149 0
M  V30 3228 C 303.182 0.806623 -1.69927 0
M  V30 3229 O 302.54 1.54411 -0.950108 0
M  V30 3230 C 302.588 -0.866981 -3.50023 0
M  V30 3231 O 301.692 0.0585333 -4.12358 0
M  V30 3232 H 301.033 -0.23379 -0.621481 0
M  V30 3233 H 303.563 -1.27023 -1.60395 0
M  V30 3234 H 303.573 -0.789792 -4.00283 0
M  V30 3235 H 302.248 -1.90135 -3.69894 0
M  V30 3236 H 300.825 -0.0701241 -3.72834 0
M  V30 3237 N 303.011 1.40521 -0.713556 0
M  V30 3238 C 304.251 2.02783 -0.256584 0
M  V30 3239 C 304.615 1.55352 1.12827 0
M  V30 3240 O 305.816 2.09663 1.68211 0
M  V30 3241 C 304.087 3.5586 -0.331414 0
M  V30 3242 S 305.646 4.38773 0.0488703 0
M  V30 3243 H 302.464 0.703655 -0.101934 0
M  V30 3244 H 305.066 1.71674 -0.935325 0
M  V30 3245 H 303.77 3.87874 -1.34098 0
M  V30 3246 H 303.301 3.91695 0.365873 0
M  V30 3247 H 305.316 4.79633 1.2715 0
M  V30 3248 N 304.489 0.459591 1.5075 0
M  V30 3249 C 305.714 -0.0996819 2.0716 0
M  V30 3250 C 306.139 -1.33761 1.32249 0
M  V30 3251 O 305.497 -1.77551 0.366786 0
M  V30 3252 C 305.545 -0.378226 3.58611 0
M  V30 3253 O 304.649 -1.46081 3.85661 0
M  V30 3254 H 303.99 0.00791392 0.663953 0
M  V30 3255 H 306.52 0.647329 1.9409 0
M  V30 3256 H 306.53 -0.622135 4.03229 0
M  V30 3257 H 305.205 0.526439 4.12555 0
M  V30 3258 H 303.782 -1.20511 3.5289 0
M  V30 3259 N 305.967 -1.56429 0.191757 0
M  V30 3260 C 307.213 -1.97777 -0.448554 0
M  V30 3261 C 307.546 -1.07847 -1.61501 0
M  V30 3262 O 306.821 -0.129774 -1.94067 0
M  V30 3263 C 307.104 -3.48362 -0.911906 0
M  V30 3264 C 306.957 -4.4907 0.256136 0
M  V30 3265 C 308.276 -4.02561 -1.77857 0
M  V30 3266 H 305.395 -0.719071 -0.161572 0
M  V30 3267 H 308.037 -1.87896 0.282007 0
M  V30 3268 H 306.187 -3.56914 -1.53442 0
M  V30 3269 H 307.859 -4.5256 0.893733 0
M  V30 3270 H 306.102 -4.24181 0.908436 0
M  V30 3271 H 306.773 -5.51889 -0.11053 0
M  V30 3272 H 309.249 -3.96767 -1.25359 0
M  V30 3273 H 308.125 -5.08301 -2.07174 0
M  V30 3274 H 308.386 -3.47616 -2.73158 0
M  V30 3275 N 307.445 0.0818655 -1.57387 0
M  V30 3276 C 308.378 1.12986 -1.98266 0
M  V30 3277 C 309.356 1.38123 -0.857954 0
M  V30 3278 O 310.54 1.51663 -1.1194 0
M  V30 3279 C 307.667 2.47632 -2.31076 0
M  V30 3280 C 306.713 2.38693 -3.53452 0
M  V30 3281 S 307.546 1.79071 -5.04672 0
M  V30 3282 C 308.702 3.15316 -5.40673 0
M  V30 3283 H 308.935 0.781435 -2.86846 0
M  V30 3284 H 306.468 0.290034 -1.51651 0
M  V30 3285 H 308.426 3.25089 -2.50654 0
M  V30 3286 H 307.087 2.79638 -1.43043 0
M  V30 3287 H 306.28 3.37964 -3.73893 0
M  V30 3288 H 305.882 1.69369 -3.33452 0
M  V30 3289 H 308.174 4.11613 -5.38127 0
M  V30 3290 H 309.117 2.99664 -6.41566 0
M  V30 3291 H 309.525 3.15457 -4.68132 0
M  V30 3292 N 308.923 1.53595 0.353017 0
M  V30 3293 C 309.873 1.77299 1.43349 0
M  V30 3294 C 310.857 0.627884 1.48143 0
M  V30 3295 O 312.049 0.88697 1.53173 0
M  V30 3296 C 309.178 1.97757 2.80619 0
M  V30 3297 C 308.264 3.18305 2.80254 0
M  V30 3298 N 308.655 4.39967 2.49526 0
M  V30 3299 C 306.953 3.19283 3.11407 0
M  V30 3300 C 307.654 5.21772 2.57156 0
M  V30 3301 N 306.63 4.58269 2.92388 0
M  V30 3302 H 310.432 2.68963 1.18474 0
M  V30 3303 H 307.946 1.52391 0.561306 0
M  V30 3304 H 309.943 2.1287 3.58458 0
M  V30 3305 H 308.603 1.07329 3.06448 0
M  V30 3306 H 309.614 4.67482 2.22893 0
M  V30 3307 H 306.291 2.3879 3.4247 0
M  V30 3308 H 307.681 6.2885 2.36638 0
M  V30 3309 N 310.401 -0.613514 1.45168 0
M  V30 3310 C 311.311 -1.75296 1.55912 0
M  V30 3311 C 312.327 -1.68244 0.443856 0
M  V30 3312 O 313.503 -1.88706 0.70371 0
M  V30 3313 C 310.568 -3.1174 1.5172 0
M  V30 3314 C 309.629 -3.30291 2.74238 0
M  V30 3315 C 308.862 -4.60226 2.70236 0
M  V30 3316 O 309.085 -5.42168 1.77229 0
M  V30 3317 O 308.019 -4.81361 3.61352 0
M  V30 3318 H 311.845 -1.69183 2.52212 0
M  V30 3319 H 309.43 -0.776886 1.27612 0
M  V30 3320 H 311.312 -3.93044 1.51968 0
M  V30 3321 H 309.987 -3.18357 0.585697 0
M  V30 3322 H 308.894 -2.48598 2.79553 0
M  V30 3323 H 310.227 -3.28547 3.66494 0
M  V30 3324 N 311.879 -1.3236 -0.855495 0
M  V30 3325 C 312.842 -1.21164 -1.94556 0
M  V30 3326 C 313.842 -0.134908 -1.60233 0
M  V30 3327 O 315.032 -0.385249 -1.69887 0
M  V30 3328 C 312.164 -0.863192 -3.29791 0
M  V30 3329 H 313.357 -2.18038 -2.05911 0
M  V30 3330 H 310.91 -1.16179 -1.04557 0
M  V30 3331 H 311.645 0.103769 -3.24134 0
M  V30 3332 H 311.43 -1.64166 -3.56078 0
M  V30 3333 H 312.92 -0.809156 -4.09686 0
M  V30 3334 N 313.357 1.07166 -1.15556 0
M  V30 3335 C 314.287 2.16403 -0.877046 0
M  V30 3336 C 315.268 1.69217 0.173111 0
M  V30 3337 O 316.453 1.94181 0.027084 0
M  V30 3338 C 313.583 3.45349 -0.367632 0
M  V30 3339 C 312.537 4.05995 -1.35468 0
M  V30 3340 C 311.863 5.30045 -0.704038 0
M  V30 3341 C 313.163 4.45804 -2.72132 0
M  V30 3342 H 314.857 2.39959 -1.79053 0
M  V30 3343 H 312.403 1.15325 -0.862331 0
M  V30 3344 H 314.356 4.21095 -0.160317 0
M  V30 3345 H 313.08 3.21385 0.581326 0
M  V30 3346 H 311.739 3.32296 -1.54839 0
M  V30 3347 H 311.387 5.02373 0.251128 0
M  V30 3348 H 311.087 5.71579 -1.36277 0
M  V30 3349 H 312.611 6.08495 -0.50654 0
M  V30 3350 H 314.025 5.12671 -2.56595 0
M  V30 3351 H 312.422 4.98296 -3.34397 0
M  V30 3352 H 313.492 3.57083 -3.28054 0
M  V30 3353 N 314.835 0.952656 1.25548 0
M  V30 3354 C 315.785 0.442033 2.23674 0
M  V30 3355 C 316.769 -0.467632 1.53955 0
M  V30 3356 O 317.961 -0.301006 1.74422 0
M  V30 3357 C 315.09 -0.280816 3.4215 0
M  V30 3358 C 314.176 0.646803 4.19139 0
M  V30 3359 N 314.567 1.77759 4.73535 0
M  V30 3360 C 312.865 0.454617 4.43677 0
M  V30 3361 C 313.566 2.35658 5.31827 0
M  V30 3362 N 312.542 1.64333 5.18166 0
M  V30 3363 H 316.344 1.30505 2.63336 0
M  V30 3364 H 313.858 0.809904 1.40763 0
M  V30 3365 H 315.855 -0.663747 4.11582 0
M  V30 3366 H 314.515 -1.14046 3.04012 0
M  V30 3367 H 315.526 2.15949 4.7073 0
M  V30 3368 H 312.203 -0.362312 4.15925 0
M  V30 3369 H 313.593 3.30998 5.84713 0
M  V30 3370 N 316.313 -1.40141 0.720998 0
M  V30 3371 C 317.261 -2.3252 0.0608547 0
M  V30 3372 C 318.255 -1.52326 -0.741152 0
M  V30 3373 O 319.461 -1.68089 -0.643911 0
M  V30 3374 H 315.836 -0.751999 0.000876664 0
M  V30 3375 H 317.807 -2.8584 0.856614 0
M  V30 3376 C 316.556 -3.37331 -0.842809 0
M  V30 3377 H 315.879 -3.99108 -0.235084 0
M  V30 3378 H 317.319 -4.04452 -1.27257 0
M  V30 3379 C 315.778 -2.73246 -1.97074 0
M  V30 3380 O 316.308 -2.59998 -3.06209 0
M  V30 3381 N 314.514 -2.31547 -1.75597 0
M  V30 3382 H 314.061 -2.42522 -0.868368 0
M  V30 3383 H 314.019 -1.89007 -2.51244 0
M  V30 3384 N 317.792 -0.46758 -1.50504 0
M  V30 3385 C 318.742 0.34698 -2.25344 0
M  V30 3386 C 319.726 0.964469 -1.2879 0
M  V30 3387 O 320.918 0.8776 -1.53711 0
M  V30 3388 C 318.047 1.43042 -3.1208 0
M  V30 3389 C 317.133 0.82084 -4.16081 0
M  V30 3390 N 317.524 -0.0567602 -5.05768 0
M  V30 3391 C 315.822 1.08517 -4.32597 0
M  V30 3392 C 316.523 -0.402343 -5.80307 0
M  V30 3393 N 315.499 0.221607 -5.43148 0
M  V30 3394 H 319.301 -0.329129 -2.92051 0
M  V30 3395 H 316.815 -0.281508 -1.59942 0
M  V30 3396 H 318.812 2.02712 -3.64299 0
M  V30 3397 H 317.472 2.10856 -2.46921 0
M  V30 3398 H 318.483 -0.425349 -5.1615 0
M  V30 3399 H 315.16 1.75855 -3.78657 0
M  V30 3400 H 316.55 -1.11834 -6.62528 0
M  V30 3401 N 319.27 1.56325 -0.20005 0
M  V30 3402 C 320.5 2.01811 0.442232 0
M  V30 3403 C 320.908 1.07932 1.55394 0
M  V30 3404 O 320.251 0.0772685 1.83537 0
M  V30 3405 C 320.313 3.43685 1.05457 0
M  V30 3406 C 319.977 4.56928 0.0809833 0
M  V30 3407 C 320.974 5.15009 -0.711471 0
M  V30 3408 C 318.659 5.0229 -0.0315364 0
M  V30 3409 C 320.653 6.16904 -1.60336 0
M  V30 3410 C 318.34 6.04028 -0.926981 0
M  V30 3411 C 319.338 6.6121 -1.71146 0
M  V30 3412 O 319.026 7.60971 -2.59189 0
M  V30 3413 H 318.758 0.666173 0.114848 0
M  V30 3414 H 321.312 2.03085 -0.307511 0
M  V30 3415 H 319.542 3.39413 1.85299 0
M  V30 3416 H 321.231 3.72948 1.60201 0
M  V30 3417 H 321.997 4.80827 -0.634873 0
M  V30 3418 H 317.876 4.57476 0.568902 0
M  V30 3419 H 321.42 6.61464 -2.21611 0
M  V30 3420 H 317.317 6.37634 -1.00468 0
M  V30 3421 H 318.085 7.7841 -2.53023 0
M  V30 3422 N 320.748 -0.0735177 1.57428 0
M  V30 3423 C 321.976 -0.785969 1.9139 0
M  V30 3424 C 322.391 -1.71207 0.795847 0
M  V30 3425 O 321.748 -1.81033 -0.230915 0
M  V30 3426 C 321.799 -1.58107 3.25091 0
M  V30 3427 O 321.52 -0.6922 4.32597 0
M  V30 3428 C 323.021 -2.39467 3.73055 0
M  V30 3429 H 320.241 -0.223558 0.632663 0
M  V30 3430 H 322.785 -0.044302 2.04452 0
M  V30 3431 H 320.94 -2.27503 3.13562 0
M  V30 3432 H 321.354 -1.24504 5.09508 0
M  V30 3433 H 322.828 -2.90716 4.69242 0
M  V30 3434 H 323.305 -3.18913 3.01979 0
M  V30 3435 H 323.911 -1.7523 3.87523 0
M  V30 3436 N 322.226 -1.5378 -0.344866 0
M  V30 3437 C 323.158 -1.77988 -1.44406 0
M  V30 3438 C 324.171 -0.661138 -1.48771 0
M  V30 3439 O 325.36 -0.937842 -1.51877 0
M  V30 3440 C 322.46 -1.86345 -2.8307 0
M  V30 3441 C 321.633 -3.16256 -3.0216 0
M  V30 3442 C 320.692 -3.15588 -4.21059 0
M  V30 3443 O 319.718 -3.89314 -4.15239 0
M  V30 3444 N 320.92 -2.37864 -5.29529 0
M  V30 3445 H 323.685 -2.72839 -1.24012 0
M  V30 3446 H 321.246 -1.52814 -0.534737 0
M  V30 3447 H 323.238 -1.83351 -3.60783 0
M  V30 3448 H 321.808 -0.986858 -2.96614 0
M  V30 3449 H 321.028 -3.32385 -2.11929 0
M  V30 3450 H 322.316 -4.0207 -3.11797 0
M  V30 3451 H 321.714 -1.77514 -5.37127 0
M  V30 3452 H 320.271 -2.40668 -6.05741 0
M  V30 3453 N 323.704 0.605807 -1.45491 0
M  V30 3454 C 324.651 1.7164 -1.54299 0
M  V30 3455 C 325.621 1.61486 -0.388761 0
M  V30 3456 O 326.806 1.81039 -0.602445 0
M  V30 3457 C 323.946 3.09953 -1.51734 0
M  V30 3458 C 323.059 3.309 -2.77721 0
M  V30 3459 C 322.194 4.59329 -2.66816 0
M  V30 3460 C 321.233 4.7354 -3.87848 0
M  V30 3461 N 320.37 5.9327 -3.75467 0
M  V30 3462 H 325.21 1.63449 -2.49176 0
M  V30 3463 H 322.747 0.796957 -1.23641 0
M  V30 3464 H 324.705 3.89977 -1.48235 0
M  V30 3465 H 323.335 3.17098 -0.604068 0
M  V30 3466 H 322.387 2.44639 -2.913 0
M  V30 3467 H 323.699 3.37274 -3.67488 0
M  V30 3468 H 322.853 5.4755 -2.61292 0
M  V30 3469 H 321.592 4.55355 -1.74651 0
M  V30 3470 H 320.597 3.83741 -3.93729 0
M  V30 3471 H 321.822 4.79309 -4.81082 0
M  V30 3472 H 319.768 5.90338 -2.86072 0
M  V30 3473 H 319.685 6.00811 -4.5887 0
M  V30 3474 H 320.953 6.83984 -3.73879 0
M  V30 3475 N 325.182 1.32811 0.848464 0
M  V30 3476 C 326.407 1.26882 1.6406 0
M  V30 3477 C 326.832 -0.15913 1.87426 0
M  V30 3478 O 326.19 -1.11258 1.43148 0
M  V30 3479 C 326.238 2.03997 2.97351 0
M  V30 3480 O 325.342 1.39201 3.88197 0
M  V30 3481 H 324.683 0.436982 0.499943 0
M  V30 3482 H 327.213 1.75224 1.0563 0
M  V30 3483 H 327.223 2.14403 3.47124 0
M  V30 3484 H 325.898 3.0783 2.79666 0
M  V30 3485 H 324.475 1.37381 3.46671 0
M  V30 3486 N 326.66 -1.06551 1.16123 0
M  V30 3487 C 327.59 -2.15935 0.88851 0
M  V30 3488 C 328.571 -1.69306 -0.164135 0
M  V30 3489 O 329.756 -1.94193 -0.0167857 0
M  V30 3490 C 326.886 -3.45149 0.385942 0
M  V30 3491 C 325.84 -4.05271 1.3762 0
M  V30 3492 C 325.166 -5.29664 0.732137 0
M  V30 3493 C 326.466 -4.44355 2.74493 0
M  V30 3494 H 328.16 -2.39006 1.80323 0
M  V30 3495 H 325.706 -1.14866 0.868435 0
M  V30 3496 H 327.659 -4.21004 0.182647 0
M  V30 3497 H 326.383 -3.21689 -0.564274 0
M  V30 3498 H 325.042 -3.3147 1.56599 0
M  V30 3499 H 324.69 -5.02499 -0.224483 0
M  V30 3500 H 324.39 -5.70848 1.39307 0
M  V30 3501 H 325.914 -6.08218 0.538802 0
M  V30 3502 H 327.328 -5.11303 2.59311 0
M  V30 3503 H 325.725 -4.96515 3.37035 0
M  V30 3504 H 326.795 -3.55339 3.29943 0
M  V30 3505 N 328.138 -0.959301 -1.25041 0
M  V30 3506 C 329.363 -0.633507 -1.97488 0
M  V30 3507 C 329.788 0.788555 -1.70773 0
M  V30 3508 O 329.146 1.53394 -0.966431 0
M  V30 3509 C 329.194 -0.904057 -3.49083 0
M  V30 3510 O 328.298 0.0147939 -4.12397 0
M  V30 3511 H 327.639 -0.240368 -0.618966 0
M  V30 3512 H 330.169 -1.28717 -1.59038 0
M  V30 3513 H 330.179 -0.832203 -3.99423 0
M  V30 3514 H 328.854 -1.94048 -3.67856 0
M  V30 3515 H 327.431 -0.109664 -3.72739 0
M  V30 3516 N 329.616 1.39756 -0.72842 0
M  V30 3517 C 330.546 2.33289 -0.0991354 0
M  V30 3518 C 331.527 1.53568 0.731489 0
M  V30 3519 O 332.712 1.81987 0.677807 0
M  V30 3520 C 329.842 3.3763 0.813834 0
M  V30 3521 C 328.796 4.2791 0.0878663 0
M  V30 3522 C 328.122 5.22894 1.11741 0
M  V30 3523 C 329.422 5.11314 -1.06563 0
M  V30 3524 H 331.116 2.86163 -0.880408 0
M  V30 3525 H 328.662 1.37591 -0.424819 0
M  V30 3526 H 330.615 4.0201 1.26355 0
M  V30 3527 H 329.339 2.83181 1.62715 0
M  V30 3528 H 327.998 3.65 -0.342159 0
M  V30 3529 H 327.646 4.64744 1.92412 0
M  V30 3530 H 327.346 5.84143 0.636477 0
M  V30 3531 H 328.87 5.90151 1.56697 0
M  V30 3532 H 330.284 5.69076 -0.694671 0
M  V30 3533 H 328.681 5.81671 -1.47577 0
M  V30 3534 H 329.751 4.46534 -1.89038 0
M  V30 3535 N 331.094 0.475555 1.50254 0
M  V30 3536 C 332.319 -0.0777042 2.07254 0
M  V30 3537 C 332.744 -1.3235 1.3366 0
M  V30 3538 O 332.102 -1.77152 0.385597 0
M  V30 3539 C 332.15 -0.340169 3.58992 0
M  V30 3540 O 331.254 -1.41982 3.87188 0
M  V30 3541 H 330.595 0.0149556 0.663832 0
M  V30 3542 H 333.125 0.667878 1.93392 0
M  V30 3543 H 333.135 -0.579332 4.03866 0
M  V30 3544 H 331.81 0.570167 4.11973 0
M  V30 3545 H 330.387 -1.16762 3.54148 0
M  V30 3546 N 332.573 -1.56217 0.208337 0
M  V30 3547 C 333.984 -1.84243 -0.301904 0
M  V30 3548 C 334.335 -1.12939 -1.60434 0
M  V30 3549 O 333.46 -0.39461 -2.12772 0
M  V30 3550 C 334.055 -3.34231 -0.554543 0
M  V30 3551 C 332.614 -3.62621 -1.00912 0
M  V30 3552 C 331.761 -2.77224 -0.064933 0
M  V30 3553 H 334.712 -1.52712 0.431833 0
M  V30 3554 H 334.733 -3.5372 -1.40223 0
M  V30 3555 H 334.245 -3.86099 0.393561 0
M  V30 3556 H 332.346 -3.16197 -1.97104 0
M  V30 3557 H 332.459 -4.7071 -0.892674 0
M  V30 3558 H 330.823 -2.48256 -0.56929 0
M  V30 3559 H 331.606 -3.31887 0.877851 0
M  V30 3560 N 334.051 0.0651679 -1.57465 0
M  V30 3561 C 335.299 0.761555 -1.87202 0
M  V30 3562 C 335.62 1.77778 -0.801243 0
M  V30 3563 O 334.89 1.95166 0.16937 0
M  V30 3564 H 333.47 0.284251 -0.690804 0
M  V30 3565 H 336.132 0.0396827 -1.9486 0
M  V30 3566 H 335.228 1.27365 -2.84929 0
M  V30 3567 N 335.529 1.53961 0.336706 0
M  V30 3568 C 336.476 1.82428 1.41381 0
M  V30 3569 C 337.446 0.670444 1.51968 0
M  V30 3570 O 338.631 0.915565 1.67398 0
M  V30 3571 C 335.771 2.04564 2.77934 0
M  V30 3572 C 334.884 3.32267 2.76084 0
M  V30 3573 C 334.019 3.44434 4.04399 0
M  V30 3574 C 333.058 4.66061 3.96804 0
M  V30 3575 N 332.195 4.75224 5.16823 0
M  V30 3576 H 337.035 2.74324 1.16405 0
M  V30 3577 H 334.572 1.35869 0.563752 0
M  V30 3578 H 336.53 2.15388 3.57301 0
M  V30 3579 H 335.16 1.15974 3.01247 0
M  V30 3580 H 334.212 3.3025 1.88784 0
M  V30 3581 H 335.524 4.21733 2.66351 0
M  V30 3582 H 334.678 3.54728 4.92192 0
M  V30 3583 H 333.417 2.53037 4.16921 0
M  V30 3584 H 332.422 4.55838 3.07396 0
M  V30 3585 H 333.647 5.58829 3.85858 0
M  V30 3586 H 331.593 3.86739 5.29876 0
M  V30 3587 H 331.51 5.58636 5.09374 0
M  V30 3588 H 332.778 4.89835 6.06367 0
M  V30 3589 N 337.007 -0.598083 1.45811 0
M  V30 3590 C 338.255 -1.35413 1.50026 0
M  V30 3591 C 338.576 -1.94444 0.147177 0
M  V30 3592 O 337.846 -1.77701 -0.824571 0
M  V30 3593 H 336.426 -0.502727 0.552517 0
M  V30 3594 H 339.088 -0.701606 1.81834 0
M  V30 3595 H 338.184 -2.16871 2.2444 0
M  V30 3596 N 338.485 -1.33259 -0.841409 0
M  V30 3597 C 339.733 -1.24326 -1.59334 0
M  V30 3598 C 340.054 0.191564 -1.94057 0
M  V30 3599 O 339.324 1.11967 -1.60749 0
M  V30 3600 H 337.904 -0.457174 -0.590763 0
M  V30 3601 H 340.566 -1.66947 -1.00571 0
M  V30 3602 H 339.662 -1.8352 -2.52442 0
M  V30 3603 N 339.963 1.05934 -1.16686 0
M  V30 3604 C 341.211 1.78447 -0.948744 0
M  V30 3605 C 341.532 1.87813 0.524523 0
M  V30 3606 O 340.802 1.38945 1.38098 0
M  V30 3607 H 339.382 0.660971 -0.348033 0
M  V30 3608 H 342.044 1.27947 -1.47022 0
M  V30 3609 H 341.14 2.80394 -1.37061 0
M  V30 3610 N 341.441 0.965919 1.2453 0
M  V30 3611 C 342.689 0.625593 1.92174 0
M  V30 3612 C 343.01 -0.841652 1.75901 0
M  V30 3613 O 342.28 -1.60061 1.12948 0
M  V30 3614 H 340.86 0.228388 0.71123 0
M  V30 3615 H 343.522 1.2266 1.51461 0
M  V30 3616 H 342.618 0.864653 2.99884 0
M  V30 3617 N 342.919 -1.39368 0.735821 0
M  V30 3618 C 344.167 -2.00101 0.283562 0
M  V30 3619 C 344.488 -1.5868 -1.13338 0
M  V30 3620 O 343.758 -0.835423 -1.77193 0
M  V30 3621 H 342.338 -0.740024 0.101851 0
M  V30 3622 H 345 -1.70404 0.945962 0
M  V30 3623 H 344.096 -3.10323 0.332604 0
M  V30 3624 N 344.397 -0.483516 -1.5 0
M  V30 3625 C 345.646 0.0689102 -2.01582 0
M  V30 3626 C 345.959 1.39655 -1.36952 0
M  V30 3627 O 347.165 2.03465 -1.79762 0
M  V30 3628 C 345.621 0.173302 -3.59483 0
M  V30 3629 C 345.229 -1.14665 -4.33077 0
M  V30 3630 C 346.973 0.677024 -4.19066 0
M  V30 3631 C 344.88 -1.00537 -5.82792 0
M  V30 3632 H 343.81 0.0295277 -0.753422 0
M  V30 3633 H 346.461 -0.620295 -1.72698 0
M  V30 3634 H 344.843 0.926569 -3.85007 0
M  V30 3635 H 346.017 -1.91184 -4.19268 0
M  V30 3636 H 344.332 -1.58244 -3.85159 0
M  V30 3637 H 346.929 0.799952 -5.28682 0
M  V30 3638 H 347.272 1.67151 -3.81269 0
M  V30 3639 H 347.805 -0.0192083 -3.97795 0
M  V30 3640 H 344.544 -1.9736 -6.25083 0
M  V30 3641 H 344.064 -0.280776 -5.99142 0
M  V30 3642 H 345.743 -0.677 -6.43448 0
M  V30 3643 N 345.875 1.56104 -0.216619 0
M  V30 3644 C 346.785 2.23694 0.706982 0
M  V30 3645 C 347.801 1.24295 1.21765 0
M  V30 3646 O 348.977 1.57094 1.2603 0
M  V30 3647 C 346.042 2.8998 1.90033 0
M  V30 3648 C 345.103 4.04708 1.43213 0
M  V30 3649 C 344.336 4.67824 2.56859 0
M  V30 3650 O 344.559 4.29913 3.74874 0
M  V30 3651 O 343.493 5.56905 2.28343 0
M  V30 3652 H 347.319 3.03272 0.161235 0
M  V30 3653 H 344.904 1.49394 0.0136177 0
M  V30 3654 H 346.786 3.31837 2.59735 0
M  V30 3655 H 345.461 2.13365 2.43428 0
M  V30 3656 H 344.368 3.6743 0.70327 0
M  V30 3657 H 345.701 4.83051 0.944615 0
M  V30 3658 N 347.353 -0.0568162 1.57498 0
M  V30 3659 C 348.601 -0.751617 1.87604 0
M  V30 3660 C 348.922 -1.77351 0.81066 0
M  V30 3661 O 348.192 -1.95254 -0.159018 0
M  V30 3662 H 346.772 -0.280583 0.692302 0
M  V30 3663 H 349.434 -0.0293483 1.94878 0
M  V30 3664 H 348.53 -1.25852 2.856 0
M  V30 3665 N 348.832 -1.54138 -0.328536 0
M  V30 3666 C 350.243 -1.63395 -0.903272 0
M  V30 3667 C 350.594 -0.524828 -1.8905 0
M  V30 3668 O 349.719 0.343068 -2.13663 0
M  V30 3669 C 350.314 -2.9618 -1.64507 0
M  V30 3670 C 348.873 -3.0765 -2.1686 0
M  V30 3671 C 348.02 -2.58933 -0.992416 0
M  V30 3672 H 350.971 -1.58344 -0.106253 0
M  V30 3673 H 350.992 -2.86061 -2.50897 0
M  V30 3674 H 350.504 -3.76884 -0.926302 0
M  V30 3675 H 348.605 -2.31611 -2.91868 0
M  V30 3676 H 348.718 -4.1337 -2.42202 0
M  V30 3677 H 347.082 -2.14706 -1.37016 0
M  V30 3678 H 347.865 -3.42089 -0.288041 0
M  V30 3679 N 350.31 0.590341 -1.46126 0
M  V30 3680 C 351.538 1.37504 -1.54597 0
M  V30 3681 C 351.953 1.87897 -0.184447 0
M  V30 3682 O 351.31 1.63192 0.816984 0
M  V30 3683 C 351.361 2.56779 -2.54454 0
M  V30 3684 O 351.082 2.08476 -3.85317 0
M  V30 3685 C 352.583 3.49427 -2.72792 0
M  V30 3686 H 349.803 0.420325 -0.523037 0
M  V30 3687 H 352.347 0.718383 -1.91467 0
M  V30 3688 H 350.502 3.1845 -2.20609 0
M  V30 3689 H 350.916 2.86097 -4.396 0
M  V30 3690 H 352.39 4.29619 -3.466 0
M  V30 3691 H 352.867 4.00876 -1.79429 0
M  V30 3692 H 353.473 2.93598 -3.07702 0
M  V30 3693 N 351.788 1.33704 0.83433 0
M  V30 3694 C 352.718 1.26967 1.95963 0
M  V30 3695 C 353.699 0.149337 1.69443 0
M  V30 3696 O 354.884 0.339852 1.91203 0
M  V30 3697 C 352.014 1.01275 3.32206 0
M  V30 3698 C 350.968 2.09652 3.73136 0
M  V30 3699 C 350.294 1.69166 5.07235 0
M  V30 3700 C 351.594 3.51372 3.86439 0
M  V30 3701 H 353.288 2.2112 2.01857 0
M  V30 3702 H 350.834 1.06447 0.969793 0
M  V30 3703 H 352.787 0.952106 4.10503 0
M  V30 3704 H 351.511 0.0356203 3.26581 0
M  V30 3705 H 350.17 2.14766 2.97104 0
M  V30 3706 H 349.818 0.701437 4.98085 0
M  V30 3707 H 349.518 2.41694 5.35591 0
M  V30 3708 H 351.042 1.64576 5.88003 0
M  V30 3709 H 352.456 3.48734 4.55036 0
M  V30 3710 H 350.853 4.22425 4.26236 0
M  V30 3711 H 351.923 3.89546 2.88759 0
M  V30 3712 N 353.266 -1.05314 1.17247 0
M  V30 3713 C 354.682 -1.30452 0.919473 0
M  V30 3714 C 354.882 -1.9703 -0.42209 0
M  V30 3715 O 353.938 -2.24311 -1.15935 0
M  V30 3716 C 355.251 -2.17551 2.07586 0
M  V30 3717 C 356.799 -2.30937 2.11275 0
M  V30 3718 C 357.274 -3.21396 3.26296 0
M  V30 3719 N 358.765 -3.28981 3.26076 0
M  V30 3720 C 359.5 -3.99095 4.11716 0
M  V30 3721 N 358.996 -4.71648 5.07465 0
M  V30 3722 N 360.789 -3.95247 3.9967 0
M  V30 3723 H 352.94 -0.604988 2.03602 0
M  V30 3724 H 355.203 -0.329368 0.888944 0
M  V30 3725 H 354.909 -1.75921 3.0454 0
M  V30 3726 H 354.783 -3.18182 2.02584 0
M  V30 3727 H 357.17 -2.71809 1.14907 0
M  V30 3728 H 357.251 -1.2994 2.20339 0
M  V30 3729 H 356.895 -2.81238 4.22927 0
M  V30 3730 H 356.825 -4.22395 3.14467 0
M  V30 3731 H 359.316 -2.77286 2.5675 0
M  V30 3732 H 359.629 -5.22705 5.6921 0
M  V30 3733 H 357.974 -4.70594 5.11435 0
M  V30 3734 H 361.165 -3.37691 3.24164 0
M  V30 3735 H 361.338 -4.4962 4.66632 0
M  V30 3736 N 354.744 -0.972509 -1.24016 0
M  V30 3737 C 355.676 -0.464375 -2.24446 0
M  V30 3738 C 356.689 0.4295 -1.57032 0
M  V30 3739 O 357.878 0.234902 -1.76948 0
M  V30 3740 C 354.978 0.348385 -3.37105 0
M  V30 3741 C 354.151 -0.53673 -4.34094 0
M  V30 3742 C 353.21 0.220838 -5.25736 0
M  V30 3743 O 352.236 -0.386867 -5.67884 0
M  V30 3744 N 353.438 1.50907 -5.60542 0
M  V30 3745 H 356.203 -1.32788 -2.68677 0
M  V30 3746 H 353.764 -0.844877 -1.38107 0
M  V30 3747 H 355.756 0.863341 -3.95384 0
M  V30 3748 H 354.326 1.11285 -2.92121 0
M  V30 3749 H 353.546 -1.23261 -3.74433 0
M  V30 3750 H 354.834 -1.14022 -4.95859 0
M  V30 3751 H 354.232 2.02444 -5.28236 0
M  V30 3752 H 352.789 1.96962 -6.21329 0
M  V30 3753 N 356.222 1.38976 -0.743202 0
M  V30 3754 C 357.468 2.01114 -0.304109 0
M  V30 3755 C 357.823 1.57929 1.09892 0
M  V30 3756 O 357.116 0.801983 1.74008 0
M  V30 3757 C 357.31 3.55647 -0.353517 0
M  V30 3758 C 357.139 4.13837 -1.75981 0
M  V30 3759 C 355.909 4.46062 -2.37395 0
M  V30 3760 C 358.107 4.36812 -2.71477 0
M  V30 3761 N 356.089 4.898 -3.70093 0
M  V30 3762 C 357.46 4.82844 -3.88923 0
M  V30 3763 C 359.515 4.18893 -2.69134 0
M  V30 3764 C 358.218 5.12837 -5.04371 0
M  V30 3765 C 360.244 4.50005 -3.83731 0
M  V30 3766 C 359.606 4.96251 -4.99914 0
M  V30 3767 H 355.705 0.765931 -0.157716 0
M  V30 3768 H 358.289 1.68763 -0.970931 0
M  V30 3769 H 356.46 3.87368 0.282987 0
M  V30 3770 H 358.192 4.04564 0.104904 0
M  V30 3771 H 354.947 4.34145 -1.89248 0
M  V30 3772 H 355.371 5.16016 -4.38242 0
M  V30 3773 H 360.013 3.82335 -1.80499 0
M  V30 3774 H 357.731 5.48297 -5.9363 0
M  V30 3775 H 361.317 4.37755 -3.83225 0
M  V30 3776 H 360.197 5.19867 -5.87118 0
M  V30 3777 N 357.7 0.491464 1.49741 0
M  V30 3778 C 358.63 -0.28154 2.31796 0
M  V30 3779 C 359.611 -0.971473 1.3963 0
M  V30 3780 O 360.796 -0.964719 1.68543 0
M  V30 3781 C 357.926 -1.35203 3.19902 0
M  V30 3782 C 356.88 -0.782529 4.20786 0
M  V30 3783 C 356.206 -1.95283 4.97764 0
M  V30 3784 C 357.506 0.21999 5.21837 0
M  V30 3785 H 359.2 0.403355 2.96671 0
M  V30 3786 H 356.746 0.195425 1.42668 0
M  V30 3787 H 358.699 -1.90045 3.76113 0
M  V30 3788 H 357.423 -2.06598 2.52953 0
M  V30 3789 H 356.082 -0.255928 3.65706 0
M  V30 3790 H 355.73 -2.65423 4.2727 0
M  V30 3791 H 355.43 -1.57789 5.66018 0
M  V30 3792 H 356.954 -2.50577 5.56816 0
M  V30 3793 H 358.368 -0.23996 5.72798 0
M  V30 3794 H 356.765 0.51026 5.97927 0
M  V30 3795 H 357.835 1.13911 4.7133 0
M  V30 3796 N 359.178 -1.55987 0.224894 0
M  V30 3797 C 360.141 -2.19178 -0.670348 0
M  V30 3798 C 361.141 -1.15461 -1.11917 0
M  V30 3799 O 362.331 -1.40675 -1.02743 0
M  V30 3800 C 359.463 -2.81777 -1.9187 0
M  V30 3801 H 360.656 -2.99662 -0.119364 0
M  V30 3802 H 358.209 -1.5628 -0.0247128 0
M  V30 3803 H 358.944 -2.05172 -2.51147 0
M  V30 3804 H 358.729 -3.57732 -1.60531 0
M  V30 3805 H 360.219 -3.30205 -2.55645 0
M  V30 3806 N 360.656 0.0484629 -1.57525 0
M  V30 3807 C 361.619 1.03956 -2.04269 0
M  V30 3808 C 362.619 1.30211 -0.943496 0
M  V30 3809 O 363.809 1.25539 -1.20771 0
M  V30 3810 C 360.941 2.37742 -2.44319 0
M  V30 3811 H 362.134 0.636182 -2.93075 0
M  V30 3812 H 359.687 0.294811 -1.53494 0
M  V30 3813 H 360.422 2.82866 -1.5861 0
M  V30 3814 H 360.207 2.20021 -3.24551 0
M  V30 3815 H 361.697 3.08936 -2.80978 0
M  V30 3816 N 362.134 1.5431 0.320358 0
M  V30 3817 C 363.55 1.45091 0.664889 0
M  V30 3818 C 363.75 0.626382 1.91517 0
M  V30 3819 O 362.806 0.126443 2.52183 0
M  V30 3820 C 364.119 2.88848 0.83591 0
M  V30 3821 C 365.667 2.9877 0.933046 0
M  V30 3822 C 366.142 4.43683 1.13621 0
M  V30 3823 N 367.633 4.47309 1.20287 0
M  V30 3824 C 368.368 5.56595 1.37801 0
M  V30 3825 N 367.864 6.75844 1.52338 0
M  V30 3826 N 369.657 5.44248 1.40535 0
M  V30 3827 H 361.808 2.06398 -0.501374 0
M  V30 3828 H 364.071 0.933963 -0.162534 0
M  V30 3829 H 363.777 3.51698 -0.0116092 0
M  V30 3830 H 363.651 3.35148 1.73078 0
M  V30 3831 H 366.038 2.36045 1.77107 0
M  V30 3832 H 366.119 2.55796 0.0145782 0
M  V30 3833 H 365.763 5.06995 0.303032 0
M  V30 3834 H 365.693 4.84269 2.0686 0
M  V30 3835 H 368.184 3.61388 1.10485 0
M  V30 3836 H 368.497 7.54892 1.65403 0
M  V30 3837 H 366.842 6.78746 1.4943 0
M  V30 3838 H 370.033 4.50038 1.28777 0
M  V30 3839 H 370.206 6.29473 1.53842 0
M  V30 3840 N 363.613 -0.582584 1.46437 0
M  V30 3841 C 364.576 -1.67366 1.56592 0
M  V30 3842 C 365.576 -1.54575 0.443072 0
M  V30 3843 O 366.766 -1.59191 0.707381 0
M  V30 3844 C 363.898 -3.06791 1.48634 0
M  V30 3845 H 365.091 -1.5972 2.5383 0
M  V30 3846 H 362.644 -0.800432 1.34249 0
M  V30 3847 H 363.379 -3.19993 0.526763 0
M  V30 3848 H 363.164 -3.17484 2.30101 0
M  V30 3849 H 364.654 -3.86218 1.58826 0
M  V30 3850 N 365.091 -1.34144 -0.827227 0
M  V30 3851 C 366.339 -1.26009 -1.58007 0
M  V30 3852 C 366.66 0.170971 -1.94249 0
M  V30 3853 O 365.93 1.10256 -1.61927 0
M  V30 3854 H 364.51 -0.463414 -0.585881 0
M  V30 3855 H 367.172 -1.68005 -0.987951 0
M  V30 3856 H 366.268 -1.86187 -2.50481 0
M  V30 3857 N 366.569 1.04691 -1.17803 0
M  V30 3858 C 367.817 1.7743 -0.967617 0
M  V30 3859 C 368.138 1.88359 0.504574 0
M  V30 3860 O 367.408 1.40402 1.36617 0
M  V30 3861 H 365.988 0.657242 -0.355024 0
M  V30 3862 H 368.65 1.2638 -1.48371 0
M  V30 3863 H 367.746 2.78924 -1.40027 0
M  V30 3864 N 368.047 0.979072 1.23499 0
M  V30 3865 C 369.295 0.645941 1.91499 0
M  V30 3866 C 369.616 -0.822948 1.76784 0
M  V30 3867 O 368.886 -1.58854 1.14639 0
M  V30 3868 H 367.466 0.235919 0.708767 0
M  V30 3869 H 370.128 1.2426 1.50152 0
M  V30 3870 H 369.224 0.896411 2.9895 0
M  V30 3871 N 369.525 -1.3858 0.750561 0
M  V30 3872 C 370.773 -1.99789 0.30477 0
M  V30 3873 C 371.094 -1.59874 -1.11649 0
M  V30 3874 O 370.364 -0.85417 -1.76297 0
M  V30 3875 H 368.944 -0.738902 0.109694 0
M  V30 3876 H 371.606 -1.69391 0.963983 0
M  V30 3877 H 370.702 -3.09952 0.365499 0
M  V30 3878 N 371.003 -0.499398 -1.49478 0
M  V30 3879 C 372.251 0.0455996 -2.02049 0
M  V30 3880 C 372.572 1.37633 -1.38138 0
M  V30 3881 O 371.842 1.8842 -0.536166 0
M  V30 3882 H 370.422 0.0198416 -0.746736 0
M  V30 3883 H 373.084 -0.656274 -1.83519 0
M  V30 3884 H 372.18 0.176445 -3.11601 0
M  V30 3885 N 372.481 1.55866 -0.233164 0
M  V30 3886 C 373.729 1.9821 0.394593 0
M  V30 3887 C 374.05 1.12234 1.59463 0
M  V30 3888 O 373.32 0.201981 1.94856 0
M  V30 3889 H 371.9 0.732034 0.148778 0
M  V30 3890 H 374.562 1.92107 -0.32876 0
M  V30 3891 H 373.658 3.03845 0.713063 0
M  V30 3892 N 373.959 -0.0401083 1.57549 0
M  V30 3893 C 375.207 -0.731677 1.8839 0
M  V30 3894 C 375.528 -1.76481 0.829425 0
M  V30 3895 O 374.798 -1.95411 -0.1383 0
M  V30 3896 H 373.378 -0.273225 0.695239 0
M  V30 3897 H 376.04 -0.00867725 1.94898 0
M  V30 3898 H 375.136 -1.22816 2.86919 0
M  V30 3899 N 375.437 -1.54477 -0.31217 0
M  V30 3900 C 376.685 -1.72884 -1.04668 0
M  V30 3901 C 377.006 -0.511477 -1.88173 0
M  V30 3902 O 376.276 0.474407 -1.90069 0
M  V30 3903 H 374.856 -0.637461 -0.389425 0
M  V30 3904 H 377.518 -1.91807 -0.345852 0
M  V30 3905 H 376.614 -2.61334 -1.70619 0
M  V30 3906 N 376.915 0.57481 -1.46744 0
M  V30 3907 C 378.164 1.32898 -1.51727 0
M  V30 3908 C 378.477 1.948 -0.176692 0
M  V30 3909 O 379.683 2.71299 -0.104385 0
M  V30 3910 C 378.139 2.40901 -2.67385 0
M  V30 3911 C 377.747 1.85266 -4.07898 0
M  V30 3912 C 379.491 3.17609 -2.81646 0
M  V30 3913 C 377.398 2.90945 -5.14883 0
M  V30 3914 H 376.328 0.499631 -0.564699 0
M  V30 3915 H 378.979 0.612536 -1.72975 0
M  V30 3916 H 377.361 3.15379 -2.39483 0
M  V30 3917 H 378.535 1.17278 -4.45626 0
M  V30 3918 H 376.85 1.21199 -3.98371 0
M  V30 3919 H 379.447 3.96493 -3.58744 0
M  V30 3920 H 379.79 3.70696 -1.89448 0
M  V30 3921 H 380.323 2.50239 -3.09233 0
M  V30 3922 H 377.062 2.42736 -6.089 0
M  V30 3923 H 376.582 3.57398 -4.81691 0
M  V30 3924 H 378.261 3.54755 -5.41071 0
M  V30 3925 N 378.394 1.34581 0.820102 0
M  V30 3926 C 379.304 1.28471 1.96297 0
M  V30 3927 C 380.32 0.191902 1.72939 0
M  V30 3928 O 381.496 0.418879 1.96996 0
M  V30 3929 C 378.561 1.04281 3.30645 0
M  V30 3930 C 377.622 2.22745 3.66992 0
M  V30 3931 C 376.855 1.997 4.9493 0
M  V30 3932 O 377.078 0.956656 5.6232 0
M  V30 3933 O 376.012 2.86723 5.2922 0
M  V30 3934 H 379.838 2.24624 2.04396 0
M  V30 3935 H 377.423 1.14816 0.955913 0
M  V30 3936 H 379.305 0.925841 4.11104 0
M  V30 3937 H 377.98 0.111697 3.23507 0
M  V30 3938 H 376.887 2.40003 2.86966 0
M  V30 3939 H 378.22 3.14257 3.78819 0
M  V30 3940 N 379.872 -1.04064 1.18357 0
M  V30 3941 C 381.12 -1.76915 0.977013 0
M  V30 3942 C 381.441 -1.88624 -0.494577 0
M  V30 3943 O 380.711 -1.41125 -1.3587 0
M  V30 3944 H 379.291 -0.65535 0.358504 0
M  V30 3945 H 381.953 -1.25592 1.49039 0
M  V30 3946 H 381.049 -2.78178 1.41504 0
M  V30 3947 N 381.35 -0.985608 -1.22978 0
M  V30 3948 C 382.761 -0.693593 -1.73338 0
M  V30 3949 C 383.112 0.789935 -1.79595 0
M  V30 3950 O 382.237 1.61771 -1.43733 0
M  V30 3951 C 382.832 -1.25235 -3.14804 0
M  V30 3952 C 381.391 -1.00987 -3.626 0
M  V30 3953 C 380.538 -1.37695 -2.40698 0
M  V30 3954 H 383.489 -1.15884 -1.08428 0
M  V30 3955 H 383.51 -0.627329 -3.75293 0
M  V30 3956 H 383.022 -2.33209 -3.10218 0
M  V30 3957 H 381.123 0.0535565 -3.72562 0
M  V30 3958 H 381.236 -1.66812 -4.49122 0
M  V30 3959 H 379.6 -0.795459 -2.4196 0
M  V30 3960 H 380.383 -2.46657 -2.38779 0
M  V30 3961 N 382.828 1.3818 -0.7579 0
M  V30 3962 C 384.056 2.04301 -0.326937 0
M  V30 3963 C 384.471 1.57163 1.0462 0
M  V30 3964 O 383.828 0.746626 1.66529 0
M  V30 3965 C 383.879 3.59846 -0.345363 0
M  V30 3966 O 383.6 4.05256 -1.66432 0
M  V30 3967 C 385.101 4.4319 0.098927 0
M  V30 3968 H 382.321 0.656443 -0.139012 0
M  V30 3969 H 384.865 1.76786 -1.02796 0
M  V30 3970 H 383.02 3.86182 0.306955 0
M  V30 3971 H 383.434 4.99709 -1.59345 0
M  V30 3972 H 384.908 5.51989 0.0348745 0
M  V30 3973 H 385.385 4.23947 1.14741 0
M  V30 3974 H 385.991 4.22051 -0.52468 0
M  V30 3975 N 384.306 0.507319 1.49211 0
M  V30 3976 C 385.236 -0.256939 2.32082 0
M  V30 3977 C 386.217 -0.956609 1.40652 0
M  V30 3978 O 387.402 -0.946788 1.69557 0
M  V30 3979 C 384.532 -1.31802 3.21318 0
M  V30 3980 C 383.486 -0.737855 4.21592 0
M  V30 3981 C 382.812 -1.89992 4.99807 0
M  V30 3982 C 384.112 0.275325 5.21574 0
M  V30 3983 H 385.806 0.434798 2.96226 0
M  V30 3984 H 383.352 0.210546 1.42452 0
M  V30 3985 H 385.305 -1.86045 3.78107 0
M  V30 3986 H 384.029 -2.03903 2.5513 0
M  V30 3987 H 382.688 -0.217126 3.65956 0
M  V30 3988 H 382.336 -2.60877 4.30061 0
M  V30 3989 H 382.036 -1.51777 5.6766 0
M  V30 3990 H 383.56 -2.44657 5.59442 0
M  V30 3991 H 384.974 -0.179193 5.7302 0
M  V30 3992 H 383.371 0.573649 5.97352 0
M  V30 3993 H 384.441 1.18903 4.70096 0
M  V30 3994 N 385.784 -1.5574 0.241426 0
M  V30 3995 C 387.2 -1.59196 -0.113548 0
M  V30 3996 C 387.4 -1.25852 -1.57364 0
M  V30 3997 O 386.456 -1.00322 -2.31715 0
M  V30 3998 C 387.769 -2.99814 0.230695 0
M  V30 3999 C 389.317 -3.12513 0.174547 0
M  V30 4000 C 389.792 -4.55342 0.492744 0
M  V30 4001 N 391.283 -4.61076 0.443043 0
M  V30 4002 C 392.018 -5.6956 0.662484 0
M  V30 4003 N 391.514 -6.86328 0.944761 0
M  V30 4004 N 393.307 -5.58957 0.593564 0
M  V30 4005 H 385.458 -1.75685 1.19368 0
M  V30 4006 H 387.721 -0.81756 0.479896 0
M  V30 4007 H 387.427 -3.28932 1.24485 0
M  V30 4008 H 387.301 -3.74568 -0.444833 0
M  V30 4009 H 389.688 -2.83179 -0.830277 0
M  V30 4010 H 389.769 -2.40045 0.883845 0
M  V30 4011 H 389.413 -4.85396 1.4951 0
M  V30 4012 H 389.343 -5.26062 -0.23797 0
M  V30 4013 H 391.834 -3.77179 0.233374 0
M  V30 4014 H 392.147 -7.64935 1.09977 0
M  V30 4015 H 390.492 -6.88025 0.982175 0
M  V30 4016 H 393.683 -4.66611 0.373123 0
M  V30 4017 H 393.856 -6.43433 0.767981 0
M  V30 4018 N 387.262 0.0317525 -1.57568 0
M  V30 4019 C 388.194 1.06073 -2.03178 0
M  V30 4020 C 389.207 1.32627 -0.944132 0
M  V30 4021 O 390.396 1.30162 -1.22148 0
M  V30 4022 C 387.496 2.40297 -2.38978 0
M  V30 4023 C 386.669 2.33137 -3.70089 0
M  V30 4024 C 385.728 3.49787 -3.9311 0
M  V30 4025 O 384.754 3.29403 -4.64201 0
M  V30 4026 N 385.956 4.71562 -3.38541 0
M  V30 4027 H 388.721 0.672006 -2.92069 0
M  V30 4028 H 386.282 0.219745 -1.60402 0
M  V30 4029 H 388.274 3.1705 -2.51518 0
M  V30 4030 H 386.844 2.71024 -1.55771 0
M  V30 4031 H 386.064 1.415 -3.67928 0
M  V30 4032 H 387.352 2.25493 -4.56104 0
M  V30 4033 H 386.75 4.91024 -2.80912 0
M  V30 4034 H 385.307 5.45689 -3.56464 0
M  V30 4035 N 388.74 1.54641 0.303973 0
M  V30 4036 C 389.986 1.74969 1.03718 0
M  V30 4037 C 390.341 0.527461 1.85029 0
M  V30 4038 O 389.634 -0.480143 1.85486 0
M  V30 4039 C 389.828 2.97753 1.97681 0
M  V30 4040 C 389.657 4.318 1.25613 0
M  V30 4041 C 388.427 4.95616 0.984518 0
M  V30 4042 C 390.625 5.10021 0.662081 0
M  V30 4043 N 388.607 6.13455 0.233794 0
M  V30 4044 C 389.978 6.19984 0.0439736 0
M  V30 4045 C 392.033 4.94663 0.566835 0
M  V30 4046 C 390.736 7.16264 -0.66016 0
M  V30 4047 C 392.762 5.91271 -0.123637 0
M  V30 4048 C 392.124 7.00601 -0.730608 0
M  V30 4049 H 388.223 0.692873 0.362562 0
M  V30 4050 H 390.807 1.92116 0.316135 0
M  V30 4051 H 388.978 2.82036 2.6704 0
M  V30 4052 H 390.71 3.06621 2.64132 0
M  V30 4053 H 387.465 4.55921 1.28191 0
M  V30 4054 H 387.889 6.76879 -0.127996 0
M  V30 4055 H 392.531 4.10267 1.02181 0
M  V30 4056 H 390.249 8.00204 -1.12691 0
M  V30 4057 H 393.835 5.81466 -0.197236 0
M  V30 4058 H 392.715 7.7407 -1.2564 0
M  V30 4059 N 390.218 -0.567019 1.47046 0
M  V30 4060 C 391.148 -1.68482 1.61667 0
M  V30 4061 C 392.129 -1.6358 0.466418 0
M  V30 4062 O 393.314 -1.81354 0.694574 0
M  V30 4063 C 390.444 -3.07124 1.62148 0
M  V30 4064 C 389.398 -3.26867 2.76301 0
M  V30 4065 C 388.724 -4.66196 2.61849 0
M  V30 4066 C 390.024 -3.13186 4.17986 0
M  V30 4067 H 391.718 -1.56502 2.5524 0
M  V30 4068 H 389.264 -0.751486 1.22836 0
M  V30 4069 H 391.217 -3.8516 1.70968 0
M  V30 4070 H 389.941 -3.2004 0.651287 0
M  V30 4071 H 388.6 -2.51237 2.66975 0
M  V30 4072 H 388.248 -4.75898 1.62879 0
M  V30 4073 H 387.948 -4.80356 3.38425 0
M  V30 4074 H 389.472 -5.46379 2.72584 0
M  V30 4075 H 390.886 -3.81049 4.2834 0
M  V30 4076 H 389.283 -3.3886 4.95272 0
M  V30 4077 H 390.353 -2.10057 4.3704 0
M  V30 4078 N 391.696 -1.35014 -0.812953 0
M  V30 4079 C 392.659 -1.27292 -1.90602 0
M  V30 4080 C 393.659 -0.185817 -1.59723 0
M  V30 4081 O 394.849 -0.439102 -1.68575 0
M  V30 4082 C 391.981 -0.967676 -3.26877 0
M  V30 4083 H 393.174 -2.24479 -1.9887 0
M  V30 4084 H 390.727 -1.19446 -1.00808 0
M  V30 4085 H 391.462 0.0005954 -3.243 0
M  V30 4086 H 391.247 -1.75412 -3.50675 0
M  V30 4087 H 392.737 -0.939085 -4.06904 0
M  V30 4088 N 393.175 1.03435 -1.18907 0
M  V30 4089 C 394.138 2.09756 -0.923844 0
M  V30 4090 C 395.138 1.60528 0.093416 0
M  V30 4091 O 396.328 1.73631 -0.140727 0
M  V30 4092 C 393.46 3.38692 -0.387354 0
M  V30 4093 H 394.653 2.34719 -1.86674 0
M  V30 4094 H 392.206 1.19959 -1.00197 0
M  V30 4095 H 392.941 3.19396 0.561845 0
M  V30 4096 H 392.726 3.75742 -1.12074 0
M  V30 4097 H 394.216 4.17016 -0.220694 0
M  V30 4098 N 394.653 0.992116 1.22453 0
M  V30 4099 C 396.069 0.702713 1.43297 0
M  V30 4100 C 396.269 -0.726909 1.87932 0
M  V30 4101 O 395.325 -1.49792 2.0327 0
M  V30 4102 C 396.638 1.70762 2.47509 0
M  V30 4103 C 398.186 1.72298 2.61309 0
M  V30 4104 C 398.661 2.71649 3.68742 0
M  V30 4105 N 400.152 2.70239 3.76199 0
M  V30 4106 C 400.887 3.43778 4.58917 0
M  V30 4107 N 400.383 4.26914 5.45633 0
M  V30 4108 N 402.176 3.32487 4.5322 0
M  V30 4109 H 394.327 1.91543 0.917871 0
M  V30 4110 H 396.59 0.826031 0.465162 0
M  V30 4111 H 396.296 2.73059 2.21657 0
M  V30 4112 H 396.17 1.49985 3.46099 0
M  V30 4113 H 398.557 0.706989 2.86506 0
M  V30 4114 H 398.638 1.97143 1.62997 0
M  V30 4115 H 398.282 3.73397 3.44292 0
M  V30 4116 H 398.212 2.44074 4.66622 0
M  V30 4117 H 400.703 2.09912 3.14237 0
M  V30 4118 H 401.016 4.79855 6.05771 0
M  V30 4119 H 399.361 4.31002 5.45218 0
M  V30 4120 H 402.552 2.6698 3.84499 0
M  V30 4121 H 402.725 3.90058 5.17454 0
M  V30 4122 N 396.131 -1.37776 0.765217 0
M  V30 4123 C 397.094 -2.28686 0.153416 0
M  V30 4124 C 398.094 -1.47727 -0.635081 0
M  V30 4125 O 399.284 -1.68027 -0.459632 0
M  V30 4126 C 396.416 -3.31608 -0.790495 0
M  V30 4127 H 397.609 -2.84297 0.954723 0
M  V30 4128 H 395.162 -1.46932 0.53299 0
M  V30 4129 H 395.897 -2.81109 -1.61705 0
M  V30 4130 H 395.682 -3.9144 -0.227348 0
M  V30 4131 H 397.172 -3.99559 -1.21419 0
M  V30 4132 O 397.648 -0.656736 -1.47544 0
M  V30 4133 H 398.339 -0.183317 -1.92831 0
M  V30 END ATOM
M  V30 BEGIN BOND
M  V30 END BOND
M  V30 END CTAB
M  END
$$$$
