drugbank_drug|DB05996 Heavy chain
 OpenBabel12092119133D

  0  0  0     0  0            999 V3000
M  V30 BEGIN CTAB
M  V30 COUNTS 6821 6922 0 0 0
M  V30 BEGIN ATOM
M  V30 1 H -0.908 1.98254 -0.117106 0
M  V30 2 N 0 1.576 0 0
M  V30 3 C 0.932 2.05273 1.01958 0
M  V30 4 C 1.945 0.970662 1.30698 0
M  V30 5 O 3.134 1.24746 1.27674 0
M  V30 6 C 0.234 2.43771 2.35433 0
M  V30 7 C -0.593 3.74711 2.25633 0
M  V30 8 C -1.534 4.00077 3.41796 0
M  V30 9 O -2.508 4.70743 3.19984 0
M  V30 10 N -1.306 3.47973 4.64645 0
M  V30 11 H 1.459 2.93363 0.613025 0
M  V30 12 H -0.98 1.60812 0.187383 0
M  V30 13 H 1.012 2.57855 3.11918 0
M  V30 14 H -0.418 1.612 2.67831 0
M  V30 15 H -1.198 3.70705 1.34059 0
M  V30 16 H 0.09 4.60554 2.16258 0
M  V30 17 H -0.512 2.90748 4.85265 0
M  V30 18 H -1.955 3.67386 5.38396 0
M  V30 19 N 1.4781 -0.272755 1.55222 0
M  V30 20 C 2.7241 -1.00581 1.761 0
M  V30 21 C 3.0571 -1.85932 0.560625 0
M  V30 22 O 2.3321 -1.89416 -0.441801 0
M  V30 23 C 2.6151 -1.88816 3.06628 0
M  V30 24 C 2.4681 -1.06457 4.37021 0
M  V30 25 C 3.7871 -2.8752 3.33197 0
M  V30 26 H 0.9061 -0.364244 0.640699 0
M  V30 27 H 3.5481 -0.278189 1.87952 0
M  V30 28 H 1.6981 -2.50856 2.96654 0
M  V30 29 H 3.3701 -0.464863 4.58952 0
M  V30 30 H 1.6131 -0.368043 4.32236 0
M  V30 31 H 2.2841 -1.71514 5.24678 0
M  V30 32 H 4.7601 -2.35615 3.42965 0
M  V30 33 H 3.6361 -3.46399 4.25792 0
M  V30 34 H 3.8971 -3.62657 2.52849 0
M  V30 35 N 2.9562 -1.48159 -0.537278 0
M  V30 36 C 3.8882 -1.58218 -1.65831 0
M  V30 37 C 4.9012 -0.466948 -1.5596 0
M  V30 38 O 6.0902 -0.73747 -1.62553 0
M  V30 39 C 3.1902 -1.48906 -3.04434 0
M  V30 40 C 2.3632 -2.75343 -3.3986 0
M  V30 41 C 1.4222 -2.59588 -4.57712 0
M  V30 42 O 0.4482 -3.33457 -4.61297 0
M  V30 43 N 1.6502 -1.68724 -5.55439 0
M  V30 44 H 4.4152 -2.54891 -1.57641 0
M  V30 45 H 1.9762 -1.4479 -0.724386 0
M  V30 46 H 3.9682 -1.36072 -3.81139 0
M  V30 47 H 2.5382 -0.602368 -3.06741 0
M  V30 48 H 1.7582 -3.02795 -2.52406 0
M  V30 49 H 3.0462 -3.5924 -3.60311 0
M  V30 50 H 2.4442 -1.07898 -5.55315 0
M  V30 51 H 1.0012 -1.61832 -6.3139 0
M  V30 52 N 4.4343 0.785586 -1.36625 0
M  V30 53 C 5.3643 1.91259 -1.33949 0
M  V30 54 C 6.3453 1.68795 -0.210325 0
M  V30 55 O 7.5303 1.89854 -0.408561 0
M  V30 56 C 4.6603 3.28339 -1.13186 0
M  V30 57 C 3.6143 3.65335 -2.22967 0
M  V30 58 C 2.9403 5.00806 -1.87342 0
M  V30 59 C 4.2403 3.7352 -3.65075 0
M  V30 60 H 5.9343 1.93755 -2.28253 0
M  V30 61 H 3.4803 0.930788 -1.09874 0
M  V30 62 H 5.4333 4.06804 -1.09948 0
M  V30 63 H 4.1573 3.2624 -0.153332 0
M  V30 64 H 2.8163 2.89169 -2.25337 0
M  V30 65 H 2.4643 4.95233 -0.880545 0
M  V30 66 H 2.1643 5.26529 -2.60846 0
M  V30 67 H 3.6883 5.81687 -1.85667 0
M  V30 68 H 5.1023 4.42168 -3.64911 0
M  V30 69 H 3.4993 4.10731 -4.37516 0
M  V30 70 H 4.5693 2.74527 -3.99703 0
M  V30 71 N 5.9124 1.20967 1.01018 0
M  V30 72 C 6.8444 0.922059 2.09835 0
M  V30 73 C 7.8574 -0.0927106 1.62536 0
M  V30 74 O 9.0464 0.139127 1.77957 0
M  V30 75 C 6.1464 0.362004 3.36961 0
M  V30 76 C 5.3194 1.42986 4.13369 0
M  V30 77 C 4.3784 0.879976 5.1879 0
M  V30 78 O 3.4044 1.56219 5.47343 0
M  V30 79 N 4.6064 -0.307396 5.79686 0
M  V30 80 H 7.3714 1.8588 2.35093 0
M  V30 81 H 4.9324 1.11422 1.1746 0
M  V30 82 H 6.9244 -0.0201474 4.04695 0
M  V30 83 H 5.4944 -0.479437 3.08902 0
M  V30 84 H 4.7144 1.98608 3.40512 0
M  V30 85 H 6.0024 2.14885 4.61196 0
M  V30 86 H 5.4004 -0.878796 5.58832 0
M  V30 87 H 3.9574 -0.631115 6.48737 0
M  V30 88 N 7.3905 -1.2043 1.01659 0
M  V30 89 C 8.3005 -2.2689 0.596484 0
M  V30 90 C 9.3165 -1.70107 -0.36599 0
M  V30 91 O 10.4925 -2.00117 -0.226942 0
M  V30 92 C 7.5575 -3.4665 -0.0586659 0
M  V30 93 C 6.6185 -4.18662 0.949751 0
M  V30 94 C 5.8515 -5.32705 0.32577 0
M  V30 95 O 6.0745 -5.63656 -0.874509 0
M  V30 96 O 5.0085 -5.92803 1.04249 0
M  V30 97 H 8.8345 -2.65041 1.4828 0
M  V30 98 H 6.4195 -1.27048 0.786082 0
M  V30 99 H 8.3015 -4.19256 -0.424564 0
M  V30 100 H 6.9765 -3.10375 -0.91918 0
M  V30 101 H 5.8835 -3.48229 1.36702 0
M  V30 102 H 7.2165 -4.58878 1.78023 0
M  V30 103 N 8.8686 -0.792821 -1.36206 0
M  V30 104 C 10.0936 -0.377701 -2.03932 0
M  V30 105 C 10.5186 0.998947 -1.59382 0
M  V30 106 O 9.8766 1.64421 -0.763903 0
M  V30 107 C 9.9246 -0.453635 -3.57735 0
M  V30 108 O 9.0286 0.538151 -4.08874 0
M  V30 109 H 8.3696 -0.159855 -0.644471 0
M  V30 110 H 10.8996 -1.07488 -1.7409 0
M  V30 111 H 10.9096 -0.318464 -4.06755 0
M  V30 112 H 9.5846 -1.45784 -3.89512 0
M  V30 113 H 8.1616 0.364359 -3.71116 0
M  V30 114 N 10.3467 1.47872 -0.545128 0
M  V30 115 C 11.5947 2.02093 -0.016553 0
M  V30 116 C 11.9157 1.42305 1.3332 0
M  V30 117 O 11.1857 0.593853 1.86682 0
M  V30 118 H 9.7657 0.746993 -0.00313038 0
M  V30 119 H 12.4277 1.81414 -0.712397 0
M  V30 120 H 11.5237 3.11996 0.0805422 0
M  V30 121 N 11.8248 0.280983 1.55075 0
M  V30 122 C 13.2358 -0.215629 1.85451 0
M  V30 123 C 13.5868 -1.54991 1.203 0
M  V30 124 O 12.7118 -2.10699 0.493435 0
M  V30 125 C 13.3068 -0.398026 3.36454 0
M  V30 126 C 11.8658 -0.838866 3.66933 0
M  V30 127 C 11.0128 0.064458 2.77225 0
M  V30 128 H 13.9638 0.502601 1.50531 0
M  V30 129 H 13.9848 -1.23569 3.59876 0
M  V30 130 H 13.4968 0.573241 3.83843 0
M  V30 131 H 11.5978 -1.8214 3.25048 0
M  V30 132 H 11.7108 -0.672123 4.74362 0
M  V30 133 H 10.0748 -0.452863 2.50642 0
M  V30 134 H 10.8578 1.03172 3.2743 0
M  V30 135 N 13.3029 -1.57598 0.00835791 0
M  V30 136 C 14.5509 -1.90551 -0.6734 0
M  V30 137 C 14.8719 -0.883301 -1.73847 0
M  V30 138 O 14.1419 0.0781442 -1.95744 0
M  V30 139 H 12.7219 -0.703312 -0.251717 0
M  V30 140 H 15.3839 -1.94833 0.0512592 0
M  V30 141 H 14.4799 -2.9056 -1.13935 0
M  V30 142 N 14.781 0.264519 -1.55364 0
M  V30 143 C 15.711 1.33121 -1.91836 0
M  V30 144 C 16.692 1.51101 -0.781192 0
M  V30 145 O 17.877 1.64003 -1.04003 0
M  V30 146 C 15.007 2.68921 -2.19769 0
M  V30 147 C 13.961 2.65661 -3.35571 0
M  V30 148 C 13.287 4.05093 -3.49004 0
M  V30 149 C 14.587 2.24187 -4.71739 0
M  V30 150 H 16.281 1.02844 -2.81182 0
M  V30 151 H 13.827 0.493286 -1.35287 0
M  V30 152 H 15.78 3.43663 -2.43872 0
M  V30 153 H 14.504 3.00799 -1.27231 0
M  V30 154 H 13.163 1.93377 -3.1145 0
M  V30 155 H 12.811 4.34206 -2.53917 0
M  V30 156 H 12.511 4.03804 -4.26868 0
M  V30 157 H 14.035 4.81561 -3.75408 0
M  V30 158 H 15.449 2.88654 -4.9533 0
M  V30 159 H 13.846 2.34044 -5.52579 0
M  V30 160 H 14.916 1.19327 -4.69988 0
M  V30 161 N 16.2591 1.48442 0.529413 0
M  V30 162 C 17.5051 1.5672 1.28711 0
M  V30 163 C 17.8381 0.2406 1.92704 0
M  V30 164 O 17.1131 -0.753454 1.79313 0
M  V30 165 C 17.3961 2.70587 2.37603 0
M  V30 166 C 17.2491 4.12953 1.78297 0
M  V30 167 C 18.5681 2.80212 3.39366 0
M  V30 168 H 15.6871 0.570474 0.466613 0
M  V30 169 H 18.3291 1.80617 0.589706 0
M  V30 170 H 16.4791 2.50342 2.97088 0
M  V30 171 H 18.1511 4.44639 1.22858 0
M  V30 172 H 16.3941 4.19927 1.0883 0
M  V30 173 H 17.0651 4.88448 2.57144 0
M  V30 174 H 19.5411 2.98553 2.89836 0
M  V30 175 H 18.4171 3.61611 4.12951 0
M  V30 176 H 18.6781 1.88393 3.99951 0
M  V30 177 N 17.7372 -0.778329 1.37039 0
M  V30 178 C 18.6842 -1.89139 1.32269 0
M  V30 179 C 19.6542 -1.65017 0.189387 0
M  V30 180 O 20.8392 -1.87024 0.377693 0
M  V30 181 C 17.9792 -3.26112 1.12894 0
M  V30 182 C 17.0922 -3.62233 2.35396 0
M  V30 183 C 16.2272 -4.8838 2.08946 0
M  V30 184 C 15.2662 -5.17212 3.2735 0
M  V30 185 N 14.4032 -6.34546 3.00492 0
M  V30 186 H 19.2432 -1.92552 2.27437 0
M  V30 187 H 16.7802 -0.941473 1.13025 0
M  V30 188 H 18.7382 -4.05116 0.996835 0
M  V30 189 H 17.3682 -3.22091 0.213758 0
M  V30 190 H 16.4202 -2.78265 2.5937 0
M  V30 191 H 17.7322 -3.79481 3.23721 0
M  V30 192 H 16.8862 -5.75274 1.92729 0
M  V30 193 H 15.6252 -4.73222 1.17949 0
M  V30 194 H 14.6302 -4.28796 3.44113 0
M  V30 195 H 15.8552 -5.34283 4.19188 0
M  V30 196 H 13.8012 -6.20759 2.12118 0
M  V30 197 H 13.7182 -6.52179 3.82358 0
M  V30 198 H 14.9862 -7.24394 2.87879 0
M  V30 199 N 19.2153 -1.21501 -1.00376 0
M  V30 200 C 20.6263 -1.03146 -1.55621 0
M  V30 201 C 20.9773 0.408375 -1.91903 0
M  V30 202 O 20.1023 1.29177 -1.73616 0
M  V30 203 C 20.6973 -1.86612 -2.82775 0
M  V30 204 C 19.2563 -1.72586 -3.34501 0
M  V30 205 C 18.4033 -1.83747 -2.07683 0
M  V30 206 H 21.3543 -1.35505 -0.826081 0
M  V30 207 H 21.3753 -1.3771 -3.54706 0
M  V30 208 H 20.8873 -2.91399 -2.56336 0
M  V30 209 H 18.9883 -0.704877 -3.65872 0
M  V30 210 H 19.1013 -2.54623 -4.05837 0
M  V30 211 H 17.4653 -1.27069 -2.20739 0
M  V30 212 H 18.2483 -2.90044 -1.83655 0
M  V30 213 N 20.6934 1.19889 -1.02296 0
M  V30 214 C 21.9184 1.9393 -0.735237 0
M  V30 215 C 22.3434 1.74639 0.698782 0
M  V30 216 O 21.7014 1.04481 1.48167 0
M  V30 217 C 21.7494 3.43916 -1.08417 0
M  V30 218 O 20.8534 4.11917 -0.199446 0
M  V30 219 H 20.1944 0.605645 -0.272196 0
M  V30 220 H 22.7244 1.52137 -1.36804 0
M  V30 221 H 22.7344 3.9456 -1.03856 0
M  V30 222 H 21.4094 3.5728 -2.12894 0
M  V30 223 H 19.9864 3.71666 -0.303136 0
M  V30 224 N 22.1715 0.800033 1.35784 0
M  V30 225 C 23.1035 0.163596 2.28615 0
M  V30 226 C 24.1165 -0.633317 1.49976 0
M  V30 227 O 25.3055 -0.466754 1.72289 0
M  V30 228 C 22.4055 -0.790958 3.29541 0
M  V30 229 C 21.5785 -0.0418255 4.3738 0
M  V30 230 C 20.6375 -0.91389 5.18203 0
M  V30 231 O 19.6635 -0.367234 5.68014 0
M  V30 232 N 20.8655 -2.23682 5.35674 0
M  V30 233 H 23.6305 0.96105 2.83873 0
M  V30 234 H 21.1915 0.654894 1.48063 0
M  V30 235 H 23.1835 -1.37844 3.80501 0
M  V30 236 H 21.7535 -1.48925 2.74846 0
M  V30 237 H 20.9735 0.726813 3.87442 0
M  V30 238 H 22.2615 0.474719 5.06581 0
M  V30 239 H 21.6595 -2.70497 4.96838 0
M  V30 240 H 20.2165 -2.77369 5.89839 0
M  V30 241 N 23.6496 -1.47581 0.552962 0
M  V30 242 C 24.8776 -2.06875 0.0320556 0
M  V30 243 C 25.2926 -1.40625 -1.25976 0
M  V30 244 O 24.6496 -0.501349 -1.75479 0
M  V30 245 C 24.7006 -3.61092 -0.17167 0
M  V30 246 O 24.4216 -4.24858 1.06899 0
M  V30 247 C 25.9226 -4.37242 -0.730344 0
M  V30 248 H 23.1426 -0.669561 0.043915 0
M  V30 249 H 25.6866 -1.89646 0.765163 0
M  V30 250 H 23.8416 -3.7785 -0.854894 0
M  V30 251 H 24.2556 -5.17334 0.864059 0
M  V30 252 H 25.7296 -5.45842 -0.822203 0
M  V30 253 H 26.2066 -4.03235 -1.74064 0
M  V30 254 H 26.8126 -4.25219 -0.0829543 0
M  V30 255 N 25.1277 -0.289203 -1.54924 0
M  V30 256 C 26.0577 0.58549 -2.2604 0
M  V30 257 C 27.0387 1.14753 -1.25562 0
M  V30 258 O 28.2237 1.17906 -1.54311 0
M  V30 259 C 25.3537 1.76305 -2.99222 0
M  V30 260 C 24.3077 1.33191 -4.06748 0
M  V30 261 C 23.6337 2.5937 -4.6758 0
M  V30 262 C 24.9337 0.471775 -5.20165 0
M  V30 263 H 26.6277 -0.00763532 -2.99399 0
M  V30 264 H 24.1737 -0.00511229 -1.43999 0
M  V30 265 H 26.1267 2.38097 -3.47689 0
M  V30 266 H 24.8507 2.38223 -2.23422 0
M  V30 267 H 23.5097 0.737121 -3.59113 0
M  V30 268 H 23.1577 3.19576 -3.88433 0
M  V30 269 H 22.8577 2.31228 -5.40192 0
M  V30 270 H 24.3817 3.21985 -5.18804 0
M  V30 271 H 25.7957 0.995056 -5.64599 0
M  V30 272 H 24.1927 0.284639 -5.99425 0
M  V30 273 H 25.2627 -0.506041 -4.82252 0
M  V30 274 N 26.6058 1.57591 -0.0167156 0
M  V30 275 C 27.8308 1.9598 0.67872 0
M  V30 276 C 28.2558 0.892546 1.65575 0
M  V30 277 O 27.6138 -0.147772 1.80697 0
M  V30 278 C 27.6618 3.33468 1.37227 0
M  V30 279 O 26.7658 3.28954 2.48722 0
M  V30 280 H 26.1068 0.639339 0.17928 0
M  V30 281 H 28.6368 2.04463 -0.0748802 0
M  V30 282 H 28.6468 3.69417 1.7319 0
M  V30 283 H 27.3218 4.10694 0.656007 0
M  V30 284 H 25.8988 3.04705 2.14963 0
M  V30 285 N 28.0839 -0.256276 1.55502 0
M  V30 286 C 29.0139 -1.32102 1.92539 0
M  V30 287 C 29.9949 -1.50684 0.789194 0
M  V30 288 O 31.1799 -1.63449 1.04872 0
M  V30 289 C 28.3099 -2.67752 2.21192 0
M  V30 290 C 27.2639 -2.63878 3.36975 0
M  V30 291 C 26.5899 -4.03236 3.51147 0
M  V30 292 C 27.8899 -2.21682 4.72921 0
M  V30 293 H 29.5839 -1.01351 2.81724 0
M  V30 294 H 27.1299 -0.486105 1.35547 0
M  V30 295 H 29.0829 -3.42365 2.45691 0
M  V30 296 H 27.8069 -3.0012 1.28824 0
M  V30 297 H 26.4659 -1.91722 3.12471 0
M  V30 298 H 26.1139 -4.32854 2.56216 0
M  V30 299 H 25.8139 -4.01535 4.29003 0
M  V30 300 H 27.3379 -4.79563 3.77957 0
M  V30 301 H 28.7519 -2.86023 4.96854 0
M  V30 302 H 27.1489 -2.3111 5.53812 0
M  V30 303 H 28.2189 -1.16833 4.70615 0
M  V30 304 N 29.562 -1.4872 -0.521534 0
M  V30 305 C 30.79 -1.60843 -1.30142 0
M  V30 306 C 31.205 -0.271897 -1.86832 0
M  V30 307 O 30.562 0.739969 -1.66825 0
M  V30 308 C 30.613 -2.66155 -2.4463 0
M  V30 309 O 30.334 -3.94623 -1.90275 0
M  V30 310 C 31.835 -2.88795 -3.36322 0
M  V30 311 H 29.055 -0.542075 -0.395468 0
M  V30 312 H 31.599 -1.94609 -0.628285 0
M  V30 313 H 29.754 -2.35224 -3.07812 0
M  V30 314 H 30.168 -4.52468 -2.65279 0
M  V30 315 H 31.642 -3.66264 -4.12983 0
M  V30 316 H 32.119 -1.97934 -3.9207 0
M  V30 317 H 32.725 -3.21063 -2.78924 0
M  V30 318 N 31.0401 0.771051 -1.3745 0
M  V30 319 C 32.2801 1.54264 -1.34096 0
M  V30 320 C 32.6441 1.91858 0.0737639 0
M  V30 321 O 33.8451 2.67797 0.23203 0
M  V30 322 C 32.1161 2.77326 -2.25445 0
M  V30 323 S 33.6751 3.67383 -2.39948 0
M  V30 324 H 30.4931 0.528122 -0.476034 0
M  V30 325 H 33.0951 0.906633 -1.73206 0
M  V30 326 H 31.7991 2.47788 -3.27153 0
M  V30 327 H 31.3301 3.45886 -1.87421 0
M  V30 328 H 33.3451 4.69334 -1.61059 0
M  V30 329 N 32.5182 1.22032 0.997298 0
M  V30 330 C 33.7462 1.06841 1.7718 0
M  V30 331 C 34.1612 -0.381325 1.84909 0
M  V30 332 O 33.5182 -1.26437 1.31605 0
M  V30 333 C 33.5692 1.66814 3.20711 0
M  V30 334 O 33.2902 3.06116 3.13408 0
M  V30 335 C 34.7912 1.56838 4.14628 0
M  V30 336 H 32.0112 0.374782 0.556578 0
M  V30 337 H 34.5552 1.61532 1.2541 0
M  V30 338 H 32.7102 1.16196 3.69564 0
M  V30 339 H 33.1242 3.34926 4.0364 0
M  V30 340 H 34.5982 2.03532 5.13107 0
M  V30 341 H 35.0752 0.524155 4.36061 0
M  V30 342 H 35.6812 2.06741 3.7167 0
M  V30 343 N 33.9963 -1.19345 1.0293 0
M  V30 344 C 35.2423 -1.89318 0.727083 0
M  V30 345 C 35.5753 -1.79446 -0.742483 0
M  V30 346 O 34.8503 -1.1871 -1.54072 0
M  V30 347 C 35.1333 -3.40238 1.17942 0
M  V30 348 C 34.9863 -3.58979 2.71024 0
M  V30 349 C 36.3053 -4.33479 0.760548 0
M  V30 350 H 33.4243 -0.687475 0.265606 0
M  V30 351 H 36.0663 -1.40477 1.2793 0
M  V30 352 H 34.2163 -3.81964 0.709608 0
M  V30 353 H 35.8883 -3.26421 3.25955 0
M  V30 354 H 34.1313 -3.02018 3.11396 0
M  V30 355 H 34.8023 -4.64823 2.9773 0
M  V30 356 H 37.2783 -3.99469 1.16464 0
M  V30 357 H 36.1543 -5.37664 1.10493 0
M  V30 358 H 36.4153 -4.40813 -0.337063 0
M  V30 359 N 35.4744 -0.807222 -1.35358 0
M  V30 360 C 36.6994 -0.399309 -2.0352 0
M  V30 361 C 37.1244 0.981986 -1.60433 0
M  V30 362 O 36.4824 1.63601 -0.781299 0
M  V30 363 C 36.5304 -0.491552 -3.57234 0
M  V30 364 O 35.6344 0.494754 -4.09421 0
M  V30 365 H 34.9754 -0.166682 -0.642739 0
M  V30 366 H 37.5054 -1.09328 -1.72941 0
M  V30 367 H 37.5154 -0.361588 -4.06395 0
M  V30 368 H 36.1904 -1.49907 -3.87944 0
M  V30 369 H 34.7674 0.324977 -3.71481 0
M  V30 370 N 36.9525 1.47285 -0.560781 0
M  V30 371 C 38.2005 2.02064 -0.0379868 0
M  V30 372 C 38.5215 1.43711 1.31803 0
M  V30 373 O 37.7915 0.61362 1.86042 0
M  V30 374 H 36.3715 0.746918 -0.0110531 0
M  V30 375 H 39.0335 1.80648 -0.731598 0
M  V30 376 H 38.1295 3.12064 0.0474463 0
M  V30 377 N 38.4306 0.297415 1.54768 0
M  V30 378 C 39.6786 -0.312295 1.99673 0
M  V30 379 C 39.9996 -1.54686 1.18732 0
M  V30 380 O 39.2696 -1.93854 0.282382 0
M  V30 381 H 37.8496 -0.118381 0.73756 0
M  V30 382 H 40.5116 0.407915 1.90583 0
M  V30 383 H 39.6076 -0.586813 3.06534 0
M  V30 384 N 39.9087 -1.5758 0.0250728 0
M  V30 385 C 41.1337 -1.96337 -0.668317 0
M  V30 386 C 41.5587 -0.901314 -1.651 0
M  V30 387 O 40.9167 0.138187 -1.80773 0
M  V30 388 C 40.9647 -3.34191 -1.35457 0
M  V30 389 O 40.0687 -3.30269 -2.46974 0
M  V30 390 H 39.4097 -0.640281 -0.175887 0
M  V30 391 H 41.9397 -2.0442 0.0857224 0
M  V30 392 H 41.9497 -3.70331 -1.71228 0
M  V30 393 H 40.6247 -4.11036 -0.634218 0
M  V30 394 H 39.2017 -3.05841 -2.13344 0
M  V30 395 N 41.3868 0.248026 -1.55636 0
M  V30 396 C 42.6358 0.974134 -1.76617 0
M  V30 397 C 42.9488 1.86528 -0.588796 0
M  V30 398 O 44.1548 2.62805 -0.681594 0
M  V30 399 C 42.6108 1.78213 -3.12679 0
M  V30 400 C 42.2188 0.93843 -4.38061 0
M  V30 401 C 43.9628 2.50104 -3.42999 0
M  V30 402 C 41.8698 1.74225 -5.65155 0
M  V30 403 H 40.7998 0.36745 -0.658405 0
M  V30 404 H 43.4508 0.22884 -1.82067 0
M  V30 405 H 41.8328 2.56933 -3.01333 0
M  V30 406 H 43.0068 0.193635 -4.60393 0
M  V30 407 H 41.3218 0.332905 -4.15067 0
M  V30 408 H 43.9188 3.10694 -4.3517 0
M  V30 409 H 44.2618 3.21662 -2.64271 0
M  V30 410 H 44.7948 1.78395 -3.55556 0
M  V30 411 H 41.5338 1.07043 -6.46701 0
M  V30 412 H 41.0538 2.46235 -5.46926 0
M  V30 413 H 42.7328 2.30967 -6.0437 0
M  V30 414 N 42.8649 1.48995 0.513639 0
M  V30 415 C 44.0899 1.61792 1.29762 0
M  V30 416 C 44.5149 0.284475 1.85936 0
M  V30 417 O 43.8729 -0.746185 1.65232 0
M  V30 418 C 43.9209 2.67993 2.41272 0
M  V30 419 O 43.0249 2.26287 3.44772 0
M  V30 420 H 42.3659 0.541963 0.38363 0
M  V30 421 H 44.8959 1.95097 0.616307 0
M  V30 422 H 44.9059 2.89772 2.87221 0
M  V30 423 H 43.5809 3.64791 1.9975 0
M  V30 424 H 42.1579 2.14788 3.04829 0
M  V30 425 N 44.343 -0.763751 1.37857 0
M  V30 426 C 45.568 -1.55805 1.36893 0
M  V30 427 C 45.993 -1.88054 -0.0416135 0
M  V30 428 O 45.351 -1.49825 -1.02089 0
M  V30 429 C 45.399 -2.84012 2.22192 0
M  V30 430 O 44.503 -3.78732 1.63204 0
M  V30 431 H 43.844 -0.471638 0.46739 0
M  V30 432 H 46.374 -0.944657 1.81487 0
M  V30 433 H 46.384 -3.33037 2.35691 0
M  V30 434 H 45.059 -2.59869 3.24716 0
M  V30 435 H 43.636 -3.37402 1.58791 0
M  V30 436 N 45.8211 -1.22559 -0.990812 0
M  V30 437 C 47.0681 -1.05141 -1.73065 0
M  V30 438 C 47.3961 0.413191 -1.9006 0
M  V30 439 O 46.6511 1.32257 -1.44245 0
M  V30 440 C 46.9501 -1.71011 -3.13831 0
M  V30 441 C 46.6161 -3.20911 -3.16745 0
M  V30 442 C 45.2781 -3.61812 -3.17247 0
M  V30 443 C 47.6301 -4.16846 -3.12872 0
M  V30 444 C 44.9581 -4.97127 -3.1158 0
M  V30 445 C 47.3101 -5.5214 -3.08746 0
M  V30 446 C 45.9741 -5.92419 -3.07565 0
M  V30 447 H 45.2441 -0.384738 -0.633291 0
M  V30 448 H 47.8911 -1.5235 -1.16025 0
M  V30 449 H 46.1961 -1.16133 -3.74193 0
M  V30 450 H 47.8931 -1.55023 -3.69823 0
M  V30 451 H 44.4831 -2.88344 -3.17105 0
M  V30 452 H 48.6671 -3.86263 -3.11632 0
M  V30 453 H 43.9231 -5.27562 -3.09012 0
M  V30 454 H 48.0971 -6.26201 -3.04705 0
M  V30 455 H 45.7241 -6.97236 -3.02929 0
M  V30 456 N 47.2992 1.18797 -1.03562 0
M  V30 457 C 48.2472 2.24297 -0.615905 0
M  V30 458 C 49.2412 1.65643 0.354808 0
M  V30 459 O 50.4472 1.78618 0.22265 0
M  V30 460 H 46.8222 0.729909 -0.180934 0
M  V30 461 H 48.7932 2.5701 -1.5162 0
M  V30 462 C 47.5422 3.47698 0.0104735 0
M  V30 463 H 46.8652 3.93125 -0.727509 0
M  V30 464 H 48.3052 4.23159 0.266995 0
M  V30 465 C 46.7642 3.12489 1.25905 0
M  V30 466 O 47.2942 3.25761 2.35038 0
M  V30 467 N 45.5002 2.6686 1.15039 0
M  V30 468 H 45.0472 2.56261 0.262328 0
M  V30 469 H 45.0052 2.43674 1.98672 0
M  V30 470 N 48.7773 0.814389 1.34928 0
M  V30 471 C 50.0073 0.41054 2.0248 0
M  V30 472 C 50.4153 -0.985625 1.61499 0
M  V30 473 O 49.7583 -1.64781 0.811976 0
M  V30 474 C 49.8203 0.423384 3.56998 0
M  V30 475 C 49.4843 1.77141 4.21272 0
M  V30 476 C 50.4813 2.73093 4.42398 0
M  V30 477 C 48.1663 2.05755 4.58225 0
M  V30 478 C 50.1603 3.95838 4.9959 0
M  V30 479 C 47.8473 3.28762 5.1513 0
M  V30 480 C 48.8453 4.23621 5.35755 0
M  V30 481 O 48.5333 5.44456 5.91458 0
M  V30 482 H 48.2653 0.163997 0.655806 0
M  V30 483 H 50.8193 1.10155 1.73364 0
M  V30 484 H 49.0493 -0.324276 3.85338 0
M  V30 485 H 50.7383 0.0407683 4.0588 0
M  V30 486 H 51.5043 2.5228 4.14222 0
M  V30 487 H 47.3833 1.32727 4.4148 0
M  V30 488 H 50.9273 4.69891 5.15605 0
M  V30 489 H 46.8243 3.49443 5.42734 0
M  V30 490 H 47.5923 5.4586 6.09901 0
M  V30 491 N 50.2554 -1.46986 0.568584 0
M  V30 492 C 51.4854 -2.0653 0.0539173 0
M  V30 493 C 51.8934 -1.42004 -1.25026 0
M  V30 494 O 51.2364 -0.514541 -1.76347 0
M  V30 495 C 51.2984 -3.58938 -0.200854 0
M  V30 496 C 50.9624 -4.45572 1.01559 0
M  V30 497 C 51.9594 -4.82986 1.92407 0
M  V30 498 C 49.6444 -4.8692 1.23346 0
M  V30 499 C 51.6384 -5.60559 3.03402 0
M  V30 500 C 49.3254 -5.64255 2.34649 0
M  V30 501 C 50.3234 -6.00986 3.24507 0
M  V30 502 O 50.0114 -6.76761 4.33878 0
M  V30 503 H 49.7434 -0.674292 0.0480234 0
M  V30 504 H 52.2974 -1.89812 0.784896 0
M  V30 505 H 50.5274 -3.73911 -0.986279 0
M  V30 506 H 52.2164 -4.0046 -0.662294 0
M  V30 507 H 52.9824 -4.51633 1.76785 0
M  V30 508 H 48.8614 -4.57789 0.543178 0
M  V30 509 H 52.4054 -5.89147 3.73565 0
M  V30 510 H 48.3024 -5.95021 2.5024 0
M  V30 511 H 49.0704 -6.95168 4.32068 0
M  V30 512 N 51.7335 -0.305618 -1.54608 0
M  V30 513 C 52.9795 0.295595 -2.01241 0
M  V30 514 C 53.3345 1.51171 -1.19018 0
M  V30 515 O 52.6275 1.89832 -0.259684 0
M  V30 516 C 52.8215 0.698983 -3.50498 0
M  V30 517 C 52.6505 -0.476491 -4.47168 0
M  V30 518 C 51.4205 -0.969963 -4.95903 0
M  V30 519 C 53.6185 -1.32294 -4.96994 0
M  V30 520 N 51.6005 -2.11172 -5.76437 0
M  V30 521 C 52.9715 -2.31212 -5.75275 0
M  V30 522 C 55.0265 -1.35278 -4.7917 0
M  V30 523 C 53.7295 -3.32896 -6.37631 0
M  V30 524 C 55.7555 -2.35823 -5.42348 0
M  V30 525 C 55.1175 -3.33469 -6.20466 0
M  V30 526 H 51.2165 0.0724992 -0.778632 0
M  V30 527 H 53.8005 -0.436583 -1.89742 0
M  V30 528 H 51.9715 1.40032 -3.62278 0
M  V30 529 H 53.7035 1.28013 -3.8392 0
M  V30 530 H 50.4585 -0.544178 -4.70463 0
M  V30 531 H 50.8825 -2.68714 -6.21387 0
M  V30 532 H 55.5245 -0.61157 -4.18354 0
M  V30 533 H 53.2425 -4.07933 -6.97579 0
M  V30 534 H 56.8285 -2.38911 -5.30484 0
M  V30 535 H 55.7085 -4.09996 -6.68485 0
M  V30 536 N 53.2116 1.57565 -0.0334293 0
M  V30 537 C 54.4366 1.96689 0.657895 0
M  V30 538 C 54.8616 0.910057 1.64619 0
M  V30 539 O 54.2196 -0.128598 1.80843 0
M  V30 540 C 54.2676 3.34905 1.33683 0
M  V30 541 O 53.3716 3.31574 2.45219 0
M  V30 542 H 52.7126 0.641205 0.172489 0
M  V30 543 H 55.2426 2.04372 -0.0965621 0
M  V30 544 H 55.2526 3.71234 1.69262 0
M  V30 545 H 53.9276 4.11366 0.612411 0
M  V30 546 H 52.5046 3.06968 2.11719 0
M  V30 547 N 54.6897 -0.239769 1.55765 0
M  V30 548 C 55.9357 -0.963942 1.79108 0
M  V30 549 C 56.2907 -1.82689 0.60352 0
M  V30 550 O 55.5837 -1.87313 -0.403033 0
M  V30 551 C 55.7777 -1.852 3.05672 0
M  V30 552 C 55.6067 -1.07651 4.36625 0
M  V30 553 C 54.3767 -0.778738 4.99263 0
M  V30 554 C 56.5747 -0.45062 5.12322 0
M  V30 555 N 54.5567 0.0200708 6.13897 0
M  V30 556 C 55.9277 0.212429 6.19636 0
M  V30 557 C 57.9827 -0.361806 4.96584 0
M  V30 558 C 56.6857 0.955772 7.12922 0
M  V30 559 C 58.7117 0.368023 5.90254 0
M  V30 560 C 58.0737 1.01968 6.96981 0
M  V30 561 H 54.1727 -0.333601 0.707272 0
M  V30 562 H 56.7567 -0.236425 1.93259 0
M  V30 563 H 54.9277 -2.55149 2.92837 0
M  V30 564 H 56.6597 -2.51228 3.1728 0
M  V30 565 H 53.4147 -1.09229 4.60832 0
M  V30 566 H 53.8387 0.407777 6.75771 0
M  V30 567 H 58.4807 -0.851286 4.14141 0
M  V30 568 H 56.1987 1.45683 7.9486 0
M  V30 569 H 59.7847 0.437504 5.80153 0
M  V30 570 H 58.6647 1.5754 7.68213 0
M  V30 571 N 56.1678 -1.49265 -0.50573 0
M  V30 572 C 57.4168 -1.57761 -1.25675 0
M  V30 573 C 57.7298 -0.267371 -1.93764 0
M  V30 574 O 58.9358 -0.230827 -2.70517 0
M  V30 575 C 57.3918 -2.78332 -2.28165 0
M  V30 576 C 56.9998 -4.16096 -1.66037 0
M  V30 577 C 58.7438 -2.96155 -3.04125 0
M  V30 578 C 56.6508 -5.27895 -2.6661 0
M  V30 579 H 55.5808 -0.587391 -0.472745 0
M  V30 580 H 58.2318 -1.75644 -0.53118 0
M  V30 581 H 56.6138 -2.53934 -3.03865 0
M  V30 582 H 57.7878 -4.50612 -0.963622 0
M  V30 583 H 56.1028 -4.03591 -1.02484 0
M  V30 584 H 58.6998 -3.76849 -3.79327 0
M  V30 585 H 59.0428 -2.06534 -3.61455 0
M  V30 586 H 59.5758 -3.2057 -2.35541 0
M  V30 587 H 56.3148 -6.1956 -2.14068 0
M  V30 588 H 55.8348 -4.97839 -3.34539 0
M  V30 589 H 57.5138 -5.57031 -3.29129 0
M  V30 590 N 57.6459 0.756429 -1.3826 0
M  V30 591 C 59.0619 1.0591 -1.19395 0
M  V30 592 C 59.2619 2.01459 -0.0406567 0
M  V30 593 O 58.3179 2.44909 0.614467 0
M  V30 594 C 59.6309 1.64191 -2.51916 0
M  V30 595 C 61.1789 1.76376 -2.58574 0
M  V30 596 C 61.6539 2.38069 -3.91264 0
M  V30 597 N 63.1449 2.45503 -3.92788 0
M  V30 598 C 63.8799 2.94126 -4.92217 0
M  V30 599 N 63.3759 3.42805 -6.02043 0
M  V30 600 N 65.1689 2.9314 -4.7961 0
M  V30 601 H 57.3199 0.122313 -2.12048 0
M  V30 602 H 59.5829 0.116892 -0.940766 0
M  V30 603 H 59.2889 1.01451 -3.3675 0
M  V30 604 H 59.1629 2.6329 -2.70108 0
M  V30 605 H 61.5499 2.38244 -1.74137 0
M  V30 606 H 61.6309 0.759894 -2.44252 0
M  V30 607 H 61.2749 1.76835 -4.76121 0
M  V30 608 H 61.2049 3.39091 -4.02895 0
M  V30 609 H 63.6959 2.1107 -3.13461 0
M  V30 610 H 64.0089 3.78354 -6.73846 0
M  V30 611 H 62.3539 3.4087 -6.05667 0
M  V30 612 H 65.5449 2.54419 -3.92923 0
M  V30 613 H 65.7179 3.30721 -5.5725 0
M  V30 614 N 59.124 1.23083 0.984299 0
M  V30 615 C 60.074 0.975749 2.06066 0
M  V30 616 C 61.058 -0.0768251 1.60716 0
M  V30 617 O 62.25 0.134805 1.76486 0
M  V30 618 C 59.379 0.564673 3.38624 0
M  V30 619 C 58.465 1.65244 3.90583 0
M  V30 620 N 58.856 2.88193 4.15666 0
M  V30 621 C 57.154 1.52612 4.19077 0
M  V30 622 C 57.855 3.58593 4.58024 0
M  V30 623 N 56.831 2.86093 4.62225 0
M  V30 624 H 60.633 1.90957 2.23411 0
M  V30 625 H 58.147 1.12963 1.16675 0
M  V30 626 H 60.144 0.36322 4.15315 0
M  V30 627 H 58.804 -0.362147 3.22674 0
M  V30 628 H 59.815 3.24537 4.03604 0
M  V30 629 H 56.492 0.666121 4.12152 0
M  V30 630 H 57.882 4.63974 4.85982 0
M  V30 631 N 60.6021 -1.18246 1.0419 0
M  V30 632 C 61.5521 -2.19843 0.604392 0
M  V30 633 C 62.5361 -1.56962 -0.353814 0
M  V30 634 O 63.7281 -1.76156 -0.17267 0
M  V30 635 C 60.8571 -3.43287 -0.0298975 0
M  V30 636 C 59.9431 -4.13288 0.951531 0
M  V30 637 N 60.3341 -4.59271 2.11906 0
M  V30 638 C 58.6321 -4.39165 0.7778 0
M  V30 639 C 59.3331 -5.13173 2.73912 0
M  V30 640 N 58.3091 -5.04763 2.01779 0
M  V30 641 H 62.1111 -2.53089 1.4941 0
M  V30 642 H 59.6251 -1.34465 0.910658 0
M  V30 643 H 61.6221 -4.15334 -0.361037 0
M  V30 644 H 60.2821 -3.11537 -0.915127 0
M  V30 645 H 61.2931 -4.5368 2.49789 0
M  V30 646 H 57.9701 -4.17461 -0.0572331 0
M  V30 647 H 59.3601 -5.58947 3.72864 0
M  V30 648 N 62.0802 -0.821533 -1.34494 0
M  V30 649 C 63.4912 -0.467956 -1.8074 0
M  V30 650 C 63.8422 1.01151 -1.68116 0
M  V30 651 O 62.9672 1.78707 -1.22036 0
M  V30 652 C 63.5622 -0.842627 -3.28154 0
M  V30 653 C 62.1212 -0.541439 -3.72485 0
M  V30 654 C 61.2682 -1.06028 -2.56229 0
M  V30 655 H 64.2192 -1.01183 -1.22261 0
M  V30 656 H 64.2402 -0.145876 -3.8022 0
M  V30 657 H 63.7522 -1.91945 -3.37311 0
M  V30 658 H 61.8532 0.526034 -3.68868 0
M  V30 659 H 61.9662 -1.08453 -4.66663 0
M  V30 660 H 60.3302 -0.481892 -2.501 0
M  V30 661 H 61.1132 -2.14352 -2.68157 0
M  V30 662 N 63.5583 1.46682 -0.576371 0
M  V30 663 C 64.8063 2.02013 -0.0594163 0
M  V30 664 C 65.1273 1.45101 1.30271 0
M  V30 665 O 64.3973 0.633317 1.8538 0
M  V30 666 H 62.9773 0.746759 -0.0189745 0
M  V30 667 H 65.6393 1.79862 -0.750717 0
M  V30 668 H 64.7353 3.12097 0.014345 0
M  V30 669 N 65.0364 0.313813 1.54444 0
M  V30 670 C 65.9834 -0.55655 2.23989 0
M  V30 671 C 66.9534 -1.11943 1.22711 0
M  V30 672 O 68.1384 -1.16158 1.51367 0
M  V30 673 C 65.2784 -1.71635 2.99392 0
M  V30 674 C 64.3914 -1.18364 4.15468 0
M  V30 675 C 63.5264 -2.30834 4.78424 0
M  V30 676 C 62.5654 -1.74762 5.86622 0
M  V30 677 N 61.7024 -2.80855 6.43479 0
M  V30 678 H 66.5424 0.0430893 2.97969 0
M  V30 679 H 64.0794 0.0330359 1.47063 0
M  V30 680 H 66.0374 -2.39868 3.41349 0
M  V30 681 H 64.6674 -2.28742 2.27765 0
M  V30 682 H 63.7194 -0.393163 3.78363 0
M  V30 683 H 65.0314 -0.733262 4.93381 0
M  V30 684 H 64.1854 -3.0699 5.23299 0
M  V30 685 H 62.9244 -2.79204 3.99871 0
M  V30 686 H 61.9294 -0.970995 5.41158 0
M  V30 687 H 63.1544 -1.2728 6.67066 0
M  V30 688 H 61.1004 -3.28535 5.67804 0
M  V30 689 H 61.0174 -2.40351 7.16776 0
M  V30 690 H 62.2854 -3.5687 6.93011 0
M  V30 691 N 66.5145 -1.57545 0.0417849 0
M  V30 692 C 67.7625 -1.91937 -0.632829 0
M  V30 693 C 68.0835 -0.919978 -1.71934 0
M  V30 694 O 67.3535 0.0366064 -1.95866 0
M  V30 695 H 65.9335 -0.708493 -0.236742 0
M  V30 696 H 68.5955 -1.9468 0.0925745 0
M  V30 697 H 67.6915 -2.92912 -1.07746 0
M  V30 698 N 67.9926 0.231505 -1.5589 0
M  V30 699 C 68.9226 1.29022 -1.94617 0
M  V30 700 C 69.9036 1.4941 -0.813067 0
M  V30 701 O 71.0886 1.6176 -1.07459 0
M  V30 702 C 68.2186 2.64199 -2.25424 0
M  V30 703 C 67.1726 2.58484 -3.41131 0
M  V30 704 C 66.4986 3.97599 -3.57518 0
M  V30 705 C 67.7986 2.1413 -4.76388 0
M  V30 706 H 69.4926 0.968563 -2.83301 0
M  V30 707 H 67.0386 0.464479 -1.36303 0
M  V30 708 H 68.9916 3.38413 -2.51107 0
M  V30 709 H 67.7156 2.98032 -1.33583 0
M  V30 710 H 66.3746 1.86727 -3.15481 0
M  V30 711 H 66.0226 4.28723 -2.6307 0
M  V30 712 H 65.7226 3.94659 -4.35337 0
M  V30 713 H 67.2466 4.7349 -3.85538 0
M  V30 714 H 68.6606 2.78083 -5.01341 0
M  V30 715 H 67.0576 2.2227 -5.57419 0
M  V30 716 H 68.1276 1.09331 -4.72414 0
M  V30 717 N 69.4707 1.49531 0.497807 0
M  V30 718 C 70.3807 1.69176 1.62532 0
M  V30 719 C 71.3967 0.5744 1.64246 0
M  V30 720 O 72.5727 0.849497 1.82608 0
M  V30 721 C 69.6377 1.75695 2.98885 0
M  V30 722 C 68.6987 2.9929 3.07773 0
M  V30 723 C 67.9317 3.05488 4.37622 0
M  V30 724 O 68.1547 2.19192 5.26603 0
M  V30 725 O 67.0887 3.9798 4.51548 0
M  V30 726 H 70.9147 2.647 1.48887 0
M  V30 727 H 68.4997 1.3331 0.674441 0
M  V30 728 H 70.3817 1.82317 3.79919 0
M  V30 729 H 69.0567 0.8335 3.12785 0
M  V30 730 H 67.9637 2.98183 2.25915 0
M  V30 731 H 69.2967 3.91125 2.98801 0
M  V30 732 N 70.9488 -0.749086 1.3866 0
M  V30 733 C 72.1948 -1.50959 1.36319 0
M  V30 734 C 72.5498 -1.92347 -0.0452451 0
M  V30 735 O 71.8428 -1.6289 -1.00884 0
M  V30 736 C 72.0368 -2.7712 2.25697 0
M  V30 737 C 71.8658 -2.48067 3.7509 0
M  V30 738 C 70.6358 -2.41062 4.44091 0
M  V30 739 C 72.8338 -2.14544 4.67414 0
M  V30 740 N 70.8158 -2.04331 5.78897 0
M  V30 741 C 72.1868 -1.88141 5.90765 0
M  V30 742 C 74.2418 -2.00892 4.55573 0
M  V30 743 C 72.9448 -1.49463 7.036 0
M  V30 744 C 74.9708 -1.63616 5.68317 0
M  V30 745 C 74.3328 -1.38088 6.90732 0
M  V30 746 H 70.4318 -0.551804 0.554108 0
M  V30 747 H 73.0158 -0.871886 1.74087 0
M  V30 748 H 71.1868 -3.38693 1.9011 0
M  V30 749 H 72.9188 -3.4321 2.1445 0
M  V30 750 H 69.6738 -2.57685 3.9736 0
M  V30 751 H 70.0978 -1.88598 6.502 0
M  V30 752 H 74.7398 -2.19301 3.61479 0
M  V30 753 H 72.4578 -1.29794 7.97608 0
M  V30 754 H 76.0438 -1.53678 5.61137 0
M  V30 755 H 74.9238 -1.09674 7.76493 0
M  V30 756 N 72.4269 -1.23603 -0.977757 0
M  V30 757 C 73.6759 -1.06377 -1.71368 0
M  V30 758 C 73.9889 0.399062 -1.91486 0
M  V30 759 O 75.1949 0.691312 -2.62551 0
M  V30 760 C 73.6509 -1.85512 -3.08404 0
M  V30 761 C 73.2589 -3.36141 -2.96164 0
M  V30 762 C 75.0029 -1.76783 -3.85938 0
M  V30 763 C 72.9099 -4.07659 -4.28449 0
M  V30 764 H 71.8399 -0.394452 -0.642591 0
M  V30 765 H 74.4909 -1.47594 -1.09034 0
M  V30 766 H 72.8729 -1.37103 -3.71509 0
M  V30 767 H 74.0469 -3.92056 -2.42133 0
M  V30 768 H 72.3619 -3.45712 -2.32104 0
M  V30 769 H 74.9589 -2.27526 -4.83876 0
M  V30 770 H 75.3019 -0.731116 -4.0983 0
M  V30 771 H 75.8349 -2.22818 -3.2954 0
M  V30 772 H 72.5739 -5.11648 -4.09752 0
M  V30 773 H 72.0939 -3.5653 -4.82334 0
M  V30 774 H 73.7729 -4.141 -4.97122 0
M  V30 775 N 73.905 1.17692 -1.04816 0
M  V30 776 C 75.153 1.87488 -0.754497 0
M  V30 777 C 75.474 1.81205 0.720407 0
M  V30 778 O 74.744 1.23544 1.52032 0
M  V30 779 H 73.324 0.694101 -0.276102 0
M  V30 780 H 75.986 1.42793 -1.32651 0
M  V30 781 H 75.082 2.93328 -1.06606 0
M  V30 782 N 75.3831 0.828654 1.34056 0
M  V30 783 C 76.6131 0.431993 2.02033 0
M  V30 784 C 77.0211 -0.96844 1.62536 0
M  V30 785 O 76.3641 -1.6391 0.829408 0
M  V30 786 C 76.4261 0.461224 3.56529 0
M  V30 787 C 76.0901 1.81599 4.1937 0
M  V30 788 C 77.0871 2.7777 4.39477 0
M  V30 789 C 74.7721 2.10604 4.56017 0
M  V30 790 C 76.7661 4.01115 4.95364 0
M  V30 791 C 74.4531 3.34207 5.11614 0
M  V30 792 C 75.4511 4.2928 5.31232 0
M  V30 793 O 75.1391 5.50699 5.8565 0
M  V30 794 H 74.8711 0.170943 0.654029 0
M  V30 795 H 77.4251 1.11988 1.72185 0
M  V30 796 H 75.6551 -0.283388 3.8566 0
M  V30 797 H 77.3441 0.0838149 4.05813 0
M  V30 798 H 78.1101 2.56659 4.11523 0
M  V30 799 H 73.9891 1.37402 4.40047 0
M  V30 800 H 77.5331 4.75333 5.10592 0
M  V30 801 H 73.4301 3.55179 5.38997 0
M  V30 802 H 74.1981 5.52298 6.04077 0
M  V30 803 N 76.8612 -1.46375 0.584142 0
M  V30 804 C 78.1102 -2.01585 0.0679741 0
M  V30 805 C 78.4232 -1.46109 -1.30045 0
M  V30 806 O 79.6292 -1.93148 -1.90804 0
M  V30 807 C 78.0852 -3.5983 0.0709207 0
M  V30 808 C 77.6932 -4.24303 1.43775 0
M  V30 809 C 79.4372 -4.22693 -0.391228 0
M  V30 810 C 77.3442 -5.74631 1.39834 0
M  V30 811 H 76.2742 -0.753689 0.0216421 0
M  V30 812 H 78.9252 -1.68093 0.736001 0
M  V30 813 H 77.3072 -3.90405 -0.663299 0
M  V30 814 H 78.4812 -4.05335 2.19181 0
M  V30 815 H 76.7962 -3.73539 1.84004 0
M  V30 816 H 79.3932 -5.3289 -0.439524 0
M  V30 817 H 79.7362 -3.91728 -1.40906 0
M  V30 818 H 80.2692 -3.96749 0.288974 0
M  V30 819 H 77.0082 -6.10258 2.39303 0
M  V30 820 H 76.5282 -5.95858 0.686505 0
M  V30 821 H 78.2072 -6.37375 1.11187 0
M  V30 822 N 78.3393 -0.321999 -1.54275 0
M  V30 823 C 79.5693 0.282642 -2.04658 0
M  V30 824 C 79.9773 1.46453 -1.19784 0
M  V30 825 O 79.3203 1.82367 -0.220932 0
M  V30 826 C 79.3823 0.781857 -3.50895 0
M  V30 827 C 79.0463 -0.277517 -4.56157 0
M  V30 828 C 80.0433 -1.11307 -5.07845 0
M  V30 829 C 77.7283 -0.425256 -5.00497 0
M  V30 830 C 79.7223 -2.08211 -6.02434 0
M  V30 831 C 77.4093 -1.39771 -5.94901 0
M  V30 832 C 78.4073 -2.2246 -6.45756 0
M  V30 833 O 78.0953 -3.18054 -7.38307 0
M  V30 834 H 77.8273 0.0622636 -0.673126 0
M  V30 835 H 80.3813 -0.465792 -2.00049 0
M  V30 836 H 78.6113 1.58118 -3.52896 0
M  V30 837 H 80.3003 1.30467 -3.84361 0
M  V30 838 H 81.0663 -1.00991 -4.74369 0
M  V30 839 H 76.9453 0.20847 -4.60528 0
M  V30 840 H 80.4893 -2.72791 -6.42052 0
M  V30 841 H 76.3863 -1.50152 -6.27794 0
M  V30 842 H 77.1543 -3.13275 -7.56175 0
M  V30 843 N 79.8174 1.5752 -0.0501392 0
M  V30 844 C 81.0474 1.96678 0.632573 0
M  V30 845 C 81.4554 0.926298 1.64974 0
M  V30 846 O 80.7984 -0.09802 1.83438 0
M  V30 847 C 80.8604 3.32068 1.37735 0
M  V30 848 C 80.5244 4.54076 0.516131 0
M  V30 849 C 81.5214 5.19445 -0.217357 0
M  V30 850 C 79.2064 5.00304 0.44736 0
M  V30 851 C 81.2004 6.29378 -1.00807 0
M  V30 852 C 78.8874 6.10114 -0.347038 0
M  V30 853 C 79.8854 6.74512 -1.07344 0
M  V30 854 O 79.5734 7.82211 -1.85477 0
M  V30 855 H 79.3054 0.652193 0.177821 0
M  V30 856 H 81.8594 2.05091 -0.112543 0
M  V30 857 H 80.0894 3.20206 2.16807 0
M  V30 858 H 81.7784 3.55981 1.95019 0
M  V30 859 H 82.5444 4.84689 -0.173688 0
M  V30 860 H 78.4234 4.49971 1.00235 0
M  V30 861 H 81.9674 6.79575 -1.57556 0
M  V30 862 H 77.8644 6.44307 -0.392349 0
M  V30 863 H 78.6324 7.98982 -1.77678 0
M  V30 864 N 81.2955 -0.223234 1.56011 0
M  V30 865 C 82.5205 -0.968978 1.83373 0
M  V30 866 C 82.9455 -1.77227 0.630254 0
M  V30 867 O 82.3035 -1.76345 -0.420959 0
M  V30 868 C 82.3515 -1.86363 3.08709 0
M  V30 869 O 81.4555 -2.95873 2.87285 0
M  V30 870 H 80.7965 -0.274461 0.604622 0
M  V30 871 H 83.3265 -0.237056 2.03222 0
M  V30 872 H 83.3365 -2.27376 3.38768 0
M  V30 873 H 82.0115 -1.27319 3.95933 0
M  V30 874 H 80.5885 -2.58818 2.68454 0
M  V30 875 N 82.7736 -1.49793 -0.48987 0
M  V30 876 C 84.0216 -1.59525 -1.24081 0
M  V30 877 C 84.3426 -0.288953 -1.92847 0
M  V30 878 O 83.6126 0.692436 -1.83254 0
M  V30 879 H 82.1926 -0.587796 -0.460983 0
M  V30 880 H 84.8546 -1.86477 -0.566778 0
M  V30 881 H 83.9506 -2.39696 -1.99881 0
M  V30 882 N 84.2517 0.741722 -1.39055 0
M  V30 883 C 85.4767 1.53607 -1.39354 0
M  V30 884 C 85.9017 1.88096 0.0116905 0
M  V30 885 O 85.2597 1.5143 0.996924 0
M  V30 886 C 85.3077 2.80441 -2.26682 0
M  V30 887 O 84.4117 3.76088 -1.69208 0
M  V30 888 H 83.7527 0.464142 -0.474835 0
M  V30 889 H 86.2827 0.915665 -1.82967 0
M  V30 890 H 86.2927 3.29246 -2.40959 0
M  V30 891 H 84.9677 2.5467 -3.2881 0
M  V30 892 H 83.5447 3.34833 -1.64138 0
M  V30 893 N 85.7298 1.2412 0.971189 0
M  V30 894 C 86.9578 1.10575 1.74874 0
M  V30 895 C 87.3728 -0.342017 1.85676 0
M  V30 896 O 86.7298 -1.23617 1.34258 0
M  V30 897 C 86.7808 1.73579 3.171 0
M  V30 898 O 86.5018 3.12695 3.06844 0
M  V30 899 C 88.0028 1.65598 4.11208 0
M  V30 900 H 85.2228 0.386504 0.548503 0
M  V30 901 H 87.7668 1.64156 1.21955 0
M  V30 902 H 85.9218 1.24009 3.67016 0
M  V30 903 H 86.3358 3.43412 3.96445 0
M  V30 904 H 87.8098 2.1437 5.08674 0
M  V30 905 H 88.2868 0.616532 4.34851 0
M  V30 906 H 88.8928 2.14578 3.67201 0
M  V30 907 N 87.2079 -1.17134 1.05439 0
M  V30 908 C 88.4379 -1.91094 0.785274 0
M  V30 909 C 88.8459 -1.77198 -0.663142 0
M  V30 910 O 88.1889 -1.10835 -1.46497 0
M  V30 911 C 88.2509 -3.42594 1.08949 0
M  V30 912 C 87.9149 -3.80274 2.53458 0
M  V30 913 C 88.9119 -3.82912 3.51673 0
M  V30 914 C 86.5969 -4.11162 2.88532 0
M  V30 915 C 88.5909 -4.15913 4.83006 0
M  V30 916 C 86.2779 -4.43831 4.20068 0
M  V30 917 C 87.2759 -4.46185 5.17115 0
M  V30 918 O 86.9639 -4.78083 6.46291 0
M  V30 919 H 86.6959 -0.613073 0.284811 0
M  V30 920 H 89.2499 -1.49461 1.40893 0
M  V30 921 H 87.4799 -3.84534 0.408741 0
M  V30 922 H 89.1689 -3.97817 0.805991 0
M  V30 923 H 89.9349 -3.5917 3.25917 0
M  V30 924 H 85.8139 -4.085 2.13656 0
M  V30 925 H 89.3579 -4.17665 5.5875 0
M  V30 926 H 85.2549 -4.67037 4.45586 0
M  V30 927 H 86.0229 -4.9593 6.51149 0
M  V30 928 N 88.686 -0.835752 -1.33615 0
M  V30 929 C 89.911 -0.442389 -2.02627 0
M  V30 930 C 90.336 0.947735 -1.62479 0
M  V30 931 O 89.694 1.61907 -0.815826 0
M  V30 932 C 89.742 -0.567216 -3.56111 0
M  V30 933 O 88.846 0.407799 -4.10379 0
M  V30 934 H 88.187 -0.180278 -0.639059 0
M  V30 935 H 90.717 -1.12972 -1.70583 0
M  V30 936 H 90.727 -0.447708 -4.05536 0
M  V30 937 H 89.402 -1.58103 -3.84677 0
M  V30 938 H 87.979 0.246107 -3.72087 0
M  V30 939 N 90.1641 1.46063 -0.591896 0
M  V30 940 C 91.1121 2.32124 0.148739 0
M  V30 941 C 92.1061 1.45035 0.875286 0
M  V30 942 O 93.3121 1.61609 0.792632 0
M  V30 943 H 89.6871 0.749024 0.066832 0
M  V30 944 H 91.6581 2.92392 -0.595783 0
M  V30 945 C 90.4071 3.28373 1.1431 0
M  V30 946 H 89.7301 3.95371 0.59346 0
M  V30 947 H 91.1701 3.91352 1.63155 0
M  V30 948 C 89.6291 2.54393 2.20875 0
M  V30 949 O 90.1591 2.31373 3.28374 0
M  V30 950 N 88.3651 2.14797 1.95731 0
M  V30 951 H 87.9121 2.33719 1.08319 0
M  V30 952 H 87.8701 1.65619 2.67241 0
M  V30 953 N 91.6422 0.330177 1.54103 0
M  V30 954 C 93.0532 -0.15652 1.86043 0
M  V30 955 C 93.4042 -1.51086 1.2517 0
M  V30 956 O 92.5292 -2.09023 0.560217 0
M  V30 957 C 93.1242 -0.290784 3.3755 0
M  V30 958 C 91.6832 -0.721705 3.69416 0
M  V30 959 C 90.8302 0.152622 2.7688 0
M  V30 960 H 93.7812 0.550237 1.48856 0
M  V30 961 H 93.8022 -1.12058 3.63625 0
M  V30 962 H 93.3142 0.695068 3.81825 0
M  V30 963 H 91.4152 -1.71706 3.30678 0
M  V30 964 H 91.5282 -0.520869 4.7626 0
M  V30 965 H 89.8922 -0.372894 2.51956 0
M  V30 966 H 90.6752 1.13536 3.23982 0
M  V30 967 N 93.1203 -1.57491 0.0584922 0
M  V30 968 C 94.3453 -1.97711 -0.62652 0
M  V30 969 C 94.7703 -0.936132 -1.63151 0
M  V30 970 O 94.1283 0.099811 -1.81025 0
M  V30 971 C 94.1763 -3.36989 -1.28338 0
M  V30 972 O 93.2803 -3.35433 -2.39913 0
M  V30 973 H 92.6213 -0.643868 -0.162266 0
M  V30 974 H 95.1513 -2.04193 0.129064 0
M  V30 975 H 95.1613 -3.73879 -1.63335 0
M  V30 976 H 93.8363 -4.12289 -0.546889 0
M  V30 977 H 92.4133 -3.10298 -2.06809 0
M  V30 978 N 94.5984 0.214957 -1.56127 0
M  V30 979 C 95.5284 1.2695 -1.95974 0
M  V30 980 C 96.5094 1.48539 -0.828868 0
M  V30 981 O 97.6944 1.60611 -1.09168 0
M  V30 982 C 94.8244 2.61794 -2.28214 0
M  V30 983 C 93.7784 2.54851 -3.43853 0
M  V30 984 C 93.1044 3.93785 -3.61715 0
M  V30 985 C 94.4044 2.09065 -4.78632 0
M  V30 986 H 96.0984 0.93846 -2.84312 0
M  V30 987 H 93.6444 0.449996 -1.36788 0
M  V30 988 H 95.5974 3.35731 -2.54682 0
M  V30 989 H 94.3214 2.96599 -1.36736 0
M  V30 990 H 92.9804 1.8337 -3.17444 0
M  V30 991 H 92.6284 4.25908 -2.67602 0
M  V30 992 H 92.3284 3.90019 -4.39498 0
M  V30 993 H 93.8524 4.69374 -3.90539 0
M  V30 994 H 95.2664 2.7275 -5.04262 0
M  V30 995 H 93.6634 2.16346 -5.59745 0
M  V30 996 H 94.7334 1.04315 -4.73547 0
M  V30 997 N 96.0765 1.50051 0.48192 0
M  V30 998 C 97.0235 1.68122 1.58125 0
M  V30 999 C 97.9935 0.522545 1.57666 0
M  V30 1000 O 99.1785 0.751844 1.75362 0
M  V30 1001 C 96.3185 1.77142 2.96167 0
M  V30 1002 C 95.4315 3.0444 3.06497 0
M  V30 1003 C 94.5665 3.04321 4.35387 0
M  V30 1004 C 93.6055 4.26118 4.3942 0
M  V30 1005 N 92.7425 4.238 5.59766 0
M  V30 1006 H 97.5825 2.6198 1.42022 0
M  V30 1007 H 95.1195 1.29877 0.690687 0
M  V30 1008 H 97.0775 1.80352 3.76203 0
M  V30 1009 H 95.7075 0.867329 3.1093 0
M  V30 1010 H 94.7595 3.10752 2.19402 0
M  V30 1011 H 96.0715 3.94426 3.05336 0
M  V30 1012 H 95.2255 3.062 5.23762 0
M  V30 1013 H 93.9645 2.12147 4.39141 0
M  V30 1014 H 92.9695 4.24463 3.49444 0
M  V30 1015 H 94.1945 5.19507 4.37366 0
M  V30 1016 H 92.1405 3.34474 5.64326 0
M  V30 1017 H 92.0575 5.07542 5.60301 0
M  V30 1018 H 93.3255 4.2981 6.50295 0
M  V30 1019 N 97.5546 -0.734337 1.39446 0
M  V30 1020 C 98.7796 -1.52866 1.40167 0
M  V30 1021 C 99.2046 -1.881 -0.00171513 0
M  V30 1022 O 98.5626 -1.51957 -0.988879 0
M  V30 1023 C 98.6106 -2.79235 2.28167 0
M  V30 1024 O 97.7146 -3.75185 1.71201 0
M  V30 1025 H 97.0556 -0.461618 0.477289 0
M  V30 1026 H 99.5856 -0.905949 1.8345 0
M  V30 1027 H 99.5956 -3.27963 2.42702 0
M  V30 1028 H 98.2706 -2.52923 3.30156 0
M  V30 1029 H 96.8476 -3.33958 1.65912 0
M  V30 1030 N 99.0327 -1.24633 -0.964593 0
M  V30 1031 C 100.449 -1.01239 -1.2338 0
M  V30 1032 C 100.649 0.2769 -1.99588 0
M  V30 1033 O 99.7047 0.992241 -2.32187 0
M  V30 1034 C 101.018 -2.22937 -2.01791 0
M  V30 1035 C 102.566 -2.27594 -2.14872 0
M  V30 1036 C 103.041 -3.48921 -2.96678 0
M  V30 1037 N 104.532 -3.49257 -3.04259 0
M  V30 1038 C 105.267 -4.39795 -3.67924 0
M  V30 1039 N 104.763 -5.40591 -4.33281 0
M  V30 1040 N 106.556 -4.275 -3.64966 0
M  V30 1041 H 98.7067 -2.0748 -0.454502 0
M  V30 1042 H 100.97 -0.910647 -0.26349 0
M  V30 1043 H 100.676 -3.16587 -1.53184 0
M  V30 1044 H 100.55 -2.25306 -3.02518 0
M  V30 1045 H 102.937 -1.34473 -2.6268 0
M  V30 1046 H 103.018 -2.2925 -1.13482 0
M  V30 1047 H 102.662 -4.42359 -2.49562 0
M  V30 1048 H 102.592 -3.4451 -3.98272 0
M  V30 1049 H 105.083 -2.76337 -2.57771 0
M  V30 1050 H 105.396 -6.05904 -4.79687 0
M  V30 1051 H 103.741 -5.44475 -4.3194 0
M  V30 1052 H 106.932 -3.47987 -3.13086 0
M  V30 1053 H 107.105 -4.98258 -4.14298 0
M  V30 1054 N 100.511 1.16574 -1.06058 0
M  V30 1055 C 101.757 1.87324 -0.777022 0
M  V30 1056 C 102.09 1.81351 0.694645 0
M  V30 1057 O 101.365 1.22753 1.50871 0
M  V30 1058 C 101.648 3.36991 -1.26922 0
M  V30 1059 C 101.501 3.51667 -2.80447 0
M  V30 1060 C 102.82 4.3131 -0.87521 0
M  V30 1061 H 99.9388 0.680191 -0.28374 0
M  V30 1062 H 102.581 1.37036 -1.3161 0
M  V30 1063 H 100.731 3.79949 -0.81063 0
M  V30 1064 H 102.403 3.17664 -3.34495 0
M  V30 1065 H 100.646 2.93656 -3.19294 0
M  V30 1066 H 101.317 4.56766 -3.0995 0
M  V30 1067 H 103.793 3.9624 -1.27014 0
M  V30 1068 H 102.669 5.34545 -1.2471 0
M  V30 1069 H 102.93 4.41552 0.220071 0
M  V30 1070 N 101.989 0.842826 1.3317 0
M  V30 1071 C 103.217 0.454055 2.01856 0
M  V30 1072 C 103.632 -0.94587 1.63397 0
M  V30 1073 O 102.989 -1.61534 0.849302 0
M  V30 1074 C 103.04 0.569715 3.56982 0
M  V30 1075 O 102.761 1.91448 3.94055 0
M  V30 1076 C 104.262 0.178412 4.42941 0
M  V30 1077 H 101.482 0.17979 0.646465 0
M  V30 1078 H 104.026 1.1365 1.70012 0
M  V30 1079 H 102.181 -0.0648587 3.87346 0
M  V30 1080 H 102.595 1.90282 4.88767 0
M  V30 1081 H 104.069 0.310376 5.51127 0
M  V30 1082 H 104.546 -0.880056 4.30293 0
M  V30 1083 H 105.152 0.787579 4.17944 0
M  V30 1084 N 103.467 -1.45747 0.599634 0
M  V30 1085 C 104.716 -2.01502 0.0893511 0
M  V30 1086 C 105.029 -1.4748 -1.28488 0
M  V30 1087 O 106.235 -1.95161 -1.88745 0
M  V30 1088 C 104.691 -3.59735 0.109082 0
M  V30 1089 C 104.299 -4.22754 1.48267 0
M  V30 1090 C 106.043 -4.23085 -0.346374 0
M  V30 1091 C 103.95 -5.73115 1.45921 0
M  V30 1092 H 102.88 -0.753417 0.0296347 0
M  V30 1093 H 105.531 -1.67303 0.753788 0
M  V30 1094 H 103.913 -3.91087 -0.621854 0
M  V30 1095 H 105.087 -4.02987 2.23468 0
M  V30 1096 H 103.402 -3.71567 1.87955 0
M  V30 1097 H 105.999 -5.33327 -0.38298 0
M  V30 1098 H 106.342 -3.93201 -1.36743 0
M  V30 1099 H 106.875 -3.9642 0.331038 0
M  V30 1100 H 103.614 -6.07685 2.45762 0
M  V30 1101 H 103.134 -5.95097 0.749665 0
M  V30 1102 H 104.813 -6.3616 1.17941 0
M  V30 1103 N 104.945 -0.338344 -1.53925 0
M  V30 1104 C 106.17 0.263987 -2.05713 0
M  V30 1105 C 106.595 1.43847 -1.21201 0
M  V30 1106 O 105.953 1.79904 -0.224535 0
M  V30 1107 C 106.001 0.662 -3.54471 0
M  V30 1108 O 105.105 1.76265 -3.72833 0
M  V30 1109 H 104.446 0.0448722 -0.662482 0
M  V30 1110 H 106.976 -0.491048 -1.9862 0
M  V30 1111 H 106.986 0.940594 -3.9701 0
M  V30 1112 H 105.661 -0.196937 -4.15433 0
M  V30 1113 H 104.238 1.48173 -3.42198 0
M  V30 1114 N 106.423 1.57458 -0.0668435 0
M  V30 1115 C 107.669 1.93587 0.6043 0
M  V30 1116 C 108.002 0.946722 1.69561 0
M  V30 1117 O 107.277 -0.0248516 1.94484 0
M  V30 1118 C 107.56 3.40014 1.18585 0
M  V30 1119 C 107.413 4.49685 0.101529 0
M  V30 1120 C 108.732 3.87154 2.09284 0
M  V30 1121 H 105.851 0.703958 0.218202 0
M  V30 1122 H 108.493 1.89542 -0.131804 0
M  V30 1123 H 106.643 3.43592 1.81319 0
M  V30 1124 H 108.315 4.5823 -0.531279 0
M  V30 1125 H 106.558 4.30059 -0.568487 0
M  V30 1126 H 107.229 5.49266 0.54874 0
M  V30 1127 H 109.705 3.85551 1.56491 0
M  V30 1128 H 108.581 4.90231 2.46911 0
M  V30 1129 H 108.842 3.2481 2.99918 0
M  V30 1130 N 107.901 -0.206675 1.56239 0
M  V30 1131 C 109.178 -0.954051 1.70755 0
M  V30 1132 C 109.558 -2.01841 0.618353 0
M  V30 1133 O 108.906 -2.25444 -0.372434 0
M  V30 1134 C 109.116 -1.551 3.12642 0
M  V30 1135 C 110.464 -2.03757 3.72516 0
M  V30 1136 O 111.488 -1.64965 3.15698 0
M  V30 1137 O 110.347 -2.75103 4.72208 0
M  V30 1138 H 107.441 -0.446636 0.696021 0
M  V30 1139 H 109.987 -0.197283 1.68549 0
M  V30 1140 H 108.759 -0.783212 3.83382 0
M  V30 1141 H 108.382 -2.37291 3.19028 0
M  V30 1142 N 109.379 -1.50304 -0.473955 0
M  V30 1143 C 110.607 -1.64902 -1.24959 0
M  V30 1144 C 111.022 -0.331198 -1.85872 0
M  V30 1145 O 110.379 0.68652 -1.69095 0
M  V30 1146 C 110.43 -2.73803 -2.36038 0
M  V30 1147 O 110.151 -4.00477 -1.77624 0
M  V30 1148 C 111.652 -2.99349 -3.26964 0
M  V30 1149 H 108.872 -0.554383 -0.378022 0
M  V30 1150 H 111.416 -1.9651 -0.566054 0
M  V30 1151 H 109.571 -2.44898 -3.00173 0
M  V30 1152 H 109.985 -4.60678 -2.5075 0
M  V30 1153 H 111.459 -3.79217 -4.01121 0
M  V30 1154 H 111.936 -2.10307 -3.85574 0
M  V30 1155 H 112.542 -3.29774 -2.68569 0
M  V30 1156 N 110.857 0.726932 -1.39834 0
M  V30 1157 C 112.082 1.52121 -1.40976 0
M  V30 1158 C 112.507 1.88098 -0.00826029 0
M  V30 1159 O 111.865 1.52479 0.980807 0
M  V30 1160 C 111.913 2.78021 -2.29644 0
M  V30 1161 O 111.017 3.74272 -1.73188 0
M  V30 1162 H 110.358 0.45908 -0.479731 0
M  V30 1163 H 112.888 0.896207 -1.83927 0
M  V30 1164 H 112.898 3.26671 -2.44438 0
M  V30 1165 H 111.573 2.51169 -3.31492 0
M  V30 1166 H 110.15 3.33073 -1.6768 0
M  V30 1167 N 112.336 1.25143 0.95797 0
M  V30 1168 C 113.283 1.05235 2.05412 0
M  V30 1169 C 114.253 -0.0374561 1.66058 0
M  V30 1170 O 115.438 0.119073 1.90428 0
M  V30 1171 C 112.578 0.673589 3.38462 0
M  V30 1172 C 111.691 1.8379 3.90954 0
M  V30 1173 C 110.826 1.40381 5.12315 0
M  V30 1174 C 109.865 2.53746 5.57027 0
M  V30 1175 N 109.002 2.11136 6.69601 0
M  V30 1176 H 113.842 1.99048 2.21774 0
M  V30 1177 H 111.379 0.991277 1.08683 0
M  V30 1178 H 113.337 0.434964 4.14926 0
M  V30 1179 H 111.967 -0.227554 3.21997 0
M  V30 1180 H 111.019 2.18992 3.11041 0
M  V30 1181 H 112.331 2.68937 4.20089 0
M  V30 1182 H 111.485 1.12464 5.96185 0
M  V30 1183 H 110.224 0.523015 4.84887 0
M  V30 1184 H 109.229 2.82412 4.71724 0
M  V30 1185 H 110.454 3.42398 5.86464 0
M  V30 1186 H 108.4 1.25468 6.4389 0
M  V30 1187 H 108.317 2.89832 6.98236 0
M  V30 1188 H 109.585 1.86385 7.56889 0
M  V30 1189 N 113.814 -1.1601 1.06675 0
M  V30 1190 C 114.762 -2.22586 0.675157 0
M  V30 1191 C 115.756 -1.66525 -0.310766 0
M  V30 1192 O 116.962 -1.79145 -0.175215 0
M  V30 1193 H 113.337 -0.724855 0.200223 0
M  V30 1194 H 115.308 -2.52899 1.58381 0
M  V30 1195 C 114.057 -3.47604 0.0817162 0
M  V30 1196 H 113.38 -3.91058 0.831484 0
M  V30 1197 H 114.82 -4.23718 -0.154708 0
M  V30 1198 C 113.279 -3.15718 -1.17576 0
M  V30 1199 O 113.809 -3.31878 -2.26318 0
M  V30 1200 N 112.015 -2.69816 -1.07923 0
M  V30 1201 H 111.562 -2.56866 -0.194293 0
M  V30 1202 H 111.52 -2.48855 -1.92141 0
M  V30 1203 N 115.292 -0.849877 -1.32721 0
M  V30 1204 C 116.224 -0.248332 -2.27851 0
M  V30 1205 C 117.237 0.577218 -1.52224 0
M  V30 1206 O 118.426 0.402489 -1.73903 0
M  V30 1207 C 115.526 0.668107 -3.32249 0
M  V30 1208 C 114.699 -0.120534 -4.37234 0
M  V30 1209 C 113.758 0.720932 -5.21238 0
M  V30 1210 O 112.784 0.156166 -5.68986 0
M  V30 1211 N 113.986 2.03647 -5.43607 0
M  V30 1212 H 116.751 -1.06575 -2.80111 0
M  V30 1213 H 114.312 -0.709395 -1.45531 0
M  V30 1214 H 116.304 1.23627 -3.85355 0
M  V30 1215 H 114.874 1.38621 -2.80184 0
M  V30 1216 H 114.094 -0.870108 -3.84477 0
M  V30 1217 H 115.382 -0.662406 -5.0447 0
M  V30 1218 H 114.78 2.51871 -5.06535 0
M  V30 1219 H 113.337 2.55287 -5.99727 0
M  V30 1220 N 116.77 1.45427 -0.607355 0
M  V30 1221 C 118.017 2.02241 -0.102455 0
M  V30 1222 C 118.345 1.4758 1.26691 0
M  V30 1223 O 117.6 0.640468 1.84923 0
M  V30 1224 C 117.899 3.57398 -0.0129263 0
M  V30 1225 C 117.565 4.3121 -1.31792 0
M  V30 1226 C 116.227 4.51092 -1.67539 0
M  V30 1227 C 118.579 4.73401 -2.18039 0
M  V30 1228 C 115.907 5.10422 -2.89285 0
M  V30 1229 C 118.259 5.34078 -3.39034 0
M  V30 1230 C 116.923 5.52184 -3.75033 0
M  V30 1231 H 116.193 0.740051 -0.037491 0
M  V30 1232 H 118.84 1.74494 -0.788926 0
M  V30 1233 H 117.145 3.84421 0.756806 0
M  V30 1234 H 118.842 3.99061 0.393881 0
M  V30 1235 H 115.432 4.16047 -1.02968 0
M  V30 1236 H 119.616 4.57774 -1.91721 0
M  V30 1237 H 114.872 5.22629 -3.17283 0
M  V30 1238 H 119.046 5.65724 -4.06115 0
M  V30 1239 H 116.673 5.97925 -4.69457 0
M  V30 1240 N 118.248 0.346503 1.53744 0
M  V30 1241 C 119.473 -0.253074 2.0585 0
M  V30 1242 C 119.898 -1.43202 1.21962 0
M  V30 1243 O 119.256 -1.79783 0.234073 0
M  V30 1244 C 119.304 -0.643193 3.54817 0
M  V30 1245 O 118.408 -1.74286 3.73762 0
M  V30 1246 H 117.749 -0.0413583 0.662711 0
M  V30 1247 H 120.279 0.501574 1.98357 0
M  V30 1248 H 120.289 -0.919526 3.97503 0
M  V30 1249 H 118.964 0.218966 4.15323 0
M  V30 1250 H 117.541 -1.46356 3.42979 0
M  V30 1251 N 119.726 -1.57421 0.075193 0
M  V30 1252 C 120.656 -2.15942 -0.888324 0
M  V30 1253 C 121.637 -1.08737 -1.30806 0
M  V30 1254 O 122.822 -1.36787 -1.37851 0
M  V30 1255 C 119.952 -2.72379 -2.1547 0
M  V30 1256 C 118.906 -3.8478 -1.87425 0
M  V30 1257 C 118.232 -4.27834 -3.20721 0
M  V30 1258 C 119.532 -5.08869 -1.17684 0
M  V30 1259 H 121.226 -2.96705 -0.400799 0
M  V30 1260 H 118.772 -1.42723 -0.191342 0
M  V30 1261 H 120.725 -3.11965 -2.83295 0
M  V30 1262 H 119.449 -1.88841 -2.6647 0
M  V30 1263 H 118.108 -3.45703 -1.22004 0
M  V30 1264 H 117.756 -3.41214 -3.6957 0
M  V30 1265 H 117.456 -5.03605 -3.02746 0
M  V30 1266 H 118.98 -4.70039 -3.89738 0
M  V30 1267 H 120.394 -5.4575 -1.75584 0
M  V30 1268 H 118.791 -5.8994 -1.09956 0
M  V30 1269 H 119.861 -4.84648 -0.156453 0
M  V30 1270 N 121.204 0.198386 -1.56346 0
M  V30 1271 C 122.432 0.935572 -1.84539 0
M  V30 1272 C 122.847 1.76989 -0.657281 0
M  V30 1273 O 122.204 1.78626 0.374043 0
M  V30 1274 C 122.255 1.8344 -3.11499 0
M  V30 1275 O 121.976 1.03377 -4.25728 0
M  V30 1276 C 123.477 2.68355 -3.52846 0
M  V30 1277 H 120.697 0.273126 -0.612897 0
M  V30 1278 H 123.241 0.20663 -2.03453 0
M  V30 1279 H 121.396 2.51701 -2.94492 0
M  V30 1280 H 121.81 1.64599 -4.98003 0
M  V30 1281 H 123.284 3.27085 -4.44657 0
M  V30 1282 H 123.761 3.41901 -2.75681 0
M  V30 1283 H 124.367 2.05471 -3.72373 0
M  V30 1284 N 122.682 1.50554 0.465978 0
M  V30 1285 C 123.612 1.72722 1.57128 0
M  V30 1286 C 124.593 0.576294 1.6004 0
M  V30 1287 O 125.778 0.81598 1.76225 0
M  V30 1288 C 122.908 1.82605 2.95419 0
M  V30 1289 C 121.862 2.97835 3.07373 0
M  V30 1290 C 121.188 2.92867 4.47363 0
M  V30 1291 C 122.488 4.38265 2.84114 0
M  V30 1292 H 124.182 2.65267 1.38829 0
M  V30 1293 H 121.728 1.2765 0.666441 0
M  V30 1294 H 123.681 1.96698 3.72677 0
M  V30 1295 H 122.405 0.866858 3.14886 0
M  V30 1296 H 121.064 2.83401 2.3255 0
M  V30 1297 H 120.712 1.94783 4.63755 0
M  V30 1298 H 120.412 3.70227 4.56296 0
M  V30 1299 H 121.936 3.09015 5.26633 0
M  V30 1300 H 123.35 4.53198 3.51118 0
M  V30 1301 H 121.747 5.17115 3.04487 0
M  V30 1302 H 122.817 4.50281 1.7993 0
M  V30 1303 N 124.16 -0.719506 1.40217 0
M  V30 1304 C 125.385 -1.51371 1.4178 0
M  V30 1305 C 125.81 -1.88091 0.0182355 0
M  V30 1306 O 125.168 -1.52997 -0.972707 0
M  V30 1307 C 125.216 -2.768 2.31115 0
M  V30 1308 O 124.32 -3.73349 1.7517 0
M  V30 1309 H 123.661 -0.456529 0.482159 0
M  V30 1310 H 126.191 -0.88644 1.844 0
M  V30 1311 H 126.201 -3.25371 2.46167 0
M  V30 1312 H 124.876 -2.49407 3.3282 0
M  V30 1313 H 123.453 -3.32179 1.69444 0
M  V30 1314 N 125.638 -1.25649 -0.95132 0
M  V30 1315 C 126.863 -1.13443 -1.73624 0
M  V30 1316 C 127.288 0.307565 -1.85568 0
M  V30 1317 O 126.646 1.22282 -1.33854 0
M  V30 1318 C 126.694 -1.79723 -3.12621 0
M  V30 1319 O 125.798 -1.07912 -3.98031 0
M  V30 1320 H 125.139 -0.395872 -0.533086 0
M  V30 1321 H 127.669 -1.66276 -1.1922 0
M  V30 1322 H 127.679 -1.86141 -3.63064 0
M  V30 1323 H 126.354 -2.84633 -3.03244 0
M  V30 1324 H 124.931 -1.09398 -3.56492 0
M  V30 1325 N 127.117 1.15442 -1.07289 0
M  V30 1326 C 128.363 1.86489 -0.796846 0
M  V30 1327 C 128.696 1.82078 0.675371 0
M  V30 1328 O 127.971 1.24346 1.4956 0
M  V30 1329 C 128.254 3.35626 -1.30489 0
M  V30 1330 C 128.107 3.48673 -2.84161 0
M  V30 1331 C 129.426 4.30357 -0.920907 0
M  V30 1332 H 126.545 0.677144 -0.290939 0
M  V30 1333 H 129.187 1.35633 -1.33056 0
M  V30 1334 H 127.337 3.79068 -0.850883 0
M  V30 1335 H 129.009 3.14099 -3.37846 0
M  V30 1336 H 127.252 2.90253 -3.22391 0
M  V30 1337 H 127.923 4.53453 -3.14777 0
M  V30 1338 H 130.399 3.94871 -1.3121 0
M  V30 1339 H 129.275 5.33193 -1.30372 0
M  V30 1340 H 129.536 4.4176 0.173226 0
M  V30 1341 N 128.595 0.856903 1.32268 0
M  V30 1342 C 129.823 0.475439 2.01363 0
M  V30 1343 C 130.238 -0.928486 1.64392 0
M  V30 1344 O 129.595 -1.60624 0.866387 0
M  V30 1345 C 129.646 0.607545 3.56358 0
M  V30 1346 O 129.367 1.95617 3.92002 0
M  V30 1347 C 130.868 0.225382 4.42727 0
M  V30 1348 H 128.088 0.186636 0.644521 0
M  V30 1349 H 130.632 1.15446 1.68797 0
M  V30 1350 H 128.787 -0.0237719 3.87393 0
M  V30 1351 H 129.201 1.95455 4.86721 0
M  V30 1352 H 130.675 0.368813 5.50767 0
M  V30 1353 H 131.152 -0.834369 4.31202 0
M  V30 1354 H 131.758 0.831864 4.17085 0
M  V30 1355 N 130.073 -1.45103 0.615059 0
M  V30 1356 C 131.036 -2.29025 -0.0895485 0
M  V30 1357 C 132.036 -1.40174 -0.787906 0
M  V30 1358 O 133.226 -1.62217 -0.634933 0
M  V30 1359 C 130.358 -3.21376 -1.13711 0
M  V30 1360 H 131.551 -2.92807 0.648382 0
M  V30 1361 H 129.104 -1.51749 0.374444 0
M  V30 1362 H 129.839 -2.6241 -1.90556 0
M  V30 1363 H 129.624 -3.86834 -0.640475 0
M  V30 1364 H 131.114 -3.84459 -1.63036 0
M  V30 1365 N 131.551 -0.354651 -1.53558 0
M  V30 1366 C 132.514 0.484566 -2.24019 0
M  V30 1367 C 133.514 1.01861 -1.24422 0
M  V30 1368 O 134.704 0.906097 -1.4878 0
M  V30 1369 C 131.836 1.67615 -2.96847 0
M  V30 1370 H 133.029 -0.131843 -2.9961 0
M  V30 1371 H 130.582 -0.106165 -1.55939 0
M  V30 1372 H 131.317 2.33095 -2.25471 0
M  V30 1373 H 131.102 1.30029 -3.69912 0
M  V30 1374 H 132.592 2.27114 -3.50441 0
M  V30 1375 N 133.029 1.57378 -0.0835403 0
M  V30 1376 C 134.306 1.85363 0.624507 0
M  V30 1377 C 134.686 0.978239 1.87066 0
M  V30 1378 O 134.034 0.0475908 2.2845 0
M  V30 1379 C 134.244 3.35795 0.950947 0
M  V30 1380 C 135.592 4.03581 1.31939 0
M  V30 1381 O 136.616 3.40609 1.04232 0
M  V30 1382 O 135.475 5.14672 1.83779 0
M  V30 1383 H 132.569 0.766162 0.311329 0
M  V30 1384 H 135.115 1.69307 -0.115362 0
M  V30 1385 H 133.887 3.91244 0.0663899 0
M  V30 1386 H 133.51 3.57154 1.74719 0
M  V30 1387 N 134.507 -0.190092 1.56449 0
M  V30 1388 C 135.735 -0.925772 1.85033 0
M  V30 1389 C 136.15 -1.76638 0.666658 0
M  V30 1390 O 135.507 -1.78822 -0.364565 0
M  V30 1391 C 135.558 -1.81786 3.12468 0
M  V30 1392 O 135.279 -1.01118 4.26271 0
M  V30 1393 C 136.78 -2.6648 3.54265 0
M  V30 1394 H 134 -0.269872 0.614337 0
M  V30 1395 H 136.544 -0.195837 2.0356 0
M  V30 1396 H 134.699 -2.50136 2.95822 0
M  V30 1397 H 135.113 -1.61956 4.98869 0
M  V30 1398 H 136.587 -3.24722 4.46385 0
M  V30 1399 H 137.064 -3.40434 2.77491 0
M  V30 1400 H 137.67 -2.03493 3.73458 0
M  V30 1401 N 135.985 -1.50799 -0.457987 0
M  V30 1402 C 136.948 -1.7005 -1.53674 0
M  V30 1403 C 137.948 -0.570881 -1.50325 0
M  V30 1404 O 139.138 -0.838126 -1.52712 0
M  V30 1405 C 136.27 -1.73788 -2.93276 0
M  V30 1406 H 137.463 -2.66306 -1.37917 0
M  V30 1407 H 135.016 -1.40477 -0.685271 0
M  V30 1408 H 135.751 -0.792717 -3.14462 0
M  V30 1409 H 135.536 -2.55864 -2.97113 0
M  V30 1410 H 137.026 -1.90591 -3.71571 0
M  V30 1411 N 137.463 0.71206 -1.40597 0
M  V30 1412 C 138.709 1.47416 -1.39271 0
M  V30 1413 C 139.042 1.942 0.00388791 0
M  V30 1414 O 138.317 1.68403 0.973179 0
M  V30 1415 C 138.6 2.69774 -2.38525 0
M  V30 1416 C 138.453 2.28861 -3.87224 0
M  V30 1417 C 139.772 3.71939 -2.35264 0
M  V30 1418 H 136.891 0.534713 -0.5072 0
M  V30 1419 H 139.533 0.812375 -1.71757 0
M  V30 1420 H 137.683 3.26238 -2.10953 0
M  V30 1421 H 139.355 1.77852 -4.25636 0
M  V30 1422 H 137.598 1.60824 -4.02887 0
M  V30 1423 H 138.269 3.16584 -4.52193 0
M  V30 1424 H 140.745 3.25113 -2.59694 0
M  V30 1425 H 139.621 4.55186 -3.06753 0
M  V30 1426 H 139.882 4.20484 -1.36549 0
M  V30 1427 N 138.941 1.26152 0.944643 0
M  V30 1428 C 140.171 1.14094 1.72239 0
M  V30 1429 C 140.579 -0.306931 1.86694 0
M  V30 1430 O 139.922 -1.22222 1.3714 0
M  V30 1431 C 139.984 1.73316 3.14963 0
M  V30 1432 C 139.648 3.2239 3.23904 0
M  V30 1433 C 140.645 4.19252 3.07447 0
M  V30 1434 C 138.33 3.62788 3.47405 0
M  V30 1435 C 140.324 5.54491 3.14353 0
M  V30 1436 C 138.011 4.98162 3.53947 0
M  V30 1437 C 139.009 5.93823 3.37436 0
M  V30 1438 O 138.697 7.26732 3.43679 0
M  V30 1439 H 138.429 0.398292 0.546205 0
M  V30 1440 H 140.983 1.67201 1.19301 0
M  V30 1441 H 139.213 1.14667 3.69308 0
M  V30 1442 H 140.902 1.56214 3.74636 0
M  V30 1443 H 141.668 3.8938 2.8915 0
M  V30 1444 H 137.547 2.88816 3.59313 0
M  V30 1445 H 141.091 6.29137 3.01384 0
M  V30 1446 H 136.988 5.27695 3.71763 0
M  V30 1447 H 137.756 7.3496 3.60245 0
M  V30 1448 N 140.419 -1.14872 1.07899 0
M  V30 1449 C 141.649 -1.89386 0.825631 0
M  V30 1450 C 142.057 -1.78565 -0.625406 0
M  V30 1451 O 141.4 -1.13918 -1.44113 0
M  V30 1452 C 141.462 -3.40206 1.16191 0
M  V30 1453 C 141.126 -3.74812 2.61467 0
M  V30 1454 C 142.123 -3.75367 3.59716 0
M  V30 1455 C 139.808 -4.0495 2.97189 0
M  V30 1456 C 141.802 -4.05574 4.9172 0
M  V30 1457 C 139.489 -4.34821 4.29388 0
M  V30 1458 C 140.487 -4.35116 5.26463 0
M  V30 1459 O 140.175 -4.64267 6.56286 0
M  V30 1460 H 139.907 -0.606894 0.297751 0
M  V30 1461 H 142.461 -1.46438 1.44031 0
M  V30 1462 H 140.691 -3.8358 0.490214 0
M  V30 1463 H 142.38 -3.96018 0.890193 0
M  V30 1464 H 143.146 -3.52176 3.33462 0
M  V30 1465 H 139.025 -4.03876 2.22273 0
M  V30 1466 H 142.569 -4.05719 5.67484 0
M  V30 1467 H 138.466 -4.5748 4.55392 0
M  V30 1468 H 139.234 -4.82007 6.61522 0
M  V30 1469 N 141.898 -0.863906 -1.31812 0
M  V30 1470 C 143.138 -0.47825 -1.98726 0
M  V30 1471 C 143.502 0.950397 -1.66828 0
M  V30 1472 O 144.703 1.44109 -2.26905 0
M  V30 1473 C 142.974 -0.721134 -3.50049 0
M  V30 1474 S 144.533 -0.434432 -4.36644 0
M  V30 1475 H 141.351 -0.178773 -0.688158 0
M  V30 1476 H 143.953 -1.11862 -1.60334 0
M  V30 1477 H 142.657 -1.75981 -3.70755 0
M  V30 1478 H 142.188 -0.0675315 -3.93342 0
M  V30 1479 H 144.203 0.735786 -4.90714 0
M  V30 1480 N 143.376 1.44774 -0.622745 0
M  V30 1481 C 144.339 2.29069 0.0774015 0
M  V30 1482 C 145.339 1.4059 0.780461 0
M  V30 1483 O 146.529 1.62551 0.626322 0
M  V30 1484 C 143.661 3.21974 1.12006 0
M  V30 1485 H 144.854 2.92459 -0.663901 0
M  V30 1486 H 142.407 1.51548 -0.382486 0
M  V30 1487 H 143.142 2.63417 1.89162 0
M  V30 1488 H 142.927 3.87168 0.619951 0
M  V30 1489 H 144.417 3.85318 1.60995 0
M  V30 1490 N 144.854 0.36279 1.53368 0
M  V30 1491 C 146.27 0.0116182 1.59596 0
M  V30 1492 C 146.47 -1.47012 1.37803 0
M  V30 1493 O 145.526 -2.23136 1.18181 0
M  V30 1494 C 146.839 0.465052 2.97082 0
M  V30 1495 C 148.387 0.419033 3.10182 0
M  V30 1496 C 148.862 0.848235 4.50077 0
M  V30 1497 N 150.353 0.803183 4.56183 0
M  V30 1498 C 151.088 1.107 5.62613 0
M  V30 1499 N 150.584 1.47996 6.76808 0
M  V30 1500 N 152.377 1.02998 5.52583 0
M  V30 1501 H 144.528 1.32775 1.65785 0
M  V30 1502 H 146.791 0.542518 0.777417 0
M  V30 1503 H 146.497 1.49892 3.18159 0
M  V30 1504 H 146.371 -0.149786 3.76902 0
M  V30 1505 H 148.758 -0.605696 2.88817 0
M  V30 1506 H 148.839 1.06933 2.32377 0
M  V30 1507 H 148.483 1.87107 4.7218 0
M  V30 1508 H 148.413 0.175218 5.26308 0
M  V30 1509 H 150.904 0.52838 3.74188 0
M  V30 1510 H 151.217 1.69613 7.53957 0
M  V30 1511 H 149.562 1.51859 6.78206 0
M  V30 1512 H 152.753 0.737817 4.62249 0
M  V30 1513 H 152.926 1.2701 6.35431 0
M  V30 1514 N 146.332 -1.57332 0.0918853 0
M  V30 1515 C 147.58 -1.93853 -0.571446 0
M  V30 1516 C 147.901 -0.974212 -1.6892 0
M  V30 1517 O 147.171 -0.0257254 -1.95883 0
M  V30 1518 H 145.751 -0.715666 -0.214082 0
M  V30 1519 H 148.413 -1.94287 0.154464 0
M  V30 1520 H 147.509 -2.96191 -0.983729 0
M  V30 1521 N 147.81 0.181792 -1.56548 0
M  V30 1522 C 149.04 0.914618 -1.85252 0
M  V30 1523 C 149.448 1.76791 -0.673914 0
M  V30 1524 O 148.791 1.80009 0.366416 0
M  V30 1525 C 148.853 1.85019 -3.08234 0
M  V30 1526 C 148.517 1.17754 -4.41569 0
M  V30 1527 C 149.514 0.548035 -5.17003 0
M  V30 1528 C 147.199 1.17742 -4.88305 0
M  V30 1529 C 149.193 -0.0726128 -6.37359 0
M  V30 1530 C 146.88 0.552946 -6.08593 0
M  V30 1531 C 147.878 -0.070978 -6.82963 0
M  V30 1532 O 147.566 -0.685635 -8.00971 0
M  V30 1533 H 147.298 0.271695 -0.618998 0
M  V30 1534 H 149.852 0.189944 -2.0452 0
M  V30 1535 H 148.082 2.61491 -2.84885 0
M  V30 1536 H 149.771 2.45195 -3.23472 0
M  V30 1537 H 150.537 0.540174 -4.81982 0
M  V30 1538 H 146.416 1.65246 -4.30366 0
M  V30 1539 H 149.96 -0.560213 -6.95347 0
M  V30 1540 H 145.857 0.558354 -6.43081 0
M  V30 1541 H 146.625 -0.58385 -8.16415 0
M  V30 1542 N 149.288 1.51039 0.449983 0
M  V30 1543 C 150.236 1.71995 1.5659 0
M  V30 1544 C 151.23 0.586029 1.5894 0
M  V30 1545 O 152.436 0.76709 1.62837 0
M  V30 1546 H 148.811 0.543233 0.520001 0
M  V30 1547 H 150.782 2.65562 1.36085 0
M  V30 1548 C 149.531 1.8506 2.9436 0
M  V30 1549 H 148.854 2.71712 2.93279 0
M  V30 1550 H 150.294 2.0374 3.71842 0
M  V30 1551 C 148.753 0.607277 3.31382 0
M  V30 1552 O 149.283 -0.243903 4.00959 0
M  V30 1553 N 147.489 0.455073 2.87015 0
M  V30 1554 H 147.036 1.14879 2.30566 0
M  V30 1555 H 146.994 -0.375611 3.12148 0
M  V30 1556 N 150.766 -0.704594 1.40972 0
M  V30 1557 C 152.012 -1.46546 1.41053 0
M  V30 1558 C 152.367 -1.92393 0.0159714 0
M  V30 1559 O 151.66 -1.66017 -0.956506 0
M  V30 1560 C 151.854 -2.698 2.34399 0
M  V30 1561 C 151.683 -2.36008 3.82793 0
M  V30 1562 C 150.453 -2.26812 4.51536 0
M  V30 1563 C 152.651 -1.99565 4.74003 0
M  V30 1564 N 150.633 -1.8581 5.85105 0
M  V30 1565 C 152.004 -1.69251 5.96451 0
M  V30 1566 C 154.059 -1.86296 4.61734 0
M  V30 1567 C 152.762 -1.27003 7.07999 0
M  V30 1568 C 154.788 -1.45452 5.73234 0
M  V30 1569 C 154.15 -1.16043 6.94776 0
M  V30 1570 H 150.249 -0.533896 0.571383 0
M  V30 1571 H 152.833 -0.816061 1.76773 0
M  V30 1572 H 151.004 -3.32473 2.00789 0
M  V30 1573 H 152.736 -3.36214 2.25261 0
M  V30 1574 H 149.491 -2.44913 4.05357 0
M  V30 1575 H 149.915 -1.67817 6.55871 0
M  V30 1576 H 154.557 -2.0769 3.68273 0
M  V30 1577 H 152.275 -1.04353 8.01334 0
M  V30 1578 H 155.861 -1.35748 5.65742 0
M  V30 1579 H 154.741 -0.84915 7.79589 0
M  V30 1580 N 152.244 -1.26651 -0.937939 0
M  V30 1581 C 153.192 -1.08308 -2.05845 0
M  V30 1582 C 154.186 -0.0090757 -1.69398 0
M  V30 1583 O 155.392 -0.166007 -1.79233 0
M  V30 1584 H 151.767 -0.333416 -0.674046 0
M  V30 1585 H 153.738 -2.03261 -2.18467 0
M  V30 1586 C 152.487 -0.736229 -3.39816 0
M  V30 1587 H 151.81 -1.55453 -3.6834 0
M  V30 1588 H 153.25 -0.64769 -4.19024 0
M  V30 1589 C 151.709 0.558824 -3.32233 0
M  V30 1590 O 152.239 1.59621 -3.68624 0
M  V30 1591 N 150.445 0.550657 -2.85335 0
M  V30 1592 H 149.992 -0.293943 -2.55917 0
M  V30 1593 H 149.95 1.41726 -2.80644 0
M  V30 1594 N 153.722 1.14298 -1.08507 0
M  V30 1595 C 154.952 1.88945 -0.835663 0
M  V30 1596 C 155.36 1.78894 0.615928 0
M  V30 1597 O 154.703 1.1468 1.43506 0
M  V30 1598 C 154.765 3.39585 -1.17994 0
M  V30 1599 C 154.429 3.7342 -2.63451 0
M  V30 1600 C 155.426 3.73454 -3.61702 0
M  V30 1601 C 153.111 4.03368 -2.99332 0
M  V30 1602 C 155.105 4.02961 -4.93864 0
M  V30 1603 C 152.792 4.32538 -4.31687 0
M  V30 1604 C 153.79 4.32318 -5.28763 0
M  V30 1605 O 153.478 4.6078 -6.58739 0
M  V30 1606 H 153.21 0.605307 -0.300965 0
M  V30 1607 H 155.764 1.45673 -1.44806 0
M  V30 1608 H 153.994 3.83315 -0.51055 0
M  V30 1609 H 155.683 3.9554 -0.911182 0
M  V30 1610 H 156.449 3.50403 -3.35325 0
M  V30 1611 H 152.328 4.02692 -2.24411 0
M  V30 1612 H 155.872 4.02704 -5.69627 0
M  V30 1613 H 151.769 4.55059 -4.57812 0
M  V30 1614 H 152.537 4.78492 -6.64069 0
M  V30 1615 N 155.201 0.870884 1.31352 0
M  V30 1616 C 156.448 0.482273 1.96673 0
M  V30 1617 C 156.776 -0.965638 1.68836 0
M  V30 1618 O 156.031 -1.69514 0.977937 0
M  V30 1619 C 156.33 0.687157 3.50732 0
M  V30 1620 C 155.996 2.108 3.9859 0
M  V30 1621 C 154.658 2.49656 4.1137 0
M  V30 1622 C 157.01 3.03459 4.23748 0
M  V30 1623 C 154.338 3.80412 4.46659 0
M  V30 1624 C 156.69 4.3373 4.60501 0
M  V30 1625 C 155.354 4.725 4.71487 0
M  V30 1626 H 154.624 0.176476 0.719679 0
M  V30 1627 H 157.271 1.10405 1.56471 0
M  V30 1628 H 155.576 -0.0177476 3.91796 0
M  V30 1629 H 157.273 0.366284 3.99324 0
M  V30 1630 H 153.863 1.79633 3.8914 0
M  V30 1631 H 158.047 2.74665 4.13368 0
M  V30 1632 H 153.303 4.1021 4.53362 0
M  V30 1633 H 157.477 5.05578 4.78919 0
M  V30 1634 H 155.104 5.73859 4.98588 0
M  V30 1635 N 156.679 -1.44442 0.630414 0
M  V30 1636 C 157.956 -1.9549 0.0655657 0
M  V30 1637 C 158.336 -1.5724 -1.40851 0
M  V30 1638 O 157.684 -0.846116 -2.12257 0
M  V30 1639 C 157.894 -3.47812 0.287691 0
M  V30 1640 C 159.242 -4.24216 0.180513 0
M  V30 1641 O 160.266 -3.55526 0.219019 0
M  V30 1642 O 159.125 -5.46434 0.0848493 0
M  V30 1643 H 156.219 -0.826688 -0.0227177 0
M  V30 1644 H 158.765 -1.54496 0.702068 0
M  V30 1645 H 157.537 -3.687 1.31056 0
M  V30 1646 H 157.16 -3.95751 -0.382984 0
M  V30 1647 N 158.157 -0.370918 -1.53173 0
M  V30 1648 C 159.387 0.217389 -2.05453 0
M  V30 1649 C 159.795 1.42568 -1.24382 0
M  V30 1650 O 159.138 1.81571 -0.278839 0
M  V30 1651 C 159.2 0.669827 -3.53205 0
M  V30 1652 C 158.864 -0.4225 -4.55043 0
M  V30 1653 C 159.861 -1.27407 -5.04047 0
M  V30 1654 C 157.546 -0.58427 -4.9889 0
M  V30 1655 C 159.54 -2.27271 -5.95505 0
M  V30 1656 C 157.227 -1.58627 -5.90153 0
M  V30 1657 C 158.225 -2.42892 -6.38351 0
M  V30 1658 O 157.913 -3.41382 -7.27814 0
M  V30 1659 H 157.645 0.0408171 -0.674767 0
M  V30 1660 H 160.199 -0.5292 -1.98466 0
M  V30 1661 H 158.429 1.4681 -3.57748 0
M  V30 1662 H 160.118 1.18173 -3.88317 0
M  V30 1663 H 160.884 -1.16031 -4.70916 0
M  V30 1664 H 156.763 0.061851 -4.60959 0
M  V30 1665 H 160.307 -2.93079 -6.33049 0
M  V30 1666 H 156.204 -1.70048 -6.22699 0
M  V30 1667 H 156.972 -3.37173 -7.45826 0
M  V30 1668 N 159.635 1.57281 -0.100228 0
M  V30 1669 C 160.881 1.95626 0.556946 0
M  V30 1670 C 161.236 0.981655 1.65473 0
M  V30 1671 O 160.529 0.00849847 1.91598 0
M  V30 1672 C 160.723 3.38305 1.15259 0
M  V30 1673 C 160.552 4.49555 0.114035 0
M  V30 1674 C 159.322 5.0434 -0.311266 0
M  V30 1675 C 161.52 5.10051 -0.659768 0
M  V30 1676 N 159.502 5.99152 -1.33755 0
M  V30 1677 C 160.873 6.00628 -1.53774 0
M  V30 1678 C 162.928 4.92772 -0.712723 0
M  V30 1679 C 161.631 6.7578 -2.46403 0
M  V30 1680 C 163.657 5.6859 -1.62663 0
M  V30 1681 C 163.019 6.58838 -2.49222 0
M  V30 1682 H 159.118 0.7624 0.173982 0
M  V30 1683 H 161.702 1.93829 -0.183988 0
M  V30 1684 H 159.873 3.40786 1.86332 0
M  V30 1685 H 161.605 3.63817 1.77254 0
M  V30 1686 H 158.36 4.73537 0.0774812 0
M  V30 1687 H 158.784 6.5126 -1.84905 0
M  V30 1688 H 163.426 4.22761 -0.0576648 0
M  V30 1689 H 161.144 7.4505 -3.12931 0
M  V30 1690 H 164.73 5.57233 -1.67281 0
M  V30 1691 H 163.61 7.16479 -3.18791 0
M  V30 1692 N 161.113 -0.173488 1.56642 0
M  V30 1693 C 162.361 -0.888706 1.81512 0
M  V30 1694 C 162.682 -1.82875 0.676872 0
M  V30 1695 O 161.952 -1.93536 -0.303414 0
M  V30 1696 H 160.532 -0.331164 0.669582 0
M  V30 1697 H 163.194 -0.173823 1.94123 0
M  V30 1698 H 162.29 -1.46691 2.75478 0
M  V30 1699 N 162.591 -1.51276 -0.441967 0
M  V30 1700 C 163.523 -1.68444 -1.55433 0
M  V30 1701 C 164.536 -0.565187 -1.52674 0
M  V30 1702 O 165.725 -0.839356 -1.57534 0
M  V30 1703 C 162.825 -1.67966 -2.94348 0
M  V30 1704 C 161.998 -2.964 -3.21661 0
M  V30 1705 C 161.057 -2.88171 -4.40277 0
M  V30 1706 O 160.083 -3.62119 -4.39157 0
M  V30 1707 N 161.285 -2.03706 -5.43584 0
M  V30 1708 H 164.05 -2.644 -1.41112 0
M  V30 1709 H 161.611 -1.49104 -0.630838 0
M  V30 1710 H 163.603 -1.60035 -3.71713 0
M  V30 1711 H 162.173 -0.796225 -3.0229 0
M  V30 1712 H 161.393 -3.18234 -2.32638 0
M  V30 1713 H 162.681 -3.81427 -3.36736 0
M  V30 1714 H 162.079 -1.42995 -5.47329 0
M  V30 1715 H 160.636 -2.01658 -6.1982 0
M  V30 1716 N 164.069 0.697108 -1.41344 0
M  V30 1717 C 165.317 1.45426 -1.40341 0
M  V30 1718 C 165.638 1.94996 -0.0128787 0
M  V30 1719 O 164.908 1.71599 0.945027 0
M  V30 1720 H 163.488 0.539594 -0.516573 0
M  V30 1721 H 166.15 0.825201 -1.76569 0
M  V30 1722 H 165.246 2.31817 -2.08967 0
M  V30 1723 N 165.547 1.27147 0.931209 0
M  V30 1724 C 166.775 1.16082 1.71267 0
M  V30 1725 C 167.19 -0.282772 1.8667 0
M  V30 1726 O 166.547 -1.19283 1.38122 0
M  V30 1727 C 166.598 1.8358 3.11417 0
M  V30 1728 O 166.319 3.22299 2.96741 0
M  V30 1729 C 167.82 1.78597 4.05732 0
M  V30 1730 H 165.04 0.403758 0.535929 0
M  V30 1731 H 167.584 1.67953 1.16671 0
M  V30 1732 H 165.739 1.35623 3.62885 0
M  V30 1733 H 166.153 3.55851 3.85319 0
M  V30 1734 H 167.627 2.30444 5.01597 0
M  V30 1735 H 168.104 0.754564 4.3267 0
M  V30 1736 H 168.71 2.26152 3.60188 0
M  V30 1737 N 167.025 -1.13721 1.09112 0
M  V30 1738 C 167.955 -2.21148 0.749385 0
M  V30 1739 C 168.936 -1.6792 -0.271475 0
M  V30 1740 O 170.121 -1.93693 -0.140251 0
M  V30 1741 C 167.251 -3.46905 0.165659 0
M  V30 1742 C 166.205 -4.13203 1.11567 0
M  V30 1743 C 165.531 -5.33248 0.393809 0
M  V30 1744 C 166.831 -4.60912 2.45678 0
M  V30 1745 H 168.525 -2.4999 1.64758 0
M  V30 1746 H 166.071 -1.20156 0.793626 0
M  V30 1747 H 168.024 -4.21313 -0.085466 0
M  V30 1748 H 166.748 -3.17449 -0.767714 0
M  V30 1749 H 165.407 -3.40758 1.35202 0
M  V30 1750 H 165.055 -5.00054 -0.543599 0
M  V30 1751 H 164.755 -5.78552 1.02721 0
M  V30 1752 H 166.279 -6.10413 0.150908 0
M  V30 1753 H 167.693 -5.26759 2.26269 0
M  V30 1754 H 166.09 -5.16944 3.04776 0
M  V30 1755 H 167.16 -3.75603 3.06677 0
M  V30 1756 N 168.503 -0.877838 -1.30888 0
M  V30 1757 C 169.749 -0.493426 -1.96706 0
M  V30 1758 C 170.082 0.953504 -1.6918 0
M  V30 1759 O 169.357 1.67266 -0.992594 0
M  V30 1760 C 169.64 -0.760429 -3.51979 0
M  V30 1761 C 169.493 -2.25747 -3.89048 0
M  V30 1762 C 170.812 -0.232148 -4.39487 0
M  V30 1763 H 167.931 -0.180746 -0.714493 0
M  V30 1764 H 170.573 -1.10052 -1.54882 0
M  V30 1765 H 168.723 -0.243715 -3.87735 0
M  V30 1766 H 170.395 -2.84204 -3.63354 0
M  V30 1767 H 168.638 -2.72694 -3.37373 0
M  V30 1768 H 169.309 -2.39491 -4.97341 0
M  V30 1769 H 171.785 -0.674314 -4.106 0
M  V30 1770 H 170.661 -0.448355 -5.47066 0
M  V30 1771 H 170.922 0.866297 -4.33529 0
M  V30 1772 N 169.982 1.44106 -0.638065 0
M  V30 1773 C 171.21 2.06336 -0.152615 0
M  V30 1774 C 171.625 1.47731 1.17563 0
M  V30 1775 O 170.982 0.602806 1.72257 0
M  V30 1776 C 171.033 3.61479 -0.0391491 0
M  V30 1777 O 170.754 4.17903 -1.31487 0
M  V30 1778 C 172.255 4.40757 0.474176 0
M  V30 1779 H 169.475 0.665862 -0.0828776 0
M  V30 1780 H 172.019 1.84862 -0.87443 0
M  V30 1781 H 170.174 3.82191 0.633142 0
M  V30 1782 H 170.588 5.11416 -1.16421 0
M  V30 1783 H 172.062 5.49707 0.502562 0
M  V30 1784 H 172.539 4.12697 1.50258 0
M  V30 1785 H 173.145 4.24979 -0.165102 0
M  V30 1786 N 171.46 0.379036 1.52974 0
M  V30 1787 C 172.706 -0.206727 2.01744 0
M  V30 1788 C 173.039 -1.47314 1.26539 0
M  V30 1789 O 172.314 -1.91084 0.362903 0
M  V30 1790 C 172.597 -0.485066 3.56818 0
M  V30 1791 C 172.45 0.795919 4.42702 0
M  V30 1792 C 173.769 -1.28003 4.21074 0
M  V30 1793 H 170.888 -0.0736607 0.73331 0
M  V30 1794 H 173.53 0.506581 1.83122 0
M  V30 1795 H 171.68 -1.09272 3.72816 0
M  V30 1796 H 173.352 1.43307 4.38476 0
M  V30 1797 H 171.595 1.41344 4.10127 0
M  V30 1798 H 172.266 0.555947 5.49193 0
M  V30 1799 H 174.742 -0.765867 4.08991 0
M  V30 1800 H 173.618 -1.44352 5.29579 0
M  V30 1801 H 173.879 -2.29236 3.78026 0
M  V30 1802 N 172.938 -1.57226 0.108567 0
M  V30 1803 C 174.163 -1.99604 -0.563303 0
M  V30 1804 C 174.588 -0.987563 -1.6009 0
M  V30 1805 O 173.946 0.0421687 -1.81251 0
M  V30 1806 C 173.994 -3.40902 -1.17552 0
M  V30 1807 O 173.098 -3.42896 -2.2912 0
M  V30 1808 H 172.439 -0.648704 -0.1417 0
M  V30 1809 H 174.969 -2.03679 0.193961 0
M  V30 1810 H 174.979 -3.78886 -1.51357 0
M  V30 1811 H 173.654 -4.1382 -0.415445 0
M  V30 1812 H 172.231 -3.1672 -1.96832 0
M  V30 1813 N 174.416 0.165178 -1.56732 0
M  V30 1814 C 175.641 0.900253 -1.86843 0
M  V30 1815 C 176.066 1.74766 -0.695596 0
M  V30 1816 O 175.424 1.77786 0.35522 0
M  V30 1817 C 175.472 1.74777 -3.15413 0
M  V30 1818 O 174.576 2.85007 -2.98068 0
M  V30 1819 H 173.917 0.251832 -0.614391 0
M  V30 1820 H 176.447 0.161468 -2.03962 0
M  V30 1821 H 176.457 2.14646 -3.46974 0
M  V30 1822 H 175.132 1.12537 -4.00385 0
M  V30 1823 H 173.709 2.48676 -2.77875 0
M  V30 1824 N 175.894 1.51508 0.433938 0
M  V30 1825 C 176.857 1.72473 1.50949 0
M  V30 1826 C 177.857 0.594725 1.49398 0
M  V30 1827 O 179.047 0.862315 1.5136 0
M  V30 1828 C 176.179 1.78431 2.90474 0
M  V30 1829 H 177.372 2.68467 1.33662 0
M  V30 1830 H 174.925 1.41549 0.662836 0
M  V30 1831 H 175.66 0.842645 3.13161 0
M  V30 1832 H 175.445 2.60558 2.93005 0
M  V30 1833 H 176.935 1.96479 3.68491 0
M  V30 1834 N 177.372 -0.689602 1.41712 0
M  V30 1835 C 178.597 -1.48329 1.44959 0
M  V30 1836 C 179.022 -1.8801 0.0581283 0
M  V30 1837 O 178.38 -1.55026 -0.940035 0
M  V30 1838 C 178.428 -2.71835 2.36935 0
M  V30 1839 O 177.532 -3.69549 1.8305 0
M  V30 1840 H 176.873 -0.446199 0.491734 0
M  V30 1841 H 179.403 -0.847127 1.86239 0
M  V30 1842 H 179.413 -3.20076 2.53013 0
M  V30 1843 H 178.088 -2.42291 3.38035 0
M  V30 1844 H 176.665 -3.2851 1.76452 0
M  V30 1845 N 178.85 -1.27639 -0.924453 0
M  V30 1846 C 180.078 -1.16989 -1.70649 0
M  V30 1847 C 180.493 0.272869 -1.86818 0
M  V30 1848 O 179.85 1.18549 -1.38753 0
M  V30 1849 C 179.901 -1.85229 -3.10439 0
M  V30 1850 O 179.622 -3.23868 -2.95028 0
M  V30 1851 C 181.123 -1.80746 -4.04779 0
M  V30 1852 H 178.343 -0.406595 -0.53378 0
M  V30 1853 H 180.887 -1.68569 -1.15778 0
M  V30 1854 H 179.042 -1.37545 -3.6216 0
M  V30 1855 H 179.456 -3.57889 -3.83426 0
M  V30 1856 H 180.93 -2.33101 -5.00368 0
M  V30 1857 H 181.407 -0.777499 -4.32263 0
M  V30 1858 H 182.013 -2.28059 -3.58984 0
M  V30 1859 N 180.328 1.1314 -1.09713 0
M  V30 1860 C 181.275 2.18642 -0.739196 0
M  V30 1861 C 182.245 1.63706 0.280978 0
M  V30 1862 O 183.43 1.90111 0.161946 0
M  V30 1863 C 180.57 3.44685 -0.169102 0
M  V30 1864 C 179.683 4.13711 -1.24367 0
M  V30 1865 C 178.818 5.27379 -0.636019 0
M  V30 1866 C 177.857 5.88259 -1.69169 0
M  V30 1867 N 176.994 6.93352 -1.10485 0
M  V30 1868 H 181.834 2.48607 -1.64312 0
M  V30 1869 H 179.371 1.22066 -0.820875 0
M  V30 1870 H 181.329 4.16815 0.179256 0
M  V30 1871 H 179.959 3.15161 0.698079 0
M  V30 1872 H 179.011 3.39835 -1.70927 0
M  V30 1873 H 180.323 4.55037 -2.04311 0
M  V30 1874 H 179.477 6.06238 -0.236677 0
M  V30 1875 H 178.216 4.8731 0.194928 0
M  V30 1876 H 177.221 5.08092 -2.10055 0
M  V30 1877 H 178.446 6.30399 -2.52536 0
M  V30 1878 H 176.392 6.55335 -0.295234 0
M  V30 1879 H 176.309 7.33236 -1.84121 0
M  V30 1880 H 177.577 7.76057 -0.73181 0
M  V30 1881 N 181.806 0.884767 1.30421 0
M  V30 1882 C 183.054 0.502112 1.95763 0
M  V30 1883 C 183.375 -0.951815 1.70192 0
M  V30 1884 O 182.645 -1.6692 1.0254 0
M  V30 1885 H 181.225 0.182694 0.724315 0
M  V30 1886 H 183.887 1.1278 1.58955 0
M  V30 1887 H 182.983 0.672188 3.04775 0
M  V30 1888 N 183.284 -1.43765 0.645699 0
M  V30 1889 C 184.695 -1.85193 0.236719 0
M  V30 1890 C 185.046 -1.54045 -1.21509 0
M  V30 1891 O 184.171 -0.985694 -1.92647 0
M  V30 1892 C 184.766 -3.36151 0.422845 0
M  V30 1893 C 183.325 -3.76338 0.0682492 0
M  V30 1894 C 182.472 -2.67538 0.729306 0
M  V30 1895 H 185.423 -1.34025 0.849883 0
M  V30 1896 H 185.444 -3.79032 -0.333904 0
M  V30 1897 H 184.956 -3.5879 1.47958 0
M  V30 1898 H 183.057 -3.59312 -0.986179 0
M  V30 1899 H 183.17 -4.76603 0.488469 0
M  V30 1900 H 181.534 -2.54176 0.163235 0
M  V30 1901 H 182.317 -2.93006 1.78892 0
M  V30 1902 N 184.763 -0.387143 -1.52771 0
M  V30 1903 C 185.988 0.198407 -2.06449 0
M  V30 1904 C 186.413 1.39918 -1.25716 0
M  V30 1905 O 185.771 1.79099 -0.281657 0
M  V30 1906 C 185.819 0.548893 -3.56398 0
M  V30 1907 O 184.923 1.64315 -3.78252 0
M  V30 1908 H 184.264 0.0237731 -0.663574 0
M  V30 1909 H 186.794 -0.553989 -1.96957 0
M  V30 1910 H 186.804 0.813812 -3.99801 0
M  V30 1911 H 185.479 -0.329005 -4.14597 0
M  V30 1912 H 184.056 1.37211 -3.46738 0
M  V30 1913 N 186.241 1.57166 -0.116904 0
M  V30 1914 C 187.487 1.95412 0.542405 0
M  V30 1915 C 187.82 1.00019 1.66463 0
M  V30 1916 O 187.095 0.0370346 1.94465 0
M  V30 1917 C 187.378 3.43615 1.07708 0
M  V30 1918 C 187.231 4.49781 -0.0415868 0
M  V30 1919 C 188.55 3.93616 1.96861 0
M  V30 1920 H 185.669 0.710543 0.195696 0
M  V30 1921 H 188.311 1.89027 -0.192038 0
M  V30 1922 H 186.461 3.49187 1.70296 0
M  V30 1923 H 188.133 4.56308 -0.676793 0
M  V30 1924 H 186.376 4.28033 -0.705019 0
M  V30 1925 H 187.047 5.50733 0.373717 0
M  V30 1926 H 189.523 3.90335 1.44146 0
M  V30 1927 H 188.399 4.97838 2.3119 0
M  V30 1928 H 188.66 3.34188 2.89432 0
M  V30 1929 N 187.719 -0.156864 1.56817 0
M  V30 1930 C 188.966 -0.871125 1.82805 0
M  V30 1931 C 189.294 -1.81611 0.696262 0
M  V30 1932 O 188.549 -1.93141 -0.315459 0
M  V30 1933 C 188.848 -1.68737 3.1506 0
M  V30 1934 C 188.514 -0.890045 4.42028 0
M  V30 1935 C 187.176 -0.670042 4.76512 0
M  V30 1936 C 189.528 -0.331769 5.20143 0
M  V30 1937 C 186.856 0.119104 5.86579 0
M  V30 1938 C 189.208 0.444365 6.31037 0
M  V30 1939 C 187.872 0.675035 6.64078 0
M  V30 1940 H 187.142 -0.318767 0.668931 0
M  V30 1941 H 189.789 -0.135274 1.91022 0
M  V30 1942 H 188.094 -2.49304 3.0225 0
M  V30 1943 H 189.791 -2.24331 3.3238 0
M  V30 1944 H 186.381 -1.07157 4.14988 0
M  V30 1945 H 190.565 -0.489043 4.93885 0
M  V30 1946 H 185.821 0.307417 6.10627 0
M  V30 1947 H 189.995 0.884139 6.90765 0
M  V30 1948 H 187.622 1.28839 7.49203 0
M  V30 1949 N 189.197 -1.51736 -0.425897 0
M  V30 1950 C 190.608 -1.5732 -1.00536 0
M  V30 1951 C 190.959 -0.403537 -1.92005 0
M  V30 1952 O 190.084 0.478256 -2.11049 0
M  V30 1953 C 190.679 -2.85119 -1.8301 0
M  V30 1954 C 189.238 -2.93236 -2.35987 0
M  V30 1955 C 188.385 -2.52098 -1.15508 0
M  V30 1956 H 191.336 -1.57348 -0.206739 0
M  V30 1957 H 191.357 -2.69526 -2.68581 0
M  V30 1958 H 190.869 -3.7023 -1.16411 0
M  V30 1959 H 188.97 -2.12581 -3.06007 0
M  V30 1960 H 189.083 -3.9713 -2.68001 0
M  V30 1961 H 187.447 -2.05558 -1.50393 0
M  V30 1962 H 188.23 -3.39565 -0.505014 0
M  V30 1963 N 190.675 0.682077 -1.42076 0
M  V30 1964 C 191.605 1.80796 -1.47767 0
M  V30 1965 C 192.586 1.6677 -0.334954 0
M  V30 1966 O 193.771 1.863 -0.548264 0
M  V30 1967 C 190.901 3.19038 -1.37229 0
M  V30 1968 C 189.855 3.47789 -2.49453 0
M  V30 1969 C 189.181 4.8553 -2.23975 0
M  V30 1970 C 190.481 3.45411 -3.91776 0
M  V30 1971 H 192.175 1.7629 -2.41997 0
M  V30 1972 H 189.721 0.846721 -1.16476 0
M  V30 1973 H 191.674 3.97528 -1.39821 0
M  V30 1974 H 190.398 3.24204 -0.394907 0
M  V30 1975 H 189.057 2.71657 -2.46166 0
M  V30 1976 H 188.705 4.87337 -1.24547 0
M  V30 1977 H 188.405 5.0573 -2.99184 0
M  V30 1978 H 189.929 5.66312 -2.28304 0
M  V30 1979 H 191.343 4.13882 -3.96705 0
M  V30 1980 H 189.74 3.77145 -4.66778 0
M  V30 1981 H 190.81 2.44122 -4.18966 0
M  V30 1982 N 192.153 1.28127 0.917671 0
M  V30 1983 C 193.116 1.11744 2.00115 0
M  V30 1984 C 194.116 0.0583052 1.60694 0
M  V30 1985 O 195.306 0.303755 1.71531 0
M  V30 1986 C 192.438 0.704862 3.33533 0
M  V30 1987 H 193.631 2.07966 2.16079 0
M  V30 1988 H 191.184 1.11058 1.09981 0
M  V30 1989 H 191.919 -0.258299 3.2327 0
M  V30 1990 H 191.704 1.4699 3.63505 0
M  V30 1991 H 193.194 0.612768 4.1308 0
M  V30 1992 N 193.631 -1.12557 1.10312 0
M  V30 1993 C 195.042 -1.65574 0.862678 0
M  V30 1994 C 195.393 -1.86566 -0.607256 0
M  V30 1995 O 194.518 -1.59121 -1.46662 0
M  V30 1996 C 195.113 -3.00776 1.55947 0
M  V30 1997 C 193.672 -3.50748 1.36576 0
M  V30 1998 C 192.819 -2.25797 1.60968 0
M  V30 1999 H 195.77 -0.963552 1.26101 0
M  V30 2000 H 195.791 -3.67185 0.997753 0
M  V30 2001 H 195.303 -2.85465 2.62928 0
M  V30 2002 H 193.404 -3.71245 0.317531 0
M  V30 2003 H 193.517 -4.30289 2.10686 0
M  V30 2004 H 191.881 -2.32841 1.03234 0
M  V30 2005 H 192.664 -2.13043 2.69198 0
M  V30 2006 N 195.109 -0.891671 -1.2995 0
M  V30 2007 C 196.349 -0.520296 -1.97667 0
M  V30 2008 C 196.713 0.914797 -1.68806 0
M  V30 2009 O 197.914 1.39263 -2.29911 0
M  V30 2010 C 196.185 -0.795222 -3.48441 0
M  V30 2011 S 197.744 -0.526953 -4.35624 0
M  V30 2012 H 194.562 -0.19333 -0.684211 0
M  V30 2013 H 197.164 -1.15238 -1.57926 0
M  V30 2014 H 195.868 -1.83805 -3.66938 0
M  V30 2015 H 195.399 -0.15095 -3.9311 0
M  V30 2016 H 197.414 0.631533 -4.92165 0
M  V30 2017 N 196.587 1.43421 -0.653314 0
M  V30 2018 C 197.812 2.06678 -0.172846 0
M  V30 2019 C 198.237 1.48648 1.15262 0
M  V30 2020 O 197.595 0.596457 1.71208 0
M  V30 2021 C 197.643 3.60474 -0.0953184 0
M  V30 2022 O 196.747 4.01487 0.942442 0
M  V30 2023 H 196.088 0.657181 -0.0949155 0
M  V30 2024 H 198.618 1.83925 -0.896265 0
M  V30 2025 H 198.628 4.07905 0.0879728 0
M  V30 2026 H 197.303 4.02088 -1.06291 0
M  V30 2027 H 195.88 3.65646 0.731932 0
M  V30 2028 N 198.065 0.39524 1.52563 0
M  V30 2029 C 199.481 0.0454682 1.59535 0
M  V30 2030 C 199.681 -1.44056 1.4089 0
M  V30 2031 O 198.737 -2.20579 1.22888 0
M  V30 2032 C 200.05 0.527963 2.96029 0
M  V30 2033 C 201.598 0.484733 3.09224 0
M  V30 2034 C 202.073 0.943512 4.48176 0
M  V30 2035 N 203.564 0.899765 4.54377 0
M  V30 2036 C 204.299 1.22609 5.60138 0
M  V30 2037 N 203.795 1.62319 6.73516 0
M  V30 2038 N 205.588 1.14696 5.50274 0
M  V30 2039 H 197.739 1.36261 1.62931 0
M  V30 2040 H 200.002 0.558887 0.765735 0
M  V30 2041 H 199.708 1.56607 3.14908 0
M  V30 2042 H 199.582 -0.0698056 3.77135 0
M  V30 2043 H 201.969 -0.544298 2.90037 0
M  V30 2044 H 202.05 1.11838 2.30056 0
M  V30 2045 H 201.694 1.9708 4.68104 0
M  V30 2046 H 201.624 0.286817 5.25818 0
M  V30 2047 H 204.115 0.607632 3.72983 0
M  V30 2048 H 204.428 1.85567 7.5019 0
M  V30 2049 H 202.773 1.66211 6.74833 0
M  V30 2050 H 205.964 0.835701 4.6058 0
M  V30 2051 H 206.137 1.40459 6.32594 0
M  V30 2052 N 199.544 -1.57102 0.125237 0
M  V30 2053 C 200.769 -2.0019 -0.542101 0
M  V30 2054 C 201.194 -1.00449 -1.59034 0
M  V30 2055 O 200.552 0.0229423 -1.81285 0
M  V30 2056 C 200.6 -3.42129 -1.13929 0
M  V30 2057 O 199.704 -3.45307 -2.2547 0
M  V30 2058 H 199.045 -0.650171 -0.134812 0
M  V30 2059 H 201.575 -2.03461 0.215553 0
M  V30 2060 H 201.585 -3.80471 -1.4733 0
M  V30 2061 H 200.26 -4.14237 -0.371531 0
M  V30 2062 H 198.837 -3.1879 -1.93462 0
M  V30 2063 N 201.022 0.148545 -1.56898 0
M  V30 2064 C 202.25 0.876389 -1.87422 0
M  V30 2065 C 202.665 1.74809 -0.713256 0
M  V30 2066 O 202.022 1.79725 0.317025 0
M  V30 2067 C 202.073 1.73438 -3.17178 0
M  V30 2068 O 201.794 0.897809 -4.28802 0
M  V30 2069 C 203.295 2.56993 -3.61205 0
M  V30 2070 H 200.515 0.253489 -0.621277 0
M  V30 2071 H 203.059 0.141798 -2.04008 0
M  V30 2072 H 201.214 2.42205 -3.0235 0
M  V30 2073 H 201.628 1.48672 -5.02988 0
M  V30 2074 H 203.102 3.12773 -4.54838 0
M  V30 2075 H 203.579 3.32958 -2.86419 0
M  V30 2076 H 204.185 1.9352 -3.78722 0
M  V30 2077 N 202.5 1.5196 0.417844 0
M  V30 2078 C 203.725 1.69717 1.1921 0
M  V30 2079 C 204.15 0.402148 1.83751 0
M  V30 2080 O 203.508 -0.639593 1.69643 0
M  V30 2081 C 203.556 2.82794 2.2374 0
M  V30 2082 O 202.66 2.47756 3.29683 0
M  V30 2083 H 202.001 0.565263 0.348387 0
M  V30 2084 H 204.531 1.98621 0.490985 0
M  V30 2085 H 204.541 3.07452 2.68212 0
M  V30 2086 H 203.216 3.76756 1.76146 0
M  V30 2087 H 201.793 2.33739 2.90552 0
M  V30 2088 N 203.978 -0.674533 1.42435 0
M  V30 2089 C 204.888 -1.81751 1.48337 0
M  V30 2090 C 205.904 -1.69975 0.372099 0
M  V30 2091 O 207.08 -1.91521 0.62304 0
M  V30 2092 C 204.145 -3.17895 1.38361 0
M  V30 2093 C 203.206 -3.41625 2.59982 0
M  V30 2094 C 202.439 -4.71274 2.50473 0
M  V30 2095 O 202.662 -5.49197 1.54075 0
M  V30 2096 O 201.596 -4.96254 3.4061 0
M  V30 2097 H 205.422 -1.79728 2.44809 0
M  V30 2098 H 203.007 -0.830312 1.24202 0
M  V30 2099 H 204.889 -3.99136 1.35161 0
M  V30 2100 H 203.564 -3.20555 0.450144 0
M  V30 2101 H 202.471 -2.60231 2.68757 0
M  V30 2102 H 203.804 -3.43796 3.52229 0
M  V30 2103 N 205.456 -1.28612 -0.910864 0
M  V30 2104 C 206.681 -1.1891 -1.69927 0
M  V30 2105 C 207.106 0.248372 -1.86453 0
M  V30 2106 O 206.464 1.17961 -1.37676 0
M  V30 2107 C 206.512 -1.89578 -3.06745 0
M  V30 2108 O 205.616 -1.20521 -3.94396 0
M  V30 2109 H 204.957 -0.412632 -0.520222 0
M  V30 2110 H 207.487 -1.69985 -1.1387 0
M  V30 2111 H 207.497 -1.97597 -3.56958 0
M  V30 2112 H 206.172 -2.94136 -2.94035 0
M  V30 2113 H 204.749 -1.20684 -3.52831 0
M  V30 2114 N 206.934 1.1197 -1.10907 0
M  V30 2115 C 208.162 1.87402 -0.876824 0
M  V30 2116 C 208.577 1.79894 0.573025 0
M  V30 2117 O 207.934 1.17629 1.39534 0
M  V30 2118 C 207.985 3.36428 -1.32282 0
M  V30 2119 O 207.706 3.43765 -2.71582 0
M  V30 2120 C 209.207 4.28783 -1.12518 0
M  V30 2121 H 206.427 0.592793 -0.314384 0
M  V30 2122 H 208.971 1.41649 -1.47499 0
M  V30 2123 H 207.126 3.79706 -0.768229 0
M  V30 2124 H 207.54 4.3652 -2.90776 0
M  V30 2125 H 209.014 5.31613 -1.48633 0
M  V30 2126 H 209.491 4.39153 -0.0642394 0
M  V30 2127 H 210.097 3.91291 -1.66648 0
M  V30 2128 N 208.412 0.89855 1.29475 0
M  V30 2129 C 209.375 0.380272 2.26023 0
M  V30 2130 C 210.375 -0.484891 1.53315 0
M  V30 2131 O 211.565 -0.290108 1.71767 0
M  V30 2132 C 208.697 -0.45651 3.3783 0
M  V30 2133 H 209.89 1.23295 2.73383 0
M  V30 2134 H 207.443 0.676589 1.40897 0
M  V30 2135 H 208.178 -1.32922 2.95808 0
M  V30 2136 H 207.963 0.163393 3.91759 0
M  V30 2137 H 209.453 -0.810466 4.0966 0
M  V30 2138 N 209.89 -1.43072 0.660911 0
M  V30 2139 C 210.853 -2.29194 -0.0166406 0
M  V30 2140 C 211.853 -1.42609 -0.742912 0
M  V30 2141 O 213.043 -1.64155 -0.583004 0
M  V30 2142 C 210.175 -3.24831 -1.0343 0
M  V30 2143 H 211.368 -2.90596 0.741208 0
M  V30 2144 H 208.921 -1.5048 0.422532 0
M  V30 2145 H 209.656 -2.68339 -1.82111 0
M  V30 2146 H 209.441 -3.88676 -0.517082 0
M  V30 2147 H 210.931 -3.89451 -1.50723 0
M  V30 2148 N 211.368 -0.403325 -1.52352 0
M  V30 2149 C 212.298 0.416205 -2.29761 0
M  V30 2150 C 213.279 1.05123 -1.33728 0
M  V30 2151 O 214.464 1.06134 -1.62632 0
M  V30 2152 C 211.594 1.53624 -3.11475 0
M  V30 2153 C 210.548 1.02653 -4.15507 0
M  V30 2154 C 209.874 2.23971 -4.85532 0
M  V30 2155 C 211.174 0.08463 -5.22231 0
M  V30 2156 H 212.868 -0.229701 -2.98518 0
M  V30 2157 H 210.414 -0.111913 -1.43564 0
M  V30 2158 H 212.367 2.1165 -3.64393 0
M  V30 2159 H 211.091 2.20994 -2.40477 0
M  V30 2160 H 209.75 0.46871 -3.63591 0
M  V30 2161 H 209.398 2.89883 -4.11068 0
M  V30 2162 H 209.098 1.90521 -5.55856 0
M  V30 2163 H 210.622 2.82614 -5.41259 0
M  V30 2164 H 212.036 0.573509 -5.70424 0
M  V30 2165 H 210.433 -0.160783 -5.99885 0
M  V30 2166 H 211.503 -0.86237 -4.7717 0
M  V30 2167 N 212.846 1.57033 -0.133567 0
M  V30 2168 C 214.094 1.953 0.519848 0
M  V30 2169 C 214.415 1.01866 1.66278 0
M  V30 2170 O 213.685 0.0776513 1.95746 0
M  V30 2171 H 212.265 0.721091 0.195032 0
M  V30 2172 H 214.927 1.93809 -0.205921 0
M  V30 2173 H 214.023 2.98695 0.904854 0
M  V30 2174 N 214.325 -0.140222 1.56975 0
M  V30 2175 C 215.565 -0.857823 1.85528 0
M  V30 2176 C 215.929 -1.78039 0.718768 0
M  V30 2177 O 217.13 -2.53795 0.885521 0
M  V30 2178 C 215.401 -1.60615 3.19277 0
M  V30 2179 S 216.96 -2.36824 3.69405 0
M  V30 2180 H 213.778 -0.286727 0.650622 0
M  V30 2181 H 216.38 -0.117408 1.95147 0
M  V30 2182 H 215.084 -0.919994 3.99955 0
M  V30 2183 H 214.615 -2.38735 3.12681 0
M  V30 2184 H 216.63 -3.62148 3.3921 0
M  V30 2185 N 215.803 -1.52179 -0.40978 0
M  V30 2186 C 216.733 -1.78435 -1.5061 0
M  V30 2187 C 217.714 -0.635295 -1.57791 0
M  V30 2188 O 218.899 -0.880823 -1.73076 0
M  V30 2189 C 216.029 -1.93444 -2.88439 0
M  V30 2190 C 214.983 -3.09038 -2.96108 0
M  V30 2191 C 214.309 -3.09268 -4.36185 0
M  V30 2192 C 215.609 -4.48508 -2.67652 0
M  V30 2193 H 217.303 -2.70237 -1.28889 0
M  V30 2194 H 214.849 -1.30036 -0.618605 0
M  V30 2195 H 216.802 -2.10394 -3.65119 0
M  V30 2196 H 215.526 -0.983129 -3.11452 0
M  V30 2197 H 214.185 -2.91837 -2.21872 0
M  V30 2198 H 213.833 -2.11861 -4.56206 0
M  V30 2199 H 213.533 -3.86907 -4.42241 0
M  V30 2200 H 215.057 -3.28348 -5.14801 0
M  V30 2201 H 216.471 -4.65918 -3.34056 0
M  V30 2202 H 214.868 -5.28059 -2.85085 0
M  V30 2203 H 215.938 -4.56649 -1.63095 0
M  V30 2204 N 217.281 0.66697 -1.42791 0
M  V30 2205 C 218.527 1.4291 -1.43891 0
M  V30 2206 C 218.86 1.94114 -0.0578972 0
M  V30 2207 O 218.135 1.71414 0.91911 0
M  V30 2208 C 218.418 2.62049 -2.46987 0
M  V30 2209 C 218.271 2.16426 -3.94309 0
M  V30 2210 C 219.59 3.64266 -2.46978 0
M  V30 2211 H 216.709 0.518306 -0.523954 0
M  V30 2212 H 219.351 0.757321 -1.74255 0
M  V30 2213 H 217.501 3.19361 -2.21225 0
M  V30 2214 H 219.173 1.64221 -4.31079 0
M  V30 2215 H 217.416 1.47925 -4.078 0
M  V30 2216 H 218.087 3.02038 -4.62036 0
M  V30 2217 H 220.563 3.16686 -2.69906 0
M  V30 2218 H 219.439 4.45196 -3.21079 0
M  V30 2219 H 219.7 4.15927 -1.49857 0
M  V30 2220 N 218.759 1.29093 0.90403 0
M  V30 2221 C 219.706 1.13853 2.00764 0
M  V30 2222 C 220.676 0.0330084 1.66067 0
M  V30 2223 O 221.861 0.199733 1.89752 0
M  V30 2224 C 219.001 0.816537 3.35301 0
M  V30 2225 C 218.114 2.00206 3.82807 0
M  V30 2226 C 217.249 1.61983 5.059 0
M  V30 2227 C 216.288 2.77143 5.45764 0
M  V30 2228 N 215.425 2.39346 6.60044 0
M  V30 2229 H 220.265 2.08276 2.13132 0
M  V30 2230 H 217.802 1.03648 1.04381 0
M  V30 2231 H 219.76 0.610557 4.12708 0
M  V30 2232 H 218.39 -0.090779 3.22672 0
M  V30 2233 H 217.442 2.31988 3.01473 0
M  V30 2234 H 218.754 2.86512 4.08304 0
M  V30 2235 H 217.908 1.37649 5.90879 0
M  V30 2236 H 216.647 0.728202 4.82233 0
M  V30 2237 H 215.652 3.02165 4.59322 0
M  V30 2238 H 216.877 3.66964 5.71414 0
M  V30 2239 H 214.823 1.52665 6.37989 0
M  V30 2240 H 214.74 3.19185 6.85315 0
M  V30 2241 H 216.008 2.1832 7.48303 0
M  V30 2242 N 220.237 -1.11381 1.11499 0
M  V30 2243 C 221.514 -1.7955 0.775965 0
M  V30 2244 C 221.894 -1.97859 -0.73588 0
M  V30 2245 O 221.242 -1.56376 -1.66609 0
M  V30 2246 C 221.452 -3.13196 1.53977 0
M  V30 2247 C 222.8 -3.88227 1.71944 0
M  V30 2248 O 223.824 -3.22887 1.50407 0
M  V30 2249 O 222.683 -5.05477 2.07738 0
M  V30 2250 H 219.777 -0.777728 0.28119 0
M  V30 2251 H 222.323 -1.18118 1.21845 0
M  V30 2252 H 221.095 -2.95229 2.56818 0
M  V30 2253 H 220.718 -3.82342 1.09088 0
M  V30 2254 N 221.715 -0.905404 -1.28997 0
M  V30 2255 C 222.945 -0.549049 -1.99171 0
M  V30 2256 C 223.353 0.87203 -1.67906 0
M  V30 2257 O 222.696 1.58796 -0.923561 0
M  V30 2258 C 222.758 -0.668306 -3.53234 0
M  V30 2259 C 222.422 -2.0574 -4.08069 0
M  V30 2260 C 223.419 -3.0292 -4.22534 0
M  V30 2261 C 221.104 -2.36833 -4.42962 0
M  V30 2262 C 223.098 -4.29314 -4.71135 0
M  V30 2263 C 220.785 -3.63467 -4.91258 0
M  V30 2264 C 221.783 -4.59522 -5.053 0
M  V30 2265 O 221.471 -5.83907 -5.52546 0
M  V30 2266 H 221.203 -0.208784 -0.64295 0
M  V30 2267 H 223.757 -1.21836 -1.65363 0
M  V30 2268 H 221.987 0.0580547 -3.86656 0
M  V30 2269 H 223.676 -0.320273 -4.04634 0
M  V30 2270 H 224.442 -2.80216 -3.95859 0
M  V30 2271 H 220.321 -1.62824 -4.31288 0
M  V30 2272 H 223.865 -5.04293 -4.8201 0
M  V30 2273 H 219.762 -3.86 -5.17372 0
M  V30 2274 H 220.53 -5.86578 -5.70849 0
M  V30 2275 N 223.193 1.4272 -0.668489 0
M  V30 2276 C 224.44 2.01624 -0.18814 0
M  V30 2277 C 224.768 1.5282 1.20317 0
M  V30 2278 O 224.023 0.718323 1.8204 0
M  V30 2279 C 224.322 3.57021 -0.164499 0
M  V30 2280 C 223.988 4.25232 -1.49962 0
M  V30 2281 C 222.65 4.4358 -1.8652 0
M  V30 2282 C 225.002 4.63727 -2.37921 0
M  V30 2283 C 222.33 4.97694 -3.10674 0
M  V30 2284 C 224.682 5.19218 -3.6138 0
M  V30 2285 C 223.346 5.3578 -3.98115 0
M  V30 2286 H 222.616 0.737795 -0.0688454 0
M  V30 2287 H 225.263 1.70991 -0.862225 0
M  V30 2288 H 223.568 3.87285 0.593079 0
M  V30 2289 H 225.265 4.00372 0.224271 0
M  V30 2290 H 221.855 4.11306 -1.20522 0
M  V30 2291 H 226.039 4.4923 -2.10964 0
M  V30 2292 H 221.295 5.08702 -3.39164 0
M  V30 2293 H 225.469 5.4799 -4.29743 0
M  V30 2294 H 223.096 5.77475 -4.94395 0
M  V30 2295 N 224.671 0.411399 1.52136 0
M  V30 2296 C 226.082 -0.0576826 1.86611 0
M  V30 2297 C 226.433 -1.44238 1.33003 0
M  V30 2298 O 225.558 -2.05759 0.670228 0
M  V30 2299 C 226.153 -0.111448 3.38617 0
M  V30 2300 C 224.712 -0.52487 3.72723 0
M  V30 2301 C 223.859 0.299176 2.75681 0
M  V30 2302 H 226.81 0.628368 1.4573 0
M  V30 2303 H 226.831 -0.926252 3.69054 0
M  V30 2304 H 226.343 0.896488 3.77604 0
M  V30 2305 H 224.444 -1.53936 3.39315 0
M  V30 2306 H 224.557 -0.267681 4.78352 0
M  V30 2307 H 222.921 -0.238814 2.53578 0
M  V30 2308 H 223.704 1.3055 3.17508 0
M  V30 2309 N 226.149 -1.5696 0.141893 0
M  V30 2310 C 227.059 -2.20066 -0.812905 0
M  V30 2311 C 228.075 -1.18344 -1.27557 0
M  V30 2312 O 229.251 -1.50902 -1.33381 0
M  V30 2313 C 226.316 -2.80583 -2.03652 0
M  V30 2314 C 225.377 -3.97414 -1.62359 0
M  V30 2315 C 224.61 -4.55036 -2.78887 0
M  V30 2316 O 224.833 -4.11538 -3.94959 0
M  V30 2317 O 223.767 -5.45376 -2.54653 0
M  V30 2318 H 227.593 -3.02157 -0.305746 0
M  V30 2319 H 225.178 -1.49159 -0.0848799 0
M  V30 2320 H 227.06 -3.19067 -2.75272 0
M  V30 2321 H 225.735 -2.01508 -2.5333 0
M  V30 2322 H 224.642 -3.63656 -0.877775 0
M  V30 2323 H 225.975 -4.77994 -1.17401 0
M  V30 2324 N 227.627 0.131896 -1.57047 0
M  V30 2325 C 229.038 0.690407 -1.73465 0
M  V30 2326 C 229.389 1.8094 -0.758629 0
M  V30 2327 O 228.514 2.16282 0.0713813 0
M  V30 2328 C 229.109 1.25916 -3.14532 0
M  V30 2329 C 227.668 1.76409 -3.32501 0
M  V30 2330 C 226.815 0.658579 -2.69366 0
M  V30 2331 H 229.766 -0.0939144 -1.58422 0
M  V30 2332 H 229.787 2.12892 -3.15369 0
M  V30 2333 H 229.299 0.444515 -3.85546 0
M  V30 2334 H 227.4 2.60391 -2.66509 0
M  V30 2335 H 227.513 1.88241 -4.4057 0
M  V30 2336 H 225.877 1.08899 -2.30246 0
M  V30 2337 H 226.66 -0.14487 -3.42994 0
M  V30 2338 N 229.106 1.52395 0.401703 0
M  V30 2339 C 230.352 1.67065 1.14966 0
M  V30 2340 C 230.685 0.403052 1.89971 0
M  V30 2341 O 229.96 -0.598774 1.85054 0
M  V30 2342 C 230.243 2.8975 2.13815 0
M  V30 2343 C 230.096 4.26578 1.42658 0
M  V30 2344 C 231.415 3.07965 3.14397 0
M  V30 2345 H 228.534 0.607968 0.416587 0
M  V30 2346 H 231.176 1.84965 0.434511 0
M  V30 2347 H 229.326 2.74619 2.74803 0
M  V30 2348 H 230.998 4.53451 0.847329 0
M  V30 2349 H 229.241 4.27639 0.72849 0
M  V30 2350 H 229.912 5.08483 2.14823 0
M  V30 2351 H 232.388 3.22043 2.63491 0
M  V30 2352 H 231.264 3.95308 3.80819 0
M  V30 2353 H 231.525 2.21611 3.82545 0
M  V30 2354 N 230.584 -0.659388 1.43143 0
M  V30 2355 C 231.812 -1.44723 1.47861 0
M  V30 2356 C 232.227 -1.88563 0.0945886 0
M  V30 2357 O 231.584 -1.59108 -0.893915 0
M  V30 2358 C 231.635 -2.68627 2.41913 0
M  V30 2359 O 231.356 -2.26623 3.74932 0
M  V30 2360 C 232.857 -3.62045 2.55809 0
M  V30 2361 H 230.077 -0.444801 0.502387 0
M  V30 2362 H 232.621 -0.808916 1.87821 0
M  V30 2363 H 230.776 -3.28613 2.05164 0
M  V30 2364 H 231.19 -3.06745 4.2545 0
M  V30 2365 H 232.664 -4.45666 3.25708 0
M  V30 2366 H 233.141 -4.08981 1.60099 0
M  V30 2367 H 233.747 -3.07944 2.93344 0
M  V30 2368 N 232.062 -1.29571 -0.897171 0
M  V30 2369 C 233.308 -1.17863 -1.65034 0
M  V30 2370 C 233.641 0.268729 -1.92332 0
M  V30 2371 O 232.916 1.19378 -1.53555 0
M  V30 2372 C 233.199 -1.995 -2.99786 0
M  V30 2373 C 233.052 -3.5239 -2.79538 0
M  V30 2374 C 234.371 -1.82335 -4.00552 0
M  V30 2375 H 231.49 -0.429528 -0.598895 0
M  V30 2376 H 234.132 -1.59072 -1.03905 0
M  V30 2377 H 232.282 -1.64485 -3.51962 0
M  V30 2378 H 233.954 -3.97401 -2.34244 0
M  V30 2379 H 232.197 -3.77187 -2.14273 0
M  V30 2380 H 232.868 -4.04787 -3.75302 0
M  V30 2381 H 235.344 -2.12924 -3.57495 0
M  V30 2382 H 234.22 -2.41801 -4.92771 0
M  V30 2383 H 234.481 -0.779209 -4.35179 0
M  V30 2384 N 233.54 1.10788 -1.12088 0
M  V30 2385 C 234.765 1.87002 -0.896949 0
M  V30 2386 C 235.19 1.79933 0.548261 0
M  V30 2387 O 234.548 1.16662 1.38779 0
M  V30 2388 C 234.596 3.3349 -1.37174 0
M  V30 2389 O 233.7 4.08745 -0.547831 0
M  V30 2390 H 233.041 0.580397 -0.322545 0
M  V30 2391 H 235.571 1.39996 -1.49206 0
M  V30 2392 H 235.581 3.84339 -1.36922 0
M  V30 2393 H 234.256 3.37951 -2.42408 0
M  V30 2394 H 232.833 3.6776 -0.617034 0
M  V30 2395 N 235.018 0.912232 1.28515 0
M  V30 2396 C 236.264 0.554851 1.95686 0
M  V30 2397 C 236.619 -0.89138 1.70506 0
M  V30 2398 O 235.912 -1.62529 1.01464 0
M  V30 2399 C 236.106 0.798392 3.48368 0
M  V30 2400 C 235.935 2.26674 3.88393 0
M  V30 2401 C 234.705 2.91657 4.12631 0
M  V30 2402 C 236.903 3.24303 3.99164 0
M  V30 2403 N 234.885 4.28805 4.39317 0
M  V30 2404 C 236.256 4.4661 4.30046 0
M  V30 2405 C 238.311 3.19723 3.81683 0
M  V30 2406 C 237.014 5.64915 4.45268 0
M  V30 2407 C 239.04 4.37325 3.98121 0
M  V30 2408 C 238.402 5.58406 4.29375 0
M  V30 2409 H 234.501 0.252876 0.739985 0
M  V30 2410 H 237.085 1.17565 1.55199 0
M  V30 2411 H 235.256 0.20688 3.87849 0
M  V30 2412 H 236.988 0.405193 4.02666 0
M  V30 2413 H 233.743 2.42393 4.06869 0
M  V30 2414 H 234.167 4.99712 4.56746 0
M  V30 2415 H 238.809 2.27191 3.56573 0
M  V30 2416 H 236.527 6.57927 4.6921 0
M  V30 2417 H 240.113 4.35282 3.86033 0
M  V30 2418 H 238.993 6.47889 4.41825 0
M  V30 2419 N 236.496 -1.42363 0.676048 0
M  V30 2420 C 237.444 -2.32596 -0.0131507 0
M  V30 2421 C 238.438 -1.49891 -0.789238 0
M  V30 2422 O 239.644 -1.65955 -0.697061 0
M  V30 2423 H 236.019 -0.751647 -0.0230481 0
M  V30 2424 H 237.99 -2.88421 0.765243 0
M  V30 2425 C 236.739 -3.34479 -0.949702 0
M  V30 2426 H 236.062 -3.98158 -0.361938 0
M  V30 2427 H 237.502 -4.00199 -1.4006 0
M  V30 2428 C 235.961 -2.66838 -2.05667 0
M  V30 2429 O 236.491 -2.50124 -3.14326 0
M  V30 2430 N 234.697 -2.25843 -1.82875 0
M  V30 2431 H 234.244 -2.39637 -0.945085 0
M  V30 2432 H 234.202 -1.80918 -2.5713 0
M  V30 2433 N 237.974 -0.419461 -1.51915 0
M  V30 2434 C 239.199 0.154572 -2.06823 0
M  V30 2435 C 239.624 1.3722 -1.28656 0
M  V30 2436 O 238.982 1.78461 -0.319583 0
M  V30 2437 C 239.03 0.473172 -3.57482 0
M  V30 2438 O 238.134 1.56255 -3.81652 0
M  V30 2439 H 237.475 0.0096924 -0.663929 0
M  V30 2440 H 240.005 -0.595642 -1.95738 0
M  V30 2441 H 240.015 0.728825 -4.01438 0
M  V30 2442 H 238.69 -0.416873 -4.13805 0
M  V30 2443 H 237.267 1.29825 -3.49571 0
M  V30 2444 N 239.452 1.56882 -0.150215 0
M  V30 2445 C 240.7 1.9584 0.499105 0
M  V30 2446 C 241.021 1.03623 1.65188 0
M  V30 2447 O 240.291 0.0984084 1.95653 0
M  V30 2448 H 238.871 0.723119 0.187373 0
M  V30 2449 H 241.533 1.9358 -0.226466 0
M  V30 2450 H 240.629 2.99638 0.873122 0
M  V30 2451 N 240.93 -0.123565 1.57115 0
M  V30 2452 C 241.893 -1.13583 1.99076 0
M  V30 2453 C 242.893 -1.34564 0.880296 0
M  V30 2454 O 244.083 -1.31158 1.14644 0
M  V30 2455 C 241.215 -2.49128 2.32698 0
M  V30 2456 H 242.408 -0.775287 2.89706 0
M  V30 2457 H 239.961 -0.36771 1.51913 0
M  V30 2458 H 240.696 -2.90111 1.44934 0
M  V30 2459 H 240.481 -2.35255 3.13684 0
M  V30 2460 H 241.971 -3.2199 2.65918 0
M  V30 2461 N 242.408 -1.52605 -0.393616 0
M  V30 2462 C 243.338 -1.80022 -1.48709 0
M  V30 2463 C 244.319 -0.651995 -1.57108 0
M  V30 2464 O 245.504 -0.89913 -1.72132 0
M  V30 2465 C 242.634 -1.96492 -2.86371 0
M  V30 2466 C 241.588 -3.12161 -2.92813 0
M  V30 2467 C 240.914 -3.13877 -4.3288 0
M  V30 2468 C 242.214 -4.51322 -2.6288 0
M  V30 2469 H 243.908 -2.71589 -1.26015 0
M  V30 2470 H 241.454 -1.30684 -0.604778 0
M  V30 2471 H 243.407 -2.14255 -3.62867 0
M  V30 2472 H 242.131 -1.01611 -3.10391 0
M  V30 2473 H 240.79 -2.94173 -2.18764 0
M  V30 2474 H 240.438 -2.16687 -4.53933 0
M  V30 2475 H 240.138 -3.91576 -4.38112 0
M  V30 2476 H 241.662 -3.33789 -5.1129 0
M  V30 2477 H 243.076 -4.69435 -3.29096 0
M  V30 2478 H 241.473 -5.31053 -2.79468 0
M  V30 2479 H 242.543 -4.58353 -1.58242 0
M  V30 2480 N 243.887 0.651787 -1.4349 0
M  V30 2481 C 245.115 1.43937 -1.48626 0
M  V30 2482 C 245.53 1.8851 -0.104587 0
M  V30 2483 O 244.887 1.5958 0.885464 0
M  V30 2484 C 244.938 2.6734 -2.43334 0
M  V30 2485 O 244.659 2.24631 -3.76128 0
M  V30 2486 C 246.16 3.60683 -2.57726 0
M  V30 2487 H 243.38 0.44213 -0.504739 0
M  V30 2488 H 245.924 0.798944 -1.88248 0
M  V30 2489 H 244.079 3.2752 -2.06904 0
M  V30 2490 H 244.493 3.04485 -4.2707 0
M  V30 2491 H 245.967 4.43933 -3.28067 0
M  V30 2492 H 246.444 4.08126 -1.62265 0
M  V30 2493 H 247.05 3.06384 -2.94973 0
M  V30 2494 N 245.365 1.30045 0.890287 0
M  V30 2495 C 246.59 1.21598 1.68014 0
M  V30 2496 C 247.015 -0.218678 1.86825 0
M  V30 2497 O 246.373 -1.15756 1.39536 0
M  V30 2498 C 246.421 1.94434 3.03691 0
M  V30 2499 O 245.525 1.2678 3.92429 0
M  V30 2500 H 244.866 0.420856 0.513592 0
M  V30 2501 H 247.396 1.71775 1.11151 0
M  V30 2502 H 247.406 2.03251 3.5377 0
M  V30 2503 H 246.081 2.98777 2.89318 0
M  V30 2504 H 244.658 1.26282 3.50866 0
M  V30 2505 N 246.843 -1.10192 1.12674 0
M  V30 2506 C 248.091 -1.81845 0.881861 0
M  V30 2507 C 248.412 -1.85737 -0.593867 0
M  V30 2508 O 247.682 -1.33724 -1.4316 0
M  V30 2509 H 246.262 -0.673432 0.323261 0
M  V30 2510 H 248.924 -1.33316 1.42172 0
M  V30 2511 H 248.02 -2.85288 1.2656 0
M  V30 2512 N 248.321 -0.919034 -1.28029 0
M  V30 2513 C 249.567 -0.555757 -1.95036 0
M  V30 2514 C 249.9 0.899198 -1.72128 0
M  V30 2515 O 249.175 1.64023 -1.04531 0
M  V30 2516 C 249.458 -0.872024 -3.49382 0
M  V30 2517 C 249.311 -2.3801 -3.81669 0
M  V30 2518 C 250.63 -0.37185 -4.38526 0
M  V30 2519 H 247.749 -0.203386 -0.708381 0
M  V30 2520 H 250.391 -1.14924 -1.51303 0
M  V30 2521 H 248.541 -0.366946 -3.86763 0
M  V30 2522 H 250.213 -2.9562 -3.54128 0
M  V30 2523 H 248.456 -2.83289 -3.28526 0
M  V30 2524 H 249.127 -2.55192 -4.8947 0
M  V30 2525 H 251.603 -0.804602 -4.08247 0
M  V30 2526 H 250.479 -0.622173 -5.45362 0
M  V30 2527 H 250.74 0.727934 -4.36066 0
M  V30 2528 N 249.799 1.42003 -0.683588 0
M  V30 2529 C 250.749 2.27997 0.0121992 0
M  V30 2530 C 251.733 1.4156 0.764822 0
M  V30 2531 O 252.925 1.64935 0.642287 0
M  V30 2532 C 250.054 3.29706 0.956482 0
M  V30 2533 C 249.14 4.23625 0.200739 0
M  V30 2534 N 249.531 4.99448 -0.799087 0
M  V30 2535 C 247.829 4.43845 0.437937 0
M  V30 2536 C 248.53 5.68102 -1.25041 0
M  V30 2537 N 247.506 5.40511 -0.578648 0
M  V30 2538 H 251.308 2.84048 -0.754564 0
M  V30 2539 H 248.822 1.54071 -0.513398 0
M  V30 2540 H 250.819 3.90124 1.47 0
M  V30 2541 H 249.479 2.75216 1.72297 0
M  V30 2542 H 250.49 5.04303 -1.17893 0
M  V30 2543 H 247.167 4.00382 1.18325 0
M  V30 2544 H 248.557 6.38913 -2.07942 0
M  V30 2545 N 251.277 0.427512 1.51691 0
M  V30 2546 C 252.505 -0.141191 2.06418 0
M  V30 2547 C 252.92 -1.37303 1.29589 0
M  V30 2548 O 252.277 -1.79059 0.352732 0
M  V30 2549 C 252.328 -0.473266 3.58389 0
M  V30 2550 O 252.049 0.709673 4.32314 0
M  V30 2551 C 253.55 -1.09371 4.29596 0
M  V30 2552 H 250.77 -0.0122747 0.670888 0
M  V30 2553 H 253.314 0.603764 1.95384 0
M  V30 2554 H 251.469 -1.16812 3.69369 0
M  V30 2555 H 251.883 0.42807 5.2275 0
M  V30 2556 H 253.357 -1.27613 5.37046 0
M  V30 2557 H 253.834 -2.072 3.87253 0
M  V30 2558 H 254.44 -0.43853 4.23033 0
M  V30 2559 N 252.755 -1.56801 0.158532 0
M  V30 2560 C 254.002 -1.9649 -0.489679 0
M  V30 2561 C 254.33 -1.04394 -1.6411 0
M  V30 2562 O 253.585 -0.0754401 -1.95555 0
M  V30 2563 C 253.884 -3.4235 -1.02623 0
M  V30 2564 C 253.55 -4.50899 0.00794526 0
M  V30 2565 C 252.212 -4.80312 0.292207 0
M  V30 2566 C 254.564 -5.16333 0.710584 0
M  V30 2567 C 251.892 -5.72461 1.28472 0
M  V30 2568 C 254.244 -6.09553 1.69199 0
M  V30 2569 C 252.908 -6.37339 1.98383 0
M  V30 2570 H 252.178 -0.719009 -0.179186 0
M  V30 2571 H 254.825 -1.8989 0.247798 0
M  V30 2572 H 253.13 -3.45838 -1.84128 0
M  V30 2573 H 254.827 -3.70393 -1.53656 0
M  V30 2574 H 251.417 -4.28015 -0.22379 0
M  V30 2575 H 255.601 -4.93732 0.504174 0
M  V30 2576 H 250.857 -5.92278 1.51714 0
M  V30 2577 H 255.031 -6.59327 2.24189 0
M  V30 2578 H 252.658 -7.08546 2.7544 0
M  V30 2579 N 254.233 0.115231 -1.57178 0
M  V30 2580 C 255.644 0.67197 -1.74188 0
M  V30 2581 C 255.995 1.80125 -0.777777 0
M  V30 2582 O 255.12 2.16346 0.0484376 0
M  V30 2583 C 255.715 1.22573 -3.1585 0
M  V30 2584 C 254.274 1.72872 -3.34353 0
M  V30 2585 C 253.421 0.629972 -2.70049 0
M  V30 2586 H 256.372 -0.110712 -1.58313 0
M  V30 2587 H 256.393 2.09535 -3.17609 0
M  V30 2588 H 255.905 0.403598 -3.85996 0
M  V30 2589 H 254.006 2.5755 -2.69256 0
M  V30 2590 H 254.119 1.83557 -4.42542 0
M  V30 2591 H 252.483 1.0645 -2.31388 0
M  V30 2592 H 253.266 -0.181241 -3.42821 0
M  V30 2593 N 255.711 1.52812 0.385517 0
M  V30 2594 C 256.674 1.77188 1.45386 0
M  V30 2595 C 257.674 0.641953 1.4743 0
M  V30 2596 O 258.864 0.910033 1.4854 0
M  V30 2597 C 255.996 1.87582 2.8465 0
M  V30 2598 H 257.189 2.72583 1.25054 0
M  V30 2599 H 254.742 1.43586 0.617467 0
M  V30 2600 H 255.477 0.941849 3.10322 0
M  V30 2601 H 255.262 2.69748 2.84567 0
M  V30 2602 H 256.752 2.08102 3.62054 0
M  V30 2603 N 257.189 -0.644168 1.43834 0
M  V30 2604 C 258.435 -1.40603 1.46146 0
M  V30 2605 C 258.768 -1.93997 0.0887717 0
M  V30 2606 O 258.043 -1.72854 -0.891724 0
M  V30 2607 C 258.326 -2.58086 2.51124 0
M  V30 2608 C 258.179 -2.10126 3.97702 0
M  V30 2609 C 259.498 -3.60291 2.52742 0
M  V30 2610 H 256.617 -0.509905 0.532134 0
M  V30 2611 H 259.259 -0.729502 1.75437 0
M  V30 2612 H 257.409 -3.15801 2.26278 0
M  V30 2613 H 259.081 -1.57342 4.33637 0
M  V30 2614 H 257.324 -1.41419 4.10101 0
M  V30 2615 H 257.995 -2.94649 4.66783 0
M  V30 2616 H 260.471 -3.12352 2.7491 0
M  V30 2617 H 259.347 -4.40032 3.28121 0
M  V30 2618 H 259.608 -4.1349 1.56455 0
M  V30 2619 N 258.668 -1.30515 -0.883378 0
M  V30 2620 C 259.598 -1.19607 -2.00541 0
M  V30 2621 C 260.579 -0.086346 -1.69881 0
M  V30 2622 O 261.764 -0.268654 -1.92333 0
M  V30 2623 C 258.894 -0.888758 -3.35736 0
M  V30 2624 C 257.848 -1.95659 -3.8066 0
M  V30 2625 C 257.174 -1.50224 -5.13164 0
M  V30 2626 C 258.474 -3.36788 -3.99213 0
M  V30 2627 H 260.168 -2.13476 -2.09925 0
M  V30 2628 H 257.714 -1.02775 -1.00863 0
M  V30 2629 H 259.667 -0.799094 -4.13754 0
M  V30 2630 H 258.391 0.0856125 -3.26488 0
M  V30 2631 H 257.05 -2.03591 -3.04871 0
M  V30 2632 H 256.698 -0.516092 -5.00345 0
M  V30 2633 H 256.398 -2.2165 -5.44192 0
M  V30 2634 H 257.922 -1.42639 -5.93706 0
M  V30 2635 H 259.336 -3.31605 -4.67665 0
M  V30 2636 H 257.733 -4.06314 -4.41621 0
M  V30 2637 H 258.803 -3.78561 -3.03017 0
M  V30 2638 N 260.146 1.09593 -1.13257 0
M  V30 2639 C 261.078 2.16015 -0.766167 0
M  V30 2640 C 262.091 1.61423 0.211303 0
M  V30 2641 O 263.28 1.78498 -0.00863946 0
M  V30 2642 C 260.38 3.38706 -0.114662 0
M  V30 2643 C 259.553 4.22717 -1.12379 0
M  V30 2644 C 258.612 5.23835 -0.498301 0
M  V30 2645 O 257.638 5.573 -1.15781 0
M  V30 2646 N 258.84 5.75886 0.730417 0
M  V30 2647 H 261.605 2.48055 -1.68193 0
M  V30 2648 H 259.166 1.25292 -1.02535 0
M  V30 2649 H 261.158 4.03464 0.315991 0
M  V30 2650 H 259.728 3.04569 0.704011 0
M  V30 2651 H 258.948 3.54122 -1.73179 0
M  V30 2652 H 260.236 4.75673 -1.80589 0
M  V30 2653 H 259.634 5.50911 1.28504 0
M  V30 2654 H 258.191 6.42387 1.10376 0
M  V30 2655 N 261.624 0.925811 1.2754 0
M  V30 2656 C 262.849 0.580924 1.99098 0
M  V30 2657 C 263.274 -0.833555 1.68622 0
M  V30 2658 O 262.632 -1.55903 0.925422 0
M  V30 2659 C 262.68 0.811186 3.51358 0
M  V30 2660 O 261.784 -0.124129 4.12213 0
M  V30 2661 H 261.125 0.223873 0.625122 0
M  V30 2662 H 263.655 1.24455 1.62395 0
M  V30 2663 H 263.665 0.72601 4.01489 0
M  V30 2664 H 262.34 1.84227 3.72872 0
M  V30 2665 H 260.917 0.0108006 3.72898 0
M  V30 2666 N 263.102 -1.41638 0.69111 0
M  V30 2667 C 264.327 -2.06148 0.227583 0
M  V30 2668 C 264.752 -1.51652 -1.11281 0
M  V30 2669 O 264.11 -0.64164 -1.69566 0
M  V30 2670 C 264.158 -3.60095 0.190858 0
M  V30 2671 O 263.262 -4.03845 -0.835664 0
M  V30 2672 H 262.603 -0.654434 0.112306 0
M  V30 2673 H 265.133 -1.81484 0.944714 0
M  V30 2674 H 265.143 -4.07995 0.020207 0
M  V30 2675 H 263.818 -3.99129 1.16915 0
M  V30 2676 H 262.395 -3.67458 -0.63473 0
M  V30 2677 N 264.58 -0.43555 -1.51462 0
M  V30 2678 C 265.828 0.131254 -2.01673 0
M  V30 2679 C 266.149 1.43368 -1.32177 0
M  V30 2680 O 265.419 1.90524 -0.455769 0
M  V30 2681 H 263.999 0.0514954 -0.745223 0
M  V30 2682 H 266.661 -0.577847 -1.86137 0
M  V30 2683 H 265.757 0.308446 -3.10572 0
M  V30 2684 N 266.058 1.56714 -0.166846 0
M  V30 2685 C 266.988 2.20754 0.760913 0
M  V30 2686 C 267.969 1.16178 1.24244 0
M  V30 2687 O 269.154 1.44592 1.29641 0
M  V30 2688 C 266.284 2.84478 1.99223 0
M  V30 2689 C 265.238 3.95053 1.64672 0
M  V30 2690 C 264.564 4.45805 2.95232 0
M  V30 2691 C 265.864 5.14865 0.878155 0
M  V30 2692 H 267.558 2.98537 0.22713 0
M  V30 2693 H 265.104 1.43596 0.107805 0
M  V30 2694 H 267.057 3.27951 2.64624 0
M  V30 2695 H 265.781 2.04056 2.55007 0
M  V30 2696 H 264.44 3.52228 1.01641 0
M  V30 2697 H 264.088 3.62181 3.49047 0
M  V30 2698 H 263.788 5.204 2.7287 0
M  V30 2699 H 265.312 4.91962 3.6167 0
M  V30 2700 H 266.726 5.55059 1.43466 0
M  V30 2701 H 265.123 5.95348 0.753738 0
M  V30 2702 H 266.193 4.84735 -0.126377 0
M  V30 2703 N 267.536 -0.106894 1.57237 0
M  V30 2704 C 268.766 -0.825191 1.89405 0
M  V30 2705 C 269.174 -1.73374 0.757496 0
M  V30 2706 O 268.517 -1.81552 -0.280115 0
M  V30 2707 C 268.579 -1.70102 3.1671 0
M  V30 2708 C 268.243 -0.965523 4.46684 0
M  V30 2709 C 269.24 -0.300741 5.19029 0
M  V30 2710 C 266.925 -0.943105 4.93367 0
M  V30 2711 C 268.919 0.376622 6.36286 0
M  V30 2712 C 266.606 -0.261949 6.10538 0
M  V30 2713 C 267.604 0.396748 6.81847 0
M  V30 2714 O 267.292 1.06701 7.96787 0
M  V30 2715 H 267.024 -0.241852 0.631255 0
M  V30 2716 H 269.578 -0.0921491 2.05193 0
M  V30 2717 H 267.808 -2.47601 2.97036 0
M  V30 2718 H 269.497 -2.29483 3.34802 0
M  V30 2719 H 270.263 -0.309599 4.84011 0
M  V30 2720 H 266.142 -1.44524 4.3776 0
M  V30 2721 H 269.686 0.891334 6.91882 0
M  V30 2722 H 265.583 -0.250896 6.45012 0
M  V30 2723 H 266.351 0.972707 8.127 0
M  V30 2724 N 269.014 -1.53014 -0.377408 0
M  V30 2725 C 270.239 -1.72818 -1.14668 0
M  V30 2726 C 270.664 -0.450725 -1.8262 0
M  V30 2727 O 270.022 0.59439 -1.7128 0
M  V30 2728 C 270.07 -2.88627 -2.16164 0
M  V30 2729 O 269.174 -2.56409 -3.22998 0
M  V30 2730 H 268.515 -0.574301 -0.333278 0
M  V30 2731 H 271.045 -1.99853 -0.438152 0
M  V30 2732 H 271.055 -3.14455 -2.59966 0
M  V30 2733 H 269.73 -3.81294 -1.66095 0
M  V30 2734 H 268.307 -2.4136 -2.84253 0
M  V30 2735 N 270.492 0.636531 -1.44174 0
M  V30 2736 C 271.422 1.76003 -1.53444 0
M  V30 2737 C 272.403 1.65619 -0.387841 0
M  V30 2738 O 273.588 1.84461 -0.607257 0
M  V30 2739 C 270.718 3.14511 -1.4731 0
M  V30 2740 C 269.672 3.39677 -2.60391 0
M  V30 2741 C 268.998 4.78159 -2.39308 0
M  V30 2742 C 270.298 3.32772 -4.02567 0
M  V30 2743 H 271.992 1.68501 -2.47483 0
M  V30 2744 H 269.538 0.809237 -1.19111 0
M  V30 2745 H 271.491 3.92878 -1.52397 0
M  V30 2746 H 270.215 3.22783 -0.49785 0
M  V30 2747 H 268.874 2.63688 -2.54684 0
M  V30 2748 H 268.522 4.83128 -1.39988 0
M  V30 2749 H 268.222 4.95956 -3.15122 0
M  V30 2750 H 269.746 5.58762 -2.46205 0
M  V30 2751 H 271.16 4.01051 -4.09672 0
M  V30 2752 H 269.557 3.62104 -4.7854 0
M  V30 2753 H 270.627 2.30669 -4.2652 0
M  V30 2754 N 271.97 1.30982 0.876444 0
M  V30 2755 C 273.195 1.23373 1.66715 0
M  V30 2756 C 273.62 -0.19885 1.87046 0
M  V30 2757 O 272.978 -1.1427 1.40756 0
M  V30 2758 C 273.026 1.97644 3.01611 0
M  V30 2759 O 272.13 1.30935 3.91062 0
M  V30 2760 H 271.471 0.426279 0.509099 0
M  V30 2761 H 274.001 1.72944 1.09323 0
M  V30 2762 H 274.011 2.06992 3.51594 0
M  V30 2763 H 272.686 3.01829 2.86133 0
M  V30 2764 H 271.263 1.29996 3.49507 0
M  V30 2765 N 273.449 -1.08991 1.13837 0
M  V30 2766 C 274.674 -1.85551 0.926585 0
M  V30 2767 C 275.099 -1.80782 -0.519566 0
M  V30 2768 O 274.457 -1.18855 -1.36906 0
M  V30 2769 C 274.505 -3.31266 1.42462 0
M  V30 2770 O 273.609 -4.07822 0.612789 0
M  V30 2771 H 272.95 -0.575192 0.331738 0
M  V30 2772 H 275.48 -1.37604 1.51414 0
M  V30 2773 H 275.49 -3.82112 1.43019 0
M  V30 2774 H 274.165 -3.34052 2.47754 0
M  V30 2775 H 272.742 -3.66731 0.675463 0
M  V30 2776 N 274.927 -0.932562 -1.27047 0
M  V30 2777 C 276.173 -0.576412 -1.94436 0
M  V30 2778 C 276.506 0.880891 -1.73072 0
M  V30 2779 O 275.781 1.62905 -1.06264 0
M  V30 2780 C 276.064 -0.909031 -3.48437 0
M  V30 2781 C 275.917 -2.42044 -3.79123 0
M  V30 2782 C 277.236 -0.418341 -4.38107 0
M  V30 2783 H 274.355 -0.210888 -0.706184 0
M  V30 2784 H 276.997 -1.16522 -1.50075 0
M  V30 2785 H 275.147 -0.407947 -3.86352 0
M  V30 2786 H 276.819 -2.99359 -3.50973 0
M  V30 2787 H 275.062 -2.86758 -3.25503 0
M  V30 2788 H 275.733 -2.6037 -4.86736 0
M  V30 2789 H 278.209 -0.847856 -4.0737 0
M  V30 2790 H 277.085 -0.679981 -5.44672 0
M  V30 2791 H 277.346 0.681642 -4.36814 0
M  V30 2792 N 276.405 1.4127 -0.698611 0
M  V30 2793 C 277.651 2.01478 -0.231207 0
M  V30 2794 C 277.984 1.55215 1.16713 0
M  V30 2795 O 277.259 0.764672 1.78838 0
M  V30 2796 C 277.542 3.58912 -0.292281 0
M  V30 2797 C 277.395 4.15293 -1.72778 0
M  V30 2798 C 278.714 4.38736 0.346194 0
M  V30 2799 H 275.833 0.732025 -0.0854878 0
M  V30 2800 H 278.475 1.67977 -0.887906 0
M  V30 2801 H 276.625 3.87582 0.26686 0
M  V30 2802 H 278.297 3.97486 -2.341 0
M  V30 2803 H 276.54 3.7022 -2.26096 0
M  V30 2804 H 277.211 5.24452 -1.72202 0
M  V30 2805 H 279.687 4.15897 -0.130035 0
M  V30 2806 H 278.563 5.48221 0.272932 0
M  V30 2807 H 278.824 4.18425 1.42734 0
M  V30 2808 N 277.883 0.443576 1.51229 0
M  V30 2809 C 279.111 -0.11929 2.06556 0
M  V30 2810 C 279.526 -1.35921 1.31038 0
M  V30 2811 O 278.883 -1.78675 0.371704 0
M  V30 2812 C 278.934 -0.435228 3.5887 0
M  V30 2813 O 278.655 0.755486 4.31537 0
M  V30 2814 C 280.156 -1.04808 4.30732 0
M  V30 2815 H 277.376 -0.0051584 0.67098 0
M  V30 2816 H 279.92 0.624453 1.94733 0
M  V30 2817 H 278.075 -1.12887 3.70588 0
M  V30 2818 H 278.489 0.483491 5.22267 0
M  V30 2819 H 279.963 -1.2191 5.3837 0
M  V30 2820 H 280.44 -2.03081 3.89429 0
M  V30 2821 H 281.046 -0.393637 4.23474 0
M  V30 2822 N 279.361 -1.56624 0.175154 0
M  V30 2823 C 280.607 -1.9729 -0.469506 0
M  V30 2824 C 280.94 -1.06128 -1.62636 0
M  V30 2825 O 280.215 -0.109183 -1.94193 0
M  V30 2826 C 280.498 -3.47375 -0.948804 0
M  V30 2827 C 280.351 -4.49317 0.208491 0
M  V30 2828 C 281.67 -4.00652 -1.82116 0
M  V30 2829 H 278.789 -0.717317 -0.16919 0
M  V30 2830 H 281.431 -1.88184 0.262062 0
M  V30 2831 H 279.581 -3.55267 -1.57219 0
M  V30 2832 H 281.253 -4.53482 0.845682 0
M  V30 2833 H 279.496 -4.25121 0.863395 0
M  V30 2834 H 280.167 -5.51741 -0.169059 0
M  V30 2835 H 282.643 -3.95416 -1.2956 0
M  V30 2836 H 281.519 -5.06075 -2.12554 0
M  V30 2837 H 281.78 -3.44699 -2.7683 0
M  V30 2838 N 280.839 0.0985539 -1.57292 0
M  V30 2839 C 282.25 0.653457 -1.74891 0
M  V30 2840 C 282.601 1.7929 -0.796838 0
M  V30 2841 O 281.726 2.16385 0.0254886 0
M  V30 2842 C 282.321 1.19216 -3.17133 0
M  V30 2843 C 280.88 1.69316 -3.36168 0
M  V30 2844 C 280.027 0.601294 -2.70702 0
M  V30 2845 H 282.978 -0.127497 -1.58187 0
M  V30 2846 H 282.999 2.06154 -3.19814 0
M  V30 2847 H 282.511 0.362635 -3.86402 0
M  V30 2848 H 280.612 2.5468 -2.71972 0
M  V30 2849 H 280.725 1.78853 -4.44464 0
M  V30 2850 H 279.089 1.0399 -2.32504 0
M  V30 2851 H 279.872 -0.217592 -3.4261 0
M  V30 2852 N 282.317 1.53212 0.369288 0
M  V30 2853 C 283.542 1.73423 1.1375 0
M  V30 2854 C 283.967 0.460404 1.82378 0
M  V30 2855 O 283.325 -0.585298 1.71592 0
M  V30 2856 C 283.373 2.89769 2.1463 0
M  V30 2857 O 282.477 2.58119 3.21634 0
M  V30 2858 H 281.818 0.576061 0.330227 0
M  V30 2859 H 284.348 2.00083 0.427547 0
M  V30 2860 H 284.358 3.15829 2.58294 0
M  V30 2861 H 283.033 3.8217 1.64071 0
M  V30 2862 H 281.61 2.42864 2.82969 0
M  V30 2863 N 283.795 -0.628877 1.44509 0
M  V30 2864 C 285.02 -1.42048 1.5112 0
M  V30 2865 C 285.445 -1.87594 0.137818 0
M  V30 2866 O 284.803 -1.58873 -0.873437 0
M  V30 2867 C 284.851 -2.61541 2.48251 0
M  V30 2868 O 283.955 -3.61453 1.98559 0
M  V30 2869 H 283.296 -0.424942 0.510216 0
M  V30 2870 H 285.826 -0.767374 1.89664 0
M  V30 2871 H 285.836 -3.09057 2.66361 0
M  V30 2872 H 284.511 -2.27736 3.48007 0
M  V30 2873 H 283.088 -3.20731 1.90227 0
M  V30 2874 N 285.273 -1.31445 -0.869486 0
M  V30 2875 C 286.221 -1.19067 -1.99814 0
M  V30 2876 C 287.215 -0.0988569 -1.69111 0
M  V30 2877 O 288.421 -0.260781 -1.78101 0
M  V30 2878 H 284.796 -0.368677 -0.655425 0
M  V30 2879 H 286.767 -2.14555 -2.07385 0
M  V30 2880 C 285.516 -0.915323 -3.35436 0
M  V30 2881 H 284.839 -1.74759 -3.59582 0
M  V30 2882 H 286.279 -0.868895 -4.15001 0
M  V30 2883 C 284.738 0.381928 -3.34728 0
M  V30 2884 O 285.268 1.39857 -3.76567 0
M  V30 2885 N 283.474 0.398633 -2.87853 0
M  V30 2886 H 283.021 -0.429186 -2.54 0
M  V30 2887 H 282.979 1.26651 -2.87762 0
M  V30 2888 N 286.751 1.08385 -1.14413 0
M  V30 2889 C 287.998 1.80776 -0.912482 0
M  V30 2890 C 288.326 1.86236 0.560934 0
M  V30 2891 O 287.581 1.33431 1.43159 0
M  V30 2892 C 287.88 3.26273 -1.45879 0
M  V30 2893 C 287.546 3.4093 -2.95089 0
M  V30 2894 C 286.208 3.44638 -3.35824 0
M  V30 2895 C 288.56 3.44591 -3.91033 0
M  V30 2896 C 285.888 3.49597 -4.71167 0
M  V30 2897 C 288.24 3.51086 -5.26233 0
M  V30 2898 C 286.904 3.53067 -5.6648 0
M  V30 2899 H 286.174 0.661507 -0.333901 0
M  V30 2900 H 288.821 1.27613 -1.42784 0
M  V30 2901 H 287.126 3.82146 -0.864376 0
M  V30 2902 H 288.823 3.80839 -1.2555 0
M  V30 2903 H 285.413 3.38736 -2.62594 0
M  V30 2904 H 289.597 3.40957 -3.60641 0
M  V30 2905 H 284.853 3.49424 -5.0171 0
M  V30 2906 H 289.027 3.52864 -6.00383 0
M  V30 2907 H 286.654 3.56662 -6.71339 0
M  V30 2908 N 288.23 0.939286 1.26551 0
M  V30 2909 C 289.478 0.58469 1.93457 0
M  V30 2910 C 289.799 -0.878774 1.74076 0
M  V30 2911 O 289.069 -1.62421 1.09528 0
M  V30 2912 H 287.649 0.21325 0.715914 0
M  V30 2913 H 290.311 1.1942 1.54029 0
M  V30 2914 H 289.407 0.800849 3.0165 0
M  V30 2915 N 289.708 -1.40897 0.706093 0
M  V30 2916 C 290.936 -2.05373 0.250887 0
M  V30 2917 C 291.351 -1.53172 -1.10381 0
M  V30 2918 O 290.708 -0.684305 -1.69185 0
M  V30 2919 C 290.759 -3.6088 0.211571 0
M  V30 2920 O 290.48 -4.11153 1.51276 0
M  V30 2921 C 291.981 -4.42517 -0.263346 0
M  V30 2922 H 289.201 -0.66115 0.114552 0
M  V30 2923 H 291.745 -1.80479 0.961635 0
M  V30 2924 H 289.9 -3.84777 -0.450073 0
M  V30 2925 H 290.314 -5.05279 1.40689 0
M  V30 2926 H 291.788 -5.51479 -0.239718 0
M  V30 2927 H 292.265 -4.19396 -1.30397 0
M  V30 2928 H 292.871 -4.23708 0.367677 0
M  V30 2929 N 291.186 -0.45159 -1.50991 0
M  V30 2930 C 292.118 0.388634 -2.25881 0
M  V30 2931 C 293.131 0.974041 -1.30446 0
M  V30 2932 O 294.32 0.865758 -1.56099 0
M  V30 2933 C 291.42 1.5571 -3.01011 0
M  V30 2934 C 290.593 1.08801 -4.23652 0
M  V30 2935 C 289.652 2.12825 -4.8124 0
M  V30 2936 O 288.678 1.71678 -5.42693 0
M  V30 2937 N 289.88 3.45453 -4.66522 0
M  V30 2938 H 292.645 -0.25329 -2.98628 0
M  V30 2939 H 290.206 -0.281268 -1.59438 0
M  V30 2940 H 292.198 2.24952 -3.3642 0
M  V30 2941 H 290.768 2.10409 -2.31186 0
M  V30 2942 H 289.988 0.22215 -3.93574 0
M  V30 2943 H 291.276 0.752213 -5.03209 0
M  V30 2944 H 290.674 3.81605 -4.17605 0
M  V30 2945 H 289.231 4.10549 -5.06254 0
M  V30 2946 N 292.664 1.56529 -0.183458 0
M  V30 2947 C 293.892 2.01623 0.464285 0
M  V30 2948 C 294.307 1.06366 1.55986 0
M  V30 2949 O 293.664 0.0665398 1.82379 0
M  V30 2950 C 293.715 3.46475 1.03139 0
M  V30 2951 O 293.436 4.38095 -0.0204675 0
M  V30 2952 C 294.937 4.0703 1.75617 0
M  V30 2953 H 292.157 0.660596 0.117704 0
M  V30 2954 H 294.701 2.02451 -0.288751 0
M  V30 2955 H 292.856 3.46383 1.73486 0
M  V30 2956 H 293.27 5.22973 0.399952 0
M  V30 2957 H 294.744 5.10271 2.10542 0
M  V30 2958 H 295.221 3.49819 2.65563 0
M  V30 2959 H 295.827 4.1086 1.09882 0
M  V30 2960 N 294.142 -0.090211 1.57342 0
M  V30 2961 C 295.372 -0.805055 1.90269 0
M  V30 2962 C 295.78 -1.72561 0.775842 0
M  V30 2963 O 295.123 -1.81839 -0.260843 0
M  V30 2964 C 295.185 -1.66734 3.18497 0
M  V30 2965 C 294.849 -0.918092 4.47683 0
M  V30 2966 C 295.846 -0.245674 5.19319 0
M  V30 2967 C 293.531 -0.890724 4.94339 0
M  V30 2968 C 295.525 0.444088 6.35851 0
M  V30 2969 C 293.212 -0.197179 6.10782 0
M  V30 2970 C 294.21 0.469044 6.81388 0
M  V30 2971 O 293.898 1.15146 7.95611 0
M  V30 2972 H 293.63 -0.235143 0.633785 0
M  V30 2973 H 296.184 -0.0703805 2.05279 0
M  V30 2974 H 294.414 -2.44437 2.99646 0
M  V30 2975 H 296.103 -2.25919 3.37217 0
M  V30 2976 H 296.869 -0.258246 4.84312 0
M  V30 2977 H 292.748 -1.39873 4.39268 0
M  V30 2978 H 296.292 0.964667 6.90898 0
M  V30 2979 H 292.189 -0.18247 6.45242 0
M  V30 2980 H 292.957 1.05885 8.11622 0
M  V30 2981 N 295.62 -1.53406 -0.361157 0
M  V30 2982 C 296.848 -1.73717 -1.12383 0
M  V30 2983 C 297.263 -0.468161 -1.82904 0
M  V30 2984 O 296.62 0.559198 -1.73722 0
M  V30 2985 C 296.671 -2.90558 -2.15078 0
M  V30 2986 O 296.392 -4.12549 -1.47428 0
M  V30 2987 C 297.893 -3.22777 -3.03858 0
M  V30 2988 H 295.113 -0.580896 -0.335858 0
M  V30 2989 H 297.657 -2.00167 -0.418728 0
M  V30 2990 H 295.812 -2.66489 -2.8118 0
M  V30 2991 H 296.226 -4.78009 -2.15887 0
M  V30 2992 H 297.7 -4.07927 -3.71887 0
M  V30 2993 H 298.177 -2.38329 -3.68912 0
M  V30 2994 H 298.783 -3.48787 -2.43367 0
M  V30 2995 N 297.098 0.621204 -1.44841 0
M  V30 2996 C 298.338 1.39201 -1.49674 0
M  V30 2997 C 298.702 1.91561 -0.129764 0
M  V30 2998 O 299.903 2.68748 -0.0527814 0
M  V30 2999 C 298.174 2.519 -2.53537 0
M  V30 3000 S 299.733 3.39916 -2.77494 0
M  V30 3001 H 296.551 0.474758 -0.529269 0
M  V30 3002 H 299.153 0.718171 -1.81831 0
M  V30 3003 H 297.857 2.11761 -3.51547 0
M  V30 3004 H 297.388 3.241 -2.22986 0
M  V30 3005 H 299.403 4.49646 -2.0984 0
M  V30 3006 N 298.576 1.31904 0.862503 0
M  V30 3007 C 299.524 1.20125 1.9918 0
M  V30 3008 C 300.518 0.107824 1.69056 0
M  V30 3009 O 301.724 0.270223 1.7796 0
M  V30 3010 H 298.099 0.372148 0.65346 0
M  V30 3011 H 300.07 2.15652 2.06244 0
M  V30 3012 C 298.819 0.933099 3.34946 0
M  V30 3013 H 298.142 1.76664 3.5865 0
M  V30 3014 H 299.582 0.890892 4.14535 0
M  V30 3015 C 298.041 -0.364172 3.34926 0
M  V30 3016 O 298.571 -1.37858 3.77304 0
M  V30 3017 N 296.777 -0.383362 2.8806 0
M  V30 3018 H 296.324 0.442651 2.53768 0
M  V30 3019 H 296.282 -1.25123 2.8843 0
M  V30 3020 N 300.054 -1.07777 1.14986 0
M  V30 3021 C 301.3 -1.80557 0.923422 0
M  V30 3022 C 301.633 -1.86298 -0.548337 0
M  V30 3023 O 300.908 -1.34354 -1.40639 0
M  V30 3024 C 301.191 -3.25839 1.53299 0
M  V30 3025 C 301.044 -3.28269 3.07505 0
M  V30 3026 C 302.363 -4.22991 1.21518 0
M  V30 3027 H 299.482 -0.655493 0.336894 0
M  V30 3028 H 302.124 -1.26144 1.42083 0
M  V30 3029 H 300.274 -3.72306 1.10999 0
M  V30 3030 H 301.946 -2.90079 3.58681 0
M  V30 3031 H 300.189 -2.67355 3.4162 0
M  V30 3032 H 300.86 -4.30691 3.45266 0
M  V30 3033 H 303.336 -3.84894 1.581 0
M  V30 3034 H 302.212 -5.22945 1.66793 0
M  V30 3035 H 302.473 -4.41904 0.131505 0
M  V30 3036 N 301.532 -0.945985 -1.26051 0
M  V30 3037 C 302.809 -0.513816 -1.88731 0
M  V30 3038 C 303.189 1.00872 -1.8544 0
M  V30 3039 O 302.537 1.8708 -1.312 0
M  V30 3040 C 302.747 -1.08062 -3.31849 0
M  V30 3041 C 304.095 -1.1522 -4.08668 0
M  V30 3042 O 305.119 -1.03155 -3.40936 0
M  V30 3043 O 303.978 -1.34044 -5.29806 0
M  V30 3044 H 301.072 -0.168193 -0.809716 0
M  V30 3045 H 303.618 -1.03886 -1.34186 0
M  V30 3046 H 302.39 -2.1241 -3.2863 0
M  V30 3047 H 302.013 -0.538307 -3.93939 0
M  V30 3048 N 303.011 1.40521 -0.713556 0
M  V30 3049 C 303.961 2.27971 -0.036165 0
M  V30 3050 C 304.945 1.43151 0.734623 0
M  V30 3051 O 306.137 1.66261 0.607158 0
M  V30 3052 C 303.266 3.31661 0.886331 0
M  V30 3053 C 302.352 4.23955 0.110836 0
M  V30 3054 N 302.743 4.97641 -0.904847 0
M  V30 3055 C 301.041 4.44674 0.343692 0
M  V30 3056 C 301.742 5.65322 -1.37064 0
M  V30 3057 N 300.718 5.39162 -0.693168 0
M  V30 3058 H 304.52 2.82384 -0.814645 0
M  V30 3059 H 302.034 1.52948 -0.545963 0
M  V30 3060 H 304.031 3.93154 1.38692 0
M  V30 3061 H 302.691 2.78808 1.66421 0
M  V30 3062 H 303.702 5.01689 -1.28563 0
M  V30 3063 H 300.379 4.02801 1.09805 0
M  V30 3064 H 301.769 6.34359 -2.21447 0
M  V30 3065 N 304.489 0.459591 1.5075 0
M  V30 3066 C 305.436 -0.340524 2.28274 0
M  V30 3067 C 306.406 -0.997371 1.32822 0
M  V30 3068 O 307.591 -1.01202 1.61749 0
M  V30 3069 C 304.731 -1.42317 3.14388 0
M  V30 3070 C 303.844 -0.782251 4.24859 0
M  V30 3071 C 302.979 -1.84182 4.98247 0
M  V30 3072 C 302.018 -1.18053 6.00608 0
M  V30 3073 N 301.155 -2.18244 6.67319 0
M  V30 3074 H 305.995 0.326899 2.96202 0
M  V30 3075 H 303.532 0.173057 1.46078 0
M  V30 3076 H 305.49 -2.06241 3.62658 0
M  V30 3077 H 304.12 -2.05992 2.4853 0
M  V30 3078 H 303.172 -0.0307404 3.80388 0
M  V30 3079 H 304.484 -0.259663 4.98124 0
M  V30 3080 H 303.638 -2.55714 5.50177 0
M  V30 3081 H 302.377 -2.39819 4.24662 0
M  V30 3082 H 301.382 -0.450776 5.47949 0
M  V30 3083 H 302.607 -0.631202 6.7616 0
M  V30 3084 H 300.553 -2.72919 5.96533 0
M  V30 3085 H 300.47 -1.70938 7.36421 0
M  V30 3086 H 301.738 -2.89191 7.23871 0
M  V30 3087 N 305.967 -1.56429 0.191757 0
M  V30 3088 C 307.378 -1.83912 -0.321428 0
M  V30 3089 C 307.729 -1.11231 -1.61623 0
M  V30 3090 O 306.854 -0.37202 -2.13178 0
M  V30 3091 C 307.449 -3.33624 -0.589961 0
M  V30 3092 C 306.008 -3.6153 -1.04753 0
M  V30 3093 C 305.155 -2.7714 -0.0943327 0
M  V30 3094 H 308.106 -1.53161 0.415612 0
M  V30 3095 H 308.127 -3.52213 -1.43966 0
M  V30 3096 H 307.639 -3.86495 0.352588 0
M  V30 3097 H 305.74 -3.14089 -2.00447 0
M  V30 3098 H 305.853 -4.69737 -0.942549 0
M  V30 3099 H 304.217 -2.47638 -0.595589 0
M  V30 3100 H 305 -3.32799 0.842601 0
M  V30 3101 N 307.445 0.0818655 -1.57387 0
M  V30 3102 C 308.67 0.799946 -1.91352 0
M  V30 3103 C 309.095 1.70833 -0.787258 0
M  V30 3104 O 308.453 1.79419 0.26048 0
M  V30 3105 C 308.501 1.57812 -3.24234 0
M  V30 3106 O 307.605 2.68806 -3.12757 0
M  V30 3107 H 306.946 0.21891 -0.626877 0
M  V30 3108 H 309.476 0.0531256 -2.04531 0
M  V30 3109 H 309.486 1.95952 -3.57864 0
M  V30 3110 H 308.161 0.911548 -4.05788 0
M  V30 3111 H 306.738 2.33597 -2.90666 0
M  V30 3112 N 308.923 1.53595 0.353017 0
M  V30 3113 C 309.871 1.81605 1.45335 0
M  V30 3114 C 310.865 0.685923 1.54892 0
M  V30 3115 O 312.071 0.869095 1.57628 0
M  V30 3116 H 308.446 0.575204 0.484401 0
M  V30 3117 H 310.417 2.73679 1.18921 0
M  V30 3118 C 309.166 2.03406 2.81995 0
M  V30 3119 H 308.489 2.89814 2.75405 0
M  V30 3120 H 309.929 2.26975 3.58132 0
M  V30 3121 C 308.388 0.816794 3.26849 0
M  V30 3122 O 308.918 0.0115856 4.01698 0
M  V30 3123 N 307.124 0.636682 2.8354 0
M  V30 3124 H 306.671 1.2931 2.22793 0
M  V30 3125 H 306.629 -0.176336 3.13905 0
M  V30 3126 N 310.401 -0.613514 1.45168 0
M  V30 3127 C 311.629 -1.39946 1.5239 0
M  V30 3128 C 312.044 -1.88167 0.154531 0
M  V30 3129 O 311.401 -1.61872 -0.842843 0
M  V30 3130 C 311.452 -2.60795 2.50337 0
M  V30 3131 O 311.173 -2.1458 3.81952 0
M  V30 3132 C 312.674 -3.53723 2.67198 0
M  V30 3133 H 309.894 -0.428593 0.516284 0
M  V30 3134 H 312.438 -0.748753 1.903 0
M  V30 3135 H 310.593 -3.21919 2.15515 0
M  V30 3136 H 311.007 -2.93055 4.34993 0
M  V30 3137 H 312.481 -4.35079 3.39721 0
M  V30 3138 H 312.958 -4.0368 1.73029 0
M  V30 3139 H 313.564 -2.98456 3.02992 0
M  V30 3140 N 311.879 -1.3236 -0.855495 0
M  V30 3141 C 312.826 -1.21225 -1.964 0
M  V30 3142 C 313.796 -0.0946204 -1.6583 0
M  V30 3143 O 314.981 -0.27002 -1.8888 0
M  V30 3144 C 312.121 -0.940419 -3.32039 0
M  V30 3145 C 311.234 -2.14276 -3.75113 0
M  V30 3146 C 310.369 -1.80648 -4.9954 0
M  V30 3147 C 309.408 -2.97208 -5.35102 0
M  V30 3148 N 308.545 -2.63678 -6.50706 0
M  V30 3149 H 313.385 -2.16042 -2.05255 0
M  V30 3150 H 310.922 -1.07451 -1.00463 0
M  V30 3151 H 312.88 -0.763311 -4.10158 0
M  V30 3152 H 311.51 -0.0290413 -3.22787 0
M  V30 3153 H 310.562 -2.43017 -2.92655 0
M  V30 3154 H 311.874 -3.01468 -3.97389 0
M  V30 3155 H 311.028 -1.59484 -5.85363 0
M  V30 3156 H 309.767 -0.906678 -4.79198 0
M  V30 3157 H 308.772 -3.19004 -4.47791 0
M  V30 3158 H 309.997 -3.87918 -5.57401 0
M  V30 3159 H 307.943 -1.76238 -6.31883 0
M  V30 3160 H 307.86 -3.444 -6.72997 0
M  V30 3161 H 309.128 -2.45942 -7.39684 0
M  V30 3162 N 313.357 1.07166 -1.15556 0
M  V30 3163 C 314.603 1.80065 -0.932984 0
M  V30 3164 C 314.936 1.86586 0.53845 0
M  V30 3165 O 314.211 1.35098 1.39924 0
M  V30 3166 C 314.494 3.25022 -1.55025 0
M  V30 3167 C 314.347 3.26634 -3.09242 0
M  V30 3168 C 315.666 4.22341 -1.2376 0
M  V30 3169 H 312.785 0.653697 -0.340366 0
M  V30 3170 H 315.427 1.25389 -1.4275 0
M  V30 3171 H 313.577 3.71712 -1.12972 0
M  V30 3172 H 315.249 2.88173 -3.60214 0
M  V30 3173 H 313.492 2.65539 -3.43033 0
M  V30 3174 H 314.163 4.28854 -3.47546 0
M  V30 3175 H 316.639 3.8405 -1.60139 0
M  V30 3176 H 315.515 5.22053 -1.69564 0
M  V30 3177 H 315.776 4.41828 -0.154938 0
M  V30 3178 N 314.835 0.952656 1.25548 0
M  V30 3179 C 316.112 0.523818 1.88456 0
M  V30 3180 C 316.492 -0.998871 1.85973 0
M  V30 3181 O 315.84 -1.86381 1.3219 0
M  V30 3182 C 316.05 1.0982 3.31271 0
M  V30 3183 C 317.398 1.17385 4.08051 0
M  V30 3184 O 318.422 1.04961 3.40384 0
M  V30 3185 O 317.281 1.36852 5.29088 0
M  V30 3186 H 314.375 0.172485 0.808813 0
M  V30 3187 H 316.921 1.04596 1.33633 0
M  V30 3188 H 315.693 2.1415 3.27499 0
M  V30 3189 H 315.316 0.559191 3.93648 0
M  V30 3190 N 316.313 -1.40141 0.720998 0
M  V30 3191 C 317.26 -2.30688 0.071919 0
M  V30 3192 C 318.23 -1.48476 -0.744584 0
M  V30 3193 O 319.415 -1.77201 -0.707423 0
M  V30 3194 C 316.555 -3.34724 -0.839855 0
M  V30 3195 C 315.668 -4.31998 -0.0122438 0
M  V30 3196 C 314.803 -5.23102 -0.923995 0
M  V30 3197 C 313.842 -6.12033 -0.0907969 0
M  V30 3198 N 312.979 -6.95537 -0.957718 0
M  V30 3199 H 317.819 -2.85628 0.849755 0
M  V30 3200 H 315.356 -1.40653 0.430726 0
M  V30 3201 H 317.314 -3.93618 -1.38279 0
M  V30 3202 H 315.944 -2.81274 -1.58381 0
M  V30 3203 H 314.996 -3.74841 0.64794 0
M  V30 3204 H 316.308 -4.94772 0.632595 0
M  V30 3205 H 315.462 -5.86953 -1.53527 0
M  V30 3206 H 314.201 -4.60615 -1.60264 0
M  V30 3207 H 313.206 -5.47207 0.533377 0
M  V30 3208 H 314.431 -6.76581 0.584428 0
M  V30 3209 H 312.377 -6.35633 -1.62192 0
M  V30 3210 H 312.294 -7.55099 -0.36904 0
M  V30 3211 H 313.562 -7.63832 -1.555 0
M  V30 3212 N 317.792 -0.46758 -1.50504 0
M  V30 3213 C 319.02 0.0864133 -2.06719 0
M  V30 3214 C 319.435 1.33819 -1.33184 0
M  V30 3215 O 318.792 1.78061 -0.400083 0
M  V30 3216 C 318.843 0.378079 -3.59517 0
M  V30 3217 O 318.564 -0.824044 -4.3028 0
M  V30 3218 C 320.065 0.979426 -4.32345 0
M  V30 3219 H 317.285 -0.00551697 -0.670977 0
M  V30 3220 H 319.829 -0.655354 -1.93715 0
M  V30 3221 H 317.984 1.06977 -3.72337 0
M  V30 3222 H 318.398 -0.566518 -5.21432 0
M  V30 3223 H 319.872 1.1333 -5.40241 0
M  V30 3224 H 320.349 1.9686 -3.9261 0
M  V30 3225 H 320.955 0.326216 -4.24047 0
M  V30 3226 N 319.27 1.56325 -0.20005 0
M  V30 3227 C 320.516 1.98012 0.438059 0
M  V30 3228 C 320.849 1.08702 1.60927 0
M  V30 3229 O 320.124 0.140064 1.93995 0
M  V30 3230 C 320.407 3.48841 0.893419 0
M  V30 3231 C 320.26 4.48928 -0.279947 0
M  V30 3232 C 321.579 4.03498 1.75719 0
M  V30 3233 H 318.698 0.719918 0.157757 0
M  V30 3234 H 321.34 1.87743 -0.291968 0
M  V30 3235 H 319.49 3.57723 1.51547 0
M  V30 3236 H 321.162 4.52079 -0.91772 0
M  V30 3237 H 319.405 4.23694 -0.930919 0
M  V30 3238 H 320.076 5.5194 0.0812601 0
M  V30 3239 H 322.552 3.97427 1.23253 0
M  V30 3240 H 321.428 5.09393 2.04476 0
M  V30 3241 H 321.689 3.4906 2.71311 0
M  V30 3242 N 320.748 -0.0735177 1.57428 0
M  V30 3243 C 321.658 -1.10547 2.06922 0
M  V30 3244 C 322.674 -1.42506 0.998402 0
M  V30 3245 O 323.85 -1.52717 1.31299 0
M  V30 3246 C 320.915 -2.40019 2.50184 0
M  V30 3247 C 319.976 -2.15046 3.71556 0
M  V30 3248 C 319.209 -3.38345 4.12745 0
M  V30 3249 O 319.432 -4.47399 3.53822 0
M  V30 3250 O 318.366 -3.2666 5.05546 0
M  V30 3251 H 322.192 -0.715013 2.95163 0
M  V30 3252 H 319.777 -0.287531 1.46607 0
M  V30 3253 H 321.659 -3.16218 2.78539 0
M  V30 3254 H 320.334 -2.78447 1.65072 0
M  V30 3255 H 319.241 -1.36558 3.48285 0
M  V30 3256 H 320.574 -1.81499 4.57514 0
M  V30 3257 N 322.226 -1.5378 -0.344866 0
M  V30 3258 C 323.642 -1.44015 -0.687888 0
M  V30 3259 C 323.842 -0.595834 -1.92489 0
M  V30 3260 O 322.898 -0.0863064 -2.52352 0
M  V30 3261 C 324.211 -2.87481 -0.881758 0
M  V30 3262 C 325.759 -2.97247 -0.980459 0
M  V30 3263 C 326.234 -4.41819 -1.20665 0
M  V30 3264 N 327.725 -4.45339 -1.27389 0
M  V30 3265 C 328.46 -5.54333 -1.46639 0
M  V30 3266 N 327.956 -6.73335 -1.63071 0
M  V30 3267 N 329.749 -5.41944 -1.49176 0
M  V30 3268 H 321.9 -2.07169 0.468475 0
M  V30 3269 H 324.163 -0.93643 0.147655 0
M  V30 3270 H 323.869 -3.51672 -0.0443444 0
M  V30 3271 H 323.743 -3.32352 -1.78388 0
M  V30 3272 H 326.13 -2.33197 -1.8084 0
M  V30 3273 H 326.211 -2.5574 -0.0552713 0
M  V30 3274 H 325.855 -5.06449 -0.383652 0
M  V30 3275 H 325.785 -4.80917 -2.14539 0
M  V30 3276 H 328.276 -3.59585 -1.1622 0
M  V30 3277 H 328.589 -7.52165 -1.77391 0
M  V30 3278 H 326.934 -6.76282 -1.60209 0
M  V30 3279 H 330.125 -4.47932 -1.3592 0
M  V30 3280 H 330.298 -6.26946 -1.63837 0
M  V30 3281 N 323.704 0.605807 -1.45491 0
M  V30 3282 C 324.651 1.7164 -1.54299 0
M  V30 3283 C 325.621 1.61486 -0.388761 0
M  V30 3284 O 326.806 1.81039 -0.602445 0
M  V30 3285 C 323.946 3.09953 -1.51734 0
M  V30 3286 C 323.059 3.309 -2.77721 0
M  V30 3287 C 322.194 4.59329 -2.66816 0
M  V30 3288 C 321.233 4.7354 -3.87848 0
M  V30 3289 N 320.37 5.9327 -3.75467 0
M  V30 3290 H 325.21 1.63449 -2.49176 0
M  V30 3291 H 322.747 0.796957 -1.23641 0
M  V30 3292 H 324.705 3.89977 -1.48235 0
M  V30 3293 H 323.335 3.17098 -0.604068 0
M  V30 3294 H 322.387 2.44639 -2.913 0
M  V30 3295 H 323.699 3.37274 -3.67488 0
M  V30 3296 H 322.853 5.4755 -2.61292 0
M  V30 3297 H 321.592 4.55355 -1.74651 0
M  V30 3298 H 320.597 3.83741 -3.93729 0
M  V30 3299 H 321.822 4.79309 -4.81082 0
M  V30 3300 H 319.768 5.90338 -2.86072 0
M  V30 3301 H 319.685 6.00811 -4.5887 0
M  V30 3302 H 320.953 6.83984 -3.73879 0
M  V30 3303 N 325.182 1.32811 0.848464 0
M  V30 3304 C 326.422 1.25046 1.61687 0
M  V30 3305 C 326.786 -0.183464 1.91121 0
M  V30 3306 O 327.987 -0.384937 2.66029 0
M  V30 3307 C 326.258 2.09201 2.89775 0
M  V30 3308 S 327.817 2.18526 3.80515 0
M  V30 3309 H 324.635 0.445023 0.554505 0
M  V30 3310 H 327.237 1.67733 1.00429 0
M  V30 3311 H 325.941 3.12433 2.66108 0
M  V30 3312 H 325.472 1.67315 3.56047 0
M  V30 3313 H 327.487 1.3393 4.77784 0
M  V30 3314 N 326.66 -1.06551 1.16123 0
M  V30 3315 C 327.9 -1.80889 0.951766 0
M  V30 3316 C 328.264 -1.85062 -0.511465 0
M  V30 3317 O 329.465 -2.55353 -0.83954 0
M  V30 3318 C 327.736 -3.21609 1.55893 0
M  V30 3319 S 329.295 -4.12593 1.49373 0
M  V30 3320 H 326.113 -0.623156 0.342341 0
M  V30 3321 H 328.715 -1.27943 1.47821 0
M  V30 3322 H 327.419 -3.16165 2.61664 0
M  V30 3323 H 326.95 -3.79631 1.0317 0
M  V30 3324 H 328.965 -4.93753 0.492196 0
M  V30 3325 N 328.138 -0.959301 -1.25041 0
M  V30 3326 C 329.384 -0.617525 -1.9317 0
M  V30 3327 C 329.717 0.843981 -1.74902 0
M  V30 3328 O 328.992 1.60615 -1.09696 0
M  V30 3329 C 329.275 -0.982736 -3.46431 0
M  V30 3330 C 329.128 -2.50032 -3.73904 0
M  V30 3331 C 330.447 -0.511176 -4.37121 0
M  V30 3332 H 327.566 -0.22582 -0.701552 0
M  V30 3333 H 330.208 -1.19679 -1.4757 0
M  V30 3334 H 328.358 -0.489806 -3.854 0
M  V30 3335 H 330.03 -3.06737 -3.44544 0
M  V30 3336 H 328.273 -2.93598 -3.19348 0
M  V30 3337 H 328.944 -2.70635 -4.81103 0
M  V30 3338 H 331.42 -0.934075 -4.0548 0
M  V30 3339 H 330.296 -0.795361 -5.43107 0
M  V30 3340 H 330.557 0.588834 -4.38161 0
M  V30 3341 N 329.616 1.39756 -0.72842 0
M  V30 3342 C 330.526 2.34444 -0.0855374 0
M  V30 3343 C 331.542 1.57976 0.729356 0
M  V30 3344 O 332.718 1.90301 0.659346 0
M  V30 3345 C 329.783 3.36965 0.815798 0
M  V30 3346 C 328.844 4.29299 -0.0105996 0
M  V30 3347 C 328.077 5.26923 0.84781 0
M  V30 3348 O 328.3 5.30859 2.08673 0
M  V30 3349 O 327.234 6.01249 0.279969 0
M  V30 3350 H 331.06 2.91065 -0.866892 0
M  V30 3351 H 328.645 1.4117 -0.48902 0
M  V30 3352 H 330.527 3.99804 1.33171 0
M  V30 3353 H 329.202 2.82739 1.57608 0
M  V30 3354 H 328.109 3.69703 -0.571877 0
M  V30 3355 H 329.442 4.86712 -0.73295 0
M  V30 3356 N 331.094 0.475555 1.50254 0
M  V30 3357 C 332.334 -0.0765802 2.04256 0
M  V30 3358 C 332.698 -1.36587 1.34937 0
M  V30 3359 O 333.899 -2.00066 1.79519 0
M  V30 3360 C 332.17 -0.251668 3.56513 0
M  V30 3361 S 333.729 -0.761716 4.32138 0
M  V30 3362 H 330.547 -0.0138456 0.710865 0
M  V30 3363 H 333.149 0.643714 1.84598 0
M  V30 3364 H 331.853 0.692404 4.04517 0
M  V30 3365 H 331.384 -0.997946 3.80532 0
M  V30 3366 H 333.399 -2.03451 4.52573 0
M  V30 3367 N 332.573 -1.56217 0.208337 0
M  V30 3368 C 333.984 -1.84243 -0.301904 0
M  V30 3369 C 334.335 -1.12939 -1.60434 0
M  V30 3370 O 333.46 -0.39461 -2.12772 0
M  V30 3371 C 334.055 -3.34231 -0.554543 0
M  V30 3372 C 332.614 -3.62621 -1.00912 0
M  V30 3373 C 331.761 -2.77224 -0.064933 0
M  V30 3374 H 334.712 -1.52712 0.431833 0
M  V30 3375 H 334.733 -3.5372 -1.40223 0
M  V30 3376 H 334.245 -3.86099 0.393561 0
M  V30 3377 H 332.346 -3.16197 -1.97104 0
M  V30 3378 H 332.459 -4.7071 -0.892674 0
M  V30 3379 H 330.823 -2.48256 -0.56929 0
M  V30 3380 H 331.606 -3.31887 0.877851 0
M  V30 3381 N 334.051 0.0651679 -1.57465 0
M  V30 3382 C 335.462 0.616213 -1.76238 0
M  V30 3383 C 335.813 1.7756 -0.834689 0
M  V30 3384 O 334.938 2.1639 -0.0204156 0
M  V30 3385 C 335.533 1.12462 -3.1959 0
M  V30 3386 C 334.092 1.62147 -3.39684 0
M  V30 3387 C 333.239 0.543739 -2.71917 0
M  V30 3388 H 336.19 -0.161022 -1.57881 0
M  V30 3389 H 336.211 1.99324 -3.24114 0
M  V30 3390 H 335.723 0.280592 -3.87084 0
M  V30 3391 H 333.824 2.48854 -2.77313 0
M  V30 3392 H 333.937 1.69385 -4.48158 0
M  V30 3393 H 332.301 0.990352 -2.34657 0
M  V30 3394 H 333.084 -0.290216 -3.42071 0
M  V30 3395 N 335.529 1.53961 0.336706 0
M  V30 3396 C 336.769 1.73254 1.08454 0
M  V30 3397 C 337.133 0.488937 1.8567 0
M  V30 3398 O 338.334 0.559001 2.62923 0
M  V30 3399 C 336.605 2.96519 1.99528 0
M  V30 3400 S 338.164 3.36655 2.81441 0
M  V30 3401 H 334.982 0.609353 0.366347 0
M  V30 3402 H 337.584 1.92117 0.362124 0
M  V30 3403 H 336.288 3.85193 1.41614 0
M  V30 3404 H 335.819 2.80142 2.76196 0
M  V30 3405 H 337.834 2.90925 4.01967 0
M  V30 3406 N 337.007 -0.598083 1.45811 0
M  V30 3407 C 338.418 -1.18011 1.44673 0
M  V30 3408 C 338.769 -1.95378 0.179364 0
M  V30 3409 O 337.894 -2.04124 -0.718509 0
M  V30 3410 C 338.489 -2.14677 2.62105 0
M  V30 3411 C 337.048 -2.68236 2.64057 0
M  V30 3412 C 336.195 -1.43816 2.37091 0
M  V30 3413 H 339.146 -0.38686 1.53913 0
M  V30 3414 H 339.167 -2.97878 2.36746 0
M  V30 3415 H 338.679 -1.5834 3.5433 0
M  V30 3416 H 336.78 -3.28486 1.75864 0
M  V30 3417 H 336.893 -3.12021 3.63566 0
M  V30 3418 H 335.257 -1.731 1.86838 0
M  V30 3419 H 336.04 -0.893333 3.31473 0
M  V30 3420 N 338.485 -1.33259 -0.841409 0
M  V30 3421 C 339.448 -1.23221 -1.9326 0
M  V30 3422 C 340.448 -0.151895 -1.60081 0
M  V30 3423 O 341.638 -0.403246 -1.69468 0
M  V30 3424 C 338.77 -0.898123 -3.28856 0
M  V30 3425 H 339.963 -2.2021 -2.03587 0
M  V30 3426 H 337.516 -1.17281 -1.03319 0
M  V30 3427 H 338.251 0.0693841 -3.24226 0
M  V30 3428 H 338.036 -1.67934 -3.54317 0
M  V30 3429 H 339.526 -0.852563 -4.08805 0
M  V30 3430 N 339.963 1.05934 -1.16686 0
M  V30 3431 C 341.374 1.60263 -0.957745 0
M  V30 3432 C 341.725 1.89789 0.49745 0
M  V30 3433 O 340.85 1.67401 1.37135 0
M  V30 3434 C 341.445 2.91172 -1.73218 0
M  V30 3435 C 340.004 3.42188 -1.56794 0
M  V30 3436 C 339.151 2.16028 -1.73859 0
M  V30 3437 H 342.102 0.888392 -1.31504 0
M  V30 3438 H 342.123 3.60744 -1.21014 0
M  V30 3439 H 341.635 2.6965 -2.79124 0
M  V30 3440 H 339.736 3.68762 -0.533437 0
M  V30 3441 H 339.849 4.17273 -2.35414 0
M  V30 3442 H 338.213 2.26426 -1.16633 0
M  V30 3443 H 338.996 1.96985 -2.81161 0
M  V30 3444 N 341.441 0.965919 1.2453 0
M  V30 3445 C 342.852 0.665929 1.7442 0
M  V30 3446 C 343.203 -0.818407 1.78316 0
M  V30 3447 O 342.328 -1.64037 1.41141 0
M  V30 3448 C 342.923 1.20211 3.16757 0
M  V30 3449 C 341.482 0.952059 3.6416 0
M  V30 3450 C 340.629 1.33848 2.42858 0
M  V30 3451 H 343.58 1.14144 1.10258 0
M  V30 3452 H 343.601 0.567544 3.76244 0
M  V30 3453 H 343.113 2.28244 3.13889 0
M  V30 3454 H 341.214 -0.112821 3.72429 0
M  V30 3455 H 341.327 1.59645 4.51719 0
M  V30 3456 H 339.691 0.756864 2.43195 0
M  V30 3457 H 340.474 2.42827 2.42673 0
M  V30 3458 N 342.919 -1.39368 0.735821 0
M  V30 3459 C 344.165 -2.00794 0.284544 0
M  V30 3460 C 344.498 -1.58255 -1.12557 0
M  V30 3461 O 343.773 -0.811819 -1.76748 0
M  V30 3462 C 344.056 -3.58011 0.387337 0
M  V30 3463 C 343.909 -4.10566 1.83728 0
M  V30 3464 C 345.228 -4.395 -0.22975 0
M  V30 3465 H 342.347 -0.729501 0.104866 0
M  V30 3466 H 344.989 -1.65564 0.93213 0
M  V30 3467 H 343.139 -3.88154 -0.164006 0
M  V30 3468 H 344.811 -3.91139 2.44556 0
M  V30 3469 H 343.054 -3.64095 2.35833 0
M  V30 3470 H 343.725 -5.19702 1.86047 0
M  V30 3471 H 346.201 -4.15406 0.240257 0
M  V30 3472 H 345.077 -5.48752 -0.127485 0
M  V30 3473 H 345.338 -4.22062 -1.3159 0
M  V30 3474 N 344.397 -0.483516 -1.5 0
M  V30 3475 C 345.36 0.292965 -2.2732 0
M  V30 3476 C 346.36 0.909499 -1.32608 0
M  V30 3477 O 347.55 0.776745 -1.55924 0
M  V30 3478 C 344.682 1.41854 -3.09984 0
M  V30 3479 H 345.875 -0.385289 -2.97415 0
M  V30 3480 H 343.428 -0.237942 -1.54478 0
M  V30 3481 H 344.163 2.13148 -2.44414 0
M  V30 3482 H 343.948 0.982114 -3.79601 0
M  V30 3483 H 345.438 1.96597 -3.68429 0
M  V30 3484 N 345.875 1.56104 -0.216619 0
M  V30 3485 C 347.123 1.97781 0.415593 0
M  V30 3486 C 347.444 1.10536 1.60645 0
M  V30 3487 O 346.714 0.181303 1.95059 0
M  V30 3488 H 345.294 0.730415 0.156534 0
M  V30 3489 H 347.956 1.92445 -0.308366 0
M  V30 3490 H 347.052 3.03072 0.74525 0
M  V30 3491 N 347.353 -0.0568162 1.57498 0
M  V30 3492 C 348.764 -0.606858 1.76562 0
M  V30 3493 C 349.115 -1.77114 0.844094 0
M  V30 3494 O 348.24 -2.16376 0.0318911 0
M  V30 3495 C 348.835 -1.10766 3.20182 0
M  V30 3496 C 347.394 -1.60344 3.40539 0
M  V30 3497 C 346.541 -0.529311 2.72201 0
M  V30 3498 H 349.492 0.169393 1.57793 0
M  V30 3499 H 349.513 -1.97602 3.25167 0
M  V30 3500 H 349.025 -0.26006 3.87228 0
M  V30 3501 H 347.126 -2.47379 2.78629 0
M  V30 3502 H 347.239 -1.67006 4.4905 0
M  V30 3503 H 345.603 -0.977893 2.35179 0
M  V30 3504 H 346.386 0.308352 3.41912 0
M  V30 3505 N 348.832 -1.54138 -0.328536 0
M  V30 3506 C 350.057 -1.76378 -1.09112 0
M  V30 3507 C 350.482 -0.508596 -1.81094 0
M  V30 3508 O 349.84 0.539598 -1.73084 0
M  V30 3509 C 349.888 -2.95358 -2.06872 0
M  V30 3510 O 348.992 -2.66556 -3.14677 0
M  V30 3511 H 348.333 -0.584614 -0.314838 0
M  V30 3512 H 350.863 -2.01146 -0.374348 0
M  V30 3513 H 350.873 -3.22566 -2.4983 0
M  V30 3514 H 349.548 -3.86385 -1.5388 0
M  V30 3515 H 348.125 -2.50282 -2.7643 0
M  V30 3516 N 350.31 0.590341 -1.46126 0
M  V30 3517 C 351.556 1.35082 -1.51264 0
M  V30 3518 C 351.889 1.93534 -0.160711 0
M  V30 3519 O 351.164 1.76045 0.826956 0
M  V30 3520 C 351.447 2.48588 -2.6053 0
M  V30 3521 C 351.3 1.95221 -4.05227 0
M  V30 3522 C 352.619 3.50662 -2.6594 0
M  V30 3523 H 349.738 0.489803 -0.550692 0
M  V30 3524 H 352.38 0.663887 -1.78024 0
M  V30 3525 H 350.53 3.07186 -2.37843 0
M  V30 3526 H 352.202 1.41139 -4.39178 0
M  V30 3527 H 350.445 1.26101 -4.15068 0
M  V30 3528 H 351.116 2.77121 -4.77397 0
M  V30 3529 H 353.592 3.01934 -2.86313 0
M  V30 3530 H 352.468 4.27551 -3.44226 0
M  V30 3531 H 352.729 4.07399 -1.71694 0
M  V30 3532 N 351.788 1.33704 0.83433 0
M  V30 3533 C 353.035 1.25417 1.58987 0
M  V30 3534 C 353.363 -0.178869 1.93676 0
M  V30 3535 O 352.618 -1.13723 1.59265 0
M  V30 3536 C 352.917 2.07926 2.90692 0
M  V30 3537 C 352.583 3.57066 2.75345 0
M  V30 3538 C 351.245 3.97724 2.70867 0
M  V30 3539 C 353.597 4.51817 2.59828 0
M  V30 3540 C 350.925 5.31344 2.48778 0
M  V30 3541 C 353.277 5.85604 2.39272 0
M  V30 3542 C 351.941 6.25439 2.33199 0
M  V30 3543 H 351.211 0.458934 0.581774 0
M  V30 3544 H 353.858 1.65335 0.966261 0
M  V30 3545 H 352.163 1.608 3.57282 0
M  V30 3546 H 353.86 1.98868 3.48213 0
M  V30 3547 H 350.45 3.24785 2.79665 0
M  V30 3548 H 354.634 4.21311 2.62319 0
M  V30 3549 H 349.89 5.61241 2.42526 0
M  V30 3550 H 354.064 6.58623 2.2625 0
M  V30 3551 H 351.691 7.28914 2.15843 0
M  V30 3552 N 353.266 -1.05314 1.17247 0
M  V30 3553 C 354.196 -2.1498 0.911362 0
M  V30 3554 C 355.177 -1.69471 -0.146169 0
M  V30 3555 O 356.362 -1.942 0.003812 0
M  V30 3556 C 353.492 -3.4472 0.422528 0
M  V30 3557 C 352.446 -4.03789 1.4191 0
M  V30 3558 C 351.772 -5.28858 0.788274 0
M  V30 3559 C 353.072 -4.41418 2.7919 0
M  V30 3560 H 354.766 -2.3708 1.82848 0
M  V30 3561 H 352.312 -1.13938 0.880569 0
M  V30 3562 H 354.265 -4.20787 0.227289 0
M  V30 3563 H 352.989 -3.22269 -0.530123 0
M  V30 3564 H 351.648 -3.2979 1.60106 0
M  V30 3565 H 351.296 -5.02709 -0.171173 0
M  V30 3566 H 350.996 -5.69338 1.45353 0
M  V30 3567 H 352.52 -6.07612 0.603282 0
M  V30 3568 H 353.934 -5.08524 2.64719 0
M  V30 3569 H 352.331 -4.92913 3.42282 0
M  V30 3570 H 353.401 -3.51819 3.33693 0
M  V30 3571 N 354.744 -0.972509 -1.24016 0
M  V30 3572 C 355.991 -0.637034 -1.92219 0
M  V30 3573 C 356.319 0.828418 -1.75976 0
M  V30 3574 O 355.574 1.61206 -1.10955 0
M  V30 3575 C 355.873 -0.963694 -3.44162 0
M  V30 3576 C 355.539 -2.41807 -3.80579 0
M  V30 3577 C 354.201 -2.81556 -3.9023 0
M  V30 3578 C 356.553 -3.36172 -3.98293 0
M  V30 3579 C 353.881 -4.14702 -4.15017 0
M  V30 3580 C 356.233 -4.68952 -4.24578 0
M  V30 3581 C 354.897 -5.08472 -4.32449 0
M  V30 3582 H 354.167 -0.233107 -0.703379 0
M  V30 3583 H 356.814 -1.2249 -1.47202 0
M  V30 3584 H 355.119 -0.29365 -3.90698 0
M  V30 3585 H 356.816 -0.682449 -3.9515 0
M  V30 3586 H 353.406 -2.09988 -3.73635 0
M  V30 3587 H 357.59 -3.06644 -3.90234 0
M  V30 3588 H 352.846 -4.4494 -4.19331 0
M  V30 3589 H 357.02 -5.42037 -4.37229 0
M  V30 3590 H 354.647 -6.11665 -4.51409 0
M  V30 3591 N 356.222 1.38976 -0.743202 0
M  V30 3592 C 357.633 1.83123 -0.363732 0
M  V30 3593 C 357.984 1.6205 1.10609 0
M  V30 3594 O 357.109 1.11606 1.854 0
M  V30 3595 C 357.704 3.32439 -0.653408 0
M  V30 3596 C 356.263 3.74974 -0.327338 0
M  V30 3597 C 355.41 2.61878 -0.911875 0
M  V30 3598 H 358.361 1.27852 -0.940191 0
M  V30 3599 H 358.382 3.80432 0.0720031 0
M  V30 3600 H 357.894 3.47745 -1.72323 0
M  V30 3601 H 355.995 3.65252 0.736314 0
M  V30 3602 H 356.108 4.72106 -0.815631 0
M  V30 3603 H 354.472 2.52448 -0.337944 0
M  V30 3604 H 355.255 2.79987 -1.98651 0
M  V30 3605 N 357.7 0.491464 1.49741 0
M  V30 3606 C 359.111 0.0413169 1.86654 0
M  V30 3607 C 359.462 -1.36985 1.40462 0
M  V30 3608 O 358.587 -2.01917 0.778354 0
M  V30 3609 C 359.182 0.0682023 3.38731 0
M  V30 3610 C 357.741 -0.32656 3.74981 0
M  V30 3611 C 356.888 0.444888 2.73708 0
M  V30 3612 H 359.839 0.704733 1.42194 0
M  V30 3613 H 359.86 -0.729322 3.73445 0
M  V30 3614 H 359.372 1.09539 3.72321 0
M  V30 3615 H 357.473 -1.35734 3.46997 0
M  V30 3616 H 357.586 -0.013741 4.79098 0
M  V30 3617 H 355.95 -0.104062 2.54487 0
M  V30 3618 H 356.733 1.47197 3.10142 0
M  V30 3619 N 359.178 -1.55987 0.224894 0
M  V30 3620 C 360.125 -2.20436 -0.68385 0
M  V30 3621 C 361.095 -1.16102 -1.18783 0
M  V30 3622 O 362.28 -1.4447 -1.24632 0
M  V30 3623 C 359.42 -2.89076 -1.88491 0
M  V30 3624 C 358.533 -4.08012 -1.41951 0
M  V30 3625 C 357.668 -4.64426 -2.5784 0
M  V30 3626 C 356.707 -5.75656 -2.08053 0
M  V30 3627 N 355.844 -6.26347 -3.17227 0
M  V30 3628 H 360.684 -2.97727 -0.12754 0
M  V30 3629 H 358.221 -1.47011 -0.0511978 0
M  V30 3630 H 360.179 -3.27059 -2.59014 0
M  V30 3631 H 358.809 -2.14298 -2.41405 0
M  V30 3632 H 357.861 -3.75492 -0.609095 0
M  V30 3633 H 359.173 -4.88375 -1.01447 0
M  V30 3634 H 358.327 -5.04869 -3.3644 0
M  V30 3635 H 357.066 -3.83233 -3.01635 0
M  V30 3636 H 356.071 -5.34712 -1.27916 0
M  V30 3637 H 357.296 -6.58686 -1.65255 0
M  V30 3638 H 355.242 -5.48067 -3.60497 0
M  V30 3639 H 355.159 -7.01843 -2.80986 0
M  V30 3640 H 356.427 -6.71447 -3.95953 0
M  V30 3641 N 360.656 0.0484629 -1.57525 0
M  V30 3642 C 362.067 0.597486 -1.76881 0
M  V30 3643 C 362.418 1.76664 -0.853475 0
M  V30 3644 O 361.543 2.16357 -0.0433656 0
M  V30 3645 C 362.138 1.09066 -3.20765 0
M  V30 3646 C 360.697 1.58535 -3.41385 0
M  V30 3647 C 359.844 0.514868 -2.72478 0
M  V30 3648 H 362.795 -0.177758 -1.57701 0
M  V30 3649 H 362.816 1.95875 -3.2621 0
M  V30 3650 H 362.328 0.239521 -3.8736 0
M  V30 3651 H 360.429 2.45898 -2.79937 0
M  V30 3652 H 360.542 1.64622 -4.49929 0
M  V30 3653 H 358.906 0.965407 -2.35695 0
M  V30 3654 H 359.689 -0.32648 -3.41744 0
M  V30 3655 N 362.134 1.5431 0.320358 0
M  V30 3656 C 363.081 1.83918 1.39438 0
M  V30 3657 C 364.051 0.686525 1.51248 0
M  V30 3658 O 365.236 0.933269 1.66417 0
M  V30 3659 C 362.376 2.075 2.75749 0
M  V30 3660 C 361.489 3.35177 2.72544 0
M  V30 3661 C 360.624 3.48704 4.00723 0
M  V30 3662 C 359.663 4.70244 3.91838 0
M  V30 3663 N 358.8 4.80679 5.11754 0
M  V30 3664 H 363.64 2.75544 1.13489 0
M  V30 3665 H 361.177 1.36459 0.549309 0
M  V30 3666 H 363.135 2.19166 3.54996 0
M  V30 3667 H 361.765 1.19163 3 0
M  V30 3668 H 360.817 3.32233 1.85271 0
M  V30 3669 H 362.129 4.24534 2.61863 0
M  V30 3670 H 361.283 3.59928 4.88402 0
M  V30 3671 H 360.022 2.57445 4.14214 0
M  V30 3672 H 359.027 4.59072 3.02544 0
M  V30 3673 H 360.252 5.6289 3.7991 0
M  V30 3674 H 358.198 3.92337 5.25745 0
M  V30 3675 H 358.115 5.64007 5.0342 0
M  V30 3676 H 359.383 4.96239 6.01138 0
M  V30 3677 N 363.613 -0.582584 1.46437 0
M  V30 3678 C 364.89 -1.34276 1.4223 0
M  V30 3679 C 365.27 -2.10835 0.10583 0
M  V30 3680 O 364.618 -2.09485 -0.912596 0
M  V30 3681 C 364.828 -2.26865 2.65204 0
M  V30 3682 C 366.176 -2.88691 3.11356 0
M  V30 3683 O 367.2 -2.37178 2.65753 0
M  V30 3684 O 366.059 -3.82255 3.90568 0
M  V30 3685 H 363.153 -0.603326 0.565621 0
M  V30 3686 H 365.699 -0.603591 1.58603 0
M  V30 3687 H 364.471 -1.69724 3.52576 0
M  V30 3688 H 364.094 -3.08122 2.5129 0
M  V30 3689 N 365.091 -1.34144 -0.827227 0
M  V30 3690 C 366.319 -1.29325 -1.61501 0
M  V30 3691 C 366.734 0.13354 -1.88327 0
M  V30 3692 O 366.091 1.0793 -1.47164 0
M  V30 3693 C 366.142 -2.07746 -2.95844 0
M  V30 3694 O 365.863 -3.4486 -2.70191 0
M  V30 3695 C 367.364 -2.10273 -3.90256 0
M  V30 3696 H 364.584 -0.445069 -0.50215 0
M  V30 3697 H 367.128 -1.76693 -1.02955 0
M  V30 3698 H 365.283 -1.6403 -3.5096 0
M  V30 3699 H 365.697 -3.85345 -3.55822 0
M  V30 3700 H 367.171 -2.69575 -4.81698 0
M  V30 3701 H 367.648 -1.096 -4.25305 0
M  V30 3702 H 368.254 -2.54059 -3.41078 0
M  V30 3703 N 366.569 1.04691 -1.17803 0
M  V30 3704 C 367.499 2.14494 -0.92275 0
M  V30 3705 C 368.48 1.69546 0.137179 0
M  V30 3706 O 369.665 1.94195 -0.0141108 0
M  V30 3707 C 366.795 3.44491 -0.440803 0
M  V30 3708 C 365.749 4.03031 -1.4405 0
M  V30 3709 C 365.075 5.28432 -0.81631 0
M  V30 3710 C 366.375 4.39932 -2.81527 0
M  V30 3711 H 368.069 2.36107 -1.84103 0
M  V30 3712 H 365.615 1.1347 -0.886599 0
M  V30 3713 H 367.568 4.2066 -0.249602 0
M  V30 3714 H 366.292 3.22546 0.513025 0
M  V30 3715 H 364.951 3.28937 -1.61853 0
M  V30 3716 H 364.599 5.02792 0.144511 0
M  V30 3717 H 364.299 5.68559 -1.48371 0
M  V30 3718 H 365.823 6.07284 -0.635496 0
M  V30 3719 H 367.237 5.07113 -2.67412 0
M  V30 3720 H 365.634 4.9109 -3.44892 0
M  V30 3721 H 366.704 3.50045 -3.35554 0
M  V30 3722 N 368.047 0.979072 1.23499 0
M  V30 3723 C 368.98 0.463027 2.23453 0
M  V30 3724 C 369.958 -0.469128 1.55685 0
M  V30 3725 O 371.142 -0.397882 1.84253 0
M  V30 3726 C 368.269 -0.330308 3.37086 0
M  V30 3727 C 367.315 0.545795 4.22993 0
M  V30 3728 S 368.148 1.99285 4.97037 0
M  V30 3729 C 369.304 1.20862 6.1412 0
M  V30 3730 H 369.537 1.31005 2.6688 0
M  V30 3731 H 367.07 0.784965 1.32957 0
M  V30 3732 H 369.028 -0.782027 4.02982 0
M  V30 3733 H 367.689 -1.15244 2.92194 0
M  V30 3734 H 366.882 -0.0638928 5.03959 0
M  V30 3735 H 366.484 0.933705 3.62157 0
M  V30 3736 H 368.776 0.469284 6.75873 0
M  V30 3737 H 369.719 1.99307 6.79472 0
M  V30 3738 H 370.127 0.727992 5.59786 0
M  V30 3739 N 369.525 -1.3858 0.750561 0
M  V30 3740 C 370.774 -1.99424 0.302172 0
M  V30 3741 C 371.087 -1.60254 -1.12152 0
M  V30 3742 O 372.293 -2.14046 -1.67023 0
M  V30 3743 C 370.749 -3.56558 0.489307 0
M  V30 3744 C 370.357 -4.04682 1.92189 0
M  V30 3745 C 372.101 -4.24374 0.103478 0
M  V30 3746 C 370.008 -5.54446 2.05775 0
M  V30 3747 H 368.938 -0.746046 0.10923 0
M  V30 3748 H 371.589 -1.58383 0.92667 0
M  V30 3749 H 369.971 -3.95472 -0.204329 0
M  V30 3750 H 371.145 -3.77065 2.64875 0
M  V30 3751 H 369.46 -3.4958 2.26236 0
M  V30 3752 H 372.057 -5.34384 0.183787 0
M  V30 3753 H 372.4 -4.05468 -0.943481 0
M  V30 3754 H 372.933 -3.90688 0.748854 0
M  V30 3755 H 369.672 -5.78252 3.08714 0
M  V30 3756 H 369.192 -5.83816 1.37546 0
M  V30 3757 H 370.871 -6.20099 1.84626 0
M  V30 3758 N 371.003 -0.499398 -1.49478 0
M  V30 3759 C 372.228 0.044722 -2.07352 0
M  V30 3760 C 372.653 1.30207 -1.35749 0
M  V30 3761 O 372.011 1.76516 -0.413732 0
M  V30 3762 C 372.059 0.283013 -3.59488 0
M  V30 3763 O 371.163 1.35804 -3.89398 0
M  V30 3764 H 370.504 -0.0255147 -0.66351 0
M  V30 3765 H 373.034 -0.698561 -1.92305 0
M  V30 3766 H 373.044 0.515007 -4.04737 0
M  V30 3767 H 371.719 -0.635636 -4.11014 0
M  V30 3768 H 370.296 1.11113 -3.55961 0
M  V30 3769 N 372.481 1.55866 -0.233164 0
M  V30 3770 C 373.897 1.59133 0.121988 0
M  V30 3771 C 374.097 1.25016 1.58029 0
M  V30 3772 O 373.153 0.990922 2.32243 0
M  V30 3773 C 374.466 2.99932 -0.214792 0
M  V30 3774 C 376.014 3.12601 -0.157971 0
M  V30 3775 C 376.489 4.55597 -0.46859 0
M  V30 3776 N 377.98 4.61305 -0.418585 0
M  V30 3777 C 378.715 5.69903 -0.63227 0
M  V30 3778 N 378.211 6.86819 -0.90835 0
M  V30 3779 N 380.004 5.59264 -0.563913 0
M  V30 3780 H 372.155 1.76315 -1.18434 0
M  V30 3781 H 374.418 0.820093 -0.475553 0
M  V30 3782 H 374.124 3.29588 -1.22739 0
M  V30 3783 H 373.998 3.74327 0.464691 0
M  V30 3784 H 376.385 2.82735 0.845283 0
M  V30 3785 H 376.466 2.40511 -0.871102 0
M  V30 3786 H 376.11 4.86182 -1.46934 0
M  V30 3787 H 376.04 5.25928 0.265865 0
M  V30 3788 H 378.531 3.77297 -0.213368 0
M  V30 3789 H 378.844 7.65507 -1.05919 0
M  V30 3790 H 377.189 6.88536 -0.945673 0
M  V30 3791 H 380.38 4.66802 -0.348372 0
M  V30 3792 H 380.553 6.43831 -0.733847 0
M  V30 3793 N 373.959 -0.0401083 1.57549 0
M  V30 3794 C 375.187 -0.745196 1.93014 0
M  V30 3795 C 375.602 -1.6948 0.831984 0
M  V30 3796 O 374.959 -1.81482 -0.192463 0
M  V30 3797 C 375.01 -1.51176 3.28372 0
M  V30 3798 O 374.731 -0.600284 4.33968 0
M  V30 3799 C 376.232 -2.315 3.78051 0
M  V30 3800 H 373.452 -0.210088 0.637263 0
M  V30 3801 H 375.996 -0.000924689 2.045 0
M  V30 3802 H 374.151 -2.20801 3.18317 0
M  V30 3803 H 374.565 -1.13669 5.12035 0
M  V30 3804 H 376.039 -2.80697 4.75303 0
M  V30 3805 H 376.516 -3.12436 3.08675 0
M  V30 3806 H 377.122 -1.66971 3.91153 0
M  V30 3807 N 375.437 -1.54477 -0.31217 0
M  V30 3808 C 376.848 -1.64344 -0.885891 0
M  V30 3809 C 377.199 -0.54485 -1.88483 0
M  V30 3810 O 376.324 0.320387 -2.14015 0
M  V30 3811 C 376.919 -2.97908 -1.61357 0
M  V30 3812 C 375.478 -3.09933 -2.13585 0
M  V30 3813 C 374.625 -2.59971 -0.964897 0
M  V30 3814 H 377.576 -1.58448 -0.0894528 0
M  V30 3815 H 377.597 -2.88706 -2.47848 0
M  V30 3816 H 377.109 -3.77845 -0.886277 0
M  V30 3817 H 375.21 -2.34694 -2.89395 0
M  V30 3818 H 375.323 -4.15916 -2.37804 0
M  V30 3819 H 373.687 -2.16147 -1.34731 0
M  V30 3820 H 374.47 -3.42376 -0.251742 0
M  V30 3821 N 376.915 0.57481 -1.46744 0
M  V30 3822 C 377.825 1.711 -1.60505 0
M  V30 3823 C 378.841 1.67008 -0.488307 0
M  V30 3824 O 380.017 1.86774 -0.753495 0
M  V30 3825 C 377.082 3.07608 -1.59932 0
M  V30 3826 C 376.143 3.22904 -2.82898 0
M  V30 3827 C 375.376 4.529 -2.82343 0
M  V30 3828 O 375.599 5.37278 -1.91542 0
M  V30 3829 O 374.533 4.71611 -3.73987 0
M  V30 3830 H 378.359 1.62436 -2.56609 0
M  V30 3831 H 375.944 0.742779 -1.29627 0
M  V30 3832 H 377.826 3.88877 -1.62336 0
M  V30 3833 H 376.501 3.16692 -0.669898 0
M  V30 3834 H 375.408 2.41099 -2.86046 0
M  V30 3835 H 376.741 3.18715 -3.75076 0
M  V30 3836 N 378.394 1.34581 0.820102 0
M  V30 3837 C 379.64 1.27285 1.57881 0
M  V30 3838 C 379.973 -0.156137 1.93571 0
M  V30 3839 O 379.248 -1.10222 1.60254 0
M  V30 3840 C 379.531 2.16639 2.87645 0
M  V30 3841 C 379.384 3.68088 2.58517 0
M  V30 3842 C 380.703 2.05378 3.8924 0
M  V30 3843 H 377.822 0.463714 0.572833 0
M  V30 3844 H 380.464 1.64859 0.944539 0
M  V30 3845 H 378.614 1.84725 3.41773 0
M  V30 3846 H 380.286 4.10382 2.10676 0
M  V30 3847 H 378.529 3.89038 1.91917 0
M  V30 3848 H 379.2 4.2598 3.51063 0
M  V30 3849 H 381.676 2.33404 3.44473 0
M  V30 3850 H 380.552 2.7012 4.77835 0
M  V30 3851 H 380.813 1.0316 4.29896 0
M  V30 3852 N 379.872 -1.04064 1.18357 0
M  V30 3853 C 381.1 -1.80916 1.00384 0
M  V30 3854 C 381.515 -1.83414 -0.447738 0
M  V30 3855 O 380.872 -1.26962 -1.31099 0
M  V30 3856 C 380.923 -3.26516 1.55144 0
M  V30 3857 O 380.644 -3.2424 2.94618 0
M  V30 3858 C 382.145 -4.20013 1.41789 0
M  V30 3859 H 379.365 -0.569728 0.354474 0
M  V30 3860 H 381.909 -1.31151 1.56906 0
M  V30 3861 H 380.064 -3.73512 1.02798 0
M  V30 3862 H 380.478 -4.15452 3.20156 0
M  V30 3863 H 381.952 -5.20111 1.84901 0
M  V30 3864 H 382.429 -4.37667 0.36661 0
M  V30 3865 H 383.035 -3.78881 1.93207 0
M  V30 3866 N 381.35 -0.985608 -1.22978 0
M  V30 3867 C 382.59 -0.665487 -1.93263 0
M  V30 3868 C 382.954 0.78706 -1.75127 0
M  V30 3869 O 384.155 1.21826 -2.39608 0
M  V30 3870 C 382.426 -1.0515 -3.41582 0
M  V30 3871 S 383.985 -0.848637 -4.30516 0
M  V30 3872 H 380.803 -0.24355 -0.667985 0
M  V30 3873 H 383.405 -1.26635 -1.48942 0
M  V30 3874 H 382.109 -2.10517 -3.52293 0
M  V30 3875 H 381.64 -0.442134 -3.90908 0
M  V30 3876 H 383.655 0.264717 -4.95493 0
M  V30 3877 N 382.828 1.3818 -0.7579 0
M  V30 3878 C 384.074 2.00316 -0.316453 0
M  V30 3879 C 384.407 1.60026 1.10025 0
M  V30 3880 O 383.682 0.839835 1.75434 0
M  V30 3881 C 383.965 3.57349 -0.444245 0
M  V30 3882 C 383.818 4.07591 -1.90236 0
M  V30 3883 C 385.137 4.3981 0.1598 0
M  V30 3884 H 382.256 0.727741 -0.116459 0
M  V30 3885 H 384.898 1.6406 -0.958352 0
M  V30 3886 H 383.048 3.88365 0.102233 0
M  V30 3887 H 384.72 3.87199 -2.50748 0
M  V30 3888 H 382.963 3.60297 -2.41595 0
M  V30 3889 H 383.634 5.16677 -1.94291 0
M  V30 3890 H 386.11 4.14971 -0.306314 0
M  V30 3891 H 384.986 5.48885 0.0401675 0
M  V30 3892 H 385.247 4.24102 1.24859 0
M  V30 3893 N 384.306 0.507319 1.49211 0
M  V30 3894 C 385.552 -0.0350047 2.0277 0
M  V30 3895 C 385.885 -1.3606 1.38569 0
M  V30 3896 O 385.16 -1.87321 0.523542 0
M  V30 3897 C 385.443 -0.180916 3.59645 0
M  V30 3898 C 385.296 1.16825 4.34364 0
M  V30 3899 C 386.615 -0.918558 4.30407 0
M  V30 3900 H 383.734 -0.0112473 0.736914 0
M  V30 3901 H 386.376 0.659956 1.7817 0
M  V30 3902 H 384.526 -0.772826 3.80736 0
M  V30 3903 H 386.198 1.79952 4.24753 0
M  V30 3904 H 384.441 1.75594 3.96673 0
M  V30 3905 H 385.112 1.01939 5.42506 0
M  V30 3906 H 387.588 -0.41649 4.1401 0
M  V30 3907 H 386.464 -0.989505 5.39907 0
M  V30 3908 H 386.725 -1.96373 3.96093 0
M  V30 3909 N 385.784 -1.5574 0.241426 0
M  V30 3910 C 387.03 -1.99104 -0.385406 0
M  V30 3911 C 387.363 -1.1293 -1.57988 0
M  V30 3912 O 386.638 -0.191449 -1.93555 0
M  V30 3913 C 386.921 -3.51087 -0.800616 0
M  V30 3914 C 386.774 -4.48028 0.398874 0
M  V30 3915 C 388.093 -4.08015 -1.64959 0
M  V30 3916 H 385.212 -0.723848 -0.138614 0
M  V30 3917 H 387.854 -1.86903 0.341642 0
M  V30 3918 H 386.004 -3.61615 -1.4201 0
M  V30 3919 H 387.676 -4.49487 1.03726 0
M  V30 3920 H 385.919 -4.21077 1.04293 0
M  V30 3921 H 386.59 -5.51962 0.0651056 0
M  V30 3922 H 389.066 -4.00555 -1.12672 0
M  V30 3923 H 387.942 -5.14635 -1.90898 0
M  V30 3924 H 388.203 -3.56131 -2.61961 0
M  V30 3925 N 387.262 0.0317525 -1.57568 0
M  V30 3926 C 388.539 0.758366 -1.803 0
M  V30 3927 C 388.919 1.93718 -0.838845 0
M  V30 3928 O 388.267 2.28187 0.119571 0
M  V30 3929 C 388.477 1.19392 -3.27943 0
M  V30 3930 C 389.825 1.61094 -3.92854 0
M  V30 3931 O 390.849 1.28857 -3.32076 0
M  V30 3932 O 389.708 2.20918 -4.99858 0
M  V30 3933 H 386.802 0.366514 -0.741348 0
M  V30 3934 H 389.348 0.00873765 -1.69698 0
M  V30 3935 H 388.12 0.352275 -3.89711 0
M  V30 3936 H 387.743 2.00365 -3.43424 0
M  V30 3937 N 388.74 1.54641 0.303973 0
M  V30 3938 C 389.986 1.74038 1.04109 0
M  V30 3939 C 390.319 0.523051 1.87024 0
M  V30 3940 O 389.594 -0.479874 1.88487 0
M  V30 3941 C 389.877 3.02761 1.94955 0
M  V30 3942 C 389.73 4.34787 1.1524 0
M  V30 3943 C 391.049 3.27336 2.94175 0
M  V30 3944 H 388.168 0.63323 0.377079 0
M  V30 3945 H 390.81 1.87354 0.316001 0
M  V30 3946 H 388.96 2.9154 2.56782 0
M  V30 3947 H 390.632 4.57922 0.557236 0
M  V30 3948 H 388.875 4.31407 0.455053 0
M  V30 3949 H 389.546 5.21116 1.8205 0
M  V30 3950 H 392.022 3.38148 2.42477 0
M  V30 3951 H 390.898 4.18726 3.54908 0
M  V30 3952 H 391.159 2.45491 3.67677 0
M  V30 3953 N 390.218 -0.567019 1.47046 0
M  V30 3954 C 391.443 -1.3551 1.57009 0
M  V30 3955 C 391.868 -1.86841 0.217259 0
M  V30 3956 O 391.226 -1.62435 -0.805268 0
M  V30 3957 C 391.274 -2.50777 2.5912 0
M  V30 3958 O 390.378 -3.52706 2.13711 0
M  V30 3959 H 389.719 -0.402919 0.52778 0
M  V30 3960 H 392.249 -0.686241 1.92748 0
M  V30 3961 H 392.259 -2.97481 2.79229 0
M  V30 3962 H 390.934 -2.12771 3.57353 0
M  V30 3963 H 389.511 -3.12374 2.03659 0
M  V30 3964 N 391.696 -1.35014 -0.812953 0
M  V30 3965 C 392.646 -1.23959 -1.91359 0
M  V30 3966 C 393.63 -0.136306 -1.60322 0
M  V30 3967 O 394.822 -0.366925 -1.73155 0
M  V30 3968 C 391.951 -1.00736 -3.28188 0
M  V30 3969 C 391.037 -2.15426 -3.65311 0
M  V30 3970 N 391.428 -3.40612 -3.73921 0
M  V30 3971 C 389.726 -2.06672 -3.95225 0
M  V30 3972 C 390.427 -4.15994 -4.06601 0
M  V30 3973 N 389.403 -3.44685 -4.20349 0
M  V30 3974 H 393.205 -2.18815 -1.96208 0
M  V30 3975 H 390.719 -1.27395 -1.00718 0
M  V30 3976 H 392.716 -0.909052 -4.06868 0
M  V30 3977 H 391.376 -0.067586 -3.2463 0
M  V30 3978 H 392.387 -3.75043 -3.5716 0
M  V30 3979 H 389.064 -1.20511 -3.99729 0
M  V30 3980 H 390.454 -5.24145 -4.20382 0
M  V30 3981 N 393.175 1.03435 -1.18907 0
M  V30 3982 C 394.085 2.15075 -0.937015 0
M  V30 3983 C 395.101 1.73706 0.101085 0
M  V30 3984 O 396.277 2.01232 -0.0822948 0
M  V30 3985 C 393.342 3.43458 -0.473057 0
M  V30 3986 C 392.403 3.99172 -1.57989 0
M  V30 3987 C 391.636 5.21427 -1.13797 0
M  V30 3988 O 391.859 5.704 0.000725941 0
M  V30 3989 O 390.793 5.69837 -1.9383 0
M  V30 3990 H 394.619 2.39198 -1.87131 0
M  V30 3991 H 392.204 1.13506 -0.971427 0
M  V30 3992 H 394.086 4.20811 -0.222702 0
M  V30 3993 H 392.761 3.20793 0.432869 0
M  V30 3994 H 391.668 3.23178 -1.88433 0
M  V30 3995 H 393.001 4.2619 -2.46217 0
M  V30 3996 N 394.653 0.992116 1.22453 0
M  V30 3997 C 395.93 0.583508 1.86694 0
M  V30 3998 C 396.31 -0.9392 1.89056 0
M  V30 3999 O 395.658 -1.82081 1.38053 0
M  V30 4000 C 395.868 1.20304 3.2761 0
M  V30 4001 C 397.216 1.30308 4.0411 0
M  V30 4002 O 398.24 1.15737 3.36873 0
M  V30 4003 O 397.099 1.53615 5.24466 0
M  V30 4004 H 394.193 0.198129 0.802916 0
M  V30 4005 H 396.739 1.08794 1.30238 0
M  V30 4006 H 395.511 2.24461 3.2052 0
M  V30 4007 H 395.134 0.684144 3.9167 0
M  V30 4008 N 396.131 -1.37776 0.765217 0
M  V30 4009 C 397.542 -1.82521 0.392819 0
M  V30 4010 C 397.893 -1.63789 -1.08017 0
M  V30 4011 O 397.018 -1.14542 -1.83601 0
M  V30 4012 C 397.613 -3.31358 0.706214 0
M  V30 4013 C 396.172 -3.74406 0.386952 0
M  V30 4014 C 395.319 -2.60394 0.953422 0
M  V30 4015 H 398.27 -1.2634 0.960412 0
M  V30 4016 H 398.291 -3.80498 -0.0114706 0
M  V30 4017 H 397.803 -3.44959 1.77833 0
M  V30 4018 H 395.904 -3.66377 -0.678112 0
M  V30 4019 H 396.017 -4.70749 0.890636 0
M  V30 4020 H 394.381 -2.51878 0.378064 0
M  V30 4021 H 395.164 -2.76791 2.03081 0
M  V30 4022 N 397.609 -0.515225 -1.4894 0
M  V30 4023 C 398.519 0.259774 -2.33157 0
M  V30 4024 C 399.535 0.953501 -1.45548 0
M  V30 4025 O 400.711 0.931735 -1.78552 0
M  V30 4026 C 397.776 1.30193 -3.21326 0
M  V30 4027 C 396.837 0.620129 -4.24797 0
M  V30 4028 C 396.07 1.61263 -5.08753 0
M  V30 4029 O 396.293 2.84389 -4.94448 0
M  V30 4030 O 395.227 1.16013 -5.90614 0
M  V30 4031 H 399.053 -0.429932 -3.00641 0
M  V30 4032 H 396.638 -0.276346 -1.46822 0
M  V30 4033 H 398.52 1.90455 -3.75905 0
M  V30 4034 H 397.195 1.97431 -2.56521 0
M  V30 4035 H 396.102 -0.0226019 -3.74093 0
M  V30 4036 H 397.435 -0.0100493 -4.92199 0
M  V30 4037 N 399.087 1.5561 -0.249682 0
M  V30 4038 C 400.333 1.99306 0.374841 0
M  V30 4039 C 400.666 1.13767 1.57387 0
M  V30 4040 O 399.941 0.201711 1.93451 0
M  V30 4041 C 400.224 3.51507 0.781986 0
M  V30 4042 C 400.077 4.4781 -0.422629 0
M  V30 4043 C 401.396 4.08884 1.62793 0
M  V30 4044 H 398.515 0.724572 0.134773 0
M  V30 4045 H 401.157 1.86719 -0.351549 0
M  V30 4046 H 399.307 3.62363 1.4009 0
M  V30 4047 H 400.979 4.48931 -1.06108 0
M  V30 4048 H 399.222 4.20518 -1.06524 0
M  V30 4049 H 399.893 5.51919 -0.0943766 0
M  V30 4050 H 402.369 4.01147 1.10547 0
M  V30 4051 H 401.245 5.1564 1.88166 0
M  V30 4052 H 401.506 3.57515 2.60068 0
M  V30 4053 N 400.565 -0.0233959 1.57583 0
M  V30 4054 C 401.497 -1.04994 2.03737 0
M  V30 4055 C 402.51 -1.32125 0.951152 0
M  V30 4056 O 403.699 -1.29512 1.22837 0
M  V30 4057 C 400.799 -2.39026 2.40249 0
M  V30 4058 C 399.972 -2.31171 3.7132 0
M  V30 4059 C 399.031 -3.47698 3.94959 0
M  V30 4060 O 398.057 -3.26937 4.65941 0
M  V30 4061 N 399.259 -4.6976 3.41037 0
M  V30 4062 H 402.024 -0.656507 2.92421 0
M  V30 4063 H 399.585 -0.211235 1.60516 0
M  V30 4064 H 401.577 -3.15712 2.53196 0
M  V30 4065 H 400.147 -2.70194 1.57207 0
M  V30 4066 H 399.367 -1.39547 3.68674 0
M  V30 4067 H 400.655 -2.23071 4.57293 0
M  V30 4068 H 400.053 -4.89528 2.83512 0
M  V30 4069 H 398.61 -5.43791 3.59353 0
M  V30 4070 N 402.043 -1.548 -0.295768 0
M  V30 4071 C 403.29 -1.74329 -1.03032 0
M  V30 4072 C 403.618 -0.531915 -1.87085 0
M  V30 4073 O 402.873 0.486052 -1.89568 0
M  V30 4074 C 403.172 -2.98797 -1.961 0
M  V30 4075 C 402.838 -4.32356 -1.2798 0
M  V30 4076 C 401.5 -4.68661 -1.09135 0
M  V30 4077 C 403.852 -5.15128 -0.793243 0
M  V30 4078 C 401.18 -5.85312 -0.403269 0
M  V30 4079 C 403.532 -6.32488 -0.118854 0
M  V30 4080 C 402.196 -6.6745 0.0815043 0
M  V30 4081 H 401.466 -0.637916 -0.37702 0
M  V30 4082 H 404.113 -1.8906 -0.304696 0
M  V30 4083 H 402.418 -2.78869 -2.75207 0
M  V30 4084 H 404.115 -3.11102 -2.53015 0
M  V30 4085 H 400.705 -4.03808 -1.43655 0
M  V30 4086 H 404.889 -4.87575 -0.92653 0
M  V30 4087 H 400.145 -6.1094 -0.237098 0
M  V30 4088 H 404.319 -6.95892 0.266035 0
M  V30 4089 H 401.946 -7.57695 0.616685 0
M  V30 4090 N 403.521 0.559213 -1.47345 0
M  V30 4091 C 404.469 1.68747 -1.60085 0
M  V30 4092 C 405.463 1.628 -0.46825 0
M  V30 4093 O 406.669 1.68009 -0.645977 0
M  V30 4094 H 403.044 0.558329 -0.503759 0
M  V30 4095 H 405.015 1.55138 -2.54902 0
M  V30 4096 C 403.764 3.07103 -1.63042 0
M  V30 4097 H 403.087 3.12361 -2.49541 0
M  V30 4098 H 404.527 3.85743 -1.76006 0
M  V30 4099 C 402.986 3.34935 -0.363357 0
M  V30 4100 O 403.516 3.98102 0.536416 0
M  V30 4101 N 401.722 2.89574 -0.244 0
M  V30 4102 H 401.269 2.38348 -0.977133 0
M  V30 4103 H 401.227 3.08566 0.602836 0
M  V30 4104 N 404.999 1.35443 0.805782 0
M  V30 4105 C 406.245 1.2996 1.56467 0
M  V30 4106 C 406.6 -0.124742 1.91995 0
M  V30 4107 O 405.893 -1.07533 1.58579 0
M  V30 4108 C 406.087 2.14045 2.86216 0
M  V30 4109 C 405.916 3.64512 2.63365 0
M  V30 4110 C 404.686 4.33744 2.59219 0
M  V30 4111 C 406.884 4.58142 2.33688 0
M  V30 4112 N 404.866 5.69953 2.28094 0
M  V30 4113 C 406.237 5.8248 2.12408 0
M  V30 4114 C 408.292 4.46877 2.19558 0
M  V30 4115 C 406.995 6.96818 1.78429 0
M  V30 4116 C 409.021 5.61065 1.86976 0
M  V30 4117 C 408.383 6.84431 1.66532 0
M  V30 4118 H 404.482 0.530817 0.574245 0
M  V30 4119 H 407.066 1.70333 0.943126 0
M  V30 4120 H 405.237 1.75942 3.46264 0
M  V30 4121 H 406.969 2.00075 3.51784 0
M  V30 4122 H 403.724 3.86365 2.73896 0
M  V30 4123 H 404.148 6.41845 2.15323 0
M  V30 4124 H 408.79 3.52102 2.34061 0
M  V30 4125 H 406.508 7.91559 1.62664 0
M  V30 4126 H 410.094 5.54302 1.7675 0
M  V30 4127 H 408.974 7.71294 1.41688 0
M  V30 4128 N 406.477 -1.02803 1.19454 0
M  V30 4129 C 407.707 -1.79581 1.02149 0
M  V30 4130 C 408.115 -1.84182 -0.432851 0
M  V30 4131 O 407.458 -1.28534 -1.31243 0
M  V30 4132 C 407.52 -3.25993 1.51554 0
M  V30 4133 C 407.184 -3.45025 2.99678 0
M  V30 4134 C 408.181 -3.35175 3.97434 0
M  V30 4135 C 405.866 -3.71212 3.38389 0
M  V30 4136 C 407.86 -3.51238 5.31893 0
M  V30 4137 C 405.547 -3.8692 4.73008 0
M  V30 4138 C 406.545 -3.76936 5.69569 0
M  V30 4139 O 406.233 -3.92179 7.01748 0
M  V30 4140 H 405.965 -0.571962 0.360327 0
M  V30 4141 H 408.519 -1.30367 1.58725 0
M  V30 4142 H 406.749 -3.76235 0.893543 0
M  V30 4143 H 408.438 -3.84368 1.30444 0
M  V30 4144 H 409.204 -3.14895 3.68872 0
M  V30 4145 H 405.083 -3.78075 2.6378 0
M  V30 4146 H 408.627 -3.43362 6.07247 0
M  V30 4147 H 404.524 -4.06699 5.01265 0
M  V30 4148 H 405.292 -4.09265 7.08833 0
M  V30 4149 N 407.956 -0.998596 -1.21925 0
M  V30 4150 C 409.202 -0.678667 -1.91107 0
M  V30 4151 C 409.535 0.78791 -1.77498 0
M  V30 4152 O 408.81 1.57043 -1.1475 0
M  V30 4153 C 409.093 -1.09245 -3.43129 0
M  V30 4154 C 408.946 -2.61801 -3.6576 0
M  V30 4155 C 410.265 -0.649984 -4.35274 0
M  V30 4156 H 407.384 -0.248025 -0.694012 0
M  V30 4157 H 410.026 -1.24314 -1.43688 0
M  V30 4158 H 408.176 -0.612171 -3.83647 0
M  V30 4159 H 409.848 -3.17543 -3.34611 0
M  V30 4160 H 408.091 -3.03609 -3.09845 0
M  V30 4161 H 408.762 -2.85804 -4.7225 0
M  V30 4162 H 411.238 -1.0626 -4.02303 0
M  V30 4163 H 410.114 -0.967743 -5.40302 0
M  V30 4164 H 410.375 0.449139 -4.39813 0
M  V30 4165 N 409.434 1.37368 -0.772513 0
M  V30 4166 C 410.711 1.93839 -0.26188 0
M  V30 4167 C 411.091 1.7061 1.24319 0
M  V30 4168 O 410.439 1.05534 2.02669 0
M  V30 4169 C 410.649 3.43154 -0.636102 0
M  V30 4170 C 411.997 4.20249 -0.606324 0
M  V30 4171 O 413.021 3.5152 -0.575538 0
M  V30 4172 O 411.88 5.42809 -0.634086 0
M  V30 4173 H 408.974 0.82478 -0.0605555 0
M  V30 4174 H 411.52 1.4665 -0.853917 0
M  V30 4175 H 410.292 3.53647 -1.6748 0
M  V30 4176 H 409.915 3.97596 -0.0170516 0
M  V30 4177 N 410.912 0.523116 1.48665 0
M  V30 4178 C 412.16 -0.0134497 2.02096 0
M  V30 4179 C 412.481 -1.35418 1.40311 0
M  V30 4180 O 411.751 -1.87543 0.566074 0
M  V30 4181 H 410.331 -0.00795915 0.746958 0
M  V30 4182 H 412.993 0.685388 1.82451 0
M  V30 4183 H 412.089 -0.126849 3.11842 0
M  V30 4184 N 412.39 -1.55475 0.257931 0
M  V30 4185 C 413.636 -1.99502 -0.364266 0
M  V30 4186 C 413.969 -1.146 -1.56782 0
M  V30 4187 O 413.244 -0.211968 -1.93342 0
M  V30 4188 C 413.527 -3.51917 -0.763333 0
M  V30 4189 C 413.38 -4.4758 0.446371 0
M  V30 4190 C 414.699 -4.09742 -1.60623 0
M  V30 4191 H 411.818 -0.725277 -0.130929 0
M  V30 4192 H 414.46 -1.8653 0.361446 0
M  V30 4193 H 412.61 -3.63101 -1.38166 0
M  V30 4194 H 414.282 -4.48362 1.08487 0
M  V30 4195 H 412.525 -4.19947 1.08753 0
M  V30 4196 H 413.196 -5.51862 0.123645 0
M  V30 4197 H 415.672 -4.01727 -1.08418 0
M  V30 4198 H 414.548 -5.16631 -1.85429 0
M  V30 4199 H 414.809 -3.58889 -2.58169 0
M  V30 4200 N 413.868 0.0150385 -1.57593 0
M  V30 4201 C 414.778 1.02791 -2.10882 0
M  V30 4202 C 415.794 1.38702 -1.0506 0
M  V30 4203 O 416.97 1.47739 -1.36877 0
M  V30 4204 C 414.035 2.30568 -2.58919 0
M  V30 4205 C 413.096 2.01108 -3.79281 0
M  V30 4206 C 412.329 3.22794 -4.25018 0
M  V30 4207 O 412.552 4.33959 -3.70183 0
M  V30 4208 O 411.486 3.07672 -5.17322 0
M  V30 4209 H 415.312 0.604973 -2.97613 0
M  V30 4210 H 412.897 0.23292 -1.47573 0
M  V30 4211 H 414.779 3.05662 -2.90084 0
M  V30 4212 H 413.454 2.72129 -1.75293 0
M  V30 4213 H 412.361 1.23537 -3.53114 0
M  V30 4214 H 413.694 1.64394 -4.63935 0
M  V30 4215 N 415.346 1.54954 0.287554 0
M  V30 4216 C 416.592 1.75132 1.02257 0
M  V30 4217 C 416.925 0.542858 1.86458 0
M  V30 4218 O 416.2 -0.459856 1.88986 0
M  V30 4219 C 416.483 3.04812 1.91733 0
M  V30 4220 C 416.336 4.35985 1.10622 0
M  V30 4221 C 417.655 3.30438 2.90687 0
M  V30 4222 H 414.774 0.637194 0.370341 0
M  V30 4223 H 417.416 1.87678 0.296111 0
M  V30 4224 H 415.566 2.94247 2.53675 0
M  V30 4225 H 417.238 4.58487 0.508636 0
M  V30 4226 H 415.481 4.31865 0.409271 0
M  V30 4227 H 416.152 5.23017 1.76513 0
M  V30 4228 H 418.628 3.40701 2.38877 0
M  V30 4229 H 417.504 4.22467 3.50447 0
M  V30 4230 H 417.765 2.49377 3.65053 0
M  V30 4231 N 416.824 -0.551391 1.4764 0
M  V30 4232 C 417.774 -1.65362 1.56969 0
M  V30 4233 C 418.758 -1.55098 0.428189 0
M  V30 4234 O 419.95 -1.63481 0.678441 0
M  V30 4235 C 417.079 -3.04129 1.59249 0
M  V30 4236 C 416.165 -3.19576 2.78804 0
M  V30 4237 N 416.556 -3.05067 4.03445 0
M  V30 4238 C 414.854 -3.50588 2.75688 0
M  V30 4239 C 415.555 -3.2336 4.83543 0
M  V30 4240 N 414.531 -3.4996 4.15968 0
M  V30 4241 H 418.333 -1.52722 2.51104 0
M  V30 4242 H 415.847 -0.756303 1.43714 0
M  V30 4243 H 417.844 -3.83278 1.64024 0
M  V30 4244 H 416.504 -3.17877 0.662148 0
M  V30 4245 H 417.515 -2.82273 4.34215 0
M  V30 4246 H 414.192 -3.70827 1.91817 0
M  V30 4247 H 415.582 -3.17061 5.92387 0
M  V30 4248 N 418.302 -1.35869 -0.798587 0
M  V30 4249 C 419.25 -1.29491 -1.93222 0
M  V30 4250 C 420.244 -0.18836 -1.6835 0
M  V30 4251 O 421.45 -0.354822 -1.76468 0
M  V30 4252 H 417.825 -0.402901 -0.63496 0
M  V30 4253 H 419.796 -2.25247 -1.9572 0
M  V30 4254 C 418.545 -1.09184 -3.30112 0
M  V30 4255 H 417.868 -1.93574 -3.49813 0
M  V30 4256 H 419.308 -1.08766 -4.09812 0
M  V30 4257 C 417.767 0.203959 -3.36282 0
M  V30 4258 O 418.297 1.19699 -3.83451 0
M  V30 4259 N 416.503 0.245488 -2.89561 0
M  V30 4260 H 416.05 -0.563223 -2.51367 0
M  V30 4261 H 416.008 1.11219 -2.94071 0
M  V30 4262 N 419.78 1.02168 -1.19998 0
M  V30 4263 C 420.743 2.08765 -0.94604 0
M  V30 4264 C 421.743 1.60618 0.0763846 0
M  V30 4265 O 422.933 1.73472 -0.159135 0
M  V30 4266 C 420.065 3.38262 -0.423255 0
M  V30 4267 H 421.258 2.32726 -1.89153 0
M  V30 4268 H 418.811 1.1889 -1.01464 0
M  V30 4269 H 419.546 3.19974 0.527938 0
M  V30 4270 H 419.331 3.74532 -1.16053 0
M  V30 4271 H 420.821 4.16759 -0.264911 0
M  V30 4272 N 421.258 1.00505 1.21394 0
M  V30 4273 C 422.205 0.565496 2.23765 0
M  V30 4274 C 423.175 -0.408466 1.60999 0
M  V30 4275 O 424.36 -0.310503 1.88257 0
M  V30 4276 C 421.5 -0.101667 3.4495 0
M  V30 4277 C 420.613 0.915479 4.22188 0
M  V30 4278 C 419.748 0.220574 5.30742 0
M  V30 4279 C 418.787 1.22527 5.99711 0
M  V30 4280 N 417.924 0.557831 6.9988 0
M  V30 4281 H 422.764 1.44314 2.60725 0
M  V30 4282 H 420.301 0.722643 1.28126 0
M  V30 4283 H 422.259 -0.505504 4.14126 0
M  V30 4284 H 420.889 -0.94303 3.08718 0
M  V30 4285 H 419.941 1.43756 3.52191 0
M  V30 4286 H 421.253 1.68005 4.69655 0
M  V30 4287 H 420.407 -0.239368 6.06228 0
M  V30 4288 H 419.146 -0.576401 4.84282 0
M  V30 4289 H 418.151 1.69571 5.22997 0
M  V30 4290 H 419.376 2.02332 6.48258 0
M  V30 4291 H 417.322 -0.219486 6.55633 0
M  V30 4292 H 417.239 1.26065 7.45415 0
M  V30 4293 H 418.507 0.121095 7.79406 0
M  V30 4294 N 422.737 -1.36956 0.779787 0
M  V30 4295 C 423.965 -2.03755 0.359398 0
M  V30 4296 C 424.38 -1.58807 -1.02106 0
M  V30 4297 O 423.737 -0.773024 -1.6532 0
M  V30 4298 C 423.788 -3.59251 0.402568 0
M  V30 4299 O 423.509 -4.02557 1.72858 0
M  V30 4300 C 425.01 -4.43291 -0.0284068 0
M  V30 4301 H 422.23 -0.654148 0.149437 0
M  V30 4302 H 424.774 -1.75128 1.05595 0
M  V30 4303 H 422.929 -3.86621 -0.245478 0
M  V30 4304 H 423.343 -4.97111 1.67275 0
M  V30 4305 H 424.817 -5.51975 0.0529466 0
M  V30 4306 H 425.294 -4.25719 -1.07982 0
M  V30 4307 H 425.9 -4.21163 0.591758 0
M  V30 4308 N 424.215 -0.530993 -1.48385 0
M  V30 4309 C 425.162 0.231223 -2.29639 0
M  V30 4310 C 426.132 0.932864 -1.37429 0
M  V30 4311 O 427.317 0.933692 -1.66394 0
M  V30 4312 C 424.457 1.27155 -3.2082 0
M  V30 4313 C 423.57 0.578655 -4.28107 0
M  V30 4314 C 422.705 1.602 -5.06467 0
M  V30 4315 C 421.744 0.892625 -6.05556 0
M  V30 4316 N 420.881 1.86157 -6.76971 0
M  V30 4317 H 425.721 -0.467848 -2.94305 0
M  V30 4318 H 423.258 -0.242556 -1.45086 0
M  V30 4319 H 425.216 1.88703 -3.72085 0
M  V30 4320 H 423.846 1.939 -2.58075 0
M  V30 4321 H 422.898 -0.150782 -3.80101 0
M  V30 4322 H 424.21 0.0217065 -4.98795 0
M  V30 4323 H 423.364 2.29173 -5.61751 0
M  V30 4324 H 422.103 2.19285 -4.35621 0
M  V30 4325 H 421.108 0.188829 -5.49476 0
M  V30 4326 H 422.333 0.307878 -6.78402 0
M  V30 4327 H 420.279 2.44147 -6.08875 0
M  V30 4328 H 420.196 1.35608 -7.43738 0
M  V30 4329 H 421.464 2.54325 -7.36844 0
M  V30 4330 N 425.693 1.55336 -0.266172 0
M  V30 4331 C 427.104 1.85236 0.233315 0
M  V30 4332 C 427.455 1.18816 1.56132 0
M  V30 4333 O 426.58 0.473307 2.11161 0
M  V30 4334 C 427.175 3.36059 0.430113 0
M  V30 4335 C 425.734 3.66116 0.873842 0
M  V30 4336 C 424.881 2.77274 -0.0380016 0
M  V30 4337 H 427.832 1.51004 -0.488214 0
M  V30 4338 H 427.853 3.58681 1.26998 0
M  V30 4339 H 427.365 3.84373 -0.536588 0
M  V30 4340 H 425.466 3.23295 1.85233 0
M  V30 4341 H 425.579 4.73699 0.717358 0
M  V30 4342 H 423.943 2.50198 0.476759 0
M  V30 4343 H 424.726 3.284 -1.00042 0
M  V30 4344 N 427.171 -0.0066808 1.57599 0
M  V30 4345 C 428.587 -0.36267 1.55425 0
M  V30 4346 C 428.787 -1.75209 0.995187 0
M  V30 4347 O 427.843 -2.44616 0.626058 0
M  V30 4348 C 429.156 -0.244017 2.99708 0
M  V30 4349 C 430.704 -0.319451 3.11366 0
M  V30 4350 C 431.179 -0.229998 4.57422 0
M  V30 4351 N 432.67 -0.288105 4.62303 0
M  V30 4352 C 433.405 -0.242127 5.72889 0
M  V30 4353 N 432.901 -0.147133 6.92644 0
M  V30 4354 N 434.694 -0.293502 5.61333 0
M  V30 4355 H 426.845 0.902314 1.92281 0
M  V30 4356 H 429.108 0.34525 0.882896 0
M  V30 4357 H 428.814 0.711678 3.44424 0
M  V30 4358 H 428.688 -1.02877 3.629 0
M  V30 4359 H 431.075 -1.26559 2.66584 0
M  V30 4360 H 431.156 0.495055 2.50964 0
M  V30 4361 H 430.8 0.712566 5.02877 0
M  V30 4362 H 430.73 -1.0629 5.15761 0
M  V30 4363 H 433.221 -0.363126 3.76151 0
M  V30 4364 H 433.534 -0.117763 7.7271 0
M  V30 4365 H 431.879 -0.112857 6.94908 0
M  V30 4366 H 435.07 -0.365864 4.66668 0
M  V30 4367 H 435.243 -0.254204 6.47501 0
M  V30 4368 N 428.649 -1.55105 -0.279332 0
M  V30 4369 C 429.559 -1.90638 -1.36727 0
M  V30 4370 C 430.575 -0.802899 -1.54368 0
M  V30 4371 O 431.751 -1.10138 -1.68616 0
M  V30 4372 C 428.816 -2.16547 -2.70755 0
M  V30 4373 C 427.877 -3.40146 -2.61915 0
M  V30 4374 C 427.11 -3.6481 -3.8955 0
M  V30 4375 O 427.333 -2.92095 -4.89935 0
M  V30 4376 O 426.267 -4.58343 -3.90135 0
M  V30 4377 H 430.093 -2.83237 -1.09591 0
M  V30 4378 H 427.678 -1.4157 -0.477306 0
M  V30 4379 H 429.56 -2.34665 -3.50014 0
M  V30 4380 H 428.235 -1.27131 -2.9769 0
M  V30 4381 H 427.142 -3.2737 -1.81052 0
M  V30 4382 H 428.475 -4.29761 -2.3993 0
M  V30 4383 N 430.127 0.543554 -1.4793 0
M  V30 4384 C 431.037 1.67657 -1.64098 0
M  V30 4385 C 432.053 1.65934 -0.523622 0
M  V30 4386 O 433.229 1.85133 -0.792943 0
M  V30 4387 C 430.294 3.04146 -1.66421 0
M  V30 4388 C 429.355 3.16831 -2.89684 0
M  V30 4389 C 428.588 4.46809 -2.91886 0
M  V30 4390 O 428.811 5.33095 -2.02895 0
M  V30 4391 O 427.745 4.63573 -3.83906 0
M  V30 4392 H 431.571 1.56957 -2.59997 0
M  V30 4393 H 429.156 0.715116 -1.31173 0
M  V30 4394 H 431.038 3.85346 -1.70548 0
M  V30 4395 H 429.713 3.152 -0.736923 0
M  V30 4396 H 428.62 2.34977 -2.91095 0
M  V30 4397 H 429.953 3.10687 -3.81752 0
M  V30 4398 N 431.605 1.3629 0.791371 0
M  V30 4399 C 432.537 1.26321 1.91248 0
M  V30 4400 C 433.55 0.18313 1.61767 0
M  V30 4401 O 434.739 0.437682 1.73051 0
M  V30 4402 C 431.839 0.925901 3.26007 0
M  V30 4403 C 431.012 2.10746 3.83281 0
M  V30 4404 C 430.071 1.74352 4.96475 0
M  V30 4405 O 429.097 2.46416 5.13096 0
M  V30 4406 N 430.299 0.676058 5.7655 0
M  V30 4407 H 433.064 2.22915 2.00323 0
M  V30 4408 H 430.625 1.29659 0.969546 0
M  V30 4409 H 432.617 0.663636 3.99222 0
M  V30 4410 H 431.187 0.0491581 3.12561 0
M  V30 4411 H 430.407 2.53264 3.02077 0
M  V30 4412 H 431.695 2.8969 4.18279 0
M  V30 4413 H 431.093 0.0776467 5.65647 0
M  V30 4414 H 429.65 0.473612 6.50077 0
M  V30 4415 N 433.083 -1.0153 1.20538 0
M  V30 4416 C 434.33 -1.75149 1.01633 0
M  V30 4417 C 434.658 -1.89189 -0.451399 0
M  V30 4418 O 433.913 -1.41551 -1.35136 0
M  V30 4419 C 434.212 -3.17213 1.64654 0
M  V30 4420 C 433.878 -3.23146 3.14464 0
M  V30 4421 C 432.54 -3.24472 3.55347 0
M  V30 4422 C 434.892 -3.21207 4.10458 0
M  V30 4423 C 432.22 -3.21532 4.90748 0
M  V30 4424 C 434.572 -3.19808 5.45807 0
M  V30 4425 C 433.236 -3.19439 5.86102 0
M  V30 4426 H 432.506 -0.640914 0.3719 0
M  V30 4427 H 435.153 -1.19071 1.49981 0
M  V30 4428 H 433.458 -3.76457 1.08571 0
M  V30 4429 H 435.155 -3.72871 1.4754 0
M  V30 4430 H 431.745 -3.2285 2.81897 0
M  V30 4431 H 435.929 -3.19351 3.79906 0
M  V30 4432 H 431.185 -3.19578 5.21229 0
M  V30 4433 H 435.359 -3.1726 6.19935 0
M  V30 4434 H 432.986 -3.16915 6.90991 0
M  V30 4435 N 434.561 -1.01147 -1.20859 0
M  V30 4436 C 435.509 -0.57059 -2.25493 0
M  V30 4437 C 436.503 0.388109 -1.64894 0
M  V30 4438 O 437.709 0.258592 -1.78133 0
M  V30 4439 H 434.084 -0.166191 -0.733406 0
M  V30 4440 H 436.055 -1.46411 -2.60012 0
M  V30 4441 C 434.804 0.0805241 -3.47607 0
M  V30 4442 H 434.127 -0.648156 -3.94511 0
M  V30 4443 H 435.567 0.352197 -4.22535 0
M  V30 4444 C 434.026 1.32175 -3.09889 0
M  V30 4445 O 434.556 2.41553 -3.20959 0
M  V30 4446 N 432.762 1.20392 -2.64488 0
M  V30 4447 H 432.309 0.313905 -2.5568 0
M  V30 4448 H 432.267 2.03541 -2.39621 0
M  V30 4449 N 436.039 1.36541 -0.78704 0
M  V30 4450 C 437.264 2.0409 -0.369053 0
M  V30 4451 C 437.689 1.58957 1.00569 0
M  V30 4452 O 437.047 0.756926 1.64743 0
M  V30 4453 C 437.095 3.57924 -0.438466 0
M  V30 4454 O 436.199 4.08642 0.555479 0
M  V30 4455 H 435.54 0.645142 -0.157122 0
M  V30 4456 H 438.07 1.74545 -1.06749 0
M  V30 4457 H 438.08 4.06887 -0.301218 0
M  V30 4458 H 436.755 3.90127 -1.44132 0
M  V30 4459 H 435.332 3.70958 0.380088 0
M  V30 4460 N 437.518 0.538854 1.48102 0
M  V30 4461 C 438.746 0.0123136 2.06896 0
M  V30 4462 C 439.161 -1.27312 1.39417 0
M  V30 4463 O 438.518 -1.75949 0.484582 0
M  V30 4464 C 438.569 -0.206118 3.60912 0
M  V30 4465 O 438.29 1.0284 4.25859 0
M  V30 4466 C 439.791 -0.772033 4.36526 0
M  V30 4467 H 437.011 0.0375239 0.66995 0
M  V30 4468 H 439.555 0.747032 1.90367 0
M  V30 4469 H 437.71 -0.89091 3.77017 0
M  V30 4470 H 438.124 0.814654 5.18135 0
M  V30 4471 H 439.598 -0.874251 5.45033 0
M  V30 4472 H 440.075 -1.77904 4.01555 0
M  V30 4473 H 440.681 -0.123526 4.25121 0
M  V30 4474 N 438.996 -1.55193 0.274407 0
M  V30 4475 C 440.243 -1.99581 -0.342579 0
M  V30 4476 C 440.571 -1.1628 -1.55914 0
M  V30 4477 O 439.826 -0.22029 -1.94456 0
M  V30 4478 C 440.125 -3.49019 -0.769458 0
M  V30 4479 C 439.791 -4.49598 0.342389 0
M  V30 4480 C 438.453 -4.76821 0.647686 0
M  V30 4481 C 440.805 -5.0964 1.09163 0
M  V30 4482 C 438.133 -5.61354 1.70581 0
M  V30 4483 C 440.485 -5.95323 2.13948 0
M  V30 4484 C 439.149 -6.20867 2.45113 0
M  V30 4485 H 438.419 -0.730319 -0.125358 0
M  V30 4486 H 441.066 -1.87529 0.387971 0
M  V30 4487 H 439.371 -3.58544 -1.57967 0
M  V30 4488 H 441.068 -3.8077 -1.25757 0
M  V30 4489 H 437.658 -4.28496 0.094318 0
M  V30 4490 H 441.842 -4.88632 0.869024 0
M  V30 4491 H 437.098 -5.79392 1.9523 0
M  V30 4492 H 441.272 -6.40881 2.72478 0
M  V30 4493 H 438.899 -6.86162 3.27239 0
M  V30 4494 N 440.474 -0.00167713 -1.576 0
M  V30 4495 C 441.89 0.354422 -1.55615 0
M  V30 4496 C 442.09 1.74679 -1.00447 0
M  V30 4497 O 441.146 2.4428 -0.639022 0
M  V30 4498 C 442.459 0.22812 -2.99833 0
M  V30 4499 C 444.007 0.302934 -3.11531 0
M  V30 4500 C 444.482 0.205737 -4.57538 0
M  V30 4501 N 445.973 0.263584 -4.62449 0
M  V30 4502 C 446.708 0.211742 -5.73009 0
M  V30 4503 N 446.204 0.110399 -6.92712 0
M  V30 4504 N 447.997 0.263729 -5.61481 0
M  V30 4505 H 440.148 -0.912498 -1.918 0
M  V30 4506 H 442.411 -0.349928 -0.881053 0
M  V30 4507 H 442.117 -0.729934 -3.44042 0
M  V30 4508 H 441.991 1.00951 -3.6344 0
M  V30 4509 H 444.378 1.25143 -2.67251 0
M  V30 4510 H 444.459 -0.508357 -2.50698 0
M  V30 4511 H 444.103 -0.739225 -5.02492 0
M  V30 4512 H 444.033 1.03554 -5.16318 0
M  V30 4513 H 446.524 0.343173 -3.76339 0
M  V30 4514 H 446.837 0.0767828 -7.72762 0
M  V30 4515 H 445.182 0.0760025 -6.94958 0
M  V30 4516 H 448.373 0.34111 -4.66855 0
M  V30 4517 H 448.546 0.219862 -6.47627 0
M  V30 4518 N 441.952 1.55251 0.271103 0
M  V30 4519 C 443.198 1.76207 1.00394 0
M  V30 4520 C 443.531 0.562604 1.85872 0
M  V30 4521 O 442.806 -0.439785 1.89463 0
M  V30 4522 C 443.089 3.06828 1.8849 0
M  V30 4523 C 442.942 4.37134 1.05992 0
M  V30 4524 C 444.261 3.33503 2.87165 0
M  V30 4525 H 441.38 0.641086 0.363562 0
M  V30 4526 H 444.022 1.87982 0.276189 0
M  V30 4527 H 442.172 2.96921 2.5054 0
M  V30 4528 H 443.844 4.59001 0.459978 0
M  V30 4529 H 442.087 4.32275 0.363443 0
M  V30 4530 H 442.758 5.2486 1.70955 0
M  V30 4531 H 445.234 3.43215 2.3525 0
M  V30 4532 H 444.11 4.2616 3.45946 0
M  V30 4533 H 444.371 2.53235 3.62387 0
M  V30 4534 N 443.43 -0.535701 1.48216 0
M  V30 4535 C 444.676 -1.29375 1.56173 0
M  V30 4536 C 445.009 -1.92804 0.232429 0
M  V30 4537 O 444.284 -1.78992 -0.761048 0
M  V30 4538 C 444.567 -2.38747 2.69577 0
M  V30 4539 C 444.42 -1.80046 4.12193 0
M  V30 4540 C 445.739 -3.40551 2.78771 0
M  V30 4541 H 442.858 -0.469027 0.568491 0
M  V30 4542 H 445.5 -0.597358 1.80365 0
M  V30 4543 H 443.65 -2.98147 2.4908 0
M  V30 4544 H 445.322 -1.24742 4.44114 0
M  V30 4545 H 443.565 -1.10609 4.19462 0
M  V30 4546 H 444.236 -2.59212 4.87353 0
M  V30 4547 H 446.712 -2.91099 2.97322 0
M  V30 4548 H 445.588 -4.1448 3.59857 0
M  V30 4549 H 445.849 -4.00746 1.86696 0
M  V30 4550 N 444.908 -1.36708 -0.784132 0
M  V30 4551 C 446.133 -1.34565 -1.5782 0
M  V30 4552 C 446.558 0.0695257 -1.87971 0
M  V30 4553 O 445.916 1.04302 -1.48293 0
M  V30 4554 C 445.964 -2.17952 -2.87279 0
M  V30 4555 O 445.068 -1.57563 -3.81114 0
M  V30 4556 H 444.409 -0.460337 -0.478524 0
M  V30 4557 H 446.939 -1.80064 -0.971495 0
M  V30 4558 H 446.949 -2.30721 -3.365 0
M  V30 4559 H 445.624 -3.20823 -2.64661 0
M  V30 4560 H 444.201 -1.53764 -3.39722 0
M  V30 4561 N 446.386 1.0089 -1.21074 0
M  V30 4562 C 447.632 1.74866 -1.02712 0
M  V30 4563 C 447.965 1.89178 0.438787 0
M  V30 4564 O 447.24 1.42325 1.32567 0
M  V30 4565 C 447.523 3.16347 -1.72036 0
M  V30 4566 C 447.376 3.09782 -3.26121 0
M  V30 4567 C 448.695 4.15187 -1.45973 0
M  V30 4568 H 445.814 0.634736 -0.374539 0
M  V30 4569 H 448.456 1.17646 -1.49196 0
M  V30 4570 H 446.606 3.65201 -1.32517 0
M  V30 4571 H 448.278 2.68673 -3.74983 0
M  V30 4572 H 446.521 2.46982 -3.56626 0
M  V30 4573 H 447.192 4.09829 -3.6979 0
M  V30 4574 H 449.668 3.75022 -1.80272 0
M  V30 4575 H 448.544 5.12331 -1.96999 0
M  V30 4576 H 448.805 4.40386 -0.388924 0
M  V30 4577 N 447.864 1.01787 1.20321 0
M  V30 4578 C 448.794 0.609625 2.25401 0
M  V30 4579 C 449.775 -0.375951 1.65893 0
M  V30 4580 O 450.96 -0.261101 1.92437 0
M  V30 4581 C 448.09 -0.0515995 3.47262 0
M  V30 4582 C 447.044 0.855095 4.19371 0
M  V30 4583 C 446.37 0.0595757 5.34667 0
M  V30 4584 C 447.67 2.16374 4.75373 0
M  V30 4585 H 449.364 1.48803 2.59804 0
M  V30 4586 H 446.91 0.716934 1.24884 0
M  V30 4587 H 448.863 -0.348764 4.19954 0
M  V30 4588 H 447.587 -0.964726 3.12027 0
M  V30 4589 H 446.246 1.13628 3.48546 0
M  V30 4590 H 445.894 -0.85524 4.95676 0
M  V30 4591 H 445.594 0.663406 5.83843 0
M  V30 4592 H 447.118 -0.231105 6.10162 0
M  V30 4593 H 448.532 1.92885 5.39878 0
M  V30 4594 H 446.929 2.71853 5.34991 0
M  V30 4595 H 447.999 2.82589 3.94045 0
M  V30 4596 N 449.342 -1.36122 0.79427 0
M  V30 4597 C 450.57 -2.03362 0.380989 0
M  V30 4598 C 450.985 -1.59881 -1.00416 0
M  V30 4599 O 450.342 -0.790515 -1.6449 0
M  V30 4600 C 450.393 -3.58804 0.440649 0
M  V30 4601 O 450.114 -4.007 1.77118 0
M  V30 4602 C 451.615 -4.43296 0.0186117 0
M  V30 4603 H 448.835 -0.652526 0.156367 0
M  V30 4604 H 451.379 -1.73998 1.07447 0
M  V30 4605 H 449.534 -3.8686 -0.204458 0
M  V30 4606 H 449.948 -4.95309 1.72538 0
M  V30 4607 H 451.422 -5.51887 0.111488 0
M  V30 4608 H 451.899 -4.2684 -1.03461 0
M  V30 4609 H 452.505 -4.20512 0.636395 0
M  V30 4610 N 450.82 -0.546701 -1.47814 0
M  V30 4611 C 452.066 -0.0187684 -2.02791 0
M  V30 4612 C 452.399 1.32338 -1.42128 0
M  V30 4613 O 451.674 1.85867 -0.573023 0
M  V30 4614 C 451.957 0.0854985 -3.59998 0
M  V30 4615 C 451.81 -1.283 -4.31114 0
M  V30 4616 C 453.129 0.80412 -4.32691 0
M  V30 4617 H 450.248 -0.0082946 -0.736953 0
M  V30 4618 H 452.89 -0.706962 -1.76358 0
M  V30 4619 H 451.04 0.671609 -3.82651 0
M  V30 4620 H 452.712 -1.91151 -4.19832 0
M  V30 4621 H 450.955 -1.86049 -3.91878 0
M  V30 4622 H 451.626 -1.16287 -5.39612 0
M  V30 4623 H 454.102 0.306576 -4.14969 0
M  V30 4624 H 452.978 0.846011 -5.42341 0
M  V30 4625 H 453.239 1.85802 -4.01161 0
M  V30 4626 N 452.299 1.55045 -0.282633 0
M  V30 4627 C 453.545 2.00056 0.332481 0
M  V30 4628 C 453.878 1.1708 1.54939 0
M  V30 4629 O 453.153 0.2427 1.9298 0
M  V30 4630 C 453.436 3.53086 0.70725 0
M  V30 4631 C 453.289 4.46813 -0.517521 0
M  V30 4632 C 454.608 4.12245 1.54084 0
M  V30 4633 H 451.727 0.727268 0.119373 0
M  V30 4634 H 454.369 1.85932 -0.391076 0
M  V30 4635 H 452.519 3.65253 1.32372 0
M  V30 4636 H 454.191 4.46579 -1.15607 0
M  V30 4637 H 452.434 4.18163 -1.1542 0
M  V30 4638 H 453.105 5.51595 -0.211426 0
M  V30 4639 H 455.581 4.03401 1.02013 0
M  V30 4640 H 454.457 5.19515 1.77186 0
M  V30 4641 H 454.718 3.62951 2.52427 0
M  V30 4642 N 453.777 0.010035 1.57597 0
M  V30 4643 C 454.727 -0.986858 2.05536 0
M  V30 4644 C 455.711 -1.29711 0.952042 0
M  V30 4645 O 456.903 -1.28641 1.21575 0
M  V30 4646 C 454.032 -2.2756 2.57043 0
M  V30 4647 C 453.118 -1.99455 3.74271 0
M  V30 4648 N 453.509 -1.41546 4.85591 0
M  V30 4649 C 451.807 -2.29547 3.82393 0
M  V30 4650 C 452.508 -1.3014 5.66956 0
M  V30 4651 N 451.484 -1.79044 5.13268 0
M  V30 4652 H 455.286 -0.533778 2.89012 0
M  V30 4653 H 452.8 -0.195432 1.6122 0
M  V30 4654 H 454.797 -2.99829 2.89669 0
M  V30 4655 H 453.457 -2.73512 1.7499 0
M  V30 4656 H 454.468 -1.09294 5.06236 0
M  V30 4657 H 451.145 -2.78304 3.11213 0
M  V30 4658 H 452.535 -0.855237 6.66435 0
M  V30 4659 N 455.255 -1.55392 -0.262866 0
M  V30 4660 C 456.187 -1.85392 -1.34768 0
M  V30 4661 C 457.2 -0.739069 -1.45057 0
M  V30 4662 O 458.389 -1.01703 -1.46693 0
M  V30 4663 C 455.489 -2.01088 -2.72795 0
M  V30 4664 C 454.662 -3.31828 -2.84972 0
M  V30 4665 C 453.721 -3.37464 -4.03738 0
M  V30 4666 O 452.747 -4.10778 -3.94018 0
M  V30 4667 N 453.949 -2.65599 -5.16176 0
M  V30 4668 H 456.714 -2.79029 -1.09375 0
M  V30 4669 H 454.275 -1.55434 -0.452981 0
M  V30 4670 H 456.267 -2.02217 -3.50557 0
M  V30 4671 H 454.837 -1.1427 -2.90966 0
M  V30 4672 H 454.057 -3.43152 -1.94012 0
M  V30 4673 H 455.345 -4.18032 -2.90045 0
M  V30 4674 H 454.743 -2.05736 -5.26962 0
M  V30 4675 H 453.3 -2.72439 -5.92132 0
M  V30 4676 N 456.733 0.527833 -1.48498 0
M  V30 4677 C 458.01 1.28905 -1.47115 0
M  V30 4678 C 458.39 2.10297 -0.184007 0
M  V30 4679 O 457.738 2.12728 0.834218 0
M  V30 4680 C 457.948 2.16866 -2.73441 0
M  V30 4681 C 459.296 2.76936 -3.21857 0
M  V30 4682 O 460.32 2.27152 -2.74373 0
M  V30 4683 O 459.179 3.67496 -4.04486 0
M  V30 4684 H 456.273 0.581918 -0.587623 0
M  V30 4685 H 458.819 0.544311 -1.60734 0
M  V30 4686 H 457.591 1.56521 -3.58632 0
M  V30 4687 H 457.214 2.98583 -2.62553 0
M  V30 4688 N 458.211 1.37122 0.776871 0
M  V30 4689 C 459.457 1.3325 1.53675 0
M  V30 4690 C 459.812 -0.0839891 1.92217 0
M  V30 4691 O 459.105 -1.04145 1.60824 0
M  V30 4692 C 459.299 2.20068 2.81611 0
M  V30 4693 C 459.128 3.70016 2.55574 0
M  V30 4694 C 457.898 4.39144 2.4996 0
M  V30 4695 C 460.096 4.62996 2.23917 0
M  V30 4696 N 458.078 5.74663 2.15953 0
M  V30 4697 C 459.449 5.86854 2.00005 0
M  V30 4698 C 461.504 4.51433 2.1003 0
M  V30 4699 C 460.207 7.00446 1.63609 0
M  V30 4700 C 462.233 5.64905 1.75033 0
M  V30 4701 C 461.595 6.8781 1.51977 0
M  V30 4702 H 457.694 0.542878 0.562856 0
M  V30 4703 H 460.278 1.72295 0.906784 0
M  V30 4704 H 458.449 1.83248 3.42454 0
M  V30 4705 H 460.181 2.07492 3.47461 0
M  V30 4706 H 456.936 3.92088 2.65639 0
M  V30 4707 H 457.36 6.46268 2.0166 0
M  V30 4708 H 462.002 3.56987 2.26539 0
M  V30 4709 H 459.72 7.94831 1.45837 0
M  V30 4710 H 463.306 5.57926 1.64952 0
M  V30 4711 H 462.186 7.74126 1.25296 0
M  V30 4712 N 459.689 -1.00246 1.21608 0
M  V30 4713 C 460.619 -2.10921 1.00172 0
M  V30 4714 C 461.6 -1.69938 -0.0741587 0
M  V30 4715 O 462.785 -1.94009 0.0861753 0
M  V30 4716 C 459.915 -3.42618 0.568355 0
M  V30 4717 C 458.869 -3.97407 1.58909 0
M  V30 4718 C 458.195 -5.25038 1.01187 0
M  V30 4719 C 459.495 -4.2918 2.97661 0
M  V30 4720 H 461.189 -2.29112 1.92739 0
M  V30 4721 H 458.735 -1.10101 0.928102 0
M  V30 4722 H 460.688 -4.19444 0.405555 0
M  V30 4723 H 459.412 -3.24227 -0.392961 0
M  V30 4724 H 458.071 -3.22703 1.73949 0
M  V30 4725 H 457.719 -5.02982 0.0421965 0
M  V30 4726 H 457.419 -5.62661 1.6937 0
M  V30 4727 H 458.943 -6.04507 0.860448 0
M  V30 4728 H 460.357 -4.96839 2.86049 0
M  V30 4729 H 458.754 -4.77952 3.6288 0
M  V30 4730 H 459.824 -3.3735 3.48315 0
M  V30 4731 N 461.167 -1.02423 -1.1978 0
M  V30 4732 C 462.115 -0.594474 -2.24875 0
M  V30 4733 C 463.109 0.370598 -1.65296 0
M  V30 4734 O 464.315 0.239684 -1.78397 0
M  V30 4735 H 460.69 -0.173961 -0.731602 0
M  V30 4736 H 462.661 -1.4916 -2.58445 0
M  V30 4737 C 461.41 0.0436512 -3.47673 0
M  V30 4738 H 460.733 -0.689963 -3.93801 0
M  V30 4739 H 462.173 0.307362 -4.22884 0
M  V30 4740 C 460.632 1.28881 -3.11274 0
M  V30 4741 O 461.162 2.38135 -3.23503 0
M  V30 4742 N 459.368 1.1758 -2.6575 0
M  V30 4743 H 458.915 0.286769 -2.55999 0
M  V30 4744 H 458.873 2.00988 -2.41767 0
M  V30 4745 N 462.645 1.35699 -0.801477 0
M  V30 4746 C 463.893 1.9852 -0.37871 0
M  V30 4747 C 464.214 1.63907 1.05638 0
M  V30 4748 O 463.484 0.919013 1.73006 0
M  V30 4749 H 462.064 0.734322 -0.137042 0
M  V30 4750 H 464.726 1.65697 -1.02619 0
M  V30 4751 H 463.822 3.08382 -0.480284 0
M  V30 4752 N 464.123 0.554532 1.47522 0
M  V30 4753 C 465.07 -0.19466 2.29978 0
M  V30 4754 C 466.04 -0.910882 1.38896 0
M  V30 4755 O 467.225 -0.907102 1.67858 0
M  V30 4756 C 464.365 -1.22035 3.22802 0
M  V30 4757 C 463.478 -0.510474 4.28973 0
M  V30 4758 C 462.613 -1.52123 5.08952 0
M  V30 4759 C 461.652 -0.796173 6.069 0
M  V30 4760 N 460.789 -1.75363 6.79847 0
M  V30 4761 H 465.629 0.51461 2.93523 0
M  V30 4762 H 463.166 0.265607 1.44682 0
M  V30 4763 H 465.124 -1.8276 3.7504 0
M  V30 4764 H 463.754 -1.89769 2.61127 0
M  V30 4765 H 462.806 0.211234 3.79813 0
M  V30 4766 H 464.118 0.0576503 4.98767 0
M  V30 4767 H 463.272 -2.20207 5.65326 0
M  V30 4768 H 462.011 -2.12327 4.39054 0
M  V30 4769 H 461.016 -0.101388 5.49707 0
M  V30 4770 H 462.241 -0.199911 6.78806 0
M  V30 4771 H 460.187 -2.3443 6.12682 0
M  V30 4772 H 460.104 -1.23759 7.45801 0
M  V30 4773 H 461.372 -2.4257 7.40797 0
M  V30 4774 N 465.601 -1.54893 0.290851 0
M  V30 4775 C 466.511 -2.26812 -0.59945 0
M  V30 4776 C 467.527 -1.29963 -1.15696 0
M  V30 4777 O 468.703 -1.62928 -1.18391 0
M  V30 4778 C 465.768 -2.98716 -1.75982 0
M  V30 4779 C 464.829 -4.1108 -1.2374 0
M  V30 4780 C 464.062 -4.79546 -2.34246 0
M  V30 4781 O 464.285 -4.47309 -3.53936 0
M  V30 4782 O 463.219 -5.67165 -2.01512 0
M  V30 4783 H 467.045 -3.03696 -0.0163561 0
M  V30 4784 H 464.63 -1.49289 0.0576755 0
M  V30 4785 H 466.512 -3.43851 -2.43607 0
M  V30 4786 H 465.187 -2.24737 -2.3297 0
M  V30 4787 H 464.094 -3.70367 -0.527163 0
M  V30 4788 H 465.427 -4.87007 -0.71307 0
M  V30 4789 N 467.08 -0.0183926 -1.57589 0
M  V30 4790 C 468.31 0.67207 -1.95363 0
M  V30 4791 C 468.718 1.66807 -0.892872 0
M  V30 4792 O 468.061 1.83204 0.134958 0
M  V30 4793 C 468.123 1.44397 -3.29226 0
M  V30 4794 C 467.787 0.607511 -4.52944 0
M  V30 4795 C 468.784 -0.112657 -5.19778 0
M  V30 4796 C 466.469 0.548068 -4.99301 0
M  V30 4797 C 468.463 -0.881057 -6.31281 0
M  V30 4798 C 466.15 -0.224044 -6.10689 0
M  V30 4799 C 467.148 -0.937323 -6.76538 0
M  V30 4800 O 466.836 -1.6968 -7.85789 0
M  V30 4801 H 466.568 0.190925 -0.648478 0
M  V30 4802 H 469.122 -0.0711994 -2.05277 0
M  V30 4803 H 467.352 2.23214 -3.15773 0
M  V30 4804 H 469.041 2.02152 -3.51979 0
M  V30 4805 H 469.807 -0.0759998 -4.8494 0
M  V30 4806 H 465.686 1.09281 -4.4786 0
M  V30 4807 H 469.23 -1.43832 -6.82611 0
M  V30 4808 H 465.127 -0.262457 -6.44966 0
M  V30 4809 H 465.895 -1.61544 -8.024 0
M  V30 4810 N 468.558 1.5553 0.254621 0
M  V30 4811 C 469.505 1.89666 1.31512 0
M  V30 4812 C 470.475 0.750057 1.482 0
M  V30 4813 O 471.66 1.00301 1.62309 0
M  V30 4814 C 468.8 2.19009 2.667 0
M  V30 4815 C 467.913 3.46435 2.58083 0
M  V30 4816 C 467.048 3.65386 3.85573 0
M  V30 4817 C 466.087 4.8644 3.71541 0
M  V30 4818 N 465.224 5.01952 4.90906 0
M  V30 4819 H 470.064 2.80109 1.017 0
M  V30 4820 H 467.601 1.38666 0.490938 0
M  V30 4821 H 469.559 2.34025 3.45381 0
M  V30 4822 H 468.189 1.31779 2.94676 0
M  V30 4823 H 467.241 3.39792 1.71013 0
M  V30 4824 H 468.553 4.35258 2.43622 0
M  V30 4825 H 467.707 3.80319 4.72697 0
M  V30 4826 H 466.446 2.74781 4.02922 0
M  V30 4827 H 465.451 4.71491 2.82801 0
M  V30 4828 H 466.676 5.78497 3.55694 0
M  V30 4829 H 464.622 4.14283 5.08631 0
M  V30 4830 H 464.539 5.84851 4.79046 0
M  V30 4831 H 465.807 5.21289 5.7955 0
M  V30 4832 N 470.036 -0.519951 1.48776 0
M  V30 4833 C 471.276 -1.2856 1.58908 0
M  V30 4834 C 471.64 -1.90212 0.261418 0
M  V30 4835 O 472.841 -2.67746 0.237791 0
M  V30 4836 C 471.112 -2.33836 2.70288 0
M  V30 4837 S 472.671 -3.19992 3.0025 0
M  V30 4838 H 469.489 -0.43717 0.560717 0
M  V30 4839 H 472.091 -0.591205 1.86346 0
M  V30 4840 H 470.795 -1.87041 3.653 0
M  V30 4841 H 470.326 -3.07969 2.44783 0
M  V30 4842 H 472.341 -4.34122 2.40317 0
M  V30 4843 N 471.514 -1.37532 -0.769588 0
M  V30 4844 C 472.461 -1.3347 -1.88293 0
M  V30 4845 C 473.431 -0.199891 -1.64893 0
M  V30 4846 O 474.616 -0.389594 -1.8678 0
M  V30 4847 C 471.756 -1.14968 -3.25387 0
M  V30 4848 C 470.869 -2.37698 -3.60727 0
M  V30 4849 C 470.004 -2.12051 -4.8704 0
M  V30 4850 C 469.043 -3.30636 -5.15117 0
M  V30 4851 N 468.18 -3.04527 -6.3262 0
M  V30 4852 H 473.02 -2.28658 -1.911 0
M  V30 4853 H 470.557 -1.13622 -0.934257 0
M  V30 4854 H 472.515 -1.02261 -4.04473 0
M  V30 4855 H 471.145 -0.234263 -3.21949 0
M  V30 4856 H 470.197 -2.61137 -2.76608 0
M  V30 4857 H 471.509 -3.26131 -3.77413 0
M  V30 4858 H 470.663 -1.96388 -5.74035 0
M  V30 4859 H 469.402 -1.20959 -4.72462 0
M  V30 4860 H 468.407 -3.46836 -4.26597 0
M  V30 4861 H 469.632 -4.22582 -5.31603 0
M  V30 4862 H 467.578 -2.16067 -6.19396 0
M  V30 4863 H 467.495 -3.86503 -6.49732 0
M  V30 4864 H 468.763 -2.92485 -7.22546 0
M  V30 4865 N 472.992 0.995999 -1.22138 0
M  V30 4866 C 474.238 1.73767 -1.04561 0
M  V30 4867 C 474.571 1.89633 0.418698 0
M  V30 4868 O 473.846 1.43723 1.3105 0
M  V30 4869 C 474.129 3.14505 -1.75382 0
M  V30 4870 C 473.982 3.06306 -3.29388 0
M  V30 4871 C 475.301 4.13615 -1.50369 0
M  V30 4872 H 472.42 0.630728 -0.38125 0
M  V30 4873 H 475.062 1.16057 -1.50435 0
M  V30 4874 H 473.212 3.63775 -1.36383 0
M  V30 4875 H 474.884 2.64681 -3.77812 0
M  V30 4876 H 473.127 2.43186 -3.59226 0
M  V30 4877 H 473.798 4.05884 -3.74116 0
M  V30 4878 H 476.274 3.73089 -1.84239 0
M  V30 4879 H 475.15 5.10212 -2.02421 0
M  V30 4880 H 475.411 4.39949 -0.435611 0
M  V30 4881 N 474.47 1.03057 1.19235 0
M  V30 4882 C 475.695 0.74757 1.93458 0
M  V30 4883 C 476.12 -0.687648 1.7508 0
M  V30 4884 O 475.478 -1.47499 1.05422 0
M  V30 4885 C 475.526 1.10604 3.43219 0
M  V30 4886 O 474.63 0.225671 4.11782 0
M  V30 4887 H 473.971 0.276047 0.603899 0
M  V30 4888 H 476.501 1.3777 1.51263 0
M  V30 4889 H 476.511 1.06366 3.93891 0
M  V30 4890 H 475.186 2.15165 3.55917 0
M  V30 4891 H 473.763 0.326795 3.71465 0
M  V30 4892 N 475.948 -1.35272 0.808662 0
M  V30 4893 C 476.896 -2.31663 0.208606 0
M  V30 4894 C 477.89 -1.56731 -0.642778 0
M  V30 4895 O 479.096 -1.71843 -0.53571 0
M  V30 4896 H 475.471 -0.750421 0.0486993 0
M  V30 4897 H 477.442 -2.79814 1.03666 0
M  V30 4898 C 476.191 -3.42008 -0.626573 0
M  V30 4899 H 475.514 -3.99795 0.0192103 0
M  V30 4900 H 476.954 -4.11727 -1.01278 0
M  V30 4901 C 475.413 -2.85226 -1.79298 0
M  V30 4902 O 475.943 -2.78945 -2.89055 0
M  V30 4903 N 474.149 -2.42245 -1.60516 0
M  V30 4904 H 473.696 -2.47554 -0.712375 0
M  V30 4905 H 473.654 -2.04603 -2.38715 0
M  V30 4906 N 477.426 -0.562348 -1.47226 0
M  V30 4907 C 478.373 0.182461 -2.30078 0
M  V30 4908 C 479.343 0.903503 -1.39377 0
M  V30 4909 O 480.528 0.898188 -1.68337 0
M  V30 4910 C 477.668 1.20322 -3.23445 0
M  V30 4911 C 476.781 0.487717 -4.29238 0
M  V30 4912 C 475.916 1.49422 -5.09752 0
M  V30 4913 C 474.955 0.763976 -6.07314 0
M  V30 4914 N 474.092 1.71755 -6.80768 0
M  V30 4915 H 478.932 -0.530169 -2.93246 0
M  V30 4916 H 476.469 -0.273276 -1.44539 0
M  V30 4917 H 478.427 1.80768 -3.76004 0
M  V30 4918 H 477.057 1.88382 -2.6213 0
M  V30 4919 H 476.109 -0.231374 -3.79696 0
M  V30 4920 H 477.421 -0.0841003 -4.98729 0
M  V30 4921 H 476.575 2.17206 -5.66486 0
M  V30 4922 H 475.314 2.09995 -4.40174 0
M  V30 4923 H 474.319 0.0722344 -5.49753 0
M  V30 4924 H 475.544 0.16391 -6.78902 0
M  V30 4925 H 473.49 2.31177 -6.13916 0
M  V30 4926 H 473.407 1.19802 -7.46447 0
M  V30 4927 H 474.675 2.38638 -7.42073 0
M  V30 4928 N 478.904 1.54736 -0.299062 0
M  V30 4929 C 480.152 1.99706 0.31017 0
M  V30 4930 C 480.473 1.18896 1.54559 0
M  V30 4931 O 479.743 0.284445 1.93824 0
M  V30 4932 H 478.323 0.737686 0.117596 0
M  V30 4933 H 480.985 1.9054 -0.409943 0
M  V30 4934 H 480.081 3.06596 0.58355 0
M  V30 4935 N 480.382 0.0267497 1.57577 0
M  V30 4936 C 481.312 -0.954308 2.13108 0
M  V30 4937 C 482.293 -1.34088 1.04663 0
M  V30 4938 O 483.478 -1.41992 1.32484 0
M  V30 4939 C 480.608 -2.23744 2.65624 0
M  V30 4940 C 479.562 -1.99168 3.78835 0
M  V30 4941 C 478.888 -3.33726 4.17769 0
M  V30 4942 C 480.188 -1.33277 5.0501 0
M  V30 4943 H 481.882 -0.491848 2.95332 0
M  V30 4944 H 479.428 -0.23514 1.42067 0
M  V30 4945 H 481.381 -2.92754 3.03106 0
M  V30 4946 H 480.105 -2.72151 1.80558 0
M  V30 4947 H 478.764 -1.32577 3.41788 0
M  V30 4948 H 478.412 -3.79888 3.29688 0
M  V30 4949 H 478.112 -3.18089 4.94058 0
M  V30 4950 H 479.636 -4.04008 4.57832 0
M  V30 4951 H 481.05 -1.92283 5.40093 0
M  V30 4952 H 479.447 -1.28045 5.8628 0
M  V30 4953 H 480.517 -0.305411 4.83937 0
M  V30 4954 N 481.861 -1.55662 -0.24637 0
M  V30 4955 C 483.272 -1.67953 -0.81539 0
M  V30 4956 C 483.623 -0.624302 -1.86002 0
M  V30 4957 O 482.748 0.229328 -2.15181 0
M  V30 4958 C 483.343 -3.04484 -1.48576 0
M  V30 4959 C 481.902 -3.18713 -2.00248 0
M  V30 4960 C 481.049 -2.6383 -0.853766 0
M  V30 4961 H 484 -1.58685 -0.0221692 0
M  V30 4962 H 484.021 -2.98959 -2.3538 0
M  V30 4963 H 483.533 -3.81264 -0.725222 0
M  V30 4964 H 481.634 -2.46757 -2.79181 0
M  V30 4965 H 481.747 -4.25628 -2.1995 0
M  V30 4966 H 480.111 -2.21667 -1.25442 0
M  V30 4967 H 480.894 -3.43135 -0.106302 0
M  V30 4968 N 483.339 0.512053 -1.4905 0
M  V30 4969 C 484.302 1.59704 -1.64399 0
M  V30 4970 C 485.302 1.52285 -0.516317 0
M  V30 4971 O 486.492 1.55635 -0.782527 0
M  V30 4972 C 483.624 2.9935 -1.63102 0
M  V30 4973 H 484.817 1.47428 -2.61161 0
M  V30 4974 H 482.37 0.735469 -1.37915 0
M  V30 4975 H 483.105 3.17116 -0.678836 0
M  V30 4976 H 482.89 3.06144 -2.44986 0
M  V30 4977 H 484.38 3.782 -1.77072 0
M  V30 4978 N 484.817 1.37938 0.762283 0
M  V30 4979 C 486.228 1.30094 1.33912 0
M  V30 4980 C 486.579 -0.0472026 1.96143 0
M  V30 4981 O 485.704 -0.94917 1.94473 0
M  V30 4982 C 486.299 2.35592 2.43478 0
M  V30 4983 C 484.858 2.31353 2.96905 0
M  V30 4984 C 484.005 2.18919 1.70205 0
M  V30 4985 H 486.956 1.48423 0.561816 0
M  V30 4986 H 486.977 2.00806 3.23199 0
M  V30 4987 H 486.489 3.33701 1.98155 0
M  V30 4988 H 484.59 1.36799 3.46579 0
M  V30 4989 H 484.703 3.25147 3.51875 0
M  V30 4990 H 483.067 1.65624 1.93496 0
M  V30 4991 H 483.85 3.18956 1.26973 0
M  V30 4992 N 486.295 -0.989507 1.22664 0
M  V30 4993 C 487.544 -1.72375 1.04737 0
M  V30 4994 C 487.857 -1.91096 -0.417316 0
M  V30 4995 O 489.063 -2.6188 -0.716334 0
M  V30 4996 C 487.519 -3.10161 1.82561 0
M  V30 4997 C 487.127 -2.99358 3.333 0
M  V30 4998 C 488.871 -3.87607 1.73093 0
M  V30 4999 C 486.778 -4.32319 4.03552 0
M  V30 5000 H 485.708 -0.646326 0.388302 0
M  V30 5001 H 488.359 -1.10437 1.46546 0
M  V30 5002 H 486.741 -3.728 1.33552 0
M  V30 5003 H 487.915 -2.45863 3.89728 0
M  V30 5004 H 486.23 -2.35392 3.43481 0
M  V30 5005 H 488.827 -4.86025 2.22899 0
M  V30 5006 H 489.17 -4.10509 0.691976 0
M  V30 5007 H 489.703 -3.31652 2.19663 0
M  V30 5008 H 486.442 -4.14616 5.07714 0
M  V30 5009 H 485.962 -4.85714 3.51911 0
M  V30 5010 H 487.641 -5.01051 4.09337 0
M  V30 5011 N 487.773 -1.03688 -1.18687 0
M  V30 5012 C 488.683 -0.634908 -2.25845 0
M  V30 5013 C 489.699 0.337065 -1.70704 0
M  V30 5014 O 490.875 0.192943 -2.00474 0
M  V30 5015 C 487.94 -0.000180054 -3.467 0
M  V30 5016 C 487.001 -1.02067 -4.1699 0
M  V30 5017 C 486.234 -0.41614 -5.32075 0
M  V30 5018 O 486.457 0.778712 -5.65059 0
M  V30 5019 O 485.391 -1.14296 -5.90948 0
M  V30 5020 H 489.217 -1.52757 -2.62486 0
M  V30 5021 H 486.802 -0.807533 -1.25695 0
M  V30 5022 H 488.684 0.353342 -4.19916 0
M  V30 5023 H 487.359 0.866367 -3.11891 0
M  V30 5024 H 486.266 -1.42592 -3.45859 0
M  V30 5025 H 487.599 -1.85786 -4.5579 0
M  V30 5026 N 489.251 1.34841 -0.815825 0
M  V30 5027 C 490.198 2.29644 -0.230664 0
M  V30 5028 C 491.168 1.53253 0.640533 0
M  V30 5029 O 492.353 1.81653 0.583672 0
M  V30 5030 C 489.493 3.39715 0.607275 0
M  V30 5031 C 488.606 4.31056 -0.28538 0
M  V30 5032 C 487.741 5.28225 0.561446 0
M  V30 5033 C 486.78 6.11204 -0.331035 0
M  V30 5034 N 485.917 7.00483 0.476302 0
M  V30 5035 H 490.757 2.79095 -1.0445 0
M  V30 5036 H 488.294 1.37351 -0.526595 0
M  V30 5037 H 490.252 4.02208 1.10835 0
M  V30 5038 H 488.882 2.91517 1.38629 0
M  V30 5039 H 487.934 3.69487 -0.904621 0
M  V30 5040 H 489.246 4.89239 -0.97193 0
M  V30 5041 H 488.4 5.96135 1.12728 0
M  V30 5042 H 487.139 4.70562 1.28153 0
M  V30 5043 H 486.144 5.42232 -0.909069 0
M  V30 5044 H 487.369 6.70947 -1.04912 0
M  V30 5045 H 485.315 6.45296 1.18019 0
M  V30 5046 H 485.232 7.55847 -0.152008 0
M  V30 5047 H 486.5 7.7273 1.02512 0
M  V30 5048 N 490.729 0.570148 1.46925 0
M  V30 5049 C 491.957 0.0561966 2.06824 0
M  V30 5050 C 492.372 -1.24326 1.42086 0
M  V30 5051 O 491.729 -1.74882 0.521794 0
M  V30 5052 C 491.78 -0.129517 3.61268 0
M  V30 5053 O 491.501 1.1185 4.23581 0
M  V30 5054 C 493.002 -0.679266 4.38065 0
M  V30 5055 H 490.222 0.0517261 0.669003 0
M  V30 5056 H 492.766 0.787243 1.8874 0
M  V30 5057 H 490.921 -0.810739 3.78822 0
M  V30 5058 H 491.335 0.924375 5.1629 0
M  V30 5059 H 492.809 -0.758445 5.46765 0
M  V30 5060 H 493.286 -1.69346 4.05239 0
M  V30 5061 H 493.892 -0.0333237 4.25287 0
M  V30 5062 N 492.207 -1.54576 0.307264 0
M  V30 5063 C 493.456 -1.99442 -0.300976 0
M  V30 5064 C 493.769 -1.19928 -1.5452 0
M  V30 5065 O 494.975 -1.55092 -2.22842 0
M  V30 5066 C 493.431 -3.55084 -0.586809 0
M  V30 5067 C 493.039 -4.43413 0.639438 0
M  V30 5068 C 494.783 -4.0846 -1.1559 0
M  V30 5069 C 492.69 -5.90499 0.326411 0
M  V30 5070 H 491.62 -0.744986 -0.116238 0
M  V30 5071 H 494.271 -1.787 0.416947 0
M  V30 5072 H 492.653 -3.71749 -1.36449 0
M  V30 5073 H 493.827 -4.38522 1.41545 0
M  V30 5074 H 492.142 -4.00842 1.1276 0
M  V30 5075 H 494.739 -5.15926 -1.40445 0
M  V30 5076 H 495.082 -3.59443 -2.10015 0
M  V30 5077 H 495.615 -3.95362 -0.439778 0
M  V30 5078 H 492.354 -6.43676 1.23939 0
M  V30 5079 H 491.874 -5.98382 -0.412212 0
M  V30 5080 H 493.553 -6.46962 -0.0697393 0
M  V30 5081 N 493.685 -0.035106 -1.57561 0
M  V30 5082 C 494.91 0.655802 -1.96759 0
M  V30 5083 C 495.335 1.64523 -0.911809 0
M  V30 5084 O 494.693 1.80857 0.126673 0
M  V30 5085 C 494.741 1.33326 -3.35047 0
M  V30 5086 O 493.845 2.44866 -3.31835 0
M  V30 5087 H 493.186 0.171807 -0.641388 0
M  V30 5088 H 495.716 -0.0987369 -2.04362 0
M  V30 5089 H 495.726 1.68867 -3.71413 0
M  V30 5090 H 494.401 0.608033 -4.11431 0
M  V30 5091 H 492.978 2.11392 -3.07193 0
M  V30 5092 N 495.163 1.55791 0.238111 0
M  V30 5093 C 496.11 1.9105 1.29493 0
M  V30 5094 C 497.08 0.765733 1.47397 0
M  V30 5095 O 498.265 1.02017 1.61236 0
M  V30 5096 C 495.405 2.21826 2.64362 0
M  V30 5097 C 494.518 3.49153 2.54394 0
M  V30 5098 C 493.653 3.69455 3.81676 0
M  V30 5099 C 492.692 4.90353 3.66361 0
M  V30 5100 N 491.829 5.07131 4.85554 0
M  V30 5101 H 496.669 2.81172 0.987233 0
M  V30 5102 H 494.206 1.39179 0.476203 0
M  V30 5103 H 496.164 2.37675 3.4288 0
M  V30 5104 H 494.794 1.34897 2.93262 0
M  V30 5105 H 493.846 3.41587 1.67399 0
M  V30 5106 H 495.158 4.37818 2.38991 0
M  V30 5107 H 494.312 3.85311 4.68636 0
M  V30 5108 H 493.051 2.7904 3.99985 0
M  V30 5109 H 492.056 4.74464 2.77784 0
M  V30 5110 H 493.281 5.82237 3.49538 0
M  V30 5111 H 491.227 4.19654 5.04209 0
M  V30 5112 H 491.144 5.89899 4.72816 0
M  V30 5113 H 492.412 5.27407 5.73988 0
M  V30 5114 N 496.642 -0.504142 1.49319 0
M  V30 5115 C 497.87 -1.28256 1.62351 0
M  V30 5116 C 498.285 -1.86502 0.293682 0
M  V30 5117 O 497.642 -1.67678 -0.720449 0
M  V30 5118 C 497.693 -2.41507 2.68992 0
M  V30 5119 O 497.414 -1.85656 3.96817 0
M  V30 5120 C 498.915 -3.32929 2.927 0
M  V30 5121 H 496.135 -0.389115 0.546654 0
M  V30 5122 H 498.679 -0.605531 1.95329 0
M  V30 5123 H 496.834 -3.05046 2.38801 0
M  V30 5124 H 497.248 -2.59981 4.55533 0
M  V30 5125 H 498.722 -4.0868 3.71058 0
M  V30 5126 H 499.199 -3.89733 2.02496 0
M  V30 5127 H 499.805 -2.75158 3.24296 0
M  V30 5128 N 498.12 -1.38341 -0.754957 0
M  V30 5129 C 499.067 -1.3546 -1.86867 0
M  V30 5130 C 500.037 -0.217369 -1.64672 0
M  V30 5131 O 501.222 -0.409383 -1.86356 0
M  V30 5132 C 498.362 -1.18413 -3.24149 0
M  V30 5133 C 497.475 -2.41511 -3.58185 0
M  V30 5134 C 496.61 -2.17205 -4.84763 0
M  V30 5135 C 495.649 -3.36081 -5.11582 0
M  V30 5136 N 494.786 -3.11219 -6.29354 0
M  V30 5137 H 499.626 -2.30672 -1.88664 0
M  V30 5138 H 497.163 -1.14607 -0.922154 0
M  V30 5139 H 499.121 -1.06545 -4.03366 0
M  V30 5140 H 497.751 -0.268397 -3.21682 0
M  V30 5141 H 496.803 -2.64056 -2.73822 0
M  V30 5142 H 498.115 -3.30115 -3.73932 0
M  V30 5143 H 497.269 -2.02465 -5.7192 0
M  V30 5144 H 496.008 -1.25964 -4.71152 0
M  V30 5145 H 495.013 -3.51341 -4.22894 0
M  V30 5146 H 496.238 -4.28196 -5.27091 0
M  V30 5147 H 494.184 -2.22624 -6.17069 0
M  V30 5148 H 494.101 -3.93373 -6.45596 0
M  V30 5149 H 495.369 -3.00132 -7.19403 0
M  V30 5150 N 499.598 0.982988 -1.23187 0
M  V30 5151 C 500.846 1.72052 -1.06031 0
M  V30 5152 C 501.167 1.90769 0.404019 0
M  V30 5153 O 500.437 1.47446 1.28982 0
M  V30 5154 H 499.017 0.637499 -0.389363 0
M  V30 5155 H 501.679 1.18338 -1.54862 0
M  V30 5156 H 500.775 2.7111 -1.54615 0
M  V30 5157 N 501.076 1.04316 1.18135 0
M  V30 5158 C 502.008 0.594444 2.21357 0
M  V30 5159 C 503.021 -0.337215 1.59269 0
M  V30 5160 O 504.21 -0.131337 1.78016 0
M  V30 5161 C 501.31 -0.151251 3.38562 0
M  V30 5162 C 500.483 0.788907 4.30227 0
M  V30 5163 C 499.542 0.0860572 5.2613 0
M  V30 5164 O 498.568 0.717302 5.64662 0
M  V30 5165 N 499.77 -1.17969 5.68387 0
M  V30 5166 H 502.535 1.48227 2.60478 0
M  V30 5167 H 500.096 0.92396 1.32946 0
M  V30 5168 H 502.088 -0.631352 3.99745 0
M  V30 5169 H 500.658 -0.940639 2.98112 0
M  V30 5170 H 499.878 1.44882 3.6661 0
M  V30 5171 H 501.166 1.42738 4.88368 0
M  V30 5172 H 500.564 -1.71302 5.3914 0
M  V30 5173 H 499.121 -1.60402 6.31755 0
M  V30 5174 N 502.554 -1.34406 0.822964 0
M  V30 5175 C 503.965 -1.8069 0.469879 0
M  V30 5176 C 504.316 -1.68223 -1.00972 0
M  V30 5177 O 503.441 -1.22226 -1.78577 0
M  V30 5178 C 504.036 -3.28064 0.846118 0
M  V30 5179 C 502.595 -3.72428 0.545402 0
M  V30 5180 C 501.742 -2.56116 1.06301 0
M  V30 5181 H 504.693 -1.22153 1.01313 0
M  V30 5182 H 504.714 -3.80205 0.149922 0
M  V30 5183 H 504.226 -3.37107 1.92304 0
M  V30 5184 H 502.327 -3.68924 -0.522109 0
M  V30 5185 H 502.44 -4.66548 1.0895 0
M  V30 5186 H 500.804 -2.50048 0.484554 0
M  V30 5187 H 501.587 -2.67928 2.14638 0
M  V30 5188 N 504.032 -0.577932 -1.46621 0
M  V30 5189 C 505.448 -0.239242 -1.57797 0
M  V30 5190 C 505.648 1.25843 -1.57371 0
M  V30 5191 O 504.704 2.03988 -1.48813 0
M  V30 5192 C 506.017 -0.884227 -2.87405 0
M  V30 5193 C 507.565 -0.857373 -3.01028 0
M  V30 5194 C 508.04 -1.48181 -4.33366 0
M  V30 5195 N 509.531 -1.44593 -4.40053 0
M  V30 5196 C 510.266 -1.89852 -5.41058 0
M  V30 5197 N 509.762 -2.43062 -6.48762 0
M  V30 5198 N 511.555 -1.80797 -5.3223 0
M  V30 5199 H 503.706 -1.55073 -1.45142 0
M  V30 5200 H 505.969 -0.647903 -0.692044 0
M  V30 5201 H 505.675 -1.93759 -2.93514 0
M  V30 5202 H 505.549 -0.389585 -3.75183 0
M  V30 5203 H 507.936 0.187357 -2.94505 0
M  V30 5204 H 508.017 -1.38999 -2.14739 0
M  V30 5205 H 507.661 -2.52572 -4.40647 0
M  V30 5206 H 507.591 -0.924464 -5.18422 0
M  V30 5207 H 510.082 -1.05694 -3.62819 0
M  V30 5208 H 510.395 -2.75466 -7.22038 0
M  V30 5209 H 508.74 -2.47085 -6.49595 0
M  V30 5210 H 511.931 -1.38989 -4.46989 0
M  V30 5211 H 512.104 -2.16385 -6.10804 0
M  V30 5212 N 505.51 1.54411 -0.315457 0
M  V30 5213 C 506.42 2.27737 0.56329 0
M  V30 5214 C 507.436 1.31787 1.13614 0
M  V30 5215 O 508.612 1.64791 1.15784 0
M  V30 5216 C 505.677 3.01478 1.71207 0
M  V30 5217 C 504.738 4.12997 1.17185 0
M  V30 5218 C 503.971 4.83212 2.26588 0
M  V30 5219 O 504.194 4.52884 3.46775 0
M  V30 5220 O 503.128 5.70299 1.92463 0
M  V30 5221 H 506.954 3.03683 -0.0319614 0
M  V30 5222 H 504.539 1.49178 -0.0814188 0
M  V30 5223 H 506.421 3.47683 2.38106 0
M  V30 5224 H 505.096 2.28414 2.29366 0
M  V30 5225 H 504.003 3.71159 0.468174 0
M  V30 5226 H 505.336 4.8808 0.635501 0
M  V30 5227 N 506.988 0.0434614 1.5754 0
M  V30 5228 C 508.399 -0.493343 1.80064 0
M  V30 5229 C 508.75 -1.71388 0.955023 0
M  V30 5230 O 507.875 -2.15736 0.169434 0
M  V30 5231 C 508.47 -0.90179 3.26578 0
M  V30 5232 C 507.029 -1.38362 3.50047 0
M  V30 5233 C 506.176 -0.355129 2.75017 0
M  V30 5234 H 509.127 0.2694 1.56397 0
M  V30 5235 H 509.148 -1.76523 3.37075 0
M  V30 5236 H 508.66 -0.013271 3.88098 0
M  V30 5237 H 506.761 -2.29159 2.93798 0
M  V30 5238 H 506.874 -1.3811 4.58762 0
M  V30 5239 H 505.238 -0.826348 2.40922 0
M  V30 5240 H 506.021 0.525172 3.39259 0
M  V30 5241 N 508.466 -1.55915 -0.229846 0
M  V30 5242 C 509.398 -1.88209 -1.30805 0
M  V30 5243 C 510.411 -0.769672 -1.43457 0
M  V30 5244 O 511.6 -1.04792 -1.44502 0
M  V30 5245 C 508.7 -2.06829 -2.68468 0
M  V30 5246 C 507.873 -3.37798 -2.77869 0
M  V30 5247 C 506.932 -3.45952 -3.96489 0
M  V30 5248 O 505.958 -4.19043 -3.85216 0
M  V30 5249 N 507.16 -2.76488 -5.10426 0
M  V30 5250 H 509.925 -2.81286 -1.03431 0
M  V30 5251 H 507.486 -1.5636 -0.41991 0
M  V30 5252 H 509.478 -2.09608 -3.46189 0
M  V30 5253 H 508.048 -1.20416 -2.88477 0
M  V30 5254 H 507.268 -3.4719 -1.86689 0
M  V30 5255 H 508.556 -4.24091 -2.81113 0
M  V30 5256 H 507.954 -2.16868 -5.2248 0
M  V30 5257 H 506.511 -2.84938 -5.8622 0
M  V30 5258 N 509.944 0.496216 -1.49584 0
M  V30 5259 C 511.19 1.25189 -1.59548 0
M  V30 5260 C 511.523 1.9212 -0.283466 0
M  V30 5261 O 510.798 1.80947 0.713324 0
M  V30 5262 C 511.081 2.31516 -2.75812 0
M  V30 5263 C 510.934 1.69054 -4.16822 0
M  V30 5264 C 512.253 3.3304 -2.87702 0
M  V30 5265 H 509.372 0.45379 -0.580727 0
M  V30 5266 H 512.014 0.549327 -1.81886 0
M  V30 5267 H 510.164 2.91438 -2.56897 0
M  V30 5268 H 511.836 1.12923 -4.47265 0
M  V30 5269 H 510.079 0.994485 -4.22247 0
M  V30 5270 H 510.75 2.462 -4.94054 0
M  V30 5271 H 513.226 2.83114 -3.04936 0
M  V30 5272 H 512.102 4.04794 -3.7072 0
M  V30 5273 H 512.363 3.95655 -1.97255 0
M  V30 5274 N 511.423 1.38739 0.74761 0
M  V30 5275 C 512.653 1.3832 1.53464 0
M  V30 5276 C 513.061 -0.0273464 1.8918 0
M  V30 5277 O 512.404 -1.00588 1.53713 0
M  V30 5278 C 512.466 2.18007 2.85855 0
M  V30 5279 C 512.13 3.66762 2.72644 0
M  V30 5280 C 513.127 4.60124 2.42037 0
M  V30 5281 C 510.812 4.10193 2.89909 0
M  V30 5282 C 512.806 5.94897 2.28859 0
M  V30 5283 C 510.493 5.45045 2.7635 0
M  V30 5284 C 511.491 6.37211 2.45869 0
M  V30 5285 O 511.179 7.69581 2.3238 0
M  V30 5286 H 510.911 0.474718 0.481268 0
M  V30 5287 H 513.465 1.83012 0.932518 0
M  V30 5288 H 511.695 1.68043 3.48279 0
M  V30 5289 H 513.384 2.09921 3.47402 0
M  V30 5290 H 514.15 4.27874 2.28361 0
M  V30 5291 H 510.029 3.38797 3.1263 0
M  V30 5292 H 513.573 6.66802 2.04989 0
M  V30 5293 H 509.47 5.76889 2.89601 0
M  V30 5294 H 510.238 7.80169 2.47546 0
M  V30 5295 N 512.901 -0.976442 1.23707 0
M  V30 5296 C 514.129 -1.75341 1.09833 0
M  V30 5297 C 514.544 -1.8553 -0.349885 0
M  V30 5298 O 513.901 -1.33732 -1.24185 0
M  V30 5299 C 513.952 -3.17833 1.72233 0
M  V30 5300 O 513.673 -3.08167 3.11391 0
M  V30 5301 C 515.174 -4.11906 1.63853 0
M  V30 5302 H 512.394 -0.550137 0.384175 0
M  V30 5303 H 514.938 -1.2265 1.63638 0
M  V30 5304 H 513.093 -3.67538 1.22452 0
M  V30 5305 H 513.507 -3.97897 3.41729 0
M  V30 5306 H 514.981 -5.09579 2.12211 0
M  V30 5307 H 515.458 -4.35109 0.598092 0
M  V30 5308 H 516.064 -3.68107 2.13019 0
M  V30 5309 N 514.379 -1.04941 -1.1758 0
M  V30 5310 C 515.309 -0.669172 -2.23706 0
M  V30 5311 C 516.29 0.331835 -1.66832 0
M  V30 5312 O 517.475 0.209988 -1.93061 0
M  V30 5313 C 514.605 -0.0404889 -3.47276 0
M  V30 5314 C 513.559 -0.965983 -4.16957 0
M  V30 5315 C 512.885 -0.201312 -5.34321 0
M  V30 5316 C 514.185 -2.28902 -4.69469 0
M  V30 5317 H 515.879 -1.55639 -2.55767 0
M  V30 5318 H 513.425 -0.749793 -1.22939 0
M  V30 5319 H 515.378 0.237298 -4.20731 0
M  V30 5320 H 514.102 0.881658 -3.14475 0
M  V30 5321 H 512.761 -1.22829 -3.45411 0
M  V30 5322 H 512.409 0.723519 -4.97769 0
M  V30 5323 H 512.109 -0.817968 -5.81879 0
M  V30 5324 H 513.633 0.0692499 -6.10561 0
M  V30 5325 H 515.047 -2.07132 -5.34574 0
M  V30 5326 H 513.444 -2.85942 -5.27596 0
M  V30 5327 H 514.514 -2.92937 -3.86414 0
M  V30 5328 N 515.857 1.33968 -0.830081 0
M  V30 5329 C 517.268 1.80439 -0.479455 0
M  V30 5330 C 517.619 1.68756 1.00079 0
M  V30 5331 O 516.744 1.23171 1.77927 0
M  V30 5332 C 517.339 3.27611 -0.863505 0
M  V30 5333 C 515.898 3.72133 -0.565145 0
M  V30 5334 C 515.045 2.55549 -1.07657 0
M  V30 5335 H 517.996 1.21614 -1.0196 0
M  V30 5336 H 518.017 3.8012 -0.170083 0
M  V30 5337 H 517.529 3.36082 -1.94089 0
M  V30 5338 H 515.63 3.69196 0.502536 0
M  V30 5339 H 515.743 4.65963 -1.11422 0
M  V30 5340 H 514.107 2.49788 -0.497807 0
M  V30 5341 H 514.89 2.66786 -2.16055 0
M  V30 5342 N 517.335 0.585699 1.46312 0
M  V30 5343 C 518.746 0.159938 1.86014 0
M  V30 5344 C 519.097 -1.27775 1.48889 0
M  V30 5345 O 518.222 -1.96559 0.90519 0
M  V30 5346 C 518.817 0.283485 3.37612 0
M  V30 5347 C 517.376 -0.0874256 3.76298 0
M  V30 5348 C 516.523 0.618055 2.70325 0
M  V30 5349 H 519.474 0.793737 1.37425 0
M  V30 5350 H 519.495 -0.490348 3.77327 0
M  V30 5351 H 519.007 1.32995 3.64601 0
M  V30 5352 H 517.108 -1.13391 3.54927 0
M  V30 5353 H 517.221 0.290975 4.78216 0
M  V30 5354 H 515.585 0.057993 2.54634 0
M  V30 5355 H 516.368 1.66623 3.00153 0
M  V30 5356 N 518.813 -1.54241 0.323641 0
M  V30 5357 C 520.038 -2.05452 -0.283605 0
M  V30 5358 C 520.463 -1.19823 -1.44997 0
M  V30 5359 O 519.821 -0.207358 -1.8011 0
M  V30 5360 C 519.869 -3.53823 -0.695795 0
M  V30 5361 O 518.973 -3.71134 -1.79815 0
M  V30 5362 H 518.314 -0.662024 -0.0511917 0
M  V30 5363 H 520.844 -1.99079 0.472073 0
M  V30 5364 H 520.854 -3.96094 -0.978434 0
M  V30 5365 H 519.529 -4.15602 0.157287 0
M  V30 5366 H 518.106 -3.40768 -1.51431 0
M  V30 5367 N 520.291 -0.0518155 -1.57515 0
M  V30 5368 C 521.707 0.304735 -1.56664 0
M  V30 5369 C 521.907 1.71395 -1.05953 0
M  V30 5370 O 520.963 2.42123 -0.716414 0
M  V30 5371 C 522.276 0.132614 -3.00407 0
M  V30 5372 C 523.824 0.20367 -3.12337 0
M  V30 5373 C 524.299 0.0600706 -4.57961 0
M  V30 5374 N 525.79 0.116326 -4.63054 0
M  V30 5375 C 526.525 0.0293363 -5.73392 0
M  V30 5376 N 526.021 -0.110038 -6.92713 0
M  V30 5377 N 527.814 0.0849651 -5.62036 0
M  V30 5378 H 519.965 -0.973056 -1.888 0
M  V30 5379 H 522.228 -0.377781 -0.869474 0
M  V30 5380 H 521.934 -0.839019 -3.41546 0
M  V30 5381 H 521.808 0.893376 -3.66468 0
M  V30 5382 H 524.195 1.16578 -2.71097 0
M  V30 5383 H 524.276 -0.587857 -2.48954 0
M  V30 5384 H 523.92 -0.898715 -4.99886 0
M  V30 5385 H 523.85 0.87075 -5.19351 0
M  V30 5386 H 526.341 0.22327 -3.7724 0
M  V30 5387 H 526.654 -0.169104 -7.72615 0
M  V30 5388 H 524.999 -0.145132 -6.94848 0
M  V30 5389 H 528.19 0.192411 -4.67704 0
M  V30 5390 H 528.363 0.0137131 -6.47999 0
M  V30 5391 N 521.769 1.56035 0.221574 0
M  V30 5392 C 522.679 1.95581 1.29558 0
M  V30 5393 C 523.695 0.859639 1.51282 0
M  V30 5394 O 524.871 1.16321 1.64413 0
M  V30 5395 C 521.936 2.26447 2.62531 0
M  V30 5396 C 520.997 3.49632 2.4911 0
M  V30 5397 C 520.23 3.79017 3.75742 0
M  V30 5398 O 520.453 3.10077 4.78757 0
M  V30 5399 O 519.387 4.72507 3.72855 0
M  V30 5400 H 523.213 2.8711 0.990035 0
M  V30 5401 H 520.798 1.43244 0.424434 0
M  V30 5402 H 522.68 2.47494 3.41064 0
M  V30 5403 H 521.355 1.38092 2.92766 0
M  V30 5404 H 520.262 3.33864 1.68777 0
M  V30 5405 H 521.595 4.3837 2.23814 0
M  V30 5406 N 523.247 -0.488276 1.49845 0
M  V30 5407 C 524.157 -1.61451 1.70207 0
M  V30 5408 C 525.173 -1.63877 0.584846 0
M  V30 5409 O 526.349 -1.82063 0.861107 0
M  V30 5410 C 523.414 -2.9776 1.77594 0
M  V30 5411 C 522.475 -3.05861 3.01243 0
M  V30 5412 C 521.708 -4.35668 3.08268 0
M  V30 5413 O 521.931 -5.25197 2.22541 0
M  V30 5414 O 520.865 -4.49005 4.00847 0
M  V30 5415 H 524.691 -1.47199 2.65643 0
M  V30 5416 H 522.276 -0.665939 1.33737 0
M  V30 5417 H 524.158 -3.7875 1.84732 0
M  V30 5418 H 522.833 -3.12248 0.8534 0
M  V30 5419 H 521.74 -2.24012 2.99616 0
M  V30 5420 H 523.073 -2.96304 3.9302 0
M  V30 5421 N 524.725 -1.39134 -0.740242 0
M  V30 5422 C 525.658 -1.3182 -1.86276 0
M  V30 5423 C 526.636 -0.192794 -1.61453 0
M  V30 5424 O 527.82 -0.372365 -1.84786 0
M  V30 5425 C 524.947 -1.04564 -3.22155 0
M  V30 5426 C 523.993 -2.19224 -3.65846 0
M  V30 5427 S 524.826 -3.81466 -3.75824 0
M  V30 5428 C 525.982 -3.56425 -5.14502 0
M  V30 5429 H 526.215 -2.26822 -1.92195 0
M  V30 5430 H 523.748 -1.25127 -0.904576 0
M  V30 5431 H 525.706 -0.895228 -4.00619 0
M  V30 5432 H 524.367 -0.112578 -3.13898 0
M  V30 5433 H 523.56 -1.95732 -4.6444 0
M  V30 5434 H 523.162 -2.30441 -2.94572 0
M  V30 5435 H 525.454 -3.13366 -6.00673 0
M  V30 5436 H 526.397 -4.54462 -5.43019 0
M  V30 5437 H 526.805 -2.90641 -4.8393 0
M  V30 5438 N 526.204 0.969867 -1.24223 0
M  V30 5439 C 527.432 1.74756 -1.10761 0
M  V30 5440 C 527.847 1.85713 0.340041 0
M  V30 5441 O 527.204 1.34389 1.23474 0
M  V30 5442 C 527.255 3.16915 -1.73917 0
M  V30 5443 O 526.976 3.06511 -3.13021 0
M  V30 5444 C 528.477 4.11032 -1.66036 0
M  V30 5445 H 525.697 0.548092 -0.387087 0
M  V30 5446 H 528.241 1.2178 -1.64286 0
M  V30 5447 H 526.396 3.66884 -1.244 0
M  V30 5448 H 526.81 3.96079 -3.43834 0
M  V30 5449 H 528.284 5.08446 -2.14911 0
M  V30 5450 H 528.761 4.34785 -0.621159 0
M  V30 5451 H 529.367 3.66972 -2.14969 0
M  V30 5452 N 527.682 1.05563 1.17022 0
M  V30 5453 C 528.629 0.659893 2.21165 0
M  V30 5454 C 529.599 -0.339813 1.62587 0
M  V30 5455 O 530.784 -0.230378 1.89404 0
M  V30 5456 C 527.924 0.0447297 3.45071 0
M  V30 5457 C 527.037 1.09372 4.17926 0
M  V30 5458 C 526.172 0.445481 5.29329 0
M  V30 5459 C 525.211 1.47852 5.93975 0
M  V30 5460 N 524.348 0.854172 6.96885 0
M  V30 5461 H 529.188 1.55243 2.54369 0
M  V30 5462 H 526.725 0.776336 1.24946 0
M  V30 5463 H 528.683 -0.329404 4.15898 0
M  V30 5464 H 527.313 -0.811244 3.1244 0
M  V30 5465 H 526.365 1.58564 3.45777 0
M  V30 5466 H 527.677 1.87773 4.62107 0
M  V30 5467 H 526.831 0.0179688 6.06697 0
M  V30 5468 H 525.57 -0.370481 4.86291 0
M  V30 5469 H 524.575 1.91601 5.15334 0
M  V30 5470 H 525.8 2.29645 6.39093 0
M  V30 5471 H 523.746 0.0587882 6.55974 0
M  V30 5472 H 523.663 1.57567 7.39397 0
M  V30 5473 H 524.931 0.451559 7.78191 0
M  V30 5474 N 529.16 -1.33526 0.837174 0
M  V30 5475 C 530.108 -2.31168 0.257698 0
M  V30 5476 C 531.102 -1.5806 -0.609388 0
M  V30 5477 O 532.308 -1.72941 -0.499139 0
M  V30 5478 H 528.683 -0.74922 0.0646058 0
M  V30 5479 H 530.654 -2.77552 1.09578 0
M  V30 5480 C 529.403 -3.4326 -0.553887 0
M  V30 5481 H 528.726 -3.99665 0.104008 0
M  V30 5482 H 530.166 -4.13782 -0.925219 0
M  V30 5483 C 528.625 -2.88965 -1.73207 0
M  V30 5484 O 529.155 -2.85013 -2.83073 0
M  V30 5485 N 527.361 -2.45596 -1.55342 0
M  V30 5486 H 526.908 -2.49009 -0.659705 0
M  V30 5487 H 526.866 -2.0962 -2.34322 0
M  V30 5488 N 530.638 -0.59345 -1.46 0
M  V30 5489 C 531.57 0.171569 -2.28557 0
M  V30 5490 C 532.583 0.845273 -1.39137 0
M  V30 5491 O 533.772 0.713033 -1.6364 0
M  V30 5492 C 530.872 1.26311 -3.14482 0
M  V30 5493 C 530.045 0.679258 -4.32094 0
M  V30 5494 C 529.104 1.65987 -4.99334 0
M  V30 5495 O 528.13 1.19171 -5.56585 0
M  V30 5496 N 529.332 2.99414 -4.97324 0
M  V30 5497 H 532.097 -0.536771 -2.94854 0
M  V30 5498 H 529.658 -0.431954 -1.56031 0
M  V30 5499 H 531.65 1.91863 -3.5633 0
M  V30 5500 H 530.22 1.87416 -2.50188 0
M  V30 5501 H 529.44 -0.153992 -3.93899 0
M  V30 5502 H 530.728 0.26916 -5.08088 0
M  V30 5503 H 530.126 3.40064 -4.52076 0
M  V30 5504 H 528.683 3.60426 -5.4308 0
M  V30 5505 N 532.116 1.54067 -0.331816 0
M  V30 5506 C 533.362 2.01012 0.268667 0
M  V30 5507 C 533.695 1.2195 1.51136 0
M  V30 5508 O 532.97 0.303972 1.9211 0
M  V30 5509 C 533.253 3.55158 0.59456 0
M  V30 5510 C 533.106 4.4494 -0.659409 0
M  V30 5511 C 534.425 4.16939 1.4089 0
M  V30 5512 H 531.544 0.730698 0.0961756 0
M  V30 5513 H 534.186 1.84593 -0.450031 0
M  V30 5514 H 532.336 3.6928 1.20685 0
M  V30 5515 H 534.008 4.42675 -1.29756 0
M  V30 5516 H 532.251 4.1428 -1.28665 0
M  V30 5517 H 532.922 5.50643 -0.386804 0
M  V30 5518 H 535.398 4.06443 0.891272 0
M  V30 5519 H 534.274 5.24889 1.60569 0
M  V30 5520 H 534.535 3.70798 2.40752 0
M  V30 5521 N 533.594 0.0601682 1.57485 0
M  V30 5522 C 534.819 -0.624416 1.97777 0
M  V30 5523 C 535.244 -1.63051 0.937867 0
M  V30 5524 O 534.602 -1.81036 -0.0978845 0
M  V30 5525 C 534.65 -1.27979 3.37126 0
M  V30 5526 O 533.754 -2.39556 3.35688 0
M  V30 5527 H 533.095 -0.161581 0.64404 0
M  V30 5528 H 535.625 0.131237 2.04179 0
M  V30 5529 H 535.635 -1.62937 3.74053 0
M  V30 5530 H 534.31 -0.542501 4.12347 0
M  V30 5531 H 532.887 -2.06478 3.10517 0
M  V30 5532 N 535.072 -1.5615 -0.213296 0
M  V30 5533 C 536.002 -1.96109 -1.26742 0
M  V30 5534 C 536.983 -0.830448 -1.48451 0
M  V30 5535 O 538.168 -1.09339 -1.60495 0
M  V30 5536 C 535.298 -2.28492 -2.61551 0
M  V30 5537 C 534.252 -3.44124 -2.54485 0
M  V30 5538 C 533.578 -3.62134 -3.93399 0
M  V30 5539 C 534.878 -4.78855 -2.08556 0
M  V30 5540 H 536.572 -2.84412 -0.935434 0
M  V30 5541 H 534.118 -1.36836 -0.44854 0
M  V30 5542 H 536.071 -2.55039 -3.3546 0
M  V30 5543 H 534.795 -1.37052 -2.96453 0
M  V30 5544 H 533.454 -3.17639 -1.83033 0
M  V30 5545 H 533.102 -2.68055 -4.25623 0
M  V30 5546 H 532.802 -4.39913 -3.89551 0
M  V30 5547 H 534.326 -3.91038 -4.68958 0
M  V30 5548 H 535.74 -5.04552 -2.72213 0
M  V30 5549 H 534.137 -5.59975 -2.1575 0
M  V30 5550 H 535.207 -4.73657 -1.03811 0
M  V30 5551 N 536.55 0.480323 -1.50102 0
M  V30 5552 C 537.778 1.25657 -1.64371 0
M  V30 5553 C 538.193 1.86011 -0.323316 0
M  V30 5554 O 537.55 1.68803 0.693682 0
M  V30 5555 C 537.601 2.37197 -2.728 0
M  V30 5556 O 537.322 1.7932 -3.9972 0
M  V30 5557 C 538.823 3.2823 -2.9796 0
M  V30 5558 H 536.043 0.380369 -0.552775 0
M  V30 5559 H 538.587 0.574379 -1.96268 0
M  V30 5560 H 536.742 3.01208 -2.43623 0
M  V30 5561 H 537.156 2.52701 -4.59611 0
M  V30 5562 H 538.63 4.02725 -3.77513 0
M  V30 5563 H 539.107 3.86462 -2.08671 0
M  V30 5564 H 539.713 2.69964 -3.28633 0
M  V30 5565 N 538.028 1.39524 0.732853 0
M  V30 5566 C 539.268 1.383 1.50508 0
M  V30 5567 C 539.632 -0.0208271 1.91989 0
M  V30 5568 O 540.833 -0.158091 2.68335 0
M  V30 5569 C 539.104 2.33007 2.71003 0
M  V30 5570 S 540.663 2.49989 3.60626 0
M  V30 5571 H 537.481 0.490417 0.514794 0
M  V30 5572 H 540.083 1.75641 0.858524 0
M  V30 5573 H 538.787 3.33862 2.38672 0
M  V30 5574 H 538.318 1.96889 3.40585 0
M  V30 5575 H 540.333 1.7394 4.64714 0
M  V30 5576 N 539.506 -0.963266 1.24736 0
M  V30 5577 C 540.436 -2.07628 1.06832 0
M  V30 5578 C 541.417 -1.70088 -0.0200566 0
M  V30 5579 O 542.602 -1.93636 0.147854 0
M  V30 5580 C 539.732 -3.40636 0.677069 0
M  V30 5581 C 538.686 -3.9215 1.71471 0
M  V30 5582 C 538.012 -5.21553 1.1784 0
M  V30 5583 C 539.312 -4.19493 3.11164 0
M  V30 5584 H 541.006 -2.22864 1.9993 0
M  V30 5585 H 538.552 -1.07093 0.96266 0
M  V30 5586 H 540.505 -4.17941 0.538792 0
M  V30 5587 H 539.229 -3.25313 -0.289612 0
M  V30 5588 H 537.888 -3.17005 1.84128 0
M  V30 5589 H 537.536 -5.02593 0.202195 0
M  V30 5590 H 537.236 -5.56988 1.87185 0
M  V30 5591 H 538.76 -6.01463 1.05233 0
M  V30 5592 H 540.174 -4.87487 3.01711 0
M  V30 5593 H 538.571 -4.66165 3.77902 0
M  V30 5594 H 539.641 -3.26097 3.58871 0
M  V30 5595 N 540.985 -1.06182 -1.16461 0
M  V30 5596 C 542.231 -0.779015 -1.87241 0
M  V30 5597 C 542.564 0.692715 -1.81425 0
M  V30 5598 O 541.839 1.5074 -1.22913 0
M  V30 5599 C 542.122 -1.2728 -3.36856 0
M  V30 5600 C 541.975 -2.80821 -3.51368 0
M  V30 5601 C 543.294 -0.879799 -4.31216 0
M  V30 5602 H 540.413 -0.284464 -0.679889 0
M  V30 5603 H 543.055 -1.31755 -1.36896 0
M  V30 5604 H 541.205 -0.814673 -3.79862 0
M  V30 5605 H 542.877 -3.34833 -3.17308 0
M  V30 5606 H 541.12 -3.19606 -2.93316 0
M  V30 5607 H 541.791 -3.10435 -4.56436 0
M  V30 5608 H 544.267 -1.27436 -3.96105 0
M  V30 5609 H 543.143 -1.25278 -5.34412 0
M  V30 5610 H 543.404 0.215372 -4.41575 0
M  V30 5611 N 542.463 1.3308 -0.844243 0
M  V30 5612 C 543.41 2.29104 -0.279323 0
M  V30 5613 C 544.38 1.54577 0.607882 0
M  V30 5614 O 545.565 1.8285 0.545009 0
M  V30 5615 C 542.705 3.40927 0.53508 0
M  V30 5616 C 541.818 4.30354 -0.376749 0
M  V30 5617 C 540.953 5.29297 0.449276 0
M  V30 5618 C 539.992 6.10365 -0.460606 0
M  V30 5619 N 539.129 7.01335 0.327612 0
M  V30 5620 H 543.969 2.76817 -1.10346 0
M  V30 5621 H 541.506 1.36203 -0.555611 0
M  V30 5622 H 543.464 4.04469 1.02278 0
M  V30 5623 H 542.094 2.94391 1.32414 0
M  V30 5624 H 541.146 3.67485 -0.982791 0
M  V30 5625 H 542.458 4.87067 -1.07549 0
M  V30 5626 H 541.612 5.98392 1.00058 0
M  V30 5627 H 540.351 4.73174 1.18143 0
M  V30 5628 H 539.356 5.40182 -1.02388 0
M  V30 5629 H 540.581 6.68571 -1.1912 0
M  V30 5630 H 538.527 6.47655 1.04305 0
M  V30 5631 H 538.444 7.55355 -0.3123 0
M  V30 5632 H 539.712 7.74731 0.86098 0
M  V30 5633 N 543.941 0.601185 1.45683 0
M  V30 5634 C 545.189 0.0936957 2.01883 0
M  V30 5635 C 545.51 -1.2779 1.47291 0
M  V30 5636 O 544.78 -1.84279 0.664691 0
M  V30 5637 H 543.36 0.0316466 0.746329 0
M  V30 5638 H 546.022 0.781137 1.78562 0
M  V30 5639 H 545.118 0.0386297 3.12076 0
M  V30 5640 N 545.419 -1.53889 0.339982 0
M  V30 5641 C 546.666 -2.00855 -0.257621 0
M  V30 5642 C 546.994 -1.22788 -1.50842 0
M  V30 5643 O 546.249 -0.302567 -1.93347 0
M  V30 5644 C 546.548 -3.51968 -0.620735 0
M  V30 5645 C 546.214 -4.47741 0.532771 0
M  V30 5646 C 544.876 -4.73645 0.849339 0
M  V30 5647 C 547.228 -5.04551 1.3068 0
M  V30 5648 C 544.556 -5.53614 1.94237 0
M  V30 5649 C 546.908 -5.85713 2.39005 0
M  V30 5650 C 545.572 -6.09912 2.71225 0
M  V30 5651 H 544.842 -0.734979 -0.0942703 0
M  V30 5652 H 547.489 -1.85714 0.467159 0
M  V30 5653 H 545.794 -3.64921 -1.42618 0
M  V30 5654 H 547.491 -3.85762 -1.09495 0
M  V30 5655 H 544.081 -4.27711 0.275973 0
M  V30 5656 H 548.265 -4.84507 1.07549 0
M  V30 5657 H 543.521 -5.7059 2.19628 0
M  V30 5658 H 547.695 -6.28748 2.99415 0
M  V30 5659 H 545.322 -6.71665 3.56047 0
M  V30 5660 N 546.897 -0.0685191 -1.57451 0
M  V30 5661 C 548.127 0.609577 -1.97402 0
M  V30 5662 C 548.535 1.63882 -0.945489 0
M  V30 5663 O 547.878 1.8354 0.0766052 0
M  V30 5664 C 547.94 1.3385 -3.33653 0
M  V30 5665 C 547.604 0.463103 -4.54648 0
M  V30 5666 C 548.601 -0.277964 -5.19156 0
M  V30 5667 C 546.286 0.388941 -5.00792 0
M  V30 5668 C 548.28 -1.08145 -6.28159 0
M  V30 5669 C 545.967 -0.418217 -6.09667 0
M  V30 5670 C 546.965 -1.15208 -6.73213 0
M  V30 5671 O 546.653 -1.94594 -7.79993 0
M  V30 5672 H 546.385 0.170197 -0.654224 0
M  V30 5673 H 548.939 -0.13647 -2.04946 0
M  V30 5674 H 547.169 2.13055 -3.22714 0
M  V30 5675 H 548.858 1.90851 -3.58233 0
M  V30 5676 H 549.624 -0.230241 -4.84453 0
M  V30 5677 H 545.503 0.949769 -4.5111 0
M  V30 5678 H 549.047 -1.65476 -6.7769 0
M  V30 5679 H 544.944 -0.467515 -6.43805 0
M  V30 5680 H 545.712 -1.8699 -7.96854 0
M  V30 5681 N 548.375 1.56261 0.205012 0
M  V30 5682 C 549.786 1.70056 0.770574 0
M  V30 5683 C 550.137 0.673398 1.84282 0
M  V30 5684 O 549.262 -0.172196 2.15714 0
M  V30 5685 C 549.857 3.08316 1.40451 0
M  V30 5686 C 548.416 3.2391 1.91727 0
M  V30 5687 C 547.563 2.66001 0.783516 0
M  V30 5688 H 550.514 1.58688 -0.019911 0
M  V30 5689 H 550.535 3.05094 2.27371 0
M  V30 5690 H 550.047 3.83053 0.623882 0
M  V30 5691 H 548.148 2.54072 2.7254 0
M  V30 5692 H 548.261 4.3131 2.08588 0
M  V30 5693 H 546.625 2.24915 1.19521 0
M  V30 5694 H 547.408 3.43297 0.0152883 0
M  V30 5695 N 549.853 -0.472356 1.50355 0
M  V30 5696 C 551.078 -1.25251 1.65309 0
M  V30 5697 C 551.503 -1.85081 0.335643 0
M  V30 5698 O 550.861 -1.67227 -0.700335 0
M  V30 5699 C 550.909 -2.3379 2.74544 0
M  V30 5700 O 550.013 -3.38401 2.35709 0
M  V30 5701 H 549.354 -0.368539 0.552336 0
M  V30 5702 H 551.884 -0.562271 1.96722 0
M  V30 5703 H 551.894 -2.79121 2.97583 0
M  V30 5704 H 550.569 -1.89614 3.70161 0
M  V30 5705 H 549.146 -2.9879 2.23112 0
M  V30 5706 N 551.331 -1.39911 -0.725443 0
M  V30 5707 C 552.608 -1.28158 -1.47766 0
M  V30 5708 C 552.988 0.104545 -2.10841 0
M  V30 5709 O 552.336 1.11657 -1.99361 0
M  V30 5710 C 552.546 -2.41306 -2.52135 0
M  V30 5711 C 553.894 -2.81076 -3.18247 0
M  V30 5712 O 554.918 -2.40827 -2.62452 0
M  V30 5713 O 553.777 -3.50581 -4.19231 0
M  V30 5714 H 550.871 -0.502761 -0.656628 0
M  V30 5715 H 553.417 -1.51808 -0.758456 0
M  V30 5716 H 552.189 -3.33932 -2.03974 0
M  V30 5717 H 551.812 -2.19374 -3.31603 0
M  V30 5718 N 552.809 0.956637 -1.25245 0
M  V30 5719 C 554.058 1.69537 -1.0927 0
M  V30 5720 C 554.371 1.92136 0.366503 0
M  V30 5721 O 555.577 2.63687 0.64665 0
M  V30 5722 C 554.033 3.05211 -1.9072 0
M  V30 5723 C 553.641 2.90416 -3.41119 0
M  V30 5724 C 555.385 3.82882 -1.83308 0
M  V30 5725 C 553.292 4.21468 -4.14872 0
M  V30 5726 H 552.222 0.635804 -0.405302 0
M  V30 5727 H 554.873 1.06513 -1.49423 0
M  V30 5728 H 553.255 3.69128 -1.43389 0
M  V30 5729 H 554.429 2.35444 -3.9611 0
M  V30 5730 H 552.744 2.26203 -3.49602 0
M  V30 5731 H 555.341 4.79944 -2.35706 0
M  V30 5732 H 555.684 4.0853 -0.800572 0
M  V30 5733 H 556.217 3.25711 -2.28379 0
M  V30 5734 H 552.956 4.01009 -5.18529 0
M  V30 5735 H 552.476 4.76213 -3.64665 0
M  V30 5736 H 554.155 4.90022 -4.22478 0
M  V30 5737 N 554.287 1.06798 1.15896 0
M  V30 5738 C 555.25 0.687328 2.18651 0
M  V30 5739 C 556.25 -0.269559 1.58524 0
M  V30 5740 O 557.44 -0.0512627 1.74125 0
M  V30 5741 C 554.572 0.0121642 3.40898 0
M  V30 5742 H 555.765 1.59701 2.53842 0
M  V30 5743 H 553.318 0.863828 1.3026 0
M  V30 5744 H 554.053 -0.910025 3.1127 0
M  V30 5745 H 553.838 0.700309 3.85795 0
M  V30 5746 H 555.328 -0.239703 4.16911 0
M  V30 5747 N 555.766 -1.3263 0.851289 0
M  V30 5748 C 557.012 -1.9766 0.453694 0
M  V30 5749 C 557.345 -1.67225 -0.987396 0
M  V30 5750 O 556.62 -0.958693 -1.69232 0
M  V30 5751 C 556.903 -3.5344 0.68936 0
M  V30 5752 C 556.756 -3.93517 2.17862 0
M  V30 5753 C 558.075 -4.39866 0.143555 0
M  V30 5754 H 555.194 -0.717989 0.166314 0
M  V30 5755 H 557.836 -1.57068 1.06909 0
M  V30 5756 H 555.986 -3.88147 0.165546 0
M  V30 5757 H 557.658 -3.69006 2.76826 0
M  V30 5758 H 555.901 -3.42798 2.65841 0
M  V30 5759 H 556.572 -5.02065 2.29422 0
M  V30 5760 H 559.048 -4.11875 0.591451 0
M  V30 5761 H 557.924 -5.47858 0.338043 0
M  V30 5762 H 558.185 -4.31696 -0.953466 0
M  V30 5763 N 557.244 -0.608902 -1.45362 0
M  V30 5764 C 558.154 0.110969 -2.34337 0
M  V30 5765 C 559.17 0.859007 -1.51318 0
M  V30 5766 O 560.346 0.816296 -1.84116 0
M  V30 5767 C 557.411 1.09494 -3.28956 0
M  V30 5768 C 556.472 0.348718 -4.27881 0
M  V30 5769 C 555.705 1.28582 -5.17979 0
M  V30 5770 O 555.928 2.52369 -5.11533 0
M  V30 5771 O 554.862 0.782172 -5.96796 0
M  V30 5772 H 558.688 -0.620258 -2.97299 0
M  V30 5773 H 556.273 -0.36916 -1.44767 0
M  V30 5774 H 558.155 1.66163 -3.87257 0
M  V30 5775 H 556.83 1.80717 -2.68557 0
M  V30 5776 H 555.737 -0.260465 -3.73192 0
M  V30 5777 H 557.07 -0.323049 -4.91139 0
M  V30 5778 N 558.722 1.53707 -0.348139 0
M  V30 5779 C 559.968 2.01979 0.239986 0
M  V30 5780 C 560.323 1.23141 1.47831 0
M  V30 5781 O 559.616 0.311936 1.89044 0
M  V30 5782 C 559.81 3.52292 0.602061 0
M  V30 5783 C 559.639 4.45684 -0.599625 0
M  V30 5784 C 558.409 4.9304 -1.10635 0
M  V30 5785 C 560.607 4.93156 -1.4595 0
M  V30 5786 N 558.589 5.70394 -2.26988 0
M  V30 5787 C 559.96 5.6868 -2.46988 0
M  V30 5788 C 562.015 4.75257 -1.48441 0
M  V30 5789 C 560.718 6.28208 -3.50353 0
M  V30 5790 C 562.744 5.35639 -2.50689 0
M  V30 5791 C 562.106 6.11034 -3.50453 0
M  V30 5792 H 558.205 0.780335 0.0509992 0
M  V30 5793 H 560.789 1.88466 -0.488742 0
M  V30 5794 H 558.96 3.66002 1.29989 0
M  V30 5795 H 560.692 3.87304 1.17377 0
M  V30 5796 H 557.447 4.68784 -0.67371 0
M  V30 5797 H 557.871 6.13741 -2.85747 0
M  V30 5798 H 562.513 4.16508 -0.726707 0
M  V30 5799 H 560.231 6.86064 -4.27015 0
M  V30 5800 H 563.817 5.23693 -2.53449 0
M  V30 5801 H 562.697 6.56925 -4.28275 0
M  V30 5802 N 560.2 0.0768682 1.57412 0
M  V30 5803 C 561.11 -0.903207 2.16516 0
M  V30 5804 C 562.126 -1.32341 1.12968 0
M  V30 5805 O 563.302 -1.39507 1.45258 0
M  V30 5806 C 560.367 -2.1508 2.71922 0
M  V30 5807 C 559.428 -1.78653 3.90361 0
M  V30 5808 C 558.661 -2.97465 4.43114 0
M  V30 5809 O 558.884 -4.11638 3.94854 0
M  V30 5810 O 557.818 -2.76987 5.3438 0
M  V30 5811 H 561.644 -0.430427 3.00634 0
M  V30 5812 H 559.229 -0.146485 1.4868 0
M  V30 5813 H 561.111 -2.8823 3.07411 0
M  V30 5814 H 559.786 -2.61446 1.9086 0
M  V30 5815 H 558.693 -1.0274 3.59716 0
M  V30 5816 H 560.026 -1.37066 4.7273 0
M  V30 5817 N 561.678 -1.56367 -0.196722 0
M  V30 5818 C 562.903 -1.84991 -0.937714 0
M  V30 5819 C 563.328 -0.660244 -1.76132 0
M  V30 5820 O 562.686 0.390967 -1.77034 0
M  V30 5821 C 562.734 -3.11828 -1.81096 0
M  V30 5822 O 561.838 -2.92266 -2.90955 0
M  V30 5823 H 561.179 -0.609193 -0.264159 0
M  V30 5824 H 563.709 -2.03595 -0.202529 0
M  V30 5825 H 563.719 -3.42579 -2.21594 0
M  V30 5826 H 562.394 -3.98037 -1.2058 0
M  V30 5827 H 560.971 -2.72809 -2.54224 0
M  V30 5828 N 563.156 0.464375 -1.50603 0
M  V30 5829 C 564.104 1.58224 -1.70493 0
M  V30 5830 C 565.098 1.59492 -0.570836 0
M  V30 5831 O 566.304 1.63561 -0.751517 0
M  V30 5832 H 562.679 0.525161 -0.538247 0
M  V30 5833 H 564.65 1.38613 -2.64252 0
M  V30 5834 C 563.399 2.96113 -1.82243 0
M  V30 5835 H 562.722 2.95858 -2.68901 0
M  V30 5836 H 564.162 3.73769 -2.00182 0
M  V30 5837 C 562.621 3.31946 -0.575628 0
M  V30 5838 O 563.151 4.00708 0.282152 0
M  V30 5839 N 561.357 2.87436 -0.427665 0
M  V30 5840 H 560.904 2.31652 -1.12674 0
M  V30 5841 H 560.862 3.11776 0.405379 0
M  V30 5842 N 564.634 1.40294 0.718013 0
M  V30 5843 C 565.882 1.38167 1.47494 0
M  V30 5844 C 566.203 -0.01607 1.94993 0
M  V30 5845 O 565.473 -0.970396 1.70177 0
M  V30 5846 H 564.053 0.508505 0.547203 0
M  V30 5847 H 566.715 1.75324 0.851322 0
M  V30 5848 H 565.811 2.05503 2.34894 0
M  V30 5849 N 566.112 -0.949982 1.2575 0
M  V30 5850 C 567.044 -2.05088 1.02331 0
M  V30 5851 C 568.057 -1.62795 -0.0133247 0
M  V30 5852 O 569.246 -1.77067 0.225759 0
M  V30 5853 C 566.346 -3.34794 0.525924 0
M  V30 5854 C 565.519 -4.05903 1.62978 0
M  V30 5855 C 564.578 -5.1388 1.13196 0
M  V30 5856 O 563.604 -5.39072 1.82729 0
M  V30 5857 N 564.806 -5.80495 -0.0242926 0
M  V30 5858 H 567.571 -2.25747 1.97125 0
M  V30 5859 H 565.132 -1.11886 1.17018 0
M  V30 5860 H 567.124 -4.04312 0.177263 0
M  V30 5861 H 565.694 -3.10872 -0.328202 0
M  V30 5862 H 564.914 -3.3042 2.1498 0
M  V30 5863 H 566.202 -4.50166 2.37124 0
M  V30 5864 H 565.6 -5.62454 -0.605184 0
M  V30 5865 H 564.157 -6.51043 -0.313947 0
M  V30 5866 N 567.59 -1.07411 -1.15328 0
M  V30 5867 C 569.001 -0.820261 -1.67716 0
M  V30 5868 C 569.352 0.654539 -1.8496 0
M  V30 5869 O 568.477 1.50664 -1.55337 0
M  V30 5870 C 569.072 -1.48242 -3.04647 0
M  V30 5871 C 567.631 -1.27606 -3.5411 0
M  V30 5872 C 566.778 -1.5517 -2.29821 0
M  V30 5873 H 569.729 -1.23608 -0.995332 0
M  V30 5874 H 569.75 -0.903984 -3.69606 0
M  V30 5875 H 569.262 -2.55578 -2.92064 0
M  V30 5876 H 567.363 -0.222948 -3.71932 0
M  V30 5877 H 567.476 -1.99667 -4.35511 0
M  V30 5878 H 565.84 -0.972747 -2.35393 0
M  V30 5879 H 566.623 -2.63689 -2.19824 0
M  V30 5880 N 569.068 1.32177 -0.85831 0
M  V30 5881 C 569.978 2.32561 -0.308606 0
M  V30 5882 C 570.994 1.64209 0.575462 0
M  V30 5883 O 572.17 1.95719 0.474961 0
M  V30 5884 C 569.235 3.43207 0.490909 0
M  V30 5885 C 568.296 4.27243 -0.419733 0
M  V30 5886 C 567.529 5.32605 0.341719 0
M  V30 5887 O 567.752 5.48332 1.57125 0
M  V30 5888 O 566.686 6.0118 -0.294379 0
M  V30 5889 H 570.512 2.81477 -1.14037 0
M  V30 5890 H 568.097 1.35866 -0.621349 0
M  V30 5891 H 569.979 4.10677 0.944574 0
M  V30 5892 H 568.654 2.96474 1.29941 0
M  V30 5893 H 567.561 3.62569 -0.921652 0
M  V30 5894 H 568.894 4.7751 -1.19352 0
M  V30 5895 N 570.547 0.616602 1.45037 0
M  V30 5896 C 571.495 -0.109318 2.32343 0
M  V30 5897 C 572.489 -0.850543 1.465 0
M  V30 5898 O 573.695 -0.765088 1.62931 0
M  V30 5899 H 570.07 -0.0541091 0.750051 0
M  V30 5900 H 572.041 0.645326 2.91338 0
M  V30 5901 C 570.79 -1.0872 3.30266 0
M  V30 5902 H 570.113 -0.526267 3.96321 0
M  V30 5903 H 571.553 -1.56489 3.94065 0
M  V30 5904 C 570.012 -2.16525 2.58105 0
M  V30 5905 O 570.542 -3.244 2.36913 0
M  V30 5906 N 568.748 -1.92057 2.18088 0
M  V30 5907 H 568.295 -1.04337 2.35524 0
M  V30 5908 H 568.253 -2.64391 1.70131 0
M  V30 5909 N 572.025 -1.5352 0.356285 0
M  V30 5910 C 572.973 -2.26945 -0.50978 0
M  V30 5911 C 573.967 -1.29569 -1.09125 0
M  V30 5912 O 575.173 -1.47231 -1.03552 0
M  V30 5913 H 571.548 -0.729368 -0.183102 0
M  V30 5914 H 573.519 -2.98111 0.131374 0
M  V30 5915 C 572.268 -3.06466 -1.64237 0
M  V30 5916 H 571.591 -3.81233 -1.20423 0
M  V30 5917 H 573.031 -3.61035 -2.22327 0
M  V30 5918 C 571.49 -2.16737 -2.57928 0
M  V30 5919 O 572.02 -1.77195 -3.60507 0
M  V30 5920 N 570.226 -1.81558 -2.26903 0
M  V30 5921 H 569.773 -2.13913 -1.43524 0
M  V30 5922 H 569.731 -1.21806 -2.89846 0
M  V30 5923 N 573.503 -0.0852151 -1.57369 0
M  V30 5924 C 574.733 0.588605 -1.98038 0
M  V30 5925 C 575.141 1.62869 -0.962817 0
M  V30 5926 O 574.484 1.83611 0.057134 0
M  V30 5927 C 574.546 1.30303 -3.35054 0
M  V30 5928 C 574.21 0.414855 -4.55113 0
M  V30 5929 C 575.207 -0.333011 -5.18832 0
M  V30 5930 C 572.892 0.335804 -5.01176 0
M  V30 5931 C 574.886 -1.14801 -6.26976 0
M  V30 5932 C 572.573 -0.482857 -6.09189 0
M  V30 5933 C 573.571 -1.22342 -6.71953 0
M  V30 5934 O 573.259 -2.02855 -7.77885 0
M  V30 5935 H 572.991 0.163249 -0.655992 0
M  V30 5936 H 575.545 -0.1582 -2.0479 0
M  V30 5937 H 573.775 2.0962 -3.24956 0
M  V30 5938 H 575.464 1.87041 -3.60237 0
M  V30 5939 H 576.23 -0.281611 -4.84182 0
M  V30 5940 H 572.109 0.901869 -4.52092 0
M  V30 5941 H 575.653 -1.72654 -6.75897 0
M  V30 5942 H 571.55 -0.535773 -6.43273 0
M  V30 5943 H 572.318 -1.95432 -7.94826 0
M  V30 5944 N 574.981 1.5647 0.188427 0
M  V30 5945 C 575.928 1.95073 1.23349 0
M  V30 5946 C 576.898 0.812238 1.44886 0
M  V30 5947 O 578.083 1.07095 1.57909 0
M  V30 5948 C 575.223 2.30124 2.57171 0
M  V30 5949 C 574.336 3.57069 2.43157 0
M  V30 5950 C 573.471 3.81411 3.69729 0
M  V30 5951 C 572.51 5.0176 3.50575 0
M  V30 5952 N 571.647 5.22321 4.69175 0
M  V30 5953 H 576.487 2.84171 0.89728 0
M  V30 5954 H 574.024 1.40623 0.431683 0
M  V30 5955 H 575.982 2.48463 3.35145 0
M  V30 5956 H 574.612 1.44159 2.88822 0
M  V30 5957 H 573.664 3.4674 1.56447 0
M  V30 5958 H 574.976 4.452 2.24942 0
M  V30 5959 H 574.13 4.00026 4.56141 0
M  V30 5960 H 572.869 2.91624 3.90905 0
M  V30 5961 H 571.874 4.83061 2.62549 0
M  V30 5962 H 573.099 5.93063 3.30837 0
M  V30 5963 H 571.045 4.35483 4.90602 0
M  V30 5964 H 570.962 6.04643 4.53809 0
M  V30 5965 H 572.23 5.45401 5.56919 0
M  V30 5966 N 576.459 -0.456382 1.50847 0
M  V30 5967 C 577.687 -1.23026 1.66349 0
M  V30 5968 C 578.102 -1.85473 0.352868 0
M  V30 5969 O 577.459 -1.69885 -0.666739 0
M  V30 5970 C 577.51 -2.32827 2.76539 0
M  V30 5971 O 577.231 -1.72938 4.02522 0
M  V30 5972 C 578.732 -3.23448 3.03144 0
M  V30 5973 H 575.952 -0.371527 0.558756 0
M  V30 5974 H 578.496 -0.543082 1.97157 0
M  V30 5975 H 576.651 -2.97294 2.48384 0
M  V30 5976 H 577.065 -2.45357 4.63573 0
M  V30 5977 H 578.539 -3.96669 3.83872 0
M  V30 5978 H 579.016 -3.83094 2.14793 0
M  V30 5979 H 579.622 -2.64702 3.32886 0
M  V30 5980 N 577.937 -1.40673 -0.710563 0
M  V30 5981 C 579.165 -1.42547 -1.4996 0
M  V30 5982 C 579.58 -0.0265485 -1.88781 0
M  V30 5983 O 578.937 0.950694 -1.55782 0
M  V30 5984 C 578.988 -2.32071 -2.77173 0
M  V30 5985 O 578.709 -3.66518 -2.39992 0
M  V30 5986 C 580.21 -2.42591 -3.71032 0
M  V30 5987 H 577.43 -0.486025 -0.462623 0
M  V30 5988 H 579.974 -1.84783 -0.876102 0
M  V30 5989 H 578.129 -1.93184 -3.35795 0
M  V30 5990 H 578.543 -4.14115 -3.21884 0
M  V30 5991 H 580.017 -3.09429 -4.57119 0
M  V30 5992 H 580.494 -1.4525 -4.14486 0
M  V30 5993 H 581.1 -2.82051 -3.18319 0
M  V30 5994 N 579.415 0.9433 -1.26252 0
M  V30 5995 C 580.826 1.50404 -1.10614 0
M  V30 5996 C 581.177 1.93666 0.31429 0
M  V30 5997 O 580.302 1.79709 1.20555 0
M  V30 5998 C 580.897 2.73336 -2.00182 0
M  V30 5999 C 579.456 3.25686 -1.88695 0
M  V30 6000 C 578.603 1.98474 -1.93658 0
M  V30 6001 H 581.554 0.759006 -1.39373 0
M  V30 6002 H 581.575 3.47567 -1.54847 0
M  V30 6003 H 581.087 2.41818 -3.03555 0
M  V30 6004 H 579.188 3.61998 -0.882489 0
M  V30 6005 H 579.301 3.92935 -2.74115 0
M  V30 6006 H 577.665 2.14278 -1.37684 0
M  V30 6007 H 578.448 1.6929 -2.98657 0
M  V30 6008 N 580.893 1.08022 1.14757 0
M  V30 6009 C 582.304 0.829144 1.67279 0
M  V30 6010 C 582.655 -0.644721 1.85305 0
M  V30 6011 O 581.78 -1.49838 1.56133 0
M  V30 6012 C 582.375 1.49855 3.03857 0
M  V30 6013 C 580.934 1.29482 3.53428 0
M  V30 6014 C 580.081 1.56386 2.28995 0
M  V30 6015 H 583.032 1.24134 0.988762 0
M  V30 6016 H 583.053 0.923572 3.69121 0
M  V30 6017 H 582.565 2.57123 2.90705 0
M  V30 6018 H 580.666 0.242669 3.71809 0
M  V30 6019 H 580.779 2.01974 4.34446 0
M  V30 6020 H 579.143 0.985217 2.34874 0
M  V30 6021 H 579.926 2.64851 2.18423 0
M  V30 6022 N 582.371 -1.3172 0.865308 0
M  V30 6023 C 583.304 -2.26687 0.262376 0
M  V30 6024 C 584.282 -1.50894 -0.605787 0
M  V30 6025 O 585.466 -1.79982 -0.56024 0
M  V30 6026 C 582.593 -3.3281 -0.628915 0
M  V30 6027 C 581.639 -4.26172 0.167278 0
M  V30 6028 S 582.472 -5.12797 1.54272 0
M  V30 6029 C 583.628 -6.22438 0.657427 0
M  V30 6030 H 583.861 -2.77478 1.0674 0
M  V30 6031 H 581.394 -1.39414 0.663555 0
M  V30 6032 H 583.352 -3.94426 -1.13747 0
M  V30 6033 H 582.013 -2.80782 -1.40785 0
M  V30 6034 H 581.206 -5.01392 -0.51203 0
M  V30 6035 H 580.808 -3.69029 0.607777 0
M  V30 6036 H 583.1 -6.77368 -0.133925 0
M  V30 6037 H 584.043 -6.9451 1.38061 0
M  V30 6038 H 584.451 -5.64043 0.227044 0
M  V30 6039 N 583.85 -0.624285 -1.44708 0
M  V30 6040 C 584.779 0.0717025 -2.3339 0
M  V30 6041 C 585.76 0.841814 -1.47809 0
M  V30 6042 O 586.946 0.809056 -1.76544 0
M  V30 6043 C 584.076 1.05852 -3.30776 0
M  V30 6044 C 583.029 0.400503 -4.26122 0
M  V30 6045 C 582.356 1.49674 -5.13324 0
M  V30 6046 C 583.656 -0.688924 -5.17737 0
M  V30 6047 H 585.35 -0.668819 -2.91834 0
M  V30 6048 H 582.896 -0.32308 -1.40329 0
M  V30 6049 H 584.849 1.5541 -3.91696 0
M  V30 6050 H 583.572 1.82984 -2.70526 0
M  V30 6051 H 582.231 -0.0743687 -3.66525 0
M  V30 6052 H 581.88 2.25877 -4.49431 0
M  V30 6053 H 581.58 1.06188 -5.77926 0
M  V30 6054 H 583.104 1.99427 -5.77115 0
M  V30 6055 H 584.518 -0.276724 -5.72632 0
M  V30 6056 H 582.915 -1.04652 -5.90904 0
M  V30 6057 H 583.985 -1.55884 -4.5916 0
M  V30 6058 N 585.328 1.53329 -0.364422 0
M  V30 6059 C 586.605 1.93557 0.281962 0
M  V30 6060 C 586.985 1.29786 1.6649 0
M  V30 6061 O 586.333 0.456512 2.23893 0
M  V30 6062 C 586.543 3.47405 0.333331 0
M  V30 6063 C 587.891 4.20699 0.574231 0
M  V30 6064 O 588.915 3.53779 0.414588 0
M  V30 6065 O 587.774 5.39287 0.885002 0
M  V30 6066 H 584.868 0.809573 0.168881 0
M  V30 6067 H 587.414 1.64494 -0.417121 0
M  V30 6068 H 586.186 3.86091 -0.636326 0
M  V30 6069 H 585.809 3.82697 1.07836 0
M  V30 6070 N 586.806 0.0935595 1.57322 0
M  V30 6071 C 588.031 -0.582324 1.99057 0
M  V30 6072 C 588.456 -1.61025 0.972242 0
M  V30 6073 O 587.814 -1.81202 -0.0594622 0
M  V30 6074 C 587.862 -1.20799 3.39765 0
M  V30 6075 O 586.966 -2.32382 3.40694 0
M  V30 6076 H 586.307 -0.147884 0.647323 0
M  V30 6077 H 588.837 0.174516 2.03854 0
M  V30 6078 H 588.847 -1.54966 3.77425 0
M  V30 6079 H 587.522 -0.454914 4.13405 0
M  V30 6080 H 586.099 -1.99845 3.14827 0
M  V30 6081 N 588.284 -1.56567 -0.180126 0
M  V30 6082 C 589.561 -1.7235 -0.924931 0
M  V30 6083 C 589.941 -0.652523 -2.00762 0
M  V30 6084 O 589.289 0.334115 -2.26044 0
M  V30 6085 C 589.499 -3.1523 -1.49771 0
M  V30 6086 C 590.847 -3.75921 -1.97405 0
M  V30 6087 O 591.871 -3.18452 -1.59583 0
M  V30 6088 O 590.73 -4.7681 -2.67048 0
M  V30 6089 H 587.824 -0.703502 -0.434758 0
M  V30 6090 H 590.37 -1.6886 -0.168647 0
M  V30 6091 H 589.142 -3.84656 -0.718027 0
M  V30 6092 H 588.765 -3.23009 -2.31842 0
M  V30 6093 N 589.762 0.448376 -1.51087 0
M  V30 6094 C 591.01 1.19635 -1.62886 0
M  V30 6095 C 591.331 1.91977 -0.342024 0
M  V30 6096 O 590.601 1.85094 0.641636 0
M  V30 6097 H 589.181 0.444598 -0.600285 0
M  V30 6098 H 591.843 0.515138 -1.87969 0
M  V30 6099 H 590.939 1.93194 -2.45117 0
M  V30 6100 N 591.24 1.41047 0.703093 0
M  V30 6101 C 592.465 1.43537 1.49706 0
M  V30 6102 C 592.89 0.0401853 1.88057 0
M  V30 6103 O 592.248 -0.954785 1.54122 0
M  V30 6104 C 592.296 2.3433 2.74084 0
M  V30 6105 O 591.4 1.79515 3.71279 0
M  V30 6106 H 590.741 0.487454 0.450871 0
M  V30 6107 H 593.271 1.85422 0.86486 0
M  V30 6108 H 593.281 2.49947 3.22476 0
M  V30 6109 H 591.956 3.35708 2.45506 0
M  V30 6110 H 590.533 1.7331 3.30179 0
M  V30 6111 N 592.718 -0.936591 1.26751 0
M  V30 6112 C 593.965 -1.68331 1.12566 0
M  V30 6113 C 594.293 -1.91677 -0.330168 0
M  V30 6114 O 593.548 -1.49859 -1.2586 0
M  V30 6115 C 593.847 -3.06099 1.84494 0
M  V30 6116 C 593.513 -3.02493 3.34378 0
M  V30 6117 C 592.175 -3.01217 3.75262 0
M  V30 6118 C 594.527 -2.94453 4.30055 0
M  V30 6119 C 591.855 -2.89672 5.10203 0
M  V30 6120 C 594.207 -2.84449 5.65041 0
M  V30 6121 C 592.871 -2.81518 6.0523 0
M  V30 6122 H 592.141 -0.615965 0.411907 0
M  V30 6123 H 594.788 -1.09292 1.5725 0
M  V30 6124 H 593.093 -3.6879 1.32292 0
M  V30 6125 H 594.79 -3.62733 1.70955 0
M  V30 6126 H 591.38 -3.04269 3.01858 0
M  V30 6127 H 595.564 -2.94544 3.99447 0
M  V30 6128 H 590.82 -2.85783 5.40498 0
M  V30 6129 H 594.994 -2.77192 6.38856 0
M  V30 6130 H 592.621 -2.72329 7.09747 0
M  V30 6131 N 594.196 -1.08629 -1.14182 0
M  V30 6132 C 595.443 -0.817345 -1.85272 0
M  V30 6133 C 595.771 0.656917 -1.83071 0
M  V30 6134 O 595.026 1.49897 -1.25815 0
M  V30 6135 C 595.325 -1.28734 -3.3341 0
M  V30 6136 C 594.991 -2.76981 -3.55798 0
M  V30 6137 C 593.653 -3.17469 -3.61617 0
M  V30 6138 C 596.005 -3.72605 -3.64438 0
M  V30 6139 C 593.333 -4.52371 -3.736 0
M  V30 6140 C 595.685 -5.07286 -3.77947 0
M  V30 6141 C 594.349 -5.47376 -3.82016 0
M  V30 6142 H 593.619 -0.299088 -0.677958 0
M  V30 6143 H 596.266 -1.35962 -1.34857 0
M  V30 6144 H 594.571 -0.664702 -3.8612 0
M  V30 6145 H 596.268 -1.05598 -3.86846 0
M  V30 6146 H 592.858 -2.44644 -3.51919 0
M  V30 6147 H 597.042 -3.42443 -3.5923 0
M  V30 6148 H 592.298 -4.82882 -3.75013 0
M  V30 6149 H 596.472 -5.81243 -3.83575 0
M  V30 6150 H 594.099 -6.51906 -3.91054 0
M  V30 6151 N 595.674 1.31259 -0.872281 0
M  V30 6152 C 596.604 2.30929 -0.345554 0
M  V30 6153 C 597.585 1.60449 0.5648 0
M  V30 6154 O 598.77 1.8814 0.481335 0
M  V30 6155 C 595.9 3.44348 0.451823 0
M  V30 6156 C 594.854 4.26435 -0.365641 0
M  V30 6157 C 594.18 5.31785 0.557562 0
M  V30 6158 C 595.48 4.97159 -1.60095 0
M  V30 6159 H 597.174 2.75234 -1.17841 0
M  V30 6160 H 594.72 1.3232 -0.568094 0
M  V30 6161 H 596.673 4.13128 0.830854 0
M  V30 6162 H 595.397 2.98816 1.31821 0
M  V30 6163 H 594.056 3.59326 -0.726649 0
M  V30 6164 H 593.704 4.82502 1.4213 0
M  V30 6165 H 593.404 5.87598 0.0144878 0
M  V30 6166 H 594.928 6.03424 0.933387 0
M  V30 6167 H 596.342 5.58523 -1.29323 0
M  V30 6168 H 594.739 5.62779 -2.08327 0
M  V30 6169 H 595.809 4.24012 -2.35249 0
M  V30 6170 N 597.152 0.631951 1.44375 0
M  V30 6171 C 598.382 0.143658 2.061 0
M  V30 6172 C 598.79 -1.18733 1.47306 0
M  V30 6173 O 598.133 -1.73943 0.590724 0
M  V30 6174 C 598.195 -0.0446102 3.59472 0
M  V30 6175 C 597.859 1.20835 4.40736 0
M  V30 6176 C 598.856 2.13224 4.74164 0
M  V30 6177 C 596.541 1.44399 4.81097 0
M  V30 6178 C 598.535 3.27487 5.46838 0
M  V30 6179 C 596.222 2.58959 5.53519 0
M  V30 6180 C 597.22 3.50329 5.86309 0
M  V30 6181 O 596.908 4.62891 6.57257 0
M  V30 6182 H 596.64 0.0772939 0.671567 0
M  V30 6183 H 599.194 0.866677 1.8622 0
M  V30 6184 H 597.424 -0.822783 3.77845 0
M  V30 6185 H 599.113 -0.487561 4.02961 0
M  V30 6186 H 599.879 1.96253 4.4352 0
M  V30 6187 H 595.758 0.741696 4.54994 0
M  V30 6188 H 599.302 3.98826 5.72349 0
M  V30 6189 H 595.199 2.75873 5.83579 0
M  V30 6190 H 595.967 4.61883 6.75726 0
M  V30 6191 N 598.631 -1.53133 0.372548 0
M  V30 6192 C 599.856 -2.0625 -0.218098 0
M  V30 6193 C 600.281 -1.24375 -1.41111 0
M  V30 6194 O 599.639 -0.264554 -1.79359 0
M  V30 6195 C 599.687 -3.55858 -0.582876 0
M  V30 6196 O 598.791 -3.76667 -1.67917 0
M  V30 6197 H 598.132 -0.663317 -0.030104 0
M  V30 6198 H 600.662 -1.97477 0.535169 0
M  V30 6199 H 600.672 -3.99007 -0.851925 0
M  V30 6200 H 599.347 -4.14892 0.289428 0
M  V30 6201 H 597.924 -3.45413 -1.40513 0
M  V30 6202 N 600.109 -0.101901 -1.5727 0
M  V30 6203 C 601.056 0.854577 -2.14396 0
M  V30 6204 C 602.026 1.27521 -1.06432 0
M  V30 6205 O 603.211 1.35575 -1.34253 0
M  V30 6206 C 600.351 2.10576 -2.73408 0
M  V30 6207 C 599.464 1.73504 -3.95626 0
M  V30 6208 C 598.599 2.9346 -4.42781 0
M  V30 6209 C 597.638 2.52547 -5.57572 0
M  V30 6210 N 596.775 3.65359 -5.99547 0
M  V30 6211 H 601.615 0.360578 -2.9581 0
M  V30 6212 H 599.152 0.166303 -1.46157 0
M  V30 6213 H 601.11 2.83859 -3.05745 0
M  V30 6214 H 599.74 2.57463 -1.94711 0
M  V30 6215 H 598.792 0.901622 -3.6956 0
M  V30 6216 H 600.104 1.39426 -4.78917 0
M  V30 6217 H 599.258 3.74988 -4.76937 0
M  V30 6218 H 597.997 3.30753 -3.58404 0
M  V30 6219 H 597.002 1.69446 -5.23037 0
M  V30 6220 H 598.227 2.1639 -6.43702 0
M  V30 6221 H 596.173 4.02358 -5.18116 0
M  V30 6222 H 596.09 3.35148 -6.77652 0
M  V30 6223 H 597.358 4.47378 -6.38336 0
M  V30 6224 N 601.587 1.56661 0.17182 0
M  V30 6225 C 602.517 1.99401 1.21498 0
M  V30 6226 C 603.498 0.869516 1.46197 0
M  V30 6227 O 604.683 1.13556 1.57539 0
M  V30 6228 C 601.813 2.35346 2.55401 0
M  V30 6229 C 600.767 3.5075 2.45272 0
M  V30 6230 C 600.093 3.72437 3.8366 0
M  V30 6231 C 601.393 4.84216 1.95787 0
M  V30 6232 H 603.087 2.86792 0.859699 0
M  V30 6233 H 600.633 1.37977 0.412103 0
M  V30 6234 H 602.586 2.63843 3.2858 0
M  V30 6235 H 601.31 1.44864 2.92715 0
M  V30 6236 H 599.969 3.2238 1.74547 0
M  V30 6237 H 599.617 2.79246 4.18367 0
M  V30 6238 H 599.317 4.50087 3.77751 0
M  V30 6239 H 600.841 4.03334 4.58426 0
M  V30 6240 H 602.255 5.11592 2.5874 0
M  V30 6241 H 600.652 5.65498 2.00827 0
M  V30 6242 H 601.722 4.76243 0.912159 0
M  V30 6243 N 603.065 -0.440357 1.51323 0
M  V30 6244 C 604.293 -1.21255 1.67645 0
M  V30 6245 C 604.708 -1.85088 0.37252 0
M  V30 6246 O 604.065 -1.70582 -0.648683 0
M  V30 6247 C 604.116 -2.29881 2.78993 0
M  V30 6248 O 603.837 -1.68659 4.04334 0
M  V30 6249 C 605.338 -3.20214 3.06558 0
M  V30 6250 H 602.558 -0.36558 0.562666 0
M  V30 6251 H 605.102 -0.52214 1.97722 0
M  V30 6252 H 603.257 -2.94643 2.51524 0
M  V30 6253 H 603.671 -2.40426 4.6615 0
M  V30 6254 H 605.145 -3.92575 3.88058 0
M  V30 6255 H 605.622 -3.80794 2.18844 0
M  V30 6256 H 606.228 -2.61156 3.35675 0
M  V30 6257 N 604.543 -1.41418 -0.695603 0
M  V30 6258 C 605.789 -1.40982 -1.4578 0
M  V30 6259 C 606.122 -0.0187763 -1.94191 0
M  V30 6260 O 605.397 0.95346 -1.69527 0
M  V30 6261 C 605.68 -2.41657 -2.66972 0
M  V30 6262 C 605.533 -3.89869 -2.24327 0
M  V30 6263 C 606.852 -2.39589 -3.69168 0
M  V30 6264 H 603.971 -0.513405 -0.528757 0
M  V30 6265 H 606.613 -1.72693 -0.792275 0
M  V30 6266 H 604.763 -2.14746 -3.23754 0
M  V30 6267 H 606.435 -4.27683 -1.72872 0
M  V30 6268 H 604.678 -4.04737 -1.56111 0
M  V30 6269 H 605.349 -4.55857 -3.11285 0
M  V30 6270 H 607.825 -2.63471 -3.2206 0
M  V30 6271 H 606.701 -3.12044 -4.51575 0
M  V30 6272 H 606.962 -1.41447 -4.18862 0
M  V30 6273 N 606.021 0.929856 -1.27246 0
M  V30 6274 C 607.298 1.65544 -1.04186 0
M  V30 6275 C 607.678 2.06796 0.424097 0
M  V30 6276 O 607.026 1.80053 1.40688 0
M  V30 6277 C 607.236 2.85912 -2.00138 0
M  V30 6278 C 608.584 3.57305 -2.29387 0
M  V30 6279 O 609.608 2.96036 -1.98094 0
M  V30 6280 O 608.467 4.67688 -2.82719 0
M  V30 6281 H 605.561 0.725473 -0.397011 0
M  V30 6282 H 608.107 0.980583 -1.38501 0
M  V30 6283 H 606.879 2.52403 -2.99013 0
M  V30 6284 H 606.502 3.61118 -1.66371 0
M  V30 6285 N 607.499 1.09233 1.13605 0
M  V30 6286 C 608.446 0.729921 2.18954 0
M  V30 6287 C 609.416 -0.287916 1.63586 0
M  V30 6288 O 610.601 -0.170003 1.90041 0
M  V30 6289 C 607.741 0.154489 3.44754 0
M  V30 6290 C 606.854 1.22613 4.14234 0
M  V30 6291 C 605.989 0.613657 5.27644 0
M  V30 6292 C 605.028 1.66674 5.8897 0
M  V30 6293 N 604.165 1.07545 6.93814 0
M  V30 6294 H 609.005 1.63257 2.49302 0
M  V30 6295 H 606.542 0.815693 1.22413 0
M  V30 6296 H 608.5 -0.196923 4.16735 0
M  V30 6297 H 607.13 -0.711433 3.14863 0
M  V30 6298 H 606.182 1.69485 3.40557 0
M  V30 6299 H 607.494 2.0238 4.55899 0
M  V30 6300 H 606.648 0.210976 6.06333 0
M  V30 6301 H 605.387 -0.215584 4.87223 0
M  V30 6302 H 604.392 2.07899 5.08978 0
M  V30 6303 H 605.617 2.49861 6.31464 0
M  V30 6304 H 603.563 0.267451 6.55455 0
M  V30 6305 H 603.48 1.81011 7.3401 0
M  V30 6306 H 604.748 0.698906 7.7636 0
M  V30 6307 N 608.977 -1.30795 0.87923 0
M  V30 6308 C 610.202 -2.01063 0.508769 0
M  V30 6309 C 610.627 -1.65508 -0.893803 0
M  V30 6310 O 609.985 -0.868616 -1.59138 0
M  V30 6311 C 610.033 -3.54054 0.683991 0
M  V30 6312 O 609.137 -4.11498 -0.272654 0
M  V30 6313 H 608.478 -0.632786 0.201191 0
M  V30 6314 H 611.008 -1.66776 1.18519 0
M  V30 6315 H 611.018 -4.03845 0.580798 0
M  V30 6316 H 609.693 -3.79271 1.70665 0
M  V30 6317 H 608.27 -3.72695 -0.12364 0
M  V30 6318 N 610.455 -0.639598 -1.44038 0
M  V30 6319 C 611.871 -0.305953 -1.5664 0
M  V30 6320 C 612.071 1.19055 -1.62567 0
M  V30 6321 O 611.127 1.97492 -1.57331 0
M  V30 6322 C 612.44 -1.00533 -2.83397 0
M  V30 6323 C 613.988 -0.984278 -2.97121 0
M  V30 6324 C 614.463 -1.66428 -4.26691 0
M  V30 6325 N 615.954 -1.63127 -4.33525 0
M  V30 6326 C 616.689 -2.12629 -5.32519 0
M  V30 6327 N 616.185 -2.70359 -6.3787 0
M  V30 6328 N 617.978 -2.03208 -5.24083 0
M  V30 6329 H 610.129 -1.6109 -1.38434 0
M  V30 6330 H 612.392 -0.676672 -0.663942 0
M  V30 6331 H 612.098 -2.06034 -2.85032 0
M  V30 6332 H 611.972 -0.548362 -3.73193 0
M  V30 6333 H 614.359 0.0622792 -2.95034 0
M  V30 6334 H 614.44 -1.47981 -2.08651 0
M  V30 6335 H 614.084 -2.71034 -4.29538 0
M  V30 6336 H 614.014 -1.14351 -5.14034 0
M  V30 6337 H 616.505 -1.20987 -3.58009 0
M  V30 6338 H 616.818 -3.05842 -7.09704 0
M  V30 6339 H 615.163 -2.74414 -6.38531 0
M  V30 6340 H 618.354 -1.57823 -4.40692 0
M  V30 6341 H 618.527 -2.42097 -6.01077 0
M  V30 6342 N 611.933 1.52934 -0.380664 0
M  V30 6343 C 613.179 2.02443 0.197089 0
M  V30 6344 C 613.534 1.26249 1.45186 0
M  V30 6345 O 612.827 0.351964 1.8834 0
M  V30 6346 C 613.021 3.5349 0.527199 0
M  V30 6347 C 612.85 4.44312 -0.694027 0
M  V30 6348 C 611.62 4.90582 -1.21068 0
M  V30 6349 C 613.818 4.8995 -1.56377 0
M  V30 6350 N 611.8 5.65451 -2.39036 0
M  V30 6351 C 613.171 5.63313 -2.58995 0
M  V30 6352 C 615.226 4.72002 -1.58488 0
M  V30 6353 C 613.929 6.20635 -3.63599 0
M  V30 6354 C 615.955 5.30201 -2.61995 0
M  V30 6355 C 615.317 6.03463 -3.63335 0
M  V30 6356 H 611.416 0.781241 0.0344357 0
M  V30 6357 H 614 1.87387 -0.528609 0
M  V30 6358 H 612.171 3.68677 1.22196 0
M  V30 6359 H 613.903 3.89707 1.09135 0
M  V30 6360 H 610.658 4.67249 -0.772995 0
M  V30 6361 H 611.082 6.07541 -2.98701 0
M  V30 6362 H 615.724 4.14873 -0.814891 0
M  V30 6363 H 613.442 6.76852 -4.41472 0
M  V30 6364 H 617.028 5.182 -2.645 0
M  V30 6365 H 615.908 6.47693 -4.42113 0
M  V30 6366 N 613.412 0.11024 1.57214 0
M  V30 6367 C 614.344 -0.873497 2.11902 0
M  V30 6368 C 615.357 -1.23588 1.05971 0
M  V30 6369 O 616.546 -1.18636 1.33371 0
M  V30 6370 C 613.646 -2.17805 2.59643 0
M  V30 6371 C 612.819 -1.98869 3.89576 0
M  V30 6372 C 611.878 -3.12974 4.23006 0
M  V30 6373 O 610.904 -2.86272 4.91973 0
M  V30 6374 N 612.106 -4.39167 3.79622 0
M  V30 6375 H 614.871 -0.406317 2.96933 0
M  V30 6376 H 612.432 -0.074437 1.61729 0
M  V30 6377 H 614.424 -2.93117 2.79042 0
M  V30 6378 H 612.994 -2.55899 1.7954 0
M  V30 6379 H 612.214 -1.078 3.79174 0
M  V30 6380 H 613.502 -1.83512 4.74553 0
M  V30 6381 H 612.9 -4.63739 3.2398 0
M  V30 6382 H 611.457 -5.11379 4.04147 0
M  V30 6383 N 614.89 -1.56749 -0.16351 0
M  V30 6384 C 615.822 -1.93587 -1.22705 0
M  V30 6385 C 616.835 -0.829824 -1.40063 0
M  V30 6386 O 618.024 -1.10826 -1.39928 0
M  V30 6387 C 615.124 -2.1803 -2.59454 0
M  V30 6388 C 614.297 -3.4928 -2.63292 0
M  V30 6389 C 613.356 -3.62457 -3.8146 0
M  V30 6390 O 612.382 -4.35004 -3.67096 0
M  V30 6391 N 613.584 -2.97888 -4.9824 0
M  V30 6392 H 616.349 -2.8542 -0.914081 0
M  V30 6393 H 613.91 -1.58 -0.353214 0
M  V30 6394 H 615.902 -2.24102 -3.36987 0
M  V30 6395 H 614.472 -1.32543 -2.8311 0
M  V30 6396 H 613.692 -3.54795 -1.71796 0
M  V30 6397 H 614.98 -4.35632 -2.62873 0
M  V30 6398 H 614.378 -2.38833 -5.12811 0
M  V30 6399 H 612.935 -3.09545 -5.73607 0
M  V30 6400 N 616.368 0.432326 -1.51554 0
M  V30 6401 C 617.616 1.17901 -1.64146 0
M  V30 6402 C 617.937 1.91604 -0.362367 0
M  V30 6403 O 617.207 1.85764 0.621968 0
M  V30 6404 H 615.787 0.438206 -0.604966 0
M  V30 6405 H 618.449 0.495172 -1.88505 0
M  V30 6406 H 617.545 1.90584 -2.47152 0
M  V30 6407 N 617.846 1.41785 0.688094 0
M  V30 6408 C 618.794 1.44436 1.82321 0
M  V30 6409 C 619.788 0.321544 1.6632 0
M  V30 6410 O 620.994 0.493931 1.73091 0
M  V30 6411 H 617.369 0.452084 0.600936 0
M  V30 6412 H 619.34 2.40087 1.77202 0
M  V30 6413 C 618.089 1.35071 3.20392 0
M  V30 6414 H 617.412 2.2076 3.33324 0
M  V30 6415 H 618.852 1.40988 3.99873 0
M  V30 6416 C 617.311 0.0639127 3.36839 0
M  V30 6417 O 617.841 -0.888495 3.91751 0
M  V30 6418 N 616.047 -0.0146114 2.90596 0
M  V30 6419 H 615.594 0.761191 2.46097 0
M  V30 6420 H 615.552 -0.874988 3.01979 0
M  V30 6421 N 619.324 -0.923095 1.27737 0
M  V30 6422 C 620.57 -1.67375 1.14514 0
M  V30 6423 C 620.903 -1.91751 -0.307424 0
M  V30 6424 O 620.178 -1.51119 -1.22447 0
M  V30 6425 C 620.461 -3.03745 1.9342 0
M  V30 6426 C 620.314 -2.86581 3.46686 0
M  V30 6427 C 621.633 -4.04144 1.74228 0
M  V30 6428 H 618.752 -0.607427 0.417374 0
M  V30 6429 H 621.394 -1.07089 1.56946 0
M  V30 6430 H 619.544 -3.55204 1.5736 0
M  V30 6431 H 621.216 -2.42203 3.92601 0
M  V30 6432 H 619.459 -2.21829 3.72793 0
M  V30 6433 H 620.13 -3.83381 3.97143 0
M  V30 6434 H 622.606 -3.61712 2.05678 0
M  V30 6435 H 621.482 -4.97543 2.31824 0
M  V30 6436 H 621.743 -4.36661 0.691373 0
M  V30 6437 N 620.802 -1.09834 -1.13024 0
M  V30 6438 C 622.049 -0.83695 -1.84395 0
M  V30 6439 C 622.377 0.637463 -1.83757 0
M  V30 6440 O 621.632 1.48554 -1.27398 0
M  V30 6441 C 621.931 -1.32263 -3.32026 0
M  V30 6442 C 621.597 -2.80739 -3.52841 0
M  V30 6443 C 620.259 -3.21286 -3.5823 0
M  V30 6444 C 622.611 -3.76449 -3.60466 0
M  V30 6445 C 619.939 -4.56308 -3.68781 0
M  V30 6446 C 622.291 -5.11266 -3.72546 0
M  V30 6447 C 620.955 -5.51397 -3.76189 0
M  V30 6448 H 620.225 -0.306262 -0.674748 0
M  V30 6449 H 622.872 -1.37385 -1.33408 0
M  V30 6450 H 621.177 -0.705618 -3.85394 0
M  V30 6451 H 622.874 -1.09695 -3.85705 0
M  V30 6452 H 619.464 -2.48363 -3.49305 0
M  V30 6453 H 623.648 -3.46234 -3.55578 0
M  V30 6454 H 618.904 -4.86832 -3.69871 0
M  V30 6455 H 623.078 -5.85279 -3.77388 0
M  V30 6456 H 620.705 -6.56017 -3.84117 0
M  V30 6457 N 622.28 1.30327 -0.886154 0
M  V30 6458 C 623.505 2.0079 -0.519425 0
M  V30 6459 C 623.93 1.65979 0.885013 0
M  V30 6460 O 623.288 0.877043 1.58675 0
M  V30 6461 C 623.336 3.53686 -0.702758 0
M  V30 6462 O 622.44 4.11637 0.250828 0
M  V30 6463 H 621.781 0.63171 -0.204544 0
M  V30 6464 H 624.311 1.66145 -1.19402 0
M  V30 6465 H 624.321 4.03531 -0.602207 0
M  V30 6466 H 622.996 3.78361 -1.72673 0
M  V30 6467 H 621.573 3.72755 0.103873 0
M  V30 6468 N 623.758 0.647228 1.43697 0
M  V30 6469 C 624.998 0.16171 2.03759 0
M  V30 6470 C 625.362 -1.19951 1.49919 0
M  V30 6471 O 626.563 -1.77808 2.01588 0
M  V30 6472 C 624.834 0.16505 3.57019 0
M  V30 6473 S 626.393 -0.253497 4.38067 0
M  V30 6474 H 623.211 0.0689985 0.707644 0
M  V30 6475 H 625.813 0.854224 1.7585 0
M  V30 6476 H 624.517 1.15858 3.93707 0
M  V30 6477 H 624.048 -0.548194 3.89562 0
M  V30 6478 H 626.063 -1.49385 4.73179 0
M  V30 6479 N 625.236 -1.5273 0.388769 0
M  V30 6480 C 626.461 -2.0647 -0.19621 0
M  V30 6481 C 626.886 -1.25865 -1.39784 0
M  V30 6482 O 626.244 -0.283562 -1.79069 0
M  V30 6483 C 626.292 -3.56456 -0.5451 0
M  V30 6484 O 625.396 -3.78426 -1.63912 0
M  V30 6485 H 624.737 -0.663599 -0.023067 0
M  V30 6486 H 627.267 -1.96898 0.556084 0
M  V30 6487 H 627.277 -3.99888 -0.809557 0
M  V30 6488 H 625.952 -4.14561 0.333417 0
M  V30 6489 H 624.529 -3.46884 -1.36842 0
M  V30 6490 N 626.714 -0.118576 -1.57153 0
M  V30 6491 C 627.96 0.540326 -1.95469 0
M  V30 6492 C 628.293 1.66356 -1.00196 0
M  V30 6493 O 627.568 1.94461 -0.039104 0
M  V30 6494 C 627.851 1.07342 -3.43729 0
M  V30 6495 C 627.704 -0.0463732 -4.49776 0
M  V30 6496 C 629.023 1.96442 -3.93826 0
M  V30 6497 H 626.142 0.19494 -0.710751 0
M  V30 6498 H 628.784 -0.19405 -1.89006 0
M  V30 6499 H 626.934 1.69925 -3.49368 0
M  V30 6500 H 628.606 -0.681648 -4.56236 0
M  V30 6501 H 626.849 -0.709574 -4.27957 0
M  V30 6502 H 627.52 0.367856 -5.50773 0
M  V30 6503 H 629.996 1.43731 -3.90488 0
M  V30 6504 H 628.872 2.3066 -4.98084 0
M  V30 6505 H 629.133 2.89077 -3.34495 0
M  V30 6506 N 628.193 1.56834 0.155195 0
M  V30 6507 C 629.126 1.9278 1.22111 0
M  V30 6508 C 630.104 0.792588 1.41975 0
M  V30 6509 O 631.288 1.04743 1.5672 0
M  V30 6510 C 628.415 2.19273 2.58142 0
M  V30 6511 C 627.461 3.41932 2.54921 0
M  V30 6512 S 628.294 4.95769 2.02418 0
M  V30 6513 C 629.45 5.25375 3.40194 0
M  V30 6514 H 629.683 2.82889 0.914393 0
M  V30 6515 H 627.216 1.50133 0.360461 0
M  V30 6516 H 629.174 2.35217 3.36427 0
M  V30 6517 H 627.835 1.29843 2.86007 0
M  V30 6518 H 627.028 3.57721 3.55038 0
M  V30 6519 H 626.63 3.25188 1.8474 0
M  V30 6520 H 628.922 5.1834 4.36268 0
M  V30 6521 H 629.865 6.26889 3.29266 0
M  V30 6522 H 630.273 4.52906 3.36951 0
M  V30 6523 N 629.671 -0.424282 1.51781 0
M  V30 6524 C 630.621 -1.51464 1.70419 0
M  V30 6525 C 631.605 -1.50911 0.558094 0
M  V30 6526 O 632.797 -1.57143 0.814552 0
M  V30 6527 C 629.926 -2.89539 1.84451 0
M  V30 6528 C 629.012 -2.94798 3.04886 0
M  V30 6529 N 629.403 -2.69778 4.27848 0
M  V30 6530 C 627.701 -3.25962 3.04408 0
M  V30 6531 C 628.402 -2.81216 5.09208 0
M  V30 6532 N 627.378 -3.13447 4.44131 0
M  V30 6533 H 631.18 -1.30892 2.63144 0
M  V30 6534 H 628.694 -0.631783 1.49607 0
M  V30 6535 H 630.691 -3.67998 1.95917 0
M  V30 6536 H 629.351 -3.11121 0.929168 0
M  V30 6537 H 630.362 -2.44458 4.56575 0
M  V30 6538 H 627.039 -3.53236 2.22555 0
M  V30 6539 H 628.429 -2.65715 6.17127 0
M  V30 6540 N 631.149 -1.42148 -0.680565 0
M  V30 6541 C 632.059 -1.47565 -1.82378 0
M  V30 6542 C 633.075 -0.36489 -1.70131 0
M  V30 6543 O 634.251 -0.614916 -1.91783 0
M  V30 6544 C 631.316 -1.37013 -3.18478 0
M  V30 6545 C 630.377 -2.58532 -3.42724 0
M  V30 6546 C 629.61 -2.48473 -4.72331 0
M  V30 6547 O 629.833 -1.51745 -5.49845 0
M  V30 6548 O 628.767 -3.38503 -4.97694 0
M  V30 6549 H 632.593 -2.44045 -1.80764 0
M  V30 6550 H 630.178 -1.23849 -0.835569 0
M  V30 6551 H 632.06 -1.33468 -3.99705 0
M  V30 6552 H 630.735 -0.436552 -3.20743 0
M  V30 6553 H 629.642 -2.67652 -2.61368 0
M  V30 6554 H 630.975 -3.50769 -3.45286 0
M  V30 6555 N 632.627 0.916307 -1.28225 0
M  V30 6556 C 633.59 1.99996 -1.11957 0
M  V30 6557 C 634.59 1.60688 -0.0600152 0
M  V30 6558 O 635.78 1.71499 -0.30558 0
M  V30 6559 C 632.912 3.33458 -0.708411 0
M  V30 6560 H 634.105 2.15858 -2.08196 0
M  V30 6561 H 631.658 1.09863 -1.11175 0
M  V30 6562 H 632.393 3.23297 0.254859 0
M  V30 6563 H 632.178 3.63349 -1.47377 0
M  V30 6564 H 633.668 4.13014 -0.617164 0
M  V30 6565 N 634.105 1.10431 1.1244 0
M  V30 6566 C 635.035 0.775143 2.20258 0
M  V30 6567 C 636.016 -0.25186 1.68225 0
M  V30 6568 O 637.201 -0.117637 1.93843 0
M  V30 6569 C 634.331 0.206133 3.46688 0
M  V30 6570 C 633.285 1.16382 4.11873 0
M  V30 6571 C 632.611 0.456014 5.32752 0
M  V30 6572 C 633.911 2.5104 4.58013 0
M  V30 6573 H 635.605 1.67665 2.4805 0
M  V30 6574 H 633.151 0.807595 1.19222 0
M  V30 6575 H 635.104 -0.036291 4.21384 0
M  V30 6576 H 633.828 -0.730614 3.18323 0
M  V30 6577 H 632.487 1.39169 3.39157 0
M  V30 6578 H 632.135 -0.485203 5.00654 0
M  V30 6579 H 631.835 1.09466 5.77314 0
M  V30 6580 H 633.359 0.222135 6.10196 0
M  V30 6581 H 634.773 2.32401 5.24083 0
M  V30 6582 H 633.17 3.10789 5.13352 0
M  V30 6583 H 634.24 3.11039 3.71998 0
M  V30 6584 N 635.583 -1.29855 0.893053 0
M  V30 6585 C 636.533 -2.25493 0.337211 0
M  V30 6586 C 637.517 -1.51606 -0.53894 0
M  V30 6587 O 638.709 -1.72828 -0.382043 0
M  V30 6588 C 635.838 -3.40467 -0.440117 0
M  V30 6589 C 634.924 -4.217 0.450578 0
M  V30 6590 N 635.315 -4.81312 1.55476 0
M  V30 6591 C 633.613 -4.45315 0.247154 0
M  V30 6592 C 634.314 -5.42241 2.10593 0
M  V30 6593 N 633.29 -5.25267 1.39982 0
M  V30 6594 H 637.092 -2.69137 1.18079 0
M  V30 6595 H 634.606 -1.44388 0.743359 0
M  V30 6596 H 636.603 -4.08038 -0.855021 0
M  V30 6597 H 635.263 -2.98361 -1.28104 0
M  V30 6598 H 636.274 -4.80291 1.93755 0
M  V30 6599 H 632.951 -4.13782 -0.555939 0
M  V30 6600 H 634.341 -5.99517 3.03362 0
M  V30 6601 N 637.061 -0.65484 -1.43351 0
M  V30 6602 C 638.009 0.0476784 -2.32551 0
M  V30 6603 C 639.003 0.811403 -1.48703 0
M  V30 6604 O 640.209 0.721621 -1.64902 0
M  V30 6605 H 636.584 0.0342038 -0.751222 0
M  V30 6606 H 638.555 -0.722342 -2.89525 0
M  V30 6607 C 637.304 0.999251 -3.33032 0
M  V30 6608 H 636.627 0.421005 -3.97577 0
M  V30 6609 H 638.067 1.45986 -3.98076 0
M  V30 6610 C 636.526 2.09606 -2.63756 0
M  V30 6611 O 637.056 3.18004 -2.4543 0
M  V30 6612 N 635.262 1.86207 -2.23103 0
M  V30 6613 H 634.809 0.980555 -2.38208 0
M  V30 6614 H 634.767 2.59787 -1.77081 0
M  V30 6615 N 638.539 1.52521 -0.396863 0
M  V30 6616 C 639.489 2.2348 0.451722 0
M  V30 6617 C 640.473 1.2415 1.0235 0
M  V30 6618 O 641.665 1.4945 0.948348 0
M  V30 6619 C 638.794 3.05067 1.57445 0
M  V30 6620 C 637.88 4.11799 1.01404 0
M  V30 6621 N 638.271 5.05482 0.179234 0
M  V30 6622 C 636.569 4.27064 1.28578 0
M  V30 6623 C 637.27 5.81552 -0.131202 0
M  V30 6624 N 636.246 5.41523 0.474735 0
M  V30 6625 H 640.048 2.93269 -0.192534 0
M  V30 6626 H 637.562 1.61081 -0.206591 0
M  V30 6627 H 639.559 3.54446 2.19485 0
M  V30 6628 H 638.219 2.36816 2.22145 0
M  V30 6629 H 639.23 5.17573 -0.18411 0
M  V30 6630 H 635.907 3.70042 1.93327 0
M  V30 6631 H 637.297 6.67023 -0.808061 0
M  V30 6632 N 640.017 0.126909 1.57088 0
M  V30 6633 C 641.247 -0.535892 1.99529 0
M  V30 6634 C 641.655 -1.60259 1.00566 0
M  V30 6635 O 640.998 -1.83698 -0.00843269 0
M  V30 6636 C 641.06 -1.21374 3.38391 0
M  V30 6637 C 640.724 -0.294044 4.56053 0
M  V30 6638 C 641.721 0.470454 5.17767 0
M  V30 6639 C 639.406 -0.202808 5.0189 0
M  V30 6640 C 641.4 1.31384 6.23712 0
M  V30 6641 C 639.087 0.644203 6.07695 0
M  V30 6642 C 640.085 1.40115 6.68473 0
M  V30 6643 O 639.773 2.23408 7.72233 0
M  V30 6644 H 639.505 -0.145799 0.66009 0
M  V30 6645 H 642.059 0.212441 2.04298 0
M  V30 6646 H 640.289 -2.00931 3.30399 0
M  V30 6647 H 641.978 -1.77424 3.65069 0
M  V30 6648 H 642.744 0.409884 4.83265 0
M  V30 6649 H 638.623 -0.781688 4.54324 0
M  V30 6650 H 642.167 1.90514 6.71081 0
M  V30 6651 H 638.064 0.706137 6.41626 0
M  V30 6652 H 638.832 2.16436 7.89365 0
M  V30 6653 N 641.495 -1.56914 -0.146875 0
M  V30 6654 C 642.723 -1.87515 -0.874394 0
M  V30 6655 C 643.138 -0.715116 -1.74733 0
M  V30 6656 O 642.495 0.315113 -1.79759 0
M  V30 6657 C 642.546 -3.17362 -1.731 0
M  V30 6658 O 642.267 -4.28897 -0.893245 0
M  V30 6659 C 643.768 -3.61479 -2.56609 0
M  V30 6660 H 640.988 -0.621546 -0.252827 0
M  V30 6661 H 643.532 -2.04023 -0.139627 0
M  V30 6662 H 641.687 -3.02608 -2.41883 0
M  V30 6663 H 642.101 -5.03146 -1.48137 0
M  V30 6664 H 643.575 -4.5517 -3.12289 0
M  V30 6665 H 644.052 -2.86773 -3.32653 0
M  V30 6666 H 644.658 -3.78927 -1.93117 0
M  V30 6667 N 642.974 0.416227 -1.52004 0
M  V30 6668 C 643.906 1.52552 -1.71058 0
M  V30 6669 C 644.919 1.51693 -0.59102 0
M  V30 6670 O 646.108 1.56087 -0.865973 0
M  V30 6671 C 643.208 2.91455 -1.72937 0
M  V30 6672 C 642.381 3.16584 -3.01816 0
M  V30 6673 C 641.44 4.35322 -2.95603 0
M  V30 6674 O 640.466 4.32947 -3.6952 0
M  V30 6675 N 641.668 5.40049 -2.12903 0
M  V30 6676 H 644.433 1.36604 -2.66757 0
M  V30 6677 H 641.994 0.60544 -1.50153 0
M  V30 6678 H 643.986 3.68944 -1.66321 0
M  V30 6679 H 642.556 3.00895 -0.847418 0
M  V30 6680 H 641.776 2.27203 -3.22137 0
M  V30 6681 H 643.064 3.30213 -3.87088 0
M  V30 6682 H 642.462 5.44823 -1.52265 0
M  V30 6683 H 641.019 6.16308 -2.1215 0
M  V30 6684 N 644.452 1.42507 0.673017 0
M  V30 6685 C 645.399 1.46124 1.78651 0
M  V30 6686 C 646.369 0.313007 1.63124 0
M  V30 6687 O 647.554 0.517337 1.83653 0
M  V30 6688 C 644.694 1.3711 3.16694 0
M  V30 6689 C 643.807 2.61983 3.43495 0
M  V30 6690 C 642.942 2.45098 4.71275 0
M  V30 6691 C 641.981 3.65336 4.91117 0
M  V30 6692 N 641.118 3.47383 6.10139 0
M  V30 6693 H 645.958 2.4128 1.74895 0
M  V30 6694 H 643.495 1.19788 0.853766 0
M  V30 6695 H 645.453 1.29881 3.96468 0
M  V30 6696 H 644.083 0.45549 3.1957 0
M  V30 6697 H 643.135 2.79571 2.57961 0
M  V30 6698 H 644.447 3.51355 3.5405 0
M  V30 6699 H 643.601 2.35466 5.59143 0
M  V30 6700 H 642.34 1.53219 4.63007 0
M  V30 6701 H 641.345 3.754 4.0169 0
M  V30 6702 H 642.57 4.58199 5.01229 0
M  V30 6703 H 640.516 2.58222 6.0304 0
M  V30 6704 H 640.433 4.30344 6.21563 0
M  V30 6705 H 641.701 3.41565 7.00681 0
M  V30 6706 N 645.93 -0.909495 1.28709 0
M  V30 6707 C 647.155 -1.69801 1.1909 0
M  V30 6708 C 647.58 -1.86479 -0.246388 0
M  V30 6709 O 646.938 -1.37802 -1.17815 0
M  V30 6710 C 646.986 -3.06543 1.89904 0
M  V30 6711 O 646.09 -3.94268 1.2094 0
M  V30 6712 H 645.431 -0.519783 0.413185 0
M  V30 6713 H 647.961 -1.13689 1.70106 0
M  V30 6714 H 647.971 -3.56748 1.97977 0
M  V30 6715 H 646.646 -2.93722 2.94449 0
M  V30 6716 H 645.223 -3.52702 1.2106 0
M  V30 6717 N 647.408 -1.11026 -1.11852 0
M  V30 6718 C 648.338 -0.786812 -2.19844 0
M  V30 6719 C 649.319 0.242935 -1.68356 0
M  V30 6720 O 650.504 0.107355 -1.93903 0
M  V30 6721 C 647.634 -0.224516 -3.46574 0
M  V30 6722 C 646.588 -1.18564 -4.1125 0
M  V30 6723 C 645.914 -0.484261 -5.32503 0
M  V30 6724 C 647.214 -2.53465 -4.56676 0
M  V30 6725 H 648.908 -1.68978 -2.47158 0
M  V30 6726 H 646.454 -0.813906 -1.18792 0
M  V30 6727 H 648.407 0.0139435 -4.21398 0
M  V30 6728 H 647.131 0.713722 -3.18706 0
M  V30 6729 H 645.79 -1.40966 -3.38414 0
M  V30 6730 H 645.438 0.458646 -5.00905 0
M  V30 6731 H 645.138 -1.12526 -5.76725 0
M  V30 6732 H 646.662 -0.254492 -6.10069 0
M  V30 6733 H 648.076 -2.35177 -5.22843 0
M  V30 6734 H 646.473 -3.13507 -5.11697 0
M  V30 6735 H 647.543 -3.13008 -3.70343 0
M  V30 6736 N 648.886 1.2938 -0.899927 0
M  V30 6737 C 650.111 2.00228 -0.540692 0
M  V30 6738 C 650.536 1.66909 0.867359 0
M  V30 6739 O 649.894 0.893824 1.57735 0
M  V30 6740 C 649.942 3.52921 -0.740232 0
M  V30 6741 O 649.046 4.11879 0.207154 0
M  V30 6742 H 648.387 0.629505 -0.211233 0
M  V30 6743 H 650.917 1.6487 -1.21158 0
M  V30 6744 H 650.927 4.0287 -0.644973 0
M  V30 6745 H 649.602 3.76508 -1.76677 0
M  V30 6746 H 648.179 3.72845 0.0643315 0
M  V30 6747 N 650.364 0.662433 1.43002 0
M  V30 6748 C 651.294 -0.00979809 2.33498 0
M  V30 6749 C 652.275 -0.802329 1.49989 0
M  V30 6750 O 653.46 -0.761964 1.78627 0
M  V30 6751 C 650.59 -0.970446 3.33466 0
M  V30 6752 C 649.544 -0.287383 4.27034 0
M  V30 6753 C 648.87 -1.36012 5.17112 0
M  V30 6754 C 650.17 0.82595 5.15728 0
M  V30 6755 H 651.864 0.745959 2.89958 0
M  V30 6756 H 649.41 0.360172 1.39423 0
M  V30 6757 H 651.363 -1.44971 3.95679 0
M  V30 6758 H 650.087 -1.75748 2.75282 0
M  V30 6759 H 648.746 0.17152 3.66199 0
M  V30 6760 H 648.394 -2.13882 4.55262 0
M  V30 6761 H 648.094 -0.908276 5.80538 0
M  V30 6762 H 649.618 -1.84056 5.82199 0
M  V30 6763 H 651.032 0.42845 5.71697 0
M  V30 6764 H 649.429 1.20282 5.87922 0
M  V30 6765 H 650.499 1.68003 4.54866 0
M  V30 6766 N 651.842 -1.52309 0.404946 0
M  V30 6767 C 653.067 -2.06666 -0.1743 0
M  V30 6768 C 653.492 -1.27341 -1.38441 0
M  V30 6769 O 652.85 -0.302539 -1.78758 0
M  V30 6770 C 652.898 -3.57014 -0.507262 0
M  V30 6771 O 652.002 -3.80144 -1.59889 0
M  V30 6772 H 651.343 -0.663807 -0.0160273 0
M  V30 6773 H 653.873 -1.96297 0.576937 0
M  V30 6774 H 653.883 -4.00724 -0.767098 0
M  V30 6775 H 652.558 -4.14184 0.377368 0
M  V30 6776 H 651.135 -3.48316 -1.33155 0
M  V30 6777 N 653.32 -0.135238 -1.57019 0
M  V30 6778 C 654.731 0.387521 -1.82634 0
M  V30 6779 C 655.082 1.65528 -1.05332 0
M  V30 6780 O 654.207 2.14381 -0.294926 0
M  V30 6781 C 654.802 0.709852 -3.3128 0
M  V30 6782 C 653.361 1.17718 -3.57518 0
M  V30 6783 C 652.508 0.194183 -2.76619 0
M  V30 6784 H 655.459 -0.360126 -1.5456 0
M  V30 6785 H 655.48 1.5657 -3.46794 0
M  V30 6786 H 654.992 -0.213024 -3.87515 0
M  V30 6787 H 653.093 2.1164 -3.06658 0
M  V30 6788 H 653.206 1.11128 -4.66034 0
M  V30 6789 H 651.57 0.684478 -2.4533 0
M  V30 6790 H 652.353 -0.722076 -3.3562 0
M  V30 6791 N 654.798 1.5699 0.138552 0
M  V30 6792 C 656.046 1.83446 0.848053 0
M  V30 6793 C 656.367 0.71744 1.81322 0
M  V30 6794 O 655.637 -0.260228 1.94164 0
M  V30 6795 H 654.217 0.676792 0.316166 0
M  V30 6796 H 656.879 1.94462 0.130538 0
M  V30 6797 H 655.975 2.78677 1.40518 0
M  V30 6798 N 656.276 -0.40816 1.52223 0
M  V30 6799 C 657.223 -1.49737 1.75635 0
M  V30 6800 C 658.193 -1.5493 0.598824 0
M  V30 6801 O 659.378 -1.71487 0.83648 0
M  V30 6802 C 656.518 -2.87174 1.91376 0
M  V30 6803 C 655.631 -2.91283 3.19027 0
M  V30 6804 C 654.766 -4.20026 3.25195 0
M  V30 6805 C 653.805 -4.18113 4.47044 0
M  V30 6806 N 652.942 -5.38429 4.50598 0
M  V30 6807 H 657.782 -1.29075 2.68596 0
M  V30 6808 H 655.319 -0.626518 1.33091 0
M  V30 6809 H 657.277 -3.66959 1.98486 0
M  V30 6810 H 655.907 -3.06329 1.01795 0
M  V30 6811 H 654.959 -2.03984 3.21084 0
M  V30 6812 H 656.271 -2.85734 4.08849 0
M  V30 6813 H 655.425 -5.08204 3.31382 0
M  V30 6814 H 654.164 -4.28271 2.33313 0
M  V30 6815 H 653.169 -3.28325 4.41002 0
M  V30 6816 H 654.394 -4.11507 5.40221 0
M  V30 6817 H 652.34 -5.4734 3.616 0
M  V30 6818 H 652.257 -5.34879 5.34266 0
M  V30 6819 H 653.525 -6.28557 4.61016 0
M  V30 6820 O 657.793 -1.51699 -0.554045 0
M  V30 6821 H 658.484 -1.51323 -1.20918 0
M  V30 END ATOM
M  V30 BEGIN BOND
M  V30 END BOND
M  V30 END CTAB
M  END
$$$$
