drugbank_drug|DB05311  Ecallantide Sequence
 OpenBabel12092119133D

938951  0  0  0  0  0  0  0  0999 V2000
   -0.9080    1.9825   -0.1171 H   0  0  0  0  0 15  0  0  0  0  0  0
    0.0000    1.5760    0.0000 N   0  0  0  0  0 15  0  0  0  0  0  0
    0.9100    2.1185    1.0077 C   0  0  0  0  0 15  0  0  0  0  0  0
    1.9260    1.0638    1.3769 C   0  0  0  0  0 15  0  0  0  0  0  0
    3.1020    1.3828    1.4643 O   0  0  0  0  0 15  0  0  0  0  0  0
    0.1670    2.6111    2.2809 C   0  0  0  0  0 15  0  0  0  0  0  0
   -0.7720    3.8118    1.9748 C   0  0  0  0  0 15  0  0  0  0  0  0
   -1.5390    4.2808    3.1872 C   0  0  0  0  0 15  0  0  0  0  0  0
   -1.3160    3.7431    4.3041 O   0  0  0  0  0 15  0  0  0  0  0  0
   -2.3820    5.2023    3.0272 O   0  0  0  0  0 15  0  0  0  0  0  0
    1.4440    2.9818    0.5765 H   0  0  0  0  0 15  0  0  0  0  0  0
   -0.9710    1.4779    0.2188 H   0  0  0  0  0 15  0  0  0  0  0  0
    0.9110    2.9299    3.0288 H   0  0  0  0  0 15  0  0  0  0  0  0
   -0.4140    1.7788    2.7044 H   0  0  0  0  0 15  0  0  0  0  0  0
   -1.5070    3.5428    1.2016 H   0  0  0  0  0 15  0  0  0  0  0  0
   -0.1740    4.6548    1.5996 H   0  0  0  0  0 15  0  0  0  0  0  0
    1.4781   -0.2728    1.5522 N   0  0  0  0  0 15  0  0  0  0  0  0
    2.4411   -1.3204    1.8734 C   0  0  0  0  0 15  0  0  0  0  0  0
    3.4411   -1.4234    0.7480 C   0  0  0  0  0 15  0  0  0  0  0  0
    4.6311   -1.4149    1.0162 O   0  0  0  0  0 15  0  0  0  0  0  0
    1.7631   -2.7017    2.0789 C   0  0  0  0  0 15  0  0  0  0  0  0
    2.9561   -1.0479    2.8100 H   0  0  0  0  0 15  0  0  0  0  0  0
    0.5091   -0.5108    1.4772 H   0  0  0  0  0 15  0  0  0  0  0  0
    1.2441   -3.0260    1.1662 H   0  0  0  0  0 15  0  0  0  0  0  0
    1.0291   -2.6408    2.8983 H   0  0  0  0  0 15  0  0  0  0  0  0
    2.5191   -3.4587    2.3402 H   0  0  0  0  0 15  0  0  0  0  0  0
    2.9562   -1.4816   -0.5373 N   0  0  0  0  0 15  0  0  0  0  0  0
    3.8892   -1.5670   -1.6589 C   0  0  0  0  0 15  0  0  0  0  0  0
    4.8672   -0.4179   -1.5714 C   0  0  0  0  0 15  0  0  0  0  0  0
    6.0512   -0.6285   -1.7771 O   0  0  0  0  0 15  0  0  0  0  0  0
    3.1782   -1.4882   -3.0425 C   0  0  0  0  0 15  0  0  0  0  0  0
    2.2242   -2.6848   -3.3139 C   0  0  0  0  0 15  0  0  0  0  0  0
    3.0572   -4.3052   -3.1846 S   0  0  0  0  0 15  0  0  0  0  0  0
    4.2132   -4.2522   -4.5928 C   0  0  0  0  0 15  0  0  0  0  0  0
    4.4462   -2.5159   -1.5840 H   0  0  0  0  0 15  0  0  0  0  0  0
    1.9792   -1.3660   -0.7197 H   0  0  0  0  0 15  0  0  0  0  0  0
    3.9372   -1.4496   -3.8405 H   0  0  0  0  0 15  0  0  0  0  0  0
    2.5982   -0.5528   -3.0920 H   0  0  0  0  0 15  0  0  0  0  0  0
    1.7912   -2.5909   -4.3231 H   0  0  0  0  0 15  0  0  0  0  0  0
    1.3932   -2.6957   -2.5925 H   0  0  0  0  0 15  0  0  0  0  0  0
    3.6852   -3.9470   -5.5065 H   0  0  0  0  0 15  0  0  0  0  0  0
    4.6282   -5.2629   -4.7373 H   0  0  0  0  0 15  0  0  0  0  0  0
    5.0362   -3.5579   -4.3826 H   0  0  0  0  0 15  0  0  0  0  0  0
    4.4343    0.7856   -1.3662 N   0  0  0  0  0 15  0  0  0  0  0  0
    5.3843    1.8882   -1.2779 C   0  0  0  0  0 15  0  0  0  0  0  0
    6.3683    1.6001   -0.1686 C   0  0  0  0  0 15  0  0  0  0  0  0
    7.5603    1.7238   -0.4017 O   0  0  0  0  0 15  0  0  0  0  0  0
    4.6893    3.2609   -1.0733 C   0  0  0  0  0 15  0  0  0  0  0  0
    3.7753    3.6090   -2.2274 C   0  0  0  0  0 15  0  0  0  0  0  0
    4.1663    3.6698   -3.4808 N   0  0  0  0  0 15  0  0  0  0  0  0
    2.4643    3.9098   -2.1459 C   0  0  0  0  0 15  0  0  0  0  0  0
    3.1653    3.9814   -4.2410 C   0  0  0  0  0 15  0  0  0  0  0  0
    2.1413    4.1332   -3.5308 N   0  0  0  0  0 15  0  0  0  0  0  0
    5.9433    1.9176   -2.2272 H   0  0  0  0  0 15  0  0  0  0  0  0
    3.4573    0.9813   -1.2940 H   0  0  0  0  0 15  0  0  0  0  0  0
    5.4543    4.0495   -0.9908 H   0  0  0  0  0 15  0  0  0  0  0  0
    4.1143    3.2443   -0.1330 H   0  0  0  0  0 15  0  0  0  0  0  0
    5.1253    3.4953   -3.8216 H   0  0  0  0  0 15  0  0  0  0  0  0
    1.8023    3.9722   -1.2854 H   0  0  0  0  0 15  0  0  0  0  0  0
    3.1923    4.0974   -5.3251 H   0  0  0  0  0 15  0  0  0  0  0  0
    5.9124    1.2097    1.0102 N   0  0  0  0  0 15  0  0  0  0  0  0
    7.1374    1.0503    1.7884 C   0  0  0  0  0 15  0  0  0  0  0  0
    7.5624   -0.3958    1.8389 C   0  0  0  0  0 15  0  0  0  0  0  0
    6.9204   -1.2853    1.2787 O   0  0  0  0  0 15  0  0  0  0  0  0
    6.9684    1.6460    3.2084 C   0  0  0  0  0 15  0  0  0  0  0  0
    6.0724    0.8880    4.0273 O   0  0  0  0  0 15  0  0  0  0  0  0
    5.4134    0.3700    0.5514 H   0  0  0  0  0 15  0  0  0  0  0  0
    7.9434    1.6040    1.2702 H   0  0  0  0  0 15  0  0  0  0  0  0
    7.9534    1.6861    3.7153 H   0  0  0  0  0 15  0  0  0  0  0  0
    6.6284    2.6984    3.1648 H   0  0  0  0  0 15  0  0  0  0  0  0
    5.2054    0.9226    3.6131 H   0  0  0  0  0 15  0  0  0  0  0  0
    7.3905   -1.2043    1.0166 N   0  0  0  0  0 15  0  0  0  0  0  0
    8.6375   -1.8980    0.7059 C   0  0  0  0  0 15  0  0  0  0  0  0
    8.9655   -1.7885   -0.7644 C   0  0  0  0  0 15  0  0  0  0  0  0
    8.2205   -1.1669   -1.5710 O   0  0  0  0  0 15  0  0  0  0  0  0
    8.5195   -3.4046    1.0871 C   0  0  0  0  0 15  0  0  0  0  0  0
    8.1855   -3.7161    2.5537 C   0  0  0  0  0 15  0  0  0  0  0  0
    6.8475   -3.7983    2.9544 C   0  0  0  0  0 15  0  0  0  0  0  0
    9.1995   -3.8592    3.5031 C   0  0  0  0  0 15  0  0  0  0  0  0
    6.5275   -3.9980    4.2939 C   0  0  0  0  0 15  0  0  0  0  0  0
    8.8795   -4.0740    4.8395 C   0  0  0  0  0 15  0  0  0  0  0  0
    7.5435   -4.1384    5.2373 C   0  0  0  0  0 15  0  0  0  0  0  0
    6.8135   -0.6945    0.2583 H   0  0  0  0  0 15  0  0  0  0  0  0
    9.4605   -1.4269    1.2772 H   0  0  0  0  0 15  0  0  0  0  0  0
    7.7655   -3.8939    0.4343 H   0  0  0  0  0 15  0  0  0  0  0  0
    9.4625   -3.9243    0.8245 H   0  0  0  0  0 15  0  0  0  0  0  0
    6.0525   -3.6582    2.2332 H   0  0  0  0  0 15  0  0  0  0  0  0
   10.2365   -3.7893    3.2051 H   0  0  0  0  0 15  0  0  0  0  0  0
    5.4925   -4.0302    4.5977 H   0  0  0  0  0 15  0  0  0  0  0  0
    9.6665   -4.1740    5.5745 H   0  0  0  0  0 15  0  0  0  0  0  0
    7.2935   -4.2906    6.2754 H   0  0  0  0  0 15  0  0  0  0  0  0
    8.8686   -0.7928   -1.3621 N   0  0  0  0  0 15  0  0  0  0  0  0
   10.1086   -0.3722   -2.0098 C   0  0  0  0  0 15  0  0  0  0  0  0
   10.4726    1.0375   -1.6156 C   0  0  0  0  0 15  0  0  0  0  0  0
   11.6736    1.5593   -2.1895 O   0  0  0  0  0 15  0  0  0  0  0  0
    9.9446   -0.5346   -3.5338 C   0  0  0  0  0 15  0  0  0  0  0  0
   11.5036   -0.2024   -4.3833 S   0  0  0  0  0 15  0  0  0  0  0  0
    8.3216   -0.1420   -0.6967 H   0  0  0  0  0 15  0  0  0  0  0  0
   10.9236   -1.0321   -1.6604 H   0  0  0  0  0 15  0  0  0  0  0  0
    9.6276   -1.5608   -3.7956 H   0  0  0  0  0 15  0  0  0  0  0  0
    9.1586    0.1411   -3.9315 H   0  0  0  0  0 15  0  0  0  0  0  0
   11.1736    0.9949   -4.8612 H   0  0  0  0  0 15  0  0  0  0  0  0
   10.3467    1.4787   -0.5451 N   0  0  0  0  0 15  0  0  0  0  0  0
   11.3097    2.2834    0.1987 C   0  0  0  0  0 15  0  0  0  0  0  0
   12.3097    1.3625    0.8539 C   0  0  0  0  0 15  0  0  0  0  0  0
   13.4997    1.5900    0.7116 O   0  0  0  0  0 15  0  0  0  0  0  0
   10.6317    3.1558    1.2892 C   0  0  0  0  0 15  0  0  0  0  0  0
   11.8247    2.9557   -0.5079 H   0  0  0  0  0 15  0  0  0  0  0  0
    9.3777    1.5336   -0.3016 H   0  0  0  0  0 15  0  0  0  0  0  0
   10.1127    2.5302    2.0286 H   0  0  0  0  0 15  0  0  0  0  0  0
    9.8977    3.8334    0.8243 H   0  0  0  0  0 15  0  0  0  0  0  0
   11.3877    3.7624    1.8119 H   0  0  0  0  0 15  0  0  0  0  0  0
   11.8248    0.2810    1.5507 N   0  0  0  0  0 15  0  0  0  0  0  0
   13.0718   -0.3341    1.9972 C   0  0  0  0  0 15  0  0  0  0  0  0
   13.3998   -1.5542    1.1694 C   0  0  0  0  0 15  0  0  0  0  0  0
   12.6548   -1.9436    0.2285 O   0  0  0  0  0 15  0  0  0  0  0  0
   12.9538   -0.7547    3.4934 C   0  0  0  0  0 15  0  0  0  0  0  0
   12.6198    0.3614    4.4945 C   0  0  0  0  0 15  0  0  0  0  0  0
   11.2818    0.6679    4.7654 C   0  0  0  0  0 15  0  0  0  0  0  0
   13.6338    1.1132    5.0917 C   0  0  0  0  0 15  0  0  0  0  0  0
   10.9618    1.7296    5.6063 C   0  0  0  0  0 15  0  0  0  0  0  0
   13.3138    2.1647    5.9441 C   0  0  0  0  0 15  0  0  0  0  0  0
   11.9778    2.4774    6.1982 C   0  0  0  0  0 15  0  0  0  0  0  0
   11.2478   -0.1223    0.7308 H   0  0  0  0  0 15  0  0  0  0  0  0
   13.8948    0.3959    1.8736 H   0  0  0  0  0 15  0  0  0  0  0  0
   12.1998   -1.5645    3.5921 H   0  0  0  0  0 15  0  0  0  0  0  0
   13.8968   -1.2414    3.8130 H   0  0  0  0  0 15  0  0  0  0  0  0
   10.4868    0.1125    4.2845 H   0  0  0  0  0 15  0  0  0  0  0  0
   14.6708    0.8897    4.8826 H   0  0  0  0  0 15  0  0  0  0  0  0
    9.9268    1.9768    5.7856 H   0  0  0  0  0 15  0  0  0  0  0  0
   14.1008    2.7519    6.3972 H   0  0  0  0  0 15  0  0  0  0  0  0
   11.7278    3.3015    6.8477 H   0  0  0  0  0 15  0  0  0  0  0  0
   13.3029   -1.5760    0.0084 N   0  0  0  0  0 15  0  0  0  0  0  0
   14.2499   -2.0894   -0.9803 C   0  0  0  0  0 15  0  0  0  0  0  0
   15.2199   -0.9867   -1.3361 C   0  0  0  0  0 15  0  0  0  0  0  0
   16.4049   -1.2597   -1.4331 O   0  0  0  0  0 15  0  0  0  0  0  0
   13.5449   -2.6042   -2.2644 C   0  0  0  0  0 15  0  0  0  0  0  0
   12.6579   -3.8463   -1.9668 C   0  0  0  0  0 15  0  0  0  0  0  0
   11.7929   -4.2458   -3.1923 C   0  0  0  0  0 15  0  0  0  0  0  0
   10.8319   -5.4160   -2.8520 C   0  0  0  0  0 15  0  0  0  0  0  0
    9.9689   -5.7680   -4.0031 N   0  0  0  0  0 15  0  0  0  0  0  0
   14.8089   -2.9315   -0.5356 H   0  0  0  0  0 15  0  0  0  0  0  0
   12.3459   -1.4491   -0.2528 H   0  0  0  0  0 15  0  0  0  0  0  0
   14.3039   -2.8835   -3.0151 H   0  0  0  0  0 15  0  0  0  0  0  0
   12.9339   -1.7908   -2.6857 H   0  0  0  0  0 15  0  0  0  0  0  0
   11.9859   -3.6356   -1.1194 H   0  0  0  0  0 15  0  0  0  0  0  0
   13.2979   -4.6980   -1.6761 H   0  0  0  0  0 15  0  0  0  0  0  0
   12.4519   -4.5383   -4.0264 H   0  0  0  0  0 15  0  0  0  0  0  0
   11.1909   -3.3814   -3.5145 H   0  0  0  0  0 15  0  0  0  0  0  0
   10.1959   -5.1206   -2.0020 H   0  0  0  0  0 15  0  0  0  0  0  0
   11.4209   -6.2972   -2.5422 H   0  0  0  0  0 15  0  0  0  0  0  0
    9.3669   -4.9332   -4.3241 H   0  0  0  0  0 15  0  0  0  0  0  0
    9.2839   -6.5656   -3.7479 H   0  0  0  0  0 15  0  0  0  0  0  0
   10.5519   -6.1065   -4.8448 H   0  0  0  0  0 15  0  0  0  0  0  0
   14.7810    0.2645   -1.5536 N   0  0  0  0  0 15  0  0  0  0  0  0
   15.7440    1.3105   -1.8804 C   0  0  0  0  0 15  0  0  0  0  0  0
   16.7440    1.4194   -0.7556 C   0  0  0  0  0 15  0  0  0  0  0  0
   17.9340    1.4095   -1.0237 O   0  0  0  0  0 15  0  0  0  0  0  0
   15.0660    2.6907   -2.0932 C   0  0  0  0  0 15  0  0  0  0  0  0
   16.2590    1.0330   -2.8155 H   0  0  0  0  0 15  0  0  0  0  0  0
   13.8120    0.5030   -1.4799 H   0  0  0  0  0 15  0  0  0  0  0  0
   14.5470    3.0198   -1.1823 H   0  0  0  0  0 15  0  0  0  0  0  0
   14.3320    2.6254   -2.9123 H   0  0  0  0  0 15  0  0  0  0  0  0
   15.8220    3.4462   -2.3585 H   0  0  0  0  0 15  0  0  0  0  0  0
   16.2591    1.4844    0.5294 N   0  0  0  0  0 15  0  0  0  0  0  0
   17.5361    1.4698    1.2906 C   0  0  0  0  0 15  0  0  0  0  0  0
   17.9161    0.1818    2.1032 C   0  0  0  0  0 15  0  0  0  0  0  0
   17.2641   -0.8365    2.1264 O   0  0  0  0  0 15  0  0  0  0  0  0
   17.4741    2.7321    2.1716 C   0  0  0  0  0 15  0  0  0  0  0  0
   18.8221    3.2156    2.7728 C   0  0  0  0  0 15  0  0  0  0  0  0
   19.8461    2.7413    2.2744 O   0  0  0  0  0 15  0  0  0  0  0  0
   18.7051    4.0409    3.6793 O   0  0  0  0  0 15  0  0  0  0  0  0
   15.7991    0.5870    0.5825 H   0  0  0  0  0 15  0  0  0  0  0  0
   18.3451    1.6068    0.5460 H   0  0  0  0  0 15  0  0  0  0  0  0
   17.1171    3.5847    1.5690 H   0  0  0  0  0 15  0  0  0  0  0  0
   16.7401    2.6223    2.9886 H   0  0  0  0  0 15  0  0  0  0  0  0
   17.7372   -0.7783    1.3704 N   0  0  0  0  0 15  0  0  0  0  0  0
   19.0142   -1.5255    1.2242 C   0  0  0  0  0 15  0  0  0  0  0  0
   19.3942   -2.1029   -0.1850 C   0  0  0  0  0 15  0  0  0  0  0  0
   18.7422   -1.9495   -1.1919 O   0  0  0  0  0 15  0  0  0  0  0  0
   18.9522   -2.6116    2.3150 C   0  0  0  0  0 15  0  0  0  0  0  0
   20.3002   -3.2875    2.6872 C   0  0  0  0  0 15  0  0  0  0  0  0
   21.3242   -2.7145    2.3063 O   0  0  0  0  0 15  0  0  0  0  0  0
   20.1832   -4.3231    3.3432 O   0  0  0  0  0 15  0  0  0  0  0  0
   17.2772   -0.6753    0.4773 H   0  0  0  0  0 15  0  0  0  0  0  0
   19.8232   -0.8159    1.4880 H   0  0  0  0  0 15  0  0  0  0  0  0
   18.5952   -2.1657    3.2590 H   0  0  0  0  0 15  0  0  0  0  0  0
   18.2182   -3.3974    2.0655 H   0  0  0  0  0 15  0  0  0  0  0  0
   19.2153   -1.2150   -1.0038 N   0  0  0  0  0 15  0  0  0  0  0  0
   20.4633   -1.0310   -1.7383 C   0  0  0  0  0 15  0  0  0  0  0  0
   20.7843    0.4363   -1.9006 C   0  0  0  0  0 15  0  0  0  0  0  0
   20.0543    1.3147   -1.4524 O   0  0  0  0  0 15  0  0  0  0  0  0
   18.6343   -0.3785   -0.6440 H   0  0  0  0  0 15  0  0  0  0  0  0
   21.2963   -1.5283   -1.2095 H   0  0  0  0  0 15  0  0  0  0  0  0
   20.3923   -1.4999   -2.7370 H   0  0  0  0  0 15  0  0  0  0  0  0
   20.6934    1.1989   -1.0230 N   0  0  0  0  0 15  0  0  0  0  0  0
   22.1044    1.7112   -0.7466 C   0  0  0  0  0 15  0  0  0  0  0  0
   22.4554    1.8194    0.7343 C   0  0  0  0  0 15  0  0  0  0  0  0
   21.5804    1.4864    1.5727 O   0  0  0  0  0 15  0  0  0  0  0  0
   22.1754    3.1080   -1.3486 C   0  0  0  0  0 15  0  0  0  0  0  0
   20.7344    3.5932   -1.1209 C   0  0  0  0  0 15  0  0  0  0  0  0
   19.8814    2.3635   -1.4503 C   0  0  0  0  0 15  0  0  0  0  0  0
   22.8324    1.0481   -1.1916 H   0  0  0  0  0 15  0  0  0  0  0  0
   22.8534    3.7319   -0.7424 H   0  0  0  0  0 15  0  0  0  0  0  0
   22.3654    3.0290   -2.4264 H   0  0  0  0  0 15  0  0  0  0  0  0
   20.4664    3.7255   -0.0610 H   0  0  0  0  0 15  0  0  0  0  0  0
   20.5794    4.4378   -1.8054 H   0  0  0  0  0 15  0  0  0  0  0  0
   18.9434    2.3940   -0.8695 H   0  0  0  0  0 15  0  0  0  0  0  0
   19.7264    2.3108   -2.5388 H   0  0  0  0  0 15  0  0  0  0  0  0
   22.1715    0.8000    1.3578 N   0  0  0  0  0 15  0  0  0  0  0  0
   23.4115    0.3829    2.0078 C   0  0  0  0  0 15  0  0  0  0  0  0
   23.7755   -1.0289    1.6210 C   0  0  0  0  0 15  0  0  0  0  0  0
   24.9765   -1.5477    2.1977 O   0  0  0  0  0 15  0  0  0  0  0  0
   23.2475    0.5533    3.5309 C   0  0  0  0  0 15  0  0  0  0  0  0
   24.8065    0.2256    4.3822 S   0  0  0  0  0 15  0  0  0  0  0  0
   21.6245    0.1457    0.6959 H   0  0  0  0  0 15  0  0  0  0  0  0
   24.2265    1.0408    1.6549 H   0  0  0  0  0 15  0  0  0  0  0  0
   22.9305    1.5809    3.7873 H   0  0  0  0  0 15  0  0  0  0  0  0
   22.4615   -0.1202    3.9322 H   0  0  0  0  0 15  0  0  0  0  0  0
   24.4765   -0.9691    4.8665 H   0  0  0  0  0 15  0  0  0  0  0  0
   23.6496   -1.4758    0.5530 N   0  0  0  0  0 15  0  0  0  0  0  0
   25.0656   -1.5818    0.2124 C   0  0  0  0  0 15  0  0  0  0  0  0
   25.2656   -1.5521   -1.2850 C   0  0  0  0  0 15  0  0  0  0  0  0
   24.3216   -1.4533   -2.0648 O   0  0  0  0  0 15  0  0  0  0  0  0
   25.6346   -2.8886    0.8353 C   0  0  0  0  0 15  0  0  0  0  0  0
   27.1826   -3.0244    0.8062 C   0  0  0  0  0 15  0  0  0  0  0  0
   27.6576   -4.3582    1.4080 C   0  0  0  0  0 15  0  0  0  0  0  0
   29.1486   -4.4244    1.3710 N   0  0  0  0  0 15  0  0  0  0  0  0
   29.8836   -5.4420    1.8064 C   0  0  0  0  0 15  0  0  0  0  0  0
   29.3796   -6.5279    2.3202 N   0  0  0  0  0 15  0  0  0  0  0  0
   31.1726   -5.3522    1.7174 N   0  0  0  0  0 15  0  0  0  0  0  0
   23.3236   -1.4775    1.5259 H   0  0  0  0  0 15  0  0  0  0  0  0
   25.5866   -0.7029    0.6361 H   0  0  0  0  0 15  0  0  0  0  0  0
   25.2926   -2.9676    1.8875 H   0  0  0  0  0 15  0  0  0  0  0  0
   25.1666   -3.7579    0.3258 H   0  0  0  0  0 15  0  0  0  0  0  0
   27.5536   -2.9414   -0.2373 H   0  0  0  0  0 15  0  0  0  0  0  0
   27.6346   -2.1707    1.3533 H   0  0  0  0  0 15  0  0  0  0  0  0
   27.2786   -4.4487    2.4506 H   0  0  0  0  0 15  0  0  0  0  0  0
   27.2086   -5.1992    0.8363 H   0  0  0  0  0 15  0  0  0  0  0  0
   29.6996   -3.6456    0.9952 H   0  0  0  0  0 15  0  0  0  0  0  0
   30.0126   -7.2661    2.6317 H   0  0  0  0  0 15  0  0  0  0  0  0
   28.3576   -6.5370    2.3602 H   0  0  0  0  0 15  0  0  0  0  0  0
   31.5486   -4.4928    1.3138 H   0  0  0  0  0 15  0  0  0  0  0  0
   31.7216   -6.1439    2.0599 H   0  0  0  0  0 15  0  0  0  0  0  0
   25.1277   -0.2892   -1.5492 N   0  0  0  0  0 15  0  0  0  0  0  0
   26.0907    0.5791   -2.2176 C   0  0  0  0  0 15  0  0  0  0  0  0
   27.0907    1.0705   -1.1999 C   0  0  0  0  0 15  0  0  0  0  0  0
   28.2807    0.9684   -1.4480 O   0  0  0  0  0 15  0  0  0  0  0  0
   25.4127    1.8005   -2.8947 C   0  0  0  0  0 15  0  0  0  0  0  0
   26.6057   -0.0046   -2.9990 H   0  0  0  0  0 15  0  0  0  0  0  0
   24.1587   -0.0399   -1.5625 H   0  0  0  0  0 15  0  0  0  0  0  0
   24.8937    2.4245   -2.1538 H   0  0  0  0  0 15  0  0  0  0  0  0
   24.6787    1.4560   -3.6406 H   0  0  0  0  0 15  0  0  0  0  0  0
   26.1687    2.4177   -3.4049 H   0  0  0  0  0 15  0  0  0  0  0  0
   26.6058    1.5759   -0.0167 N   0  0  0  0  0 15  0  0  0  0  0  0
   27.5688    2.0839    0.9542 C   0  0  0  0  0 15  0  0  0  0  0  0
   28.5688    0.9965    1.2620 C   0  0  0  0  0 15  0  0  0  0  0  0
   29.7588    1.2586    1.2044 O   0  0  0  0  0 15  0  0  0  0  0  0
   26.8908    2.5394    2.2744 C   0  0  0  0  0 15  0  0  0  0  0  0
   28.0838    2.9545    0.5145 H   0  0  0  0  0 15  0  0  0  0  0  0
   25.6368    1.5458    0.2311 H   0  0  0  0  0 15  0  0  0  0  0  0
   26.3718    1.7017    2.7607 H   0  0  0  0  0 15  0  0  0  0  0  0
   26.1568    3.3337    2.0641 H   0  0  0  0  0 15  0  0  0  0  0  0
   27.6468    2.9351    2.9705 H   0  0  0  0  0 15  0  0  0  0  0  0
   28.0839   -0.2563    1.5550 N   0  0  0  0  0 15  0  0  0  0  0  0
   29.0339   -1.3198    1.8592 C   0  0  0  0  0 15  0  0  0  0  0  0
   30.0179   -1.4393    0.7193 C   0  0  0  0  0 15  0  0  0  0  0  0
   31.2099   -1.4733    0.9810 O   0  0  0  0  0 15  0  0  0  0  0  0
   28.3389   -2.6770    2.1492 C   0  0  0  0  0 15  0  0  0  0  0  0
   27.4249   -2.5980    3.3521 C   0  0  0  0  0 15  0  0  0  0  0  0
   27.8159   -2.2152    4.5471 N   0  0  0  0  0 15  0  0  0  0  0  0
   26.1139   -2.9083    3.3813 C   0  0  0  0  0 15  0  0  0  0  0  0
   26.8149   -2.2402    5.3683 C   0  0  0  0  0 15  0  0  0  0  0  0
   25.7909   -2.6316    4.7566 N   0  0  0  0  0 15  0  0  0  0  0  0
   29.5929   -1.0142    2.7585 H   0  0  0  0  0 15  0  0  0  0  0  0
   27.1069   -0.4649    1.5560 H   0  0  0  0  0 15  0  0  0  0  0  0
   29.1039   -3.4444    2.3487 H   0  0  0  0  0 15  0  0  0  0  0  0
   27.7639   -2.9914    1.2628 H   0  0  0  0  0 15  0  0  0  0  0  0
   28.7749   -1.9322    4.8051 H   0  0  0  0  0 15  0  0  0  0  0  0
   25.4519   -3.2687    2.5974 H   0  0  0  0  0 15  0  0  0  0  0  0
   26.8419   -1.9685    6.4242 H   0  0  0  0  0 15  0  0  0  0  0  0
   29.5620   -1.4872   -0.5215 N   0  0  0  0  0 15  0  0  0  0  0  0
   30.9730   -1.5061   -1.1034 C   0  0  0  0  0 15  0  0  0  0  0  0
   31.3240   -0.2806   -1.9418 C   0  0  0  0  0 15  0  0  0  0  0  0
   30.4490    0.6115   -2.0758 O   0  0  0  0  0 15  0  0  0  0  0  0
   31.0440   -2.7290   -2.0077 C   0  0  0  0  0 15  0  0  0  0  0  0
   29.6030   -2.7763   -2.5416 C   0  0  0  0  0 15  0  0  0  0  0  0
   28.7500   -2.4424   -1.3131 C   0  0  0  0  0 15  0  0  0  0  0  0
   31.7010   -1.5571   -0.3064 H   0  0  0  0  0 15  0  0  0  0  0  0
   31.7220   -2.5190   -2.8518 H   0  0  0  0  0 15  0  0  0  0  0  0
   31.2340   -3.6208   -1.3972 H   0  0  0  0  0 15  0  0  0  0  0  0
   29.3350   -1.9269   -3.1891 H   0  0  0  0  0 15  0  0  0  0  0  0
   29.4480   -3.7928   -2.9271 H   0  0  0  0  0 15  0  0  0  0  0  0
   27.8120   -1.9558   -1.6316 H   0  0  0  0  0 15  0  0  0  0  0  0
   28.5950   -3.3567   -0.7199 H   0  0  0  0  0 15  0  0  0  0  0  0
   31.0401    0.7711   -1.3745 N   0  0  0  0  0 15  0  0  0  0  0  0
   32.4561    1.0717   -1.1827 C   0  0  0  0  0 15  0  0  0  0  0  0
   32.6561    2.0149   -0.0193 C   0  0  0  0  0 15  0  0  0  0  0  0
   31.7121    2.4424    0.6404 O   0  0  0  0  0 15  0  0  0  0  0  0
   33.0251    1.6685   -2.5016 C   0  0  0  0  0 15  0  0  0  0  0  0
   34.5731    1.7911   -2.5669 C   0  0  0  0  0 15  0  0  0  0  0  0
   35.0481    2.4221   -3.8872 C   0  0  0  0  0 15  0  0  0  0  0  0
   36.5391    2.4966   -3.9016 N   0  0  0  0  0 15  0  0  0  0  0  0
   37.2741    2.9933   -4.8907 C   0  0  0  0  0 15  0  0  0  0  0  0
   36.7701    3.4917   -5.9837 N   0  0  0  0  0 15  0  0  0  0  0  0
   38.5631    2.9821   -4.7647 N   0  0  0  0  0 15  0  0  0  0  0  0
   30.7141    0.1448   -2.1191 H   0  0  0  0  0 15  0  0  0  0  0  0
   32.9771    0.1269   -0.9395 H   0  0  0  0  0 15  0  0  0  0  0  0
   32.6831    1.0502   -3.3565 H   0  0  0  0  0 15  0  0  0  0  0  0
   32.5571    2.6614   -2.6730 H   0  0  0  0  0 15  0  0  0  0  0  0
   34.9441    2.4008   -1.7160 H   0  0  0  0  0 15  0  0  0  0  0  0
   35.0251    0.7858   -2.4343 H   0  0  0  0  0 15  0  0  0  0  0  0
   34.6691    1.8188   -4.7422 H   0  0  0  0  0 15  0  0  0  0  0  0
   34.5991    3.4335   -3.9928 H   0  0  0  0  0 15  0  0  0  0  0  0
   37.0901    2.1438   -3.1120 H   0  0  0  0  0 15  0  0  0  0  0  0
   37.4031    3.8548   -6.6979 H   0  0  0  0  0 15  0  0  0  0  0  0
   35.7481    3.4727   -6.0202 H   0  0  0  0  0 15  0  0  0  0  0  0
   38.9391    2.5857   -3.9020 H   0  0  0  0  0 15  0  0  0  0  0  0
   39.1121    3.3661   -5.5371 H   0  0  0  0  0 15  0  0  0  0  0  0
   32.5182    1.2203    0.9973 N   0  0  0  0  0 15  0  0  0  0  0  0
   33.7642    1.0538    1.7397 C   0  0  0  0  0 15  0  0  0  0  0  0
   34.1192   -0.4074    1.8804 C   0  0  0  0  0 15  0  0  0  0  0  0
   33.4122   -1.2981    1.4092 O   0  0  0  0  0 15  0  0  0  0  0  0
   33.6062    1.6934    3.1473 C   0  0  0  0  0 15  0  0  0  0  0  0
   33.4352    3.2154    3.1439 C   0  0  0  0  0 15  0  0  0  0  0  0
   32.2052    3.9062    3.2054 C   0  0  0  0  0 15  0  0  0  0  0  0
   34.4032    4.1853    2.9890 C   0  0  0  0  0 15  0  0  0  0  0  0
   32.3852    5.2994    3.0991 N   0  0  0  0  0 15  0  0  0  0  0  0
   33.7562    5.4464    2.9625 C   0  0  0  0  0 15  0  0  0  0  0  0
   35.8112    4.0948    2.8326 C   0  0  0  0  0 15  0  0  0  0  0  0
   34.5142    6.6275    2.7956 C   0  0  0  0  0 15  0  0  0  0  0  0
   36.5402    5.2723    2.6793 C   0  0  0  0  0 15  0  0  0  0  0  0
   35.9022    6.5226    2.6596 C   0  0  0  0  0 15  0  0  0  0  0  0
   32.0012    0.4400    0.6465 H   0  0  0  0  0 15  0  0  0  0  0  0
   34.5852    1.5451    1.1847 H   0  0  0  0  0 15  0  0  0  0  0  0
   32.7562    1.2278    3.6848 H   0  0  0  0  0 15  0  0  0  0  0  0
   34.4882    1.4583    3.7751 H   0  0  0  0  0 15  0  0  0  0  0  0
   31.2432    3.4159    3.2804 H   0  0  0  0  0 15  0  0  0  0  0  0
   31.6672    6.0293    3.0791 H   0  0  0  0  0 15  0  0  0  0  0  0
   36.3092    3.1360    2.8358 H   0  0  0  0  0 15  0  0  0  0  0  0
   34.0272    7.5878    2.7798 H   0  0  0  0  0 15  0  0  0  0  0  0
   37.6132    5.2205    2.5681 H   0  0  0  0  0 15  0  0  0  0  0  0
   36.4932    7.4184    2.5424 H   0  0  0  0  0 15  0  0  0  0  0  0
   33.9963   -1.1934    1.0293 N   0  0  0  0  0 15  0  0  0  0  0  0
   35.2433   -1.8904    0.7260 C   0  0  0  0  0 15  0  0  0  0  0  0
   35.5713   -1.7965   -0.7454 C   0  0  0  0  0 15  0  0  0  0  0  0
   34.8263   -1.1835   -1.5586 O   0  0  0  0  0 15  0  0  0  0  0  0
   35.1253   -3.3929    1.1232 C   0  0  0  0  0 15  0  0  0  0  0  0
   34.7913   -3.6888    2.5930 C   0  0  0  0  0 15  0  0  0  0  0  0
   33.4533   -3.7667    2.9945 C   0  0  0  0  0 15  0  0  0  0  0  0
   35.8053   -3.8218    3.5439 C   0  0  0  0  0 15  0  0  0  0  0  0
   33.1333   -3.9522    4.3361 C   0  0  0  0  0 15  0  0  0  0  0  0
   35.4853   -4.0224    4.8825 C   0  0  0  0  0 15  0  0  0  0  0  0
   34.1493   -4.0826    5.2809 C   0  0  0  0  0 15  0  0  0  0  0  0
   33.4193   -0.6917    0.2657 H   0  0  0  0  0 15  0  0  0  0  0  0
   36.0663   -1.4133    1.2922 H   0  0  0  0  0 15  0  0  0  0  0  0
   34.3713   -3.8890    0.4756 H   0  0  0  0  0 15  0  0  0  0  0  0
   36.0683   -3.9154    0.8660 H   0  0  0  0  0 15  0  0  0  0  0  0
   32.6583   -3.6343    2.2719 H   0  0  0  0  0 15  0  0  0  0  0  0
   36.8423   -3.7551    3.2451 H   0  0  0  0  0 15  0  0  0  0  0  0
   32.0983   -3.9812    4.6402 H   0  0  0  0  0 15  0  0  0  0  0  0
   36.2723   -4.1147    5.6184 H   0  0  0  0  0 15  0  0  0  0  0  0
   33.8993   -4.2238    6.3206 H   0  0  0  0  0 15  0  0  0  0  0  0
   35.4744   -0.8072   -1.3536 N   0  0  0  0  0 15  0  0  0  0  0  0
   36.7214   -0.3879   -1.9875 C   0  0  0  0  0 15  0  0  0  0  0  0
   37.0494    1.0451   -1.6404 C   0  0  0  0  0 15  0  0  0  0  0  0
   36.3044    1.7399   -0.8959 O   0  0  0  0  0 15  0  0  0  0  0  0
   36.6034   -0.5190   -3.5361 C   0  0  0  0  0 15  0  0  0  0  0  0
   36.2694   -1.9154   -4.0819 C   0  0  0  0  0 15  0  0  0  0  0  0
   34.9314   -2.2974   -4.2281 C   0  0  0  0  0 15  0  0  0  0  0  0
   37.2834   -2.8290   -4.3774 C   0  0  0  0  0 15  0  0  0  0  0  0
   34.6114   -3.5867   -4.6430 C   0  0  0  0  0 15  0  0  0  0  0  0
   36.9634   -4.1127   -4.8067 C   0  0  0  0  0 15  0  0  0  0  0  0
   35.6274   -4.4947   -4.9349 C   0  0  0  0  0 15  0  0  0  0  0  0
   34.8974   -0.1419   -0.7273 H   0  0  0  0  0 15  0  0  0  0  0  0
   37.5444   -1.0281   -1.6156 H   0  0  0  0  0 15  0  0  0  0  0  0
   35.8494    0.2047   -3.9127 H   0  0  0  0  0 15  0  0  0  0  0  0
   37.5464   -0.1753   -4.0062 H   0  0  0  0  0 15  0  0  0  0  0  0
   34.1364   -1.6086   -3.9727 H   0  0  0  0  0 15  0  0  0  0  0  0
   38.3204   -2.5463   -4.2600 H   0  0  0  0  0 15  0  0  0  0  0  0
   33.5764   -3.8811   -4.7242 H   0  0  0  0  0 15  0  0  0  0  0  0
   37.7504   -4.8215   -5.0250 H   0  0  0  0  0 15  0  0  0  0  0  0
   35.3774   -5.4942   -5.2540 H   0  0  0  0  0 15  0  0  0  0  0  0
   36.9525    1.4729   -0.5608 N   0  0  0  0  0 15  0  0  0  0  0  0
   37.9005    2.3176    0.1979 C   0  0  0  0  0 15  0  0  0  0  0  0
   38.8945    1.4315    0.9059 C   0  0  0  0  0 15  0  0  0  0  0  0
   40.1005    1.5989    0.8267 O   0  0  0  0  0 15  0  0  0  0  0  0
   36.4755    0.7474    0.0827 H   0  0  0  0  0 15  0  0  0  0  0  0
   38.4465    2.9359   -0.5336 H   0  0  0  0  0 15  0  0  0  0  0  0
   37.1955    3.2587    1.2125 C   0  0  0  0  0 15  0  0  0  0  0  0
   36.5185    3.9402    0.6772 H   0  0  0  0  0 15  0  0  0  0  0  0
   37.9585    3.8780    1.7142 H   0  0  0  0  0 15  0  0  0  0  0  0
   36.4175    2.4965    2.2622 C   0  0  0  0  0 15  0  0  0  0  0  0
   36.9475    2.2436    3.3321 O   0  0  0  0  0 15  0  0  0  0  0  0
   35.1535    2.1060    2.0024 N   0  0  0  0  0 15  0  0  0  0  0  0
   34.7005    2.3137    1.1325 H   0  0  0  0  0 15  0  0  0  0  0  0
   34.6585    1.5991    2.7069 H   0  0  0  0  0 15  0  0  0  0  0  0
   38.4306    0.2974    1.5477 N   0  0  0  0  0 15  0  0  0  0  0  0
   39.6796   -0.3137    1.9925 C   0  0  0  0  0 15  0  0  0  0  0  0
   39.9926   -1.5528    1.1894 C   0  0  0  0  0 15  0  0  0  0  0  0
   41.1986   -2.2383    1.5367 O   0  0  0  0  0 15  0  0  0  0  0  0
   39.6546   -0.6094    3.5470 C   0  0  0  0  0 15  0  0  0  0  0  0
   39.2626    0.6112    4.4381 C   0  0  0  0  0 15  0  0  0  0  0  0
   41.0066   -1.1819    4.0772 C   0  0  0  0  0 15  0  0  0  0  0  0
   38.9136    0.2888    5.9069 C   0  0  0  0  0 15  0  0  0  0  0  0
   37.8436   -0.1210    0.7442 H   0  0  0  0  0 15  0  0  0  0  0  0
   40.4946    0.4056    1.7896 H   0  0  0  0  0 15  0  0  0  0  0  0
   38.8766   -1.3881    3.7087 H   0  0  0  0  0 15  0  0  0  0  0  0
   40.0506    1.3875    4.3941 H   0  0  0  0  0 15  0  0  0  0  0  0
   38.3656    1.1021    4.0155 H   0  0  0  0  0 15  0  0  0  0  0  0
   40.9626   -1.4373    5.1502 H   0  0  0  0  0 15  0  0  0  0  0  0
   41.3056   -2.1230    3.5810 H   0  0  0  0  0 15  0  0  0  0  0  0
   41.8386   -0.4649    3.9507 H   0  0  0  0  0 15  0  0  0  0  0  0
   38.5776    1.1984    6.4445 H   0  0  0  0  0 15  0  0  0  0  0  0
   38.0976   -0.4503    5.9811 H   0  0  0  0  0 15  0  0  0  0  0  0
   39.7766   -0.1109    6.4690 H   0  0  0  0  0 15  0  0  0  0  0  0
   39.9087   -1.5758    0.0251 N   0  0  0  0  0 15  0  0  0  0  0  0
   41.1557   -1.9163   -0.6544 C   0  0  0  0  0 15  0  0  0  0  0  0
   41.4837   -0.9011   -1.7237 C   0  0  0  0  0 15  0  0  0  0  0  0
   40.7387    0.0906   -1.9549 O   0  0  0  0  0 15  0  0  0  0  0  0
   41.0377   -3.3242   -1.3127 C   0  0  0  0  0 15  0  0  0  0  0  0
   40.7037   -4.4934   -0.3742 C   0  0  0  0  0 15  0  0  0  0  0  0
   39.3657   -4.8106   -0.1159 C   0  0  0  0  0 15  0  0  0  0  0  0
   41.7177   -5.2050    0.2704 C   0  0  0  0  0 15  0  0  0  0  0  0
   39.0457   -5.8129    0.7949 C   0  0  0  0  0 15  0  0  0  0  0  0
   41.3977   -6.2170    1.1693 C   0  0  0  0  0 15  0  0  0  0  0  0
   40.0617   -6.5186    1.4365 C   0  0  0  0  0 15  0  0  0  0  0  0
   39.3317   -0.7012   -0.2395 H   0  0  0  0  0 15  0  0  0  0  0  0
   41.9787   -1.9131    0.0860 H   0  0  0  0  0 15  0  0  0  0  0  0
   40.2837   -3.2899   -2.1278 H   0  0  0  0  0 15  0  0  0  0  0  0
   41.9807   -3.5604   -1.8449 H   0  0  0  0  0 15  0  0  0  0  0  0
   38.5707   -4.2458   -0.5857 H   0  0  0  0  0 15  0  0  0  0  0  0
   42.7547   -4.9623    0.0839 H   0  0  0  0  0 15  0  0  0  0  0  0
   38.0107   -6.0300    1.0097 H   0  0  0  0  0 15  0  0  0  0  0  0
   42.1847   -6.7596    1.6750 H   0  0  0  0  0 15  0  0  0  0  0  0
   39.8117   -7.2934    2.1440 H   0  0  0  0  0 15  0  0  0  0  0  0
   41.3868    0.2480   -1.5564 N   0  0  0  0  0 15  0  0  0  0  0  0
   42.6148    0.9938   -1.8147 C   0  0  0  0  0 15  0  0  0  0  0  0
   43.0298    1.7899   -0.6006 C   0  0  0  0  0 15  0  0  0  0  0  0
   42.3868    1.7735    0.4307 O   0  0  0  0  0 15  0  0  0  0  0  0
   42.4378    1.9326   -3.0551 C   0  0  0  0  0 15  0  0  0  0  0  0
   42.1588    1.1687   -4.2222 O   0  0  0  0  0 15  0  0  0  0  0  0
   43.6598    2.7944   -3.4413 C   0  0  0  0  0 15  0  0  0  0  0  0
   40.8798    0.2925   -0.6039 H   0  0  0  0  0 15  0  0  0  0  0  0
   43.4238    0.2713   -2.0269 H   0  0  0  0  0 15  0  0  0  0  0  0
   41.5788    2.6094   -2.8633 H   0  0  0  0  0 15  0  0  0  0  0  0
   41.9928    1.8036   -4.9251 H   0  0  0  0  0 15  0  0  0  0  0  0
   43.4668    3.4107   -4.3403 H   0  0  0  0  0 15  0  0  0  0  0  0
   43.9438    3.5050   -2.6466 H   0  0  0  0  0 15  0  0  0  0  0  0
   44.5498    2.1721   -3.6565 H   0  0  0  0  0 15  0  0  0  0  0  0
   42.8649    1.4899    0.5136 N   0  0  0  0  0 15  0  0  0  0  0  0
   44.2809    1.3548    0.8437 C   0  0  0  0  0 15  0  0  0  0  0  0
   44.4809    0.3782    1.9792 C   0  0  0  0  0 15  0  0  0  0  0  0
   43.5369   -0.1947    2.5175 O   0  0  0  0  0 15  0  0  0  0  0  0
   44.8499    2.7590    1.1958 C   0  0  0  0  0 15  0  0  0  0  0  0
   46.3979    2.8451    1.3047 C   0  0  0  0  0 15  0  0  0  0  0  0
   46.8729    4.2567    1.6902 C   0  0  0  0  0 15  0  0  0  0  0  0
   48.3639    4.2842    1.7609 N   0  0  0  0  0 15  0  0  0  0  0  0
   49.0989    5.3460    2.0734 C   0  0  0  0  0 15  0  0  0  0  0  0
   48.5949    6.5104    2.3689 N   0  0  0  0  0 15  0  0  0  0  0  0
   50.3879    5.2201    2.0848 N   0  0  0  0  0 15  0  0  0  0  0  0
   42.5389    2.1109   -0.2353 H   0  0  0  0  0 15  0  0  0  0  0  0
   44.8019    0.9470   -0.0427 H   0  0  0  0  0 15  0  0  0  0  0  0
   44.5079    3.4900    0.4349 H   0  0  0  0  0 15  0  0  0  0  0  0
   44.3819    3.1047    2.1422 H   0  0  0  0  0 15  0  0  0  0  0  0
   46.7689    2.1165    2.0564 H   0  0  0  0  0 15  0  0  0  0  0  0
   46.8499    2.5354    0.3392 H   0  0  0  0  0 15  0  0  0  0  0  0
   46.4939    4.9905    0.9441 H   0  0  0  0  0 15  0  0  0  0  0  0
   46.4239    4.5409    2.6666 H   0  0  0  0  0 15  0  0  0  0  0  0
   48.9149    3.4444    1.5546 H   0  0  0  0  0 15  0  0  0  0  0  0
   49.2279    7.2779    2.5989 H   0  0  0  0  0 15  0  0  0  0  0  0
   47.5729    6.5429    2.3438 H   0  0  0  0  0 15  0  0  0  0  0  0
   50.7639    4.3005    1.8486 H   0  0  0  0  0 15  0  0  0  0  0  0
   50.9369    6.0485    2.3250 H   0  0  0  0  0 15  0  0  0  0  0  0
   44.3430   -0.7638    1.3786 N   0  0  0  0  0 15  0  0  0  0  0  0
   45.2750   -1.8866    1.3015 C   0  0  0  0  0 15  0  0  0  0  0  0
   46.2880   -1.6136    0.2157 C   0  0  0  0  0 15  0  0  0  0  0  0
   47.4770   -1.7213    0.4725 O   0  0  0  0  0 15  0  0  0  0  0  0
   44.5770   -3.2407    0.9914 C   0  0  0  0  0 15  0  0  0  0  0  0
   43.7500   -3.7896    2.1843 C   0  0  0  0  0 15  0  0  0  0  0  0
   42.8090   -4.9286    1.8432 C   0  0  0  0  0 15  0  0  0  0  0  0
   41.8350   -5.0803    2.5670 O   0  0  0  0  0 15  0  0  0  0  0  0
   43.0370   -5.7507    0.7921 N   0  0  0  0  0 15  0  0  0  0  0  0
   45.8020   -1.9579    2.2691 H   0  0  0  0  0 15  0  0  0  0  0  0
   43.3630   -0.9432    1.3159 H   0  0  0  0  0 15  0  0  0  0  0  0
   45.3550   -3.9780    0.7439 H   0  0  0  0  0 15  0  0  0  0  0  0
   43.9250   -3.1240    0.1121 H   0  0  0  0  0 15  0  0  0  0  0  0
   43.1450   -2.9691    2.5930 H   0  0  0  0  0 15  0  0  0  0  0  0
   44.4330   -4.1236    2.9806 H   0  0  0  0  0 15  0  0  0  0  0  0
   43.8310   -5.6538    0.1916 H   0  0  0  0  0 15  0  0  0  0  0  0
   42.3880   -6.4899    0.6045 H   0  0  0  0  0 15  0  0  0  0  0  0
   45.8211   -1.2256   -0.9908 N   0  0  0  0  0 15  0  0  0  0  0  0
   47.0611   -1.0630   -1.7458 C   0  0  0  0  0 15  0  0  0  0  0  0
   47.4251    0.3947   -1.8790 C   0  0  0  0  0 15  0  0  0  0  0  0
   48.6261    0.6782   -2.6010 O   0  0  0  0  0 15  0  0  0  0  0  0
   46.8971   -1.7570   -3.1123 C   0  0  0  0  0 15  0  0  0  0  0  0
   48.4561   -1.7488   -4.0244 S   0  0  0  0  0 15  0  0  0  0  0  0
   45.2741   -0.3806   -0.6005 H   0  0  0  0  0 15  0  0  0  0  0  0
   47.8761   -1.5553   -1.1845 H   0  0  0  0  0 15  0  0  0  0  0  0
   46.5801   -2.8092   -2.9918 H   0  0  0  0  0 15  0  0  0  0  0  0
   46.1111   -1.2671   -3.7244 H   0  0  0  0  0 15  0  0  0  0  0  0
   48.1261   -0.8000   -4.8971 H   0  0  0  0  0 15  0  0  0  0  0  0
   47.2992    1.1880   -1.0356 N   0  0  0  0  0 15  0  0  0  0  0  0
   48.2092    2.2591   -0.6325 C   0  0  0  0  0 15  0  0  0  0  0  0
   49.2252    1.7067    0.3389 C   0  0  0  0  0 15  0  0  0  0  0  0
   50.4012    2.0045    0.1951 O   0  0  0  0  0 15  0  0  0  0  0  0
   47.4662    3.4670    0.0035 C   0  0  0  0  0 15  0  0  0  0  0  0
   46.5272    4.1710   -1.0162 C   0  0  0  0  0 15  0  0  0  0  0  0
   45.7602    5.3212   -0.4105 C   0  0  0  0  0 15  0  0  0  0  0  0
   45.9832    5.6498    0.7847 O   0  0  0  0  0 15  0  0  0  0  0  0
   44.9172    5.9107   -1.1367 O   0  0  0  0  0 15  0  0  0  0  0  0
   48.7432    2.6265   -1.5248 H   0  0  0  0  0 15  0  0  0  0  0  0
   46.3282    1.2578   -0.8062 H   0  0  0  0  0 15  0  0  0  0  0  0
   48.2102    4.1988    0.3578 H   0  0  0  0  0 15  0  0  0  0  0  0
   46.8852    3.1180    0.8697 H   0  0  0  0  0 15  0  0  0  0  0  0
   45.7922    3.4601   -1.4222 H   0  0  0  0  0 15  0  0  0  0  0  0
   47.1252    4.5599   -1.8530 H   0  0  0  0  0 15  0  0  0  0  0  0
   48.7773    0.8144    1.3493 N   0  0  0  0  0 15  0  0  0  0  0  0
   49.6873    0.2320    2.3345 C   0  0  0  0  0 15  0  0  0  0  0  0
   50.7033   -0.6291    1.6223 C   0  0  0  0  0 15  0  0  0  0  0  0
   51.8793   -0.5391    1.9405 O   0  0  0  0  0 15  0  0  0  0  0  0
   48.9443   -0.6035    3.4141 C   0  0  0  0  0 15  0  0  0  0  0  0
   48.0053    0.2790    4.2839 C   0  0  0  0  0 15  0  0  0  0  0  0
   47.2383   -0.5166    5.3119 C   0  0  0  0  0 15  0  0  0  0  0  0
   47.4613   -1.7507    5.4287 O   0  0  0  0  0 15  0  0  0  0  0  0
   46.3953    0.0966    6.0182 O   0  0  0  0  0 15  0  0  0  0  0  0
   50.2213    1.0472    2.8507 H   0  0  0  0  0 15  0  0  0  0  0  0
   47.8063    0.5763    1.3784 H   0  0  0  0  0 15  0  0  0  0  0  0
   49.6883   -1.0791    4.0735 H   0  0  0  0  0 15  0  0  0  0  0  0
   48.3633   -1.3962    2.9204 H   0  0  0  0  0 15  0  0  0  0  0  0
   47.2703    0.8019    3.6540 H   0  0  0  0  0 15  0  0  0  0  0  0
   48.6033    1.0359    4.8118 H   0  0  0  0  0 15  0  0  0  0  0  0
   50.2554   -1.4699    0.5686 N   0  0  0  0  0 15  0  0  0  0  0  0
   51.5024   -2.0244    0.0488 C   0  0  0  0  0 15  0  0  0  0  0  0
   51.8304   -1.4417   -1.3056 C   0  0  0  0  0 15  0  0  0  0  0  0
   51.0854   -0.5912   -1.8656 O   0  0  0  0  0 15  0  0  0  0  0  0
   51.3844   -3.5731   -0.0818 C   0  0  0  0  0 15  0  0  0  0  0  0
   51.0504   -4.3455    1.2031 C   0  0  0  0  0 15  0  0  0  0  0  0
   49.7124   -4.5538    1.5552 C   0  0  0  0  0 15  0  0  0  0  0  0
   52.0644   -4.7902    2.0541 C   0  0  0  0  0 15  0  0  0  0  0  0
   49.3924   -5.1791    2.7565 C   0  0  0  0  0 15  0  0  0  0  0  0
   51.7444   -5.4288    3.2475 C   0  0  0  0  0 15  0  0  0  0  0  0
   50.4084   -5.6193    3.6026 C   0  0  0  0  0 15  0  0  0  0  0  0
   49.6784   -0.7408    0.0179 H   0  0  0  0  0 15  0  0  0  0  0  0
   52.3254   -1.7652    0.7424 H   0  0  0  0  0 15  0  0  0  0  0  0
   50.6304   -3.8228   -0.8585 H   0  0  0  0  0 15  0  0  0  0  0  0
   52.3274   -3.9788   -0.4995 H   0  0  0  0  0 15  0  0  0  0  0  0
   48.9174   -4.1863    0.9190 H   0  0  0  0  0 15  0  0  0  0  0  0
   53.1014   -4.6270    1.7952 H   0  0  0  0  0 15  0  0  0  0  0  0
   48.3574   -5.3086    3.0332 H   0  0  0  0  0 15  0  0  0  0  0  0
   52.5314   -5.7629    3.9097 H   0  0  0  0  0 15  0  0  0  0  0  0
   50.1584   -6.1016    4.5344 H   0  0  0  0  0 15  0  0  0  0  0  0
   51.7335   -0.3056   -1.5461 N   0  0  0  0  0 15  0  0  0  0  0  0
   52.9825    0.3031   -1.9941 C   0  0  0  0  0 15  0  0  0  0  0  0
   53.2955    1.5465   -1.1976 C   0  0  0  0  0 15  0  0  0  0  0  0
   54.5015    2.2301   -1.5485 O   0  0  0  0  0 15  0  0  0  0  0  0
   52.9575    0.5906   -3.5502 C   0  0  0  0  0 15  0  0  0  0  0  0
   52.5655   -0.6347   -4.4348 C   0  0  0  0  0 15  0  0  0  0  0  0
   54.3095    1.1602   -4.0834 C   0  0  0  0  0 15  0  0  0  0  0  0
   52.2165   -0.3201   -5.9053 C   0  0  0  0  0 15  0  0  0  0  0  0
   51.1465    0.1170   -0.7449 H   0  0  0  0  0 15  0  0  0  0  0  0
   53.7975   -0.4150   -1.7874 H   0  0  0  0  0 15  0  0  0  0  0  0
   52.1795    1.3684   -3.7160 H   0  0  0  0  0 15  0  0  0  0  0  0
   53.3535   -1.4108   -4.3867 H   0  0  0  0  0 15  0  0  0  0  0  0
   51.6685   -1.1233   -4.0096 H   0  0  0  0  0 15  0  0  0  0  0  0
   54.2655    1.4099   -5.1578 H   0  0  0  0  0 15  0  0  0  0  0  0
   54.6085    2.1040   -3.5922 H   0  0  0  0  0 15  0  0  0  0  0  0
   55.1415    0.4440   -3.9531 H   0  0  0  0  0 15  0  0  0  0  0  0
   51.8805   -1.2325   -6.4381 H   0  0  0  0  0 15  0  0  0  0  0  0
   51.4005    0.4186   -5.9834 H   0  0  0  0  0 15  0  0  0  0  0  0
   53.0795    0.0766   -6.4695 H   0  0  0  0  0 15  0  0  0  0  0  0
   53.2116    1.5756   -0.0334 N   0  0  0  0  0 15  0  0  0  0  0  0
   54.4416    1.9600    0.6534 C   0  0  0  0  0 15  0  0  0  0  0  0
   54.8496    0.9087    1.6595 C   0  0  0  0  0 15  0  0  0  0  0  0
   54.1926   -0.1175    1.8332 O   0  0  0  0  0 15  0  0  0  0  0  0
   54.2546    3.3059    1.4125 C   0  0  0  0  0 15  0  0  0  0  0  0
   53.9186    4.5350    0.5643 C   0  0  0  0  0 15  0  0  0  0  0  0
   54.9156    5.1965   -0.1623 C   0  0  0  0  0 15  0  0  0  0  0  0
   52.6006    4.9980    0.5004 C   0  0  0  0  0 15  0  0  0  0  0  0
   54.5946    6.3041   -0.9413 C   0  0  0  0  0 15  0  0  0  0  0  0
   52.2816    6.1045   -0.2823 C   0  0  0  0  0 15  0  0  0  0  0  0
   53.2796    6.7561   -1.0018 C   0  0  0  0  0 15  0  0  0  0  0  0
   52.9676    7.8413   -1.7717 O   0  0  0  0  0 15  0  0  0  0  0  0
   52.6996    0.6503    0.1847 H   0  0  0  0  0 15  0  0  0  0  0  0
   55.2536    2.0520   -0.0908 H   0  0  0  0  0 15  0  0  0  0  0  0
   53.4836    3.1789    2.2019 H   0  0  0  0  0 15  0  0  0  0  0  0
   55.1726    3.5389    1.9878 H   0  0  0  0  0 15  0  0  0  0  0  0
   55.9386    4.8485   -0.1223 H   0  0  0  0  0 15  0  0  0  0  0  0
   51.8176    4.4888    1.0500 H   0  0  0  0  0 15  0  0  0  0  0  0
   55.3616    6.8121   -1.5034 H   0  0  0  0  0 15  0  0  0  0  0  0
   51.2586    6.4469   -0.3240 H   0  0  0  0  0 15  0  0  0  0  0  0
   52.0266    8.0082   -1.6919 H   0  0  0  0  0 15  0  0  0  0  0  0
   54.6897   -0.2398    1.5577 N   0  0  0  0  0 15  0  0  0  0  0  0
   55.9377   -0.9649    1.7758 C   0  0  0  0  0 15  0  0  0  0  0  0
   56.2587   -1.8558    0.5987 C   0  0  0  0  0 15  0  0  0  0  0  0
   55.5287   -1.9208   -0.3852 O   0  0  0  0  0 15  0  0  0  0  0  0
   54.1087   -0.3593    0.6549 H   0  0  0  0  0 15  0  0  0  0  0  0
   56.7707   -0.2560    1.9321 H   0  0  0  0  0 15  0  0  0  0  0  0
   55.8667   -1.5824    2.6901 H   0  0  0  0  0 15  0  0  0  0  0  0
   56.1678   -1.4927   -0.5057 N   0  0  0  0  0 15  0  0  0  0  0  0
   57.4158   -1.5820   -1.2577 C   0  0  0  0  0 15  0  0  0  0  0  0
   57.7368   -0.2685   -1.9314 C   0  0  0  0  0 15  0  0  0  0  0  0
   57.0068    0.7118   -1.8251 O   0  0  0  0  0 15  0  0  0  0  0  0
   55.5868   -0.5829   -0.4672 H   0  0  0  0  0 15  0  0  0  0  0  0
   58.2488   -1.8587   -0.5865 H   0  0  0  0  0 15  0  0  0  0  0  0
   57.3448   -2.3756   -2.0241 H   0  0  0  0  0 15  0  0  0  0  0  0
   57.6459    0.7564   -1.3826 N   0  0  0  0  0 15  0  0  0  0  0  0
   58.8859    1.5283   -1.3573 C   0  0  0  0  0 15  0  0  0  0  0  0
   59.2499    1.9193    0.0534 C   0  0  0  0  0 15  0  0  0  0  0  0
   60.4509    2.6803    0.2036 O   0  0  0  0  0 15  0  0  0  0  0  0
   58.7219    2.7492   -2.2837 C   0  0  0  0  0 15  0  0  0  0  0  0
   60.2809    3.6482   -2.4383 S   0  0  0  0  0 15  0  0  0  0  0  0
   57.0989    0.5230   -0.4816 H   0  0  0  0  0 15  0  0  0  0  0  0
   59.7009    0.8882   -1.7416 H   0  0  0  0  0 15  0  0  0  0  0  0
   58.4049    2.4430   -3.2976 H   0  0  0  0  0 15  0  0  0  0  0  0
   57.9359    3.4388   -1.9108 H   0  0  0  0  0 15  0  0  0  0  0  0
   59.9509    4.6760   -1.6603 H   0  0  0  0  0 15  0  0  0  0  0  0
   59.1240    1.2308    0.9843 N   0  0  0  0  0 15  0  0  0  0  0  0
   60.0340    1.0251    2.1102 C   0  0  0  0  0 15  0  0  0  0  0  0
   61.0500   -0.0292    1.7398 C   0  0  0  0  0 15  0  0  0  0  0  0
   62.2260    0.1654    2.0072 O   0  0  0  0  0 15  0  0  0  0  0  0
   59.2910    0.6147    3.4121 C   0  0  0  0  0 15  0  0  0  0  0  0
   58.3520    1.7436    3.9230 C   0  0  0  0  0 15  0  0  0  0  0  0
   57.5850    1.3526    5.1628 C   0  0  0  0  0 15  0  0  0  0  0  0
   57.8080    0.2351    5.6992 O   0  0  0  0  0 15  0  0  0  0  0  0
   56.7420    2.1723    5.6133 O   0  0  0  0  0 15  0  0  0  0  0  0
   60.5680    1.9686    2.3126 H   0  0  0  0  0 15  0  0  0  0  0  0
   58.1530    1.0175    1.0939 H   0  0  0  0  0 15  0  0  0  0  0  0
   60.0350    0.3965    4.1953 H   0  0  0  0  0 15  0  0  0  0  0  0
   58.7100   -0.2999    3.2231 H   0  0  0  0  0 15  0  0  0  0  0  0
   57.6170    2.0164    3.1511 H   0  0  0  0  0 15  0  0  0  0  0  0
   58.9500    2.6363    4.1564 H   0  0  0  0  0 15  0  0  0  0  0  0
   60.6021   -1.1825    1.0419 N   0  0  0  0  0 15  0  0  0  0  0  0
   61.8501   -1.8789    0.7445 C   0  0  0  0  0 15  0  0  0  0  0  0
   62.1711   -1.8082   -0.7300 C   0  0  0  0  0 15  0  0  0  0  0  0
   61.4411   -1.2274   -1.5268 O   0  0  0  0  0 15  0  0  0  0  0  0
   60.0211   -0.6956    0.2724 H   0  0  0  0  0 15  0  0  0  0  0  0
   62.6831   -1.4349    1.3189 H   0  0  0  0  0 15  0  0  0  0  0  0
   61.7791   -2.9389    1.0505 H   0  0  0  0  0 15  0  0  0  0  0  0
   62.0802   -0.8215   -1.3449 N   0  0  0  0  0 15  0  0  0  0  0  0
   63.0282   -0.2307   -2.3145 C   0  0  0  0  0 15  0  0  0  0  0  0
   64.0222    0.6278   -1.5734 C   0  0  0  0  0 15  0  0  0  0  0  0
   65.2282    0.5193   -1.7235 O   0  0  0  0  0 15  0  0  0  0  0  0
   61.6032   -0.0559   -0.7499 H   0  0  0  0  0 15  0  0  0  0  0  0
   63.5742   -1.0633   -2.7881 H   0  0  0  0  0 15  0  0  0  0  0  0
   62.3232    0.5939   -3.4259 C   0  0  0  0  0 15  0  0  0  0  0  0
   61.6462   -0.0574   -3.9976 H   0  0  0  0  0 15  0  0  0  0  0  0
   63.0862    0.9734   -4.1267 H   0  0  0  0  0 15  0  0  0  0  0  0
   61.5452    1.7657   -2.8692 C   0  0  0  0  0 15  0  0  0  0  0  0
   62.0752    2.8638   -2.8169 O   0  0  0  0  0 15  0  0  0  0  0  0
   60.2812    1.5820   -2.4377 N   0  0  0  0  0 15  0  0  0  0  0  0
   59.8282    0.6887   -2.4822 H   0  0  0  0  0 15  0  0  0  0  0  0
   59.7862    2.3675   -2.0687 H   0  0  0  0  0 15  0  0  0  0  0  0
   63.5583    1.4668   -0.5764 N   0  0  0  0  0 15  0  0  0  0  0  0
   64.4903    2.2834    0.1982 C   0  0  0  0  0 15  0  0  0  0  0  0
   65.5033    1.3814    0.8615 C   0  0  0  0  0 15  0  0  0  0  0  0
   66.6923    1.6280    0.7321 O   0  0  0  0  0 15  0  0  0  0  0  0
   63.7923    3.1299    1.2997 C   0  0  0  0  0 15  0  0  0  0  0  0
   62.9653    4.3127    0.7296 C   0  0  0  0  0 15  0  0  0  0  0  0
   62.0243    4.9736    1.7180 C   0  0  0  0  0 15  0  0  0  0  0  0
   61.0503    5.5516    1.2566 O   0  0  0  0  0 15  0  0  0  0  0  0
   62.2523    4.9380    3.0520 N   0  0  0  0  0 15  0  0  0  0  0  0
   65.0173    2.9546   -0.5023 H   0  0  0  0  0 15  0  0  0  0  0  0
   62.5783    1.5652   -0.4137 H   0  0  0  0  0 15  0  0  0  0  0  0
   64.5703    3.5407    1.9601 H   0  0  0  0  0 15  0  0  0  0  0  0
   63.1403    2.4798    1.9032 H   0  0  0  0  0 15  0  0  0  0  0  0
   62.3603    3.9405   -0.1080 H   0  0  0  0  0 15  0  0  0  0  0  0
   63.6483    5.0774    0.3284 H   0  0  0  0  0 15  0  0  0  0  0  0
   63.0463    4.4808    3.4532 H   0  0  0  0  0 15  0  0  0  0  0  0
   61.6033    5.3884    3.6674 H   0  0  0  0  0 15  0  0  0  0  0  0
   65.0364    0.3138    1.5444 N   0  0  0  0  0 15  0  0  0  0  0  0
   65.9844   -0.5722    2.2545 C   0  0  0  0  0 15  0  0  0  0  0  0
   66.9784   -1.1266    1.2651 C   0  0  0  0  0 15  0  0  0  0  0  0
   68.1844   -1.0757    1.4432 O   0  0  0  0  0 15  0  0  0  0  0  0
   64.5594   -0.2031    0.7240 H   0  0  0  0  0 15  0  0  0  0  0  0
   66.5304    0.0491    2.9836 H   0  0  0  0  0 15  0  0  0  0  0  0
   65.2794   -1.7263    3.0182 C   0  0  0  0  0 15  0  0  0  0  0  0
   64.6024   -1.3089    3.7777 H   0  0  0  0  0 15  0  0  0  0  0  0
   66.0424   -2.3220    3.5477 H   0  0  0  0  0 15  0  0  0  0  0  0
   64.5014   -2.6381    2.0954 C   0  0  0  0  0 15  0  0  0  0  0  0
   65.0314   -3.6526    1.6719 O   0  0  0  0  0 15  0  0  0  0  0  0
   63.2374   -2.3182    1.7523 N   0  0  0  0  0 15  0  0  0  0  0  0
   62.7844   -1.4937    2.0987 H   0  0  0  0  0 15  0  0  0  0  0  0
   62.7424   -2.9309    1.1377 H   0  0  0  0  0 15  0  0  0  0  0  0
   66.5145   -1.5754    0.0418 N   0  0  0  0  0 15  0  0  0  0  0  0
   67.9305   -1.5647   -0.3147 C   0  0  0  0  0 15  0  0  0  0  0  0
   68.1305   -1.0486   -1.7207 C   0  0  0  0  0 15  0  0  0  0  0  0
   67.1865   -0.7010   -2.4257 O   0  0  0  0  0 15  0  0  0  0  0  0
   68.4995   -3.0032   -0.1517 C   0  0  0  0  0 15  0  0  0  0  0  0
   70.0475   -3.1220   -0.2236 C   0  0  0  0  0 15  0  0  0  0  0  0
   70.5225   -4.5791   -0.0892 C   0  0  0  0  0 15  0  0  0  0  0  0
   72.0135   -4.6297   -0.1458 N   0  0  0  0  0 15  0  0  0  0  0  0
   72.7485   -5.7336   -0.0658 C   0  0  0  0  0 15  0  0  0  0  0  0
   72.2445   -6.9277    0.0659 N   0  0  0  0  0 15  0  0  0  0  0  0
   74.0375   -5.6197   -0.1208 N   0  0  0  0  0 15  0  0  0  0  0  0
   66.1885   -1.8942    0.9610 H   0  0  0  0  0 15  0  0  0  0  0  0
   68.4515   -0.8719    0.3722 H   0  0  0  0  0 15  0  0  0  0  0  0
   68.1575   -3.4207    0.8173 H   0  0  0  0  0 15  0  0  0  0  0  0
   68.0315   -3.6589   -0.9167 H   0  0  0  0  0 15  0  0  0  0  0  0
   70.4185   -2.7035   -1.1830 H   0  0  0  0  0 15  0  0  0  0  0  0
   70.4995   -2.4932    0.5720 H   0  0  0  0  0 15  0  0  0  0  0  0
   70.1435   -5.0045    0.8669 H   0  0  0  0  0 15  0  0  0  0  0  0
   70.0735   -5.1879   -0.9038 H   0  0  0  0  0 15  0  0  0  0  0  0
   72.5645   -3.7709   -0.2473 H   0  0  0  0  0 15  0  0  0  0  0  0
   72.8775   -7.7271    0.1199 H   0  0  0  0  0 15  0  0  0  0  0  0
   71.2225   -6.9493    0.1009 H   0  0  0  0  0 15  0  0  0  0  0  0
   74.4135   -4.6757   -0.2222 H   0  0  0  0  0 15  0  0  0  0  0  0
   74.5865   -6.4798   -0.0550 H   0  0  0  0  0 15  0  0  0  0  0  0
   67.9926    0.2315   -1.5589 N   0  0  0  0  0 15  0  0  0  0  0  0
   69.2396    0.9574   -1.7844 C   0  0  0  0  0 15  0  0  0  0  0  0
   69.5676    1.8473   -0.6088 C   0  0  0  0  0 15  0  0  0  0  0  0
   68.8226    1.9142    0.4072 O   0  0  0  0  0 15  0  0  0  0  0  0
   69.1216    1.8358   -3.0665 C   0  0  0  0  0 15  0  0  0  0  0  0
   68.7876    1.0999   -4.3728 C   0  0  0  0  0 15  0  0  0  0  0  0
   67.4496    0.8966   -4.7277 C   0  0  0  0  0 15  0  0  0  0  0  0
   69.8016    0.5796   -5.1797 C   0  0  0  0  0 15  0  0  0  0  0  0
   67.1296    0.1609   -5.8648 C   0  0  0  0  0 15  0  0  0  0  0  0
   69.4816   -0.1428   -6.3244 C   0  0  0  0  0 15  0  0  0  0  0  0
   68.1456   -0.3574   -6.6654 C   0  0  0  0  0 15  0  0  0  0  0  0
   67.4156    0.3503   -0.6530 H   0  0  0  0  0 15  0  0  0  0  0  0
   70.0626    0.2263   -1.9016 H   0  0  0  0  0 15  0  0  0  0  0  0
   68.3676    2.6344   -2.9001 H   0  0  0  0  0 15  0  0  0  0  0  0
   70.0646    2.3993   -3.2130 H   0  0  0  0  0 15  0  0  0  0  0  0
   66.6546    1.2683   -4.0940 H   0  0  0  0  0 15  0  0  0  0  0  0
   70.8386    0.7241   -4.9099 H   0  0  0  0  0 15  0  0  0  0  0  0
   66.0946   -0.0157   -6.1140 H   0  0  0  0  0 15  0  0  0  0  0  0
   70.2686   -0.5536   -6.9420 H   0  0  0  0  0 15  0  0  0  0  0  0
   67.8956   -0.9295   -7.5450 H   0  0  0  0  0 15  0  0  0  0  0  0
   69.4707    1.4953    0.4978 N   0  0  0  0  0 15  0  0  0  0  0  0
   70.3807    1.6918    1.6253 C   0  0  0  0  0 15  0  0  0  0  0  0
   71.3967    0.5744    1.6425 C   0  0  0  0  0 15  0  0  0  0  0  0
   72.5727    0.8495    1.8261 O   0  0  0  0  0 15  0  0  0  0  0  0
   69.6377    1.7569    2.9889 C   0  0  0  0  0 15  0  0  0  0  0  0
   68.6987    2.9929    3.0777 C   0  0  0  0  0 15  0  0  0  0  0  0
   67.9317    3.0549    4.3762 C   0  0  0  0  0 15  0  0  0  0  0  0
   68.1547    2.1919    5.2660 O   0  0  0  0  0 15  0  0  0  0  0  0
   67.0887    3.9798    4.5155 O   0  0  0  0  0 15  0  0  0  0  0  0
   70.9147    2.6470    1.4889 H   0  0  0  0  0 15  0  0  0  0  0  0
   68.4997    1.3331    0.6744 H   0  0  0  0  0 15  0  0  0  0  0  0
   70.3817    1.8232    3.7992 H   0  0  0  0  0 15  0  0  0  0  0  0
   69.0567    0.8335    3.1279 H   0  0  0  0  0 15  0  0  0  0  0  0
   67.9637    2.9818    2.2591 H   0  0  0  0  0 15  0  0  0  0  0  0
   69.2967    3.9113    2.9880 H   0  0  0  0  0 15  0  0  0  0  0  0
   70.9488   -0.7491    1.3866 N   0  0  0  0  0 15  0  0  0  0  0  0
   72.1738   -1.5434    1.3854 C   0  0  0  0  0 15  0  0  0  0  0  0
   72.5988   -1.8809   -0.0217 C   0  0  0  0  0 15  0  0  0  0  0  0
   71.9568   -1.5090   -1.0049 O   0  0  0  0  0 15  0  0  0  0  0  0
   72.0048   -2.8164    2.2519 C   0  0  0  0  0 15  0  0  0  0  0  0
   71.1088   -3.7698    1.6721 O   0  0  0  0  0 15  0  0  0  0  0  0
   70.4498   -0.4667    0.4724 H   0  0  0  0  0 15  0  0  0  0  0  0
   72.9798   -0.9254    1.8248 H   0  0  0  0  0 15  0  0  0  0  0  0
   72.9898   -3.3052    2.3921 H   0  0  0  0  0 15  0  0  0  0  0  0
   71.6648   -2.5641    3.2745 H   0  0  0  0  0 15  0  0  0  0  0  0
   70.2418   -3.3570    1.6236 H   0  0  0  0  0 15  0  0  0  0  0  0
   72.4269   -1.2360   -0.9778 N   0  0  0  0  0 15  0  0  0  0  0  0
   73.3569   -1.0440   -2.0886 C   0  0  0  0  0 15  0  0  0  0  0  0
   74.3379    0.0399   -1.7005 C   0  0  0  0  0 15  0  0  0  0  0  0
   75.5229   -0.1252   -1.9380 O   0  0  0  0  0 15  0  0  0  0  0  0
   72.6529   -0.6373   -3.4140 C   0  0  0  0  0 15  0  0  0  0  0  0
   71.6069   -1.6688   -3.9412 C   0  0  0  0  0 15  0  0  0  0  0  0
   70.9329   -1.1174   -5.2289 C   0  0  0  0  0 15  0  0  0  0  0  0
   72.2329   -3.0625   -4.2310 C   0  0  0  0  0 15  0  0  0  0  0  0
   73.9269   -1.9732   -2.2518 H   0  0  0  0  0 15  0  0  0  0  0  0
   71.4729   -0.9501   -1.0821 H   0  0  0  0  0 15  0  0  0  0  0  0
   73.4259   -0.4900   -4.1854 H   0  0  0  0  0 15  0  0  0  0  0  0
   72.1499    0.3276   -3.2495 H   0  0  0  0  0 15  0  0  0  0  0  0
   70.8089   -1.8042   -3.1913 H   0  0  0  0  0 15  0  0  0  0  0  0
   70.4569   -0.1435   -5.0280 H   0  0  0  0  0 15  0  0  0  0  0  0
   70.1569   -1.8067   -5.5913 H   0  0  0  0  0 15  0  0  0  0  0  0
   71.6809   -0.9821   -6.0265 H   0  0  0  0  0 15  0  0  0  0  0  0
   73.0949   -2.9600   -4.9097 H   0  0  0  0  0 15  0  0  0  0  0  0
   71.4919   -3.7244   -4.7054 H   0  0  0  0  0 15  0  0  0  0  0  0
   72.5619   -3.5504   -3.3026 H   0  0  0  0  0 15  0  0  0  0  0  0
   73.9050    1.1769   -1.0482 N   0  0  0  0  0 15  0  0  0  0  0  0
   74.8150    2.2523   -0.6564 C   0  0  0  0  0 15  0  0  0  0  0  0
   75.8310    1.7102    0.3208 C   0  0  0  0  0 15  0  0  0  0  0  0
   77.0070    2.0065    0.1738 O   0  0  0  0  0 15  0  0  0  0  0  0
   74.0720    3.4668   -0.0333 C   0  0  0  0  0 15  0  0  0  0  0  0
   73.1330    4.1600   -1.0604 C   0  0  0  0  0 15  0  0  0  0  0  0
   72.3660    5.3165   -0.4669 C   0  0  0  0  0 15  0  0  0  0  0  0
   72.5890    5.6578    0.7248 O   0  0  0  0  0 15  0  0  0  0  0  0
   71.5230    5.8983   -1.1993 O   0  0  0  0  0 15  0  0  0  0  0  0
   75.3490    2.6102   -1.5526 H   0  0  0  0  0 15  0  0  0  0  0  0
   72.9340    1.2492   -0.8195 H   0  0  0  0  0 15  0  0  0  0  0  0
   74.8160    4.2023    0.3133 H   0  0  0  0  0 15  0  0  0  0  0  0
   73.4910    3.1270    0.8366 H   0  0  0  0  0 15  0  0  0  0  0  0
   72.3980    3.4448   -1.4589 H   0  0  0  0  0 15  0  0  0  0  0  0
   73.7310    4.5400   -1.9013 H   0  0  0  0  0 15  0  0  0  0  0  0
   75.3831    0.8287    1.3406 N   0  0  0  0  0 15  0  0  0  0  0  0
   76.2931    0.2567    2.3319 C   0  0  0  0  0 15  0  0  0  0  0  0
   77.3091   -0.6119    1.6289 C   0  0  0  0  0 15  0  0  0  0  0  0
   78.4851   -0.5184    1.9461 O   0  0  0  0  0 15  0  0  0  0  0  0
   75.5501   -0.5672    3.4203 C   0  0  0  0  0 15  0  0  0  0  0  0
   74.6111    0.3245    4.2807 C   0  0  0  0  0 15  0  0  0  0  0  0
   73.8441   -0.4603    5.3171 C   0  0  0  0  0 15  0  0  0  0  0  0
   74.0671   -1.6930    5.4470 O   0  0  0  0  0 15  0  0  0  0  0  0
   73.0011    0.1604    6.0169 O   0  0  0  0  0 15  0  0  0  0  0  0
   76.8271    1.0774    2.8395 H   0  0  0  0  0 15  0  0  0  0  0  0
   74.4121    0.5909    1.3722 H   0  0  0  0  0 15  0  0  0  0  0  0
   76.2941   -1.0358    4.0847 H   0  0  0  0  0 15  0  0  0  0  0  0
   74.9691   -1.3651    2.9351 H   0  0  0  0  0 15  0  0  0  0  0  0
   73.8761    0.8407    3.6453 H   0  0  0  0  0 15  0  0  0  0  0  0
   75.2091    1.0869    4.8005 H   0  0  0  0  0 15  0  0  0  0  0  0
   76.8612   -1.4637    0.5841 N   0  0  0  0  0 15  0  0  0  0  0  0
   78.1012   -2.0427    0.0730 C   0  0  0  0  0 15  0  0  0  0  0  0
   78.4652   -1.4456   -1.2636 C   0  0  0  0  0 15  0  0  0  0  0  0
   79.6662   -1.9367   -1.8640 O   0  0  0  0  0 15  0  0  0  0  0  0
   77.9372   -3.5740    0.0097 C   0  0  0  0  0 15  0  0  0  0  0  0
   79.4962   -4.3655   -0.4437 S   0  0  0  0  0 15  0  0  0  0  0  0
   76.3142   -0.7100    0.0382 H   0  0  0  0  0 15  0  0  0  0  0  0
   78.9162   -1.7940    0.7770 H   0  0  0  0  0 15  0  0  0  0  0  0
   77.6202   -3.9837    0.9863 H   0  0  0  0  0 15  0  0  0  0  0  0
   77.1512   -3.8681   -0.7170 H   0  0  0  0  0 15  0  0  0  0  0  0
   79.1662   -4.6624   -1.6982 H   0  0  0  0  0 15  0  0  0  0  0  0
   78.3393   -0.3220   -1.5428 N   0  0  0  0  0 15  0  0  0  0  0  0
   79.2863    0.5447   -2.2428 C   0  0  0  0  0 15  0  0  0  0  0  0
   80.2563    1.1129   -1.2330 C   0  0  0  0  0 15  0  0  0  0  0  0
   81.4413    1.1535   -1.5198 O   0  0  0  0  0 15  0  0  0  0  0  0
   78.5813    1.7004   -3.0030 C   0  0  0  0  0 15  0  0  0  0  0  0
   77.6943    1.1616   -4.1609 C   0  0  0  0  0 15  0  0  0  0  0  0
   76.8293    2.2829   -4.7964 C   0  0  0  0  0 15  0  0  0  0  0  0
   75.8683    1.7165   -5.8754 C   0  0  0  0  0 15  0  0  0  0  0  0
   75.0053    2.7744   -6.4496 N   0  0  0  0  0 15  0  0  0  0  0  0
   79.8453   -0.0589   -2.9794 H   0  0  0  0  0 15  0  0  0  0  0  0
   77.3823   -0.0408   -1.4704 H   0  0  0  0  0 15  0  0  0  0  0  0
   79.3403    2.3805   -3.4262 H   0  0  0  0  0 15  0  0  0  0  0  0
   77.9703    2.2753   -2.2897 H   0  0  0  0  0 15  0  0  0  0  0  0
   77.0223    0.3731   -3.7857 H   0  0  0  0  0 15  0  0  0  0  0  0
   78.3343    0.7071   -4.9376 H   0  0  0  0  0 15  0  0  0  0  0  0
   77.4883    3.0421   -5.2492 H   0  0  0  0  0 15  0  0  0  0  0  0
   76.2273    2.7708   -4.0135 H   0  0  0  0  0 15  0  0  0  0  0  0
   75.2323    0.9423   -5.4167 H   0  0  0  0  0 15  0  0  0  0  0  0
   76.4573    1.2374   -6.6773 H   0  0  0  0  0 15  0  0  0  0  0  0
   74.4033    3.2552   -5.6954 H   0  0  0  0  0 15  0  0  0  0  0  0
   74.3203    2.3655   -7.1804 H   0  0  0  0  0 15  0  0  0  0  0  0
   75.5883    3.5319   -6.9489 H   0  0  0  0  0 15  0  0  0  0  0  0
   79.8174    1.5752   -0.0501 N   0  0  0  0  0 15  0  0  0  0  0  0
   80.7644    2.1147    0.9246 C   0  0  0  0  0 15  0  0  0  0  0  0
   81.7344    1.0218    1.3095 C   0  0  0  0  0 15  0  0  0  0  0  0
   82.9194    1.2972    1.3992 O   0  0  0  0  0 15  0  0  0  0  0  0
   80.0594    2.6634    2.1945 C   0  0  0  0  0 15  0  0  0  0  0  0
   79.1724    3.8971    1.8642 C   0  0  0  0  0 15  0  0  0  0  0  0
   78.3074    4.3289    3.0786 C   0  0  0  0  0 15  0  0  0  0  0  0
   77.3464    5.4897    2.7074 C   0  0  0  0  0 15  0  0  0  0  0  0
   76.4834    5.8721    3.8487 N   0  0  0  0  0 15  0  0  0  0  0  0
   81.3234    2.9447    0.4576 H   0  0  0  0  0 15  0  0  0  0  0  0
   78.8604    1.4553    0.2143 H   0  0  0  0  0 15  0  0  0  0  0  0
   80.8184    2.9625    2.9376 H   0  0  0  0  0 15  0  0  0  0  0  0
   79.4484    1.8614    2.6373 H   0  0  0  0  0 15  0  0  0  0  0  0
   78.5004    3.6640    1.0226 H   0  0  0  0  0 15  0  0  0  0  0  0
   79.8124    4.7407    1.5510 H   0  0  0  0  0 15  0  0  0  0  0  0
   78.9664    4.6435    3.9047 H   0  0  0  0  0 15  0  0  0  0  0  0
   77.7054    3.4734    3.4236 H   0  0  0  0  0 15  0  0  0  0  0  0
   76.7104    5.1718    1.8655 H   0  0  0  0  0 15  0  0  0  0  0  0
   77.9354    6.3624    2.3744 H   0  0  0  0  0 15  0  0  0  0  0  0
   75.8814    5.0461    4.1918 H   0  0  0  0  0 15  0  0  0  0  0  0
   75.7984    6.6627    3.5725 H   0  0  0  0  0 15  0  0  0  0  0  0
   77.0664    6.2328    4.6812 H   0  0  0  0  0 15  0  0  0  0  0  0
   81.2955   -0.2232    1.5601 N   0  0  0  0  0 15  0  0  0  0  0  0
   82.2285   -1.3038    1.8729 C   0  0  0  0  0 15  0  0  0  0  0  0
   83.2065   -1.4529    0.7301 C   0  0  0  0  0 15  0  0  0  0  0  0
   84.3905   -1.6113    0.9783 O   0  0  0  0  0 15  0  0  0  0  0  0
   81.5175   -2.6743    2.0784 C   0  0  0  0  0 15  0  0  0  0  0  0
   80.5635   -2.6955    3.3053 C   0  0  0  0  0 15  0  0  0  0  0  0
   81.3965   -2.2378    4.8650 S   0  0  0  0  0 15  0  0  0  0  0  0
   82.5525   -3.6271    5.1009 C   0  0  0  0  0 15  0  0  0  0  0  0
   82.7855   -1.0365    2.7865 H   0  0  0  0  0 15  0  0  0  0  0  0
   80.3185   -0.4254    1.4842 H   0  0  0  0  0 15  0  0  0  0  0  0
   82.2765   -3.4634    2.2037 H   0  0  0  0  0 15  0  0  0  0  0  0
   80.9375   -2.9138    1.1729 H   0  0  0  0  0 15  0  0  0  0  0  0
   80.1305   -3.7025    3.4195 H   0  0  0  0  0 15  0  0  0  0  0  0
   79.7325   -1.9870    3.1685 H   0  0  0  0  0 15  0  0  0  0  0  0
   82.0245   -4.5839    4.9888 H   0  0  0  0  0 15  0  0  0  0  0  0
   82.9675   -3.5621    6.1198 H   0  0  0  0  0 15  0  0  0  0  0  0
   83.3755   -3.5632    4.3783 H   0  0  0  0  0 15  0  0  0  0  0  0
   82.7736   -1.4979   -0.4899 N   0  0  0  0  0 15  0  0  0  0  0  0
   84.0136   -1.6147   -1.2533 C   0  0  0  0  0 15  0  0  0  0  0  0
   84.3776   -0.2997   -1.8965 C   0  0  0  0  0 15  0  0  0  0  0  0
   85.5786   -0.2917   -2.6721 O   0  0  0  0  0 15  0  0  0  0  0  0
   83.8496   -2.7494   -2.2834 C   0  0  0  0  0 15  0  0  0  0  0  0
   85.4086   -3.0664   -3.1388 S   0  0  0  0  0 15  0  0  0  0  0  0
   82.2266   -0.5694   -0.4258 H   0  0  0  0  0 15  0  0  0  0  0  0
   84.8286   -1.8750   -0.5535 H   0  0  0  0  0 15  0  0  0  0  0  0
   83.5326   -3.6899   -1.7964 H   0  0  0  0  0 15  0  0  0  0  0  0
   83.0636   -2.5094   -3.0297 H   0  0  0  0  0 15  0  0  0  0  0  0
   85.0786   -2.4901   -4.2919 H   0  0  0  0  0 15  0  0  0  0  0  0
   84.2517    0.7417   -1.3905 N   0  0  0  0  0 15  0  0  0  0  0  0
   85.4797    1.5310   -1.3917 C   0  0  0  0  0 15  0  0  0  0  0  0
   85.8947    1.8879    0.0155 C   0  0  0  0  0 15  0  0  0  0  0  0
   85.2517    1.5363    0.9852 O   0  0  0  0  0 15  0  0  0  0  0  0
   85.3027    2.8227   -2.2584 C   0  0  0  0  0 15  0  0  0  0  0  0
   85.0237    2.4810   -3.6108 O   0  0  0  0  0 15  0  0  0  0  0  0
   86.5247    3.7634   -2.3427 C   0  0  0  0  0 15  0  0  0  0  0  0
   83.7447    0.4733   -0.4756 H   0  0  0  0  0 15  0  0  0  0  0  0
   86.2887    0.9170   -1.8279 H   0  0  0  0  0 15  0  0  0  0  0  0
   84.4437    3.4002   -1.8566 H   0  0  0  0  0 15  0  0  0  0  0  0
   84.8577    3.3103   -4.0684 H   0  0  0  0  0 15  0  0  0  0  0  0
   86.3317    4.6390   -2.9917 H   0  0  0  0  0 15  0  0  0  0  0  0
   86.8087    4.1762   -1.3598 H   0  0  0  0  0 15  0  0  0  0  0  0
   87.4147    3.2452   -2.7489 H   0  0  0  0  0 15  0  0  0  0  0  0
   85.7298    1.2412    0.9712 N   0  0  0  0  0 15  0  0  0  0  0  0
   87.1458    1.0058    1.2392 C   0  0  0  0  0 15  0  0  0  0  0  0
   87.3458   -0.2875    1.9944 C   0  0  0  0  0 15  0  0  0  0  0  0
   86.4018   -1.0045    2.3166 O   0  0  0  0  0 15  0  0  0  0  0  0
   87.7148    2.2186    2.0297 C   0  0  0  0  0 15  0  0  0  0  0  0
   89.2628    2.2645    2.1608 C   0  0  0  0  0 15  0  0  0  0  0  0
   89.7378    3.4734    2.9852 C   0  0  0  0  0 15  0  0  0  0  0  0
   91.2288    3.4764    3.0611 N   0  0  0  0  0 15  0  0  0  0  0  0
   91.9638    4.3784    3.7025 C   0  0  0  0  0 15  0  0  0  0  0  0
   91.4598    5.3829    4.3614 N   0  0  0  0  0 15  0  0  0  0  0  0
   93.2528    4.2556    3.6723 N   0  0  0  0  0 15  0  0  0  0  0  0
   85.4038    2.0724    0.4655 H   0  0  0  0  0 15  0  0  0  0  0  0
   87.6668    0.9092    0.2683 H   0  0  0  0  0 15  0  0  0  0  0  0
   87.3728    3.1577    1.5486 H   0  0  0  0  0 15  0  0  0  0  0  0
   87.2468    2.2370    3.0371 H   0  0  0  0  0 15  0  0  0  0  0  0
   89.6338    1.3308    2.6339 H   0  0  0  0  0 15  0  0  0  0  0  0
   89.7148    2.2864    1.1470 H   0  0  0  0  0 15  0  0  0  0  0  0
   89.3588    4.4103    2.5190 H   0  0  0  0  0 15  0  0  0  0  0  0
   89.2888    3.4239    4.0009 H   0  0  0  0  0 15  0  0  0  0  0  0
   91.7798    2.7497    2.5923 H   0  0  0  0  0 15  0  0  0  0  0  0
   92.0928    6.0335    4.8289 H   0  0  0  0  0 15  0  0  0  0  0  0
   90.4378    5.4218    4.3482 H   0  0  0  0  0 15  0  0  0  0  0  0
   93.6288    3.4632    3.1493 H   0  0  0  0  0 15  0  0  0  0  0  0
   93.8018    4.9605    4.1693 H   0  0  0  0  0 15  0  0  0  0  0  0
   87.2079   -1.1713    1.0544 N   0  0  0  0  0 15  0  0  0  0  0  0
   88.4849   -1.8341    0.6797 C   0  0  0  0  0 15  0  0  0  0  0  0
   88.8649   -1.9368   -0.8397 C   0  0  0  0  0 15  0  0  0  0  0  0
   88.2129   -1.4732   -1.7466 O   0  0  0  0  0 15  0  0  0  0  0  0
   88.4229   -3.2092    1.3716 C   0  0  0  0  0 15  0  0  0  0  0  0
   89.7709   -3.9680    1.5112 C   0  0  0  0  0 15  0  0  0  0  0  0
   90.7949   -3.3041    1.3308 O   0  0  0  0  0 15  0  0  0  0  0  0
   89.6539   -5.1578    1.8065 O   0  0  0  0  0 15  0  0  0  0  0  0
   86.7479   -0.7915    0.2396 H   0  0  0  0  0 15  0  0  0  0  0  0
   89.2939   -1.2441    1.1541 H   0  0  0  0  0 15  0  0  0  0  0  0
   88.0659   -3.0843    2.4081 H   0  0  0  0  0 15  0  0  0  0  0  0
   87.6889   -3.8759    0.8867 H   0  0  0  0  0 15  0  0  0  0  0  0
   88.7249   -0.9705   -1.2908 O   0  0  0  0  0 15  0  0  0  0  0  0
   89.4159   -0.6106   -1.8382 H   0  0  0  0  0 15  0  0  0  0  0  0
M  END
$$$$
