drugbank_drug|DB05258 Interferon alpha-10
 OpenBabel12092119123D

  0  0  0     0  0            999 V3000
M  V30 BEGIN CTAB
M  V30 COUNTS 2716 2740 0 0 0
M  V30 BEGIN ATOM
M  V30 1 H -0.908 1.98254 -0.117106 0
M  V30 2 N 0 1.576 0 0
M  V30 3 C 1.24 1.92425 0.68935 0
M  V30 4 C 1.604 0.874325 1.70937 0
M  V30 5 O 2.805 1.10782 2.4491 0
M  V30 6 C 1.076 3.32301 1.31571 0
M  V30 7 S 2.635 3.89011 2.03018 0
M  V30 8 H -0.547 0.673552 0.227702 0
M  V30 9 H 2.055 1.95418 -0.0566871 0
M  V30 10 H 0.759 4.06555 0.560491 0
M  V30 11 H 0.29 3.32682 2.09968 0
M  V30 12 H 2.305 3.70086 3.30531 0
M  V30 13 N 1.4781 -0.272755 1.55222 0
M  V30 14 C 2.7551 -1.02562 1.66555 0
M  V30 15 C 3.1351 -2.04282 0.532189 0
M  V30 16 O 2.4831 -2.23662 -0.467717 0
M  V30 17 C 2.6931 -1.6822 3.05782 0
M  V30 18 C 4.0411 -2.19373 3.63539 0
M  V30 19 O 5.0651 -1.78206 3.08417 0
M  V30 20 O 3.9241 -2.94883 4.60115 0
M  V30 21 H 1.0181 -0.475755 0.676451 0
M  V30 22 H 3.5641 -0.268593 1.67561 0
M  V30 23 H 2.3361 -0.945112 3.79715 0
M  V30 24 H 1.9591 -2.50609 3.08676 0
M  V30 25 N 2.9562 -1.48159 -0.537278 0
M  V30 26 C 3.8862 -1.65029 -1.6519 0
M  V30 27 C 4.8672 -0.499281 -1.62607 0
M  V30 28 O 6.0522 -0.730972 -1.79918 0
M  V30 29 C 3.1822 -1.68303 -3.03795 0
M  V30 30 C 2.1362 -2.8283 -3.21234 0
M  V30 31 C 1.4622 -2.71189 -4.60826 0
M  V30 32 C 2.7622 -4.24211 -3.04701 0
M  V30 33 H 4.4562 -2.58341 -1.51328 0
M  V30 34 H 2.0022 -1.24325 -0.726585 0
M  V30 35 H 3.9552 -1.78693 -3.81637 0
M  V30 36 H 2.6792 -0.715635 -3.18663 0
M  V30 37 H 1.3382 -2.71983 -2.45807 0
M  V30 38 H 0.9862 -1.72435 -4.7252 0
M  V30 39 H 0.6862 -3.48035 -4.7344 0
M  V30 40 H 2.2102 -2.83537 -5.40777 0
M  V30 41 H 3.6242 -4.3593 -3.72341 0
M  V30 42 H 2.0212 -5.01998 -3.28813 0
M  V30 43 H 3.0912 -4.41184 -2.01209 0
M  V30 44 N 4.4343 0.785586 -1.36625 0
M  V30 45 C 5.8453 1.36101 -1.27803 0
M  V30 46 C 6.1963 1.96035 0.0804875 0
M  V30 47 O 5.3213 1.92834 0.982042 0
M  V30 48 C 5.9163 2.47442 -2.31426 0
M  V30 49 C 4.4753 3.00789 -2.26281 0
M  V30 50 C 3.6223 1.73896 -2.15999 0
M  V30 51 H 6.5733 0.586928 -1.47448 0
M  V30 52 H 6.5943 3.2656 -1.95291 0
M  V30 53 H 6.1063 2.03791 -3.30289 0
M  V30 54 H 4.2073 3.48851 -1.30896 0
M  V30 55 H 4.3203 3.57343 -3.19128 0
M  V30 56 H 2.6843 1.9628 -1.62316 0
M  V30 57 H 3.4673 1.32368 -3.16755 0
M  V30 58 N 5.9124 1.20967 1.01018 0
M  V30 59 C 6.8444 0.922059 2.09835 0
M  V30 60 C 7.8574 -0.0927106 1.62536 0
M  V30 61 O 9.0464 0.139127 1.77957 0
M  V30 62 C 6.1464 0.362004 3.36961 0
M  V30 63 C 5.3194 1.42986 4.13369 0
M  V30 64 C 4.3784 0.879976 5.1879 0
M  V30 65 O 3.4044 1.56219 5.47343 0
M  V30 66 N 4.6064 -0.307396 5.79686 0
M  V30 67 H 7.3714 1.8588 2.35093 0
M  V30 68 H 4.9324 1.11422 1.1746 0
M  V30 69 H 6.9244 -0.0201474 4.04695 0
M  V30 70 H 5.4944 -0.479437 3.08902 0
M  V30 71 H 4.7144 1.98608 3.40512 0
M  V30 72 H 6.0024 2.14885 4.61196 0
M  V30 73 H 5.4004 -0.878796 5.58832 0
M  V30 74 H 3.9574 -0.631115 6.48737 0
M  V30 75 N 7.3905 -1.2043 1.01659 0
M  V30 76 C 8.6185 -1.93777 0.725132 0
M  V30 77 C 9.0335 -1.74772 -0.714166 0
M  V30 78 O 8.3905 -1.06169 -1.4844 0
M  V30 79 C 8.4415 -3.45876 1.05129 0
M  V30 80 O 8.1625 -3.6426 2.43406 0
M  V30 81 C 9.6635 -4.36368 0.780891 0
M  V30 82 H 6.8835 -0.615901 0.266284 0
M  V30 83 H 9.4275 -1.52922 1.35776 0
M  V30 84 H 7.5825 -3.8461 0.464065 0
M  V30 85 H 7.9965 -4.58246 2.55169 0
M  V30 86 H 9.4705 -5.41743 1.05918 0
M  V30 87 H 9.9475 -4.38275 -0.284937 0
M  V30 88 H 10.5535 -4.03296 1.35027 0
M  V30 89 N 8.8686 -0.792821 -1.36206 0
M  V30 90 C 9.8186 -0.166598 -2.27391 0
M  V30 91 C 10.8026 0.651479 -1.47121 0
M  V30 92 O 11.9946 0.510994 -1.69463 0
M  V30 93 C 9.1236 0.695033 -3.36191 0
M  V30 94 C 8.2096 -0.132019 -4.23894 0
M  V30 95 N 8.6006 -1.18822 -4.91645 0
M  V30 96 C 6.8986 0.0885952 -4.45912 0
M  V30 97 C 7.5996 -1.69198 -5.56549 0
M  V30 98 N 6.5756 -1.00065 -5.34311 0
M  V30 99 H 10.3776 -0.974947 -2.77258 0
M  V30 100 H 7.8916 -0.632616 -1.49572 0
M  V30 101 H 9.8886 1.1596 -4.00448 0
M  V30 102 H 8.5486 1.50189 -2.87877 0
M  V30 103 H 9.5596 -1.57069 -4.93507 0
M  V30 104 H 6.2366 0.865688 -4.08426 0
M  V30 105 H 7.6266 -2.57395 -6.20643 0
M  V30 106 N 10.3467 1.47872 -0.545128 0
M  V30 107 C 11.5717 2.07391 -0.0190611 0
M  V30 108 C 11.9967 1.39688 1.25971 0
M  V30 109 O 11.3547 0.467816 1.7516 0
M  V30 110 C 11.4027 3.60188 0.172335 0
M  V30 111 O 10.5067 3.9339 1.23766 0
M  V30 112 H 9.8477 0.662411 -0.0459059 0
M  V30 113 H 12.3777 1.90066 -0.757365 0
M  V30 114 H 12.3877 4.06129 0.390305 0
M  V30 115 H 11.0627 4.08865 -0.761725 0
M  V30 116 H 9.6397 3.5921 1.00114 0
M  V30 117 N 11.8248 0.280983 1.55075 0
M  V30 118 C 12.7548 -0.597469 2.25727 0
M  V30 119 C 13.7358 -1.15417 1.24952 0
M  V30 120 O 14.9208 -1.18722 1.53684 0
M  V30 121 C 12.0508 -1.7789 2.98283 0
M  V30 122 C 11.0048 -1.35347 4.06036 0
M  V30 123 C 10.3308 -2.61846 4.66198 0
M  V30 124 C 11.6308 -0.499354 5.19907 0
M  V30 125 H 13.3248 -0.00824265 2.99399 0
M  V30 126 H 10.8708 -0.0025244 1.44 0
M  V30 127 H 12.8238 -2.39937 3.46422 0
M  V30 128 H 11.5478 -2.39405 2.22155 0
M  V30 129 H 10.2068 -0.756156 3.58717 0
M  V30 130 H 9.8548 -3.21632 3.86732 0
M  V30 131 H 9.5548 -2.3409 5.38958 0
M  V30 132 H 11.0788 -3.24732 5.1709 0
M  V30 133 H 12.4928 -1.02498 5.64063 0
M  V30 134 H 10.8898 -0.316424 5.99265 0
M  V30 135 H 11.9598 0.480459 4.82514 0
M  V30 136 N 13.3029 -1.57598 0.00835791 0
M  V30 137 C 14.5509 -1.90551 -0.6734 0
M  V30 138 C 14.8719 -0.883301 -1.73847 0
M  V30 139 O 14.1419 0.0781442 -1.95744 0
M  V30 140 H 12.7219 -0.703312 -0.251717 0
M  V30 141 H 15.3839 -1.94833 0.0512592 0
M  V30 142 H 14.4799 -2.9056 -1.13935 0
M  V30 143 N 14.781 0.264519 -1.55364 0
M  V30 144 C 15.729 1.34702 -1.89626 0
M  V30 145 C 16.723 1.50712 -0.773459 0
M  V30 146 O 17.929 1.52395 -0.957897 0
M  V30 147 H 14.304 0.450682 -0.601988 0
M  V30 148 H 16.275 1.0306 -2.80038 0
M  V30 149 C 15.024 2.6989 -2.19214 0
M  V30 150 H 14.347 2.58365 -3.05103 0
M  V30 151 H 15.787 3.44553 -2.47102 0
M  V30 152 C 14.246 3.21637 -1.00254 0
M  V30 153 O 14.776 4.00973 -0.241501 0
M  V30 154 N 12.982 2.7943 -0.797938 0
M  V30 155 H 12.529 2.15026 -1.4185 0
M  V30 156 H 12.487 3.144 -0.00363422 0
M  V30 157 N 16.2591 1.48442 0.529413 0
M  V30 158 C 17.6751 1.34575 0.858004 0
M  V30 159 C 17.8751 0.3572 1.98309 0
M  V30 160 O 16.9311 -0.221379 2.51528 0
M  V30 161 C 18.2441 2.74617 1.22499 0
M  V30 162 C 19.7921 2.83109 1.33484 0
M  V30 163 C 20.2671 4.23854 1.73526 0
M  V30 164 N 21.7581 4.2653 1.80628 0
M  V30 165 C 22.4931 5.32372 2.12997 0
M  V30 166 N 21.9891 6.48491 2.43786 0
M  V30 167 N 23.7821 5.19766 2.14008 0
M  V30 168 H 15.9331 2.1133 -0.212925 0
M  V30 169 H 18.1961 0.947439 -0.0326199 0
M  V30 170 H 17.9021 3.4852 0.471905 0
M  V30 171 H 17.7761 3.08177 2.17501 0
M  V30 172 H 20.1631 2.09462 2.0787 0
M  V30 173 H 20.2441 2.53168 0.366027 0
M  V30 174 H 19.8881 4.98018 0.997013 0
M  V30 175 H 19.8181 4.5124 2.71459 0
M  V30 176 H 22.3091 3.42772 1.59108 0
M  V30 177 H 22.6221 7.24993 2.67592 0
M  V30 178 H 20.9671 6.51765 2.41304 0
M  V30 179 H 24.1581 4.28066 1.89412 0
M  V30 180 H 24.3311 6.02354 2.38902 0
M  V30 181 N 17.7372 -0.778329 1.37039 0
M  V30 182 C 19.1532 -1.07796 1.17695 0
M  V30 183 C 19.3532 -2.01498 0.00860115 0
M  V30 184 O 18.4092 -2.43901 -0.653352 0
M  V30 185 C 19.7222 -1.68178 2.49272 0
M  V30 186 C 21.2702 -1.80467 2.55735 0
M  V30 187 C 21.7452 -2.44263 3.87427 0
M  V30 188 N 23.2362 -2.51721 3.88833 0
M  V30 189 C 23.9712 -3.01919 4.87476 0
M  V30 190 N 23.4672 -3.5234 5.96513 0
M  V30 191 N 25.2602 -3.00733 4.74885 0
M  V30 192 H 17.4112 -0.156032 2.11826 0
M  V30 193 H 19.6742 -0.131844 0.938787 0
M  V30 194 H 19.3802 -1.06796 3.35093 0
M  V30 195 H 19.2542 -2.67554 2.65885 0
M  V30 196 H 21.6412 -2.40984 1.70325 0
M  V30 197 H 21.7222 -0.798656 2.43013 0
M  V30 198 H 21.3662 -1.84388 4.73248 0
M  V30 199 H 21.2962 -3.45458 3.9745 0
M  V30 200 H 23.7872 -2.1603 3.10063 0
M  V30 201 H 24.1002 -3.89027 6.67741 0
M  V30 202 H 22.4452 -3.50462 6.00168 0
M  V30 203 H 25.6362 -2.60638 3.88826 0
M  V30 204 H 25.8092 -3.39545 5.51918 0
M  V30 205 N 19.2153 -1.21501 -1.00376 0
M  V30 206 C 20.1783 -0.976927 -2.07337 0
M  V30 207 C 21.1783 0.0525322 -1.60714 0
M  V30 208 O 22.3683 -0.184869 -1.73216 0
M  V30 209 C 19.5003 -0.473423 -3.37597 0
M  V30 210 H 20.6933 -1.92587 -2.29892 0
M  V30 211 H 18.2463 -1.03217 -1.17371 0
M  V30 212 H 18.9813 0.480379 -3.20722 0
M  V30 213 H 18.7663 -1.216 -3.72768 0
M  V30 214 H 20.2563 -0.32675 -4.1632 0
M  V30 215 N 20.6934 1.19889 -1.02296 0
M  V30 216 C 21.6234 2.25141 -0.619174 0
M  V30 217 C 22.6044 1.66051 0.368915 0
M  V30 218 O 23.7894 1.92546 0.252941 0
M  V30 219 C 20.9194 3.4728 0.0368783 0
M  V30 220 C 19.8734 4.19005 -0.872865 0
M  V30 221 C 19.1994 5.34637 -0.0822402 0
M  V30 222 C 20.4994 4.74452 -2.18387 0
M  V30 223 H 22.1934 2.59171 -1.49903 0
M  V30 224 H 19.7394 1.24579 -0.722222 0
M  V30 225 H 21.6924 4.20098 0.330958 0
M  V30 226 H 20.4164 3.12433 0.95149 0
M  V30 227 H 19.0754 3.48061 -1.15105 0
M  V30 228 H 18.7234 4.96034 0.83422 0
M  V30 229 H 18.4234 5.83557 -0.688149 0
M  V30 230 H 19.9474 6.10255 0.205238 0
M  V30 231 H 21.3614 5.39055 -1.95172 0
M  V30 232 H 19.7584 5.33834 -2.74119 0
M  V30 233 H 20.8284 3.92844 -2.84257 0
M  V30 234 N 22.1715 0.800033 1.35784 0
M  V30 235 C 23.4205 0.37387 1.98205 0
M  V30 236 C 23.7335 -1.06302 1.64193 0
M  V30 237 O 24.9395 -1.59198 2.19928 0
M  V30 238 C 23.3955 0.617532 3.54562 0
M  V30 239 C 23.0035 2.06654 3.9749 0
M  V30 240 C 24.7475 0.256401 4.23725 0
M  V30 241 C 22.6545 2.2563 5.46667 0
M  V30 242 H 21.5845 0.136055 0.741623 0
M  V30 243 H 24.2355 0.983166 1.54939 0
M  V30 244 H 22.6175 -0.0616248 3.95952 0
M  V30 245 H 23.7915 2.78296 3.67271 0
M  V30 246 H 22.1065 2.38691 3.41197 0
M  V30 247 H 24.7035 0.376318 5.33374 0
M  V30 248 H 25.0465 -0.796692 4.08606 0
M  V30 249 H 25.5795 0.889214 3.87734 0
M  V30 250 H 22.3185 3.2936 5.66747 0
M  V30 251 H 21.8385 1.58504 5.78478 0
M  V30 252 H 23.5175 2.06861 6.1304 0
M  V30 253 N 23.6496 -1.47581 0.552962 0
M  V30 254 C 24.5796 -2.32762 -0.185451 0
M  V30 255 C 25.5606 -1.43527 -0.912905 0
M  V30 256 O 26.7456 -1.72388 -0.894201 0
M  V30 257 C 23.8756 -3.25219 -1.21859 0
M  V30 258 C 22.8296 -4.23661 -0.607864 0
M  V30 259 C 22.1556 -5.05413 -1.74533 0
M  V30 260 C 23.4556 -5.20481 0.435582 0
M  V30 261 H 25.1496 -2.94749 0.525684 0
M  V30 262 H 22.6956 -1.41738 0.254251 0
M  V30 263 H 24.6486 -3.8365 -1.7433 0
M  V30 264 H 23.3726 -2.61279 -1.95961 0
M  V30 265 H 22.0316 -3.66451 -0.104489 0
M  V30 266 H 21.6796 -4.3788 -2.47529 0
M  V30 267 H 21.3796 -5.72059 -1.34249 0
M  V30 268 H 22.9036 -5.66701 -2.27338 0
M  V30 269 H 24.3176 -5.733 -0.00290157 0
M  V30 270 H 22.7146 -5.95305 0.757067 0
M  V30 271 H 23.7846 -4.66217 1.33303 0
M  V30 272 N 25.1277 -0.289203 -1.54924 0
M  V30 273 C 26.0577 0.58549 -2.2604 0
M  V30 274 C 27.0387 1.14753 -1.25562 0
M  V30 275 O 28.2237 1.17906 -1.54311 0
M  V30 276 C 25.3537 1.76305 -2.99222 0
M  V30 277 C 24.3077 1.33191 -4.06748 0
M  V30 278 C 23.6337 2.5937 -4.6758 0
M  V30 279 C 24.9337 0.471775 -5.20165 0
M  V30 280 H 26.6277 -0.00763532 -2.99399 0
M  V30 281 H 24.1737 -0.00511229 -1.43999 0
M  V30 282 H 26.1267 2.38097 -3.47689 0
M  V30 283 H 24.8507 2.38223 -2.23422 0
M  V30 284 H 23.5097 0.737121 -3.59113 0
M  V30 285 H 23.1577 3.19576 -3.88433 0
M  V30 286 H 22.8577 2.31228 -5.40192 0
M  V30 287 H 24.3817 3.21985 -5.18804 0
M  V30 288 H 25.7957 0.995056 -5.64599 0
M  V30 289 H 24.1927 0.284639 -5.99425 0
M  V30 290 H 25.2627 -0.506041 -4.82252 0
M  V30 291 N 26.6058 1.57591 -0.0167156 0
M  V30 292 C 27.8538 1.90906 0.663285 0
M  V30 293 C 28.1748 0.892509 1.73376 0
M  V30 294 O 27.4448 -0.0677623 1.95783 0
M  V30 295 H 26.0248 0.704637 0.247983 0
M  V30 296 H 28.6868 1.94803 -0.0615909 0
M  V30 297 H 27.7828 2.9116 1.12393 0
M  V30 298 N 28.0839 -0.256276 1.55502 0
M  V30 299 C 29.0159 -1.33981 1.85962 0
M  V30 300 C 30.0289 -1.44743 0.745212 0
M  V30 301 O 31.2179 -1.4626 1.02324 0
M  V30 302 C 28.3179 -2.7194 2.02242 0
M  V30 303 C 27.4909 -2.83562 3.33033 0
M  V30 304 C 26.5499 -4.02304 3.39172 0
M  V30 305 O 25.5759 -3.92273 4.12444 0
M  V30 306 N 26.7779 -5.15045 2.67784 0
M  V30 307 H 29.5429 -1.08191 2.7949 0
M  V30 308 H 27.1039 -0.446388 1.55624 0
M  V30 309 H 29.0959 -3.49697 2.03701 0
M  V30 310 H 27.6659 -2.90479 1.15502 0
M  V30 311 H 26.8859 -1.92555 3.43971 0
M  V30 312 H 28.1739 -2.88271 4.19258 0
M  V30 313 H 27.5719 -5.26085 2.07968 0
M  V30 314 H 26.1289 -5.90972 2.74947 0
M  V30 315 N 29.562 -1.4872 -0.521534 0
M  V30 316 C 30.495 -1.58451 -1.64221 0
M  V30 317 C 31.473 -0.434513 -1.56687 0
M  V30 318 O 32.657 -0.647275 -1.77038 0
M  V30 319 C 29.784 -1.52037 -3.02659 0
M  V30 320 C 28.83 -2.71981 -3.28525 0
M  V30 321 S 29.663 -4.33869 -3.13876 0
M  V30 322 C 30.819 -4.30067 -4.54745 0
M  V30 323 H 31.052 -2.53256 -1.55719 0
M  V30 324 H 28.585 -1.37358 -0.705143 0
M  V30 325 H 30.543 -1.49023 -3.82495 0
M  V30 326 H 29.204 -0.585541 -3.08594 0
M  V30 327 H 28.397 -2.63656 -4.29536 0
M  V30 328 H 27.999 -2.72302 -2.56374 0
M  V30 329 H 30.291 -4.00521 -5.46433 0
M  V30 330 H 31.234 -5.31287 -4.68123 0
M  V30 331 H 31.642 -3.60419 -4.34463 0
M  V30 332 N 31.0401 0.771051 -1.3745 0
M  V30 333 C 32.2881 1.52661 -1.32435 0
M  V30 334 C 32.6091 1.9479 0.0905024 0
M  V30 335 O 31.8791 1.66348 1.03466 0
M  V30 336 H 30.4591 0.566218 -0.487244 0
M  V30 337 H 33.1211 0.917636 -1.71946 0
M  V30 338 H 32.2171 2.42568 -1.96385 0
M  V30 339 N 32.5182 1.22032 0.997298 0
M  V30 340 C 33.9342 0.979326 1.26021 0
M  V30 341 C 34.1342 -0.32972 1.98784 0
M  V30 342 O 33.1902 -1.05345 2.29475 0
M  V30 343 C 34.5032 2.17509 2.07631 0
M  V30 344 C 36.0512 2.21817 2.2083 0
M  V30 345 C 36.5262 3.40933 3.05825 0
M  V30 346 N 38.0172 3.41067 3.13412 0
M  V30 347 C 38.7522 4.29885 3.79455 0
M  V30 348 N 38.2482 5.28914 4.47462 0
M  V30 349 N 40.0412 4.17673 3.76173 0
M  V30 350 H 32.1922 2.06202 0.509352 0
M  V30 351 H 34.4552 0.90334 0.287541 0
M  V30 352 H 34.1612 3.12415 1.61524 0
M  V30 353 H 34.0352 2.17206 3.08385 0
M  V30 354 H 36.4222 1.27462 2.66153 0
M  V30 355 H 36.5032 2.2616 1.1952 0
M  V30 356 H 36.1472 4.35586 2.61203 0
M  V30 357 H 36.0772 3.33829 4.07266 0
M  V30 358 H 38.5682 2.69406 2.65007 0
M  V30 359 H 38.8812 5.92973 4.95583 0
M  V30 360 H 37.2262 5.32831 4.46224 0
M  V30 361 H 40.4172 3.39564 3.22202 0
M  V30 362 H 40.5902 4.87098 4.27363 0
M  V30 363 N 33.9963 -1.19345 1.0293 0
M  V30 364 C 35.2453 -1.88363 0.721256 0
M  V30 365 C 35.5583 -1.80514 -0.753254 0
M  V30 366 O 36.7643 -2.44788 -1.17436 0
M  V30 367 C 35.2203 -3.37872 1.23978 0
M  V30 368 C 34.8283 -3.54278 2.74211 0
M  V30 369 C 36.5723 -4.12365 1.00775 0
M  V30 370 C 34.4793 -4.97682 3.19479 0
M  V30 371 H 33.4093 -0.705484 0.266098 0
M  V30 372 H 36.0603 -1.34928 1.24365 0
M  V30 373 H 34.4423 -3.90707 0.6453 0
M  V30 374 H 35.6163 -3.11769 3.39318 0
M  V30 375 H 33.9313 -2.93174 2.95699 0
M  V30 376 H 36.5283 -5.18119 1.32123 0
M  V30 377 H 36.8713 -4.16263 -0.0554308 0
M  V30 378 H 37.4043 -3.65668 1.56625 0
M  V30 379 H 34.1433 -4.98945 4.25128 0
M  V30 380 H 33.6633 -5.4095 2.591 0
M  V30 381 H 35.3423 -5.66337 3.12845 0
M  V30 382 N 35.4744 -0.807222 -1.35358 0
M  V30 383 C 36.6994 -0.399309 -2.0352 0
M  V30 384 C 37.1244 0.981986 -1.60433 0
M  V30 385 O 36.4824 1.63601 -0.781299 0
M  V30 386 C 36.5304 -0.491552 -3.57234 0
M  V30 387 O 35.6344 0.494754 -4.09421 0
M  V30 388 H 34.9754 -0.166682 -0.642739 0
M  V30 389 H 37.5054 -1.09328 -1.72941 0
M  V30 390 H 37.5154 -0.361588 -4.06395 0
M  V30 391 H 36.1904 -1.49907 -3.87944 0
M  V30 392 H 34.7674 0.324977 -3.71481 0
M  V30 393 N 36.9525 1.47285 -0.560781 0
M  V30 394 C 38.3635 1.86258 -0.128343 0
M  V30 395 C 38.7145 1.46699 1.30284 0
M  V30 396 O 37.8395 0.871698 1.98067 0
M  V30 397 C 38.4345 3.38044 -0.22614 0
M  V30 398 C 36.9935 3.76096 0.151283 0
M  V30 399 C 36.1405 2.71335 -0.572084 0
M  V30 400 H 39.0915 1.38752 -0.770297 0
M  V30 401 H 39.1125 3.76441 0.554322 0
M  V30 402 H 38.6245 3.66806 -1.26788 0
M  V30 403 H 36.7255 3.52951 1.19399 0
M  V30 404 H 36.8385 4.78641 -0.209765 0
M  V30 405 H 35.2025 2.54696 -0.0147653 0
M  V30 406 H 35.9855 3.02938 -1.61504 0
M  V30 407 N 38.4306 0.297415 1.54768 0
M  V30 408 C 39.6776 -0.312913 2.00068 0
M  V30 409 C 40.0056 -1.54171 1.18582 0
M  V30 410 O 39.2606 -1.94108 0.249133 0
M  V30 411 C 39.5596 -0.717561 3.50123 0
M  V30 412 C 39.2256 0.409095 4.4904 0
M  V30 413 C 37.8876 0.718399 4.75807 0
M  V30 414 C 40.2396 1.16717 5.07963 0
M  V30 415 C 37.5676 1.78896 5.5876 0
M  V30 416 C 39.9196 2.22762 5.92081 0
M  V30 417 C 38.5836 2.54303 6.1716 0
M  V30 418 H 37.8536 -0.114503 0.7321 0
M  V30 419 H 40.5006 0.415767 1.86932 0
M  V30 420 H 38.8056 -1.52627 3.60849 0
M  V30 421 H 40.5026 -1.20091 3.82595 0
M  V30 422 H 37.0926 0.157918 4.28309 0
M  V30 423 H 41.2766 0.941466 4.87289 0
M  V30 424 H 36.5326 2.0381 5.7643 0
M  V30 425 H 40.7066 2.81962 6.36765 0
M  V30 426 H 38.3336 3.3739 6.81229 0
M  V30 427 N 39.9087 -1.5758 0.0250728 0
M  V30 428 C 41.1337 -1.96337 -0.668317 0
M  V30 429 C 41.5587 -0.901314 -1.651 0
M  V30 430 O 40.9167 0.138187 -1.80773 0
M  V30 431 C 40.9647 -3.34191 -1.35457 0
M  V30 432 O 40.0687 -3.30269 -2.46974 0
M  V30 433 H 39.4097 -0.640281 -0.175887 0
M  V30 434 H 41.9397 -2.0442 0.0857224 0
M  V30 435 H 41.9497 -3.70331 -1.71228 0
M  V30 436 H 40.6247 -4.11036 -0.634218 0
M  V30 437 H 39.2017 -3.05841 -2.13344 0
M  V30 438 N 41.3868 0.248026 -1.55636 0
M  V30 439 C 42.6268 0.983592 -1.79178 0
M  V30 440 C 42.9908 1.82567 -0.594414 0
M  V30 441 O 44.1918 2.59292 -0.708583 0
M  V30 442 C 42.4628 1.82228 -3.07454 0
M  V30 443 S 44.0218 2.61709 -3.52213 0
M  V30 444 H 40.8398 0.330866 -0.629324 0
M  V30 445 H 43.4418 0.251562 -1.93875 0
M  V30 446 H 42.1458 1.19333 -3.92668 0
M  V30 447 H 41.6768 2.59708 -2.95492 0
M  V30 448 H 43.6918 3.84655 -3.13457 0
M  V30 449 N 42.8649 1.48995 0.513639 0
M  V30 450 C 43.7949 1.67636 1.62544 0
M  V30 451 C 44.7759 0.525087 1.61793 0
M  V30 452 O 45.9609 0.759502 1.78732 0
M  V30 453 C 43.0909 1.73114 3.01079 0
M  V30 454 C 42.0449 2.87905 3.16693 0
M  V30 455 C 41.3709 2.78486 4.56453 0
M  V30 456 C 42.6709 4.29005 2.97913 0
M  V30 457 H 44.3649 2.60716 1.47198 0
M  V30 458 H 41.9109 1.25465 0.706714 0
M  V30 459 H 43.8639 1.84742 3.78746 0
M  V30 460 H 42.5879 0.766241 3.17484 0
M  V30 461 H 41.2469 2.75859 2.41448 0
M  V30 462 H 40.8949 1.7993 4.69717 0
M  V30 463 H 40.5949 3.55523 4.67843 0
M  V30 464 H 42.1189 2.92104 5.36197 0
M  V30 465 H 43.5329 4.41798 3.65359 0
M  V30 466 H 41.9299 5.07166 3.20785 0
M  V30 467 H 42.9999 4.44329 1.94165 0
M  V30 468 N 44.343 -0.763751 1.37857 0
M  V30 469 C 45.29 -1.87726 1.34267 0
M  V30 470 C 46.26 -1.64807 0.206879 0
M  V30 471 O 47.445 -1.86613 0.397508 0
M  V30 472 C 44.585 -3.24896 1.16346 0
M  V30 473 C 43.698 -3.59716 2.39225 0
M  V30 474 C 42.833 -4.86137 2.14114 0
M  V30 475 C 41.872 -5.13711 3.32817 0
M  V30 476 N 41.009 -6.31323 3.07206 0
M  V30 477 H 45.849 -1.90129 2.29466 0
M  V30 478 H 43.386 -0.929433 1.14017 0
M  V30 479 H 45.344 -4.04036 1.03975 0
M  V30 480 H 43.974 -3.21847 0.247909 0
M  V30 481 H 43.026 -2.75498 2.62307 0
M  V30 482 H 44.338 -3.76027 3.27728 0
M  V30 483 H 43.492 -5.73198 1.9882 0
M  V30 484 H 42.231 -4.71945 1.22961 0
M  V30 485 H 41.236 -4.25123 3.48641 0
M  V30 486 H 42.461 -5.29807 4.24832 0
M  V30 487 H 40.407 -6.18474 2.1869 0
M  V30 488 H 40.324 -6.48087 3.89254 0
M  V30 489 H 41.592 -7.213 2.95546 0
M  V30 490 N 45.8211 -1.22559 -0.990812 0
M  V30 491 C 47.0981 -0.959875 -1.70428 0
M  V30 492 C 47.4781 0.524455 -2.04481 0
M  V30 493 O 46.8261 1.49302 -1.72977 0
M  V30 494 C 47.0361 -1.85955 -2.95333 0
M  V30 495 C 48.3841 -2.11687 -3.68068 0
M  V30 496 O 49.4081 -1.8342 -3.05345 0
M  V30 497 O 48.2671 -2.59572 -4.80921 0
M  V30 498 H 45.3611 -0.361154 -0.743974 0
M  V30 499 H 47.9071 -1.33554 -1.04697 0
M  V30 500 H 46.6791 -2.86346 -2.66687 0
M  V30 501 H 46.3021 -1.4856 -3.68803 0
M  V30 502 N 47.2992 1.18797 -1.03562 0
M  V30 503 C 48.7152 1.40671 -0.753917 0
M  V30 504 C 48.9152 1.9043 0.658686 0
M  V30 505 O 47.9712 2.08538 1.42366 0
M  V30 506 C 49.2842 2.41192 -1.79574 0
M  V30 507 C 50.8322 2.54928 -1.81606 0
M  V30 508 C 51.3072 3.58709 -2.84766 0
M  V30 509 N 52.7982 3.66212 -2.83625 0
M  V30 510 C 53.5332 4.46225 -3.60098 0
M  V30 511 N 53.0292 5.29888 -4.46308 0
M  V30 512 N 54.8222 4.40939 -3.4861 0
M  V30 513 H 46.9732 0.848221 -1.94728 0
M  V30 514 H 49.2362 0.435081 -0.842264 0
M  V30 515 H 48.9422 2.11669 -2.80872 0
M  V30 516 H 48.8162 3.40467 -1.62365 0
M  V30 517 H 51.2032 2.83771 -0.809817 0
M  V30 518 H 51.2842 1.55784 -2.02891 0
M  V30 519 H 50.9282 3.30607 -3.85566 0
M  V30 520 H 50.8582 4.57519 -2.60737 0
M  V30 521 H 53.3492 3.06466 -2.21105 0
M  V30 522 H 53.6622 5.88078 -5.01382 0
M  V30 523 H 52.0072 5.29326 -4.50377 0
M  V30 524 H 55.1982 3.74624 -2.80668 0
M  V30 525 H 55.3712 5.03056 -4.08459 0
M  V30 526 N 48.7773 0.814389 1.34928 0
M  V30 527 C 49.7273 0.202752 2.27097 0
M  V30 528 C 50.7113 -0.62799 1.48139 0
M  V30 529 O 51.9033 -0.483969 1.70255 0
M  V30 530 C 49.0323 -0.64146 3.37254 0
M  V30 531 C 48.1183 0.19944 4.23631 0
M  V30 532 N 48.5093 1.26628 4.89693 0
M  V30 533 C 46.8073 -0.0176433 4.45997 0
M  V30 534 C 47.5083 1.78031 5.53787 0
M  V30 535 N 46.4843 1.08553 5.32651 0
M  V30 536 H 50.2863 1.01893 2.75672 0
M  V30 537 H 47.8003 0.656332 1.48546 0
M  V30 538 H 49.7973 -1.09575 4.02243 0
M  V30 539 H 48.4573 -1.4559 2.9023 0
M  V30 540 H 49.4683 1.64901 4.90946 0
M  V30 541 H 46.1453 -0.800601 4.09752 0
M  V30 542 H 47.5353 2.67236 6.16469 0
M  V30 543 N 50.2554 -1.46986 0.568584 0
M  V30 544 C 51.5324 -1.95592 -0.0174074 0
M  V30 545 C 51.9124 -1.51124 -1.47393 0
M  V30 546 O 51.2604 -0.755329 -2.15655 0
M  V30 547 C 51.4704 -3.48719 0.139913 0
M  V30 548 C 52.8184 -4.246 0.000426376 0
M  V30 549 O 53.8424 -3.56135 0.0680316 0
M  V30 550 O 52.7014 -5.46302 -0.146988 0
M  V30 551 H 49.7954 -0.82498 -0.0577599 0
M  V30 552 H 52.3414 -1.57335 0.635909 0
M  V30 553 H 51.1134 -3.73927 1.15301 0
M  V30 554 H 50.7364 -3.93771 -0.550491 0
M  V30 555 N 51.7335 -0.305618 -1.54608 0
M  V30 556 C 52.9805 0.302298 -2.00231 0
M  V30 557 C 53.3085 1.5354 -1.19398 0
M  V30 558 O 52.5635 1.93973 -0.259423 0
M  V30 559 C 52.8625 0.698983 -3.50498 0
M  V30 560 C 52.5285 -0.432903 -4.48817 0
M  V30 561 C 51.1905 -0.743622 -4.75419 0
M  V30 562 C 53.5425 -1.19409 -5.07337 0
M  V30 563 C 50.8705 -1.81857 -5.57804 0
M  V30 564 C 53.2225 -2.25899 -5.90891 0
M  V30 565 C 51.8865 -2.57572 -6.15803 0
M  V30 566 H 51.1565 0.110619 -0.732697 0
M  V30 567 H 53.8035 -0.425674 -1.86709 0
M  V30 568 H 52.1085 1.50711 -3.61654 0
M  V30 569 H 53.8055 1.1806 -3.83227 0
M  V30 570 H 50.3955 -0.18063 -4.28219 0
M  V30 571 H 54.5795 -0.967295 -4.86782 0
M  V30 572 H 49.8355 -2.06864 -5.75341 0
M  V30 573 H 54.0095 -2.85335 -6.35261 0
M  V30 574 H 51.6365 -3.40998 -6.7943 0
M  V30 575 N 53.2116 1.57565 -0.0334293 0
M  V30 576 C 54.6276 1.56297 0.322997 0
M  V30 577 C 54.8276 1.03945 1.7262 0
M  V30 578 O 53.8836 0.688109 2.42943 0
M  V30 579 C 55.1966 3.00232 0.167664 0
M  V30 580 C 56.7446 3.12078 0.240107 0
M  V30 581 C 57.2196 4.57859 0.113513 0
M  V30 582 N 58.7106 4.62887 0.170359 0
M  V30 583 C 59.4456 5.73319 0.0962517 0
M  V30 584 N 58.9416 6.92794 -0.0291881 0
M  V30 585 N 60.7346 5.61898 0.150551 0
M  V30 586 H 52.8856 1.89923 -0.950956 0
M  V30 587 H 55.1486 0.873824 -0.367608 0
M  V30 588 H 54.8546 3.42501 -0.799102 0
M  V30 589 H 54.7286 3.654 0.936083 0
M  V30 590 H 57.1156 2.69718 1.19733 0
M  V30 591 H 57.1966 2.49623 -0.558763 0
M  V30 592 H 56.8406 5.009 -0.840314 0
M  V30 593 H 56.7706 5.18299 0.931302 0
M  V30 594 H 59.2616 3.76954 0.26728 0
M  V30 595 H 59.5746 7.7276 -0.0789252 0
M  V30 596 H 57.9196 6.94971 -0.0640299 0
M  V30 597 H 61.1106 4.67448 0.246981 0
M  V30 598 H 61.2836 6.47938 0.0893365 0
M  V30 599 N 54.6897 -0.239769 1.55765 0
M  V30 600 C 55.9387 -0.964754 1.77131 0
M  V30 601 C 56.2517 -1.86213 0.59868 0
M  V30 602 O 57.4577 -2.6244 0.695522 0
M  V30 603 C 55.9137 -1.76552 3.1362 0
M  V30 604 C 55.5217 -0.915185 4.38553 0
M  V30 605 C 57.2657 -2.48281 3.44321 0
M  V30 606 C 55.1727 -1.71225 5.66071 0
M  V30 607 H 54.1027 -0.363953 0.660344 0
M  V30 608 H 56.7537 -0.219181 1.82186 0
M  V30 609 H 55.1357 -2.55331 3.02691 0
M  V30 610 H 56.3097 -0.169217 4.60489 0
M  V30 611 H 54.6247 -0.310889 4.15238 0
M  V30 612 H 57.2217 -3.08382 4.36812 0
M  V30 613 H 57.5647 -3.20256 2.65973 0
M  V30 614 H 58.0977 -1.76507 3.56497 0
M  V30 615 H 54.8367 -1.03612 6.4726 0
M  V30 616 H 54.3567 -2.43331 5.48224 0
M  V30 617 H 56.0357 -2.27758 6.05587 0
M  V30 618 N 56.1678 -1.49265 -0.50573 0
M  V30 619 C 57.5788 -1.51769 -1.08734 0
M  V30 620 C 57.9298 -0.301192 -1.93874 0
M  V30 621 O 57.0548 0.589456 -2.08217 0
M  V30 622 C 57.6498 -2.75017 -1.97867 0
M  V30 623 C 56.2088 -2.80314 -2.51199 0
M  V30 624 C 55.3558 -2.4562 -1.28709 0
M  V30 625 H 58.3068 -1.56031 -0.289855 0
M  V30 626 H 58.3278 -2.5491 -2.82491 0
M  V30 627 H 57.8398 -3.63539 -1.35873 0
M  V30 628 H 55.9408 -1.96061 -3.16845 0
M  V30 629 H 56.0538 -3.82366 -2.88675 0
M  V30 630 H 54.4178 -1.97297 -1.61078 0
M  V30 631 H 55.2008 -3.36411 -0.6843 0
M  V30 632 N 57.6459 0.756429 -1.3826 0
M  V30 633 C 58.5779 1.87971 -1.31147 0
M  V30 634 C 59.5909 1.61248 -0.224239 0
M  V30 635 O 60.7799 1.71881 -0.481581 0
M  V30 636 C 57.8799 3.23545 -1.00857 0
M  V30 637 C 57.0529 3.77794 -2.20432 0
M  V30 638 C 56.1119 4.91877 -1.86931 0
M  V30 639 O 55.1379 5.06659 -2.59395 0
M  V30 640 N 56.3399 5.74643 -0.822568 0
M  V30 641 H 59.1049 1.94585 -2.2794 0
M  V30 642 H 56.6659 0.936234 -1.32084 0
M  V30 643 H 58.6579 3.97403 -0.765021 0
M  V30 644 H 57.2279 3.12335 -0.128687 0
M  V30 645 H 56.4479 2.95534 -2.6087 0
M  V30 646 H 57.7359 4.10771 -3.00241 0
M  V30 647 H 57.1339 5.65266 -0.221575 0
M  V30 648 H 55.6909 6.48661 -0.638899 0
M  V30 649 N 59.124 1.23083 0.984299 0
M  V30 650 C 60.034 1.02515 2.11016 0
M  V30 651 C 61.05 -0.0291702 1.73976 0
M  V30 652 O 62.226 0.165434 2.00719 0
M  V30 653 C 59.291 0.614673 3.41208 0
M  V30 654 C 58.352 1.74359 3.92297 0
M  V30 655 C 57.585 1.35261 5.16275 0
M  V30 656 O 57.808 0.235136 5.69915 0
M  V30 657 O 56.742 2.17227 5.61334 0
M  V30 658 H 60.568 1.96862 2.31255 0
M  V30 659 H 58.153 1.01753 1.09392 0
M  V30 660 H 60.035 0.396518 4.1953 0
M  V30 661 H 58.71 -0.299851 3.22308 0
M  V30 662 H 57.617 2.01635 3.1511 0
M  V30 663 H 58.95 2.63629 4.15645 0
M  V30 664 N 60.6021 -1.18246 1.0419 0
M  V30 665 C 61.5121 -2.25574 0.644476 0
M  V30 666 C 62.5281 -1.70845 -0.329826 0
M  V30 667 O 63.7041 -2.00554 -0.184443 0
M  V30 668 C 60.7691 -3.46697 0.014877 0
M  V30 669 C 59.8301 -4.16554 1.03834 0
M  V30 670 C 59.0631 -5.31894 0.438692 0
M  V30 671 O 59.2861 -5.65385 -0.754752 0
M  V30 672 O 58.2201 -5.90459 1.168 0
M  V30 673 H 62.0461 -2.61836 1.53869 0
M  V30 674 H 59.6311 -1.25352 0.812854 0
M  V30 675 H 61.5131 -4.20062 -0.335538 0
M  V30 676 H 60.1881 -3.12255 -0.853138 0
M  V30 677 H 59.0951 -3.45251 1.44057 0
M  V30 678 H 60.4281 -4.54998 1.87716 0
M  V30 679 N 62.0802 -0.821533 -1.34494 0
M  V30 680 C 63.3272 -0.408946 -1.98328 0
M  V30 681 C 63.6552 1.02764 -1.65136 0
M  V30 682 O 62.9102 1.73026 -0.914349 0
M  V30 683 C 63.2092 -0.556512 -3.53041 0
M  V30 684 C 62.8752 -1.95861 -4.0614 0
M  V30 685 C 61.5372 -2.34217 -4.20352 0
M  V30 686 C 63.8892 -2.87523 -4.34718 0
M  V30 687 C 61.2172 -3.63572 -4.6047 0
M  V30 688 C 63.5692 -4.1634 -4.76281 0
M  V30 689 C 62.2332 -4.54675 -4.88699 0
M  V30 690 H 61.5032 -0.149644 -0.725732 0
M  V30 691 H 64.1502 -1.04521 -1.6046 0
M  V30 692 H 62.4552 0.163148 -3.9146 0
M  V30 693 H 64.1522 -0.217826 -4.00408 0
M  V30 694 H 60.7422 -1.65066 -3.95539 0
M  V30 695 H 64.9262 -2.59133 -4.23277 0
M  V30 696 H 60.1822 -3.93101 -4.68275 0
M  V30 697 H 64.3562 -4.87455 -4.97354 0
M  V30 698 H 61.9832 -5.54959 -5.19542 0
M  V30 699 N 63.5583 1.46682 -0.576371 0
M  V30 700 C 64.8353 1.95599 0.00703437 0
M  V30 701 C 65.2153 1.51904 1.46589 0
M  V30 702 O 64.5633 0.766755 2.15251 0
M  V30 703 C 64.7733 3.4864 -0.158404 0
M  V30 704 C 66.1213 4.24594 -0.0229439 0
M  V30 705 O 67.1453 3.56094 -0.0869173 0
M  V30 706 O 66.0043 5.46373 0.118015 0
M  V30 707 H 63.0983 0.825275 0.053384 0
M  V30 708 H 65.6443 1.56996 -0.644244 0
M  V30 709 H 64.4163 3.7331 -1.17282 0
M  V30 710 H 64.0393 3.94057 0.5296 0
M  V30 711 N 65.0364 0.313813 1.54444 0
M  V30 712 C 66.2844 -0.291099 1.99993 0
M  V30 713 C 66.6054 -1.53418 1.20366 0
M  V30 714 O 65.8754 -1.93544 0.302927 0
M  V30 715 H 64.4554 -0.110552 0.738774 0
M  V30 716 H 67.1174 0.428106 1.9014 0
M  V30 717 H 66.2134 -0.554268 3.07139 0
M  V30 718 N 66.5145 -1.57545 0.0417849 0
M  V30 719 C 67.4625 -2.12148 -0.953723 0
M  V30 720 C 68.4565 -1.05104 -1.32852 0
M  V30 721 O 69.6625 -1.23524 -1.30927 0
M  V30 722 H 66.0375 -0.677957 -0.325389 0
M  V30 723 H 68.0085 -2.94707 -0.467991 0
M  V30 724 C 66.7575 -2.6739 -2.22257 0
M  V30 725 H 66.0805 -3.49413 -1.94295 0
M  V30 726 H 67.5205 -3.09227 -2.90094 0
M  V30 727 C 65.9795 -1.60723 -2.96091 0
M  V30 728 O 66.5095 -1.01449 -3.88679 0
M  V30 729 N 64.7155 -1.32466 -2.58652 0
M  V30 730 H 64.2625 -1.80856 -1.83437 0
M  V30 731 H 64.2205 -0.61325 -3.08361 0
M  V30 732 N 67.9926 0.231505 -1.5589 0
M  V30 733 C 68.9246 1.31006 -1.8807 0
M  V30 734 C 69.9376 1.43539 -0.768145 0
M  V30 735 O 71.1266 1.44614 -1.04638 0
M  V30 736 C 68.2266 2.68688 -2.06543 0
M  V30 737 C 67.3996 2.78228 -3.37502 0
M  V30 738 C 66.4586 3.96857 -3.4553 0
M  V30 739 O 65.4846 3.85662 -4.18633 0
M  V30 740 N 66.6866 5.1072 -2.75944 0
M  V30 741 H 69.4516 1.03731 -2.81176 0
M  V30 742 H 67.0126 0.421573 -1.56315 0
M  V30 743 H 69.0046 3.46412 -2.09239 0
M  V30 744 H 67.5746 2.88605 -1.20109 0
M  V30 745 H 66.7946 1.87059 -3.46991 0
M  V30 746 H 68.0826 2.81564 -4.23791 0
M  V30 747 H 67.4806 5.2271 -2.16311 0
M  V30 748 H 66.0376 5.86523 -2.84314 0
M  V30 749 N 69.4707 1.49531 0.497807 0
M  V30 750 C 70.7177 1.59179 1.25173 0
M  V30 751 C 71.0457 0.279932 1.92475 0
M  V30 752 O 70.3007 -0.732383 1.81479 0
M  V30 753 C 70.5997 2.70252 2.33878 0
M  V30 754 C 70.2657 4.11644 1.84012 0
M  V30 755 C 68.9277 4.50121 1.70132 0
M  V30 756 C 71.2797 5.00121 1.46725 0
M  V30 757 C 68.6077 5.74845 1.17348 0
M  V30 758 C 70.9597 6.25366 0.95392 0
M  V30 759 C 69.6237 6.6267 0.801538 0
M  V30 760 H 68.8937 0.582478 0.45804 0
M  V30 761 H 71.5407 1.83373 0.551948 0
M  V30 762 H 69.8457 2.40041 3.09657 0
M  V30 763 H 71.5427 2.74925 2.9192 0
M  V30 764 H 68.1327 3.81274 1.95775 0
M  V30 765 H 72.3167 4.71048 1.56294 0
M  V30 766 H 67.5727 6.02444 1.04264 0
M  V30 767 H 71.7467 6.93301 0.656225 0
M  V30 768 H 69.3737 7.59197 0.390351 0
M  V30 769 N 70.9488 -0.749086 1.3866 0
M  V30 770 C 71.8808 -1.87273 1.32142 0
M  V30 771 C 72.8938 -1.61127 0.232787 0
M  V30 772 O 74.0828 -1.71623 0.49069 0
M  V30 773 C 71.1828 -3.23005 1.02571 0
M  V30 774 C 70.3558 -3.7662 2.22433 0
M  V30 775 C 69.4148 -4.90879 1.89537 0
M  V30 776 O 68.4408 -5.05276 2.62078 0
M  V30 777 N 69.6428 -5.74198 0.853031 0
M  V30 778 H 72.4078 -1.93373 2.28969 0
M  V30 779 H 69.9688 -0.929216 1.32579 0
M  V30 780 H 71.9608 -3.96992 0.786085 0
M  V30 781 H 70.5308 -3.12262 0.145249 0
M  V30 782 H 69.7508 -2.94147 2.62434 0
M  V30 783 H 71.0388 -4.09173 3.02415 0
M  V30 784 H 70.4368 -5.6514 0.25155 0
M  V30 785 H 68.9938 -6.48313 0.67329 0
M  V30 786 N 72.4269 -1.23603 -0.977757 0
M  V30 787 C 73.3739 -1.01954 -2.07061 0
M  V30 788 C 74.3439 0.0638697 -1.65977 0
M  V30 789 O 75.5289 -0.0887624 -1.90593 0
M  V30 790 C 72.6689 -0.619658 -3.39491 0
M  V30 791 C 71.7819 -1.77547 -3.93829 0
M  V30 792 C 70.9169 -1.32212 -5.14484 0
M  V30 793 C 69.9559 -2.44852 -5.60994 0
M  V30 794 N 69.0929 -2.00456 -6.72876 0
M  V30 795 H 73.9329 -1.95495 -2.24913 0
M  V30 796 H 71.4699 -0.973861 -1.10247 0
M  V30 797 H 73.4279 -0.368898 -4.15566 0
M  V30 798 H 72.0579 0.278752 -3.21594 0
M  V30 799 H 71.1099 -2.14016 -3.14486 0
M  V30 800 H 72.4219 -2.62219 -4.24314 0
M  V30 801 H 71.5759 -1.02965 -5.97899 0
M  V30 802 H 70.3149 -0.445808 -4.85658 0
M  V30 803 H 69.3199 -2.74871 -4.76157 0
M  V30 804 H 70.5449 -3.33024 -5.91837 0
M  V30 805 H 68.4909 -1.15208 -6.45804 0
M  V30 806 H 68.4079 -2.78687 -7.02759 0
M  V30 807 H 69.6759 -1.7432 -7.59758 0
M  V30 808 N 73.905 1.17692 -1.04816 0
M  V30 809 C 74.868 2.19787 -0.650117 0
M  V30 810 C 75.868 1.58044 0.296427 0
M  V30 811 O 77.058 1.74012 0.0808097 0
M  V30 812 C 74.19 3.40869 0.0456987 0
M  V30 813 H 75.383 2.56516 -1.5537 0
M  V30 814 H 72.936 1.31708 -0.841594 0
M  V30 815 H 73.671 3.09681 0.962726 0
M  V30 816 H 73.456 3.86928 -0.634727 0
M  V30 817 H 74.946 4.16445 0.310432 0
M  V30 818 N 75.3831 0.828654 1.34056 0
M  V30 819 C 76.3151 0.212052 2.28217 0
M  V30 820 C 77.3281 -0.601362 1.51286 0
M  V30 821 O 78.5171 -0.430104 1.73241 0
M  V30 822 C 75.6171 -0.72088 3.31144 0
M  V30 823 C 74.7901 0.0509587 4.3737 0
M  V30 824 C 73.8491 -0.803766 5.20025 0
M  V30 825 O 72.8751 -0.246667 5.68665 0
M  V30 826 N 74.0771 -2.1227 5.40298 0
M  V30 827 H 76.8421 1.02105 2.81771 0
M  V30 828 H 74.4031 0.686153 1.46641 0
M  V30 829 H 76.3951 -1.29742 3.8334 0
M  V30 830 H 74.9651 -1.43061 2.77943 0
M  V30 831 H 74.1851 0.808831 3.85813 0
M  V30 832 H 75.4731 0.582065 5.0546 0
M  V30 833 H 74.8711 -2.59898 5.02464 0
M  V30 834 H 73.4281 -2.64796 5.95589 0
M  V30 835 N 76.8612 -1.46375 0.584142 0
M  V30 836 C 77.8242 -2.28784 -0.138108 0
M  V30 837 C 78.8242 -1.38471 -0.817462 0
M  V30 838 O 80.0142 -1.60833 -0.669199 0
M  V30 839 C 77.1462 -3.18892 -1.20503 0
M  V30 840 H 78.3392 -2.94117 0.586127 0
M  V30 841 H 75.8922 -1.52509 0.342171 0
M  V30 842 H 76.6272 -2.58309 -1.96079 0
M  V30 843 H 76.4122 -3.85388 -0.722384 0
M  V30 844 H 77.9022 -3.80914 -1.71155 0
M  V30 845 N 78.3393 -0.321999 -1.54275 0
M  V30 846 C 79.5883 0.281931 -1.9972 0
M  V30 847 C 79.9013 1.53369 -1.21397 0
M  V30 848 O 81.1073 2.21352 -1.57211 0
M  V30 849 C 79.5633 0.5529 -3.55628 0
M  V30 850 C 79.1713 -0.681721 -4.42783 0
M  V30 851 C 80.9153 1.11687 -4.09544 0
M  V30 852 C 78.8223 -0.382742 -5.9016 0
M  V30 853 H 77.7523 0.109124 -0.746062 0
M  V30 854 H 80.4033 -0.43398 -1.78294 0
M  V30 855 H 78.7853 1.32896 -3.73035 0
M  V30 856 H 79.9593 -1.45723 -4.37151 0
M  V30 857 H 78.2743 -1.1658 -3.99748 0
M  V30 858 H 80.8713 1.35515 -5.17242 0
M  V30 859 H 81.2143 2.06575 -3.61431 0
M  V30 860 H 81.7473 0.402032 -3.95763 0
M  V30 861 H 78.4863 -1.30076 -6.42464 0
M  V30 862 H 78.0063 0.355094 -5.98748 0
M  V30 863 H 79.6853 0.00800157 -6.47 0
M  V30 864 N 79.8174 1.5752 -0.0501392 0
M  V30 865 C 81.0424 1.97376 0.636997 0
M  V30 866 C 81.4674 0.927466 1.63645 0
M  V30 867 O 80.8254 -0.10941 1.8097 0
M  V30 868 C 80.8734 3.36304 1.30123 0
M  V30 869 O 79.9774 3.34156 2.41689 0
M  V30 870 H 79.3184 0.642998 0.165679 0
M  V30 871 H 81.8484 2.04258 -0.118233 0
M  V30 872 H 81.8584 3.73008 1.65315 0
M  V30 873 H 80.5334 4.11993 0.568746 0
M  V30 874 H 79.1104 3.09196 2.08451 0
M  V30 875 N 81.2955 -0.223234 1.56011 0
M  V30 876 C 82.5415 -0.949279 1.79211 0
M  V30 877 C 82.8745 -1.84054 0.619494 0
M  V30 878 O 82.1495 -1.90726 -0.381317 0
M  V30 879 C 82.4325 -1.78965 3.12479 0
M  V30 880 C 82.2855 -0.924997 4.40186 0
M  V30 881 C 83.6045 -2.76774 3.42175 0
M  V30 882 H 80.7235 -0.343676 0.651963 0
M  V30 883 H 83.3655 -0.218253 1.88742 0
M  V30 884 H 81.5155 -2.41291 3.04485 0
M  V30 885 H 83.1875 -0.318615 4.60198 0
M  V30 886 H 81.4305 -0.230344 4.33188 0
M  V30 887 H 82.1015 -1.54735 5.29869 0
M  V30 888 H 84.5775 -2.24584 3.50287 0
M  V30 889 H 83.4535 -3.32678 4.36597 0
M  V30 890 H 83.7145 -3.54429 2.64258 0
M  V30 891 N 82.7736 -1.49793 -0.48987 0
M  V30 892 C 83.7036 -1.70201 -1.59856 0
M  V30 893 C 84.6846 -0.55076 -1.60937 0
M  V30 894 O 85.8696 -0.787841 -1.77501 0
M  V30 895 C 82.9996 -1.77882 -2.98287 0
M  V30 896 C 81.9536 -2.92907 -3.12073 0
M  V30 897 C 81.2796 -2.85712 -4.51965 0
M  V30 898 C 82.5796 -4.3369 -2.91051 0
M  V30 899 H 84.2736 -2.63025 -1.43032 0
M  V30 900 H 81.8196 -1.26574 -0.686664 0
M  V30 901 H 83.7726 -1.90744 -3.75759 0
M  V30 902 H 82.4966 -0.816653 -3.16225 0
M  V30 903 H 81.1556 -2.79665 -2.37029 0
M  V30 904 H 80.8036 -1.8738 -4.66795 0
M  V30 905 H 80.5036 -3.62921 -4.62128 0
M  V30 906 H 82.0276 -3.00598 -5.31482 0
M  V30 907 H 83.4416 -4.47555 -3.58284 0
M  V30 908 H 81.8386 -5.12205 -3.12675 0
M  V30 909 H 82.9086 -4.47362 -1.87071 0
M  V30 910 N 84.2517 0.741722 -1.39055 0
M  V30 911 C 85.2017 1.84661 -1.33732 0
M  V30 912 C 86.1857 1.59397 -0.219401 0
M  V30 913 O 87.3777 1.71015 -0.456375 0
M  V30 914 C 84.5067 3.22512 -1.17647 0
M  V30 915 C 83.5927 3.53628 -2.34112 0
M  V30 916 N 83.9837 3.55723 -3.59576 0
M  V30 917 C 82.2817 3.83956 -2.26923 0
M  V30 918 C 82.9827 3.84443 -4.36553 0
M  V30 919 N 81.9587 4.01877 -3.66055 0
M  V30 920 H 85.7607 1.84576 -2.28711 0
M  V30 921 H 83.2747 0.939647 -1.32455 0
M  V30 922 H 85.2717 4.01597 -1.11917 0
M  V30 923 H 83.9317 3.2384 -0.236124 0
M  V30 924 H 84.9427 3.37196 -3.93089 0
M  V30 925 H 81.6197 3.92929 -1.41113 0
M  V30 926 H 83.0097 3.92588 -5.45274 0
M  V30 927 N 85.7298 1.2412 0.971189 0
M  V30 928 C 86.6398 1.04747 2.09917 0
M  V30 929 C 87.6558 -0.0107162 1.73997 0
M  V30 930 O 88.8318 0.186714 2.00533 0
M  V30 931 C 85.8968 0.650828 3.40537 0
M  V30 932 C 84.9578 1.7851 3.90426 0
M  V30 933 C 84.1908 1.40729 5.14812 0
M  V30 934 O 84.4138 0.29557 5.69634 0
M  V30 935 O 83.3478 2.23168 5.58999 0
M  V30 936 H 87.1738 1.99304 2.29154 0
M  V30 937 H 84.7588 1.02908 1.08307 0
M  V30 938 H 86.6408 0.440992 4.19086 0
M  V30 939 H 85.3158 -0.265649 3.22608 0
M  V30 940 H 84.2228 2.04966 3.12953 0
M  V30 941 H 85.5558 2.68023 4.12825 0
M  V30 942 N 87.2079 -1.17134 1.05439 0
M  V30 943 C 88.1409 -2.2012 0.601855 0
M  V30 944 C 89.1189 -1.58314 -0.370854 0
M  V30 945 O 90.3029 -1.8638 -0.281882 0
M  V30 946 C 87.4299 -3.38491 -0.118868 0
M  V30 947 C 86.4759 -4.18752 0.809242 0
M  V30 948 S 87.3089 -4.83602 2.29977 0
M  V30 949 C 88.4649 -6.0536 1.59029 0
M  V30 950 H 88.6979 -2.58165 1.47438 0
M  V30 951 H 86.2309 -1.27788 0.866573 0
M  V30 952 H 88.1889 -4.07084 -0.528495 0
M  V30 953 H 86.8499 -2.98829 -0.967465 0
M  V30 954 H 86.0429 -5.03373 0.251379 0
M  V30 955 H 85.6449 -3.5561 1.15835 0
M  V30 956 H 87.9369 -6.71615 0.891017 0
M  V30 957 H 88.8799 -6.65679 2.41407 0
M  V30 958 H 89.2879 -5.54138 1.07663 0
M  V30 959 N 88.686 -0.835752 -1.33615 0
M  V30 960 C 89.935 -0.426289 -1.97144 0
M  V30 961 C 90.248 1.01912 -1.66953 0
M  V30 962 O 91.454 1.53311 -2.24072 0
M  V30 963 C 89.91 -0.711321 -3.52801 0
M  V30 964 C 89.518 -2.1712 -3.91871 0
M  V30 965 C 91.262 -0.368654 -4.22896 0
M  V30 966 C 89.169 -2.40044 -5.40493 0
M  V30 967 H 88.099 -0.15567 -0.737755 0
M  V30 968 H 90.75 -1.0239 -1.52278 0
M  V30 969 H 89.132 -0.0433766 -3.95976 0
M  V30 970 H 90.306 -2.87936 -3.59763 0
M  V30 971 H 88.621 -2.47654 -3.34749 0
M  V30 972 H 91.218 -0.517601 -5.32189 0
M  V30 973 H 91.561 0.688078 -4.10574 0
M  V30 974 H 92.094 -0.991702 -3.8524 0
M  V30 975 H 88.833 -3.44271 -5.57815 0
M  V30 976 H 88.353 -1.73785 -5.74072 0
M  V30 977 H 90.032 -2.23042 -6.0734 0
M  V30 978 N 90.1641 1.46063 -0.591896 0
M  V30 979 C 91.0961 2.28539 0.174001 0
M  V30 980 C 92.1091 1.39047 0.846753 0
M  V30 981 O 93.2981 1.63564 0.714774 0
M  V30 982 C 90.3981 3.14347 1.26645 0
M  V30 983 C 89.5711 4.32021 0.683856 0
M  V30 984 C 88.6301 4.99157 1.66518 0
M  V30 985 O 87.6561 5.56458 1.19763 0
M  V30 986 N 88.8581 4.97005 2.99943 0
M  V30 987 H 91.6231 2.94911 -0.533633 0
M  V30 988 H 89.1841 1.56077 -0.430294 0
M  V30 989 H 91.1761 3.56125 1.92242 0
M  V30 990 H 89.7461 2.49988 1.87682 0
M  V30 991 H 88.9661 3.93915 -0.1498 0
M  V30 992 H 90.2541 5.08059 0.274567 0
M  V30 993 H 89.6521 4.51714 3.40545 0
M  V30 994 H 88.2091 5.42696 3.61004 0
M  V30 995 N 91.6422 0.330177 1.54103 0
M  V30 996 C 92.5742 -0.566902 2.22079 0
M  V30 997 C 93.5872 -1.07462 1.22294 0
M  V30 998 O 94.7762 -0.987065 1.48726 0
M  V30 999 C 91.8762 -1.79138 2.87685 0
M  V30 1000 C 91.0492 -1.42123 4.13666 0
M  V30 1001 C 90.1082 -2.50394 4.62806 0
M  V30 1002 O 89.1342 -2.14261 5.27334 0
M  V30 1003 N 90.3362 -3.81433 4.37595 0
M  V30 1004 H 93.1012 0.0151844 2.99696 0
M  V30 1005 H 90.6622 0.153681 1.61169 0
M  V30 1006 H 92.6542 -2.50975 3.1748 0
M  V30 1007 H 91.2242 -2.28115 2.13734 0
M  V30 1008 H 90.4442 -0.534201 3.90564 0
M  V30 1009 H 91.7322 -1.14971 4.9564 0
M  V30 1010 H 91.1302 -4.13584 3.8596 0
M  V30 1011 H 89.6872 -4.4948 4.72029 0
M  V30 1012 N 93.1203 -1.57491 0.0584922 0
M  V30 1013 C 94.3483 -1.97296 -0.623037 0
M  V30 1014 C 94.7633 -0.936338 -1.63946 0
M  V30 1015 O 94.1203 0.0785981 -1.82331 0
M  V30 1016 C 94.1713 -3.37183 -1.30345 0
M  V30 1017 O 93.8923 -4.36872 -0.32773 0
M  V30 1018 C 95.3933 -3.91788 -2.07406 0
M  V30 1019 H 92.6133 -0.649153 -0.169826 0
M  V30 1020 H 95.1573 -2.04106 0.12696 0
M  V30 1021 H 93.3123 -3.31502 -2.00463 0
M  V30 1022 H 93.7263 -5.18141 -0.814269 0
M  V30 1023 H 95.2003 -4.91926 -2.50425 0
M  V30 1024 H 95.6773 -3.27609 -2.92521 0
M  V30 1025 H 96.2833 -4.00829 -1.42184 0
M  V30 1026 N 94.5984 0.214957 -1.56127 0
M  V30 1027 C 95.8454 0.938372 -1.79446 0
M  V30 1028 C 96.1734 1.8407 -0.628378 0
M  V30 1029 O 95.4284 1.91837 0.386925 0
M  V30 1030 C 95.7274 1.80314 -3.0858 0
M  V30 1031 C 95.3934 1.05349 -4.3842 0
M  V30 1032 C 94.0554 0.846435 -4.73697 0
M  V30 1033 C 96.4074 0.524588 -5.18553 0
M  V30 1034 C 93.7354 0.098683 -5.86617 0
M  V30 1035 C 96.0874 -0.209853 -6.32252 0
M  V30 1036 C 94.7514 -0.428102 -6.66126 0
M  V30 1037 H 94.0214 0.343375 -0.656639 0
M  V30 1038 H 96.6684 0.206077 -1.90388 0
M  V30 1039 H 94.9734 2.6035 -2.92789 0
M  V30 1040 H 96.6704 2.36513 -3.23825 0
M  V30 1041 H 93.2604 1.22486 -4.10725 0
M  V30 1042 H 97.4444 0.672008 -4.91729 0
M  V30 1043 H 92.7004 -0.0805753 -6.11347 0
M  V30 1044 H 96.8744 -0.627157 -6.9357 0
M  V30 1045 H 94.5014 -1.00944 -7.53468 0
M  V30 1046 N 96.0765 1.50051 0.48192 0
M  V30 1047 C 97.0245 1.68635 1.60203 0
M  V30 1048 C 98.0185 0.552184 1.60148 0
M  V30 1049 O 99.2245 0.732377 1.64427 0
M  V30 1050 H 95.5995 0.532081 0.531407 0
M  V30 1051 H 97.5705 2.62616 1.41688 0
M  V30 1052 C 96.3195 1.78775 2.9822 0
M  V30 1053 H 95.6425 2.6543 2.98976 0
M  V30 1054 H 97.0825 1.95806 3.7608 0
M  V30 1055 C 95.5415 0.536849 3.32595 0
M  V30 1056 O 96.0715 -0.328897 4.00351 0
M  V30 1057 N 94.2775 0.394091 2.87915 0
M  V30 1058 H 93.8245 1.09962 2.32951 0
M  V30 1059 H 93.7825 -0.441737 3.11281 0
M  V30 1060 N 97.5546 -0.734337 1.39446 0
M  V30 1061 C 98.4846 -1.86155 1.40955 0
M  V30 1062 C 99.4656 -1.67898 0.272827 0
M  V30 1063 O 100.651 -1.88207 0.478743 0
M  V30 1064 C 97.7806 -3.23912 1.25294 0
M  V30 1065 C 96.7346 -3.56808 2.36373 0
M  V30 1066 C 96.0606 -4.93508 2.058 0
M  V30 1067 C 97.3606 -3.59713 3.78687 0
M  V30 1068 H 99.0546 -1.8515 2.35287 0
M  V30 1069 H 96.6006 -0.889367 1.13253 0
M  V30 1070 H 98.5536 -4.02443 1.2497 0
M  V30 1071 H 97.2776 -3.25446 0.274308 0
M  V30 1072 H 95.9366 -2.80606 2.35914 0
M  V30 1073 H 95.5846 -4.91623 1.06374 0
M  V30 1074 H 95.2846 -5.16486 2.80208 0
M  V30 1075 H 96.8086 -5.74396 2.07128 0
M  V30 1076 H 98.2226 -4.2832 3.81071 0
M  V30 1077 H 96.6196 -3.94209 4.52459 0
M  V30 1078 H 97.6896 -2.59504 4.09617 0
M  V30 1079 N 99.0327 -1.24633 -0.964593 0
M  V30 1080 C 100.28 -1.08788 -1.70796 0
M  V30 1081 C 100.608 0.372783 -1.90894 0
M  V30 1082 O 99.8627 1.29167 -1.47018 0
M  V30 1083 C 100.162 -1.7763 -3.10133 0
M  V30 1084 C 99.8277 -3.27557 -3.09866 0
M  V30 1085 C 98.4897 -3.6846 -3.09501 0
M  V30 1086 C 100.842 -4.23389 -3.03959 0
M  V30 1087 C 98.1697 -5.03624 -3.00965 0
M  V30 1088 C 100.522 -5.58565 -2.96965 0
M  V30 1089 C 99.1857 -5.98809 -2.9493 0
M  V30 1090 H 98.4557 -0.398084 -0.624988 0
M  V30 1091 H 101.103 -1.54777 -1.12767 0
M  V30 1092 H 99.4077 -1.24044 -3.71645 0
M  V30 1093 H 101.105 -1.62832 -3.66451 0
M  V30 1094 H 97.6947 -2.95006 -3.10917 0
M  V30 1095 H 101.879 -3.92787 -3.03368 0
M  V30 1096 H 97.1347 -5.33998 -2.97752 0
M  V30 1097 H 101.309 -6.32523 -2.91354 0
M  V30 1098 H 98.9357 -7.03505 -2.88071 0
M  V30 1099 N 100.511 1.16574 -1.06058 0
M  V30 1100 C 101.736 1.91493 -0.796562 0
M  V30 1101 C 102.161 1.76773 0.642868 0
M  V30 1102 O 101.519 1.09142 1.44768 0
M  V30 1103 C 101.567 3.40293 -1.19303 0
M  V30 1104 O 100.671 4.11074 -0.330394 0
M  V30 1105 H 100.012 0.596678 -0.291326 0
M  V30 1106 H 102.542 1.47708 -1.41575 0
M  V30 1107 H 102.552 3.91057 -1.16356 0
M  V30 1108 H 101.227 3.50326 -2.24153 0
M  V30 1109 H 99.8038 3.70513 -0.421225 0
M  V30 1110 N 101.989 0.842826 1.3317 0
M  V30 1111 C 103.217 0.454055 2.01856 0
M  V30 1112 C 103.632 -0.94587 1.63397 0
M  V30 1113 O 102.989 -1.61534 0.849302 0
M  V30 1114 C 103.04 0.569715 3.56982 0
M  V30 1115 O 102.761 1.91448 3.94055 0
M  V30 1116 C 104.262 0.178412 4.42941 0
M  V30 1117 H 101.482 0.17979 0.646465 0
M  V30 1118 H 104.026 1.1365 1.70012 0
M  V30 1119 H 102.181 -0.0648587 3.87346 0
M  V30 1120 H 102.595 1.90282 4.88767 0
M  V30 1121 H 104.069 0.310376 5.51127 0
M  V30 1122 H 104.546 -0.880056 4.30293 0
M  V30 1123 H 105.152 0.787579 4.17944 0
M  V30 1124 N 103.467 -1.45747 0.599634 0
M  V30 1125 C 104.377 -2.34262 -0.125888 0
M  V30 1126 C 105.393 -1.50768 -0.868625 0
M  V30 1127 O 106.569 -1.83592 -0.828003 0
M  V30 1128 C 103.634 -3.28252 -1.11587 0
M  V30 1129 C 102.695 -4.27651 -0.375956 0
M  V30 1130 C 101.928 -5.1715 -1.31877 0
M  V30 1131 O 102.151 -5.09916 -2.55621 0
M  V30 1132 O 101.085 -5.96286 -0.820157 0
M  V30 1133 H 104.911 -2.97688 0.601315 0
M  V30 1134 H 102.496 -1.44999 0.359934 0
M  V30 1135 H 104.378 -3.86191 -1.68626 0
M  V30 1136 H 103.053 -2.67401 -1.82424 0
M  V30 1137 H 101.96 -3.7335 0.236698 0
M  V30 1138 H 103.293 -4.91334 0.29177 0
M  V30 1139 N 104.945 -0.338344 -1.53925 0
M  V30 1140 C 106.222 0.314774 -1.93051 0
M  V30 1141 C 106.602 1.68669 -1.26941 0
M  V30 1142 O 105.95 2.24636 -0.418445 0
M  V30 1143 C 106.16 0.392249 -3.46789 0
M  V30 1144 C 107.508 0.645554 -4.19664 0
M  V30 1145 O 108.532 0.474575 -3.53024 0
M  V30 1146 O 107.391 0.976408 -5.37707 0
M  V30 1147 H 104.485 0.182598 -0.80659 0
M  V30 1148 H 107.031 -0.389141 -1.65178 0
M  V30 1149 H 105.803 -0.570702 -3.87116 0
M  V30 1150 H 105.426 1.14316 -3.80812 0
M  V30 1151 N 106.423 1.57458 -0.0668435 0
M  V30 1152 C 107.648 1.9804 0.616027 0
M  V30 1153 C 108.073 0.944771 1.62652 0
M  V30 1154 O 107.431 -0.0902094 1.81075 0
M  V30 1155 C 107.479 3.37665 1.26549 0
M  V30 1156 O 106.583 3.36701 2.38131 0
M  V30 1157 H 105.924 0.644719 0.158849 0
M  V30 1158 H 108.454 2.04121 -0.139891 0
M  V30 1159 H 108.464 3.7474 1.6135 0
M  V30 1160 H 107.139 4.12573 0.525016 0
M  V30 1161 H 105.716 3.1139 2.0516 0
M  V30 1162 N 107.901 -0.206675 1.56239 0
M  V30 1163 C 109.126 -0.949474 1.8439 0
M  V30 1164 C 109.551 -1.76549 0.649016 0
M  V30 1165 O 108.909 -1.76782 -0.402231 0
M  V30 1166 C 108.957 -1.83078 3.10668 0
M  V30 1167 O 108.061 -2.9281 2.90407 0
M  V30 1168 H 107.402 -0.268033 0.607499 0
M  V30 1169 H 109.932 -0.215488 2.03462 0
M  V30 1170 H 109.942 -2.2377 3.41161 0
M  V30 1171 H 108.617 -1.23112 3.97261 0
M  V30 1172 H 107.194 -2.55956 2.71184 0
M  V30 1173 N 109.379 -1.50304 -0.473955 0
M  V30 1174 C 110.342 -1.6841 -1.55469 0
M  V30 1175 C 111.342 -0.554905 -1.50922 0
M  V30 1176 O 112.532 -0.821882 -1.53593 0
M  V30 1177 C 109.664 -1.70667 -2.95102 0
M  V30 1178 H 110.857 -2.64828 -1.40733 0
M  V30 1179 H 108.41 -1.39742 -0.700132 0
M  V30 1180 H 109.145 -0.75932 -3.15285 0
M  V30 1181 H 108.93 -2.52698 -2.9981 0
M  V30 1182 H 110.42 -1.8664 -3.73571 0
M  V30 1183 N 110.857 0.726932 -1.39834 0
M  V30 1184 C 111.82 1.82269 -1.38962 0
M  V30 1185 C 112.82 1.58248 -0.285334 0
M  V30 1186 O 114.01 1.65499 -0.54366 0
M  V30 1187 C 111.142 3.20186 -1.17019 0
M  V30 1188 H 112.335 1.84443 -2.36476 0
M  V30 1189 H 109.888 0.931416 -1.25516 0
M  V30 1190 H 110.623 3.23669 -0.202204 0
M  V30 1191 H 110.408 3.3902 -1.96998 0
M  V30 1192 H 111.898 4.00235 -1.1917 0
M  V30 1193 N 112.336 1.25143 0.95797 0
M  V30 1194 C 113.582 1.10863 1.70531 0
M  V30 1195 C 113.937 -0.347391 1.89238 0
M  V30 1196 O 113.23 -1.25262 1.44983 0
M  V30 1197 C 113.424 1.79272 3.09187 0
M  V30 1198 C 113.253 3.31376 3.04006 0
M  V30 1199 C 112.023 4.0062 3.07948 0
M  V30 1200 C 114.221 4.27825 2.8543 0
M  V30 1201 N 112.203 5.39526 2.9289 0
M  V30 1202 C 113.574 5.53794 2.78769 0
M  V30 1203 C 115.629 4.1828 2.70085 0
M  V30 1204 C 114.332 6.7131 2.58331 0
M  V30 1205 C 116.358 5.35485 2.51017 0
M  V30 1206 C 115.72 6.60393 2.45073 0
M  V30 1207 H 111.819 0.460362 0.632132 0
M  V30 1208 H 114.403 1.58196 1.13499 0
M  V30 1209 H 112.574 1.34439 3.64391 0
M  V30 1210 H 114.306 1.57764 3.72683 0
M  V30 1211 H 111.061 3.51855 3.17009 0
M  V30 1212 H 111.485 6.12416 2.88574 0
M  V30 1213 H 116.127 3.22461 2.73457 0
M  V30 1214 H 113.845 7.67243 2.53701 0
M  V30 1215 H 117.431 5.29959 2.40073 0
M  V30 1216 H 116.311 7.49557 2.30509 0
M  V30 1217 N 113.814 -1.1601 1.06675 0
M  V30 1218 C 114.724 -2.24156 0.692179 0
M  V30 1219 C 115.74 -1.71507 -0.293513 0
M  V30 1220 O 116.916 -2.009 -0.141861 0
M  V30 1221 C 113.981 -3.46587 0.0884131 0
M  V30 1222 C 113.042 -4.14257 1.12646 0
M  V30 1223 C 112.275 -5.30844 0.551416 0
M  V30 1224 O 112.498 -5.66858 -0.634656 0
M  V30 1225 O 111.432 -5.87848 1.29298 0
M  V30 1226 H 115.258 -2.58513 1.59388 0
M  V30 1227 H 112.843 -1.23599 0.83926 0
M  V30 1228 H 114.725 -4.20679 -0.246361 0
M  V30 1229 H 113.4 -3.13994 -0.786712 0
M  V30 1230 H 112.307 -3.42118 1.51348 0
M  V30 1231 H 113.64 -4.50914 1.97325 0
M  V30 1232 N 115.292 -0.849877 -1.32721 0
M  V30 1233 C 116.224 -0.248332 -2.27851 0
M  V30 1234 C 117.237 0.577218 -1.52224 0
M  V30 1235 O 118.426 0.402489 -1.73903 0
M  V30 1236 C 115.526 0.668107 -3.32249 0
M  V30 1237 C 114.699 -0.120534 -4.37234 0
M  V30 1238 C 113.758 0.720932 -5.21238 0
M  V30 1239 O 112.784 0.156166 -5.68986 0
M  V30 1240 N 113.986 2.03647 -5.43607 0
M  V30 1241 H 116.751 -1.06575 -2.80111 0
M  V30 1242 H 114.312 -0.709395 -1.45531 0
M  V30 1243 H 116.304 1.23627 -3.85355 0
M  V30 1244 H 114.874 1.38621 -2.80184 0
M  V30 1245 H 114.094 -0.870108 -3.84477 0
M  V30 1246 H 115.382 -0.662406 -5.0447 0
M  V30 1247 H 114.78 2.51871 -5.06535 0
M  V30 1248 H 113.337 2.55287 -5.99727 0
M  V30 1249 N 116.77 1.45427 -0.607355 0
M  V30 1250 C 117.995 2.07124 -0.107006 0
M  V30 1251 C 118.42 1.44906 1.19933 0
M  V30 1252 O 117.778 0.541687 1.73019 0
M  V30 1253 C 117.826 3.60595 0.0194119 0
M  V30 1254 O 116.93 3.98285 1.0697 0
M  V30 1255 H 116.271 0.659868 -0.0739597 0
M  V30 1256 H 118.801 1.86683 -0.837297 0
M  V30 1257 H 118.811 4.07419 0.2177 0
M  V30 1258 H 117.486 4.05266 -0.934453 0
M  V30 1259 H 116.063 3.63133 0.847889 0
M  V30 1260 N 118.248 0.346503 1.53744 0
M  V30 1261 C 119.178 -0.501193 2.28058 0
M  V30 1262 C 120.159 -1.10014 1.29734 0
M  V30 1263 O 121.344 -1.12097 1.58581 0
M  V30 1264 C 118.474 -1.65078 3.05559 0
M  V30 1265 C 117.428 -1.18003 4.11411 0
M  V30 1266 C 116.754 -2.41837 4.76884 0
M  V30 1267 C 118.054 -0.278394 5.21558 0
M  V30 1268 H 119.748 0.11875 2.99164 0
M  V30 1269 H 117.294 0.0585531 1.43881 0
M  V30 1270 H 119.247 -2.25028 3.56287 0
M  V30 1271 H 117.971 -2.29767 2.32109 0
M  V30 1272 H 116.63 -0.603331 3.61601 0
M  V30 1273 H 116.278 -3.0494 4.00026 0
M  V30 1274 H 115.978 -2.1102 5.48402 0
M  V30 1275 H 117.502 -3.02508 5.30397 0
M  V30 1276 H 118.916 -0.784823 5.67903 0
M  V30 1277 H 117.313 -0.0619707 6.00068 0
M  V30 1278 H 118.383 0.684677 4.80042 0
M  V30 1279 N 119.726 -1.57421 0.075193 0
M  V30 1280 C 120.656 -2.15942 -0.888324 0
M  V30 1281 C 121.637 -1.08737 -1.30806 0
M  V30 1282 O 122.822 -1.36787 -1.37851 0
M  V30 1283 C 119.952 -2.72379 -2.1547 0
M  V30 1284 C 118.906 -3.8478 -1.87425 0
M  V30 1285 C 118.232 -4.27834 -3.20721 0
M  V30 1286 C 119.532 -5.08869 -1.17684 0
M  V30 1287 H 121.226 -2.96705 -0.400799 0
M  V30 1288 H 118.772 -1.42723 -0.191342 0
M  V30 1289 H 120.725 -3.11965 -2.83295 0
M  V30 1290 H 119.449 -1.88841 -2.6647 0
M  V30 1291 H 118.108 -3.45703 -1.22004 0
M  V30 1292 H 117.756 -3.41214 -3.6957 0
M  V30 1293 H 117.456 -5.03605 -3.02746 0
M  V30 1294 H 118.98 -4.70039 -3.89738 0
M  V30 1295 H 120.394 -5.4575 -1.75584 0
M  V30 1296 H 118.791 -5.8994 -1.09956 0
M  V30 1297 H 119.861 -4.84648 -0.156453 0
M  V30 1298 N 121.204 0.198386 -1.56346 0
M  V30 1299 C 122.114 1.2664 -1.97483 0
M  V30 1300 C 123.13 1.49989 -0.882002 0
M  V30 1301 O 124.306 1.62668 -1.18748 0
M  V30 1302 C 121.371 2.59141 -2.30319 0
M  V30 1303 C 120.432 2.43892 -3.53292 0
M  V30 1304 C 119.665 3.70074 -3.84553 0
M  V30 1305 O 119.888 4.74101 -3.1715 0
M  V30 1306 O 118.822 3.658 -4.7799 0
M  V30 1307 H 122.648 0.947304 -2.88548 0
M  V30 1308 H 120.233 0.403123 -1.43859 0
M  V30 1309 H 122.115 3.37352 -2.5253 0
M  V30 1310 H 120.79 2.90684 -1.42423 0
M  V30 1311 H 119.697 1.63803 -3.36332 0
M  V30 1312 H 121.03 2.17282 -4.41644 0
M  V30 1313 N 122.682 1.50554 0.465978 0
M  V30 1314 C 123.629 1.6979 1.56333 0
M  V30 1315 C 124.599 0.539239 1.57103 0
M  V30 1316 O 125.784 0.770401 1.74555 0
M  V30 1317 C 122.924 1.80273 2.94271 0
M  V30 1318 C 122.037 3.07674 3.0325 0
M  V30 1319 C 121.172 3.08922 4.32135 0
M  V30 1320 C 120.211 4.30755 4.34875 0
M  V30 1321 N 119.348 4.29714 5.55239 0
M  V30 1322 H 124.188 2.63472 1.39235 0
M  V30 1323 H 121.725 1.30602 0.676873 0
M  V30 1324 H 123.683 1.84332 3.74269 0
M  V30 1325 H 122.313 0.900258 3.09992 0
M  V30 1326 H 121.365 3.13062 2.16094 0
M  V30 1327 H 122.677 3.97642 3.01135 0
M  V30 1328 H 121.831 3.11738 5.20485 0
M  V30 1329 H 120.57 2.16792 4.36866 0
M  V30 1330 H 119.575 4.28146 3.44922 0
M  V30 1331 H 120.8 5.24117 4.31831 0
M  V30 1332 H 118.746 3.4044 5.60746 0
M  V30 1333 H 118.663 5.13456 5.54886 0
M  V30 1334 H 119.931 4.36683 6.457 0
M  V30 1335 N 124.16 -0.719506 1.40217 0
M  V30 1336 C 125.407 -1.47933 1.38283 0
M  V30 1337 C 125.735 -1.94493 -0.0161536 0
M  V30 1338 O 124.99 -1.68224 -0.999956 0
M  V30 1339 C 125.289 -2.72271 2.31524 0
M  V30 1340 C 124.955 -2.44496 3.78857 0
M  V30 1341 C 123.617 -2.36631 4.18998 0
M  V30 1342 C 125.969 -2.21104 4.71977 0
M  V30 1343 C 123.297 -2.03437 5.503 0
M  V30 1344 C 125.649 -1.89423 6.03574 0
M  V30 1345 C 124.313 -1.80038 6.42762 0
M  V30 1346 H 123.583 -0.541325 0.506012 0
M  V30 1347 H 126.23 -0.824502 1.72842 0
M  V30 1348 H 124.535 -3.42572 1.90137 0
M  V30 1349 H 126.232 -3.30348 2.27313 0
M  V30 1350 H 122.822 -2.51503 3.47051 0
M  V30 1351 H 127.006 -2.26139 4.41786 0
M  V30 1352 H 122.262 -1.94705 5.79569 0
M  V30 1353 H 126.436 -1.70336 6.75247 0
M  V30 1354 H 124.063 -1.54083 7.44421 0
M  V30 1355 N 125.638 -1.25649 -0.95132 0
M  V30 1356 C 126.863 -1.13443 -1.73624 0
M  V30 1357 C 127.288 0.307565 -1.85568 0
M  V30 1358 O 126.646 1.22282 -1.33854 0
M  V30 1359 C 126.694 -1.79723 -3.12621 0
M  V30 1360 O 125.798 -1.07912 -3.98031 0
M  V30 1361 H 125.139 -0.395872 -0.533086 0
M  V30 1362 H 127.669 -1.66276 -1.1922 0
M  V30 1363 H 127.679 -1.86141 -3.63064 0
M  V30 1364 H 126.354 -2.84633 -3.03244 0
M  V30 1365 H 124.931 -1.09398 -3.56492 0
M  V30 1366 N 127.117 1.15442 -1.07289 0
M  V30 1367 C 128.345 1.90096 -0.81676 0
M  V30 1368 C 128.76 1.7798 0.629966 0
M  V30 1369 O 128.117 1.1313 1.43206 0
M  V30 1370 C 128.168 3.40466 -1.21512 0
M  V30 1371 O 127.889 3.52232 -2.60508 0
M  V30 1372 C 129.39 4.32145 -0.988198 0
M  V30 1373 H 126.61 0.602495 -0.295366 0
M  V30 1374 H 129.154 1.4627 -1.42918 0
M  V30 1375 H 127.309 3.81958 -0.647039 0
M  V30 1376 H 127.723 4.45549 -2.76742 0
M  V30 1377 H 129.197 5.36072 -1.31645 0
M  V30 1378 H 129.674 4.39135 0.0755063 0
M  V30 1379 H 130.28 3.96395 -1.54115 0
M  V30 1380 N 128.595 0.856903 1.32268 0
M  V30 1381 C 129.505 0.306131 2.32594 0
M  V30 1382 C 130.521 -0.577209 1.64147 0
M  V30 1383 O 131.697 -0.477043 1.95669 0
M  V30 1384 C 128.762 -0.494561 3.43154 0
M  V30 1385 C 127.823 0.415186 4.27288 0
M  V30 1386 C 127.056 -0.347387 5.32568 0
M  V30 1387 O 127.279 -1.57708 5.48165 0
M  V30 1388 O 126.213 0.287982 6.01211 0
M  V30 1389 H 130.039 1.13737 2.81598 0
M  V30 1390 H 127.624 0.619902 1.35932 0
M  V30 1391 H 129.506 -0.948944 4.10576 0
M  V30 1392 H 128.181 -1.30257 2.96336 0
M  V30 1393 H 127.088 0.917793 3.62667 0
M  V30 1394 H 128.421 1.18844 4.77637 0
M  V30 1395 N 130.073 -1.45103 0.615059 0
M  V30 1396 C 131.003 -2.33339 -0.0865619 0
M  V30 1397 C 131.984 -1.4727 -0.851209 0
M  V30 1398 O 133.169 -1.76026 -0.820281 0
M  V30 1399 C 130.299 -3.30095 -1.07956 0
M  V30 1400 C 129.253 -4.25858 -0.427628 0
M  V30 1401 C 128.579 -5.12361 -1.5294 0
M  V30 1402 C 129.879 -5.18165 0.655944 0
M  V30 1403 H 131.573 -2.92254 0.650224 0
M  V30 1404 H 129.119 -1.40532 0.314138 0
M  V30 1405 H 131.072 -3.90698 -1.57901 0
M  V30 1406 H 129.796 -2.69355 -1.84703 0
M  V30 1407 H 128.455 -3.66564 0.0510292 0
M  V30 1408 H 128.103 -4.47984 -2.28734 0
M  V30 1409 H 127.803 -5.77238 -1.09865 0
M  V30 1410 H 129.327 -5.75833 -2.03098 0
M  V30 1411 H 130.741 -5.72796 0.240257 0
M  V30 1412 H 129.138 -5.91559 1.00888 0
M  V30 1413 H 130.208 -4.60144 1.52957 0
M  V30 1414 N 131.551 -0.354651 -1.53558 0
M  V30 1415 C 132.781 0.239167 -2.05211 0
M  V30 1416 C 133.189 1.43879 -1.22863 0
M  V30 1417 O 132.532 1.81857 -0.259565 0
M  V30 1418 C 132.594 0.707251 -3.52474 0
M  V30 1419 C 132.258 -0.374212 -4.55465 0
M  V30 1420 C 133.255 -1.22054 -5.0537 0
M  V30 1421 C 130.94 -0.531323 -4.99482 0
M  V30 1422 C 132.934 -2.20942 -5.97882 0
M  V30 1423 C 130.621 -1.52358 -5.91802 0
M  V30 1424 C 131.619 -2.36108 -6.40892 0
M  V30 1425 O 131.307 -3.33643 -7.31394 0
M  V30 1426 H 131.039 0.0479716 -0.674296 0
M  V30 1427 H 133.593 -0.508121 -1.99016 0
M  V30 1428 H 131.823 1.50596 -3.56171 0
M  V30 1429 H 133.512 1.22285 -3.87042 0
M  V30 1430 H 134.278 -1.1103 -4.7212 0
M  V30 1431 H 130.157 0.110738 -4.60867 0
M  V30 1432 H 133.701 -2.86348 -6.36121 0
M  V30 1433 H 129.598 -1.63434 -6.24467 0
M  V30 1434 H 130.366 -3.29244 -7.4936 0
M  V30 1435 N 133.029 1.57378 -0.0835403 0
M  V30 1436 C 133.961 2.10389 0.909338 0
M  V30 1437 C 134.974 1.03858 1.25369 0
M  V30 1438 O 136.163 1.31338 1.20882 0
M  V30 1439 C 133.263 2.55908 2.2218 0
M  V30 1440 C 132.436 3.86145 2.05453 0
M  V30 1441 C 131.495 4.17633 3.20108 0
M  V30 1442 O 130.521 4.87043 2.94581 0
M  V30 1443 N 131.723 3.72113 4.45547 0
M  V30 1444 H 134.488 2.962 0.456657 0
M  V30 1445 H 132.049 1.61579 0.101877 0
M  V30 1446 H 134.041 2.74027 2.97811 0
M  V30 1447 H 132.611 1.75171 2.58909 0
M  V30 1448 H 131.831 3.7729 1.1422 0
M  V30 1449 H 133.119 4.7137 1.91541 0
M  V30 1450 H 132.517 3.16062 4.69171 0
M  V30 1451 H 131.074 3.95409 5.18165 0
M  V30 1452 N 134.507 -0.190092 1.56449 0
M  V30 1453 C 135.439 -1.25973 1.91477 0
M  V30 1454 C 136.452 -1.41452 0.805931 0
M  V30 1455 O 137.641 -1.41789 1.08435 0
M  V30 1456 C 134.741 -2.63117 2.13594 0
M  V30 1457 C 133.914 -2.69182 3.4476 0
M  V30 1458 C 132.973 -3.87557 3.5593 0
M  V30 1459 O 131.999 -3.74427 4.28711 0
M  V30 1460 N 133.201 -5.03224 2.89388 0
M  V30 1461 H 135.966 -0.962394 2.83828 0
M  V30 1462 H 133.527 -0.379981 1.57378 0
M  V30 1463 H 135.519 -3.40742 2.1835 0
M  V30 1464 H 134.089 -2.85319 1.27719 0
M  V30 1465 H 133.309 -1.77793 3.51828 0
M  V30 1466 H 134.597 -2.70229 4.31107 0
M  V30 1467 H 133.995 -5.16791 2.30094 0
M  V30 1468 H 132.552 -5.78778 2.99764 0
M  V30 1469 N 135.985 -1.50799 -0.457987 0
M  V30 1470 C 136.915 -1.73553 -1.5621 0
M  V30 1471 C 137.896 -0.584774 -1.59732 0
M  V30 1472 O 139.081 -0.825314 -1.7579 0
M  V30 1473 C 136.211 -1.84169 -2.94447 0
M  V30 1474 C 135.165 -2.99461 -3.0579 0
M  V30 1475 C 134.491 -2.95235 -4.45803 0
M  V30 1476 C 135.791 -4.39766 -2.81786 0
M  V30 1477 H 137.485 -2.66 -1.37421 0
M  V30 1478 H 135.031 -1.28002 -0.659662 0
M  V30 1479 H 136.984 -1.98672 -3.71628 0
M  V30 1480 H 135.708 -0.883545 -3.14422 0
M  V30 1481 H 134.367 -2.8463 -2.31044 0
M  V30 1482 H 134.015 -1.97239 -4.62715 0
M  V30 1483 H 133.715 -3.72642 -4.54326 0
M  V30 1484 H 135.239 -3.11803 -5.24987 0
M  V30 1485 H 136.653 -4.55054 -3.4871 0
M  V30 1486 H 135.05 -5.18722 -3.0174 0
M  V30 1487 H 136.12 -4.51229 -1.7754 0
M  V30 1488 N 137.463 0.71206 -1.40597 0
M  V30 1489 C 138.411 1.84746 -1.41321 0
M  V30 1490 C 139.405 1.66842 -0.293268 0
M  V30 1491 O 140.611 1.73904 -0.464481 0
M  V30 1492 H 136.986 0.608522 -0.441819 0
M  V30 1493 H 138.957 1.81252 -2.37045 0
M  V30 1494 C 137.706 3.22638 -1.29614 0
M  V30 1495 H 137.029 3.37023 -2.15071 0
M  V30 1496 H 138.469 4.02209 -1.3418 0
M  V30 1497 C 136.928 3.36899 -0.00673121 0
M  V30 1498 O 137.458 3.90186 0.954859 0
M  V30 1499 N 135.664 2.9053 0.0639327 0
M  V30 1500 H 135.211 2.47353 -0.719311 0
M  V30 1501 H 135.169 3.0045 0.926118 0
M  V30 1502 N 138.941 1.26152 0.944643 0
M  V30 1503 C 140.218 1.02247 1.66748 0
M  V30 1504 C 140.598 -0.448202 2.06287 0
M  V30 1505 O 139.946 -1.42779 1.78399 0
M  V30 1506 C 140.156 1.96788 2.88228 0
M  V30 1507 C 141.504 2.25201 3.59958 0
M  V30 1508 O 142.528 1.94626 2.98327 0
M  V30 1509 O 141.387 2.77242 4.70956 0
M  V30 1510 H 138.481 0.388517 0.730057 0
M  V30 1511 H 141.027 1.37348 0.99668 0
M  V30 1512 H 139.799 2.96047 2.55875 0
M  V30 1513 H 139.422 1.62145 3.63035 0
M  V30 1514 N 140.419 -1.14872 1.07899 0
M  V30 1515 C 141.349 -2.2193 0.725887 0
M  V30 1516 C 142.33 -1.67622 -0.28927 0
M  V30 1517 O 143.515 -1.93533 -0.160787 0
M  V30 1518 C 140.645 -3.47061 0.128856 0
M  V30 1519 C 139.599 -4.14363 1.07178 0
M  V30 1520 C 138.925 -5.33636 0.337229 0
M  V30 1521 C 140.225 -4.63492 2.40775 0
M  V30 1522 H 141.919 -2.51724 1.62097 0
M  V30 1523 H 139.465 -1.20991 0.780838 0
M  V30 1524 H 141.418 -4.21199 -0.130147 0
M  V30 1525 H 140.142 -3.16617 -0.80134 0
M  V30 1526 H 138.801 -3.42173 1.3158 0
M  V30 1527 H 138.449 -4.99449 -0.596606 0
M  V30 1528 H 138.149 -5.79609 0.965788 0
M  V30 1529 H 139.673 -6.10539 0.0861567 0
M  V30 1530 H 141.087 -5.2913 2.20669 0
M  V30 1531 H 139.484 -5.20148 2.99276 0
M  V30 1532 H 140.554 -3.78834 3.02676 0
M  V30 1533 N 141.898 -0.863906 -1.31812 0
M  V30 1534 C 142.808 -0.318461 -2.32428 0
M  V30 1535 C 143.824 0.568496 -1.64451 0
M  V30 1536 O 145 0.46666 -1.95919 0
M  V30 1537 C 142.065 0.476355 -3.43412 0
M  V30 1538 C 141.126 -0.43784 -4.27061 0
M  V30 1539 C 140.359 0.319138 -5.32745 0
M  V30 1540 O 140.582 1.54799 -5.48993 0
M  V30 1541 O 139.516 -0.319861 -6.01049 0
M  V30 1542 H 143.342 -1.15229 -2.80991 0
M  V30 1543 H 140.927 -0.627103 -1.35602 0
M  V30 1544 H 142.809 0.927156 -4.11074 0
M  V30 1545 H 141.484 1.28683 -2.97022 0
M  V30 1546 H 140.391 -0.937013 -3.62175 0
M  V30 1547 H 141.724 -1.21375 -4.77 0
M  V30 1548 N 143.376 1.44774 -0.622745 0
M  V30 1549 C 144.339 2.29069 0.0774015 0
M  V30 1550 C 145.339 1.4059 0.780461 0
M  V30 1551 O 146.529 1.62551 0.626322 0
M  V30 1552 C 143.661 3.21974 1.12006 0
M  V30 1553 H 144.854 2.92459 -0.663901 0
M  V30 1554 H 142.407 1.51548 -0.382486 0
M  V30 1555 H 143.142 2.63417 1.89162 0
M  V30 1556 H 142.927 3.87168 0.619951 0
M  V30 1557 H 144.417 3.85318 1.60995 0
M  V30 1558 N 144.854 0.36279 1.53368 0
M  V30 1559 C 146.094 -0.227882 2.03126 0
M  V30 1560 C 146.458 -1.4622 1.24434 0
M  V30 1561 O 147.659 -2.12831 1.64184 0
M  V30 1562 C 145.93 -0.515427 3.53664 0
M  V30 1563 S 147.489 -1.08017 4.25297 0
M  V30 1564 H 144.307 -0.0665377 0.70788 0
M  V30 1565 H 146.909 0.50501 1.88865 0
M  V30 1566 H 145.613 0.390436 4.08539 0
M  V30 1567 H 145.144 -1.27747 3.72081 0
M  V30 1568 H 147.159 -2.36462 4.36234 0
M  V30 1569 N 146.332 -1.57332 0.0918853 0
M  V30 1570 C 147.578 -1.94524 -0.573425 0
M  V30 1571 C 147.911 -0.973578 -1.68033 0
M  V30 1572 O 147.186 -0.00609226 -1.94499 0
M  V30 1573 C 147.469 -3.41858 -1.13161 0
M  V30 1574 C 147.322 -4.4979 -0.0299747 0
M  V30 1575 C 148.641 -3.90435 -2.03098 0
M  V30 1576 H 145.76 -0.70734 -0.206975 0
M  V30 1577 H 148.402 -1.89309 0.161942 0
M  V30 1578 H 146.552 -3.46433 -1.7583 0
M  V30 1579 H 148.224 -4.57327 0.604112 0
M  V30 1580 H 146.467 -4.291 0.636833 0
M  V30 1581 H 147.138 -5.50069 -0.461287 0
M  V30 1582 H 149.614 -3.87992 -1.50338 0
M  V30 1583 H 148.49 -4.94097 -2.39081 0
M  V30 1584 H 148.751 -3.29541 -2.94712 0
M  V30 1585 N 147.81 0.181792 -1.56548 0
M  V30 1586 C 149.059 0.898348 -1.8059 0
M  V30 1587 C 149.372 1.83862 -0.667379 0
M  V30 1588 O 150.578 2.59678 -0.792446 0
M  V30 1589 C 149.034 1.64791 -3.19956 0
M  V30 1590 C 148.642 0.751789 -4.41647 0
M  V30 1591 C 150.386 2.35331 -3.53298 0
M  V30 1592 C 148.293 1.50098 -5.72035 0
M  V30 1593 H 147.223 0.339194 -0.673397 0
M  V30 1594 H 149.874 0.151413 -1.82874 0
M  V30 1595 H 148.256 2.43921 -3.11959 0
M  V30 1596 H 149.43 -0.0018076 -4.608 0
M  V30 1597 H 147.745 0.156562 -4.16106 0
M  V30 1598 H 150.342 2.91958 -4.47956 0
M  V30 1599 H 150.685 3.10164 -2.77676 0
M  V30 1600 H 151.218 1.63154 -3.62803 0
M  V30 1601 H 147.957 0.795175 -6.50659 0
M  V30 1602 H 147.477 2.22817 -5.56878 0
M  V30 1603 H 149.156 2.05125 -6.13622 0
M  V30 1604 N 149.288 1.51039 0.449983 0
M  V30 1605 C 150.22 1.67617 1.56324 0
M  V30 1606 C 151.233 0.557083 1.52972 0
M  V30 1607 O 152.422 0.830989 1.57977 0
M  V30 1608 C 149.522 1.66402 2.95235 0
M  V30 1609 C 148.695 2.9469 3.23229 0
M  V30 1610 C 147.754 2.85832 4.41799 0
M  V30 1611 O 146.78 3.59785 4.41071 0
M  V30 1612 N 147.982 2.00821 5.44657 0
M  V30 1613 H 150.747 2.63648 1.42512 0
M  V30 1614 H 148.308 1.48767 0.638737 0
M  V30 1615 H 150.3 1.58062 3.72557 0
M  V30 1616 H 148.87 0.780182 3.02708 0
M  V30 1617 H 148.09 3.16996 2.34323 0
M  V30 1618 H 149.378 3.79636 3.38754 0
M  V30 1619 H 148.776 1.40091 5.48079 0
M  V30 1620 H 147.333 1.98368 6.20881 0
M  V30 1621 N 150.766 -0.704594 1.40972 0
M  V30 1622 C 151.676 -1.84856 1.44448 0
M  V30 1623 C 152.692 -1.70726 0.335961 0
M  V30 1624 O 153.868 -1.92799 0.582276 0
M  V30 1625 C 150.933 -3.20758 1.31587 0
M  V30 1626 C 149.994 -3.47063 2.52677 0
M  V30 1627 C 149.227 -4.76481 2.4042 0
M  V30 1628 O 149.45 -5.52341 1.42391 0
M  V30 1629 O 148.384 -5.03367 3.30007 0
M  V30 1630 H 152.21 -1.8488 2.40942 0
M  V30 1631 H 149.795 -0.85647 1.22413 0
M  V30 1632 H 151.677 -4.01913 1.26665 0
M  V30 1633 H 150.352 -3.21438 0.382049 0
M  V30 1634 H 149.259 -2.65873 2.63177 0
M  V30 1635 H 150.592 -3.5119 3.44858 0
M  V30 1636 N 152.244 -1.26651 -0.937939 0
M  V30 1637 C 153.49 -1.12553 -1.687 0
M  V30 1638 C 153.823 0.329782 -1.91379 0
M  V30 1639 O 153.098 1.24202 -1.4968 0
M  V30 1640 C 153.381 -1.89862 -3.05981 0
M  V30 1641 C 153.234 -3.43318 -2.90607 0
M  V30 1642 C 154.553 -1.69499 -4.0615 0
M  V30 1643 H 151.672 -0.410257 -0.612257 0
M  V30 1644 H 154.314 -1.55685 -1.08913 0
M  V30 1645 H 152.464 -1.53204 -3.57017 0
M  V30 1646 H 154.136 -3.89747 -2.46769 0
M  V30 1647 H 152.379 -3.70179 -2.26164 0
M  V30 1648 H 153.05 -3.92642 -3.8799 0
M  V30 1649 H 155.526 -2.01442 -3.64088 0
M  V30 1650 H 154.402 -2.26002 -5.00214 0
M  V30 1651 H 154.663 -0.640365 -4.37438 0
M  V30 1652 N 153.722 1.14298 -1.08507 0
M  V30 1653 C 154.97 1.84993 -0.813763 0
M  V30 1654 C 155.291 1.83405 0.662393 0
M  V30 1655 O 154.561 1.28319 1.48024 0
M  V30 1656 H 153.141 0.684966 -0.298045 0
M  V30 1657 H 155.803 1.385 -1.37126 0
M  V30 1658 H 154.899 2.89788 -1.15884 0
M  V30 1659 N 155.201 0.870884 1.31352 0
M  V30 1660 C 156.447 0.482987 1.96965 0
M  V30 1661 C 156.78 -0.962462 1.68672 0
M  V30 1662 O 156.055 -1.6779 0.98371 0
M  V30 1663 C 156.338 0.741752 3.52378 0
M  V30 1664 C 156.191 2.2368 3.9024 0
M  V30 1665 C 157.51 0.208838 4.39604 0
M  V30 1666 H 154.629 0.176955 0.715441 0
M  V30 1667 H 157.271 1.09229 1.55464 0
M  V30 1668 H 155.421 0.223149 3.87859 0
M  V30 1669 H 157.093 2.82273 3.64856 0
M  V30 1670 H 155.336 2.70901 3.38814 0
M  V30 1671 H 156.007 2.3685 4.98604 0
M  V30 1672 H 158.483 0.652529 4.10952 0
M  V30 1673 H 157.359 0.419336 5.47296 0
M  V30 1674 H 157.62 -0.889275 4.33064 0
M  V30 1675 N 156.679 -1.44442 0.630414 0
M  V30 1676 C 157.589 -2.34476 -0.0761693 0
M  V30 1677 C 158.605 -1.52576 -0.836449 0
M  V30 1678 O 159.781 -1.85307 -0.788874 0
M  V30 1679 C 156.846 -3.30545 -1.04599 0
M  V30 1680 C 155.907 -4.28352 -0.28516 0
M  V30 1681 C 155.14 -5.19831 -1.20878 0
M  V30 1682 O 155.363 -5.15223 -2.44747 0
M  V30 1683 O 154.297 -5.97892 -0.693491 0
M  V30 1684 H 158.123 -2.96345 0.664324 0
M  V30 1685 H 155.708 -1.44203 0.39061 0
M  V30 1686 H 157.59 -3.89681 -1.60396 0
M  V30 1687 H 156.265 -2.7121 -1.76711 0
M  V30 1688 H 155.172 -3.72764 0.315837 0
M  V30 1689 H 156.505 -4.90605 0.395924 0
M  V30 1690 N 158.157 -0.370918 -1.53173 0
M  V30 1691 C 159.067 0.480823 -2.2962 0
M  V30 1692 C 160.083 1.08789 -1.35798 0
M  V30 1693 O 161.259 1.09768 -1.68858 0
M  V30 1694 C 158.324 1.60227 -3.07454 0
M  V30 1695 C 157.385 1.0222 -4.16953 0
M  V30 1696 C 156.618 2.0902 -4.91066 0
M  V30 1697 O 156.841 3.30222 -4.65091 0
M  V30 1698 O 155.775 1.71778 -5.76867 0
M  V30 1699 H 159.601 -0.141421 -3.03371 0
M  V30 1700 H 157.186 -0.135146 -1.48787 0
M  V30 1701 H 159.068 2.25417 -3.56041 0
M  V30 1702 H 157.743 2.20982 -2.36535 0
M  V30 1703 H 156.65 0.334064 -3.72605 0
M  V30 1704 H 157.983 0.459131 -4.90054 0
M  V30 1705 N 159.635 1.57281 -0.100228 0
M  V30 1706 C 160.863 1.98879 0.570509 0
M  V30 1707 C 161.278 0.979476 1.61405 0
M  V30 1708 O 160.635 -0.0302288 1.82475 0
M  V30 1709 C 160.686 3.4052 1.2136 0
M  V30 1710 O 160.407 4.37588 0.211786 0
M  V30 1711 C 161.908 3.97149 1.96945 0
M  V30 1712 H 159.128 0.653428 0.152555 0
M  V30 1713 H 161.672 2.03697 -0.18103 0
M  V30 1714 H 159.827 3.367 1.91603 0
M  V30 1715 H 160.241 5.20118 0.676607 0
M  V30 1716 H 161.715 4.98393 2.37294 0
M  V30 1717 H 162.192 3.3525 2.83733 0
M  V30 1718 H 162.798 4.04458 1.31506 0
M  V30 1719 N 161.113 -0.173488 1.56642 0
M  V30 1720 C 162.524 -0.736155 1.71574 0
M  V30 1721 C 162.875 -1.82888 0.710389 0
M  V30 1722 O 162 -2.16017 -0.1287 0
M  V30 1723 C 162.595 -1.34211 3.11083 0
M  V30 1724 C 161.154 -1.85162 3.27707 0
M  V30 1725 C 160.301 -0.729765 2.67525 0
M  V30 1726 H 163.252 0.0518786 1.58615 0
M  V30 1727 H 163.273 -2.21178 3.09613 0
M  V30 1728 H 162.785 -0.546579 3.84232 0
M  V30 1729 H 160.886 -2.67366 2.59512 0
M  V30 1730 H 160.999 -1.99855 4.35425 0
M  V30 1731 H 159.363 -1.14965 2.27278 0
M  V30 1732 H 160.146 0.0538806 3.43258 0
M  V30 1733 N 162.591 -1.51276 -0.441967 0
M  V30 1734 C 163.521 -1.752 -1.54361 0
M  V30 1735 C 164.502 -0.601682 -1.59103 0
M  V30 1736 O 165.687 -0.843913 -1.74905 0
M  V30 1737 C 162.817 -1.87282 -2.92477 0
M  V30 1738 C 161.771 -3.02687 -3.02596 0
M  V30 1739 C 161.097 -2.99947 -4.42647 0
M  V30 1740 C 162.397 -4.4273 -2.77106 0
M  V30 1741 H 164.091 -2.67442 -1.34592 0
M  V30 1742 H 161.637 -1.28694 -0.646048 0
M  V30 1743 H 163.59 -2.02602 -3.695 0
M  V30 1744 H 162.314 -0.916844 -3.13467 0
M  V30 1745 H 160.973 -2.87065 -2.28012 0
M  V30 1746 H 160.621 -2.02136 -4.60597 0
M  V30 1747 H 160.321 -3.77439 -4.50348 0
M  V30 1748 H 161.845 -3.17354 -5.2165 0
M  V30 1749 H 163.259 -4.58727 -3.43864 0
M  V30 1750 H 161.656 -5.21893 -2.96222 0
M  V30 1751 H 162.726 -4.53087 -1.72744 0
M  V30 1752 N 164.069 0.697108 -1.41344 0
M  V30 1753 C 165.002 1.82134 -1.37486 0
M  V30 1754 C 165.98 1.60784 -0.242351 0
M  V30 1755 O 167.164 1.83553 -0.429012 0
M  V30 1756 C 164.291 3.18788 -1.14421 0
M  V30 1757 C 163.337 3.58932 -2.3037 0
M  V30 1758 S 164.17 3.63916 -3.92843 0
M  V30 1759 C 165.326 5.03298 -3.72078 0
M  V30 1760 H 165.559 1.85129 -2.32625 0
M  V30 1761 H 163.092 0.865671 -1.2785 0
M  V30 1762 H 165.05 3.97677 -1.018 0
M  V30 1763 H 163.711 3.13404 -0.20905 0
M  V30 1764 H 162.904 4.58202 -2.09922 0
M  V30 1765 H 162.506 2.87347 -2.39391 0
M  V30 1766 H 164.798 5.90753 -3.31688 0
M  V30 1767 H 165.741 5.28788 -4.70945 0
M  V30 1768 H 166.149 4.74764 -3.05384 0
M  V30 1769 N 165.547 1.27147 0.931209 0
M  V30 1770 C 166.495 1.09398 2.05268 0
M  V30 1771 C 167.489 0.0180591 1.6939 0
M  V30 1772 O 168.695 0.17551 1.79142 0
M  V30 1773 H 165.07 0.336986 0.672268 0
M  V30 1774 H 167.041 2.04416 2.17386 0
M  V30 1775 C 165.79 0.75424 3.39421 0
M  V30 1776 H 165.113 1.57404 3.67511 0
M  V30 1777 H 166.553 0.669903 4.18674 0
M  V30 1778 C 165.012 -0.541197 3.32525 0
M  V30 1779 O 165.542 -1.57664 3.69466 0
M  V30 1780 N 163.748 -0.535517 2.85623 0
M  V30 1781 H 163.295 0.307511 2.55758 0
M  V30 1782 H 163.253 -1.40236 2.81392 0
M  V30 1783 N 167.025 -1.13721 1.09112 0
M  V30 1784 C 167.935 -2.22638 0.73957 0
M  V30 1785 C 168.951 -1.72091 -0.257068 0
M  V30 1786 O 170.127 -2.01155 -0.0992154 0
M  V30 1787 C 167.192 -3.46322 0.16191 0
M  V30 1788 C 166.253 -4.11775 1.21408 0
M  V30 1789 C 165.486 -5.29555 0.663891 0
M  V30 1790 O 165.709 -5.68077 -0.514274 0
M  V30 1791 O 164.643 -5.84973 1.41738 0
M  V30 1792 H 168.469 -2.55074 1.64836 0
M  V30 1793 H 166.054 -1.21791 0.865289 0
M  V30 1794 H 167.936 -4.21107 -0.157073 0
M  V30 1795 H 166.611 -3.15593 -0.719932 0
M  V30 1796 H 165.518 -3.3883 1.58571 0
M  V30 1797 H 166.851 -4.46627 2.06845 0
M  V30 1798 N 168.503 -0.877838 -1.30888 0
M  V30 1799 C 169.78 -0.413052 -1.91189 0
M  V30 1800 C 170.16 1.1056 -1.79832 0
M  V30 1801 O 169.508 1.93771 -1.21099 0
M  V30 1802 C 169.718 -0.903191 -3.3711 0
M  V30 1803 C 171.066 -0.93395 -4.14201 0
M  V30 1804 O 172.09 -0.849373 -3.45925 0
M  V30 1805 O 170.949 -1.05772 -5.36167 0
M  V30 1806 H 168.043 -0.125035 -0.817493 0
M  V30 1807 H 170.589 -0.966269 -1.39504 0
M  V30 1808 H 169.361 -1.94692 -3.39427 0
M  V30 1809 H 168.984 -0.328732 -3.96239 0
M  V30 1810 N 169.982 1.44106 -0.638065 0
M  V30 1811 C 171.207 2.0685 -0.150916 0
M  V30 1812 C 171.632 1.47417 1.16833 0
M  V30 1813 O 170.99 0.578264 1.71831 0
M  V30 1814 C 171.038 3.60555 -0.05708 0
M  V30 1815 O 170.142 4.00465 0.984972 0
M  V30 1816 H 169.483 0.658151 -0.0879399 0
M  V30 1817 H 172.013 1.84865 -0.876707 0
M  V30 1818 H 172.023 4.07789 0.131232 0
M  V30 1819 H 170.698 4.03193 -1.02021 0
M  V30 1820 H 169.275 3.64849 0.770672 0
M  V30 1821 N 171.46 0.379036 1.52974 0
M  V30 1822 C 172.709 -0.207612 2.00629 0
M  V30 1823 C 173.022 -1.48758 1.27006 0
M  V30 1824 O 174.228 -2.15365 1.65318 0
M  V30 1825 C 172.684 -0.42053 3.57435 0
M  V30 1826 C 172.292 0.845587 4.39948 0
M  V30 1827 C 174.036 -0.964102 4.13407 0
M  V30 1828 C 171.943 0.601513 5.88333 0
M  V30 1829 H 170.873 -0.0813591 0.749598 0
M  V30 1830 H 173.524 0.499853 1.76561 0
M  V30 1831 H 171.906 -1.18959 3.7771 0
M  V30 1832 H 173.08 1.61848 4.31442 0
M  V30 1833 H 171.395 1.31336 3.95145 0
M  V30 1834 H 173.992 -1.16225 5.21916 0
M  V30 1835 H 174.335 -1.93019 3.68849 0
M  V30 1836 H 174.868 -0.25487 3.96983 0
M  V30 1837 H 171.607 1.53831 6.37194 0
M  V30 1838 H 171.127 -0.132628 5.99653 0
M  V30 1839 H 172.806 0.232134 6.46583 0
M  V30 1840 N 172.938 -1.57226 0.108567 0
M  V30 1841 C 173.868 -2.17778 -0.84232 0
M  V30 1842 C 174.849 -1.11487 -1.2847 0
M  V30 1843 O 176.034 -1.39681 -1.34918 0
M  V30 1844 C 173.164 -2.76888 -2.09644 0
M  V30 1845 C 172.118 -3.88669 -1.79221 0
M  V30 1846 C 171.444 -4.34541 -3.11574 0
M  V30 1847 C 172.744 -5.11251 -1.06864 0
M  V30 1848 H 174.438 -2.97489 -0.337774 0
M  V30 1849 H 171.984 -1.43097 -0.161025 0
M  V30 1850 H 173.937 -3.17904 -2.76614 0
M  V30 1851 H 172.661 -1.94451 -2.62405 0
M  V30 1852 H 171.32 -3.48213 -1.14644 0
M  V30 1853 H 170.968 -3.48977 -3.62249 0
M  V30 1854 H 170.668 -5.09914 -2.91996 0
M  V30 1855 H 172.192 -4.782 -3.7968 0
M  V30 1856 H 173.606 -5.49352 -1.63968 0
M  V30 1857 H 172.003 -5.9214 -0.974178 0
M  V30 1858 H 173.073 -4.8487 -0.0536168 0
M  V30 1859 N 174.416 0.165178 -1.56732 0
M  V30 1860 C 175.379 1.18822 -1.95995 0
M  V30 1861 C 176.379 1.3685 -0.84431 0
M  V30 1862 O 177.569 1.34152 -1.11126 0
M  V30 1863 C 174.701 2.5521 -2.26011 0
M  V30 1864 H 175.894 0.851825 -2.87548 0
M  V30 1865 H 173.447 0.407857 -1.50885 0
M  V30 1866 H 174.182 2.93852 -1.37191 0
M  V30 1867 H 173.967 2.43489 -3.07336 0
M  V30 1868 H 175.457 3.28927 -2.57288 0
M  V30 1869 N 175.894 1.51508 0.433938 0
M  V30 1870 C 177.14 1.64588 1.18484 0
M  V30 1871 C 177.473 0.362666 1.90784 0
M  V30 1872 O 176.748 -0.637892 1.83742 0
M  V30 1873 C 177.031 2.85149 2.19913 0
M  V30 1874 C 176.884 4.23456 1.51674 0
M  V30 1875 C 178.203 3.01227 3.20858 0
M  V30 1876 H 175.322 0.598994 0.429389 0
M  V30 1877 H 177.964 1.84002 0.473647 0
M  V30 1878 H 176.114 2.68729 2.80566 0
M  V30 1879 H 177.786 4.51552 0.943322 0
M  V30 1880 H 176.029 4.25998 0.819035 0
M  V30 1881 H 176.7 5.03812 2.2556 0
M  V30 1882 H 179.176 3.16382 2.70263 0
M  V30 1883 H 178.052 3.87141 3.89118 0
M  V30 1884 H 178.313 2.13447 3.8716 0
M  V30 1885 N 177.372 -0.689602 1.41712 0
M  V30 1886 C 178.788 -1.00093 1.24312 0
M  V30 1887 C 178.988 -2.01036 0.136729 0
M  V30 1888 O 178.044 -2.47562 -0.496918 0
M  V30 1889 C 179.357 -1.51985 2.59463 0
M  V30 1890 C 180.905 -1.63838 2.66695 0
M  V30 1891 C 181.38 -2.1913 4.02177 0
M  V30 1892 N 182.871 -2.26483 4.04054 0
M  V30 1893 C 183.606 -2.70306 5.0569 0
M  V30 1894 N 183.102 -3.13691 6.17713 0
M  V30 1895 N 184.895 -2.69923 4.9305 0
M  V30 1896 H 177.046 -0.0210029 2.1239 0
M  V30 1897 H 179.309 -0.0718733 0.945272 0
M  V30 1898 H 179.015 -0.85269 3.41207 0
M  V30 1899 H 178.889 -2.50103 2.82362 0
M  V30 1900 H 181.276 -2.29664 1.85306 0
M  V30 1901 H 181.357 -0.642492 2.476 0
M  V30 1902 H 181.001 -1.53918 4.84016 0
M  V30 1903 H 180.931 -3.19482 4.18615 0
M  V30 1904 H 183.422 -1.95874 3.23174 0
M  V30 1905 H 183.735 -3.45773 6.9113 0
M  V30 1906 H 182.08 -3.11585 6.21241 0
M  V30 1907 H 185.271 -2.35382 4.04614 0
M  V30 1908 H 185.444 -3.03758 5.72394 0
M  V30 1909 N 178.85 -1.27639 -0.924453 0
M  V30 1910 C 179.797 -1.10644 -2.0255 0
M  V30 1911 C 180.767 -0.00658438 -1.66099 0
M  V30 1912 O 181.952 -0.16952 -1.90045 0
M  V30 1913 C 179.092 -0.76309 -3.36557 0
M  V30 1914 C 178.205 -1.94091 -3.85944 0
M  V30 1915 C 177.34 -1.53914 -5.08413 0
M  V30 1916 C 176.379 -2.68425 -5.50104 0
M  V30 1917 N 175.516 -2.28815 -6.63768 0
M  V30 1918 H 180.356 -2.04858 -2.16419 0
M  V30 1919 H 177.893 -1.01974 -1.06017 0
M  V30 1920 H 179.851 -0.544822 -4.13627 0
M  V30 1921 H 178.481 0.142102 -3.22487 0
M  V30 1922 H 177.533 -2.27162 -3.05125 0
M  V30 1923 H 178.845 -2.7998 -4.12811 0
M  V30 1924 H 177.999 -1.28231 -5.92994 0
M  V30 1925 H 176.738 -0.651391 -4.8333 0
M  V30 1926 H 175.743 -2.94819 -4.64071 0
M  V30 1927 H 176.968 -3.57826 -5.7718 0
M  V30 1928 H 174.914 -1.42495 -6.40337 0
M  V30 1929 H 174.831 -3.08242 -6.90306 0
M  V30 1930 H 176.099 -2.06387 -7.51681 0
M  V30 1931 N 180.328 1.1314 -1.09713 0
M  V30 1932 C 181.558 1.88048 -0.855656 0
M  V30 1933 C 181.966 1.79537 0.596919 0
M  V30 1934 O 181.309 1.16196 1.42282 0
M  V30 1935 C 181.371 3.38314 -1.21589 0
M  V30 1936 C 181.035 3.70605 -2.67397 0
M  V30 1937 C 182.032 3.69596 -3.65643 0
M  V30 1938 C 179.717 4.0017 -3.03593 0
M  V30 1939 C 181.711 3.977 -4.9811 0
M  V30 1940 C 179.398 4.27935 -4.36251 0
M  V30 1941 C 180.396 4.26685 -5.33318 0
M  V30 1942 O 180.084 4.53767 -6.63589 0
M  V30 1943 H 179.816 0.60208 -0.307368 0
M  V30 1944 H 182.37 1.44128 -1.46343 0
M  V30 1945 H 180.6 3.82752 -0.551177 0
M  V30 1946 H 182.289 3.94552 -0.953083 0
M  V30 1947 H 183.055 3.46826 -3.39023 0
M  V30 1948 H 178.934 4.00289 -2.2867 0
M  V30 1949 H 182.478 3.9664 -5.73866 0
M  V30 1950 H 178.375 4.50178 -4.62613 0
M  V30 1951 H 179.143 4.71422 -6.69107 0
M  V30 1952 N 181.806 0.884767 1.30421 0
M  V30 1953 C 183.053 0.503105 1.96151 0
M  V30 1954 C 183.381 -0.947676 1.69851 0
M  V30 1955 O 182.636 -1.68467 0.995861 0
M  V30 1956 C 182.935 0.724318 3.49983 0
M  V30 1957 C 182.601 2.15015 3.96332 0
M  V30 1958 C 181.263 2.54005 4.08699 0
M  V30 1959 C 183.615 3.07936 4.20505 0
M  V30 1960 C 180.943 3.85128 4.42599 0
M  V30 1961 C 183.295 4.3859 4.55874 0
M  V30 1962 C 181.959 4.77474 4.66449 0
M  V30 1963 H 181.229 0.184099 0.717766 0
M  V30 1964 H 183.876 1.12058 1.55291 0
M  V30 1965 H 182.181 0.0238086 3.91793 0
M  V30 1966 H 183.878 0.408617 3.98913 0
M  V30 1967 H 180.468 1.8375 3.87213 0
M  V30 1968 H 184.652 2.79033 4.10431 0
M  V30 1969 H 179.908 4.14996 4.48986 0
M  V30 1970 H 184.082 5.10629 4.7353 0
M  V30 1971 H 181.709 5.79115 4.92473 0
M  V30 1972 N 183.284 -1.43765 0.645699 0
M  V30 1973 C 184.216 -2.29027 -0.0890605 0
M  V30 1974 C 185.229 -1.42093 -0.794563 0
M  V30 1975 O 186.418 -1.66104 -0.653575 0
M  V30 1976 C 183.518 -3.18831 -1.14891 0
M  V30 1977 C 182.691 -4.34261 -0.523043 0
M  V30 1978 C 181.75 -5.04994 -1.47878 0
M  V30 1979 O 180.776 -5.6052 -0.990277 0
M  V30 1980 N 181.978 -5.07795 -2.81291 0
M  V30 1981 H 184.743 -2.92727 0.64272 0
M  V30 1982 H 182.304 -1.54373 0.487924 0
M  V30 1983 H 184.296 -3.63015 -1.78892 0
M  V30 1984 H 182.866 -2.56782 -1.78275 0
M  V30 1985 H 182.086 -3.93088 0.295896 0
M  V30 1986 H 183.374 -5.08728 -0.0858147 0
M  V30 1987 H 182.772 -4.64042 -3.23546 0
M  V30 1988 H 181.329 -5.55721 -3.40614 0
M  V30 1989 N 184.763 -0.387143 -1.52771 0
M  V30 1990 C 186.179 -0.037007 -1.59557 0
M  V30 1991 C 186.379 1.44801 -1.40124 0
M  V30 1992 O 185.435 2.21227 -1.21716 0
M  V30 1993 C 186.748 -0.512256 -2.96305 0
M  V30 1994 C 188.296 -0.468328 -3.09476 0
M  V30 1995 C 188.771 -0.919731 -4.4867 0
M  V30 1996 N 190.262 -0.875656 -4.54848 0
M  V30 1997 C 190.997 -1.19637 -5.6078 0
M  V30 1998 N 190.493 -1.58745 -6.74368 0
M  V30 1999 N 192.286 -1.11776 -5.50874 0
M  V30 2000 H 184.437 -1.35395 -1.63652 0
M  V30 2001 H 186.7 -0.554818 -0.768688 0
M  V30 2002 H 186.406 -1.54935 -3.15734 0
M  V30 2003 H 186.28 0.089805 -3.77093 0
M  V30 2004 H 188.667 0.559671 -2.89744 0
M  V30 2005 H 188.748 -1.10616 -2.30646 0
M  V30 2006 H 188.392 -1.94595 -4.69143 0
M  V30 2007 H 188.322 -0.258927 -5.25963 0
M  V30 2008 H 190.813 -0.587843 -3.733 0
M  V30 2009 H 191.126 -1.81586 -7.51163 0
M  V30 2010 H 189.471 -1.6263 -6.75705 0
M  V30 2011 H 192.662 -0.811264 -4.61016 0
M  V30 2012 H 192.835 -1.37103 -6.3333 0
M  V30 2013 N 186.241 1.57166 -0.116904 0
M  V30 2014 C 187.49 1.94298 0.541407 0
M  V30 2015 C 187.803 1.00236 1.67964 0
M  V30 2016 O 189.009 1.26826 2.40057 0
M  V30 2017 C 187.465 3.45306 1.01449 0
M  V30 2018 C 187.073 4.47899 -0.0951738 0
M  V30 2019 C 188.817 3.91361 1.6443 0
M  V30 2020 C 186.724 5.90083 0.394491 0
M  V30 2021 H 185.654 0.725308 0.206019 0
M  V30 2022 H 188.305 1.82446 -0.196419 0
M  V30 2023 H 186.687 3.52385 1.80667 0
M  V30 2024 H 187.861 4.52486 -0.871374 0
M  V30 2025 H 186.176 4.11583 -0.631505 0
M  V30 2026 H 188.773 4.95004 2.02176 0
M  V30 2027 H 189.116 3.3122 2.52189 0
M  V30 2028 H 189.649 3.87073 0.917559 0
M  V30 2029 H 186.388 6.53974 -0.447004 0
M  V30 2030 H 185.908 5.88921 1.13722 0
M  V30 2031 H 187.587 6.41307 0.856399 0
M  V30 2032 N 187.719 -0.156864 1.56817 0
M  V30 2033 C 188.947 -0.886316 1.86955 0
M  V30 2034 C 189.362 -1.75185 0.703975 0
M  V30 2035 O 188.719 -1.79555 -0.326552 0
M  V30 2036 C 188.77 -1.75117 3.16253 0
M  V30 2037 O 188.491 -0.920537 4.2832 0
M  V30 2038 C 189.992 -2.58905 3.59837 0
M  V30 2039 H 187.212 -0.25678 0.619923 0
M  V30 2040 H 189.756 -0.152615 2.0393 0
M  V30 2041 H 187.911 -2.43805 3.01062 0
M  V30 2042 H 188.325 -1.51337 5.02192 0
M  V30 2043 H 189.799 -3.1518 4.53172 0
M  V30 2044 H 190.276 -3.34472 2.84649 0
M  V30 2045 H 190.882 -1.95526 3.7769 0
M  V30 2046 N 189.197 -1.51736 -0.425897 0
M  V30 2047 C 190.127 -1.76827 -1.52494 0
M  V30 2048 C 191.108 -0.618524 -1.58456 0
M  V30 2049 O 192.293 -0.862416 -1.74 0
M  V30 2050 C 189.423 -1.90374 -2.90474 0
M  V30 2051 C 188.377 -3.0588 -2.99369 0
M  V30 2052 C 187.703 -3.04625 -4.3944 0
M  V30 2053 C 189.003 -4.45644 -2.72394 0
M  V30 2054 H 190.697 -2.68855 -1.31748 0
M  V30 2055 H 188.243 -1.29372 -0.632362 0
M  V30 2056 H 190.196 -2.0651 -3.6733 0
M  V30 2057 H 188.92 -0.95004 -3.12477 0
M  V30 2058 H 187.579 -2.89467 -2.24954 0
M  V30 2059 H 187.227 -2.0701 -4.58428 0
M  V30 2060 H 186.927 -3.82195 -4.46319 0
M  V30 2061 H 188.451 -3.22869 -5.18255 0
M  V30 2062 H 189.865 -4.62348 -3.38979 0
M  V30 2063 H 188.262 -5.25006 -2.9067 0
M  V30 2064 H 189.332 -4.54893 -1.67929 0
M  V30 2065 N 190.675 0.682077 -1.42076 0
M  V30 2066 C 191.905 1.46844 -1.45329 0
M  V30 2067 C 192.313 1.89102 -0.0609328 0
M  V30 2068 O 191.656 1.58238 0.933082 0
M  V30 2069 C 191.718 2.75375 -2.31104 0
M  V30 2070 C 191.382 2.55238 -3.79081 0
M  V30 2071 C 192.379 2.20309 -4.70914 0
M  V30 2072 C 190.064 2.70459 -4.2327 0
M  V30 2073 C 192.058 2.00859 -6.04925 0
M  V30 2074 C 189.745 2.50624 -5.57343 0
M  V30 2075 C 190.743 2.15876 -6.47986 0
M  V30 2076 O 190.431 1.96227 -7.79583 0
M  V30 2077 H 190.163 0.4586 -0.496651 0
M  V30 2078 H 192.717 0.846131 -1.87162 0
M  V30 2079 H 190.947 3.40061 -1.84107 0
M  V30 2080 H 192.636 3.37231 -2.25898 0
M  V30 2081 H 193.402 2.08153 -4.38061 0
M  V30 2082 H 189.281 2.96485 -3.53012 0
M  V30 2083 H 192.825 1.7366 -6.75639 0
M  V30 2084 H 188.722 2.62375 -5.89771 0
M  V30 2085 H 189.49 2.10883 -7.90867 0
M  V30 2086 N 192.153 1.28127 0.917671 0
M  V30 2087 C 193.083 1.14248 2.03641 0
M  V30 2088 C 194.064 0.0412748 1.7005 0
M  V30 2089 O 195.249 0.217566 1.92977 0
M  V30 2090 C 192.379 0.799431 3.37974 0
M  V30 2091 C 191.333 1.85497 3.85713 0
M  V30 2092 C 190.659 1.36565 5.16966 0
M  V30 2093 C 191.959 3.26085 4.08002 0
M  V30 2094 H 193.653 2.07835 2.15511 0
M  V30 2095 H 191.199 1.00064 1.03553 0
M  V30 2096 H 193.152 0.689114 4.15727 0
M  V30 2097 H 191.876 -0.172145 3.26146 0
M  V30 2098 H 190.535 1.95437 3.10161 0
M  V30 2099 H 190.183 0.383253 5.01538 0
M  V30 2100 H 189.883 2.07143 5.49878 0
M  V30 2101 H 191.407 1.26848 5.97279 0
M  V30 2102 H 192.821 3.19089 4.76293 0
M  V30 2103 H 191.218 3.94462 4.52238 0
M  V30 2104 H 192.288 3.70394 3.12948 0
M  V30 2105 N 193.631 -1.12557 1.10312 0
M  V30 2106 C 194.88 -1.83395 0.839588 0
M  V30 2107 C 195.193 -1.84939 -0.636929 0
M  V30 2108 O 196.399 -2.51761 -1.01631 0
M  V30 2109 C 194.855 -3.29303 1.45215 0
M  V30 2110 C 194.463 -3.36122 2.96186 0
M  V30 2111 C 196.207 -4.05121 1.26796 0
M  V30 2112 C 194.114 -4.76357 3.50483 0
M  V30 2113 H 193.044 -0.687133 0.310425 0
M  V30 2114 H 195.695 -1.26746 1.32694 0
M  V30 2115 H 194.077 -3.85812 0.892469 0
M  V30 2116 H 195.251 -2.89559 3.58458 0
M  V30 2117 H 193.566 -2.73776 3.13745 0
M  V30 2118 H 196.163 -5.08668 1.64806 0
M  V30 2119 H 196.506 -4.15773 0.209409 0
M  V30 2120 H 197.039 -3.54967 1.79563 0
M  V30 2121 H 193.778 -4.70899 4.55998 0
M  V30 2122 H 193.298 -5.23377 2.92978 0
M  V30 2123 H 194.977 -5.45294 3.48228 0
M  V30 2124 N 195.109 -0.891671 -1.2995 0
M  V30 2125 C 196.019 -0.367691 -2.31701 0
M  V30 2126 C 197.035 0.533486 -1.6562 0
M  V30 2127 O 198.211 0.424997 -1.96865 0
M  V30 2128 C 195.276 0.403406 -3.44345 0
M  V30 2129 C 194.337 -0.528328 -4.26037 0
M  V30 2130 C 193.57 0.206063 -5.33302 0
M  V30 2131 O 193.793 1.43119 -5.52153 0
M  V30 2132 O 192.727 -0.447281 -6.00236 0
M  V30 2133 H 196.553 -1.21163 -2.78484 0
M  V30 2134 H 194.138 -0.655725 -1.34241 0
M  V30 2135 H 196.02 0.839753 -4.12948 0
M  V30 2136 H 194.695 1.22354 -2.99685 0
M  V30 2137 H 193.602 -1.01362 -3.60106 0
M  V30 2138 H 194.935 -1.31465 -4.74318 0
M  V30 2139 N 196.587 1.43421 -0.653314 0
M  V30 2140 C 198.003 1.56341 -0.320886 0
M  V30 2141 C 198.203 1.63696 1.17499 0
M  V30 2142 O 197.259 1.59208 1.95982 0
M  V30 2143 C 198.572 2.82424 -1.03233 0
M  V30 2144 C 200.12 2.96168 -1.01259 0
M  V30 2145 C 200.595 4.25084 -1.70492 0
M  V30 2146 N 202.086 4.31948 -1.67257 0
M  V30 2147 C 202.821 5.30466 -2.17701 0
M  V30 2148 N 202.317 6.35261 -2.76434 0
M  V30 2149 N 204.11 5.2212 -2.082 0
M  V30 2150 H 196.261 1.3689 -1.62403 0
M  V30 2151 H 198.524 0.657455 -0.682977 0
M  V30 2152 H 198.23 2.83053 -2.08744 0
M  V30 2153 H 198.104 3.72653 -0.583948 0
M  V30 2154 H 200.491 2.9508 0.0341235 0
M  V30 2155 H 200.572 2.07229 -1.49966 0
M  V30 2156 H 200.216 4.26932 -2.7512 0
M  V30 2157 H 200.146 5.1292 -1.19251 0
M  V30 2158 H 202.637 3.56838 -1.24398 0
M  V30 2159 H 202.95 7.06754 -3.12601 0
M  V30 2160 H 201.295 6.35884 -2.80495 0
M  V30 2161 H 204.486 4.39166 -1.62021 0
M  V30 2162 H 204.659 5.98739 -2.47822 0
M  V30 2163 N 198.065 0.39524 1.52563 0
M  V30 2164 C 199.012 -0.437036 2.26624 0
M  V30 2165 C 199.982 -1.05281 1.28472 0
M  V30 2166 O 201.167 -1.07971 1.57311 0
M  V30 2167 C 198.307 -1.55524 3.08069 0
M  V30 2168 C 197.42 -0.961745 4.21158 0
M  V30 2169 C 196.555 -2.05149 4.89987 0
M  V30 2170 C 195.594 -1.4342 5.95061 0
M  V30 2171 N 194.731 -2.46351 6.57462 0
M  V30 2172 H 199.571 0.200976 2.97322 0
M  V30 2173 H 197.108 0.110944 1.46681 0
M  V30 2174 H 199.066 -2.21437 3.53584 0
M  V30 2175 H 197.696 -2.16348 2.3957 0
M  V30 2176 H 196.748 -0.192048 3.79915 0
M  V30 2177 H 198.06 -0.470701 4.96574 0
M  V30 2178 H 197.214 -2.78819 5.38837 0
M  V30 2179 H 195.953 -2.57615 4.14109 0
M  V30 2180 H 194.958 -0.682774 5.45544 0
M  V30 2181 H 196.183 -0.917416 6.72875 0
M  V30 2182 H 194.129 -2.97975 5.8442 0
M  V30 2183 H 194.046 -2.02019 7.28508 0
M  V30 2184 H 195.314 -3.19633 7.10954 0
M  V30 2185 N 199.544 -1.57102 0.125237 0
M  V30 2186 C 200.774 -1.99472 -0.538015 0
M  V30 2187 C 201.182 -1.00395 -1.60366 0
M  V30 2188 O 200.525 0.0103875 -1.83697 0
M  V30 2189 C 200.587 -3.38262 -1.21734 0
M  V30 2190 C 200.251 -4.56021 -0.298897 0
M  V30 2191 C 201.248 -5.17817 0.464943 0
M  V30 2192 C 198.933 -5.01869 -0.208149 0
M  V30 2193 C 200.927 -6.23852 1.3072 0
M  V30 2194 C 198.614 -6.07763 0.637736 0
M  V30 2195 C 199.612 -6.68622 1.39403 0
M  V30 2196 O 199.3 -7.7247 2.22586 0
M  V30 2197 H 199.032 -0.659934 -0.146501 0
M  V30 2198 H 201.586 -2.04321 0.210267 0
M  V30 2199 H 199.816 -3.30185 -2.01282 0
M  V30 2200 H 201.505 -3.6488 -1.77813 0
M  V30 2201 H 202.271 -4.83308 0.404741 0
M  V30 2202 H 198.15 -4.54241 -0.786522 0
M  V30 2203 H 201.694 -6.71284 1.898 0
M  V30 2204 H 197.591 -6.41701 0.699309 0
M  V30 2205 H 198.359 -7.89595 2.15596 0
M  V30 2206 N 201.022 0.148545 -1.56898 0
M  V30 2207 C 202.247 0.880385 -1.87787 0
M  V30 2208 C 202.672 1.74018 -0.714093 0
M  V30 2209 O 202.03 1.78153 0.336343 0
M  V30 2210 C 202.078 1.71422 -3.17249 0
M  V30 2211 O 201.182 2.8183 -3.01074 0
M  V30 2212 H 200.523 0.245301 -0.617028 0
M  V30 2213 H 203.053 0.139826 -2.04122 0
M  V30 2214 H 203.063 2.10954 -3.49231 0
M  V30 2215 H 201.738 1.08284 -4.01556 0
M  V30 2216 H 200.315 2.45715 -2.80497 0
M  V30 2217 N 202.5 1.5196 0.417844 0
M  V30 2218 C 203.911 1.57851 0.997 0
M  V30 2219 C 204.262 0.413714 1.91789 0
M  V30 2220 O 203.387 -0.467057 2.113 0
M  V30 2221 C 203.982 2.86085 1.81496 0
M  V30 2222 C 202.541 2.94483 2.34428 0
M  V30 2223 C 201.688 2.52707 1.14169 0
M  V30 2224 H 204.639 1.57455 0.198392 0
M  V30 2225 H 204.66 2.70947 2.67148 0
M  V30 2226 H 204.172 3.70842 1.14446 0
M  V30 2227 H 202.273 2.142 3.04875 0
M  V30 2228 H 202.386 3.98546 2.65891 0
M  V30 2229 H 200.75 2.06353 1.49301 0
M  V30 2230 H 201.533 3.39828 0.486999 0
M  V30 2231 N 203.978 -0.674533 1.42435 0
M  V30 2232 C 205.218 -1.4466 1.44405 0
M  V30 2233 C 205.582 -1.91911 0.0585784 0
M  V30 2234 O 206.783 -2.68759 -0.0469991 0
M  V30 2235 C 205.054 -2.61136 2.44013 0
M  V30 2236 S 206.613 -3.49981 2.64687 0
M  V30 2237 H 203.431 -0.494074 0.511284 0
M  V30 2238 H 206.033 -0.785162 1.7904 0
M  V30 2239 H 204.737 -2.24662 3.43446 0
M  V30 2240 H 204.268 -3.32153 2.10803 0
M  V30 2241 H 206.283 -4.57124 1.93007 0
M  V30 2242 N 205.456 -1.28612 -0.910864 0
M  V30 2243 C 206.419 -1.12803 -1.9952 0
M  V30 2244 C 207.419 -0.0668264 -1.60661 0
M  V30 2245 O 208.609 -0.312847 -1.71368 0
M  V30 2246 C 205.741 -0.72254 -3.33155 0
M  V30 2247 H 206.934 -2.09109 -2.14973 0
M  V30 2248 H 204.487 -1.11639 -1.09391 0
M  V30 2249 H 205.222 0.241152 -3.23402 0
M  V30 2250 H 205.007 -1.48916 -3.62721 0
M  V30 2251 H 206.497 -0.634666 -4.12749 0
M  V30 2252 N 206.934 1.1197 -1.10907 0
M  V30 2253 C 208.18 1.84059 -0.865674 0
M  V30 2254 C 208.535 1.82731 0.602254 0
M  V30 2255 O 207.828 1.26543 1.43866 0
M  V30 2256 C 208.022 3.30749 -1.35425 0
M  V30 2257 C 207.851 3.46363 -2.86815 0
M  V30 2258 C 206.621 3.59712 -3.54874 0
M  V30 2259 C 208.819 3.41116 -3.84895 0
M  V30 2260 N 206.801 3.63741 -4.94536 0
M  V30 2261 C 208.172 3.51698 -5.10596 0
M  V30 2262 C 210.227 3.24612 -3.77533 0
M  V30 2263 C 208.93 3.4748 -6.29802 0
M  V30 2264 C 210.956 3.21708 -4.96244 0
M  V30 2265 C 210.318 3.32856 -6.20795 0
M  V30 2266 H 206.417 0.689015 -0.369841 0
M  V30 2267 H 209.001 1.34016 -1.41237 0
M  V30 2268 H 207.172 3.79322 -0.834814 0
M  V30 2269 H 208.904 3.90718 -1.05458 0
M  V30 2270 H 205.659 3.62038 -3.05329 0
M  V30 2271 H 206.083 3.69408 -5.67333 0
M  V30 2272 H 210.725 3.14883 -2.8215 0
M  V30 2273 H 208.443 3.55978 -7.25469 0
M  V30 2274 H 212.029 3.10113 -4.92261 0
M  V30 2275 H 210.909 3.3059 -7.11112 0
M  V30 2276 N 208.412 0.89855 1.29475 0
M  V30 2277 C 209.322 0.379974 2.31502 0
M  V30 2278 C 210.338 -0.524695 1.659 0
M  V30 2279 O 211.514 -0.414551 1.97087 0
M  V30 2280 C 208.579 -0.385138 3.44554 0
M  V30 2281 C 207.64 0.550914 4.2575 0
M  V30 2282 C 206.873 -0.177778 5.33404 0
M  V30 2283 O 207.096 -1.40189 5.52904 0
M  V30 2284 O 206.03 0.479106 5.9999 0
M  V30 2285 H 209.856 1.22639 2.77837 0
M  V30 2286 H 207.441 0.662834 1.33891 0
M  V30 2287 H 209.323 -0.817841 4.13388 0
M  V30 2288 H 207.998 -1.20763 3.0033 0
M  V30 2289 H 206.905 1.03271 3.59564 0
M  V30 2290 H 208.238 1.33979 4.73614 0
M  V30 2291 N 209.89 -1.43072 0.660911 0
M  V30 2292 C 211.136 -2.0202 0.177708 0
M  V30 2293 C 211.469 -1.52066 -1.20787 0
M  V30 2294 O 210.744 -0.716987 -1.80802 0
M  V30 2295 C 211.027 -3.59561 0.197019 0
M  V30 2296 C 210.88 -4.19727 1.61706 0
M  V30 2297 C 212.199 -4.37664 -0.462396 0
M  V30 2298 H 209.318 -0.734034 0.0660494 0
M  V30 2299 H 211.96 -1.70272 0.843058 0
M  V30 2300 H 210.11 -3.86739 -0.369527 0
M  V30 2301 H 211.782 -4.03553 2.23479 0
M  V30 2302 H 210.025 -3.76084 2.16201 0
M  V30 2303 H 210.696 -5.28834 1.58237 0
M  V30 2304 H 213.172 -4.16095 0.0197215 0
M  V30 2305 H 212.048 -5.47305 -0.418188 0
M  V30 2306 H 212.309 -4.14493 -1.53778 0
M  V30 2307 N 211.368 -0.403325 -1.52352 0
M  V30 2308 C 212.614 0.174605 -2.02047 0
M  V30 2309 C 212.947 1.45282 -1.28867 0
M  V30 2310 O 212.222 1.90483 -0.393257 0
M  V30 2311 C 212.505 0.428238 -3.57545 0
M  V30 2312 C 212.358 -0.866248 -4.4138 0
M  V30 2313 C 213.677 1.21287 -4.23057 0
M  V30 2314 H 210.796 0.0619851 -0.734389 0
M  V30 2315 H 213.438 -0.53565 -1.82293 0
M  V30 2316 H 211.588 1.03327 -3.74507 0
M  V30 2317 H 213.26 -1.50265 -4.3614 0
M  V30 2318 H 211.503 -1.47851 -4.07827 0
M  V30 2319 H 212.174 -0.643249 -5.48239 0
M  V30 2320 H 214.65 0.700703 -4.10158 0
M  V30 2321 H 213.526 1.35909 -5.31808 0
M  V30 2322 H 213.787 2.23193 -3.81625 0
M  V30 2323 N 212.846 1.57033 -0.133567 0
M  V30 2324 C 214.262 1.58035 0.222944 0
M  V30 2325 C 214.462 1.14713 1.6566 0
M  V30 2326 O 213.518 0.841218 2.38075 0
M  V30 2327 C 214.831 3.00691 -0.0236116 0
M  V30 2328 C 216.379 3.12973 0.0411512 0
M  V30 2329 C 216.854 4.57654 -0.177899 0
M  V30 2330 N 218.345 4.63033 -0.124365 0
M  V30 2331 C 219.08 5.72771 -0.268553 0
M  V30 2332 N 218.576 6.91206 -0.46972 0
M  V30 2333 N 220.369 5.61718 -0.2071 0
M  V30 2334 H 212.52 1.8349 -1.06981 0
M  V30 2335 H 214.783 0.848677 -0.422436 0
M  V30 2336 H 214.489 3.36726 -1.0153 0
M  V30 2337 H 214.363 3.70614 0.701808 0
M  V30 2338 H 216.75 2.76787 1.02338 0
M  V30 2339 H 216.831 2.45564 -0.716383 0
M  V30 2340 H 216.475 4.94542 -1.15717 0
M  V30 2341 H 216.405 5.23173 0.599797 0
M  V30 2342 H 218.896 3.7789 0.027011 0
M  V30 2343 H 219.209 7.70693 -0.570212 0
M  V30 2344 H 217.554 6.93156 -0.505876 0
M  V30 2345 H 220.745 4.68072 -0.0507986 0
M  V30 2346 H 220.918 6.47195 -0.322909 0
M  V30 2347 N 214.325 -0.140222 1.56975 0
M  V30 2348 C 215.288 -1.15689 1.97861 0
M  V30 2349 C 216.288 -1.3549 0.865974 0
M  V30 2350 O 217.478 -1.32367 1.13246 0
M  V30 2351 C 214.61 -2.51582 2.30042 0
M  V30 2352 H 215.803 -0.805971 2.88867 0
M  V30 2353 H 213.356 -0.383801 1.51515 0
M  V30 2354 H 214.091 -2.91632 1.41849 0
M  V30 2355 H 213.876 -2.38569 3.11171 0
M  V30 2356 H 215.366 -3.24792 2.62488 0
M  V30 2357 N 215.803 -1.52179 -0.40978 0
M  V30 2358 C 216.713 -1.78364 -1.52392 0
M  V30 2359 C 217.729 -0.669183 -1.60617 0
M  V30 2360 O 218.905 -0.954518 -1.77344 0
M  V30 2361 C 215.97 -1.92822 -2.88133 0
M  V30 2362 C 215.031 -3.16725 -2.898 0
M  V30 2363 C 214.264 -3.30483 -4.19067 0
M  V30 2364 O 214.487 -2.49522 -5.12928 0
M  V30 2365 O 213.421 -4.2363 -4.27576 0
M  V30 2366 H 217.247 -2.72931 -1.33201 0
M  V30 2367 H 214.832 -1.37016 -0.59557 0
M  V30 2368 H 216.714 -2.04157 -3.68643 0
M  V30 2369 H 215.389 -1.01444 -3.07393 0
M  V30 2370 H 214.296 -3.10848 -2.08146 0
M  V30 2371 H 215.629 -4.07881 -2.75489 0
M  V30 2372 N 217.281 0.66697 -1.42791 0
M  V30 2373 C 218.53 1.42278 -1.42968 0
M  V30 2374 C 218.843 1.9553 -0.0524489 0
M  V30 2375 O 220.049 2.71414 0.068363 0
M  V30 2376 C 218.505 2.57418 -2.51524 0
M  V30 2377 C 218.113 2.10832 -3.9529 0
M  V30 2378 C 219.857 3.34878 -2.60877 0
M  V30 2379 C 217.764 3.23101 -4.95338 0
M  V30 2380 H 216.694 0.534533 -0.531781 0
M  V30 2381 H 219.345 0.721302 -1.68729 0
M  V30 2382 H 217.727 3.29971 -2.18941 0
M  V30 2383 H 218.901 1.4538 -4.37266 0
M  V30 2384 H 217.216 1.46289 -3.89857 0
M  V30 2385 H 219.813 4.18505 -3.32802 0
M  V30 2386 H 220.156 3.81993 -1.6549 0
M  V30 2387 H 220.689 2.69398 -2.92693 0
M  V30 2388 H 217.428 2.80969 -5.9223 0
M  V30 2389 H 216.948 3.87309 -4.57987 0
M  V30 2390 H 218.627 3.88447 -5.17415 0
M  V30 2391 N 218.759 1.29093 0.90403 0
M  V30 2392 C 219.692 1.08176 2.00931 0
M  V30 2393 C 220.67 -0.005083 1.62599 0
M  V30 2394 O 221.854 0.144765 1.87943 0
M  V30 2395 C 218.981 0.645897 3.32484 0
M  V30 2396 C 218.027 1.73081 3.89801 0
M  V30 2397 S 218.86 3.32905 4.19446 0
M  V30 2398 C 220.016 2.91176 5.54046 0
M  V30 2399 H 220.249 2.01752 2.18365 0
M  V30 2400 H 217.782 1.13191 1.0501 0
M  V30 2401 H 219.74 0.401131 4.08535 0
M  V30 2402 H 218.401 -0.270188 3.12936 0
M  V30 2403 H 217.594 1.37768 4.84805 0
M  V30 2404 H 217.196 1.92888 3.20422 0
M  V30 2405 H 219.488 2.37952 6.34338 0
M  V30 2406 H 220.431 3.85014 5.94281 0
M  V30 2407 H 220.839 2.296 5.15698 0
M  V30 2408 N 220.237 -1.11381 1.11499 0
M  V30 2409 C 221.653 -1.35143 0.849031 0
M  V30 2410 C 221.853 -1.94515 -0.525938 0
M  V30 2411 O 220.909 -2.1785 -1.27662 0
M  V30 2412 C 222.222 -2.28249 1.95762 0
M  V30 2413 C 223.77 -2.41812 1.98736 0
M  V30 2414 C 224.245 -3.3824 3.088 0
M  V30 2415 N 225.736 -3.45803 3.08179 0
M  V30 2416 C 226.471 -4.20358 3.89982 0
M  V30 2417 N 225.967 -4.97884 4.8175 0
M  V30 2418 N 227.76 -4.15877 3.78157 0
M  V30 2419 H 219.911 -0.712062 2.00109 0
M  V30 2420 H 222.174 -0.376025 0.870235 0
M  V30 2421 H 221.88 -1.91817 2.94787 0
M  V30 2422 H 221.754 -3.28473 1.85433 0
M  V30 2423 H 224.141 -2.77518 1.00338 0
M  V30 2424 H 224.222 -1.41437 2.13141 0
M  V30 2425 H 223.866 -3.03261 4.07425 0
M  V30 2426 H 223.796 -4.38471 2.91635 0
M  V30 2427 H 226.287 -2.90506 2.41691 0
M  V30 2428 H 226.6 -5.52142 5.40702 0
M  V30 2429 H 224.945 -4.97043 4.85771 0
M  V30 2430 H 228.136 -3.544 3.05808 0
M  V30 2431 H 228.309 -4.73723 4.42143 0
M  V30 2432 N 221.715 -0.905404 -1.28997 0
M  V30 2433 C 222.94 -0.549175 -1.99997 0
M  V30 2434 C 223.365 0.860276 -1.67275 0
M  V30 2435 O 222.723 1.57355 -0.900502 0
M  V30 2436 C 222.771 -0.755185 -3.52604 0
M  V30 2437 O 221.875 0.189692 -4.11964 0
M  V30 2438 H 221.216 -0.213899 -0.628604 0
M  V30 2439 H 223.746 -1.21856 -1.64354 0
M  V30 2440 H 223.756 -0.662045 -4.02593 0
M  V30 2441 H 222.431 -1.78271 -3.75755 0
M  V30 2442 H 221.008 0.0485257 -3.72868 0
M  V30 2443 N 223.193 1.4272 -0.668489 0
M  V30 2444 C 224.123 2.335 -0.000100175 0
M  V30 2445 C 225.104 1.50328 0.795964 0
M  V30 2446 O 226.289 1.78949 0.754385 0
M  V30 2447 C 223.419 3.33874 0.956302 0
M  V30 2448 C 222.373 4.27152 0.269278 0
M  V30 2449 C 221.699 5.17684 1.33818 0
M  V30 2450 C 222.999 5.15373 -0.847805 0
M  V30 2451 H 224.693 2.89639 -0.758244 0
M  V30 2452 H 222.239 1.39269 -0.366079 0
M  V30 2453 H 224.192 3.9629 1.43292 0
M  V30 2454 H 222.916 2.76025 1.74579 0
M  V30 2455 H 221.575 3.66123 -0.187042 0
M  V30 2456 H 221.223 4.56165 2.1195 0
M  V30 2457 H 220.923 5.80918 0.883659 0
M  V30 2458 H 222.447 5.82974 1.81586 0
M  V30 2459 H 223.861 5.7151 -0.452681 0
M  V30 2460 H 222.258 5.87407 -1.22773 0
M  V30 2461 H 223.328 4.5415 -1.69929 0
M  V30 2462 N 224.671 0.411399 1.52136 0
M  V30 2463 C 225.896 -0.165538 2.06738 0
M  V30 2464 C 226.321 -1.379 1.27926 0
M  V30 2465 O 225.679 -1.78628 0.310114 0
M  V30 2466 C 225.727 -0.492124 3.57226 0
M  V30 2467 O 224.831 -1.58276 3.80818 0
M  V30 2468 H 224.172 -0.0132132 0.663869 0
M  V30 2469 H 226.702 0.585253 1.96051 0
M  V30 2470 H 226.712 -0.750104 4.01045 0
M  V30 2471 H 225.387 0.394922 4.14021 0
M  V30 2472 H 223.964 -1.31677 3.48877 0
M  V30 2473 N 226.149 -1.5696 0.141893 0
M  V30 2474 C 227.396 -1.9596 -0.510492 0
M  V30 2475 C 227.724 -1.02648 -1.65208 0
M  V30 2476 O 226.979 -0.0546947 -1.95624 0
M  V30 2477 C 227.278 -3.41242 -1.06249 0
M  V30 2478 C 226.944 -4.50882 -0.0398791 0
M  V30 2479 C 225.606 -4.80595 0.241247 0
M  V30 2480 C 227.958 -5.17058 0.65578 0
M  V30 2481 C 225.286 -5.73792 1.22393 0
M  V30 2482 C 227.638 -6.11313 1.62724 0
M  V30 2483 C 226.302 -6.39407 1.91612 0
M  V30 2484 H 225.572 -0.717068 -0.186802 0
M  V30 2485 H 228.219 -1.90142 0.227643 0
M  V30 2486 H 226.524 -3.43866 -1.87785 0
M  V30 2487 H 228.221 -3.68742 -1.57576 0
M  V30 2488 H 224.811 -4.27754 -0.269174 0
M  V30 2489 H 228.995 -4.94239 0.451779 0
M  V30 2490 H 224.251 -5.93853 1.45424 0
M  V30 2491 H 228.425 -6.61668 2.17183 0
M  V30 2492 H 226.052 -7.11427 2.6791 0
M  V30 2493 N 227.627 0.131896 -1.57047 0
M  V30 2494 C 228.852 0.860418 -1.8871 0
M  V30 2495 C 229.277 1.73251 -0.73251 0
M  V30 2496 O 228.635 1.785 0.317429 0
M  V30 2497 C 228.683 1.68047 -3.19049 0
M  V30 2498 O 227.787 2.7862 -3.04047 0
M  V30 2499 H 227.128 0.238743 -0.619595 0
M  V30 2500 H 229.658 0.118169 -2.04258 0
M  V30 2501 H 229.668 2.07238 -3.51449 0
M  V30 2502 H 228.343 1.04018 -4.02682 0
M  V30 2503 H 226.92 2.42726 -2.83088 0
M  V30 2504 N 229.106 1.52395 0.401703 0
M  V30 2505 C 230.334 1.70676 1.16949 0
M  V30 2506 C 230.749 0.419503 1.8408 0
M  V30 2507 O 230.106 -0.605061 1.72178 0
M  V30 2508 C 230.157 2.84753 2.22706 0
M  V30 2509 O 229.878 4.08495 1.58314 0
M  V30 2510 C 231.379 3.14608 3.12309 0
M  V30 2511 H 228.599 0.571787 0.351142 0
M  V30 2512 H 231.143 1.98987 0.471652 0
M  V30 2513 H 229.298 2.58941 2.88147 0
M  V30 2514 H 229.712 4.72117 2.28485 0
M  V30 2515 H 231.186 3.97923 3.82572 0
M  V30 2516 H 231.663 2.28464 3.75101 0
M  V30 2517 H 232.269 3.42212 2.52529 0
M  V30 2518 N 230.584 -0.659388 1.43143 0
M  V30 2519 C 231.532 -1.79374 1.4808 0
M  V30 2520 C 232.526 -1.65639 0.354988 0
M  V30 2521 O 233.732 -1.7206 0.528704 0
M  V30 2522 H 230.107 -0.591705 0.4641 0
M  V30 2523 H 232.078 -1.72329 2.43609 0
M  V30 2524 C 230.827 -3.17606 1.41499 0
M  V30 2525 H 230.15 -3.28809 2.27431 0
M  V30 2526 H 231.59 -3.96951 1.49015 0
M  V30 2527 C 230.049 -3.36642 0.131765 0
M  V30 2528 O 230.579 -3.93461 -0.809386 0
M  V30 2529 N 228.785 -2.90567 0.0439396 0
M  V30 2530 H 228.332 -2.44513 0.810619 0
M  V30 2531 H 228.29 -3.03681 -0.813969 0
M  V30 2532 N 232.062 -1.29571 -0.897171 0
M  V30 2533 C 232.992 -1.17473 -2.01798 0
M  V30 2534 C 233.973 -0.068323 -1.69963 0
M  V30 2535 O 235.158 -0.248239 -1.92607 0
M  V30 2536 C 232.288 -0.853099 -3.36659 0
M  V30 2537 C 231.242 -1.9161 -3.82713 0
M  V30 2538 C 230.568 -1.44773 -5.14728 0
M  V30 2539 C 231.868 -3.32535 -4.02763 0
M  V30 2540 H 233.562 -2.11237 -2.12177 0
M  V30 2541 H 231.108 -1.01699 -1.01948 0
M  V30 2542 H 233.061 -0.755165 -4.14578 0
M  V30 2543 H 231.785 0.120236 -3.26379 0
M  V30 2544 H 230.444 -2.00346 -3.07013 0
M  V30 2545 H 230.092 -0.462995 -5.00865 0
M  V30 2546 H 229.792 -2.15865 -5.46513 0
M  V30 2547 H 231.316 -1.36334 -5.95185 0
M  V30 2548 H 232.73 -3.26626 -4.71156 0
M  V30 2549 H 231.127 -4.01607 -4.45905 0
M  V30 2550 H 232.197 -3.75326 -3.07016 0
M  V30 2551 N 233.54 1.10788 -1.12088 0
M  V30 2552 C 234.472 2.16816 -0.743213 0
M  V30 2553 C 235.485 1.6119 0.228412 0
M  V30 2554 O 236.674 1.78497 0.0102931 0
M  V30 2555 C 233.774 3.38809 -0.0787313 0
M  V30 2556 C 232.947 4.23885 -1.0789 0
M  V30 2557 C 232.006 5.24334 -0.442713 0
M  V30 2558 O 231.032 5.58497 -1.09864 0
M  V30 2559 N 232.234 5.75079 0.791457 0
M  V30 2560 H 234.999 2.49825 -1.65552 0
M  V30 2561 H 232.56 1.26373 -1.012 0
M  V30 2562 H 234.552 4.03107 0.358766 0
M  V30 2563 H 233.122 3.03805 0.736275 0
M  V30 2564 H 232.342 3.55939 -1.69414 0
M  V30 2565 H 233.63 4.77562 -1.75533 0
M  V30 2566 H 233.028 5.49517 1.3434 0
M  V30 2567 H 231.585 6.4118 1.17183 0
M  V30 2568 N 235.018 0.912232 1.28515 0
M  V30 2569 C 235.965 0.397954 2.27343 0
M  V30 2570 C 236.935 -0.526766 1.57526 0
M  V30 2571 O 238.12 -0.449292 1.85435 0
M  V30 2572 C 235.26 -0.357263 3.43246 0
M  V30 2573 C 234.373 0.599788 4.27816 0
M  V30 2574 C 233.508 -0.173725 5.30916 0
M  V30 2575 C 232.547 0.777039 6.07148 0
M  V30 2576 N 231.684 0.0371398 7.0209 0
M  V30 2577 H 236.524 1.24577 2.70711 0
M  V30 2578 H 234.061 0.625612 1.33133 0
M  V30 2579 H 236.019 -0.8113 4.09236 0
M  V30 2580 H 234.649 -1.16943 3.00872 0
M  V30 2581 H 233.701 1.17235 3.61884 0
M  V30 2582 H 235.013 1.32704 4.80823 0
M  V30 2583 H 234.167 -0.688394 6.02782 0
M  V30 2584 H 232.906 -0.934041 4.78672 0
M  V30 2585 H 231.911 1.3031 5.34134 0
M  V30 2586 H 233.136 1.53689 6.61481 0
M  V30 2587 H 231.082 -0.705213 6.52198 0
M  V30 2588 H 230.999 0.704249 7.52713 0
M  V30 2589 H 232.267 -0.457383 7.78157 0
M  V30 2590 N 236.496 -1.42363 0.676048 0
M  V30 2591 C 237.912 -1.55811 0.345718 0
M  V30 2592 C 238.112 -1.65544 -1.14879 0
M  V30 2593 O 237.168 -1.62306 -1.93424 0
M  V30 2594 C 238.481 -2.80746 1.07713 0
M  V30 2595 C 240.029 -2.9452 1.05958 0
M  V30 2596 C 240.504 -4.22318 1.77233 0
M  V30 2597 N 241.995 -4.29233 1.74108 0
M  V30 2598 C 242.73 -5.26935 2.26113 0
M  V30 2599 N 242.226 -6.30783 2.86505 0
M  V30 2600 N 244.019 -5.18741 2.1648 0
M  V30 2601 H 236.17 -1.34289 1.6456 0
M  V30 2602 H 238.433 -0.646506 0.69335 0
M  V30 2603 H 238.139 -2.79696 2.13221 0
M  V30 2604 H 238.013 -3.71676 0.64316 0
M  V30 2605 H 240.4 -2.95097 0.0128255 0
M  V30 2606 H 240.481 -2.04817 1.53244 0
M  V30 2607 H 240.125 -4.22502 2.81877 0
M  V30 2608 H 240.055 -5.10958 1.27396 0
M  V30 2609 H 242.546 -3.54814 1.30059 0
M  V30 2610 H 242.859 -7.01691 3.23805 0
M  V30 2611 H 241.204 -6.31341 2.90575 0
M  V30 2612 H 244.395 -4.36533 1.68987 0
M  V30 2613 H 244.568 -5.94721 2.57316 0
M  V30 2614 N 237.974 -0.419461 -1.51915 0
M  V30 2615 C 238.904 0.391813 -2.30189 0
M  V30 2616 C 239.885 1.03699 -1.34836 0
M  V30 2617 O 241.07 1.04403 -1.63748 0
M  V30 2618 C 238.2 1.50312 -3.13087 0
M  V30 2619 C 237.154 0.9824 -4.16573 0
M  V30 2620 C 236.48 2.18809 -4.8788 0
M  V30 2621 C 237.78 0.0292356 -5.22292 0
M  V30 2622 H 239.474 -0.26135 -2.98257 0
M  V30 2623 H 237.02 -0.127134 -1.43438 0
M  V30 2624 H 238.973 2.07773 -3.66617 0
M  V30 2625 H 237.697 2.18431 -2.42807 0
M  V30 2626 H 236.356 0.430119 -3.64068 0
M  V30 2627 H 236.004 2.85507 -4.14119 0
M  V30 2628 H 235.704 1.84615 -5.57845 0
M  V30 2629 H 237.228 2.76858 -5.44226 0
M  V30 2630 H 238.642 0.512976 -5.71 0
M  V30 2631 H 237.039 -0.2244 -5.9968 0
M  V30 2632 H 238.109 -0.912931 -4.76228 0
M  V30 2633 N 239.452 1.56882 -0.150215 0
M  V30 2634 C 240.868 1.58263 0.20617 0
M  V30 2635 C 241.068 1.16464 1.64434 0
M  V30 2636 O 240.124 0.866422 2.3717 0
M  V30 2637 C 241.437 3.00649 -0.0555025 0
M  V30 2638 C 242.985 3.12999 0.00795388 0
M  V30 2639 C 243.46 4.5744 -0.226429 0
M  V30 2640 N 244.951 4.62875 -0.173469 0
M  V30 2641 C 245.686 5.72454 -0.329288 0
M  V30 2642 N 245.182 6.90669 -0.543005 0
M  V30 2643 N 246.975 5.61467 -0.266666 0
M  V30 2644 H 239.126 1.82345 -1.08922 0
M  V30 2645 H 241.389 0.844149 -0.431413 0
M  V30 2646 H 241.095 3.3563 -1.05096 0
M  V30 2647 H 240.969 3.71337 0.66246 0
M  V30 2648 H 243.356 2.77857 0.993966 0
M  V30 2649 H 243.437 2.4479 -0.742388 0
M  V30 2650 H 243.081 4.93287 -1.20956 0
M  V30 2651 H 243.011 5.2378 0.544274 0
M  V30 2652 H 245.502 3.77898 -0.0130709 0
M  V30 2653 H 245.815 7.70045 -0.651922 0
M  V30 2654 H 244.16 6.92581 -0.579366 0
M  V30 2655 H 247.351 4.67992 -0.100441 0
M  V30 2656 H 247.524 6.46816 -0.391535 0
M  V30 2657 N 240.93 -0.123565 1.57115 0
M  V30 2658 C 242.346 -0.476961 1.52306 0
M  V30 2659 C 242.546 -1.82109 0.86248 0
M  V30 2660 O 241.602 -2.48586 0.442884 0
M  V30 2661 C 242.915 -0.465661 2.97073 0
M  V30 2662 C 244.463 -0.549534 3.08138 0
M  V30 2663 C 244.938 -0.568669 4.54456 0
M  V30 2664 N 246.429 -0.630237 4.58892 0
M  V30 2665 C 247.164 -0.666415 5.69514 0
M  V30 2666 N 246.66 -0.660514 6.89644 0
M  V30 2667 N 248.453 -0.709077 5.5761 0
M  V30 2668 H 240.604 0.757198 1.98445 0
M  V30 2669 H 242.867 0.278808 0.906074 0
M  V30 2670 H 242.573 0.454232 3.48754 0
M  V30 2671 H 242.447 -1.29513 3.54269 0
M  V30 2672 H 244.834 -1.45985 2.56461 0
M  V30 2673 H 244.915 0.307532 2.53945 0
M  V30 2674 H 244.559 0.337581 5.06777 0
M  V30 2675 H 244.489 -1.44256 5.06456 0
M  V30 2676 H 246.98 -0.641146 3.72421 0
M  V30 2677 H 247.293 -0.690616 7.69708 0
M  V30 2678 H 245.638 -0.628012 6.92157 0
M  V30 2679 H 248.829 -0.711019 4.62668 0
M  V30 2680 H 249.002 -0.733804 6.43832 0
M  V30 2681 N 242.408 -1.52605 -0.393616 0
M  V30 2682 C 243.355 -1.77055 -1.48054 0
M  V30 2683 C 244.325 -0.61358 -1.54352 0
M  V30 2684 O 245.51 -0.852806 -1.70681 0
M  V30 2685 C 242.65 -1.94108 -2.85335 0
M  V30 2686 C 241.763 -3.21792 -2.88226 0
M  V30 2687 C 240.898 -3.29188 -4.16904 0
M  V30 2688 C 239.937 -4.51013 -4.13828 0
M  V30 2689 N 239.074 -4.55716 -5.34105 0
M  V30 2690 H 243.914 -2.69815 -1.26506 0
M  V30 2691 H 241.451 -1.33683 -0.61379 0
M  V30 2692 H 243.409 -2.01979 -3.65049 0
M  V30 2693 H 242.039 -1.04713 -3.05344 0
M  V30 2694 H 241.091 -3.23015 -2.00911 0
M  V30 2695 H 242.403 -4.11557 -2.8182 0
M  V30 2696 H 241.557 -3.36216 -5.05018 0
M  V30 2697 H 240.296 -2.37389 -4.26026 0
M  V30 2698 H 239.301 -4.44115 -3.24102 0
M  V30 2699 H 240.526 -5.44123 -4.06333 0
M  V30 2700 H 238.472 -3.66807 -5.43865 0
M  V30 2701 H 238.389 -5.39346 -5.29756 0
M  V30 2702 H 239.657 -4.66993 -6.2413 0
M  V30 2703 N 243.887 0.651787 -1.4349 0
M  V30 2704 C 245.164 1.40909 -1.35661 0
M  V30 2705 C 245.544 2.11099 -0.00511733 0
M  V30 2706 O 244.892 2.04892 1.0115 0
M  V30 2707 C 245.102 2.3926 -2.54078 0
M  V30 2708 C 246.45 3.03217 -2.97228 0
M  V30 2709 O 247.474 2.49588 -2.54135 0
M  V30 2710 O 246.333 4.00455 -3.71885 0
M  V30 2711 H 243.427 0.629625 -0.536191 0
M  V30 2712 H 245.973 0.678575 -1.55542 0
M  V30 2713 H 244.745 1.86352 -3.44076 0
M  V30 2714 H 244.368 3.1976 -2.36303 0
M  V30 2715 O 245.404 1.40586 0.794848 0
M  V30 2716 H 246.095 1.29493 1.44053 0
M  V30 END ATOM
M  V30 BEGIN BOND
M  V30 END BOND
M  V30 END CTAB
M  END
$$$$
