drugbank_drug|DB05084 Abaloparatide N-terminal peptide sequence
 OpenBabel12092119133D

571573  0  0  0  0  0  0  0  0999 V2000
   -0.9080    1.9825   -0.1171 H   0  0  0  0  0 15  0  0  0  0  0  0
    0.0000    1.5760    0.0000 N   0  0  0  0  0 15  0  0  0  0  0  0
    0.9630    2.0737    0.9763 C   0  0  0  0  0 15  0  0  0  0  0  0
    1.9630    0.9831    1.2725 C   0  0  0  0  0 15  0  0  0  0  0  0
    3.1530    1.2457    1.2177 O   0  0  0  0  0 15  0  0  0  0  0  0
    0.2850    2.5151    2.3012 C   0  0  0  0  0 15  0  0  0  0  0  0
    1.4780    2.9489    0.5458 H   0  0  0  0  0 15  0  0  0  0  0  0
   -0.9690    1.5433    0.2475 H   0  0  0  0  0 15  0  0  0  0  0  0
   -0.2340    1.6723    2.7785 H   0  0  0  0  0 15  0  0  0  0  0  0
   -0.4490    3.3116    2.0994 H   0  0  0  0  0 15  0  0  0  0  0  0
    1.0410    2.9035    3.0015 H   0  0  0  0  0 15  0  0  0  0  0  0
    1.4781   -0.2728    1.5522 N   0  0  0  0  0 15  0  0  0  0  0  0
    2.7241   -1.0058    1.7610 C   0  0  0  0  0 15  0  0  0  0  0  0
    3.0571   -1.8593    0.5606 C   0  0  0  0  0 15  0  0  0  0  0  0
    2.3321   -1.8942   -0.4418 O   0  0  0  0  0 15  0  0  0  0  0  0
    2.6151   -1.8882    3.0663 C   0  0  0  0  0 15  0  0  0  0  0  0
    2.4681   -1.0646    4.3702 C   0  0  0  0  0 15  0  0  0  0  0  0
    3.7871   -2.8752    3.3320 C   0  0  0  0  0 15  0  0  0  0  0  0
    0.9061   -0.3642    0.6407 H   0  0  0  0  0 15  0  0  0  0  0  0
    3.5481   -0.2782    1.8795 H   0  0  0  0  0 15  0  0  0  0  0  0
    1.6981   -2.5086    2.9665 H   0  0  0  0  0 15  0  0  0  0  0  0
    3.3701   -0.4649    4.5895 H   0  0  0  0  0 15  0  0  0  0  0  0
    1.6131   -0.3680    4.3224 H   0  0  0  0  0 15  0  0  0  0  0  0
    2.2841   -1.7151    5.2468 H   0  0  0  0  0 15  0  0  0  0  0  0
    4.7601   -2.3561    3.4296 H   0  0  0  0  0 15  0  0  0  0  0  0
    3.6361   -3.4640    4.2579 H   0  0  0  0  0 15  0  0  0  0  0  0
    3.8971   -3.6266    2.5285 H   0  0  0  0  0 15  0  0  0  0  0  0
    2.9562   -1.4816   -0.5373 N   0  0  0  0  0 15  0  0  0  0  0  0
    4.1812   -1.5971   -1.3232 C   0  0  0  0  0 15  0  0  0  0  0  0
    4.6062   -0.2549   -1.8637 C   0  0  0  0  0 15  0  0  0  0  0  0
    3.9642    0.7724   -1.6402 O   0  0  0  0  0 15  0  0  0  0  0  0
    4.0122   -2.6412   -2.4551 C   0  0  0  0  0 15  0  0  0  0  0  0
    3.1162   -2.2077   -3.4833 O   0  0  0  0  0 15  0  0  0  0  0  0
    2.4572   -0.5358   -0.3922 H   0  0  0  0  0 15  0  0  0  0  0  0
    4.9872   -1.9409   -0.6473 H   0  0  0  0  0 15  0  0  0  0  0  0
    4.9972   -2.8517   -2.9180 H   0  0  0  0  0 15  0  0  0  0  0  0
    3.6722   -3.6157   -2.0553 H   0  0  0  0  0 15  0  0  0  0  0  0
    2.2492   -2.0991   -3.0821 H   0  0  0  0  0 15  0  0  0  0  0  0
    4.4343    0.7856   -1.3662 N   0  0  0  0  0 15  0  0  0  0  0  0
    5.3443    1.9296   -1.3342 C   0  0  0  0  0 15  0  0  0  0  0  0
    6.3603    1.7239   -0.2359 C   0  0  0  0  0 15  0  0  0  0  0  0
    7.5363    1.9587   -0.4689 O   0  0  0  0  0 15  0  0  0  0  0  0
    4.6013    3.2788   -1.1266 C   0  0  0  0  0 15  0  0  0  0  0  0
    3.6623    3.6120   -2.3201 C   0  0  0  0  0 15  0  0  0  0  0  0
    2.8953    4.8969   -2.1223 C   0  0  0  0  0 15  0  0  0  0  0  0
    3.1183    5.5970   -1.0995 O   0  0  0  0  0 15  0  0  0  0  0  0
    2.0523    5.2175   -3.0010 O   0  0  0  0  0 15  0  0  0  0  0  0
    5.8783    1.9861   -2.2975 H   0  0  0  0  0 15  0  0  0  0  0  0
    3.4633    0.9264   -1.1721 H   0  0  0  0  0 15  0  0  0  0  0  0
    5.3453    4.0861   -1.0302 H   0  0  0  0  0 15  0  0  0  0  0  0
    4.0203    3.2312   -0.1940 H   0  0  0  0  0 15  0  0  0  0  0  0
    2.9273    2.8077   -2.4723 H   0  0  0  0  0 15  0  0  0  0  0  0
    4.2603    3.7070   -3.2380 H   0  0  0  0  0 15  0  0  0  0  0  0
    5.9124    1.2097    1.0102 N   0  0  0  0  0 15  0  0  0  0  0  0
    6.8624    0.9318    2.0809 C   0  0  0  0  0 15  0  0  0  0  0  0
    7.8464   -0.1109    1.6052 C   0  0  0  0  0 15  0  0  0  0  0  0
    9.0384    0.0973    1.7673 O   0  0  0  0  0 15  0  0  0  0  0  0
    6.1674    0.4927    3.3975 C   0  0  0  0  0 15  0  0  0  0  0  0
    5.2534    1.5692    3.9400 C   0  0  0  0  0 15  0  0  0  0  0  0
    5.6444    2.7931    4.2169 N   0  0  0  0  0 15  0  0  0  0  0  0
    3.9424    1.4369    4.2222 C   0  0  0  0  0 15  0  0  0  0  0  0
    4.6434    3.4880    4.6553 C   0  0  0  0  0 15  0  0  0  0  0  0
    3.6194    2.7622    4.6819 N   0  0  0  0  0 15  0  0  0  0  0  0
    7.4214    1.8618    2.2741 H   0  0  0  0  0 15  0  0  0  0  0  0
    4.9354    1.1046    1.1905 H   0  0  0  0  0 15  0  0  0  0  0  0
    6.9324    0.2750    4.1599 H   0  0  0  0  0 15  0  0  0  0  0  0
    5.5924   -0.4305    3.2183 H   0  0  0  0  0 15  0  0  0  0  0  0
    6.6034    3.1590    4.1040 H   0  0  0  0  0 15  0  0  0  0  0  0
    3.2804    0.5785    4.1347 H   0  0  0  0  0 15  0  0  0  0  0  0
    4.6704    4.5356    4.9571 H   0  0  0  0  0 15  0  0  0  0  0  0
    7.3905   -1.2043    1.0166 N   0  0  0  0  0 15  0  0  0  0  0  0
    8.3225   -2.2263    0.5450 C   0  0  0  0  0 15  0  0  0  0  0  0
    9.3355   -1.5848   -0.3726 C   0  0  0  0  0 15  0  0  0  0  0  0
   10.5245   -1.7768   -0.1710 O   0  0  0  0  0 15  0  0  0  0  0  0
    7.6245   -3.3814   -0.2266 C   0  0  0  0  0 15  0  0  0  0  0  0
    6.7975   -4.3188    0.6929 C   0  0  0  0  0 15  0  0  0  0  0  0
    5.8565   -5.2619   -0.0312 C   0  0  0  0  0 15  0  0  0  0  0  0
    4.8825   -5.6612    0.5913 O   0  0  0  0  0 15  0  0  0  0  0  0
    6.0845   -5.6562   -1.3060 N   0  0  0  0  0 15  0  0  0  0  0  0
    8.8495   -2.6372    1.4239 H   0  0  0  0  0 15  0  0  0  0  0  0
    6.4105   -1.3497    0.8941 H   0  0  0  0  0 15  0  0  0  0  0  0
    8.4025   -3.9824   -0.7202 H   0  0  0  0  0 15  0  0  0  0  0  0
    6.9725   -2.9594   -1.0068 H   0  0  0  0  0 15  0  0  0  0  0  0
    6.1925   -3.6975    1.3668 H   0  0  0  0  0 15  0  0  0  0  0  0
    7.4805   -4.9143    1.3182 H   0  0  0  0  0 15  0  0  0  0  0  0
    6.8785   -5.3519   -1.8327 H   0  0  0  0  0 15  0  0  0  0  0  0
    5.4355   -6.2803   -1.7443 H   0  0  0  0  0 15  0  0  0  0  0  0
    8.8686   -0.7928   -1.3621 N   0  0  0  0  0 15  0  0  0  0  0  0
    9.7986   -0.2079   -2.3257 C   0  0  0  0  0 15  0  0  0  0  0  0
   10.7796    0.6591   -1.5681 C   0  0  0  0  0 15  0  0  0  0  0  0
   11.9646    0.5922   -1.8495 O   0  0  0  0  0 15  0  0  0  0  0  0
    9.0946    0.6554   -3.4106 C   0  0  0  0  0 15  0  0  0  0  0  0
    8.0486   -0.1118   -4.2785 C   0  0  0  0  0 15  0  0  0  0  0  0
    7.3746    0.8723   -5.2754 C   0  0  0  0  0 15  0  0  0  0  0  0
    8.6746   -1.3030   -5.0579 C   0  0  0  0  0 15  0  0  0  0  0  0
   10.3686   -1.0129   -2.8174 H   0  0  0  0  0 15  0  0  0  0  0  0
    7.9146   -0.4885   -1.3546 H   0  0  0  0  0 15  0  0  0  0  0  0
    9.8676    1.0746   -4.0747 H   0  0  0  0  0 15  0  0  0  0  0  0
    8.5916    1.4933   -2.9046 H   0  0  0  0  0 15  0  0  0  0  0  0
    7.2506   -0.5121   -3.6301 H   0  0  0  0  0 15  0  0  0  0  0  0
    6.8986    1.7052   -4.7321 H   0  0  0  0  0 15  0  0  0  0  0  0
    6.5986    0.3633   -5.8648 H   0  0  0  0  0 15  0  0  0  0  0  0
    8.1226    1.2900   -5.9682 H   0  0  0  0  0 15  0  0  0  0  0  0
    9.5366   -0.9594   -5.6522 H   0  0  0  0  0 15  0  0  0  0  0  0
    7.9336   -1.7455   -5.7415 H   0  0  0  0  0 15  0  0  0  0  0  0
    9.0036   -2.0966   -4.3723 H   0  0  0  0  0 15  0  0  0  0  0  0
   10.3467    1.4787   -0.5451 N   0  0  0  0  0 15  0  0  0  0  0  0
   11.2767    2.3266    0.1978 C   0  0  0  0  0 15  0  0  0  0  0  0
   12.2577    1.4304    0.9205 C   0  0  0  0  0 15  0  0  0  0  0  0
   13.4427    1.7191    0.9033 O   0  0  0  0  0 15  0  0  0  0  0  0
   10.5727    3.2457    1.2358 C   0  0  0  0  0 15  0  0  0  0  0  0
    9.5267    4.2333    0.6303 C   0  0  0  0  0 15  0  0  0  0  0  0
    8.8527    5.0448    1.7721 C   0  0  0  0  0 15  0  0  0  0  0  0
   10.1527    5.2070   -0.4080 C   0  0  0  0  0 15  0  0  0  0  0  0
   11.8467    2.9502   -0.5100 H   0  0  0  0  0 15  0  0  0  0  0  0
    9.3927    1.4187   -0.2467 H   0  0  0  0  0 15  0  0  0  0  0  0
   11.3457    3.8272    1.7636 H   0  0  0  0  0 15  0  0  0  0  0  0
   10.0697    2.6024    1.9734 H   0  0  0  0  0 15  0  0  0  0  0  0
    8.7287    3.6639    0.1239 H   0  0  0  0  0 15  0  0  0  0  0  0
    8.3767    4.3656    2.4985 H   0  0  0  0  0 15  0  0  0  0  0  0
    8.0767    5.7134    1.3728 H   0  0  0  0  0 15  0  0  0  0  0  0
    9.6007    5.6549    2.3034 H   0  0  0  0  0 15  0  0  0  0  0  0
   11.0147    5.7329    0.0333 H   0  0  0  0  0 15  0  0  0  0  0  0
    9.4117    5.9570   -0.7255 H   0  0  0  0  0 15  0  0  0  0  0  0
   10.4817    4.6692   -1.3083 H   0  0  0  0  0 15  0  0  0  0  0  0
   11.8248    0.2810    1.5507 N   0  0  0  0  0 15  0  0  0  0  0  0
   12.7748   -0.6186    2.1945 C   0  0  0  0  0 15  0  0  0  0  0  0
   13.7588   -1.1140    1.1610 C   0  0  0  0  0 15  0  0  0  0  0  0
   14.9508   -1.0581    1.4189 O   0  0  0  0  0 15  0  0  0  0  0  0
   12.0798   -1.7995    2.9236 C   0  0  0  0  0 15  0  0  0  0  0  0
   11.1658   -1.3210    4.0300 C   0  0  0  0  0 15  0  0  0  0  0  0
   11.5568   -0.5590    5.0270 N   0  0  0  0  0 15  0  0  0  0  0  0
    9.8548   -1.6035    4.1618 C   0  0  0  0  0 15  0  0  0  0  0  0
   10.5558   -0.3067    5.8089 C   0  0  0  0  0 15  0  0  0  0  0  0
    9.5318   -0.8808    5.3642 N   0  0  0  0  0 15  0  0  0  0  0  0
   13.3338   -0.0287    2.9389 H   0  0  0  0  0 15  0  0  0  0  0  0
   10.8478    0.0848    1.6218 H   0  0  0  0  0 15  0  0  0  0  0  0
   12.8448   -2.4553    3.3693 H   0  0  0  0  0 15  0  0  0  0  0  0
   11.5048   -2.3933    2.1943 H   0  0  0  0  0 15  0  0  0  0  0  0
   12.5158   -0.2058    5.1749 H   0  0  0  0  0 15  0  0  0  0  0  0
    9.1928   -2.2062    3.5445 H   0  0  0  0  0 15  0  0  0  0  0  0
   10.5828    0.3039    6.7121 H   0  0  0  0  0 15  0  0  0  0  0  0
   13.3029   -1.5760    0.0084 N   0  0  0  0  0 15  0  0  0  0  0  0
   14.5799   -1.8217   -0.7122 C   0  0  0  0  0 15  0  0  0  0  0  0
   14.9599   -0.8879   -1.9152 C   0  0  0  0  0 15  0  0  0  0  0  0
   14.3079    0.0615   -2.2842 O   0  0  0  0  0 15  0  0  0  0  0  0
   14.5179   -3.3088   -1.1101 C   0  0  0  0  0 15  0  0  0  0  0  0
   15.8659   -3.9683   -1.5104 C   0  0  0  0  0 15  0  0  0  0  0  0
   16.8899   -3.3525   -1.2036 O   0  0  0  0  0 15  0  0  0  0  0  0
   15.7489   -5.0532   -2.0813 O   0  0  0  0  0 15  0  0  0  0  0  0
   12.8429   -0.7504   -0.3475 H   0  0  0  0  0 15  0  0  0  0  0  0
   15.3889   -1.6967    0.0345 H   0  0  0  0  0 15  0  0  0  0  0  0
   14.1609   -3.9048   -0.2530 H   0  0  0  0  0 15  0  0  0  0  0  0
   13.7839   -3.4841   -1.9156 H   0  0  0  0  0 15  0  0  0  0  0  0
   14.7810    0.2645   -1.5536 N   0  0  0  0  0 15  0  0  0  0  0  0
   15.7280    1.3272   -1.8882 C   0  0  0  0  0 15  0  0  0  0  0  0
   16.6980    1.4867   -0.7406 C   0  0  0  0  0 15  0  0  0  0  0  0
   17.8830    1.6294   -0.9927 O   0  0  0  0  0 15  0  0  0  0  0  0
   15.0230    2.6809   -2.1731 C   0  0  0  0  0 15  0  0  0  0  0  0
   14.1360    2.6028   -3.4478 C   0  0  0  0  0 15  0  0  0  0  0  0
   13.2710    3.8789   -3.6292 C   0  0  0  0  0 15  0  0  0  0  0  0
   12.3100    3.7463   -4.8406 C   0  0  0  0  0 15  0  0  0  0  0  0
   11.4470    4.9409   -4.9882 N   0  0  0  0  0 15  0  0  0  0  0  0
   16.2870    1.0348   -2.7946 H   0  0  0  0  0 15  0  0  0  0  0  0
   13.8240    0.4998   -1.3835 H   0  0  0  0  0 15  0  0  0  0  0  0
   15.7820    3.4686   -2.3182 H   0  0  0  0  0 15  0  0  0  0  0  0
   14.4120    2.9551   -1.2990 H   0  0  0  0  0 15  0  0  0  0  0  0
   13.4640    1.7317   -3.3870 H   0  0  0  0  0 15  0  0  0  0  0  0
   14.7760    2.4639   -4.3370 H   0  0  0  0  0 15  0  0  0  0  0  0
   13.9300    4.7511   -3.7730 H   0  0  0  0  0 15  0  0  0  0  0  0
   12.6690    4.0466   -2.7221 H   0  0  0  0  0 15  0  0  0  0  0  0
   11.6740    2.8580   -4.6968 H   0  0  0  0  0 15  0  0  0  0  0  0
   12.8990    3.5937   -5.7622 H   0  0  0  0  0 15  0  0  0  0  0  0
   10.8450    5.1126   -4.1104 H   0  0  0  0  0 15  0  0  0  0  0  0
   10.7620    4.8276   -5.8179 H   0  0  0  0  0 15  0  0  0  0  0  0
   12.0300    5.8286   -5.1759 H   0  0  0  0  0 15  0  0  0  0  0  0
   16.2591    1.4844    0.5294 N   0  0  0  0  0 15  0  0  0  0  0  0
   17.5071    1.5618    1.2827 C   0  0  0  0  0 15  0  0  0  0  0  0
   17.8281    0.2377    1.9355 C   0  0  0  0  0 15  0  0  0  0  0  0
   17.0981   -0.7408    1.8135 O   0  0  0  0  0 15  0  0  0  0  0  0
   15.6781    0.5754    0.4764 H   0  0  0  0  0 15  0  0  0  0  0  0
   18.3401    1.8491    0.6160 H   0  0  0  0  0 15  0  0  0  0  0  0
   17.4361    2.3431    2.0617 H   0  0  0  0  0 15  0  0  0  0  0  0
   17.7372   -0.7783    1.3704 N   0  0  0  0  0 15  0  0  0  0  0  0
   18.6842   -1.8914    1.3227 C   0  0  0  0  0 15  0  0  0  0  0  0
   19.6542   -1.6502    0.1894 C   0  0  0  0  0 15  0  0  0  0  0  0
   20.8392   -1.8702    0.3777 O   0  0  0  0  0 15  0  0  0  0  0  0
   17.9792   -3.2611    1.1289 C   0  0  0  0  0 15  0  0  0  0  0  0
   17.0922   -3.6223    2.3540 C   0  0  0  0  0 15  0  0  0  0  0  0
   16.2272   -4.8838    2.0895 C   0  0  0  0  0 15  0  0  0  0  0  0
   15.2662   -5.1721    3.2735 C   0  0  0  0  0 15  0  0  0  0  0  0
   14.4032   -6.3455    3.0049 N   0  0  0  0  0 15  0  0  0  0  0  0
   19.2432   -1.9255    2.2744 H   0  0  0  0  0 15  0  0  0  0  0  0
   16.7802   -0.9415    1.1303 H   0  0  0  0  0 15  0  0  0  0  0  0
   18.7382   -4.0512    0.9968 H   0  0  0  0  0 15  0  0  0  0  0  0
   17.3682   -3.2209    0.2138 H   0  0  0  0  0 15  0  0  0  0  0  0
   16.4202   -2.7826    2.5937 H   0  0  0  0  0 15  0  0  0  0  0  0
   17.7322   -3.7948    3.2372 H   0  0  0  0  0 15  0  0  0  0  0  0
   16.8862   -5.7527    1.9273 H   0  0  0  0  0 15  0  0  0  0  0  0
   15.6252   -4.7322    1.1795 H   0  0  0  0  0 15  0  0  0  0  0  0
   14.6302   -4.2880    3.4411 H   0  0  0  0  0 15  0  0  0  0  0  0
   15.8552   -5.3428    4.1919 H   0  0  0  0  0 15  0  0  0  0  0  0
   13.8012   -6.2076    2.1212 H   0  0  0  0  0 15  0  0  0  0  0  0
   13.7182   -6.5218    3.8236 H   0  0  0  0  0 15  0  0  0  0  0  0
   14.9862   -7.2439    2.8788 H   0  0  0  0  0 15  0  0  0  0  0  0
   19.2153   -1.2150   -1.0038 N   0  0  0  0  0 15  0  0  0  0  0  0
   20.4403   -1.0598   -1.7828 C   0  0  0  0  0 15  0  0  0  0  0  0
   20.8653    0.3860   -1.8410 C   0  0  0  0  0 15  0  0  0  0  0  0
   20.2233    1.2785   -1.2855 O   0  0  0  0  0 15  0  0  0  0  0  0
   20.2713   -1.6630   -3.1996 C   0  0  0  0  0 15  0  0  0  0  0  0
   19.3753   -0.9093   -4.0225 O   0  0  0  0  0 15  0  0  0  0  0  0
   18.7163   -0.3729   -0.5494 H   0  0  0  0  0 15  0  0  0  0  0  0
   21.2463   -1.6107   -1.2617 H   0  0  0  0  0 15  0  0  0  0  0  0
   21.2563   -1.7057   -3.7063 H   0  0  0  0  0 15  0  0  0  0  0  0
   19.9313   -2.7152   -3.1504 H   0  0  0  0  0 15  0  0  0  0  0  0
   18.5083   -0.9418   -3.6081 H   0  0  0  0  0 15  0  0  0  0  0  0
   20.6934    1.1989   -1.0230 N   0  0  0  0  0 15  0  0  0  0  0  0
   21.9424    1.8874   -0.7113 C   0  0  0  0  0 15  0  0  0  0  0  0
   22.2554    1.8011    0.7628 C   0  0  0  0  0 15  0  0  0  0  0  0
   23.4614    2.4416    1.1873 O   0  0  0  0  0 15  0  0  0  0  0  0
   21.9174    3.3852   -1.2218 C   0  0  0  0  0 15  0  0  0  0  0  0
   21.5254    3.5573   -2.7233 C   0  0  0  0  0 15  0  0  0  0  0  0
   23.2694    4.1289   -0.9859 C   0  0  0  0  0 15  0  0  0  0  0  0
   21.1764    4.9937   -3.1684 C   0  0  0  0  0 15  0  0  0  0  0  0
   20.1064    0.7069   -0.2624 H   0  0  0  0  0 15  0  0  0  0  0  0
   22.7574    1.3559   -1.2365 H   0  0  0  0  0 15  0  0  0  0  0  0
   21.1394    3.9104   -0.6246 H   0  0  0  0  0 15  0  0  0  0  0  0
   22.3134    3.1356   -3.3766 H   0  0  0  0  0 15  0  0  0  0  0  0
   20.6284    2.9474   -2.9414 H   0  0  0  0  0 15  0  0  0  0  0  0
   23.2254    5.1881   -1.2937 H   0  0  0  0  0 15  0  0  0  0  0  0
   23.5684    4.1623    0.0775 H   0  0  0  0  0 15  0  0  0  0  0  0
   24.1014    3.6649   -1.5468 H   0  0  0  0  0 15  0  0  0  0  0  0
   20.8404    5.0119   -4.2248 H   0  0  0  0  0 15  0  0  0  0  0  0
   20.3604    5.4232   -2.5623 H   0  0  0  0  0 15  0  0  0  0  0  0
   22.0394    5.6799   -3.0984 H   0  0  0  0  0 15  0  0  0  0  0  0
   22.1715    0.8000    1.3578 N   0  0  0  0  0 15  0  0  0  0  0  0
   23.1035    0.1636    2.2862 C   0  0  0  0  0 15  0  0  0  0  0  0
   24.1165   -0.6333    1.4998 C   0  0  0  0  0 15  0  0  0  0  0  0
   25.3055   -0.4668    1.7229 O   0  0  0  0  0 15  0  0  0  0  0  0
   22.4055   -0.7910    3.2954 C   0  0  0  0  0 15  0  0  0  0  0  0
   21.5785   -0.0418    4.3738 C   0  0  0  0  0 15  0  0  0  0  0  0
   20.6375   -0.9139    5.1820 C   0  0  0  0  0 15  0  0  0  0  0  0
   19.6635   -0.3672    5.6801 O   0  0  0  0  0 15  0  0  0  0  0  0
   20.8655   -2.2368    5.3567 N   0  0  0  0  0 15  0  0  0  0  0  0
   23.6305    0.9611    2.8387 H   0  0  0  0  0 15  0  0  0  0  0  0
   21.1915    0.6549    1.4806 H   0  0  0  0  0 15  0  0  0  0  0  0
   23.1835   -1.3784    3.8050 H   0  0  0  0  0 15  0  0  0  0  0  0
   21.7535   -1.4892    2.7485 H   0  0  0  0  0 15  0  0  0  0  0  0
   20.9735    0.7268    3.8744 H   0  0  0  0  0 15  0  0  0  0  0  0
   22.2615    0.4747    5.0658 H   0  0  0  0  0 15  0  0  0  0  0  0
   21.6595   -2.7050    4.9684 H   0  0  0  0  0 15  0  0  0  0  0  0
   20.2165   -2.7737    5.8984 H   0  0  0  0  0 15  0  0  0  0  0  0
   23.6496   -1.4758    0.5530 N   0  0  0  0  0 15  0  0  0  0  0  0
   24.9266   -1.9556   -0.0382 C   0  0  0  0  0 15  0  0  0  0  0  0
   25.3066   -1.4955   -1.4899 C   0  0  0  0  0 15  0  0  0  0  0  0
   24.6546   -0.7324   -2.1644 O   0  0  0  0  0 15  0  0  0  0  0  0
   24.8646   -3.4885    0.1029 C   0  0  0  0  0 15  0  0  0  0  0  0
   26.2126   -4.2458   -0.0446 C   0  0  0  0  0 15  0  0  0  0  0  0
   27.2366   -3.5619    0.0303 O   0  0  0  0  0 15  0  0  0  0  0  0
   26.0956   -5.4612   -0.2049 O   0  0  0  0  0 15  0  0  0  0  0  0
   23.1896   -0.8243   -0.0665 H   0  0  0  0  0 15  0  0  0  0  0  0
   25.7356   -1.5800    0.6192 H   0  0  0  0  0 15  0  0  0  0  0  0
   24.5076   -3.7513    1.1133 H   0  0  0  0  0 15  0  0  0  0  0  0
   24.1306   -3.9316   -0.5922 H   0  0  0  0  0 15  0  0  0  0  0  0
   25.1277   -0.2892   -1.5492 N   0  0  0  0  0 15  0  0  0  0  0  0
   26.0577    0.5855   -2.2604 C   0  0  0  0  0 15  0  0  0  0  0  0
   27.0387    1.1475   -1.2556 C   0  0  0  0  0 15  0  0  0  0  0  0
   28.2237    1.1791   -1.5431 O   0  0  0  0  0 15  0  0  0  0  0  0
   25.3537    1.7631   -2.9922 C   0  0  0  0  0 15  0  0  0  0  0  0
   24.3077    1.3319   -4.0675 C   0  0  0  0  0 15  0  0  0  0  0  0
   23.6337    2.5937   -4.6758 C   0  0  0  0  0 15  0  0  0  0  0  0
   24.9337    0.4718   -5.2016 C   0  0  0  0  0 15  0  0  0  0  0  0
   26.6277   -0.0076   -2.9940 H   0  0  0  0  0 15  0  0  0  0  0  0
   24.1737   -0.0051   -1.4400 H   0  0  0  0  0 15  0  0  0  0  0  0
   26.1267    2.3810   -3.4769 H   0  0  0  0  0 15  0  0  0  0  0  0
   24.8507    2.3822   -2.2342 H   0  0  0  0  0 15  0  0  0  0  0  0
   23.5097    0.7371   -3.5911 H   0  0  0  0  0 15  0  0  0  0  0  0
   23.1577    3.1958   -3.8843 H   0  0  0  0  0 15  0  0  0  0  0  0
   22.8577    2.3123   -5.4019 H   0  0  0  0  0 15  0  0  0  0  0  0
   24.3817    3.2198   -5.1880 H   0  0  0  0  0 15  0  0  0  0  0  0
   25.7957    0.9951   -5.6460 H   0  0  0  0  0 15  0  0  0  0  0  0
   24.1927    0.2846   -5.9942 H   0  0  0  0  0 15  0  0  0  0  0  0
   25.2627   -0.5060   -4.8225 H   0  0  0  0  0 15  0  0  0  0  0  0
   26.6058    1.5759   -0.0167 N   0  0  0  0  0 15  0  0  0  0  0  0
   28.0218    1.5595    0.3396 C   0  0  0  0  0 15  0  0  0  0  0  0
   28.2218    1.0211    1.7371 C   0  0  0  0  0 15  0  0  0  0  0  0
   27.2778    0.6623    2.4366 O   0  0  0  0  0 15  0  0  0  0  0  0
   28.5908    3.0004    0.1995 C   0  0  0  0  0 15  0  0  0  0  0  0
   30.1388    3.1181    0.2732 C   0  0  0  0  0 15  0  0  0  0  0  0
   30.6138    4.5771    0.1621 C   0  0  0  0  0 15  0  0  0  0  0  0
   32.1048    4.6268    0.2194 N   0  0  0  0  0 15  0  0  0  0  0  0
   32.8398    5.7318    0.1571 C   0  0  0  0  0 15  0  0  0  0  0  0
   32.3358    6.9279    0.0443 N   0  0  0  0  0 15  0  0  0  0  0  0
   34.1288    5.6171    0.2101 N   0  0  0  0  0 15  0  0  0  0  0  0
   26.2798    1.9092   -0.9308 H   0  0  0  0  0 15  0  0  0  0  0  0
   28.5428    0.8777   -0.3583 H   0  0  0  0  0 15  0  0  0  0  0  0
   28.2488    3.4333   -0.7627 H   0  0  0  0  0 15  0  0  0  0  0  0
   28.1228    3.6439    0.9748 H   0  0  0  0  0 15  0  0  0  0  0  0
   30.5098    2.6843    1.2259 H   0  0  0  0  0 15  0  0  0  0  0  0
   30.5908    2.5020   -0.5323 H   0  0  0  0  0 15  0  0  0  0  0  0
   30.2348    5.0176   -0.7871 H   0  0  0  0  0 15  0  0  0  0  0  0
   30.1648    5.1728    0.9862 H   0  0  0  0  0 15  0  0  0  0  0  0
   32.6558    3.7665    0.3072 H   0  0  0  0  0 15  0  0  0  0  0  0
   32.9688    7.7280    0.0030 H   0  0  0  0  0 15  0  0  0  0  0  0
   31.3138    6.9500    0.0097 H   0  0  0  0  0 15  0  0  0  0  0  0
   34.5048    4.6716    0.2965 H   0  0  0  0  0 15  0  0  0  0  0  0
   34.6778    6.4781    0.1581 H   0  0  0  0  0 15  0  0  0  0  0  0
   28.0839   -0.2563    1.5550 N   0  0  0  0  0 15  0  0  0  0  0  0
   29.4999   -0.6043    1.4772 C   0  0  0  0  0 15  0  0  0  0  0  0
   29.6999   -1.8876    0.7050 C   0  0  0  0  0 15  0  0  0  0  0  0
   28.7559   -2.5144    0.2306 O   0  0  0  0  0 15  0  0  0  0  0  0
   30.0689   -0.7158    2.9206 C   0  0  0  0  0 15  0  0  0  0  0  0
   31.6169   -0.8087    3.0237 C   0  0  0  0  0 15  0  0  0  0  0  0
   32.0919   -0.9518    4.4800 C   0  0  0  0  0 15  0  0  0  0  0  0
   33.5829   -1.0169    4.5190 N   0  0  0  0  0 15  0  0  0  0  0  0
   34.3179   -1.1467    5.6182 C   0  0  0  0  0 15  0  0  0  0  0  0
   33.8139   -1.2426    6.8157 N   0  0  0  0  0 15  0  0  0  0  0  0
   35.6069   -1.1791    5.4959 N   0  0  0  0  0 15  0  0  0  0  0  0
   27.7579    0.5863    2.0415 H   0  0  0  0  0 15  0  0  0  0  0  0
   30.0209    0.2010    0.9264 H   0  0  0  0  0 15  0  0  0  0  0  0
   29.7269    0.1570    3.5135 H   0  0  0  0  0 15  0  0  0  0  0  0
   29.6009   -1.5907    3.4202 H   0  0  0  0  0 15  0  0  0  0  0  0
   31.9879   -1.6719    2.4317 H   0  0  0  0  0 15  0  0  0  0  0  0
   32.0689    0.0912    2.5564 H   0  0  0  0  0 15  0  0  0  0  0  0
   31.7129   -0.0931    5.0781 H   0  0  0  0  0 15  0  0  0  0  0  0
   31.6429   -1.8666    4.9241 H   0  0  0  0  0 15  0  0  0  0  0  0
   34.1339   -0.9545    3.6565 H   0  0  0  0  0 15  0  0  0  0  0  0
   34.4469   -1.3405    7.6109 H   0  0  0  0  0 15  0  0  0  0  0  0
   32.7919   -1.2124    6.8434 H   0  0  0  0  0 15  0  0  0  0  0  0
   35.9829   -1.1006    4.5498 H   0  0  0  0  0 15  0  0  0  0  0  0
   36.1559   -1.2768    6.3530 H   0  0  0  0  0 15  0  0  0  0  0  0
   29.5620   -1.4872   -0.5215 N   0  0  0  0  0 15  0  0  0  0  0  0
   30.9780   -1.3503   -0.8509 C   0  0  0  0  0 15  0  0  0  0  0  0
   31.1780   -0.3677   -1.9812 C   0  0  0  0  0 15  0  0  0  0  0  0
   30.2340    0.2080   -2.5164 O   0  0  0  0  0 15  0  0  0  0  0  0
   31.5470   -2.7526   -1.2104 C   0  0  0  0  0 15  0  0  0  0  0  0
   33.0950   -2.8381   -1.3198 C   0  0  0  0  0 15  0  0  0  0  0  0
   33.5700   -4.2477   -1.7128 C   0  0  0  0  0 15  0  0  0  0  0  0
   35.0610   -4.2748   -1.7836 N   0  0  0  0  0 15  0  0  0  0  0  0
   35.7960   -5.3349   -2.1017 C   0  0  0  0  0 15  0  0  0  0  0  0
   35.2920   -6.4977   -2.4034 N   0  0  0  0  0 15  0  0  0  0  0  0
   37.0850   -5.2089   -2.1125 N   0  0  0  0  0 15  0  0  0  0  0  0
   29.2360   -2.1121    0.2241 H   0  0  0  0  0 15  0  0  0  0  0  0
   31.4990   -0.9473    0.0376 H   0  0  0  0  0 15  0  0  0  0  0  0
   31.2050   -3.4877   -0.4534 H   0  0  0  0  0 15  0  0  0  0  0  0
   31.0790   -3.0933   -2.1586 H   0  0  0  0  0 15  0  0  0  0  0  0
   33.4660   -2.1056   -2.0676 H   0  0  0  0  0 15  0  0  0  0  0  0
   33.5470   -2.5336   -0.3526 H   0  0  0  0  0 15  0  0  0  0  0  0
   33.1910   -4.9854   -0.9706 H   0  0  0  0  0 15  0  0  0  0  0  0
   33.1210   -4.5267   -2.6906 H   0  0  0  0  0 15  0  0  0  0  0  0
   35.6120   -3.4361   -1.5729 H   0  0  0  0  0 15  0  0  0  0  0  0
   35.9250   -7.2640   -2.6374 H   0  0  0  0  0 15  0  0  0  0  0  0
   34.2700   -6.5304   -2.3784 H   0  0  0  0  0 15  0  0  0  0  0  0
   37.4610   -4.2906   -1.8714 H   0  0  0  0  0 15  0  0  0  0  0  0
   37.6340   -6.0361   -2.3570 H   0  0  0  0  0 15  0  0  0  0  0  0
   31.0401    0.7711   -1.3745 N   0  0  0  0  0 15  0  0  0  0  0  0
   31.9501    1.9154   -1.3546 C   0  0  0  0  0 15  0  0  0  0  0  0
   32.9661    1.7213   -0.2541 C   0  0  0  0  0 15  0  0  0  0  0  0
   34.1421    1.9536   -0.4896 O   0  0  0  0  0 15  0  0  0  0  0  0
   31.2071    3.2667   -1.1613 C   0  0  0  0  0 15  0  0  0  0  0  0
   30.2681    3.5872   -2.3583 C   0  0  0  0  0 15  0  0  0  0  0  0
   29.5011    4.8741   -2.1741 C   0  0  0  0  0 15  0  0  0  0  0  0
   29.7241    5.5851   -1.1588 O   0  0  0  0  0 15  0  0  0  0  0  0
   28.6581    5.1854   -3.0562 O   0  0  0  0  0 15  0  0  0  0  0  0
   32.4841    1.9617   -2.3185 H   0  0  0  0  0 15  0  0  0  0  0  0
   30.0691    0.9139   -1.1819 H   0  0  0  0  0 15  0  0  0  0  0  0
   31.9511    4.0750   -1.0734 H   0  0  0  0  0 15  0  0  0  0  0  0
   30.6261    3.2289   -0.2283 H   0  0  0  0  0 15  0  0  0  0  0  0
   29.5331    2.7813   -2.5019 H   0  0  0  0  0 15  0  0  0  0  0  0
   30.8661    3.6724   -3.2771 H   0  0  0  0  0 15  0  0  0  0  0  0
   32.5182    1.2203    0.9973 N   0  0  0  0  0 15  0  0  0  0  0  0
   33.4482    1.0107    2.1049 C   0  0  0  0  0 15  0  0  0  0  0  0
   34.4292   -0.0670    1.6997 C   0  0  0  0  0 15  0  0  0  0  0  0
   35.6142    0.0944    1.9397 O   0  0  0  0  0 15  0  0  0  0  0  0
   32.7442    0.5829    3.4237 C   0  0  0  0  0 15  0  0  0  0  0  0
   31.6982    1.6059    3.9673 C   0  0  0  0  0 15  0  0  0  0  0  0
   31.0242    1.0341    5.2460 C   0  0  0  0  0 15  0  0  0  0  0  0
   32.3242    2.9948    4.2791 C   0  0  0  0  0 15  0  0  0  0  0  0
   34.0182    1.9371    2.2829 H   0  0  0  0  0 15  0  0  0  0  0  0
   31.5642    0.9328    1.0971 H   0  0  0  0  0 15  0  0  0  0  0  0
   33.5172    0.4233    4.1927 H   0  0  0  0  0 15  0  0  0  0  0  0
   32.2412   -0.3792    3.2439 H   0  0  0  0  0 15  0  0  0  0  0  0
   30.9002    1.7532    3.2196 H   0  0  0  0  0 15  0  0  0  0  0  0
   30.5482    0.0635    5.0296 H   0  0  0  0  0 15  0  0  0  0  0  0
   30.2482    1.7175    5.6194 H   0  0  0  0  0 15  0  0  0  0  0  0
   31.7722    0.8861    6.0414 H   0  0  0  0  0 15  0  0  0  0  0  0
   33.1862    2.8815    4.9562 H   0  0  0  0  0 15  0  0  0  0  0  0
   31.5832    3.6490    4.7641 H   0  0  0  0  0 15  0  0  0  0  0  0
   32.6532    3.4974    3.3587 H   0  0  0  0  0 15  0  0  0  0  0  0
   33.9963   -1.1934    1.0293 N   0  0  0  0  0 15  0  0  0  0  0  0
   34.9263   -2.2481    0.6311 C   0  0  0  0  0 15  0  0  0  0  0  0
   35.9073   -1.6624   -0.3601 C   0  0  0  0  0 15  0  0  0  0  0  0
   37.0923   -1.9268   -0.2427 O   0  0  0  0  0 15  0  0  0  0  0  0
   34.2223   -3.4730   -0.0185 C   0  0  0  0  0 15  0  0  0  0  0  0
   33.1763   -4.1854    0.8951 C   0  0  0  0  0 15  0  0  0  0  0  0
   32.5023   -5.3459    0.1106 C   0  0  0  0  0 15  0  0  0  0  0  0
   33.8023   -4.7329    2.2090 C   0  0  0  0  0 15  0  0  0  0  0  0
   35.4963   -2.5837    1.5128 H   0  0  0  0  0 15  0  0  0  0  0  0
   33.0423   -1.2419    0.7288 H   0  0  0  0  0 15  0  0  0  0  0  0
   34.9953   -4.2027   -0.3087 H   0  0  0  0  0 15  0  0  0  0  0  0
   33.7193   -3.1293   -0.9349 H   0  0  0  0  0 15  0  0  0  0  0  0
   32.3783   -3.4745    1.1695 H   0  0  0  0  0 15  0  0  0  0  0  0
   32.0263   -4.9647   -0.8079 H   0  0  0  0  0 15  0  0  0  0  0  0
   31.7263   -5.8318    0.7191 H   0  0  0  0  0 15  0  0  0  0  0  0
   33.2503   -6.1036   -0.1729 H   0  0  0  0  0 15  0  0  0  0  0  0
   34.6643   -5.3801    1.9803 H   0  0  0  0  0 15  0  0  0  0  0  0
   33.0613   -5.3237    2.7695 H   0  0  0  0  0 15  0  0  0  0  0  0
   34.1313   -3.9133    2.8634 H   0  0  0  0  0 15  0  0  0  0  0  0
   35.4744   -0.8072   -1.3536 N   0  0  0  0  0 15  0  0  0  0  0  0
   36.3844   -0.2196   -2.3357 C   0  0  0  0  0 15  0  0  0  0  0  0
   37.4004    0.6377   -1.6189 C   0  0  0  0  0 15  0  0  0  0  0  0
   38.5764    0.5493   -1.9376 O   0  0  0  0  0 15  0  0  0  0  0  0
   35.6414    0.6216   -3.4108 C   0  0  0  0  0 15  0  0  0  0  0  0
   34.7024   -0.2563   -4.2853 C   0  0  0  0  0 15  0  0  0  0  0  0
   33.9354    0.5448   -5.3091 C   0  0  0  0  0 15  0  0  0  0  0  0
   34.1584    1.7794   -5.4193 O   0  0  0  0  0 15  0  0  0  0  0  0
   33.0924   -0.0646   -6.0187 O   0  0  0  0  0 15  0  0  0  0  0  0
   36.9184   -1.0321   -2.8563 H   0  0  0  0  0 15  0  0  0  0  0  0
   34.5034   -0.5690   -1.3814 H   0  0  0  0  0 15  0  0  0  0  0  0
   36.3854    1.1007   -4.0677 H   0  0  0  0  0 15  0  0  0  0  0  0
   35.0604    1.4117   -2.9130 H   0  0  0  0  0 15  0  0  0  0  0  0
   33.9674   -0.7826   -3.6582 H   0  0  0  0  0 15  0  0  0  0  0  0
   35.3004   -1.0103   -4.8172 H   0  0  0  0  0 15  0  0  0  0  0  0
   36.9525    1.4729   -0.5608 N   0  0  0  0  0 15  0  0  0  0  0  0
   37.8995    2.3006    0.1849 C   0  0  0  0  0 15  0  0  0  0  0  0
   38.8695    1.3928    0.9050 C   0  0  0  0  0 15  0  0  0  0  0  0
   40.0545    1.6824    0.9000 O   0  0  0  0  0 15  0  0  0  0  0  0
   37.1945    3.2332    1.2067 C   0  0  0  0  0 15  0  0  0  0  0  0
   36.3075    4.2919    0.4923 C   0  0  0  0  0 15  0  0  0  0  0  0
   35.4425    5.0959    1.4996 C   0  0  0  0  0 15  0  0  0  0  0  0
   34.4815    6.0723    0.7704 C   0  0  0  0  0 15  0  0  0  0  0  0
   33.6185    6.8058    1.7248 N   0  0  0  0  0 15  0  0  0  0  0  0
   38.4585    2.9330   -0.5270 H   0  0  0  0  0 15  0  0  0  0  0  0
   35.9955    1.4457   -0.2717 H   0  0  0  0  0 15  0  0  0  0  0  0
   37.9535    3.7581    1.8117 H   0  0  0  0  0 15  0  0  0  0  0  0
   36.5835    2.6193    1.8866 H   0  0  0  0  0 15  0  0  0  0  0  0
   35.6355    3.7972   -0.2273 H   0  0  0  0  0 15  0  0  0  0  0  0
   36.9475    4.9874   -0.0788 H   0  0  0  0  0 15  0  0  0  0  0  0
   36.1015    5.6625    2.1781 H   0  0  0  0  0 15  0  0  0  0  0  0
   34.8405    4.3995    2.1046 H   0  0  0  0  0 15  0  0  0  0  0  0
   33.8455    5.4974    0.0781 H   0  0  0  0  0 15  0  0  0  0  0  0
   35.0705    6.7888    0.1711 H   0  0  0  0  0 15  0  0  0  0  0  0
   33.0165    6.1367    2.3183 H   0  0  0  0  0 15  0  0  0  0  0  0
   32.9335    7.4632    1.2060 H   0  0  0  0  0 15  0  0  0  0  0  0
   34.2015    7.4182    2.3943 H   0  0  0  0  0 15  0  0  0  0  0  0
   38.4306    0.2974    1.5477 N   0  0  0  0  0 15  0  0  0  0  0  0
   39.3606   -0.5735    2.2635 C   0  0  0  0  0 15  0  0  0  0  0  0
   40.3416   -1.1409    1.2617 C   0  0  0  0  0 15  0  0  0  0  0  0
   41.5266   -1.1709    1.5493 O   0  0  0  0  0 15  0  0  0  0  0  0
   38.6566   -1.7472    3.0015 C   0  0  0  0  0 15  0  0  0  0  0  0
   37.6106   -1.3103    4.0745 C   0  0  0  0  0 15  0  0  0  0  0  0
   36.9366   -2.5689    4.6895 C   0  0  0  0  0 15  0  0  0  0  0  0
   38.2366   -0.4442    5.2041 C   0  0  0  0  0 15  0  0  0  0  0  0
   39.9306    0.0235    2.9939 H   0  0  0  0  0 15  0  0  0  0  0  0
   37.4766    0.0127    1.4399 H   0  0  0  0  0 15  0  0  0  0  0  0
   39.4296   -2.3625    3.4895 H   0  0  0  0  0 15  0  0  0  0  0  0
   38.1536   -2.3704    2.2468 H   0  0  0  0  0 15  0  0  0  0  0  0
   36.8126   -0.7181    3.5950 H   0  0  0  0  0 15  0  0  0  0  0  0
   36.4606   -3.1751    3.9012 H   0  0  0  0  0 15  0  0  0  0  0  0
   36.1606   -2.2836    5.4141 H   0  0  0  0  0 15  0  0  0  0  0  0
   37.6846   -3.1923    5.2050 H   0  0  0  0  0 15  0  0  0  0  0  0
   39.0986   -0.9651    5.6512 H   0  0  0  0  0 15  0  0  0  0  0  0
   37.4956   -0.2528    5.9957 H   0  0  0  0  0 15  0  0  0  0  0  0
   38.5656    0.5316    4.8198 H   0  0  0  0  0 15  0  0  0  0  0  0
   39.9087   -1.5758    0.0251 N   0  0  0  0  0 15  0  0  0  0  0  0
   40.8387   -2.1301   -0.9566 C   0  0  0  0  0 15  0  0  0  0  0  0
   41.8197   -1.0452   -1.3420 C   0  0  0  0  0 15  0  0  0  0  0  0
   43.0047   -1.3233   -1.4213 O   0  0  0  0  0 15  0  0  0  0  0  0
   40.1347   -2.6539   -2.2403 C   0  0  0  0  0 15  0  0  0  0  0  0
   39.0887   -3.7862   -1.9957 C   0  0  0  0  0 15  0  0  0  0  0  0
   38.4147   -4.1741   -3.3417 C   0  0  0  0  0 15  0  0  0  0  0  0
   39.7147   -5.0487   -1.3381 C   0  0  0  0  0 15  0  0  0  0  0  0
   41.4087   -2.9528   -0.4950 H   0  0  0  0  0 15  0  0  0  0  0  0
   38.9547   -1.4204   -0.2367 H   0  0  0  0  0 15  0  0  0  0  0  0
   40.9077   -3.0279   -2.9308 H   0  0  0  0  0 15  0  0  0  0  0  0
   39.6317   -1.8027   -2.7234 H   0  0  0  0  0 15  0  0  0  0  0  0
   38.2907   -3.4165   -1.3294 H   0  0  0  0  0 15  0  0  0  0  0  0
   37.9387   -3.2928   -3.8024 H   0  0  0  0  0 15  0  0  0  0  0  0
   37.6387   -4.9372   -3.1861 H   0  0  0  0  0 15  0  0  0  0  0  0
   39.1627   -4.5740   -4.0449 H   0  0  0  0  0 15  0  0  0  0  0  0
   40.5767   -5.3989   -1.9286 H   0  0  0  0  0 15  0  0  0  0  0  0
   38.9737   -5.8614   -1.2867 H   0  0  0  0  0 15  0  0  0  0  0  0
   40.0437   -4.8390   -0.3106 H   0  0  0  0  0 15  0  0  0  0  0  0
   41.3868    0.2480   -1.5564 N   0  0  0  0  0 15  0  0  0  0  0  0
   42.3498    1.2904   -1.8942 C   0  0  0  0  0 15  0  0  0  0  0  0
   43.3498    1.4113   -0.7706 C   0  0  0  0  0 15  0  0  0  0  0  0
   44.5398    1.3985   -1.0386 O   0  0  0  0  0 15  0  0  0  0  0  0
   42.8649    1.4899    0.5136 N   0  0  0  0  0 15  0  0  0  0  0  0
   43.8119    1.6473    1.6166 C   0  0  0  0  0 15  0  0  0  0  0  0
   44.7819    0.4890    1.5874 C   0  0  0  0  0 15  0  0  0  0  0  0
   45.9669    0.7145    1.7692 O   0  0  0  0  0 15  0  0  0  0  0  0
   43.1069    1.7082    2.9986 C   0  0  0  0  0 15  0  0  0  0  0  0
   42.2199    2.9787    3.1289 C   0  0  0  0  0 15  0  0  0  0  0  0
   41.3549    2.9502    4.4174 C   0  0  0  0  0 15  0  0  0  0  0  0
   40.3939    4.1670    4.4836 C   0  0  0  0  0 15  0  0  0  0  0  0
   39.5309    4.1183    5.6863 N   0  0  0  0  0 15  0  0  0  0  0  0
   44.3709    2.5891    1.4755 H   0  0  0  0  0 15  0  0  0  0  0  0
   41.9079    1.2838    0.7181 H   0  0  0  0  0 15  0  0  0  0  0  0
   43.8659    1.7233    3.7994 H   0  0  0  0  0 15  0  0  0  0  0  0
   42.4959    0.8012    3.1270 H   0  0  0  0  0 15  0  0  0  0  0  0
   41.5479    3.0603    2.2594 H   0  0  0  0  0 15  0  0  0  0  0  0
   42.8599    3.8786    3.1363 H   0  0  0  0  0 15  0  0  0  0  0  0
   42.0139    2.9502    5.3014 H   0  0  0  0  0 15  0  0  0  0  0  0
   40.7529    2.0278    4.4354 H   0  0  0  0  0 15  0  0  0  0  0  0
   39.7579    4.1696    3.5837 H   0  0  0  0  0 15  0  0  0  0  0  0
   40.9829    5.1011    4.4829 H   0  0  0  0  0 15  0  0  0  0  0  0
   38.9289    3.2243    5.7129 H   0  0  0  0  0 15  0  0  0  0  0  0
   38.8459    4.9554    5.7094 H   0  0  0  0  0 15  0  0  0  0  0  0
   40.1139    4.1592    6.5927 H   0  0  0  0  0 15  0  0  0  0  0  0
   44.3430   -0.7638    1.3786 N   0  0  0  0  0 15  0  0  0  0  0  0
   45.2730   -1.8910    1.3698 C   0  0  0  0  0 15  0  0  0  0  0  0
   46.2540   -1.6844    0.2372 C   0  0  0  0  0 15  0  0  0  0  0  0
   47.4390   -1.8918    0.4387 O   0  0  0  0  0 15  0  0  0  0  0  0
   44.5690   -3.2650    1.1839 C   0  0  0  0  0 15  0  0  0  0  0  0
   43.5230   -3.6174    2.2875 C   0  0  0  0  0 15  0  0  0  0  0  0
   42.8490   -4.9776    1.9529 C   0  0  0  0  0 15  0  0  0  0  0  0
   44.1490   -3.6766    3.7097 C   0  0  0  0  0 15  0  0  0  0  0  0
   45.8430   -1.9010    2.3131 H   0  0  0  0  0 15  0  0  0  0  0  0
   43.3890   -0.9132    1.1134 H   0  0  0  0  0 15  0  0  0  0  0  0
   45.3420   -4.0500    1.1641 H   0  0  0  0  0 15  0  0  0  0  0  0
   44.0660   -3.2595    0.2052 H   0  0  0  0  0 15  0  0  0  0  0  0
   42.7250   -2.8555    2.2991 H   0  0  0  0  0 15  0  0  0  0  0  0
   42.3730   -4.9377    0.9592 H   0  0  0  0  0 15  0  0  0  0  0  0
   42.0730   -5.2231    2.6919 H   0  0  0  0  0 15  0  0  0  0  0  0
   43.5970   -5.7866    1.9490 H   0  0  0  0  0 15  0  0  0  0  0  0
   45.0110   -4.3631    3.7190 H   0  0  0  0  0 15  0  0  0  0  0  0
   43.4080   -4.0372    4.4400 H   0  0  0  0  0 15  0  0  0  0  0  0
   44.4780   -2.6813    4.0402 H   0  0  0  0  0 15  0  0  0  0  0  0
   45.8211   -1.2256   -0.9908 N   0  0  0  0  0 15  0  0  0  0  0  0
   46.7711   -0.9648   -2.0658 C   0  0  0  0  0 15  0  0  0  0  0  0
   47.7551    0.0853   -1.6067 C   0  0  0  0  0 15  0  0  0  0  0  0
   48.9471   -0.1254   -1.7655 O   0  0  0  0  0 15  0  0  0  0  0  0
   46.0761   -0.5467   -3.3892 C   0  0  0  0  0 15  0  0  0  0  0  0
   45.1621   -1.6317   -3.9145 C   0  0  0  0  0 15  0  0  0  0  0  0
   45.5531   -2.8598   -4.1719 N   0  0  0  0  0 15  0  0  0  0  0  0
   43.8511   -1.5039   -4.1988 C   0  0  0  0  0 15  0  0  0  0  0  0
   44.5521   -3.5616   -4.5992 C   0  0  0  0  0 15  0  0  0  0  0  0
   43.5281   -2.8364   -4.6374 N   0  0  0  0  0 15  0  0  0  0  0  0
   47.3301   -1.8977   -2.2442 H   0  0  0  0  0 15  0  0  0  0  0  0
   44.8441   -1.1234   -1.1727 H   0  0  0  0  0 15  0  0  0  0  0  0
   46.8411   -0.3412   -4.1550 H   0  0  0  0  0 15  0  0  0  0  0  0
   45.5011    0.3793   -3.2248 H   0  0  0  0  0 15  0  0  0  0  0  0
   46.5121   -3.2239   -4.0532 H   0  0  0  0  0 15  0  0  0  0  0  0
   43.1891   -0.6443   -4.1250 H   0  0  0  0  0 15  0  0  0  0  0  0
   44.5791   -4.6139   -4.8844 H   0  0  0  0  0 15  0  0  0  0  0  0
   47.2992    1.1880   -1.0356 N   0  0  0  0  0 15  0  0  0  0  0  0
   48.5272    1.9260   -0.7559 C   0  0  0  0  0 15  0  0  0  0  0  0
   48.9422    1.7589    0.6863 C   0  0  0  0  0 15  0  0  0  0  0  0
   48.2992    1.0852    1.4673 O   0  0  0  0  0 15  0  0  0  0  0  0
   48.3502    3.4416   -1.1062 C   0  0  0  0  0 15  0  0  0  0  0  0
   48.0712    3.6034   -2.4917 O   0  0  0  0  0 15  0  0  0  0  0  0
   49.5722    4.3507   -0.8502 C   0  0  0  0  0 15  0  0  0  0  0  0
   46.7922    0.6116   -0.2760 H   0  0  0  0  0 15  0  0  0  0  0  0
   49.3362    1.5074   -1.3819 H   0  0  0  0  0 15  0  0  0  0  0  0
   47.4912    3.8382   -0.5252 H   0  0  0  0  0 15  0  0  0  0  0  0
   47.9052    4.5413   -2.6243 H   0  0  0  0  0 15  0  0  0  0  0  0
   49.3792    5.3999   -1.1452 H   0  0  0  0  0 15  0  0  0  0  0  0
   49.8562    4.3867    0.2152 H   0  0  0  0  0 15  0  0  0  0  0  0
   50.4622    4.0110   -1.4143 H   0  0  0  0  0 15  0  0  0  0  0  0
   48.7773    0.8144    1.3493 N   0  0  0  0  0 15  0  0  0  0  0  0
   49.7403    0.2358    2.2798 C   0  0  0  0  0 15  0  0  0  0  0  0
   50.7403   -0.5814    1.4992 C   0  0  0  0  0 15  0  0  0  0  0  0
   51.9303   -0.3988    1.6957 O   0  0  0  0  0 15  0  0  0  0  0  0
   49.0623   -0.6704    3.3424 C   0  0  0  0  0 15  0  0  0  0  0  0
   50.2553    1.0566    2.8067 H   0  0  0  0  0 15  0  0  0  0  0  0
   47.8083    0.5856    1.4491 H   0  0  0  0  0 15  0  0  0  0  0  0
   48.5433   -1.5147    2.8676 H   0  0  0  0  0 15  0  0  0  0  0  0
   48.3283   -0.0861    3.9201 H   0  0  0  0  0 15  0  0  0  0  0  0
   49.8183   -1.0694    4.0368 H   0  0  0  0  0 15  0  0  0  0  0  0
   50.2943   -1.4508    0.7095 O   0  0  0  0  0 15  0  0  0  0  0  0
   50.9853   -1.9204    0.2527 H   0  0  0  0  0 15  0  0  0  0  0  0
M  END
$$$$
