drugbank_drug|DB06599 8753_H|lexatumumab|Homo sapiens||H-GAMMA-1 (VH(1-121)+CH1(122-219)+HINGE-REGION(220-234)+CH2(235-344)+CH3(345-451))|||||||451||||MW 49117.4|MW 49117.4|
 OpenBabel12092119133D

  0  0  0     0  0            999 V3000
M  V30 BEGIN CTAB
M  V30 COUNTS 6854 6946 0 0 0
M  V30 BEGIN ATOM
M  V30 1 H -0.908 1.98254 -0.117106 0
M  V30 2 N 0 1.576 0 0
M  V30 3 C 0.91 2.11853 1.00774 0
M  V30 4 C 1.926 1.06379 1.37693 0
M  V30 5 O 3.102 1.3828 1.46426 0
M  V30 6 C 0.167 2.61108 2.28087 0
M  V30 7 C -0.772 3.81183 1.9748 0
M  V30 8 C -1.539 4.28079 3.18723 0
M  V30 9 O -1.316 3.74307 4.30407 0
M  V30 10 O -2.382 5.20234 3.02721 0
M  V30 11 H 1.444 2.98177 0.576547 0
M  V30 12 H -0.971 1.47789 0.218828 0
M  V30 13 H 0.911 2.92987 3.0288 0
M  V30 14 H -0.414 1.77881 2.70444 0
M  V30 15 H -1.507 3.54277 1.20162 0
M  V30 16 H -0.174 4.65482 1.5996 0
M  V30 17 N 1.4781 -0.272755 1.55222 0
M  V30 18 C 2.7241 -1.00581 1.761 0
M  V30 19 C 3.0571 -1.85932 0.560625 0
M  V30 20 O 2.3321 -1.89416 -0.441801 0
M  V30 21 C 2.6151 -1.88816 3.06628 0
M  V30 22 C 2.4681 -1.06457 4.37021 0
M  V30 23 C 3.7871 -2.8752 3.33197 0
M  V30 24 H 0.9061 -0.364244 0.640699 0
M  V30 25 H 3.5481 -0.278189 1.87952 0
M  V30 26 H 1.6981 -2.50856 2.96654 0
M  V30 27 H 3.3701 -0.464863 4.58952 0
M  V30 28 H 1.6131 -0.368043 4.32236 0
M  V30 29 H 2.2841 -1.71514 5.24678 0
M  V30 30 H 4.7601 -2.35615 3.42965 0
M  V30 31 H 3.6361 -3.46399 4.25792 0
M  V30 32 H 3.8971 -3.62657 2.52849 0
M  V30 33 N 2.9562 -1.48159 -0.537278 0
M  V30 34 C 3.8882 -1.58218 -1.65831 0
M  V30 35 C 4.9012 -0.466948 -1.5596 0
M  V30 36 O 6.0902 -0.73747 -1.62553 0
M  V30 37 C 3.1902 -1.48906 -3.04434 0
M  V30 38 C 2.3632 -2.75343 -3.3986 0
M  V30 39 C 1.4222 -2.59588 -4.57712 0
M  V30 40 O 0.4482 -3.33457 -4.61297 0
M  V30 41 N 1.6502 -1.68724 -5.55439 0
M  V30 42 H 4.4152 -2.54891 -1.57641 0
M  V30 43 H 1.9762 -1.4479 -0.724386 0
M  V30 44 H 3.9682 -1.36072 -3.81139 0
M  V30 45 H 2.5382 -0.602368 -3.06741 0
M  V30 46 H 1.7582 -3.02795 -2.52406 0
M  V30 47 H 3.0462 -3.5924 -3.60311 0
M  V30 48 H 2.4442 -1.07898 -5.55315 0
M  V30 49 H 1.0012 -1.61832 -6.3139 0
M  V30 50 N 4.4343 0.785586 -1.36625 0
M  V30 51 C 5.3643 1.91259 -1.33949 0
M  V30 52 C 6.3453 1.68795 -0.210325 0
M  V30 53 O 7.5303 1.89854 -0.408561 0
M  V30 54 C 4.6603 3.28339 -1.13186 0
M  V30 55 C 3.6143 3.65335 -2.22967 0
M  V30 56 C 2.9403 5.00806 -1.87342 0
M  V30 57 C 4.2403 3.7352 -3.65075 0
M  V30 58 H 5.9343 1.93755 -2.28253 0
M  V30 59 H 3.4803 0.930788 -1.09874 0
M  V30 60 H 5.4333 4.06804 -1.09948 0
M  V30 61 H 4.1573 3.2624 -0.153332 0
M  V30 62 H 2.8163 2.89169 -2.25337 0
M  V30 63 H 2.4643 4.95233 -0.880545 0
M  V30 64 H 2.1643 5.26529 -2.60846 0
M  V30 65 H 3.6883 5.81687 -1.85667 0
M  V30 66 H 5.1023 4.42168 -3.64911 0
M  V30 67 H 3.4993 4.10731 -4.37516 0
M  V30 68 H 4.5693 2.74527 -3.99703 0
M  V30 69 N 5.9124 1.20967 1.01018 0
M  V30 70 C 7.1584 1.02526 1.74975 0
M  V30 71 C 7.4914 -0.4408 1.89131 0
M  V30 72 O 6.7664 -1.32718 1.42184 0
M  V30 73 C 7.0494 1.71699 3.1653 0
M  V30 74 C 6.9024 3.25791 3.10129 0
M  V30 75 C 8.2214 1.45531 4.15342 0
M  V30 76 H 5.3404 0.373863 0.635134 0
M  V30 77 H 7.9824 1.49071 1.17805 0
M  V30 78 H 6.1324 1.32128 3.65341 0
M  V30 79 H 7.8044 3.74697 2.69072 0
M  V30 80 H 6.0474 3.56363 2.47362 0
M  V30 81 H 6.7184 3.69353 4.10222 0
M  V30 82 H 9.1944 1.79872 3.75213 0
M  V30 83 H 8.0704 1.96453 5.1254 0
M  V30 84 H 8.3314 0.384237 4.40427 0
M  V30 85 N 7.3905 -1.2043 1.01659 0
M  V30 86 C 8.3225 -2.22626 0.544988 0
M  V30 87 C 9.3355 -1.58479 -0.372609 0
M  V30 88 O 10.5245 -1.77679 -0.170958 0
M  V30 89 C 7.6245 -3.38141 -0.22663 0
M  V30 90 C 6.7975 -4.31877 0.692876 0
M  V30 91 C 5.8565 -5.26191 -0.0311616 0
M  V30 92 O 4.8825 -5.6612 0.591343 0
M  V30 93 N 6.0845 -5.65618 -1.30601 0
M  V30 94 H 8.8495 -2.63716 1.42388 0
M  V30 95 H 6.4105 -1.34971 0.894116 0
M  V30 96 H 8.4025 -3.98239 -0.72024 0
M  V30 97 H 6.9725 -2.95943 -1.00681 0
M  V30 98 H 6.1925 -3.69746 1.36679 0
M  V30 99 H 7.4805 -4.91426 1.31824 0
M  V30 100 H 6.8785 -5.3519 -1.83269 0
M  V30 101 H 5.4355 -6.28025 -1.74435 0
M  V30 102 N 8.8686 -0.792821 -1.36206 0
M  V30 103 C 10.0936 -0.377701 -2.03932 0
M  V30 104 C 10.5186 0.998947 -1.59382 0
M  V30 105 O 9.8766 1.64421 -0.763903 0
M  V30 106 C 9.9246 -0.453635 -3.57735 0
M  V30 107 O 9.0286 0.538151 -4.08874 0
M  V30 108 H 8.3696 -0.159855 -0.644471 0
M  V30 109 H 10.8996 -1.07488 -1.7409 0
M  V30 110 H 10.9096 -0.318464 -4.06755 0
M  V30 111 H 9.5846 -1.45784 -3.89512 0
M  V30 112 H 8.1616 0.364359 -3.71116 0
M  V30 113 N 10.3467 1.47872 -0.545128 0
M  V30 114 C 11.5947 2.02093 -0.016553 0
M  V30 115 C 11.9157 1.42305 1.3332 0
M  V30 116 O 11.1857 0.593853 1.86682 0
M  V30 117 H 9.7657 0.746993 -0.00313038 0
M  V30 118 H 12.4277 1.81414 -0.712397 0
M  V30 119 H 11.5237 3.11996 0.0805422 0
M  V30 120 N 11.8248 0.280983 1.55075 0
M  V30 121 C 13.0728 -0.333455 1.9933 0
M  V30 122 C 13.3938 -1.55937 1.17085 0
M  V30 123 O 12.6638 -1.94143 0.261805 0
M  V30 124 H 11.2438 -0.126197 0.736263 0
M  V30 125 H 13.9058 0.387678 1.91005 0
M  V30 126 H 13.0018 -0.619292 3.05894 0
M  V30 127 N 13.3029 -1.57598 0.00835791 0
M  V30 128 C 14.5509 -1.90551 -0.6734 0
M  V30 129 C 14.8719 -0.883301 -1.73847 0
M  V30 130 O 14.1419 0.0781442 -1.95744 0
M  V30 131 H 12.7219 -0.703312 -0.251717 0
M  V30 132 H 15.3839 -1.94833 0.0512592 0
M  V30 133 H 14.4799 -2.9056 -1.13935 0
M  V30 134 N 14.781 0.264519 -1.55364 0
M  V30 135 C 16.027 0.99646 -1.76631 0
M  V30 136 C 16.36 1.85632 -0.570478 0
M  V30 137 O 15.635 1.89647 0.43175 0
M  V30 138 C 15.918 1.87187 -3.07625 0
M  V30 139 C 15.771 1.04138 -4.37579 0
M  V30 140 C 17.09 2.85749 -3.34717 0
M  V30 141 H 14.209 0.360841 -0.642622 0
M  V30 142 H 16.851 0.268218 -1.88097 0
M  V30 143 H 15.001 2.49279 -2.9798 0
M  V30 144 H 16.673 0.440517 -4.59192 0
M  V30 145 H 14.916 0.345115 -4.32425 0
M  V30 146 H 15.587 1.68729 -5.2558 0
M  V30 147 H 18.063 2.33793 -3.4421 0
M  V30 148 H 16.939 3.44136 -4.27623 0
M  V30 149 H 17.2 3.61311 -2.54768 0
M  V30 150 N 16.2591 1.48442 0.529413 0
M  V30 151 C 17.1691 1.6569 1.66084 0
M  V30 152 C 18.1851 0.539432 1.65427 0
M  V30 153 O 19.3611 0.810572 1.84368 0
M  V30 154 C 16.4261 1.69315 3.02545 0
M  V30 155 C 15.4871 2.92694 3.14052 0
M  V30 156 C 14.7201 2.96137 4.44003 0
M  V30 157 O 14.9431 2.07973 5.31134 0
M  V30 158 O 13.8771 3.88312 4.59888 0
M  V30 159 H 17.7031 2.61483 1.54469 0
M  V30 160 H 15.2881 1.3185 0.702567 0
M  V30 161 H 17.1701 1.74217 3.83701 0
M  V30 162 H 15.8451 0.766966 3.14483 0
M  V30 163 H 14.7521 2.93324 2.32189 0
M  V30 164 H 16.0851 3.84699 3.0703 0
M  V30 165 N 17.7372 -0.778329 1.37039 0
M  V30 166 C 19.1532 -1.07796 1.17695 0
M  V30 167 C 19.3532 -2.01498 0.00860115 0
M  V30 168 O 18.4092 -2.43901 -0.653352 0
M  V30 169 C 19.7222 -1.68178 2.49272 0
M  V30 170 C 21.2702 -1.80467 2.55735 0
M  V30 171 C 21.7452 -2.44263 3.87427 0
M  V30 172 N 23.2362 -2.51721 3.88833 0
M  V30 173 C 23.9712 -3.01919 4.87476 0
M  V30 174 N 23.4672 -3.5234 5.96513 0
M  V30 175 N 25.2602 -3.00733 4.74885 0
M  V30 176 H 17.4112 -0.156032 2.11826 0
M  V30 177 H 19.6742 -0.131844 0.938787 0
M  V30 178 H 19.3802 -1.06796 3.35093 0
M  V30 179 H 19.2542 -2.67554 2.65885 0
M  V30 180 H 21.6412 -2.40984 1.70325 0
M  V30 181 H 21.7222 -0.798656 2.43013 0
M  V30 182 H 21.3662 -1.84388 4.73248 0
M  V30 183 H 21.2962 -3.45458 3.9745 0
M  V30 184 H 23.7872 -2.1603 3.10063 0
M  V30 185 H 24.1002 -3.89027 6.67741 0
M  V30 186 H 22.4452 -3.50462 6.00168 0
M  V30 187 H 25.6362 -2.60638 3.88826 0
M  V30 188 H 25.8092 -3.39545 5.51918 0
M  V30 189 N 19.2153 -1.21501 -1.00376 0
M  V30 190 C 20.6263 -1.03146 -1.55621 0
M  V30 191 C 20.9773 0.408375 -1.91903 0
M  V30 192 O 20.1023 1.29177 -1.73616 0
M  V30 193 C 20.6973 -1.86612 -2.82775 0
M  V30 194 C 19.2563 -1.72586 -3.34501 0
M  V30 195 C 18.4033 -1.83747 -2.07683 0
M  V30 196 H 21.3543 -1.35505 -0.826081 0
M  V30 197 H 21.3753 -1.3771 -3.54706 0
M  V30 198 H 20.8873 -2.91399 -2.56336 0
M  V30 199 H 18.9883 -0.704877 -3.65872 0
M  V30 200 H 19.1013 -2.54623 -4.05837 0
M  V30 201 H 17.4653 -1.27069 -2.20739 0
M  V30 202 H 18.2483 -2.90044 -1.83655 0
M  V30 203 N 20.6934 1.19889 -1.02296 0
M  V30 204 C 21.9414 1.89046 -0.714558 0
M  V30 205 C 22.2624 1.79636 0.758681 0
M  V30 206 O 21.5324 1.20292 1.54618 0
M  V30 207 H 20.1124 0.699802 -0.261317 0
M  V30 208 H 22.7744 1.45574 -1.29592 0
M  V30 209 H 21.8704 2.95524 -1.0036 0
M  V30 210 N 22.1715 0.800033 1.35784 0
M  V30 211 C 23.4195 0.376597 1.9856 0
M  V30 212 C 23.7405 -1.05812 1.63795 0
M  V30 213 O 23.0105 -1.73103 0.917171 0
M  V30 214 H 21.5905 0.136261 0.734467 0
M  V30 215 H 24.2525 1.02442 1.65806 0
M  V30 216 H 23.3485 0.477002 3.08433 0
M  V30 217 N 23.6496 -1.47581 0.552962 0
M  V30 218 C 24.8746 -2.07378 0.0300593 0
M  V30 219 C 25.2996 -1.40355 -1.25229 0
M  V30 220 O 24.6576 -0.477099 -1.7491 0
M  V30 221 C 24.7056 -3.60274 -0.153231 0
M  V30 222 O 23.8096 -3.94041 -1.21678 0
M  V30 223 H 23.1506 -0.662158 0.0494182 0
M  V30 224 H 25.6806 -1.89662 0.767434 0
M  V30 225 H 25.6906 -4.0633 -0.368761 0
M  V30 226 H 24.3656 -4.08455 0.783397 0
M  V30 227 H 22.9426 -3.59735 -0.982079 0
M  V30 228 N 25.1277 -0.289203 -1.54924 0
M  V30 229 C 26.0577 0.58549 -2.2604 0
M  V30 230 C 27.0387 1.14753 -1.25562 0
M  V30 231 O 28.2237 1.17906 -1.54311 0
M  V30 232 C 25.3537 1.76305 -2.99222 0
M  V30 233 C 24.3077 1.33191 -4.06748 0
M  V30 234 C 23.6337 2.5937 -4.6758 0
M  V30 235 C 24.9337 0.471775 -5.20165 0
M  V30 236 H 26.6277 -0.00763532 -2.99399 0
M  V30 237 H 24.1737 -0.00511229 -1.43999 0
M  V30 238 H 26.1267 2.38097 -3.47689 0
M  V30 239 H 24.8507 2.38223 -2.23422 0
M  V30 240 H 23.5097 0.737121 -3.59113 0
M  V30 241 H 23.1577 3.19576 -3.88433 0
M  V30 242 H 22.8577 2.31228 -5.40192 0
M  V30 243 H 24.3817 3.21985 -5.18804 0
M  V30 244 H 25.7957 0.995056 -5.64599 0
M  V30 245 H 24.1927 0.284639 -5.99425 0
M  V30 246 H 25.2627 -0.506041 -4.82252 0
M  V30 247 N 26.6058 1.57591 -0.0167156 0
M  V30 248 C 28.0218 1.55946 0.339557 0
M  V30 249 C 28.2218 1.02109 1.73713 0
M  V30 250 O 27.2778 0.662303 2.43659 0
M  V30 251 C 28.5908 3.00037 0.199499 0
M  V30 252 C 30.1388 3.11805 0.273193 0
M  V30 253 C 30.6138 4.57713 0.162068 0
M  V30 254 N 32.1048 4.6268 0.219444 0
M  V30 255 C 32.8398 5.73185 0.157054 0
M  V30 256 N 32.3358 6.92786 0.0442936 0
M  V30 257 N 34.1288 5.61707 0.21014 0
M  V30 258 H 26.2798 1.90921 -0.930758 0
M  V30 259 H 28.5428 0.877674 -0.358319 0
M  V30 260 H 28.2488 3.4333 -0.76273 0
M  V30 261 H 28.1228 3.64387 0.974786 0
M  V30 262 H 30.5098 2.68433 1.22587 0
M  V30 263 H 30.5908 2.50201 -0.532256 0
M  V30 264 H 30.2348 5.01763 -0.78714 0
M  V30 265 H 30.1648 5.17283 0.986222 0
M  V30 266 H 32.6558 3.76649 0.307246 0
M  V30 267 H 32.9688 7.728 0.00304069 0
M  V30 268 H 31.3138 6.94999 0.00968457 0
M  V30 269 H 34.5048 4.6716 0.296546 0
M  V30 270 H 34.6778 6.47807 0.158054 0
M  V30 271 N 28.0839 -0.256276 1.55502 0
M  V30 272 C 29.0139 -1.32102 1.92539 0
M  V30 273 C 29.9949 -1.50684 0.789194 0
M  V30 274 O 31.1799 -1.63449 1.04872 0
M  V30 275 C 28.3099 -2.67752 2.21192 0
M  V30 276 C 27.2639 -2.63878 3.36975 0
M  V30 277 C 26.5899 -4.03236 3.51147 0
M  V30 278 C 27.8899 -2.21682 4.72921 0
M  V30 279 H 29.5839 -1.01351 2.81724 0
M  V30 280 H 27.1299 -0.486105 1.35547 0
M  V30 281 H 29.0829 -3.42365 2.45691 0
M  V30 282 H 27.8069 -3.0012 1.28824 0
M  V30 283 H 26.4659 -1.91722 3.12471 0
M  V30 284 H 26.1139 -4.32854 2.56216 0
M  V30 285 H 25.8139 -4.01535 4.29003 0
M  V30 286 H 27.3379 -4.79563 3.77957 0
M  V30 287 H 28.7519 -2.86023 4.96854 0
M  V30 288 H 27.1489 -2.3111 5.53812 0
M  V30 289 H 28.2189 -1.16833 4.70615 0
M  V30 290 N 29.562 -1.4872 -0.521534 0
M  V30 291 C 30.787 -1.61101 -1.30618 0
M  V30 292 C 31.212 -0.274611 -1.86085 0
M  V30 293 O 30.57 0.754937 -1.64834 0
M  V30 294 C 30.618 -2.66709 -2.4269 0
M  V30 295 O 29.722 -2.24456 -3.45967 0
M  V30 296 H 29.063 -0.539921 -0.386499 0
M  V30 297 H 31.593 -1.94767 -0.626645 0
M  V30 298 H 31.603 -2.88245 -2.88754 0
M  V30 299 H 30.278 -3.63727 -2.01682 0
M  V30 300 H 28.855 -2.13168 -3.05964 0
M  V30 301 N 31.0401 0.771051 -1.3745 0
M  V30 302 C 32.2801 1.54264 -1.34096 0
M  V30 303 C 32.6441 1.91858 0.0737639 0
M  V30 304 O 33.8451 2.67797 0.23203 0
M  V30 305 C 32.1161 2.77326 -2.25445 0
M  V30 306 S 33.6751 3.67383 -2.39948 0
M  V30 307 H 30.4931 0.528122 -0.476034 0
M  V30 308 H 33.0951 0.906633 -1.73206 0
M  V30 309 H 31.7991 2.47788 -3.27153 0
M  V30 310 H 31.3301 3.45886 -1.87421 0
M  V30 311 H 33.3451 4.69334 -1.61059 0
M  V30 312 N 32.5182 1.22032 0.997298 0
M  V30 313 C 33.4812 0.987909 2.06816 0
M  V30 314 C 34.4812 -0.0440084 1.6074 0
M  V30 315 O 35.6712 0.194053 1.73116 0
M  V30 316 C 32.8032 0.49132 3.37341 0
M  V30 317 H 33.9962 1.93803 2.28868 0
M  V30 318 H 31.5492 1.03838 1.16822 0
M  V30 319 H 32.2842 -0.463364 3.20973 0
M  V30 320 H 32.0692 1.23575 3.72118 0
M  V30 321 H 33.5592 0.348824 4.16141 0
M  V30 322 N 33.9963 -1.19345 1.0293 0
M  V30 323 C 34.9593 -2.20793 0.615069 0
M  V30 324 C 35.9593 -1.57553 -0.321533 0
M  V30 325 O 37.1493 -1.73862 -0.108483 0
M  V30 326 C 34.2813 -3.40754 -0.0999222 0
M  V30 327 H 35.4743 -2.58955 1.51269 0
M  V30 328 H 33.0273 -1.3303 0.820534 0
M  V30 329 H 33.7623 -3.0811 -1.01187 0
M  V30 330 H 33.5473 -3.87889 0.57309 0
M  V30 331 H 35.0373 -4.15898 -0.376645 0
M  V30 332 N 35.4744 -0.807222 -1.35358 0
M  V30 333 C 36.6994 -0.399309 -2.0352 0
M  V30 334 C 37.1244 0.981986 -1.60433 0
M  V30 335 O 36.4824 1.63601 -0.781299 0
M  V30 336 C 36.5304 -0.491552 -3.57234 0
M  V30 337 O 35.6344 0.494754 -4.09421 0
M  V30 338 H 34.9754 -0.166682 -0.642739 0
M  V30 339 H 37.5054 -1.09328 -1.72941 0
M  V30 340 H 37.5154 -0.361588 -4.06395 0
M  V30 341 H 36.1904 -1.49907 -3.87944 0
M  V30 342 H 34.7674 0.324977 -3.71481 0
M  V30 343 N 36.9525 1.47285 -0.560781 0
M  V30 344 C 38.2005 2.02064 -0.0379868 0
M  V30 345 C 38.5215 1.43711 1.31803 0
M  V30 346 O 37.7915 0.61362 1.86042 0
M  V30 347 H 36.3715 0.746918 -0.0110531 0
M  V30 348 H 39.0335 1.80648 -0.731598 0
M  V30 349 H 38.1295 3.12064 0.0474463 0
M  V30 350 N 38.4306 0.297415 1.54768 0
M  V30 351 C 39.6776 -0.312913 2.00068 0
M  V30 352 C 40.0056 -1.54171 1.18582 0
M  V30 353 O 39.2606 -1.94108 0.249133 0
M  V30 354 C 39.5596 -0.717561 3.50123 0
M  V30 355 C 39.2256 0.409095 4.4904 0
M  V30 356 C 37.8876 0.718399 4.75807 0
M  V30 357 C 40.2396 1.16717 5.07963 0
M  V30 358 C 37.5676 1.78896 5.5876 0
M  V30 359 C 39.9196 2.22762 5.92081 0
M  V30 360 C 38.5836 2.54303 6.1716 0
M  V30 361 H 37.8536 -0.114503 0.7321 0
M  V30 362 H 40.5006 0.415767 1.86932 0
M  V30 363 H 38.8056 -1.52627 3.60849 0
M  V30 364 H 40.5026 -1.20091 3.82595 0
M  V30 365 H 37.0926 0.157918 4.28309 0
M  V30 366 H 41.2766 0.941466 4.87289 0
M  V30 367 H 36.5326 2.0381 5.7643 0
M  V30 368 H 40.7066 2.81962 6.36765 0
M  V30 369 H 38.3336 3.3739 6.81229 0
M  V30 370 N 39.9087 -1.5758 0.0250728 0
M  V30 371 C 41.1367 -1.9593 -0.664747 0
M  V30 372 C 41.5517 -0.901352 -1.65895 0
M  V30 373 O 40.9087 0.117255 -1.82123 0
M  V30 374 C 40.9597 -3.34342 -1.37468 0
M  V30 375 O 40.6807 -4.36079 -0.420324 0
M  V30 376 C 42.1817 -3.873 -2.1567 0
M  V30 377 H 39.4017 -0.645405 -0.183557 0
M  V30 378 H 41.9457 -2.04329 0.0836372 0
M  V30 379 H 40.1007 -3.27175 -2.0745 0
M  V30 380 H 40.5147 -5.16297 -0.923991 0
M  V30 381 H 41.9887 -4.86504 -2.60803 0
M  V30 382 H 42.4657 -3.21331 -2.99405 0
M  V30 383 H 43.0717 -3.97723 -1.50654 0
M  V30 384 N 41.3868 0.248026 -1.55636 0
M  V30 385 C 42.6338 0.976224 -1.77415 0
M  V30 386 C 42.9618 1.85361 -0.589193 0
M  V30 387 O 42.2168 1.90973 0.427529 0
M  V30 388 C 42.5158 1.86819 -3.04686 0
M  V30 389 C 42.1818 1.14625 -4.36087 0
M  V30 390 C 40.8438 0.946723 -4.71795 0
M  V30 391 C 43.1958 0.634463 -5.17324 0
M  V30 392 C 40.5238 0.223091 -5.86276 0
M  V30 393 C 42.8758 -0.0756959 -6.32555 0
M  V30 394 C 41.5398 -0.286711 -6.66884 0
M  V30 395 H 40.8098 0.357226 -0.649208 0
M  V30 396 H 43.4568 0.246415 -1.89908 0
M  V30 397 H 41.7618 2.66502 -2.872 0
M  V30 398 H 43.4588 2.43329 -3.18735 0
M  V30 399 H 40.0488 1.3117 -4.08035 0
M  V30 400 H 44.2328 0.77616 -4.90193 0
M  V30 401 H 39.4888 0.0491185 -6.1138 0
M  V30 402 H 43.6628 -0.479899 -6.94745 0
M  V30 403 H 41.2898 -0.849389 -7.5544 0
M  V30 404 N 42.8649 1.48995 0.513639 0
M  V30 405 C 44.1419 1.48338 1.27495 0
M  V30 406 C 44.5219 0.204065 2.10111 0
M  V30 407 O 43.8699 -0.813881 2.13514 0
M  V30 408 C 44.0799 2.75498 2.14247 0
M  V30 409 C 45.4279 3.24484 2.73852 0
M  V30 410 O 46.4519 2.76528 2.24523 0
M  V30 411 O 45.3109 4.07974 3.6362 0
M  V30 412 H 42.4049 0.593149 0.576284 0
M  V30 413 H 44.9509 1.61246 0.528948 0
M  V30 414 H 43.7229 3.60109 1.53092 0
M  V30 415 H 43.3459 2.6539 2.96064 0
M  V30 416 N 44.343 -0.763751 1.37857 0
M  V30 417 C 45.62 -1.51244 1.24035 0
M  V30 418 C 46 -2.10472 -0.162649 0
M  V30 419 O 45.348 -1.96206 -1.17112 0
M  V30 420 C 45.558 -2.58694 2.34261 0
M  V30 421 C 46.906 -3.25878 2.72193 0
M  V30 422 O 47.93 -2.68993 2.33497 0
M  V30 423 O 46.789 -4.2874 3.38887 0
M  V30 424 H 43.883 -0.670243 0.484462 0
M  V30 425 H 46.429 -0.800031 1.49658 0
M  V30 426 H 45.201 -2.13105 3.2818 0
M  V30 427 H 44.824 -3.37527 2.10146 0
M  V30 428 N 45.8211 -1.22559 -0.990812 0
M  V30 429 C 47.0511 -1.07623 -1.76355 0
M  V30 430 C 47.4591 0.37601 -1.85426 0
M  V30 431 O 46.8021 1.27228 -1.32509 0
M  V30 432 C 46.8641 -1.61507 -3.21179 0
M  V30 433 C 46.5281 -3.10146 -3.35646 0
M  V30 434 C 47.5251 -4.07553 -3.22796 0
M  V30 435 C 45.2101 -3.49644 -3.60631 0
M  V30 436 C 47.2041 -5.42442 -3.34716 0
M  V30 437 C 44.8911 -4.84682 -3.72192 0
M  V30 438 C 45.8891 -5.8089 -3.59243 0
M  V30 439 O 45.5771 -7.13476 -3.70415 0
M  V30 440 H 45.3091 -0.377745 -0.560611 0
M  V30 441 H 47.8631 -1.62658 -1.25425 0
M  V30 442 H 46.0931 -1.00881 -3.73309 0
M  V30 443 H 47.7821 -1.42202 -3.80175 0
M  V30 444 H 48.5481 -3.78381 -3.03403 0
M  V30 445 H 44.4271 -2.75282 -3.69785 0
M  V30 446 H 47.9711 -6.17518 -3.24526 0
M  V30 447 H 43.8681 -5.13534 -3.91092 0
M  V30 448 H 44.6361 -7.21083 -3.87275 0
M  V30 449 N 47.2992 1.18797 -1.03562 0
M  V30 450 C 48.5472 1.88278 -0.734569 0
M  V30 451 C 48.8682 1.8043 0.739586 0
M  V30 452 O 48.1382 1.21925 1.53333 0
M  V30 453 H 46.7182 0.696991 -0.268725 0
M  V30 454 H 49.3802 1.44192 -1.31129 0
M  V30 455 H 48.4762 2.94443 -1.03489 0
M  V30 456 N 48.7773 0.814389 1.34928 0
M  V30 457 C 49.7103 0.175641 2.27523 0
M  V30 458 C 50.6883 -0.662953 1.48471 0
M  V30 459 O 51.8723 -0.628545 1.77712 0
M  V30 460 C 48.9993 -0.755516 3.30166 0
M  V30 461 C 48.0453 0.00445305 4.265 0
M  V30 462 S 48.8783 1.34582 5.18313 0
M  V30 463 C 50.0343 0.419315 6.24494 0
M  V30 464 H 50.2673 0.960691 2.8135 0
M  V30 465 H 47.8003 0.609846 1.41846 0
M  V30 466 H 49.7583 -1.28723 3.89796 0
M  V30 467 H 48.4193 -1.51402 2.75202 0
M  V30 468 H 47.6123 -0.703077 4.99072 0
M  V30 469 H 47.2143 0.466447 3.7108 0
M  V30 470 H 49.5063 -0.392432 6.76362 0
M  V30 471 H 50.4493 1.11446 6.99275 0
M  V30 472 H 50.8573 0.0115389 5.64499 0
M  V30 473 N 50.2554 -1.46986 0.568584 0
M  V30 474 C 51.4804 -2.07335 0.0520528 0
M  V30 475 C 51.9054 -1.41675 -1.23733 0
M  V30 476 O 51.2634 -0.495623 -1.74394 0
M  V30 477 C 51.3114 -3.60417 -0.11501 0
M  V30 478 O 50.4154 -3.95309 -1.17492 0
M  V30 479 H 49.7564 -0.661597 0.0564385 0
M  V30 480 H 52.2864 -1.88837 0.787507 0
M  V30 481 H 52.2964 -4.06698 -0.325644 0
M  V30 482 H 50.9714 -4.07601 0.826675 0
M  V30 483 H 49.5484 -3.60757 -0.943869 0
M  V30 484 N 51.7335 -0.305618 -1.54608 0
M  V30 485 C 52.9795 0.295595 -2.01241 0
M  V30 486 C 53.3345 1.51171 -1.19018 0
M  V30 487 O 52.6275 1.89832 -0.259684 0
M  V30 488 C 52.8215 0.698983 -3.50498 0
M  V30 489 C 52.6505 -0.476491 -4.47168 0
M  V30 490 C 51.4205 -0.969963 -4.95903 0
M  V30 491 C 53.6185 -1.32294 -4.96994 0
M  V30 492 N 51.6005 -2.11172 -5.76437 0
M  V30 493 C 52.9715 -2.31212 -5.75275 0
M  V30 494 C 55.0265 -1.35278 -4.7917 0
M  V30 495 C 53.7295 -3.32896 -6.37631 0
M  V30 496 C 55.7555 -2.35823 -5.42348 0
M  V30 497 C 55.1175 -3.33469 -6.20466 0
M  V30 498 H 51.2165 0.0724992 -0.778632 0
M  V30 499 H 53.8005 -0.436583 -1.89742 0
M  V30 500 H 51.9715 1.40032 -3.62278 0
M  V30 501 H 53.7035 1.28013 -3.8392 0
M  V30 502 H 50.4585 -0.544178 -4.70463 0
M  V30 503 H 50.8825 -2.68714 -6.21387 0
M  V30 504 H 55.5245 -0.61157 -4.18354 0
M  V30 505 H 53.2425 -4.07933 -6.97579 0
M  V30 506 H 56.8285 -2.38911 -5.30484 0
M  V30 507 H 55.7085 -4.09996 -6.68485 0
M  V30 508 N 53.2116 1.57565 -0.0334293 0
M  V30 509 C 54.4576 1.92262 0.645226 0
M  V30 510 C 54.7906 0.910543 1.71531 0
M  V30 511 O 54.0656 -0.066099 1.94388 0
M  V30 512 C 54.3486 3.37422 1.2577 0
M  V30 513 C 54.2016 4.49369 0.196891 0
M  V30 514 C 55.5206 3.82628 2.17449 0
M  V30 515 H 52.6396 0.699171 0.233085 0
M  V30 516 H 55.2816 1.89779 -0.0915694 0
M  V30 517 H 53.4316 3.39669 1.88566 0
M  V30 518 H 55.1036 4.59254 -0.433962 0
M  V30 519 H 53.3466 4.31168 -0.477137 0
M  V30 520 H 54.0176 5.47978 0.665124 0
M  V30 521 H 56.4936 3.82145 1.64634 0
M  V30 522 H 55.3696 4.84883 2.57254 0
M  V30 523 H 55.6306 3.18376 3.0674 0
M  V30 524 N 54.6897 -0.239769 1.55765 0
M  V30 525 C 56.1057 -0.588624 1.48349 0
M  V30 526 C 56.3057 -1.88005 0.72502 0
M  V30 527 O 55.3617 -2.51186 0.257269 0
M  V30 528 C 56.6747 -0.68474 2.928 0
M  V30 529 C 58.2227 -0.77659 3.03213 0
M  V30 530 C 58.6977 -0.904207 4.48986 0
M  V30 531 N 60.1887 -0.968896 4.52953 0
M  V30 532 C 60.9237 -1.08703 5.63002 0
M  V30 533 N 60.4197 -1.17026 6.82845 0
M  V30 534 N 62.2127 -1.12074 5.50814 0
M  V30 535 H 54.3637 0.607911 2.03515 0
M  V30 536 H 56.6267 0.21083 0.924259 0
M  V30 537 H 56.3327 0.194284 3.51163 0
M  V30 538 H 56.2067 -1.55435 3.43686 0
M  V30 539 H 58.5937 -1.64606 2.44926 0
M  V30 540 H 58.6747 0.118315 2.55526 0
M  V30 541 H 58.3187 -0.0392633 5.07885 0
M  V30 542 H 58.2487 -1.81426 4.9436 0
M  V30 543 H 60.7397 -0.915633 3.6664 0
M  V30 544 H 61.0527 -1.25966 7.62465 0
M  V30 545 H 59.3977 -1.13971 6.85591 0
M  V30 546 H 62.5887 -1.05226 4.5612 0
M  V30 547 H 62.7617 -1.20936 6.36615 0
M  V30 548 N 56.1678 -1.49265 -0.50573 0
M  V30 549 C 57.0998 -1.617 -1.62437 0
M  V30 550 C 58.1128 -0.499924 -1.54934 0
M  V30 551 O 59.3018 -0.771785 -1.60953 0
M  V30 552 C 56.4018 -1.5533 -3.01207 0
M  V30 553 C 55.5748 -2.8249 -3.33943 0
M  V30 554 C 54.6338 -2.69238 -4.52103 0
M  V30 555 O 53.6598 -3.43167 -4.5412 0
M  V30 556 N 54.8618 -1.80468 -5.51735 0
M  V30 557 H 57.6268 -2.58177 -1.52199 0
M  V30 558 H 55.1878 -1.46294 -0.693511 0
M  V30 559 H 57.1798 -1.44125 -3.78167 0
M  V30 560 H 55.7498 -0.667297 -3.05395 0
M  V30 561 H 54.9698 -3.08081 -2.45926 0
M  V30 562 H 56.2578 -3.66802 -3.5261 0
M  V30 563 H 55.6558 -1.19653 -5.52901 0
M  V30 564 H 54.2128 -1.75188 -6.27816 0
M  V30 565 N 57.6459 0.756429 -1.3826 0
M  V30 566 C 58.6089 1.85176 -1.35065 0
M  V30 567 C 59.6089 1.58818 -0.251703 0
M  V30 568 O 60.7989 1.66615 -0.508433 0
M  V30 569 C 57.9309 3.22596 -1.10201 0
M  V30 570 H 59.1239 1.89417 -2.3251 0
M  V30 571 H 56.6769 0.95783 -1.23512 0
M  V30 572 H 57.4119 3.24025 -0.133504 0
M  V30 573 H 57.1969 3.43122 -1.89762 0
M  V30 574 H 58.6869 4.02673 -1.10654 0
M  V30 575 N 59.124 1.23083 0.984299 0
M  V30 576 C 60.535 1.05609 1.5396 0
M  V30 577 C 60.886 -0.377793 1.92528 0
M  V30 578 O 60.011 -1.26398 1.75649 0
M  V30 579 C 60.606 1.91087 2.7977 0
M  V30 580 C 59.165 1.77885 3.31713 0
M  V30 581 C 58.312 1.87028 2.04733 0
M  V30 582 H 61.263 1.36802 0.804419 0
M  V30 583 H 61.284 1.43336 3.5247 0
M  V30 584 H 60.796 2.9544 2.51668 0
M  V30 585 H 58.897 0.762995 3.64704 0
M  V30 586 H 59.01 2.61047 4.01735 0
M  V30 587 H 57.374 1.30565 2.18689 0
M  V30 588 H 58.157 2.92929 1.79017 0
M  V30 589 N 60.6021 -1.18246 1.0419 0
M  V30 590 C 61.8501 -1.87886 0.744543 0
M  V30 591 C 62.1711 -1.8082 -0.730006 0
M  V30 592 O 61.4411 -1.22736 -1.52685 0
M  V30 593 H 60.0211 -0.695556 0.272417 0
M  V30 594 H 62.6831 -1.43494 1.31892 0
M  V30 595 H 61.7791 -2.9389 1.05049 0
M  V30 596 N 62.0802 -0.821533 -1.34494 0
M  V30 597 C 63.0272 -0.240397 -2.29545 0
M  V30 598 C 63.9972 0.634031 -1.53523 0
M  V30 599 O 65.1822 0.575966 -1.81899 0
M  V30 600 C 62.3222 0.592869 -3.39969 0
M  V30 601 C 61.4352 -0.30365 -4.30932 0
M  V30 602 C 60.5702 0.539049 -5.28458 0
M  V30 603 C 59.6092 -0.356942 -6.11058 0
M  V30 604 N 58.7462 0.446603 -7.00678 0
M  V30 605 H 63.5862 -1.05632 -2.7865 0
M  V30 606 H 61.1232 -0.532413 -1.37127 0
M  V30 607 H 63.0812 1.09129 -4.02675 0
M  V30 608 H 61.7112 1.37392 -2.92102 0
M  V30 609 H 60.7632 -0.920276 -3.691 0
M  V30 610 H 62.0752 -0.992661 -4.88823 0
M  V30 611 H 61.2292 1.102 -5.96608 0
M  V30 612 H 59.9682 1.26157 -4.71101 0
M  V30 613 H 58.9732 -0.932047 -5.41842 0
M  V30 614 H 60.1982 -1.07755 -6.70497 0
M  V30 615 H 58.1442 1.15282 -6.45791 0
M  V30 616 H 58.0612 -0.184048 -7.55776 0
M  V30 617 H 59.3292 0.992352 -7.73158 0
M  V30 618 N 63.5583 1.46682 -0.576371 0
M  V30 619 C 64.8063 2.02013 -0.0594163 0
M  V30 620 C 65.1273 1.45101 1.30271 0
M  V30 621 O 64.3973 0.633317 1.8538 0
M  V30 622 H 62.9773 0.746759 -0.0189745 0
M  V30 623 H 65.6393 1.79862 -0.750717 0
M  V30 624 H 64.7353 3.12097 0.014345 0
M  V30 625 N 65.0364 0.313813 1.54444 0
M  V30 626 C 65.9664 -0.549454 2.26943 0
M  V30 627 C 66.9474 -1.12741 1.27372 0
M  V30 628 O 68.1324 -1.15436 1.56167 0
M  V30 629 C 65.2624 -1.71523 3.01989 0
M  V30 630 C 64.2164 -1.26703 4.08816 0
M  V30 631 C 63.5424 -2.51898 4.71647 0
M  V30 632 C 64.8424 -0.388962 5.2085 0
M  V30 633 H 66.5364 0.0552661 2.99349 0
M  V30 634 H 64.0824 0.0280207 1.43973 0
M  V30 635 H 66.0354 -2.32535 3.51433 0
M  V30 636 H 64.7594 -2.34639 2.27183 0
M  V30 637 H 63.4184 -0.679896 3.6024 0
M  V30 638 H 63.0664 -3.13356 3.93468 0
M  V30 639 H 62.7664 -2.22605 5.43802 0
M  V30 640 H 64.2904 -3.1369 5.23861 0
M  V30 641 H 65.7044 -0.905107 5.6611 0
M  V30 642 H 64.1014 -0.18924 5.99802 0
M  V30 643 H 65.1714 0.582699 4.81386 0
M  V30 644 N 66.5145 -1.57545 0.0417849 0
M  V30 645 C 67.4245 -2.14451 -0.951213 0
M  V30 646 C 68.4405 -1.09992 -1.34825 0
M  V30 647 O 69.6165 -1.42114 -1.42708 0
M  V30 648 C 66.6815 -2.67063 -2.21084 0
M  V30 649 C 65.7425 -3.86284 -1.87304 0
M  V30 650 C 64.9755 -4.36378 -3.07261 0
M  V30 651 O 65.1985 -3.85587 -4.20332 0
M  V30 652 O 64.1325 -5.28077 -2.88822 0
M  V30 653 H 67.9585 -2.99601 -0.497287 0
M  V30 654 H 65.5435 -1.48317 -0.179567 0
M  V30 655 H 67.4255 -3.00914 -2.95006 0
M  V30 656 H 66.1005 -1.84989 -2.65633 0
M  V30 657 H 65.0075 -3.57338 -1.10727 0
M  V30 658 H 66.3405 -4.6956 -1.47562 0
M  V30 659 N 67.9926 0.231505 -1.5589 0
M  V30 660 C 69.2386 0.954429 -1.79617 0
M  V30 661 C 69.5936 1.82367 -0.613199 0
M  V30 662 O 68.8866 1.87524 0.393094 0
M  V30 663 C 69.0806 1.83577 -3.0665 0
M  V30 664 C 68.9096 1.05334 -4.3719 0
M  V30 665 C 67.6796 0.75225 -4.99669 0
M  V30 666 C 69.8776 0.423444 -5.12554 0
M  V30 667 N 67.8596 -0.052627 -6.13877 0
M  V30 668 C 69.2306 -0.245287 -6.19515 0
M  V30 669 C 71.2856 0.335466 -4.96769 0
M  V30 670 C 69.9886 -0.993566 -7.12405 0
M  V30 671 C 72.0146 -0.399321 -5.9005 0
M  V30 672 C 71.3766 -1.05663 -6.9643 0
M  V30 673 H 67.4756 0.329846 -0.709031 0
M  V30 674 H 70.0596 0.226172 -1.93382 0
M  V30 675 H 68.2306 2.53592 -2.94186 0
M  V30 676 H 69.9626 2.49541 -3.18608 0
M  V30 677 H 66.7176 1.06783 -4.61405 0
M  V30 678 H 67.1416 -0.443609 -6.75545 0
M  V30 679 H 71.7836 0.829311 -4.14587 0
M  V30 680 H 69.5016 -1.49896 -7.94076 0
M  V30 681 H 73.0876 -0.468265 -5.79913 0
M  V30 682 H 71.9676 -1.61612 -7.67366 0
M  V30 683 N 69.4707 1.49531 0.497807 0
M  V30 684 C 70.7167 1.59415 1.25358 0
M  V30 685 C 71.0497 0.281422 1.9215 0
M  V30 686 O 70.3247 -0.715249 1.80871 0
M  V30 687 C 70.6077 2.75566 2.3181 0
M  V30 688 C 70.4607 4.16642 1.69498 0
M  V30 689 C 71.7797 2.87347 3.33346 0
M  V30 690 H 68.8987 0.580244 0.454408 0
M  V30 691 H 71.5407 1.81827 0.551262 0
M  V30 692 H 69.6907 2.56587 2.91711 0
M  V30 693 H 71.3627 4.47145 1.13399 0
M  V30 694 H 69.6057 4.22141 0.998978 0
M  V30 695 H 70.2767 4.93792 2.46725 0
M  V30 696 H 72.7527 3.04634 2.83438 0
M  V30 697 H 71.6287 3.70289 4.05188 0
M  V30 698 H 71.8897 1.96834 3.95865 0
M  V30 699 N 70.9488 -0.749086 1.3866 0
M  V30 700 C 72.1738 -1.54344 1.38538 0
M  V30 701 C 72.5988 -1.88088 -0.0216655 0
M  V30 702 O 71.9568 -1.50899 -1.00494 0
M  V30 703 C 72.0048 -2.8164 2.25192 0
M  V30 704 O 71.1088 -3.7698 1.67212 0
M  V30 705 H 70.4498 -0.466654 0.472367 0
M  V30 706 H 72.9798 -0.925355 1.82478 0
M  V30 707 H 72.9898 -3.30519 2.3921 0
M  V30 708 H 71.6648 -2.56411 3.27454 0
M  V30 709 H 70.2418 -3.35699 1.6236 0
M  V30 710 N 72.4269 -1.23603 -0.977757 0
M  V30 711 C 73.6749 -1.06759 -1.71601 0
M  V30 712 C 73.9959 0.395929 -1.90938 0
M  V30 713 O 73.2659 1.28356 -1.47992 0
M  V30 714 H 71.8459 -0.392062 -0.635843 0
M  V30 715 H 74.5079 -1.55362 -1.1768 0
M  V30 716 H 73.6039 -1.55763 -2.70452 0
M  V30 717 N 73.905 1.17692 -1.04816 0
M  V30 718 C 75.154 1.87192 -0.751132 0
M  V30 719 C 75.467 1.8169 0.724441 0
M  V30 720 O 76.673 2.46625 1.13527 0
M  V30 721 C 75.129 3.35857 -1.29338 0
M  V30 722 C 74.737 3.4987 -2.79812 0
M  V30 723 C 76.481 4.10709 -1.07322 0
M  V30 724 C 74.388 4.92536 -3.27356 0
M  V30 725 H 73.318 0.701162 -0.277288 0
M  V30 726 H 75.969 1.32932 -1.26496 0
M  V30 727 H 74.351 3.89631 -0.707376 0
M  V30 728 H 75.525 3.06332 -3.44235 0
M  V30 729 H 73.84 2.88433 -3.00325 0
M  V30 730 H 76.437 5.15952 -1.4035 0
M  V30 731 H 76.78 4.16299 -0.0108001 0
M  V30 732 H 77.313 3.6313 -1.62423 0
M  V30 733 H 74.052 4.92119 -4.33012 0
M  V30 734 H 73.572 5.3676 -2.67673 0
M  V30 735 H 75.251 5.61288 -3.21815 0
M  V30 736 N 75.3831 0.828654 1.34056 0
M  V30 737 C 76.3311 0.242973 2.31327 0
M  V30 738 C 77.3251 -0.61944 1.57668 0
M  V30 739 O 78.5311 -0.51014 1.7262 0
M  V30 740 H 74.9061 0.059834 0.749616 0
M  V30 741 H 76.8771 1.07809 2.78244 0
M  V30 742 C 75.6261 -0.575733 3.429 0
M  V30 743 H 74.9491 0.0785582 3.99723 0
M  V30 744 H 76.3891 -0.951547 4.13185 0
M  V30 745 C 74.8481 -1.75044 2.87856 0
M  V30 746 O 75.3781 -2.84882 2.83205 0
M  V30 747 N 73.5841 -1.56903 2.44602 0
M  V30 748 H 73.1311 -0.675547 2.48584 0
M  V30 749 H 73.0891 -2.35652 2.08124 0
M  V30 750 N 76.8612 -1.46375 0.584142 0
M  V30 751 C 78.1072 -2.03248 0.0787103 0
M  V30 752 C 78.4622 -1.44737 -1.26763 0
M  V30 753 O 77.7552 -0.603625 -1.81843 0
M  V30 754 C 77.9492 -3.57373 -0.0439342 0
M  V30 755 C 77.7782 -4.30831 1.28897 0
M  V30 756 C 76.5482 -4.69683 1.8635 0
M  V30 757 C 78.7462 -4.64278 2.21248 0
M  V30 758 N 76.7282 -5.27898 3.13365 0
M  V30 759 C 78.0992 -5.23078 3.32851 0
M  V30 760 C 80.1542 -4.46209 2.20911 0
M  V30 761 C 78.8572 -5.65715 4.44251 0
M  V30 762 C 80.8832 -4.89864 3.31341 0
M  V30 763 C 80.2452 -5.48736 4.41665 0
M  V30 764 H 76.3442 -0.778714 0.0716144 0
M  V30 765 H 78.9282 -1.78509 0.777355 0
M  V30 766 H 77.0992 -3.81823 -0.711749 0
M  V30 767 H 78.8312 -4.00892 -0.553881 0
M  V30 768 H 75.5862 -4.52488 1.39826 0
M  V30 769 H 76.0102 -5.61525 3.78178 0
M  V30 770 H 80.6522 -4.00027 1.36888 0
M  V30 771 H 78.3702 -6.10875 5.29015 0
M  V30 772 H 81.9562 -4.77634 3.322 0
M  V30 773 H 80.8362 -5.81898 5.25704 0
M  V30 774 N 78.3393 -0.321999 -1.54275 0
M  V30 775 C 79.2873 0.560206 -2.25753 0
M  V30 776 C 80.2813 1.11984 -1.27106 0
M  V30 777 O 81.4873 1.06806 -1.44888 0
M  V30 778 H 77.8623 0.199304 -0.725108 0
M  V30 779 H 79.8333 -0.0649365 -2.98329 0
M  V30 780 C 78.5823 1.71023 -3.02731 0
M  V30 781 H 77.9053 1.28885 -3.78456 0
M  V30 782 H 79.3453 2.30314 -3.55993 0
M  V30 783 C 77.8043 2.62692 -2.10938 0
M  V30 784 O 78.3343 3.64364 -1.6912 0
M  V30 785 N 76.5403 2.30891 -1.76459 0
M  V30 786 H 76.0873 1.48253 -2.10663 0
M  V30 787 H 76.0453 2.92487 -1.1532 0
M  V30 788 N 79.8174 1.5752 -0.0501392 0
M  V30 789 C 81.0654 1.9227 0.622642 0
M  V30 790 C 81.3864 0.929083 1.71444 0
M  V30 791 O 80.6564 -0.0262186 1.95882 0
M  V30 792 H 79.2364 0.709739 0.232981 0
M  V30 793 H 81.8984 1.94628 -0.102898 0
M  V30 794 H 80.9944 2.93479 1.06191 0
M  V30 795 N 81.2955 -0.223234 1.56011 0
M  V30 796 C 82.5435 -0.946003 1.78592 0
M  V30 797 C 82.8645 -1.84936 0.618349 0
M  V30 798 O 82.1345 -1.92473 -0.364833 0
M  V30 799 H 80.7145 -0.352298 0.658707 0
M  V30 800 H 83.3765 -0.235494 1.93472 0
M  V30 801 H 82.4725 -1.55381 2.70672 0
M  V30 802 N 82.7736 -1.49793 -0.48987 0
M  V30 803 C 83.9986 -1.63836 -1.27172 0
M  V30 804 C 84.4236 -0.31402 -1.8546 0
M  V30 805 O 83.7816 0.719803 -1.66399 0
M  V30 806 C 83.8296 -2.71797 -2.36978 0
M  V30 807 O 82.9336 -2.31744 -3.41128 0
M  V30 808 H 82.2746 -0.547997 -0.37496 0
M  V30 809 H 84.8046 -1.96053 -0.585191 0
M  V30 810 H 84.8146 -2.94305 -2.82575 0
M  V30 811 H 83.4896 -3.67923 -1.93921 0
M  V30 812 H 82.0666 -2.1961 -3.01373 0
M  V30 813 N 84.2517 0.741722 -1.39055 0
M  V30 814 C 85.4797 1.53098 -1.39171 0
M  V30 815 C 85.8947 1.88794 0.0155099 0
M  V30 816 O 85.2517 1.53626 0.985159 0
M  V30 817 C 85.3027 2.82274 -2.2584 0
M  V30 818 O 85.0237 2.48097 -3.61081 0
M  V30 819 C 86.5247 3.76343 -2.34266 0
M  V30 820 H 83.7447 0.473335 -0.4756 0
M  V30 821 H 86.2887 0.917045 -1.82785 0
M  V30 822 H 84.4437 3.40015 -1.85656 0
M  V30 823 H 84.8577 3.31029 -4.06842 0
M  V30 824 H 86.3317 4.63898 -2.9917 0
M  V30 825 H 86.8087 4.17619 -1.35982 0
M  V30 826 H 87.4147 3.24523 -2.74891 0
M  V30 827 N 85.7298 1.2412 0.971189 0
M  V30 828 C 86.9778 1.07668 1.71032 0
M  V30 829 C 87.2988 -0.385797 1.91146 0
M  V30 830 O 86.5688 -1.27569 1.4867 0
M  V30 831 H 85.1488 0.395429 0.633755 0
M  V30 832 H 87.8108 1.55984 1.16855 0
M  V30 833 H 86.9068 1.57195 2.69622 0
M  V30 834 N 87.2079 -1.17134 1.05439 0
M  V30 835 C 88.4379 -1.91094 0.785274 0
M  V30 836 C 88.8459 -1.77198 -0.663142 0
M  V30 837 O 88.1889 -1.10835 -1.46497 0
M  V30 838 C 88.2509 -3.42594 1.08949 0
M  V30 839 C 87.9149 -3.80274 2.53458 0
M  V30 840 C 88.9119 -3.82912 3.51673 0
M  V30 841 C 86.5969 -4.11162 2.88532 0
M  V30 842 C 88.5909 -4.15913 4.83006 0
M  V30 843 C 86.2779 -4.43831 4.20068 0
M  V30 844 C 87.2759 -4.46185 5.17115 0
M  V30 845 O 86.9639 -4.78083 6.46291 0
M  V30 846 H 86.6959 -0.613073 0.284811 0
M  V30 847 H 89.2499 -1.49461 1.40893 0
M  V30 848 H 87.4799 -3.84534 0.408741 0
M  V30 849 H 89.1689 -3.97817 0.805991 0
M  V30 850 H 89.9349 -3.5917 3.25917 0
M  V30 851 H 85.8139 -4.085 2.13656 0
M  V30 852 H 89.3579 -4.17665 5.5875 0
M  V30 853 H 85.2549 -4.67037 4.45586 0
M  V30 854 H 86.0229 -4.9593 6.51149 0
M  V30 855 N 88.686 -0.835752 -1.33615 0
M  V30 856 C 89.649 -0.272 -2.2758 0
M  V30 857 C 90.649 0.557487 -1.50827 0
M  V30 858 O 91.839 0.37173 -1.70188 0
M  V30 859 C 88.971 0.617173 -3.35267 0
M  V30 860 H 90.164 -1.10111 -2.78954 0
M  V30 861 H 87.717 -0.608594 -1.43965 0
M  V30 862 H 88.452 1.46884 -2.89129 0
M  V30 863 H 88.237 0.0237066 -3.92093 0
M  V30 864 H 89.727 1.005 -4.05326 0
M  V30 865 N 90.1641 1.46063 -0.591896 0
M  V30 866 C 91.4411 1.95595 -0.0137119 0
M  V30 867 C 91.8211 1.5345 1.4497 0
M  V30 868 O 91.1691 0.789543 2.14426 0
M  V30 869 C 91.3791 3.48453 -0.195373 0
M  V30 870 C 92.7271 4.24546 -0.0679765 0
M  V30 871 O 93.7511 3.55982 -0.124681 0
M  V30 872 O 92.6101 5.46467 0.0600579 0
M  V30 873 H 89.7041 0.825795 0.0446279 0
M  V30 874 H 92.2501 1.56303 -0.660859 0
M  V30 875 H 91.0221 3.72045 -1.21235 0
M  V30 876 H 90.6451 3.94597 0.487775 0
M  V30 877 N 91.6422 0.330177 1.54103 0
M  V30 878 C 92.8672 -0.274893 2.0557 0
M  V30 879 C 93.2922 -1.44487 1.20437 0
M  V30 880 O 92.6502 -1.80021 0.214991 0
M  V30 881 C 92.6982 -0.68079 3.54115 0
M  V30 882 O 91.8022 -1.7824 3.71893 0
M  V30 883 H 91.1432 -0.0483849 0.662235 0
M  V30 884 H 93.6732 0.480508 1.98878 0
M  V30 885 H 93.6832 -0.961635 3.96505 0
M  V30 886 H 92.3582 0.174903 4.15532 0
M  V30 887 H 90.9352 -1.49985 3.41407 0
M  V30 888 N 93.1203 -1.57491 0.0584922 0
M  V30 889 C 94.3663 -1.93264 -0.614558 0
M  V30 890 C 94.6993 -0.937717 -1.7006 0
M  V30 891 O 93.9743 0.0351652 -1.94468 0
M  V30 892 C 94.2573 -3.3938 -1.20386 0
M  V30 893 C 94.1103 -4.49625 -0.125375 0
M  V30 894 C 95.4293 -3.86039 -2.11334 0
M  V30 895 H 92.5483 -0.702791 -0.221933 0
M  V30 896 H 95.1903 -1.8961 0.12175 0
M  V30 897 H 93.3403 -3.42626 -1.83139 0
M  V30 898 H 95.0123 -4.58506 0.506971 0
M  V30 899 H 93.2553 -4.30354 0.545672 0
M  V30 900 H 93.9263 -5.48967 -0.577861 0
M  V30 901 H 96.4023 -3.84716 -1.58534 0
M  V30 902 H 95.2783 -4.88914 -2.49507 0
M  V30 903 H 95.5393 -3.23215 -3.01636 0
M  V30 904 N 94.5984 0.214957 -1.56127 0
M  V30 905 C 95.5454 1.26642 -1.92952 0
M  V30 906 C 96.5154 1.46244 -0.78753 0
M  V30 907 O 97.7004 1.59704 -1.04399 0
M  V30 908 C 94.8404 2.6104 -2.25726 0
M  V30 909 C 93.9534 2.49183 -3.52891 0
M  V30 910 C 93.0884 3.76149 -3.7508 0
M  V30 911 C 92.1274 3.59041 -4.95738 0
M  V30 912 N 91.2644 4.77972 -5.14283 0
M  V30 913 H 96.1044 0.945384 -2.82607 0
M  V30 914 H 93.6414 0.455489 -1.3987 0
M  V30 915 H 95.5994 3.39313 -2.42739 0
M  V30 916 H 94.2294 2.91227 -1.39236 0
M  V30 917 H 93.2814 1.6231 -3.44034 0
M  V30 918 H 94.5934 2.32466 -4.41318 0
M  V30 919 H 93.7474 4.62865 -3.92226 0
M  V30 920 H 92.4864 3.95799 -2.84947 0
M  V30 921 H 91.4914 2.7071 -4.78535 0
M  V30 922 H 92.7164 3.40856 -5.87362 0
M  V30 923 H 90.6624 4.97923 -4.27093 0
M  V30 924 H 90.5794 4.64006 -5.96853 0
M  V30 925 H 91.8474 5.66096 -5.35869 0
M  V30 926 N 96.0765 1.50051 0.48192 0
M  V30 927 C 97.3245 1.60181 1.23234 0
M  V30 928 C 97.6455 0.299176 1.92691 0
M  V30 929 O 96.9155 -0.682708 1.83619 0
M  V30 930 H 95.4955 0.590232 0.457859 0
M  V30 931 H 98.1575 1.86775 0.556881 0
M  V30 932 H 97.2535 2.40753 1.98607 0
M  V30 933 N 97.5546 -0.734337 1.39446 0
M  V30 934 C 98.9706 -1.03997 1.21065 0
M  V30 935 C 99.1706 -2.01369 0.0727019 0
M  V30 936 O 98.2266 -2.45856 -0.575426 0
M  V30 937 C 99.5396 -1.60163 2.54496 0
M  V30 938 C 101.088 -1.7224 2.61347 0
M  V30 939 C 101.563 -2.31814 3.95002 0
M  V30 940 N 103.054 -2.39223 3.96644 0
M  V30 941 C 103.789 -2.86258 4.96834 0
M  V30 942 N 103.285 -3.33184 6.07421 0
M  V30 943 N 105.078 -2.85473 4.84213 0
M  V30 944 H 97.2286 -0.0885624 2.12215 0
M  V30 945 H 99.4916 -0.10191 0.942506 0
M  V30 946 H 99.1976 -0.960811 3.38321 0
M  V30 947 H 99.0716 -2.5896 2.74262 0
M  V30 948 H 101.459 -2.35443 1.77906 0
M  V30 949 H 101.54 -0.720939 2.4543 0
M  V30 950 H 101.184 -1.69238 4.78875 0
M  V30 951 H 101.114 -3.32638 4.08239 0
M  V30 952 H 103.605 -2.06057 3.16779 0
M  V30 953 H 103.918 -3.67586 6.7978 0
M  V30 954 H 102.263 -3.31191 6.11013 0
M  V30 955 H 105.454 -2.48136 3.96921 0
M  V30 956 H 105.627 -3.21814 5.62441 0
M  V30 957 N 99.0327 -1.24633 -0.964593 0
M  V30 958 C 100.279 -1.08949 -1.71049 0
M  V30 959 C 100.612 0.370302 -1.90637 0
M  V30 960 O 99.8867 1.27349 -1.47011 0
M  V30 961 C 100.17 -1.83329 -3.0994 0
M  V30 962 C 100.023 -3.37077 -2.97824 0
M  V30 963 C 101.342 -1.60846 -4.09654 0
M  V30 964 H 98.4607 -0.397178 -0.620821 0
M  V30 965 H 101.103 -1.5334 -1.12191 0
M  V30 966 H 99.2527 -1.45597 -3.60186 0
M  V30 967 H 100.925 -3.84425 -2.5498 0
M  V30 968 H 99.1677 -3.65298 -2.33965 0
M  V30 969 H 99.8387 -3.84324 -3.96231 0
M  V30 970 H 102.315 -1.93674 -3.68279 0
M  V30 971 H 101.191 -2.1534 -5.04896 0
M  V30 972 H 101.452 -0.547434 -4.38698 0
M  V30 973 N 100.511 1.16574 -1.06058 0
M  V30 974 C 101.739 1.90952 -0.796552 0
M  V30 975 C 102.154 1.77302 0.648808 0
M  V30 976 O 101.511 1.11605 1.44397 0
M  V30 977 C 101.562 3.41736 -1.17894 0
M  V30 978 O 101.283 3.54975 -2.56758 0
M  V30 979 C 102.784 4.33169 -0.942308 0
M  V30 980 H 100.004 0.605594 -0.288959 0
M  V30 981 H 102.548 1.47777 -1.41358 0
M  V30 982 H 100.703 3.82623 -0.606491 0
M  V30 983 H 101.117 4.4846 -2.72 0
M  V30 984 H 102.591 5.37439 -1.25952 0
M  V30 985 H 103.068 4.3903 0.122078 0
M  V30 986 H 103.674 3.98007 -1.49902 0
M  V30 987 N 101.989 0.842826 1.3317 0
M  V30 988 C 103.238 0.436738 1.96915 0
M  V30 989 C 103.551 -1.01025 1.67491 0
M  V30 990 O 104.757 -1.5212 2.24881 0
M  V30 991 C 103.213 0.730021 3.52418 0
M  V30 992 C 102.821 2.19195 3.90714 0
M  V30 993 C 104.565 0.391076 4.22695 0
M  V30 994 C 102.472 2.42907 5.39212 0
M  V30 995 H 101.402 0.15958 0.736919 0
M  V30 996 H 104.053 1.03196 1.51733 0
M  V30 997 H 102.435 0.0643755 3.95948 0
M  V30 998 H 103.609 2.8984 3.58231 0
M  V30 999 H 101.924 2.49425 3.33431 0
M  V30 1000 H 104.521 0.545817 5.31907 0
M  V30 1001 H 104.864 -0.666294 4.10933 0
M  V30 1002 H 105.397 1.01212 3.84709 0
M  V30 1003 H 102.136 3.47224 5.55982 0
M  V30 1004 H 101.656 1.76827 5.73142 0
M  V30 1005 H 103.335 2.2626 6.06148 0
M  V30 1006 N 103.467 -1.45747 0.599634 0
M  V30 1007 C 104.692 -2.07178 0.0960198 0
M  V30 1008 C 105.117 -1.44268 -1.207 0
M  V30 1009 O 104.475 -0.532503 -1.73303 0
M  V30 1010 C 104.523 -3.60579 -0.0385348 0
M  V30 1011 O 103.627 -3.97713 -1.0908 0
M  V30 1012 H 102.968 -0.660251 0.0704593 0
M  V30 1013 H 105.498 -1.87124 0.827385 0
M  V30 1014 H 105.508 -4.07298 -0.239304 0
M  V30 1015 H 104.183 -4.05756 0.912947 0
M  V30 1016 H 102.76 -3.62678 -0.867135 0
M  V30 1017 N 104.945 -0.338344 -1.53925 0
M  V30 1018 C 106.361 0.0137736 -1.59594 0
M  V30 1019 C 106.561 1.49186 -1.35447 0
M  V30 1020 O 105.617 2.24987 -1.14616 0
M  V30 1021 C 106.93 -0.41773 -2.97784 0
M  V30 1022 C 108.478 -0.369633 -3.1081 0
M  V30 1023 C 108.953 -0.776524 -4.51369 0
M  V30 1024 N 110.444 -0.730506 -4.57403 0
M  V30 1025 C 111.179 -1.01736 -5.64303 0
M  V30 1026 N 110.675 -1.3721 -6.79077 0
M  V30 1027 N 112.468 -0.941942 -5.54151 0
M  V30 1028 H 104.619 -1.3012 -1.67876 0
M  V30 1029 H 106.882 -0.530082 -0.78595 0
M  V30 1030 H 106.588 -1.44811 -3.20504 0
M  V30 1031 H 106.462 0.209729 -3.76616 0
M  V30 1032 H 108.849 0.651568 -2.87817 0
M  V30 1033 H 108.93 -1.03223 -2.34049 0
M  V30 1034 H 108.574 -1.79571 -4.75096 0
M  V30 1035 H 108.504 -0.0914649 -5.26521 0
M  V30 1036 H 110.995 -0.468783 -3.74981 0
M  V30 1037 H 111.308 -1.57597 -7.5656 0
M  V30 1038 H 109.653 -1.4105 -6.80536 0
M  V30 1039 H 112.844 -0.664184 -4.63364 0
M  V30 1040 H 113.017 -1.16884 -6.37371 0
M  V30 1041 N 106.423 1.57458 -0.0668435 0
M  V30 1042 C 107.7 1.8469 0.644132 0
M  V30 1043 C 108.08 0.958343 1.88093 0
M  V30 1044 O 107.428 0.0233579 2.28488 0
M  V30 1045 C 107.638 3.34767 0.986509 0
M  V30 1046 C 108.986 4.02159 1.36212 0
M  V30 1047 O 110.01 3.39484 1.07839 0
M  V30 1048 O 108.869 5.12694 1.89227 0
M  V30 1049 H 105.963 0.762816 0.319437 0
M  V30 1050 H 108.509 1.6942 -0.0973986 0
M  V30 1051 H 107.281 3.91151 0.107883 0
M  V30 1052 H 106.904 3.55281 1.78497 0
M  V30 1053 N 107.901 -0.206675 1.56239 0
M  V30 1054 C 108.849 -1.27571 1.94495 0
M  V30 1055 C 109.843 -1.47737 0.828862 0
M  V30 1056 O 111.049 -1.48735 1.0138 0
M  V30 1057 H 107.424 -0.428029 0.6183 0
M  V30 1058 H 109.395 -0.925961 2.8367 0
M  V30 1059 C 108.144 -2.61568 2.29079 0
M  V30 1060 H 107.467 -2.46863 3.14482 0
M  V30 1061 H 108.907 -3.35144 2.5972 0
M  V30 1062 C 107.366 -3.17695 1.12123 0
M  V30 1063 O 107.896 -3.99801 0.390153 0
M  V30 1064 N 106.102 -2.76276 0.901097 0
M  V30 1065 H 105.649 -2.09613 1.49733 0
M  V30 1066 H 105.607 -3.1417 0.120319 0
M  V30 1067 N 109.379 -1.50304 -0.473955 0
M  V30 1068 C 110.342 -1.6841 -1.55469 0
M  V30 1069 C 111.342 -0.554905 -1.50922 0
M  V30 1070 O 112.532 -0.821882 -1.53593 0
M  V30 1071 C 109.664 -1.70667 -2.95102 0
M  V30 1072 H 110.857 -2.64828 -1.40733 0
M  V30 1073 H 108.41 -1.39742 -0.700132 0
M  V30 1074 H 109.145 -0.75932 -3.15285 0
M  V30 1075 H 108.93 -2.52698 -2.9981 0
M  V30 1076 H 110.42 -1.8664 -3.73571 0
M  V30 1077 N 110.857 0.726932 -1.39834 0
M  V30 1078 C 111.804 1.841 -1.39197 0
M  V30 1079 C 112.774 1.642 -0.250502 0
M  V30 1080 O 113.959 1.85494 -0.446846 0
M  V30 1081 C 111.099 3.21697 -1.24919 0
M  V30 1082 C 110.212 3.53247 -2.48678 0
M  V30 1083 C 109.347 4.80289 -2.26928 0
M  V30 1084 C 108.386 5.04707 -3.4632 0
M  V30 1085 N 107.523 6.22956 -3.23836 0
M  V30 1086 H 112.363 1.83979 -2.34427 0
M  V30 1087 H 109.9 0.898876 -1.16442 0
M  V30 1088 H 111.858 4.01137 -1.1465 0
M  V30 1089 H 110.488 3.21076 -0.333153 0
M  V30 1090 H 109.54 2.68447 -2.69519 0
M  V30 1091 H 110.852 3.67205 -3.37582 0
M  V30 1092 H 110.006 5.67725 -2.13947 0
M  V30 1093 H 108.745 4.68519 -1.35431 0
M  V30 1094 H 107.75 4.1573 -3.5979 0
M  V30 1095 H 108.975 5.18357 -4.38729 0
M  V30 1096 H 106.921 6.12459 -2.35011 0
M  V30 1097 H 106.838 6.37539 -4.063 0
M  V30 1098 H 108.106 7.1321 -3.14566 0
M  V30 1099 N 112.336 1.25143 0.95797 0
M  V30 1100 C 113.284 1.05019 2.07542 0
M  V30 1101 C 114.278 -0.0178751 1.69391 0
M  V30 1102 O 115.484 0.137472 1.79474 0
M  V30 1103 H 111.859 0.32265 0.679265 0
M  V30 1104 H 113.83 1.99759 2.21673 0
M  V30 1105 C 112.579 0.682074 3.40944 0
M  V30 1106 H 111.902 1.49573 3.70767 0
M  V30 1107 H 113.342 0.580945 4.20001 0
M  V30 1108 C 111.801 -0.611608 3.31302 0
M  V30 1109 O 112.331 -1.65465 3.66038 0
M  V30 1110 N 110.537 -0.595982 2.84423 0
M  V30 1111 H 110.084 0.253192 2.56353 0
M  V30 1112 H 110.042 -1.46173 2.78354 0
M  V30 1113 N 113.814 -1.1601 1.06675 0
M  V30 1114 C 115.039 -1.91068 0.806706 0
M  V30 1115 C 115.464 -1.77112 -0.633485 0
M  V30 1116 O 114.822 -1.09908 -1.44187 0
M  V30 1117 C 114.87 -3.39655 1.21106 0
M  V30 1118 O 113.974 -4.10893 0.352189 0
M  V30 1119 H 113.315 -0.595125 0.294486 0
M  V30 1120 H 115.845 -1.46955 1.42356 0
M  V30 1121 H 115.855 -3.90434 1.18428 0
M  V30 1122 H 114.53 -3.49132 2.26008 0
M  V30 1123 H 113.107 -3.70285 0.440868 0
M  V30 1124 N 115.292 -0.849877 -1.32721 0
M  V30 1125 C 116.222 -0.306308 -2.31482 0
M  V30 1126 C 117.203 0.591952 -1.59468 0
M  V30 1127 O 118.388 0.513199 -1.87296 0
M  V30 1128 C 115.518 0.510204 -3.43532 0
M  V30 1129 C 114.472 -0.293209 -4.26994 0
M  V30 1130 C 113.798 0.647743 -5.30762 0
M  V30 1131 C 115.098 -1.51634 -4.99804 0
M  V30 1132 H 116.792 -1.13153 -2.77195 0
M  V30 1133 H 114.338 -0.545553 -1.33266 0
M  V30 1134 H 116.291 0.900856 -4.11658 0
M  V30 1135 H 115.015 1.36874 -2.96535 0
M  V30 1136 H 113.674 -0.665555 -3.60508 0
M  V30 1137 H 113.322 1.50299 -4.8002 0
M  V30 1138 H 113.022 0.11422 -5.87489 0
M  V30 1139 H 114.546 1.03567 -6.01753 0
M  V30 1140 H 115.96 -1.19824 -5.60638 0
M  V30 1141 H 114.357 -1.98745 -5.66234 0
M  V30 1142 H 115.427 -2.28018 -4.27943 0
M  V30 1143 N 116.77 1.45427 -0.607355 0
M  V30 1144 C 118 2.06314 -0.108656 0
M  V30 1145 C 118.408 1.45269 1.21217 0
M  V30 1146 O 117.751 0.561115 1.74921 0
M  V30 1147 C 117.813 3.59345 0.105618 0
M  V30 1148 C 117.477 4.42723 -1.13337 0
M  V30 1149 C 118.474 4.77715 -2.05145 0
M  V30 1150 C 116.159 4.83478 -1.36213 0
M  V30 1151 C 118.153 5.52317 -3.18158 0
M  V30 1152 C 115.84 5.57835 -2.49527 0
M  V30 1153 C 116.838 5.92171 -3.40327 0
M  V30 1154 O 116.526 6.65019 -4.51669 0
M  V30 1155 H 116.258 0.672782 -0.0658842 0
M  V30 1156 H 118.812 1.87664 -0.834945 0
M  V30 1157 H 117.042 3.76394 0.886796 0
M  V30 1158 H 118.731 4.02076 0.555886 0
M  V30 1159 H 119.497 4.46787 -1.88697 0
M  V30 1160 H 115.376 4.56188 -0.664362 0
M  V30 1161 H 118.92 5.79036 -3.89054 0
M  V30 1162 H 114.817 5.88177 -2.65928 0
M  V30 1163 H 115.585 6.83469 -4.50348 0
M  V30 1164 N 118.248 0.346503 1.53744 0
M  V30 1165 C 119.178 -0.501193 2.28058 0
M  V30 1166 C 120.159 -1.10014 1.29734 0
M  V30 1167 O 121.344 -1.12097 1.58581 0
M  V30 1168 C 118.474 -1.65078 3.05559 0
M  V30 1169 C 117.428 -1.18003 4.11411 0
M  V30 1170 C 116.754 -2.41837 4.76884 0
M  V30 1171 C 118.054 -0.278394 5.21558 0
M  V30 1172 H 119.748 0.11875 2.99164 0
M  V30 1173 H 117.294 0.0585531 1.43881 0
M  V30 1174 H 119.247 -2.25028 3.56287 0
M  V30 1175 H 117.971 -2.29767 2.32109 0
M  V30 1176 H 116.63 -0.603331 3.61601 0
M  V30 1177 H 116.278 -3.0494 4.00026 0
M  V30 1178 H 115.978 -2.1102 5.48402 0
M  V30 1179 H 117.502 -3.02508 5.30397 0
M  V30 1180 H 118.916 -0.784823 5.67903 0
M  V30 1181 H 117.313 -0.0619707 6.00068 0
M  V30 1182 H 118.383 0.684677 4.80042 0
M  V30 1183 N 119.726 -1.57421 0.075193 0
M  V30 1184 C 120.658 -2.09904 -0.920483 0
M  V30 1185 C 121.671 -1.03191 -1.25918 0
M  V30 1186 O 122.86 -1.30695 -1.21577 0
M  V30 1187 C 119.96 -2.54726 -2.23534 0
M  V30 1188 C 119.133 -3.8505 -2.07498 0
M  V30 1189 C 118.192 -4.15929 -3.22319 0
M  V30 1190 O 117.218 -4.85474 -2.9716 0
M  V30 1191 N 118.42 -3.69745 -4.47514 0
M  V30 1192 H 121.185 -2.95954 -0.472359 0
M  V30 1193 H 118.746 -1.61523 -0.110444 0
M  V30 1194 H 120.738 -2.72443 -2.9926 0
M  V30 1195 H 119.308 -1.73795 -2.59835 0
M  V30 1196 H 118.528 -3.76679 -1.16219 0
M  V30 1197 H 119.816 -4.70348 -1.94038 0
M  V30 1198 H 119.214 -3.13569 -4.7084 0
M  V30 1199 H 117.771 -3.92655 -5.20255 0
M  V30 1200 N 121.204 0.198386 -1.56346 0
M  V30 1201 C 122.137 1.27381 -1.89339 0
M  V30 1202 C 123.115 1.44106 -0.753134 0
M  V30 1203 O 124.299 1.59549 -1.00381 0
M  V30 1204 C 121.426 2.6409 -2.12071 0
M  V30 1205 C 120.472 2.64253 -3.34772 0
M  V30 1206 S 121.305 2.16013 -4.89999 0
M  V30 1207 C 122.461 3.54553 -5.15794 0
M  V30 1208 H 122.694 0.992058 -2.8026 0
M  V30 1209 H 120.227 0.401726 -1.49082 0
M  V30 1210 H 122.185 3.42786 -2.2585 0
M  V30 1211 H 120.846 2.89478 -1.21906 0
M  V30 1212 H 120.039 3.64768 -3.47794 0
M  V30 1213 H 119.641 1.93637 -3.1997 0
M  V30 1214 H 121.933 4.50396 -5.06112 0
M  V30 1215 H 122.876 3.46428 -6.1757 0
M  V30 1216 H 123.284 3.49313 -4.43442 0
M  V30 1217 N 122.682 1.50554 0.465978 0
M  V30 1218 C 123.63 1.70324 1.58406 0
M  V30 1219 C 124.624 0.569139 1.59553 0
M  V30 1220 O 125.83 0.749776 1.63641 0
M  V30 1221 H 122.205 0.537688 0.525734 0
M  V30 1222 H 124.176 2.64104 1.38894 0
M  V30 1223 C 122.925 1.81928 2.96307 0
M  V30 1224 H 122.248 2.68586 2.96144 0
M  V30 1225 H 123.688 1.99784 3.73982 0
M  V30 1226 C 122.147 0.572095 3.32007 0
M  V30 1227 O 122.677 -0.286416 4.00678 0
M  V30 1228 N 120.883 0.424606 2.87481 0
M  V30 1229 H 120.43 1.12427 2.31771 0
M  V30 1230 H 120.388 -0.408697 3.11732 0
M  V30 1231 N 124.16 -0.719506 1.40217 0
M  V30 1232 C 125.385 -1.51371 1.4178 0
M  V30 1233 C 125.81 -1.88091 0.0182355 0
M  V30 1234 O 125.168 -1.52997 -0.972707 0
M  V30 1235 C 125.216 -2.768 2.31115 0
M  V30 1236 O 124.32 -3.73349 1.7517 0
M  V30 1237 H 123.661 -0.456529 0.482159 0
M  V30 1238 H 126.191 -0.88644 1.844 0
M  V30 1239 H 126.201 -3.25371 2.46167 0
M  V30 1240 H 124.876 -2.49407 3.3282 0
M  V30 1241 H 123.453 -3.32179 1.69444 0
M  V30 1242 N 125.638 -1.25649 -0.95132 0
M  V30 1243 C 126.568 -1.08808 -2.06599 0
M  V30 1244 C 127.549 0.00382547 -1.701 0
M  V30 1245 O 128.734 -0.166325 -1.93486 0
M  V30 1246 C 125.864 -0.709542 -3.39975 0
M  V30 1247 C 124.818 -1.75206 -3.90496 0
M  V30 1248 C 124.144 -1.22811 -5.20405 0
M  V30 1249 C 125.444 -3.15153 -4.16504 0
M  V30 1250 H 127.138 -2.02048 -2.20946 0
M  V30 1251 H 124.684 -0.972835 -1.06169 0
M  V30 1252 H 126.637 -0.578649 -4.17408 0
M  V30 1253 H 125.361 0.258556 -3.25575 0
M  V30 1254 H 124.02 -1.87145 -3.15234 0
M  V30 1255 H 123.668 -0.250145 -5.02378 0
M  V30 1256 H 123.368 -1.92492 -5.55176 0
M  V30 1257 H 124.892 -1.10968 -6.00432 0
M  V30 1258 H 126.306 -3.06349 -4.84586 0
M  V30 1259 H 124.703 -3.82333 -4.62538 0
M  V30 1260 H 125.773 -3.61966 -3.22658 0
M  V30 1261 N 127.117 1.15442 -1.07289 0
M  V30 1262 C 128.533 1.38201 -0.798288 0
M  V30 1263 C 128.733 1.92429 0.597769 0
M  V30 1264 O 127.789 2.12962 1.3566 0
M  V30 1265 C 129.102 2.35357 -1.87156 0
M  V30 1266 C 130.65 2.49021 -1.89624 0
M  V30 1267 C 131.125 3.49468 -2.96034 0
M  V30 1268 N 132.616 3.57003 -2.95132 0
M  V30 1269 C 133.351 4.34543 -3.74112 0
M  V30 1270 N 132.847 5.15421 -4.6294 0
M  V30 1271 N 134.64 4.29625 -3.62462 0
M  V30 1272 H 126.791 0.78584 -1.97328 0
M  V30 1273 H 129.054 0.408065 -0.855679 0
M  V30 1274 H 128.76 2.02626 -2.87464 0
M  V30 1275 H 128.634 3.35129 -1.73114 0
M  V30 1276 H 131.021 2.81051 -0.899687 0
M  V30 1277 H 131.102 1.4925 -2.07745 0
M  V30 1278 H 130.746 3.18173 -3.95889 0
M  V30 1279 H 130.676 4.48992 -2.75161 0
M  V30 1280 H 133.167 2.99276 -2.30743 0
M  V30 1281 H 133.48 5.7183 -5.19837 0
M  V30 1282 H 131.825 5.14729 -4.66989 0
M  V30 1283 H 135.016 3.65505 -2.92444 0
M  V30 1284 H 135.189 4.89807 -4.24256 0
M  V30 1285 N 128.595 0.856903 1.32268 0
M  V30 1286 C 129.558 0.308171 2.27119 0
M  V30 1287 C 130.558 -0.533421 1.51695 0
M  V30 1288 O 131.748 -0.344607 1.70757 0
M  V30 1289 C 128.88 -0.563757 3.36206 0
M  V30 1290 H 130.073 1.14535 2.77167 0
M  V30 1291 H 127.626 0.631421 1.42978 0
M  V30 1292 H 128.361 -1.42266 2.91429 0
M  V30 1293 H 128.146 0.0386749 3.92081 0
M  V30 1294 H 129.636 -0.940386 4.06874 0
M  V30 1295 N 130.073 -1.45103 0.615059 0
M  V30 1296 C 130.983 -2.34382 -0.101034 0
M  V30 1297 C 131.999 -1.51681 -0.852585 0
M  V30 1298 O 133.175 -1.8446 -0.808484 0
M  V30 1299 C 130.24 -3.29417 -1.08099 0
M  V30 1300 C 129.301 -4.28025 -0.330577 0
M  V30 1301 C 128.534 -5.1852 -1.26385 0
M  V30 1302 O 128.757 -5.12598 -2.50198 0
M  V30 1303 O 127.691 -5.97122 -0.756866 0
M  V30 1304 H 131.517 -2.97033 0.632855 0
M  V30 1305 H 129.102 -1.4461 0.375293 0
M  V30 1306 H 130.984 -3.87958 -1.6452 0
M  V30 1307 H 129.659 -2.69321 -1.79577 0
M  V30 1308 H 128.566 -3.73078 0.276283 0
M  V30 1309 H 129.899 -4.90997 0.343866 0
M  V30 1310 N 131.551 -0.354651 -1.53558 0
M  V30 1311 C 132.828 0.294281 -1.93374 0
M  V30 1312 C 133.208 1.67313 -1.28723 0
M  V30 1313 O 132.556 2.24179 -0.442247 0
M  V30 1314 C 132.766 0.355445 -3.47185 0
M  V30 1315 C 134.114 0.601007 -4.20325 0
M  V30 1316 O 135.138 0.437106 -3.53508 0
M  V30 1317 O 133.997 0.919322 -5.38712 0
M  V30 1318 H 131.091 0.174033 -0.808481 0
M  V30 1319 H 133.637 -0.406638 -1.64756 0
M  V30 1320 H 132.409 -0.611729 -3.86489 0
M  V30 1321 H 132.032 1.1027 -3.82003 0
M  V30 1322 N 133.029 1.57378 -0.0835403 0
M  V30 1323 C 134.257 1.98263 0.59157 0
M  V30 1324 C 134.672 0.962302 1.62435 0
M  V30 1325 O 134.029 -0.049581 1.82433 0
M  V30 1326 C 134.08 3.39214 1.24965 0
M  V30 1327 O 133.801 4.37339 0.258186 0
M  V30 1328 C 135.302 3.95038 2.01147 0
M  V30 1329 H 132.522 0.651773 0.159477 0
M  V30 1330 H 135.066 2.03878 -0.159415 0
M  V30 1331 H 133.221 3.34649 1.95164 0
M  V30 1332 H 133.635 5.19371 0.731734 0
M  V30 1333 H 135.109 4.95848 2.42567 0
M  V30 1334 H 135.586 3.32222 2.87272 0
M  V30 1335 H 136.192 4.0304 1.35789 0
M  V30 1336 N 134.507 -0.190092 1.56449 0
M  V30 1337 C 135.47 -1.21925 1.9408 0
M  V30 1338 C 136.47 -1.38176 0.822431 0
M  V30 1339 O 137.66 -1.35903 1.08977 0
M  V30 1340 C 134.792 -2.58773 2.21922 0
M  V30 1341 H 135.985 -0.897464 2.86157 0
M  V30 1342 H 133.538 -0.43181 1.50217 0
M  V30 1343 H 134.273 -2.95998 1.32499 0
M  V30 1344 H 134.058 -2.48348 3.03424 0
M  V30 1345 H 135.548 -3.32978 2.52022 0
M  V30 1346 N 135.985 -1.50799 -0.457987 0
M  V30 1347 C 137.231 -1.62683 -1.21088 0
M  V30 1348 C 137.564 -0.332268 -1.91336 0
M  V30 1349 O 136.839 0.667043 -1.82704 0
M  V30 1350 C 137.122 -2.81615 -2.24422 0
M  V30 1351 C 136.975 -4.20989 -1.58392 0
M  V30 1352 C 138.294 -2.96085 -3.2561 0
M  V30 1353 H 135.413 -0.592087 -0.438864 0
M  V30 1354 H 138.055 -1.83225 -0.50286 0
M  V30 1355 H 136.205 -2.64231 -2.84806 0
M  V30 1356 H 137.877 -4.49994 -1.01504 0
M  V30 1357 H 136.12 -4.24641 -0.886704 0
M  V30 1358 H 136.791 -5.0016 -2.33547 0
M  V30 1359 H 139.267 -3.12042 -2.75262 0
M  V30 1360 H 138.143 -3.80902 -3.95228 0
M  V30 1361 H 138.404 -2.0726 -3.90507 0
M  V30 1362 N 137.463 0.71206 -1.40597 0
M  V30 1363 C 138.693 1.49894 -1.42181 0
M  V30 1364 C 139.101 1.89189 -0.0208078 0
M  V30 1365 O 138.444 1.56223 0.966436 0
M  V30 1366 C 138.506 2.80215 -2.25211 0
M  V30 1367 C 138.17 2.63221 -3.73582 0
M  V30 1368 C 139.167 2.30249 -4.66135 0
M  V30 1369 C 136.852 2.79376 -4.17438 0
M  V30 1370 C 138.846 2.13645 -6.00529 0
M  V30 1371 C 136.533 2.6239 -5.51901 0
M  V30 1372 C 137.531 2.29573 -6.43262 0
M  V30 1373 O 137.219 2.12719 -7.75246 0
M  V30 1374 H 136.951 0.469031 -0.486812 0
M  V30 1375 H 139.505 0.88564 -1.85326 0
M  V30 1376 H 137.735 3.4389 -1.76852 0
M  V30 1377 H 139.424 3.41947 -2.18694 0
M  V30 1378 H 140.19 2.17398 -4.33547 0
M  V30 1379 H 136.069 3.03906 -3.46644 0
M  V30 1380 H 139.613 1.87953 -6.71803 0
M  V30 1381 H 135.51 2.74826 -5.84073 0
M  V30 1382 H 136.278 2.27611 -7.86216 0
M  V30 1383 N 138.941 1.26152 0.944643 0
M  V30 1384 C 140.171 1.14094 1.72239 0
M  V30 1385 C 140.579 -0.306931 1.86694 0
M  V30 1386 O 139.922 -1.22222 1.3714 0
M  V30 1387 C 139.984 1.73316 3.14963 0
M  V30 1388 C 139.648 3.2239 3.23904 0
M  V30 1389 C 140.645 4.19252 3.07447 0
M  V30 1390 C 138.33 3.62788 3.47405 0
M  V30 1391 C 140.324 5.54491 3.14353 0
M  V30 1392 C 138.011 4.98162 3.53947 0
M  V30 1393 C 139.009 5.93823 3.37436 0
M  V30 1394 O 138.697 7.26732 3.43679 0
M  V30 1395 H 138.429 0.398292 0.546205 0
M  V30 1396 H 140.983 1.67201 1.19301 0
M  V30 1397 H 139.213 1.14667 3.69308 0
M  V30 1398 H 140.902 1.56214 3.74636 0
M  V30 1399 H 141.668 3.8938 2.8915 0
M  V30 1400 H 137.547 2.88816 3.59313 0
M  V30 1401 H 141.091 6.29137 3.01384 0
M  V30 1402 H 136.988 5.27695 3.71763 0
M  V30 1403 H 137.756 7.3496 3.60245 0
M  V30 1404 N 140.419 -1.14872 1.07899 0
M  V30 1405 C 141.659 -1.8745 0.814965 0
M  V30 1406 C 142.023 -1.80758 -0.64733 0
M  V30 1407 O 143.224 -2.48422 -1.02664 0
M  V30 1408 C 141.495 -3.32286 1.31607 0
M  V30 1409 S 143.054 -4.22537 1.18357 0
M  V30 1410 H 139.872 -0.646833 0.295174 0
M  V30 1411 H 142.474 -1.38555 1.37923 0
M  V30 1412 H 141.178 -3.34703 2.37491 0
M  V30 1413 H 140.709 -3.86238 0.747261 0
M  V30 1414 H 142.724 -4.96044 0.124586 0
M  V30 1415 N 141.898 -0.863906 -1.31812 0
M  V30 1416 C 142.861 -0.320212 -2.26952 0
M  V30 1417 C 143.861 0.525369 -1.51975 0
M  V30 1418 O 145.051 0.335547 -1.70938 0
M  V30 1419 C 142.183 0.545919 -3.365 0
M  V30 1420 H 143.376 -1.16004 -2.76556 0
M  V30 1421 H 140.929 -0.638995 -1.42641 0
M  V30 1422 H 141.664 1.40718 -2.92179 0
M  V30 1423 H 141.449 -0.0594674 -3.92055 0
M  V30 1424 H 142.939 0.918796 -4.07367 0
M  V30 1425 N 143.376 1.44774 -0.622745 0
M  V30 1426 C 144.323 2.30635 0.0871679 0
M  V30 1427 C 145.293 1.42994 0.845097 0
M  V30 1428 O 146.478 1.71907 0.827812 0
M  V30 1429 C 143.618 3.28144 1.06844 0
M  V30 1430 C 142.731 4.30888 0.309809 0
M  V30 1431 C 141.866 5.15494 1.28215 0
M  V30 1432 C 140.905 6.09953 0.512198 0
M  V30 1433 N 140.042 6.87287 1.43458 0
M  V30 1434 H 144.882 2.90803 -0.650974 0
M  V30 1435 H 142.419 1.43286 -0.33281 0
M  V30 1436 H 144.377 3.83157 1.65066 0
M  V30 1437 H 143.007 2.69695 1.77382 0
M  V30 1438 H 142.059 3.78414 -0.388181 0
M  V30 1439 H 143.371 4.97955 -0.290254 0
M  V30 1440 H 142.525 5.74983 1.93596 0
M  V30 1441 H 141.264 4.48481 1.91614 0
M  V30 1442 H 140.269 5.49581 -0.155151 0
M  V30 1443 H 141.494 6.78999 -0.116958 0
M  V30 1444 H 139.44 6.2295 2.05594 0
M  V30 1445 H 139.357 7.50763 0.888335 0
M  V30 1446 H 140.625 7.51306 2.07749 0
M  V30 1447 N 144.854 0.36279 1.53368 0
M  V30 1448 C 146.103 -0.22888 2.00397 0
M  V30 1449 C 146.416 -1.50096 1.25421 0
M  V30 1450 O 147.622 -2.17106 1.63025 0
M  V30 1451 C 146.078 -0.458417 3.56969 0
M  V30 1452 C 145.686 0.798877 4.4082 0
M  V30 1453 C 147.43 -1.00789 4.12361 0
M  V30 1454 C 145.337 0.539078 5.88938 0
M  V30 1455 H 144.267 -0.089305 0.748693 0
M  V30 1456 H 146.918 0.481099 1.77081 0
M  V30 1457 H 145.3 -1.22959 3.76427 0
M  V30 1458 H 146.474 1.57262 4.33134 0
M  V30 1459 H 144.789 1.27137 3.96516 0
M  V30 1460 H 147.386 -1.21754 5.20653 0
M  V30 1461 H 147.729 -1.9692 3.66781 0
M  V30 1462 H 148.262 -0.296961 3.9669 0
M  V30 1463 H 145.001 1.47064 6.3879 0
M  V30 1464 H 144.521 -0.196222 5.99479 0
M  V30 1465 H 146.2 0.163542 6.46793 0
M  V30 1466 N 146.332 -1.57332 0.0918853 0
M  V30 1467 C 147.262 -2.16872 -0.865371 0
M  V30 1468 C 148.243 -1.10118 -1.29646 0
M  V30 1469 O 149.428 -1.38242 -1.36392 0
M  V30 1470 C 146.558 -2.74649 -2.12569 0
M  V30 1471 C 145.512 -3.86747 -1.83333 0
M  V30 1472 C 144.838 -4.31212 -3.16166 0
M  V30 1473 C 146.138 -5.10089 -1.1228 0
M  V30 1474 H 147.832 -2.97114 -0.369307 0
M  V30 1475 H 145.378 -1.42918 -0.176194 0
M  V30 1476 H 147.331 -3.14952 -2.7997 0
M  V30 1477 H 146.055 -1.91657 -2.64452 0
M  V30 1478 H 144.714 -3.46978 -1.18331 0
M  V30 1479 H 144.362 -3.45115 -3.6593 0
M  V30 1480 H 144.062 -5.06788 -2.97388 0
M  V30 1481 H 145.586 -4.74146 -3.84731 0
M  V30 1482 H 147 -5.47582 -1.69785 0
M  V30 1483 H 145.397 -5.91073 -1.03693 0
M  V30 1484 H 146.467 -4.84786 -0.105041 0
M  V30 1485 N 147.81 0.181792 -1.56548 0
M  V30 1486 C 149.058 0.89832 -1.81038 0
M  V30 1487 C 149.379 1.83232 -0.667164 0
M  V30 1488 O 148.649 1.93372 0.313673 0
M  V30 1489 H 147.229 0.33471 -0.667816 0
M  V30 1490 H 149.891 0.184116 -1.94028 0
M  V30 1491 H 148.987 1.4815 -2.74696 0
M  V30 1492 N 149.288 1.51039 0.449983 0
M  V30 1493 C 150.251 1.70863 1.5277 0
M  V30 1494 C 151.251 0.578846 1.5002 0
M  V30 1495 O 152.441 0.846213 1.52266 0
M  V30 1496 C 149.573 1.75341 2.9235 0
M  V30 1497 H 150.766 2.67034 1.36502 0
M  V30 1498 H 148.319 1.40838 0.677812 0
M  V30 1499 H 149.054 0.809383 3.14037 0
M  V30 1500 H 148.839 2.57436 2.95752 0
M  V30 1501 H 150.329 1.92559 3.70555 0
M  V30 1502 N 150.766 -0.704594 1.40972 0
M  V30 1503 C 152.014 -1.46169 1.39568 0
M  V30 1504 C 152.335 -1.95 0.00253745 0
M  V30 1505 O 151.605 -1.71095 -0.954114 0
M  V30 1506 H 150.185 -0.542326 0.513704 0
M  V30 1507 H 152.847 -0.834553 1.76128 0
M  V30 1508 H 151.943 -2.32922 2.07735 0
M  V30 1509 N 152.244 -1.26651 -0.937939 0
M  V30 1510 C 153.66 -1.03834 -1.21205 0
M  V30 1511 C 153.86 0.234502 -2.00131 0
M  V30 1512 O 152.916 0.942767 -2.3424 0
M  V30 1513 C 154.229 -2.27167 -1.97017 0
M  V30 1514 C 155.777 -2.32101 -2.09996 0
M  V30 1515 C 156.252 -3.55136 -2.8921 0
M  V30 1516 N 157.743 -3.55632 -2.96783 0
M  V30 1517 C 158.478 -4.475 -3.58512 0
M  V30 1518 N 157.974 -5.4966 -4.21717 0
M  V30 1519 N 159.767 -4.35145 -3.55816 0
M  V30 1520 H 151.918 -2.08398 -0.410391 0
M  V30 1521 H 154.181 -0.916031 -0.244114 0
M  V30 1522 H 153.887 -3.19765 -1.46434 0
M  V30 1523 H 153.761 -2.31672 -2.97671 0
M  V30 1524 H 156.148 -1.40015 -2.59769 0
M  V30 1525 H 156.229 -2.31605 -1.08594 0
M  V30 1526 H 155.873 -4.47553 -2.40123 0
M  V30 1527 H 155.803 -3.5288 -3.90875 0
M  V30 1528 H 158.294 -2.81743 -2.51852 0
M  V30 1529 H 158.607 -6.15943 -4.66727 0
M  V30 1530 H 156.952 -5.53514 -4.20294 0
M  V30 1531 H 160.143 -3.5455 -3.05634 0
M  V30 1532 H 160.316 -5.06934 -4.03636 0
M  V30 1533 N 153.722 1.14298 -1.08507 0
M  V30 1534 C 154.97 1.84993 -0.813763 0
M  V30 1535 C 155.291 1.83405 0.662393 0
M  V30 1536 O 154.561 1.28319 1.48024 0
M  V30 1537 H 153.141 0.684966 -0.298045 0
M  V30 1538 H 155.803 1.385 -1.37126 0
M  V30 1539 H 154.899 2.89788 -1.15884 0
M  V30 1540 N 155.201 0.870884 1.31352 0
M  V30 1541 C 156.447 0.492314 1.97352 0
M  V30 1542 C 156.802 -0.945174 1.67583 0
M  V30 1543 O 156.095 -1.65674 0.962423 0
M  V30 1544 C 156.289 0.687157 3.50732 0
M  V30 1545 C 156.118 2.14203 3.95407 0
M  V30 1546 C 154.888 2.78382 4.21701 0
M  V30 1547 C 157.086 3.1144 4.09279 0
M  V30 1548 N 155.068 4.14611 4.52737 0
M  V30 1549 C 156.439 4.32702 4.44037 0
M  V30 1550 C 158.494 3.07418 3.91661 0
M  V30 1551 C 157.197 5.50463 4.63015 0
M  V30 1552 C 159.223 4.24438 4.11833 0
M  V30 1553 C 158.585 5.44463 4.46923 0
M  V30 1554 H 154.684 0.229206 0.747655 0
M  V30 1555 H 157.268 1.12568 1.5886 0
M  V30 1556 H 155.439 0.083384 3.8831 0
M  V30 1557 H 157.171 0.276883 4.03752 0
M  V30 1558 H 153.926 2.29326 4.14375 0
M  V30 1559 H 154.35 4.84928 4.72413 0
M  V30 1560 H 158.992 2.15732 3.6362 0
M  V30 1561 H 156.71 6.42666 4.89904 0
M  V30 1562 H 160.296 4.2278 3.99685 0
M  V30 1563 H 159.176 6.33504 4.62214 0
M  V30 1564 N 156.679 -1.44442 0.630414 0
M  V30 1565 C 157.909 -2.06115 0.141465 0
M  V30 1566 C 158.317 -1.47179 -1.1889 0
M  V30 1567 O 157.66 -0.588873 -1.74006 0
M  V30 1568 C 157.722 -3.59467 -0.0484355 0
M  V30 1569 C 157.386 -4.40864 1.20366 0
M  V30 1570 C 158.383 -4.74391 2.12719 0
M  V30 1571 C 156.068 -4.8125 1.43887 0
M  V30 1572 C 158.062 -5.47186 3.26904 0
M  V30 1573 C 155.749 -5.53795 2.5837 0
M  V30 1574 C 156.747 -5.86682 3.49705 0
M  V30 1575 O 156.435 -6.57749 4.62191 0
M  V30 1576 H 156.167 -0.671648 0.0765792 0
M  V30 1577 H 158.721 -1.86312 0.864695 0
M  V30 1578 H 156.951 -3.77758 -0.826803 0
M  V30 1579 H 158.64 -4.02909 -0.491849 0
M  V30 1580 H 159.406 -4.43728 1.95781 0
M  V30 1581 H 155.285 -4.55073 0.736853 0
M  V30 1582 H 158.829 -5.72773 3.98217 0
M  V30 1583 H 154.726 -5.83872 2.75251 0
M  V30 1584 H 155.494 -6.76217 4.61164 0
M  V30 1585 N 158.157 -0.370918 -1.53173 0
M  V30 1586 C 159.404 0.217102 -2.01333 0
M  V30 1587 C 159.732 1.48338 -1.25802 0
M  V30 1588 O 158.987 1.92698 -0.34146 0
M  V30 1589 C 159.286 0.549696 -3.53147 0
M  V30 1590 C 158.952 -0.622872 -4.46577 0
M  V30 1591 C 157.614 -0.944595 -4.71838 0
M  V30 1592 C 159.966 -1.40819 -5.01816 0
M  V30 1593 C 157.294 -2.05351 -5.49589 0
M  V30 1594 C 159.646 -2.50757 -5.80778 0
M  V30 1595 C 158.31 -2.83458 -6.04324 0
M  V30 1596 H 157.58 0.0794431 -0.736729 0
M  V30 1597 H 160.227 -0.504481 -1.84736 0
M  V30 1598 H 158.532 1.35237 -3.6772 0
M  V30 1599 H 160.229 1.017 -3.87889 0
M  V30 1600 H 156.819 -0.36209 -4.27068 0
M  V30 1601 H 161.003 -1.17289 -4.82242 0
M  V30 1602 H 156.259 -2.3108 -5.6605 0
M  V30 1603 H 160.433 -3.12022 -6.22588 0
M  V30 1604 H 158.06 -3.69508 -6.64355 0
M  V30 1605 N 159.635 1.57281 -0.100228 0
M  V30 1606 C 160.912 1.86014 0.604812 0
M  V30 1607 C 161.292 0.998025 1.86018 0
M  V30 1608 O 160.64 0.0718184 2.28387 0
M  V30 1609 C 160.85 3.36784 0.915278 0
M  V30 1610 C 162.198 4.04957 1.27651 0
M  V30 1611 O 163.222 3.41695 1.00613 0
M  V30 1612 O 162.081 5.16593 1.7831 0
M  V30 1613 H 159.175 0.76942 0.303185 0
M  V30 1614 H 161.721 1.69176 -0.133313 0
M  V30 1615 H 160.493 3.91292 0.0248896 0
M  V30 1616 H 160.116 3.58987 1.70921 0
M  V30 1617 N 161.113 -0.173488 1.56642 0
M  V30 1618 C 162.043 -1.2171 1.99271 0
M  V30 1619 C 163.024 -1.46289 0.867959 0
M  V30 1620 O 164.209 -1.5766 1.13388 0
M  V30 1621 C 161.339 -2.55651 2.35074 0
M  V30 1622 C 160.293 -2.45645 3.50489 0
M  V30 1623 C 159.619 -3.84056 3.72028 0
M  V30 1624 C 160.919 -1.96302 4.84007 0
M  V30 1625 H 162.613 -0.86275 2.867 0
M  V30 1626 H 160.159 -0.413571 1.37933 0
M  V30 1627 H 162.112 -3.2886 2.63494 0
M  V30 1628 H 160.836 -2.92869 1.44552 0
M  V30 1629 H 159.495 -1.7489 3.22194 0
M  V30 1630 H 159.143 -4.18664 2.788 0
M  V30 1631 H 158.843 -3.7823 4.49684 0
M  V30 1632 H 160.367 -4.58854 4.02846 0
M  V30 1633 H 161.781 -2.59284 5.11317 0
M  V30 1634 H 160.178 -2.01429 5.65284 0
M  V30 1635 H 161.248 -0.917226 4.76146 0
M  V30 1636 N 162.591 -1.51276 -0.441967 0
M  V30 1637 C 163.837 -1.6492 -1.1905 0
M  V30 1638 C 164.192 -0.358731 -1.89026 0
M  V30 1639 O 163.485 0.645193 -1.8041 0
M  V30 1640 C 163.679 -2.78746 -2.23686 0
M  V30 1641 C 163.508 -4.18737 -1.63979 0
M  V30 1642 C 162.278 -4.84739 -1.42674 0
M  V30 1643 C 164.476 -5.01988 -1.11858 0
M  V30 1644 N 162.458 -6.08858 -0.785159 0
M  V30 1645 C 163.829 -6.17071 -0.601989 0
M  V30 1646 C 165.884 -4.87551 -1.0099 0
M  V30 1647 C 164.587 -7.19299 0.0126012 0
M  V30 1648 C 166.613 -5.89983 -0.409206 0
M  V30 1649 C 165.975 -7.04333 0.0968651 0
M  V30 1650 H 162.074 -0.657416 -0.423471 0
M  V30 1651 H 164.658 -1.8849 -0.48782 0
M  V30 1652 H 162.829 -2.56848 -2.91348 0
M  V30 1653 H 164.561 -2.81595 -2.90666 0
M  V30 1654 H 161.316 -4.42528 -1.68719 0
M  V30 1655 H 161.74 -6.75282 -0.481942 0
M  V30 1656 H 166.382 -3.99401 -1.38703 0
M  V30 1657 H 164.1 -8.071 0.401879 0
M  V30 1658 H 167.686 -5.8088 -0.327079 0
M  V30 1659 H 166.566 -7.82238 0.554373 0
M  V30 1660 N 164.069 0.697108 -1.41344 0
M  V30 1661 C 165.317 1.45426 -1.40341 0
M  V30 1662 C 165.638 1.94996 -0.0128787 0
M  V30 1663 O 164.908 1.71599 0.945027 0
M  V30 1664 H 163.488 0.539594 -0.516573 0
M  V30 1665 H 166.15 0.825201 -1.76569 0
M  V30 1666 H 165.246 2.31817 -2.08967 0
M  V30 1667 N 165.547 1.27147 0.931209 0
M  V30 1668 C 166.494 1.09568 2.03134 0
M  V30 1669 C 167.464 -0.00222433 1.661 0
M  V30 1670 O 168.649 0.159439 1.90133 0
M  V30 1671 C 165.789 0.745231 3.36957 0
M  V30 1672 C 164.902 1.92041 3.86968 0
M  V30 1673 C 164.037 1.51216 5.09222 0
M  V30 1674 C 163.076 2.65504 5.5152 0
M  V30 1675 N 162.213 2.25291 6.64972 0
M  V30 1676 H 167.053 2.03708 2.17502 0
M  V30 1677 H 164.59 1.01411 1.06556 0
M  V30 1678 H 166.548 0.522878 4.1391 0
M  V30 1679 H 165.178 -0.159202 3.22407 0
M  V30 1680 H 164.23 2.25541 3.06326 0
M  V30 1681 H 165.542 2.77787 4.1429 0
M  V30 1682 H 164.696 1.25084 5.93666 0
M  V30 1683 H 163.435 0.625749 4.83669 0
M  V30 1684 H 162.44 2.92354 4.65628 0
M  V30 1685 H 163.665 3.54761 5.7907 0
M  V30 1686 H 161.611 1.39098 6.41083 0
M  V30 1687 H 161.528 3.04577 6.91931 0
M  V30 1688 H 162.796 2.02398 7.52765 0
M  V30 1689 N 167.025 -1.13721 1.09112 0
M  V30 1690 C 168.273 -1.84559 0.823562 0
M  V30 1691 C 168.594 -1.83754 -0.652658 0
M  V30 1692 O 167.864 -1.29102 -1.47342 0
M  V30 1693 H 166.444 -0.683376 0.301673 0
M  V30 1694 H 169.106 -1.37771 1.37859 0
M  V30 1695 H 168.202 -2.8917 1.17419 0
M  V30 1696 N 168.503 -0.877838 -1.30888 0
M  V30 1697 C 169.731 -0.507414 -2.00581 0
M  V30 1698 C 170.146 0.902216 -1.65848 0
M  V30 1699 O 169.503 1.59225 -0.891831 0
M  V30 1700 C 169.554 -0.664162 -3.55347 0
M  V30 1701 O 169.275 -2.01829 -3.8884 0
M  V30 1702 C 170.776 -0.295787 -4.42312 0
M  V30 1703 H 167.996 -0.196866 -0.641471 0
M  V30 1704 H 170.54 -1.18117 -1.66939 0
M  V30 1705 H 168.695 -0.0378619 -3.87381 0
M  V30 1706 H 169.109 -2.03174 -4.8355 0
M  V30 1707 H 170.583 -0.456388 -5.5011 0
M  V30 1708 H 171.06 0.765663 -4.32475 0
M  V30 1709 H 171.666 -0.898113 -4.15709 0
M  V30 1710 N 169.982 1.44106 -0.638065 0
M  V30 1711 C 171.21 2.06336 -0.152615 0
M  V30 1712 C 171.625 1.47731 1.17563 0
M  V30 1713 O 170.982 0.602806 1.72257 0
M  V30 1714 C 171.033 3.61479 -0.0391491 0
M  V30 1715 O 170.754 4.17903 -1.31487 0
M  V30 1716 C 172.255 4.40757 0.474176 0
M  V30 1717 H 169.475 0.665862 -0.0828776 0
M  V30 1718 H 172.019 1.84862 -0.87443 0
M  V30 1719 H 170.174 3.82191 0.633142 0
M  V30 1720 H 170.588 5.11416 -1.16421 0
M  V30 1721 H 172.062 5.49707 0.502562 0
M  V30 1722 H 172.539 4.12697 1.50258 0
M  V30 1723 H 173.145 4.24979 -0.165102 0
M  V30 1724 N 171.46 0.379036 1.52974 0
M  V30 1725 C 172.706 -0.206727 2.01744 0
M  V30 1726 C 173.039 -1.47314 1.26539 0
M  V30 1727 O 172.314 -1.91084 0.362903 0
M  V30 1728 C 172.597 -0.485066 3.56818 0
M  V30 1729 C 172.45 0.795919 4.42702 0
M  V30 1730 C 173.769 -1.28003 4.21074 0
M  V30 1731 H 170.888 -0.0736607 0.73331 0
M  V30 1732 H 173.53 0.506581 1.83122 0
M  V30 1733 H 171.68 -1.09272 3.72816 0
M  V30 1734 H 173.352 1.43307 4.38476 0
M  V30 1735 H 171.595 1.41344 4.10127 0
M  V30 1736 H 172.266 0.555947 5.49193 0
M  V30 1737 H 174.742 -0.765867 4.08991 0
M  V30 1738 H 173.618 -1.44352 5.29579 0
M  V30 1739 H 173.879 -2.29236 3.78026 0
M  V30 1740 N 172.938 -1.57226 0.108567 0
M  V30 1741 C 174.166 -1.99179 -0.559954 0
M  V30 1742 C 174.581 -0.988022 -1.60884 0
M  V30 1743 O 173.938 0.0205512 -1.82488 0
M  V30 1744 C 173.989 -3.41159 -1.19552 0
M  V30 1745 O 173.71 -4.37694 -0.188577 0
M  V30 1746 C 175.211 -3.98188 -1.94837 0
M  V30 1747 H 172.431 -0.654228 -0.149088 0
M  V30 1748 H 174.975 -2.03598 0.19183 0
M  V30 1749 H 173.13 -3.37711 -1.89815 0
M  V30 1750 H 173.544 -5.20469 -0.649014 0
M  V30 1751 H 175.018 -4.99644 -2.34648 0
M  V30 1752 H 175.495 -3.3675 -2.81951 0
M  V30 1753 H 176.101 -4.0515 -1.2936 0
M  V30 1754 N 174.416 0.165178 -1.56732 0
M  V30 1755 C 175.662 0.882112 -1.82611 0
M  V30 1756 C 175.995 1.81628 -0.687378 0
M  V30 1757 O 175.27 1.92009 0.310267 0
M  V30 1758 C 175.553 1.67245 -3.18906 0
M  V30 1759 C 175.406 0.760987 -4.43316 0
M  V30 1760 C 176.725 2.63884 -3.52212 0
M  V30 1761 H 173.844 0.319242 -0.664269 0
M  V30 1762 H 176.486 0.148052 -1.89422 0
M  V30 1763 H 174.636 2.29824 -3.1323 0
M  V30 1764 H 176.308 0.147596 -4.61064 0
M  V30 1765 H 174.551 0.0694102 -4.33744 0
M  V30 1766 H 175.222 1.34962 -5.35247 0
M  V30 1767 H 177.698 2.11429 -3.58381 0
M  V30 1768 H 176.574 3.16245 -4.48643 0
M  V30 1769 H 176.835 3.44377 -2.77231 0
M  V30 1770 N 175.894 1.51508 0.433938 0
M  V30 1771 C 177.119 1.68443 1.21003 0
M  V30 1772 C 177.544 0.382636 1.84167 0
M  V30 1773 O 176.902 -0.65755 1.68956 0
M  V30 1774 C 176.95 2.80405 2.26727 0
M  V30 1775 O 176.054 2.44245 3.32292 0
M  V30 1776 H 175.395 0.561536 0.354363 0
M  V30 1777 H 177.925 1.9809 0.512024 0
M  V30 1778 H 177.935 3.0459 2.71457 0
M  V30 1779 H 176.61 3.74867 1.80132 0
M  V30 1780 H 175.187 2.30644 2.93015 0
M  V30 1781 N 177.372 -0.689602 1.41712 0
M  V30 1782 C 178.597 -1.48329 1.44959 0
M  V30 1783 C 179.022 -1.8801 0.0581283 0
M  V30 1784 O 178.38 -1.55026 -0.940035 0
M  V30 1785 C 178.428 -2.71835 2.36935 0
M  V30 1786 O 177.532 -3.69549 1.8305 0
M  V30 1787 H 176.873 -0.446199 0.491734 0
M  V30 1788 H 179.403 -0.847127 1.86239 0
M  V30 1789 H 179.413 -3.20076 2.53013 0
M  V30 1790 H 178.088 -2.42291 3.38035 0
M  V30 1791 H 176.665 -3.2851 1.76452 0
M  V30 1792 N 178.85 -1.27639 -0.924453 0
M  V30 1793 C 179.813 -1.10681 -2.00705 0
M  V30 1794 C 180.813 -0.0497823 -1.60723 0
M  V30 1795 O 182.003 -0.294654 -1.7169 0
M  V30 1796 C 179.135 -0.687164 -3.33902 0
M  V30 1797 H 180.328 -2.06817 -2.17179 0
M  V30 1798 H 177.881 -1.10473 -1.10569 0
M  V30 1799 H 178.616 0.275439 -3.23128 0
M  V30 1800 H 178.401 -1.45061 -3.6428 0
M  V30 1801 H 179.891 -0.590853 -4.13399 0
M  V30 1802 N 180.328 1.1314 -1.09713 0
M  V30 1803 C 181.553 1.88862 -0.857081 0
M  V30 1804 C 181.978 1.78729 0.586304 0
M  V30 1805 O 181.336 1.13692 1.41222 0
M  V30 1806 C 181.384 3.36325 -1.30069 0
M  V30 1807 O 180.488 4.09815 -0.461007 0
M  V30 1808 H 179.829 0.587108 -0.310162 0
M  V30 1809 H 182.359 1.43129 -1.46203 0
M  V30 1810 H 182.369 3.87157 -1.28738 0
M  V30 1811 H 181.044 3.43017 -2.35185 0
M  V30 1812 H 179.621 3.68986 -0.538888 0
M  V30 1813 N 181.806 0.884767 1.30421 0
M  V30 1814 C 183.034 0.518044 2.0031 0
M  V30 1815 C 183.449 -0.893408 1.66324 0
M  V30 1816 O 182.806 -1.5875 0.900262 0
M  V30 1817 C 182.857 0.682997 3.54989 0
M  V30 1818 O 182.578 2.03888 3.87764 0
M  V30 1819 C 184.079 0.31924 4.42149 0
M  V30 1820 H 181.299 0.200265 0.640418 0
M  V30 1821 H 183.843 1.19001 1.6631 0
M  V30 1822 H 181.998 0.0584052 3.87356 0
M  V30 1823 H 182.412 2.05735 4.82466 0
M  V30 1824 H 183.886 0.485555 5.4986 0
M  V30 1825 H 184.363 -0.742717 4.32875 0
M  V30 1826 H 184.969 0.920147 4.15227 0
M  V30 1827 N 183.284 -1.43765 0.645699 0
M  V30 1828 C 184.231 -2.30745 -0.0504648 0
M  V30 1829 C 185.201 -1.4432 -0.822241 0
M  V30 1830 O 186.386 -1.73202 -0.800358 0
M  V30 1831 C 183.526 -3.29802 -1.0161 0
M  V30 1832 C 182.639 -4.31326 -0.241219 0
M  V30 1833 C 181.774 -5.17469 -1.19998 0
M  V30 1834 C 180.813 -6.10691 -0.415094 0
M  V30 1835 N 179.95 -6.89483 -1.32506 0
M  V30 1836 H 184.79 -2.8973 0.697155 0
M  V30 1837 H 182.327 -1.42738 0.355563 0
M  V30 1838 H 184.285 -3.85734 -1.58949 0
M  V30 1839 H 182.915 -2.72483 -1.73069 0
M  V30 1840 H 181.967 -3.77749 0.448334 0
M  V30 1841 H 183.279 -4.9743 0.369437 0
M  V30 1842 H 182.433 -5.7799 -1.84424 0
M  V30 1843 H 181.172 -4.51473 -1.84455 0
M  V30 1844 H 180.177 -5.49265 0.242565 0
M  V30 1845 H 181.402 -6.78727 0.224966 0
M  V30 1846 H 179.348 -6.26142 -1.95657 0
M  V30 1847 H 179.265 -7.52081 -0.768783 0
M  V30 1848 H 180.533 -7.54516 -1.9577 0
M  V30 1849 N 184.763 -0.387143 -1.52771 0
M  V30 1850 C 186.011 0.195349 -2.01154 0
M  V30 1851 C 186.332 1.475 -1.27549 0
M  V30 1852 O 185.602 1.91878 -0.394924 0
M  V30 1853 H 184.182 0.075178 -0.743207 0
M  V30 1854 H 186.844 -0.518337 -1.87881 0
M  V30 1855 H 185.94 0.407096 -3.09434 0
M  V30 1856 N 186.241 1.57166 -0.116904 0
M  V30 1857 C 187.652 1.82169 0.408809 0
M  V30 1858 C 188.003 1.03393 1.66746 0
M  V30 1859 O 187.128 0.269886 2.1471 0
M  V30 1860 C 187.723 3.30429 0.748466 0
M  V30 1861 C 186.282 3.5612 1.21882 0
M  V30 1862 C 185.429 2.76374 0.226452 0
M  V30 1863 H 188.38 1.5497 -0.342063 0
M  V30 1864 H 188.401 3.44943 1.60607 0
M  V30 1865 H 187.913 3.87737 -0.167784 0
M  V30 1866 H 186.014 3.04168 2.15204 0
M  V30 1867 H 186.127 4.64705 1.16559 0
M  V30 1868 H 184.491 2.44515 0.713063 0
M  V30 1869 H 185.274 3.3644 -0.682859 0
M  V30 1870 N 187.719 -0.156864 1.56817 0
M  V30 1871 C 188.944 -0.890331 1.87318 0
M  V30 1872 C 189.369 -1.74394 0.704855 0
M  V30 1873 O 188.727 -1.77972 -0.345786 0
M  V30 1874 C 188.775 -1.73102 3.16336 0
M  V30 1875 O 187.879 -2.83422 2.99576 0
M  V30 1876 H 187.22 -0.24857 0.615718 0
M  V30 1877 H 189.75 -0.150649 2.04045 0
M  V30 1878 H 189.76 -2.12803 3.48107 0
M  V30 1879 H 188.435 -1.10412 4.00976 0
M  V30 1880 H 187.012 -2.47199 2.7919 0
M  V30 1881 N 189.197 -1.51736 -0.425897 0
M  V30 1882 C 190.443 -1.65214 -1.1761 0
M  V30 1883 C 190.776 -0.372778 -1.90589 0
M  V30 1884 O 190.051 0.628139 -1.84078 0
M  V30 1885 C 190.334 -2.86312 -2.18398 0
M  V30 1886 C 190.187 -4.24254 -1.49426 0
M  V30 1887 C 191.506 -3.02925 -3.19256 0
M  V30 1888 H 188.625 -0.601263 -0.426206 0
M  V30 1889 H 191.267 -1.8425 -0.463882 0
M  V30 1890 H 189.417 -2.70213 -2.79137 0
M  V30 1891 H 191.089 -4.52046 -0.919362 0
M  V30 1892 H 189.332 -4.26426 -0.796432 0
M  V30 1893 H 190.003 -5.05001 -2.22885 0
M  V30 1894 H 192.479 -3.1781 -2.68581 0
M  V30 1895 H 191.355 -3.89199 -3.8706 0
M  V30 1896 H 191.616 -2.15497 -3.86023 0
M  V30 1897 N 190.675 0.682077 -1.42076 0
M  V30 1898 C 191.922 1.44215 -1.42156 0
M  V30 1899 C 192.25 1.94468 -0.0354186 0
M  V30 1900 O 191.505 1.70816 0.955002 0
M  V30 1901 C 191.804 2.66036 -2.38662 0
M  V30 1902 C 191.47 2.34366 -3.85206 0
M  V30 1903 C 190.132 2.25439 -4.25124 0
M  V30 1904 C 192.484 2.08513 -4.77673 0
M  V30 1905 C 189.812 1.88775 -5.55501 0
M  V30 1906 C 192.164 1.73354 -6.08384 0
M  V30 1907 C 190.828 1.62933 -6.47309 0
M  V30 1908 H 190.098 0.527718 -0.520187 0
M  V30 1909 H 192.745 0.778387 -1.74967 0
M  V30 1910 H 191.05 3.3741 -1.99152 0
M  V30 1911 H 192.747 3.24205 -2.35991 0
M  V30 1912 H 189.337 2.42213 -3.53597 0
M  V30 1913 H 193.521 2.14346 -4.47626 0
M  V30 1914 H 188.777 1.7927 -5.84527 0
M  V30 1915 H 192.951 1.52373 -6.79526 0
M  V30 1916 H 190.578 1.34292 -7.48244 0
M  V30 1917 N 192.153 1.28127 0.917671 0
M  V30 1918 C 193.564 1.13622 1.48145 0
M  V30 1919 C 193.915 -0.275207 1.9426 0
M  V30 1920 O 193.04 -1.1691 1.82102 0
M  V30 1921 C 193.635 2.05648 2.69248 0
M  V30 1922 C 192.194 1.95219 3.21818 0
M  V30 1923 C 191.341 1.97618 1.94532 0
M  V30 1924 H 194.292 1.40874 0.730772 0
M  V30 1925 H 194.313 1.61818 3.44377 0
M  V30 1926 H 193.825 3.08365 2.35653 0
M  V30 1927 H 191.926 0.955244 3.60147 0
M  V30 1928 H 192.039 2.81976 3.87333 0
M  V30 1929 H 190.403 1.41973 2.11461 0
M  V30 1930 H 191.186 3.02007 1.63238 0
M  V30 1931 N 193.631 -1.12557 1.10312 0
M  V30 1932 C 194.561 -2.20341 0.772798 0
M  V30 1933 C 195.542 -1.68198 -0.25365 0
M  V30 1934 O 196.727 -1.93831 -0.119699 0
M  V30 1935 C 193.857 -3.46709 0.202443 0
M  V30 1936 C 192.811 -4.11996 1.15943 0
M  V30 1937 C 192.137 -5.328 0.450345 0
M  V30 1938 C 193.437 -4.5828 2.50552 0
M  V30 1939 H 195.131 -2.48229 1.674 0
M  V30 1940 H 192.677 -1.19308 0.806326 0
M  V30 1941 H 194.63 -4.2138 -0.0407752 0
M  V30 1942 H 193.354 -3.18245 -0.734001 0
M  V30 1943 H 192.013 -3.39305 1.38808 0
M  V30 1944 H 191.661 -5.00602 -0.490531 0
M  V30 1945 H 191.361 -5.7743 1.08851 0
M  V30 1946 H 192.885 -6.10219 0.215642 0
M  V30 1947 H 194.299 -5.2433 2.31843 0
M  V30 1948 H 192.696 -5.13683 3.10242 0
M  V30 1949 H 193.766 -3.72329 3.10643 0
M  V30 1950 N 195.109 -0.891671 -1.2995 0
M  V30 1951 C 196.072 -0.36828 -2.26222 0
M  V30 1952 C 197.072 0.493014 -1.53056 0
M  V30 1953 O 198.262 0.299213 -1.71611 0
M  V30 1954 C 195.394 0.47442 -3.37583 0
M  V30 1955 H 196.587 -1.21844 -2.74033 0
M  V30 1956 H 194.14 -0.669107 -1.41254 0
M  V30 1957 H 194.875 1.34489 -2.95099 0
M  V30 1958 H 194.66 -0.142615 -3.91841 0
M  V30 1959 H 196.15 0.83218 -4.09224 0
M  V30 1960 N 196.587 1.43421 -0.653314 0
M  V30 1961 C 197.998 1.85065 -0.246537 0
M  V30 1962 C 198.349 1.54688 1.2069 0
M  V30 1963 O 197.474 0.995896 1.92122 0
M  V30 1964 C 198.069 3.35922 -0.440666 0
M  V30 1965 C 196.628 3.76297 -0.0882064 0
M  V30 1966 C 195.775 2.67147 -0.743484 0
M  V30 1967 H 198.726 1.33572 -0.856979 0
M  V30 1968 H 198.747 3.79204 0.313798 0
M  V30 1969 H 198.259 3.58 -1.49858 0
M  V30 1970 H 196.36 3.5983 0.96711 0
M  V30 1971 H 196.473 4.76338 -0.513738 0
M  V30 1972 H 194.837 2.54086 -0.176712 0
M  V30 1973 H 195.62 2.92053 -1.80443 0
M  V30 1974 N 198.065 0.39524 1.52563 0
M  V30 1975 C 199.29 -0.187456 2.06551 0
M  V30 1976 C 199.715 -1.39249 1.26457 0
M  V30 1977 O 199.073 -1.78947 0.291151 0
M  V30 1978 C 199.121 -0.529985 3.56684 0
M  V30 1979 O 198.225 -1.62307 3.79118 0
M  V30 1980 H 197.566 -0.0202537 0.663691 0
M  V30 1981 H 200.096 0.564426 1.96661 0
M  V30 1982 H 200.106 -0.792598 4.00227 0
M  V30 1983 H 198.781 0.350987 4.14416 0
M  V30 1984 H 197.358 -1.3537 3.47461 0
M  V30 1985 N 199.544 -1.57102 0.125237 0
M  V30 1986 C 200.769 -2.0019 -0.542101 0
M  V30 1987 C 201.194 -1.00449 -1.59034 0
M  V30 1988 O 200.552 0.0229423 -1.81285 0
M  V30 1989 C 200.6 -3.42129 -1.13929 0
M  V30 1990 O 199.704 -3.45307 -2.2547 0
M  V30 1991 H 199.045 -0.650171 -0.134812 0
M  V30 1992 H 201.575 -2.03461 0.215553 0
M  V30 1993 H 201.585 -3.80471 -1.4733 0
M  V30 1994 H 200.26 -4.14237 -0.371531 0
M  V30 1995 H 198.837 -3.1879 -1.93462 0
M  V30 1996 N 201.022 0.148545 -1.56898 0
M  V30 1997 C 201.969 1.18345 -1.98149 0
M  V30 1998 C 202.939 1.42772 -0.848848 0
M  V30 1999 O 204.124 1.55132 -1.11079 0
M  V30 2000 C 201.264 2.51231 -2.36594 0
M  V30 2001 C 200.377 2.33991 -3.63142 0
M  V30 2002 C 199.512 3.59902 -3.90697 0
M  V30 2003 C 198.551 3.37692 -5.1052 0
M  V30 2004 N 197.688 4.5573 -5.34092 0
M  V30 2005 H 202.528 0.82467 -2.86362 0
M  V30 2006 H 200.065 0.395756 -1.41676 0
M  V30 2007 H 202.023 3.28713 -2.56912 0
M  V30 2008 H 200.653 2.85059 -1.51463 0
M  V30 2009 H 199.705 1.47572 -3.50609 0
M  V30 2010 H 201.017 2.13539 -4.5078 0
M  V30 2011 H 200.171 4.45813 -4.11505 0
M  V30 2012 H 198.91 3.83357 -3.01477 0
M  V30 2013 H 197.915 2.5017 -4.89587 0
M  V30 2014 H 199.14 3.15637 -6.0129 0
M  V30 2015 H 197.086 4.79361 -4.47827 0
M  V30 2016 H 197.003 4.38274 -6.15996 0
M  V30 2017 H 198.271 5.42858 -5.59397 0
M  V30 2018 N 202.5 1.5196 0.417844 0
M  V30 2019 C 203.725 1.69717 1.1921 0
M  V30 2020 C 204.15 0.402148 1.83751 0
M  V30 2021 O 203.508 -0.639593 1.69643 0
M  V30 2022 C 203.556 2.82794 2.2374 0
M  V30 2023 O 202.66 2.47756 3.29683 0
M  V30 2024 H 202.001 0.565263 0.348387 0
M  V30 2025 H 204.531 1.98621 0.490985 0
M  V30 2026 H 204.541 3.07452 2.68212 0
M  V30 2027 H 203.216 3.76756 1.76146 0
M  V30 2028 H 201.793 2.33739 2.90552 0
M  V30 2029 N 203.978 -0.674533 1.42435 0
M  V30 2030 C 205.206 -1.46283 1.46317 0
M  V30 2031 C 205.621 -1.88653 0.0745836 0
M  V30 2032 O 204.978 -1.58151 -0.91074 0
M  V30 2033 C 205.029 -2.71178 2.3905 0
M  V30 2034 O 204.75 -2.30586 3.72507 0
M  V30 2035 C 206.251 -3.64738 2.51955 0
M  V30 2036 H 203.471 -0.450104 0.497642 0
M  V30 2037 H 206.015 -0.828792 1.86953 0
M  V30 2038 H 204.17 -3.3077 2.01667 0
M  V30 2039 H 204.584 -3.11241 4.22172 0
M  V30 2040 H 206.058 -4.49096 3.20962 0
M  V30 2041 H 206.535 -4.10656 1.55752 0
M  V30 2042 H 207.141 -3.11038 2.90061 0
M  V30 2043 N 205.456 -1.28612 -0.910864 0
M  V30 2044 C 206.681 -1.1891 -1.69927 0
M  V30 2045 C 207.106 0.248372 -1.86453 0
M  V30 2046 O 206.464 1.17961 -1.37676 0
M  V30 2047 C 206.512 -1.89578 -3.06745 0
M  V30 2048 O 205.616 -1.20521 -3.94396 0
M  V30 2049 H 204.957 -0.412632 -0.520222 0
M  V30 2050 H 207.487 -1.69985 -1.1387 0
M  V30 2051 H 207.497 -1.97597 -3.56958 0
M  V30 2052 H 206.172 -2.94136 -2.94035 0
M  V30 2053 H 204.749 -1.20684 -3.52831 0
M  V30 2054 N 206.934 1.1197 -1.10907 0
M  V30 2055 C 208.182 1.83225 -0.852819 0
M  V30 2056 C 208.503 1.84769 0.623341 0
M  V30 2057 O 207.773 1.3143 1.45269 0
M  V30 2058 H 206.353 0.67849 -0.312507 0
M  V30 2059 H 209.015 1.3556 -1.40033 0
M  V30 2060 H 208.111 2.87265 -1.22005 0
M  V30 2061 N 208.412 0.89855 1.29475 0
M  V30 2062 C 209.66 0.522847 1.9522 0
M  V30 2063 C 209.981 -0.93371 1.71192 0
M  V30 2064 O 209.251 -1.65823 1.04305 0
M  V30 2065 H 207.831 0.190366 0.722336 0
M  V30 2066 H 210.493 1.14459 1.5775 0
M  V30 2067 H 209.589 0.704476 3.04045 0
M  V30 2068 N 209.89 -1.43072 0.660911 0
M  V30 2069 C 211.118 -2.06067 0.185422 0
M  V30 2070 C 211.533 -1.49582 -1.15198 0
M  V30 2071 O 210.89 -0.630134 -1.71276 0
M  V30 2072 C 210.941 -3.61371 0.0966523 0
M  V30 2073 O 210.662 -4.15758 1.38119 0
M  V30 2074 C 212.163 -4.41455 -0.403996 0
M  V30 2075 H 209.383 -0.664459 0.0934604 0
M  V30 2076 H 211.927 -1.83447 0.90373 0
M  V30 2077 H 210.082 -3.8315 -0.572259 0
M  V30 2078 H 210.496 -5.09499 1.24542 0
M  V30 2079 H 211.97 -5.50437 -0.415045 0
M  V30 2080 H 212.447 -4.15036 -1.43674 0
M  V30 2081 H 213.053 -4.24663 0.232691 0
M  V30 2082 N 211.368 -0.403325 -1.52352 0
M  V30 2083 C 212.331 0.413051 -2.25447 0
M  V30 2084 C 213.331 0.978513 -1.276 0
M  V30 2085 O 214.521 0.858305 -1.51587 0
M  V30 2086 C 211.653 1.58087 -3.02029 0
M  V30 2087 H 212.846 -0.227094 -2.99039 0
M  V30 2088 H 210.399 -0.155722 -1.55522 0
M  V30 2089 H 211.134 2.25804 -2.32772 0
M  V30 2090 H 210.919 1.18195 -3.73861 0
M  V30 2091 H 212.409 2.1585 -3.57489 0
M  V30 2092 N 212.846 1.57033 -0.133567 0
M  V30 2093 C 213.809 2.14897 0.796995 0
M  V30 2094 C 214.809 1.0874 1.18458 0
M  V30 2095 O 215.999 1.34446 1.1077 0
M  V30 2096 C 213.131 2.70112 2.07973 0
M  V30 2097 H 214.324 2.98457 0.293873 0
M  V30 2098 H 211.877 1.55871 0.115787 0
M  V30 2099 H 212.612 1.9018 2.62682 0
M  V30 2100 H 212.397 3.47764 1.81115 0
M  V30 2101 H 213.887 3.14738 2.74462 0
M  V30 2102 N 214.325 -0.140222 1.56975 0
M  V30 2103 C 215.255 -1.17456 2.01808 0
M  V30 2104 C 216.236 -1.44415 0.898794 0
M  V30 2105 O 217.421 -1.5522 1.16707 0
M  V30 2106 C 214.551 -2.50607 2.40444 0
M  V30 2107 C 213.505 -2.38155 3.55621 0
M  V30 2108 C 212.831 -3.76078 3.80091 0
M  V30 2109 C 214.131 -1.85991 4.88062 0
M  V30 2110 H 215.825 -0.801743 2.88466 0
M  V30 2111 H 213.371 -0.38422 1.38779 0
M  V30 2112 H 215.324 -3.23197 2.7041 0
M  V30 2113 H 214.048 -2.89737 1.50732 0
M  V30 2114 H 212.707 -1.68016 3.25832 0
M  V30 2115 H 212.355 -4.12656 2.87618 0
M  V30 2116 H 212.055 -3.68606 4.57606 0
M  V30 2117 H 213.579 -4.50206 4.12488 0
M  V30 2118 H 214.993 -2.4838 5.16701 0
M  V30 2119 H 213.39 -1.89393 5.6943 0
M  V30 2120 H 214.46 -0.816023 4.77984 0
M  V30 2121 N 215.803 -1.52179 -0.40978 0
M  V30 2122 C 217.051 -1.65878 -1.15451 0
M  V30 2123 C 217.372 -0.390771 -1.91044 0
M  V30 2124 O 216.642 0.594323 -1.86667 0
M  V30 2125 H 215.222 -0.611405 -0.429177 0
M  V30 2126 H 217.884 -1.89219 -0.467134 0
M  V30 2127 H 216.98 -2.49954 -1.86894 0
M  V30 2128 N 217.281 0.66697 -1.42791 0
M  V30 2129 C 218.521 1.43892 -1.4517 0
M  V30 2130 C 218.885 1.91877 -0.0687551 0
M  V30 2131 O 220.086 2.6878 0.0327455 0
M  V30 2132 C 218.357 2.59839 -2.45395 0
M  V30 2133 S 219.916 3.48572 -2.66539 0
M  V30 2134 H 216.734 0.491356 -0.513897 0
M  V30 2135 H 219.336 0.775656 -1.79454 0
M  V30 2136 H 218.04 2.22838 -3.44632 0
M  V30 2137 H 217.571 3.3103 -2.12562 0
M  V30 2138 H 219.586 4.56094 -1.95429 0
M  V30 2139 N 218.759 1.29093 0.90403 0
M  V30 2140 C 219.689 1.16401 2.02418 0
M  V30 2141 C 220.67 0.0593085 1.69997 0
M  V30 2142 O 221.855 0.238021 1.92736 0
M  V30 2143 C 218.985 0.835233 3.37107 0
M  V30 2144 C 217.939 1.89578 3.83724 0
M  V30 2145 C 217.265 1.42041 5.15489 0
M  V30 2146 C 218.565 3.30394 4.04521 0
M  V30 2147 H 220.259 2.10109 2.13295 0
M  V30 2148 H 217.805 1.01157 1.02486 0
M  V30 2149 H 219.758 0.733169 4.14973 0
M  V30 2150 H 218.482 -0.137543 3.2631 0
M  V30 2151 H 217.141 1.98715 3.08071 0
M  V30 2152 H 216.789 0.436426 5.01103 0
M  V30 2153 H 216.489 2.12964 5.4765 0
M  V30 2154 H 218.013 1.33176 5.959 0
M  V30 2155 H 219.427 3.24123 4.72882 0
M  V30 2156 H 217.824 3.99237 4.48029 0
M  V30 2157 H 218.894 3.73692 3.09002 0
M  V30 2158 N 220.237 -1.11381 1.11499 0
M  V30 2159 C 221.483 -1.83403 0.865512 0
M  V30 2160 C 221.816 -1.84459 -0.607329 0
M  V30 2161 O 221.091 -1.29811 -1.44842 0
M  V30 2162 C 221.374 -3.30552 1.42855 0
M  V30 2163 C 221.227 -3.37886 2.96906 0
M  V30 2164 C 222.546 -4.26643 1.08 0
M  V30 2165 H 219.665 -0.665879 0.31587 0
M  V30 2166 H 222.307 -1.30601 1.37998 0
M  V30 2167 H 220.457 -3.75648 0.990985 0
M  V30 2168 H 222.129 -3.01343 3.49271 0
M  V30 2169 H 220.372 -2.78088 3.32941 0
M  V30 2170 H 221.043 -4.41458 3.31389 0
M  V30 2171 H 223.519 -3.89729 1.45775 0
M  V30 2172 H 222.395 -5.27986 1.50072 0
M  V30 2173 H 222.656 -4.42099 -0.00915037 0
M  V30 2174 N 221.715 -0.905404 -1.28997 0
M  V30 2175 C 222.662 -0.385892 -2.27551 0
M  V30 2176 C 223.632 0.535113 -1.57244 0
M  V30 2177 O 224.817 0.459119 -1.85194 0
M  V30 2178 C 221.957 0.375461 -3.43051 0
M  V30 2179 C 221.07 -0.577092 -4.28128 0
M  V30 2180 C 220.205 0.201879 -5.30816 0
M  V30 2181 C 219.244 -0.744829 -6.07551 0
M  V30 2182 N 218.381 9.42587e-05 -7.021 0
M  V30 2183 H 223.221 -1.23139 -2.71368 0
M  V30 2184 H 220.758 -0.618542 -1.33463 0
M  V30 2185 H 222.716 0.832992 -4.088 0
M  V30 2186 H 221.346 1.18537 -3.00248 0
M  V30 2187 H 220.398 -1.15315 -3.62501 0
M  V30 2188 H 221.71 -1.30152 -4.8152 0
M  V30 2189 H 220.864 0.720351 -6.02408 0
M  V30 2190 H 219.603 0.959413 -4.7817 0
M  V30 2191 H 218.608 -1.27475 -5.34818 0
M  V30 2192 H 219.833 -1.50178 -6.62286 0
M  V30 2193 H 217.779 0.739791 -6.51815 0
M  V30 2194 H 217.696 -0.664321 -7.53076 0
M  V30 2195 H 218.964 0.498644 -7.77903 0
M  V30 2196 N 223.193 1.4272 -0.668489 0
M  V30 2197 C 224.47 1.95248 -0.117373 0
M  V30 2198 C 224.85 1.60919 1.36632 0
M  V30 2199 O 224.198 0.902095 2.09939 0
M  V30 2200 C 224.408 3.46927 -0.379806 0
M  V30 2201 C 225.756 4.23588 -0.292923 0
M  V30 2202 O 226.78 3.5482 -0.313204 0
M  V30 2203 O 225.639 5.46017 -0.229697 0
M  V30 2204 H 222.733 0.827 0.00079152 0
M  V30 2205 H 225.279 1.52581 -0.742783 0
M  V30 2206 H 224.051 3.65096 -1.40786 0
M  V30 2207 H 223.674 3.96627 0.277923 0
M  V30 2208 N 224.671 0.411399 1.52136 0
M  V30 2209 C 225.901 -0.16284 2.05957 0
M  V30 2210 C 226.309 -1.3922 1.28119 0
M  V30 2211 O 225.652 -1.80768 0.326881 0
M  V30 2212 C 225.714 -0.575946 3.54856 0
M  V30 2213 C 225.378 0.542998 4.53763 0
M  V30 2214 C 226.375 1.40726 5.00492 0
M  V30 2215 C 224.06 0.716337 4.97166 0
M  V30 2216 C 226.054 2.4298 5.8927 0
M  V30 2217 C 223.741 1.74218 5.8574 0
M  V30 2218 C 224.739 2.59731 6.31687 0
M  V30 2219 O 224.427 3.60558 7.18507 0
M  V30 2220 H 224.159 -0.0229125 0.675612 0
M  V30 2221 H 226.713 0.581634 1.96993 0
M  V30 2222 H 224.943 -1.37274 3.61515 0
M  V30 2223 H 226.632 -1.07836 3.91313 0
M  V30 2224 H 227.398 1.28476 4.67674 0
M  V30 2225 H 223.277 0.0603857 4.6096 0
M  V30 2226 H 226.821 3.0976 6.25055 0
M  V30 2227 H 222.718 1.86498 6.17971 0
M  V30 2228 H 223.486 3.56829 7.36624 0
M  V30 2229 N 226.149 -1.5696 0.141893 0
M  V30 2230 C 227.396 -1.9596 -0.510492 0
M  V30 2231 C 227.724 -1.02648 -1.65208 0
M  V30 2232 O 226.979 -0.0546947 -1.95624 0
M  V30 2233 C 227.278 -3.41242 -1.06249 0
M  V30 2234 C 226.944 -4.50882 -0.0398791 0
M  V30 2235 C 225.606 -4.80595 0.241247 0
M  V30 2236 C 227.958 -5.17058 0.65578 0
M  V30 2237 C 225.286 -5.73792 1.22393 0
M  V30 2238 C 227.638 -6.11313 1.62724 0
M  V30 2239 C 226.302 -6.39407 1.91612 0
M  V30 2240 H 225.572 -0.717068 -0.186802 0
M  V30 2241 H 228.219 -1.90142 0.227643 0
M  V30 2242 H 226.524 -3.43866 -1.87785 0
M  V30 2243 H 228.221 -3.68742 -1.57576 0
M  V30 2244 H 224.811 -4.27754 -0.269174 0
M  V30 2245 H 228.995 -4.94239 0.451779 0
M  V30 2246 H 224.251 -5.93853 1.45424 0
M  V30 2247 H 228.425 -6.61668 2.17183 0
M  V30 2248 H 226.052 -7.11427 2.6791 0
M  V30 2249 N 227.627 0.131896 -1.57047 0
M  V30 2250 C 229.038 0.690407 -1.73465 0
M  V30 2251 C 229.389 1.8094 -0.758629 0
M  V30 2252 O 228.514 2.16282 0.0713813 0
M  V30 2253 C 229.109 1.25916 -3.14532 0
M  V30 2254 C 227.668 1.76409 -3.32501 0
M  V30 2255 C 226.815 0.658579 -2.69366 0
M  V30 2256 H 229.766 -0.0939144 -1.58422 0
M  V30 2257 H 229.787 2.12892 -3.15369 0
M  V30 2258 H 229.299 0.444515 -3.85546 0
M  V30 2259 H 227.4 2.60391 -2.66509 0
M  V30 2260 H 227.513 1.88241 -4.4057 0
M  V30 2261 H 225.877 1.08899 -2.30246 0
M  V30 2262 H 226.66 -0.14487 -3.42994 0
M  V30 2263 N 229.106 1.52395 0.401703 0
M  V30 2264 C 230.016 1.7917 1.51444 0
M  V30 2265 C 231.032 0.677691 1.6026 0
M  V30 2266 O 232.208 0.963909 1.76835 0
M  V30 2267 C 229.273 1.94347 2.87107 0
M  V30 2268 C 228.334 3.18257 2.88116 0
M  V30 2269 C 227.567 3.32701 4.17308 0
M  V30 2270 O 227.79 2.52238 5.11598 0
M  V30 2271 O 226.724 4.25891 4.25324 0
M  V30 2272 H 230.55 2.73633 1.31752 0
M  V30 2273 H 228.135 1.3733 0.588296 0
M  V30 2274 H 230.017 2.06109 3.67555 0
M  V30 2275 H 228.692 1.03073 3.06851 0
M  V30 2276 H 227.599 3.11947 2.06494 0
M  V30 2277 H 228.932 4.09336 2.73322 0
M  V30 2278 N 230.584 -0.659388 1.43143 0
M  V30 2279 C 231.995 -1.24041 1.39537 0
M  V30 2280 C 232.346 -1.95963 0.0963364 0
M  V30 2281 O 231.471 -2.00892 -0.804438 0
M  V30 2282 C 232.066 -2.25601 2.52764 0
M  V30 2283 C 230.625 -2.79195 2.52443 0
M  V30 2284 C 229.772 -1.53743 2.30778 0
M  V30 2285 H 232.723 -0.451792 1.52133 0
M  V30 2286 H 232.744 -3.07651 2.23899 0
M  V30 2287 H 232.256 -1.73226 3.47296 0
M  V30 2288 H 230.357 -3.35649 1.61773 0
M  V30 2289 H 230.47 -3.2716 3.50004 0
M  V30 2290 H 228.834 -1.80869 1.79328 0
M  V30 2291 H 229.617 -1.03312 3.27386 0
M  V30 2292 N 232.062 -1.29571 -0.897171 0
M  V30 2293 C 233.308 -1.17863 -1.65034 0
M  V30 2294 C 233.641 0.268729 -1.92332 0
M  V30 2295 O 232.916 1.19378 -1.53555 0
M  V30 2296 C 233.199 -1.995 -2.99786 0
M  V30 2297 C 233.052 -3.5239 -2.79538 0
M  V30 2298 C 234.371 -1.82335 -4.00552 0
M  V30 2299 H 231.49 -0.429528 -0.598895 0
M  V30 2300 H 234.132 -1.59072 -1.03905 0
M  V30 2301 H 232.282 -1.64485 -3.51962 0
M  V30 2302 H 233.954 -3.97401 -2.34244 0
M  V30 2303 H 232.197 -3.77187 -2.14273 0
M  V30 2304 H 232.868 -4.04787 -3.75302 0
M  V30 2305 H 235.344 -2.12924 -3.57495 0
M  V30 2306 H 234.22 -2.41801 -4.92771 0
M  V30 2307 H 234.481 -0.779209 -4.35179 0
M  V30 2308 N 233.54 1.10788 -1.12088 0
M  V30 2309 C 234.768 1.86461 -0.896651 0
M  V30 2310 C 235.183 1.80492 0.553912 0
M  V30 2311 O 234.54 1.19102 1.38278 0
M  V30 2312 C 234.591 3.35006 -1.35843 0
M  V30 2313 O 234.312 3.40866 -2.75213 0
M  V30 2314 C 235.813 4.27565 -1.1706 0
M  V30 2315 H 233.033 0.589425 -0.320654 0
M  V30 2316 H 235.577 1.40076 -1.48993 0
M  V30 2317 H 233.732 3.7887 -0.808458 0
M  V30 2318 H 234.146 4.33411 -2.9539 0
M  V30 2319 H 235.62 5.30007 -1.54263 0
M  V30 2320 H 236.097 4.3906 -0.110814 0
M  V30 2321 H 236.703 3.89501 -1.70789 0
M  V30 2322 N 235.018 0.912232 1.28515 0
M  V30 2323 C 236.264 0.545405 1.95328 0
M  V30 2324 C 236.597 -0.908313 1.71649 0
M  V30 2325 O 235.872 -1.64575 1.03659 0
M  V30 2326 C 236.155 0.853483 3.4984 0
M  V30 2327 C 236.008 2.35982 3.82926 0
M  V30 2328 C 237.327 0.348589 4.38717 0
M  V30 2329 H 234.446 0.199626 0.709449 0
M  V30 2330 H 237.088 1.1412 1.5191 0
M  V30 2331 H 235.238 0.34643 3.86952 0
M  V30 2332 H 236.91 2.93738 3.55691 0
M  V30 2333 H 235.153 2.81543 3.30024 0
M  V30 2334 H 235.824 2.52593 4.90816 0
M  V30 2335 H 238.3 0.78294 4.08668 0
M  V30 2336 H 237.176 0.593242 5.45685 0
M  V30 2337 H 237.437 -0.751049 4.35674 0
M  V30 2338 N 236.496 -1.42363 0.676048 0
M  V30 2339 C 237.721 -2.06377 0.205705 0
M  V30 2340 C 238.146 -1.50463 -1.12883 0
M  V30 2341 O 237.504 -0.623619 -1.70237 0
M  V30 2342 C 237.552 -3.60277 0.152655 0
M  V30 2343 O 236.656 -4.02935 -0.87845 0
M  V30 2344 H 235.997 -0.655588 0.105359 0
M  V30 2345 H 238.527 -1.82475 0.925412 0
M  V30 2346 H 238.537 -4.07993 -0.0230675 0
M  V30 2347 H 237.212 -4.00346 1.12675 0
M  V30 2348 H 235.789 -3.66764 -0.673668 0
M  V30 2349 N 237.974 -0.419461 -1.51915 0
M  V30 2350 C 239.22 0.145505 -2.02879 0
M  V30 2351 C 239.575 1.41926 -1.29903 0
M  V30 2352 O 238.868 1.87383 -0.399782 0
M  V30 2353 C 239.062 0.437067 -3.54717 0
M  V30 2354 C 238.891 -0.806877 -4.42402 0
M  V30 2355 C 237.661 -1.33514 -4.87342 0
M  V30 2356 C 239.859 -1.68796 -4.85811 0
M  V30 2357 N 237.841 -2.53349 -5.59185 0
M  V30 2358 C 239.212 -2.73247 -5.56539 0
M  V30 2359 C 241.267 -1.70449 -4.67816 0
M  V30 2360 C 239.97 -3.79276 -6.11181 0
M  V30 2361 C 241.996 -2.75403 -5.23361 0
M  V30 2362 C 241.358 -3.78575 -5.9402 0
M  V30 2363 H 237.457 0.0145424 -0.781865 0
M  V30 2364 H 240.041 -0.576126 -1.85981 0
M  V30 2365 H 238.212 1.12774 -3.71667 0
M  V30 2366 H 239.944 0.99182 -3.92358 0
M  V30 2367 H 236.699 -0.891657 -4.65131 0
M  V30 2368 H 237.123 -3.14066 -5.99743 0
M  V30 2369 H 241.765 -0.920209 -4.12664 0
M  V30 2370 H 239.483 -4.58554 -6.65397 0
M  V30 2371 H 243.069 -2.77603 -5.113 0
M  V30 2372 H 241.949 -4.58453 -6.36231 0
M  V30 2373 N 239.452 1.56882 -0.150215 0
M  V30 2374 C 240.4 2.18214 0.805313 0
M  V30 2375 C 241.394 1.14006 1.25296 0
M  V30 2376 O 242.6 1.3225 1.22107 0
M  V30 2377 H 238.975 0.698762 0.277913 0
M  V30 2378 H 240.946 2.97231 0.263862 0
M  V30 2379 C 239.695 2.82065 2.03309 0
M  V30 2380 H 239.018 3.61968 1.69763 0
M  V30 2381 H 240.458 3.28477 2.68103 0
M  V30 2382 C 238.917 1.80739 2.84315 0
M  V30 2383 O 239.447 1.27983 3.80767 0
M  V30 2384 N 237.653 1.4997 2.48913 0
M  V30 2385 H 237.2 1.93062 1.70542 0
M  V30 2386 H 237.158 0.824217 3.03404 0
M  V30 2387 N 240.93 -0.123565 1.57115 0
M  V30 2388 C 242.155 -0.850398 1.89164 0
M  V30 2389 C 242.58 -1.7286 0.741688 0
M  V30 2390 O 241.938 -1.78665 -0.307958 0
M  V30 2391 C 241.986 -1.66353 3.19936 0
M  V30 2392 O 241.09 -2.77004 3.0552 0
M  V30 2393 H 240.431 -0.235454 0.620852 0
M  V30 2394 H 242.961 -0.107335 2.04318 0
M  V30 2395 H 242.971 -2.05372 3.52543 0
M  V30 2396 H 241.646 -1.01881 4.03228 0
M  V30 2397 H 240.223 -2.41221 2.84371 0
M  V30 2398 N 242.408 -1.52605 -0.393616 0
M  V30 2399 C 243.656 -1.67093 -1.13685 0
M  V30 2400 C 243.977 -0.411011 -1.90619 0
M  V30 2401 O 243.247 0.574491 -1.87287 0
M  V30 2402 H 241.827 -0.615923 -0.422668 0
M  V30 2403 H 244.489 -1.89704 -0.447039 0
M  V30 2404 H 243.585 -2.51922 -1.84232 0
M  V30 2405 N 243.887 0.651787 -1.4349 0
M  V30 2406 C 244.85 1.74647 -1.48429 0
M  V30 2407 C 245.85 1.56513 -0.368817 0
M  V30 2408 O 247.04 1.62385 -0.630623 0
M  V30 2409 C 244.172 3.13533 -1.33827 0
M  V30 2410 H 245.365 1.71649 -2.4592 0
M  V30 2411 H 242.918 0.863573 -1.30277 0
M  V30 2412 H 243.653 3.22142 -0.37349 0
M  V30 2413 H 243.438 3.28101 -2.14691 0
M  V30 2414 H 244.928 3.93356 -1.40218 0
M  V30 2415 N 245.365 1.30045 0.890287 0
M  V30 2416 C 246.295 1.18541 2.01172 0
M  V30 2417 C 247.276 0.0773356 1.69924 0
M  V30 2418 O 248.461 0.25845 1.92473 0
M  V30 2419 C 245.591 0.870941 3.36202 0
M  V30 2420 C 244.545 1.93637 3.81692 0
M  V30 2421 C 243.871 1.475 5.13953 0
M  V30 2422 C 245.171 3.34666 4.00994 0
M  V30 2423 H 246.865 2.12359 2.11054 0
M  V30 2424 H 244.411 1.02238 1.01407 0
M  V30 2425 H 246.364 0.777141 4.14172 0
M  V30 2426 H 245.088 -0.102926 3.26438 0
M  V30 2427 H 243.747 2.01972 3.05946 0
M  V30 2428 H 243.395 0.489551 5.00612 0
M  V30 2429 H 243.095 2.1876 5.4536 0
M  V30 2430 H 244.619 1.39489 5.94454 0
M  V30 2431 H 246.033 3.2912 4.69417 0
M  V30 2432 H 244.43 4.03966 4.43769 0
M  V30 2433 H 245.5 3.76949 3.05021 0
M  V30 2434 N 246.843 -1.10192 1.12674 0
M  V30 2435 C 248.071 -1.85983 0.906527 0
M  V30 2436 C 248.486 -1.80783 -0.544333 0
M  V30 2437 O 247.843 -1.19834 -1.37645 0
M  V30 2438 C 247.894 -3.34281 1.37618 0
M  V30 2439 O 247.615 -3.39401 2.77017 0
M  V30 2440 C 249.116 -4.26938 1.19325 0
M  V30 2441 H 246.336 -0.587716 0.323775 0
M  V30 2442 H 248.88 -1.39284 1.49734 0
M  V30 2443 H 247.035 -3.78436 0.828539 0
M  V30 2444 H 247.449 -4.31838 2.97684 0
M  V30 2445 H 248.923 -5.29181 1.57071 0
M  V30 2446 H 249.4 -4.38995 0.134097 0
M  V30 2447 H 250.006 -3.8859 1.72852 0
M  V30 2448 N 248.321 -0.919034 -1.28029 0
M  V30 2449 C 249.546 -0.570357 -1.99403 0
M  V30 2450 C 249.971 0.842486 -1.68178 0
M  V30 2451 O 249.329 1.56391 -0.917141 0
M  V30 2452 C 249.377 -0.792541 -3.51783 0
M  V30 2453 O 248.481 0.145988 -4.12142 0
M  V30 2454 H 247.822 -0.220555 -0.6263 0
M  V30 2455 H 250.352 -1.23592 -1.63053 0
M  V30 2456 H 250.362 -0.704708 -4.01868 0
M  V30 2457 H 249.037 -1.82247 -3.73844 0
M  V30 2458 H 247.614 0.00897528 -3.72899 0
M  V30 2459 N 249.799 1.42003 -0.683588 0
M  V30 2460 C 251.047 2.01015 -0.209101 0
M  V30 2461 C 251.368 1.54365 1.19149 0
M  V30 2462 O 250.638 0.769083 1.80172 0
M  V30 2463 H 249.218 0.743294 -0.074315 0
M  V30 2464 H 251.88 1.73798 -0.882066 0
M  V30 2465 H 250.976 3.11343 -0.2172 0
M  V30 2466 N 251.277 0.427512 1.51691 0
M  V30 2467 C 252.523 -0.142439 2.02299 0
M  V30 2468 C 252.856 -1.43214 1.31162 0
M  V30 2469 O 252.131 -1.89833 0.423511 0
M  V30 2470 C 252.414 -0.371301 3.58181 0
M  V30 2471 C 252.267 0.936358 4.39946 0
M  V30 2472 C 253.586 -1.14542 4.24933 0
M  V30 2473 H 250.705 -0.0502937 0.735282 0
M  V30 2474 H 253.347 0.564584 1.81418 0
M  V30 2475 H 251.497 -0.973559 3.76104 0
M  V30 2476 H 253.169 1.57184 4.33694 0
M  V30 2477 H 251.412 1.5432 4.05423 0
M  V30 2478 H 252.083 0.730388 5.47147 0
M  V30 2479 H 254.559 -0.635362 4.11221 0
M  V30 2480 H 253.435 -1.27431 5.33903 0
M  V30 2481 H 253.696 -2.17093 3.85127 0
M  V30 2482 N 252.755 -1.56801 0.158532 0
M  V30 2483 C 253.705 -2.13923 -0.788738 0
M  V30 2484 C 254.689 -1.07006 -1.2016 0
M  V30 2485 O 255.881 -1.33159 -1.1661 0
M  V30 2486 C 253.01 -2.77348 -2.02319 0
M  V30 2487 C 252.096 -3.91404 -1.6329 0
M  V30 2488 N 252.487 -4.9677 -0.951463 0
M  V30 2489 C 250.785 -4.02326 -1.92482 0
M  V30 2490 C 251.486 -5.76698 -0.761221 0
M  V30 2491 N 250.462 -5.27859 -1.29869 0
M  V30 2492 H 254.264 -2.92757 -0.258995 0
M  V30 2493 H 251.778 -1.62344 -0.0426055 0
M  V30 2494 H 253.775 -3.16639 -2.71192 0
M  V30 2495 H 252.435 -1.99991 -2.558 0
M  V30 2496 H 253.446 -5.14284 -0.610928 0
M  V30 2497 H 250.123 -3.36059 -2.47732 0
M  V30 2498 H 251.513 -6.71529 -0.223284 0
M  V30 2499 N 254.233 0.115231 -1.57178 0
M  V30 2500 C 255.461 0.836437 -1.89239 0
M  V30 2501 C 255.876 1.73256 -0.750175 0
M  V30 2502 O 255.233 1.80357 0.278832 0
M  V30 2503 C 255.284 1.66671 -3.20785 0
M  V30 2504 O 255.005 0.806652 -4.3061 0
M  V30 2505 C 256.506 2.49274 -3.66575 0
M  V30 2506 H 253.726 0.240253 -0.626514 0
M  V30 2507 H 256.27 0.0984932 -2.04263 0
M  V30 2508 H 254.425 2.35737 -3.0742 0
M  V30 2509 H 254.839 1.37969 -5.06028 0
M  V30 2510 H 256.313 3.03055 -4.6137 0
M  V30 2511 H 256.79 3.26807 -2.93417 0
M  V30 2512 H 257.396 1.85443 -3.82741 0
M  V30 2513 N 255.711 1.52812 0.385517 0
M  V30 2514 C 256.958 1.68026 1.1302 0
M  V30 2515 C 257.286 0.421934 1.89868 0
M  V30 2516 O 256.541 -0.595749 1.86412 0
M  V30 2517 C 256.84 2.86856 2.13187 0
M  V30 2518 C 256.506 4.24159 1.5297 0
M  V30 2519 C 255.168 4.61501 1.36274 0
M  V30 2520 C 257.52 5.09627 1.09223 0
M  V30 2521 C 254.848 5.81966 0.743837 0
M  V30 2522 C 257.2 6.30719 0.487411 0
M  V30 2523 C 255.864 6.6679 0.307777 0
M  V30 2524 H 255.134 0.614849 0.413571 0
M  V30 2525 H 257.781 1.86962 0.414405 0
M  V30 2526 H 256.086 2.6235 2.90998 0
M  V30 2527 H 257.783 2.95821 2.70722 0
M  V30 2528 H 254.373 3.94746 1.66954 0
M  V30 2529 H 258.557 4.81343 1.20922 0
M  V30 2530 H 253.813 6.08519 0.592891 0
M  V30 2531 H 257.987 6.96259 0.140143 0
M  V30 2532 H 255.614 7.60001 -0.173879 0
M  V30 2533 N 257.189 -0.644168 1.43834 0
M  V30 2534 C 258.6 -1.22554 1.40845 0
M  V30 2535 C 258.951 -1.9585 0.117115 0
M  V30 2536 O 258.076 -2.01734 -0.783086 0
M  V30 2537 C 258.671 -2.22907 2.55143 0
M  V30 2538 C 257.23 -2.76501 2.5539 0
M  V30 2539 C 256.377 -1.51287 2.32396 0
M  V30 2540 H 259.328 -0.43563 1.52604 0
M  V30 2541 H 259.349 -3.05259 2.2715 0
M  V30 2542 H 258.861 -1.69533 3.49114 0
M  V30 2543 H 256.962 -3.33914 1.65324 0
M  V30 2544 H 257.075 -3.23429 3.53455 0
M  V30 2545 H 255.439 -1.78957 1.81236 0
M  V30 2546 H 256.222 -0.998336 3.28463 0
M  V30 2547 N 258.668 -1.30515 -0.883378 0
M  V30 2548 C 259.631 -1.1701 -1.97082 0
M  V30 2549 C 260.631 -0.10089 -1.60483 0
M  V30 2550 O 261.821 -0.349127 -1.70666 0
M  V30 2551 C 258.953 -0.793045 -3.31547 0
M  V30 2552 H 260.146 -2.13622 -2.10489 0
M  V30 2553 H 257.699 -1.13935 -1.06998 0
M  V30 2554 H 258.434 0.172499 -3.23841 0
M  V30 2555 H 258.219 -1.56576 -3.5948 0
M  V30 2556 H 259.709 -0.722073 -4.1131 0
M  V30 2557 N 260.146 1.09593 -1.13257 0
M  V30 2558 C 261.392 1.82003 -0.89458 0
M  V30 2559 C 261.725 1.85402 0.577906 0
M  V30 2560 O 261 1.32099 1.42759 0
M  V30 2561 C 261.283 3.28237 -1.48096 0
M  V30 2562 C 261.136 3.3312 -3.02244 0
M  V30 2563 C 262.455 4.24871 -1.14774 0
M  V30 2564 H 259.574 0.66077 -0.326424 0
M  V30 2565 H 262.216 1.28389 -1.40058 0
M  V30 2566 H 260.366 3.74024 -1.05062 0
M  V30 2567 H 262.038 2.95748 -3.54021 0
M  V30 2568 H 260.281 2.72756 -3.37323 0
M  V30 2569 H 260.952 4.3613 -3.38371 0
M  V30 2570 H 263.428 3.87361 -1.51957 0
M  V30 2571 H 262.304 5.25532 -1.58452 0
M  V30 2572 H 262.565 4.42058 -0.0611849 0
M  V30 2573 N 261.624 0.925811 1.2754 0
M  V30 2574 C 262.554 0.440748 2.29303 0
M  V30 2575 C 263.535 -0.497971 1.62648 0
M  V30 2576 O 264.72 -0.403126 1.8997 0
M  V30 2577 C 261.85 -0.309048 3.45922 0
M  V30 2578 C 260.804 0.54166 4.24559 0
M  V30 2579 C 260.13 -0.337191 5.33636 0
M  V30 2580 C 261.43 1.80516 4.90114 0
M  V30 2581 H 263.124 1.29121 2.70126 0
M  V30 2582 H 260.67 0.622323 1.29858 0
M  V30 2583 H 262.623 -0.659315 4.1621 0
M  V30 2584 H 261.347 -1.19352 3.04011 0
M  V30 2585 H 260.006 0.874609 3.56014 0
M  V30 2586 H 259.654 -1.22056 4.87966 0
M  V30 2587 H 259.354 0.228497 5.87156 0
M  V30 2588 H 260.878 -0.683072 6.06767 0
M  V30 2589 H 262.292 1.52307 5.52698 0
M  V30 2590 H 260.689 2.3142 5.53683 0
M  V30 2591 H 261.759 2.52581 4.13921 0
M  V30 2592 N 263.102 -1.41638 0.69111 0
M  V30 2593 C 264.034 -2.29194 -0.0161523 0
M  V30 2594 C 265.047 -1.44549 -0.748955 0
M  V30 2595 O 266.236 -1.681 -0.6004 0
M  V30 2596 C 263.336 -3.22325 -1.0469 0
M  V30 2597 C 262.509 -4.35706 -0.384621 0
M  V30 2598 C 261.568 -5.09443 -1.31737 0
M  V30 2599 O 260.594 -5.63386 -0.811451 0
M  V30 2600 N 261.796 -5.16487 -2.64993 0
M  V30 2601 H 264.561 -2.90534 0.735523 0
M  V30 2602 H 262.122 -1.52742 0.53679 0
M  V30 2603 H 264.114 -3.68522 -1.67252 0
M  V30 2604 H 262.684 -2.62323 -1.70015 0
M  V30 2605 H 261.904 -3.91948 0.420804 0
M  V30 2606 H 263.192 -5.08743 0.0760765 0
M  V30 2607 H 262.59 -4.741 -3.08619 0
M  V30 2608 H 261.147 -5.66276 -3.22761 0
M  V30 2609 N 264.58 -0.43555 -1.51462 0
M  V30 2610 C 265.805 0.132627 -2.06976 0
M  V30 2611 C 266.23 1.35848 -1.30104 0
M  V30 2612 O 265.588 1.78112 -0.338493 0
M  V30 2613 C 265.636 0.43523 -3.57964 0
M  V30 2614 O 264.74 1.52198 -3.83288 0
M  V30 2615 H 264.081 0.00265 -0.663995 0
M  V30 2616 H 266.611 -0.616369 -1.95095 0
M  V30 2617 H 266.621 0.686206 -4.02188 0
M  V30 2618 H 265.296 -0.460739 -4.1334 0
M  V30 2619 H 263.873 1.2611 -3.50928 0
M  V30 2620 N 266.058 1.56714 -0.166846 0
M  V30 2621 C 267.283 2.01557 0.488833 0
M  V30 2622 C 267.708 1.0463 1.56314 0
M  V30 2623 O 267.066 0.0251304 1.81283 0
M  V30 2624 C 267.114 3.4503 1.04818 0
M  V30 2625 O 266.218 3.51163 2.16236 0
M  V30 2626 H 265.559 0.653516 0.117526 0
M  V30 2627 H 268.089 2.02818 -0.269421 0
M  V30 2628 H 268.099 3.84243 1.37191 0
M  V30 2629 H 266.774 4.15077 0.261572 0
M  V30 2630 H 265.351 3.23807 1.84942 0
M  V30 2631 N 267.536 -0.106894 1.57237 0
M  V30 2632 C 268.784 -0.810921 1.85117 0
M  V30 2633 C 269.105 -1.7984 0.753827 0
M  V30 2634 O 268.375 -1.94649 -0.221056 0
M  V30 2635 H 266.955 -0.302466 0.683025 0
M  V30 2636 H 269.617 -0.0913324 1.94686 0
M  V30 2637 H 268.713 -1.34875 2.81452 0
M  V30 2638 N 269.014 -1.53014 -0.377408 0
M  V30 2639 C 269.944 -1.81589 -1.46791 0
M  V30 2640 C 270.925 -0.668622 -1.56408 0
M  V30 2641 O 272.11 -0.917337 -1.71168 0
M  V30 2642 C 269.24 -1.99519 -2.8427 0
M  V30 2643 C 268.194 -3.15249 -2.89486 0
M  V30 2644 C 267.52 -3.18451 -4.29527 0
M  V30 2645 C 268.82 -4.54084 -2.58079 0
M  V30 2646 H 270.514 -2.7291 -1.23127 0
M  V30 2647 H 268.06 -1.31319 -0.590883 0
M  V30 2648 H 270.013 -2.18092 -3.60575 0
M  V30 2649 H 268.737 -1.04897 -3.09296 0
M  V30 2650 H 267.396 -2.96477 -2.15631 0
M  V30 2651 H 267.044 -2.2149 -4.5161 0
M  V30 2652 H 266.744 -3.962 -4.33934 0
M  V30 2653 H 268.268 -3.39193 -5.07721 0
M  V30 2654 H 269.682 -4.72899 -3.24098 0
M  V30 2655 H 268.079 -5.33987 -2.7382 0
M  V30 2656 H 269.149 -4.60006 -1.53372 0
M  V30 2657 N 270.492 0.636531 -1.44174 0
M  V30 2658 C 271.722 1.42146 -1.49927 0
M  V30 2659 C 272.13 1.88812 -0.121063 0
M  V30 2660 O 271.473 1.61126 0.882267 0
M  V30 2661 C 271.535 2.67883 -2.39748 0
M  V30 2662 C 271.199 2.43048 -3.8701 0
M  V30 2663 C 272.196 2.05216 -4.77684 0
M  V30 2664 C 269.881 2.56856 -4.3166 0
M  V30 2665 C 271.875 1.81512 -6.11009 0
M  V30 2666 C 269.562 2.32766 -5.65034 0
M  V30 2667 C 270.56 1.95152 -6.54526 0
M  V30 2668 O 270.248 1.71326 -7.85431 0
M  V30 2669 H 269.98 0.442567 -0.51099 0
M  V30 2670 H 272.534 0.786158 -1.8976 0
M  V30 2671 H 270.764 3.34032 -1.94832 0
M  V30 2672 H 272.453 3.29874 -2.36513 0
M  V30 2673 H 273.219 1.94111 -4.44462 0
M  V30 2674 H 269.098 2.85104 -3.62266 0
M  V30 2675 H 272.642 1.52077 -6.80822 0
M  V30 2676 H 268.539 2.43479 -5.97819 0
M  V30 2677 H 269.307 1.85616 -7.97176 0
M  V30 2678 N 271.97 1.30982 0.876444 0
M  V30 2679 C 273.195 1.23373 1.66715 0
M  V30 2680 C 273.62 -0.19885 1.87046 0
M  V30 2681 O 272.978 -1.1427 1.40756 0
M  V30 2682 C 273.026 1.97644 3.01611 0
M  V30 2683 O 272.13 1.30935 3.91062 0
M  V30 2684 H 271.471 0.426279 0.509099 0
M  V30 2685 H 274.001 1.72944 1.09323 0
M  V30 2686 H 274.011 2.06992 3.51594 0
M  V30 2687 H 272.686 3.01829 2.86133 0
M  V30 2688 H 271.263 1.29996 3.49507 0
M  V30 2689 N 273.449 -1.08991 1.13837 0
M  V30 2690 C 274.379 -2.17771 0.842507 0
M  V30 2691 C 275.36 -1.6892 -0.20001 0
M  V30 2692 O 276.545 -1.94113 -0.0579731 0
M  V30 2693 C 273.675 -3.4589 0.312644 0
M  V30 2694 C 272.629 -4.08099 1.28992 0
M  V30 2695 C 271.955 -5.31098 0.619623 0
M  V30 2696 C 273.255 -4.50077 2.65005 0
M  V30 2697 H 274.949 -2.42777 1.75213 0
M  V30 2698 H 272.495 -1.16682 0.843875 0
M  V30 2699 H 274.448 -4.21297 0.0933043 0
M  V30 2700 H 273.172 -3.20419 -0.632382 0
M  V30 2701 H 271.831 -3.34717 1.49533 0
M  V30 2702 H 271.479 -5.0191 -0.33102 0
M  V30 2703 H 271.179 -5.73674 1.27167 0
M  V30 2704 H 272.703 -6.09224 0.409669 0
M  V30 2705 H 274.117 -5.16688 2.48407 0
M  V30 2706 H 272.514 -5.03553 3.26427 0
M  V30 2707 H 273.584 -3.62257 3.22332 0
M  V30 2708 N 274.927 -0.932562 -1.27047 0
M  V30 2709 C 276.152 -0.591474 -1.98787 0
M  V30 2710 C 276.577 0.824601 -1.69062 0
M  V30 2711 O 275.935 1.5541 -0.933677 0
M  V30 2712 C 275.983 -0.829808 -3.50922 0
M  V30 2713 O 275.087 0.102266 -4.12273 0
M  V30 2714 H 274.428 -0.227185 -0.623926 0
M  V30 2715 H 276.958 -1.25314 -1.61733 0
M  V30 2716 H 276.968 -0.747292 -4.01098 0
M  V30 2717 H 275.643 -1.86201 -3.7189 0
M  V30 2718 H 274.22 -0.0305761 -3.72887 0
M  V30 2719 N 276.405 1.4127 -0.698611 0
M  V30 2720 C 277.63 2.06024 -0.238512 0
M  V30 2721 C 278.055 1.5224 1.10475 0
M  V30 2722 O 277.413 0.650623 1.69223 0
M  V30 2723 C 277.461 3.59988 -0.209952 0
M  V30 2724 O 276.565 4.04282 0.814235 0
M  V30 2725 H 275.906 0.653829 -0.115775 0
M  V30 2726 H 278.436 1.8098 -0.954326 0
M  V30 2727 H 278.446 4.07979 -0.0418436 0
M  V30 2728 H 277.121 3.98503 -1.1903 0
M  V30 2729 H 275.698 3.6779 0.615234 0
M  V30 2730 N 277.883 0.443576 1.51229 0
M  V30 2731 C 279.129 -0.120975 2.02439 0
M  V30 2732 C 279.462 -1.41815 1.32674 0
M  V30 2733 O 278.737 -1.89373 0.443622 0
M  V30 2734 C 279.02 -0.333291 3.58554 0
M  V30 2735 C 278.873 0.982968 4.38928 0
M  V30 2736 C 280.192 -1.10028 4.26124 0
M  V30 2737 H 277.311 -0.0424923 0.735774 0
M  V30 2738 H 279.953 0.583794 1.80809 0
M  V30 2739 H 278.103 -0.933614 3.77115 0
M  V30 2740 H 279.775 1.61775 4.32003 0
M  V30 2741 H 278.018 1.58611 4.03763 0
M  V30 2742 H 278.689 0.788379 5.46341 0
M  V30 2743 H 281.165 -0.591711 4.11871 0
M  V30 2744 H 280.041 -1.21761 5.35225 0
M  V30 2745 H 280.302 -2.12996 3.87408 0
M  V30 2746 N 279.361 -1.56624 0.175154 0
M  V30 2747 C 280.607 -1.9729 -0.469506 0
M  V30 2748 C 280.94 -1.06128 -1.62636 0
M  V30 2749 O 280.215 -0.109183 -1.94193 0
M  V30 2750 C 280.498 -3.47375 -0.948804 0
M  V30 2751 C 280.351 -4.49317 0.208491 0
M  V30 2752 C 281.67 -4.00652 -1.82116 0
M  V30 2753 H 278.789 -0.717317 -0.16919 0
M  V30 2754 H 281.431 -1.88184 0.262062 0
M  V30 2755 H 279.581 -3.55267 -1.57219 0
M  V30 2756 H 281.253 -4.53482 0.845682 0
M  V30 2757 H 279.496 -4.25121 0.863395 0
M  V30 2758 H 280.167 -5.51741 -0.169059 0
M  V30 2759 H 282.643 -3.95416 -1.2956 0
M  V30 2760 H 281.519 -5.06075 -2.12554 0
M  V30 2761 H 281.78 -3.44699 -2.7683 0
M  V30 2762 N 280.839 0.0985539 -1.57292 0
M  V30 2763 C 282.067 0.816318 -1.90115 0
M  V30 2764 C 282.482 1.72451 -0.768509 0
M  V30 2765 O 281.839 1.80643 0.259687 0
M  V30 2766 C 281.89 1.63259 -3.22535 0
M  V30 2767 O 281.611 0.760934 -4.31441 0
M  V30 2768 C 283.112 2.45372 -3.69199 0
M  V30 2769 H 280.332 0.233595 -0.629027 0
M  V30 2770 H 282.876 0.0768229 -2.04356 0
M  V30 2771 H 281.031 2.32463 -3.09903 0
M  V30 2772 H 281.445 1.32595 -5.07463 0
M  V30 2773 H 282.919 2.98144 -4.64558 0
M  V30 2774 H 283.396 3.23677 -2.96867 0
M  V30 2775 H 284.002 1.81373 -3.84687 0
M  V30 2776 N 282.317 1.53212 0.369288 0
M  V30 2777 C 283.563 1.69466 1.11397 0
M  V30 2778 C 283.896 0.443257 1.89074 0
M  V30 2779 O 283.171 -0.559386 1.86282 0
M  V30 2780 C 283.454 2.9422 2.07621 0
M  V30 2781 C 283.307 4.29508 1.33577 0
M  V30 2782 C 284.626 3.14565 3.07794 0
M  V30 2783 H 281.745 0.616667 0.403597 0
M  V30 2784 H 284.387 1.85845 0.395179 0
M  V30 2785 H 282.537 2.80387 2.68916 0
M  V30 2786 H 284.209 4.55147 0.750955 0
M  V30 2787 H 282.452 4.29088 0.637618 0
M  V30 2788 H 283.123 5.12926 2.03989 0
M  V30 2789 H 285.599 3.2756 2.56601 0
M  V30 2790 H 284.475 4.03297 3.72348 0
M  V30 2791 H 284.736 2.29675 3.77759 0
M  V30 2792 N 283.795 -0.628877 1.44509 0
M  V30 2793 C 285.206 -1.21054 1.42137 0
M  V30 2794 C 285.557 -1.95715 0.137881 0
M  V30 2795 O 284.682 -2.02554 -0.761645 0
M  V30 2796 C 285.277 -2.20189 2.57493 0
M  V30 2797 C 283.836 -2.73777 2.58308 0
M  V30 2798 C 282.983 -1.48813 2.33987 0
M  V30 2799 H 285.934 -0.41942 1.53057 0
M  V30 2800 H 285.955 -3.02833 2.30375 0
M  V30 2801 H 285.467 -1.6582 3.50892 0
M  V30 2802 H 283.568 -3.32142 1.68856 0
M  V30 2803 H 283.681 -3.19662 3.56865 0
M  V30 2804 H 282.045 -1.77024 1.83124 0
M  V30 2805 H 282.828 -0.963442 3.29504 0
M  V30 2806 N 285.273 -1.31445 -0.869486 0
M  V30 2807 C 286.498 -1.24256 -1.66058 0
M  V30 2808 C 286.923 0.188928 -1.87149 0
M  V30 2809 O 286.281 1.13522 -1.4136 0
M  V30 2810 C 286.329 -1.9924 -3.00559 0
M  V30 2811 O 285.433 -1.33007 -3.90362 0
M  V30 2812 H 284.774 -0.428973 -0.506831 0
M  V30 2813 H 287.304 -1.73521 -1.08404 0
M  V30 2814 H 287.314 -2.08854 -3.50491 0
M  V30 2815 H 285.989 -3.03342 -2.84528 0
M  V30 2816 H 284.566 -1.31848 -3.48813 0
M  V30 2817 N 286.751 1.08385 -1.14413 0
M  V30 2818 C 287.976 1.85057 -0.936413 0
M  V30 2819 C 288.401 1.81055 0.509971 0
M  V30 2820 O 287.759 1.1958 1.36273 0
M  V30 2821 C 287.807 3.30505 -1.44217 0
M  V30 2822 O 286.911 4.07491 -0.634409 0
M  V30 2823 H 286.252 0.573425 -0.334784 0
M  V30 2824 H 288.782 1.36799 -1.52142 0
M  V30 2825 H 288.792 3.81348 -1.45043 0
M  V30 2826 H 287.467 3.32734 -2.49522 0
M  V30 2827 H 286.044 3.66368 -0.694902 0
M  V30 2828 N 288.23 0.939286 1.26551 0
M  V30 2829 C 289.455 0.602008 1.98471 0
M  V30 2830 C 289.88 -0.815624 1.69497 0
M  V30 2831 O 289.238 -1.54912 0.941905 0
M  V30 2832 C 289.286 0.848407 3.50477 0
M  V30 2833 O 288.39 -0.0804009 4.12322 0
M  V30 2834 H 287.731 0.23049 0.622712 0
M  V30 2835 H 290.261 1.2617 1.61066 0
M  V30 2836 H 290.271 0.768553 4.00696 0
M  V30 2837 H 288.946 1.88171 3.70897 0
M  V30 2838 H 287.523 0.0503508 3.72866 0
M  V30 2839 N 289.708 -1.40897 0.706093 0
M  V30 2840 C 290.638 -2.33418 0.0620085 0
M  V30 2841 C 291.619 -1.52385 -0.755827 0
M  V30 2842 O 292.804 -1.80886 -0.706674 0
M  V30 2843 C 289.934 -3.36293 -0.867445 0
M  V30 2844 C 288.888 -4.27716 -0.155932 0
M  V30 2845 C 288.214 -5.2105 -1.20046 0
M  V30 2846 C 289.514 -5.12944 0.984149 0
M  V30 2847 H 291.208 -2.87527 0.83477 0
M  V30 2848 H 288.754 -1.38249 0.402875 0
M  V30 2849 H 290.707 -3.99949 -1.32735 0
M  V30 2850 H 289.431 -2.80556 -1.67199 0
M  V30 2851 H 288.09 -3.65498 0.284047 0
M  V30 2852 H 287.738 -4.61624 -1.99781 0
M  V30 2853 H 287.438 -5.83056 -0.729328 0
M  V30 2854 H 288.962 -5.87584 -1.66066 0
M  V30 2855 H 290.376 -5.70109 0.604048 0
M  V30 2856 H 288.773 -5.83945 1.38304 0
M  V30 2857 H 289.843 -4.49485 1.81911 0
M  V30 2858 N 291.186 -0.45159 -1.50991 0
M  V30 2859 C 292.434 0.109857 -2.01801 0
M  V30 2860 C 292.755 1.41958 -1.3369 0
M  V30 2861 O 292.025 1.9003 -0.475951 0
M  V30 2862 H 290.605 0.0435884 -0.745727 0
M  V30 2863 H 293.267 -0.597557 -1.85514 0
M  V30 2864 H 292.363 0.275489 -3.10882 0
M  V30 2865 N 292.664 1.56529 -0.183458 0
M  V30 2866 C 293.892 2.01623 0.464285 0
M  V30 2867 C 294.307 1.06366 1.55986 0
M  V30 2868 O 293.664 0.0665398 1.82379 0
M  V30 2869 C 293.715 3.46475 1.03139 0
M  V30 2870 O 293.436 4.38095 -0.0204675 0
M  V30 2871 C 294.937 4.0703 1.75617 0
M  V30 2872 H 292.157 0.660596 0.117704 0
M  V30 2873 H 294.701 2.02451 -0.288751 0
M  V30 2874 H 292.856 3.46383 1.73486 0
M  V30 2875 H 293.27 5.22973 0.399952 0
M  V30 2876 H 294.744 5.10271 2.10542 0
M  V30 2877 H 295.221 3.49819 2.65563 0
M  V30 2878 H 295.827 4.1086 1.09882 0
M  V30 2879 N 294.142 -0.090211 1.57342 0
M  V30 2880 C 295.074 -1.13541 1.99101 0
M  V30 2881 C 296.087 -1.3604 0.894258 0
M  V30 2882 O 297.276 -1.34606 1.17233 0
M  V30 2883 C 294.376 -2.49001 2.29895 0
M  V30 2884 C 293.549 -2.46712 3.61182 0
M  V30 2885 C 292.608 -3.64136 3.79857 0
M  V30 2886 O 291.634 -3.46405 4.51655 0
M  V30 2887 N 292.836 -4.83802 3.20806 0
M  V30 2888 H 295.601 -0.779942 2.89373 0
M  V30 2889 H 293.162 -0.279125 1.59476 0
M  V30 2890 H 295.154 -3.26166 2.39578 0
M  V30 2891 H 293.724 -2.76619 1.45605 0
M  V30 2892 H 292.944 -1.55058 3.62423 0
M  V30 2893 H 294.232 -2.42265 4.4742 0
M  V30 2894 H 293.63 -5.01112 2.62494 0
M  V30 2895 H 292.187 -5.58543 3.35966 0
M  V30 2896 N 295.62 -1.53406 -0.361157 0
M  V30 2897 C 296.848 -1.73717 -1.12383 0
M  V30 2898 C 297.263 -0.468161 -1.82904 0
M  V30 2899 O 296.62 0.559198 -1.73722 0
M  V30 2900 C 296.671 -2.90558 -2.15078 0
M  V30 2901 O 296.392 -4.12549 -1.47428 0
M  V30 2902 C 297.893 -3.22777 -3.03858 0
M  V30 2903 H 295.113 -0.580896 -0.335858 0
M  V30 2904 H 297.657 -2.00167 -0.418728 0
M  V30 2905 H 295.812 -2.66489 -2.8118 0
M  V30 2906 H 296.226 -4.78009 -2.15887 0
M  V30 2907 H 297.7 -4.07927 -3.71887 0
M  V30 2908 H 298.177 -2.38329 -3.68912 0
M  V30 2909 H 298.783 -3.48787 -2.43367 0
M  V30 2910 N 297.098 0.621204 -1.44841 0
M  V30 2911 C 298.328 1.40548 -1.51426 0
M  V30 2912 C 298.736 1.88673 -0.141083 0
M  V30 2913 O 298.079 1.62053 0.865128 0
M  V30 2914 C 298.141 2.65325 -2.42576 0
M  V30 2915 C 297.805 2.3893 -3.89566 0
M  V30 2916 C 298.802 2.00138 -4.79834 0
M  V30 2917 C 296.487 2.52263 -4.3436 0
M  V30 2918 C 298.481 1.75021 -6.129 0
M  V30 2919 C 296.168 2.2676 -5.67471 0
M  V30 2920 C 297.166 1.88199 -6.56559 0
M  V30 2921 O 296.854 1.62986 -7.87204 0
M  V30 2922 H 296.586 0.437122 -0.515655 0
M  V30 2923 H 299.14 0.765987 -1.90583 0
M  V30 2924 H 297.37 3.31947 -1.98364 0
M  V30 2925 H 299.059 3.27347 -2.39998 0
M  V30 2926 H 299.825 1.89386 -4.46495 0
M  V30 2927 H 295.704 2.81246 -3.65269 0
M  V30 2928 H 299.248 1.44848 -6.82396 0
M  V30 2929 H 295.145 2.37125 -6.00368 0
M  V30 2930 H 295.913 1.7715 -7.991 0
M  V30 2931 N 298.576 1.31904 0.862503 0
M  V30 2932 C 299.825 1.21373 1.61094 0
M  V30 2933 C 300.138 -0.22504 1.94301 0
M  V30 2934 O 301.344 -0.452121 2.67709 0
M  V30 2935 C 299.8 2.12525 2.9045 0
M  V30 2936 C 299.408 3.61441 2.64697 0
M  V30 2937 C 301.152 2.10813 3.68454 0
M  V30 2938 C 299.059 4.44578 3.90006 0
M  V30 2939 H 297.989 0.450705 0.604468 0
M  V30 2940 H 300.64 1.56811 0.953027 0
M  V30 2941 H 299.022 1.69994 3.57656 0
M  V30 2942 H 300.196 4.12264 2.05851 0
M  V30 2943 H 298.511 3.65205 2.00036 0
M  V30 2944 H 301.108 2.70167 4.61426 0
M  V30 2945 H 301.451 1.09713 4.01583 0
M  V30 2946 H 301.984 2.51583 3.08141 0
M  V30 2947 H 298.723 5.46461 3.62023 0
M  V30 2948 H 298.243 3.98508 4.48276 0
M  V30 2949 H 299.922 4.57176 4.5782 0
M  V30 2950 N 300.054 -1.07777 1.14986 0
M  V30 2951 C 301.294 -1.81888 0.932527 0
M  V30 2952 C 301.658 -1.84509 -0.531064 0
M  V30 2953 O 302.859 -2.54448 -0.866577 0
M  V30 2954 C 301.13 -3.23244 1.52473 0
M  V30 2955 S 302.689 -4.14154 1.44989 0
M  V30 2956 H 299.507 -0.626752 0.335712 0
M  V30 2957 H 302.109 -1.29503 1.46455 0
M  V30 2958 H 300.813 -3.18922 2.58296 0
M  V30 2959 H 300.344 -3.80704 0.991381 0
M  V30 2960 H 302.359 -4.94247 0.439799 0
M  V30 2961 N 301.532 -0.945985 -1.26051 0
M  V30 2962 C 302.48 -0.450259 -2.282 0
M  V30 2963 C 303.474 0.47497 -1.62605 0
M  V30 2964 O 304.68 0.352653 -1.76512 0
M  V30 2965 H 301.055 -0.127081 -0.741184 0
M  V30 2966 H 303.026 -1.32422 -2.67408 0
M  V30 2967 C 301.775 0.26467 -3.46691 0
M  V30 2968 H 301.098 -0.438123 -3.97392 0
M  V30 2969 H 302.538 0.575678 -4.20074 0
M  V30 2970 C 300.997 1.48416 -3.02447 0
M  V30 2971 O 301.527 2.58227 -3.07704 0
M  V30 2972 N 299.733 1.34243 -2.57735 0
M  V30 2973 H 299.28 0.448994 -2.53657 0
M  V30 2974 H 299.238 2.15957 -2.28495 0
M  V30 2975 N 303.011 1.40521 -0.713556 0
M  V30 2976 C 304.257 2.01221 -0.252564 0
M  V30 2977 C 304.59 1.56444 1.1506 0
M  V30 2978 O 303.865 0.783597 1.78017 0
M  V30 2979 C 304.148 3.58582 -0.330332 0
M  V30 2980 C 304.001 4.13437 -1.77173 0
M  V30 2981 C 305.32 4.39079 0.299641 0
M  V30 2982 H 302.439 0.731077 -0.0932471 0
M  V30 2983 H 305.081 1.67026 -0.905673 0
M  V30 2984 H 303.231 3.87844 0.225737 0
M  V30 2985 H 304.903 3.9498 -2.38303 0
M  V30 2986 H 303.146 3.67801 -2.3001 0
M  V30 2987 H 303.817 5.22597 -1.77755 0
M  V30 2988 H 306.293 4.15735 -0.174139 0
M  V30 2989 H 305.169 5.4848 0.214771 0
M  V30 2990 H 305.43 4.19915 1.38288 0
M  V30 2991 N 304.489 0.459591 1.5075 0
M  V30 2992 C 305.437 -0.354678 2.2988 0
M  V30 2993 C 306.431 -1.00086 1.36672 0
M  V30 2994 O 307.637 -0.933277 1.53915 0
M  V30 2995 H 304.012 -0.13321 0.740107 0
M  V30 2996 H 305.983 0.333269 2.96533 0
M  V30 2997 C 304.732 -1.43073 3.169 0
M  V30 2998 H 304.055 -0.942882 3.88523 0
M  V30 2999 H 305.495 -1.97328 3.75284 0
M  V30 3000 C 303.954 -2.42633 2.33732 0
M  V30 3001 O 304.484 -3.47658 2.01238 0
M  V30 3002 N 302.69 -2.14066 1.9653 0
M  V30 3003 H 302.237 -1.28685 2.23155 0
M  V30 3004 H 302.195 -2.80917 1.41185 0
M  V30 3005 N 305.967 -1.56429 0.191757 0
M  V30 3006 C 306.917 -2.15548 -0.743184 0
M  V30 3007 C 307.901 -1.09531 -1.17863 0
M  V30 3008 O 309.093 -1.35602 -1.13759 0
M  V30 3009 C 306.222 -2.81577 -1.96391 0
M  V30 3010 C 305.308 -3.9478 -1.54951 0
M  V30 3011 N 305.699 -4.98677 -0.845876 0
M  V30 3012 C 303.997 -4.06319 -1.83905 0
M  V30 3013 C 304.698 -5.78183 -0.638724 0
M  V30 3014 N 303.674 -5.30495 -1.18643 0
M  V30 3015 H 307.476 -2.9324 -0.196839 0
M  V30 3016 H 304.99 -1.62398 -0.0081603 0
M  V30 3017 H 306.987 -3.22321 -2.64415 0
M  V30 3018 H 305.647 -2.05371 -2.51501 0
M  V30 3019 H 306.658 -5.15464 -0.501704 0
M  V30 3020 H 303.335 -3.41238 -2.40548 0
M  V30 3021 H 304.725 -6.71851 -0.0807929 0
M  V30 3022 N 307.445 0.0818655 -1.57387 0
M  V30 3023 C 308.392 1.09834 -2.0299 0
M  V30 3024 C 309.362 1.39043 -0.908639 0
M  V30 3025 O 310.547 1.50282 -1.17559 0
M  V30 3026 C 307.687 2.40971 -2.47037 0
M  V30 3027 C 306.8 2.18379 -3.7274 0
M  V30 3028 C 305.935 3.43008 -4.0561 0
M  V30 3029 C 304.974 3.15736 -5.24383 0
M  V30 3030 N 304.111 4.32667 -5.52941 0
M  V30 3031 H 308.951 0.702472 -2.89602 0
M  V30 3032 H 306.488 0.33531 -1.43227 0
M  V30 3033 H 308.446 3.1752 -2.70623 0
M  V30 3034 H 307.076 2.78379 -1.63417 0
M  V30 3035 H 306.128 1.32569 -3.56552 0
M  V30 3036 H 307.44 1.94227 -4.59431 0
M  V30 3037 H 306.594 4.27958 -4.30043 0
M  V30 3038 H 305.333 3.70225 -3.17466 0
M  V30 3039 H 304.338 2.2918 -4.99757 0
M  V30 3040 H 305.563 2.8985 -6.14136 0
M  V30 3041 H 303.509 4.59935 -4.67756 0
M  V30 3042 H 303.426 4.11753 -6.34031 0
M  V30 3043 H 304.694 5.18644 -5.81918 0
M  V30 3044 N 308.923 1.53595 0.353017 0
M  V30 3045 C 310.334 1.61937 0.929153 0
M  V30 3046 C 310.685 0.494686 1.89861 0
M  V30 3047 O 309.81 -0.377017 2.1309 0
M  V30 3048 C 310.405 2.93526 1.69199 0
M  V30 3049 C 308.964 3.04161 2.21727 0
M  V30 3050 C 308.111 2.57322 1.03348 0
M  V30 3051 H 311.062 1.58155 0.131431 0
M  V30 3052 H 311.083 2.82034 2.55416 0
M  V30 3053 H 310.595 3.75362 0.986144 0
M  V30 3054 H 308.696 2.26938 2.95516 0
M  V30 3055 H 308.809 4.09465 2.48748 0
M  V30 3056 H 307.173 2.12499 1.40414 0
M  V30 3057 H 307.956 3.41588 0.342428 0
M  V30 3058 N 310.401 -0.613514 1.45168 0
M  V30 3059 C 311.626 -1.40437 1.52618 0
M  V30 3060 C 312.051 -1.87438 0.157707 0
M  V30 3061 O 311.409 -1.59791 -0.856537 0
M  V30 3062 C 311.457 -2.58894 2.51011 0
M  V30 3063 O 310.561 -3.59326 2.02382 0
M  V30 3064 H 309.902 -0.419506 0.514695 0
M  V30 3065 H 312.432 -0.747215 1.90467 0
M  V30 3066 H 312.442 -3.06214 2.69624 0
M  V30 3067 H 311.117 -2.24032 3.50403 0
M  V30 3068 H 309.694 -3.18695 1.93618 0
M  V30 3069 N 311.879 -1.3236 -0.855495 0
M  V30 3070 C 312.827 -1.2118 -1.9854 0
M  V30 3071 C 313.821 -0.116788 -1.68997 0
M  V30 3072 O 315.027 -0.279657 -1.77814 0
M  V30 3073 H 311.402 -0.375608 -0.651477 0
M  V30 3074 H 313.373 -2.16743 -2.05098 0
M  V30 3075 C 312.122 -0.950849 -3.34446 0
M  V30 3076 H 311.445 -1.78563 -3.57708 0
M  V30 3077 H 312.885 -0.912863 -4.14057 0
M  V30 3078 C 311.344 0.346404 -3.35114 0
M  V30 3079 O 311.874 1.35855 -3.7803 0
M  V30 3080 N 310.08 0.36808 -2.88259 0
M  V30 3081 H 309.627 -0.456102 -2.5353 0
M  V30 3082 H 309.585 1.23591 -2.89089 0
M  V30 3083 N 313.357 1.07166 -1.15556 0
M  V30 3084 C 314.585 1.83514 -0.955519 0
M  V30 3085 C 315 1.82163 0.49621 0
M  V30 3086 O 314.357 1.23441 1.34419 0
M  V30 3087 C 314.408 3.30515 -1.46432 0
M  V30 3088 O 314.129 3.31937 -2.85918 0
M  V30 3089 C 315.63 4.23625 -1.30603 0
M  V30 3090 H 312.85 0.578926 -0.339244 0
M  V30 3091 H 315.394 1.35265 -1.53374 0
M  V30 3092 H 313.549 3.76106 -0.928584 0
M  V30 3093 H 313.963 4.23794 -3.09029 0
M  V30 3094 H 315.437 5.24831 -1.71047 0
M  V30 3095 H 315.914 4.38485 -0.250441 0
M  V30 3096 H 316.52 3.83871 -1.83094 0
M  V30 3097 N 314.835 0.952656 1.25548 0
M  V30 3098 C 315.782 0.47008 2.25962 0
M  V30 3099 C 316.752 -0.476384 1.59122 0
M  V30 3100 O 317.937 -0.39007 1.8677 0
M  V30 3101 C 315.077 -0.247881 3.44209 0
M  V30 3102 C 314.19 0.735591 4.25691 0
M  V30 3103 C 313.325 -0.0047306 5.312 0
M  V30 3104 C 312.364 0.969805 6.04368 0
M  V30 3105 N 311.501 0.260486 7.01617 0
M  V30 3106 H 316.341 1.33126 2.66611 0
M  V30 3107 H 313.878 0.66765 1.31076 0
M  V30 3108 H 315.836 -0.680695 4.1161 0
M  V30 3109 H 314.466 -1.07312 3.0444 0
M  V30 3110 H 313.518 1.28689 3.57971 0
M  V30 3111 H 314.83 1.47934 4.76358 0
M  V30 3112 H 313.984 -0.496275 6.04667 0
M  V30 3113 H 312.723 -0.781282 4.81401 0
M  V30 3114 H 311.728 1.47237 5.29718 0
M  V30 3115 H 312.953 1.74655 6.56256 0
M  V30 3116 H 310.899 -0.497364 6.54112 0
M  V30 3117 H 310.816 0.943362 7.50091 0
M  V30 3118 H 312.084 -0.209587 7.79218 0
M  V30 3119 N 316.313 -1.40141 0.720998 0
M  V30 3120 C 317.559 -2.01084 0.263231 0
M  V30 3121 C 317.892 -1.57052 -1.14229 0
M  V30 3122 O 317.167 -0.793027 -1.77599 0
M  V30 3123 C 317.45 -3.58401 0.349344 0
M  V30 3124 C 317.303 -4.12491 1.79363 0
M  V30 3125 C 318.622 -4.39231 -0.276351 0
M  V30 3126 H 315.741 -0.730572 0.0971228 0
M  V30 3127 H 318.383 -1.66543 0.914518 0
M  V30 3128 H 316.533 -3.87958 -0.205165 0
M  V30 3129 H 318.205 -3.93711 2.40394 0
M  V30 3130 H 316.448 -3.66576 2.31958 0
M  V30 3131 H 317.119 -5.21646 1.80524 0
M  V30 3132 H 319.595 -4.15637 0.196184 0
M  V30 3133 H 318.471 -5.48586 -0.185681 0
M  V30 3134 H 318.732 -4.20643 -1.36059 0
M  V30 3135 N 317.792 -0.46758 -1.50504 0
M  V30 3136 C 319.069 0.15003 -1.95024 0
M  V30 3137 C 319.449 1.57304 -1.40779 0
M  V30 3138 O 318.797 2.20281 -0.607319 0
M  V30 3139 C 319.007 0.0969324 -3.48865 0
M  V30 3140 C 320.355 0.287565 -4.23625 0
M  V30 3141 O 321.379 0.173678 -3.55776 0
M  V30 3142 O 320.238 0.517186 -5.44047 0
M  V30 3143 H 317.332 0.113582 -0.819163 0
M  V30 3144 H 319.878 -0.52773 -1.61286 0
M  V30 3145 H 318.65 -0.896732 -3.80886 0
M  V30 3146 H 318.273 0.816303 -3.8913 0
M  V30 3147 N 319.27 1.56325 -0.20005 0
M  V30 3148 C 320.217 2.1932 0.718833 0
M  V30 3149 C 321.187 1.14198 1.20615 0
M  V30 3150 O 322.372 1.42469 1.26914 0
M  V30 3151 C 319.512 2.86041 1.93066 0
M  V30 3152 C 318.625 4.05702 1.48425 0
M  V30 3153 C 317.76 4.60266 2.65196 0
M  V30 3154 C 316.799 5.72273 2.17185 0
M  V30 3155 N 315.936 6.21221 3.27152 0
M  V30 3156 H 320.776 2.97486 0.17489 0
M  V30 3157 H 318.313 1.46911 0.0745794 0
M  V30 3158 H 320.271 3.22897 2.64184 0
M  V30 3159 H 318.901 2.1043 2.44783 0
M  V30 3160 H 317.953 3.74475 0.668755 0
M  V30 3161 H 319.265 4.86699 1.09204 0
M  V30 3162 H 318.419 4.99453 3.4443 0
M  V30 3163 H 317.158 3.78386 3.07693 0
M  V30 3164 H 316.163 5.3261 1.36407 0
M  V30 3165 H 317.388 6.55974 1.75713 0
M  V30 3166 H 315.334 5.42263 3.69171 0
M  V30 3167 H 315.251 6.97284 2.92116 0
M  V30 3168 H 316.519 6.65063 4.06585 0
M  V30 3169 N 320.748 -0.0735177 1.57428 0
M  V30 3170 C 322.164 -0.428264 1.53747 0
M  V30 3171 C 322.364 -1.79272 0.91998 0
M  V30 3172 O 321.42 -2.47051 0.521745 0
M  V30 3173 C 322.733 -0.370914 2.98404 0
M  V30 3174 C 324.281 -0.451224 3.0973 0
M  V30 3175 C 324.756 -0.4238 4.56035 0
M  V30 3176 N 326.247 -0.483925 4.60665 0
M  V30 3177 C 326.982 -0.484891 5.71346 0
M  V30 3178 N 326.478 -0.440775 6.91396 0
M  V30 3179 N 328.271 -0.531319 5.59583 0
M  V30 3180 H 320.422 0.819949 1.95935 0
M  V30 3181 H 322.685 0.307493 0.896745 0
M  V30 3182 H 322.391 0.564956 3.47133 0
M  V30 3183 H 322.265 -1.18176 3.5821 0
M  V30 3184 H 324.652 -1.37752 2.60976 0
M  V30 3185 H 324.733 0.388167 2.52838 0
M  V30 3186 H 324.377 0.498638 5.05446 0
M  V30 3187 H 324.307 -1.2807 5.10789 0
M  V30 3188 H 326.798 -0.522338 3.74273 0
M  V30 3189 H 327.111 -0.44539 7.71515 0
M  V30 3190 H 325.456 -0.40749 6.93804 0
M  V30 3191 H 328.647 -0.563464 4.64696 0
M  V30 3192 H 328.82 -0.528603 6.4584 0
M  V30 3193 N 322.226 -1.5378 -0.344866 0
M  V30 3194 C 323.472 -1.71216 -1.08687 0
M  V30 3195 C 323.805 -0.473281 -1.88345 0
M  V30 3196 O 323.08 0.52968 -1.87149 0
M  V30 3197 C 323.363 -2.97486 -2.02914 0
M  V30 3198 C 323.216 -4.31579 -1.26727 0
M  V30 3199 C 324.535 -3.19422 -3.0275 0
M  V30 3200 H 321.654 -0.62301 -0.393735 0
M  V30 3201 H 324.296 -1.8645 -0.365563 0
M  V30 3202 H 322.446 -2.84629 -2.64421 0
M  V30 3203 H 324.118 -4.56284 -0.67845 0
M  V30 3204 H 322.361 -4.30049 -0.569273 0
M  V30 3205 H 323.032 -5.16106 -1.95803 0
M  V30 3206 H 325.508 -3.316 -2.51357 0
M  V30 3207 H 324.384 -4.09169 -3.65885 0
M  V30 3208 H 324.645 -2.35656 -3.74057 0
M  V30 3209 N 323.704 0.605807 -1.45491 0
M  V30 3210 C 324.614 1.74466 -1.56839 0
M  V30 3211 C 325.63 1.68006 -0.452772 0
M  V30 3212 O 326.806 1.8833 -0.713708 0
M  V30 3213 C 323.871 3.10931 -1.53371 0
M  V30 3214 C 322.932 3.28832 -2.75986 0
M  V30 3215 C 322.165 4.58787 -2.72673 0
M  V30 3216 O 322.388 5.4122 -1.80102 0
M  V30 3217 O 321.322 4.79438 -3.63899 0
M  V30 3218 H 325.148 1.67843 -2.53106 0
M  V30 3219 H 322.733 0.770108 -1.28022 0
M  V30 3220 H 324.615 3.92233 -1.54051 0
M  V30 3221 H 323.29 3.18042 -0.602572 0
M  V30 3222 H 322.197 2.47112 -2.80867 0
M  V30 3223 H 323.53 3.26599 -3.68231 0
M  V30 3224 N 325.182 1.32811 0.848464 0
M  V30 3225 C 326.593 1.21315 1.41914 0
M  V30 3226 C 326.944 -0.171847 1.95446 0
M  V30 3227 O 326.069 -1.07093 1.88043 0
M  V30 3228 C 326.664 2.19631 2.57968 0
M  V30 3229 C 325.223 2.12003 3.11017 0
M  V30 3230 C 324.37 2.07651 1.83783 0
M  V30 3231 H 327.321 1.44549 0.655071 0
M  V30 3232 H 327.342 1.79845 3.35315 0
M  V30 3233 H 326.854 3.20423 2.18976 0
M  V30 3234 H 324.955 1.14481 3.54577 0
M  V30 3235 H 325.068 3.02111 3.71841 0
M  V30 3236 H 323.432 1.52983 2.03638 0
M  V30 3237 H 324.215 3.10235 1.47 0
M  V30 3238 N 326.66 -1.06551 1.16123 0
M  V30 3239 C 327.607 -2.13961 0.865414 0
M  V30 3240 C 328.577 -1.65066 -0.185055 0
M  V30 3241 O 329.762 -1.90732 -0.05083 0
M  V30 3242 C 326.902 -3.43113 0.369776 0
M  V30 3243 C 326.015 -4.05756 1.48276 0
M  V30 3244 C 325.15 -5.22773 0.942414 0
M  V30 3245 C 324.189 -5.77395 2.03179 0
M  V30 3246 N 323.326 -6.85731 1.50721 0
M  V30 3247 H 328.166 -2.38605 1.78527 0
M  V30 3248 H 325.703 -1.17072 0.890646 0
M  V30 3249 H 327.661 -4.17151 0.0640643 0
M  V30 3250 H 326.291 -3.18695 -0.513143 0
M  V30 3251 H 325.343 -3.29292 1.9045 0
M  V30 3252 H 326.655 -4.42351 2.30493 0
M  V30 3253 H 325.809 -6.03827 0.589729 0
M  V30 3254 H 324.548 -4.87618 0.0895191 0
M  V30 3255 H 323.553 -4.94981 2.3932 0
M  V30 3256 H 324.778 -6.14603 2.8886 0
M  V30 3257 H 322.724 -6.52499 0.676811 0
M  V30 3258 H 322.641 -7.21254 2.26557 0
M  V30 3259 H 323.909 -7.7047 1.18303 0
M  V30 3260 N 328.138 -0.959301 -1.25041 0
M  V30 3261 C 329.363 -0.633507 -1.97488 0
M  V30 3262 C 329.788 0.788555 -1.70773 0
M  V30 3263 O 329.146 1.53394 -0.966431 0
M  V30 3264 C 329.194 -0.904057 -3.49083 0
M  V30 3265 O 328.298 0.0147939 -4.12397 0
M  V30 3266 H 327.639 -0.240368 -0.618966 0
M  V30 3267 H 330.169 -1.28717 -1.59038 0
M  V30 3268 H 330.179 -0.832203 -3.99423 0
M  V30 3269 H 328.854 -1.94048 -3.67856 0
M  V30 3270 H 327.431 -0.109664 -3.72739 0
M  V30 3271 N 329.616 1.39756 -0.72842 0
M  V30 3272 C 330.856 2.025 -0.278078 0
M  V30 3273 C 331.22 1.5654 1.11173 0
M  V30 3274 O 332.421 2.11435 1.65978 0
M  V30 3275 C 330.692 3.55489 -0.369139 0
M  V30 3276 S 332.251 4.388 0.00232983 0
M  V30 3277 H 329.069 0.702534 -0.109391 0
M  V30 3278 H 331.671 1.70672 -0.95348 0
M  V30 3279 H 330.375 3.86429 -1.38204 0
M  V30 3280 H 329.906 3.92061 0.324308 0
M  V30 3281 H 331.921 4.80954 1.22055 0
M  V30 3282 N 331.094 0.475555 1.50254 0
M  V30 3283 C 332.371 -0.139685 1.95101 0
M  V30 3284 C 332.751 -1.56555 1.41611 0
M  V30 3285 O 332.099 -2.19956 0.618993 0
M  V30 3286 C 332.309 -0.0784298 3.48912 0
M  V30 3287 C 333.657 -0.265095 4.23772 0
M  V30 3288 O 334.681 -0.154808 3.55863 0
M  V30 3289 O 333.54 -0.488327 5.44314 0
M  V30 3290 H 330.634 -0.109236 0.819754 0
M  V30 3291 H 333.18 0.536276 1.61004 0
M  V30 3292 H 331.952 0.916918 3.80405 0
M  V30 3293 H 331.575 -0.795655 3.89558 0
M  V30 3294 N 332.573 -1.56217 0.208337 0
M  V30 3295 C 333.52 -2.19699 -0.707192 0
M  V30 3296 C 334.49 -1.14836 -1.20008 0
M  V30 3297 O 335.675 -1.4314 -1.26157 0
M  V30 3298 C 332.815 -2.87061 -1.91546 0
M  V30 3299 C 331.928 -4.06483 -1.46271 0
M  V30 3300 C 331.063 -4.61665 -2.62752 0
M  V30 3301 C 330.102 -5.73417 -2.14147 0
M  V30 3302 N 329.239 -6.22948 -3.23853 0
M  V30 3303 H 334.079 -2.97575 -0.159111 0
M  V30 3304 H 331.616 -1.46948 -0.0667874 0
M  V30 3305 H 333.574 -3.24294 -2.62468 0
M  V30 3306 H 332.204 -2.11725 -2.43664 0
M  V30 3307 H 331.256 -3.74825 -0.648886 0
M  V30 3308 H 332.568 -4.87271 -1.06622 0
M  V30 3309 H 331.722 -5.01272 -3.41776 0
M  V30 3310 H 330.461 -3.80013 -3.05682 0
M  V30 3311 H 329.466 -5.33326 -1.33581 0
M  V30 3312 H 330.691 -6.56897 -1.72232 0
M  V30 3313 H 328.637 -5.44213 -3.6629 0
M  V30 3314 H 328.554 -6.98823 -2.88414 0
M  V30 3315 H 329.822 -6.6721 -4.03052 0
M  V30 3316 N 334.051 0.0651679 -1.57465 0
M  V30 3317 C 335.279 0.775808 -1.91804 0
M  V30 3318 C 335.694 1.70782 -0.804916 0
M  V30 3319 O 335.051 1.81153 0.221311 0
M  V30 3320 C 335.102 1.56381 -3.25925 0
M  V30 3321 O 334.823 0.669248 -4.32958 0
M  V30 3322 C 336.324 2.37485 -3.7432 0
M  V30 3323 H 333.544 0.2202 -0.63384 0
M  V30 3324 H 336.088 0.0334587 -2.04473 0
M  V30 3325 H 334.243 2.25837 -3.14764 0
M  V30 3326 H 334.657 1.21801 -5.10162 0
M  V30 3327 H 336.131 2.88223 -4.70778 0
M  V30 3328 H 336.608 3.17307 -3.03666 0
M  V30 3329 H 337.214 1.73173 -3.88447 0
M  V30 3330 N 335.529 1.53961 0.336706 0
M  V30 3331 C 336.479 1.7881 1.41461 0
M  V30 3332 C 337.463 0.643561 1.47469 0
M  V30 3333 O 338.655 0.903166 1.52223 0
M  V30 3334 C 335.784 2.00722 2.78506 0
M  V30 3335 C 334.87 3.2126 2.76862 0
M  V30 3336 N 335.261 4.42588 2.44845 0
M  V30 3337 C 333.559 3.22568 3.08004 0
M  V30 3338 C 334.26 5.2447 2.51607 0
M  V30 3339 N 333.236 4.61344 2.87511 0
M  V30 3340 H 337.038 2.70205 1.15615 0
M  V30 3341 H 334.552 1.52978 0.545112 0
M  V30 3342 H 336.549 2.1666 3.5618 0
M  V30 3343 H 335.209 1.10573 3.05293 0
M  V30 3344 H 336.22 4.69819 2.17922 0
M  V30 3345 H 332.897 2.42409 3.39918 0
M  V30 3346 H 334.287 6.31324 2.29955 0
M  V30 3347 N 337.007 -0.598083 1.45811 0
M  V30 3348 C 338.235 -1.38322 1.53866 0
M  V30 3349 C 338.65 -1.87992 0.174479 0
M  V30 3350 O 338.007 -1.62756 -0.825627 0
M  V30 3351 C 338.058 -2.58125 2.53089 0
M  V30 3352 O 337.779 -2.10516 3.84206 0
M  V30 3353 C 339.28 -3.50869 2.70935 0
M  V30 3354 H 336.5 -0.423093 0.520801 0
M  V30 3355 H 339.044 -0.728527 1.91083 0
M  V30 3356 H 337.199 -3.19615 2.18917 0
M  V30 3357 H 337.613 -2.88425 4.38077 0
M  V30 3358 H 339.087 -4.31451 3.44317 0
M  V30 3359 H 339.564 -4.01822 1.77301 0
M  V30 3360 H 340.17 -2.95225 3.06141 0
M  V30 3361 N 338.485 -1.33259 -0.841409 0
M  V30 3362 C 339.725 -1.25902 -1.61022 0
M  V30 3363 C 340.089 0.173325 -1.91216 0
M  V30 3364 O 341.29 0.370824 -2.6623 0
M  V30 3365 C 339.561 -2.10735 -2.88662 0
M  V30 3366 S 341.12 -2.20541 -3.79351 0
M  V30 3367 H 337.938 -0.447958 -0.552137 0
M  V30 3368 H 340.54 -1.68263 -0.995382 0
M  V30 3369 H 339.244 -3.1384 -2.64448 0
M  V30 3370 H 338.775 -1.69201 -3.55154 0
M  V30 3371 H 340.79 -1.36462 -4.77067 0
M  V30 3372 N 339.963 1.05934 -1.16686 0
M  V30 3373 C 341.374 1.60263 -0.957745 0
M  V30 3374 C 341.725 1.89789 0.49745 0
M  V30 3375 O 340.85 1.67401 1.37135 0
M  V30 3376 C 341.445 2.91172 -1.73218 0
M  V30 3377 C 340.004 3.42188 -1.56794 0
M  V30 3378 C 339.151 2.16028 -1.73859 0
M  V30 3379 H 342.102 0.888392 -1.31504 0
M  V30 3380 H 342.123 3.60744 -1.21014 0
M  V30 3381 H 341.635 2.6965 -2.79124 0
M  V30 3382 H 339.736 3.68762 -0.533437 0
M  V30 3383 H 339.849 4.17273 -2.35414 0
M  V30 3384 H 338.213 2.26426 -1.16633 0
M  V30 3385 H 338.996 1.96985 -2.81161 0
M  V30 3386 N 341.441 0.965919 1.2453 0
M  V30 3387 C 342.852 0.665929 1.7442 0
M  V30 3388 C 343.203 -0.818407 1.78316 0
M  V30 3389 O 342.328 -1.64037 1.41141 0
M  V30 3390 C 342.923 1.20211 3.16757 0
M  V30 3391 C 341.482 0.952059 3.6416 0
M  V30 3392 C 340.629 1.33848 2.42858 0
M  V30 3393 H 343.58 1.14144 1.10258 0
M  V30 3394 H 343.601 0.567544 3.76244 0
M  V30 3395 H 343.113 2.28244 3.13889 0
M  V30 3396 H 341.214 -0.112821 3.72429 0
M  V30 3397 H 341.327 1.59645 4.51719 0
M  V30 3398 H 339.691 0.756864 2.43195 0
M  V30 3399 H 340.474 2.42827 2.42673 0
M  V30 3400 N 342.919 -1.39368 0.735821 0
M  V30 3401 C 344.159 -2.02349 0.288813 0
M  V30 3402 C 344.523 -1.57127 -1.10341 0
M  V30 3403 O 345.724 -2.12312 -1.64854 0
M  V30 3404 C 343.995 -3.55288 0.387986 0
M  V30 3405 S 345.554 -4.38795 0.0209408 0
M  V30 3406 H 342.372 -0.701944 0.113115 0
M  V30 3407 H 344.974 -1.70164 0.962518 0
M  V30 3408 H 343.678 -3.85691 1.40252 0
M  V30 3409 H 343.209 -3.92227 -0.303512 0
M  V30 3410 H 345.224 -4.81595 -1.19503 0
M  V30 3411 N 344.397 -0.483516 -1.5 0
M  V30 3412 C 345.808 -0.0314176 -1.86674 0
M  V30 3413 C 346.159 1.37728 -1.39733 0
M  V30 3414 O 345.284 2.02327 -0.767635 0
M  V30 3415 C 345.879 -0.0502376 -3.38763 0
M  V30 3416 C 344.438 0.346442 -3.74802 0
M  V30 3417 C 343.585 -0.430366 -2.7394 0
M  V30 3418 H 346.536 -0.697182 -1.42566 0
M  V30 3419 H 346.557 0.749116 -3.73053 0
M  V30 3420 H 346.069 -1.07563 -3.72897 0
M  V30 3421 H 344.17 1.37572 -3.46273 0
M  V30 3422 H 344.283 0.0391486 -4.79084 0
M  V30 3423 H 342.647 0.117557 -2.54429 0
M  V30 3424 H 343.43 -1.4555 -3.10918 0
M  V30 3425 N 345.875 1.56104 -0.216619 0
M  V30 3426 C 346.838 2.18819 0.681962 0
M  V30 3427 C 347.838 1.14866 1.12528 0
M  V30 3428 O 349.028 1.40128 1.03488 0
M  V30 3429 C 346.16 2.80756 1.93362 0
M  V30 3430 H 347.353 2.99595 0.135254 0
M  V30 3431 H 344.906 1.56265 0.0330003 0
M  V30 3432 H 345.641 2.03837 2.52232 0
M  V30 3433 H 345.426 3.56876 1.62426 0
M  V30 3434 H 346.916 3.28844 2.57393 0
M  V30 3435 N 347.353 -0.0568162 1.57498 0
M  V30 3436 C 348.764 -0.606858 1.76562 0
M  V30 3437 C 349.115 -1.77114 0.844094 0
M  V30 3438 O 348.24 -2.16376 0.0318911 0
M  V30 3439 C 348.835 -1.10766 3.20182 0
M  V30 3440 C 347.394 -1.60344 3.40539 0
M  V30 3441 C 346.541 -0.529311 2.72201 0
M  V30 3442 H 349.492 0.169393 1.57793 0
M  V30 3443 H 349.513 -1.97602 3.25167 0
M  V30 3444 H 349.025 -0.26006 3.87228 0
M  V30 3445 H 347.126 -2.47379 2.78629 0
M  V30 3446 H 347.239 -1.67006 4.4905 0
M  V30 3447 H 345.603 -0.977893 2.35179 0
M  V30 3448 H 346.386 0.308352 3.41912 0
M  V30 3449 N 348.832 -1.54138 -0.328536 0
M  V30 3450 C 349.742 -1.86192 -1.42723 0
M  V30 3451 C 350.758 -0.753382 -1.56844 0
M  V30 3452 O 351.934 -1.04718 -1.72035 0
M  V30 3453 C 348.999 -2.07824 -2.77507 0
M  V30 3454 C 348.06 -3.31641 -2.72603 0
M  V30 3455 C 347.293 -3.52232 -4.00959 0
M  V30 3456 O 347.516 -2.7636 -4.9898 0
M  V30 3457 O 346.45 -4.45699 -4.0452 0
M  V30 3458 H 350.276 -2.79608 -1.18547 0
M  V30 3459 H 347.861 -1.3998 -0.522104 0
M  V30 3460 H 349.743 -2.23411 -3.57303 0
M  V30 3461 H 348.418 -1.17596 -3.01584 0
M  V30 3462 H 347.325 -3.21444 -1.91376 0
M  V30 3463 H 348.658 -4.2191 -2.53481 0
M  V30 3464 N 350.31 0.590341 -1.46126 0
M  V30 3465 C 351.24 1.71032 -1.58966 0
M  V30 3466 C 352.221 1.64302 -0.440335 0
M  V30 3467 O 353.406 1.82436 -0.665634 0
M  V30 3468 C 350.536 3.09665 -1.57241 0
M  V30 3469 C 349.49 3.31221 -2.71066 0
M  V30 3470 C 348.816 4.70303 -2.54399 0
M  V30 3471 C 350.116 3.19796 -4.1295 0
M  V30 3472 H 351.81 1.60543 -2.52718 0
M  V30 3473 H 349.356 0.770933 -1.21625 0
M  V30 3474 H 351.309 3.87831 -1.64819 0
M  V30 3475 H 350.033 3.21036 -0.600289 0
M  V30 3476 H 348.692 2.55452 -2.62944 0
M  V30 3477 H 348.34 4.78429 -1.55288 0
M  V30 3478 H 348.04 4.85679 -3.30741 0
M  V30 3479 H 349.564 5.50647 -2.63857 0
M  V30 3480 H 350.978 3.87815 -4.22223 0
M  V30 3481 H 349.375 3.46696 -4.89818 0
M  V30 3482 H 350.445 2.16983 -4.33643 0
M  V30 3483 N 351.788 1.33704 0.83433 0
M  V30 3484 C 352.718 1.26967 1.95963 0
M  V30 3485 C 353.699 0.149337 1.69443 0
M  V30 3486 O 354.884 0.339852 1.91203 0
M  V30 3487 C 352.014 1.01275 3.32206 0
M  V30 3488 C 350.968 2.09652 3.73136 0
M  V30 3489 C 350.294 1.69166 5.07235 0
M  V30 3490 C 351.594 3.51372 3.86439 0
M  V30 3491 H 353.288 2.2112 2.01857 0
M  V30 3492 H 350.834 1.06447 0.969793 0
M  V30 3493 H 352.787 0.952106 4.10503 0
M  V30 3494 H 351.511 0.0356203 3.26581 0
M  V30 3495 H 350.17 2.14766 2.97104 0
M  V30 3496 H 349.818 0.701437 4.98085 0
M  V30 3497 H 349.518 2.41694 5.35591 0
M  V30 3498 H 351.042 1.64576 5.88003 0
M  V30 3499 H 352.456 3.48734 4.55036 0
M  V30 3500 H 350.853 4.22425 4.26236 0
M  V30 3501 H 351.923 3.89546 2.88759 0
M  V30 3502 N 353.266 -1.05314 1.17247 0
M  V30 3503 C 354.514 -1.77941 0.958194 0
M  V30 3504 C 354.835 -1.88089 -0.514556 0
M  V30 3505 O 354.105 -1.39676 -1.37359 0
M  V30 3506 H 352.685 -0.659116 0.351533 0
M  V30 3507 H 355.347 -1.27166 1.47699 0
M  V30 3508 H 354.443 -2.79663 1.38546 0
M  V30 3509 N 354.744 -0.972509 -1.24016 0
M  V30 3510 C 355.992 -0.635776 -1.91839 0
M  V30 3511 C 356.313 0.832312 -1.76345 0
M  V30 3512 O 355.583 1.5946 -1.13795 0
M  V30 3513 H 354.163 -0.232157 -0.710009 0
M  V30 3514 H 356.825 -1.23462 -1.50809 0
M  V30 3515 H 355.921 -0.880545 -2.99421 0
M  V30 3516 N 356.222 1.38976 -0.743202 0
M  V30 3517 C 357.633 1.83123 -0.363732 0
M  V30 3518 C 357.984 1.6205 1.10609 0
M  V30 3519 O 357.109 1.11606 1.854 0
M  V30 3520 C 357.704 3.32439 -0.653408 0
M  V30 3521 C 356.263 3.74974 -0.327338 0
M  V30 3522 C 355.41 2.61878 -0.911875 0
M  V30 3523 H 358.361 1.27852 -0.940191 0
M  V30 3524 H 358.382 3.80432 0.0720031 0
M  V30 3525 H 357.894 3.47745 -1.72323 0
M  V30 3526 H 355.995 3.65252 0.736314 0
M  V30 3527 H 356.108 4.72106 -0.815631 0
M  V30 3528 H 354.472 2.52448 -0.337944 0
M  V30 3529 H 355.255 2.79987 -1.98651 0
M  V30 3530 N 357.7 0.491464 1.49741 0
M  V30 3531 C 358.925 -0.0557177 2.07325 0
M  V30 3532 C 359.35 -1.30925 1.35056 0
M  V30 3533 O 358.708 -1.76733 0.404365 0
M  V30 3534 C 358.756 -0.302074 3.59333 0
M  V30 3535 O 357.86 -1.37868 3.88672 0
M  V30 3536 H 357.201 0.0219956 0.663636 0
M  V30 3537 H 359.731 0.688352 1.92673 0
M  V30 3538 H 359.741 -0.536464 4.04458 0
M  V30 3539 H 358.416 0.61383 4.11345 0
M  V30 3540 H 356.993 -1.12999 3.55367 0
M  V30 3541 N 359.178 -1.55987 0.224894 0
M  V30 3542 C 360.424 -1.98684 -0.406502 0
M  V30 3543 C 360.757 -1.11248 -1.59177 0
M  V30 3544 O 360.032 -0.170909 -1.93748 0
M  V30 3545 C 360.315 -3.50218 -0.837808 0
M  V30 3546 C 360.168 -4.48426 0.351332 0
M  V30 3547 C 361.487 -4.06243 -1.69278 0
M  V30 3548 H 358.606 -0.722337 -0.146283 0
M  V30 3549 H 361.248 -1.87255 0.321799 0
M  V30 3550 H 359.398 -3.60089 -1.45837 0
M  V30 3551 H 361.07 -4.50562 0.989526 0
M  V30 3552 H 359.313 -4.22159 0.998207 0
M  V30 3553 H 359.984 -5.52 0.00655905 0
M  V30 3554 H 362.46 -3.99337 -1.16914 0
M  V30 3555 H 361.336 -5.12581 -1.96346 0
M  V30 3556 H 361.597 -3.53332 -2.65723 0
M  V30 3557 N 360.656 0.0484629 -1.57525 0
M  V30 3558 C 361.903 0.743125 -1.88372 0
M  V30 3559 C 362.231 1.76383 -0.819715 0
M  V30 3560 O 361.486 1.94855 0.181659 0
M  V30 3561 C 361.785 1.46632 -3.25935 0
M  V30 3562 C 361.451 0.583427 -4.4711 0
M  V30 3563 C 360.113 0.340191 -4.79996 0
M  V30 3564 C 362.465 -0.0273345 -5.21193 0
M  V30 3565 C 359.793 -0.522903 -5.84365 0
M  V30 3566 C 362.145 -0.878017 -6.26477 0
M  V30 3567 C 360.809 -1.1309 -6.5785 0
M  V30 3568 H 360.079 0.271929 -0.689301 0
M  V30 3569 H 362.726 0.00336166 -1.915 0
M  V30 3570 H 361.031 2.2789 -3.18706 0
M  V30 3571 H 362.728 2.00902 -3.47044 0
M  V30 3572 H 359.318 0.783151 -4.21384 0
M  V30 3573 H 363.502 0.147654 -4.9608 0
M  V30 3574 H 358.758 -0.727335 -6.07058 0
M  V30 3575 H 362.932 -1.35789 -6.83033 0
M  V30 3576 H 360.559 -1.80144 -7.38547 0
M  V30 3577 N 362.134 1.5431 0.320358 0
M  V30 3578 C 363.064 1.86912 1.3995 0
M  V30 3579 C 364.045 0.726211 1.53819 0
M  V30 3580 O 365.23 0.980233 1.67646 0
M  V30 3581 C 362.36 2.09932 2.7667 0
M  V30 3582 C 361.314 3.25776 2.77586 0
M  V30 3583 C 360.64 3.34173 4.17412 0
M  V30 3584 C 361.94 4.6335 2.41048 0
M  V30 3585 H 363.634 2.77292 1.12914 0
M  V30 3586 H 361.18 1.33421 0.541738 0
M  V30 3587 H 363.133 2.31324 3.52232 0
M  V30 3588 H 361.857 1.16304 3.0519 0
M  V30 3589 H 360.516 3.04276 2.04479 0
M  V30 3590 H 360.164 2.38098 4.43078 0
M  V30 3591 H 359.864 4.12033 4.18931 0
M  V30 3592 H 361.388 3.57803 4.94782 0
M  V30 3593 H 362.802 4.84602 3.06324 0
M  V30 3594 H 361.199 5.43782 2.53813 0
M  V30 3595 H 362.269 4.65381 1.36193 0
M  V30 3596 N 363.613 -0.582584 1.46437 0
M  V30 3597 C 364.86 -1.34079 1.51753 0
M  V30 3598 C 365.188 -1.93762 0.169299 0
M  V30 3599 O 364.443 -1.76989 -0.835062 0
M  V30 3600 C 364.742 -2.48964 2.56421 0
M  V30 3601 C 364.408 -2.07273 4.00436 0
M  V30 3602 C 363.07 -1.95618 4.39644 0
M  V30 3603 C 365.422 -1.75111 4.90903 0
M  V30 3604 C 362.75 -1.5006 5.67185 0
M  V30 3605 C 365.102 -1.31032 6.18881 0
M  V30 3606 C 363.766 -1.17954 6.56996 0
M  V30 3607 H 363.036 -0.49063 0.555304 0
M  V30 3608 H 365.683 -0.656007 1.79913 0
M  V30 3609 H 363.988 -3.22889 2.21923 0
M  V30 3610 H 365.685 -3.07178 2.57765 0
M  V30 3611 H 362.275 -2.17279 3.69443 0
M  V30 3612 H 366.459 -1.83001 4.61329 0
M  V30 3613 H 361.715 -1.38577 5.95488 0
M  V30 3614 H 365.889 -1.052 6.88408 0
M  V30 3615 H 363.516 -0.824279 7.55718 0
M  V30 3616 N 365.091 -1.34144 -0.827227 0
M  V30 3617 C 366.502 -1.23557 -1.39966 0
M  V30 3618 C 366.853 0.140731 -1.95695 0
M  V30 3619 O 365.978 1.04087 -1.89723 0
M  V30 3620 C 366.573 -2.23708 -2.54441 0
M  V30 3621 C 365.132 -2.16924 -3.07605 0
M  V30 3622 C 364.279 -2.10549 -1.80456 0
M  V30 3623 H 367.23 -1.45573 -0.631991 0
M  V30 3624 H 367.251 -1.85157 -3.32411 0
M  V30 3625 H 366.763 -3.23866 -2.13851 0
M  V30 3626 H 364.864 -1.20107 -3.52711 0
M  V30 3627 H 364.977 -3.07988 -3.66988 0
M  V30 3628 H 363.341 -1.56203 -2.01178 0
M  V30 3629 H 364.124 -3.12535 -1.42046 0
M  V30 3630 N 366.569 1.04691 -1.17803 0
M  V30 3631 C 367.98 1.59238 -0.974689 0
M  V30 3632 C 368.331 1.90306 0.477292 0
M  V30 3633 O 367.456 1.68846 1.35352 0
M  V30 3634 C 368.051 2.89318 -1.76296 0
M  V30 3635 C 366.61 3.40506 -1.60414 0
M  V30 3636 C 365.757 2.14172 -1.76141 0
M  V30 3637 H 368.708 0.874395 -1.32439 0
M  V30 3638 H 368.729 3.5944 -1.24833 0
M  V30 3639 H 368.241 2.66675 -2.81968 0
M  V30 3640 H 366.342 3.68175 -0.572519 0
M  V30 3641 H 366.455 4.14753 -2.39827 0
M  V30 3642 H 364.819 2.25176 -1.19028 0
M  V30 3643 H 365.602 1.93992 -2.83235 0
M  V30 3644 N 368.047 0.979072 1.23499 0
M  V30 3645 C 368.994 0.517904 2.24914 0
M  V30 3646 C 369.964 -0.442525 1.60097 0
M  V30 3647 O 371.149 -0.350365 1.87556 0
M  V30 3648 C 368.289 -0.174813 3.44657 0
M  V30 3649 C 367.402 0.825721 4.24035 0
M  V30 3650 C 366.537 0.107946 5.3109 0
M  V30 3651 C 365.576 1.09778 6.02175 0
M  V30 3652 N 364.713 0.40925 7.00906 0
M  V30 3653 H 369.553 1.38751 2.63727 0
M  V30 3654 H 367.09 0.695303 1.2963 0
M  V30 3655 H 369.048 -0.593233 4.12961 0
M  V30 3656 H 367.678 -1.0083 3.06648 0
M  V30 3657 H 366.73 1.36253 3.55161 0
M  V30 3658 H 368.042 1.58005 4.73113 0
M  V30 3659 H 367.196 -0.367904 6.05583 0
M  V30 3660 H 365.935 -0.678994 4.8295 0
M  V30 3661 H 364.94 1.5844 5.26476 0
M  V30 3662 H 366.165 1.88536 6.52404 0
M  V30 3663 H 364.111 -0.358506 6.5502 0
M  V30 3664 H 364.028 1.10226 7.47921 0
M  V30 3665 H 365.296 -0.0442557 7.79487 0
M  V30 3666 N 369.525 -1.3858 0.750561 0
M  V30 3667 C 370.936 -1.82927 0.373438 0
M  V30 3668 C 371.287 -1.62634 -1.09748 0
M  V30 3669 O 370.412 -1.12588 -1.84805 0
M  V30 3670 C 371.007 -3.32088 0.671029 0
M  V30 3671 C 369.566 -3.74795 0.34722 0
M  V30 3672 C 368.713 -2.61391 0.92575 0
M  V30 3673 H 371.664 -1.27351 0.946958 0
M  V30 3674 H 371.685 -3.80465 -0.0518269 0
M  V30 3675 H 371.197 -3.46826 1.74164 0
M  V30 3676 H 369.298 -3.65638 -0.716933 0
M  V30 3677 H 369.411 -4.71667 0.840656 0
M  V30 3678 H 367.775 -2.52265 0.351327 0
M  V30 3679 H 368.558 -2.78929 2.00133 0
M  V30 3680 N 371.003 -0.499398 -1.49478 0
M  V30 3681 C 371.95 0.279881 -2.29097 0
M  V30 3682 C 372.92 0.961805 -1.3542 0
M  V30 3683 O 374.105 0.968777 -1.64376 0
M  V30 3684 C 371.245 1.33932 -3.18051 0
M  V30 3685 C 370.358 0.669333 -4.26783 0
M  V30 3686 C 369.493 1.70907 -5.02955 0
M  V30 3687 C 368.532 1.02087 -6.03527 0
M  V30 3688 N 367.669 2.00474 -6.7287 0
M  V30 3689 H 372.509 -0.405317 -2.95231 0
M  V30 3690 H 370.046 -0.211726 -1.45568 0
M  V30 3691 H 372.004 1.96553 -3.67998 0
M  V30 3692 H 370.634 1.9933 -2.53904 0
M  V30 3693 H 369.686 -0.0701234 -3.80335 0
M  V30 3694 H 370.998 0.127503 -4.98637 0
M  V30 3695 H 370.152 2.41037 -5.56764 0
M  V30 3696 H 368.891 2.28476 -4.30871 0
M  V30 3697 H 367.896 0.305338 -5.48951 0
M  V30 3698 H 369.121 0.451708 -6.77596 0
M  V30 3699 H 367.067 2.57007 -6.03559 0
M  V30 3700 H 366.984 1.51353 -7.40694 0
M  V30 3701 H 368.252 2.69897 -7.31284 0
M  V30 3702 N 372.481 1.55866 -0.233164 0
M  V30 3703 C 373.758 1.90471 0.444988 0
M  V30 3704 C 374.138 1.15209 1.7689 0
M  V30 3705 O 373.486 0.265119 2.26957 0
M  V30 3706 C 373.696 3.4333 0.626559 0
M  V30 3707 C 375.044 4.14319 0.92871 0
M  V30 3708 O 376.068 3.48993 0.712926 0
M  V30 3709 O 374.927 5.29846 1.33887 0
M  V30 3710 H 372.021 0.792347 0.236885 0
M  V30 3711 H 374.567 1.67437 -0.276211 0
M  V30 3712 H 373.339 3.90095 -0.306822 0
M  V30 3713 H 372.962 3.72181 1.39881 0
M  V30 3714 N 373.959 -0.0401083 1.57549 0
M  V30 3715 C 375.187 -0.745196 1.93014 0
M  V30 3716 C 375.602 -1.6948 0.831984 0
M  V30 3717 O 374.959 -1.81482 -0.192463 0
M  V30 3718 C 375.01 -1.51176 3.28372 0
M  V30 3719 O 374.731 -0.600284 4.33968 0
M  V30 3720 C 376.232 -2.315 3.78051 0
M  V30 3721 H 373.452 -0.210088 0.637263 0
M  V30 3722 H 375.996 -0.000924689 2.045 0
M  V30 3723 H 374.151 -2.20801 3.18317 0
M  V30 3724 H 374.565 -1.13669 5.12035 0
M  V30 3725 H 376.039 -2.80697 4.75303 0
M  V30 3726 H 376.516 -3.12436 3.08675 0
M  V30 3727 H 377.122 -1.66971 3.91153 0
M  V30 3728 N 375.437 -1.54477 -0.31217 0
M  V30 3729 C 376.367 -1.87652 -1.38957 0
M  V30 3730 C 377.348 -0.734358 -1.53431 0
M  V30 3731 O 378.533 -0.98911 -1.67123 0
M  V30 3732 C 375.663 -2.11396 -2.75552 0
M  V30 3733 C 374.617 -3.27243 -2.75855 0
M  V30 3734 C 373.943 -3.36382 -4.15633 0
M  V30 3735 C 375.243 -4.64622 -2.38587 0
M  V30 3736 H 376.937 -2.77887 -1.11442 0
M  V30 3737 H 374.483 -1.33707 -0.534655 0
M  V30 3738 H 376.436 -2.33189 -3.51 0
M  V30 3739 H 375.16 -1.17921 -3.04569 0
M  V30 3740 H 373.819 -3.05356 -2.02863 0
M  V30 3741 H 373.467 -2.40445 -4.41809 0
M  V30 3742 H 373.167 -4.14249 -4.1674 0
M  V30 3743 H 374.691 -3.60422 -4.92877 0
M  V30 3744 H 376.105 -4.86219 -3.03749 0
M  V30 3745 H 374.502 -5.45121 -2.50925 0
M  V30 3746 H 375.572 -4.66097 -1.33723 0
M  V30 3747 N 376.915 0.57481 -1.46744 0
M  V30 3748 C 377.848 1.69827 -1.52427 0
M  V30 3749 C 378.826 1.58151 -0.377744 0
M  V30 3750 O 380.01 1.79257 -0.58303 0
M  V30 3751 C 377.137 3.07943 -1.41027 0
M  V30 3752 C 376.183 3.38116 -2.59961 0
M  V30 3753 S 377.016 3.29313 -4.22272 0
M  V30 3754 C 378.172 4.69953 -4.13394 0
M  V30 3755 H 378.405 1.64748 -2.47478 0
M  V30 3756 H 375.938 0.754203 -1.34726 0
M  V30 3757 H 377.896 3.87619 -1.35137 0
M  V30 3758 H 376.557 3.10504 -0.473909 0
M  V30 3759 H 375.75 4.38762 -2.47999 0
M  V30 3760 H 375.352 2.66024 -2.62882 0
M  V30 3761 H 377.644 5.60517 -3.80562 0
M  V30 3762 H 378.587 4.86972 -5.14066 0
M  V30 3763 H 378.995 4.47174 -3.44522 0
M  V30 3764 N 378.394 1.34581 0.820102 0
M  V30 3765 C 379.643 1.26437 1.57151 0
M  V30 3766 C 379.956 -0.163111 1.94919 0
M  V30 3767 O 381.162 -0.366722 2.69012 0
M  V30 3768 C 379.618 2.21658 2.83541 0
M  V30 3769 C 379.226 3.69679 2.53065 0
M  V30 3770 C 380.97 2.22428 3.61561 0
M  V30 3771 C 378.877 4.56761 3.75664 0
M  V30 3772 H 377.807 0.469707 0.589823 0
M  V30 3773 H 380.458 1.59763 0.902656 0
M  V30 3774 H 378.84 1.81287 3.52067 0
M  V30 3775 H 380.014 4.18605 1.92631 0
M  V30 3776 H 378.329 3.71384 1.88316 0
M  V30 3777 H 380.926 2.8471 4.52597 0
M  V30 3778 H 381.269 1.22434 3.97889 0
M  V30 3779 H 381.802 2.61259 2.99981 0
M  V30 3780 H 378.541 5.57702 3.44454 0
M  V30 3781 H 378.061 4.12568 4.35371 0
M  V30 3782 H 379.74 4.71509 4.43044 0
M  V30 3783 N 379.872 -1.04064 1.18357 0
M  V30 3784 C 381.097 -1.81454 1.00445 0
M  V30 3785 C 381.522 -1.82823 -0.442423 0
M  V30 3786 O 380.88 -1.24555 -1.31741 0
M  V30 3787 C 380.928 -3.24925 1.56384 0
M  V30 3788 O 380.032 -4.04856 0.785209 0
M  V30 3789 H 379.373 -0.560604 0.355835 0
M  V30 3790 H 381.903 -1.31059 1.57114 0
M  V30 3791 H 381.913 -3.75702 1.59097 0
M  V30 3792 H 380.588 -3.23244 2.61699 0
M  V30 3793 H 379.165 -3.63537 0.830399 0
M  V30 3794 N 381.35 -0.985608 -1.22978 0
M  V30 3795 C 382.766 -0.695104 -1.43668 0
M  V30 3796 C 382.966 0.736866 -1.87543 0
M  V30 3797 O 382.022 1.50868 -2.02473 0
M  V30 3798 C 383.335 -1.69447 -2.48412 0
M  V30 3799 C 384.883 -1.70909 -2.62219 0
M  V30 3800 C 385.358 -2.6969 -3.70178 0
M  V30 3801 N 386.849 -2.6824 -3.77626 0
M  V30 3802 C 387.584 -3.41339 -4.60733 0
M  V30 3803 N 387.08 -4.24015 -5.4789 0
M  V30 3804 N 388.873 -3.30079 -4.54977 0
M  V30 3805 H 381.024 -1.91054 -0.928016 0
M  V30 3806 H 383.287 -0.823553 -0.469536 0
M  V30 3807 H 382.993 -2.7188 -2.23102 0
M  V30 3808 H 382.867 -1.48147 -3.46889 0
M  V30 3809 H 385.254 -0.691785 -2.86877 0
M  V30 3810 H 385.335 -1.96276 -1.6404 0
M  V30 3811 H 384.979 -3.71566 -3.46268 0
M  V30 3812 H 384.909 -2.41595 -4.67909 0
M  V30 3813 H 387.4 -2.08243 -3.15346 0
M  V30 3814 H 387.713 -4.76636 -6.08308 0
M  V30 3815 H 386.058 -4.28104 -5.47496 0
M  V30 3816 H 389.249 -2.64937 -3.85909 0
M  V30 3817 H 389.422 -3.87308 -5.19516 0
M  V30 3818 N 382.828 1.3818 -0.7579 0
M  V30 3819 C 384.056 2.04301 -0.326937 0
M  V30 3820 C 384.471 1.57163 1.0462 0
M  V30 3821 O 383.828 0.746626 1.66529 0
M  V30 3822 C 383.879 3.59846 -0.345363 0
M  V30 3823 O 383.6 4.05256 -1.66432 0
M  V30 3824 C 385.101 4.4319 0.098927 0
M  V30 3825 H 382.321 0.656443 -0.139012 0
M  V30 3826 H 384.865 1.76786 -1.02796 0
M  V30 3827 H 383.02 3.86182 0.306955 0
M  V30 3828 H 383.434 4.99709 -1.59345 0
M  V30 3829 H 384.908 5.51989 0.0348745 0
M  V30 3830 H 385.385 4.23947 1.14741 0
M  V30 3831 H 385.991 4.22051 -0.52468 0
M  V30 3832 N 384.306 0.507319 1.49211 0
M  V30 3833 C 385.717 0.0611118 1.866 0
M  V30 3834 C 386.068 -1.35488 1.41907 0
M  V30 3835 O 385.193 -2.0108 0.799726 0
M  V30 3836 C 385.788 0.104125 3.3864 0
M  V30 3837 C 384.347 -0.28677 3.75306 0
M  V30 3838 C 383.494 0.473893 2.73221 0
M  V30 3839 H 386.445 0.719775 1.41439 0
M  V30 3840 H 386.466 -0.689672 3.74198 0
M  V30 3841 H 385.978 1.13482 3.71138 0
M  V30 3842 H 384.079 -1.32046 3.48417 0
M  V30 3843 H 384.192 0.0370745 4.79086 0
M  V30 3844 H 382.556 -0.0770644 2.54583 0
M  V30 3845 H 383.339 1.50478 3.08563 0
M  V30 3846 N 385.784 -1.5574 0.241426 0
M  V30 3847 C 386.694 -2.2479 -0.671305 0
M  V30 3848 C 387.71 -1.26217 -1.19772 0
M  V30 3849 O 388.886 -1.59079 -1.23514 0
M  V30 3850 C 385.951 -2.92966 -1.85396 0
M  V30 3851 C 385.012 -4.06935 -1.36756 0
M  V30 3852 C 384.245 -4.71851 -2.49384 0
M  V30 3853 O 384.468 -4.35823 -3.67987 0
M  V30 3854 O 383.402 -5.60467 -2.19454 0
M  V30 3855 H 387.228 -3.0349 -0.112966 0
M  V30 3856 H 384.813 -1.49397 0.0101513 0
M  V30 3857 H 386.695 -3.35927 -2.54423 0
M  V30 3858 H 385.37 -2.17211 -2.40002 0
M  V30 3859 H 384.277 -3.68503 -0.644726 0
M  V30 3860 H 385.61 -4.84492 -0.867647 0
M  V30 3861 N 387.262 0.0317525 -1.57568 0
M  V30 3862 C 388.508 0.724175 -1.8943 0
M  V30 3863 C 388.841 1.75149 -0.838836 0
M  V30 3864 O 388.116 1.93948 0.146422 0
M  V30 3865 C 388.399 1.39615 -3.31933 0
M  V30 3866 C 388.252 0.382537 -4.4817 0
M  V30 3867 C 389.571 2.33084 -3.73309 0
M  V30 3868 H 386.69 0.261797 -0.688935 0
M  V30 3869 H 389.332 -0.013017 -1.89996 0
M  V30 3870 H 387.482 2.02451 -3.31581 0
M  V30 3871 H 389.154 -0.243689 -4.60656 0
M  V30 3872 H 387.397 -0.29844 -4.32772 0
M  V30 3873 H 388.068 0.891145 -5.44759 0
M  V30 3874 H 390.544 1.80295 -3.7501 0
M  V30 3875 H 389.42 2.77084 -4.73831 0
M  V30 3876 H 389.681 3.19643 -3.05419 0
M  V30 3877 N 388.74 1.54641 0.303973 0
M  V30 3878 C 389.968 1.77768 1.05858 0
M  V30 3879 C 390.383 0.535722 1.8104 0
M  V30 3880 O 389.74 -0.494337 1.75677 0
M  V30 3881 C 389.791 2.9834 2.04146 0
M  V30 3882 O 389.512 4.17736 1.32015 0
M  V30 3883 C 391.013 3.33832 2.91669 0
M  V30 3884 H 388.233 0.592961 0.314067 0
M  V30 3885 H 390.777 2.01583 0.344149 0
M  V30 3886 H 388.932 2.76742 2.71096 0
M  V30 3887 H 389.346 4.85693 1.97998 0
M  V30 3888 H 390.82 4.21448 3.56491 0
M  V30 3889 H 391.297 2.51857 3.59812 0
M  V30 3890 H 391.903 3.57579 2.30254 0
M  V30 3891 N 390.218 -0.567019 1.47046 0
M  V30 3892 C 391.458 -1.3355 1.54738 0
M  V30 3893 C 391.822 -1.90947 0.200772 0
M  V30 3894 O 393.023 -2.68367 0.152489 0
M  V30 3895 C 391.294 -2.42317 2.62712 0
M  V30 3896 S 392.853 -3.29383 2.89918 0
M  V30 3897 H 389.671 -0.454788 0.546525 0
M  V30 3898 H 392.273 -0.650191 1.84371 0
M  V30 3899 H 390.977 -1.98568 3.59164 0
M  V30 3900 H 390.508 -3.15601 2.34861 0
M  V30 3901 H 392.523 -4.41548 2.26384 0
M  V30 3902 N 391.696 -1.35014 -0.812953 0
M  V30 3903 C 392.942 -1.2812 -1.57204 0
M  V30 3904 C 393.275 0.145869 -1.93651 0
M  V30 3905 O 392.55 1.0937 -1.60836 0
M  V30 3906 C 392.833 -2.18162 -2.86492 0
M  V30 3907 C 392.686 -3.69454 -2.56561 0
M  V30 3908 C 394.005 -2.07439 -3.88145 0
M  V30 3909 H 391.124 -0.466746 -0.570366 0
M  V30 3910 H 393.766 -1.65357 -0.935783 0
M  V30 3911 H 391.916 -1.86535 -3.40789 0
M  V30 3912 H 393.588 -4.11493 -2.08497 0
M  V30 3913 H 391.831 -3.9005 -1.89851 0
M  V30 3914 H 392.502 -4.27835 -3.48799 0
M  V30 3915 H 394.978 -2.35228 -3.4323 0
M  V30 3916 H 393.854 -2.7265 -4.76396 0
M  V30 3917 H 394.115 -1.05439 -4.29343 0
M  V30 3918 N 393.175 1.03435 -1.18907 0
M  V30 3919 C 394.421 1.77005 -0.989798 0
M  V30 3920 C 394.754 1.88205 0.478816 0
M  V30 3921 O 394.029 1.39481 1.35556 0
M  V30 3922 C 394.312 3.19925 -1.65287 0
M  V30 3923 C 394.165 3.1663 -3.19477 0
M  V30 3924 C 395.484 4.18189 -1.37134 0
M  V30 3925 H 392.603 0.642538 -0.360991 0
M  V30 3926 H 395.245 1.20784 -1.46667 0
M  V30 3927 H 393.395 3.67929 -1.24741 0
M  V30 3928 H 395.067 2.76567 -3.692 0
M  V30 3929 H 393.31 2.54491 -3.51307 0
M  V30 3930 H 393.981 4.1758 -3.61013 0
M  V30 3931 H 396.457 3.78761 -1.72276 0
M  V30 3932 H 395.333 5.16394 -1.86087 0
M  V30 3933 H 395.594 4.41112 -0.295424 0
M  V30 3934 N 394.653 0.992116 1.22453 0
M  V30 3935 C 395.899 0.668523 1.91464 0
M  V30 3936 C 396.232 -0.797313 1.77078 0
M  V30 3937 O 395.507 -1.5765 1.13916 0
M  V30 3938 C 395.79 1.07424 3.43703 0
M  V30 3939 C 395.643 2.59857 3.67143 0
M  V30 3940 C 396.962 0.626891 4.35612 0
M  V30 3941 H 394.081 0.244341 0.695318 0
M  V30 3942 H 396.723 1.2355 1.44345 0
M  V30 3943 H 394.873 0.591816 3.83966 0
M  V30 3944 H 396.545 3.15764 3.3629 0
M  V30 3945 H 394.788 3.01961 3.11451 0
M  V30 3946 H 395.459 2.83296 4.73759 0
M  V30 3947 H 397.935 1.04125 4.02861 0
M  V30 3948 H 396.811 0.939076 5.40807 0
M  V30 3949 H 397.072 -0.472457 4.39568 0
M  V30 3950 N 396.131 -1.37776 0.765217 0
M  V30 3951 C 397.408 -1.93975 0.251596 0
M  V30 3952 C 397.788 -1.69949 -1.25222 0
M  V30 3953 O 397.136 -1.04457 -2.03226 0
M  V30 3954 C 397.346 -3.43487 0.617895 0
M  V30 3955 C 398.694 -4.20564 0.584029 0
M  V30 3956 O 399.718 -3.5182 0.556888 0
M  V30 3957 O 398.577 -5.43138 0.605291 0
M  V30 3958 H 395.671 -0.82509 0.0561806 0
M  V30 3959 H 398.217 -1.47101 0.846128 0
M  V30 3960 H 396.989 -3.5453 1.65602 0
M  V30 3961 H 396.612 -3.976 -0.00403411 0
M  V30 3962 N 397.609 -0.515225 -1.4894 0
M  V30 3963 C 398.855 0.0242508 -2.02785 0
M  V30 3964 C 399.188 1.35323 -1.39289 0
M  V30 3965 O 398.463 1.87041 -0.533469 0
M  V30 3966 C 398.746 0.16184 -3.59736 0
M  V30 3967 C 398.599 -1.19127 -4.33738 0
M  V30 3968 C 399.918 0.895719 -4.30888 0
M  V30 3969 H 397.037 0.00733914 -0.736963 0
M  V30 3970 H 399.679 -0.669395 -1.77818 0
M  V30 3971 H 397.829 0.752624 -3.8114 0
M  V30 3972 H 399.501 -1.82202 -4.23792 0
M  V30 3973 H 397.744 -1.77695 -3.95736 0
M  V30 3974 H 398.415 -1.04815 -5.41957 0
M  V30 3975 H 400.891 0.394528 -4.14225 0
M  V30 3976 H 399.767 0.960859 -5.40425 0
M  V30 3977 H 400.028 1.9427 -3.97129 0
M  V30 3978 N 399.087 1.5561 -0.249682 0
M  V30 3979 C 400.312 2.03865 0.381305 0
M  V30 3980 C 400.737 1.12769 1.50548 0
M  V30 3981 O 400.095 0.121189 1.80895 0
M  V30 3982 C 400.143 3.50101 0.863816 0
M  V30 3983 O 399.247 3.62132 1.97318 0
M  V30 3984 H 398.588 0.658827 0.0827194 0
M  V30 3985 H 401.118 2.01105 -0.376552 0
M  V30 3986 H 401.128 3.90975 1.1663 0
M  V30 3987 H 399.803 4.1588 0.0411816 0
M  V30 3988 H 398.38 3.33155 1.67517 0
M  V30 3989 N 400.565 -0.0233959 1.57583 0
M  V30 3990 C 401.515 -1.03023 2.03397 0
M  V30 3991 C 402.499 -1.31701 0.924315 0
M  V30 3992 O 403.691 -1.31191 1.18819 0
M  V30 3993 C 400.82 -2.32961 2.52159 0
M  V30 3994 C 399.906 -2.07349 3.69956 0
M  V30 3995 N 400.297 -1.51814 4.82479 0
M  V30 3996 C 398.595 -2.37606 3.77438 0
M  V30 3997 C 399.296 -1.42136 5.64068 0
M  V30 3998 N 398.272 -1.89891 5.09355 0
M  V30 3999 H 402.074 -0.594962 2.87815 0
M  V30 4000 H 399.588 -0.229586 1.60769 0
M  V30 4001 H 401.585 -3.05906 2.83244 0
M  V30 4002 H 400.245 -2.77162 1.69149 0
M  V30 4003 H 401.256 -1.20008 5.03804 0
M  V30 4004 H 397.933 -2.84842 3.05239 0
M  V30 4005 H 399.323 -0.996405 6.64471 0
M  V30 4006 N 402.043 -1.548 -0.295768 0
M  V30 4007 C 402.953 -1.89177 -1.38742 0
M  V30 4008 C 403.969 -0.786481 -1.55211 0
M  V30 4009 O 405.145 -1.08344 -1.69775 0
M  V30 4010 C 402.21 -2.13663 -2.73036 0
M  V30 4011 C 401.271 -3.37349 -2.65508 0
M  V30 4012 C 400.504 -3.60658 -3.93398 0
M  V30 4013 O 400.727 -2.86882 -4.93006 0
M  V30 4014 O 399.661 -4.54179 -3.94975 0
M  V30 4015 H 403.487 -2.82059 -1.12589 0
M  V30 4016 H 401.072 -1.41056 -0.492295 0
M  V30 4017 H 402.954 -2.3094 -3.52484 0
M  V30 4018 H 401.629 -1.23967 -2.99022 0
M  V30 4019 H 400.536 -3.25431 -1.84514 0
M  V30 4020 H 401.869 -4.27192 -2.44474 0
M  V30 4021 N 403.521 0.559213 -1.47345 0
M  V30 4022 C 404.798 1.31997 -1.44348 0
M  V30 4023 C 405.178 2.1064 -0.139358 0
M  V30 4024 O 404.526 2.1091 0.879153 0
M  V30 4025 C 404.736 2.22618 -2.68779 0
M  V30 4026 C 406.084 2.83701 -3.1591 0
M  V30 4027 O 407.108 2.32921 -2.69493 0
M  V30 4028 O 405.967 3.75993 -3.966 0
M  V30 4029 H 403.061 0.594251 -0.575147 0
M  V30 4030 H 405.607 0.578282 -1.59543 0
M  V30 4031 H 404.379 1.64093 -3.55231 0
M  V30 4032 H 404.002 3.04085 -2.5616 0
M  V30 4033 N 404.999 1.35443 0.805782 0
M  V30 4034 C 406.41 1.25768 1.37983 0
M  V30 4035 C 406.761 -0.10958 1.95894 0
M  V30 4036 O 405.886 -1.01056 1.91355 0
M  V30 4037 C 406.481 2.27727 2.5085 0
M  V30 4038 C 405.04 2.2179 3.04115 0
M  V30 4039 C 404.187 2.13393 1.77084 0
M  V30 4040 H 407.138 1.4656 0.608752 0
M  V30 4041 H 407.159 1.90422 3.29424 0
M  V30 4042 H 406.671 3.27227 2.08671 0
M  V30 4043 H 404.772 1.25703 3.50756 0
M  V30 4044 H 404.885 3.13788 3.62042 0
M  V30 4045 H 403.249 1.59384 1.98668 0
M  V30 4046 H 404.032 3.14755 1.37056 0
M  V30 4047 N 406.477 -1.02803 1.19454 0
M  V30 4048 C 407.387 -2.14575 0.948408 0
M  V30 4049 C 408.403 -1.73757 -0.091871 0
M  V30 4050 O 409.579 -2.01185 0.0929654 0
M  V30 4051 C 406.644 -3.43202 0.491265 0
M  V30 4052 C 405.705 -3.98328 1.60103 0
M  V30 4053 C 404.938 -5.20816 1.16561 0
M  V30 4054 O 405.161 -5.70392 0.0295238 0
M  V30 4055 O 404.095 -5.68801 1.96849 0
M  V30 4056 H 407.921 -2.38202 1.88397 0
M  V30 4057 H 405.506 -1.12989 0.977433 0
M  V30 4058 H 407.388 -4.20687 0.245015 0
M  V30 4059 H 406.063 -3.21018 -0.415851 0
M  V30 4060 H 404.97 -3.22174 1.90144 0
M  V30 4061 H 406.303 -4.24879 2.48473 0
M  V30 4062 N 407.956 -0.998596 -1.21925 0
M  V30 4063 C 409.202 -0.678667 -1.91107 0
M  V30 4064 C 409.535 0.78791 -1.77498 0
M  V30 4065 O 408.81 1.57043 -1.1475 0
M  V30 4066 C 409.093 -1.09245 -3.43129 0
M  V30 4067 C 408.946 -2.61801 -3.6576 0
M  V30 4068 C 410.265 -0.649984 -4.35274 0
M  V30 4069 H 407.384 -0.248025 -0.694012 0
M  V30 4070 H 410.026 -1.24314 -1.43688 0
M  V30 4071 H 408.176 -0.612171 -3.83647 0
M  V30 4072 H 409.848 -3.17543 -3.34611 0
M  V30 4073 H 408.091 -3.03609 -3.09845 0
M  V30 4074 H 408.762 -2.85804 -4.7225 0
M  V30 4075 H 411.238 -1.0626 -4.02303 0
M  V30 4076 H 410.114 -0.967743 -5.40302 0
M  V30 4077 H 410.375 0.449139 -4.39813 0
M  V30 4078 N 409.434 1.37368 -0.772513 0
M  V30 4079 C 410.381 2.30262 -0.157488 0
M  V30 4080 C 411.351 1.51137 0.688965 0
M  V30 4081 O 412.536 1.79704 0.641168 0
M  V30 4082 C 409.676 3.37611 0.715045 0
M  V30 4083 C 408.789 4.31746 -0.148098 0
M  V30 4084 C 407.924 5.26171 0.729213 0
M  V30 4085 C 406.963 6.11948 -0.136418 0
M  V30 4086 N 406.1 6.98613 0.698914 0
M  V30 4087 H 410.94 2.82277 -0.955179 0
M  V30 4088 H 408.477 1.38957 -0.482631 0
M  V30 4089 H 410.435 3.98479 1.23575 0
M  V30 4090 H 409.065 2.86959 1.47833 0
M  V30 4091 H 408.117 3.72178 -0.786613 0
M  V30 4092 H 409.429 4.92084 -0.81579 0
M  V30 4093 H 408.583 5.92247 1.31637 0
M  V30 4094 H 407.322 4.66246 1.43059 0
M  V30 4095 H 406.327 5.4485 -0.736102 0
M  V30 4096 H 407.552 6.73945 -0.835134 0
M  V30 4097 H 405.498 6.41215 1.38489 0
M  V30 4098 H 405.415 7.55948 0.0885358 0
M  V30 4099 H 406.683 7.69077 1.27044 0
M  V30 4100 N 410.912 0.523116 1.48665 0
M  V30 4101 C 412.159 -0.0134763 2.02496 0
M  V30 4102 C 412.487 -1.3493 1.40086 0
M  V30 4103 O 411.742 -1.88286 0.533567 0
M  V30 4104 C 412.041 -0.191671 3.56886 0
M  V30 4105 C 411.707 1.06893 4.38046 0
M  V30 4106 C 410.369 1.41443 4.59943 0
M  V30 4107 C 412.721 1.90584 4.85106 0
M  V30 4108 C 410.049 2.59594 5.26144 0
M  V30 4109 C 412.401 3.07907 5.52609 0
M  V30 4110 C 411.065 3.42811 5.72745 0
M  V30 4111 H 410.335 -0.00493133 0.740984 0
M  V30 4112 H 412.982 0.687751 1.78724 0
M  V30 4113 H 411.287 -0.97561 3.79459 0
M  V30 4114 H 412.984 -0.621659 3.96152 0
M  V30 4115 H 409.574 0.789848 4.21259 0
M  V30 4116 H 413.758 1.65203 4.67997 0
M  V30 4117 H 409.014 2.86847 5.39934 0
M  V30 4118 H 413.188 3.73066 5.88043 0
M  V30 4119 H 410.815 4.34462 6.23816 0
M  V30 4120 N 412.39 -1.55475 0.257931 0
M  V30 4121 C 413.338 -2.23244 -0.653076 0
M  V30 4122 C 414.332 -1.22366 -1.17144 0
M  V30 4123 O 415.538 -1.40347 -1.12706 0
M  V30 4124 H 411.913 -0.716247 -0.229117 0
M  V30 4125 H 413.884 -2.98343 -0.0584788 0
M  V30 4126 C 412.633 -2.95401 -1.83395 0
M  V30 4127 H 411.956 -3.72802 -1.44424 0
M  V30 4128 H 413.396 -3.46165 -2.44838 0
M  V30 4129 C 411.855 -1.99895 -2.71189 0
M  V30 4130 O 412.385 -1.53909 -3.71046 0
M  V30 4131 N 410.591 -1.6676 -2.3799 0
M  V30 4132 H 410.138 -2.04352 -1.56837 0
M  V30 4133 H 410.096 -1.03127 -2.97005 0
M  V30 4134 N 413.868 0.0150385 -1.57593 0
M  V30 4135 C 415.114 0.69849 -1.91031 0
M  V30 4136 C 415.469 1.72208 -0.85804 0
M  V30 4137 O 414.762 1.91147 0.131614 0
M  V30 4138 C 414.956 1.39686 -3.28972 0
M  V30 4139 C 414.785 0.442428 -4.47518 0
M  V30 4140 C 413.555 0.0583223 -5.05266 0
M  V30 4141 C 415.753 -0.285072 -5.13509 0
M  V30 4142 N 413.735 -0.895893 -6.07328 0
M  V30 4143 C 415.106 -1.09447 -6.10263 0
M  V30 4144 C 417.161 -0.350518 -4.96665 0
M  V30 4145 C 415.864 -1.96333 -6.91987 0
M  V30 4146 C 417.89 -1.20655 -5.78962 0
M  V30 4147 C 417.252 -2.00383 -6.75297 0
M  V30 4148 H 413.351 0.22926 -0.747639 0
M  V30 4149 H 415.935 -0.0417748 -1.94655 0
M  V30 4150 H 414.106 2.1075 -3.2625 0
M  V30 4151 H 415.838 2.03381 -3.49883 0
M  V30 4152 H 412.593 0.423506 -4.71703 0
M  V30 4153 H 413.017 -1.36792 -6.63036 0
M  V30 4154 H 417.659 0.251596 -4.22051 0
M  V30 4155 H 415.377 -2.57618 -7.65936 0
M  V30 4156 H 418.963 -1.2609 -5.67972 0
M  V30 4157 H 417.843 -2.65552 -7.3787 0
M  V30 4158 N 415.346 1.54954 0.287554 0
M  V30 4159 C 416.576 1.78622 1.03816 0
M  V30 4160 C 416.984 0.552451 1.80955 0
M  V30 4161 O 416.327 -0.487665 1.77109 0
M  V30 4162 C 416.389 2.94975 2.055 0
M  V30 4163 C 416.053 4.32565 1.47433 0
M  V30 4164 C 417.05 5.12096 0.897436 0
M  V30 4165 C 414.735 4.79195 1.50591 0
M  V30 4166 C 416.729 6.36383 0.359851 0
M  V30 4167 C 414.416 6.03441 0.964459 0
M  V30 4168 C 415.414 6.81872 0.392413 0
M  V30 4169 O 415.102 8.03777 -0.140788 0
M  V30 4170 H 414.834 0.599144 0.313053 0
M  V30 4171 H 417.388 2.02761 0.328225 0
M  V30 4172 H 415.618 2.66493 2.80211 0
M  V30 4173 H 417.307 3.06097 2.6657 0
M  V30 4174 H 418.073 4.77209 0.865841 0
M  V30 4175 H 413.952 4.18167 1.94055 0
M  V30 4176 H 417.496 6.97545 -0.0872951 0
M  V30 4177 H 413.393 6.37813 0.993246 0
M  V30 4178 H 414.161 8.18495 -0.0287617 0
M  V30 4179 N 416.824 -0.551391 1.4764 0
M  V30 4180 C 418.07 -1.31024 1.54792 0
M  V30 4181 C 418.403 -1.9304 0.211967 0
M  V30 4182 O 417.678 -1.78175 -0.77999 0
M  V30 4183 C 417.961 -2.41593 2.67029 0
M  V30 4184 C 417.814 -1.84408 4.10261 0
M  V30 4185 C 419.133 -3.43488 2.75143 0
M  V30 4186 H 416.252 -0.475031 0.563485 0
M  V30 4187 H 418.894 -0.616454 1.79722 0
M  V30 4188 H 417.044 -3.00772 2.45904 0
M  V30 4189 H 418.716 -1.29445 4.42766 0
M  V30 4190 H 416.959 -1.15051 4.18265 0
M  V30 4191 H 417.63 -2.64367 4.84576 0
M  V30 4192 H 420.106 -2.94236 2.94218 0
M  V30 4193 H 418.982 -4.18274 3.55441 0
M  V30 4194 H 419.243 -4.02703 1.82435 0
M  V30 4195 N 418.302 -1.35869 -0.798587 0
M  V30 4196 C 419.579 -1.20145 -1.54352 0
M  V30 4197 C 419.959 0.216161 -2.0999 0
M  V30 4198 O 419.307 1.22068 -1.93162 0
M  V30 4199 C 419.517 -2.27602 -2.64572 0
M  V30 4200 C 420.865 -2.63811 -3.32699 0
M  V30 4201 O 421.889 -2.26576 -2.74849 0
M  V30 4202 O 420.748 -3.27866 -4.37226 0
M  V30 4203 H 417.842 -0.467248 -0.682355 0
M  V30 4204 H 420.388 -1.47574 -0.837859 0
M  V30 4205 H 419.16 -3.2265 -2.21388 0
M  V30 4206 H 418.783 -2.01488 -3.42766 0
M  V30 4207 N 419.78 1.02168 -1.19998 0
M  V30 4208 C 421.028 1.75338 -1.00504 0
M  V30 4209 C 421.349 1.89387 0.464506 0
M  V30 4210 O 420.619 1.43268 1.33608 0
M  V30 4211 H 419.199 0.649564 -0.368885 0
M  V30 4212 H 421.861 1.23205 -1.51018 0
M  V30 4213 H 420.957 2.75892 -1.45912 0
M  V30 4214 N 421.258 1.00505 1.21394 0
M  V30 4215 C 422.504 0.688793 1.90745 0
M  V30 4216 C 422.837 -0.778486 1.77914 0
M  V30 4217 O 422.112 -1.56433 1.15581 0
M  V30 4218 C 422.395 1.11063 3.42545 0
M  V30 4219 C 422.248 2.63737 3.64367 0
M  V30 4220 C 423.567 0.673059 4.34923 0
M  V30 4221 H 420.686 0.251702 0.692687 0
M  V30 4222 H 423.328 1.25074 1.43026 0
M  V30 4223 H 421.478 0.632508 3.83317 0
M  V30 4224 H 423.15 3.19313 3.32922 0
M  V30 4225 H 421.393 3.05248 3.08231 0
M  V30 4226 H 422.064 2.88305 4.70727 0
M  V30 4227 H 424.54 1.08392 4.01734 0
M  V30 4228 H 423.416 0.996383 5.39781 0
M  V30 4229 H 423.677 -0.425808 4.40045 0
M  V30 4230 N 422.737 -1.36956 0.779787 0
M  V30 4231 C 423.647 -2.33965 0.172491 0
M  V30 4232 C 424.663 -1.60574 -0.670222 0
M  V30 4233 O 425.839 -1.92617 -0.588263 0
M  V30 4234 C 422.904 -3.39761 -0.690173 0
M  V30 4235 C 421.965 -4.28964 0.169924 0
M  V30 4236 C 421.198 -5.29707 -0.651662 0
M  V30 4237 O 421.421 -5.38238 -1.88827 0
M  V30 4238 O 420.355 -6.01873 -0.0566264 0
M  V30 4239 H 424.181 -2.87647 0.974321 0
M  V30 4240 H 421.766 -1.39258 0.541078 0
M  V30 4241 H 423.648 -4.04471 -1.1824 0
M  V30 4242 H 422.323 -2.88394 -1.47006 0
M  V30 4243 H 421.23 -3.67326 0.708696 0
M  V30 4244 H 422.563 -4.83656 0.913085 0
M  V30 4245 N 424.215 -0.530993 -1.48385 0
M  V30 4246 C 425.461 0.00274135 -2.028 0
M  V30 4247 C 425.794 1.33838 -1.40716 0
M  V30 4248 O 425.069 1.86465 -0.553277 0
M  V30 4249 C 425.352 0.123676 -3.59888 0
M  V30 4250 C 425.205 -1.2372 -4.3245 0
M  V30 4251 C 426.524 0.849967 -4.31814 0
M  V30 4252 H 423.643 -0.000477758 -0.737 0
M  V30 4253 H 426.285 -0.688217 -1.77098 0
M  V30 4254 H 424.435 0.712157 -3.81917 0
M  V30 4255 H 426.107 -1.86687 -4.21836 0
M  V30 4256 H 424.35 -1.81882 -3.93829 0
M  V30 4257 H 425.021 -1.10557 -5.40815 0
M  V30 4258 H 427.497 0.350572 -4.14621 0
M  V30 4259 H 426.373 0.903486 -5.41413 0
M  V30 4260 H 426.634 1.90047 -3.99167 0
M  V30 4261 N 425.693 1.55336 -0.266172 0
M  V30 4262 C 426.643 2.18848 0.639497 0
M  V30 4263 C 427.627 1.1503 1.12503 0
M  V30 4264 O 428.819 1.40875 1.0716 0
M  V30 4265 C 425.948 2.90626 1.82733 0
M  V30 4266 C 425.034 4.01723 1.35939 0
M  V30 4267 N 425.425 5.02145 0.606988 0
M  V30 4268 C 423.723 4.1463 1.6431 0
M  V30 4269 C 424.424 5.80572 0.362138 0
M  V30 4270 N 423.4 5.35551 0.931971 0
M  V30 4271 H 427.202 2.93845 0.0567057 0
M  V30 4272 H 424.716 1.62252 -0.0693312 0
M  V30 4273 H 426.713 3.34569 2.48735 0
M  V30 4274 H 425.373 2.17137 2.41416 0
M  V30 4275 H 426.384 5.17271 0.255198 0
M  V30 4276 H 423.061 3.52326 2.23993 0
M  V30 4277 H 424.451 6.71472 -0.239848 0
M  V30 4278 N 427.171 -0.0066808 1.57599 0
M  V30 4279 C 428.119 -1.01851 2.09115 0
M  V30 4280 C 429.113 -1.36021 1.00969 0
M  V30 4281 O 430.319 -1.34663 1.19439 0
M  V30 4282 H 426.694 -0.346083 0.667631 0
M  V30 4283 H 428.665 -0.558394 2.93129 0
M  V30 4284 C 427.414 -2.30374 2.60429 0
M  V30 4285 H 426.737 -2.04947 3.43273 0
M  V30 4286 H 428.177 -2.99466 3.00161 0
M  V30 4287 C 426.636 -3.00893 1.51542 0
M  V30 4288 O 427.166 -3.91614 0.894484 0
M  V30 4289 N 425.372 -2.62603 1.2445 0
M  V30 4290 H 424.919 -1.88911 1.75129 0
M  V30 4291 H 424.877 -3.10101 0.518137 0
M  V30 4292 N 428.649 -1.55105 -0.279332 0
M  V30 4293 C 429.612 -1.86783 -1.32834 0
M  V30 4294 C 430.612 -0.74199 -1.42657 0
M  V30 4295 O 431.802 -1.0102 -1.41918 0
M  V30 4296 C 428.934 -2.06746 -2.71052 0
M  V30 4297 H 430.127 -2.8055 -1.05979 0
M  V30 4298 H 427.68 -1.47499 -0.517087 0
M  V30 4299 H 428.415 -1.15339 -3.03097 0
M  V30 4300 H 428.2 -2.88711 -2.65309 0
M  V30 4301 H 429.69 -2.32549 -3.46858 0
M  V30 4302 N 430.127 0.543554 -1.4793 0
M  V30 4303 C 431.074 1.64942 -1.6144 0
M  V30 4304 C 432.044 1.59692 -0.456903 0
M  V30 4305 O 433.229 1.78321 -0.678688 0
M  V30 4306 C 430.369 3.03238 -1.64744 0
M  V30 4307 C 429.482 3.18823 -2.91506 0
M  V30 4308 C 428.617 4.47599 -2.86057 0
M  V30 4309 C 427.656 4.56664 -4.07584 0
M  V30 4310 N 426.793 5.76811 -4.00292 0
M  V30 4311 H 431.633 1.52733 -2.55884 0
M  V30 4312 H 429.17 0.7438 -1.2691 0
M  V30 4313 H 431.128 3.83339 -1.64641 0
M  V30 4314 H 429.758 3.1425 -0.738017 0
M  V30 4315 H 428.81 2.32064 -3.01414 0
M  V30 4316 H 430.122 3.21384 -3.81463 0
M  V30 4317 H 429.276 5.35975 -2.84281 0
M  V30 4318 H 428.015 4.47538 -1.93807 0
M  V30 4319 H 427.02 3.66697 -4.09651 0
M  V30 4320 H 428.245 4.58474 -5.00978 0
M  V30 4321 H 426.191 5.77673 -3.10853 0
M  V30 4322 H 426.108 5.80808 -4.8394 0
M  V30 4323 H 427.376 6.67512 -4.02553 0
M  V30 4324 N 431.605 1.3629 0.791371 0
M  V30 4325 C 432.833 1.33562 1.58016 0
M  V30 4326 C 433.248 -0.0835616 1.88615 0
M  V30 4327 O 432.605 -1.0399 1.49974 0
M  V30 4328 C 432.656 2.15517 2.90232 0
M  V30 4329 O 432.377 3.51902 2.60953 0
M  V30 4330 C 433.878 2.20546 3.84544 0
M  V30 4331 H 431.098 0.458226 0.490173 0
M  V30 4332 H 433.642 1.79361 0.982345 0
M  V30 4333 H 431.797 1.73278 3.46487 0
M  V30 4334 H 432.211 3.94644 3.4548 0
M  V30 4335 H 433.685 2.82252 4.74382 0
M  V30 4336 H 434.162 1.20838 4.2225 0
M  V30 4337 H 434.768 2.63013 3.34222 0
M  V30 4338 N 433.083 -1.0153 1.20538 0
M  V30 4339 C 434.03 -2.10098 0.955383 0
M  V30 4340 C 435 -1.65702 -0.114878 0
M  V30 4341 O 436.185 -1.90776 0.0301118 0
M  V30 4342 C 433.325 -3.41236 0.514969 0
M  V30 4343 C 432.438 -3.99102 1.65353 0
M  V30 4344 C 431.573 -5.18306 1.16329 0
M  V30 4345 C 430.612 -5.68258 2.27485 0
M  V30 4346 N 429.749 -6.78722 1.7967 0
M  V30 4347 H 434.589 -2.30818 1.88486 0
M  V30 4348 H 432.126 -1.13189 0.939499 0
M  V30 4349 H 434.084 -4.16504 0.240935 0
M  V30 4350 H 432.714 -3.20585 -0.377512 0
M  V30 4351 H 431.766 -3.20918 2.04245 0
M  V30 4352 H 433.078 -4.32177 2.49047 0
M  V30 4353 H 432.232 -6.00782 0.845302 0
M  V30 4354 H 430.971 -4.86799 0.296254 0
M  V30 4355 H 429.976 -4.84385 2.60099 0
M  V30 4356 H 431.201 -6.01798 3.14667 0
M  V30 4357 H 429.147 -6.49042 0.95295 0
M  V30 4358 H 429.064 -7.10996 2.56944 0
M  V30 4359 H 430.332 -7.64759 1.50875 0
M  V30 4360 N 434.561 -1.01147 -1.20859 0
M  V30 4361 C 435.972 -0.730205 -1.71828 0
M  V30 4362 C 436.323 0.751662 -1.8123 0
M  V30 4363 O 435.448 1.58686 -1.47132 0
M  V30 4364 C 436.043 -1.31885 -3.12077 0
M  V30 4365 C 434.602 -1.08656 -3.60376 0
M  V30 4366 C 433.749 -1.42769 -2.37723 0
M  V30 4367 H 436.7 -1.18158 -1.05945 0
M  V30 4368 H 436.721 -0.706793 -3.73878 0
M  V30 4369 H 436.233 -2.39737 -3.05201 0
M  V30 4370 H 434.334 -0.0254814 -3.72591 0
M  V30 4371 H 434.447 -1.76301 -4.45483 0
M  V30 4372 H 432.811 -0.846603 -2.40218 0
M  V30 4373 H 433.594 -2.51666 -2.33493 0
M  V30 4374 N 436.039 1.36541 -0.78704 0
M  V30 4375 C 437.455 1.52571 -0.46844 0
M  V30 4376 C 437.655 1.7415 1.01361 0
M  V30 4377 O 436.711 1.77163 1.79915 0
M  V30 4378 C 438.024 2.71299 -1.29682 0
M  V30 4379 C 439.572 2.85169 -1.29027 0
M  V30 4380 C 440.047 4.06898 -2.10233 0
M  V30 4381 N 441.538 4.1404 -2.07666 0
M  V30 4382 C 442.273 5.07301 -2.67271 0
M  V30 4383 N 441.769 6.06021 -3.35724 0
M  V30 4384 N 443.562 4.99898 -2.57018 0
M  V30 4385 H 435.713 1.20788 -1.74711 0
M  V30 4386 H 437.976 0.589364 -0.742532 0
M  V30 4387 H 437.682 2.61868 -2.34773 0
M  V30 4388 H 437.556 3.6539 -0.936479 0
M  V30 4389 H 439.943 2.94062 -0.247284 0
M  V30 4390 H 440.024 1.91992 -1.69035 0
M  V30 4391 H 439.668 3.98766 -3.1456 0
M  V30 4392 H 439.598 4.99218 -1.67597 0
M  V30 4393 H 442.089 3.43357 -1.57843 0
M  V30 4394 H 442.402 6.73741 -3.78541 0
M  V30 4395 H 440.747 6.06253 -3.39826 0
M  V30 4396 H 443.938 4.21724 -2.03142 0
M  V30 4397 H 444.111 5.72392 -3.03761 0
M  V30 4398 N 437.518 0.538854 1.48102 0
M  V30 4399 C 438.428 -0.222648 2.33541 0
M  V30 4400 C 439.444 -0.930225 1.47047 0
M  V30 4401 O 440.62 -0.903211 1.80011 0
M  V30 4402 C 437.685 -1.25064 3.23357 0
M  V30 4403 C 436.746 -0.552469 4.2573 0
M  V30 4404 C 435.979 -1.53149 5.11254 0
M  V30 4405 O 436.202 -2.76487 4.9891 0
M  V30 4406 O 435.136 -1.06602 5.92385 0
M  V30 4407 H 438.962 0.477707 2.99919 0
M  V30 4408 H 436.547 0.299669 1.46364 0
M  V30 4409 H 438.429 -1.8445 3.78888 0
M  V30 4410 H 437.104 -1.93325 2.59629 0
M  V30 4411 H 436.011 0.082114 3.7401 0
M  V30 4412 H 437.344 0.0883526 4.92121 0
M  V30 4413 N 438.996 -1.55193 0.274407 0
M  V30 4414 C 439.906 -2.26164 -0.623473 0
M  V30 4415 C 440.922 -1.28729 -1.17068 0
M  V30 4416 O 442.098 -1.61663 -1.20112 0
M  V30 4417 C 439.163 -2.96833 -1.7914 0
M  V30 4418 C 438.224 -4.09745 -1.28093 0
M  V30 4419 C 437.457 -4.77034 -2.3932 0
M  V30 4420 O 437.68 -4.4353 -3.5866 0
M  V30 4421 O 436.614 -5.64996 -2.07516 0
M  V30 4422 H 440.44 -3.03661 -0.0485661 0
M  V30 4423 H 438.025 -1.49341 0.0418382 0
M  V30 4424 H 439.907 -3.41248 -2.4724 0
M  V30 4425 H 438.582 -2.22253 -2.35341 0
M  V30 4426 H 437.489 -3.69787 -0.566416 0
M  V30 4427 H 438.822 -4.86224 -0.764683 0
M  V30 4428 N 440.474 -0.00167713 -1.576 0
M  V30 4429 C 441.406 1.0174 -2.05382 0
M  V30 4430 C 442.419 1.30595 -0.972052 0
M  V30 4431 O 443.608 1.27542 -1.24882 0
M  V30 4432 C 440.708 2.35174 -2.44022 0
M  V30 4433 C 439.881 2.25234 -3.74951 0
M  V30 4434 C 438.94 3.4137 -4.00441 0
M  V30 4435 O 437.966 3.19483 -4.71083 0
M  V30 4436 N 439.168 4.64275 -3.48467 0
M  V30 4437 H 441.933 0.609902 -2.93428 0
M  V30 4438 H 439.494 0.185672 -1.60832 0
M  V30 4439 H 441.486 3.11643 -2.58187 0
M  V30 4440 H 440.056 2.67659 -1.61485 0
M  V30 4441 H 439.276 1.33664 -3.70847 0
M  V30 4442 H 440.564 2.15767 -4.60784 0
M  V30 4443 H 439.962 4.84955 -2.91264 0
M  V30 4444 H 438.519 5.38005 -3.67959 0
M  V30 4445 N 441.952 1.55251 0.271103 0
M  V30 4446 C 443.182 1.79713 1.01916 0
M  V30 4447 C 443.59 0.571613 1.80359 0
M  V30 4448 O 442.933 -0.468853 1.77616 0
M  V30 4449 C 442.995 2.97138 2.02359 0
M  V30 4450 C 442.659 4.34104 1.42837 0
M  V30 4451 C 443.656 5.13019 0.843071 0
M  V30 4452 C 441.341 4.80765 1.455 0
M  V30 4453 C 443.335 6.36729 0.292333 0
M  V30 4454 C 441.022 6.0443 0.900402 0
M  V30 4455 C 442.02 6.8225 0.32007 0
M  V30 4456 O 441.708 8.03582 -0.226031 0
M  V30 4457 H 441.44 0.602431 0.306681 0
M  V30 4458 H 443.994 2.03097 0.306701 0
M  V30 4459 H 442.224 2.6945 2.77369 0
M  V30 4460 H 443.913 3.08907 2.63309 0
M  V30 4461 H 444.679 4.781 0.815178 0
M  V30 4462 H 440.558 4.20202 1.89609 0
M  V30 4463 H 444.102 6.97414 -0.161274 0
M  V30 4464 H 439.999 6.3883 0.925541 0
M  V30 4465 H 440.767 8.18418 -0.115572 0
M  V30 4466 N 443.43 -0.535701 1.48216 0
M  V30 4467 C 444.378 -1.66179 1.62749 0
M  V30 4468 C 445.372 -1.62034 0.49409 0
M  V30 4469 O 446.578 -1.6696 0.672624 0
M  V30 4470 H 442.953 -0.550244 0.512578 0
M  V30 4471 H 444.924 -1.51063 2.57337 0
M  V30 4472 C 443.673 -3.04471 1.67907 0
M  V30 4473 H 442.996 -3.08351 2.54479 0
M  V30 4474 H 444.436 -3.82894 1.82121 0
M  V30 4475 C 442.895 -3.34314 0.416596 0
M  V30 4476 O 443.425 -3.98905 -0.473014 0
M  V30 4477 N 441.631 -2.89149 0.290038 0
M  V30 4478 H 441.178 -2.36764 1.01493 0
M  V30 4479 H 441.136 -3.09486 -0.55367 0
M  V30 4480 N 444.908 -1.36708 -0.784132 0
M  V30 4481 C 446.133 -1.34565 -1.5782 0
M  V30 4482 C 446.558 0.0695257 -1.87971 0
M  V30 4483 O 445.916 1.04302 -1.48293 0
M  V30 4484 C 445.964 -2.17952 -2.87279 0
M  V30 4485 O 445.068 -1.57563 -3.81114 0
M  V30 4486 H 444.409 -0.460337 -0.478524 0
M  V30 4487 H 446.939 -1.80064 -0.971495 0
M  V30 4488 H 446.949 -2.30721 -3.365 0
M  V30 4489 H 445.624 -3.20823 -2.64661 0
M  V30 4490 H 444.201 -1.53764 -3.39722 0
M  V30 4491 N 446.386 1.0089 -1.21074 0
M  V30 4492 C 447.614 1.78191 -1.05145 0
M  V30 4493 C 448.029 1.84537 0.398952 0
M  V30 4494 O 447.386 1.30393 1.27687 0
M  V30 4495 C 447.437 3.22288 -1.63746 0
M  V30 4496 O 447.158 3.16315 -3.03111 0
M  V30 4497 C 448.659 4.16106 -1.52875 0
M  V30 4498 H 445.879 0.560129 -0.369454 0
M  V30 4499 H 448.423 1.26945 -1.60328 0
M  V30 4500 H 446.578 3.70655 -1.12664 0
M  V30 4501 H 446.992 4.06817 -3.31059 0
M  V30 4502 H 448.466 5.15026 -1.98626 0
M  V30 4503 H 448.943 4.36541 -0.482521 0
M  V30 4504 H 449.549 3.73625 -2.03185 0
M  V30 4505 N 447.864 1.01787 1.20321 0
M  V30 4506 C 449.094 0.72614 1.93419 0
M  V30 4507 C 449.502 -0.717317 1.75075 0
M  V30 4508 O 448.845 -1.49836 1.06278 0
M  V30 4509 C 448.907 0.983621 3.45782 0
M  V30 4510 C 448.571 2.41645 3.87888 0
M  V30 4511 C 449.568 3.39732 3.93545 0
M  V30 4512 C 447.253 2.75752 4.19841 0
M  V30 4513 C 449.247 4.69988 4.30569 0
M  V30 4514 C 446.934 4.06221 4.56539 0
M  V30 4515 C 447.932 5.0315 4.61876 0
M  V30 4516 O 447.62 6.31284 4.97731 0
M  V30 4517 H 447.352 0.265824 0.621541 0
M  V30 4518 H 449.906 1.3623 1.53722 0
M  V30 4519 H 448.136 0.290301 3.85609 0
M  V30 4520 H 449.825 0.683279 4.00108 0
M  V30 4521 H 450.591 3.14718 3.69022 0
M  V30 4522 H 446.47 2.00993 4.14877 0
M  V30 4523 H 450.014 5.45642 4.3465 0
M  V30 4524 H 445.911 4.31013 4.80518 0
M  V30 4525 H 446.679 6.35591 5.15719 0
M  V30 4526 N 449.342 -1.36122 0.79427 0
M  V30 4527 C 450.758 -1.5232 0.476525 0
M  V30 4528 C 450.958 -1.74685 -1.00436 0
M  V30 4529 O 450.014 -1.78115 -1.78973 0
M  V30 4530 C 451.327 -2.70607 1.31119 0
M  V30 4531 C 452.875 -2.8448 1.30537 0
M  V30 4532 C 453.35 -4.05778 2.12387 0
M  V30 4533 N 454.841 -4.12933 2.09859 0
M  V30 4534 C 455.576 -5.05876 2.69957 0
M  V30 4535 N 455.072 -6.04232 3.38934 0
M  V30 4536 N 456.865 -4.98528 2.59665 0
M  V30 4537 H 449.016 -1.1986 1.75349 0
M  V30 4538 H 451.279 -0.585418 0.745647 0
M  V30 4539 H 450.985 -2.60619 2.36158 0
M  V30 4540 H 450.859 -3.64888 0.955843 0
M  V30 4541 H 453.246 -2.93927 0.262876 0
M  V30 4542 H 453.327 -1.91093 1.70051 0
M  V30 4543 H 452.971 -3.97092 3.1667 0
M  V30 4544 H 452.901 -4.98323 1.70242 0
M  V30 4545 H 455.392 -3.42515 1.59662 0
M  V30 4546 H 455.705 -6.71724 3.82109 0
M  V30 4547 H 454.05 -6.04443 3.43036 0
M  V30 4548 H 457.241 -4.20641 2.05375 0
M  V30 4549 H 457.414 -5.70773 3.06793 0
M  V30 4550 N 450.82 -0.546701 -1.47814 0
M  V30 4551 C 452.066 -0.0187684 -2.02791 0
M  V30 4552 C 452.399 1.32338 -1.42128 0
M  V30 4553 O 451.674 1.85867 -0.573023 0
M  V30 4554 C 451.957 0.0854985 -3.59998 0
M  V30 4555 C 451.81 -1.283 -4.31114 0
M  V30 4556 C 453.129 0.80412 -4.32691 0
M  V30 4557 H 450.248 -0.0082946 -0.736953 0
M  V30 4558 H 452.89 -0.706962 -1.76358 0
M  V30 4559 H 451.04 0.671609 -3.82651 0
M  V30 4560 H 452.712 -1.91151 -4.19832 0
M  V30 4561 H 450.955 -1.86049 -3.91878 0
M  V30 4562 H 451.626 -1.16287 -5.39612 0
M  V30 4563 H 454.102 0.306576 -4.14969 0
M  V30 4564 H 452.978 0.846011 -5.42341 0
M  V30 4565 H 453.239 1.85802 -4.01161 0
M  V30 4566 N 452.299 1.55045 -0.282633 0
M  V30 4567 C 453.545 2.00056 0.332481 0
M  V30 4568 C 453.878 1.1708 1.54939 0
M  V30 4569 O 453.153 0.2427 1.9298 0
M  V30 4570 C 453.436 3.53086 0.70725 0
M  V30 4571 C 453.289 4.46813 -0.517521 0
M  V30 4572 C 454.608 4.12245 1.54084 0
M  V30 4573 H 451.727 0.727268 0.119373 0
M  V30 4574 H 454.369 1.85932 -0.391076 0
M  V30 4575 H 452.519 3.65253 1.32372 0
M  V30 4576 H 454.191 4.46579 -1.15607 0
M  V30 4577 H 452.434 4.18163 -1.1542 0
M  V30 4578 H 453.105 5.51595 -0.211426 0
M  V30 4579 H 455.581 4.03401 1.02013 0
M  V30 4580 H 454.457 5.19515 1.77186 0
M  V30 4581 H 454.718 3.62951 2.52427 0
M  V30 4582 N 453.777 0.010035 1.57597 0
M  V30 4583 C 455.002 -0.687021 1.95691 0
M  V30 4584 C 455.427 -1.65952 0.885519 0
M  V30 4585 O 454.785 -1.80633 -0.15543 0
M  V30 4586 C 454.833 -1.3864 3.32884 0
M  V30 4587 O 453.937 -2.50115 3.27897 0
M  V30 4588 H 453.278 -0.181989 0.638573 0
M  V30 4589 H 455.808 0.0662122 2.04493 0
M  V30 4590 H 455.818 -1.74754 3.6868 0
M  V30 4591 H 454.493 -0.673411 4.10412 0
M  V30 4592 H 453.07 -2.16253 3.03791 0
M  V30 4593 N 455.255 -1.55392 -0.262866 0
M  V30 4594 C 456.501 -1.76737 -0.99458 0
M  V30 4595 C 456.834 -0.572453 -1.85571 0
M  V30 4596 O 456.109 0.429732 -1.89693 0
M  V30 4597 C 456.392 -3.07824 -1.8686 0
M  V30 4598 C 456.245 -4.3769 -1.03672 0
M  V30 4599 C 457.564 -3.35021 -2.85393 0
M  V30 4600 H 454.683 -0.643005 -0.360157 0
M  V30 4601 H 457.325 -1.88126 -0.266216 0
M  V30 4602 H 455.475 -2.98245 -2.48962 0
M  V30 4603 H 457.147 -4.59238 -0.43563 0
M  V30 4604 H 455.39 -4.32461 -0.340513 0
M  V30 4605 H 456.061 -5.25759 -1.6817 0
M  V30 4606 H 458.537 -3.44458 -2.33426 0
M  V30 4607 H 457.413 -4.27989 -3.43681 0
M  V30 4608 H 457.674 -2.55153 -3.61039 0
M  V30 4609 N 456.733 0.527833 -1.48498 0
M  V30 4610 C 457.663 1.64136 -1.66077 0
M  V30 4611 C 458.644 1.62286 -0.509625 0
M  V30 4612 O 459.829 1.79449 -0.742413 0
M  V30 4613 C 456.959 3.02717 -1.70234 0
M  V30 4614 C 455.913 3.19426 -2.8487 0
M  V30 4615 C 455.239 4.5909 -2.74118 0
M  V30 4616 C 456.539 3.01993 -4.26142 0
M  V30 4617 H 458.233 1.4968 -2.593 0
M  V30 4618 H 455.779 0.718654 -1.24785 0
M  V30 4619 H 457.732 3.80491 -1.8112 0
M  V30 4620 H 456.456 3.18201 -0.735911 0
M  V30 4621 H 455.115 2.4407 -2.73542 0
M  V30 4622 H 454.763 4.71413 -1.7544 0
M  V30 4623 H 454.463 4.71214 -3.51042 0
M  V30 4624 H 455.987 5.3896 -2.86974 0
M  V30 4625 H 457.401 3.69558 -4.38292 0
M  V30 4626 H 455.798 3.2561 -5.04082 0
M  V30 4627 H 456.868 1.98396 -4.42456 0
M  V30 4628 N 458.211 1.37122 0.776871 0
M  V30 4629 C 459.439 1.3523 1.5659 0
M  V30 4630 C 459.854 -0.0635518 1.88693 0
M  V30 4631 O 459.211 -1.02394 1.51069 0
M  V30 4632 C 459.262 2.18583 2.8793 0
M  V30 4633 O 458.983 3.5465 2.57206 0
M  V30 4634 C 460.484 2.24612 3.82183 0
M  V30 4635 H 457.704 0.4634 0.485285 0
M  V30 4636 H 460.248 1.80392 0.963266 0
M  V30 4637 H 458.403 1.76943 3.4463 0
M  V30 4638 H 458.817 3.98286 3.41275 0
M  V30 4639 H 460.291 2.87267 4.71361 0
M  V30 4640 H 460.768 1.25309 4.20944 0
M  V30 4641 H 461.374 2.66543 3.31414 0
M  V30 4642 N 459.689 -1.00246 1.21608 0
M  V30 4643 C 460.935 -1.74319 1.03638 0
M  V30 4644 C 461.268 -1.89408 -0.428749 0
M  V30 4645 O 460.543 -1.43026 -1.3181 0
M  V30 4646 C 460.826 -3.15431 1.73711 0
M  V30 4647 C 460.679 -3.08049 3.27759 0
M  V30 4648 C 461.998 -4.14407 1.48173 0
M  V30 4649 H 459.117 -0.632741 0.377899 0
M  V30 4650 H 461.759 -1.16853 1.49818 0
M  V30 4651 H 459.909 -3.64493 1.34452 0
M  V30 4652 H 461.581 -2.66681 3.76403 0
M  V30 4653 H 459.824 -2.45088 3.57931 0
M  V30 4654 H 460.495 -4.07862 3.71958 0
M  V30 4655 H 462.971 -3.74061 1.82258 0
M  V30 4656 H 461.847 -5.11279 1.99713 0
M  V30 4657 H 462.108 -4.40174 0.412273 0
M  V30 4658 N 461.167 -1.02423 -1.1978 0
M  V30 4659 C 462.097 -0.62157 -2.25075 0
M  V30 4660 C 463.078 0.367148 -1.6609 0
M  V30 4661 O 464.263 0.250892 -1.92573 0
M  V30 4662 C 461.393 0.0331826 -3.47284 0
M  V30 4663 C 460.347 -0.877323 -4.18912 0
M  V30 4664 C 459.673 -0.0879296 -5.34628 0
M  V30 4665 C 460.973 -2.18892 -4.74219 0
M  V30 4666 H 462.667 -1.50179 -2.59011 0
M  V30 4667 H 460.213 -0.723547 -1.24502 0
M  V30 4668 H 462.166 0.326488 -4.20133 0
M  V30 4669 H 460.89 0.948164 -3.12534 0
M  V30 4670 H 459.549 -1.15475 -3.47938 0
M  V30 4671 H 459.197 0.828941 -4.96123 0
M  V30 4672 H 458.897 -0.694359 -5.83483 0
M  V30 4673 H 460.421 0.198743 -6.10276 0
M  V30 4674 H 461.835 -1.95746 -5.38847 0
M  V30 4675 H 460.232 -2.74686 -5.33542 0
M  V30 4676 H 461.302 -2.84674 -3.92541 0
M  V30 4677 N 462.645 1.35699 -0.801477 0
M  V30 4678 C 463.595 2.2728 -0.181073 0
M  V30 4679 C 464.579 1.47533 0.642098 0
M  V30 4680 O 465.771 1.69785 0.500193 0
M  V30 4681 C 462.9 3.36626 0.673612 0
M  V30 4682 C 461.986 4.23802 -0.159008 0
M  V30 4683 N 462.377 4.90879 -1.2195 0
M  V30 4684 C 460.675 4.45959 0.0602005 0
M  V30 4685 C 461.376 5.5546 -1.72738 0
M  V30 4686 N 460.352 5.33663 -1.03465 0
M  V30 4687 H 464.154 2.76632 -0.992582 0
M  V30 4688 H 461.668 1.49166 -0.642127 0
M  V30 4689 H 463.665 4.01179 1.13408 0
M  V30 4690 H 462.325 2.88828 1.48353 0
M  V30 4691 H 463.336 4.92497 -1.60209 0
M  V30 4692 H 460.013 4.08969 0.839664 0
M  V30 4693 H 461.403 6.18991 -2.61342 0
M  V30 4694 N 464.123 0.554532 1.47522 0
M  V30 4695 C 465.055 -0.232106 2.28022 0
M  V30 4696 C 466.068 -0.881865 1.36847 0
M  V30 4697 O 467.257 -0.756168 1.61692 0
M  V30 4698 C 464.357 -1.34604 3.11022 0
M  V30 4699 C 463.53 -0.793582 4.30141 0
M  V30 4700 C 462.589 -1.79168 4.94758 0
M  V30 4701 O 461.615 -1.33886 5.5323 0
M  V30 4702 N 462.817 -3.12495 4.89211 0
M  V30 4703 H 465.582 0.458407 2.96173 0
M  V30 4704 H 463.143 0.390433 1.57122 0
M  V30 4705 H 465.135 -2.01243 3.51118 0
M  V30 4706 H 463.705 -1.93983 2.45131 0
M  V30 4707 H 462.925 0.0495025 3.94169 0
M  V30 4708 H 464.213 -0.403776 5.07195 0
M  V30 4709 H 463.611 -3.51931 4.42901 0
M  V30 4710 H 462.168 -3.74698 5.33333 0
M  V30 4711 N 465.601 -1.54893 0.290851 0
M  V30 4712 C 466.878 -1.91991 -0.373989 0
M  V30 4713 C 467.258 -1.21694 -1.72493 0
M  V30 4714 O 466.606 -0.34917 -2.25816 0
M  V30 4715 C 466.816 -3.45419 -0.498703 0
M  V30 4716 C 468.164 -4.1748 -0.774298 0
M  V30 4717 O 469.188 -3.51398 -0.582908 0
M  V30 4718 O 468.047 -5.3445 -1.14129 0
M  V30 4719 H 465.141 -0.800593 -0.207315 0
M  V30 4720 H 467.687 -1.66297 0.338164 0
M  V30 4721 H 466.459 -3.88688 0.451392 0
M  V30 4722 H 466.082 -3.77117 -1.25972 0
M  V30 4723 N 467.08 -0.0183926 -1.57589 0
M  V30 4724 C 468.326 0.657813 -1.92469 0
M  V30 4725 C 468.681 1.70349 -0.894375 0
M  V30 4726 O 467.974 1.91384 0.0910389 0
M  V30 4727 C 468.168 1.32676 -3.31861 0
M  V30 4728 C 467.997 0.347403 -4.48356 0
M  V30 4729 C 466.767 -0.0488653 -5.05276 0
M  V30 4730 C 468.965 -0.393931 -5.12789 0
M  V30 4731 N 466.947 -1.02451 -6.05291 0
M  V30 4732 C 468.318 -1.22367 -6.07804 0
M  V30 4733 C 470.373 -0.455789 -4.95809 0
M  V30 4734 C 469.076 -2.10966 -6.87667 0
M  V30 4735 C 471.102 -1.32908 -5.76272 0
M  V30 4736 C 470.464 -2.14662 -6.70894 0
M  V30 4737 H 466.563 0.21335 -0.752334 0
M  V30 4738 H 469.147 -0.0830547 -1.94523 0
M  V30 4739 H 467.318 2.03782 -3.30647 0
M  V30 4740 H 469.05 1.95913 -3.54119 0
M  V30 4741 H 465.805 0.323356 -4.72495 0
M  V30 4742 H 466.229 -1.50826 -6.59985 0
M  V30 4743 H 470.871 0.162017 -4.22489 0
M  V30 4744 H 468.589 -2.73807 -7.603 0
M  V30 4745 H 472.175 -1.38109 -5.6517 0
M  V30 4746 H 471.055 -2.81143 -7.32071 0
M  V30 4747 N 468.558 1.5553 0.254621 0
M  V30 4748 C 469.488 1.9268 1.31897 0
M  V30 4749 C 470.469 0.790797 1.506 0
M  V30 4750 O 471.654 1.05045 1.63337 0
M  V30 4751 C 468.784 2.21477 2.67517 0
M  V30 4752 C 467.738 3.37256 2.63519 0
M  V30 4753 C 467.064 3.51576 4.02862 0
M  V30 4754 C 468.364 4.73157 2.21179 0
M  V30 4755 H 470.058 2.81832 1.01051 0
M  V30 4756 H 467.604 1.35599 0.484662 0
M  V30 4757 H 469.557 2.46055 3.42104 0
M  V30 4758 H 468.281 1.29144 2.99982 0
M  V30 4759 H 466.94 3.12675 1.9139 0
M  V30 4760 H 466.588 2.56676 4.32581 0
M  V30 4761 H 466.288 4.2943 4.01078 0
M  V30 4762 H 467.812 3.78467 4.79161 0
M  V30 4763 H 469.226 4.97158 2.85494 0
M  V30 4764 H 467.623 5.54058 2.30521 0
M  V30 4765 H 468.693 4.70739 1.16332 0
M  V30 4766 N 470.036 -0.519951 1.48776 0
M  V30 4767 C 470.984 -1.64443 1.64503 0
M  V30 4768 C 471.978 -1.61501 0.511248 0
M  V30 4769 O 473.184 -1.66238 0.690294 0
M  V30 4770 H 469.559 -0.544776 0.518385 0
M  V30 4771 H 471.53 -1.48325 2.58925 0
M  V30 4772 C 470.279 -3.02673 1.71127 0
M  V30 4773 H 469.602 -3.05635 2.57735 0
M  V30 4774 H 471.042 -3.80941 1.86172 0
M  V30 4775 C 469.501 -3.33854 0.452032 0
M  V30 4776 O 470.031 -3.99385 -0.430678 0
M  V30 4777 N 468.237 -2.88825 0.32069 0
M  V30 4778 H 467.784 -2.35674 1.03998 0
M  V30 4779 H 467.742 -3.10056 -0.520814 0
M  V30 4780 N 471.514 -1.37532 -0.769588 0
M  V30 4781 C 472.762 -1.32597 -1.5252 0
M  V30 4782 C 473.083 0.0884294 -1.94799 0
M  V30 4783 O 472.353 1.03289 -1.66458 0
M  V30 4784 H 470.933 -0.487846 -0.565699 0
M  V30 4785 H 473.595 -1.72044 -0.915806 0
M  V30 4786 H 472.691 -1.96643 -2.42359 0
M  V30 4787 N 472.992 0.995999 -1.22138 0
M  V30 4788 C 473.939 2.08551 -0.988687 0
M  V30 4789 C 474.909 1.65864 0.0885021 0
M  V30 4790 O 476.094 1.90704 -0.0604589 0
M  V30 4791 C 473.234 3.40374 -0.569191 0
M  V30 4792 C 472.347 3.96421 -1.71681 0
M  V30 4793 C 471.482 5.1639 -1.2456 0
M  V30 4794 C 470.521 5.64567 -2.36497 0
M  V30 4795 N 469.658 6.75777 -1.90445 0
M  V30 4796 H 474.498 2.2779 -1.92135 0
M  V30 4797 H 472.035 1.1168 -0.957388 0
M  V30 4798 H 473.993 4.16068 -0.307166 0
M  V30 4799 H 472.623 3.21145 0.326462 0
M  V30 4800 H 471.675 3.17628 -2.09324 0
M  V30 4801 H 472.987 4.2816 -2.55891 0
M  V30 4802 H 472.141 5.99362 -0.940774 0
M  V30 4803 H 470.88 4.86266 -0.373662 0
M  V30 4804 H 469.885 4.80185 -2.67772 0
M  V30 4805 H 471.11 5.96716 -3.24202 0
M  V30 4806 H 469.056 6.47443 -1.05609 0
M  V30 4807 H 468.973 7.06818 -2.68223 0
M  V30 4808 H 470.241 7.62262 -1.63022 0
M  V30 4809 N 474.47 1.03057 1.19235 0
M  V30 4810 C 475.38 0.622922 2.26179 0
M  V30 4811 C 476.396 -0.346113 1.70523 0
M  V30 4812 O 477.572 -0.203572 2.00369 0
M  V30 4813 C 474.637 -0.0182063 3.46695 0
M  V30 4814 C 473.698 0.998546 4.17526 0
M  V30 4815 C 472.931 0.387917 5.32288 0
M  V30 4816 O 473.154 -0.808668 5.64639 0
M  V30 4817 O 472.088 1.1116 5.91546 0
M  V30 4818 H 475.914 1.51363 2.63292 0
M  V30 4819 H 473.499 0.800856 1.26122 0
M  V30 4820 H 475.381 -0.375606 4.19723 0
M  V30 4821 H 474.056 -0.882895 3.11427 0
M  V30 4822 H 472.963 1.40756 3.4661 0
M  V30 4823 H 474.296 1.83366 4.56769 0
M  V30 4824 N 475.948 -1.35272 0.808662 0
M  V30 4825 C 477.178 -2.02652 0.401953 0
M  V30 4826 C 477.586 -1.6108 -0.992462 0
M  V30 4827 O 476.929 -0.804984 -1.65123 0
M  V30 4828 C 476.991 -3.57174 0.408246 0
M  V30 4829 C 476.655 -4.22019 1.75353 0
M  V30 4830 C 477.652 -4.43552 2.71215 0
M  V30 4831 C 475.337 -4.59093 2.03811 0
M  V30 4832 C 477.331 -5.01264 3.93717 0
M  V30 4833 C 475.018 -5.16519 3.26576 0
M  V30 4834 C 476.016 -5.37546 4.21347 0
M  V30 4835 O 475.704 -5.93761 5.41944 0
M  V30 4836 H 475.436 -0.656495 0.161216 0
M  V30 4837 H 477.99 -1.73829 1.0942 0
M  V30 4838 H 476.22 -3.85197 -0.340608 0
M  V30 4839 H 477.909 -4.05893 0.0235623 0
M  V30 4840 H 478.675 -4.15288 2.50522 0
M  V30 4841 H 474.554 -4.42039 1.30854 0
M  V30 4842 H 478.098 -5.17592 4.67701 0
M  V30 4843 H 473.995 -5.4421 3.47139 0
M  V30 4844 H 474.763 -6.1221 5.43269 0
M  V30 4845 N 477.426 -0.562348 -1.47226 0
M  V30 4846 C 478.373 0.182461 -2.30078 0
M  V30 4847 C 479.343 0.903503 -1.39377 0
M  V30 4848 O 480.528 0.898188 -1.68337 0
M  V30 4849 C 477.668 1.20322 -3.23445 0
M  V30 4850 C 476.781 0.487717 -4.29238 0
M  V30 4851 C 475.916 1.49422 -5.09752 0
M  V30 4852 C 474.955 0.763976 -6.07314 0
M  V30 4853 N 474.092 1.71755 -6.80768 0
M  V30 4854 H 478.932 -0.530169 -2.93246 0
M  V30 4855 H 476.469 -0.273276 -1.44539 0
M  V30 4856 H 478.427 1.80768 -3.76004 0
M  V30 4857 H 477.057 1.88382 -2.6213 0
M  V30 4858 H 476.109 -0.231374 -3.79696 0
M  V30 4859 H 477.421 -0.0841003 -4.98729 0
M  V30 4860 H 476.575 2.17206 -5.66486 0
M  V30 4861 H 475.314 2.09995 -4.40174 0
M  V30 4862 H 474.319 0.0722344 -5.49753 0
M  V30 4863 H 475.544 0.16391 -6.78902 0
M  V30 4864 H 473.49 2.31177 -6.13916 0
M  V30 4865 H 473.407 1.19802 -7.46447 0
M  V30 4866 H 474.675 2.38638 -7.42073 0
M  V30 4867 N 478.904 1.54736 -0.299062 0
M  V30 4868 C 480.144 2.0201 0.31168 0
M  V30 4869 C 480.508 1.18281 1.5124 0
M  V30 4870 O 481.709 1.55243 2.19438 0
M  V30 4871 C 479.98 3.5123 0.661227 0
M  V30 4872 S 481.539 4.20467 1.2551 0
M  V30 4873 H 478.357 0.704523 0.0957517 0
M  V30 4874 H 480.959 1.90791 -0.426482 0
M  V30 4875 H 479.663 4.09804 -0.221171 0
M  V30 4876 H 479.194 3.66481 1.43023 0
M  V30 4877 H 481.209 4.26083 2.54298 0
M  V30 4878 N 480.382 0.0267497 1.57577 0
M  V30 4879 C 481.329 -0.955894 2.10075 0
M  V30 4880 C 482.299 -1.32453 1.00226 0
M  V30 4881 O 483.484 -1.41826 1.27632 0
M  V30 4882 C 480.624 -2.2338 2.6305 0
M  V30 4883 C 479.737 -1.92183 3.86898 0
M  V30 4884 C 478.872 -3.14251 4.28275 0
M  V30 4885 C 477.911 -2.78862 5.44888 0
M  V30 4886 N 477.048 -3.93548 5.81433 0
M  V30 4887 H 481.888 -0.501303 2.93753 0
M  V30 4888 H 479.425 -0.235847 1.45197 0
M  V30 4889 H 481.383 -2.98124 2.91853 0
M  V30 4890 H 480.013 -2.6646 1.82205 0
M  V30 4891 H 479.065 -1.07692 3.64838 0
M  V30 4892 H 480.377 -1.62117 4.7172 0
M  V30 4893 H 479.531 -3.97317 4.58502 0
M  V30 4894 H 478.27 -3.47476 3.42215 0
M  V30 4895 H 477.275 -1.94208 5.14357 0
M  V30 4896 H 478.5 -2.46855 6.32645 0
M  V30 4897 H 476.446 -4.2662 4.98328 0
M  V30 4898 H 476.363 -3.67098 6.6089 0
M  V30 4899 H 477.631 -4.77325 6.16264 0
M  V30 4900 N 481.861 -1.55662 -0.24637 0
M  V30 4901 C 483.107 -1.77782 -0.975779 0
M  V30 4902 C 483.44 -0.592103 -1.84953 0
M  V30 4903 O 482.715 0.409588 -1.90138 0
M  V30 4904 C 482.998 -3.09788 -1.83584 0
M  V30 4905 C 482.851 -4.38764 -0.990241 0
M  V30 4906 C 484.17 -3.38029 -2.81823 0
M  V30 4907 H 481.289 -0.646789 -0.353317 0
M  V30 4908 H 483.931 -1.88398 -0.246248 0
M  V30 4909 H 482.081 -3.00869 -2.45784 0
M  V30 4910 H 483.753 -4.59675 -0.386897 0
M  V30 4911 H 481.996 -4.32798 -0.294626 0
M  V30 4912 H 482.667 -5.27514 -1.62584 0
M  V30 4913 H 485.143 -3.46915 -2.2976 0
M  V30 4914 H 484.019 -4.3161 -3.39122 0
M  V30 4915 H 484.28 -2.58968 -3.58313 0
M  V30 4916 N 483.339 0.512053 -1.4905 0
M  V30 4917 C 484.564 1.2959 -1.6193 0
M  V30 4918 C 484.989 1.85906 -0.286454 0
M  V30 4919 O 484.347 1.65312 0.744426 0
M  V30 4920 C 484.395 2.40987 -2.68249 0
M  V30 4921 O 483.499 3.44531 -2.26654 0
M  V30 4922 H 482.84 0.383053 -0.542371 0
M  V30 4923 H 485.37 0.614231 -1.95162 0
M  V30 4924 H 485.38 2.86913 -2.90078 0
M  V30 4925 H 484.055 1.99361 -3.65004 0
M  V30 4926 H 482.632 3.046 -2.15112 0
M  V30 4927 N 484.817 1.37938 0.762283 0
M  V30 4928 C 485.765 1.34569 1.89721 0
M  V30 4929 C 486.759 0.232929 1.67791 0
M  V30 4930 O 487.965 0.401485 1.75465 0
M  V30 4931 H 484.34 0.419594 0.624055 0
M  V30 4932 H 486.311 2.30357 1.8968 0
M  V30 4933 C 485.06 1.17898 3.27101 0
M  V30 4934 H 484.383 2.02781 3.44558 0
M  V30 4935 H 485.823 1.19593 4.06784 0
M  V30 4936 C 484.282 -0.114728 3.36705 0
M  V30 4937 O 484.812 -1.0949 3.8649 0
M  V30 4938 N 483.018 -0.16863 2.9011 0
M  V30 4939 H 482.565 0.62967 2.49786 0
M  V30 4940 H 482.523 -1.03383 2.96916 0
M  V30 4941 N 486.295 -0.989507 1.22664 0
M  V30 4942 C 487.242 -2.08024 0.999733 0
M  V30 4943 C 488.212 -1.65909 -0.0797047 0
M  V30 4944 O 489.397 -1.90669 0.0705715 0
M  V30 4945 C 486.537 -3.40067 0.587234 0
M  V30 4946 C 485.65 -3.95505 1.73781 0
M  V30 4947 C 484.785 -5.15722 1.27297 0
M  V30 4948 C 483.824 -5.63305 2.39488 0
M  V30 4949 N 482.961 -6.74758 1.94026 0
M  V30 4950 H 487.801 -2.26768 1.9334 0
M  V30 4951 H 485.338 -1.11171 0.963297 0
M  V30 4952 H 487.296 -4.15899 0.329227 0
M  V30 4953 H 485.926 -3.21314 -0.309426 0
M  V30 4954 H 484.978 -3.16513 2.11006 0
M  V30 4955 H 486.29 -4.26797 2.58158 0
M  V30 4956 H 485.444 -5.98854 0.972546 0
M  V30 4957 H 484.183 -4.86061 0.399445 0
M  V30 4958 H 483.188 -4.78759 2.70315 0
M  V30 4959 H 484.413 -5.94988 3.27362 0
M  V30 4960 H 482.359 -6.46874 1.09041 0
M  V30 4961 H 482.276 -7.05386 2.71968 0
M  V30 4962 H 483.544 -7.61387 1.67062 0
M  V30 4963 N 487.773 -1.03688 -1.18687 0
M  V30 4964 C 488.736 -0.629115 -2.20397 0
M  V30 4965 C 489.736 0.311495 -1.57754 0
M  V30 4966 O 490.926 0.0974107 -1.73927 0
M  V30 4967 C 488.058 0.0782231 -3.4081 0
M  V30 4968 H 489.251 -1.52915 -2.57987 0
M  V30 4969 H 486.804 -0.828988 -1.32505 0
M  V30 4970 H 487.539 0.992233 -3.08748 0
M  V30 4971 H 487.324 -0.597776 -3.87517 0
M  V30 4972 H 488.814 0.350156 -4.16129 0
M  V30 4973 N 489.251 1.34841 -0.815825 0
M  V30 4974 C 490.181 2.32187 -0.247298 0
M  V30 4975 C 491.162 1.5791 0.632344 0
M  V30 4976 O 492.347 1.8593 0.560698 0
M  V30 4977 C 489.477 3.42122 0.597466 0
M  V30 4978 C 488.431 4.27602 -0.184446 0
M  V30 4979 C 487.757 5.28942 0.782609 0
M  V30 4980 C 489.057 5.03502 -1.38865 0
M  V30 4981 H 490.751 2.79985 -1.06061 0
M  V30 4982 H 488.297 1.34611 -0.511461 0
M  V30 4983 H 490.25 4.09232 1.00533 0
M  V30 4984 H 488.974 2.92956 1.44376 0
M  V30 4985 H 487.633 3.62085 -0.573592 0
M  V30 4986 H 487.281 4.7604 1.62466 0
M  V30 4987 H 486.981 5.87008 0.263695 0
M  V30 4988 H 488.505 5.98922 1.18848 0
M  V30 4989 H 489.919 5.63506 -1.05518 0
M  V30 4990 H 488.316 5.71108 -1.8427 0
M  V30 4991 H 489.386 4.33608 -2.17054 0
M  V30 4992 N 490.729 0.570148 1.46925 0
M  V30 4993 C 492.14 0.1402 1.86173 0
M  V30 4994 C 492.491 -1.29347 1.47526 0
M  V30 4995 O 491.616 -1.97508 0.884292 0
M  V30 4996 C 492.211 0.247661 3.37894 0
M  V30 4997 C 490.77 -0.127332 3.76185 0
M  V30 4998 C 489.917 0.589349 2.70965 0
M  V30 4999 H 492.868 0.779117 1.38259 0
M  V30 5000 H 492.889 -0.530341 3.76786 0
M  V30 5001 H 492.401 1.29121 3.65991 0
M  V30 5002 H 490.502 -1.17149 3.53704 0
M  V30 5003 H 490.615 0.240238 4.78497 0
M  V30 5004 H 488.979 0.0309824 2.54681 0
M  V30 5005 H 489.762 1.6343 3.01903 0
M  V30 5006 N 492.207 -1.54576 0.307264 0
M  V30 5007 C 493.17 -2.22423 -0.553224 0
M  V30 5008 C 494.17 -1.21231 -1.05639 0
M  V30 5009 O 495.36 -1.45923 -0.951419 0
M  V30 5010 C 492.492 -2.91552 -1.76664 0
M  V30 5011 H 493.685 -2.99874 0.0396484 0
M  V30 5012 H 491.238 -1.56192 0.0581629 0
M  V30 5013 H 491.973 -2.18196 -2.39918 0
M  V30 5014 H 491.758 -3.65738 -1.41343 0
M  V30 5015 H 493.248 -3.43292 -2.37783 0
M  V30 5016 N 493.685 -0.035106 -1.57561 0
M  V30 5017 C 495.096 0.502885 -1.798 0
M  V30 5018 C 495.447 1.71892 -0.945921 0
M  V30 5019 O 494.572 2.15822 -0.157991 0
M  V30 5020 C 495.167 0.919097 -3.26095 0
M  V30 5021 C 493.726 1.40216 -3.49308 0
M  V30 5022 C 492.873 0.369709 -2.74824 0
M  V30 5023 H 495.824 -0.261102 -1.56537 0
M  V30 5024 H 495.845 1.78308 -3.36135 0
M  V30 5025 H 495.357 0.0338526 -3.88085 0
M  V30 5026 H 493.458 2.30714 -2.92578 0
M  V30 5027 H 493.571 1.40541 -4.58023 0
M  V30 5028 H 491.935 0.839113 -2.40481 0
M  V30 5029 H 492.718 -0.507173 -3.39533 0
M  V30 5030 N 495.163 1.55791 0.238111 0
M  V30 5031 C 496.412 1.77234 0.962868 0
M  V30 5032 C 496.725 0.600661 1.86149 0
M  V30 5033 O 497.931 0.698315 2.62366 0
M  V30 5034 C 496.387 3.13808 1.76218 0
M  V30 5035 C 495.995 4.3865 0.910518 0
M  V30 5036 C 497.739 3.44585 2.47914 0
M  V30 5037 C 495.646 5.66252 1.70623 0
M  V30 5038 H 494.576 0.660731 0.36325 0
M  V30 5039 H 497.227 1.8221 0.217242 0
M  V30 5040 H 495.609 3.02963 2.55009 0
M  V30 5041 H 496.783 4.60507 0.164316 0
M  V30 5042 H 495.098 4.15271 0.30647 0
M  V30 5043 H 497.695 4.3714 3.07917 0
M  V30 5044 H 498.038 2.66314 3.19973 0
M  V30 5045 H 498.571 3.56685 1.76127 0
M  V30 5046 H 495.31 6.47369 1.02923 0
M  V30 5047 H 494.83 5.48483 2.42748 0
M  V30 5048 H 496.509 6.05829 2.27114 0
M  V30 5049 N 496.642 -0.504142 1.49319 0
M  V30 5050 C 497.552 -1.63248 1.68486 0
M  V30 5051 C 498.568 -1.64488 0.567432 0
M  V30 5052 O 499.744 -1.82966 0.841749 0
M  V30 5053 C 496.809 -2.99627 1.74426 0
M  V30 5054 C 495.87 -3.09039 2.97982 0
M  V30 5055 C 495.103 -4.38913 3.0363 0
M  V30 5056 O 495.326 -5.27528 2.16958 0
M  V30 5057 O 494.26 -4.53231 3.96062 0
M  V30 5058 H 498.086 -1.50008 2.64067 0
M  V30 5059 H 495.671 -0.680086 1.33023 0
M  V30 5060 H 497.553 -3.80689 1.80705 0
M  V30 5061 H 496.228 -3.13136 0.820233 0
M  V30 5062 H 495.135 -2.27177 2.97223 0
M  V30 5063 H 496.468 -3.00456 3.89855 0
M  V30 5064 N 498.12 -1.38341 -0.754957 0
M  V30 5065 C 499.067 -1.3546 -1.86867 0
M  V30 5066 C 500.037 -0.217369 -1.64672 0
M  V30 5067 O 501.222 -0.409383 -1.86356 0
M  V30 5068 C 498.362 -1.18413 -3.24149 0
M  V30 5069 C 497.475 -2.41511 -3.58185 0
M  V30 5070 C 496.61 -2.17205 -4.84763 0
M  V30 5071 C 495.649 -3.36081 -5.11582 0
M  V30 5072 N 494.786 -3.11219 -6.29354 0
M  V30 5073 H 499.626 -2.30672 -1.88664 0
M  V30 5074 H 497.163 -1.14607 -0.922154 0
M  V30 5075 H 499.121 -1.06545 -4.03366 0
M  V30 5076 H 497.751 -0.268397 -3.21682 0
M  V30 5077 H 496.803 -2.64056 -2.73822 0
M  V30 5078 H 498.115 -3.30115 -3.73932 0
M  V30 5079 H 497.269 -2.02465 -5.7192 0
M  V30 5080 H 496.008 -1.25964 -4.71152 0
M  V30 5081 H 495.013 -3.51341 -4.22894 0
M  V30 5082 H 496.238 -4.28196 -5.27091 0
M  V30 5083 H 494.184 -2.22624 -6.17069 0
M  V30 5084 H 494.101 -3.93373 -6.45596 0
M  V30 5085 H 495.369 -3.00132 -7.19403 0
M  V30 5086 N 499.598 0.982988 -1.23187 0
M  V30 5087 C 500.826 1.75921 -1.08901 0
M  V30 5088 C 501.241 1.85341 0.359719 0
M  V30 5089 O 500.598 1.33072 1.24892 0
M  V30 5090 C 500.649 3.18742 -1.70545 0
M  V30 5091 O 500.37 3.09814 -3.09753 0
M  V30 5092 C 501.871 4.1277 -1.61667 0
M  V30 5093 H 499.091 0.552166 -0.381252 0
M  V30 5094 H 501.635 1.23516 -1.62985 0
M  V30 5095 H 499.79 3.68182 -1.20501 0
M  V30 5096 H 500.204 3.99703 -3.39614 0
M  V30 5097 H 501.678 5.10697 -2.09506 0
M  V30 5098 H 502.155 4.3542 -0.575009 0
M  V30 5099 H 502.761 3.69232 -2.11064 0
M  V30 5100 N 501.076 1.04316 1.18135 0
M  V30 5101 C 502.325 0.74319 1.87509 0
M  V30 5102 C 502.638 -0.732136 1.81381 0
M  V30 5103 O 503.844 -1.14572 2.46141 0
M  V30 5104 C 502.3 1.27913 3.36402 0
M  V30 5105 C 501.908 2.78326 3.51053 0
M  V30 5106 C 503.652 1.0558 4.11161 0
M  V30 5107 C 501.559 3.25266 4.93919 0
M  V30 5108 H 500.489 0.274313 0.702331 0
M  V30 5109 H 503.14 1.25931 1.33467 0
M  V30 5110 H 501.522 0.690853 3.89927 0
M  V30 5111 H 502.696 3.42933 3.07788 0
M  V30 5112 H 501.011 2.991 2.89704 0
M  V30 5113 H 503.608 1.38161 5.16542 0
M  V30 5114 H 503.951 -0.00684729 4.16299 0
M  V30 5115 H 504.484 1.60882 3.63816 0
M  V30 5116 H 501.223 4.30922 4.9395 0
M  V30 5117 H 500.743 2.65396 5.3789 0
M  V30 5118 H 502.422 3.19433 5.62647 0
M  V30 5119 N 502.554 -1.34406 0.822964 0
M  V30 5120 C 503.779 -2.0304 0.423034 0
M  V30 5121 C 504.204 -1.61568 -0.963196 0
M  V30 5122 O 503.562 -0.800339 -1.62678 0
M  V30 5123 C 503.61 -3.56636 0.53321 0
M  V30 5124 O 502.714 -4.09971 -0.446939 0
M  V30 5125 H 502.055 -0.64075 0.174171 0
M  V30 5126 H 504.585 -1.71653 1.11339 0
M  V30 5127 H 504.595 -4.05945 0.408991 0
M  V30 5128 H 503.27 -3.86168 1.54425 0
M  V30 5129 H 501.847 -3.71835 -0.281601 0
M  V30 5130 N 504.032 -0.577932 -1.46621 0
M  V30 5131 C 504.979 0.158048 -2.30258 0
M  V30 5132 C 505.949 0.888669 -1.40328 0
M  V30 5133 O 507.134 0.880283 -1.6928 0
M  V30 5134 C 504.274 1.16884 -3.24703 0
M  V30 5135 C 503.387 0.442163 -4.29731 0
M  V30 5136 C 502.522 1.44007 -5.11308 0
M  V30 5137 C 501.561 0.69952 -6.0809 0
M  V30 5138 N 500.698 1.64525 -6.82551 0
M  V30 5139 H 505.538 -0.561242 -2.92667 0
M  V30 5140 H 503.075 -0.288591 -1.44241 0
M  V30 5141 H 505.033 1.7677 -3.779 0
M  V30 5142 H 503.663 1.85591 -2.64113 0
M  V30 5143 H 502.715 -0.271632 -3.79429 0
M  V30 5144 H 504.027 -0.136992 -4.98612 0
M  V30 5145 H 503.181 2.11186 -5.68758 0
M  V30 5146 H 501.92 2.05315 -4.42377 0
M  V30 5147 H 500.925 0.0139217 -5.49798 0
M  V30 5148 H 502.15 0.091894 -6.79038 0
M  V30 5149 H 500.096 2.24653 -6.16334 0
M  V30 5150 H 500.013 1.11878 -7.47676 0
M  V30 5151 H 501.281 2.30754 -7.44562 0
M  V30 5152 N 505.51 1.54411 -0.315457 0
M  V30 5153 C 506.473 2.22713 0.54142 0
M  V30 5154 C 507.473 1.2179 1.04995 0
M  V30 5155 O 508.663 1.46426 0.943667 0
M  V30 5156 C 505.795 2.92485 1.75116 0
M  V30 5157 H 506.988 2.99849 -0.0555508 0
M  V30 5158 H 504.541 1.56159 -0.0664453 0
M  V30 5159 H 505.276 2.19466 2.38758 0
M  V30 5160 H 505.061 3.66483 1.39401 0
M  V30 5161 H 506.551 3.44548 2.35959 0
M  V30 5162 N 506.988 0.0434614 1.5754 0
M  V30 5163 C 507.935 -0.93356 2.11077 0
M  V30 5164 C 508.905 -1.31383 1.01626 0
M  V30 5165 O 510.09 -1.40465 1.29129 0
M  V30 5166 C 507.23 -2.20578 2.65404 0
M  V30 5167 C 506.343 -1.88068 3.88914 0
M  V30 5168 C 505.478 -3.09691 4.31584 0
M  V30 5169 C 504.517 -2.73067 5.47815 0
M  V30 5170 N 503.654 -3.87359 5.85574 0
M  V30 5171 H 508.494 -0.470118 2.94268 0
M  V30 5172 H 506.031 -0.220434 1.45439 0
M  V30 5173 H 507.989 -2.95011 2.94999 0
M  V30 5174 H 506.619 -2.64513 1.85021 0
M  V30 5175 H 505.671 -1.03816 3.6596 0
M  V30 5176 H 506.983 -1.57104 4.73413 0
M  V30 5177 H 506.137 -3.92431 4.62691 0
M  V30 5178 H 504.876 -3.43827 3.45882 0
M  V30 5179 H 503.881 -1.88742 5.16388 0
M  V30 5180 H 505.106 -2.40131 6.35227 0
M  V30 5181 H 503.052 -4.21311 5.02825 0
M  V30 5182 H 502.969 -3.60068 6.64746 0
M  V30 5183 H 504.237 -4.70761 6.21292 0
M  V30 5184 N 508.466 -1.55915 -0.229846 0
M  V30 5185 C 509.714 -1.7819 -0.953565 0
M  V30 5186 C 510.035 -0.610504 -1.85197 0
M  V30 5187 O 509.305 0.372988 -1.92316 0
M  V30 5188 H 507.885 -0.657208 -0.355087 0
M  V30 5189 H 510.547 -1.9337 -0.243693 0
M  V30 5190 H 509.643 -2.70011 -1.56527 0
M  V30 5191 N 509.944 0.496216 -1.49584 0
M  V30 5192 C 510.876 1.61404 -1.62731 0
M  V30 5193 C 511.889 1.54613 -0.50978 0
M  V30 5194 O 513.078 1.60458 -0.782017 0
M  V30 5195 C 510.178 3.00212 -1.57245 0
M  V30 5196 C 509.351 3.32138 -2.84611 0
M  V30 5197 C 508.41 4.5038 -2.72112 0
M  V30 5198 O 507.436 4.51926 -3.46051 0
M  V30 5199 N 508.638 5.50575 -1.83977 0
M  V30 5200 H 511.403 1.50552 -2.59141 0
M  V30 5201 H 508.964 0.684182 -1.46733 0
M  V30 5202 H 510.956 3.77241 -1.4653 0
M  V30 5203 H 509.526 3.04964 -0.686729 0
M  V30 5204 H 508.746 2.4396 -3.09641 0
M  V30 5205 H 510.034 3.50268 -3.69039 0
M  V30 5206 H 509.432 5.52128 -1.23171 0
M  V30 5207 H 507.989 6.26687 -1.79182 0
M  V30 5208 N 511.423 1.38739 0.74761 0
M  V30 5209 C 512.834 1.31507 1.32524 0
M  V30 5210 C 513.185 -0.0263963 1.96182 0
M  V30 5211 O 512.31 -0.92849 1.95469 0
M  V30 5212 C 512.905 2.38162 2.40966 0
M  V30 5213 C 511.464 2.34489 2.94434 0
M  V30 5214 C 510.611 2.20712 1.67873 0
M  V30 5215 H 513.562 1.4901 0.546043 0
M  V30 5216 H 513.583 2.04222 3.21051 0
M  V30 5217 H 513.095 3.35783 1.94605 0
M  V30 5218 H 511.196 1.40467 3.45108 0
M  V30 5219 H 511.309 3.28861 3.48407 0
M  V30 5220 H 509.673 1.67667 1.91729 0
M  V30 5221 H 510.456 3.20285 1.23582 0
M  V30 5222 N 512.901 -0.976442 1.23707 0
M  V30 5223 C 514.317 -1.24341 1.00058 0
M  V30 5224 C 514.517 -1.99315 -0.295932 0
M  V30 5225 O 513.573 -2.3123 -1.01435 0
M  V30 5226 C 514.886 -2.03909 2.21001 0
M  V30 5227 C 516.434 -2.17034 2.25534 0
M  V30 5228 C 516.909 -2.99994 3.46075 0
M  V30 5229 N 518.4 -3.07578 3.46338 0
M  V30 5230 C 519.135 -3.72104 4.36264 0
M  V30 5231 N 518.631 -4.3842 5.36432 0
M  V30 5232 N 520.424 -3.69029 4.23998 0
M  V30 5233 H 512.575 -0.47428 2.07037 0
M  V30 5234 H 514.838 -0.272167 0.908091 0
M  V30 5235 H 514.544 -1.56198 3.15111 0
M  V30 5236 H 514.418 -3.04654 2.22409 0
M  V30 5237 H 516.805 -2.63951 1.31961 0
M  V30 5238 H 516.886 -1.15664 2.28156 0
M  V30 5239 H 516.53 -2.53772 4.39957 0
M  V30 5240 H 516.46 -4.01541 3.40694 0
M  V30 5241 H 518.951 -2.60397 2.73865 0
M  V30 5242 H 519.264 -4.85447 6.013 0
M  V30 5243 H 517.609 -4.37116 5.40328 0
M  V30 5244 H 520.8 -3.16392 3.44984 0
M  V30 5245 H 520.973 -4.19034 4.94282 0
M  V30 5246 N 514.379 -1.04941 -1.1758 0
M  V30 5247 C 515.289 -0.658826 -2.25159 0
M  V30 5248 C 516.305 0.318941 -1.71052 0
M  V30 5249 O 517.481 0.171669 -2.00667 0
M  V30 5250 C 514.546 -0.0369522 -3.4668 0
M  V30 5251 C 513.607 -1.06484 -4.15884 0
M  V30 5252 C 512.84 -0.472551 -5.31604 0
M  V30 5253 O 513.063 0.718736 -5.65854 0
M  V30 5254 O 511.997 -1.20557 -5.89703 0
M  V30 5255 H 515.823 -1.55533 -2.60851 0
M  V30 5256 H 513.408 -0.820819 -1.24832 0
M  V30 5257 H 515.29 0.308784 -4.20267 0
M  V30 5258 H 513.965 0.833238 -3.12792 0
M  V30 5259 H 512.872 -1.46253 -3.44327 0
M  V30 5260 H 514.205 -1.9061 -4.53794 0
M  V30 5261 N 515.857 1.33968 -0.830081 0
M  V30 5262 C 517.268 1.80439 -0.479455 0
M  V30 5263 C 517.619 1.68756 1.00079 0
M  V30 5264 O 516.744 1.23171 1.77927 0
M  V30 5265 C 517.339 3.27611 -0.863505 0
M  V30 5266 C 515.898 3.72133 -0.565145 0
M  V30 5267 C 515.045 2.55549 -1.07657 0
M  V30 5268 H 517.996 1.21614 -1.0196 0
M  V30 5269 H 518.017 3.8012 -0.170083 0
M  V30 5270 H 517.529 3.36082 -1.94089 0
M  V30 5271 H 515.63 3.69196 0.502536 0
M  V30 5272 H 515.743 4.65963 -1.11422 0
M  V30 5273 H 514.107 2.49788 -0.497807 0
M  V30 5274 H 514.89 2.66786 -2.16055 0
M  V30 5275 N 517.335 0.585699 1.46312 0
M  V30 5276 C 518.267 -0.183687 2.28463 0
M  V30 5277 C 519.28 -0.85264 1.38686 0
M  V30 5278 O 520.469 -0.721701 1.6326 0
M  V30 5279 C 517.569 -1.27977 3.13808 0
M  V30 5280 C 516.742 -0.702164 4.31727 0
M  V30 5281 C 515.801 -1.68633 4.98447 0
M  V30 5282 O 514.827 -1.22121 5.55945 0
M  V30 5283 N 516.029 -3.02047 4.95729 0
M  V30 5284 H 518.794 0.521127 2.95134 0
M  V30 5285 H 516.355 0.423673 1.56258 0
M  V30 5286 H 518.347 -1.9375 3.55307 0
M  V30 5287 H 516.917 -1.8874 2.4919 0
M  V30 5288 H 516.137 0.1331 3.93975 0
M  V30 5289 H 517.425 -0.296101 5.07938 0
M  V30 5290 H 516.823 -3.42457 4.50266 0
M  V30 5291 H 515.38 -3.63301 5.41161 0
M  V30 5292 N 518.813 -1.54241 0.323641 0
M  V30 5293 C 520.059 -2.00867 -0.279323 0
M  V30 5294 C 520.392 -1.21146 -1.5178 0
M  V30 5295 O 519.667 -0.29378 -1.92269 0
M  V30 5296 C 519.95 -3.54837 -0.613387 0
M  V30 5297 C 519.803 -4.45284 0.635803 0
M  V30 5298 C 521.122 -4.16186 -1.43099 0
M  V30 5299 H 518.241 -0.730177 -0.100049 0
M  V30 5300 H 520.883 -1.84829 0.440235 0
M  V30 5301 H 519.033 -3.68634 -1.22641 0
M  V30 5302 H 520.705 -4.43357 1.27406 0
M  V30 5303 H 518.948 -4.14956 1.26466 0
M  V30 5304 H 519.619 -5.5084 0.357597 0
M  V30 5305 H 522.095 -4.05964 -0.912814 0
M  V30 5306 H 520.971 -5.24031 -1.6335 0
M  V30 5307 H 521.232 -3.69516 -2.42715 0
M  V30 5308 N 520.291 -0.0518155 -1.57515 0
M  V30 5309 C 521.521 0.63048 -1.96745 0
M  V30 5310 C 521.929 1.64875 -0.928054 0
M  V30 5311 O 521.272 1.83449 0.0960678 0
M  V30 5312 C 521.334 1.37381 -3.32215 0
M  V30 5313 C 520.998 0.511298 -4.54131 0
M  V30 5314 C 521.995 -0.222884 -5.19422 0
M  V30 5315 C 519.68 0.442035 -5.00351 0
M  V30 5316 C 521.674 -1.01476 -6.2927 0
M  V30 5317 C 519.361 -0.35353 -6.10077 0
M  V30 5318 C 520.359 -1.08062 -6.74397 0
M  V30 5319 O 520.047 -1.8631 -7.82013 0
M  V30 5320 H 519.779 0.177126 -0.652382 0
M  V30 5321 H 522.333 -0.114726 -2.05079 0
M  V30 5322 H 520.563 2.16466 -3.20436 0
M  V30 5323 H 522.252 1.9464 -3.56188 0
M  V30 5324 H 523.018 -0.178846 -4.8467 0
M  V30 5325 H 518.897 0.997562 -4.50077 0
M  V30 5326 H 522.441 -1.58279 -6.79407 0
M  V30 5327 H 518.338 -0.399205 -6.44264 0
M  V30 5328 H 519.106 -1.78528 -7.98793 0
M  V30 5329 N 521.769 1.56035 0.221574 0
M  V30 5330 C 522.997 1.8313 0.962864 0
M  V30 5331 C 523.412 0.630934 1.77946 0
M  V30 5332 O 522.769 -0.400519 1.78051 0
M  V30 5333 C 522.82 3.08742 1.88045 0
M  V30 5334 O 522.541 4.24147 1.09686 0
M  V30 5335 C 524.042 3.48824 2.73563 0
M  V30 5336 H 521.262 0.608775 0.282194 0
M  V30 5337 H 523.806 2.03124 0.23681 0
M  V30 5338 H 521.961 2.90723 2.56045 0
M  V30 5339 H 522.375 4.95505 1.71974 0
M  V30 5340 H 523.849 4.39752 3.3365 0
M  V30 5341 H 524.326 2.70575 3.45956 0
M  V30 5342 H 524.932 3.69282 2.10976 0
M  V30 5343 N 523.247 -0.488276 1.49845 0
M  V30 5344 C 524.177 -1.59675 1.70371 0
M  V30 5345 C 525.158 -1.60878 0.552473 0
M  V30 5346 O 526.343 -1.77417 0.78973 0
M  V30 5347 C 523.473 -2.98098 1.782 0
M  V30 5348 C 522.427 -3.11761 2.93239 0
M  V30 5349 C 521.753 -4.51661 2.86193 0
M  V30 5350 C 523.053 -2.90589 4.33999 0
M  V30 5351 H 524.747 -1.42752 2.63177 0
M  V30 5352 H 522.293 -0.685317 1.26647 0
M  V30 5353 H 524.246 -3.75555 1.91144 0
M  V30 5354 H 522.97 -3.16138 0.820018 0
M  V30 5355 H 521.629 -2.36732 2.79917 0
M  V30 5356 H 521.277 -4.66595 1.87877 0
M  V30 5357 H 520.977 -4.61742 3.63412 0
M  V30 5358 H 522.501 -5.31162 3.01163 0
M  V30 5359 H 523.915 -3.57807 4.47936 0
M  V30 5360 H 522.312 -3.1213 5.12538 0
M  V30 5361 H 523.382 -1.86595 4.4756 0
M  V30 5362 N 524.725 -1.39134 -0.740242 0
M  V30 5363 C 526.136 -1.32208 -1.31825 0
M  V30 5364 C 526.487 0.0159919 -1.96193 0
M  V30 5365 O 525.612 0.918111 -1.95958 0
M  V30 5366 C 526.207 -2.39436 -2.39699 0
M  V30 5367 C 524.766 -2.36048 -2.93187 0
M  V30 5368 C 523.913 -2.21599 -1.66701 0
M  V30 5369 H 526.864 -1.49298 -0.538133 0
M  V30 5370 H 526.885 -2.05922 -3.19963 0
M  V30 5371 H 526.397 -3.36811 -1.92821 0
M  V30 5372 H 524.498 -1.42295 -3.44359 0
M  V30 5373 H 524.611 -3.30704 -3.46658 0
M  V30 5374 H 522.975 -1.68681 -1.90837 0
M  V30 5375 H 523.758 -3.20936 -1.21882 0
M  V30 5376 N 526.204 0.969867 -1.24223 0
M  V30 5377 C 527.615 1.52717 -1.07399 0
M  V30 5378 C 527.966 1.92956 0.355298 0
M  V30 5379 O 527.091 1.77112 1.2434 0
M  V30 5380 C 527.686 2.77521 -1.94339 0
M  V30 5381 C 526.245 3.29615 -1.81744 0
M  V30 5382 C 525.392 2.02537 -1.89405 0
M  V30 5383 H 528.343 0.788399 -1.37732 0
M  V30 5384 H 528.364 3.50773 -1.47439 0
M  V30 5385 H 527.876 2.48203 -2.98357 0
M  V30 5386 H 525.977 3.63789 -0.805505 0
M  V30 5387 H 526.09 3.98661 -2.65718 0
M  V30 5388 H 524.454 2.17151 -1.33108 0
M  V30 5389 H 525.237 1.75587 -2.94999 0
M  V30 5390 N 527.682 1.05563 1.17022 0
M  V30 5391 C 528.907 0.788437 1.91829 0
M  V30 5392 C 529.332 -0.650356 1.76499 0
M  V30 5393 O 528.69 -1.45229 1.08527 0
M  V30 5394 C 528.738 1.1786 3.40795 0
M  V30 5395 O 527.842 0.312965 4.11211 0
M  V30 5396 H 527.183 0.288794 0.597908 0
M  V30 5397 H 529.713 1.40948 1.48307 0
M  V30 5398 H 529.723 1.14697 3.91546 0
M  V30 5399 H 528.398 2.22666 3.51273 0
M  V30 5400 H 526.975 0.405515 3.70689 0
M  V30 5401 N 529.16 -1.33526 0.837174 0
M  V30 5402 C 530.576 -1.50727 0.524743 0
M  V30 5403 C 530.776 -1.77792 -0.948279 0
M  V30 5404 O 529.832 -1.83719 -1.73216 0
M  V30 5405 C 531.145 -2.66299 1.39661 0
M  V30 5406 C 532.693 -2.80183 1.39521 0
M  V30 5407 C 533.168 -3.98815 2.25189 0
M  V30 5408 N 534.659 -4.06047 2.2289 0
M  V30 5409 C 535.394 -4.97032 2.85915 0
M  V30 5410 N 534.89 -5.93143 3.57985 0
M  V30 5411 N 536.683 -4.90015 2.75394 0
M  V30 5412 H 528.834 -1.1422 1.79074 0
M  V30 5413 H 531.097 -0.561399 0.763894 0
M  V30 5414 H 530.803 -2.52974 2.4433 0
M  V30 5415 H 530.677 -3.61663 1.07145 0
M  V30 5416 H 533.064 -2.92942 0.356253 0
M  V30 5417 H 533.145 -1.85586 1.76044 0
M  V30 5418 H 532.789 -3.86817 3.29143 0
M  V30 5419 H 532.719 -4.92654 1.86009 0
M  V30 5420 H 535.21 -3.37262 1.70478 0
M  V30 5421 H 535.523 -6.59227 4.03286 0
M  V30 5422 H 533.868 -5.93223 3.62093 0
M  V30 5423 H 537.059 -4.13894 2.18654 0
M  V30 5424 H 537.232 -5.60724 3.24796 0
M  V30 5425 N 530.638 -0.59345 -1.46 0
M  V30 5426 C 531.548 0.135817 -2.34207 0
M  V30 5427 C 532.564 0.875008 -1.50398 0
M  V30 5428 O 533.74 0.835778 -1.83239 0
M  V30 5429 C 530.805 1.12977 -3.27776 0
M  V30 5430 C 529.866 0.394081 -4.27487 0
M  V30 5431 C 529.099 1.34068 -5.16586 0
M  V30 5432 O 529.322 2.5778 -5.08828 0
M  V30 5433 O 528.256 0.845426 -5.95933 0
M  V30 5434 H 532.082 -0.588691 -2.9794 0
M  V30 5435 H 529.667 -0.353784 -1.45151 0
M  V30 5436 H 531.549 1.70261 -3.85473 0
M  V30 5437 H 530.224 1.83556 -2.66625 0
M  V30 5438 H 529.131 -0.220869 -3.73447 0
M  V30 5439 H 530.464 -0.270939 -4.91454 0
M  V30 5440 N 532.116 1.54067 -0.331816 0
M  V30 5441 C 533.026 2.28322 0.539104 0
M  V30 5442 C 534.042 1.32985 1.1221 0
M  V30 5443 O 535.218 1.6601 1.1403 0
M  V30 5444 C 532.283 3.03277 1.68 0
M  V30 5445 C 531.344 4.14216 1.12798 0
M  V30 5446 C 530.577 4.85588 2.2145 0
M  V30 5447 O 530.8 4.56536 3.41952 0
M  V30 5448 O 529.734 5.72309 1.86404 0
M  V30 5449 H 533.56 3.03632 -0.0641692 0
M  V30 5450 H 531.145 1.49083 -0.0972365 0
M  V30 5451 H 533.027 3.50189 2.34405 0
M  V30 5452 H 531.702 2.30834 2.2693 0
M  V30 5453 H 530.609 3.71635 0.428782 0
M  V30 5454 H 531.942 4.88727 0.583698 0
M  V30 5455 N 533.594 0.0601682 1.57485 0
M  V30 5456 C 534.527 -0.94676 2.07634 0
M  V30 5457 C 535.505 -1.29837 0.978826 0
M  V30 5458 O 536.689 -1.40969 1.2514 0
M  V30 5459 C 533.816 -2.25822 2.52433 0
M  V30 5460 C 532.862 -2.05901 3.73507 0
M  V30 5461 S 533.695 -1.32907 5.18745 0
M  V30 5462 C 534.851 -2.65356 5.66866 0
M  V30 5463 H 535.084 -0.520003 2.92717 0
M  V30 5464 H 532.617 -0.152319 1.53647 0
M  V30 5465 H 534.575 -3.01201 2.78905 0
M  V30 5466 H 533.236 -2.65624 1.67639 0
M  V30 5467 H 532.429 -3.02929 4.02803 0
M  V30 5468 H 532.031 -1.38659 3.47347 0
M  V30 5469 H 534.323 -3.61492 5.73001 0
M  V30 5470 H 535.266 -2.40685 6.6594 0
M  V30 5471 H 535.674 -2.72028 4.94632 0
M  V30 5472 N 535.072 -1.5615 -0.213296 0
M  V30 5473 C 536.3 -1.83638 -0.953139 0
M  V30 5474 C 536.715 -0.640362 -1.77609 0
M  V30 5475 O 536.072 0.391071 -1.78261 0
M  V30 5476 C 536.123 -3.09735 -1.86405 0
M  V30 5477 O 535.844 -4.24723 -1.07435 0
M  V30 5478 C 537.345 -3.5027 -2.71709 0
M  V30 5479 H 534.565 -0.610263 -0.278962 0
M  V30 5480 H 537.109 -2.03247 -0.226035 0
M  V30 5481 H 535.264 -2.92077 -2.545 0
M  V30 5482 H 535.678 -4.9641 -1.69343 0
M  V30 5483 H 537.152 -4.41515 -3.31313 0
M  V30 5484 H 537.629 -2.72406 -3.44516 0
M  V30 5485 H 538.235 -3.70396 -2.09015 0
M  V30 5486 N 536.55 0.480323 -1.50102 0
M  V30 5487 C 537.497 1.57946 -1.6829 0
M  V30 5488 C 538.467 1.57611 -0.524223 0
M  V30 5489 O 539.652 1.75282 -0.753709 0
M  V30 5490 C 536.792 2.95978 -1.77457 0
M  V30 5491 C 535.905 3.06173 -3.04766 0
M  V30 5492 C 535.04 4.35063 -3.04784 0
M  V30 5493 C 534.079 4.38966 -4.26586 0
M  V30 5494 N 533.216 5.59314 -4.24396 0
M  V30 5495 H 538.056 1.41743 -2.62131 0
M  V30 5496 H 535.593 0.689304 -1.2995 0
M  V30 5497 H 537.551 3.76011 -1.80752 0
M  V30 5498 H 536.181 3.10837 -0.870637 0
M  V30 5499 H 535.233 2.19071 -3.10986 0
M  V30 5500 H 536.545 3.04916 -3.9475 0
M  V30 5501 H 535.699 5.23436 -3.06757 0
M  V30 5502 H 534.438 4.38915 -2.12614 0
M  V30 5503 H 533.443 3.48992 -4.24835 0
M  V30 5504 H 534.668 4.36813 -5.19972 0
M  V30 5505 H 532.614 5.63969 -3.35074 0
M  V30 5506 H 532.531 5.5976 -5.08138 0
M  V30 5507 H 533.799 6.49837 -4.30502 0
M  V30 5508 N 538.028 1.39524 0.732853 0
M  V30 5509 C 538.976 1.38563 1.86824 0
M  V30 5510 C 539.97 0.268467 1.67259 0
M  V30 5511 O 541.176 0.438613 1.74574 0
M  V30 5512 H 537.551 0.432737 0.615014 0
M  V30 5513 H 539.522 2.34328 1.84751 0
M  V30 5514 C 538.271 1.2481 3.24527 0
M  V30 5515 H 537.594 2.10044 3.40179 0
M  V30 5516 H 539.034 1.28194 4.04156 0
M  V30 5517 C 537.493 -0.0432825 3.36872 0
M  V30 5518 O 538.023 -1.01268 3.88726 0
M  V30 5519 N 536.229 -0.107055 2.90403 0
M  V30 5520 H 535.776 0.682512 2.48394 0
M  V30 5521 H 535.734 -0.970618 2.99042 0
M  V30 5522 N 539.506 -0.963266 1.24736 0
M  V30 5523 C 540.438 -2.06162 1.0015 0
M  V30 5524 C 541.451 -1.62771 -0.0305905 0
M  V30 5525 O 542.64 -1.77296 0.206966 0
M  V30 5526 C 539.74 -3.35333 0.490385 0
M  V30 5527 C 538.913 -4.07609 1.58663 0
M  V30 5528 C 537.972 -5.15052 1.0774 0
M  V30 5529 O 536.998 -5.4098 1.77002 0
M  V30 5530 N 538.2 -5.80436 -0.0858605 0
M  V30 5531 H 540.965 -2.27825 1.94719 0
M  V30 5532 H 538.526 -1.13121 1.15825 0
M  V30 5533 H 540.518 -4.04477 0.134371 0
M  V30 5534 H 539.088 -3.10507 -0.361155 0
M  V30 5535 H 538.308 -3.32681 2.11463 0
M  V30 5536 H 539.596 -4.52656 2.32336 0
M  V30 5537 H 538.994 -5.6178 -0.664806 0
M  V30 5538 H 537.551 -6.50674 -0.382981 0
M  V30 5539 N 540.985 -1.06182 -1.16461 0
M  V30 5540 C 542.231 -0.779015 -1.87241 0
M  V30 5541 C 542.564 0.692715 -1.81425 0
M  V30 5542 O 541.839 1.5074 -1.22913 0
M  V30 5543 C 542.122 -1.2728 -3.36856 0
M  V30 5544 C 541.975 -2.80821 -3.51368 0
M  V30 5545 C 543.294 -0.879799 -4.31216 0
M  V30 5546 H 540.413 -0.284464 -0.679889 0
M  V30 5547 H 543.055 -1.31755 -1.36896 0
M  V30 5548 H 541.205 -0.814673 -3.79862 0
M  V30 5549 H 542.877 -3.34833 -3.17308 0
M  V30 5550 H 541.12 -3.19606 -2.93316 0
M  V30 5551 H 541.791 -3.10435 -4.56436 0
M  V30 5552 H 544.267 -1.27436 -3.96105 0
M  V30 5553 H 543.143 -1.25278 -5.34412 0
M  V30 5554 H 543.404 0.215372 -4.41575 0
M  V30 5555 N 542.463 1.3308 -0.844243 0
M  V30 5556 C 543.688 2.02341 -0.455282 0
M  V30 5557 C 544.113 1.6308 0.93737 0
M  V30 5558 O 543.471 0.826118 1.61385 0
M  V30 5559 C 543.519 3.55743 -0.58988 0
M  V30 5560 O 542.623 4.1063 0.38166 0
M  V30 5561 H 541.964 0.637898 -0.184343 0
M  V30 5562 H 544.494 1.6986 -1.14056 0
M  V30 5563 H 544.504 4.05243 -0.473522 0
M  V30 5564 H 543.179 3.83662 -1.60549 0
M  V30 5565 H 541.756 3.72236 0.22241 0
M  V30 5566 N 543.941 0.601185 1.45683 0
M  V30 5567 C 544.871 -0.108824 2.33246 0
M  V30 5568 C 545.852 -0.865223 1.46451 0
M  V30 5569 O 547.037 -0.83704 1.75235 0
M  V30 5570 C 544.167 -1.11101 3.2905 0
M  V30 5571 C 543.121 -0.468244 4.25431 0
M  V30 5572 C 542.447 -1.57822 5.10878 0
M  V30 5573 C 543.747 0.606469 5.18767 0
M  V30 5574 H 545.441 0.622306 2.92861 0
M  V30 5575 H 542.987 0.300714 1.40825 0
M  V30 5576 H 544.94 -1.61622 3.89174 0
M  V30 5577 H 543.664 -1.87265 2.67581 0
M  V30 5578 H 542.323 0.0160484 3.66596 0
M  V30 5579 H 541.971 -2.32998 4.45781 0
M  V30 5580 H 541.671 -1.15369 5.76163 0
M  V30 5581 H 543.195 -2.08583 5.73869 0
M  V30 5582 H 544.609 0.185589 5.73 0
M  V30 5583 H 543.006 0.952381 5.92494 0
M  V30 5584 H 544.076 1.48559 4.61582 0
M  V30 5585 N 545.419 -1.53889 0.339982 0
M  V30 5586 C 546.647 -2.05271 -0.259114 0
M  V30 5587 C 547.062 -1.21517 -1.44496 0
M  V30 5588 O 546.419 -0.24966 -1.80784 0
M  V30 5589 C 546.47 -3.55092 -0.677634 0
M  V30 5590 O 546.191 -4.35667 0.461051 0
M  V30 5591 C 547.692 -4.22631 -1.33782 0
M  V30 5592 H 544.912 -0.669085 -0.0506566 0
M  V30 5593 H 547.456 -1.9852 0.490935 0
M  V30 5594 H 545.611 -3.62077 -1.37763 0
M  V30 5595 H 546.025 -5.24343 0.128144 0
M  V30 5596 H 547.499 -5.28861 -1.58145 0
M  V30 5597 H 547.976 -3.74758 -2.29027 0
M  V30 5598 H 548.582 -4.19829 -0.679957 0
M  V30 5599 N 546.897 -0.0685191 -1.57451 0
M  V30 5600 C 548.137 0.605038 -1.9524 0
M  V30 5601 C 548.501 1.66974 -0.947816 0
M  V30 5602 O 549.702 2.39862 -1.21325 0
M  V30 5603 C 547.973 1.16999 -3.37707 0
M  V30 5604 S 549.532 1.85913 -3.97469 0
M  V30 5605 H 546.35 0.198203 -0.682815 0
M  V30 5606 H 548.952 -0.141594 -1.94987 0
M  V30 5607 H 547.656 0.383205 -4.08607 0
M  V30 5608 H 547.187 1.95305 -3.41496 0
M  V30 5609 H 549.202 3.14128 -3.84107 0
M  V30 5610 N 548.375 1.56261 0.205012 0
M  V30 5611 C 549.305 1.96779 1.257 0
M  V30 5612 C 550.286 0.838309 1.48008 0
M  V30 5613 O 551.471 1.10189 1.59913 0
M  V30 5614 C 548.601 2.29876 2.60335 0
M  V30 5615 C 547.555 3.45469 2.52656 0
M  V30 5616 C 546.881 3.64215 3.91473 0
M  V30 5617 C 548.181 4.79954 2.06014 0
M  V30 5618 H 549.875 2.84904 0.920338 0
M  V30 5619 H 547.421 1.37072 0.441277 0
M  V30 5620 H 549.374 2.56814 3.34102 0
M  V30 5621 H 548.098 1.38622 2.95722 0
M  V30 5622 H 546.757 3.18605 1.81345 0
M  V30 5623 H 546.405 2.70309 4.24196 0
M  V30 5624 H 546.105 4.41973 3.87213 0
M  V30 5625 H 547.629 3.93519 4.66878 0
M  V30 5626 H 549.043 5.05989 2.69533 0
M  V30 5627 H 547.44 5.61111 2.12777 0
M  V30 5628 H 548.51 4.74201 1.01297 0
M  V30 5629 N 549.853 -0.472356 1.50355 0
M  V30 5630 C 551.099 -1.22634 1.6152 0
M  V30 5631 C 551.432 -1.91645 0.313995 0
M  V30 5632 O 550.707 -1.82059 -0.684446 0
M  V30 5633 C 550.99 -2.27099 2.7946 0
M  V30 5634 C 550.843 -1.62402 4.19459 0
M  V30 5635 C 552.162 -3.28421 2.92964 0
M  V30 5636 H 549.281 -0.444494 0.587873 0
M  V30 5637 H 551.923 -0.520321 1.82737 0
M  V30 5638 H 550.073 -2.87314 2.61501 0
M  V30 5639 H 551.745 -1.05793 4.49005 0
M  V30 5640 H 549.988 -0.927184 4.23776 0
M  V30 5641 H 550.659 -2.38309 4.97909 0
M  V30 5642 H 553.135 -2.78227 3.09401 0
M  V30 5643 H 552.011 -3.98845 3.77113 0
M  V30 5644 H 552.272 -3.92467 2.03525 0
M  V30 5645 N 551.331 -1.39911 -0.725443 0
M  V30 5646 C 552.278 -1.39393 -1.83952 0
M  V30 5647 C 553.248 -0.252249 -1.64173 0
M  V30 5648 O 554.433 -0.44882 -1.85446 0
M  V30 5649 C 551.573 -1.25262 -3.21564 0
M  V30 5650 C 550.686 -2.49054 -3.52982 0
M  V30 5651 C 549.821 -2.27439 -4.80047 0
M  V30 5652 C 548.86 -3.46857 -5.04338 0
M  V30 5653 N 547.997 -3.24499 -6.22611 0
M  V30 5654 H 552.837 -2.34622 -1.83729 0
M  V30 5655 H 550.374 -1.16537 -0.897636 0
M  V30 5656 H 552.332 -1.15077 -4.01015 0
M  V30 5657 H 550.962 -0.33657 -3.21041 0
M  V30 5658 H 550.014 -2.69805 -2.6816 0
M  V30 5659 H 551.326 -3.37973 -3.66846 0
M  V30 5660 H 550.48 -2.14551 -5.67497 0
M  V30 5661 H 549.219 -1.35929 -4.68374 0
M  V30 5662 H 548.224 -3.60232 -4.15346 0
M  V30 5663 H 549.449 -4.3928 -5.17889 0
M  V30 5664 H 547.395 -2.35663 -6.12208 0
M  V30 5665 H 547.312 -4.06978 -6.37106 0
M  V30 5666 H 548.58 -3.15325 -7.12875 0
M  V30 5667 N 552.809 0.956637 -1.25245 0
M  V30 5668 C 554.057 1.69764 -1.09657 0
M  V30 5669 C 554.378 1.91583 0.363464 0
M  V30 5670 O 553.648 1.50149 1.25825 0
M  V30 5671 H 552.228 0.629097 -0.402798 0
M  V30 5672 H 554.89 1.15026 -1.57337 0
M  V30 5673 H 553.986 2.67769 -1.60331 0
M  V30 5674 N 554.287 1.06798 1.15896 0
M  V30 5675 C 555.534 0.787767 1.86549 0
M  V30 5676 C 555.862 -0.685959 1.82002 0
M  V30 5677 O 555.117 -1.5188 1.23414 0
M  V30 5678 C 555.416 1.23414 3.35416 0
M  V30 5679 C 555.082 2.71285 3.6016 0
M  V30 5680 C 553.744 3.11676 3.66622 0
M  V30 5681 C 556.096 3.6676 3.7032 0
M  V30 5682 C 553.424 4.4637 3.8075 0
M  V30 5683 C 555.776 5.01209 3.8597 0
M  V30 5684 C 554.44 5.41229 3.90676 0
M  V30 5685 H 553.71 0.288264 0.682631 0
M  V30 5686 H 556.357 1.338 1.37003 0
M  V30 5687 H 554.662 0.60319 3.87129 0
M  V30 5688 H 556.359 0.994298 3.88477 0
M  V30 5689 H 552.949 2.39015 3.55767 0
M  V30 5690 H 557.133 3.36685 3.64633 0
M  V30 5691 H 552.389 4.76855 3.82648 0
M  V30 5692 H 556.563 5.75067 3.92773 0
M  V30 5693 H 554.19 6.45602 4.01375 0
M  V30 5694 N 555.766 -1.3263 0.851289 0
M  V30 5695 C 556.996 -2.01271 0.466222 0
M  V30 5696 C 557.404 -1.64156 -0.940714 0
M  V30 5697 O 556.747 -0.857109 -1.62479 0
M  V30 5698 C 556.809 -3.55695 0.521672 0
M  V30 5699 C 556.473 -4.16227 1.88691 0
M  V30 5700 C 557.47 -4.34699 2.85189 0
M  V30 5701 C 555.155 -4.52377 2.18313 0
M  V30 5702 C 557.149 -4.88484 4.09465 0
M  V30 5703 C 554.836 -5.05868 3.42843 0
M  V30 5704 C 555.834 -5.23869 4.38235 0
M  V30 5705 O 555.522 -5.76218 5.6056 0
M  V30 5706 H 555.254 -0.651034 0.18202 0
M  V30 5707 H 557.808 -1.7026 1.14894 0
M  V30 5708 H 556.038 -3.86086 -0.217888 0
M  V30 5709 H 557.727 -4.05613 0.152682 0
M  V30 5710 H 558.493 -4.07107 2.63607 0
M  V30 5711 H 554.372 -4.37652 1.44851 0
M  V30 5712 H 557.916 -5.02451 4.83931 0
M  V30 5713 H 553.813 -5.32891 3.64277 0
M  V30 5714 H 554.581 -5.94616 5.62471 0
M  V30 5715 N 557.244 -0.608902 -1.45362 0
M  V30 5716 C 558.655 -0.189511 -1.85736 0
M  V30 5717 C 559.006 1.2539 -1.50903 0
M  V30 5718 O 558.131 1.95094 -0.936347 0
M  V30 5719 C 558.726 -0.33716 -3.37118 0
M  V30 5720 C 557.285 0.0275487 -3.7639 0
M  V30 5721 C 556.432 -0.660983 -2.69307 0
M  V30 5722 H 559.383 -0.815499 -1.36144 0
M  V30 5723 H 559.404 0.430257 -3.7806 0
M  V30 5724 H 558.916 -1.38779 -3.62439 0
M  V30 5725 H 557.017 1.0773 -3.56686 0
M  V30 5726 H 557.13 -0.367018 -4.77692 0
M  V30 5727 H 555.494 -0.0984958 -2.54509 0
M  V30 5728 H 556.277 -1.71377 -2.97464 0
M  V30 5729 N 558.722 1.53707 -0.348139 0
M  V30 5730 C 559.947 2.05877 0.250883 0
M  V30 5731 C 560.372 1.22115 1.43072 0
M  V30 5732 O 559.73 0.235986 1.79758 0
M  V30 5733 C 559.778 3.54886 0.639416 0
M  V30 5734 O 558.882 3.73948 1.73888 0
M  V30 5735 H 558.223 0.662754 0.040653 0
M  V30 5736 H 560.753 1.98303 -0.503685 0
M  V30 5737 H 560.763 3.97601 0.915295 0
M  V30 5738 H 559.438 4.153 -0.223386 0
M  V30 5739 H 558.015 3.43134 1.45991 0
M  V30 5740 N 560.2 0.0768682 1.57412 0
M  V30 5741 C 561.477 -0.632359 1.85096 0
M  V30 5742 C 561.857 -1.87479 0.9703 0
M  V30 5743 O 561.205 -2.28469 0.0379062 0
M  V30 5744 C 561.415 -0.965174 3.35388 0
M  V30 5745 C 562.763 -1.33648 4.03018 0
M  V30 5746 O 563.787 -1.05675 3.40164 0
M  V30 5747 O 562.646 -1.85959 5.13889 0
M  V30 5748 H 559.74 -0.314574 0.764835 0
M  V30 5749 H 562.286 0.108184 1.69355 0
M  V30 5750 H 561.058 -0.0829745 3.91212 0
M  V30 5751 H 560.681 -1.76231 3.5641 0
M  V30 5752 N 561.678 -1.56367 -0.196722 0
M  V30 5753 C 562.927 -1.79724 -0.915539 0
M  V30 5754 C 563.24 -0.649804 -1.84491 0
M  V30 5755 O 564.446 -0.767631 -2.60422 0
M  V30 5756 C 562.902 -3.18369 -1.67836 0
M  V30 5757 C 562.51 -4.4091 -0.793897 0
M  V30 5758 C 564.254 -3.51037 -2.38691 0
M  V30 5759 C 562.161 -5.70577 -1.55549 0
M  V30 5760 H 561.091 -0.67013 -0.345604 0
M  V30 5761 H 563.742 -1.82721 -0.168856 0
M  V30 5762 H 562.124 -3.09617 -2.46887 0
M  V30 5763 H 563.298 -4.60781 -0.042163 0
M  V30 5764 H 561.613 -4.15937 -0.19626 0
M  V30 5765 H 564.21 -4.4515 -2.96219 0
M  V30 5766 H 564.553 -2.74704 -3.12799 0
M  V30 5767 H 565.086 -3.61229 -1.66608 0
M  V30 5768 H 561.825 -6.49871 -0.857226 0
M  V30 5769 H 561.345 -5.54726 -2.2812 0
M  V30 5770 H 563.024 -6.11637 -2.10971 0
M  V30 5771 N 563.156 0.464375 -1.50603 0
M  V30 5772 C 564.119 1.54393 -1.69397 0
M  V30 5773 C 565.119 1.50566 -0.564504 0
M  V30 5774 O 566.309 1.53066 -0.831645 0
M  V30 5775 C 563.441 2.9401 -1.72543 0
M  V30 5776 H 564.634 1.39044 -2.65719 0
M  V30 5777 H 562.187 0.69122 -1.40185 0
M  V30 5778 H 562.922 3.14795 -0.77938 0
M  V30 5779 H 562.707 2.98195 -2.54602 0
M  V30 5780 H 564.197 3.72375 -1.89015 0
M  V30 5781 N 564.634 1.40294 0.718013 0
M  V30 5782 C 565.88 1.38645 1.48005 0
M  V30 5783 C 566.213 -0.0121202 1.94196 0
M  V30 5784 O 565.488 -0.980309 1.67989 0
M  V30 5785 C 565.771 2.37379 2.70782 0
M  V30 5786 C 565.624 3.8625 2.30501 0
M  V30 5787 C 566.943 2.33685 3.72933 0
M  V30 5788 H 564.062 0.504928 0.536858 0
M  V30 5789 H 566.704 1.71411 0.819649 0
M  V30 5790 H 564.854 2.09568 3.27129 0
M  V30 5791 H 566.526 4.24879 1.79655 0
M  V30 5792 H 564.769 4.02202 1.6253 0
M  V30 5793 H 565.44 4.50847 3.18498 0
M  V30 5794 H 567.916 2.58314 3.2621 0
M  V30 5795 H 566.792 3.0482 4.56482 0
M  V30 5796 H 567.053 1.34765 4.21059 0
M  V30 5797 N 566.112 -0.949982 1.2575 0
M  V30 5798 C 567.022 -2.08109 1.08295 0
M  V30 5799 C 568.038 -1.7399 0.0188181 0
M  V30 5800 O 569.214 -2.00187 0.220724 0
M  V30 5801 C 566.279 -3.39383 0.708534 0
M  V30 5802 C 565.34 -3.8734 1.85111 0
M  V30 5803 C 564.573 -5.12349 1.49447 0
M  V30 5804 O 564.796 -5.6905 0.392212 0
M  V30 5805 O 563.73 -5.5513 2.32624 0
M  V30 5806 H 567.556 -2.25738 2.03165 0
M  V30 5807 H 565.141 -1.06545 1.04731 0
M  V30 5808 H 567.023 -4.18277 0.512061 0
M  V30 5809 H 565.698 -3.23013 -0.210854 0
M  V30 5810 H 564.605 -3.09429 2.10248 0
M  V30 5811 H 565.938 -4.08216 2.74991 0
M  V30 5812 N 567.59 -1.07411 -1.15328 0
M  V30 5813 C 568.836 -0.808666 -1.86634 0
M  V30 5814 C 569.191 0.65816 -1.80793 0
M  V30 5815 O 568.484 1.47689 -1.22059 0
M  V30 5816 C 568.678 -1.25191 -3.34757 0
M  V30 5817 C 568.507 -2.76028 -3.55019 0
M  V30 5818 C 567.277 -3.43644 -3.70455 0
M  V30 5819 C 569.475 -3.74224 -3.5279 0
M  V30 5820 N 567.457 -4.83117 -3.78776 0
M  V30 5821 C 568.828 -4.9954 -3.67233 0
M  V30 5822 C 570.883 -3.67373 -3.36068 0
M  V30 5823 C 569.586 -6.18819 -3.66682 0
M  V30 5824 C 571.612 -4.86116 -3.36816 0
M  V30 5825 C 570.974 -6.10266 -3.51789 0
M  V30 5826 H 567.073 -0.348478 -0.700062 0
M  V30 5827 H 569.657 -1.37049 -1.38295 0
M  V30 5828 H 567.828 -0.717775 -3.8171 0
M  V30 5829 H 569.56 -0.933936 -3.93776 0
M  V30 5830 H 566.315 -2.94051 -3.71256 0
M  V30 5831 H 566.739 -5.55705 -3.86679 0
M  V30 5832 H 571.381 -2.72334 -3.2341 0
M  V30 5833 H 569.099 -7.14179 -3.78118 0
M  V30 5834 H 572.685 -4.82492 -3.25103 0
M  V30 5835 H 571.565 -7.00609 -3.52301 0
M  V30 5836 N 569.068 1.32177 -0.85831 0
M  V30 5837 C 569.978 2.32561 -0.308606 0
M  V30 5838 C 570.994 1.64209 0.575462 0
M  V30 5839 O 572.17 1.95719 0.474961 0
M  V30 5840 C 569.235 3.43207 0.490909 0
M  V30 5841 C 568.296 4.27243 -0.419733 0
M  V30 5842 C 567.529 5.32605 0.341719 0
M  V30 5843 O 567.752 5.48332 1.57125 0
M  V30 5844 O 566.686 6.0118 -0.294379 0
M  V30 5845 H 570.512 2.81477 -1.14037 0
M  V30 5846 H 568.097 1.35866 -0.621349 0
M  V30 5847 H 569.979 4.10677 0.944574 0
M  V30 5848 H 568.654 2.96474 1.29941 0
M  V30 5849 H 567.561 3.62569 -0.921652 0
M  V30 5850 H 568.894 4.7751 -1.19352 0
M  V30 5851 N 570.547 0.616602 1.45037 0
M  V30 5852 C 571.772 0.120192 2.07051 0
M  V30 5853 C 572.197 -1.19008 1.45666 0
M  V30 5854 O 571.555 -1.7267 0.552692 0
M  V30 5855 C 571.603 0.00354901 3.606 0
M  V30 5856 O 570.707 -1.04431 3.98958 0
M  V30 5857 H 570.048 0.0781599 0.659384 0
M  V30 5858 H 572.578 0.849167 1.86146 0
M  V30 5859 H 572.588 -0.191754 4.07549 0
M  V30 5860 H 571.263 0.960239 4.04663 0
M  V30 5861 H 569.84 -0.824749 3.63665 0
M  V30 5862 N 572.025 -1.5352 0.356285 0
M  V30 5863 C 572.973 -2.26945 -0.50978 0
M  V30 5864 C 573.967 -1.29569 -1.09125 0
M  V30 5865 O 575.173 -1.47231 -1.03552 0
M  V30 5866 H 571.548 -0.729368 -0.183102 0
M  V30 5867 H 573.519 -2.98111 0.131374 0
M  V30 5868 C 572.268 -3.06466 -1.64237 0
M  V30 5869 H 571.591 -3.81233 -1.20423 0
M  V30 5870 H 573.031 -3.61035 -2.22327 0
M  V30 5871 C 571.49 -2.16737 -2.57928 0
M  V30 5872 O 572.02 -1.77195 -3.60507 0
M  V30 5873 N 570.226 -1.81558 -2.26903 0
M  V30 5874 H 569.773 -2.13913 -1.43524 0
M  V30 5875 H 569.731 -1.21806 -2.89846 0
M  V30 5876 N 573.503 -0.0852151 -1.57369 0
M  V30 5877 C 574.751 0.579658 -1.93609 0
M  V30 5878 C 575.072 1.69332 -0.967043 0
M  V30 5879 O 574.342 1.95892 -0.0174215 0
M  V30 5880 H 572.922 0.217113 -0.714752 0
M  V30 5881 H 575.584 -0.146226 -1.94351 0
M  V30 5882 H 574.68 0.996276 -2.95771 0
M  V30 5883 N 574.981 1.5647 0.188427 0
M  V30 5884 C 575.913 1.91611 1.25769 0
M  V30 5885 C 576.926 0.807436 1.41366 0
M  V30 5886 O 578.115 1.08586 1.41673 0
M  V30 5887 C 575.215 2.13874 2.6289 0
M  V30 5888 C 574.388 3.45047 2.68815 0
M  V30 5889 C 573.447 3.56342 3.87178 0
M  V30 5890 O 572.473 4.29109 3.73971 0
M  V30 5891 N 573.675 2.89924 5.02916 0
M  V30 5892 H 576.44 2.8393 0.959373 0
M  V30 5893 H 574.001 1.57418 0.378306 0
M  V30 5894 H 575.993 2.18713 3.4051 0
M  V30 5895 H 574.563 1.28022 2.85183 0
M  V30 5896 H 573.783 3.52017 1.77419 0
M  V30 5897 H 575.071 4.31395 2.6977 0
M  V30 5898 H 574.469 2.30644 5.16546 0
M  V30 5899 H 573.026 3.0038 5.78459 0
M  V30 5900 N 576.459 -0.456382 1.50847 0
M  V30 5901 C 577.87 -1.03685 1.55262 0
M  V30 5902 C 578.221 -1.92779 0.364771 0
M  V30 5903 O 577.346 -2.10043 -0.52068 0
M  V30 5904 C 577.941 -1.88718 2.81374 0
M  V30 5905 C 576.5 -2.41847 2.88422 0
M  V30 5906 C 575.647 -1.20564 2.49719 0
M  V30 5907 H 578.598 -0.238399 1.56899 0
M  V30 5908 H 578.619 -2.73957 2.6406 0
M  V30 5909 H 578.131 -1.23847 3.67809 0
M  V30 5910 H 576.232 -3.10228 2.06372 0
M  V30 5911 H 576.345 -2.75947 3.9165 0
M  V30 5912 H 574.709 -1.54504 2.02486 0
M  V30 5913 H 575.492 -0.573326 3.38479 0
M  V30 5914 N 577.937 -1.40673 -0.710563 0
M  V30 5915 C 578.847 -1.43663 -1.85467 0
M  V30 5916 C 579.863 -0.328721 -1.70867 0
M  V30 5917 O 581.039 -0.574098 -1.93044 0
M  V30 5918 C 578.104 -1.30226 -3.21313 0
M  V30 5919 C 577.165 -2.51204 -3.48131 0
M  V30 5920 C 576.398 -2.38398 -4.77495 0
M  V30 5921 O 576.621 -1.40048 -5.5294 0
M  V30 5922 O 575.555 -3.2787 -5.04762 0
M  V30 5923 H 579.381 -2.40156 -1.859 0
M  V30 5924 H 576.966 -1.22049 -0.861652 0
M  V30 5925 H 578.848 -1.2496 -4.02446 0
M  V30 5926 H 577.523 -0.368419 -3.21597 0
M  V30 5927 H 576.43 -2.62048 -2.66987 0
M  V30 5928 H 577.763 -3.43366 -3.52648 0
M  V30 5929 N 579.415 0.9433 -1.26252 0
M  V30 5930 C 580.363 2.06302 -1.07434 0
M  V30 5931 C 581.357 1.694 -0.00189471 0
M  V30 5932 O 582.563 1.79302 -0.158408 0
M  V30 5933 H 578.938 0.675453 -0.330556 0
M  V30 5934 H 580.909 2.19326 -2.02333 0
M  V30 5935 C 579.658 3.40125 -0.721817 0
M  V30 5936 H 578.981 3.68996 -1.5389 0
M  V30 5937 H 580.421 4.19295 -0.629922 0
M  V30 5938 C 578.88 3.31993 0.572902 0
M  V30 5939 O 579.41 3.67945 1.61182 0
M  V30 5940 N 577.616 2.85099 0.562748 0
M  V30 5941 H 577.163 2.5604 -0.283092 0
M  V30 5942 H 577.121 2.80041 1.42915 0
M  V30 5943 N 580.893 1.08022 1.14757 0
M  V30 5944 C 581.841 0.701088 2.21783 0
M  V30 5945 C 582.835 -0.291311 1.66876 0
M  V30 5946 O 584.041 -0.154296 1.79337 0
M  V30 5947 H 580.416 0.208668 0.722469 0
M  V30 5948 H 582.387 1.61321 2.51034 0
M  V30 5949 C 581.136 0.122278 3.47485 0
M  V30 5950 H 580.459 0.877065 3.90061 0
M  V30 5951 H 581.899 -0.105248 4.23869 0
M  V30 5952 C 580.358 -1.13883 3.17068 0
M  V30 5953 O 580.888 -2.22429 3.34497 0
M  V30 5954 N 579.094 -1.04767 2.71058 0
M  V30 5955 H 578.641 -0.164302 2.57075 0
M  V30 5956 H 578.599 -1.89224 2.51081 0
M  V30 5957 N 582.371 -1.3172 0.865308 0
M  V30 5958 C 583.601 -2.00765 0.487543 0
M  V30 5959 C 584.009 -1.65145 -0.92325 0
M  V30 5960 O 583.352 -0.874294 -1.61561 0
M  V30 5961 C 583.414 -3.55122 0.559369 0
M  V30 5962 C 583.078 -4.14202 1.93095 0
M  V30 5963 C 584.075 -4.3165 2.89784 0
M  V30 5964 C 581.76 -4.50036 2.23099 0
M  V30 5965 C 583.754 -4.84114 4.14623 0
M  V30 5966 C 581.441 -5.02203 3.48189 0
M  V30 5967 C 582.439 -5.19192 4.43767 0
M  V30 5968 O 582.127 -5.70241 5.6664 0
M  V30 5969 H 581.859 -0.649066 0.188915 0
M  V30 5970 H 584.413 -1.69032 1.16694 0
M  V30 5971 H 582.643 -3.86295 -0.176926 0
M  V30 5972 H 584.332 -4.05428 0.195694 0
M  V30 5973 H 585.098 -4.04288 2.6791 0
M  V30 5974 H 580.977 -4.36091 1.49485 0
M  V30 5975 H 584.521 -4.9729 4.89233 0
M  V30 5976 H 580.418 -5.28997 3.69908 0
M  V30 5977 H 581.186 -5.88617 5.68746 0
M  V30 5978 N 583.85 -0.624285 -1.44708 0
M  V30 5979 C 584.797 0.0847135 -2.30644 0
M  V30 5980 C 585.767 0.843575 -1.43084 0
M  V30 5981 O 586.952 0.825982 -1.71995 0
M  V30 5982 C 584.091 1.06495 -3.28257 0
M  V30 5983 C 583.205 0.305224 -4.3092 0
M  V30 5984 C 582.34 1.27667 -5.1563 0
M  V30 5985 C 581.379 0.505706 -6.10007 0
M  V30 5986 N 580.516 1.42727 -6.8744 0
M  V30 5987 H 585.356 -0.654068 -2.90733 0
M  V30 5988 H 582.893 -0.334334 -1.4325 0
M  V30 5989 H 584.851 1.64658 -3.83332 0
M  V30 5990 H 583.481 1.77094 -2.69884 0
M  V30 5991 H 582.533 -0.392207 -3.78373 0
M  V30 5992 H 583.845 -0.295553 -4.97924 0
M  V30 5993 H 582.999 1.92984 -5.75189 0
M  V30 5994 H 581.738 1.91137 -4.48685 0
M  V30 5995 H 580.743 -0.160999 -5.49564 0
M  V30 5996 H 581.968 -0.124183 -6.78986 0
M  V30 5997 H 579.913 2.04931 -6.23169 0
M  V30 5998 H 579.831 0.880345 -7.50857 0
M  V30 5999 H 581.099 2.0695 -7.51526 0
M  V30 6000 N 585.328 1.53329 -0.364422 0
M  V30 6001 C 586.556 2.05657 0.226424 0
M  V30 6002 C 586.971 1.23801 1.42544 0
M  V30 6003 O 586.328 0.27839 1.80364 0
M  V30 6004 C 586.379 3.56125 0.621056 0
M  V30 6005 O 586.1 4.34879 -0.530304 0
M  V30 6006 C 587.601 4.24706 1.27041 0
M  V30 6007 H 584.821 0.669806 0.0400056 0
M  V30 6008 H 587.365 1.97714 -0.522456 0
M  V30 6009 H 585.52 3.64223 1.31985 0
M  V30 6010 H 585.934 5.24073 -0.211546 0
M  V30 6011 H 587.408 5.3131 1.49711 0
M  V30 6012 H 587.885 3.78354 2.23036 0
M  V30 6013 H 588.491 4.20858 0.613079 0
M  V30 6014 N 586.806 0.0935595 1.57322 0
M  V30 6015 C 588.034 -0.578934 1.98635 0
M  V30 6016 C 588.449 -1.61819 0.972626 0
M  V30 6017 O 587.806 -1.82461 -0.0379638 0
M  V30 6018 C 587.857 -1.22802 3.40003 0
M  V30 6019 O 587.578 -0.230334 4.37494 0
M  V30 6020 C 589.079 -1.98627 3.96311 0
M  V30 6021 H 586.299 -0.155324 0.652775 0
M  V30 6022 H 588.843 0.172393 2.03772 0
M  V30 6023 H 586.998 -1.93029 3.35885 0
M  V30 6024 H 587.412 -0.698649 5.19826 0
M  V30 6025 H 588.886 -2.39405 4.97382 0
M  V30 6026 H 589.363 -2.85151 3.34044 0
M  V30 6027 H 589.969 -1.3322 4.03897 0
M  V30 6028 N 588.284 -1.56567 -0.180126 0
M  V30 6029 C 589.695 -1.7126 -0.743422 0
M  V30 6030 C 590.046 -0.70263 -1.83187 0
M  V30 6031 O 589.171 0.137856 -2.1596 0
M  V30 6032 C 589.766 -3.10512 -1.35528 0
M  V30 6033 C 588.325 -3.26919 -1.8655 0
M  V30 6034 C 587.472 -2.67213 -0.741099 0
M  V30 6035 H 590.423 -1.58636 0.0451543 0
M  V30 6036 H 590.444 -3.08673 -2.22489 0
M  V30 6037 H 589.956 -3.83997 -0.562862 0
M  V30 6038 H 588.057 -2.58376 -2.68464 0
M  V30 6039 H 588.17 -4.34574 -2.01699 0
M  V30 6040 H 586.534 -2.26788 -1.15927 0
M  V30 6041 H 587.317 -3.43277 0.0393291 0
M  V30 6042 N 589.762 0.448376 -1.51087 0
M  V30 6043 C 591.173 1.0286 -1.5581 0
M  V30 6044 C 591.524 1.92583 -0.374989 0
M  V30 6045 O 590.649 2.10316 0.509533 0
M  V30 6046 C 591.244 1.87223 -2.8237 0
M  V30 6047 C 589.803 2.40314 -2.897 0
M  V30 6048 C 588.95 1.19238 -2.50355 0
M  V30 6049 H 591.901 0.230075 -1.57023 0
M  V30 6050 H 591.922 2.72553 -2.6551 0
M  V30 6051 H 591.434 1.21894 -3.68461 0
M  V30 6052 H 589.535 3.09129 -2.08014 0
M  V30 6053 H 589.648 2.73866 -3.93108 0
M  V30 6054 H 588.012 1.53428 -2.03303 0
M  V30 6055 H 588.795 0.555367 -3.38778 0
M  V30 6056 N 591.24 1.41047 0.703093 0
M  V30 6057 C 592.486 1.40207 1.46526 0
M  V30 6058 C 592.819 0.00847763 1.94198 0
M  V30 6059 O 592.094 -0.962437 1.69019 0
M  V30 6060 C 592.377 2.40238 2.6825 0
M  V30 6061 C 592.23 3.88674 2.26391 0
M  V30 6062 C 593.549 2.37627 3.70434 0
M  V30 6063 H 590.668 0.510594 0.531472 0
M  V30 6064 H 593.31 1.72271 0.801422 0
M  V30 6065 H 591.46 2.13026 3.24888 0
M  V30 6066 H 593.132 4.2676 1.75138 0
M  V30 6067 H 591.375 4.03903 1.58255 0
M  V30 6068 H 592.046 4.542 3.13698 0
M  V30 6069 H 594.522 2.61759 3.23452 0
M  V30 6070 H 593.398 3.09645 4.53223 0
M  V30 6071 H 593.659 1.39223 4.19606 0
M  V30 6072 N 592.718 -0.936591 1.26751 0
M  V30 6073 C 593.648 -2.05315 1.11212 0
M  V30 6074 C 594.629 -1.70092 0.0160262 0
M  V30 6075 O 595.814 -1.93279 0.188894 0
M  V30 6076 C 592.944 -3.39123 0.749171 0
M  V30 6077 C 591.898 -3.88425 1.79751 0
M  V30 6078 C 591.224 -5.18936 1.28876 0
M  V30 6079 C 592.524 -4.12798 3.19992 0
M  V30 6080 H 594.218 -2.18573 2.04613 0
M  V30 6081 H 591.764 -1.05027 0.985159 0
M  V30 6082 H 593.717 -4.16704 0.627323 0
M  V30 6083 H 592.441 -3.25855 -0.220543 0
M  V30 6084 H 591.1 -3.13028 1.90811 0
M  V30 6085 H 590.748 -5.02051 0.308757 0
M  V30 6086 H 590.448 -5.52892 1.98958 0
M  V30 6087 H 591.972 -5.99096 1.17967 0
M  V30 6088 H 593.386 -4.80977 3.11983 0
M  V30 6089 H 591.783 -4.58044 3.87705 0
M  V30 6090 H 592.853 -3.18412 3.65707 0
M  V30 6091 N 594.196 -1.08629 -1.14182 0
M  V30 6092 C 595.473 -0.73002 -1.81466 0
M  V30 6093 C 595.853 0.785996 -1.95922 0
M  V30 6094 O 595.201 1.70535 -1.52086 0
M  V30 6095 C 595.411 -1.45957 -3.17014 0
M  V30 6096 C 596.759 -1.62008 -3.92477 0
M  V30 6097 O 597.783 -1.42141 -3.26611 0
M  V30 6098 O 596.642 -1.94806 -5.106 0
M  V30 6099 H 593.736 -0.261307 -0.784632 0
M  V30 6100 H 596.282 -1.188 -1.2118 0
M  V30 6101 H 595.054 -2.49221 -3.01669 0
M  V30 6102 H 594.677 -0.993222 -3.84995 0
M  V30 6103 N 595.674 1.31259 -0.872281 0
M  V30 6104 C 596.899 2.0133 -0.498099 0
M  V30 6105 C 597.324 1.65031 0.902568 0
M  V30 6106 O 596.682 0.860164 1.59596 0
M  V30 6107 C 596.73 3.54411 -0.665205 0
M  V30 6108 O 595.834 4.11347 0.294473 0
M  V30 6109 H 595.175 0.633844 -0.197832 0
M  V30 6110 H 597.705 1.67402 -1.17633 0
M  V30 6111 H 597.715 4.04147 -0.559373 0
M  V30 6112 H 596.39 3.80171 -1.68651 0
M  V30 6113 H 594.967 3.72624 0.143403 0
M  V30 6114 N 597.152 0.631951 1.44375 0
M  V30 6115 C 598.429 0.067646 1.95483 0
M  V30 6116 C 598.809 -1.40683 1.57389 0
M  V30 6117 O 598.157 -2.12167 0.848375 0
M  V30 6118 C 598.367 0.291392 3.47781 0
M  V30 6119 C 599.715 0.185028 4.24197 0
M  V30 6120 O 600.739 0.222803 3.55503 0
M  V30 6121 O 599.598 0.0906642 5.46425 0
M  V30 6122 H 596.692 -0.0218379 0.826712 0
M  V30 6123 H 599.238 0.703711 1.54421 0
M  V30 6124 H 598.01 1.31449 3.68561 0
M  V30 6125 H 597.633 -0.378772 3.95792 0
M  V30 6126 N 598.631 -1.53133 0.372548 0
M  V30 6127 C 599.879 -2.00958 -0.214534 0
M  V30 6128 C 600.2 -1.26135 -1.48711 0
M  V30 6129 O 599.47 -0.376597 -1.92246 0
M  V30 6130 H 598.05 -0.742456 -0.0822664 0
M  V30 6131 H 600.712 -1.88367 0.500385 0
M  V30 6132 H 599.808 -3.09031 -0.436605 0
M  V30 6133 N 600.109 -0.101901 -1.5727 0
M  V30 6134 C 601.334 0.571759 -1.99363 0
M  V30 6135 C 601.759 1.60507 -0.980768 0
M  V30 6136 O 601.117 1.81231 0.0498517 0
M  V30 6137 C 601.165 1.18996 -3.404 0
M  V30 6138 O 600.269 2.30572 -3.41922 0
M  V30 6139 H 599.61 0.144449 -0.648098 0
M  V30 6140 H 602.14 -0.185325 -2.03759 0
M  V30 6141 H 602.15 1.52962 -3.78241 0
M  V30 6142 H 600.825 0.432984 -4.1364 0
M  V30 6143 H 599.402 1.98173 -3.15883 0
M  V30 6144 N 601.587 1.56661 0.17182 0
M  V30 6145 C 602.834 1.81965 0.888529 0
M  V30 6146 C 603.162 0.6789 1.82267 0
M  V30 6147 O 602.417 -0.333875 1.92831 0
M  V30 6148 C 602.716 3.13435 1.71736 0
M  V30 6149 C 602.382 4.41159 0.932184 0
M  V30 6150 C 601.044 4.75851 0.715481 0
M  V30 6151 C 603.396 5.19803 0.381387 0
M  V30 6152 C 600.724 5.86666 -0.063126 0
M  V30 6153 C 603.076 6.31433 -0.384129 0
M  V30 6154 C 601.74 6.64692 -0.611637 0
M  V30 6155 H 601.01 0.665859 0.325136 0
M  V30 6156 H 603.657 1.90884 0.153495 0
M  V30 6157 H 601.962 2.99857 2.52177 0
M  V30 6158 H 603.659 3.30224 2.27493 0
M  V30 6159 H 600.249 4.13947 1.11112 0
M  V30 6160 H 604.433 4.93396 0.536148 0
M  V30 6161 H 599.689 6.10892 -0.249136 0
M  V30 6162 H 603.863 6.91577 -0.818185 0
M  V30 6163 H 601.49 7.50398 -1.21684 0
M  V30 6164 N 603.065 -0.440357 1.51323 0
M  V30 6165 C 604.312 -1.19004 1.63842 0
M  V30 6166 C 604.64 -1.91266 0.35321 0
M  V30 6167 O 603.895 -1.84143 -0.662565 0
M  V30 6168 C 604.194 -2.2339 2.78984 0
M  V30 6169 C 603.86 -1.68162 4.18369 0
M  V30 6170 C 602.522 -1.52823 4.56288 0
M  V30 6171 C 604.874 -1.27524 5.05358 0
M  V30 6172 C 602.202 -0.953157 5.78906 0
M  V30 6173 C 604.554 -0.714474 6.28552 0
M  V30 6174 C 603.218 -0.547961 6.65247 0
M  V30 6175 H 602.488 -0.435468 0.59954 0
M  V30 6176 H 605.135 -0.481538 1.85347 0
M  V30 6177 H 603.44 -3.00267 2.51688 0
M  V30 6178 H 605.137 -2.81211 2.85869 0
M  V30 6179 H 601.727 -1.81077 3.8847 0
M  V30 6180 H 605.911 -1.38197 4.76671 0
M  V30 6181 H 601.167 -0.811882 6.05986 0
M  V30 6182 H 605.341 -0.391059 6.95301 0
M  V30 6183 H 602.968 -0.100222 7.60134 0
M  V30 6184 N 604.543 -1.41418 -0.695603 0
M  V30 6185 C 605.473 -1.46035 -1.82197 0
M  V30 6186 C 606.454 -0.319025 -1.67082 0
M  V30 6187 O 607.639 -0.530462 -1.86815 0
M  V30 6188 C 604.769 -1.34179 -3.20333 0
M  V30 6189 C 603.723 -2.46123 -3.50154 0
M  V30 6190 C 603.049 -2.19332 -4.87645 0
M  V30 6191 C 604.349 -3.88463 -3.49133 0
M  V30 6192 H 606.043 -2.40303 -1.78591 0
M  V30 6193 H 603.589 -1.15663 -0.857797 0
M  V30 6194 H 605.542 -1.36021 -3.98844 0
M  V30 6195 H 604.266 -0.363952 -3.24566 0
M  V30 6196 H 602.925 -2.43563 -2.73994 0
M  V30 6197 H 602.573 -1.19891 -4.88503 0
M  V30 6198 H 602.273 -2.94344 -5.08562 0
M  V30 6199 H 603.797 -2.22889 -5.68465 0
M  V30 6200 H 605.211 -3.92738 -4.17648 0
M  V30 6201 H 603.608 -4.63158 -3.81582 0
M  V30 6202 H 604.678 -4.16617 -2.48109 0
M  V30 6203 N 606.021 0.929856 -1.27246 0
M  V30 6204 C 607.251 1.70895 -1.16096 0
M  V30 6205 C 607.659 1.87039 0.285122 0
M  V30 6206 O 607.002 1.38557 1.20614 0
M  V30 6207 C 607.064 3.12919 -1.7698 0
M  V30 6208 C 606.728 3.2012 -3.26148 0
M  V30 6209 C 607.725 3.02533 -4.22812 0
M  V30 6210 C 605.41 3.43148 -3.66817 0
M  V30 6211 C 607.404 3.07861 -5.58122 0
M  V30 6212 C 605.091 3.48109 -5.02258 0
M  V30 6213 C 606.089 3.30483 -5.97721 0
M  V30 6214 O 605.777 3.35175 -7.30694 0
M  V30 6215 H 605.509 0.54152 -0.404639 0
M  V30 6216 H 608.063 1.17342 -1.68582 0
M  V30 6217 H 606.293 3.67945 -1.18969 0
M  V30 6218 H 607.982 3.72787 -1.60576 0
M  V30 6219 H 608.748 2.84586 -3.92728 0
M  V30 6220 H 604.627 3.55918 -2.9299 0
M  V30 6221 H 608.171 2.94021 -6.32612 0
M  V30 6222 H 604.068 3.65579 -5.31998 0
M  V30 6223 H 604.836 3.51644 -7.39114 0
M  V30 6224 N 607.499 1.09233 1.13605 0
M  V30 6225 C 608.724 0.849067 1.89224 0
M  V30 6226 C 609.149 -0.593875 1.78479 0
M  V30 6227 O 608.507 -1.41703 1.13092 0
M  V30 6228 C 608.555 1.28642 3.36873 0
M  V30 6229 O 607.659 0.44363 4.10007 0
M  V30 6230 H 607 0.30767 0.588417 0
M  V30 6231 H 609.53 1.45595 1.43748 0
M  V30 6232 H 609.54 1.27096 3.87699 0
M  V30 6233 H 608.215 2.33729 3.44011 0
M  V30 6234 H 606.792 0.523241 3.69211 0
M  V30 6235 N 608.977 -1.30795 0.87923 0
M  V30 6236 C 609.924 -2.28282 0.339968 0
M  V30 6237 C 610.894 -1.56134 -0.566685 0
M  V30 6238 O 612.079 -1.84231 -0.496338 0
M  V30 6239 C 609.219 -3.42225 -0.444501 0
M  V30 6240 C 608.332 -4.29204 0.490717 0
M  V30 6241 C 607.467 -5.30302 -0.308784 0
M  V30 6242 C 606.506 -6.08929 0.622272 0
M  V30 6243 N 605.643 -7.01957 -0.14155 0
M  V30 6244 H 610.483 -2.73794 1.17647 0
M  V30 6245 H 608.02 -1.34682 0.591527 0
M  V30 6246 H 609.978 -4.07038 -0.915186 0
M  V30 6247 H 608.608 -2.97799 -1.24562 0
M  V30 6248 H 607.66 -3.6475 1.07988 0
M  V30 6249 H 608.972 -4.84045 1.20425 0
M  V30 6250 H 608.126 -6.00835 -0.841575 0
M  V30 6251 H 606.865 -4.7614 -1.05556 0
M  V30 6252 H 605.87 -5.37278 1.16674 0
M  V30 6253 H 607.095 -6.65178 1.36804 0
M  V30 6254 H 605.041 -6.50192 -0.870966 0
M  V30 6255 H 604.958 -7.54261 0.51246 0
M  V30 6256 H 606.226 -7.76741 -0.655271 0
M  V30 6257 N 610.455 -0.639598 -1.44038 0
M  V30 6258 C 611.385 0.0469443 -2.33453 0
M  V30 6259 C 612.366 0.82609 -1.48694 0
M  V30 6260 O 613.551 0.790285 -1.77393 0
M  V30 6261 C 610.681 1.02338 -3.3188 0
M  V30 6262 C 609.635 0.355284 -4.26523 0
M  V30 6263 C 608.961 1.44221 -5.14883 0
M  V30 6264 C 610.261 -0.743798 -5.16977 0
M  V30 6265 H 611.955 -0.699735 -2.91108 0
M  V30 6266 H 609.501 -0.337946 -1.39978 0
M  V30 6267 H 611.454 1.51247 -3.93322 0
M  V30 6268 H 610.178 1.80105 -2.72451 0
M  V30 6269 H 608.837 -0.113239 -3.66425 0
M  V30 6270 H 608.485 2.21097 -4.51802 0
M  V30 6271 H 608.185 1.00052 -5.79019 0
M  V30 6272 H 609.709 1.93295 -5.79197 0
M  V30 6273 H 611.123 -0.337444 -5.72306 0
M  V30 6274 H 609.52 -1.10914 -5.89761 0
M  V30 6275 H 610.59 -1.60745 -4.57481 0
M  V30 6276 N 611.933 1.52934 -0.380664 0
M  V30 6277 C 613.161 2.05886 0.204599 0
M  V30 6278 C 613.576 1.25305 1.41223 0
M  V30 6279 O 612.933 0.297504 1.80059 0
M  V30 6280 C 612.984 3.56764 0.583249 0
M  V30 6281 O 612.705 4.34292 -0.576398 0
M  V30 6282 C 614.206 4.2603 1.2253 0
M  V30 6283 H 611.426 0.670193 0.0328991 0
M  V30 6284 H 613.97 1.97148 -0.543397 0
M  V30 6285 H 612.125 3.65603 1.28115 0
M  V30 6286 H 612.539 5.23819 -0.267119 0
M  V30 6287 H 614.013 5.32868 1.44068 0
M  V30 6288 H 614.49 3.80698 2.19011 0
M  V30 6289 H 615.096 4.21485 0.568407 0
M  V30 6290 N 613.412 0.11024 1.57214 0
M  V30 6291 C 614.658 -0.550684 1.9518 0
M  V30 6292 C 614.991 -1.66885 0.993122 0
M  V30 6293 O 614.266 -1.94479 0.0287907 0
M  V30 6294 C 614.549 -1.09163 3.43155 0
M  V30 6295 C 614.402 0.0225198 4.49794 0
M  V30 6296 C 615.721 -1.98527 3.92778 0
M  V30 6297 H 612.84 -0.198706 0.709708 0
M  V30 6298 H 615.482 0.184024 1.89107 0
M  V30 6299 H 613.632 -1.71775 3.48462 0
M  V30 6300 H 615.304 0.657443 4.56591 0
M  V30 6301 H 613.547 0.686868 4.28328 0
M  V30 6302 H 614.218 -0.39706 5.5057 0
M  V30 6303 H 616.694 -1.458 3.8972 0
M  V30 6304 H 615.57 -2.33298 4.96853 0
M  V30 6305 H 615.831 -2.90846 3.32958 0
M  V30 6306 N 614.89 -1.56749 -0.16351 0
M  V30 6307 C 616.167 -1.73321 -0.906599 0
M  V30 6308 C 616.547 -0.673779 -2.00059 0
M  V30 6309 O 615.895 0.310121 -2.26386 0
M  V30 6310 C 616.105 -3.168 -1.46419 0
M  V30 6311 C 617.453 -3.77993 -1.93407 0
M  V30 6312 O 618.477 -3.20127 -1.56196 0
M  V30 6313 O 617.336 -4.79615 -2.61976 0
M  V30 6314 H 614.43 -0.708073 -0.427272 0
M  V30 6315 H 616.976 -1.69029 -0.150727 0
M  V30 6316 H 615.748 -3.85396 -0.677189 0
M  V30 6317 H 615.371 -3.2545 -2.28403 0
M  V30 6318 N 616.368 0.432326 -1.51554 0
M  V30 6319 C 617.315 1.52512 -1.7323 0
M  V30 6320 C 618.285 1.55863 -0.5741 0
M  V30 6321 O 619.47 1.72796 -0.809093 0
M  V30 6322 C 616.61 2.90183 -1.86783 0
M  V30 6323 C 615.723 2.96322 -3.14352 0
M  V30 6324 C 614.858 4.25147 -3.18471 0
M  V30 6325 C 613.897 4.25172 -4.40335 0
M  V30 6326 N 613.034 5.45529 -4.41975 0
M  V30 6327 H 617.874 1.33332 -2.66508 0
M  V30 6328 H 615.411 0.647613 -1.32077 0
M  V30 6329 H 617.369 3.70071 -1.92623 0
M  V30 6330 H 615.999 3.0791 -0.969087 0
M  V30 6331 H 615.051 2.09066 -3.17798 0
M  V30 6332 H 616.363 2.92203 -4.04251 0
M  V30 6333 H 615.517 5.13411 -3.23255 0
M  V30 6334 H 614.256 4.31929 -2.2647 0
M  V30 6335 H 613.261 3.353 -4.35723 0
M  V30 6336 H 614.486 4.20049 -5.33606 0
M  V30 6337 H 612.432 5.53024 -3.52847 0
M  V30 6338 H 612.349 5.43311 -5.25689 0
M  V30 6339 H 613.617 6.35812 -4.50958 0
M  V30 6340 N 617.846 1.41785 0.688094 0
M  V30 6341 C 619.071 1.45117 1.48175 0
M  V30 6342 C 619.496 0.060129 1.88004 0
M  V30 6343 O 618.854 -0.938385 1.55126 0
M  V30 6344 C 618.902 2.37224 2.71583 0
M  V30 6345 O 618.006 1.83443 3.69354 0
M  V30 6346 H 617.347 0.492208 0.445676 0
M  V30 6347 H 619.877 1.86329 0.845145 0
M  V30 6348 H 619.887 2.53353 3.19806 0
M  V30 6349 H 618.562 3.38293 2.41931 0
M  V30 6350 H 617.139 1.76802 3.28322 0
M  V30 6351 N 619.324 -0.923095 1.27737 0
M  V30 6352 C 620.74 -1.19985 1.05241 0
M  V30 6353 C 620.94 -2.00391 -0.21113 0
M  V30 6354 O 619.996 -2.35324 -0.915366 0
M  V30 6355 C 621.309 -1.94352 2.29451 0
M  V30 6356 C 622.857 -2.07273 2.34536 0
M  V30 6357 C 623.332 -2.85046 3.58487 0
M  V30 6358 N 624.823 -2.92612 3.59072 0
M  V30 6359 C 625.558 -3.53266 4.51654 0
M  V30 6360 N 625.054 -4.15274 5.54545 0
M  V30 6361 N 626.847 -3.50714 4.39268 0
M  V30 6362 H 618.998 -0.386042 2.08862 0
M  V30 6363 H 621.261 -0.233407 0.918817 0
M  V30 6364 H 620.967 -1.42692 3.21453 0
M  V30 6365 H 620.841 -2.94947 2.3513 0
M  V30 6366 H 623.228 -2.58117 1.43037 0
M  V30 6367 H 623.309 -1.05884 2.32857 0
M  V30 6368 H 622.953 -2.34884 4.50324 0
M  V30 6369 H 622.883 -3.8673 3.57418 0
M  V30 6370 H 625.374 -2.48547 2.84663 0
M  V30 6371 H 625.687 -4.59507 6.21348 0
M  V30 6372 H 624.032 -4.13806 5.58382 0
M  V30 6373 H 627.223 -3.01475 3.58093 0
M  V30 6374 H 627.396 -3.97693 5.1161 0
M  V30 6375 N 620.802 -1.09834 -1.13024 0
M  V30 6376 C 622.048 -0.848072 -1.84876 0
M  V30 6377 C 622.403 0.619663 -1.82148 0
M  V30 6378 O 621.696 1.45067 -1.25164 0
M  V30 6379 C 621.89 -1.32263 -3.32026 0
M  V30 6380 C 621.719 -2.83497 -3.49084 0
M  V30 6381 C 620.489 -3.51425 -3.63082 0
M  V30 6382 C 622.687 -3.81623 -3.44773 0
M  V30 6383 N 620.669 -4.91042 -3.68443 0
M  V30 6384 C 622.04 -5.07217 -3.56555 0
M  V30 6385 C 624.095 -3.74419 -3.282 0
M  V30 6386 C 622.798 -6.26457 -3.53474 0
M  V30 6387 C 624.824 -4.93151 -3.26429 0
M  V30 6388 C 624.186 -6.1759 -3.38765 0
M  V30 6389 H 620.285 -0.363249 -0.692513 0
M  V30 6390 H 622.869 -1.39952 -1.35357 0
M  V30 6391 H 621.04 -0.79858 -3.80102 0
M  V30 6392 H 622.772 -1.01725 -3.91707 0
M  V30 6393 H 619.527 -3.0186 -3.64935 0
M  V30 6394 H 619.951 -5.63782 -3.74805 0
M  V30 6395 H 624.593 -2.79132 -3.17561 0
M  V30 6396 H 622.311 -7.22039 -3.62884 0
M  V30 6397 H 625.897 -4.8928 -3.14796 0
M  V30 6398 H 624.777 -7.07925 -3.37361 0
M  V30 6399 N 622.28 1.30327 -0.886154 0
M  V30 6400 C 623.212 2.27079 -0.311072 0
M  V30 6401 C 624.225 1.53758 0.53502 0
M  V30 6402 O 625.414 1.74947 0.354378 0
M  V30 6403 C 622.514 3.33965 0.576228 0
M  V30 6404 C 621.687 4.36735 -0.241064 0
M  V30 6405 C 620.746 5.23028 0.576916 0
M  V30 6406 O 619.772 5.692 -0.000802231 0
M  V30 6407 N 620.974 5.49016 1.88579 0
M  V30 6408 H 623.739 2.77065 -1.14259 0
M  V30 6409 H 621.3 1.43519 -0.749258 0
M  V30 6410 H 623.292 3.88618 1.12953 0
M  V30 6411 H 621.862 2.839 1.30842 0
M  V30 6412 H 621.082 3.81932 -0.975805 0
M  V30 6413 H 622.37 5.02451 -0.801272 0
M  V30 6414 H 621.768 5.13288 2.37806 0
M  V30 6415 H 620.325 6.06539 2.38651 0
M  V30 6416 N 623.758 0.647228 1.43697 0
M  V30 6417 C 624.69 -0.0866232 2.29036 0
M  V30 6418 C 625.703 -0.793051 1.42178 0
M  V30 6419 O 626.892 -0.651807 1.66174 0
M  V30 6420 C 623.992 -1.14552 3.18953 0
M  V30 6421 C 623.165 -0.518422 4.34317 0
M  V30 6422 C 622.224 -1.4734 5.05151 0
M  V30 6423 O 621.25 -0.984312 5.60625 0
M  V30 6424 N 622.452 -2.8075 5.08094 0
M  V30 6425 H 625.217 0.645834 2.92659 0
M  V30 6426 H 622.778 0.489567 1.54321 0
M  V30 6427 H 624.77 -1.78505 3.63205 0
M  V30 6428 H 623.34 -1.78001 2.56971 0
M  V30 6429 H 622.56 0.300079 3.93056 0
M  V30 6430 H 623.848 -0.080401 5.08736 0
M  V30 6431 H 623.246 -3.23052 4.64386 0
M  V30 6432 H 621.803 -3.40022 5.56083 0
M  V30 6433 N 625.236 -1.5273 0.388769 0
M  V30 6434 C 626.484 -2.01174 -0.193208 0
M  V30 6435 C 626.805 -1.27705 -1.47365 0
M  V30 6436 O 626.075 -0.396966 -1.91836 0
M  V30 6437 H 624.655 -0.743287 -0.0743871 0
M  V30 6438 H 627.317 -1.87826 0.520336 0
M  V30 6439 H 626.413 -3.09477 -0.403803 0
M  V30 6440 N 626.714 -0.118576 -1.57153 0
M  V30 6441 C 627.662 0.849114 -2.16547 0
M  V30 6442 C 628.656 1.27567 -1.11458 0
M  V30 6443 O 629.862 1.24746 -1.29763 0
M  V30 6444 H 626.237 0.291935 -0.693021 0
M  V30 6445 H 628.208 0.323693 -2.96639 0
M  V30 6446 C 626.957 2.08951 -2.77912 0
M  V30 6447 H 626.28 1.77021 -3.58474 0
M  V30 6448 H 627.72 2.74666 -3.23008 0
M  V30 6449 C 626.179 2.87899 -1.74974 0
M  V30 6450 O 626.709 3.83268 -1.20285 0
M  V30 6451 N 624.915 2.51884 -1.44924 0
M  V30 6452 H 624.462 1.74397 -1.89587 0
M  V30 6453 H 624.42 3.05003 -0.762921 0
M  V30 6454 N 628.193 1.56834 0.155195 0
M  V30 6455 C 629.439 1.83169 0.870467 0
M  V30 6456 C 629.772 0.698929 1.81187 0
M  V30 6457 O 629.047 -0.298035 1.92203 0
M  V30 6458 C 629.33 3.19965 1.65211 0
M  V30 6459 C 629.183 4.43792 0.732744 0
M  V30 6460 C 630.502 3.53885 2.61636 0
M  V30 6461 H 627.621 0.666288 0.315006 0
M  V30 6462 H 630.263 1.89513 0.135988 0
M  V30 6463 H 628.413 3.14687 2.27825 0
M  V30 6464 H 630.085 4.61148 0.118236 0
M  V30 6465 H 628.328 4.3378 0.0417906 0
M  V30 6466 H 628.999 5.36095 1.31552 0
M  V30 6467 H 631.475 3.5972 2.09143 0
M  V30 6468 H 630.351 4.50648 3.13381 0
M  V30 6469 H 630.612 2.79418 3.42605 0
M  V30 6470 N 629.671 -0.424282 1.51781 0
M  V30 6471 C 630.918 -1.1726 1.65095 0
M  V30 6472 C 631.246 -1.90881 0.373477 0
M  V30 6473 O 630.501 -1.84835 -0.642997 0
M  V30 6474 C 630.8 -2.20418 2.81337 0
M  V30 6475 C 630.466 -1.63715 4.20129 0
M  V30 6476 C 629.128 -1.47975 4.57883 0
M  V30 6477 C 631.48 -1.22157 5.06682 0
M  V30 6478 C 628.808 -0.891703 5.79884 0
M  V30 6479 C 631.16 -0.647767 6.29275 0
M  V30 6480 C 629.824 -0.477371 6.65791 0
M  V30 6481 H 629.094 -0.429085 0.604125 0
M  V30 6482 H 631.741 -0.461852 1.85847 0
M  V30 6483 H 630.046 -2.97581 2.54859 0
M  V30 6484 H 631.743 -2.78163 2.88836 0
M  V30 6485 H 628.333 -1.76946 3.90369 0
M  V30 6486 H 632.517 -1.33133 4.7811 0
M  V30 6487 H 627.773 -0.747563 6.06813 0
M  V30 6488 H 631.947 -0.317291 6.95677 0
M  V30 6489 H 629.574 -0.0195936 7.60197 0
M  V30 6490 N 631.149 -1.42148 -0.680565 0
M  V30 6491 C 632.374 -1.45901 -1.47403 0
M  V30 6492 C 632.799 -0.0700985 -1.87969 0
M  V30 6493 O 632.157 0.930145 -1.55621 0
M  V30 6494 C 632.205 -2.38661 -2.70321 0
M  V30 6495 O 631.309 -1.85399 -3.68376 0
M  V30 6496 H 630.65 -0.494565 -0.443059 0
M  V30 6497 H 633.18 -1.86774 -0.835251 0
M  V30 6498 H 633.19 -2.55046 -3.18458 0
M  V30 6499 H 631.865 -3.39571 -2.40134 0
M  V30 6500 H 630.442 -1.78541 -3.2738 0
M  V30 6501 N 632.627 0.916307 -1.28225 0
M  V30 6502 C 633.867 1.67964 -1.16479 0
M  V30 6503 C 634.231 1.8991 0.282494 0
M  V30 6504 O 635.432 2.63671 0.522607 0
M  V30 6505 C 633.703 3.00251 -1.93866 0
M  V30 6506 S 635.262 3.91353 -1.98465 0
M  V30 6507 H 632.08 0.576873 -0.415619 0
M  V30 6508 H 634.682 1.09006 -1.62289 0
M  V30 6509 H 633.386 2.81978 -2.98189 0
M  V30 6510 H 632.917 3.64257 -1.48595 0
M  V30 6511 H 634.932 4.84096 -1.0893 0
M  V30 6512 N 634.105 1.10431 1.1244 0
M  V30 6513 C 635.33 0.869089 1.88313 0
M  V30 6514 C 635.755 -0.574912 1.79099 0
M  V30 6515 O 635.113 -1.40496 1.14589 0
M  V30 6516 C 635.161 1.32208 3.3549 0
M  V30 6517 O 634.265 0.487092 4.09513 0
M  V30 6518 H 633.606 0.313894 0.585121 0
M  V30 6519 H 636.136 1.47111 1.42195 0
M  V30 6520 H 636.146 1.31201 3.86329 0
M  V30 6521 H 634.821 2.37364 3.41513 0
M  V30 6522 H 633.398 0.562372 3.68635 0
M  V30 6523 N 635.583 -1.29855 0.893053 0
M  V30 6524 C 636.829 -1.96116 0.516349 0
M  V30 6525 C 637.162 -1.70281 -0.933695 0
M  V30 6526 O 636.437 -1.01205 -1.66096 0
M  V30 6527 C 636.72 -3.51068 0.801455 0
M  V30 6528 C 636.573 -3.86387 2.30272 0
M  V30 6529 C 637.892 -4.39186 0.283423 0
M  V30 6530 H 635.011 -0.712335 0.189072 0
M  V30 6531 H 637.653 -1.53587 1.11852 0
M  V30 6532 H 635.803 -3.87424 0.288949 0
M  V30 6533 H 637.475 -3.60012 2.88425 0
M  V30 6534 H 635.718 -3.34167 2.76613 0
M  V30 6535 H 636.389 -4.94512 2.45279 0
M  V30 6536 H 638.865 -4.09785 0.722187 0
M  V30 6537 H 637.741 -5.46505 0.512169 0
M  V30 6538 H 638.002 -4.34511 -0.815643 0
M  V30 6539 N 637.061 -0.65484 -1.43351 0
M  V30 6540 C 637.994 0.0855537 -2.2804 0
M  V30 6541 C 638.972 0.828301 -1.39921 0
M  V30 6542 O 640.156 0.827539 -1.69364 0
M  V30 6543 C 637.283 1.12792 -3.19368 0
M  V30 6544 C 636.329 0.483037 -4.23756 0
M  V30 6545 S 637.162 -0.744605 -5.30298 0
M  V30 6546 C 638.318 0.297187 -6.25194 0
M  V30 6547 H 638.551 -0.632831 -2.90487 0
M  V30 6548 H 636.084 -0.44373 -1.47886 0
M  V30 6549 H 638.042 1.7243 -3.72529 0
M  V30 6550 H 636.703 1.81863 -2.56095 0
M  V30 6551 H 635.896 1.26888 -4.87766 0
M  V30 6552 H 635.498 -0.0392713 -3.73979 0
M  V30 6553 H 637.79 1.1629 -6.67445 0
M  V30 6554 H 638.733 -0.30793 -7.0743 0
M  V30 6555 H 639.141 0.633721 -5.60932 0
M  V30 6556 N 638.539 1.52521 -0.396863 0
M  V30 6557 C 639.489 2.2348 0.451722 0
M  V30 6558 C 640.473 1.2415 1.0235 0
M  V30 6559 O 641.665 1.4945 0.948348 0
M  V30 6560 C 638.794 3.05067 1.57445 0
M  V30 6561 C 637.88 4.11799 1.01404 0
M  V30 6562 N 638.271 5.05482 0.179234 0
M  V30 6563 C 636.569 4.27064 1.28578 0
M  V30 6564 C 637.27 5.81552 -0.131202 0
M  V30 6565 N 636.246 5.41523 0.474735 0
M  V30 6566 H 640.048 2.93269 -0.192534 0
M  V30 6567 H 637.562 1.61081 -0.206591 0
M  V30 6568 H 639.559 3.54446 2.19485 0
M  V30 6569 H 638.219 2.36816 2.22145 0
M  V30 6570 H 639.23 5.17573 -0.18411 0
M  V30 6571 H 635.907 3.70042 1.93327 0
M  V30 6572 H 637.297 6.67023 -0.808061 0
M  V30 6573 N 640.017 0.126909 1.57088 0
M  V30 6574 C 640.927 -0.833867 2.1928 0
M  V30 6575 C 641.943 -1.2868 1.17122 0
M  V30 6576 O 643.119 -1.34815 1.49622 0
M  V30 6577 C 640.184 -2.0632 2.78627 0
M  V30 6578 C 639.245 -1.66143 3.95847 0
M  V30 6579 C 638.478 -2.83217 4.52354 0
M  V30 6580 O 638.701 -3.98868 4.0775 0
M  V30 6581 O 637.635 -2.59846 5.42922 0
M  V30 6582 H 641.461 -0.334564 3.01852 0
M  V30 6583 H 639.046 -0.0991091 1.49071 0
M  V30 6584 H 640.928 -2.78304 3.16425 0
M  V30 6585 H 639.603 -2.55242 1.99082 0
M  V30 6586 H 638.51 -0.912435 3.62802 0
M  V30 6587 H 639.843 -1.21957 4.76852 0
M  V30 6588 N 641.495 -1.56914 -0.146875 0
M  V30 6589 C 642.458 -1.97368 -1.16526 0
M  V30 6590 C 643.458 -0.860223 -1.35856 0
M  V30 6591 O 644.648 -1.12684 -1.32846 0
M  V30 6592 C 641.78 -2.28974 -2.52555 0
M  V30 6593 H 642.973 -2.88523 -0.818209 0
M  V30 6594 H 640.526 -1.5135 -0.390221 0
M  V30 6595 H 641.261 -1.40611 -2.92231 0
M  V30 6596 H 641.046 -3.10157 -2.39886 0
M  V30 6597 H 642.536 -2.61109 -3.25902 0
M  V30 6598 N 642.974 0.416227 -1.52004 0
M  V30 6599 C 643.904 1.51365 -1.77795 0
M  V30 6600 C 644.885 1.58059 -0.628601 0
M  V30 6601 O 646.07 1.73447 -0.873478 0
M  V30 6602 C 643.2 2.89256 -1.92219 0
M  V30 6603 C 642.154 2.97415 -3.0778 0
M  V30 6604 C 641.48 4.37492 -3.07417 0
M  V30 6605 C 642.78 2.69551 -4.47369 0
M  V30 6606 H 644.474 1.30033 -2.69688 0
M  V30 6607 H 642.02 0.624112 -1.29772 0
M  V30 6608 H 643.973 3.66008 -2.08845 0
M  V30 6609 H 642.697 3.11866 -0.969917 0
M  V30 6610 H 641.356 2.23107 -2.90893 0
M  V30 6611 H 641.004 4.571 -2.09925 0
M  V30 6612 H 640.704 4.43877 -3.85029 0
M  V30 6613 H 642.228 5.16188 -3.26162 0
M  V30 6614 H 643.642 3.36028 -4.64497 0
M  V30 6615 H 642.039 2.87321 -5.26846 0
M  V30 6616 H 643.109 1.65029 -4.55953 0
M  V30 6617 N 644.452 1.42507 0.673017 0
M  V30 6618 C 645.402 1.4258 1.77919 0
M  V30 6619 C 646.386 0.296885 1.58137 0
M  V30 6620 O 647.578 0.539243 1.68586 0
M  V30 6621 C 644.707 1.33238 3.1639 0
M  V30 6622 C 643.793 2.51081 3.41788 0
M  V30 6623 N 644.184 3.76498 3.37761 0
M  V30 6624 C 642.482 2.4538 3.72431 0
M  V30 6625 C 643.183 4.54784 3.62693 0
M  V30 6626 N 642.159 3.8522 3.83544 0
M  V30 6627 H 645.961 2.37442 1.73201 0
M  V30 6628 H 643.475 1.36881 0.873924 0
M  V30 6629 H 645.472 1.31372 3.9566 0
M  V30 6630 H 644.132 0.393794 3.22303 0
M  V30 6631 H 645.143 4.09068 3.17622 0
M  V30 6632 H 641.82 1.60109 3.85579 0
M  V30 6633 H 643.21 5.63774 3.65525 0
M  V30 6634 N 645.93 -0.909495 1.28709 0
M  V30 6635 C 646.878 -2.03381 1.12866 0
M  V30 6636 C 647.872 -1.69335 0.0468074 0
M  V30 6637 O 649.078 -1.78819 0.205891 0
M  V30 6638 H 645.453 -0.666452 0.348348 0
M  V30 6639 H 647.424 -2.13885 2.08077 0
M  V30 6640 C 646.173 -3.38092 0.811742 0
M  V30 6641 H 645.496 -3.64786 1.63619 0
M  V30 6642 H 646.936 -4.17477 0.740869 0
M  V30 6643 C 645.395 -3.33395 -0.484679 0
M  V30 6644 O 645.925 -3.72089 -1.5137 0
M  V30 6645 N 644.131 -2.86491 -0.486961 0
M  V30 6646 H 643.678 -2.55199 0.350877 0
M  V30 6647 H 643.636 -2.83731 -1.3544 0
M  V30 6648 N 647.408 -1.11026 -1.11852 0
M  V30 6649 C 648.358 -0.733836 -2.15868 0
M  V30 6650 C 649.342 0.26001 -1.58785 0
M  V30 6651 O 650.534 0.0677901 -1.7687 0
M  V30 6652 C 647.663 -0.173948 -3.42859 0
M  V30 6653 C 646.749 -1.1952 -4.0691 0
M  V30 6654 N 647.14 -2.38797 -4.45881 0
M  V30 6655 C 645.438 -1.03714 -4.33773 0
M  V30 6656 C 646.139 -3.03894 -4.96007 0
M  V30 6657 N 645.115 -2.31389 -4.91894 0
M  V30 6658 H 648.917 -1.64171 -2.43773 0
M  V30 6659 H 646.431 -0.988877 -1.28822 0
M  V30 6660 H 648.428 0.113836 -4.16745 0
M  V30 6661 H 647.088 0.728568 -3.16421 0
M  V30 6662 H 648.099 -2.76281 -4.38051 0
M  V30 6663 H 644.776 -0.190694 -4.17064 0
M  V30 6664 H 646.166 -4.05389 -5.35826 0
M  V30 6665 N 648.886 1.2938 -0.899927 0
M  V30 6666 C 650.116 1.99402 -0.540601 0
M  V30 6667 C 650.524 1.67534 0.87914 0
M  V30 6668 O 649.867 0.916821 1.59186 0
M  V30 6669 C 649.929 3.53514 -0.653326 0
M  V30 6670 C 649.593 4.08937 -2.04009 0
M  V30 6671 C 650.59 4.23815 -3.01126 0
M  V30 6672 C 648.275 4.43962 -2.34953 0
M  V30 6673 C 650.269 4.72951 -4.27313 0
M  V30 6674 C 647.956 4.92795 -3.61382 0
M  V30 6675 C 648.954 5.07244 -4.57376 0
M  V30 6676 O 648.642 5.55017 -5.8156 0
M  V30 6677 H 648.374 0.64383 -0.206057 0
M  V30 6678 H 650.928 1.65878 -1.21134 0
M  V30 6679 H 649.158 3.86628 0.0744449 0
M  V30 6680 H 650.847 4.04767 -0.303118 0
M  V30 6681 H 651.613 3.97043 -2.78535 0
M  V30 6682 H 647.492 4.31974 -1.60994 0
M  V30 6683 H 651.036 4.84144 -5.02245 0
M  V30 6684 H 646.933 5.19004 -3.83804 0
M  V30 6685 H 647.701 5.73331 -5.84153 0
M  V30 6686 N 650.364 0.662433 1.43002 0
M  V30 6687 C 651.592 0.187615 2.06048 0
M  V30 6688 C 652.007 -1.15039 1.49705 0
M  V30 6689 O 651.364 -1.71209 0.631956 0
M  V30 6690 C 651.415 0.100498 3.6136 0
M  V30 6691 O 651.136 1.38562 4.15611 0
M  V30 6692 C 652.637 -0.399298 4.41498 0
M  V30 6693 H 649.857 0.0941675 0.664359 0
M  V30 6694 H 652.401 0.905681 1.83351 0
M  V30 6695 H 650.556 -0.568181 3.83211 0
M  V30 6696 H 650.97 1.25084 5.09366 0
M  V30 6697 H 652.444 -0.409187 5.50481 0
M  V30 6698 H 652.921 -1.43232 4.15188 0
M  V30 6699 H 653.527 0.23721 4.24638 0
M  V30 6700 N 651.842 -1.52309 0.404946 0
M  V30 6701 C 652.774 -2.24579 -0.45791 0
M  V30 6702 C 653.787 -1.2739 -1.01369 0
M  V30 6703 O 654.976 -1.53363 -0.91335 0
M  V30 6704 C 652.076 -2.9608 -1.64893 0
M  V30 6705 C 651.249 -4.20106 -1.21777 0
M  V30 6706 C 650.308 -4.74468 -2.27523 0
M  V30 6707 O 649.334 -5.37157 -1.88285 0
M  V30 6708 N 650.536 -4.55678 -3.59635 0
M  V30 6709 H 653.301 -2.99265 0.161341 0
M  V30 6710 H 650.862 -1.60228 0.232107 0
M  V30 6711 H 652.854 -3.29344 -2.35191 0
M  V30 6712 H 651.424 -2.24606 -2.17419 0
M  V30 6713 H 650.644 -3.92704 -0.343071 0
M  V30 6714 H 651.932 -5.00658 -0.906596 0
M  V30 6715 H 651.33 -4.05673 -3.94266 0
M  V30 6716 H 649.887 -4.9339 -4.25922 0
M  V30 6717 N 653.32 -0.135238 -1.57019 0
M  V30 6718 C 654.267 0.808908 -2.1616 0
M  V30 6719 C 655.237 1.25234 -1.09113 0
M  V30 6720 O 656.422 1.32697 -1.37099 0
M  V30 6721 C 653.562 2.04729 -2.77813 0
M  V30 6722 C 652.675 1.65074 -3.99218 0
M  V30 6723 C 651.81 2.84002 -4.48906 0
M  V30 6724 C 650.849 2.40663 -5.62803 0
M  V30 6725 N 649.986 3.5256 -6.07162 0
M  V30 6726 H 654.826 0.297751 -2.96509 0
M  V30 6727 H 652.363 0.135264 -1.46477 0
M  V30 6728 H 654.321 2.7731 -3.11697 0
M  V30 6729 H 652.951 2.53275 -2.00128 0
M  V30 6730 H 652.003 0.823029 -3.7139 0
M  V30 6731 H 653.315 1.29236 -4.81767 0
M  V30 6732 H 652.469 3.64788 -4.84783 0
M  V30 6733 H 651.208 3.23076 -3.65339 0
M  V30 6734 H 650.213 1.58314 -5.26514 0
M  V30 6735 H 651.438 2.02687 -6.48147 0
M  V30 6736 H 649.384 3.91278 -5.26534 0
M  V30 6737 H 649.301 3.20699 -6.84608 0
M  V30 6738 H 650.569 4.33738 -6.47682 0
M  V30 6739 N 654.798 1.5699 0.138552 0
M  V30 6740 C 656.023 1.88344 0.86841 0
M  V30 6741 C 656.448 0.725159 1.7356 0
M  V30 6742 O 655.806 -0.324992 1.78363 0
M  V30 6743 C 655.854 3.18334 1.69398 0
M  V30 6744 O 654.958 3.02863 2.79907 0
M  V30 6745 H 654.299 0.618577 0.241367 0
M  V30 6746 H 656.829 2.04207 0.126826 0
M  V30 6747 H 656.839 3.50567 2.08726 0
M  V30 6748 H 655.514 4.02238 1.05725 0
M  V30 6749 H 654.091 2.82056 2.43924 0
M  V30 6750 N 656.276 -0.40816 1.52223 0
M  V30 6751 C 657.206 -1.5042 1.78595 0
M  V30 6752 C 658.187 -1.57723 0.636974 0
M  V30 6753 O 659.372 -1.72982 0.882664 0
M  V30 6754 C 656.502 -2.88232 1.93751 0
M  V30 6755 C 655.456 -2.95779 3.09352 0
M  V30 6756 C 654.782 -4.35855 3.09732 0
M  V30 6757 C 656.082 -2.67175 4.48793 0
M  V30 6758 H 657.776 -1.28601 2.70374 0
M  V30 6759 H 655.322 -0.617221 1.30101 0
M  V30 6760 H 657.275 -3.64895 2.10783 0
M  V30 6761 H 655.999 -3.11347 0.986443 0
M  V30 6762 H 654.658 -2.21561 2.92072 0
M  V30 6763 H 654.306 -4.55981 2.12346 0
M  V30 6764 H 654.006 -4.41829 3.87377 0
M  V30 6765 H 655.53 -5.14451 3.28895 0
M  V30 6766 H 656.944 -3.3356 4.66273 0
M  V30 6767 H 655.341 -2.84523 5.28362 0
M  V30 6768 H 656.411 -1.62609 4.56822 0
M  V30 6769 N 657.755 -1.42862 -0.66545 0
M  V30 6770 C 658.98 -1.47456 -1.45848 0
M  V30 6771 C 659.405 -0.0900312 -1.87884 0
M  V30 6772 O 658.763 0.913587 -1.56599 0
M  V30 6773 C 658.811 -2.41514 -2.67774 0
M  V30 6774 O 657.915 -1.89296 -3.66389 0
M  V30 6775 H 657.256 -0.499236 -0.437789 0
M  V30 6776 H 659.786 -1.8765 -0.815394 0
M  V30 6777 H 659.796 -2.58409 -3.15735 0
M  V30 6778 H 658.471 -3.42099 -2.36519 0
M  V30 6779 H 657.048 -1.82003 -3.25468 0
M  V30 6780 N 659.233 0.902656 -1.29189 0
M  V30 6781 C 660.163 2.02294 -1.16616 0
M  V30 6782 C 661.144 1.6999 -0.0611175 0
M  V30 6783 O 662.329 1.9271 -0.240072 0
M  V30 6784 C 659.459 3.37018 -0.83882 0
M  V30 6785 C 658.413 3.83522 -1.89986 0
M  V30 6786 C 657.739 5.15337 -1.42589 0
M  V30 6787 C 659.039 4.04169 -3.30824 0
M  V30 6788 H 660.733 2.13071 -2.10336 0
M  V30 6789 H 658.279 1.02378 -1.01266 0
M  V30 6790 H 660.232 4.14895 -0.737584 0
M  V30 6791 H 658.956 3.26325 0.134071 0
M  V30 6792 H 657.615 3.07859 -1.99043 0
M  V30 6793 H 657.263 5.01056 -0.441759 0
M  V30 6794 H 656.963 5.47423 -2.13547 0
M  V30 6795 H 658.487 5.95758 -1.3381 0
M  V30 6796 H 659.901 4.72537 -3.24626 0
M  V30 6797 H 658.298 4.47604 -3.99713 0
M  V30 6798 H 659.368 3.08604 -3.74021 0
M  V30 6799 N 660.711 1.11618 1.11262 0
M  V30 6800 C 661.936 0.889013 1.8738 0
M  V30 6801 C 662.361 -0.555884 1.79698 0
M  V30 6802 O 661.719 -1.39272 1.16073 0
M  V30 6803 C 661.767 1.35759 3.34069 0
M  V30 6804 O 660.871 0.530499 4.08974 0
M  V30 6805 H 660.212 0.320082 0.581759 0
M  V30 6806 H 662.742 1.48611 1.40627 0
M  V30 6807 H 662.752 1.35291 3.84916 0
M  V30 6808 H 661.427 2.40973 3.38976 0
M  V30 6809 H 660.004 0.601439 3.68018 0
M  V30 6810 N 662.189 -1.289 0.906776 0
M  V30 6811 C 663.6 -1.77336 0.58384 0
M  V30 6812 C 663.951 -1.74304 -0.900697 0
M  V30 6813 O 663.076 -1.33335 -1.70443 0
M  V30 6814 C 663.671 -3.22019 1.05304 0
M  V30 6815 C 662.23 -3.68205 0.781148 0
M  V30 6816 C 661.377 -2.48837 1.22373 0
M  V30 6817 H 664.328 -1.15462 1.08877 0
M  V30 6818 H 664.349 -3.78481 0.391414 0
M  V30 6819 H 663.861 -3.24194 2.13353 0
M  V30 6820 H 661.962 -3.71497 -0.28643 0
M  V30 6821 H 662.075 -4.58675 1.384 0
M  V30 6822 H 660.439 -2.46461 0.642594 0
M  V30 6823 H 661.222 -2.53736 2.31242 0
M  V30 6824 N 663.667 -0.670007 -1.42649 0
M  V30 6825 C 664.915 -0.18991 -2.01206 0
M  V30 6826 C 665.236 1.20617 -1.53221 0
M  V30 6827 O 664.506 1.80898 -0.751856 0
M  V30 6828 H 663.086 -0.0672189 -0.743969 0
M  V30 6829 H 665.748 -0.865442 -1.74631 0
M  V30 6830 H 664.844 -0.187481 -3.11536 0
M  V30 6831 N 665.145 1.52092 -0.413018 0
M  V30 6832 C 666.092 2.27119 0.410558 0
M  V30 6833 C 667.062 1.29692 1.03774 0
M  V30 6834 O 668.247 1.58561 1.06128 0
M  V30 6835 C 665.387 3.09863 1.51918 0
M  V30 6836 C 664.5 4.22252 0.912528 0
M  V30 6837 C 663.635 4.92348 1.99417 0
M  V30 6838 C 662.674 5.96694 1.36466 0
M  V30 6839 N 661.811 6.60292 2.38661 0
M  V30 6840 H 666.651 2.97067 -0.235661 0
M  V30 6841 H 664.188 1.46542 -0.128055 0
M  V30 6842 H 666.146 3.56144 2.17295 0
M  V30 6843 H 664.776 2.42078 2.13537 0
M  V30 6844 H 663.828 3.80113 0.147697 0
M  V30 6845 H 665.14 4.9709 0.412717 0
M  V30 6846 H 664.294 5.42054 2.72512 0
M  V30 6847 H 663.033 4.17087 2.52764 0
M  V30 6848 H 662.038 5.46304 0.61906 0
M  V30 6849 H 663.263 6.73899 0.838827 0
M  V30 6850 H 661.209 5.87858 2.91134 0
M  V30 6851 H 661.126 7.30816 1.93503 0
M  V30 6852 H 662.394 7.14635 3.11314 0
M  V30 6853 O 666.662 0.284301 1.58978 0
M  V30 6854 H 667.353 -0.283792 1.9161 0
M  V30 END ATOM
M  V30 BEGIN BOND
M  V30 END BOND
M  V30 END CTAB
M  END
$$$$
