drugbank_drug|DB06650 Ofatumumab Heavy Chain
 OpenBabel12092119113D

  0  0  0     0  0            999 V3000
M  V30 BEGIN CTAB
M  V30 COUNTS 3299 3340 0 0 0
M  V30 BEGIN ATOM
M  V30 1 H -0.908 1.98254 -0.117106 0
M  V30 2 N 0 1.576 0 0
M  V30 3 C 0.91 2.11853 1.00774 0
M  V30 4 C 1.926 1.06379 1.37693 0
M  V30 5 O 3.102 1.3828 1.46426 0
M  V30 6 C 0.167 2.61108 2.28087 0
M  V30 7 C -0.772 3.81183 1.9748 0
M  V30 8 C -1.539 4.28079 3.18723 0
M  V30 9 O -1.316 3.74307 4.30407 0
M  V30 10 O -2.382 5.20234 3.02721 0
M  V30 11 H 1.444 2.98177 0.576547 0
M  V30 12 H -0.971 1.47789 0.218828 0
M  V30 13 H 0.911 2.92987 3.0288 0
M  V30 14 H -0.414 1.77881 2.70444 0
M  V30 15 H -1.507 3.54277 1.20162 0
M  V30 16 H -0.174 4.65482 1.5996 0
M  V30 17 N 1.4781 -0.272755 1.55222 0
M  V30 18 C 2.7241 -1.00581 1.761 0
M  V30 19 C 3.0571 -1.85932 0.560625 0
M  V30 20 O 2.3321 -1.89416 -0.441801 0
M  V30 21 C 2.6151 -1.88816 3.06628 0
M  V30 22 C 2.4681 -1.06457 4.37021 0
M  V30 23 C 3.7871 -2.8752 3.33197 0
M  V30 24 H 0.9061 -0.364244 0.640699 0
M  V30 25 H 3.5481 -0.278189 1.87952 0
M  V30 26 H 1.6981 -2.50856 2.96654 0
M  V30 27 H 3.3701 -0.464863 4.58952 0
M  V30 28 H 1.6131 -0.368043 4.32236 0
M  V30 29 H 2.2841 -1.71514 5.24678 0
M  V30 30 H 4.7601 -2.35615 3.42965 0
M  V30 31 H 3.6361 -3.46399 4.25792 0
M  V30 32 H 3.8971 -3.62657 2.52849 0
M  V30 33 N 2.9562 -1.48159 -0.537278 0
M  V30 34 C 3.8882 -1.58218 -1.65831 0
M  V30 35 C 4.9012 -0.466948 -1.5596 0
M  V30 36 O 6.0902 -0.73747 -1.62553 0
M  V30 37 C 3.1902 -1.48906 -3.04434 0
M  V30 38 C 2.3632 -2.75343 -3.3986 0
M  V30 39 C 1.4222 -2.59588 -4.57712 0
M  V30 40 O 0.4482 -3.33457 -4.61297 0
M  V30 41 N 1.6502 -1.68724 -5.55439 0
M  V30 42 H 4.4152 -2.54891 -1.57641 0
M  V30 43 H 1.9762 -1.4479 -0.724386 0
M  V30 44 H 3.9682 -1.36072 -3.81139 0
M  V30 45 H 2.5382 -0.602368 -3.06741 0
M  V30 46 H 1.7582 -3.02795 -2.52406 0
M  V30 47 H 3.0462 -3.5924 -3.60311 0
M  V30 48 H 2.4442 -1.07898 -5.55315 0
M  V30 49 H 1.0012 -1.61832 -6.3139 0
M  V30 50 N 4.4343 0.785586 -1.36625 0
M  V30 51 C 5.3643 1.91259 -1.33949 0
M  V30 52 C 6.3453 1.68795 -0.210325 0
M  V30 53 O 7.5303 1.89854 -0.408561 0
M  V30 54 C 4.6603 3.28339 -1.13186 0
M  V30 55 C 3.6143 3.65335 -2.22967 0
M  V30 56 C 2.9403 5.00806 -1.87342 0
M  V30 57 C 4.2403 3.7352 -3.65075 0
M  V30 58 H 5.9343 1.93755 -2.28253 0
M  V30 59 H 3.4803 0.930788 -1.09874 0
M  V30 60 H 5.4333 4.06804 -1.09948 0
M  V30 61 H 4.1573 3.2624 -0.153332 0
M  V30 62 H 2.8163 2.89169 -2.25337 0
M  V30 63 H 2.4643 4.95233 -0.880545 0
M  V30 64 H 2.1643 5.26529 -2.60846 0
M  V30 65 H 3.6883 5.81687 -1.85667 0
M  V30 66 H 5.1023 4.42168 -3.64911 0
M  V30 67 H 3.4993 4.10731 -4.37516 0
M  V30 68 H 4.5693 2.74527 -3.99703 0
M  V30 69 N 5.9124 1.20967 1.01018 0
M  V30 70 C 7.1584 1.02526 1.74975 0
M  V30 71 C 7.4914 -0.4408 1.89131 0
M  V30 72 O 6.7664 -1.32718 1.42184 0
M  V30 73 C 7.0494 1.71699 3.1653 0
M  V30 74 C 6.9024 3.25791 3.10129 0
M  V30 75 C 8.2214 1.45531 4.15342 0
M  V30 76 H 5.3404 0.373863 0.635134 0
M  V30 77 H 7.9824 1.49071 1.17805 0
M  V30 78 H 6.1324 1.32128 3.65341 0
M  V30 79 H 7.8044 3.74697 2.69072 0
M  V30 80 H 6.0474 3.56363 2.47362 0
M  V30 81 H 6.7184 3.69353 4.10222 0
M  V30 82 H 9.1944 1.79872 3.75213 0
M  V30 83 H 8.0704 1.96453 5.1254 0
M  V30 84 H 8.3314 0.384237 4.40427 0
M  V30 85 N 7.3905 -1.2043 1.01659 0
M  V30 86 C 8.3005 -2.2689 0.596484 0
M  V30 87 C 9.3165 -1.70107 -0.36599 0
M  V30 88 O 10.4925 -2.00117 -0.226942 0
M  V30 89 C 7.5575 -3.4665 -0.0586659 0
M  V30 90 C 6.6185 -4.18662 0.949751 0
M  V30 91 C 5.8515 -5.32705 0.32577 0
M  V30 92 O 6.0745 -5.63656 -0.874509 0
M  V30 93 O 5.0085 -5.92803 1.04249 0
M  V30 94 H 8.8345 -2.65041 1.4828 0
M  V30 95 H 6.4195 -1.27048 0.786082 0
M  V30 96 H 8.3015 -4.19256 -0.424564 0
M  V30 97 H 6.9765 -3.10375 -0.91918 0
M  V30 98 H 5.8835 -3.48229 1.36702 0
M  V30 99 H 7.2165 -4.58878 1.78023 0
M  V30 100 N 8.8686 -0.792821 -1.36206 0
M  V30 101 C 10.0936 -0.377701 -2.03932 0
M  V30 102 C 10.5186 0.998947 -1.59382 0
M  V30 103 O 9.8766 1.64421 -0.763903 0
M  V30 104 C 9.9246 -0.453635 -3.57735 0
M  V30 105 O 9.0286 0.538151 -4.08874 0
M  V30 106 H 8.3696 -0.159855 -0.644471 0
M  V30 107 H 10.8996 -1.07488 -1.7409 0
M  V30 108 H 10.9096 -0.318464 -4.06755 0
M  V30 109 H 9.5846 -1.45784 -3.89512 0
M  V30 110 H 8.1616 0.364359 -3.71116 0
M  V30 111 N 10.3467 1.47872 -0.545128 0
M  V30 112 C 11.5947 2.02093 -0.016553 0
M  V30 113 C 11.9157 1.42305 1.3332 0
M  V30 114 O 11.1857 0.593853 1.86682 0
M  V30 115 H 9.7657 0.746993 -0.00313038 0
M  V30 116 H 12.4277 1.81414 -0.712397 0
M  V30 117 H 11.5237 3.11996 0.0805422 0
M  V30 118 N 11.8248 0.280983 1.55075 0
M  V30 119 C 13.0728 -0.333455 1.9933 0
M  V30 120 C 13.3938 -1.55937 1.17085 0
M  V30 121 O 12.6638 -1.94143 0.261805 0
M  V30 122 H 11.2438 -0.126197 0.736263 0
M  V30 123 H 13.9058 0.387678 1.91005 0
M  V30 124 H 13.0018 -0.619292 3.05894 0
M  V30 125 N 13.3029 -1.57598 0.00835791 0
M  V30 126 C 14.5509 -1.90551 -0.6734 0
M  V30 127 C 14.8719 -0.883301 -1.73847 0
M  V30 128 O 14.1419 0.0781442 -1.95744 0
M  V30 129 H 12.7219 -0.703312 -0.251717 0
M  V30 130 H 15.3839 -1.94833 0.0512592 0
M  V30 131 H 14.4799 -2.9056 -1.13935 0
M  V30 132 N 14.781 0.264519 -1.55364 0
M  V30 133 C 15.711 1.33121 -1.91836 0
M  V30 134 C 16.692 1.51101 -0.781192 0
M  V30 135 O 17.877 1.64003 -1.04003 0
M  V30 136 C 15.007 2.68921 -2.19769 0
M  V30 137 C 13.961 2.65661 -3.35571 0
M  V30 138 C 13.287 4.05093 -3.49004 0
M  V30 139 C 14.587 2.24187 -4.71739 0
M  V30 140 H 16.281 1.02844 -2.81182 0
M  V30 141 H 13.827 0.493286 -1.35287 0
M  V30 142 H 15.78 3.43663 -2.43872 0
M  V30 143 H 14.504 3.00799 -1.27231 0
M  V30 144 H 13.163 1.93377 -3.1145 0
M  V30 145 H 12.811 4.34206 -2.53917 0
M  V30 146 H 12.511 4.03804 -4.26868 0
M  V30 147 H 14.035 4.81561 -3.75408 0
M  V30 148 H 15.449 2.88654 -4.9533 0
M  V30 149 H 13.846 2.34044 -5.52579 0
M  V30 150 H 14.916 1.19327 -4.69988 0
M  V30 151 N 16.2591 1.48442 0.529413 0
M  V30 152 C 17.5051 1.5672 1.28711 0
M  V30 153 C 17.8381 0.2406 1.92704 0
M  V30 154 O 17.1131 -0.753454 1.79313 0
M  V30 155 C 17.3961 2.70587 2.37603 0
M  V30 156 C 17.2491 4.12953 1.78297 0
M  V30 157 C 18.5681 2.80212 3.39366 0
M  V30 158 H 15.6871 0.570474 0.466613 0
M  V30 159 H 18.3291 1.80617 0.589706 0
M  V30 160 H 16.4791 2.50342 2.97088 0
M  V30 161 H 18.1511 4.44639 1.22858 0
M  V30 162 H 16.3941 4.19927 1.0883 0
M  V30 163 H 17.0651 4.88448 2.57144 0
M  V30 164 H 19.5411 2.98553 2.89836 0
M  V30 165 H 18.4171 3.61611 4.12951 0
M  V30 166 H 18.6781 1.88393 3.99951 0
M  V30 167 N 17.7372 -0.778329 1.37039 0
M  V30 168 C 18.6692 -1.90034 1.2814 0
M  V30 169 C 19.6822 -1.61585 0.198558 0
M  V30 170 O 20.8712 -1.72625 0.454175 0
M  V30 171 C 17.9712 -3.25108 0.956968 0
M  V30 172 C 17.1442 -3.81253 2.14394 0
M  V30 173 C 16.2032 -4.94789 1.79082 0
M  V30 174 O 15.2292 -5.10721 2.51301 0
M  V30 175 N 16.4312 -5.75878 0.731043 0
M  V30 176 H 19.1962 -1.98186 2.24816 0
M  V30 177 H 16.7572 -0.957129 1.30578 0
M  V30 178 H 18.7492 -3.9857 0.701701 0
M  V30 179 H 17.3192 -3.125 0.0789812 0
M  V30 180 H 16.5392 -2.99647 2.56135 0
M  V30 181 H 17.8272 -4.15495 2.93668 0
M  V30 182 H 17.2252 -5.65547 0.131618 0
M  V30 183 H 15.7822 -6.49596 0.535622 0
M  V30 184 N 19.2153 -1.21501 -1.00376 0
M  V30 185 C 20.6263 -1.03146 -1.55621 0
M  V30 186 C 20.9773 0.408375 -1.91903 0
M  V30 187 O 20.1023 1.29177 -1.73616 0
M  V30 188 C 20.6973 -1.86612 -2.82775 0
M  V30 189 C 19.2563 -1.72586 -3.34501 0
M  V30 190 C 18.4033 -1.83747 -2.07683 0
M  V30 191 H 21.3543 -1.35505 -0.826081 0
M  V30 192 H 21.3753 -1.3771 -3.54706 0
M  V30 193 H 20.8873 -2.91399 -2.56336 0
M  V30 194 H 18.9883 -0.704877 -3.65872 0
M  V30 195 H 19.1013 -2.54623 -4.05837 0
M  V30 196 H 17.4653 -1.27069 -2.20739 0
M  V30 197 H 18.2483 -2.90044 -1.83655 0
M  V30 198 N 20.6934 1.19889 -1.02296 0
M  V30 199 C 21.9414 1.89046 -0.714558 0
M  V30 200 C 22.2624 1.79636 0.758681 0
M  V30 201 O 21.5324 1.20292 1.54618 0
M  V30 202 H 20.1124 0.699802 -0.261317 0
M  V30 203 H 22.7744 1.45574 -1.29592 0
M  V30 204 H 21.8704 2.95524 -1.0036 0
M  V30 205 N 22.1715 0.800033 1.35784 0
M  V30 206 C 23.5875 0.482977 1.52117 0
M  V30 207 C 23.7875 -0.996948 1.75109 0
M  V30 208 O 22.8435 -1.78216 1.78872 0
M  V30 209 C 24.1565 1.32264 2.70049 0
M  V30 210 C 25.7045 1.31742 2.83924 0
M  V30 211 C 26.1795 2.14106 4.04874 0
M  V30 212 N 27.6705 2.11607 4.12039 0
M  V30 213 C 28.4055 2.72099 5.04727 0
M  V30 214 N 27.9015 3.41492 6.02789 0
M  V30 215 N 29.6945 2.61776 4.97423 0
M  V30 216 H 21.8455 1.75856 1.19115 0
M  V30 217 H 24.1085 0.748122 0.582252 0
M  V30 218 H 23.8145 2.37261 2.59616 0
M  V30 219 H 23.6885 0.971303 3.6448 0
M  V30 220 H 26.0755 0.275333 2.93813 0
M  V30 221 H 26.1565 1.70859 1.9037 0
M  V30 222 H 25.8005 3.18351 3.95746 0
M  V30 223 H 25.7305 1.72353 4.97596 0
M  V30 224 H 28.2215 1.61112 3.41835 0
M  V30 225 H 28.5345 3.84953 6.70098 0
M  V30 226 H 26.8795 3.45596 6.02983 0
M  V30 227 H 30.0705 2.07157 4.19766 0
M  V30 228 H 30.2435 3.0921 5.69468 0
M  V30 229 N 23.6496 -1.47581 0.552962 0
M  V30 230 C 24.8746 -2.07378 0.0300593 0
M  V30 231 C 25.2996 -1.40355 -1.25229 0
M  V30 232 O 24.6576 -0.477099 -1.7491 0
M  V30 233 C 24.7056 -3.60274 -0.153231 0
M  V30 234 O 23.8096 -3.94041 -1.21678 0
M  V30 235 H 23.1506 -0.662158 0.0494182 0
M  V30 236 H 25.6806 -1.89662 0.767434 0
M  V30 237 H 25.6906 -4.0633 -0.368761 0
M  V30 238 H 24.3656 -4.08455 0.783397 0
M  V30 239 H 22.9426 -3.59735 -0.982079 0
M  V30 240 N 25.1277 -0.289203 -1.54924 0
M  V30 241 C 26.0577 0.58549 -2.2604 0
M  V30 242 C 27.0387 1.14753 -1.25562 0
M  V30 243 O 28.2237 1.17906 -1.54311 0
M  V30 244 C 25.3537 1.76305 -2.99222 0
M  V30 245 C 24.3077 1.33191 -4.06748 0
M  V30 246 C 23.6337 2.5937 -4.6758 0
M  V30 247 C 24.9337 0.471775 -5.20165 0
M  V30 248 H 26.6277 -0.00763532 -2.99399 0
M  V30 249 H 24.1737 -0.00511229 -1.43999 0
M  V30 250 H 26.1267 2.38097 -3.47689 0
M  V30 251 H 24.8507 2.38223 -2.23422 0
M  V30 252 H 23.5097 0.737121 -3.59113 0
M  V30 253 H 23.1577 3.19576 -3.88433 0
M  V30 254 H 22.8577 2.31228 -5.40192 0
M  V30 255 H 24.3817 3.21985 -5.18804 0
M  V30 256 H 25.7957 0.995056 -5.64599 0
M  V30 257 H 24.1927 0.284639 -5.99425 0
M  V30 258 H 25.2627 -0.506041 -4.82252 0
M  V30 259 N 26.6058 1.57591 -0.0167156 0
M  V30 260 C 28.0218 1.55946 0.339557 0
M  V30 261 C 28.2218 1.02109 1.73713 0
M  V30 262 O 27.2778 0.662303 2.43659 0
M  V30 263 C 28.5908 3.00037 0.199499 0
M  V30 264 C 30.1388 3.11805 0.273193 0
M  V30 265 C 30.6138 4.57713 0.162068 0
M  V30 266 N 32.1048 4.6268 0.219444 0
M  V30 267 C 32.8398 5.73185 0.157054 0
M  V30 268 N 32.3358 6.92786 0.0442936 0
M  V30 269 N 34.1288 5.61707 0.21014 0
M  V30 270 H 26.2798 1.90921 -0.930758 0
M  V30 271 H 28.5428 0.877674 -0.358319 0
M  V30 272 H 28.2488 3.4333 -0.76273 0
M  V30 273 H 28.1228 3.64387 0.974786 0
M  V30 274 H 30.5098 2.68433 1.22587 0
M  V30 275 H 30.5908 2.50201 -0.532256 0
M  V30 276 H 30.2348 5.01763 -0.78714 0
M  V30 277 H 30.1648 5.17283 0.986222 0
M  V30 278 H 32.6558 3.76649 0.307246 0
M  V30 279 H 32.9688 7.728 0.00304069 0
M  V30 280 H 31.3138 6.94999 0.00968457 0
M  V30 281 H 34.5048 4.6716 0.296546 0
M  V30 282 H 34.6778 6.47807 0.158054 0
M  V30 283 N 28.0839 -0.256276 1.55502 0
M  V30 284 C 29.0139 -1.32102 1.92539 0
M  V30 285 C 29.9949 -1.50684 0.789194 0
M  V30 286 O 31.1799 -1.63449 1.04872 0
M  V30 287 C 28.3099 -2.67752 2.21192 0
M  V30 288 C 27.2639 -2.63878 3.36975 0
M  V30 289 C 26.5899 -4.03236 3.51147 0
M  V30 290 C 27.8899 -2.21682 4.72921 0
M  V30 291 H 29.5839 -1.01351 2.81724 0
M  V30 292 H 27.1299 -0.486105 1.35547 0
M  V30 293 H 29.0829 -3.42365 2.45691 0
M  V30 294 H 27.8069 -3.0012 1.28824 0
M  V30 295 H 26.4659 -1.91722 3.12471 0
M  V30 296 H 26.1139 -4.32854 2.56216 0
M  V30 297 H 25.8139 -4.01535 4.29003 0
M  V30 298 H 27.3379 -4.79563 3.77957 0
M  V30 299 H 28.7519 -2.86023 4.96854 0
M  V30 300 H 27.1489 -2.3111 5.53812 0
M  V30 301 H 28.2189 -1.16833 4.70615 0
M  V30 302 N 29.562 -1.4872 -0.521534 0
M  V30 303 C 30.787 -1.61101 -1.30618 0
M  V30 304 C 31.212 -0.274611 -1.86085 0
M  V30 305 O 30.57 0.754937 -1.64834 0
M  V30 306 C 30.618 -2.66709 -2.4269 0
M  V30 307 O 29.722 -2.24456 -3.45967 0
M  V30 308 H 29.063 -0.539921 -0.386499 0
M  V30 309 H 31.593 -1.94767 -0.626645 0
M  V30 310 H 31.603 -2.88245 -2.88754 0
M  V30 311 H 30.278 -3.63727 -2.01682 0
M  V30 312 H 28.855 -2.13168 -3.05964 0
M  V30 313 N 31.0401 0.771051 -1.3745 0
M  V30 314 C 32.2801 1.54264 -1.34096 0
M  V30 315 C 32.6441 1.91858 0.0737639 0
M  V30 316 O 33.8451 2.67797 0.23203 0
M  V30 317 C 32.1161 2.77326 -2.25445 0
M  V30 318 S 33.6751 3.67383 -2.39948 0
M  V30 319 H 30.4931 0.528122 -0.476034 0
M  V30 320 H 33.0951 0.906633 -1.73206 0
M  V30 321 H 31.7991 2.47788 -3.27153 0
M  V30 322 H 31.3301 3.45886 -1.87421 0
M  V30 323 H 33.3451 4.69334 -1.61059 0
M  V30 324 N 32.5182 1.22032 0.997298 0
M  V30 325 C 33.4812 0.987909 2.06816 0
M  V30 326 C 34.4812 -0.0440084 1.6074 0
M  V30 327 O 35.6712 0.194053 1.73116 0
M  V30 328 C 32.8032 0.49132 3.37341 0
M  V30 329 H 33.9962 1.93803 2.28868 0
M  V30 330 H 31.5492 1.03838 1.16822 0
M  V30 331 H 32.2842 -0.463364 3.20973 0
M  V30 332 H 32.0692 1.23575 3.72118 0
M  V30 333 H 33.5592 0.348824 4.16141 0
M  V30 334 N 33.9963 -1.19345 1.0293 0
M  V30 335 C 34.9593 -2.20793 0.615069 0
M  V30 336 C 35.9593 -1.57553 -0.321533 0
M  V30 337 O 37.1493 -1.73862 -0.108483 0
M  V30 338 C 34.2813 -3.40754 -0.0999222 0
M  V30 339 H 35.4743 -2.58955 1.51269 0
M  V30 340 H 33.0273 -1.3303 0.820534 0
M  V30 341 H 33.7623 -3.0811 -1.01187 0
M  V30 342 H 33.5473 -3.87889 0.57309 0
M  V30 343 H 35.0373 -4.15898 -0.376645 0
M  V30 344 N 35.4744 -0.807222 -1.35358 0
M  V30 345 C 36.6994 -0.399309 -2.0352 0
M  V30 346 C 37.1244 0.981986 -1.60433 0
M  V30 347 O 36.4824 1.63601 -0.781299 0
M  V30 348 C 36.5304 -0.491552 -3.57234 0
M  V30 349 O 35.6344 0.494754 -4.09421 0
M  V30 350 H 34.9754 -0.166682 -0.642739 0
M  V30 351 H 37.5054 -1.09328 -1.72941 0
M  V30 352 H 37.5154 -0.361588 -4.06395 0
M  V30 353 H 36.1904 -1.49907 -3.87944 0
M  V30 354 H 34.7674 0.324977 -3.71481 0
M  V30 355 N 36.9525 1.47285 -0.560781 0
M  V30 356 C 38.2005 2.02064 -0.0379868 0
M  V30 357 C 38.5215 1.43711 1.31803 0
M  V30 358 O 37.7915 0.61362 1.86042 0
M  V30 359 H 36.3715 0.746918 -0.0110531 0
M  V30 360 H 39.0335 1.80648 -0.731598 0
M  V30 361 H 38.1295 3.12064 0.0474463 0
M  V30 362 N 38.4306 0.297415 1.54768 0
M  V30 363 C 39.6776 -0.312913 2.00068 0
M  V30 364 C 40.0056 -1.54171 1.18582 0
M  V30 365 O 39.2606 -1.94108 0.249133 0
M  V30 366 C 39.5596 -0.717561 3.50123 0
M  V30 367 C 39.2256 0.409095 4.4904 0
M  V30 368 C 37.8876 0.718399 4.75807 0
M  V30 369 C 40.2396 1.16717 5.07963 0
M  V30 370 C 37.5676 1.78896 5.5876 0
M  V30 371 C 39.9196 2.22762 5.92081 0
M  V30 372 C 38.5836 2.54303 6.1716 0
M  V30 373 H 37.8536 -0.114503 0.7321 0
M  V30 374 H 40.5006 0.415767 1.86932 0
M  V30 375 H 38.8056 -1.52627 3.60849 0
M  V30 376 H 40.5026 -1.20091 3.82595 0
M  V30 377 H 37.0926 0.157918 4.28309 0
M  V30 378 H 41.2766 0.941466 4.87289 0
M  V30 379 H 36.5326 2.0381 5.7643 0
M  V30 380 H 40.7066 2.81962 6.36765 0
M  V30 381 H 38.3336 3.3739 6.81229 0
M  V30 382 N 39.9087 -1.5758 0.0250728 0
M  V30 383 C 41.1367 -1.9593 -0.664747 0
M  V30 384 C 41.5517 -0.901352 -1.65895 0
M  V30 385 O 40.9087 0.117255 -1.82123 0
M  V30 386 C 40.9597 -3.34342 -1.37468 0
M  V30 387 O 40.6807 -4.36079 -0.420324 0
M  V30 388 C 42.1817 -3.873 -2.1567 0
M  V30 389 H 39.4017 -0.645405 -0.183557 0
M  V30 390 H 41.9457 -2.04329 0.0836372 0
M  V30 391 H 40.1007 -3.27175 -2.0745 0
M  V30 392 H 40.5147 -5.16297 -0.923991 0
M  V30 393 H 41.9887 -4.86504 -2.60803 0
M  V30 394 H 42.4657 -3.21331 -2.99405 0
M  V30 395 H 43.0717 -3.97723 -1.50654 0
M  V30 396 N 41.3868 0.248026 -1.55636 0
M  V30 397 C 42.6338 0.976224 -1.77415 0
M  V30 398 C 42.9618 1.85361 -0.589193 0
M  V30 399 O 42.2168 1.90973 0.427529 0
M  V30 400 C 42.5158 1.86819 -3.04686 0
M  V30 401 C 42.1818 1.14625 -4.36087 0
M  V30 402 C 40.8438 0.946723 -4.71795 0
M  V30 403 C 43.1958 0.634463 -5.17324 0
M  V30 404 C 40.5238 0.223091 -5.86276 0
M  V30 405 C 42.8758 -0.0756959 -6.32555 0
M  V30 406 C 41.5398 -0.286711 -6.66884 0
M  V30 407 H 40.8098 0.357226 -0.649208 0
M  V30 408 H 43.4568 0.246415 -1.89908 0
M  V30 409 H 41.7618 2.66502 -2.872 0
M  V30 410 H 43.4588 2.43329 -3.18735 0
M  V30 411 H 40.0488 1.3117 -4.08035 0
M  V30 412 H 44.2328 0.77616 -4.90193 0
M  V30 413 H 39.4888 0.0491185 -6.1138 0
M  V30 414 H 43.6628 -0.479899 -6.94745 0
M  V30 415 H 41.2898 -0.849389 -7.5544 0
M  V30 416 N 42.8649 1.48995 0.513639 0
M  V30 417 C 43.8129 1.65199 1.63744 0
M  V30 418 C 44.8069 0.51809 1.61283 0
M  V30 419 O 46.0129 0.697335 1.65943 0
M  V30 420 H 42.3879 0.52069 0.542574 0
M  V30 421 H 44.3589 2.59552 1.47226 0
M  V30 422 C 43.1079 1.72409 3.01945 0
M  V30 423 H 42.4309 2.59029 3.04539 0
M  V30 424 H 43.8709 1.87785 3.80148 0
M  V30 425 C 42.3299 0.46618 3.33659 0
M  V30 426 O 42.8599 -0.413744 3.99564 0
M  V30 427 N 41.0659 0.332931 2.88687 0
M  V30 428 H 40.6129 1.04996 2.35231 0
M  V30 429 H 40.5709 -0.507665 3.10274 0
M  V30 430 N 44.343 -0.763751 1.37857 0
M  V30 431 C 45.62 -1.51244 1.24035 0
M  V30 432 C 46 -2.10472 -0.162649 0
M  V30 433 O 45.348 -1.96206 -1.17112 0
M  V30 434 C 45.558 -2.58694 2.34261 0
M  V30 435 C 46.906 -3.25878 2.72193 0
M  V30 436 O 47.93 -2.68993 2.33497 0
M  V30 437 O 46.789 -4.2874 3.38887 0
M  V30 438 H 43.883 -0.670243 0.484462 0
M  V30 439 H 46.429 -0.800031 1.49658 0
M  V30 440 H 45.201 -2.13105 3.2818 0
M  V30 441 H 44.824 -3.37527 2.10146 0
M  V30 442 N 45.8211 -1.22559 -0.990812 0
M  V30 443 C 47.0511 -1.07623 -1.76355 0
M  V30 444 C 47.4591 0.37601 -1.85426 0
M  V30 445 O 46.8021 1.27228 -1.32509 0
M  V30 446 C 46.8641 -1.61507 -3.21179 0
M  V30 447 C 46.5281 -3.10146 -3.35646 0
M  V30 448 C 47.5251 -4.07553 -3.22796 0
M  V30 449 C 45.2101 -3.49644 -3.60631 0
M  V30 450 C 47.2041 -5.42442 -3.34716 0
M  V30 451 C 44.8911 -4.84682 -3.72192 0
M  V30 452 C 45.8891 -5.8089 -3.59243 0
M  V30 453 O 45.5771 -7.13476 -3.70415 0
M  V30 454 H 45.3091 -0.377745 -0.560611 0
M  V30 455 H 47.8631 -1.62658 -1.25425 0
M  V30 456 H 46.0931 -1.00881 -3.73309 0
M  V30 457 H 47.7821 -1.42202 -3.80175 0
M  V30 458 H 48.5481 -3.78381 -3.03403 0
M  V30 459 H 44.4271 -2.75282 -3.69785 0
M  V30 460 H 47.9711 -6.17518 -3.24526 0
M  V30 461 H 43.8681 -5.13534 -3.91092 0
M  V30 462 H 44.6361 -7.21083 -3.87275 0
M  V30 463 N 47.2992 1.18797 -1.03562 0
M  V30 464 C 48.2622 2.20464 -0.626769 0
M  V30 465 C 49.2622 1.57721 0.313173 0
M  V30 466 O 50.4522 1.73917 0.0992615 0
M  V30 467 C 47.5842 3.40802 0.0818498 0
M  V30 468 H 48.7772 2.58149 -1.5264 0
M  V30 469 H 46.3302 1.32593 -0.827578 0
M  V30 470 H 47.0652 3.08642 0.995518 0
M  V30 471 H 46.8502 3.8758 -0.593652 0
M  V30 472 H 48.3402 4.16092 0.354584 0
M  V30 473 N 48.7773 0.814389 1.34928 0
M  V30 474 C 49.7103 0.175641 2.27523 0
M  V30 475 C 50.6883 -0.662953 1.48471 0
M  V30 476 O 51.8723 -0.628545 1.77712 0
M  V30 477 C 48.9993 -0.755516 3.30166 0
M  V30 478 C 48.0453 0.00445305 4.265 0
M  V30 479 S 48.8783 1.34582 5.18313 0
M  V30 480 C 50.0343 0.419315 6.24494 0
M  V30 481 H 50.2673 0.960691 2.8135 0
M  V30 482 H 47.8003 0.609846 1.41846 0
M  V30 483 H 49.7583 -1.28723 3.89796 0
M  V30 484 H 48.4193 -1.51402 2.75202 0
M  V30 485 H 47.6123 -0.703077 4.99072 0
M  V30 486 H 47.2143 0.466447 3.7108 0
M  V30 487 H 49.5063 -0.392432 6.76362 0
M  V30 488 H 50.4493 1.11446 6.99275 0
M  V30 489 H 50.8573 0.0115389 5.64499 0
M  V30 490 N 50.2554 -1.46986 0.568584 0
M  V30 491 C 51.2054 -2.27179 -0.193339 0
M  V30 492 C 52.1894 -1.35035 -0.874895 0
M  V30 493 O 53.3814 -1.5931 -0.771322 0
M  V30 494 C 50.5104 -3.21063 -1.21546 0
M  V30 495 C 49.5964 -4.2069 -0.536738 0
M  V30 496 N 49.9874 -5.04218 0.399673 0
M  V30 497 C 48.2854 -4.38961 -0.789254 0
M  V30 498 C 48.9864 -5.76242 0.795017 0
M  V30 499 N 47.9624 -5.434 0.1473 0
M  V30 500 H 51.7644 -2.89146 0.526458 0
M  V30 501 H 49.2784 -1.57664 0.389342 0
M  V30 502 H 51.2754 -3.77209 -1.77536 0
M  V30 503 H 49.9354 -2.60654 -1.93623 0
M  V30 504 H 50.9464 -5.12077 0.774454 0
M  V30 505 H 47.6234 -3.89713 -1.49767 0
M  V30 506 H 49.0134 -6.53417 1.56513 0
M  V30 507 N 51.7335 -0.305618 -1.54608 0
M  V30 508 C 52.9795 0.295595 -2.01241 0
M  V30 509 C 53.3345 1.51171 -1.19018 0
M  V30 510 O 52.6275 1.89832 -0.259684 0
M  V30 511 C 52.8215 0.698983 -3.50498 0
M  V30 512 C 52.6505 -0.476491 -4.47168 0
M  V30 513 C 51.4205 -0.969963 -4.95903 0
M  V30 514 C 53.6185 -1.32294 -4.96994 0
M  V30 515 N 51.6005 -2.11172 -5.76437 0
M  V30 516 C 52.9715 -2.31212 -5.75275 0
M  V30 517 C 55.0265 -1.35278 -4.7917 0
M  V30 518 C 53.7295 -3.32896 -6.37631 0
M  V30 519 C 55.7555 -2.35823 -5.42348 0
M  V30 520 C 55.1175 -3.33469 -6.20466 0
M  V30 521 H 51.2165 0.0724992 -0.778632 0
M  V30 522 H 53.8005 -0.436583 -1.89742 0
M  V30 523 H 51.9715 1.40032 -3.62278 0
M  V30 524 H 53.7035 1.28013 -3.8392 0
M  V30 525 H 50.4585 -0.544178 -4.70463 0
M  V30 526 H 50.8825 -2.68714 -6.21387 0
M  V30 527 H 55.5245 -0.61157 -4.18354 0
M  V30 528 H 53.2425 -4.07933 -6.97579 0
M  V30 529 H 56.8285 -2.38911 -5.30484 0
M  V30 530 H 55.7085 -4.09996 -6.68485 0
M  V30 531 N 53.2116 1.57565 -0.0334293 0
M  V30 532 C 54.4576 1.92262 0.645226 0
M  V30 533 C 54.7906 0.910543 1.71531 0
M  V30 534 O 54.0656 -0.066099 1.94388 0
M  V30 535 C 54.3486 3.37422 1.2577 0
M  V30 536 C 54.2016 4.49369 0.196891 0
M  V30 537 C 55.5206 3.82628 2.17449 0
M  V30 538 H 52.6396 0.699171 0.233085 0
M  V30 539 H 55.2816 1.89779 -0.0915694 0
M  V30 540 H 53.4316 3.39669 1.88566 0
M  V30 541 H 55.1036 4.59254 -0.433962 0
M  V30 542 H 53.3466 4.31168 -0.477137 0
M  V30 543 H 54.0176 5.47978 0.665124 0
M  V30 544 H 56.4936 3.82145 1.64634 0
M  V30 545 H 55.3696 4.84883 2.57254 0
M  V30 546 H 55.6306 3.18376 3.0674 0
M  V30 547 N 54.6897 -0.239769 1.55765 0
M  V30 548 C 56.1057 -0.588624 1.48349 0
M  V30 549 C 56.3057 -1.88005 0.72502 0
M  V30 550 O 55.3617 -2.51186 0.257269 0
M  V30 551 C 56.6747 -0.68474 2.928 0
M  V30 552 C 58.2227 -0.77659 3.03213 0
M  V30 553 C 58.6977 -0.904207 4.48986 0
M  V30 554 N 60.1887 -0.968896 4.52953 0
M  V30 555 C 60.9237 -1.08703 5.63002 0
M  V30 556 N 60.4197 -1.17026 6.82845 0
M  V30 557 N 62.2127 -1.12074 5.50814 0
M  V30 558 H 54.3637 0.607911 2.03515 0
M  V30 559 H 56.6267 0.21083 0.924259 0
M  V30 560 H 56.3327 0.194284 3.51163 0
M  V30 561 H 56.2067 -1.55435 3.43686 0
M  V30 562 H 58.5937 -1.64606 2.44926 0
M  V30 563 H 58.6747 0.118315 2.55526 0
M  V30 564 H 58.3187 -0.0392633 5.07885 0
M  V30 565 H 58.2487 -1.81426 4.9436 0
M  V30 566 H 60.7397 -0.915633 3.6664 0
M  V30 567 H 61.0527 -1.25966 7.62465 0
M  V30 568 H 59.3977 -1.13971 6.85591 0
M  V30 569 H 62.5887 -1.05226 4.5612 0
M  V30 570 H 62.7617 -1.20936 6.36615 0
M  V30 571 N 56.1678 -1.49265 -0.50573 0
M  V30 572 C 57.0998 -1.617 -1.62437 0
M  V30 573 C 58.1128 -0.499924 -1.54934 0
M  V30 574 O 59.3018 -0.771785 -1.60953 0
M  V30 575 C 56.4018 -1.5533 -3.01207 0
M  V30 576 C 55.5748 -2.8249 -3.33943 0
M  V30 577 C 54.6338 -2.69238 -4.52103 0
M  V30 578 O 53.6598 -3.43167 -4.5412 0
M  V30 579 N 54.8618 -1.80468 -5.51735 0
M  V30 580 H 57.6268 -2.58177 -1.52199 0
M  V30 581 H 55.1878 -1.46294 -0.693511 0
M  V30 582 H 57.1798 -1.44125 -3.78167 0
M  V30 583 H 55.7498 -0.667297 -3.05395 0
M  V30 584 H 54.9698 -3.08081 -2.45926 0
M  V30 585 H 56.2578 -3.66802 -3.5261 0
M  V30 586 H 55.6558 -1.19653 -5.52901 0
M  V30 587 H 54.2128 -1.75188 -6.27816 0
M  V30 588 N 57.6459 0.756429 -1.3826 0
M  V30 589 C 58.6089 1.85176 -1.35065 0
M  V30 590 C 59.6089 1.58818 -0.251703 0
M  V30 591 O 60.7989 1.66615 -0.508433 0
M  V30 592 C 57.9309 3.22596 -1.10201 0
M  V30 593 H 59.1239 1.89417 -2.3251 0
M  V30 594 H 56.6769 0.95783 -1.23512 0
M  V30 595 H 57.4119 3.24025 -0.133504 0
M  V30 596 H 57.1969 3.43122 -1.89762 0
M  V30 597 H 58.6869 4.02673 -1.10654 0
M  V30 598 N 59.124 1.23083 0.984299 0
M  V30 599 C 60.535 1.05609 1.5396 0
M  V30 600 C 60.886 -0.377793 1.92528 0
M  V30 601 O 60.011 -1.26398 1.75649 0
M  V30 602 C 60.606 1.91087 2.7977 0
M  V30 603 C 59.165 1.77885 3.31713 0
M  V30 604 C 58.312 1.87028 2.04733 0
M  V30 605 H 61.263 1.36802 0.804419 0
M  V30 606 H 61.284 1.43336 3.5247 0
M  V30 607 H 60.796 2.9544 2.51668 0
M  V30 608 H 58.897 0.762995 3.64704 0
M  V30 609 H 59.01 2.61047 4.01735 0
M  V30 610 H 57.374 1.30565 2.18689 0
M  V30 611 H 58.157 2.92929 1.79017 0
M  V30 612 N 60.6021 -1.18246 1.0419 0
M  V30 613 C 61.8501 -1.87886 0.744543 0
M  V30 614 C 62.1711 -1.8082 -0.730006 0
M  V30 615 O 61.4411 -1.22736 -1.52685 0
M  V30 616 H 60.0211 -0.695556 0.272417 0
M  V30 617 H 62.6831 -1.43494 1.31892 0
M  V30 618 H 61.7791 -2.9389 1.05049 0
M  V30 619 N 62.0802 -0.821533 -1.34494 0
M  V30 620 C 63.0272 -0.240397 -2.29545 0
M  V30 621 C 63.9972 0.634031 -1.53523 0
M  V30 622 O 65.1822 0.575966 -1.81899 0
M  V30 623 C 62.3222 0.592869 -3.39969 0
M  V30 624 C 61.4352 -0.30365 -4.30932 0
M  V30 625 C 60.5702 0.539049 -5.28458 0
M  V30 626 C 59.6092 -0.356942 -6.11058 0
M  V30 627 N 58.7462 0.446603 -7.00678 0
M  V30 628 H 63.5862 -1.05632 -2.7865 0
M  V30 629 H 61.1232 -0.532413 -1.37127 0
M  V30 630 H 63.0812 1.09129 -4.02675 0
M  V30 631 H 61.7112 1.37392 -2.92102 0
M  V30 632 H 60.7632 -0.920276 -3.691 0
M  V30 633 H 62.0752 -0.992661 -4.88823 0
M  V30 634 H 61.2292 1.102 -5.96608 0
M  V30 635 H 59.9682 1.26157 -4.71101 0
M  V30 636 H 58.9732 -0.932047 -5.41842 0
M  V30 637 H 60.1982 -1.07755 -6.70497 0
M  V30 638 H 58.1442 1.15282 -6.45791 0
M  V30 639 H 58.0612 -0.184048 -7.55776 0
M  V30 640 H 59.3292 0.992352 -7.73158 0
M  V30 641 N 63.5583 1.46682 -0.576371 0
M  V30 642 C 64.8063 2.02013 -0.0594163 0
M  V30 643 C 65.1273 1.45101 1.30271 0
M  V30 644 O 64.3973 0.633317 1.8538 0
M  V30 645 H 62.9773 0.746759 -0.0189745 0
M  V30 646 H 65.6393 1.79862 -0.750717 0
M  V30 647 H 64.7353 3.12097 0.014345 0
M  V30 648 N 65.0364 0.313813 1.54444 0
M  V30 649 C 65.9664 -0.549454 2.26943 0
M  V30 650 C 66.9474 -1.12741 1.27372 0
M  V30 651 O 68.1324 -1.15436 1.56167 0
M  V30 652 C 65.2624 -1.71523 3.01989 0
M  V30 653 C 64.2164 -1.26703 4.08816 0
M  V30 654 C 63.5424 -2.51898 4.71647 0
M  V30 655 C 64.8424 -0.388962 5.2085 0
M  V30 656 H 66.5364 0.0552661 2.99349 0
M  V30 657 H 64.0824 0.0280207 1.43973 0
M  V30 658 H 66.0354 -2.32535 3.51433 0
M  V30 659 H 64.7594 -2.34639 2.27183 0
M  V30 660 H 63.4184 -0.679896 3.6024 0
M  V30 661 H 63.0664 -3.13356 3.93468 0
M  V30 662 H 62.7664 -2.22605 5.43802 0
M  V30 663 H 64.2904 -3.1369 5.23861 0
M  V30 664 H 65.7044 -0.905107 5.6611 0
M  V30 665 H 64.1014 -0.18924 5.99802 0
M  V30 666 H 65.1714 0.582699 4.81386 0
M  V30 667 N 66.5145 -1.57545 0.0417849 0
M  V30 668 C 67.4245 -2.14451 -0.951213 0
M  V30 669 C 68.4405 -1.09992 -1.34825 0
M  V30 670 O 69.6165 -1.42114 -1.42708 0
M  V30 671 C 66.6815 -2.67063 -2.21084 0
M  V30 672 C 65.7425 -3.86284 -1.87304 0
M  V30 673 C 64.9755 -4.36378 -3.07261 0
M  V30 674 O 65.1985 -3.85587 -4.20332 0
M  V30 675 O 64.1325 -5.28077 -2.88822 0
M  V30 676 H 67.9585 -2.99601 -0.497287 0
M  V30 677 H 65.5435 -1.48317 -0.179567 0
M  V30 678 H 67.4255 -3.00914 -2.95006 0
M  V30 679 H 66.1005 -1.84989 -2.65633 0
M  V30 680 H 65.0075 -3.57338 -1.10727 0
M  V30 681 H 66.3405 -4.6956 -1.47562 0
M  V30 682 N 67.9926 0.231505 -1.5589 0
M  V30 683 C 69.2386 0.954429 -1.79617 0
M  V30 684 C 69.5936 1.82367 -0.613199 0
M  V30 685 O 68.8866 1.87524 0.393094 0
M  V30 686 C 69.0806 1.83577 -3.0665 0
M  V30 687 C 68.9096 1.05334 -4.3719 0
M  V30 688 C 67.6796 0.75225 -4.99669 0
M  V30 689 C 69.8776 0.423444 -5.12554 0
M  V30 690 N 67.8596 -0.052627 -6.13877 0
M  V30 691 C 69.2306 -0.245287 -6.19515 0
M  V30 692 C 71.2856 0.335466 -4.96769 0
M  V30 693 C 69.9886 -0.993566 -7.12405 0
M  V30 694 C 72.0146 -0.399321 -5.9005 0
M  V30 695 C 71.3766 -1.05663 -6.9643 0
M  V30 696 H 67.4756 0.329846 -0.709031 0
M  V30 697 H 70.0596 0.226172 -1.93382 0
M  V30 698 H 68.2306 2.53592 -2.94186 0
M  V30 699 H 69.9626 2.49541 -3.18608 0
M  V30 700 H 66.7176 1.06783 -4.61405 0
M  V30 701 H 67.1416 -0.443609 -6.75545 0
M  V30 702 H 71.7836 0.829311 -4.14587 0
M  V30 703 H 69.5016 -1.49896 -7.94076 0
M  V30 704 H 73.0876 -0.468265 -5.79913 0
M  V30 705 H 71.9676 -1.61612 -7.67366 0
M  V30 706 N 69.4707 1.49531 0.497807 0
M  V30 707 C 70.7167 1.59415 1.25358 0
M  V30 708 C 71.0497 0.281422 1.9215 0
M  V30 709 O 70.3247 -0.715249 1.80871 0
M  V30 710 C 70.6077 2.75566 2.3181 0
M  V30 711 C 70.4607 4.16642 1.69498 0
M  V30 712 C 71.7797 2.87347 3.33346 0
M  V30 713 H 68.8987 0.580244 0.454408 0
M  V30 714 H 71.5407 1.81827 0.551262 0
M  V30 715 H 69.6907 2.56587 2.91711 0
M  V30 716 H 71.3627 4.47145 1.13399 0
M  V30 717 H 69.6057 4.22141 0.998978 0
M  V30 718 H 70.2767 4.93792 2.46725 0
M  V30 719 H 72.7527 3.04634 2.83438 0
M  V30 720 H 71.6287 3.70289 4.05188 0
M  V30 721 H 71.8897 1.96834 3.95865 0
M  V30 722 N 70.9488 -0.749086 1.3866 0
M  V30 723 C 72.1738 -1.54344 1.38538 0
M  V30 724 C 72.5988 -1.88088 -0.0216655 0
M  V30 725 O 71.9568 -1.50899 -1.00494 0
M  V30 726 C 72.0048 -2.8164 2.25192 0
M  V30 727 O 71.1088 -3.7698 1.67212 0
M  V30 728 H 70.4498 -0.466654 0.472367 0
M  V30 729 H 72.9798 -0.925355 1.82478 0
M  V30 730 H 72.9898 -3.30519 2.3921 0
M  V30 731 H 71.6648 -2.56411 3.27454 0
M  V30 732 H 70.2418 -3.35699 1.6236 0
M  V30 733 N 72.4269 -1.23603 -0.977757 0
M  V30 734 C 73.6549 -1.09646 -1.75458 0
M  V30 735 C 74.0699 0.351859 -1.85492 0
M  V30 736 O 73.4269 1.24327 -1.336 0
M  V30 737 C 73.4779 -1.71895 -3.18016 0
M  V30 738 O 73.1989 -3.11063 -3.08498 0
M  V30 739 C 74.6999 -1.63415 -4.12081 0
M  V30 740 H 71.9199 -0.38359 -0.550545 0
M  V30 741 H 74.4639 -1.63507 -1.22824 0
M  V30 742 H 72.6189 -1.22061 -3.67668 0
M  V30 743 H 73.0329 -3.41305 -3.9826 0
M  V30 744 H 74.5069 -2.11669 -5.09804 0
M  V30 745 H 74.9839 -0.593462 -4.35172 0
M  V30 746 H 75.5899 -2.12628 -3.68334 0
M  V30 747 N 73.905 1.17692 -1.04816 0
M  V30 748 C 75.154 1.87192 -0.751132 0
M  V30 749 C 75.467 1.8169 0.724441 0
M  V30 750 O 76.673 2.46625 1.13527 0
M  V30 751 C 75.129 3.35857 -1.29338 0
M  V30 752 C 74.737 3.4987 -2.79812 0
M  V30 753 C 76.481 4.10709 -1.07322 0
M  V30 754 C 74.388 4.92536 -3.27356 0
M  V30 755 H 73.318 0.701162 -0.277288 0
M  V30 756 H 75.969 1.32932 -1.26496 0
M  V30 757 H 74.351 3.89631 -0.707376 0
M  V30 758 H 75.525 3.06332 -3.44235 0
M  V30 759 H 73.84 2.88433 -3.00325 0
M  V30 760 H 76.437 5.15952 -1.4035 0
M  V30 761 H 76.78 4.16299 -0.0108001 0
M  V30 762 H 77.313 3.6313 -1.62423 0
M  V30 763 H 74.052 4.92119 -4.33012 0
M  V30 764 H 73.572 5.3676 -2.67673 0
M  V30 765 H 75.251 5.61288 -3.21815 0
M  V30 766 N 75.3831 0.828654 1.34056 0
M  V30 767 C 76.6081 0.431637 2.02859 0
M  V30 768 C 77.0331 -0.956339 1.61975 0
M  V30 769 O 76.3911 -1.62338 0.807228 0
M  V30 770 C 76.4391 0.548323 3.56407 0
M  V30 771 O 75.5431 -0.429556 4.10157 0
M  V30 772 H 74.8841 0.176886 0.640006 0
M  V30 773 H 77.4141 1.12066 1.71179 0
M  V30 774 H 77.4241 0.426196 4.05768 0
M  V30 775 H 76.0991 1.5606 3.8551 0
M  V30 776 H 74.6761 -0.265836 3.71951 0
M  V30 777 N 76.8612 -1.46375 0.584142 0
M  V30 778 C 78.1072 -2.03248 0.0787103 0
M  V30 779 C 78.4622 -1.44737 -1.26763 0
M  V30 780 O 77.7552 -0.603625 -1.81843 0
M  V30 781 C 77.9492 -3.57373 -0.0439342 0
M  V30 782 C 77.7782 -4.30831 1.28897 0
M  V30 783 C 76.5482 -4.69683 1.8635 0
M  V30 784 C 78.7462 -4.64278 2.21248 0
M  V30 785 N 76.7282 -5.27898 3.13365 0
M  V30 786 C 78.0992 -5.23078 3.32851 0
M  V30 787 C 80.1542 -4.46209 2.20911 0
M  V30 788 C 78.8572 -5.65715 4.44251 0
M  V30 789 C 80.8832 -4.89864 3.31341 0
M  V30 790 C 80.2452 -5.48736 4.41665 0
M  V30 791 H 76.3442 -0.778714 0.0716144 0
M  V30 792 H 78.9282 -1.78509 0.777355 0
M  V30 793 H 77.0992 -3.81823 -0.711749 0
M  V30 794 H 78.8312 -4.00892 -0.553881 0
M  V30 795 H 75.5862 -4.52488 1.39826 0
M  V30 796 H 76.0102 -5.61525 3.78178 0
M  V30 797 H 80.6522 -4.00027 1.36888 0
M  V30 798 H 78.3702 -6.10875 5.29015 0
M  V30 799 H 81.9562 -4.77634 3.322 0
M  V30 800 H 80.8362 -5.81898 5.25704 0
M  V30 801 N 78.3393 -0.321999 -1.54275 0
M  V30 802 C 79.2873 0.560206 -2.25753 0
M  V30 803 C 80.2813 1.11984 -1.27106 0
M  V30 804 O 81.4873 1.06806 -1.44888 0
M  V30 805 H 77.8623 0.199304 -0.725108 0
M  V30 806 H 79.8333 -0.0649365 -2.98329 0
M  V30 807 C 78.5823 1.71023 -3.02731 0
M  V30 808 H 77.9053 1.28885 -3.78456 0
M  V30 809 H 79.3453 2.30314 -3.55993 0
M  V30 810 C 77.8043 2.62692 -2.10938 0
M  V30 811 O 78.3343 3.64364 -1.6912 0
M  V30 812 N 76.5403 2.30891 -1.76459 0
M  V30 813 H 76.0873 1.48253 -2.10663 0
M  V30 814 H 76.0453 2.92487 -1.1532 0
M  V30 815 N 79.8174 1.5752 -0.0501392 0
M  V30 816 C 81.0424 1.97376 0.636997 0
M  V30 817 C 81.4674 0.927466 1.63645 0
M  V30 818 O 80.8254 -0.10941 1.8097 0
M  V30 819 C 80.8734 3.36304 1.30123 0
M  V30 820 O 79.9774 3.34156 2.41689 0
M  V30 821 H 79.3184 0.642998 0.165679 0
M  V30 822 H 81.8484 2.04258 -0.118233 0
M  V30 823 H 81.8584 3.73008 1.65315 0
M  V30 824 H 80.5334 4.11993 0.568746 0
M  V30 825 H 79.1104 3.09196 2.08451 0
M  V30 826 N 81.2955 -0.223234 1.56011 0
M  V30 827 C 82.5435 -0.946003 1.78592 0
M  V30 828 C 82.8645 -1.84936 0.618349 0
M  V30 829 O 82.1345 -1.92473 -0.364833 0
M  V30 830 H 80.7145 -0.352298 0.658707 0
M  V30 831 H 83.3765 -0.235494 1.93472 0
M  V30 832 H 82.4725 -1.55381 2.70672 0
M  V30 833 N 82.7736 -1.49793 -0.48987 0
M  V30 834 C 83.9986 -1.63836 -1.27172 0
M  V30 835 C 84.4236 -0.31402 -1.8546 0
M  V30 836 O 83.7816 0.719803 -1.66399 0
M  V30 837 C 83.8296 -2.71797 -2.36978 0
M  V30 838 O 82.9336 -2.31744 -3.41128 0
M  V30 839 H 82.2746 -0.547997 -0.37496 0
M  V30 840 H 84.8046 -1.96053 -0.585191 0
M  V30 841 H 84.8146 -2.94305 -2.82575 0
M  V30 842 H 83.4896 -3.67923 -1.93921 0
M  V30 843 H 82.0666 -2.1961 -3.01373 0
M  V30 844 N 84.2517 0.741722 -1.39055 0
M  V30 845 C 85.5007 1.49656 -1.35225 0
M  V30 846 C 85.8137 1.95533 0.0512708 0
M  V30 847 O 87.0197 2.7067 0.212138 0
M  V30 848 C 85.4757 2.70389 -2.37525 0
M  V30 849 C 85.0837 2.31489 -3.83558 0
M  V30 850 C 86.8277 3.48236 -2.42759 0
M  V30 851 C 84.7347 3.48903 -4.77515 0
M  V30 852 H 83.6647 0.56197 -0.502699 0
M  V30 853 H 86.3157 0.809727 -1.64668 0
M  V30 854 H 84.6977 3.41113 -2.01142 0
M  V30 855 H 85.8717 1.68354 -4.28945 0
M  V30 856 H 84.1867 1.66749 -3.81554 0
M  V30 857 H 86.7837 4.35558 -3.1015 0
M  V30 858 H 87.1267 3.90229 -1.45008 0
M  V30 859 H 87.6597 2.84535 -2.78002 0
M  V30 860 H 84.3987 3.11966 -5.76504 0
M  V30 861 H 83.9187 4.11041 -4.36813 0
M  V30 862 H 85.5977 4.15328 -4.96096 0
M  V30 863 N 85.7298 1.2412 0.971189 0
M  V30 864 C 86.9778 1.07668 1.71032 0
M  V30 865 C 87.2988 -0.385797 1.91146 0
M  V30 866 O 86.5688 -1.27569 1.4867 0
M  V30 867 H 85.1488 0.395429 0.633755 0
M  V30 868 H 87.8108 1.55984 1.16855 0
M  V30 869 H 86.9068 1.57195 2.69622 0
M  V30 870 N 87.2079 -1.17134 1.05439 0
M  V30 871 C 88.4379 -1.91094 0.785274 0
M  V30 872 C 88.8459 -1.77198 -0.663142 0
M  V30 873 O 88.1889 -1.10835 -1.46497 0
M  V30 874 C 88.2509 -3.42594 1.08949 0
M  V30 875 C 87.9149 -3.80274 2.53458 0
M  V30 876 C 88.9119 -3.82912 3.51673 0
M  V30 877 C 86.5969 -4.11162 2.88532 0
M  V30 878 C 88.5909 -4.15913 4.83006 0
M  V30 879 C 86.2779 -4.43831 4.20068 0
M  V30 880 C 87.2759 -4.46185 5.17115 0
M  V30 881 O 86.9639 -4.78083 6.46291 0
M  V30 882 H 86.6959 -0.613073 0.284811 0
M  V30 883 H 89.2499 -1.49461 1.40893 0
M  V30 884 H 87.4799 -3.84534 0.408741 0
M  V30 885 H 89.1689 -3.97817 0.805991 0
M  V30 886 H 89.9349 -3.5917 3.25917 0
M  V30 887 H 85.8139 -4.085 2.13656 0
M  V30 888 H 89.3579 -4.17665 5.5875 0
M  V30 889 H 85.2549 -4.67037 4.45586 0
M  V30 890 H 86.0229 -4.9593 6.51149 0
M  V30 891 N 88.686 -0.835752 -1.33615 0
M  V30 892 C 89.649 -0.272 -2.2758 0
M  V30 893 C 90.649 0.557487 -1.50827 0
M  V30 894 O 91.839 0.37173 -1.70188 0
M  V30 895 C 88.971 0.617173 -3.35267 0
M  V30 896 H 90.164 -1.10111 -2.78954 0
M  V30 897 H 87.717 -0.608594 -1.43965 0
M  V30 898 H 88.452 1.46884 -2.89129 0
M  V30 899 H 88.237 0.0237066 -3.92093 0
M  V30 900 H 89.727 1.005 -4.05326 0
M  V30 901 N 90.1641 1.46063 -0.591896 0
M  V30 902 C 91.4411 1.95595 -0.0137119 0
M  V30 903 C 91.8211 1.5345 1.4497 0
M  V30 904 O 91.1691 0.789543 2.14426 0
M  V30 905 C 91.3791 3.48453 -0.195373 0
M  V30 906 C 92.7271 4.24546 -0.0679765 0
M  V30 907 O 93.7511 3.55982 -0.124681 0
M  V30 908 O 92.6101 5.46467 0.0600579 0
M  V30 909 H 89.7041 0.825795 0.0446279 0
M  V30 910 H 92.2501 1.56303 -0.660859 0
M  V30 911 H 91.0221 3.72045 -1.21235 0
M  V30 912 H 90.6451 3.94597 0.487775 0
M  V30 913 N 91.6422 0.330177 1.54103 0
M  V30 914 C 92.8672 -0.274893 2.0557 0
M  V30 915 C 93.2922 -1.44487 1.20437 0
M  V30 916 O 92.6502 -1.80021 0.214991 0
M  V30 917 C 92.6982 -0.68079 3.54115 0
M  V30 918 O 91.8022 -1.7824 3.71893 0
M  V30 919 H 91.1432 -0.0483849 0.662235 0
M  V30 920 H 93.6732 0.480508 1.98878 0
M  V30 921 H 93.6832 -0.961635 3.96505 0
M  V30 922 H 92.3582 0.174903 4.15532 0
M  V30 923 H 90.9352 -1.49985 3.41407 0
M  V30 924 N 93.1203 -1.57491 0.0584922 0
M  V30 925 C 94.3663 -1.93264 -0.614558 0
M  V30 926 C 94.6993 -0.937717 -1.7006 0
M  V30 927 O 93.9743 0.0351652 -1.94468 0
M  V30 928 C 94.2573 -3.3938 -1.20386 0
M  V30 929 C 94.1103 -4.49625 -0.125375 0
M  V30 930 C 95.4293 -3.86039 -2.11334 0
M  V30 931 H 92.5483 -0.702791 -0.221933 0
M  V30 932 H 95.1903 -1.8961 0.12175 0
M  V30 933 H 93.3403 -3.42626 -1.83139 0
M  V30 934 H 95.0123 -4.58506 0.506971 0
M  V30 935 H 93.2553 -4.30354 0.545672 0
M  V30 936 H 93.9263 -5.48967 -0.577861 0
M  V30 937 H 96.4023 -3.84716 -1.58534 0
M  V30 938 H 95.2783 -4.88914 -2.49507 0
M  V30 939 H 95.5393 -3.23215 -3.01636 0
M  V30 940 N 94.5984 0.214957 -1.56127 0
M  V30 941 C 95.5454 1.26642 -1.92952 0
M  V30 942 C 96.5154 1.46244 -0.78753 0
M  V30 943 O 97.7004 1.59704 -1.04399 0
M  V30 944 C 94.8404 2.6104 -2.25726 0
M  V30 945 C 93.9534 2.49183 -3.52891 0
M  V30 946 C 93.0884 3.76149 -3.7508 0
M  V30 947 C 92.1274 3.59041 -4.95738 0
M  V30 948 N 91.2644 4.77972 -5.14283 0
M  V30 949 H 96.1044 0.945384 -2.82607 0
M  V30 950 H 93.6414 0.455489 -1.3987 0
M  V30 951 H 95.5994 3.39313 -2.42739 0
M  V30 952 H 94.2294 2.91227 -1.39236 0
M  V30 953 H 93.2814 1.6231 -3.44034 0
M  V30 954 H 94.5934 2.32466 -4.41318 0
M  V30 955 H 93.7474 4.62865 -3.92226 0
M  V30 956 H 92.4864 3.95799 -2.84947 0
M  V30 957 H 91.4914 2.7071 -4.78535 0
M  V30 958 H 92.7164 3.40856 -5.87362 0
M  V30 959 H 90.6624 4.97923 -4.27093 0
M  V30 960 H 90.5794 4.64006 -5.96853 0
M  V30 961 H 91.8474 5.66096 -5.35869 0
M  V30 962 N 96.0765 1.50051 0.48192 0
M  V30 963 C 97.3245 1.60181 1.23234 0
M  V30 964 C 97.6455 0.299176 1.92691 0
M  V30 965 O 96.9155 -0.682708 1.83619 0
M  V30 966 H 95.4955 0.590232 0.457859 0
M  V30 967 H 98.1575 1.86775 0.556881 0
M  V30 968 H 97.2535 2.40753 1.98607 0
M  V30 969 N 97.5546 -0.734337 1.39446 0
M  V30 970 C 98.9706 -1.03997 1.21065 0
M  V30 971 C 99.1706 -2.01369 0.0727019 0
M  V30 972 O 98.2266 -2.45856 -0.575426 0
M  V30 973 C 99.5396 -1.60163 2.54496 0
M  V30 974 C 101.088 -1.7224 2.61347 0
M  V30 975 C 101.563 -2.31814 3.95002 0
M  V30 976 N 103.054 -2.39223 3.96644 0
M  V30 977 C 103.789 -2.86258 4.96834 0
M  V30 978 N 103.285 -3.33184 6.07421 0
M  V30 979 N 105.078 -2.85473 4.84213 0
M  V30 980 H 97.2286 -0.0885624 2.12215 0
M  V30 981 H 99.4916 -0.10191 0.942506 0
M  V30 982 H 99.1976 -0.960811 3.38321 0
M  V30 983 H 99.0716 -2.5896 2.74262 0
M  V30 984 H 101.459 -2.35443 1.77906 0
M  V30 985 H 101.54 -0.720939 2.4543 0
M  V30 986 H 101.184 -1.69238 4.78875 0
M  V30 987 H 101.114 -3.32638 4.08239 0
M  V30 988 H 103.605 -2.06057 3.16779 0
M  V30 989 H 103.918 -3.67586 6.7978 0
M  V30 990 H 102.263 -3.31191 6.11013 0
M  V30 991 H 105.454 -2.48136 3.96921 0
M  V30 992 H 105.627 -3.21814 5.62441 0
M  V30 993 N 99.0327 -1.24633 -0.964593 0
M  V30 994 C 100.28 -1.08788 -1.70796 0
M  V30 995 C 100.608 0.372783 -1.90894 0
M  V30 996 O 99.8627 1.29167 -1.47018 0
M  V30 997 C 100.162 -1.7763 -3.10133 0
M  V30 998 C 99.8277 -3.27557 -3.09866 0
M  V30 999 C 98.4897 -3.6846 -3.09501 0
M  V30 1000 C 100.842 -4.23389 -3.03959 0
M  V30 1001 C 98.1697 -5.03624 -3.00965 0
M  V30 1002 C 100.522 -5.58565 -2.96965 0
M  V30 1003 C 99.1857 -5.98809 -2.9493 0
M  V30 1004 H 98.4557 -0.398084 -0.624988 0
M  V30 1005 H 101.103 -1.54777 -1.12767 0
M  V30 1006 H 99.4077 -1.24044 -3.71645 0
M  V30 1007 H 101.105 -1.62832 -3.66451 0
M  V30 1008 H 97.6947 -2.95006 -3.10917 0
M  V30 1009 H 101.879 -3.92787 -3.03368 0
M  V30 1010 H 97.1347 -5.33998 -2.97752 0
M  V30 1011 H 101.309 -6.32523 -2.91354 0
M  V30 1012 H 98.9357 -7.03505 -2.88071 0
M  V30 1013 N 100.511 1.16574 -1.06058 0
M  V30 1014 C 101.739 1.90952 -0.796552 0
M  V30 1015 C 102.154 1.77302 0.648808 0
M  V30 1016 O 101.511 1.11605 1.44397 0
M  V30 1017 C 101.562 3.41736 -1.17894 0
M  V30 1018 O 101.283 3.54975 -2.56758 0
M  V30 1019 C 102.784 4.33169 -0.942308 0
M  V30 1020 H 100.004 0.605594 -0.288959 0
M  V30 1021 H 102.548 1.47777 -1.41358 0
M  V30 1022 H 100.703 3.82623 -0.606491 0
M  V30 1023 H 101.117 4.4846 -2.72 0
M  V30 1024 H 102.591 5.37439 -1.25952 0
M  V30 1025 H 103.068 4.3903 0.122078 0
M  V30 1026 H 103.674 3.98007 -1.49902 0
M  V30 1027 N 101.989 0.842826 1.3317 0
M  V30 1028 C 103.238 0.436738 1.96915 0
M  V30 1029 C 103.551 -1.01025 1.67491 0
M  V30 1030 O 104.757 -1.5212 2.24881 0
M  V30 1031 C 103.213 0.730021 3.52418 0
M  V30 1032 C 102.821 2.19195 3.90714 0
M  V30 1033 C 104.565 0.391076 4.22695 0
M  V30 1034 C 102.472 2.42907 5.39212 0
M  V30 1035 H 101.402 0.15958 0.736919 0
M  V30 1036 H 104.053 1.03196 1.51733 0
M  V30 1037 H 102.435 0.0643755 3.95948 0
M  V30 1038 H 103.609 2.8984 3.58231 0
M  V30 1039 H 101.924 2.49425 3.33431 0
M  V30 1040 H 104.521 0.545817 5.31907 0
M  V30 1041 H 104.864 -0.666294 4.10933 0
M  V30 1042 H 105.397 1.01212 3.84709 0
M  V30 1043 H 102.136 3.47224 5.55982 0
M  V30 1044 H 101.656 1.76827 5.73142 0
M  V30 1045 H 103.335 2.2626 6.06148 0
M  V30 1046 N 103.467 -1.45747 0.599634 0
M  V30 1047 C 104.692 -2.07178 0.0960198 0
M  V30 1048 C 105.117 -1.44268 -1.207 0
M  V30 1049 O 104.475 -0.532503 -1.73303 0
M  V30 1050 C 104.523 -3.60579 -0.0385348 0
M  V30 1051 O 103.627 -3.97713 -1.0908 0
M  V30 1052 H 102.968 -0.660251 0.0704593 0
M  V30 1053 H 105.498 -1.87124 0.827385 0
M  V30 1054 H 105.508 -4.07298 -0.239304 0
M  V30 1055 H 104.183 -4.05756 0.912947 0
M  V30 1056 H 102.76 -3.62678 -0.867135 0
M  V30 1057 N 104.945 -0.338344 -1.53925 0
M  V30 1058 C 106.361 0.0137736 -1.59594 0
M  V30 1059 C 106.561 1.49186 -1.35447 0
M  V30 1060 O 105.617 2.24987 -1.14616 0
M  V30 1061 C 106.93 -0.41773 -2.97784 0
M  V30 1062 C 108.478 -0.369633 -3.1081 0
M  V30 1063 C 108.953 -0.776524 -4.51369 0
M  V30 1064 N 110.444 -0.730506 -4.57403 0
M  V30 1065 C 111.179 -1.01736 -5.64303 0
M  V30 1066 N 110.675 -1.3721 -6.79077 0
M  V30 1067 N 112.468 -0.941942 -5.54151 0
M  V30 1068 H 104.619 -1.3012 -1.67876 0
M  V30 1069 H 106.882 -0.530082 -0.78595 0
M  V30 1070 H 106.588 -1.44811 -3.20504 0
M  V30 1071 H 106.462 0.209729 -3.76616 0
M  V30 1072 H 108.849 0.651568 -2.87817 0
M  V30 1073 H 108.93 -1.03223 -2.34049 0
M  V30 1074 H 108.574 -1.79571 -4.75096 0
M  V30 1075 H 108.504 -0.0914649 -5.26521 0
M  V30 1076 H 110.995 -0.468783 -3.74981 0
M  V30 1077 H 111.308 -1.57597 -7.5656 0
M  V30 1078 H 109.653 -1.4105 -6.80536 0
M  V30 1079 H 112.844 -0.664184 -4.63364 0
M  V30 1080 H 113.017 -1.16884 -6.37371 0
M  V30 1081 N 106.423 1.57458 -0.0668435 0
M  V30 1082 C 107.7 1.8469 0.644132 0
M  V30 1083 C 108.08 0.958343 1.88093 0
M  V30 1084 O 107.428 0.0233579 2.28488 0
M  V30 1085 C 107.638 3.34767 0.986509 0
M  V30 1086 C 108.986 4.02159 1.36212 0
M  V30 1087 O 110.01 3.39484 1.07839 0
M  V30 1088 O 108.869 5.12694 1.89227 0
M  V30 1089 H 105.963 0.762816 0.319437 0
M  V30 1090 H 108.509 1.6942 -0.0973986 0
M  V30 1091 H 107.281 3.91151 0.107883 0
M  V30 1092 H 106.904 3.55281 1.78497 0
M  V30 1093 N 107.901 -0.206675 1.56239 0
M  V30 1094 C 108.849 -1.27571 1.94495 0
M  V30 1095 C 109.843 -1.47737 0.828862 0
M  V30 1096 O 111.049 -1.48735 1.0138 0
M  V30 1097 H 107.424 -0.428029 0.6183 0
M  V30 1098 H 109.395 -0.925961 2.8367 0
M  V30 1099 C 108.144 -2.61568 2.29079 0
M  V30 1100 H 107.467 -2.46863 3.14482 0
M  V30 1101 H 108.907 -3.35144 2.5972 0
M  V30 1102 C 107.366 -3.17695 1.12123 0
M  V30 1103 O 107.896 -3.99801 0.390153 0
M  V30 1104 N 106.102 -2.76276 0.901097 0
M  V30 1105 H 105.649 -2.09613 1.49733 0
M  V30 1106 H 105.607 -3.1417 0.120319 0
M  V30 1107 N 109.379 -1.50304 -0.473955 0
M  V30 1108 C 110.342 -1.6841 -1.55469 0
M  V30 1109 C 111.342 -0.554905 -1.50922 0
M  V30 1110 O 112.532 -0.821882 -1.53593 0
M  V30 1111 C 109.664 -1.70667 -2.95102 0
M  V30 1112 H 110.857 -2.64828 -1.40733 0
M  V30 1113 H 108.41 -1.39742 -0.700132 0
M  V30 1114 H 109.145 -0.75932 -3.15285 0
M  V30 1115 H 108.93 -2.52698 -2.9981 0
M  V30 1116 H 110.42 -1.8664 -3.73571 0
M  V30 1117 N 110.857 0.726932 -1.39834 0
M  V30 1118 C 111.804 1.841 -1.39197 0
M  V30 1119 C 112.774 1.642 -0.250502 0
M  V30 1120 O 113.959 1.85494 -0.446846 0
M  V30 1121 C 111.099 3.21697 -1.24919 0
M  V30 1122 C 110.212 3.53247 -2.48678 0
M  V30 1123 C 109.347 4.80289 -2.26928 0
M  V30 1124 C 108.386 5.04707 -3.4632 0
M  V30 1125 N 107.523 6.22956 -3.23836 0
M  V30 1126 H 112.363 1.83979 -2.34427 0
M  V30 1127 H 109.9 0.898876 -1.16442 0
M  V30 1128 H 111.858 4.01137 -1.1465 0
M  V30 1129 H 110.488 3.21076 -0.333153 0
M  V30 1130 H 109.54 2.68447 -2.69519 0
M  V30 1131 H 110.852 3.67205 -3.37582 0
M  V30 1132 H 110.006 5.67725 -2.13947 0
M  V30 1133 H 108.745 4.68519 -1.35431 0
M  V30 1134 H 107.75 4.1573 -3.5979 0
M  V30 1135 H 108.975 5.18357 -4.38729 0
M  V30 1136 H 106.921 6.12459 -2.35011 0
M  V30 1137 H 106.838 6.37539 -4.063 0
M  V30 1138 H 108.106 7.1321 -3.14566 0
M  V30 1139 N 112.336 1.25143 0.95797 0
M  V30 1140 C 113.283 1.05235 2.05412 0
M  V30 1141 C 114.253 -0.0374561 1.66058 0
M  V30 1142 O 115.438 0.119073 1.90428 0
M  V30 1143 C 112.578 0.673589 3.38462 0
M  V30 1144 C 111.691 1.8379 3.90954 0
M  V30 1145 C 110.826 1.40381 5.12315 0
M  V30 1146 C 109.865 2.53746 5.57027 0
M  V30 1147 N 109.002 2.11136 6.69601 0
M  V30 1148 H 113.842 1.99048 2.21774 0
M  V30 1149 H 111.379 0.991277 1.08683 0
M  V30 1150 H 113.337 0.434964 4.14926 0
M  V30 1151 H 111.967 -0.227554 3.21997 0
M  V30 1152 H 111.019 2.18992 3.11041 0
M  V30 1153 H 112.331 2.68937 4.20089 0
M  V30 1154 H 111.485 1.12464 5.96185 0
M  V30 1155 H 110.224 0.523015 4.84887 0
M  V30 1156 H 109.229 2.82412 4.71724 0
M  V30 1157 H 110.454 3.42398 5.86464 0
M  V30 1158 H 108.4 1.25468 6.4389 0
M  V30 1159 H 108.317 2.89832 6.98236 0
M  V30 1160 H 109.585 1.86385 7.56889 0
M  V30 1161 N 113.814 -1.1601 1.06675 0
M  V30 1162 C 115.039 -1.91068 0.806706 0
M  V30 1163 C 115.464 -1.77112 -0.633485 0
M  V30 1164 O 114.822 -1.09908 -1.44187 0
M  V30 1165 C 114.87 -3.39655 1.21106 0
M  V30 1166 O 113.974 -4.10893 0.352189 0
M  V30 1167 H 113.315 -0.595125 0.294486 0
M  V30 1168 H 115.845 -1.46955 1.42356 0
M  V30 1169 H 115.855 -3.90434 1.18428 0
M  V30 1170 H 114.53 -3.49132 2.26008 0
M  V30 1171 H 113.107 -3.70285 0.440868 0
M  V30 1172 N 115.292 -0.849877 -1.32721 0
M  V30 1173 C 116.222 -0.306308 -2.31482 0
M  V30 1174 C 117.203 0.591952 -1.59468 0
M  V30 1175 O 118.388 0.513199 -1.87296 0
M  V30 1176 C 115.518 0.510204 -3.43532 0
M  V30 1177 C 114.472 -0.293209 -4.26994 0
M  V30 1178 C 113.798 0.647743 -5.30762 0
M  V30 1179 C 115.098 -1.51634 -4.99804 0
M  V30 1180 H 116.792 -1.13153 -2.77195 0
M  V30 1181 H 114.338 -0.545553 -1.33266 0
M  V30 1182 H 116.291 0.900856 -4.11658 0
M  V30 1183 H 115.015 1.36874 -2.96535 0
M  V30 1184 H 113.674 -0.665555 -3.60508 0
M  V30 1185 H 113.322 1.50299 -4.8002 0
M  V30 1186 H 113.022 0.11422 -5.87489 0
M  V30 1187 H 114.546 1.03567 -6.01753 0
M  V30 1188 H 115.96 -1.19824 -5.60638 0
M  V30 1189 H 114.357 -1.98745 -5.66234 0
M  V30 1190 H 115.427 -2.28018 -4.27943 0
M  V30 1191 N 116.77 1.45427 -0.607355 0
M  V30 1192 C 118 2.06314 -0.108656 0
M  V30 1193 C 118.408 1.45269 1.21217 0
M  V30 1194 O 117.751 0.561115 1.74921 0
M  V30 1195 C 117.813 3.59345 0.105618 0
M  V30 1196 C 117.477 4.42723 -1.13337 0
M  V30 1197 C 118.474 4.77715 -2.05145 0
M  V30 1198 C 116.159 4.83478 -1.36213 0
M  V30 1199 C 118.153 5.52317 -3.18158 0
M  V30 1200 C 115.84 5.57835 -2.49527 0
M  V30 1201 C 116.838 5.92171 -3.40327 0
M  V30 1202 O 116.526 6.65019 -4.51669 0
M  V30 1203 H 116.258 0.672782 -0.0658842 0
M  V30 1204 H 118.812 1.87664 -0.834945 0
M  V30 1205 H 117.042 3.76394 0.886796 0
M  V30 1206 H 118.731 4.02076 0.555886 0
M  V30 1207 H 119.497 4.46787 -1.88697 0
M  V30 1208 H 115.376 4.56188 -0.664362 0
M  V30 1209 H 118.92 5.79036 -3.89054 0
M  V30 1210 H 114.817 5.88177 -2.65928 0
M  V30 1211 H 115.585 6.83469 -4.50348 0
M  V30 1212 N 118.248 0.346503 1.53744 0
M  V30 1213 C 119.178 -0.501193 2.28058 0
M  V30 1214 C 120.159 -1.10014 1.29734 0
M  V30 1215 O 121.344 -1.12097 1.58581 0
M  V30 1216 C 118.474 -1.65078 3.05559 0
M  V30 1217 C 117.428 -1.18003 4.11411 0
M  V30 1218 C 116.754 -2.41837 4.76884 0
M  V30 1219 C 118.054 -0.278394 5.21558 0
M  V30 1220 H 119.748 0.11875 2.99164 0
M  V30 1221 H 117.294 0.0585531 1.43881 0
M  V30 1222 H 119.247 -2.25028 3.56287 0
M  V30 1223 H 117.971 -2.29767 2.32109 0
M  V30 1224 H 116.63 -0.603331 3.61601 0
M  V30 1225 H 116.278 -3.0494 4.00026 0
M  V30 1226 H 115.978 -2.1102 5.48402 0
M  V30 1227 H 117.502 -3.02508 5.30397 0
M  V30 1228 H 118.916 -0.784823 5.67903 0
M  V30 1229 H 117.313 -0.0619707 6.00068 0
M  V30 1230 H 118.383 0.684677 4.80042 0
M  V30 1231 N 119.726 -1.57421 0.075193 0
M  V30 1232 C 120.658 -2.09904 -0.920483 0
M  V30 1233 C 121.671 -1.03191 -1.25918 0
M  V30 1234 O 122.86 -1.30695 -1.21577 0
M  V30 1235 C 119.96 -2.54726 -2.23534 0
M  V30 1236 C 119.133 -3.8505 -2.07498 0
M  V30 1237 C 118.192 -4.15929 -3.22319 0
M  V30 1238 O 117.218 -4.85474 -2.9716 0
M  V30 1239 N 118.42 -3.69745 -4.47514 0
M  V30 1240 H 121.185 -2.95954 -0.472359 0
M  V30 1241 H 118.746 -1.61523 -0.110444 0
M  V30 1242 H 120.738 -2.72443 -2.9926 0
M  V30 1243 H 119.308 -1.73795 -2.59835 0
M  V30 1244 H 118.528 -3.76679 -1.16219 0
M  V30 1245 H 119.816 -4.70348 -1.94038 0
M  V30 1246 H 119.214 -3.13569 -4.7084 0
M  V30 1247 H 117.771 -3.92655 -5.20255 0
M  V30 1248 N 121.204 0.198386 -1.56346 0
M  V30 1249 C 122.137 1.27381 -1.89339 0
M  V30 1250 C 123.115 1.44106 -0.753134 0
M  V30 1251 O 124.299 1.59549 -1.00381 0
M  V30 1252 C 121.426 2.6409 -2.12071 0
M  V30 1253 C 120.472 2.64253 -3.34772 0
M  V30 1254 S 121.305 2.16013 -4.89999 0
M  V30 1255 C 122.461 3.54553 -5.15794 0
M  V30 1256 H 122.694 0.992058 -2.8026 0
M  V30 1257 H 120.227 0.401726 -1.49082 0
M  V30 1258 H 122.185 3.42786 -2.2585 0
M  V30 1259 H 120.846 2.89478 -1.21906 0
M  V30 1260 H 120.039 3.64768 -3.47794 0
M  V30 1261 H 119.641 1.93637 -3.1997 0
M  V30 1262 H 121.933 4.50396 -5.06112 0
M  V30 1263 H 122.876 3.46428 -6.1757 0
M  V30 1264 H 123.284 3.49313 -4.43442 0
M  V30 1265 N 122.682 1.50554 0.465978 0
M  V30 1266 C 123.63 1.70324 1.58406 0
M  V30 1267 C 124.624 0.569139 1.59553 0
M  V30 1268 O 125.83 0.749776 1.63641 0
M  V30 1269 H 122.205 0.537688 0.525734 0
M  V30 1270 H 124.176 2.64104 1.38894 0
M  V30 1271 C 122.925 1.81928 2.96307 0
M  V30 1272 H 122.248 2.68586 2.96144 0
M  V30 1273 H 123.688 1.99784 3.73982 0
M  V30 1274 C 122.147 0.572095 3.32007 0
M  V30 1275 O 122.677 -0.286416 4.00678 0
M  V30 1276 N 120.883 0.424606 2.87481 0
M  V30 1277 H 120.43 1.12427 2.31771 0
M  V30 1278 H 120.388 -0.408697 3.11732 0
M  V30 1279 N 124.16 -0.719506 1.40217 0
M  V30 1280 C 125.385 -1.51371 1.4178 0
M  V30 1281 C 125.81 -1.88091 0.0182355 0
M  V30 1282 O 125.168 -1.52997 -0.972707 0
M  V30 1283 C 125.216 -2.768 2.31115 0
M  V30 1284 O 124.32 -3.73349 1.7517 0
M  V30 1285 H 123.661 -0.456529 0.482159 0
M  V30 1286 H 126.191 -0.88644 1.844 0
M  V30 1287 H 126.201 -3.25371 2.46167 0
M  V30 1288 H 124.876 -2.49407 3.3282 0
M  V30 1289 H 123.453 -3.32179 1.69444 0
M  V30 1290 N 125.638 -1.25649 -0.95132 0
M  V30 1291 C 126.568 -1.08808 -2.06599 0
M  V30 1292 C 127.549 0.00382547 -1.701 0
M  V30 1293 O 128.734 -0.166325 -1.93486 0
M  V30 1294 C 125.864 -0.709542 -3.39975 0
M  V30 1295 C 124.818 -1.75206 -3.90496 0
M  V30 1296 C 124.144 -1.22811 -5.20405 0
M  V30 1297 C 125.444 -3.15153 -4.16504 0
M  V30 1298 H 127.138 -2.02048 -2.20946 0
M  V30 1299 H 124.684 -0.972835 -1.06169 0
M  V30 1300 H 126.637 -0.578649 -4.17408 0
M  V30 1301 H 125.361 0.258556 -3.25575 0
M  V30 1302 H 124.02 -1.87145 -3.15234 0
M  V30 1303 H 123.668 -0.250145 -5.02378 0
M  V30 1304 H 123.368 -1.92492 -5.55176 0
M  V30 1305 H 124.892 -1.10968 -6.00432 0
M  V30 1306 H 126.306 -3.06349 -4.84586 0
M  V30 1307 H 124.703 -3.82333 -4.62538 0
M  V30 1308 H 125.773 -3.61966 -3.22658 0
M  V30 1309 N 127.117 1.15442 -1.07289 0
M  V30 1310 C 128.533 1.38201 -0.798288 0
M  V30 1311 C 128.733 1.92429 0.597769 0
M  V30 1312 O 127.789 2.12962 1.3566 0
M  V30 1313 C 129.102 2.35357 -1.87156 0
M  V30 1314 C 130.65 2.49021 -1.89624 0
M  V30 1315 C 131.125 3.49468 -2.96034 0
M  V30 1316 N 132.616 3.57003 -2.95132 0
M  V30 1317 C 133.351 4.34543 -3.74112 0
M  V30 1318 N 132.847 5.15421 -4.6294 0
M  V30 1319 N 134.64 4.29625 -3.62462 0
M  V30 1320 H 126.791 0.78584 -1.97328 0
M  V30 1321 H 129.054 0.408065 -0.855679 0
M  V30 1322 H 128.76 2.02626 -2.87464 0
M  V30 1323 H 128.634 3.35129 -1.73114 0
M  V30 1324 H 131.021 2.81051 -0.899687 0
M  V30 1325 H 131.102 1.4925 -2.07745 0
M  V30 1326 H 130.746 3.18173 -3.95889 0
M  V30 1327 H 130.676 4.48992 -2.75161 0
M  V30 1328 H 133.167 2.99276 -2.30743 0
M  V30 1329 H 133.48 5.7183 -5.19837 0
M  V30 1330 H 131.825 5.14729 -4.66989 0
M  V30 1331 H 135.016 3.65505 -2.92444 0
M  V30 1332 H 135.189 4.89807 -4.24256 0
M  V30 1333 N 128.595 0.856903 1.32268 0
M  V30 1334 C 129.558 0.308171 2.27119 0
M  V30 1335 C 130.558 -0.533421 1.51695 0
M  V30 1336 O 131.748 -0.344607 1.70757 0
M  V30 1337 C 128.88 -0.563757 3.36206 0
M  V30 1338 H 130.073 1.14535 2.77167 0
M  V30 1339 H 127.626 0.631421 1.42978 0
M  V30 1340 H 128.361 -1.42266 2.91429 0
M  V30 1341 H 128.146 0.0386749 3.92081 0
M  V30 1342 H 129.636 -0.940386 4.06874 0
M  V30 1343 N 130.073 -1.45103 0.615059 0
M  V30 1344 C 130.983 -2.34382 -0.101034 0
M  V30 1345 C 131.999 -1.51681 -0.852585 0
M  V30 1346 O 133.175 -1.8446 -0.808484 0
M  V30 1347 C 130.24 -3.29417 -1.08099 0
M  V30 1348 C 129.301 -4.28025 -0.330577 0
M  V30 1349 C 128.534 -5.1852 -1.26385 0
M  V30 1350 O 128.757 -5.12598 -2.50198 0
M  V30 1351 O 127.691 -5.97122 -0.756866 0
M  V30 1352 H 131.517 -2.97033 0.632855 0
M  V30 1353 H 129.102 -1.4461 0.375293 0
M  V30 1354 H 130.984 -3.87958 -1.6452 0
M  V30 1355 H 129.659 -2.69321 -1.79577 0
M  V30 1356 H 128.566 -3.73078 0.276283 0
M  V30 1357 H 129.899 -4.90997 0.343866 0
M  V30 1358 N 131.551 -0.354651 -1.53558 0
M  V30 1359 C 132.828 0.294281 -1.93374 0
M  V30 1360 C 133.208 1.67313 -1.28723 0
M  V30 1361 O 132.556 2.24179 -0.442247 0
M  V30 1362 C 132.766 0.355445 -3.47185 0
M  V30 1363 C 134.114 0.601007 -4.20325 0
M  V30 1364 O 135.138 0.437106 -3.53508 0
M  V30 1365 O 133.997 0.919322 -5.38712 0
M  V30 1366 H 131.091 0.174033 -0.808481 0
M  V30 1367 H 133.637 -0.406638 -1.64756 0
M  V30 1368 H 132.409 -0.611729 -3.86489 0
M  V30 1369 H 132.032 1.1027 -3.82003 0
M  V30 1370 N 133.029 1.57378 -0.0835403 0
M  V30 1371 C 134.257 1.98263 0.59157 0
M  V30 1372 C 134.672 0.962302 1.62435 0
M  V30 1373 O 134.029 -0.049581 1.82433 0
M  V30 1374 C 134.08 3.39214 1.24965 0
M  V30 1375 O 133.801 4.37339 0.258186 0
M  V30 1376 C 135.302 3.95038 2.01147 0
M  V30 1377 H 132.522 0.651773 0.159477 0
M  V30 1378 H 135.066 2.03878 -0.159415 0
M  V30 1379 H 133.221 3.34649 1.95164 0
M  V30 1380 H 133.635 5.19371 0.731734 0
M  V30 1381 H 135.109 4.95848 2.42567 0
M  V30 1382 H 135.586 3.32222 2.87272 0
M  V30 1383 H 136.192 4.0304 1.35789 0
M  V30 1384 N 134.507 -0.190092 1.56449 0
M  V30 1385 C 135.47 -1.21925 1.9408 0
M  V30 1386 C 136.47 -1.38176 0.822431 0
M  V30 1387 O 137.66 -1.35903 1.08977 0
M  V30 1388 C 134.792 -2.58773 2.21922 0
M  V30 1389 H 135.985 -0.897464 2.86157 0
M  V30 1390 H 133.538 -0.43181 1.50217 0
M  V30 1391 H 134.273 -2.95998 1.32499 0
M  V30 1392 H 134.058 -2.48348 3.03424 0
M  V30 1393 H 135.548 -3.32978 2.52022 0
M  V30 1394 N 135.985 -1.50799 -0.457987 0
M  V30 1395 C 136.915 -1.73553 -1.5621 0
M  V30 1396 C 137.896 -0.584774 -1.59732 0
M  V30 1397 O 139.081 -0.825314 -1.7579 0
M  V30 1398 C 136.211 -1.84169 -2.94447 0
M  V30 1399 C 135.165 -2.99461 -3.0579 0
M  V30 1400 C 134.491 -2.95235 -4.45803 0
M  V30 1401 C 135.791 -4.39766 -2.81786 0
M  V30 1402 H 137.485 -2.66 -1.37421 0
M  V30 1403 H 135.031 -1.28002 -0.659662 0
M  V30 1404 H 136.984 -1.98672 -3.71628 0
M  V30 1405 H 135.708 -0.883545 -3.14422 0
M  V30 1406 H 134.367 -2.8463 -2.31044 0
M  V30 1407 H 134.015 -1.97239 -4.62715 0
M  V30 1408 H 133.715 -3.72642 -4.54326 0
M  V30 1409 H 135.239 -3.11803 -5.24987 0
M  V30 1410 H 136.653 -4.55054 -3.4871 0
M  V30 1411 H 135.05 -5.18722 -3.0174 0
M  V30 1412 H 136.12 -4.51229 -1.7754 0
M  V30 1413 N 137.463 0.71206 -1.40597 0
M  V30 1414 C 138.693 1.49894 -1.42181 0
M  V30 1415 C 139.101 1.89189 -0.0208078 0
M  V30 1416 O 138.444 1.56223 0.966436 0
M  V30 1417 C 138.506 2.80215 -2.25211 0
M  V30 1418 C 138.17 2.63221 -3.73582 0
M  V30 1419 C 139.167 2.30249 -4.66135 0
M  V30 1420 C 136.852 2.79376 -4.17438 0
M  V30 1421 C 138.846 2.13645 -6.00529 0
M  V30 1422 C 136.533 2.6239 -5.51901 0
M  V30 1423 C 137.531 2.29573 -6.43262 0
M  V30 1424 O 137.219 2.12719 -7.75246 0
M  V30 1425 H 136.951 0.469031 -0.486812 0
M  V30 1426 H 139.505 0.88564 -1.85326 0
M  V30 1427 H 137.735 3.4389 -1.76852 0
M  V30 1428 H 139.424 3.41947 -2.18694 0
M  V30 1429 H 140.19 2.17398 -4.33547 0
M  V30 1430 H 136.069 3.03906 -3.46644 0
M  V30 1431 H 139.613 1.87953 -6.71803 0
M  V30 1432 H 135.51 2.74826 -5.84073 0
M  V30 1433 H 136.278 2.27611 -7.86216 0
M  V30 1434 N 138.941 1.26152 0.944643 0
M  V30 1435 C 140.171 1.14094 1.72239 0
M  V30 1436 C 140.579 -0.306931 1.86694 0
M  V30 1437 O 139.922 -1.22222 1.3714 0
M  V30 1438 C 139.984 1.73316 3.14963 0
M  V30 1439 C 139.648 3.2239 3.23904 0
M  V30 1440 C 140.645 4.19252 3.07447 0
M  V30 1441 C 138.33 3.62788 3.47405 0
M  V30 1442 C 140.324 5.54491 3.14353 0
M  V30 1443 C 138.011 4.98162 3.53947 0
M  V30 1444 C 139.009 5.93823 3.37436 0
M  V30 1445 O 138.697 7.26732 3.43679 0
M  V30 1446 H 138.429 0.398292 0.546205 0
M  V30 1447 H 140.983 1.67201 1.19301 0
M  V30 1448 H 139.213 1.14667 3.69308 0
M  V30 1449 H 140.902 1.56214 3.74636 0
M  V30 1450 H 141.668 3.8938 2.8915 0
M  V30 1451 H 137.547 2.88816 3.59313 0
M  V30 1452 H 141.091 6.29137 3.01384 0
M  V30 1453 H 136.988 5.27695 3.71763 0
M  V30 1454 H 137.756 7.3496 3.60245 0
M  V30 1455 N 140.419 -1.14872 1.07899 0
M  V30 1456 C 141.659 -1.8745 0.814965 0
M  V30 1457 C 142.023 -1.80758 -0.64733 0
M  V30 1458 O 143.224 -2.48422 -1.02664 0
M  V30 1459 C 141.495 -3.32286 1.31607 0
M  V30 1460 S 143.054 -4.22537 1.18357 0
M  V30 1461 H 139.872 -0.646833 0.295174 0
M  V30 1462 H 142.474 -1.38555 1.37923 0
M  V30 1463 H 141.178 -3.34703 2.37491 0
M  V30 1464 H 140.709 -3.86238 0.747261 0
M  V30 1465 H 142.724 -4.96044 0.124586 0
M  V30 1466 N 141.898 -0.863906 -1.31812 0
M  V30 1467 C 142.861 -0.320212 -2.26952 0
M  V30 1468 C 143.861 0.525369 -1.51975 0
M  V30 1469 O 145.051 0.335547 -1.70938 0
M  V30 1470 C 142.183 0.545919 -3.365 0
M  V30 1471 H 143.376 -1.16004 -2.76556 0
M  V30 1472 H 140.929 -0.638995 -1.42641 0
M  V30 1473 H 141.664 1.40718 -2.92179 0
M  V30 1474 H 141.449 -0.0594674 -3.92055 0
M  V30 1475 H 142.939 0.918796 -4.07367 0
M  V30 1476 N 143.376 1.44774 -0.622745 0
M  V30 1477 C 144.323 2.30635 0.0871679 0
M  V30 1478 C 145.293 1.42994 0.845097 0
M  V30 1479 O 146.478 1.71907 0.827812 0
M  V30 1480 C 143.618 3.28144 1.06844 0
M  V30 1481 C 142.731 4.30888 0.309809 0
M  V30 1482 C 141.866 5.15494 1.28215 0
M  V30 1483 C 140.905 6.09953 0.512198 0
M  V30 1484 N 140.042 6.87287 1.43458 0
M  V30 1485 H 144.882 2.90803 -0.650974 0
M  V30 1486 H 142.419 1.43286 -0.33281 0
M  V30 1487 H 144.377 3.83157 1.65066 0
M  V30 1488 H 143.007 2.69695 1.77382 0
M  V30 1489 H 142.059 3.78414 -0.388181 0
M  V30 1490 H 143.371 4.97955 -0.290254 0
M  V30 1491 H 142.525 5.74983 1.93596 0
M  V30 1492 H 141.264 4.48481 1.91614 0
M  V30 1493 H 140.269 5.49581 -0.155151 0
M  V30 1494 H 141.494 6.78999 -0.116958 0
M  V30 1495 H 139.44 6.2295 2.05594 0
M  V30 1496 H 139.357 7.50763 0.888335 0
M  V30 1497 H 140.625 7.51306 2.07749 0
M  V30 1498 N 144.854 0.36279 1.53368 0
M  V30 1499 C 146.131 -0.284021 1.93527 0
M  V30 1500 C 146.511 -1.66628 1.29608 0
M  V30 1501 O 145.859 -2.23942 0.45413 0
M  V30 1502 C 146.069 -0.337028 3.47369 0
M  V30 1503 C 147.417 -0.578708 4.20638 0
M  V30 1504 O 148.441 -0.418352 3.53735 0
M  V30 1505 O 147.3 -0.89074 5.39192 0
M  V30 1506 H 144.394 -0.169743 0.809393 0
M  V30 1507 H 146.94 0.41537 1.64538 0
M  V30 1508 H 145.712 0.632217 3.86159 0
M  V30 1509 H 145.335 -1.08243 3.82582 0
M  V30 1510 N 146.332 -1.57332 0.0918853 0
M  V30 1511 C 147.581 -1.93412 -0.572249 0
M  V30 1512 C 147.894 -0.975515 -1.69538 0
M  V30 1513 O 149.1 -1.22991 -2.42045 0
M  V30 1514 C 147.556 -3.43648 -1.0693 0
M  V30 1515 C 147.164 -4.47994 0.0239049 0
M  V30 1516 C 148.908 -3.88695 -1.70635 0
M  V30 1517 C 146.815 -5.89381 -0.488319 0
M  V30 1518 H 145.745 -0.721939 -0.217532 0
M  V30 1519 H 148.396 -1.82735 0.167369 0
M  V30 1520 H 146.778 -3.49466 -1.8625 0
M  V30 1521 H 147.952 -4.53815 0.799277 0
M  V30 1522 H 146.267 -4.12536 0.565946 0
M  V30 1523 H 148.864 -4.91725 -2.10025 0
M  V30 1524 H 149.207 -3.27166 -2.57426 0
M  V30 1525 H 149.74 -3.85564 -0.979023 0
M  V30 1526 H 146.479 -6.54602 0.342906 0
M  V30 1527 H 145.999 -5.87037 -1.23077 0
M  V30 1528 H 147.678 -6.39863 -0.958317 0
M  V30 1529 N 147.81 0.181792 -1.56548 0
M  V30 1530 C 148.742 1.24956 -1.92142 0
M  V30 1531 C 149.755 1.41022 -0.813422 0
M  V30 1532 O 150.944 1.41212 -1.09186 0
M  V30 1533 C 148.044 2.61981 -2.14987 0
M  V30 1534 C 147.217 2.6735 -3.46183 0
M  V30 1535 C 146.276 3.85664 -3.5798 0
M  V30 1536 O 145.302 3.72148 -4.30691 0
M  V30 1537 N 146.504 5.01683 -2.92053 0
M  V30 1538 H 149.269 0.947329 -2.84334 0
M  V30 1539 H 146.83 0.371629 -1.57577 0
M  V30 1540 H 148.822 3.3958 -2.20154 0
M  V30 1541 H 147.392 2.84637 -1.2923 0
M  V30 1542 H 146.612 1.75925 -3.52766 0
M  V30 1543 H 147.9 2.67939 -4.32534 0
M  V30 1544 H 147.298 5.15564 -2.32832 0
M  V30 1545 H 145.855 5.77181 -3.0283 0
M  V30 1546 N 149.288 1.51039 0.449983 0
M  V30 1547 C 150.518 1.66627 1.22143 0
M  V30 1548 C 150.926 0.357776 1.85786 0
M  V30 1549 O 150.269 -0.672424 1.70951 0
M  V30 1550 C 150.331 2.71562 2.35573 0
M  V30 1551 C 149.995 4.14526 1.92399 0
M  V30 1552 C 150.992 4.99717 1.43453 0
M  V30 1553 C 148.677 4.60559 2.00475 0
M  V30 1554 C 150.671 6.28998 1.03155 0
M  V30 1555 C 148.358 5.8984 1.59788 0
M  V30 1556 C 149.356 6.73886 1.11208 0
M  V30 1557 O 149.044 8.0075 0.710935 0
M  V30 1558 H 148.776 0.562635 0.374724 0
M  V30 1559 H 151.33 1.98146 0.541036 0
M  V30 1560 H 149.56 2.3533 3.06849 0
M  V30 1561 H 151.249 2.76156 2.97478 0
M  V30 1562 H 152.015 4.65361 1.36618 0
M  V30 1563 H 147.894 3.95273 2.37235 0
M  V30 1564 H 151.438 6.9455 0.651663 0
M  V30 1565 H 147.335 6.23713 1.66289 0
M  V30 1566 H 148.103 8.142 0.837913 0
M  V30 1567 N 150.766 -0.704594 1.40972 0
M  V30 1568 C 152.014 -1.46169 1.39568 0
M  V30 1569 C 152.335 -1.95 0.00253745 0
M  V30 1570 O 151.605 -1.71095 -0.954114 0
M  V30 1571 H 150.185 -0.542326 0.513704 0
M  V30 1572 H 152.847 -0.834553 1.76128 0
M  V30 1573 H 151.943 -2.32922 2.07735 0
M  V30 1574 N 152.244 -1.26651 -0.937939 0
M  V30 1575 C 153.192 -1.08308 -2.05845 0
M  V30 1576 C 154.186 -0.0090757 -1.69398 0
M  V30 1577 O 155.392 -0.166007 -1.79233 0
M  V30 1578 H 151.767 -0.333416 -0.674046 0
M  V30 1579 H 153.738 -2.03261 -2.18467 0
M  V30 1580 C 152.487 -0.736229 -3.39816 0
M  V30 1581 H 151.81 -1.55453 -3.6834 0
M  V30 1582 H 153.25 -0.64769 -4.19024 0
M  V30 1583 C 151.709 0.558824 -3.32233 0
M  V30 1584 O 152.239 1.59621 -3.68624 0
M  V30 1585 N 150.445 0.550657 -2.85335 0
M  V30 1586 H 149.992 -0.293943 -2.55917 0
M  V30 1587 H 149.95 1.41726 -2.80644 0
M  V30 1588 N 153.722 1.14298 -1.08507 0
M  V30 1589 C 154.952 1.88945 -0.835663 0
M  V30 1590 C 155.36 1.78894 0.615928 0
M  V30 1591 O 154.703 1.1468 1.43506 0
M  V30 1592 C 154.765 3.39585 -1.17994 0
M  V30 1593 C 154.429 3.7342 -2.63451 0
M  V30 1594 C 155.426 3.73454 -3.61702 0
M  V30 1595 C 153.111 4.03368 -2.99332 0
M  V30 1596 C 155.105 4.02961 -4.93864 0
M  V30 1597 C 152.792 4.32538 -4.31687 0
M  V30 1598 C 153.79 4.32318 -5.28763 0
M  V30 1599 O 153.478 4.6078 -6.58739 0
M  V30 1600 H 153.21 0.605307 -0.300965 0
M  V30 1601 H 155.764 1.45673 -1.44806 0
M  V30 1602 H 153.994 3.83315 -0.51055 0
M  V30 1603 H 155.683 3.9554 -0.911182 0
M  V30 1604 H 156.449 3.50403 -3.35325 0
M  V30 1605 H 152.328 4.02692 -2.24411 0
M  V30 1606 H 155.872 4.02704 -5.69627 0
M  V30 1607 H 151.769 4.55059 -4.57812 0
M  V30 1608 H 152.537 4.78492 -6.64069 0
M  V30 1609 N 155.201 0.870884 1.31352 0
M  V30 1610 C 156.431 0.496049 2.00557 0
M  V30 1611 C 156.839 -0.916241 1.65534 0
M  V30 1612 O 156.182 -1.61188 0.881134 0
M  V30 1613 C 156.244 0.574418 3.54881 0
M  V30 1614 C 155.908 1.94849 4.1338 0
M  V30 1615 C 156.905 2.91611 4.30417 0
M  V30 1616 C 154.59 2.25005 4.49086 0
M  V30 1617 C 156.584 4.16672 4.82352 0
M  V30 1618 C 154.271 3.50315 5.00722 0
M  V30 1619 C 155.269 4.45964 5.17306 0
M  V30 1620 O 154.957 5.69052 5.67833 0
M  V30 1621 H 154.689 0.191664 0.64826 0
M  V30 1622 H 157.243 1.17409 1.68536 0
M  V30 1623 H 155.473 -0.160549 3.86367 0
M  V30 1624 H 157.162 0.212879 4.05341 0
M  V30 1625 H 157.928 2.69622 4.03149 0
M  V30 1626 H 153.807 1.51332 4.35453 0
M  V30 1627 H 157.351 4.91336 4.95211 0
M  V30 1628 H 153.248 3.72147 5.27424 0
M  V30 1629 H 154.016 5.71236 5.86201 0
M  V30 1630 N 156.679 -1.44442 0.630414 0
M  V30 1631 C 157.909 -2.06115 0.141465 0
M  V30 1632 C 158.317 -1.47179 -1.1889 0
M  V30 1633 O 157.66 -0.588873 -1.74006 0
M  V30 1634 C 157.722 -3.59467 -0.0484355 0
M  V30 1635 C 157.386 -4.40864 1.20366 0
M  V30 1636 C 158.383 -4.74391 2.12719 0
M  V30 1637 C 156.068 -4.8125 1.43887 0
M  V30 1638 C 158.062 -5.47186 3.26904 0
M  V30 1639 C 155.749 -5.53795 2.5837 0
M  V30 1640 C 156.747 -5.86682 3.49705 0
M  V30 1641 O 156.435 -6.57749 4.62191 0
M  V30 1642 H 156.167 -0.671648 0.0765792 0
M  V30 1643 H 158.721 -1.86312 0.864695 0
M  V30 1644 H 156.951 -3.77758 -0.826803 0
M  V30 1645 H 158.64 -4.02909 -0.491849 0
M  V30 1646 H 159.406 -4.43728 1.95781 0
M  V30 1647 H 155.285 -4.55073 0.736853 0
M  V30 1648 H 158.829 -5.72773 3.98217 0
M  V30 1649 H 154.726 -5.83872 2.75251 0
M  V30 1650 H 155.494 -6.76217 4.61164 0
M  V30 1651 N 158.157 -0.370918 -1.53173 0
M  V30 1652 C 159.405 0.216673 -2.00935 0
M  V30 1653 C 159.726 1.48845 -1.25977 0
M  V30 1654 O 158.996 1.92286 -0.374551 0
M  V30 1655 H 157.576 0.0830565 -0.742368 0
M  V30 1656 H 160.238 -0.49838 -1.8842 0
M  V30 1657 H 159.334 0.439893 -3.08984 0
M  V30 1658 N 159.635 1.57281 -0.100228 0
M  V30 1659 C 160.568 2.09976 0.893612 0
M  V30 1660 C 161.546 1.01155 1.27304 0
M  V30 1661 O 162.73 1.28687 1.37739 0
M  V30 1662 C 159.857 2.58098 2.19324 0
M  V30 1663 C 158.903 3.78626 1.96328 0
M  V30 1664 S 159.736 5.21959 1.19662 0
M  V30 1665 C 160.892 5.73435 2.50844 0
M  V30 1666 H 161.125 2.93946 0.44534 0
M  V30 1667 H 158.658 1.53985 0.113167 0
M  V30 1668 H 160.616 2.8648 2.94005 0
M  V30 1669 H 159.277 1.74344 2.61272 0
M  V30 1670 H 158.47 4.10382 2.92579 0
M  V30 1671 H 158.072 3.50763 1.29775 0
M  V30 1672 H 160.364 5.82015 3.46792 0
M  V30 1673 H 161.307 6.7185 2.23659 0
M  V30 1674 H 161.715 5.01395 2.59352 0
M  V30 1675 N 161.113 -0.173488 1.56642 0
M  V30 1676 C 162.39 -0.917617 1.7274 0
M  V30 1677 C 162.77 -2.00484 0.661027 0
M  V30 1678 O 162.118 -2.26184 -0.32453 0
M  V30 1679 C 162.328 -1.48433 3.15862 0
M  V30 1680 C 163.676 -1.95809 3.76754 0
M  V30 1681 O 164.7 -1.58231 3.19126 0
M  V30 1682 O 163.559 -2.65024 4.77938 0
M  V30 1683 H 160.653 -0.431772 0.705338 0
M  V30 1684 H 163.199 -0.161487 1.6893 0
M  V30 1685 H 161.971 -0.701715 3.84957 0
M  V30 1686 H 161.594 -2.30471 3.23989 0
M  V30 1687 N 162.591 -1.51276 -0.441967 0
M  V30 1688 C 163.837 -1.63958 -1.19355 0
M  V30 1689 C 164.17 -0.352543 -1.90973 0
M  V30 1690 O 163.445 0.647627 -1.83401 0
M  V30 1691 C 163.728 -2.83979 -2.21422 0
M  V30 1692 C 163.581 -4.22646 -1.53918 0
M  V30 1693 C 164.9 -2.99521 -3.22451 0
M  V30 1694 H 162.019 -0.596709 -0.432559 0
M  V30 1695 H 164.661 -1.83748 -0.483398 0
M  V30 1696 H 162.811 -2.67237 -2.81987 0
M  V30 1697 H 164.483 -4.51045 -0.967256 0
M  V30 1698 H 162.726 -4.25558 -0.841615 0
M  V30 1699 H 163.397 -5.02609 -2.28229 0
M  V30 1700 H 165.873 -3.14944 -2.71937 0
M  V30 1701 H 164.749 -3.85072 -3.91166 0
M  V30 1702 H 165.01 -2.11391 -3.88287 0
M  V30 1703 N 164.069 0.697108 -1.41344 0
M  V30 1704 C 165.315 1.45796 -1.41828 0
M  V30 1705 C 165.67 1.92382 -0.0261743 0
M  V30 1706 O 164.963 1.66522 0.947688 0
M  V30 1707 C 165.157 2.68553 -2.35826 0
M  V30 1708 C 164.986 2.33975 -3.84039 0
M  V30 1709 C 163.756 2.24414 -4.52732 0
M  V30 1710 C 165.954 1.97048 -4.75054 0
M  V30 1711 N 163.936 1.82705 -5.86082 0
M  V30 1712 C 165.307 1.66086 -5.9734 0
M  V30 1713 C 167.362 1.83845 -4.62715 0
M  V30 1714 C 166.065 1.23246 -7.08663 0
M  V30 1715 C 168.091 1.4241 -5.73998 0
M  V30 1716 C 167.453 1.12357 -6.95381 0
M  V30 1717 H 163.552 0.530859 -0.574206 0
M  V30 1718 H 166.136 0.806674 -1.77203 0
M  V30 1719 H 164.307 3.31404 -2.02549 0
M  V30 1720 H 166.039 3.35015 -2.2704 0
M  V30 1721 H 162.794 2.4276 -4.0665 0
M  V30 1722 H 163.218 1.64337 -6.56751 0
M  V30 1723 H 167.86 2.05734 -3.69369 0
M  V30 1724 H 165.578 1.00102 -8.01876 0
M  V30 1725 H 169.164 1.32746 -5.66454 0
M  V30 1726 H 168.044 0.807795 -7.80028 0
M  V30 1727 N 165.547 1.27147 0.931209 0
M  V30 1728 C 166.795 1.13055 1.6752 0
M  V30 1729 C 167.116 -0.324791 1.92276 0
M  V30 1730 O 166.386 -1.22775 1.52654 0
M  V30 1731 H 164.966 0.415391 0.620854 0
M  V30 1732 H 167.628 1.59623 1.11833 0
M  V30 1733 H 166.724 1.65694 2.64485 0
M  V30 1734 N 167.025 -1.13721 1.09112 0
M  V30 1735 C 167.957 -2.1871 0.685467 0
M  V30 1736 C 168.97 -1.60527 -0.271068 0
M  V30 1737 O 170.159 -1.78407 -0.0576148 0
M  V30 1738 C 167.259 -3.38898 -0.0111255 0
M  V30 1739 C 166.432 -4.26597 0.966131 0
M  V30 1740 C 165.491 -5.25324 0.303539 0
M  V30 1741 O 164.517 -5.61213 0.950177 0
M  V30 1742 N 165.719 -5.72779 -0.943651 0
M  V30 1743 H 168.484 -2.54126 1.58871 0
M  V30 1744 H 166.045 -1.29012 0.978143 0
M  V30 1745 H 168.037 -4.02014 -0.465517 0
M  V30 1746 H 166.607 -3.01747 -0.816565 0
M  V30 1747 H 165.827 -3.60306 1.59917 0
M  V30 1748 H 167.115 -4.82048 1.6281 0
M  V30 1749 H 166.513 -5.45762 -1.48862 0
M  V30 1750 H 165.07 -6.37847 -1.34142 0
M  V30 1751 N 168.503 -0.877838 -1.30888 0
M  V30 1752 C 169.751 -0.491723 -1.96027 0
M  V30 1753 C 170.072 0.960827 -1.69685 0
M  V30 1754 O 169.342 1.67462 -1.01654 0
M  V30 1755 H 167.922 -0.17885 -0.725273 0
M  V30 1756 H 170.584 -1.11935 -1.59551 0
M  V30 1757 H 169.68 -0.656016 -3.05128 0
M  V30 1758 N 169.982 1.44106 -0.638065 0
M  V30 1759 C 171.21 2.06336 -0.152615 0
M  V30 1760 C 171.625 1.47731 1.17563 0
M  V30 1761 O 170.982 0.602806 1.72257 0
M  V30 1762 C 171.033 3.61479 -0.0391491 0
M  V30 1763 O 170.754 4.17903 -1.31487 0
M  V30 1764 C 172.255 4.40757 0.474176 0
M  V30 1765 H 169.475 0.665862 -0.0828776 0
M  V30 1766 H 172.019 1.84862 -0.87443 0
M  V30 1767 H 170.174 3.82191 0.633142 0
M  V30 1768 H 170.588 5.11416 -1.16421 0
M  V30 1769 H 172.062 5.49707 0.502562 0
M  V30 1770 H 172.539 4.12697 1.50258 0
M  V30 1771 H 173.145 4.24979 -0.165102 0
M  V30 1772 N 171.46 0.379036 1.52974 0
M  V30 1773 C 172.688 -0.20679 2.05864 0
M  V30 1774 C 173.103 -1.41356 1.25155 0
M  V30 1775 O 172.46 -1.8009 0.295588 0
M  V30 1776 C 172.511 -0.587045 3.56702 0
M  V30 1777 O 172.232 0.571776 4.34353 0
M  V30 1778 C 173.733 -1.22983 4.25899 0
M  V30 1779 H 170.953 -0.0336123 0.670158 0
M  V30 1780 H 173.497 0.541298 1.97206 0
M  V30 1781 H 171.652 -1.28504 3.65466 0
M  V30 1782 H 172.066 0.261544 5.23847 0
M  V30 1783 H 173.54 -1.44635 5.32715 0
M  V30 1784 H 174.017 -2.19416 3.80465 0
M  V30 1785 H 174.623 -0.572892 4.21424 0
M  V30 1786 N 172.938 -1.57226 0.108567 0
M  V30 1787 C 174.184 -1.95121 -0.552761 0
M  V30 1788 C 174.517 -0.991345 -1.66991 0
M  V30 1789 O 173.792 -0.0267211 -1.94482 0
M  V30 1790 C 174.075 -3.43039 -1.09528 0
M  V30 1791 C 173.928 -4.49797 0.0177332 0
M  V30 1792 C 175.247 -3.92567 -1.98945 0
M  V30 1793 H 172.366 -0.709496 -0.199461 0
M  V30 1794 H 175.008 -1.89126 0.182011 0
M  V30 1795 H 173.158 -3.48279 -1.72146 0
M  V30 1796 H 174.83 -4.56661 0.652584 0
M  V30 1797 H 173.073 -4.284 0.682309 0
M  V30 1798 H 173.744 -5.50528 -0.402919 0
M  V30 1799 H 176.22 -3.89565 -1.46214 0
M  V30 1800 H 175.096 -4.96605 -2.33827 0
M  V30 1801 H 175.357 -3.32648 -2.91201 0
M  V30 1802 N 174.416 0.165178 -1.56732 0
M  V30 1803 C 175.644 0.896218 -1.86482 0
M  V30 1804 C 176.059 1.75555 -0.694675 0
M  V30 1805 O 175.416 1.79379 0.33607 0
M  V30 1806 C 175.467 1.76792 -3.1532 0
M  V30 1807 O 175.188 0.943239 -4.27825 0
M  V30 1808 C 176.689 2.6081 -3.58459 0
M  V30 1809 H 173.909 0.260064 -0.618553 0
M  V30 1810 H 176.453 0.163428 -2.03846 0
M  V30 1811 H 174.608 2.45398 -2.99764 0
M  V30 1812 H 175.022 1.53998 -5.01383 0
M  V30 1813 H 176.496 3.17579 -4.51495 0
M  V30 1814 H 176.973 3.35977 -2.82872 0
M  V30 1815 H 177.579 1.97526 -3.76648 0
M  V30 1816 N 175.894 1.51508 0.433938 0
M  V30 1817 C 177.14 1.64588 1.18484 0
M  V30 1818 C 177.473 0.362666 1.90784 0
M  V30 1819 O 176.748 -0.637892 1.83742 0
M  V30 1820 C 177.031 2.85149 2.19913 0
M  V30 1821 C 176.884 4.23456 1.51674 0
M  V30 1822 C 178.203 3.01227 3.20858 0
M  V30 1823 H 175.322 0.598994 0.429389 0
M  V30 1824 H 177.964 1.84002 0.473647 0
M  V30 1825 H 176.114 2.68729 2.80566 0
M  V30 1826 H 177.786 4.51552 0.943322 0
M  V30 1827 H 176.029 4.25998 0.819035 0
M  V30 1828 H 176.7 5.03812 2.2556 0
M  V30 1829 H 179.176 3.16382 2.70263 0
M  V30 1830 H 178.052 3.87141 3.89118 0
M  V30 1831 H 178.313 2.13447 3.8716 0
M  V30 1832 N 177.372 -0.689602 1.41712 0
M  V30 1833 C 178.597 -1.48329 1.44959 0
M  V30 1834 C 179.022 -1.8801 0.0581283 0
M  V30 1835 O 178.38 -1.55026 -0.940035 0
M  V30 1836 C 178.428 -2.71835 2.36935 0
M  V30 1837 O 177.532 -3.69549 1.8305 0
M  V30 1838 H 176.873 -0.446199 0.491734 0
M  V30 1839 H 179.403 -0.847127 1.86239 0
M  V30 1840 H 179.413 -3.20076 2.53013 0
M  V30 1841 H 178.088 -2.42291 3.38035 0
M  V30 1842 H 176.665 -3.2851 1.76452 0
M  V30 1843 N 178.85 -1.27639 -0.924453 0
M  V30 1844 C 180.075 -1.17101 -1.71179 0
M  V30 1845 C 180.5 0.268134 -1.86179 0
M  V30 1846 O 179.858 1.19415 -1.36418 0
M  V30 1847 C 179.906 -1.86313 -3.08739 0
M  V30 1848 O 179.01 -1.16331 -3.95652 0
M  V30 1849 H 178.351 -0.407091 -0.524569 0
M  V30 1850 H 180.881 -1.68767 -1.15666 0
M  V30 1851 H 180.891 -1.938 -3.59034 0
M  V30 1852 H 179.566 -2.91001 -2.97138 0
M  V30 1853 H 178.143 -1.16935 -3.54091 0
M  V30 1854 N 180.328 1.1314 -1.09713 0
M  V30 1855 C 181.291 2.16831 -0.742751 0
M  V30 1856 C 182.291 1.59159 0.229129 0
M  V30 1857 O 183.481 1.74199 0.00693237 0
M  V30 1858 C 180.613 3.40756 -0.0989168 0
M  V30 1859 H 181.806 2.49695 -1.66109 0
M  V30 1860 H 179.359 1.2802 -0.896699 0
M  V30 1861 H 180.094 3.13485 0.830514 0
M  V30 1862 H 179.879 3.83888 -0.798265 0
M  V30 1863 H 181.369 4.17386 0.133524 0
M  V30 1864 N 181.806 0.884767 1.30421 0
M  V30 1865 C 183.031 0.517288 2.00845 0
M  V30 1866 C 183.456 -0.886779 1.65885 0
M  V30 1867 O 182.814 -1.58768 0.875354 0
M  V30 1868 C 182.862 0.698994 3.5376 0
M  V30 1869 O 181.966 -0.255208 4.1161 0
M  V30 1870 H 181.307 0.203872 0.631927 0
M  V30 1871 H 183.837 1.19225 1.66272 0
M  V30 1872 H 183.847 0.597912 4.03595 0
M  V30 1873 H 182.522 1.72271 3.78544 0
M  V30 1874 H 181.099 -0.10784 3.72744 0
M  V30 1875 N 183.284 -1.43765 0.645699 0
M  V30 1876 C 184.512 -2.06253 0.163556 0
M  V30 1877 C 184.927 -1.48352 -1.16778 0
M  V30 1878 O 184.284 -0.611932 -1.71935 0
M  V30 1879 C 184.335 -3.61453 0.0583186 0
M  V30 1880 O 184.056 -4.172 1.33702 0
M  V30 1881 C 185.557 -4.41002 -0.450795 0
M  V30 1882 H 182.777 -0.665413 0.0864077 0
M  V30 1883 H 185.321 -1.84396 0.884222 0
M  V30 1884 H 183.476 -3.82522 -0.612865 0
M  V30 1885 H 183.89 -5.10791 1.19131 0
M  V30 1886 H 185.364 -5.49966 -0.473403 0
M  V30 1887 H 185.841 -4.13488 -1.48068 0
M  V30 1888 H 186.447 -4.24886 0.187637 0
M  V30 1889 N 184.763 -0.387143 -1.52771 0
M  V30 1890 C 185.71 0.449048 -2.26389 0
M  V30 1891 C 186.68 1.05961 -1.27912 0
M  V30 1892 O 187.865 1.08804 -1.56737 0
M  V30 1893 C 185.005 1.57155 -3.0724 0
M  V30 1894 C 184.118 0.984066 -4.20643 0
M  V30 1895 C 183.253 2.07745 -4.88892 0
M  V30 1896 C 182.292 1.46574 -5.94292 0
M  V30 1897 N 181.429 2.49834 -6.56146 0
M  V30 1898 H 186.269 -0.185205 -2.97424 0
M  V30 1899 H 183.806 -0.103164 -1.46738 0
M  V30 1900 H 185.764 2.23309 -3.52405 0
M  V30 1901 H 184.394 2.17615 -2.38419 0
M  V30 1902 H 183.446 0.212193 -3.79808 0
M  V30 1903 H 184.758 0.497029 -4.96318 0
M  V30 1904 H 183.912 2.81673 -5.3735 0
M  V30 1905 H 182.651 2.59807 -4.12737 0
M  V30 1906 H 181.656 0.711696 -5.45174 0
M  V30 1907 H 182.881 0.953088 -6.72379 0
M  V30 1908 H 180.827 3.0107 -5.82832 0
M  V30 1909 H 180.744 2.05879 -7.27427 0
M  V30 1910 H 182.012 3.23399 -7.09249 0
M  V30 1911 N 186.241 1.57166 -0.116904 0
M  V30 1912 C 187.489 1.94737 0.540533 0
M  V30 1913 C 187.81 1.00096 1.67349 0
M  V30 1914 O 187.08 0.0568854 1.95817 0
M  V30 1915 H 185.66 0.718981 0.202669 0
M  V30 1916 H 188.322 1.94017 -0.185353 0
M  V30 1917 H 187.418 2.97719 0.936483 0
M  V30 1918 N 187.719 -0.156864 1.56817 0
M  V30 1919 C 189.13 -0.717916 1.72345 0
M  V30 1920 C 189.481 -1.82124 0.729747 0
M  V30 1921 O 188.606 -2.16141 -0.105781 0
M  V30 1922 C 189.201 -1.30904 3.12489 0
M  V30 1923 C 187.76 -1.81676 3.29653 0
M  V30 1924 C 186.907 -0.701349 2.68284 0
M  V30 1925 H 189.858 0.0686989 1.58551 0
M  V30 1926 H 189.879 -2.17882 3.11942 0
M  V30 1927 H 189.391 -0.505796 3.8479 0
M  V30 1928 H 187.492 -2.64598 2.62333 0
M  V30 1929 H 187.605 -1.95226 4.3752 0
M  V30 1930 H 185.969 -1.12548 2.28484 0
M  V30 1931 H 186.752 0.0902846 3.43181 0
M  V30 1932 N 189.197 -1.51736 -0.425897 0
M  V30 1933 C 190.422 -1.69082 -1.20108 0
M  V30 1934 C 190.847 -0.392398 -1.83962 0
M  V30 1935 O 190.205 0.64858 -1.69302 0
M  V30 1936 C 190.253 -2.81604 -2.25237 0
M  V30 1937 O 189.357 -2.46004 -3.30992 0
M  V30 1938 H 188.698 -0.563408 -0.35138 0
M  V30 1939 H 191.228 -1.98358 -0.501512 0
M  V30 1940 H 191.238 -3.06025 -2.69838 0
M  V30 1941 H 189.913 -3.75817 -1.78142 0
M  V30 1942 H 188.49 -2.32195 -2.91787 0
M  V30 1943 N 190.675 0.682077 -1.42076 0
M  V30 1944 C 191.921 1.44428 -1.42367 0
M  V30 1945 C 192.254 1.94164 -0.0373056 0
M  V30 1946 O 191.529 1.70429 0.937239 0
M  V30 1947 C 191.812 2.64654 -2.44194 0
M  V30 1948 C 191.665 2.20596 -3.91991 0
M  V30 1949 C 192.984 3.66865 -2.431 0
M  V30 1950 H 190.103 0.523834 -0.518428 0
M  V30 1951 H 192.745 0.77576 -1.73442 0
M  V30 1952 H 190.895 3.2169 -2.17826 0
M  V30 1953 H 192.567 1.68783 -4.29313 0
M  V30 1954 H 190.81 1.52242 -4.06208 0
M  V30 1955 H 191.481 3.06921 -4.58807 0
M  V30 1956 H 193.957 3.19531 -2.66532 0
M  V30 1957 H 192.833 4.48577 -3.16339 0
M  V30 1958 H 193.094 4.17493 -1.45437 0
M  V30 1959 N 192.153 1.28127 0.917671 0
M  V30 1960 C 193.4 1.15052 1.66641 0
M  V30 1961 C 193.728 -0.301677 1.92146 0
M  V30 1962 O 192.983 -1.23622 1.51711 0
M  V30 1963 C 193.282 1.89018 3.03327 0
M  V30 1964 C 192.948 3.38832 2.97496 0
M  V30 1965 C 191.61 3.79693 2.95613 0
M  V30 1966 C 193.962 4.34378 2.88036 0
M  V30 1967 C 191.29 5.14447 2.82066 0
M  V30 1968 C 193.642 5.69201 2.7603 0
M  V30 1969 C 192.306 6.09343 2.72502 0
M  V30 1970 H 191.576 0.421006 0.609783 0
M  V30 1971 H 194.223 1.58855 1.06945 0
M  V30 1972 H 192.528 1.37752 3.66785 0
M  V30 1973 H 194.225 1.76321 3.60156 0
M  V30 1974 H 190.815 3.06342 2.99754 0
M  V30 1975 H 194.999 4.03775 2.88581 0
M  V30 1976 H 190.255 5.44681 2.77728 0
M  V30 1977 H 194.429 6.42901 2.67678 0
M  V30 1978 H 192.056 7.13712 2.61762 0
M  V30 1979 N 193.631 -1.12557 1.10312 0
M  V30 1980 C 195.042 -1.65574 0.862678 0
M  V30 1981 C 195.393 -1.86566 -0.607256 0
M  V30 1982 O 194.518 -1.59121 -1.46662 0
M  V30 1983 C 195.113 -3.00776 1.55947 0
M  V30 1984 C 193.672 -3.50748 1.36576 0
M  V30 1985 C 192.819 -2.25797 1.60968 0
M  V30 1986 H 195.77 -0.963552 1.26101 0
M  V30 1987 H 195.791 -3.67185 0.997753 0
M  V30 1988 H 195.303 -2.85465 2.62928 0
M  V30 1989 H 193.404 -3.71245 0.317531 0
M  V30 1990 H 193.517 -4.30289 2.10686 0
M  V30 1991 H 191.881 -2.32841 1.03234 0
M  V30 1992 H 192.664 -2.13043 2.69198 0
M  V30 1993 N 195.109 -0.891671 -1.2995 0
M  V30 1994 C 196.039 -0.379797 -2.30391 0
M  V30 1995 C 197.02 0.540919 -1.6127 0
M  V30 1996 O 198.205 0.453352 -1.88834 0
M  V30 1997 C 195.335 0.400654 -3.44981 0
M  V30 1998 C 194.289 -0.428905 -4.25846 0
M  V30 1999 C 193.615 0.478557 -5.32554 0
M  V30 2000 C 194.915 -1.67458 -4.94727 0
M  V30 2001 H 196.609 -1.21914 -2.73454 0
M  V30 2002 H 194.155 -0.587675 -1.31462 0
M  V30 2003 H 196.108 0.769434 -4.14316 0
M  V30 2004 H 194.832 1.27371 -3.0074 0
M  V30 2005 H 193.491 -0.779911 -3.58208 0
M  V30 2006 H 193.139 1.34951 -4.84559 0
M  V30 2007 H 192.839 -0.0727433 -5.87555 0
M  V30 2008 H 194.363 0.843705 -6.04743 0
M  V30 2009 H 195.777 -1.376 -5.56542 0
M  V30 2010 H 194.174 -2.16659 -5.59624 0
M  V30 2011 H 195.244 -2.41518 -4.20473 0
M  V30 2012 N 196.587 1.43421 -0.653314 0
M  V30 2013 C 197.55 2.29182 0.0287951 0
M  V30 2014 C 198.55 1.42213 0.750465 0
M  V30 2015 O 199.74 1.63843 0.591701 0
M  V30 2016 C 196.872 3.24278 1.05151 0
M  V30 2017 H 198.065 2.90985 -0.725786 0
M  V30 2018 H 195.618 1.50702 -0.414545 0
M  V30 2019 H 196.353 2.6737 1.83532 0
M  V30 2020 H 196.138 3.88396 0.537687 0
M  V30 2021 H 197.628 3.88647 1.52786 0
M  V30 2022 N 198.065 0.39524 1.52563 0
M  V30 2023 C 199.476 -0.0774719 1.86539 0
M  V30 2024 C 199.827 -1.45641 1.31466 0
M  V30 2025 O 198.952 -2.06459 0.648367 0
M  V30 2026 C 199.547 -0.147356 3.38479 0
M  V30 2027 C 198.106 -0.564373 3.72145 0
M  V30 2028 C 197.253 0.269919 2.75983 0
M  V30 2029 H 200.204 0.612876 1.46388 0
M  V30 2030 H 200.225 -0.965343 3.68051 0
M  V30 2031 H 199.737 0.856387 3.78534 0
M  V30 2032 H 197.838 -1.57527 3.37663 0
M  V30 2033 H 197.951 -0.318402 4.78041 0
M  V30 2034 H 196.315 -0.265696 2.5331 0
M  V30 2035 H 197.098 1.27175 3.18875 0
M  V30 2036 N 199.544 -1.57102 0.125237 0
M  V30 2037 C 200.792 -1.95021 -0.530198 0
M  V30 2038 C 201.113 -1.00982 -1.66816 0
M  V30 2039 O 200.383 -0.0672693 -1.95784 0
M  V30 2040 H 198.963 -0.720046 -0.198853 0
M  V30 2041 H 201.625 -1.93916 0.19564 0
M  V30 2042 H 200.721 -2.98211 -0.920681 0
M  V30 2043 N 201.022 0.148545 -1.56898 0
M  V30 2044 C 202.247 0.880385 -1.87787 0
M  V30 2045 C 202.672 1.74018 -0.714093 0
M  V30 2046 O 202.03 1.78153 0.336343 0
M  V30 2047 C 202.078 1.71422 -3.17249 0
M  V30 2048 O 201.182 2.8183 -3.01074 0
M  V30 2049 H 200.523 0.245301 -0.617028 0
M  V30 2050 H 203.053 0.139826 -2.04122 0
M  V30 2051 H 203.063 2.10954 -3.49231 0
M  V30 2052 H 201.738 1.08284 -4.01556 0
M  V30 2053 H 200.315 2.45715 -2.80497 0
M  V30 2054 N 202.5 1.5196 0.417844 0
M  V30 2055 C 203.725 1.69717 1.1921 0
M  V30 2056 C 204.15 0.402148 1.83751 0
M  V30 2057 O 203.508 -0.639593 1.69643 0
M  V30 2058 C 203.556 2.82794 2.2374 0
M  V30 2059 O 202.66 2.47756 3.29683 0
M  V30 2060 H 202.001 0.565263 0.348387 0
M  V30 2061 H 204.531 1.98621 0.490985 0
M  V30 2062 H 204.541 3.07452 2.68212 0
M  V30 2063 H 203.216 3.76756 1.76146 0
M  V30 2064 H 201.793 2.33739 2.90552 0
M  V30 2065 N 203.978 -0.674533 1.42435 0
M  V30 2066 C 204.925 -1.78807 1.45934 0
M  V30 2067 C 205.895 -1.63157 0.311271 0
M  V30 2068 O 207.08 -1.83707 0.515383 0
M  V30 2069 C 204.22 -3.16839 1.36773 0
M  V30 2070 C 203.333 -3.43774 2.61617 0
M  V30 2071 C 202.468 -4.71536 2.44597 0
M  V30 2072 C 201.507 -4.91505 3.64814 0
M  V30 2073 N 200.644 -6.10508 3.46734 0
M  V30 2074 H 205.484 -1.75151 2.41093 0
M  V30 2075 H 203.021 -0.85504 1.19697 0
M  V30 2076 H 204.979 -3.96606 1.29459 0
M  V30 2077 H 203.609 -3.19619 0.452089 0
M  V30 2078 H 202.661 -2.58259 2.79297 0
M  V30 2079 H 203.973 -3.54423 3.50978 0
M  V30 2080 H 203.127 -5.59393 2.3487 0
M  V30 2081 H 201.866 -4.6317 1.52726 0
M  V30 2082 H 200.871 -4.0209 3.74972 0
M  V30 2083 H 202.096 -5.01716 4.57665 0
M  V30 2084 H 200.042 -6.03315 2.5758 0
M  V30 2085 H 199.959 -6.2202 4.29682 0
M  V30 2086 H 201.227 -7.01044 3.40819 0
M  V30 2087 N 205.456 -1.28612 -0.910864 0
M  V30 2088 C 206.681 -1.1891 -1.69927 0
M  V30 2089 C 207.106 0.248372 -1.86453 0
M  V30 2090 O 206.464 1.17961 -1.37676 0
M  V30 2091 C 206.512 -1.89578 -3.06745 0
M  V30 2092 O 205.616 -1.20521 -3.94396 0
M  V30 2093 H 204.957 -0.412632 -0.520222 0
M  V30 2094 H 207.487 -1.69985 -1.1387 0
M  V30 2095 H 207.497 -1.97597 -3.56958 0
M  V30 2096 H 206.172 -2.94136 -2.94035 0
M  V30 2097 H 204.749 -1.20684 -3.52831 0
M  V30 2098 N 206.934 1.1197 -1.10907 0
M  V30 2099 C 208.162 1.87402 -0.876824 0
M  V30 2100 C 208.577 1.79894 0.573025 0
M  V30 2101 O 207.934 1.17629 1.39534 0
M  V30 2102 C 207.985 3.36428 -1.32282 0
M  V30 2103 O 207.706 3.43765 -2.71582 0
M  V30 2104 C 209.207 4.28783 -1.12518 0
M  V30 2105 H 206.427 0.592793 -0.314384 0
M  V30 2106 H 208.971 1.41649 -1.47499 0
M  V30 2107 H 207.126 3.79706 -0.768229 0
M  V30 2108 H 207.54 4.3652 -2.90776 0
M  V30 2109 H 209.014 5.31613 -1.48633 0
M  V30 2110 H 209.491 4.39153 -0.0642394 0
M  V30 2111 H 210.097 3.91291 -1.66648 0
M  V30 2112 N 208.412 0.89855 1.29475 0
M  V30 2113 C 209.637 0.538561 2.00285 0
M  V30 2114 C 210.062 -0.869135 1.66816 0
M  V30 2115 O 209.42 -1.57831 0.892145 0
M  V30 2116 C 209.468 0.736475 3.52999 0
M  V30 2117 O 208.572 -0.211537 4.11857 0
M  V30 2118 H 207.913 0.210563 0.62973 0
M  V30 2119 H 210.443 1.20982 1.64998 0
M  V30 2120 H 210.453 0.640685 4.02938 0
M  V30 2121 H 209.128 1.76276 3.76696 0
M  V30 2122 H 207.705 -0.0682991 3.72837 0
M  V30 2123 N 209.89 -1.43072 0.660911 0
M  V30 2124 C 211.138 -2.01323 0.177094 0
M  V30 2125 C 211.459 -1.5245 -1.2159 0
M  V30 2126 O 210.729 -0.740322 -1.81373 0
M  V30 2127 H 209.309 -0.744382 0.0624804 0
M  V30 2128 H 211.971 -1.75179 0.854305 0
M  V30 2129 H 211.067 -3.11649 0.167641 0
M  V30 2130 N 211.368 -0.403325 -1.52352 0
M  V30 2131 C 212.596 0.174012 -2.06167 0
M  V30 2132 C 213.011 1.39347 -1.27388 0
M  V30 2133 O 212.368 1.79597 -0.324201 0
M  V30 2134 C 212.419 0.530223 -3.5759 0
M  V30 2135 O 212.14 -0.640806 -4.33388 0
M  V30 2136 C 213.641 1.16192 -4.27802 0
M  V30 2137 H 210.861 0.0229464 -0.670608 0
M  V30 2138 H 213.405 -0.572604 -1.9632 0
M  V30 2139 H 211.56 1.22673 -3.67464 0
M  V30 2140 H 211.974 -0.344851 -5.23365 0
M  V30 2141 H 213.448 1.36141 -5.34948 0
M  V30 2142 H 213.925 2.13335 -3.83907 0
M  V30 2143 H 214.531 0.505775 -4.22282 0
M  V30 2144 N 212.846 1.57033 -0.133567 0
M  V30 2145 C 213.809 2.14897 0.796995 0
M  V30 2146 C 214.809 1.0874 1.18458 0
M  V30 2147 O 215.999 1.34446 1.1077 0
M  V30 2148 C 213.131 2.70112 2.07973 0
M  V30 2149 H 214.324 2.98457 0.293873 0
M  V30 2150 H 211.877 1.55871 0.115787 0
M  V30 2151 H 212.612 1.9018 2.62682 0
M  V30 2152 H 212.397 3.47764 1.81115 0
M  V30 2153 H 213.887 3.14738 2.74462 0
M  V30 2154 N 214.325 -0.140222 1.56975 0
M  V30 2155 C 215.288 -1.15689 1.97861 0
M  V30 2156 C 216.288 -1.3549 0.865974 0
M  V30 2157 O 217.478 -1.32367 1.13246 0
M  V30 2158 C 214.61 -2.51582 2.30042 0
M  V30 2159 H 215.803 -0.805971 2.88867 0
M  V30 2160 H 213.356 -0.383801 1.51515 0
M  V30 2161 H 214.091 -2.91632 1.41849 0
M  V30 2162 H 213.876 -2.38569 3.11171 0
M  V30 2163 H 215.366 -3.24792 2.62488 0
M  V30 2164 N 215.803 -1.52179 -0.40978 0
M  V30 2165 C 216.733 -1.78435 -1.5061 0
M  V30 2166 C 217.714 -0.635295 -1.57791 0
M  V30 2167 O 218.899 -0.880823 -1.73076 0
M  V30 2168 C 216.029 -1.93444 -2.88439 0
M  V30 2169 C 214.983 -3.09038 -2.96108 0
M  V30 2170 C 214.309 -3.09268 -4.36185 0
M  V30 2171 C 215.609 -4.48508 -2.67652 0
M  V30 2172 H 217.303 -2.70237 -1.28889 0
M  V30 2173 H 214.849 -1.30036 -0.618605 0
M  V30 2174 H 216.802 -2.10394 -3.65119 0
M  V30 2175 H 215.526 -0.983129 -3.11452 0
M  V30 2176 H 214.185 -2.91837 -2.21872 0
M  V30 2177 H 213.833 -2.11861 -4.56206 0
M  V30 2178 H 213.533 -3.86907 -4.42241 0
M  V30 2179 H 215.057 -3.28348 -5.14801 0
M  V30 2180 H 216.471 -4.65918 -3.34056 0
M  V30 2181 H 214.868 -5.28059 -2.85085 0
M  V30 2182 H 215.938 -4.56649 -1.63095 0
M  V30 2183 N 217.281 0.66697 -1.42791 0
M  V30 2184 C 218.529 1.42417 -1.43394 0
M  V30 2185 C 218.85 1.94925 -0.0542373 0
M  V30 2186 O 218.12 1.73564 0.908415 0
M  V30 2187 H 216.7 0.528515 -0.527902 0
M  V30 2188 H 219.362 0.787562 -1.78279 0
M  V30 2189 H 218.458 2.27333 -2.13837 0
M  V30 2190 N 218.759 1.29093 0.90403 0
M  V30 2191 C 219.999 1.18076 1.66845 0
M  V30 2192 C 220.363 -0.26436 1.90171 0
M  V30 2193 O 221.564 -0.497423 2.64157 0
M  V30 2194 C 219.835 1.96722 2.98388 0
M  V30 2195 S 221.394 2.0219 3.89441 0
M  V30 2196 H 218.212 0.421104 0.572881 0
M  V30 2197 H 220.814 1.63322 1.07453 0
M  V30 2198 H 219.518 3.00866 2.7912 0
M  V30 2199 H 219.049 1.52064 3.62823 0
M  V30 2200 H 221.064 1.13545 4.83034 0
M  V30 2201 N 220.237 -1.11381 1.11499 0
M  V30 2202 C 221.167 -2.19509 0.796125 0
M  V30 2203 C 222.148 -1.68458 -0.235796 0
M  V30 2204 O 223.333 -1.93947 -0.0991344 0
M  V30 2205 C 220.463 -3.46475 0.239205 0
M  V30 2206 C 219.417 -4.10744 1.20307 0
M  V30 2207 C 218.743 -5.32293 0.50683 0
M  V30 2208 C 220.043 -4.55597 2.55399 0
M  V30 2209 H 221.737 -2.46439 1.70024 0
M  V30 2210 H 219.283 -1.18446 0.818935 0
M  V30 2211 H 221.236 -4.214 0.00392006 0
M  V30 2212 H 219.96 -3.19006 -0.700206 0
M  V30 2213 H 218.619 -3.37813 1.42399 0
M  V30 2214 H 218.267 -5.01095 -0.437408 0
M  V30 2215 H 217.967 -5.76243 1.1497 0
M  V30 2216 H 219.491 -6.09956 0.280351 0
M  V30 2217 H 220.905 -5.21841 2.37391 0
M  V30 2218 H 219.302 -5.10363 3.15673 0
M  V30 2219 H 220.372 -3.69013 3.14575 0
M  V30 2220 N 221.715 -0.905404 -1.28997 0
M  V30 2221 C 222.961 -0.535039 -1.95615 0
M  V30 2222 C 223.294 0.917404 -1.71165 0
M  V30 2223 O 222.569 1.65123 -1.02785 0
M  V30 2224 C 222.852 -0.834918 -3.50287 0
M  V30 2225 C 222.705 -2.33948 -3.84172 0
M  V30 2226 C 224.024 -0.325318 -4.38896 0
M  V30 2227 H 221.143 -0.195861 -0.710498 0
M  V30 2228 H 223.785 -1.13313 -1.52513 0
M  V30 2229 H 221.935 -0.325904 -3.87131 0
M  V30 2230 H 223.607 -2.91847 -3.57243 0
M  V30 2231 H 221.85 -2.79789 -3.31513 0
M  V30 2232 H 222.521 -2.49987 -4.92149 0
M  V30 2233 H 224.997 -0.761256 -4.09077 0
M  V30 2234 H 223.873 -0.564295 -5.45992 0
M  V30 2235 H 224.134 0.774144 -4.35269 0
M  V30 2236 N 223.193 1.4272 -0.668489 0
M  V30 2237 C 224.14 2.30796 0.0137489 0
M  V30 2238 C 225.11 1.4561 0.799177 0
M  V30 2239 O 226.295 1.74453 0.772702 0
M  V30 2240 C 223.435 3.31377 0.963507 0
M  V30 2241 C 222.548 4.31655 0.172569 0
M  V30 2242 C 221.683 5.19312 1.1175 0
M  V30 2243 C 220.722 6.11274 0.317886 0
M  V30 2244 N 219.859 6.91504 1.2152 0
M  V30 2245 H 224.699 2.88585 -0.743161 0
M  V30 2246 H 222.236 1.42154 -0.378226 0
M  V30 2247 H 224.194 3.88214 1.52792 0
M  V30 2248 H 222.824 2.75202 1.68712 0
M  V30 2249 H 221.876 3.76988 -0.508374 0
M  V30 2250 H 223.188 4.96779 -0.448527 0
M  V30 2251 H 222.342 5.80851 1.75206 0
M  V30 2252 H 221.081 4.5435 1.77249 0
M  V30 2253 H 220.086 5.48809 -0.329918 0
M  V30 2254 H 221.311 6.78283 -0.332917 0
M  V30 2255 H 219.257 6.29176 1.85671 0
M  V30 2256 H 219.174 7.53209 0.649036 0
M  V30 2257 H 220.442 7.57535 1.83742 0
M  V30 2258 N 224.671 0.411399 1.52136 0
M  V30 2259 C 225.948 -0.222308 1.94333 0
M  V30 2260 C 226.328 -1.6242 1.34844 0
M  V30 2261 O 225.676 -2.22384 0.525145 0
M  V30 2262 C 225.886 -0.226345 3.48265 0
M  V30 2263 C 227.234 -0.444592 4.22266 0
M  V30 2264 O 228.258 -0.305602 3.54887 0
M  V30 2265 O 227.117 -0.718749 5.41753 0
M  V30 2266 H 224.211 -0.143907 0.814383 0
M  V30 2267 H 226.757 0.467506 1.63133 0
M  V30 2268 H 225.529 0.75475 3.83952 0
M  V30 2269 H 225.152 -0.960163 3.85832 0
M  V30 2270 N 226.149 -1.5696 0.141893 0
M  V30 2271 C 227.379 -2.00031 -0.516828 0
M  V30 2272 C 227.787 -1.02091 -1.59293 0
M  V30 2273 O 227.13 -0.00909657 -1.83698 0
M  V30 2274 C 227.192 -3.39534 -1.1814 0
M  V30 2275 C 226.856 -4.56313 -0.250513 0
M  V30 2276 C 227.853 -5.17295 0.519839 0
M  V30 2277 C 225.538 -5.02061 -0.154907 0
M  V30 2278 C 227.532 -6.2243 1.3733 0
M  V30 2279 C 225.219 -6.07053 0.702161 0
M  V30 2280 C 226.217 -6.67106 1.46487 0
M  V30 2281 O 225.905 -7.70066 2.30767 0
M  V30 2282 H 225.637 -0.661451 -0.139493 0
M  V30 2283 H 228.191 -2.04086 0.231926 0
M  V30 2284 H 226.421 -3.32302 -1.97769 0
M  V30 2285 H 228.11 -3.66745 -1.73933 0
M  V30 2286 H 228.876 -4.82852 0.45598 0
M  V30 2287 H 224.755 -4.5505 -0.7383 0
M  V30 2288 H 228.299 -6.69233 1.96909 0
M  V30 2289 H 224.196 -6.40923 0.76733 0
M  V30 2290 H 224.964 -7.87264 2.23959 0
M  V30 2291 N 227.627 0.131896 -1.57047 0
M  V30 2292 C 228.874 0.841932 -1.84168 0
M  V30 2293 C 229.202 1.8048 -0.725066 0
M  V30 2294 O 228.457 1.93618 0.284692 0
M  V30 2295 C 228.756 1.63703 -3.17704 0
M  V30 2296 C 228.422 0.81961 -4.43388 0
M  V30 2297 C 227.084 0.594148 -4.77518 0
M  V30 2298 C 229.436 0.248977 -5.20605 0
M  V30 2299 C 226.764 -0.212409 -5.86315 0
M  V30 2300 C 229.116 -0.544701 -6.30251 0
M  V30 2301 C 227.78 -0.780599 -6.6292 0
M  V30 2302 H 227.05 0.308085 -0.673917 0
M  V30 2303 H 229.697 0.104867 -1.91213 0
M  V30 2304 H 228.002 2.44464 -3.06177 0
M  V30 2305 H 229.699 2.19015 -3.35907 0
M  V30 2306 H 226.289 1.00542 -4.16641 0
M  V30 2307 H 230.473 0.410408 -4.946 0
M  V30 2308 H 225.729 -0.404524 -6.1006 0
M  V30 2309 H 229.903 -0.993922 -6.89271 0
M  V30 2310 H 227.53 -1.40742 -7.47058 0
M  V30 2311 N 229.106 1.52395 0.401703 0
M  V30 2312 C 230.517 1.58899 0.980202 0
M  V30 2313 C 230.868 0.434032 1.91339 0
M  V30 2314 O 229.993 -0.444619 2.11783 0
M  V30 2315 C 230.588 2.87994 1.78451 0
M  V30 2316 C 229.147 2.96953 2.31292 0
M  V30 2317 C 228.294 2.53903 1.11483 0
M  V30 2318 H 231.245 1.57657 0.18168 0
M  V30 2319 H 231.266 2.73765 2.64259 0
M  V30 2320 H 230.778 3.72035 1.10506 0
M  V30 2321 H 228.879 2.17422 3.02586 0
M  V30 2322 H 228.992 4.01344 2.61649 0
M  V30 2323 H 227.356 2.07925 1.47104 0
M  V30 2324 H 228.139 3.40326 0.450928 0
M  V30 2325 N 230.584 -0.659388 1.43143 0
M  V30 2326 C 231.494 -1.80167 1.50256 0
M  V30 2327 C 232.51 -1.69571 0.390106 0
M  V30 2328 O 233.686 -1.90849 0.643319 0
M  V30 2329 C 230.751 -3.16409 1.41725 0
M  V30 2330 C 229.812 -3.38848 2.63591 0
M  V30 2331 C 229.045 -4.68591 2.55458 0
M  V30 2332 O 229.268 -5.47532 1.59891 0
M  V30 2333 O 228.202 -4.92614 3.45854 0
M  V30 2334 H 232.028 -1.77121 2.46702 0
M  V30 2335 H 229.613 -0.817092 1.25076 0
M  V30 2336 H 231.495 -3.9768 1.39387 0
M  V30 2337 H 230.17 -3.20059 0.484118 0
M  V30 2338 H 229.077 -2.57366 2.71502 0
M  V30 2339 H 230.41 -3.4004 3.55856 0
M  V30 2340 N 232.062 -1.29571 -0.897171 0
M  V30 2341 C 233.473 -1.15964 -1.46319 0
M  V30 2342 C 233.824 0.244267 -1.94674 0
M  V30 2343 O 232.949 1.13998 -1.83939 0
M  V30 2344 C 233.544 -2.09906 -2.65942 0
M  V30 2345 C 232.103 -2.00314 -3.18671 0
M  V30 2346 C 231.25 -2.00687 -1.91363 0
M  V30 2347 H 234.201 -1.42019 -0.708268 0
M  V30 2348 H 234.222 -1.67276 -3.41759 0
M  V30 2349 H 233.734 -3.12075 -2.30718 0
M  V30 2350 H 231.835 -1.01242 -3.58582 0
M  V30 2351 H 231.948 -2.88102 -3.82798 0
M  V30 2352 H 230.312 -1.45319 -2.09175 0
M  V30 2353 H 231.095 -3.04566 -1.58413 0
M  V30 2354 N 233.54 1.10788 -1.12088 0
M  V30 2355 C 234.786 1.82942 -0.875226 0
M  V30 2356 C 235.119 1.84779 0.597538 0
M  V30 2357 O 234.394 1.30578 1.44152 0
M  V30 2358 C 234.677 3.29789 -1.44606 0
M  V30 2359 C 234.53 3.36307 -2.98693 0
M  V30 2360 C 235.849 4.26064 -1.10261 0
M  V30 2361 H 232.968 0.664195 -0.319397 0
M  V30 2362 H 235.61 1.29867 -1.38689 0
M  V30 2363 H 233.76 3.75118 -1.01089 0
M  V30 2364 H 235.432 2.99487 -3.50864 0
M  V30 2365 H 233.675 2.76318 -3.34411 0
M  V30 2366 H 234.346 4.39694 -3.33726 0
M  V30 2367 H 236.822 3.88951 -1.4784 0
M  V30 2368 H 235.698 5.27183 -1.52869 0
M  V30 2369 H 235.959 4.42098 -0.0142953 0
M  V30 2370 N 235.018 0.912232 1.28515 0
M  V30 2371 C 236.246 0.560416 1.99166 0
M  V30 2372 C 236.661 -0.857927 1.68182 0
M  V30 2373 O 236.018 -1.56805 0.933733 0
M  V30 2374 C 236.069 0.758142 3.53461 0
M  V30 2375 O 235.79 2.12067 3.83352 0
M  V30 2376 C 237.291 0.412954 4.41372 0
M  V30 2377 H 234.511 0.213805 0.636026 0
M  V30 2378 H 237.055 1.22502 1.63749 0
M  V30 2379 H 235.21 0.140556 3.87145 0
M  V30 2380 H 235.624 2.15923 4.77993 0
M  V30 2381 H 237.098 0.60208 5.48707 0
M  V30 2382 H 237.575 -0.65073 4.34353 0
M  V30 2383 H 238.181 1.00802 4.13182 0
M  V30 2384 N 236.496 -1.42363 0.676048 0
M  V30 2385 C 237.742 -2.0182 0.199125 0
M  V30 2386 C 238.075 -1.53339 -1.19168 0
M  V30 2387 O 237.35 -0.736124 -1.80032 0
M  V30 2388 C 237.633 -3.59331 0.235144 0
M  V30 2389 C 237.486 -4.17989 1.66149 0
M  V30 2390 C 238.805 -4.3813 -0.41595 0
M  V30 2391 H 235.924 -0.733293 0.0738311 0
M  V30 2392 H 238.566 -1.69368 0.86107 0
M  V30 2393 H 236.716 -3.87109 -0.328487 0
M  V30 2394 H 238.388 -4.0116 2.27747 0
M  V30 2395 H 236.631 -3.7377 2.20178 0
M  V30 2396 H 237.302 -5.27126 1.63837 0
M  V30 2397 H 239.778 -4.16051 0.0638529 0
M  V30 2398 H 238.654 -5.47717 -0.360115 0
M  V30 2399 H 238.915 -4.16101 -1.49373 0
M  V30 2400 N 237.974 -0.419461 -1.51915 0
M  V30 2401 C 239.199 0.154572 -2.06823 0
M  V30 2402 C 239.624 1.3722 -1.28656 0
M  V30 2403 O 238.982 1.78461 -0.319583 0
M  V30 2404 C 239.03 0.473172 -3.57482 0
M  V30 2405 O 238.134 1.56255 -3.81652 0
M  V30 2406 H 237.475 0.0096924 -0.663929 0
M  V30 2407 H 240.005 -0.595642 -1.95738 0
M  V30 2408 H 240.015 0.728825 -4.01438 0
M  V30 2409 H 238.69 -0.416873 -4.13805 0
M  V30 2410 H 237.267 1.29825 -3.49571 0
M  V30 2411 N 239.452 1.56882 -0.150215 0
M  V30 2412 C 240.698 1.97299 0.494427 0
M  V30 2413 C 241.053 1.0338 1.62266 0
M  V30 2414 O 240.346 0.0694497 1.91474 0
M  V30 2415 C 240.54 3.41801 1.04437 0
M  V30 2416 C 240.369 4.49691 -0.0290451 0
M  V30 2417 C 239.139 5.03095 -0.47156 0
M  V30 2418 C 241.337 5.07693 -0.821703 0
M  V30 2419 N 239.319 5.94593 -1.52749 0
M  V30 2420 C 240.69 5.95431 -1.72805 0
M  V30 2421 C 242.745 4.90256 -0.869134 0
M  V30 2422 C 241.448 6.67599 -2.67777 0
M  V30 2423 C 243.474 5.63127 -1.8067 0
M  V30 2424 C 242.836 6.50576 -2.70057 0
M  V30 2425 H 238.935 0.76755 0.149639 0
M  V30 2426 H 241.519 1.93145 -0.24556 0
M  V30 2427 H 239.69 3.46541 1.75396 0
M  V30 2428 H 241.422 3.69272 1.6559 0
M  V30 2429 H 238.177 4.73543 -0.0732101 0
M  V30 2430 H 238.601 6.45047 -2.05531 0
M  V30 2431 H 243.243 4.22363 -0.192134 0
M  V30 2432 H 240.961 7.34717 -3.36476 0
M  V30 2433 H 244.547 5.51629 -1.84924 0
M  V30 2434 H 243.427 7.05974 -3.41424 0
M  V30 2435 N 240.93 -0.123565 1.57115 0
M  V30 2436 C 241.878 -1.17082 2.00984 0
M  V30 2437 C 242.872 -1.43136 0.906009 0
M  V30 2438 O 244.078 -1.43152 1.09121 0
M  V30 2439 H 240.453 -0.394653 0.64012 0
M  V30 2440 H 242.424 -0.774292 2.88179 0
M  V30 2441 C 241.173 -2.49057 2.42623 0
M  V30 2442 H 240.496 -2.29846 3.27125 0
M  V30 2443 H 241.936 -3.20906 2.7712 0
M  V30 2444 C 240.395 -3.11305 1.28805 0
M  V30 2445 O 240.925 -3.97171 0.60153 0
M  V30 2446 N 239.131 -2.71111 1.04628 0
M  V30 2447 H 238.678 -2.01382 1.60634 0
M  V30 2448 H 238.636 -3.1309 0.286685 0
M  V30 2449 N 242.408 -1.52605 -0.393616 0
M  V30 2450 C 243.633 -1.71592 -1.16495 0
M  V30 2451 C 244.058 -0.43133 -1.83088 0
M  V30 2452 O 243.416 0.612523 -1.7064 0
M  V30 2453 C 243.464 -2.86318 -2.19213 0
M  V30 2454 O 242.568 -2.52969 -3.257 0
M  V30 2455 H 241.909 -0.570734 -0.33935 0
M  V30 2456 H 244.439 -1.99377 -0.459324 0
M  V30 2457 H 244.449 -3.1168 -2.63286 0
M  V30 2458 H 243.124 -3.79511 -1.7013 0
M  V30 2459 H 241.701 -2.38332 -2.86797 0
M  V30 2460 N 243.887 0.651787 -1.4349 0
M  V30 2461 C 245.135 1.40888 -1.44897 0
M  V30 2462 C 245.456 1.94856 -0.0749086 0
M  V30 2463 O 244.726 1.74518 0.889956 0
M  V30 2464 H 243.306 0.522887 -0.533478 0
M  V30 2465 H 245.968 0.768609 -1.79104 0
M  V30 2466 H 245.064 2.25052 -2.16236 0
M  V30 2467 N 245.365 1.30045 0.890287 0
M  V30 2468 C 246.328 1.15963 1.977 0
M  V30 2469 C 247.328 0.0923777 1.60534 0
M  V30 2470 O 248.518 0.340071 1.70848 0
M  V30 2471 C 245.65 0.775451 3.31963 0
M  V30 2472 H 246.843 2.12502 2.11619 0
M  V30 2473 H 244.396 1.13366 1.07601 0
M  V30 2474 H 245.131 -0.189671 3.23745 0
M  V30 2475 H 244.916 1.54668 3.60306 0
M  V30 2476 H 246.406 0.700251 4.11687 0
M  V30 2477 N 246.843 -1.10192 1.12674 0
M  V30 2478 C 247.773 -2.18652 0.819362 0
M  V30 2479 C 248.754 -1.68698 -0.217915 0
M  V30 2480 O 249.939 -1.94041 -0.0785581 0
M  V30 2481 C 247.069 -3.46202 0.27594 0
M  V30 2482 C 246.023 -4.09444 1.24656 0
M  V30 2483 C 245.349 -5.31725 0.563258 0
M  V30 2484 C 246.649 -4.52863 2.60217 0
M  V30 2485 H 248.343 -2.44622 1.72628 0
M  V30 2486 H 245.889 -1.17571 0.831451 0
M  V30 2487 H 247.842 -4.21372 0.0486149 0
M  V30 2488 H 246.566 -3.1973 -0.666331 0
M  V30 2489 H 245.225 -3.36284 1.45974 0
M  V30 2490 H 244.873 -5.0153 -0.384235 0
M  V30 2491 H 244.573 -5.74991 1.21075 0
M  V30 2492 H 246.097 -6.09624 0.34503 0
M  V30 2493 H 247.511 -5.19294 2.42913 0
M  V30 2494 H 245.908 -5.06986 3.21068 0
M  V30 2495 H 246.978 -3.65656 3.18471 0
M  V30 2496 N 248.321 -0.919034 -1.28029 0
M  V30 2497 C 249.549 -0.570971 -1.98866 0
M  V30 2498 C 249.964 0.848996 -1.68634 0
M  V30 2499 O 249.321 1.56307 -0.942036 0
M  V30 2500 C 249.372 -0.776876 -3.53054 0
M  V30 2501 O 249.093 -2.14097 -3.82222 0
M  V30 2502 C 250.594 -0.436356 -4.41147 0
M  V30 2503 H 247.814 -0.217175 -0.634883 0
M  V30 2504 H 250.358 -1.23368 -1.63097 0
M  V30 2505 H 248.513 -0.161085 -3.87065 0
M  V30 2506 H 248.927 -2.18455 -4.76841 0
M  V30 2507 H 250.401 -0.63117 -5.4838 0
M  V30 2508 H 250.878 0.627686 -4.34692 0
M  V30 2509 H 251.484 -1.02991 -4.12641 0
M  V30 2510 N 249.799 1.42003 -0.683588 0
M  V30 2511 C 251.024 2.06265 -0.216647 0
M  V30 2512 C 251.449 1.51059 1.12083 0
M  V30 2513 O 250.807 0.632638 1.69904 0
M  V30 2514 C 250.855 3.60191 -0.171759 0
M  V30 2515 O 249.959 4.03396 0.857069 0
M  V30 2516 H 249.3 0.65502 -0.108834 0
M  V30 2517 H 251.83 1.81982 -0.935077 0
M  V30 2518 H 251.84 4.08 0.0014303 0
M  V30 2519 H 250.515 3.99743 -1.14796 0
M  V30 2520 H 249.092 3.67117 0.654208 0
M  V30 2521 N 251.277 0.427512 1.51691 0
M  V30 2522 C 252.525 -0.141948 2.01601 0
M  V30 2523 C 252.846 -1.44067 1.31414 0
M  V30 2524 O 252.116 -1.90763 0.445658 0
M  V30 2525 H 250.696 -0.0554468 0.744939 0
M  V30 2526 H 253.358 0.567968 1.86441 0
M  V30 2527 H 252.454 -0.324913 3.10404 0
M  V30 2528 N 252.755 -1.56801 0.158532 0
M  V30 2529 C 254.001 -1.96781 -0.490405 0
M  V30 2530 C 254.334 -1.04397 -1.63753 0
M  V30 2531 O 253.609 -0.0885805 -1.94298 0
M  V30 2532 C 253.892 -3.4635 -0.985594 0
M  V30 2533 C 253.745 -4.49512 0.160824 0
M  V30 2534 C 255.064 -3.98697 -1.86355 0
M  V30 2535 H 252.183 -0.715482 -0.176788 0
M  V30 2536 H 254.825 -1.88451 0.242088 0
M  V30 2537 H 252.975 -3.53579 -1.60978 0
M  V30 2538 H 254.647 -4.54353 0.797537 0
M  V30 2539 H 252.89 -4.26013 0.818256 0
M  V30 2540 H 253.561 -5.51531 -0.227569 0
M  V30 2541 H 256.037 -3.94019 -1.33746 0
M  V30 2542 H 254.913 -5.03792 -2.17909 0
M  V30 2543 H 255.174 -3.41744 -2.8047 0
M  V30 2544 N 254.233 0.115231 -1.57178 0
M  V30 2545 C 255.183 1.14707 -1.97044 0
M  V30 2546 C 256.167 1.36866 -0.845957 0
M  V30 2547 O 257.359 1.37895 -1.10968 0
M  V30 2548 C 254.488 2.47266 -2.38148 0
M  V30 2549 C 253.574 2.28566 -3.57237 0
M  V30 2550 N 253.965 1.79685 -4.72807 0
M  V30 2551 C 252.263 2.59208 -3.62943 0
M  V30 2552 C 252.964 1.74781 -5.54821 0
M  V30 2553 N 251.94 2.19264 -4.97417 0
M  V30 2554 H 255.742 0.761754 -2.83857 0
M  V30 2555 H 253.256 0.322928 -1.59157 0
M  V30 2556 H 255.253 3.219 -2.64927 0
M  V30 2557 H 253.913 2.86552 -1.52702 0
M  V30 2558 H 254.924 1.49177 -4.9595 0
M  V30 2559 H 251.601 3.02154 -2.88113 0
M  V30 2560 H 252.991 1.38212 -6.57531 0
M  V30 2561 N 255.711 1.52812 0.385517 0
M  V30 2562 C 256.939 1.71907 1.15133 0
M  V30 2563 C 257.354 0.439004 1.83625 0
M  V30 2564 O 256.711 -0.586765 1.7281 0
M  V30 2565 C 256.762 2.87099 2.19673 0
M  V30 2566 O 256.483 4.10151 1.53973 0
M  V30 2567 C 257.984 3.17902 3.08955 0
M  V30 2568 H 255.204 0.575479 0.345057 0
M  V30 2569 H 257.748 1.99476 0.45052 0
M  V30 2570 H 255.903 2.61982 2.85384 0
M  V30 2571 H 256.317 4.74514 2.23465 0
M  V30 2572 H 257.791 4.01959 3.7833 0
M  V30 2573 H 258.268 2.3243 3.72657 0
M  V30 2574 H 258.874 3.44871 2.48885 0
M  V30 2575 N 257.189 -0.644168 1.43834 0
M  V30 2576 C 258.436 -1.40395 1.4593 0
M  V30 2577 C 258.764 -1.94305 0.0869658 0
M  V30 2578 O 258.019 -1.73288 -0.909378 0
M  V30 2579 C 258.318 -2.59615 2.45631 0
M  V30 2580 C 257.984 -2.2407 3.91284 0
M  V30 2581 C 256.646 -2.14089 4.30952 0
M  V30 2582 C 258.998 -1.95775 4.83034 0
M  V30 2583 C 256.326 -1.73981 5.6031 0
M  V30 2584 C 258.678 -1.57163 6.12766 0
M  V30 2585 C 257.342 -1.45713 6.51402 0
M  V30 2586 H 256.612 -0.513741 0.533995 0
M  V30 2587 H 259.259 -0.731724 1.76969 0
M  V30 2588 H 257.564 -3.32011 2.08028 0
M  V30 2589 H 259.261 -3.17834 2.44504 0
M  V30 2590 H 255.851 -2.32753 3.59895 0
M  V30 2591 H 260.035 -2.02403 4.53152 0
M  V30 2592 H 255.291 -1.63709 5.89075 0
M  V30 2593 H 259.465 -1.34303 6.83327 0
M  V30 2594 H 257.092 -1.14406 7.51542 0
M  V30 2595 N 258.668 -1.30515 -0.883378 0
M  V30 2596 C 260.079 -1.17509 -1.45081 0
M  V30 2597 C 260.43 0.223605 -1.94922 0
M  V30 2598 O 259.555 1.12041 -1.85137 0
M  V30 2599 C 260.15 -2.12715 -2.63701 0
M  V30 2600 C 258.709 -2.03682 -3.16529 0
M  V30 2601 C 257.856 -2.02706 -1.89224 0
M  V30 2602 H 260.807 -1.42762 -0.693165 0
M  V30 2603 H 260.828 -1.70891 -3.39965 0
M  V30 2604 H 260.34 -3.14505 -2.27395 0
M  V30 2605 H 258.441 -1.05039 -3.57488 0
M  V30 2606 H 258.554 -2.92146 -3.7972 0
M  V30 2607 H 256.918 -1.4753 -2.07622 0
M  V30 2608 H 257.701 -3.06229 -1.55174 0
M  V30 2609 N 260.146 1.09593 -1.13257 0
M  V30 2610 C 261.109 2.14359 -0.811358 0
M  V30 2611 C 262.109 1.59808 0.178377 0
M  V30 2612 O 263.299 1.74132 -0.0484911 0
M  V30 2613 C 260.431 3.40269 -0.207276 0
M  V30 2614 H 261.624 2.44284 -1.73969 0
M  V30 2615 H 259.177 1.25102 -0.936973 0
M  V30 2616 H 259.912 3.15969 0.73036 0
M  V30 2617 H 259.697 3.81154 -0.919992 0
M  V30 2618 H 261.187 4.176 0.000667944 0
M  V30 2619 N 261.624 0.925811 1.2754 0
M  V30 2620 C 262.87 0.566092 1.94739 0
M  V30 2621 C 263.203 -0.890057 1.72603 0
M  V30 2622 O 262.478 -1.63467 1.05399 0
M  V30 2623 C 262.761 0.89054 3.48915 0
M  V30 2624 C 262.614 2.4003 3.80402 0
M  V30 2625 C 263.933 0.395101 4.38323 0
M  V30 2626 H 261.052 0.20714 0.707292 0
M  V30 2627 H 263.694 1.15725 1.50691 0
M  V30 2628 H 261.844 0.387452 3.86563 0
M  V30 2629 H 263.516 2.97494 3.52555 0
M  V30 2630 H 261.759 2.85028 3.2702 0
M  V30 2631 H 262.43 2.57785 4.8811 0
M  V30 2632 H 264.906 0.826241 4.07814 0
M  V30 2633 H 263.782 0.651086 5.45025 0
M  V30 2634 H 264.043 -0.704798 4.36446 0
M  V30 2635 N 263.102 -1.41638 0.69111 0
M  V30 2636 C 264.032 -2.3347 0.037248 0
M  V30 2637 C 265.013 -1.51575 -0.771947 0
M  V30 2638 O 266.198 -1.80126 -0.72582 0
M  V30 2639 C 263.328 -3.35354 -0.903064 0
M  V30 2640 C 262.282 -4.27526 -0.201288 0
M  V30 2641 C 261.608 -5.19747 -1.25565 0
M  V30 2642 C 262.908 -5.13959 0.929689 0
M  V30 2643 H 264.602 -2.88397 0.804227 0
M  V30 2644 H 262.148 -1.38669 0.388189 0
M  V30 2645 H 264.101 -3.98519 -1.36969 0
M  V30 2646 H 262.825 -2.78767 -1.70166 0
M  V30 2647 H 261.484 -3.65779 0.245265 0
M  V30 2648 H 261.132 -4.59479 -2.04666 0
M  V30 2649 H 260.832 -5.8225 -0.791128 0
M  V30 2650 H 262.356 -5.85789 -1.72288 0
M  V30 2651 H 263.77 -5.70718 0.543546 0
M  V30 2652 H 262.167 -5.85379 1.32103 0
M  V30 2653 H 263.237 -4.51389 1.77133 0
M  V30 2654 N 264.58 -0.43555 -1.51462 0
M  V30 2655 C 265.512 0.41257 -2.25456 0
M  V30 2656 C 266.525 0.987822 -1.29406 0
M  V30 2657 O 267.714 0.882266 -1.55172 0
M  V30 2658 C 264.814 1.58894 -2.99342 0
M  V30 2659 C 263.987 1.13288 -4.22474 0
M  V30 2660 C 263.046 2.17917 -4.78956 0
M  V30 2661 O 262.072 1.77425 -5.40841 0
M  V30 2662 N 263.274 3.50382 -4.62832 0
M  V30 2663 H 266.039 -0.221603 -2.9888 0
M  V30 2664 H 263.6 -0.264342 -1.59727 0
M  V30 2665 H 265.592 2.28508 -3.34015 0
M  V30 2666 H 264.162 2.12849 -2.28941 0
M  V30 2667 H 263.382 0.263881 -3.93316 0
M  V30 2668 H 264.67 0.805542 -5.02383 0
M  V30 2669 H 264.068 3.86013 -4.13534 0
M  V30 2670 H 262.625 4.15895 -5.01871 0
M  V30 2671 N 266.058 1.56714 -0.166846 0
M  V30 2672 C 267.283 2.01557 0.488833 0
M  V30 2673 C 267.708 1.0463 1.56314 0
M  V30 2674 O 267.066 0.0251304 1.81283 0
M  V30 2675 C 267.114 3.4503 1.04818 0
M  V30 2676 O 266.218 3.51163 2.16236 0
M  V30 2677 H 265.559 0.653516 0.117526 0
M  V30 2678 H 268.089 2.02818 -0.269421 0
M  V30 2679 H 268.099 3.84243 1.37191 0
M  V30 2680 H 266.774 4.15077 0.261572 0
M  V30 2681 H 265.351 3.23807 1.84942 0
M  V30 2682 N 267.536 -0.106894 1.57237 0
M  V30 2683 C 268.761 -0.830287 1.90055 0
M  V30 2684 C 269.186 -1.72064 0.75998 0
M  V30 2685 O 268.544 -1.78982 -0.288991 0
M  V30 2686 C 268.592 -1.6295 3.21683 0
M  V30 2687 O 267.696 -2.73748 3.08441 0
M  V30 2688 H 267.037 -0.228855 0.623315 0
M  V30 2689 H 269.567 -0.085658 2.04421 0
M  V30 2690 H 269.577 -2.01621 3.54701 0
M  V30 2691 H 268.252 -0.975989 4.04286 0
M  V30 2692 H 266.829 -2.38192 2.86913 0
M  V30 2693 N 269.014 -1.53014 -0.377408 0
M  V30 2694 C 270.262 -1.6829 -1.11906 0
M  V30 2695 C 270.583 -0.431206 -1.90173 0
M  V30 2696 O 269.853 0.554595 -1.87886 0
M  V30 2697 H 268.433 -0.620371 -0.416112 0
M  V30 2698 H 271.095 -1.90167 -0.426893 0
M  V30 2699 H 270.191 -2.53862 -1.8155 0
M  V30 2700 N 270.492 0.636531 -1.44174 0
M  V30 2701 C 271.422 1.76003 -1.53444 0
M  V30 2702 C 272.403 1.65619 -0.387841 0
M  V30 2703 O 273.588 1.84461 -0.607257 0
M  V30 2704 C 270.718 3.14511 -1.4731 0
M  V30 2705 C 269.672 3.39677 -2.60391 0
M  V30 2706 C 268.998 4.78159 -2.39308 0
M  V30 2707 C 270.298 3.32772 -4.02567 0
M  V30 2708 H 271.992 1.68501 -2.47483 0
M  V30 2709 H 269.538 0.809237 -1.19111 0
M  V30 2710 H 271.491 3.92878 -1.52397 0
M  V30 2711 H 270.215 3.22783 -0.49785 0
M  V30 2712 H 268.874 2.63688 -2.54684 0
M  V30 2713 H 268.522 4.83128 -1.39988 0
M  V30 2714 H 268.222 4.95956 -3.15122 0
M  V30 2715 H 269.746 5.58762 -2.46205 0
M  V30 2716 H 271.16 4.01051 -4.09672 0
M  V30 2717 H 269.557 3.62104 -4.7854 0
M  V30 2718 H 270.627 2.30669 -4.2652 0
M  V30 2719 N 271.97 1.30982 0.876444 0
M  V30 2720 C 273.2 1.23063 1.65949 0
M  V30 2721 C 273.608 -0.207537 1.88058 0
M  V30 2722 O 272.951 -1.14781 1.43426 0
M  V30 2723 C 273.013 1.89768 3.05333 0
M  V30 2724 C 272.677 3.39106 3.0636 0
M  V30 2725 C 273.674 4.3496 2.84791 0
M  V30 2726 C 271.359 3.80693 3.27686 0
M  V30 2727 C 273.353 5.70375 2.84519 0
M  V30 2728 C 271.04 5.16223 3.27043 0
M  V30 2729 C 272.038 6.10875 3.05485 0
M  V30 2730 O 271.726 7.43928 3.04674 0
M  V30 2731 H 271.458 0.426685 0.524324 0
M  V30 2732 H 274.012 1.7329 1.10271 0
M  V30 2733 H 272.242 1.34082 3.6271 0
M  V30 2734 H 273.931 1.75853 3.65829 0
M  V30 2735 H 274.697 4.0416 2.68103 0
M  V30 2736 H 270.576 3.07457 3.43499 0
M  V30 2737 H 274.12 6.44228 2.67611 0
M  V30 2738 H 270.017 5.4666 3.43269 0
M  V30 2739 H 270.785 7.53022 3.2078 0
M  V30 2740 N 273.449 -1.08991 1.13837 0
M  V30 2741 C 274.674 -1.85551 0.926585 0
M  V30 2742 C 275.099 -1.80782 -0.519566 0
M  V30 2743 O 274.457 -1.18855 -1.36906 0
M  V30 2744 C 274.505 -3.31266 1.42462 0
M  V30 2745 O 273.609 -4.07822 0.612789 0
M  V30 2746 H 272.95 -0.575192 0.331738 0
M  V30 2747 H 275.48 -1.37604 1.51414 0
M  V30 2748 H 275.49 -3.82112 1.43019 0
M  V30 2749 H 274.165 -3.34052 2.47754 0
M  V30 2750 H 272.742 -3.66731 0.675463 0
M  V30 2751 N 274.927 -0.932562 -1.27047 0
M  V30 2752 C 275.857 -0.452902 -2.29066 0
M  V30 2753 C 276.838 0.489338 -1.62909 0
M  V30 2754 O 278.023 0.393046 -1.90181 0
M  V30 2755 C 275.153 0.290698 -3.46081 0
M  V30 2756 C 274.107 -0.564168 -4.24265 0
M  V30 2757 C 273.433 0.308886 -5.33807 0
M  V30 2758 C 274.733 -1.83112 -4.89149 0
M  V30 2759 H 276.427 -1.30552 -2.69437 0
M  V30 2760 H 273.973 -0.629201 -1.29526 0
M  V30 2761 H 275.926 0.637233 -4.16554 0
M  V30 2762 H 274.65 1.17738 -3.0464 0
M  V30 2763 H 273.309 -0.893477 -3.55545 0
M  V30 2764 H 272.957 1.19467 -4.88607 0
M  V30 2765 H 272.657 -0.259633 -5.87026 0
M  V30 2766 H 274.181 0.650884 -6.07121 0
M  V30 2767 H 275.595 -1.55236 -5.51883 0
M  V30 2768 H 273.992 -2.34353 -5.52448 0
M  V30 2769 H 275.062 -2.54772 -4.12576 0
M  V30 2770 N 276.405 1.4127 -0.698611 0
M  V30 2771 C 277.63 2.06024 -0.238512 0
M  V30 2772 C 278.055 1.5224 1.10475 0
M  V30 2773 O 277.413 0.650623 1.69223 0
M  V30 2774 C 277.461 3.59988 -0.209952 0
M  V30 2775 O 276.565 4.04282 0.814235 0
M  V30 2776 H 275.906 0.653829 -0.115775 0
M  V30 2777 H 278.436 1.8098 -0.954326 0
M  V30 2778 H 278.446 4.07979 -0.0418436 0
M  V30 2779 H 277.121 3.98503 -1.1903 0
M  V30 2780 H 275.698 3.6779 0.615234 0
M  V30 2781 N 277.883 0.443576 1.51229 0
M  V30 2782 C 279.108 -0.121648 2.07043 0
M  V30 2783 C 279.533 -1.35156 1.30823 0
M  V30 2784 O 278.891 -1.7793 0.347934 0
M  V30 2785 C 278.939 -0.41624 3.5819 0
M  V30 2786 O 278.043 -1.50163 3.8409 0
M  V30 2787 H 277.384 0.000871367 0.663999 0
M  V30 2788 H 279.914 0.626706 1.94765 0
M  V30 2789 H 279.924 -0.664867 4.02546 0
M  V30 2790 H 278.599 0.482653 4.1309 0
M  V30 2791 H 277.176 -1.24248 3.51592 0
M  V30 2792 N 279.361 -1.56624 0.175154 0
M  V30 2793 C 280.607 -1.9729 -0.469506 0
M  V30 2794 C 280.94 -1.06128 -1.62636 0
M  V30 2795 O 280.215 -0.109183 -1.94193 0
M  V30 2796 C 280.498 -3.47375 -0.948804 0
M  V30 2797 C 280.351 -4.49317 0.208491 0
M  V30 2798 C 281.67 -4.00652 -1.82116 0
M  V30 2799 H 278.789 -0.717317 -0.16919 0
M  V30 2800 H 281.431 -1.88184 0.262062 0
M  V30 2801 H 279.581 -3.55267 -1.57219 0
M  V30 2802 H 281.253 -4.53482 0.845682 0
M  V30 2803 H 279.496 -4.25121 0.863395 0
M  V30 2804 H 280.167 -5.51741 -0.169059 0
M  V30 2805 H 282.643 -3.95416 -1.2956 0
M  V30 2806 H 281.519 -5.06075 -2.12554 0
M  V30 2807 H 281.78 -3.44699 -2.7683 0
M  V30 2808 N 280.839 0.0985539 -1.57292 0
M  V30 2809 C 282.085 0.803867 -1.86188 0
M  V30 2810 C 282.418 1.78549 -0.763794 0
M  V30 2811 O 281.693 1.93153 0.22855 0
M  V30 2812 C 281.976 1.53568 -3.25713 0
M  V30 2813 C 281.829 0.572277 -4.46145 0
M  V30 2814 C 283.148 2.48708 -3.63087 0
M  V30 2815 H 280.267 0.290781 -0.677211 0
M  V30 2816 H 282.909 0.0675783 -1.8988 0
M  V30 2817 H 281.059 2.16332 -3.22696 0
M  V30 2818 H 282.731 -0.0480894 -4.61275 0
M  V30 2819 H 280.974 -0.114618 -4.33649 0
M  V30 2820 H 281.645 1.12139 -5.40489 0
M  V30 2821 H 284.121 1.96039 -3.67026 0
M  V30 2822 H 282.997 2.96932 -4.61652 0
M  V30 2823 H 283.258 3.32309 -2.91588 0
M  V30 2824 N 282.317 1.53212 0.369288 0
M  V30 2825 C 283.545 1.73119 1.13303 0
M  V30 2826 C 283.96 0.458455 1.83149 0
M  V30 2827 O 283.317 -0.568403 1.73423 0
M  V30 2828 C 283.368 2.89413 2.16616 0
M  V30 2829 O 283.089 4.11761 1.49614 0
M  V30 2830 C 284.59 3.21161 3.05566 0
M  V30 2831 H 281.81 0.579107 0.338934 0
M  V30 2832 H 284.354 1.99942 0.429338 0
M  V30 2833 H 282.509 2.64994 2.82589 0
M  V30 2834 H 282.923 4.76858 2.18419 0
M  V30 2835 H 284.397 4.05949 3.74045 0
M  V30 2836 H 284.874 2.36369 3.70171 0
M  V30 2837 H 285.48 3.47492 2.45213 0
M  V30 2838 N 283.795 -0.628877 1.44509 0
M  V30 2839 C 285.041 -1.39045 1.47629 0
M  V30 2840 C 285.374 -1.93892 0.109343 0
M  V30 2841 O 284.649 -1.7379 -0.87334 0
M  V30 2842 C 284.932 -2.55408 2.53848 0
M  V30 2843 C 284.785 -2.05896 3.99909 0
M  V30 2844 C 286.104 -3.5759 2.56549 0
M  V30 2845 H 283.223 -0.504232 0.537512 0
M  V30 2846 H 285.865 -0.710854 1.76201 0
M  V30 2847 H 284.015 -3.13384 2.29615 0
M  V30 2848 H 285.687 -1.52734 4.35282 0
M  V30 2849 H 283.93 -1.37061 4.11578 0
M  V30 2850 H 284.601 -2.89681 4.69882 0
M  V30 2851 H 287.077 -3.09419 2.78207 0
M  V30 2852 H 285.953 -4.36527 3.32769 0
M  V30 2853 H 286.214 -4.11808 1.60832 0
M  V30 2854 N 285.273 -1.31445 -0.869486 0
M  V30 2855 C 286.684 -1.19042 -1.43826 0
M  V30 2856 C 287.035 0.202919 -1.95148 0
M  V30 2857 O 286.16 1.10071 -1.86315 0
M  V30 2858 C 286.755 -2.15499 -2.6143 0
M  V30 2859 C 285.314 -2.07028 -3.14351 0
M  V30 2860 C 284.461 -2.04701 -1.87063 0
M  V30 2861 H 287.412 -1.43489 -0.677984 0
M  V30 2862 H 287.433 -1.74488 -3.38134 0
M  V30 2863 H 286.945 -3.16899 -2.24046 0
M  V30 2864 H 285.046 -1.08825 -3.56354 0
M  V30 2865 H 285.159 -2.96157 -3.766 0
M  V30 2866 H 283.523 -1.49724 -2.06046 0
M  V30 2867 H 284.306 -3.07857 -1.51917 0
M  V30 2868 N 286.751 1.08385 -1.14413 0
M  V30 2869 C 287.976 1.85057 -0.936413 0
M  V30 2870 C 288.401 1.81055 0.509971 0
M  V30 2871 O 287.759 1.1958 1.36273 0
M  V30 2872 C 287.807 3.30505 -1.44217 0
M  V30 2873 O 286.911 4.07491 -0.634409 0
M  V30 2874 H 286.252 0.573425 -0.334784 0
M  V30 2875 H 288.782 1.36799 -1.52142 0
M  V30 2876 H 288.792 3.81348 -1.45043 0
M  V30 2877 H 287.467 3.32734 -2.49522 0
M  V30 2878 H 286.044 3.66368 -0.694902 0
M  V30 2879 N 288.23 0.939286 1.26551 0
M  V30 2880 C 289.455 0.602008 1.98471 0
M  V30 2881 C 289.88 -0.815624 1.69497 0
M  V30 2882 O 289.238 -1.54912 0.941905 0
M  V30 2883 C 289.286 0.848407 3.50477 0
M  V30 2884 O 288.39 -0.0804009 4.12322 0
M  V30 2885 H 287.731 0.23049 0.622712 0
M  V30 2886 H 290.261 1.2617 1.61066 0
M  V30 2887 H 290.271 0.768553 4.00696 0
M  V30 2888 H 288.946 1.88171 3.70897 0
M  V30 2889 H 287.523 0.0503508 3.72866 0
M  V30 2890 N 289.708 -1.40897 0.706093 0
M  V30 2891 C 290.933 -2.05895 0.249435 0
M  V30 2892 C 291.358 -1.52823 -1.09666 0
M  V30 2893 O 290.716 -0.659589 -1.68876 0
M  V30 2894 C 290.764 -3.59872 0.22904 0
M  V30 2895 O 289.868 -4.04708 -0.792784 0
M  V30 2896 H 289.209 -0.653206 0.119241 0
M  V30 2897 H 291.739 -1.80471 0.96391 0
M  V30 2898 H 291.749 -4.07951 0.0634791 0
M  V30 2899 H 290.424 -3.97866 1.21141 0
M  V30 2900 H 289.001 -3.68111 -0.59572 0
M  V30 2901 N 291.186 -0.45159 -1.50991 0
M  V30 2902 C 292.116 0.342898 -2.30969 0
M  V30 2903 C 293.097 1.00815 -1.37005 0
M  V30 2904 O 294.282 1.00907 -1.65926 0
M  V30 2905 C 291.412 1.43637 -3.16205 0
M  V30 2906 C 290.366 0.893818 -4.18563 0
M  V30 2907 C 289.692 2.08411 -4.92411 0
M  V30 2908 C 290.992 -0.0815568 -5.22236 0
M  V30 2909 H 292.686 -0.324556 -2.97636 0
M  V30 2910 H 290.232 -0.157531 -1.43136 0
M  V30 2911 H 292.185 1.9995 -3.70942 0
M  V30 2912 H 290.909 2.13232 -2.47386 0
M  V30 2913 H 289.568 0.352798 -3.64898 0
M  V30 2914 H 289.216 2.76658 -4.20082 0
M  V30 2915 H 288.916 1.72741 -5.61636 0
M  V30 2916 H 290.44 2.65251 -5.49976 0
M  V30 2917 H 291.854 0.391742 -5.7196 0
M  V30 2918 H 290.251 -0.351551 -5.99069 0
M  V30 2919 H 291.321 -1.01374 -4.74185 0
M  V30 2920 N 292.664 1.56529 -0.183458 0
M  V30 2921 C 293.912 1.96855 0.457452 0
M  V30 2922 C 294.233 1.07104 1.62953 0
M  V30 2923 O 293.503 0.139887 1.954 0
M  V30 2924 H 292.083 0.72693 0.171992 0
M  V30 2925 H 294.745 1.93056 -0.267476 0
M  V30 2926 H 293.841 3.01423 0.809368 0
M  V30 2927 N 294.142 -0.090211 1.57342 0
M  V30 2928 C 295.37 -0.806224 1.90546 0
M  V30 2929 C 295.785 -1.72041 0.777644 0
M  V30 2930 O 295.142 -1.80778 -0.250103 0
M  V30 2931 C 295.193 -1.61546 3.23396 0
M  V30 2932 O 294.914 -0.738043 4.31839 0
M  V30 2933 C 296.415 -2.4341 3.70495 0
M  V30 2934 H 293.635 -0.230256 0.630257 0
M  V30 2935 H 296.179 -0.0659843 2.04394 0
M  V30 2936 H 294.334 -2.30816 3.11131 0
M  V30 2937 H 294.748 -1.29901 5.08159 0
M  V30 2938 H 296.222 -2.95676 4.66133 0
M  V30 2939 H 296.699 -3.22098 2.98579 0
M  V30 2940 H 297.305 -1.79331 3.85643 0
M  V30 2941 N 295.62 -1.53406 -0.361157 0
M  V30 2942 C 296.552 -1.76446 -1.46286 0
M  V30 2943 C 297.565 -0.645322 -1.49464 0
M  V30 2944 O 298.754 -0.921681 -1.52864 0
M  V30 2945 C 295.854 -1.83332 -2.85031 0
M  V30 2946 C 295.027 -3.13033 -3.05498 0
M  V30 2947 C 294.086 -3.11104 -4.24383 0
M  V30 2948 O 293.112 -3.84888 -4.19344 0
M  V30 2949 N 294.314 -2.32234 -5.32022 0
M  V30 2950 H 297.079 -2.71508 -1.26899 0
M  V30 2951 H 294.64 -1.52238 -0.550915 0
M  V30 2952 H 296.632 -1.79514 -3.62708 0
M  V30 2953 H 295.202 -0.955342 -2.97644 0
M  V30 2954 H 294.422 -3.30119 -2.15442 0
M  V30 2955 H 295.71 -3.9874 -3.16044 0
M  V30 2956 H 295.108 -1.71807 -5.38979 0
M  V30 2957 H 293.665 -2.3423 -6.08259 0
M  V30 2958 N 297.098 0.621204 -1.44841 0
M  V30 2959 C 298.326 1.40752 -1.51646 0
M  V30 2960 C 298.741 1.88246 -0.144549 0
M  V30 2961 O 298.098 1.61422 0.851416 0
M  V30 2962 C 298.149 2.62119 -2.4895 0
M  V30 2963 O 297.87 2.16602 -3.80808 0
M  V30 2964 C 299.371 3.55135 -2.65319 0
M  V30 2965 H 296.591 0.431325 -0.514004 0
M  V30 2966 H 299.135 0.758835 -1.899 0
M  V30 2967 H 297.29 3.23058 -2.13805 0
M  V30 2968 H 297.704 2.95358 -4.33433 0
M  V30 2969 H 299.178 4.36874 -3.37409 0
M  V30 2970 H 299.655 4.04592 -1.70886 0
M  V30 2971 H 300.261 3.00058 -3.01405 0
M  V30 2972 N 298.576 1.31904 0.862503 0
M  V30 2973 C 299.806 1.24817 1.64634 0
M  V30 2974 C 300.214 -0.187579 1.88268 0
M  V30 2975 O 299.557 -1.13253 1.44635 0
M  V30 2976 C 299.619 1.92996 3.03303 0
M  V30 2977 C 299.283 3.42336 3.02746 0
M  V30 2978 C 300.28 4.37956 2.80162 0
M  V30 2979 C 297.965 3.84147 3.2363 0
M  V30 2980 C 299.959 5.73361 2.78453 0
M  V30 2981 C 297.646 5.19663 3.21549 0
M  V30 2982 C 298.644 6.14081 2.98988 0
M  V30 2983 O 298.332 7.47118 2.96766 0
M  V30 2984 H 298.064 0.432222 0.519769 0
M  V30 2985 H 300.618 1.7445 1.08427 0
M  V30 2986 H 298.848 1.37922 3.61268 0
M  V30 2987 H 300.537 1.79723 3.63943 0
M  V30 2988 H 301.303 4.06981 2.63802 0
M  V30 2989 H 297.182 3.11083 3.40218 0
M  V30 2990 H 300.726 6.4703 2.60763 0
M  V30 2991 H 296.623 5.5027 3.37451 0
M  V30 2992 H 297.391 7.56382 3.12775 0
M  V30 2993 N 300.054 -1.07777 1.14986 0
M  V30 2994 C 301.303 -1.79669 0.916617 0
M  V30 2995 C 301.616 -1.87474 -0.557917 0
M  V30 2996 O 302.822 -2.55845 -0.908617 0
M  V30 2997 C 301.278 -3.22848 1.59051 0
M  V30 2998 C 300.886 -3.23257 3.10176 0
M  V30 2999 C 302.63 -3.99379 1.43864 0
M  V30 3000 C 300.537 -4.61063 3.70372 0
M  V30 3001 H 299.467 -0.673349 0.33929 0
M  V30 3002 H 302.118 -1.21003 1.37951 0
M  V30 3003 H 300.5 -3.8168 1.0553 0
M  V30 3004 H 301.674 -2.74095 3.70417 0
M  V30 3005 H 299.989 -2.60222 3.25074 0
M  V30 3006 H 302.586 -5.0122 1.86232 0
M  V30 3007 H 302.929 -4.14511 0.385564 0
M  V30 3008 H 303.462 -3.47032 1.94457 0
M  V30 3009 H 300.201 -4.51135 4.7556 0
M  V30 3010 H 299.721 -5.1048 3.14913 0
M  V30 3011 H 301.4 -5.30034 3.71043 0
M  V30 3012 N 301.532 -0.945985 -1.26051 0
M  V30 3013 C 302.772 -0.603665 -1.95282 0
M  V30 3014 C 303.136 0.842377 -1.72534 0
M  V30 3015 O 304.337 1.29387 -2.35611 0
M  V30 3016 C 302.608 -0.942292 -3.44754 0
M  V30 3017 S 304.167 -0.711242 -4.32997 0
M  V30 3018 H 300.985 -0.222176 -0.675395 0
M  V30 3019 H 303.587 -1.21832 -1.52896 0
M  V30 3020 H 302.291 -1.99203 -3.58812 0
M  V30 3021 H 301.822 -0.317546 -3.92116 0
M  V30 3022 H 303.837 0.422221 -4.944 0
M  V30 3023 N 303.011 1.40521 -0.713556 0
M  V30 3024 C 303.959 2.32549 -0.0485227 0
M  V30 3025 C 304.953 1.51931 0.74922 0
M  V30 3026 O 306.159 1.67745 0.652816 0
M  V30 3027 H 302.534 0.751994 0.00311138 0
M  V30 3028 H 304.505 2.86291 -0.841443 0
M  V30 3029 C 303.254 3.36879 0.860687 0
M  V30 3030 H 302.577 3.98978 0.256246 0
M  V30 3031 H 304.017 4.03772 1.294 0
M  V30 3032 C 302.476 2.72197 1.9852 0
M  V30 3033 O 303.006 2.5837 3.07584 0
M  V30 3034 N 301.212 2.30612 1.76823 0
M  V30 3035 H 300.759 2.42059 0.881217 0
M  V30 3036 H 300.717 1.87672 2.52243 0
M  V30 3037 N 304.489 0.459591 1.5075 0
M  V30 3038 C 305.735 -0.0994966 2.02556 0
M  V30 3039 C 306.068 -1.40399 1.3417 0
M  V30 3040 O 305.343 -1.88892 0.463683 0
M  V30 3041 C 305.626 -0.295242 3.58888 0
M  V30 3042 C 305.479 1.02947 4.37861 0
M  V30 3043 C 306.798 -1.05502 4.27267 0
M  V30 3044 H 303.917 -0.034686 0.736183 0
M  V30 3045 H 306.559 0.602938 1.8018 0
M  V30 3046 H 304.709 -0.893563 3.78084 0
M  V30 3047 H 306.381 1.66348 4.30263 0
M  V30 3048 H 304.624 1.62885 4.02058 0
M  V30 3049 H 305.295 0.846281 5.45474 0
M  V30 3050 H 307.771 -0.547993 4.12476 0
M  V30 3051 H 306.647 -1.16077 5.36486 0
M  V30 3052 H 306.908 -2.08875 3.89645 0
M  V30 3053 N 305.967 -1.56429 0.191757 0
M  V30 3054 C 306.915 -2.20273 -0.747174 0
M  V30 3055 C 307.909 -1.17288 -1.22229 0
M  V30 3056 O 309.115 -1.35441 -1.18557 0
M  V30 3057 H 305.49 -0.705885 -0.259289 0
M  V30 3058 H 307.461 -2.97826 -0.184963 0
M  V30 3059 C 306.21 -2.87356 -1.95759 0
M  V30 3060 H 305.533 -3.66341 -1.60106 0
M  V30 3061 H 306.973 -3.3547 -2.59299 0
M  V30 3062 C 305.432 -1.88213 -2.79423 0
M  V30 3063 O 305.962 -1.38033 -3.7724 0
M  V30 3064 N 304.168 -1.56516 -2.44849 0
M  V30 3065 H 303.715 -1.97516 -1.65364 0
M  V30 3066 H 303.673 -0.904369 -3.01112 0
M  V30 3067 N 307.445 0.0818655 -1.57387 0
M  V30 3068 C 308.395 1.10501 -1.99433 0
M  V30 3069 C 309.379 1.35041 -0.874798 0
M  V30 3070 O 310.571 1.35511 -1.13868 0
M  V30 3071 C 307.7 2.42159 -2.43339 0
M  V30 3072 C 306.786 2.20937 -3.62005 0
M  V30 3073 N 307.177 1.69616 -4.76512 0
M  V30 3074 C 305.475 2.51451 -3.68359 0
M  V30 3075 C 306.176 1.62973 -5.58404 0
M  V30 3076 N 305.152 2.08664 -5.01956 0
M  V30 3077 H 308.954 0.701373 -2.85408 0
M  V30 3078 H 306.468 0.289096 -1.59806 0
M  V30 3079 H 308.465 3.16208 -2.71695 0
M  V30 3080 H 307.125 2.83249 -1.58746 0
M  V30 3081 H 308.136 1.38624 -4.99003 0
M  V30 3082 H 304.813 2.95975 -2.94457 0
M  V30 3083 H 306.203 1.24233 -6.60315 0
M  V30 3084 N 308.923 1.53595 0.353017 0
M  V30 3085 C 309.87 1.80919 1.43308 0
M  V30 3086 C 310.84 0.654288 1.5267 0
M  V30 3087 O 312.025 0.897759 1.6836 0
M  V30 3088 C 309.165 2.01605 2.80089 0
M  V30 3089 C 308.278 3.29321 2.79593 0
M  V30 3090 C 307.413 3.40125 4.0803 0
M  V30 3091 C 306.452 4.61826 4.01725 0
M  V30 3092 N 305.589 4.69716 5.21834 0
M  V30 3093 H 310.429 2.73074 1.19308 0
M  V30 3094 H 307.966 1.35263 0.578131 0
M  V30 3095 H 309.924 2.11586 3.59565 0
M  V30 3096 H 308.554 1.12772 3.0246 0
M  V30 3097 H 307.606 3.28229 1.92276 0
M  V30 3098 H 308.918 4.18884 2.70809 0
M  V30 3099 H 308.072 3.49488 4.95927 0
M  V30 3100 H 306.811 2.48601 4.19582 0
M  V30 3101 H 305.816 4.52552 3.12213 0
M  V30 3102 H 307.041 5.54705 3.91764 0
M  V30 3103 H 304.987 3.81097 5.33948 0
M  V30 3104 H 304.904 5.53202 5.1527 0
M  V30 3105 H 306.172 4.83376 6.11529 0
M  V30 3106 N 310.401 -0.613514 1.45168 0
M  V30 3107 C 311.812 -1.19539 1.43413 0
M  V30 3108 C 312.163 -1.95558 0.158632 0
M  V30 3109 O 311.288 -2.0335 -0.740119 0
M  V30 3110 C 311.883 -2.17445 2.59813 0
M  V30 3111 C 310.442 -2.71022 2.61197 0
M  V30 3112 C 309.589 -1.46323 2.35552 0
M  V30 3113 H 312.54 -0.403163 1.53494 0
M  V30 3114 H 312.561 -3.00373 2.33574 0
M  V30 3115 H 312.073 -1.62089 3.52631 0
M  V30 3116 H 310.174 -3.30332 1.7237 0
M  V30 3117 H 310.287 -3.15859 3.60236 0
M  V30 3118 H 308.651 -1.75072 1.84992 0
M  V30 3119 H 309.434 -0.92844 3.30507 0
M  V30 3120 N 311.879 -1.3236 -0.855495 0
M  V30 3121 C 313.104 -1.2601 -1.64731 0
M  V30 3122 C 313.529 0.169068 -1.87339 0
M  V30 3123 O 312.887 1.12016 -1.42556 0
M  V30 3124 C 312.935 -2.02417 -2.98429 0
M  V30 3125 O 312.039 -1.3714 -3.8893 0
M  V30 3126 H 311.38 -0.434325 -0.502253 0
M  V30 3127 H 313.91 -1.74661 -1.06558 0
M  V30 3128 H 313.92 -2.12559 -3.48257 0
M  V30 3129 H 312.595 -3.06343 -2.81295 0
M  V30 3130 H 311.172 -1.3554 -3.47395 0
M  V30 3131 N 313.357 1.07166 -1.15556 0
M  V30 3132 C 314.305 2.16517 -0.8499 0
M  V30 3133 C 315.299 1.68468 0.177454 0
M  V30 3134 O 316.505 1.79971 0.0323026 0
M  V30 3135 H 312.88 0.706652 -0.25719 0
M  V30 3136 H 314.851 2.39514 -1.77976 0
M  V30 3137 C 313.6 3.45855 -0.357682 0
M  V30 3138 H 312.923 3.83214 -1.13961 0
M  V30 3139 H 314.363 4.23607 -0.182489 0
M  V30 3140 C 312.822 3.24062 0.921152 0
M  V30 3141 O 313.352 3.48813 1.9923 0
M  V30 3142 N 311.558 2.77539 0.86141 0
M  V30 3143 H 311.105 2.57598 -0.0104408 0
M  V30 3144 H 311.063 2.63337 1.71758 0
M  V30 3145 N 314.835 0.952656 1.25548 0
M  V30 3146 C 316.063 0.623496 1.97282 0
M  V30 3147 C 316.478 -0.803987 1.70826 0
M  V30 3148 O 315.835 -1.53755 0.983147 0
M  V30 3149 C 315.886 0.870209 3.5087 0
M  V30 3150 O 315.607 2.24156 3.76412 0
M  V30 3151 C 317.108 0.553164 4.39835 0
M  V30 3152 H 314.328 0.233931 0.628902 0
M  V30 3153 H 316.872 1.27649 1.59768 0
M  V30 3154 H 315.027 0.263652 3.86502 0
M  V30 3155 H 315.441 2.31021 4.70882 0
M  V30 3156 H 316.915 0.776342 5.46513 0
M  V30 3157 H 317.392 -0.512215 4.36203 0
M  V30 3158 H 317.998 1.13896 4.09766 0
M  V30 3159 N 316.313 -1.40141 0.720998 0
M  V30 3160 C 317.26 -2.30688 0.071919 0
M  V30 3161 C 318.23 -1.48476 -0.744584 0
M  V30 3162 O 319.415 -1.77201 -0.707423 0
M  V30 3163 C 316.555 -3.34724 -0.839855 0
M  V30 3164 C 315.668 -4.31998 -0.0122438 0
M  V30 3165 C 314.803 -5.23102 -0.923995 0
M  V30 3166 C 313.842 -6.12033 -0.0907969 0
M  V30 3167 N 312.979 -6.95537 -0.957718 0
M  V30 3168 H 317.819 -2.85628 0.849755 0
M  V30 3169 H 315.356 -1.40653 0.430726 0
M  V30 3170 H 317.314 -3.93618 -1.38279 0
M  V30 3171 H 315.944 -2.81274 -1.58381 0
M  V30 3172 H 314.996 -3.74841 0.64794 0
M  V30 3173 H 316.308 -4.94772 0.632595 0
M  V30 3174 H 315.462 -5.86953 -1.53527 0
M  V30 3175 H 314.201 -4.60615 -1.60264 0
M  V30 3176 H 313.206 -5.47207 0.533377 0
M  V30 3177 H 314.431 -6.76581 0.584428 0
M  V30 3178 H 312.377 -6.35633 -1.62192 0
M  V30 3179 H 312.294 -7.55099 -0.36904 0
M  V30 3180 H 313.562 -7.63832 -1.555 0
M  V30 3181 N 317.792 -0.46758 -1.50504 0
M  V30 3182 C 319.038 0.0887532 -2.02606 0
M  V30 3183 C 319.371 1.39686 -1.34913 0
M  V30 3184 O 318.646 1.88644 -0.473694 0
M  V30 3185 C 318.929 0.276206 -3.59039 0
M  V30 3186 C 318.782 -1.05267 -4.37309 0
M  V30 3187 C 320.101 1.03235 -4.27821 0
M  V30 3188 H 317.22 0.0307814 -0.736357 0
M  V30 3189 H 319.862 -0.612485 -1.79857 0
M  V30 3190 H 318.012 0.8735 -3.78553 0
M  V30 3191 H 319.684 -1.68628 -4.29374 0
M  V30 3192 H 317.927 -1.65015 -4.01189 0
M  V30 3193 H 318.598 -0.875197 -5.45018 0
M  V30 3194 H 321.074 0.526111 -4.12761 0
M  V30 3195 H 319.95 1.1323 -5.37094 0
M  V30 3196 H 320.211 2.06806 -3.90748 0
M  V30 3197 N 319.27 1.56325 -0.20005 0
M  V30 3198 C 320.547 1.89484 0.48529 0
M  V30 3199 C 320.927 1.1143 1.79294 0
M  V30 3200 O 320.275 0.216919 2.27468 0
M  V30 3201 C 320.485 3.41923 0.699243 0
M  V30 3202 C 321.833 4.12256 1.01638 0
M  V30 3203 O 322.857 3.47402 0.786792 0
M  V30 3204 O 321.716 5.26887 1.45095 0
M  V30 3205 H 318.81 0.787144 0.253639 0
M  V30 3206 H 321.356 1.67985 -0.240633 0
M  V30 3207 H 320.128 3.90658 -0.224008 0
M  V30 3208 H 319.751 3.69131 1.47744 0
M  V30 3209 N 320.748 -0.0735177 1.57428 0
M  V30 3210 C 321.695 -1.08756 2.0357 0
M  V30 3211 C 322.665 -1.38559 0.916 0
M  V30 3212 O 323.85 -1.49656 1.18354 0
M  V30 3213 C 320.99 -2.39657 2.48311 0
M  V30 3214 C 320.103 -2.16399 3.73892 0
M  V30 3215 C 319.238 -3.40852 4.07423 0
M  V30 3216 C 318.277 -3.1295 5.2605 0
M  V30 3217 N 317.414 -4.29729 5.55228 0
M  V30 3218 H 322.254 -0.687104 2.8997 0
M  V30 3219 H 319.791 -0.327709 1.43403 0
M  V30 3220 H 321.749 -3.16081 2.72303 0
M  V30 3221 H 320.379 -2.77508 1.64891 0
M  V30 3222 H 319.431 -1.30676 3.57251 0
M  V30 3223 H 320.743 -1.91788 4.60455 0
M  V30 3224 H 319.897 -4.25671 4.32306 0
M  V30 3225 H 318.636 -3.68537 3.19425 0
M  V30 3226 H 317.641 -2.26526 5.00965 0
M  V30 3227 H 318.866 -2.86589 6.15665 0
M  V30 3228 H 316.812 -4.57448 4.70188 0
M  V30 3229 H 316.729 -4.08385 6.36206 0
M  V30 3230 H 317.997 -5.1555 5.84661 0
M  V30 3231 N 322.226 -1.5378 -0.344866 0
M  V30 3232 C 323.173 -1.81676 -1.42346 0
M  V30 3233 C 324.143 -0.662376 -1.52321 0
M  V30 3234 O 325.328 -0.906675 -1.67881 0
M  V30 3235 C 322.468 -2.03087 -2.79015 0
M  V30 3236 C 321.581 -3.30799 -2.77842 0
M  V30 3237 C 320.716 -3.42285 -4.0622 0
M  V30 3238 C 319.755 -4.6395 -3.9927 0
M  V30 3239 N 318.892 -4.72477 -5.19336 0
M  V30 3240 H 323.732 -2.73703 -1.17858 0
M  V30 3241 H 321.269 -1.35568 -0.570949 0
M  V30 3242 H 323.227 -2.1349 -3.58438 0
M  V30 3243 H 321.857 -1.14375 -3.01858 0
M  V30 3244 H 320.909 -3.29244 -1.90533 0
M  V30 3245 H 322.221 -4.20314 -2.68584 0
M  V30 3246 H 321.375 -3.52113 -4.94066 0
M  V30 3247 H 320.114 -2.50823 -4.18258 0
M  V30 3248 H 319.119 -4.54201 -3.09809 0
M  V30 3249 H 320.344 -5.56775 -3.88817 0
M  V30 3250 H 318.29 -3.83924 -5.3192 0
M  V30 3251 H 318.207 -5.55927 -5.12329 0
M  V30 3252 H 319.475 -4.86613 -6.08957 0
M  V30 3253 N 323.704 0.605807 -1.45491 0
M  V30 3254 C 324.95 1.36679 -1.49823 0
M  V30 3255 C 325.283 1.93693 -0.140175 0
M  V30 3256 O 324.558 1.75158 0.845581 0
M  V30 3257 C 324.841 2.51337 -2.57879 0
M  V30 3258 C 324.694 1.99508 -4.03134 0
M  V30 3259 C 326.013 3.53463 -2.62205 0
M  V30 3260 H 323.132 0.495617 -0.545466 0
M  V30 3261 H 325.774 0.682732 -1.7731 0
M  V30 3262 H 323.924 3.09691 -2.34571 0
M  V30 3263 H 325.596 1.45789 -4.37656 0
M  V30 3264 H 323.839 1.30496 -4.13707 0
M  V30 3265 H 324.51 2.82169 -4.74431 0
M  V30 3266 H 326.986 3.04953 -2.83095 0
M  V30 3267 H 325.862 4.31178 -3.39672 0
M  V30 3268 H 326.123 4.09197 -1.67363 0
M  V30 3269 N 325.182 1.32811 0.848464 0
M  V30 3270 C 326.092 1.24278 1.98978 0
M  V30 3271 C 327.108 0.155176 1.73307 0
M  V30 3272 O 328.284 0.376999 1.9784 0
M  V30 3273 C 325.349 0.972444 3.32783 0
M  V30 3274 C 324.41 2.14911 3.71634 0
M  V30 3275 C 323.643 1.89157 4.99054 0
M  V30 3276 O 323.866 0.837165 5.64223 0
M  V30 3277 O 322.8 2.75433 5.35183 0
M  V30 3278 H 326.626 2.20238 2.09115 0
M  V30 3279 H 324.211 1.12762 0.980052 0
M  V30 3280 H 326.093 0.838432 4.12975 0
M  V30 3281 H 324.768 0.043051 3.23671 0
M  V30 3282 H 323.675 2.33862 2.91992 0
M  V30 3283 H 325.008 3.06151 3.85399 0
M  V30 3284 N 326.66 -1.06551 1.16123 0
M  V30 3285 C 328.071 -1.60768 0.949232 0
M  V30 3286 C 328.422 -1.89523 -0.507508 0
M  V30 3287 O 327.547 -1.66671 -1.38021 0
M  V30 3288 C 328.142 -2.92086 1.71671 0
M  V30 3289 C 326.701 -3.43015 1.54977 0
M  V30 3290 C 325.848 -2.16947 1.72711 0
M  V30 3291 H 328.799 -0.895354 1.31031 0
M  V30 3292 H 328.82 -3.6138 1.19099 0
M  V30 3293 H 328.332 -2.71127 2.7769 0
M  V30 3294 H 326.433 -3.69039 0.513873 0
M  V30 3295 H 326.546 -4.18516 2.33198 0
M  V30 3296 H 324.91 -2.27041 1.15431 0
M  V30 3297 H 325.693 -1.98473 2.80113 0
M  V30 3298 O 328.177 -1.08916 -1.19246 0
M  V30 3299 H 328.868 -0.783022 -1.77168 0
M  V30 END ATOM
M  V30 BEGIN BOND
M  V30 END BOND
M  V30 END CTAB
M  END
$$$$
