drugbank_drug|DB06773 >>Human calcitonin<<<<
 OpenBabel12092119133D

466472  0  0  0  0  0  0  0  0999 V2000
   -0.9080    1.9825   -0.1171 H   0  0  0  0  0 15  0  0  0  0  0  0
    0.0000    1.5760    0.0000 N   0  0  0  0  0 15  0  0  0  0  0  0
    1.2400    1.9242    0.6894 C   0  0  0  0  0 15  0  0  0  0  0  0
    1.6040    0.8743    1.7094 C   0  0  0  0  0 15  0  0  0  0  0  0
    2.8050    1.1078    2.4491 O   0  0  0  0  0 15  0  0  0  0  0  0
    1.0760    3.3230    1.3157 C   0  0  0  0  0 15  0  0  0  0  0  0
    2.6350    3.8901    2.0302 S   0  0  0  0  0 15  0  0  0  0  0  0
   -0.5470    0.6736    0.2277 H   0  0  0  0  0 15  0  0  0  0  0  0
    2.0550    1.9542   -0.0567 H   0  0  0  0  0 15  0  0  0  0  0  0
    0.7590    4.0655    0.5605 H   0  0  0  0  0 15  0  0  0  0  0  0
    0.2900    3.3268    2.0997 H   0  0  0  0  0 15  0  0  0  0  0  0
    2.3050    3.7009    3.3053 H   0  0  0  0  0 15  0  0  0  0  0  0
    1.4781   -0.2728    1.5522 N   0  0  0  0  0 15  0  0  0  0  0  0
    2.7261   -1.0023    1.7549 C   0  0  0  0  0 15  0  0  0  0  0  0
    3.0471   -1.8681    0.5592 C   0  0  0  0  0 15  0  0  0  0  0  0
    2.3171   -1.9121   -0.4259 O   0  0  0  0  0 15  0  0  0  0  0  0
    0.8971   -0.3731    0.6472 H   0  0  0  0  0 15  0  0  0  0  0  0
    3.5591   -0.2969    1.9262 H   0  0  0  0  0 15  0  0  0  0  0  0
    2.6551   -1.6391    2.6559 H   0  0  0  0  0 15  0  0  0  0  0  0
    2.9562   -1.4816   -0.5373 N   0  0  0  0  0 15  0  0  0  0  0  0
    3.9042   -1.6257   -1.6635 C   0  0  0  0  0 15  0  0  0  0  0  0
    4.8982   -0.4924   -1.6209 C   0  0  0  0  0 15  0  0  0  0  0  0
    6.1042   -0.6708   -1.6703 O   0  0  0  0  0 15  0  0  0  0  0  0
    2.4792   -0.5120   -0.5508 H   0  0  0  0  0 15  0  0  0  0  0  0
    4.4502   -2.5718   -1.5134 H   0  0  0  0  0 15  0  0  0  0  0  0
    3.1992   -1.6758   -3.0465 C   0  0  0  0  0 15  0  0  0  0  0  0
    2.5222   -2.5415   -3.0862 H   0  0  0  0  0 15  0  0  0  0  0  0
    3.9622   -1.8171   -3.8309 H   0  0  0  0  0 15  0  0  0  0  0  0
    2.4212   -0.4130   -3.3436 C   0  0  0  0  0 15  0  0  0  0  0  0
    2.9512    0.4773   -3.9885 O   0  0  0  0  0 15  0  0  0  0  0  0
    1.1572   -0.2870   -2.8918 N   0  0  0  0  0 15  0  0  0  0  0  0
    0.7042   -1.0124   -2.3687 H   0  0  0  0  0 15  0  0  0  0  0  0
    0.6622    0.5570   -3.0943 H   0  0  0  0  0 15  0  0  0  0  0  0
    4.4343    0.7856   -1.3662 N   0  0  0  0  0 15  0  0  0  0  0  0
    5.3643    1.9126   -1.3395 C   0  0  0  0  0 15  0  0  0  0  0  0
    6.3453    1.6879   -0.2103 C   0  0  0  0  0 15  0  0  0  0  0  0
    7.5303    1.8985   -0.4086 O   0  0  0  0  0 15  0  0  0  0  0  0
    4.6603    3.2834   -1.1319 C   0  0  0  0  0 15  0  0  0  0  0  0
    3.6143    3.6533   -2.2297 C   0  0  0  0  0 15  0  0  0  0  0  0
    2.9403    5.0081   -1.8734 C   0  0  0  0  0 15  0  0  0  0  0  0
    4.2403    3.7352   -3.6508 C   0  0  0  0  0 15  0  0  0  0  0  0
    5.9343    1.9375   -2.2825 H   0  0  0  0  0 15  0  0  0  0  0  0
    3.4803    0.9308   -1.0987 H   0  0  0  0  0 15  0  0  0  0  0  0
    5.4333    4.0680   -1.0995 H   0  0  0  0  0 15  0  0  0  0  0  0
    4.1573    3.2624   -0.1533 H   0  0  0  0  0 15  0  0  0  0  0  0
    2.8163    2.8917   -2.2534 H   0  0  0  0  0 15  0  0  0  0  0  0
    2.4643    4.9523   -0.8805 H   0  0  0  0  0 15  0  0  0  0  0  0
    2.1643    5.2653   -2.6085 H   0  0  0  0  0 15  0  0  0  0  0  0
    3.6883    5.8169   -1.8567 H   0  0  0  0  0 15  0  0  0  0  0  0
    5.1023    4.4217   -3.6491 H   0  0  0  0  0 15  0  0  0  0  0  0
    3.4993    4.1073   -4.3752 H   0  0  0  0  0 15  0  0  0  0  0  0
    4.5693    2.7453   -3.9970 H   0  0  0  0  0 15  0  0  0  0  0  0
    5.9124    1.2097    1.0102 N   0  0  0  0  0 15  0  0  0  0  0  0
    7.1374    1.0503    1.7884 C   0  0  0  0  0 15  0  0  0  0  0  0
    7.5624   -0.3958    1.8389 C   0  0  0  0  0 15  0  0  0  0  0  0
    6.9204   -1.2853    1.2787 O   0  0  0  0  0 15  0  0  0  0  0  0
    6.9684    1.6460    3.2084 C   0  0  0  0  0 15  0  0  0  0  0  0
    6.0724    0.8880    4.0273 O   0  0  0  0  0 15  0  0  0  0  0  0
    5.4134    0.3700    0.5514 H   0  0  0  0  0 15  0  0  0  0  0  0
    7.9434    1.6040    1.2702 H   0  0  0  0  0 15  0  0  0  0  0  0
    7.9534    1.6861    3.7153 H   0  0  0  0  0 15  0  0  0  0  0  0
    6.6284    2.6984    3.1648 H   0  0  0  0  0 15  0  0  0  0  0  0
    5.2054    0.9226    3.6131 H   0  0  0  0  0 15  0  0  0  0  0  0
    7.3905   -1.2043    1.0166 N   0  0  0  0  0 15  0  0  0  0  0  0
    8.6185   -1.9378    0.7251 C   0  0  0  0  0 15  0  0  0  0  0  0
    9.0335   -1.7477   -0.7142 C   0  0  0  0  0 15  0  0  0  0  0  0
    8.3905   -1.0617   -1.4844 O   0  0  0  0  0 15  0  0  0  0  0  0
    8.4415   -3.4588    1.0513 C   0  0  0  0  0 15  0  0  0  0  0  0
    8.1625   -3.6426    2.4341 O   0  0  0  0  0 15  0  0  0  0  0  0
    9.6635   -4.3637    0.7809 C   0  0  0  0  0 15  0  0  0  0  0  0
    6.8835   -0.6159    0.2663 H   0  0  0  0  0 15  0  0  0  0  0  0
    9.4275   -1.5292    1.3578 H   0  0  0  0  0 15  0  0  0  0  0  0
    7.5825   -3.8461    0.4641 H   0  0  0  0  0 15  0  0  0  0  0  0
    7.9965   -4.5825    2.5517 H   0  0  0  0  0 15  0  0  0  0  0  0
    9.4705   -5.4174    1.0592 H   0  0  0  0  0 15  0  0  0  0  0  0
    9.9475   -4.3827   -0.2849 H   0  0  0  0  0 15  0  0  0  0  0  0
   10.5535   -4.0330    1.3503 H   0  0  0  0  0 15  0  0  0  0  0  0
    8.8686   -0.7928   -1.3621 N   0  0  0  0  0 15  0  0  0  0  0  0
   10.1086   -0.3722   -2.0098 C   0  0  0  0  0 15  0  0  0  0  0  0
   10.4726    1.0375   -1.6156 C   0  0  0  0  0 15  0  0  0  0  0  0
   11.6736    1.5593   -2.1895 O   0  0  0  0  0 15  0  0  0  0  0  0
    9.9446   -0.5346   -3.5338 C   0  0  0  0  0 15  0  0  0  0  0  0
   11.5036   -0.2024   -4.3833 S   0  0  0  0  0 15  0  0  0  0  0  0
    8.3216   -0.1420   -0.6967 H   0  0  0  0  0 15  0  0  0  0  0  0
   10.9236   -1.0321   -1.6604 H   0  0  0  0  0 15  0  0  0  0  0  0
    9.6276   -1.5608   -3.7956 H   0  0  0  0  0 15  0  0  0  0  0  0
    9.1586    0.1411   -3.9315 H   0  0  0  0  0 15  0  0  0  0  0  0
   11.1736    0.9949   -4.8612 H   0  0  0  0  0 15  0  0  0  0  0  0
   10.3467    1.4787   -0.5451 N   0  0  0  0  0 15  0  0  0  0  0  0
   11.2797    2.2675    0.2569 C   0  0  0  0  0 15  0  0  0  0  0  0
   12.2577    1.3329    0.9312 C   0  0  0  0  0 15  0  0  0  0  0  0
   13.4417    1.6266    0.9526 O   0  0  0  0  0 15  0  0  0  0  0  0
   10.5687    3.0998    1.3650 C   0  0  0  0  0 15  0  0  0  0  0  0
    9.6147    4.1892    0.8005 C   0  0  0  0  0 15  0  0  0  0  0  0
   10.4477    5.3440   -0.3435 S   0  0  0  0  0 15  0  0  0  0  0  0
   11.6037    6.2119    0.7667 C   0  0  0  0  0 15  0  0  0  0  0  0
   11.8367    2.9442   -0.4125 H   0  0  0  0  0 15  0  0  0  0  0  0
    9.3697    1.5081   -0.3312 H   0  0  0  0  0 15  0  0  0  0  0  0
   11.3277    3.5850    1.9997 H   0  0  0  0  0 15  0  0  0  0  0  0
    9.9887    2.4169    2.0062 H   0  0  0  0  0 15  0  0  0  0  0  0
    9.1817    4.7684    1.6323 H   0  0  0  0  0 15  0  0  0  0  0  0
    8.7837    3.7321    0.2422 H   0  0  0  0  0 15  0  0  0  0  0  0
   11.0757    6.5680    1.6618 H   0  0  0  0  0 15  0  0  0  0  0  0
   12.0187    7.0774    0.2252 H   0  0  0  0  0 15  0  0  0  0  0  0
   12.4267    5.5457    1.0540 H   0  0  0  0  0 15  0  0  0  0  0  0
   11.8248    0.2810    1.5507 N   0  0  0  0  0 15  0  0  0  0  0  0
   12.7548   -0.5975    2.2573 C   0  0  0  0  0 15  0  0  0  0  0  0
   13.7358   -1.1542    1.2495 C   0  0  0  0  0 15  0  0  0  0  0  0
   14.9208   -1.1872    1.5368 O   0  0  0  0  0 15  0  0  0  0  0  0
   12.0508   -1.7789    2.9828 C   0  0  0  0  0 15  0  0  0  0  0  0
   11.0048   -1.3535    4.0604 C   0  0  0  0  0 15  0  0  0  0  0  0
   10.3308   -2.6185    4.6620 C   0  0  0  0  0 15  0  0  0  0  0  0
   11.6308   -0.4994    5.1991 C   0  0  0  0  0 15  0  0  0  0  0  0
   13.3248   -0.0082    2.9940 H   0  0  0  0  0 15  0  0  0  0  0  0
   10.8708   -0.0025    1.4400 H   0  0  0  0  0 15  0  0  0  0  0  0
   12.8238   -2.3994    3.4642 H   0  0  0  0  0 15  0  0  0  0  0  0
   11.5478   -2.3940    2.2216 H   0  0  0  0  0 15  0  0  0  0  0  0
   10.2068   -0.7562    3.5872 H   0  0  0  0  0 15  0  0  0  0  0  0
    9.8548   -3.2163    3.8673 H   0  0  0  0  0 15  0  0  0  0  0  0
    9.5548   -2.3409    5.3896 H   0  0  0  0  0 15  0  0  0  0  0  0
   11.0788   -3.2473    5.1709 H   0  0  0  0  0 15  0  0  0  0  0  0
   12.4928   -1.0250    5.6406 H   0  0  0  0  0 15  0  0  0  0  0  0
   10.8898   -0.3164    5.9927 H   0  0  0  0  0 15  0  0  0  0  0  0
   11.9598    0.4805    4.8251 H   0  0  0  0  0 15  0  0  0  0  0  0
   13.3029   -1.5760    0.0084 N   0  0  0  0  0 15  0  0  0  0  0  0
   14.5509   -1.9055   -0.6734 C   0  0  0  0  0 15  0  0  0  0  0  0
   14.8719   -0.8833   -1.7385 C   0  0  0  0  0 15  0  0  0  0  0  0
   14.1419    0.0781   -1.9574 O   0  0  0  0  0 15  0  0  0  0  0  0
   12.7219   -0.7033   -0.2517 H   0  0  0  0  0 15  0  0  0  0  0  0
   15.3839   -1.9483    0.0513 H   0  0  0  0  0 15  0  0  0  0  0  0
   14.4799   -2.9056   -1.1394 H   0  0  0  0  0 15  0  0  0  0  0  0
   14.7810    0.2645   -1.5536 N   0  0  0  0  0 15  0  0  0  0  0  0
   16.0090    1.0130   -1.8040 C   0  0  0  0  0 15  0  0  0  0  0  0
   16.4240    1.7962   -0.5816 C   0  0  0  0  0 15  0  0  0  0  0  0
   15.7810    1.7688    0.4495 O   0  0  0  0  0 15  0  0  0  0  0  0
   15.8320    1.9649   -3.0344 C   0  0  0  0  0 15  0  0  0  0  0  0
   15.5530    1.2134   -4.2096 O   0  0  0  0  0 15  0  0  0  0  0  0
   17.0540    2.8308   -3.4115 C   0  0  0  0  0 15  0  0  0  0  0  0
   14.2740    0.2989   -0.6008 H   0  0  0  0  0 15  0  0  0  0  0  0
   16.8180    0.2927   -2.0239 H   0  0  0  0  0 15  0  0  0  0  0  0
   14.9730    2.6396   -2.8355 H   0  0  0  0  0 15  0  0  0  0  0  0
   15.3870    1.8557   -4.9057 H   0  0  0  0  0 15  0  0  0  0  0  0
   16.8610    3.4565   -4.3038 H   0  0  0  0  0 15  0  0  0  0  0  0
   17.3380    3.5329   -2.6093 H   0  0  0  0  0 15  0  0  0  0  0  0
   17.9440    2.2108   -3.6332 H   0  0  0  0  0 15  0  0  0  0  0  0
   16.2591    1.4844    0.5294 N   0  0  0  0  0 15  0  0  0  0  0  0
   17.4891    1.5992    1.3080 C   0  0  0  0  0 15  0  0  0  0  0  0
   17.8971    0.2588    1.8742 C   0  0  0  0  0 15  0  0  0  0  0  0
   17.2401   -0.7621    1.6715 O   0  0  0  0  0 15  0  0  0  0  0  0
   17.3021    2.5869    2.4964 C   0  0  0  0  0 15  0  0  0  0  0  0
   16.9661    4.0374    2.1410 C   0  0  0  0  0 15  0  0  0  0  0  0
   17.9631    4.9141    1.6974 C   0  0  0  0  0 15  0  0  0  0  0  0
   15.6481    4.4929    2.2461 C   0  0  0  0  0 15  0  0  0  0  0  0
   17.6421    6.2265    1.3635 C   0  0  0  0  0 15  0  0  0  0  0  0
   15.3291    5.8054    1.9083 C   0  0  0  0  0 15  0  0  0  0  0  0
   16.3271    6.6704    1.4677 C   0  0  0  0  0 15  0  0  0  0  0  0
   16.0151    7.9586    1.1344 O   0  0  0  0  0 15  0  0  0  0  0  0
   15.7471    0.5420    0.4040 H   0  0  0  0  0 15  0  0  0  0  0  0
   18.3011    1.9500    0.6453 H   0  0  0  0  0 15  0  0  0  0  0  0
   16.5311    2.1873    3.1889 H   0  0  0  0  0 15  0  0  0  0  0  0
   18.2201    2.6000    3.1170 H   0  0  0  0  0 15  0  0  0  0  0  0
   18.9861    4.5746    1.6109 H   0  0  0  0  0 15  0  0  0  0  0  0
   14.8651    3.8214    2.5785 H   0  0  0  0  0 15  0  0  0  0  0  0
   18.4091    6.9012    1.0189 H   0  0  0  0  0 15  0  0  0  0  0  0
   14.3061    6.1402    1.9912 H   0  0  0  0  0 15  0  0  0  0  0  0
   15.0741    8.0861    1.2683 H   0  0  0  0  0 15  0  0  0  0  0  0
   17.7372   -0.7783    1.3704 N   0  0  0  0  0 15  0  0  0  0  0  0
   18.9652   -1.5673    1.3506 C   0  0  0  0  0 15  0  0  0  0  0  0
   19.3802   -1.8869   -0.0656 C   0  0  0  0  0 15  0  0  0  0  0  0
   18.7372   -1.5096   -1.0255 O   0  0  0  0  0 15  0  0  0  0  0  0
   18.7882   -2.8816    2.1828 C   0  0  0  0  0 15  0  0  0  0  0  0
   18.5092   -2.5758    3.5438 O   0  0  0  0  0 15  0  0  0  0  0  0
   20.0102   -3.8242    2.2421 C   0  0  0  0  0 15  0  0  0  0  0  0
   17.2302   -0.4858    0.4629 H   0  0  0  0  0 15  0  0  0  0  0  0
   19.7742   -0.9652    1.8029 H   0  0  0  0  0 15  0  0  0  0  0  0
   17.9292   -3.4482    1.7658 H   0  0  0  0  0 15  0  0  0  0  0  0
   18.3432   -3.4170    3.9792 H   0  0  0  0  0 15  0  0  0  0  0  0
   19.8172   -4.7167    2.8677 H   0  0  0  0  0 15  0  0  0  0  0  0
   20.2942   -4.2108    1.2486 H   0  0  0  0  0 15  0  0  0  0  0  0
   20.9002   -3.3170    2.6619 H   0  0  0  0  0 15  0  0  0  0  0  0
   19.2153   -1.2150   -1.0038 N   0  0  0  0  0 15  0  0  0  0  0  0
   20.1473   -0.9332   -2.0934 C   0  0  0  0  0 15  0  0  0  0  0  0
   21.1603    0.0841   -1.6258 C   0  0  0  0  0 15  0  0  0  0  0  0
   22.3493   -0.1486   -1.7788 O   0  0  0  0  0 15  0  0  0  0  0  0
   19.4493   -0.3799   -3.3676 C   0  0  0  0  0 15  0  0  0  0  0  0
   18.6223   -1.4518   -4.1260 C   0  0  0  0  0 15  0  0  0  0  0  0
   17.6813   -0.9075   -5.1832 C   0  0  0  0  0 15  0  0  0  0  0  0
   16.7073   -1.5912   -5.4651 O   0  0  0  0  0 15  0  0  0  0  0  0
   17.9093    0.2766   -5.7984 N   0  0  0  0  0 15  0  0  0  0  0  0
   20.6743   -1.8712   -2.3410 H   0  0  0  0  0 15  0  0  0  0  0  0
   18.2353   -1.1204   -1.1687 H   0  0  0  0  0 15  0  0  0  0  0  0
   20.2273   -0.0013   -4.0470 H   0  0  0  0  0 15  0  0  0  0  0  0
   18.7973    0.4630   -3.0915 H   0  0  0  0  0 15  0  0  0  0  0  0
   18.0173   -2.0041   -3.3945 H   0  0  0  0  0 15  0  0  0  0  0  0
   19.3053   -2.1733   -4.6005 H   0  0  0  0  0 15  0  0  0  0  0  0
   18.7033    0.8491   -5.5929 H   0  0  0  0  0 15  0  0  0  0  0  0
   17.2603    0.5967   -6.4906 H   0  0  0  0  0 15  0  0  0  0  0  0
   20.6934    1.1989   -1.0230 N   0  0  0  0  0 15  0  0  0  0  0  0
   21.9704    1.8515   -0.6308 C   0  0  0  0  0 15  0  0  0  0  0  0
   22.3504    1.9139    0.8908 C   0  0  0  0  0 15  0  0  0  0  0  0
   21.6984    1.4264    1.7851 O   0  0  0  0  0 15  0  0  0  0  0  0
   21.9084    3.2444   -1.2860 C   0  0  0  0  0 15  0  0  0  0  0  0
   23.2564    4.0066   -1.4055 C   0  0  0  0  0 15  0  0  0  0  0  0
   24.2804    3.3382   -1.2427 O   0  0  0  0  0 15  0  0  0  0  0  0
   23.1394    5.2039   -1.6691 O   0  0  0  0  0 15  0  0  0  0  0  0
   20.2334    0.7976   -0.2185 H   0  0  0  0  0 15  0  0  0  0  0  0
   22.7794    1.2743   -1.1207 H   0  0  0  0  0 15  0  0  0  0  0  0
   21.5514    3.1470   -2.3255 H   0  0  0  0  0 15  0  0  0  0  0  0
   21.1744    3.8980   -0.7836 H   0  0  0  0  0 15  0  0  0  0  0  0
   22.1715    0.8000    1.3578 N   0  0  0  0  0 15  0  0  0  0  0  0
   23.4185    0.3773    1.9895 C   0  0  0  0  0 15  0  0  0  0  0  0
   23.7465   -1.0538    1.6348 C   0  0  0  0  0 15  0  0  0  0  0  0
   23.0015   -1.7446    0.8867 O   0  0  0  0  0 15  0  0  0  0  0  0
   23.3005    0.5003    3.5388 C   0  0  0  0  0 15  0  0  0  0  0  0
   22.9665    1.8937    4.0920 C   0  0  0  0  0 15  0  0  0  0  0  0
   21.6285    2.2750    4.2403 C   0  0  0  0  0 15  0  0  0  0  0  0
   23.9805    2.8057    4.3924 C   0  0  0  0  0 15  0  0  0  0  0  0
   21.3085    3.5620    4.6620 C   0  0  0  0  0 15  0  0  0  0  0  0
   23.6605    4.0871    4.8284 C   0  0  0  0  0 15  0  0  0  0  0  0
   22.3245    4.4684    4.9587 C   0  0  0  0  0 15  0  0  0  0  0  0
   21.5945    0.1381    0.7280 H   0  0  0  0  0 15  0  0  0  0  0  0
   24.2415    1.0196    1.6210 H   0  0  0  0  0 15  0  0  0  0  0  0
   22.5465   -0.2254    3.9115 H   0  0  0  0  0 15  0  0  0  0  0  0
   24.2435    0.1541    4.0070 H   0  0  0  0  0 15  0  0  0  0  0  0
   20.8335    1.5875    3.9812 H   0  0  0  0  0 15  0  0  0  0  0  0
   25.0175    2.5237    4.2735 H   0  0  0  0  0 15  0  0  0  0  0  0
   20.2735    3.8560    4.7447 H   0  0  0  0  0 15  0  0  0  0  0  0
   24.4475    4.7948    5.0505 H   0  0  0  0  0 15  0  0  0  0  0  0
   22.0745    5.4662    5.2831 H   0  0  0  0  0 15  0  0  0  0  0  0
   23.6496   -1.4758    0.5530 N   0  0  0  0  0 15  0  0  0  0  0  0
   24.5976   -2.3165   -0.2102 C   0  0  0  0  0 15  0  0  0  0  0  0
   25.5916   -1.4266   -0.9134 C   0  0  0  0  0 15  0  0  0  0  0  0
   26.7976   -1.5945   -0.8352 O   0  0  0  0  0 15  0  0  0  0  0  0
   23.1726   -0.7470   -0.0867 H   0  0  0  0  0 15  0  0  0  0  0  0
   25.1436   -2.9387    0.5181 H   0  0  0  0  0 15  0  0  0  0  0  0
   23.8926   -3.2523   -1.2298 C   0  0  0  0  0 15  0  0  0  0  0  0
   23.2156   -3.9366   -0.6981 H   0  0  0  0  0 15  0  0  0  0  0  0
   24.6556   -3.8689   -1.7347 H   0  0  0  0  0 15  0  0  0  0  0  0
   23.1146   -2.4845   -2.2754 C   0  0  0  0  0 15  0  0  0  0  0  0
   23.6446   -2.2258   -3.3439 O   0  0  0  0  0 15  0  0  0  0  0  0
   21.8506   -2.0953   -2.0136 N   0  0  0  0  0 15  0  0  0  0  0  0
   21.3976   -2.3077   -1.1448 H   0  0  0  0  0 15  0  0  0  0  0  0
   21.3556   -1.5848   -2.7154 H   0  0  0  0  0 15  0  0  0  0  0  0
   25.1277   -0.2892   -1.5492 N   0  0  0  0  0 15  0  0  0  0  0  0
   26.0747    0.5921   -2.2308 C   0  0  0  0  0 15  0  0  0  0  0  0
   27.0447    1.1388   -1.2091 C   0  0  0  0  0 15  0  0  0  0  0  0
   28.2297    1.1855   -1.4950 O   0  0  0  0  0 15  0  0  0  0  0  0
   25.3697    1.7638   -2.9662 C   0  0  0  0  0 15  0  0  0  0  0  0
   24.4827    1.2496   -4.1353 C   0  0  0  0  0 15  0  0  0  0  0  0
   23.6177    2.3842   -4.7469 C   0  0  0  0  0 15  0  0  0  0  0  0
   22.6567    1.8407   -5.8377 C   0  0  0  0  0 15  0  0  0  0  0  0
   21.7937    2.9106   -6.3893 N   0  0  0  0  0 15  0  0  0  0  0  0
   26.6337    0.0043   -2.9800 H   0  0  0  0  0 15  0  0  0  0  0  0
   24.1707   -0.0096   -1.4710 H   0  0  0  0  0 15  0  0  0  0  0  0
   26.1287    2.4527   -3.3749 H   0  0  0  0  0 15  0  0  0  0  0  0
   24.7587    2.3234   -2.2410 H   0  0  0  0  0 15  0  0  0  0  0  0
   23.8107    0.4533   -3.7769 H   0  0  0  0  0 15  0  0  0  0  0  0
   25.1227    0.8117   -4.9215 H   0  0  0  0  0 15  0  0  0  0  0  0
   24.2767    3.1528   -5.1835 H   0  0  0  0  0 15  0  0  0  0  0  0
   23.0157    2.8553   -3.9538 H   0  0  0  0  0 15  0  0  0  0  0  0
   22.0207    1.0570   -5.3954 H   0  0  0  0  0 15  0  0  0  0  0  0
   23.2457    1.3788   -6.6496 H   0  0  0  0  0 15  0  0  0  0  0  0
   21.1917    3.3753   -5.6251 H   0  0  0  0  0 15  0  0  0  0  0  0
   21.1087    2.5172   -7.1286 H   0  0  0  0  0 15  0  0  0  0  0  0
   22.3767    3.6785   -6.8725 H   0  0  0  0  0 15  0  0  0  0  0  0
   26.6058    1.5759   -0.0167 N   0  0  0  0  0 15  0  0  0  0  0  0
   27.8528    1.9128    0.6646 C   0  0  0  0  0 15  0  0  0  0  0  0
   28.1808    0.8919    1.7284 C   0  0  0  0  0 15  0  0  0  0  0  0
   27.4358   -0.1009    1.9544 O   0  0  0  0  0 15  0  0  0  0  0  0
   27.7348    3.3172    1.3303 C   0  0  0  0  0 15  0  0  0  0  0  0
   27.4008    4.4914    0.3980 C   0  0  0  0  0 15  0  0  0  0  0  0
   26.0628    4.8099    0.1414 C   0  0  0  0  0 15  0  0  0  0  0  0
   28.4148    5.2063   -0.2428 C   0  0  0  0  0 15  0  0  0  0  0  0
   25.7428    5.8170   -0.7641 C   0  0  0  0  0 15  0  0  0  0  0  0
   28.0948    6.2231   -1.1363 C   0  0  0  0  0 15  0  0  0  0  0  0
   26.7588    6.5261   -1.4020 C   0  0  0  0  0 15  0  0  0  0  0  0
   26.0288    0.7000    0.2432 H   0  0  0  0  0 15  0  0  0  0  0  0
   28.6758    1.9135   -0.0758 H   0  0  0  0  0 15  0  0  0  0  0  0
   26.9808    3.2786    2.1452 H   0  0  0  0  0 15  0  0  0  0  0  0
   28.6778    3.5505    1.8638 H   0  0  0  0  0 15  0  0  0  0  0  0
   25.2678    4.2426    0.6082 H   0  0  0  0  0 15  0  0  0  0  0  0
   29.4518    4.9627   -0.0576 H   0  0  0  0  0 15  0  0  0  0  0  0
   24.7078    6.0353   -0.9777 H   0  0  0  0  0 15  0  0  0  0  0  0
   28.8818    6.7683   -1.6392 H   0  0  0  0  0 15  0  0  0  0  0  0
   26.5088    7.3047   -2.1053 H   0  0  0  0  0 15  0  0  0  0  0  0
   28.0839   -0.2563    1.5550 N   0  0  0  0  0 15  0  0  0  0  0  0
   29.0339   -1.3198    1.8592 C   0  0  0  0  0 15  0  0  0  0  0  0
   30.0179   -1.4393    0.7193 C   0  0  0  0  0 15  0  0  0  0  0  0
   31.2099   -1.4733    0.9810 O   0  0  0  0  0 15  0  0  0  0  0  0
   28.3389   -2.6770    2.1492 C   0  0  0  0  0 15  0  0  0  0  0  0
   27.4249   -2.5980    3.3521 C   0  0  0  0  0 15  0  0  0  0  0  0
   27.8159   -2.2152    4.5471 N   0  0  0  0  0 15  0  0  0  0  0  0
   26.1139   -2.9083    3.3813 C   0  0  0  0  0 15  0  0  0  0  0  0
   26.8149   -2.2402    5.3683 C   0  0  0  0  0 15  0  0  0  0  0  0
   25.7909   -2.6316    4.7566 N   0  0  0  0  0 15  0  0  0  0  0  0
   29.5929   -1.0142    2.7585 H   0  0  0  0  0 15  0  0  0  0  0  0
   27.1069   -0.4649    1.5560 H   0  0  0  0  0 15  0  0  0  0  0  0
   29.1039   -3.4444    2.3487 H   0  0  0  0  0 15  0  0  0  0  0  0
   27.7639   -2.9914    1.2628 H   0  0  0  0  0 15  0  0  0  0  0  0
   28.7749   -1.9322    4.8051 H   0  0  0  0  0 15  0  0  0  0  0  0
   25.4519   -3.2687    2.5974 H   0  0  0  0  0 15  0  0  0  0  0  0
   26.8419   -1.9685    6.4242 H   0  0  0  0  0 15  0  0  0  0  0  0
   29.5620   -1.4872   -0.5215 N   0  0  0  0  0 15  0  0  0  0  0  0
   30.7900   -1.6084   -1.3014 C   0  0  0  0  0 15  0  0  0  0  0  0
   31.2050   -0.2719   -1.8683 C   0  0  0  0  0 15  0  0  0  0  0  0
   30.5620    0.7400   -1.6683 O   0  0  0  0  0 15  0  0  0  0  0  0
   30.6130   -2.6616   -2.4463 C   0  0  0  0  0 15  0  0  0  0  0  0
   30.3340   -3.9462   -1.9027 O   0  0  0  0  0 15  0  0  0  0  0  0
   31.8350   -2.8880   -3.3632 C   0  0  0  0  0 15  0  0  0  0  0  0
   29.0550   -0.5421   -0.3955 H   0  0  0  0  0 15  0  0  0  0  0  0
   31.5990   -1.9461   -0.6283 H   0  0  0  0  0 15  0  0  0  0  0  0
   29.7540   -2.3522   -3.0781 H   0  0  0  0  0 15  0  0  0  0  0  0
   30.1680   -4.5247   -2.6528 H   0  0  0  0  0 15  0  0  0  0  0  0
   31.6420   -3.6626   -4.1298 H   0  0  0  0  0 15  0  0  0  0  0  0
   32.1190   -1.9793   -3.9207 H   0  0  0  0  0 15  0  0  0  0  0  0
   32.7250   -3.2106   -2.7892 H   0  0  0  0  0 15  0  0  0  0  0  0
   31.0401    0.7711   -1.3745 N   0  0  0  0  0 15  0  0  0  0  0  0
   32.2871    1.5296   -1.3270 C   0  0  0  0  0 15  0  0  0  0  0  0
   32.6151    1.9430    0.0883 C   0  0  0  0  0 15  0  0  0  0  0  0
   31.8701    1.6440    1.0617 O   0  0  0  0  0 15  0  0  0  0  0  0
   32.1691    2.8068   -2.2126 C   0  0  0  0  0 15  0  0  0  0  0  0
   31.8351    2.5839   -3.6952 C   0  0  0  0  0 15  0  0  0  0  0  0
   30.4971    2.5202   -4.0993 C   0  0  0  0  0 15  0  0  0  0  0  0
   32.8491    2.3847   -4.6345 C   0  0  0  0  0 15  0  0  0  0  0  0
   30.1771    2.2372   -5.4237 C   0  0  0  0  0 15  0  0  0  0  0  0
   32.5291    2.1169   -5.9613 C   0  0  0  0  0 15  0  0  0  0  0  0
   31.1931    2.0377   -6.3564 C   0  0  0  0  0 15  0  0  0  0  0  0
   30.4631    0.5597   -0.4856 H   0  0  0  0  0 15  0  0  0  0  0  0
   33.1101    0.8881   -1.6966 H   0  0  0  0  0 15  0  0  0  0  0  0
   31.4151    3.4939   -1.7729 H   0  0  0  0  0 15  0  0  0  0  0  0
   33.1121    3.3856   -2.1490 H   0  0  0  0  0 15  0  0  0  0  0  0
   29.7021    2.6421   -3.3748 H   0  0  0  0  0 15  0  0  0  0  0  0
   33.8861    2.4238   -4.3309 H   0  0  0  0  0 15  0  0  0  0  0  0
   29.1421    2.1608   -5.7194 H   0  0  0  0  0 15  0  0  0  0  0  0
   33.3161    1.9528   -6.6846 H   0  0  0  0  0 15  0  0  0  0  0  0
   30.9431    1.8161   -7.3819 H   0  0  0  0  0 15  0  0  0  0  0  0
   32.5182    1.2203    0.9973 N   0  0  0  0  0 15  0  0  0  0  0  0
   33.9292    1.0397    1.5507 C   0  0  0  0  0 15  0  0  0  0  0  0
   34.2802   -0.3982    1.9212 C   0  0  0  0  0 15  0  0  0  0  0  0
   33.4052   -1.2825    1.7430 O   0  0  0  0  0 15  0  0  0  0  0  0
   34.0002    1.8811    2.8178 C   0  0  0  0  0 15  0  0  0  0  0  0
   32.5592    1.7436    3.3358 C   0  0  0  0  0 15  0  0  0  0  0  0
   31.7062    1.8485    2.0671 C   0  0  0  0  0 15  0  0  0  0  0  0
   34.6572    1.3594    0.8189 H   0  0  0  0  0 15  0  0  0  0  0  0
   34.6782    1.3959    3.5397 H   0  0  0  0  0 15  0  0  0  0  0  0
   34.1902    2.9275    2.5479 H   0  0  0  0  0 15  0  0  0  0  0  0
   32.2912    0.7243    3.6549 H   0  0  0  0  0 15  0  0  0  0  0  0
   32.4042    2.5677    4.0448 H   0  0  0  0  0 15  0  0  0  0  0  0
   30.7682    1.2824    2.2006 H   0  0  0  0  0 15  0  0  0  0  0  0
   31.5512    2.9101    1.8211 H   0  0  0  0  0 15  0  0  0  0  0  0
   33.9963   -1.1934    1.0293 N   0  0  0  0  0 15  0  0  0  0  0  0
   34.9283   -2.2204    0.5686 C   0  0  0  0  0 15  0  0  0  0  0  0
   35.9413   -1.5886   -0.3558 C   0  0  0  0  0 15  0  0  0  0  0  0
   37.1303   -1.7785   -0.1521 O   0  0  0  0  0 15  0  0  0  0  0  0
   34.2303   -3.3836   -0.1908 C   0  0  0  0  0 15  0  0  0  0  0  0
   33.4033   -4.3112    0.7386 C   0  0  0  0  0 15  0  0  0  0  0  0
   32.4623   -5.2619    0.0246 C   0  0  0  0  0 15  0  0  0  0  0  0
   31.4883   -5.6546    0.6514 O   0  0  0  0  0 15  0  0  0  0  0  0
   32.6903   -5.6697   -1.2459 N   0  0  0  0  0 15  0  0  0  0  0  0
   35.4553   -2.6219    1.4518 H   0  0  0  0  0 15  0  0  0  0  0  0
   33.0163   -1.3402    0.9084 H   0  0  0  0  0 15  0  0  0  0  0  0
   35.0083   -3.9898   -0.6780 H   0  0  0  0  0 15  0  0  0  0  0  0
   33.5783   -2.9699   -0.9754 H   0  0  0  0  0 15  0  0  0  0  0  0
   32.7983   -3.6828    1.4059 H   0  0  0  0  0 15  0  0  0  0  0  0
   34.0863   -4.9000    1.3703 H   0  0  0  0  0 15  0  0  0  0  0  0
   33.4843   -5.3710   -1.7758 H   0  0  0  0  0 15  0  0  0  0  0  0
   32.0413   -6.2984   -1.6776 H   0  0  0  0  0 15  0  0  0  0  0  0
   35.4744   -0.8072   -1.3536 N   0  0  0  0  0 15  0  0  0  0  0  0
   36.7024   -0.4004   -2.0299 C   0  0  0  0  0 15  0  0  0  0  0  0
   37.1174    0.9889   -1.6083 C   0  0  0  0  0 15  0  0  0  0  0  0
   36.4744    1.6373   -0.8062 O   0  0  0  0  0 15  0  0  0  0  0  0
   36.5254   -0.4749   -3.5837 C   0  0  0  0  0 15  0  0  0  0  0  0
   36.2464   -1.8093   -3.9899 O   0  0  0  0  0 15  0  0  0  0  0  0
   37.7474   -0.0609   -4.4326 C   0  0  0  0  0 15  0  0  0  0  0  0
   34.9674   -0.1626   -0.6510 H   0  0  0  0  0 15  0  0  0  0  0  0
   37.5114   -1.0910   -1.7297 H   0  0  0  0  0 15  0  0  0  0  0  0
   35.6664    0.1675   -3.8704 H   0  0  0  0  0 15  0  0  0  0  0  0
   36.0804   -1.7726   -4.9364 H   0  0  0  0  0 15  0  0  0  0  0  0
   37.5544   -0.1641   -5.5176 H   0  0  0  0  0 15  0  0  0  0  0  0
   38.0314    0.9938   -4.2781 H   0  0  0  0  0 15  0  0  0  0  0  0
   38.6374   -0.6765   -4.1989 H   0  0  0  0  0 15  0  0  0  0  0  0
   36.9525    1.4729   -0.5608 N   0  0  0  0  0 15  0  0  0  0  0  0
   37.9155    2.2853    0.1745 C   0  0  0  0  0 15  0  0  0  0  0  0
   38.9155    1.3715    0.8394 C   0  0  0  0  0 15  0  0  0  0  0  0
   40.1055    1.5975    0.6947 O   0  0  0  0  0 15  0  0  0  0  0  0
   37.2375    3.1693    1.2556 C   0  0  0  0  0 15  0  0  0  0  0  0
   38.4305    2.9501   -0.5393 H   0  0  0  0  0 15  0  0  0  0  0  0
   35.9835    1.5303   -0.3179 H   0  0  0  0  0 15  0  0  0  0  0  0
   36.7185    2.5516    2.0016 H   0  0  0  0  0 15  0  0  0  0  0  0
   36.5035    3.8419    0.7836 H   0  0  0  0  0 15  0  0  0  0  0  0
   37.9935    3.7814    1.7719 H   0  0  0  0  0 15  0  0  0  0  0  0
   38.4306    0.2974    1.5477 N   0  0  0  0  0 15  0  0  0  0  0  0
   39.6796   -0.3137    1.9925 C   0  0  0  0  0 15  0  0  0  0  0  0
   39.9926   -1.5528    1.1894 C   0  0  0  0  0 15  0  0  0  0  0  0
   41.1986   -2.2383    1.5367 O   0  0  0  0  0 15  0  0  0  0  0  0
   39.6546   -0.6094    3.5470 C   0  0  0  0  0 15  0  0  0  0  0  0
   39.2626    0.6112    4.4381 C   0  0  0  0  0 15  0  0  0  0  0  0
   41.0066   -1.1819    4.0772 C   0  0  0  0  0 15  0  0  0  0  0  0
   38.9136    0.2888    5.9069 C   0  0  0  0  0 15  0  0  0  0  0  0
   37.8436   -0.1210    0.7442 H   0  0  0  0  0 15  0  0  0  0  0  0
   40.4946    0.4056    1.7896 H   0  0  0  0  0 15  0  0  0  0  0  0
   38.8766   -1.3881    3.7087 H   0  0  0  0  0 15  0  0  0  0  0  0
   40.0506    1.3875    4.3941 H   0  0  0  0  0 15  0  0  0  0  0  0
   38.3656    1.1021    4.0155 H   0  0  0  0  0 15  0  0  0  0  0  0
   40.9626   -1.4373    5.1502 H   0  0  0  0  0 15  0  0  0  0  0  0
   41.3056   -2.1230    3.5810 H   0  0  0  0  0 15  0  0  0  0  0  0
   41.8386   -0.4649    3.9507 H   0  0  0  0  0 15  0  0  0  0  0  0
   38.5776    1.1984    6.4445 H   0  0  0  0  0 15  0  0  0  0  0  0
   38.0976   -0.4503    5.9811 H   0  0  0  0  0 15  0  0  0  0  0  0
   39.7766   -0.1109    6.4690 H   0  0  0  0  0 15  0  0  0  0  0  0
   39.9087   -1.5758    0.0251 N   0  0  0  0  0 15  0  0  0  0  0  0
   41.1567   -1.9125   -0.6532 C   0  0  0  0  0 15  0  0  0  0  0  0
   41.4777   -0.9017   -1.7290 C   0  0  0  0  0 15  0  0  0  0  0  0
   40.7477    0.0574   -1.9582 O   0  0  0  0  0 15  0  0  0  0  0  0
   39.3277   -0.7059   -0.2442 H   0  0  0  0  0 15  0  0  0  0  0  0
   41.9897   -1.9477    0.0719 H   0  0  0  0  0 15  0  0  0  0  0  0
   41.0857   -2.9175   -1.1085 H   0  0  0  0  0 15  0  0  0  0  0  0
   41.3868    0.2480   -1.5564 N   0  0  0  0  0 15  0  0  0  0  0  0
   42.6328    0.9777   -1.7768 C   0  0  0  0  0 15  0  0  0  0  0  0
   42.9658    1.8502   -0.5901 C   0  0  0  0  0 15  0  0  0  0  0  0
   42.2408    1.9009    0.4116 O   0  0  0  0  0 15  0  0  0  0  0  0
   42.5238    1.8391   -3.0959 C   0  0  0  0  0 15  0  0  0  0  0  0
   42.3768    0.9949   -4.3866 C   0  0  0  0  0 15  0  0  0  0  0  0
   43.6958    2.8218   -3.3773 C   0  0  0  0  0 15  0  0  0  0  0  0
   40.8148    0.3540   -0.6464 H   0  0  0  0  0 15  0  0  0  0  0  0
   43.4568    0.2483   -1.8837 H   0  0  0  0  0 15  0  0  0  0  0  0
   41.6068    2.4610   -3.0061 H   0  0  0  0  0 15  0  0  0  0  0  0
   43.2788    0.3918   -4.5963 H   0  0  0  0  0 15  0  0  0  0  0  0
   41.5218    0.2992   -4.3277 H   0  0  0  0  0 15  0  0  0  0  0  0
   42.1928    1.6315   -5.2734 H   0  0  0  0  0 15  0  0  0  0  0  0
   44.6688    2.3013   -3.4667 H   0  0  0  0  0 15  0  0  0  0  0  0
   43.5448    3.3958   -4.3125 H   0  0  0  0  0 15  0  0  0  0  0  0
   43.8058    3.5859   -2.5859 H   0  0  0  0  0 15  0  0  0  0  0  0
   42.8649    1.4899    0.5136 N   0  0  0  0  0 15  0  0  0  0  0  0
   44.1129    1.5753    1.2660 C   0  0  0  0  0 15  0  0  0  0  0  0
   44.4339    0.2582    1.9328 C   0  0  0  0  0 15  0  0  0  0  0  0
   43.7039   -0.7215    1.8213 O   0  0  0  0  0 15  0  0  0  0  0  0
   42.2839    0.5804    0.4703 H   0  0  0  0  0 15  0  0  0  0  0  0
   44.9459    1.8555    0.5964 H   0  0  0  0  0 15  0  0  0  0  0  0
   44.0419    2.3649    2.0367 H   0  0  0  0  0 15  0  0  0  0  0  0
   44.3430   -0.7638    1.3786 N   0  0  0  0  0 15  0  0  0  0  0  0
   45.3060   -1.8589    1.3408 C   0  0  0  0  0 15  0  0  0  0  0  0
   46.3060   -1.5895    0.2433 C   0  0  0  0  0 15  0  0  0  0  0  0
   47.4960   -1.6688    0.4996 O   0  0  0  0  0 15  0  0  0  0  0  0
   44.6280   -3.2318    1.0849 C   0  0  0  0  0 15  0  0  0  0  0  0
   45.8210   -1.9065    2.3150 H   0  0  0  0  0 15  0  0  0  0  0  0
   43.3740   -0.9644    1.2300 H   0  0  0  0  0 15  0  0  0  0  0  0
   44.1090   -3.2409    0.1163 H   0  0  0  0  0 15  0  0  0  0  0  0
   43.8940   -3.4412    1.8794 H   0  0  0  0  0 15  0  0  0  0  0  0
   45.3840   -4.0325    1.0852 H   0  0  0  0  0 15  0  0  0  0  0  0
   45.8211   -1.2256   -0.9908 N   0  0  0  0  0 15  0  0  0  0  0  0
   47.2321   -1.0479   -1.5452 C   0  0  0  0  0 15  0  0  0  0  0  0
   47.5831    0.3880   -1.9233 C   0  0  0  0  0 15  0  0  0  0  0  0
   46.7081    1.2733   -1.7498 O   0  0  0  0  0 15  0  0  0  0  0  0
   47.3031   -1.8960   -2.8078 C   0  0  0  0  0 15  0  0  0  0  0  0
   45.8621   -1.7612   -3.3265 C   0  0  0  0  0 15  0  0  0  0  0  0
   45.0091   -1.8594   -2.0572 C   0  0  0  0  0 15  0  0  0  0  0  0
   47.9601   -1.3637   -0.8117 H   0  0  0  0  0 15  0  0  0  0  0  0
   47.9811   -1.4146   -3.5323 H   0  0  0  0  0 15  0  0  0  0  0  0
   47.4931   -2.9410   -2.5323 H   0  0  0  0  0 15  0  0  0  0  0  0
   45.5941   -0.7436   -3.6510 H   0  0  0  0  0 15  0  0  0  0  0  0
   45.7071   -2.5891   -4.0311 H   0  0  0  0  0 15  0  0  0  0  0  0
   44.0711   -1.2940   -2.1938 H   0  0  0  0  0 15  0  0  0  0  0  0
   44.8541   -2.9198   -1.8057 H   0  0  0  0  0 15  0  0  0  0  0  0
   47.3381    1.1220   -1.1616 O   0  0  0  0  0 15  0  0  0  0  0  0
   48.0291    1.7192   -0.8923 H   0  0  0  0  0 15  0  0  0  0  0  0
M  END
$$$$
