drugbank_drug|DB06720 "VPRIV" Sequence
 OpenBabel12092119123D

  0  0  0     0  0            999 V3000
M  V30 BEGIN CTAB
M  V30 COUNTS 7785 7905 0 0 0
M  V30 BEGIN ATOM
M  V30 1 H -0.908 1.98254 -0.117106 0
M  V30 2 N 0 1.576 0 0
M  V30 3 C 0.963 2.07369 0.976253 0
M  V30 4 C 1.963 0.98309 1.27248 0
M  V30 5 O 3.153 1.24574 1.21766 0
M  V30 6 C 0.285 2.51514 2.30116 0
M  V30 7 H 1.478 2.94892 0.545759 0
M  V30 8 H -0.969 1.54328 0.247471 0
M  V30 9 H -0.234 1.67234 2.77855 0
M  V30 10 H -0.449 3.31163 2.09937 0
M  V30 11 H 1.041 2.90345 3.00149 0
M  V30 12 N 1.4781 -0.272755 1.55222 0
M  V30 13 C 2.8941 -0.619959 1.47067 0
M  V30 14 C 3.0941 -1.895 0.684978 0
M  V30 15 O 2.1501 -2.51675 0.203931 0
M  V30 16 C 3.4631 -0.746693 2.91282 0
M  V30 17 C 5.0111 -0.840731 3.01497 0
M  V30 18 C 5.4861 -0.99924 4.46967 0
M  V30 19 N 6.9771 -1.06476 4.50796 0
M  V30 20 C 7.7121 -1.20621 5.6057 0
M  V30 21 N 7.2081 -1.31483 6.80209 0
M  V30 22 N 9.0011 -1.23733 5.48312 0
M  V30 23 H 1.1521 0.564606 2.04758 0
M  V30 24 H 3.4151 0.191177 0.928523 0
M  V30 25 H 3.1211 0.119753 3.51496 0
M  V30 26 H 2.9951 -1.6269 3.40311 0
M  V30 27 H 5.3821 -1.69764 2.41379 0
M  V30 28 H 5.4631 0.0640874 2.5572 0
M  V30 29 H 5.1071 -0.146984 5.07687 0
M  V30 30 H 5.0371 -1.91871 4.90401 0
M  V30 31 H 7.5281 -0.993196 3.64615 0
M  V30 32 H 7.8411 -1.42111 7.59621 0
M  V30 33 H 6.1861 -1.28487 6.8302 0
M  V30 34 H 9.3771 -1.14877 4.53785 0
M  V30 35 H 9.5501 -1.34412 6.33906 0
M  V30 36 N 2.9562 -1.48159 -0.537278 0
M  V30 37 C 4.3672 -1.49429 -1.11928 0
M  V30 38 C 4.7182 -0.26 -1.9447 0
M  V30 39 O 3.8432 0.633489 -2.0692 0
M  V30 40 C 4.4382 -2.70758 -2.03656 0
M  V30 41 C 2.9972 -2.74923 -2.57088 0
M  V30 42 C 2.1442 -2.42835 -1.3389 0
M  V30 43 H 5.0952 -1.55381 -0.322886 0
M  V30 44 H 5.1162 -2.48861 -2.87834 0
M  V30 45 H 4.6282 -3.60575 -1.43553 0
M  V30 46 H 2.7292 -1.89296 -3.20933 0
M  V30 47 H 2.8422 -3.76157 -2.9672 0
M  V30 48 H 1.2062 -1.93836 -1.65226 0
M  V30 49 H 1.9892 -3.34884 -0.755504 0
M  V30 50 N 4.4343 0.785586 -1.36625 0
M  V30 51 C 5.6743 1.55678 -1.32453 0
M  V30 52 C 6.0383 1.91769 0.0941089 0
M  V30 53 O 7.2393 2.67536 0.26042 0
M  V30 54 C 5.5103 2.79701 -2.22491 0
M  V30 55 S 7.0693 3.69907 -2.36038 0
M  V30 56 H 3.8873 0.533141 -0.470405 0
M  V30 57 H 6.4893 0.924953 -1.72235 0
M  V30 58 H 5.1933 2.51244 -3.24507 0
M  V30 59 H 4.7243 3.47854 -1.83742 0
M  V30 60 H 6.7393 4.71016 -1.56072 0
M  V30 61 N 5.9124 1.20967 1.01018 0
M  V30 62 C 7.1614 1.01796 1.74128 0
M  V30 63 C 7.4744 -0.449691 1.90361 0
M  V30 64 O 8.6804 -0.76068 2.60626 0
M  V30 65 C 7.1364 1.7727 3.13215 0
M  V30 66 C 6.7444 3.28171 3.04972 0
M  V30 67 C 8.4884 1.66489 3.90489 0
M  V30 68 C 6.3954 3.96156 4.39107 0
M  V30 69 H 5.3254 0.377276 0.652824 0
M  V30 70 H 7.9764 1.44651 1.12909 0
M  V30 71 H 6.3584 1.27205 3.75013 0
M  V30 72 H 7.5324 3.85499 2.52443 0
M  V30 73 H 5.8474 3.39437 2.41188 0
M  V30 74 H 8.4444 2.14617 4.89738 0
M  V30 75 H 8.7874 0.6222 4.11624 0
M  V30 76 H 9.3204 2.14003 3.35332 0
M  V30 77 H 6.0594 5.00604 4.23174 0
M  V30 78 H 5.5794 3.43617 4.91617 0
M  V30 79 H 7.2584 4.00774 5.07926 0
M  V30 80 N 7.3905 -1.2043 1.01659 0
M  V30 81 C 8.8015 -1.71517 0.737482 0
M  V30 82 C 9.1525 -1.81547 -0.743973 0
M  V30 83 O 8.2775 -1.47803 -1.58061 0
M  V30 84 C 8.8725 -3.11515 1.33206 0
M  V30 85 C 7.4315 -3.59912 1.10183 0
M  V30 86 C 6.5785 -2.37116 1.43776 0
M  V30 87 H 9.5295 -1.05444 1.18606 0
M  V30 88 H 9.5505 -3.73575 0.722636 0
M  V30 89 H 9.0625 -3.04182 2.41028 0
M  V30 90 H 7.1635 -3.72577 0.0412756 0
M  V30 91 H 7.2765 -4.44731 1.78188 0
M  V30 92 H 5.6405 -2.39857 0.856778 0
M  V30 93 H 6.4235 -2.32424 2.52654 0
M  V30 94 N 8.8686 -0.792821 -1.36206 0
M  V30 95 C 9.8156 -0.191653 -2.30003 0
M  V30 96 C 10.7856 0.666453 -1.52143 0
M  V30 97 O 11.9706 0.61442 -1.80636 0
M  V30 98 C 9.1106 0.664848 -3.38635 0
M  V30 99 C 8.2236 -0.212175 -4.31479 0
M  V30 100 C 7.3586 0.651022 -5.27196 0
M  V30 101 C 6.3976 -0.227247 -6.11678 0
M  V30 102 N 5.5346 0.595127 -6.99573 0
M  V30 103 H 10.3746 -0.996978 -2.80828 0
M  V30 104 H 7.9116 -0.503206 -1.38225 0
M  V30 105 H 9.8696 1.17645 -4.00269 0
M  V30 106 H 8.4996 1.43557 -2.89122 0
M  V30 107 H 7.5516 -0.841777 -3.70969 0
M  V30 108 H 8.8636 -0.888751 -4.90818 0
M  V30 109 H 8.0176 1.2283 -5.94136 0
M  V30 110 H 6.7566 1.36121 -4.68319 0
M  V30 111 H 5.7616 -0.816904 -5.43697 0
M  V30 112 H 6.9866 -0.93509 -6.72631 0
M  V30 113 H 4.9326 1.28955 -6.432 0
M  V30 114 H 4.8496 -0.0236952 -7.55996 0
M  V30 115 H 6.1176 1.15613 -7.70879 0
M  V30 116 N 10.3467 1.47872 -0.545128 0
M  V30 117 C 11.5717 2.07391 -0.0190611 0
M  V30 118 C 11.9967 1.39688 1.25971 0
M  V30 119 O 11.3547 0.467816 1.7516 0
M  V30 120 C 11.4027 3.60188 0.172335 0
M  V30 121 O 10.5067 3.9339 1.23766 0
M  V30 122 H 9.8477 0.662411 -0.0459059 0
M  V30 123 H 12.3777 1.90066 -0.757365 0
M  V30 124 H 12.3877 4.06129 0.390305 0
M  V30 125 H 11.0627 4.08865 -0.761725 0
M  V30 126 H 9.6397 3.5921 1.00114 0
M  V30 127 N 11.8248 0.280983 1.55075 0
M  V30 128 C 13.0718 -0.334115 1.99725 0
M  V30 129 C 13.3998 -1.5542 1.1694 0
M  V30 130 O 12.6548 -1.94361 0.228531 0
M  V30 131 C 12.9538 -0.754656 3.49342 0
M  V30 132 C 12.6198 0.361445 4.49449 0
M  V30 133 C 11.2818 0.667893 4.76542 0
M  V30 134 C 13.6338 1.11322 5.09173 0
M  V30 135 C 10.9618 1.7296 5.60626 0
M  V30 136 C 13.3138 2.1647 5.9441 0
M  V30 137 C 11.9778 2.47742 6.19822 0
M  V30 138 H 11.2478 -0.122261 0.730844 0
M  V30 139 H 13.8948 0.395917 1.87363 0
M  V30 140 H 12.1998 -1.56446 3.5921 0
M  V30 141 H 13.8968 -1.24142 3.813 0
M  V30 142 H 10.4868 0.112481 4.28452 0
M  V30 143 H 14.6708 0.88973 4.8826 0
M  V30 144 H 9.9268 1.97684 5.78559 0
M  V30 145 H 14.1008 2.75193 6.3972 0
M  V30 146 H 11.7278 3.30145 6.84769 0
M  V30 147 N 13.3029 -1.57598 0.00835791 0
M  V30 148 C 14.5509 -1.90551 -0.6734 0
M  V30 149 C 14.8719 -0.883301 -1.73847 0
M  V30 150 O 14.1419 0.0781442 -1.95744 0
M  V30 151 H 12.7219 -0.703312 -0.251717 0
M  V30 152 H 15.3839 -1.94833 0.0512592 0
M  V30 153 H 14.4799 -2.9056 -1.13935 0
M  V30 154 N 14.781 0.264519 -1.55364 0
M  V30 155 C 16.011 1.01153 -1.80143 0
M  V30 156 C 16.419 1.80115 -0.579253 0
M  V30 157 O 15.762 1.77813 0.46132 0
M  V30 158 C 15.824 2.01098 -2.97993 0
M  V30 159 C 15.488 1.40995 -4.34706 0
M  V30 160 C 16.485 0.821316 -5.13372 0
M  V30 161 C 14.17 1.43461 -4.81378 0
M  V30 162 C 16.164 0.265339 -6.36847 0
M  V30 163 C 13.851 0.874771 -6.04807 0
M  V30 164 C 14.849 0.291146 -6.82379 0
M  V30 165 O 14.537 -0.260093 -8.03479 0
M  V30 166 H 14.269 0.304125 -0.603725 0
M  V30 167 H 16.823 0.298089 -2.03225 0
M  V30 168 H 15.053 2.76224 -2.70623 0
M  V30 169 H 16.742 2.61997 -3.1002 0
M  V30 170 H 17.508 0.794903 -4.78442 0
M  V30 171 H 13.387 1.87826 -4.21002 0
M  V30 172 H 16.931 -0.190837 -6.97339 0
M  V30 173 H 12.828 0.898452 -6.39217 0
M  V30 174 H 13.596 -0.150265 -8.18362 0
M  V30 175 N 16.2591 1.48442 0.529413 0
M  V30 176 C 17.4841 1.60406 1.31471 0
M  V30 177 C 17.9091 0.264738 1.86228 0
M  V30 178 O 17.2671 -0.763668 1.64432 0
M  V30 179 C 17.3151 2.65419 2.44101 0
M  V30 180 O 16.4191 2.22618 3.47153 0
M  V30 181 H 15.7601 0.537863 0.389357 0
M  V30 182 H 18.2901 1.94432 0.636965 0
M  V30 183 H 18.3001 2.86709 2.90279 0
M  V30 184 H 16.9751 3.62652 2.03608 0
M  V30 185 H 15.5521 2.11543 3.0709 0
M  V30 186 N 17.7372 -0.778329 1.37039 0
M  V30 187 C 18.9622 -1.57248 1.35233 0
M  V30 188 C 19.3872 -1.87999 -0.0615568 0
M  V30 189 O 18.7452 -1.48734 -1.03672 0
M  V30 190 C 18.7932 -2.86353 2.19167 0
M  V30 191 O 17.8972 -3.80442 1.59178 0
M  V30 192 H 17.2382 -0.476569 0.462362 0
M  V30 193 H 19.7682 -0.963853 1.80474 0
M  V30 194 H 19.7782 -3.35519 2.32145 0
M  V30 195 H 18.4532 -2.63299 3.21942 0
M  V30 196 H 17.0302 -3.39067 1.55203 0
M  V30 197 N 19.2153 -1.21501 -1.00376 0
M  V30 198 C 20.4613 -1.03452 -1.74429 0
M  V30 199 C 20.7943 0.430764 -1.89362 0
M  V30 200 O 20.0693 1.31962 -1.42886 0
M  V30 201 C 20.3523 -1.73375 -3.15615 0
M  V30 202 C 20.2053 -3.27431 -3.08397 0
M  V30 203 C 21.5243 -1.47732 -4.14564 0
M  V30 204 H 18.6433 -0.377226 -0.633143 0
M  V30 205 H 21.2853 -1.49693 -1.17013 0
M  V30 206 H 19.4353 -1.34064 -3.64636 0
M  V30 207 H 21.1073 -3.76119 -2.67081 0
M  V30 208 H 19.3503 -3.5767 -2.45468 0
M  V30 209 H 20.0213 -3.71524 -4.08258 0
M  V30 210 H 22.4973 -1.8186 -3.74254 0
M  V30 211 H 21.3733 -1.99169 -5.11491 0
M  V30 212 H 21.6343 -0.407589 -4.40217 0
M  V30 213 N 20.6934 1.19889 -1.02296 0
M  V30 214 C 21.9394 1.89701 -0.717033 0
M  V30 215 C 22.2724 1.7905 0.751989 0
M  V30 216 O 21.5474 1.17891 1.547 0
M  V30 217 C 21.8304 3.40858 -1.16136 0
M  V30 218 C 21.6834 3.60411 -2.69117 0
M  V30 219 C 23.0024 4.33876 -0.737549 0
M  V30 220 H 20.1214 0.688874 -0.261957 0
M  V30 221 H 22.7634 1.41154 -1.27183 0
M  V30 222 H 20.9134 3.82335 -0.689342 0
M  V30 223 H 22.5854 3.28145 -3.2422 0
M  V30 224 H 20.8284 3.03665 -3.0979 0
M  V30 225 H 21.4994 4.66396 -2.95261 0
M  V30 226 H 23.9754 4.00081 -1.14344 0
M  V30 227 H 22.8514 5.38242 -1.0764 0
M  V30 228 H 23.1124 4.40628 0.360436 0
M  V30 229 N 22.1715 0.800033 1.35784 0
M  V30 230 C 23.4115 0.382891 2.00782 0
M  V30 231 C 23.7755 -1.02891 1.62103 0
M  V30 232 O 24.9765 -1.54771 2.19771 0
M  V30 233 C 23.2475 0.553299 3.53091 0
M  V30 234 S 24.8065 0.225608 4.3822 0
M  V30 235 H 21.6245 0.145737 0.695904 0
M  V30 236 H 24.2265 1.04085 1.65489 0
M  V30 237 H 22.9305 1.58091 3.78729 0
M  V30 238 H 22.4615 -0.120214 3.93216 0
M  V30 239 H 24.4765 -0.969074 4.86645 0
M  V30 240 N 23.6496 -1.47581 0.552962 0
M  V30 241 C 24.8956 -2.02782 0.0273648 0
M  V30 242 C 25.2286 -1.42687 -1.31734 0
M  V30 243 O 24.5036 -0.580897 -1.85623 0
M  V30 244 C 24.7866 -3.60031 -0.0702371 0
M  V30 245 C 24.6396 -4.30566 1.30126 0
M  V30 246 C 25.9586 -4.33028 -0.785771 0
M  V30 247 H 23.0776 -0.736912 0.0114185 0
M  V30 248 H 25.7196 -1.76056 0.714432 0
M  V30 249 H 23.8696 -3.82932 -0.655382 0
M  V30 250 H 25.5416 -4.19018 1.92929 0
M  V30 251 H 23.7846 -3.91086 1.87709 0
M  V30 252 H 24.4556 -5.39114 1.18573 0
M  V30 253 H 26.9316 -4.15095 -0.288982 0
M  V30 254 H 25.8076 -5.42695 -0.823013 0
M  V30 255 H 26.0686 -4.01945 -1.841 0
M  V30 256 N 25.1277 -0.289203 -1.54924 0
M  V30 257 C 26.3677 0.324536 -2.01807 0
M  V30 258 C 26.7317 1.5199 -1.17316 0
M  V30 259 O 27.9327 2.20422 -1.53843 0
M  V30 260 C 26.2037 0.683578 -3.50802 0
M  V30 261 S 27.7627 1.28185 -4.19659 0
M  V30 262 H 24.5807 0.100236 -0.703899 0
M  V30 263 H 27.1827 -0.414325 -1.91059 0
M  V30 264 H 25.8867 -0.195073 -4.09936 0
M  V30 265 H 25.4177 1.45354 -3.65562 0
M  V30 266 H 27.4327 2.57006 -4.24456 0
M  V30 267 N 26.6058 1.57591 -0.0167156 0
M  V30 268 C 27.5538 2.10604 0.987353 0
M  V30 269 C 28.5478 1.02977 1.34507 0
M  V30 270 O 29.7538 1.21425 1.32875 0
M  V30 271 H 26.1288 0.672695 0.336134 0
M  V30 272 H 28.0998 2.93925 0.514817 0
M  V30 273 C 26.8488 2.6382 2.26483 0
M  V30 274 H 26.1718 3.46278 1.99829 0
M  V30 275 H 27.6118 3.04573 2.94977 0
M  V30 276 C 26.0708 1.55992 2.9861 0
M  V30 277 O 26.6008 0.952521 3.90243 0
M  V30 278 N 24.8068 1.28335 2.60727 0
M  V30 279 H 24.3538 1.77914 1.86291 0
M  V30 280 H 24.3118 0.564115 3.09298 0
M  V30 281 N 28.0839 -0.256276 1.55502 0
M  V30 282 C 29.0469 -1.30047 1.88734 0
M  V30 283 C 30.0469 -1.4154 0.763086 0
M  V30 284 O 31.2369 -1.40403 1.03115 0
M  V30 285 C 28.3689 -2.67953 2.10747 0
M  V30 286 H 29.5619 -1.01802 2.82093 0
M  V30 287 H 27.1149 -0.495134 1.4825 0
M  V30 288 H 27.8499 -3.01351 1.19825 0
M  V30 289 H 27.6349 -2.60993 2.92617 0
M  V30 290 H 29.1249 -3.43368 2.37673 0
M  V30 291 N 29.562 -1.4872 -0.521534 0
M  V30 292 C 30.79 -1.60843 -1.30142 0
M  V30 293 C 31.205 -0.271897 -1.86832 0
M  V30 294 O 30.562 0.739969 -1.66825 0
M  V30 295 C 30.613 -2.66155 -2.4463 0
M  V30 296 O 30.334 -3.94623 -1.90275 0
M  V30 297 C 31.835 -2.88795 -3.36322 0
M  V30 298 H 29.055 -0.542075 -0.395468 0
M  V30 299 H 31.599 -1.94609 -0.628285 0
M  V30 300 H 29.754 -2.35224 -3.07812 0
M  V30 301 H 30.168 -4.52468 -2.65279 0
M  V30 302 H 31.642 -3.66264 -4.12983 0
M  V30 303 H 32.119 -1.97934 -3.9207 0
M  V30 304 H 32.725 -3.21063 -2.78924 0
M  V30 305 N 31.0401 0.771051 -1.3745 0
M  V30 306 C 32.2701 1.55789 -1.35696 0
M  V30 307 C 32.6781 1.89107 0.0594523 0
M  V30 308 O 32.0211 1.51984 1.03183 0
M  V30 309 C 32.0831 2.89515 -2.13123 0
M  V30 310 C 31.7471 2.78829 -3.62082 0
M  V30 311 C 32.7441 2.49812 -4.5595 0
M  V30 312 C 30.4291 2.9683 -4.05213 0
M  V30 313 C 32.4231 2.38923 -5.90927 0
M  V30 314 C 30.1101 2.85562 -5.40276 0
M  V30 315 C 31.1081 2.56649 -6.32946 0
M  V30 316 O 30.7961 2.45408 -7.65526 0
M  V30 317 H 30.5281 0.489257 -0.466481 0
M  V30 318 H 33.0821 0.963446 -1.81403 0
M  V30 319 H 31.3121 3.51081 -1.62107 0
M  V30 320 H 33.0011 3.50915 -2.03994 0
M  V30 321 H 33.7671 2.3559 -4.23937 0
M  V30 322 H 29.6461 3.18335 -3.33442 0
M  V30 323 H 33.1901 2.16277 -6.63227 0
M  V30 324 H 29.0871 2.99351 -5.71891 0
M  V30 325 H 29.8551 2.60753 -7.75855 0
M  V30 326 N 32.5182 1.22032 0.997298 0
M  V30 327 C 33.7582 1.05375 1.75144 0
M  V30 328 C 34.1222 -0.404696 1.87686 0
M  V30 329 O 35.3232 -0.691998 2.5974 0
M  V30 330 C 33.5942 1.74046 3.12158 0
M  V30 331 S 35.1532 1.72745 4.03366 0
M  V30 332 H 31.9712 0.377449 0.602539 0
M  V30 333 H 34.5732 1.54902 1.19272 0
M  V30 334 H 33.2772 2.79332 3.00669 0
M  V30 335 H 32.8082 1.24731 3.73103 0
M  V30 336 H 34.8232 0.774015 4.90126 0
M  V30 337 N 33.9963 -1.19345 1.0293 0
M  V30 338 C 35.2733 -1.84811 0.640642 0
M  V30 339 C 35.6533 -1.91855 -0.88062 0
M  V30 340 O 35.0013 -1.43587 -1.7775 0
M  V30 341 C 35.2113 -3.23755 1.30321 0
M  V30 342 C 36.5593 -3.99912 1.42673 0
M  V30 343 O 37.5833 -3.33155 1.26041 0
M  V30 344 O 36.4423 -5.19494 1.6967 0
M  V30 345 H 33.5363 -0.796443 0.222726 0
M  V30 346 H 36.0823 -1.26831 1.12748 0
M  V30 347 H 34.8543 -3.13466 2.34211 0
M  V30 348 H 34.4773 -3.89381 0.804261 0
M  V30 349 N 35.4744 -0.807222 -1.35358 0
M  V30 350 C 36.6994 -0.399309 -2.0352 0
M  V30 351 C 37.1244 0.981986 -1.60433 0
M  V30 352 O 36.4824 1.63601 -0.781299 0
M  V30 353 C 36.5304 -0.491552 -3.57234 0
M  V30 354 O 35.6344 0.494754 -4.09421 0
M  V30 355 H 34.9754 -0.166682 -0.642739 0
M  V30 356 H 37.5054 -1.09328 -1.72941 0
M  V30 357 H 37.5154 -0.361588 -4.06395 0
M  V30 358 H 36.1904 -1.49907 -3.87944 0
M  V30 359 H 34.7674 0.324977 -3.71481 0
M  V30 360 N 36.9525 1.47285 -0.560781 0
M  V30 361 C 38.1995 2.02464 -0.038062 0
M  V30 362 C 38.5275 1.43474 1.31322 0
M  V30 363 O 37.7825 0.581311 1.86867 0
M  V30 364 C 38.0815 3.57258 0.100784 0
M  V30 365 C 37.7475 4.35184 -1.18007 0
M  V30 366 C 36.4095 4.56194 -1.53103 0
M  V30 367 C 38.7615 4.80098 -2.02867 0
M  V30 368 C 36.0895 5.19367 -2.729 0
M  V30 369 C 38.4415 5.44593 -3.21871 0
M  V30 370 C 37.1055 5.63835 -3.57276 0
M  V30 371 H 36.3755 0.740869 -0.0139279 0
M  V30 372 H 39.0225 1.76916 -0.733012 0
M  V30 373 H 37.3275 3.81819 0.878724 0
M  V30 374 H 39.0245 3.97606 0.520639 0
M  V30 375 H 35.6145 4.19113 -0.8968 0
M  V30 376 H 39.7985 4.63642 -1.7706 0
M  V30 377 H 35.0545 5.32459 -3.00496 0
M  V30 378 H 39.2285 5.78358 -3.87911 0
M  V30 379 H 36.8555 6.12557 -4.50197 0
M  V30 380 N 38.4306 0.297415 1.54768 0
M  V30 381 C 39.7076 -0.365847 1.92148 0
M  V30 382 C 40.0876 -1.71975 1.22424 0
M  V30 383 O 39.4356 -2.25666 0.358739 0
M  V30 384 C 39.6456 -0.484056 3.45627 0
M  V30 385 C 40.9936 -0.756594 4.17805 0
M  V30 386 O 42.0176 -0.568007 3.51642 0
M  V30 387 O 40.8766 -1.11863 5.34929 0
M  V30 388 H 37.9706 -0.203919 0.801465 0
M  V30 389 H 40.5166 0.34521 1.66152 0
M  V30 390 H 39.2886 0.467865 3.88493 0
M  V30 391 H 38.9116 -1.24372 3.77647 0
M  V30 392 N 39.9087 -1.5758 0.0250728 0
M  V30 393 C 41.3197 -1.79476 -0.514323 0
M  V30 394 C 41.6707 -0.934956 -1.72491 0
M  V30 395 O 40.7957 -0.144245 -2.15919 0
M  V30 396 C 41.3907 -3.25503 -0.939842 0
M  V30 397 C 39.9497 -3.48408 -1.42438 0
M  V30 398 C 39.0967 -2.74583 -0.387201 0
M  V30 399 H 42.0477 -1.567 0.25113 0
M  V30 400 H 42.0687 -3.34992 -1.80445 0
M  V30 401 H 41.5807 -3.88056 -0.0585628 0
M  V30 402 H 39.6817 -2.91103 -2.32572 0
M  V30 403 H 39.7947 -4.57119 -1.43455 0
M  V30 404 H 38.1587 -2.39942 -0.854409 0
M  V30 405 H 38.9417 -3.39849 0.485543 0
M  V30 406 N 41.3868 0.248026 -1.55636 0
M  V30 407 C 42.7978 0.817177 -1.67866 0
M  V30 408 C 43.1488 1.86069 -0.622322 0
M  V30 409 O 42.2738 2.15157 0.231618 0
M  V30 410 C 42.8688 1.489 -3.04326 0
M  V30 411 C 41.4278 2.00587 -3.185 0
M  V30 412 C 40.5748 0.856573 -2.63739 0
M  V30 413 H 43.5258 0.0238579 -1.58682 0
M  V30 414 H 43.5468 2.35698 -2.98708 0
M  V30 415 H 43.0588 0.729279 -3.81186 0
M  V30 416 H 41.1598 2.79443 -2.4646 0
M  V30 417 H 41.2728 2.20402 -4.25393 0
M  V30 418 H 39.6368 1.25678 -2.21534 0
M  V30 419 H 40.4198 0.109953 -3.43124 0
M  V30 420 N 42.8649 1.48995 0.513639 0
M  V30 421 C 44.0929 1.61531 1.29288 0
M  V30 422 C 44.5079 0.281801 1.86685 0
M  V30 423 O 43.8649 -0.731111 1.67215 0
M  V30 424 C 43.9159 2.67449 2.43215 0
M  V30 425 O 43.6369 3.95626 1.88179 0
M  V30 426 C 45.1379 2.90575 3.34785 0
M  V30 427 H 42.3579 0.544165 0.392588 0
M  V30 428 H 44.9019 1.9494 0.617956 0
M  V30 429 H 43.0569 2.36853 3.0656 0
M  V30 430 H 43.4709 4.53868 2.62876 0
M  V30 431 H 44.9449 3.68449 4.11035 0
M  V30 432 H 45.4219 2.00011 3.91015 0
M  V30 433 H 46.0279 3.22538 2.77218 0
M  V30 434 N 44.343 -0.763751 1.37857 0
M  V30 435 C 45.59 -1.52257 1.33506 0
M  V30 436 C 45.918 -1.94343 -0.078022 0
M  V30 437 O 45.173 -1.64958 -1.05297 0
M  V30 438 C 45.472 -2.79499 2.22745 0
M  V30 439 C 45.138 -2.56426 3.70886 0
M  V30 440 C 43.8 -2.49842 4.11257 0
M  V30 441 C 46.152 -2.36008 4.64704 0
M  V30 442 C 43.48 -2.20841 5.43549 0
M  V30 443 C 45.832 -2.0853 5.97242 0
M  V30 444 C 44.496 -2.00396 6.36709 0
M  V30 445 H 43.766 -0.557149 0.488534 0
M  V30 446 H 46.413 -0.879073 1.70131 0
M  V30 447 H 44.718 -3.48447 1.79142 0
M  V30 448 H 46.415 -3.37413 2.16688 0
M  V30 449 H 43.005 -2.62416 3.38874 0
M  V30 450 H 47.189 -2.40079 4.34368 0
M  V30 451 H 42.445 -2.13045 5.73081 0
M  V30 452 H 46.619 -1.91732 6.69486 0
M  V30 453 H 44.246 -1.77688 7.39142 0
M  V30 454 N 45.8211 -1.22559 -0.990812 0
M  V30 455 C 47.2321 -1.04791 -1.54518 0
M  V30 456 C 47.5831 0.387998 -1.92325 0
M  V30 457 O 46.7081 1.27328 -1.74976 0
M  V30 458 C 47.3031 -1.896 -2.80779 0
M  V30 459 C 45.8621 -1.76124 -3.32652 0
M  V30 460 C 45.0091 -1.8594 -2.05722 0
M  V30 461 H 47.9601 -1.36374 -0.811662 0
M  V30 462 H 47.9811 -1.41464 -3.53225 0
M  V30 463 H 47.4931 -2.94101 -2.53231 0
M  V30 464 H 45.5941 -0.743643 -3.65104 0
M  V30 465 H 45.7071 -2.58913 -4.03114 0
M  V30 466 H 44.0711 -1.29403 -2.19379 0
M  V30 467 H 44.8541 -2.91976 -1.80568 0
M  V30 468 N 47.2992 1.18797 -1.03562 0
M  V30 469 C 48.2622 2.20464 -0.626769 0
M  V30 470 C 49.2622 1.57721 0.313173 0
M  V30 471 O 50.4522 1.73917 0.0992615 0
M  V30 472 C 47.5842 3.40802 0.0818498 0
M  V30 473 H 48.7772 2.58149 -1.5264 0
M  V30 474 H 46.3302 1.32593 -0.827578 0
M  V30 475 H 47.0652 3.08642 0.995518 0
M  V30 476 H 46.8502 3.8758 -0.593652 0
M  V30 477 H 48.3402 4.16092 0.354584 0
M  V30 478 N 48.7773 0.814389 1.34928 0
M  V30 479 C 49.7073 0.244827 2.32213 0
M  V30 480 C 50.6883 -0.634024 1.57842 0
M  V30 481 O 51.8733 -0.562676 1.8587 0
M  V30 482 C 49.0033 -0.601106 3.42058 0
M  V30 483 C 47.9573 0.179896 4.27622 0
M  V30 484 C 47.2833 -0.788237 5.28858 0
M  V30 485 C 48.5833 1.38329 5.03649 0
M  V30 486 H 50.2773 1.05763 2.80097 0
M  V30 487 H 47.8233 0.510029 1.34665 0
M  V30 488 H 49.7763 -1.00968 4.09125 0
M  V30 489 H 48.5003 -1.44688 2.92802 0
M  V30 490 H 47.1593 0.569739 3.62146 0
M  V30 491 H 46.8073 -1.62973 4.75866 0
M  V30 492 H 46.5073 -0.269942 5.8698 0
M  V30 493 H 48.0313 -1.19485 5.98795 0
M  V30 494 H 49.4453 1.04918 5.63618 0
M  V30 495 H 47.8423 1.83662 5.71304 0
M  V30 496 H 48.9123 2.16592 4.33839 0
M  V30 497 N 50.2554 -1.46986 0.568584 0
M  V30 498 C 51.5034 -2.02041 0.0487022 0
M  V30 499 C 51.8244 -1.44408 -1.31039 0
M  V30 500 O 51.0944 -0.623477 -1.85714 0
M  V30 501 H 49.6744 -0.746849 0.015014 0
M  V30 502 H 52.3364 -1.80257 0.741168 0
M  V30 503 H 51.4324 -3.12085 -0.0308961 0
M  V30 504 N 51.7335 -0.305618 -1.54608 0
M  V30 505 C 52.9615 0.304775 -2.04643 0
M  V30 506 C 53.3765 1.47167 -1.18268 0
M  V30 507 O 52.7335 1.81296 -0.209328 0
M  V30 508 C 52.7845 0.756564 -3.53495 0
M  V30 509 O 52.5055 -0.36389 -4.36586 0
M  V30 510 C 54.0065 1.43163 -4.19546 0
M  V30 511 H 51.2265 0.0655481 -0.667791 0
M  V30 512 H 53.7705 -0.446592 -1.99564 0
M  V30 513 H 51.9255 1.45794 -3.58919 0
M  V30 514 H 52.3395 -0.0113121 -5.24499 0
M  V30 515 H 53.8135 1.69886 -5.25207 0
M  V30 516 H 54.2905 2.37318 -3.69563 0
M  V30 517 H 54.8965 0.773307 -4.18211 0
M  V30 518 N 53.2116 1.57565 -0.0334293 0
M  V30 519 C 54.4586 1.91978 0.644272 0
M  V30 520 C 54.7866 0.910231 1.71887 0
M  V30 521 O 54.0416 -0.0801961 1.95536 0
M  V30 522 C 54.3406 3.33112 1.29504 0
M  V30 523 C 54.0066 4.49537 0.350388 0
M  V30 524 C 52.6686 4.81115 0.0903974 0
M  V30 525 C 55.0206 5.20347 -0.298032 0
M  V30 526 C 52.3486 5.8086 -0.825746 0
M  V30 527 C 54.7006 6.2107 -1.20226 0
M  V30 528 C 53.3646 6.51088 -1.4711 0
M  V30 529 H 52.6346 0.702496 0.235756 0
M  V30 530 H 55.2816 1.91259 -0.0961176 0
M  V30 531 H 53.5866 3.30113 2.11028 0
M  V30 532 H 55.2836 3.57011 1.82603 0
M  V30 533 H 51.8736 4.24883 0.563205 0
M  V30 534 H 56.0576 4.96178 -0.110234 0
M  V30 535 H 51.3136 6.02461 -1.04169 0
M  V30 536 H 55.4876 6.75057 -1.71086 0
M  V30 537 H 53.1146 7.28193 -2.18264 0
M  V30 538 N 54.6897 -0.239769 1.55765 0
M  V30 539 C 55.9147 -0.988373 1.82335 0
M  V30 540 C 56.3397 -1.77886 0.611421 0
M  V30 541 O 55.6977 -1.75889 -0.439639 0
M  V30 542 C 55.7457 -1.89627 3.06715 0
M  V30 543 O 54.8497 -2.98904 2.84131 0
M  V30 544 H 54.1907 -0.280858 0.601677 0
M  V30 545 H 56.7207 -0.258597 2.02959 0
M  V30 546 H 56.7307 -2.30957 3.36338 0
M  V30 547 H 55.4057 -1.31511 3.9456 0
M  V30 548 H 53.9827 -2.61651 2.65694 0
M  V30 549 N 56.1678 -1.49265 -0.50573 0
M  V30 550 C 57.5838 -1.35923 -0.836486 0
M  V30 551 C 57.7838 -0.388704 -1.97715 0
M  V30 552 O 56.8398 0.181336 -2.51848 0
M  V30 553 C 58.1528 -2.76531 -1.18115 0
M  V30 554 C 59.7008 -2.85197 -1.28964 0
M  V30 555 C 60.1758 -4.26561 -1.66761 0
M  V30 556 N 61.6668 -4.2935 -1.73819 0
M  V30 557 C 62.4018 -5.35693 -2.045 0
M  V30 558 N 61.8978 -6.52287 -2.33438 0
M  V30 559 N 63.6908 -5.23105 -2.05711 0
M  V30 560 H 55.8418 -2.10965 0.246519 0
M  V30 561 H 58.1048 -0.9468 0.0476887 0
M  V30 562 H 57.8108 -3.49226 -0.416398 0
M  V30 563 H 57.6848 -3.11599 -2.1257 0
M  V30 564 H 60.0718 -2.12742 -2.04511 0
M  V30 565 H 60.1528 -2.53718 -0.325704 0
M  V30 566 H 59.7968 -4.99541 -0.917656 0
M  V30 567 H 59.7268 -4.55502 -2.64246 0
M  V30 568 H 62.2178 -3.4526 -1.53635 0
M  V30 569 H 62.5308 -7.29158 -2.56024 0
M  V30 570 H 60.8758 -6.55521 -2.30905 0
M  V30 571 H 64.0668 -4.31026 -1.82577 0
M  V30 572 H 64.2398 -6.06078 -2.29289 0
M  V30 573 N 57.6459 0.756429 -1.3826 0
M  V30 574 C 58.8759 1.54341 -1.3734 0
M  V30 575 C 59.2839 1.89159 0.0393917 0
M  V30 576 O 58.6269 1.5307 1.01565 0
M  V30 577 C 58.6889 2.87238 -2.16182 0
M  V30 578 C 58.3529 2.74973 -3.65019 0
M  V30 579 C 59.3499 2.44962 -4.58574 0
M  V30 580 C 57.0349 2.92515 -4.08338 0
M  V30 581 C 59.0289 2.32642 -5.93428 0
M  V30 582 C 56.7159 2.79815 -5.43274 0
M  V30 583 C 57.7139 2.49921 -6.35632 0
M  V30 584 O 57.4019 2.37275 -7.68086 0
M  V30 585 H 57.1339 0.484281 -0.471643 0
M  V30 586 H 59.6879 0.944152 -1.82414 0
M  V30 587 H 57.9179 3.49342 -1.65822 0
M  V30 588 H 59.6069 3.48731 -2.07705 0
M  V30 589 H 60.3729 2.31081 -4.26412 0
M  V30 590 H 56.2519 3.14781 -3.368 0
M  V30 591 H 59.7959 2.0923 -6.65484 0
M  V30 592 H 55.6929 2.93269 -5.75034 0
M  V30 593 H 56.4609 2.52509 -7.78577 0
M  V30 594 N 59.124 1.23083 0.984299 0
M  V30 595 C 60.034 1.02515 2.11016 0
M  V30 596 C 61.05 -0.0291702 1.73976 0
M  V30 597 O 62.226 0.165434 2.00719 0
M  V30 598 C 59.291 0.614673 3.41208 0
M  V30 599 C 58.352 1.74359 3.92297 0
M  V30 600 C 57.585 1.35261 5.16275 0
M  V30 601 O 57.808 0.235136 5.69915 0
M  V30 602 O 56.742 2.17227 5.61334 0
M  V30 603 H 60.568 1.96862 2.31255 0
M  V30 604 H 58.153 1.01753 1.09392 0
M  V30 605 H 60.035 0.396518 4.1953 0
M  V30 606 H 58.71 -0.299851 3.22308 0
M  V30 607 H 57.617 2.01635 3.1511 0
M  V30 608 H 58.95 2.63629 4.15645 0
M  V30 609 N 60.6021 -1.18246 1.0419 0
M  V30 610 C 61.8271 -1.92736 0.765996 0
M  V30 611 C 62.2521 -1.75728 -0.67091 0
M  V30 612 O 61.6101 -1.06825 -1.46486 0
M  V30 613 C 61.6581 -3.42148 1.13875 0
M  V30 614 O 60.7621 -4.11548 0.264954 0
M  V30 615 H 60.1031 -0.601238 0.281797 0
M  V30 616 H 62.6331 -1.49942 1.39207 0
M  V30 617 H 62.6431 -3.92858 1.1012 0
M  V30 618 H 61.3181 -3.53848 2.18551 0
M  V30 619 H 59.8951 -3.71137 0.362226 0
M  V30 620 N 62.0802 -0.821533 -1.34494 0
M  V30 621 C 63.3082 -0.421884 -2.02553 0
M  V30 622 C 63.7232 0.971745 -1.61872 0
M  V30 623 O 63.0802 1.62864 -0.823496 0
M  V30 624 C 63.1312 -0.51285 -3.57844 0
M  V30 625 O 62.8522 -1.85155 -3.97051 0
M  V30 626 C 64.3532 -0.107921 -4.43169 0
M  V30 627 H 61.5732 -0.169482 -0.649243 0
M  V30 628 H 64.1172 -1.1093 -1.71798 0
M  V30 629 H 62.2722 0.126474 -3.87193 0
M  V30 630 H 62.6862 -1.82482 -4.91732 0
M  V30 631 H 64.1602 -0.222657 -5.51551 0
M  V30 632 H 64.6372 0.948401 -4.28838 0
M  V30 633 H 65.2432 -0.720989 -4.19144 0
M  V30 634 N 63.5583 1.46682 -0.576371 0
M  V30 635 C 64.9743 1.57822 -0.237562 0
M  V30 636 C 65.1743 1.57237 1.26011 0
M  V30 637 O 64.2303 1.48596 2.04146 0
M  V30 638 C 65.5433 2.87499 -0.881168 0
M  V30 639 C 67.0913 3.01119 -0.85417 0
M  V30 640 C 67.5663 4.33524 -1.4772 0
M  V30 641 N 69.0573 4.40207 -1.44125 0
M  V30 642 C 69.7923 5.4126 -1.89276 0
M  V30 643 N 69.2883 6.49021 -2.42371 0
M  V30 644 N 71.0813 5.32422 -1.80231 0
M  V30 645 H 63.2323 1.45306 -1.54919 0
M  V30 646 H 65.4953 0.692733 -0.647167 0
M  V30 647 H 65.2013 2.9372 -1.93447 0
M  V30 648 H 65.0753 3.75224 -0.385592 0
M  V30 649 H 67.4623 2.94485 0.190491 0
M  V30 650 H 67.5433 2.14887 -1.3877 0
M  V30 651 H 67.1873 4.40916 -2.52103 0
M  V30 652 H 67.1173 5.1852 -0.918947 0
M  V30 653 H 69.6083 3.62931 -1.05307 0
M  V30 654 H 69.9213 7.2233 -2.74698 0
M  V30 655 H 68.2663 6.49858 -2.46393 0
M  V30 656 H 71.4573 4.47137 -1.38514 0
M  V30 657 H 71.6303 6.11034 -2.15735 0
M  V30 658 N 65.0364 0.313813 1.54444 0
M  V30 659 C 66.2614 -0.296681 2.05267 0
M  V30 660 C 66.6864 -1.45757 1.18897 0
M  V30 661 O 66.0444 -1.80239 0.195886 0
M  V30 662 C 66.0924 -0.71831 3.53373 0
M  V30 663 O 65.1964 -1.82175 3.69981 0
M  V30 664 H 64.5374 -0.0554061 0.661684 0
M  V30 665 H 67.0674 0.459387 1.99376 0
M  V30 666 H 67.0774 -1.00364 3.95463 0
M  V30 667 H 65.7524 0.130821 4.15694 0
M  V30 668 H 64.3294 -1.53598 3.39797 0
M  V30 669 N 66.5145 -1.57545 0.0417849 0
M  V30 670 C 67.7625 -1.91937 -0.632829 0
M  V30 671 C 68.0835 -0.919978 -1.71934 0
M  V30 672 O 67.3535 0.0366064 -1.95866 0
M  V30 673 H 65.9335 -0.708493 -0.236742 0
M  V30 674 H 68.5955 -1.9468 0.0925745 0
M  V30 675 H 67.6915 -2.92912 -1.07746 0
M  V30 676 N 67.9926 0.231505 -1.5589 0
M  V30 677 C 69.4086 0.580748 -1.48659 0
M  V30 678 C 69.6086 1.87617 -0.73498 0
M  V30 679 O 68.6646 2.51046 -0.270586 0
M  V30 680 C 69.9776 0.669202 -2.93159 0
M  V30 681 C 71.5256 0.760499 -3.03621 0
M  V30 682 C 72.0006 0.880383 -4.49459 0
M  V30 683 N 73.4916 0.944861 -4.53461 0
M  V30 684 C 74.2266 1.05716 -5.63571 0
M  V30 685 N 73.7226 1.13403 -6.83456 0
M  V30 686 N 75.5156 1.09152 -5.514 0
M  V30 687 H 67.6666 -0.618695 -2.03189 0
M  V30 688 H 69.9296 -0.215728 -0.923128 0
M  V30 689 H 69.6356 -0.212904 -3.51055 0
M  V30 690 H 69.5096 1.5361 -3.44505 0
M  V30 691 H 71.8966 1.63305 -2.45796 0
M  V30 692 H 71.9776 -0.131864 -2.5546 0
M  V30 693 H 71.6216 0.0123284 -5.07899 0
M  V30 694 H 71.5516 1.78802 -4.95316 0
M  V30 695 H 74.0426 0.896176 -3.6712 0
M  V30 696 H 74.3556 1.21921 -7.63122 0
M  V30 697 H 72.7006 1.10333 -6.86186 0
M  V30 698 H 75.8916 1.02805 -4.56671 0
M  V30 699 H 76.0646 1.17558 -6.37247 0
M  V30 700 N 69.4707 1.49531 0.497807 0
M  V30 701 C 70.8867 1.36365 0.829266 0
M  V30 702 C 71.0867 0.399184 1.97506 0
M  V30 703 O 70.1427 -0.167977 2.51941 0
M  V30 704 C 71.4557 2.77153 1.16647 0
M  V30 705 C 73.0037 2.85877 1.27449 0
M  V30 706 C 73.4787 4.2744 1.64497 0
M  V30 707 N 74.9697 4.30265 1.7154 0
M  V30 708 C 75.7047 5.3677 2.01656 0
M  V30 709 N 75.2007 6.53516 2.29976 0
M  V30 710 N 76.9937 5.24189 2.02934 0
M  V30 711 H 69.1447 2.10831 -0.257703 0
M  V30 712 H 71.4077 0.946534 -0.0527091 0
M  V30 713 H 71.1137 3.49442 0.397872 0
M  V30 714 H 70.9877 3.12722 2.10915 0
M  V30 715 H 73.3747 2.13824 2.0338 0
M  V30 716 H 73.4557 2.53887 0.312244 0
M  V30 717 H 73.0997 5.00021 0.891151 0
M  V30 718 H 73.0297 4.56896 2.61827 0
M  V30 719 H 75.5207 3.4607 1.51802 0
M  V30 720 H 75.8337 7.30506 2.52153 0
M  V30 721 H 74.1787 6.56737 2.27425 0
M  V30 722 H 77.3697 4.31988 1.80289 0
M  V30 723 H 77.5427 6.07286 2.26071 0
M  V30 724 N 70.9488 -0.749086 1.3866 0
M  V30 725 C 71.8818 -1.87111 1.30631 0
M  V30 726 C 72.8598 -1.61572 0.18251 0
M  V30 727 O 74.0438 -1.85019 0.360592 0
M  V30 728 C 71.1708 -3.22815 1.02511 0
M  V30 729 C 70.2168 -3.67234 2.1689 0
M  V30 730 S 71.0498 -3.78245 3.79066 0
M  V30 731 C 72.2058 -5.16761 3.53142 0
M  V30 732 H 72.4388 -1.93636 2.25594 0
M  V30 733 H 69.9718 -0.912525 1.24549 0
M  V30 734 H 71.9298 -4.01181 0.869701 0
M  V30 735 H 70.5908 -3.13964 0.0925884 0
M  V30 736 H 69.7838 -4.65677 1.92771 0
M  V30 737 H 69.3858 -2.96034 2.28561 0
M  V30 738 H 71.6778 -6.02656 3.09534 0
M  V30 739 H 72.6208 -5.45902 4.50995 0
M  V30 740 H 73.0288 -4.85771 2.87554 0
M  V30 741 N 72.4269 -1.23603 -0.977757 0
M  V30 742 C 73.3369 -1.03632 -2.1047 0
M  V30 743 C 74.3529 0.0199435 -1.73989 0
M  V30 744 O 75.5289 -0.176076 -2.00629 0
M  V30 745 C 72.5939 -0.63276 -3.40877 0
M  V30 746 C 71.6549 -1.76437 -3.91367 0
M  V30 747 C 70.8879 -1.37997 -5.15551 0
M  V30 748 O 71.1109 -0.265357 -5.69782 0
M  V30 749 O 70.0449 -2.20201 -5.60174 0
M  V30 750 H 73.8709 -1.98086 -2.30208 0
M  V30 751 H 71.4559 -1.02332 -1.08851 0
M  V30 752 H 73.3379 -0.418761 -4.19314 0
M  V30 753 H 72.0129 0.282754 -3.22463 0
M  V30 754 H 70.9199 -2.03304 -3.14036 0
M  V30 755 H 72.2529 -2.6583 -4.14241 0
M  V30 756 N 73.905 1.17692 -1.04816 0
M  V30 757 C 74.835 2.23777 -0.666791 0
M  V30 758 C 75.816 1.66796 0.33361 0
M  V30 759 O 77.001 1.93039 0.212042 0
M  V30 760 C 74.131 3.47281 -0.0367933 0
M  V30 761 C 73.085 4.17059 -0.961546 0
M  V30 762 C 72.411 5.34342 -0.195626 0
M  V30 763 C 73.711 4.69713 -2.28402 0
M  V30 764 H 75.405 2.55933 -1.55367 0
M  V30 765 H 72.951 1.23019 -0.748484 0
M  V30 766 H 74.904 4.20706 0.241775 0
M  V30 767 H 73.628 3.14381 0.885004 0
M  V30 768 H 72.287 3.45541 -1.22462 0
M  V30 769 H 71.935 4.97692 0.728816 0
M  V30 770 H 71.635 5.81966 -0.811775 0
M  V30 771 H 73.159 6.10553 0.0757473 0
M  V30 772 H 74.573 5.34794 -2.06563 0
M  V30 773 H 72.97 5.279 -2.8538 0
M  V30 774 H 74.04 3.86726 -2.92525 0
M  V30 775 N 75.3831 0.828654 1.34056 0
M  V30 776 C 76.6081 0.431637 2.02859 0
M  V30 777 C 77.0331 -0.956339 1.61975 0
M  V30 778 O 76.3911 -1.62338 0.807228 0
M  V30 779 C 76.4391 0.548323 3.56407 0
M  V30 780 O 75.5431 -0.429556 4.10157 0
M  V30 781 H 74.8841 0.176886 0.640006 0
M  V30 782 H 77.4141 1.12066 1.71179 0
M  V30 783 H 77.4241 0.426196 4.05768 0
M  V30 784 H 76.0991 1.5606 3.8551 0
M  V30 785 H 74.6761 -0.265836 3.71951 0
M  V30 786 N 76.8612 -1.46375 0.584142 0
M  V30 787 C 77.7942 -2.27351 -0.196676 0
M  V30 788 C 78.7722 -1.35715 -0.895561 0
M  V30 789 O 79.9562 -1.65126 -0.90916 0
M  V30 790 C 77.0832 -3.13486 -1.28235 0
M  V30 791 C 76.1292 -4.20896 -0.689145 0
M  V30 792 S 76.9622 -5.33299 0.48507 0
M  V30 793 C 78.1182 -6.23 -0.601767 0
M  V30 794 H 78.3512 -2.93228 0.490395 0
M  V30 795 H 75.8842 -1.49875 0.371071 0
M  V30 796 H 77.8422 -3.63676 -1.90395 0
M  V30 797 H 76.5032 -2.4692 -1.94138 0
M  V30 798 H 75.6962 -4.80997 -1.50527 0
M  V30 799 H 75.2982 -3.73726 -0.143181 0
M  V30 800 H 77.5902 -6.60979 -1.48705 0
M  V30 801 H 78.5332 -7.0809 -0.0374799 0
M  V30 802 H 78.9412 -5.57173 -0.906557 0
M  V30 803 N 78.3393 -0.321999 -1.54275 0
M  V30 804 C 79.5873 0.280489 -2.00144 0
M  V30 805 C 79.9083 1.52777 -1.21178 0
M  V30 806 O 79.1783 1.9338 -0.313187 0
M  V30 807 H 77.7583 0.106632 -0.73935 0
M  V30 808 H 80.4203 -0.438184 -1.8991 0
M  V30 809 H 79.5163 0.537972 -3.07428 0
M  V30 810 N 79.8174 1.5752 -0.0501392 0
M  V30 811 C 81.2284 1.80271 0.485705 0
M  V30 812 C 81.5794 0.96228 1.70981 0
M  V30 813 O 80.7044 0.178578 2.15662 0
M  V30 814 C 81.2994 3.26957 0.887938 0
M  V30 815 C 79.8584 3.5063 1.36877 0
M  V30 816 C 79.0054 2.75165 0.343468 0
M  V30 817 H 81.9564 1.56281 -0.276028 0
M  V30 818 H 81.9774 3.37821 1.75093 0
M  V30 819 H 81.4894 3.881 -0.0031809 0
M  V30 820 H 79.5904 2.94766 2.27911 0
M  V30 821 H 79.7034 4.59343 1.36164 0
M  V30 822 H 78.0674 2.4127 0.816128 0
M  V30 823 H 78.8504 3.39034 -0.539548 0
M  V30 824 N 81.2955 -0.223234 1.56011 0
M  V30 825 C 82.5445 -0.945912 1.78144 0
M  V30 826 C 82.8575 -1.85567 0.618396 0
M  V30 827 O 84.0635 -2.61688 0.723318 0
M  V30 828 C 82.5195 -1.73216 3.15475 0
M  V30 829 C 82.1275 -0.868619 4.39499 0
M  V30 830 C 83.8715 -2.44615 3.46935 0
M  V30 831 C 81.7785 -1.65212 5.67855 0
M  V30 832 H 80.7085 -0.356929 0.664167 0
M  V30 833 H 83.3595 -0.199845 1.82409 0
M  V30 834 H 81.7415 -2.52107 3.05382 0
M  V30 835 H 82.9155 -0.120366 4.60643 0
M  V30 836 H 81.2305 -0.26683 4.15544 0
M  V30 837 H 83.8275 -3.03732 4.40058 0
M  V30 838 H 84.1705 -3.17417 2.69355 0
M  V30 839 H 84.7035 -1.72715 3.58349 0
M  V30 840 H 81.4425 -0.967407 6.48322 0
M  V30 841 H 80.9625 -2.37503 5.50774 0
M  V30 842 H 82.6415 -2.21322 6.07968 0
M  V30 843 N 82.7736 -1.49793 -0.48987 0
M  V30 844 C 83.7056 -1.63413 -1.60713 0
M  V30 845 C 84.7186 -0.516329 -1.54395 0
M  V30 846 O 85.9076 -0.788812 -1.60125 0
M  V30 847 C 83.0076 -1.58516 -2.99543 0
M  V30 848 C 82.1806 -2.86016 -3.30928 0
M  V30 849 C 81.2396 -2.74018 -4.49222 0
M  V30 850 O 80.2656 -3.47964 -4.50455 0
M  V30 851 N 81.4676 -1.86309 -5.4979 0
M  V30 852 H 84.2326 -2.59777 -1.49452 0
M  V30 853 H 81.7936 -1.47022 -0.677955 0
M  V30 854 H 83.7856 -1.48128 -3.76617 0
M  V30 855 H 82.3556 -0.69965 -3.0467 0
M  V30 856 H 81.5756 -3.10672 -2.42645 0
M  V30 857 H 82.8636 -3.70521 -3.487 0
M  V30 858 H 82.2616 -1.2551 -5.51601 0
M  V30 859 H 80.8186 -1.81837 -6.25922 0
M  V30 860 N 84.2517 0.741722 -1.39055 0
M  V30 861 C 85.2147 1.83733 -1.37021 0
M  V30 862 C 86.2147 1.58542 -0.268534 0
M  V30 863 O 87.4047 1.66067 -0.526076 0
M  V30 864 C 84.5367 3.2141 -1.13617 0
M  V30 865 H 85.7297 1.86941 -2.34506 0
M  V30 866 H 83.2827 0.944676 -1.24521 0
M  V30 867 H 84.0177 3.23865 -0.167863 0
M  V30 868 H 83.8027 3.4109 -1.93391 0
M  V30 869 H 85.2927 4.01477 -1.14918 0
M  V30 870 N 85.7298 1.2412 0.971189 0
M  V30 871 C 86.6778 1.02812 2.08644 0
M  V30 872 C 87.6718 -0.0358403 1.69362 0
M  V30 873 O 88.8778 0.118429 1.7961 0
M  V30 874 H 85.2528 0.315428 0.682649 0
M  V30 875 H 87.2238 1.97397 2.23779 0
M  V30 876 C 85.9728 0.645874 3.41649 0
M  V30 877 H 85.2958 1.45632 3.72332 0
M  V30 878 H 86.7358 0.536366 4.20594 0
M  V30 879 C 85.1948 -0.646713 3.30635 0
M  V30 880 O 85.7248 -1.69338 3.64263 0
M  V30 881 N 83.9308 -0.626115 2.83775 0
M  V30 882 H 83.4778 0.225988 2.56607 0
M  V30 883 H 83.4358 -1.49117 2.76788 0
M  V30 884 N 87.2079 -1.17134 1.05439 0
M  V30 885 C 88.1579 -2.1919 0.627675 0
M  V30 886 C 89.1419 -1.57328 -0.337147 0
M  V30 887 O 90.3339 -1.76329 -0.153976 0
M  V30 888 C 87.4629 -3.43299 0.00651435 0
M  V30 889 C 86.5489 -4.12255 0.995312 0
M  V30 890 N 86.9399 -4.56997 2.16765 0
M  V30 891 C 85.2379 -4.38316 0.824336 0
M  V30 892 C 85.9389 -5.10239 2.7934 0
M  V30 893 N 84.9149 -5.02595 2.07122 0
M  V30 894 H 88.7169 -2.5149 1.52086 0
M  V30 895 H 86.2309 -1.33491 0.924868 0
M  V30 896 H 88.2279 -4.15693 -0.316965 0
M  V30 897 H 86.8879 -3.1249 -0.882033 0
M  V30 898 H 87.8989 -4.51006 2.54587 0
M  V30 899 H 84.5759 -4.17498 -0.0129526 0
M  V30 900 H 85.9659 -5.54961 3.78772 0
M  V30 901 N 88.686 -0.835752 -1.33615 0
M  V30 902 C 89.914 -0.443344 -2.02094 0
M  V30 903 C 90.329 0.954522 -1.62894 0
M  V30 904 O 89.686 1.61982 -0.840723 0
M  V30 905 C 89.737 -0.550775 -3.5728 0
M  V30 906 O 89.458 -1.89356 -3.95065 0
M  V30 907 C 90.959 -0.154919 -4.43029 0
M  V30 908 H 88.179 -0.176359 -0.647409 0
M  V30 909 H 90.723 -1.12746 -1.70612 0
M  V30 910 H 88.878 0.0853997 -3.87306 0
M  V30 911 H 89.292 -1.87687 -4.89769 0
M  V30 912 H 90.766 -0.281144 -5.51284 0
M  V30 913 H 91.243 0.902863 -4.2982 0
M  V30 914 H 91.849 -0.765404 -4.18356 0
M  V30 915 N 90.1641 1.46063 -0.591896 0
M  V30 916 C 91.4121 2.01938 -0.0808391 0
M  V30 917 C 91.7331 1.46475 1.28725 0
M  V30 918 O 91.0031 0.652944 1.84698 0
M  V30 919 H 89.5831 0.746516 -0.0268938 0
M  V30 920 H 92.2451 1.79055 -0.769752 0
M  V30 921 H 91.3411 3.12094 -0.0187578 0
M  V30 922 N 91.6422 0.330177 1.54103 0
M  V30 923 C 92.8702 -0.272179 2.05102 0
M  V30 924 C 93.2852 -1.45267 1.20595 0
M  V30 925 O 92.6422 -1.8094 0.238144 0
M  V30 926 C 92.6932 -0.70023 3.54653 0
M  V30 927 O 92.4142 0.433301 4.35952 0
M  V30 928 C 93.9152 -1.3647 4.21771 0
M  V30 929 H 91.1352 -0.0549159 0.668749 0
M  V30 930 H 93.6792 0.478285 1.98828 0
M  V30 931 H 91.8342 -1.40066 3.61193 0
M  V30 932 H 92.2482 0.0947539 5.24414 0
M  V30 933 H 93.7222 -1.61509 5.27843 0
M  V30 934 H 94.1992 -2.31409 3.73292 0
M  V30 935 H 94.8052 -0.706675 4.19388 0
M  V30 936 N 93.1203 -1.57491 0.0584922 0
M  V30 937 C 94.3683 -1.92597 -0.612436 0
M  V30 938 C 94.6893 -0.938162 -1.70949 0
M  V30 939 O 93.9593 0.0158301 -1.95894 0
M  V30 940 H 92.5393 -0.710964 -0.229214 0
M  V30 941 H 95.2013 -1.94571 0.113218 0
M  V30 942 H 94.2973 -2.94038 -1.04633 0
M  V30 943 N 94.5984 0.214957 -1.56127 0
M  V30 944 C 95.5284 1.2695 -1.95974 0
M  V30 945 C 96.5094 1.48539 -0.828868 0
M  V30 946 O 97.6944 1.60611 -1.09168 0
M  V30 947 C 94.8244 2.61794 -2.28214 0
M  V30 948 C 93.7784 2.54851 -3.43853 0
M  V30 949 C 93.1044 3.93785 -3.61715 0
M  V30 950 C 94.4044 2.09065 -4.78632 0
M  V30 951 H 96.0984 0.93846 -2.84312 0
M  V30 952 H 93.6444 0.449996 -1.36788 0
M  V30 953 H 95.5974 3.35731 -2.54682 0
M  V30 954 H 94.3214 2.96599 -1.36736 0
M  V30 955 H 92.9804 1.8337 -3.17444 0
M  V30 956 H 92.6284 4.25908 -2.67602 0
M  V30 957 H 92.3284 3.90019 -4.39498 0
M  V30 958 H 93.8524 4.69374 -3.90539 0
M  V30 959 H 95.2664 2.7275 -5.04262 0
M  V30 960 H 93.6634 2.16346 -5.59745 0
M  V30 961 H 94.7334 1.04315 -4.73547 0
M  V30 962 N 96.0765 1.50051 0.48192 0
M  V30 963 C 97.0065 1.71046 1.58951 0
M  V30 964 C 97.9875 0.559288 1.60642 0
M  V30 965 O 99.1725 0.797243 1.77081 0
M  V30 966 C 96.3025 1.79462 2.97339 0
M  V30 967 C 95.2565 2.94558 3.10515 0
M  V30 968 C 94.5825 2.88105 4.50444 0
M  V30 969 C 95.8825 4.35227 2.88747 0
M  V30 970 H 97.5765 2.6378 1.41635 0
M  V30 971 H 95.1225 1.26936 0.679942 0
M  V30 972 H 97.0755 1.92734 3.74742 0
M  V30 973 H 95.7995 0.833412 3.15788 0
M  V30 974 H 94.4585 2.80918 2.35543 0
M  V30 975 H 94.1065 1.89853 4.65795 0
M  V30 976 H 93.8065 3.65366 4.60197 0
M  V30 977 H 95.3305 3.03412 5.29881 0
M  V30 978 H 96.7445 4.49449 3.55905 0
M  V30 979 H 95.1415 5.13856 3.09955 0
M  V30 980 H 96.2115 4.48347 1.84696 0
M  V30 981 N 97.5546 -0.734337 1.39446 0
M  V30 982 C 98.4846 -1.86155 1.40955 0
M  V30 983 C 99.4656 -1.67898 0.272827 0
M  V30 984 O 100.651 -1.88207 0.478743 0
M  V30 985 C 97.7806 -3.23912 1.25294 0
M  V30 986 C 96.7346 -3.56808 2.36373 0
M  V30 987 C 96.0606 -4.93508 2.058 0
M  V30 988 C 97.3606 -3.59713 3.78687 0
M  V30 989 H 99.0546 -1.8515 2.35287 0
M  V30 990 H 96.6006 -0.889367 1.13253 0
M  V30 991 H 98.5536 -4.02443 1.2497 0
M  V30 992 H 97.2776 -3.25446 0.274308 0
M  V30 993 H 95.9366 -2.80606 2.35914 0
M  V30 994 H 95.5846 -4.91623 1.06374 0
M  V30 995 H 95.2846 -5.16486 2.80208 0
M  V30 996 H 96.8086 -5.74396 2.07128 0
M  V30 997 H 98.2226 -4.2832 3.81071 0
M  V30 998 H 96.6196 -3.94209 4.52459 0
M  V30 999 H 97.6896 -2.59504 4.09617 0
M  V30 1000 N 99.0327 -1.24633 -0.964593 0
M  V30 1001 C 100.261 -1.11501 -1.74285 0
M  V30 1002 C 100.676 0.332165 -1.85855 0
M  V30 1003 O 100.033 1.22903 -1.34911 0
M  V30 1004 C 100.084 -1.75258 -3.16175 0
M  V30 1005 O 99.8047 -3.14318 -3.05182 0
M  V30 1006 C 101.306 -1.67776 -4.10324 0
M  V30 1007 H 98.5257 -0.389407 -0.546446 0
M  V30 1008 H 101.07 -1.64801 -1.21083 0
M  V30 1009 H 99.2247 -1.25954 -3.66353 0
M  V30 1010 H 99.6387 -3.4551 -3.94618 0
M  V30 1011 H 101.113 -2.17064 -5.0753 0
M  V30 1012 H 101.59 -0.639584 -4.34518 0
M  V30 1013 H 102.196 -2.16522 -3.66058 0
M  V30 1014 N 100.511 1.16574 -1.06058 0
M  V30 1015 C 101.441 2.23057 -0.690488 0
M  V30 1016 C 102.422 1.67141 0.315901 0
M  V30 1017 O 103.607 1.93253 0.191556 0
M  V30 1018 C 100.737 3.47222 -0.073625 0
M  V30 1019 C 99.6908 4.16016 -1.00573 0
M  V30 1020 C 99.0168 5.34104 -0.252289 0
M  V30 1021 C 100.317 4.67264 -2.33371 0
M  V30 1022 H 102.011 2.54271 -1.58072 0
M  V30 1023 H 99.5568 1.22218 -0.76149 0
M  V30 1024 H 101.51 4.20939 0.19714 0
M  V30 1025 H 100.234 3.15302 0.85161 0
M  V30 1026 H 98.8928 3.44223 -1.2612 0
M  V30 1027 H 98.5408 4.98437 0.675988 0
M  V30 1028 H 98.2408 5.81072 -0.873455 0
M  V30 1029 H 99.7648 6.10599 0.0109857 0
M  V30 1030 H 101.179 5.32573 -2.12223 0
M  V30 1031 H 99.5758 5.24843 -2.90963 0
M  V30 1032 H 100.646 3.83602 -2.96611 0
M  V30 1033 N 101.989 0.842826 1.3317 0
M  V30 1034 C 102.921 0.236245 2.27979 0
M  V30 1035 C 103.934 -0.585282 1.51915 0
M  V30 1036 O 105.123 -0.411705 1.73687 0
M  V30 1037 C 102.223 -0.685717 3.3189 0
M  V30 1038 C 101.396 0.0973448 4.37292 0
M  V30 1039 C 100.455 -0.748565 5.20848 0
M  V30 1040 O 99.4809 -0.186339 5.68895 0
M  V30 1041 N 100.683 -2.06527 5.42519 0
M  V30 1042 H 103.448 1.05088 2.80672 0
M  V30 1043 H 101.009 0.701667 1.45905 0
M  V30 1044 H 103.001 -1.25669 3.84694 0
M  V30 1045 H 101.571 -1.40105 2.79445 0
M  V30 1046 H 100.791 0.849706 3.84933 0
M  V30 1047 H 102.079 0.635643 5.04814 0
M  V30 1048 H 101.477 -2.54554 5.05192 0
M  V30 1049 H 100.034 -2.58464 5.98364 0
M  V30 1050 N 103.467 -1.45747 0.599634 0
M  V30 1051 C 104.878 -1.85853 0.177681 0
M  V30 1052 C 105.229 -1.50102 -1.26348 0
M  V30 1053 O 104.354 -0.923905 -1.95686 0
M  V30 1054 C 104.949 -3.37326 0.315688 0
M  V30 1055 C 103.508 -3.76365 -0.0515144 0
M  V30 1056 C 102.655 -2.69722 0.643822 0
M  V30 1057 H 105.606 -1.36661 0.806814 0
M  V30 1058 H 105.627 -3.77778 -0.454321 0
M  V30 1059 H 105.139 -3.63315 1.36468 0
M  V30 1060 H 103.24 -3.55993 -1.09999 0
M  V30 1061 H 103.353 -4.77916 0.336594 0
M  V30 1062 H 101.717 -2.54567 0.0822881 0
M  V30 1063 H 102.5 -2.98549 1.6948 0
M  V30 1064 N 104.945 -0.338344 -1.53925 0
M  V30 1065 C 105.855 0.529421 -2.28548 0
M  V30 1066 C 106.871 1.11645 -1.3346 0
M  V30 1067 O 108.047 1.13325 -1.66492 0
M  V30 1068 C 105.112 1.66713 -3.03987 0
M  V30 1069 C 104.173 1.11041 -4.14691 0
M  V30 1070 C 103.406 2.19389 -4.86522 0
M  V30 1071 O 103.629 3.40013 -4.57982 0
M  V30 1072 O 102.563 1.83976 -5.73094 0
M  V30 1073 H 106.389 -0.0770399 -3.03602 0
M  V30 1074 H 103.974 -0.103555 -1.49041 0
M  V30 1075 H 105.856 2.32918 -3.5118 0
M  V30 1076 H 104.531 2.25949 -2.31794 0
M  V30 1077 H 103.438 0.413024 -3.71813 0
M  V30 1078 H 104.771 0.562975 -4.8897 0
M  V30 1079 N 106.423 1.57458 -0.0668435 0
M  V30 1080 C 107.355 2.09413 0.931601 0
M  V30 1081 C 108.368 1.02522 1.26464 0
M  V30 1082 O 109.557 1.30049 1.22269 0
M  V30 1083 C 106.657 2.53537 2.24882 0
M  V30 1084 C 105.83 3.83944 2.09537 0
M  V30 1085 C 104.889 4.14214 3.2452 0
M  V30 1086 O 103.915 4.83891 2.9973 0
M  V30 1087 N 105.117 3.67367 4.49469 0
M  V30 1088 H 107.882 2.95699 0.488048 0
M  V30 1089 H 105.443 1.61462 0.119009 0
M  V30 1090 H 107.435 2.70853 3.00701 0
M  V30 1091 H 106.005 1.72415 2.60753 0
M  V30 1092 H 105.225 3.76057 1.18215 0
M  V30 1093 H 106.513 4.69312 1.96529 0
M  V30 1094 H 105.911 3.11068 4.72497 0
M  V30 1095 H 104.468 3.89891 5.2233 0
M  V30 1096 N 107.901 -0.206675 1.56239 0
M  V30 1097 C 108.848 -1.25617 1.93621 0
M  V30 1098 C 109.818 -1.45824 0.795274 0
M  V30 1099 O 111.003 -1.59148 1.05245 0
M  V30 1100 C 108.143 -2.59839 2.27107 0
M  V30 1101 C 107.256 -2.47308 3.54207 0
M  V30 1102 C 106.391 -3.74155 3.7707 0
M  V30 1103 C 105.43 -3.56407 4.97635 0
M  V30 1104 N 104.567 -4.75238 5.1681 0
M  V30 1105 H 109.407 -0.930383 2.83104 0
M  V30 1106 H 106.944 -0.448065 1.4011 0
M  V30 1107 H 108.902 -3.38021 2.44535 0
M  V30 1108 H 107.532 -2.90485 1.40778 0
M  V30 1109 H 106.584 -1.60483 3.4489 0
M  V30 1110 H 107.896 -2.30122 4.42544 0
M  V30 1111 H 107.05 -4.60778 3.94675 0
M  V30 1112 H 105.789 -3.94282 2.87042 0
M  V30 1113 H 104.794 -2.68168 4.79964 0
M  V30 1114 H 106.019 -3.37736 5.89161 0
M  V30 1115 H 103.965 -4.95651 4.29728 0
M  V30 1116 H 103.882 -4.60835 5.99306 0
M  V30 1117 H 105.15 -5.63246 5.38864 0
M  V30 1118 N 109.379 -1.50304 -0.473955 0
M  V30 1119 C 110.626 -1.6115 -1.22625 0
M  V30 1120 C 110.954 -0.310517 -1.92005 0
M  V30 1121 O 110.209 0.703419 -1.82621 0
M  V30 1122 C 110.508 -2.73938 -2.29549 0
M  V30 1123 C 110.174 -4.14519 -1.7744 0
M  V30 1124 C 108.836 -4.5277 -1.62949 0
M  V30 1125 C 111.188 -5.02392 -1.3875 0
M  V30 1126 C 108.516 -5.76639 -1.08187 0
M  V30 1127 C 110.868 -6.26805 -0.854309 0
M  V30 1128 C 109.532 -6.63861 -0.696011 0
M  V30 1129 H 108.802 -0.589691 -0.448715 0
M  V30 1130 H 111.449 -1.84228 -0.522705 0
M  V30 1131 H 109.754 -2.44937 -3.05799 0
M  V30 1132 H 111.451 -2.79534 -2.87509 0
M  V30 1133 H 108.041 -3.8434 -1.89685 0
M  V30 1134 H 112.225 -4.73474 -1.4878 0
M  V30 1135 H 107.481 -6.04027 -0.946666 0
M  V30 1136 H 111.655 -6.94258 -0.545843 0
M  V30 1137 H 109.282 -7.59722 -0.26952 0
M  V30 1138 N 110.857 0.726932 -1.39834 0
M  V30 1139 C 111.789 1.85147 -1.35104 0
M  V30 1140 C 112.802 1.60736 -0.258392 0
M  V30 1141 O 113.991 1.70821 -0.517931 0
M  V30 1142 C 111.091 3.21332 -1.07697 0
M  V30 1143 C 110.264 3.73033 -2.28396 0
M  V30 1144 C 109.323 4.87802 -1.97322 0
M  V30 1145 O 108.349 5.01043 -2.70083 0
M  V30 1146 N 109.551 5.72768 -0.944273 0
M  V30 1147 H 112.316 1.89706 -2.32017 0
M  V30 1148 H 109.877 0.908006 -1.3404 0
M  V30 1149 H 111.869 3.95691 -0.849144 0
M  V30 1150 H 110.439 3.11992 -0.194909 0
M  V30 1151 H 109.659 2.89934 -2.6708 0
M  V30 1152 H 110.947 4.0431 -3.08887 0
M  V30 1153 H 110.345 5.64669 -0.341427 0
M  V30 1154 H 108.902 6.4716 -0.776346 0
M  V30 1155 N 112.336 1.25143 0.95797 0
M  V30 1156 C 113.283 1.05235 2.05412 0
M  V30 1157 C 114.253 -0.0374561 1.66058 0
M  V30 1158 O 115.438 0.119073 1.90428 0
M  V30 1159 C 112.578 0.673589 3.38462 0
M  V30 1160 C 111.691 1.8379 3.90954 0
M  V30 1161 C 110.826 1.40381 5.12315 0
M  V30 1162 C 109.865 2.53746 5.57027 0
M  V30 1163 N 109.002 2.11136 6.69601 0
M  V30 1164 H 113.842 1.99048 2.21774 0
M  V30 1165 H 111.379 0.991277 1.08683 0
M  V30 1166 H 113.337 0.434964 4.14926 0
M  V30 1167 H 111.967 -0.227554 3.21997 0
M  V30 1168 H 111.019 2.18992 3.11041 0
M  V30 1169 H 112.331 2.68937 4.20089 0
M  V30 1170 H 111.485 1.12464 5.96185 0
M  V30 1171 H 110.224 0.523015 4.84887 0
M  V30 1172 H 109.229 2.82412 4.71724 0
M  V30 1173 H 110.454 3.42398 5.86464 0
M  V30 1174 H 108.4 1.25468 6.4389 0
M  V30 1175 H 108.317 2.89832 6.98236 0
M  V30 1176 H 109.585 1.86385 7.56889 0
M  V30 1177 N 113.814 -1.1601 1.06675 0
M  V30 1178 C 115.06 -1.86909 0.786945 0
M  V30 1179 C 115.393 -1.81717 -0.685018 0
M  V30 1180 O 114.668 -1.23551 -1.50218 0
M  V30 1181 C 114.951 -3.36313 1.28707 0
M  V30 1182 C 114.804 -3.50175 2.82308 0
M  V30 1183 C 116.123 -4.3084 0.898071 0
M  V30 1184 H 113.242 -0.678677 0.287343 0
M  V30 1185 H 115.884 -1.36336 1.32334 0
M  V30 1186 H 114.034 -3.79513 0.830768 0
M  V30 1187 H 115.706 -3.15886 3.36175 0
M  V30 1188 H 113.949 -2.91959 3.20847 0
M  V30 1189 H 114.62 -4.55116 3.12368 0
M  V30 1190 H 117.096 -3.95561 1.29114 0
M  V30 1191 H 115.972 -5.33876 1.27543 0
M  V30 1192 H 116.233 -4.41662 -0.196651 0
M  V30 1193 N 115.292 -0.849877 -1.32721 0
M  V30 1194 C 116.239 -0.289033 -2.28983 0
M  V30 1195 C 117.209 0.601324 -1.54833 0
M  V30 1196 O 118.394 0.537253 -1.8308 0
M  V30 1197 C 115.534 0.520623 -3.4115 0
M  V30 1198 C 114.647 -0.394989 -4.3019 0
M  V30 1199 C 113.782 0.426834 -5.29482 0
M  V30 1200 C 112.821 -0.486476 -6.10164 0
M  V30 1201 N 111.958 0.297879 -7.01468 0
M  V30 1202 H 116.798 -1.11519 -2.76347 0
M  V30 1203 H 114.335 -0.56138 -1.35967 0
M  V30 1204 H 116.293 1.00563 -4.04899 0
M  V30 1205 H 114.923 1.31165 -2.9495 0
M  V30 1206 H 113.975 -0.99836 -3.67065 0
M  V30 1207 H 115.287 -1.09612 -4.86607 0
M  V30 1208 H 114.441 0.975205 -5.98811 0
M  V30 1209 H 113.18 1.16136 -4.73671 0
M  V30 1210 H 112.185 -1.04677 -5.39743 0
M  V30 1211 H 113.41 -1.21953 -6.6806 0
M  V30 1212 H 111.356 1.01558 -6.48091 0
M  V30 1213 H 111.273 -0.344318 -7.55216 0
M  V30 1214 H 112.541 0.828131 -7.75089 0
M  V30 1215 N 116.77 1.45427 -0.607355 0
M  V30 1216 C 118.018 2.01841 -0.102253 0
M  V30 1217 C 118.339 1.47832 1.27164 0
M  V30 1218 O 117.609 0.672497 1.83995 0
M  V30 1219 H 116.189 0.746188 -0.0348101 0
M  V30 1220 H 118.851 1.78229 -0.7887 0
M  V30 1221 H 117.947 3.12057 -0.0518585 0
M  V30 1222 N 118.248 0.346503 1.53744 0
M  V30 1223 C 119.495 -0.249104 2.00962 0
M  V30 1224 C 119.823 -1.5032 1.23426 0
M  V30 1225 O 119.078 -1.93217 0.310761 0
M  V30 1226 C 119.377 -0.605809 3.52228 0
M  V30 1227 C 119.043 0.551747 4.47512 0
M  V30 1228 C 117.705 0.86941 4.73281 0
M  V30 1229 C 120.057 1.32818 5.03993 0
M  V30 1230 C 117.385 1.96582 5.52786 0
M  V30 1231 C 119.737 2.41486 5.84694 0
M  V30 1232 C 118.401 2.73808 6.08757 0
M  V30 1233 H 117.671 -0.0911538 0.735372 0
M  V30 1234 H 120.318 0.475027 1.85515 0
M  V30 1235 H 118.623 -1.4107 3.65522 0
M  V30 1236 H 120.32 -1.07858 3.86222 0
M  V30 1237 H 116.91 0.294102 4.2759 0
M  V30 1238 H 121.094 1.09602 4.84047 0
M  V30 1239 H 116.35 2.22045 5.69654 0
M  V30 1240 H 120.524 3.02078 6.27473 0
M  V30 1241 H 118.151 3.58892 6.7015 0
M  V30 1242 N 119.726 -1.57421 0.075193 0
M  V30 1243 C 120.974 -1.93236 -0.591974 0
M  V30 1244 C 121.295 -0.956241 -1.69944 0
M  V30 1245 O 120.565 -0.00494792 -1.95899 0
M  V30 1246 H 119.145 -0.713355 -0.22166 0
M  V30 1247 H 121.807 -1.9444 0.133848 0
M  V30 1248 H 120.903 -2.95131 -1.01509 0
M  V30 1249 N 121.204 0.198386 -1.56346 0
M  V30 1250 C 122.452 0.91747 -1.80075 0
M  V30 1251 C 122.773 1.83929 -0.647692 0
M  V30 1252 O 122.043 1.93029 0.334166 0
M  V30 1253 H 120.623 0.341774 -0.664228 0
M  V30 1254 H 123.285 0.204684 -1.93822 0
M  V30 1255 H 122.381 1.51055 -2.7311 0
M  V30 1256 N 122.682 1.50554 0.465978 0
M  V30 1257 C 123.645 1.69233 1.54574 0
M  V30 1258 C 124.645 0.562901 1.50626 0
M  V30 1259 O 125.835 0.830016 1.53155 0
M  V30 1260 C 122.967 1.7223 2.94193 0
M  V30 1261 H 124.16 2.65571 1.39327 0
M  V30 1262 H 121.713 1.40111 0.692711 0
M  V30 1263 H 122.448 0.77603 3.14878 0
M  V30 1264 H 122.233 2.54285 2.98466 0
M  V30 1265 H 123.723 1.88618 3.72576 0
M  V30 1266 N 124.16 -0.719506 1.40217 0
M  V30 1267 C 125.093 -1.84298 1.34571 0
M  V30 1268 C 126.071 -1.61149 0.216741 0
M  V30 1269 O 127.255 -1.84212 0.399756 0
M  V30 1270 C 124.382 -3.20568 1.09335 0
M  V30 1271 C 123.428 -3.62551 2.24631 0
M  V30 1272 S 124.261 -3.7012 3.87004 0
M  V30 1273 C 125.417 -5.09154 3.64024 0
M  V30 1274 H 125.65 -1.88807 2.2965 0
M  V30 1275 H 123.183 -0.885901 1.26456 0
M  V30 1276 H 125.141 -3.99246 0.954602 0
M  V30 1277 H 123.802 -3.13696 0.159164 0
M  V30 1278 H 122.995 -4.61483 2.02606 0
M  V30 1279 H 122.597 -2.91119 2.34789 0
M  V30 1280 H 124.889 -5.95955 3.22248 0
M  V30 1281 H 125.832 -5.36213 4.62473 0
M  V30 1282 H 126.24 -4.79562 2.97793 0
M  V30 1283 N 125.638 -1.25649 -0.95132 0
M  V30 1284 C 126.866 -1.13343 -1.73092 0
M  V30 1285 C 127.281 0.312434 -1.86197 0
M  V30 1286 O 126.638 1.21465 -1.36207 0
M  V30 1287 C 126.689 -1.78602 -3.14299 0
M  V30 1288 O 126.41 -3.17537 -3.01831 0
M  V30 1289 C 127.911 -1.72119 -4.08522 0
M  V30 1290 H 125.131 -0.395181 -0.542285 0
M  V30 1291 H 127.675 -1.66076 -1.19328 0
M  V30 1292 H 125.83 -1.29832 -3.64996 0
M  V30 1293 H 126.244 -3.49676 -3.90931 0
M  V30 1294 H 127.718 -2.22435 -5.052 0
M  V30 1295 H 128.195 -0.685635 -4.33815 0
M  V30 1296 H 128.801 -2.20393 -3.63741 0
M  V30 1297 N 127.117 1.15442 -1.07289 0
M  V30 1298 C 128.394 1.82306 -0.708792 0
M  V30 1299 C 128.774 1.94991 0.808807 0
M  V30 1300 O 128.122 1.50085 1.72298 0
M  V30 1301 C 128.332 3.18695 -1.42247 0
M  V30 1302 C 129.68 3.94341 -1.57417 0
M  V30 1303 O 130.704 3.28247 -1.38319 0
M  V30 1304 O 129.563 5.12839 -1.88834 0
M  V30 1305 H 126.657 0.787628 -0.252132 0
M  V30 1306 H 129.203 1.22559 -1.17377 0
M  V30 1307 H 127.975 3.04557 -2.45684 0
M  V30 1308 H 127.598 3.86128 -0.948223 0
M  V30 1309 N 128.595 0.856903 1.32268 0
M  V30 1310 C 129.558 0.308171 2.27119 0
M  V30 1311 C 130.558 -0.533421 1.51695 0
M  V30 1312 O 131.748 -0.344607 1.70757 0
M  V30 1313 C 128.88 -0.563757 3.36206 0
M  V30 1314 H 130.073 1.14535 2.77167 0
M  V30 1315 H 127.626 0.631421 1.42978 0
M  V30 1316 H 128.361 -1.42266 2.91429 0
M  V30 1317 H 128.146 0.0386749 3.92081 0
M  V30 1318 H 129.636 -0.940386 4.06874 0
M  V30 1319 N 130.073 -1.45103 0.615059 0
M  V30 1320 C 131.036 -2.29025 -0.0895485 0
M  V30 1321 C 132.036 -1.40174 -0.787906 0
M  V30 1322 O 133.226 -1.62217 -0.634933 0
M  V30 1323 C 130.358 -3.21376 -1.13711 0
M  V30 1324 H 131.551 -2.92807 0.648382 0
M  V30 1325 H 129.104 -1.51749 0.374444 0
M  V30 1326 H 129.839 -2.6241 -1.90556 0
M  V30 1327 H 129.624 -3.86834 -0.640475 0
M  V30 1328 H 131.114 -3.84459 -1.63036 0
M  V30 1329 N 131.551 -0.354651 -1.53558 0
M  V30 1330 C 132.514 0.484566 -2.24019 0
M  V30 1331 C 133.514 1.01861 -1.24422 0
M  V30 1332 O 134.704 0.906097 -1.4878 0
M  V30 1333 C 131.836 1.67615 -2.96847 0
M  V30 1334 H 133.029 -0.131843 -2.9961 0
M  V30 1335 H 130.582 -0.106165 -1.55939 0
M  V30 1336 H 131.317 2.33095 -2.25471 0
M  V30 1337 H 131.102 1.30029 -3.69912 0
M  V30 1338 H 132.592 2.27114 -3.50441 0
M  V30 1339 N 133.029 1.57378 -0.0835403 0
M  V30 1340 C 133.959 2.1641 0.87686 0
M  V30 1341 C 134.94 1.09429 1.30228 0
M  V30 1342 O 136.125 1.37516 1.37124 0
M  V30 1343 C 133.255 2.73517 2.14022 0
M  V30 1344 C 132.209 3.85769 1.85381 0
M  V30 1345 C 131.535 4.29529 3.18448 0
M  V30 1346 C 132.835 5.09486 1.14984 0
M  V30 1347 H 134.529 2.96914 0.385059 0
M  V30 1348 H 132.075 1.42823 0.18377 0
M  V30 1349 H 134.028 3.13463 2.81636 0
M  V30 1350 H 132.752 1.90252 2.65465 0
M  V30 1351 H 131.411 3.46345 1.20169 0
M  V30 1352 H 131.059 3.43169 3.67755 0
M  V30 1353 H 130.759 5.05204 3.00071 0
M  V30 1354 H 132.283 4.72099 3.8724 0
M  V30 1355 H 133.697 5.46674 1.72687 0
M  V30 1356 H 132.094 5.90515 1.06826 0
M  V30 1357 H 133.164 4.84724 0.130749 0
M  V30 1358 N 134.507 -0.190092 1.56449 0
M  V30 1359 C 135.455 -1.25501 1.95837 0
M  V30 1360 C 136.449 -1.4685 0.844485 0
M  V30 1361 O 137.655 -1.47651 1.02952 0
M  V30 1362 H 134.03 -0.421447 0.622805 0
M  V30 1363 H 136.001 -0.895821 2.84636 0
M  V30 1364 C 134.75 -2.59124 2.31841 0
M  V30 1365 H 134.073 -2.43514 3.17082 0
M  V30 1366 H 135.513 -3.32371 2.6326 0
M  V30 1367 C 133.972 -3.16488 1.15486 0
M  V30 1368 O 134.502 -3.99365 0.432535 0
M  V30 1369 N 132.708 -2.75305 0.930349 0
M  V30 1370 H 132.255 -2.08013 1.51948 0
M  V30 1371 H 132.213 -3.14024 0.153634 0
M  V30 1372 N 135.985 -1.50799 -0.457987 0
M  V30 1373 C 137.234 -1.6168 -1.20593 0
M  V30 1374 C 137.547 -0.32888 -1.92815 0
M  V30 1375 O 138.753 -0.316773 -2.69646 0
M  V30 1376 C 137.209 -2.8545 -2.19195 0
M  V30 1377 C 136.817 -4.21168 -1.52715 0
M  V30 1378 C 138.561 -3.05681 -2.94549 0
M  V30 1379 C 136.468 -5.3611 -2.4968 0
M  V30 1380 H 135.398 -0.602134 -0.453818 0
M  V30 1381 H 138.049 -1.77245 -0.475031 0
M  V30 1382 H 136.431 -2.63472 -2.95632 0
M  V30 1383 H 137.605 -4.53449 -0.819775 0
M  V30 1384 H 135.92 -4.06648 -0.895922 0
M  V30 1385 H 138.517 -3.88727 -3.67145 0
M  V30 1386 H 138.86 -2.17929 -3.54701 0
M  V30 1387 H 139.393 -3.27901 -2.25223 0
M  V30 1388 H 136.132 -6.26057 -1.94249 0
M  V30 1389 H 135.652 -5.0823 -3.18532 0
M  V30 1390 H 137.331 -5.6722 -3.11241 0
M  V30 1391 N 137.463 0.71206 -1.40597 0
M  V30 1392 C 138.393 1.83889 -1.43899 0
M  V30 1393 C 139.374 1.67442 -0.299504 0
M  V30 1394 O 140.559 1.87421 -0.508624 0
M  V30 1395 C 137.689 3.21877 -1.30431 0
M  V30 1396 C 136.643 3.53002 -2.42019 0
M  V30 1397 C 135.969 4.90172 -2.13626 0
M  V30 1398 C 137.269 3.53643 -3.84362 0
M  V30 1399 H 138.963 1.81383 -2.38203 0
M  V30 1400 H 136.509 0.871237 -1.14654 0
M  V30 1401 H 138.462 4.00404 -1.31357 0
M  V30 1402 H 137.186 3.24968 -0.326049 0
M  V30 1403 H 135.845 2.76818 -2.40349 0
M  V30 1404 H 135.493 4.89869 -1.14182 0
M  V30 1405 H 135.193 5.11962 -2.88389 0
M  V30 1406 H 136.717 5.71028 -2.1624 0
M  V30 1407 H 138.131 4.22203 -3.87837 0
M  V30 1408 H 136.528 3.86961 -4.58673 0
M  V30 1409 H 137.598 2.52954 -4.13693 0
M  V30 1410 N 138.941 1.26152 0.944643 0
M  V30 1411 C 139.904 1.07474 2.0244 0
M  V30 1412 C 140.904 0.0242064 1.60782 0
M  V30 1413 O 142.094 0.267302 1.72137 0
M  V30 1414 C 139.226 0.633956 3.34953 0
M  V30 1415 H 140.419 2.03336 2.20442 0
M  V30 1416 H 137.972 1.087 1.12312 0
M  V30 1417 H 138.707 -0.326811 3.22649 0
M  V30 1418 H 138.492 1.39247 3.66542 0
M  V30 1419 H 139.982 0.52501 4.14287 0
M  V30 1420 N 140.419 -1.14872 1.07899 0
M  V30 1421 C 141.349 -2.2193 0.725887 0
M  V30 1422 C 142.33 -1.67622 -0.28927 0
M  V30 1423 O 143.515 -1.93533 -0.160787 0
M  V30 1424 C 140.645 -3.47061 0.128856 0
M  V30 1425 C 139.599 -4.14363 1.07178 0
M  V30 1426 C 138.925 -5.33636 0.337229 0
M  V30 1427 C 140.225 -4.63492 2.40775 0
M  V30 1428 H 141.919 -2.51724 1.62097 0
M  V30 1429 H 139.465 -1.20991 0.780838 0
M  V30 1430 H 141.418 -4.21199 -0.130147 0
M  V30 1431 H 140.142 -3.16617 -0.80134 0
M  V30 1432 H 138.801 -3.42173 1.3158 0
M  V30 1433 H 138.449 -4.99449 -0.596606 0
M  V30 1434 H 138.149 -5.79609 0.965788 0
M  V30 1435 H 139.673 -6.10539 0.0861567 0
M  V30 1436 H 141.087 -5.2913 2.20669 0
M  V30 1437 H 139.484 -5.20148 2.99276 0
M  V30 1438 H 140.554 -3.78834 3.02676 0
M  V30 1439 N 141.898 -0.863906 -1.31812 0
M  V30 1440 C 143.123 -0.48527 -2.01643 0
M  V30 1441 C 143.548 0.913058 -1.64453 0
M  V30 1442 O 142.906 1.6014 -0.849985 0
M  V30 1443 C 142.954 -0.642625 -3.54828 0
M  V30 1444 O 142.058 0.320659 -4.11151 0
M  V30 1445 H 141.399 -0.193793 -0.635091 0
M  V30 1446 H 143.929 -1.16565 -1.68148 0
M  V30 1447 H 143.939 -0.533628 -4.04495 0
M  V30 1448 H 142.614 -1.66227 -3.81237 0
M  V30 1449 H 141.191 0.167126 -3.72525 0
M  V30 1450 N 143.376 1.44774 -0.622745 0
M  V30 1451 C 144.787 1.85546 -0.207226 0
M  V30 1452 C 145.138 1.52093 1.23944 0
M  V30 1453 O 144.263 0.95492 1.94191 0
M  V30 1454 C 144.858 3.36781 -0.369313 0
M  V30 1455 C 143.417 3.76399 -0.00836847 0
M  V30 1456 C 142.564 2.68664 -0.686651 0
M  V30 1457 H 145.515 1.3536 -0.828454 0
M  V30 1458 H 145.536 3.78453 0.394162 0
M  V30 1459 H 145.048 3.61098 -1.42231 0
M  V30 1460 H 143.149 3.57698 1.04322 0
M  V30 1461 H 143.262 4.7732 -0.412584 0
M  V30 1462 H 141.626 2.54404 -0.122777 0
M  V30 1463 H 142.409 2.95815 -1.74208 0
M  V30 1464 N 144.854 0.36279 1.53368 0
M  V30 1465 C 146.265 -0.117022 1.86333 0
M  V30 1466 C 146.616 -1.48397 1.28347 0
M  V30 1467 O 145.741 -2.07787 0.604428 0
M  V30 1468 C 146.336 -0.21912 3.38091 0
M  V30 1469 C 144.895 -0.643184 3.70864 0
M  V30 1470 C 144.042 0.211318 2.76494 0
M  V30 1471 H 146.993 0.581687 1.47655 0
M  V30 1472 H 147.014 -1.04319 3.6592 0
M  V30 1473 H 146.526 0.775902 3.80265 0
M  V30 1474 H 144.627 -1.64654 3.34245 0
M  V30 1475 H 144.74 -0.41973 4.77258 0
M  V30 1476 H 143.104 -0.319367 2.5269 0
M  V30 1477 H 143.887 1.20383 3.21501 0
M  V30 1478 N 146.332 -1.57332 0.0918853 0
M  V30 1479 C 147.295 -2.12708 -0.85369 0
M  V30 1480 C 148.295 -1.05561 -1.213 0
M  V30 1481 O 149.485 -1.31461 -1.14296 0
M  V30 1482 C 146.617 -2.64503 -2.15061 0
M  V30 1483 H 147.81 -2.97573 -0.3729 0
M  V30 1484 H 145.363 -1.55509 -0.157072 0
M  V30 1485 H 146.098 -1.83149 -2.67632 0
M  V30 1486 H 145.883 -3.4284 -1.90272 0
M  V30 1487 H 147.373 -3.07351 -2.82711 0
M  V30 1488 N 147.81 0.181792 -1.56548 0
M  V30 1489 C 148.742 1.24956 -1.92142 0
M  V30 1490 C 149.755 1.41022 -0.813422 0
M  V30 1491 O 150.944 1.41212 -1.09186 0
M  V30 1492 C 148.044 2.61981 -2.14987 0
M  V30 1493 C 147.217 2.6735 -3.46183 0
M  V30 1494 C 146.276 3.85664 -3.5798 0
M  V30 1495 O 145.302 3.72148 -4.30691 0
M  V30 1496 N 146.504 5.01683 -2.92053 0
M  V30 1497 H 149.269 0.947329 -2.84334 0
M  V30 1498 H 146.83 0.371629 -1.57577 0
M  V30 1499 H 148.822 3.3958 -2.20154 0
M  V30 1500 H 147.392 2.84637 -1.2923 0
M  V30 1501 H 146.612 1.75925 -3.52766 0
M  V30 1502 H 147.9 2.67939 -4.32534 0
M  V30 1503 H 147.298 5.15564 -2.32832 0
M  V30 1504 H 145.855 5.77181 -3.0283 0
M  V30 1505 N 149.288 1.51039 0.449983 0
M  V30 1506 C 150.236 1.71995 1.5659 0
M  V30 1507 C 151.23 0.586029 1.5894 0
M  V30 1508 O 152.436 0.76709 1.62837 0
M  V30 1509 H 148.811 0.543233 0.520001 0
M  V30 1510 H 150.782 2.65562 1.36085 0
M  V30 1511 C 149.531 1.8506 2.9436 0
M  V30 1512 H 148.854 2.71712 2.93279 0
M  V30 1513 H 150.294 2.0374 3.71842 0
M  V30 1514 C 148.753 0.607277 3.31382 0
M  V30 1515 O 149.283 -0.243903 4.00959 0
M  V30 1516 N 147.489 0.455073 2.87015 0
M  V30 1517 H 147.036 1.14879 2.30566 0
M  V30 1518 H 146.994 -0.375611 3.12148 0
M  V30 1519 N 150.766 -0.704594 1.40972 0
M  V30 1520 C 151.696 -1.83124 1.44872 0
M  V30 1521 C 152.677 -1.67281 0.30838 0
M  V30 1522 O 153.862 -1.87149 0.518556 0
M  V30 1523 C 150.992 -3.21181 1.32136 0
M  V30 1524 C 149.946 -3.51714 2.43888 0
M  V30 1525 C 149.272 -4.89032 2.16222 0
M  V30 1526 C 150.572 -3.516 3.86232 0
M  V30 1527 H 152.266 -1.80117 2.39161 0
M  V30 1528 H 149.812 -0.865145 1.15114 0
M  V30 1529 H 151.765 -3.99702 1.33479 0
M  V30 1530 H 150.489 -3.24791 0.343279 0
M  V30 1531 H 149.148 -2.75539 2.41813 0
M  V30 1532 H 148.796 -4.89256 1.16778 0
M  V30 1533 H 148.496 -5.10426 2.911 0
M  V30 1534 H 150.02 -5.69873 2.19265 0
M  V30 1535 H 151.434 -4.2014 3.9007 0
M  V30 1536 H 149.831 -3.84523 4.60719 0
M  V30 1537 H 150.901 -2.50757 4.15029 0
M  V30 1538 N 152.244 -1.26651 -0.937939 0
M  V30 1539 C 153.174 -1.10993 -2.05433 0
M  V30 1540 C 154.155 -0.0142161 -1.70094 0
M  V30 1541 O 155.34 -0.186837 -1.93299 0
M  V30 1542 C 152.47 -0.745561 -3.39203 0
M  V30 1543 C 151.424 -1.79337 -3.88616 0
M  V30 1544 C 150.75 -1.28324 -5.19073 0
M  V30 1545 C 152.05 -3.19553 -4.13138 0
M  V30 1546 H 153.744 -2.0438 -2.1879 0
M  V30 1547 H 151.29 -0.984041 -1.05131 0
M  V30 1548 H 153.243 -0.622888 -4.16771 0
M  V30 1549 H 151.967 0.22401 -3.25831 0
M  V30 1550 H 150.626 -1.90477 -3.13231 0
M  V30 1551 H 150.274 -0.303414 -5.02084 0
M  V30 1552 H 149.974 -1.98369 -5.53103 0
M  V30 1553 H 151.498 -1.1733 -5.99221 0
M  V30 1554 H 152.912 -3.11471 -4.81309 0
M  V30 1555 H 151.309 -3.87218 -4.58457 0
M  V30 1556 H 152.379 -3.65368 -3.18801 0
M  V30 1557 N 153.722 1.14298 -1.08507 0
M  V30 1558 C 154.652 2.21542 -0.737646 0
M  V30 1559 C 155.633 1.67773 0.280377 0
M  V30 1560 O 156.818 1.93616 0.150521 0
M  V30 1561 C 153.948 3.46988 -0.147259 0
M  V30 1562 C 152.902 4.13789 -1.09374 0
M  V30 1563 C 152.228 5.33449 -0.365524 0
M  V30 1564 C 153.528 4.62208 -2.4323 0
M  V30 1565 H 155.222 2.5086 -1.6343 0
M  V30 1566 H 152.768 1.20576 -0.787243 0
M  V30 1567 H 154.721 4.21262 0.107808 0
M  V30 1568 H 153.445 3.17037 0.784538 0
M  V30 1569 H 152.104 3.4147 -1.33393 0
M  V30 1570 H 151.752 4.99759 0.57011 0
M  V30 1571 H 151.452 5.79088 -0.996512 0
M  V30 1572 H 152.976 6.10485 -0.118534 0
M  V30 1573 H 154.39 5.27952 -2.23472 0
M  V30 1574 H 152.787 5.18553 -3.02031 0
M  V30 1575 H 153.857 3.77224 -3.04681 0
M  V30 1576 N 155.201 0.870884 1.31352 0
M  V30 1577 C 156.148 0.325425 2.28494 0
M  V30 1578 C 157.118 -0.576615 1.5577 0
M  V30 1579 O 158.303 -0.508059 1.83911 0
M  V30 1580 C 155.443 -0.466283 3.41935 0
M  V30 1581 C 154.556 0.463378 4.29508 0
M  V30 1582 C 153.691 -0.342544 5.30094 0
M  V30 1583 C 152.73 0.583486 6.09313 0
M  V30 1584 N 151.867 -0.186244 7.01853 0
M  V30 1585 H 156.707 1.15901 2.74538 0
M  V30 1586 H 154.244 0.58294 1.35056 0
M  V30 1587 H 156.202 -0.941085 4.06447 0
M  V30 1588 H 154.832 -1.26456 2.97 0
M  V30 1589 H 153.884 1.05663 3.65431 0
M  V30 1590 H 155.196 1.1734 4.84802 0
M  V30 1591 H 154.35 -0.879816 6.00287 0
M  V30 1592 H 153.089 -1.08585 4.75458 0
M  V30 1593 H 152.094 1.13251 5.3801 0
M  V30 1594 H 153.319 1.32566 6.66035 0
M  V30 1595 H 151.265 -0.912348 6.49625 0
M  V30 1596 H 151.182 0.464422 7.54572 0
M  V30 1597 H 152.45 -0.704716 7.76308 0
M  V30 1598 N 156.679 -1.44442 0.630414 0
M  V30 1599 C 157.904 -2.06927 0.139944 0
M  V30 1600 C 158.329 -1.46795 -1.17613 0
M  V30 1601 O 157.687 -0.569144 -1.72135 0
M  V30 1602 C 157.735 -3.6058 0.0379581 0
M  V30 1603 O 156.839 -3.99937 -1.0062 0
M  V30 1604 H 156.18 -0.658608 0.0844483 0
M  V30 1605 H 158.71 -1.85327 0.866891 0
M  V30 1606 H 158.72 -4.07714 -0.152856 0
M  V30 1607 H 157.395 -4.03728 0.998809 0
M  V30 1608 H 155.972 -3.64436 -0.79001 0
M  V30 1609 N 158.157 -0.370918 -1.53173 0
M  V30 1610 C 159.387 0.217389 -2.05453 0
M  V30 1611 C 159.795 1.42568 -1.24382 0
M  V30 1612 O 159.138 1.81571 -0.278839 0
M  V30 1613 C 159.2 0.669827 -3.53205 0
M  V30 1614 C 158.864 -0.4225 -4.55043 0
M  V30 1615 C 159.861 -1.27407 -5.04047 0
M  V30 1616 C 157.546 -0.58427 -4.9889 0
M  V30 1617 C 159.54 -2.27271 -5.95505 0
M  V30 1618 C 157.227 -1.58627 -5.90153 0
M  V30 1619 C 158.225 -2.42892 -6.38351 0
M  V30 1620 O 157.913 -3.41382 -7.27814 0
M  V30 1621 H 157.645 0.0408171 -0.674767 0
M  V30 1622 H 160.199 -0.5292 -1.98466 0
M  V30 1623 H 158.429 1.4681 -3.57748 0
M  V30 1624 H 160.118 1.18173 -3.88317 0
M  V30 1625 H 160.884 -1.16031 -4.70916 0
M  V30 1626 H 156.763 0.061851 -4.60959 0
M  V30 1627 H 160.307 -2.93079 -6.33049 0
M  V30 1628 H 156.204 -1.70048 -6.22699 0
M  V30 1629 H 156.972 -3.37173 -7.45826 0
M  V30 1630 N 159.635 1.57281 -0.100228 0
M  V30 1631 C 160.882 1.94537 0.562268 0
M  V30 1632 C 161.21 0.982315 1.67871 0
M  V30 1633 O 160.465 0.00280936 1.957 0
M  V30 1634 C 160.764 3.38305 1.15259 0
M  V30 1635 C 160.43 4.50618 0.159409 0
M  V30 1636 C 159.092 4.81066 -0.113741 0
M  V30 1637 C 161.444 5.18615 -0.518461 0
M  V30 1638 C 158.772 5.76835 -1.07137 0
M  V30 1639 C 161.124 6.15412 -1.46459 0
M  V30 1640 C 159.788 6.44262 -1.74592 0
M  V30 1641 H 159.058 0.711863 0.205748 0
M  V30 1642 H 161.705 1.90679 -0.17715 0
M  V30 1643 H 160.01 3.38766 1.96836 0
M  V30 1644 H 161.707 3.64435 1.67297 0
M  V30 1645 H 158.297 4.2689 0.382491 0
M  V30 1646 H 162.481 4.95264 -0.320581 0
M  V30 1647 H 157.737 5.975 -1.29628 0
M  V30 1648 H 161.911 6.67194 -1.99564 0
M  V30 1649 H 159.538 7.1828 -2.48953 0
M  V30 1650 N 161.113 -0.173488 1.56642 0
M  V30 1651 C 162.338 -0.910149 1.86363 0
M  V30 1652 C 162.763 -1.75132 0.686318 0
M  V30 1653 O 162.121 -1.77595 -0.364643 0
M  V30 1654 C 162.169 -1.76447 3.14482 0
M  V30 1655 O 161.273 -2.86584 2.96553 0
M  V30 1656 H 160.614 -0.255086 0.613047 0
M  V30 1657 H 163.144 -0.172283 2.03873 0
M  V30 1658 H 163.154 -2.16483 3.45831 0
M  V30 1659 H 161.829 -1.14658 3.99783 0
M  V30 1660 H 160.406 -2.50146 2.76553 0
M  V30 1661 N 162.591 -1.51276 -0.441967 0
M  V30 1662 C 163.501 -1.75092 -1.56141 0
M  V30 1663 C 164.517 -0.634963 -1.62001 0
M  V30 1664 O 165.693 -0.916686 -1.79329 0
M  V30 1665 C 162.758 -1.86666 -2.92158 0
M  V30 1666 C 161.819 -3.10506 -2.96453 0
M  V30 1667 C 161.052 -3.21519 -4.25982 0
M  V30 1668 O 161.275 -2.38586 -5.18105 0
M  V30 1669 O 160.209 -4.14465 -4.36466 0
M  V30 1670 H 164.035 -2.70044 -1.38961 0
M  V30 1671 H 161.62 -1.35722 -0.624499 0
M  V30 1672 H 163.502 -1.96292 -3.72891 0
M  V30 1673 H 162.177 -0.949014 -3.09476 0
M  V30 1674 H 161.084 -3.06363 -2.14692 0
M  V30 1675 H 162.417 -4.01945 -2.84079 0
M  V30 1676 N 164.069 0.697108 -1.41344 0
M  V30 1677 C 164.979 1.84088 -1.45427 0
M  V30 1678 C 165.995 1.70545 -0.34501 0
M  V30 1679 O 167.171 1.92488 -0.592492 0
M  V30 1680 C 164.236 3.20056 -1.33286 0
M  V30 1681 C 163.297 3.45718 -2.54514 0
M  V30 1682 C 162.53 4.75199 -2.42944 0
M  V30 1683 O 162.753 5.51579 -1.45318 0
M  V30 1684 O 161.687 5.0161 -3.32672 0
M  V30 1685 H 165.513 1.836 -2.41919 0
M  V30 1686 H 163.098 0.849966 -1.22866 0
M  V30 1687 H 164.98 4.01236 -1.28794 0
M  V30 1688 H 163.655 3.2123 -0.39909 0
M  V30 1689 H 162.562 2.64474 -2.64583 0
M  V30 1690 H 163.895 3.49356 -3.46715 0
M  V30 1691 N 165.547 1.27147 0.931209 0
M  V30 1692 C 166.795 1.13055 1.6752 0
M  V30 1693 C 167.116 -0.324791 1.92276 0
M  V30 1694 O 166.386 -1.22775 1.52654 0
M  V30 1695 H 164.966 0.415391 0.620854 0
M  V30 1696 H 167.628 1.59623 1.11833 0
M  V30 1697 H 166.724 1.65694 2.64485 0
M  V30 1698 N 167.025 -1.13721 1.09112 0
M  V30 1699 C 168.274 -1.84275 0.82009 0
M  V30 1700 C 168.587 -1.84253 -0.656509 0
M  V30 1701 O 169.793 -2.50668 -1.04296 0
M  V30 1702 C 168.249 -3.30825 1.41714 0
M  V30 1703 C 167.857 -3.39244 2.92605 0
M  V30 1704 C 169.601 -4.06443 1.22492 0
M  V30 1705 C 167.508 -4.80047 3.45411 0
M  V30 1706 H 166.438 -0.690387 0.30312 0
M  V30 1707 H 169.089 -1.28146 1.31343 0
M  V30 1708 H 167.471 -3.86737 0.851498 0
M  V30 1709 H 168.645 -2.93344 3.55367 0
M  V30 1710 H 166.96 -2.77088 3.10823 0
M  V30 1711 H 169.557 -5.10387 1.59402 0
M  V30 1712 H 169.9 -4.15972 0.165299 0
M  V30 1713 H 170.433 -3.56852 1.75788 0
M  V30 1714 H 167.172 -4.75709 4.50978 0
M  V30 1715 H 166.692 -5.26455 2.87411 0
M  V30 1716 H 168.371 -5.48957 3.42425 0
M  V30 1717 N 168.503 -0.877838 -1.30888 0
M  V30 1718 C 169.751 -0.491723 -1.96027 0
M  V30 1719 C 170.072 0.960827 -1.69685 0
M  V30 1720 O 169.342 1.67462 -1.01654 0
M  V30 1721 H 167.922 -0.17885 -0.725273 0
M  V30 1722 H 170.584 -1.11935 -1.59551 0
M  V30 1723 H 169.68 -0.656016 -3.05128 0
M  V30 1724 N 169.982 1.44106 -0.638065 0
M  V30 1725 C 171.212 2.06037 -0.152394 0
M  V30 1726 C 171.62 1.47808 1.18108 0
M  V30 1727 O 170.963 0.598092 1.73691 0
M  V30 1728 C 171.025 3.59488 0.0293714 0
M  V30 1729 C 170.689 4.4022 -1.22702 0
M  V30 1730 C 171.686 4.73256 -2.15232 0
M  V30 1731 C 169.371 4.8048 -1.46437 0
M  V30 1732 C 171.365 5.45444 -3.29802 0
M  V30 1733 C 169.052 5.52417 -2.61303 0
M  V30 1734 C 170.05 5.84819 -3.52811 0
M  V30 1735 O 169.738 6.55289 -4.65673 0
M  V30 1736 H 169.47 0.671233 -0.0801401 0
M  V30 1737 H 172.024 1.85851 -0.874563 0
M  V30 1738 H 170.254 3.78191 0.806758 0
M  V30 1739 H 171.943 4.03164 0.470475 0
M  V30 1740 H 172.709 4.42684 -1.98131 0
M  V30 1741 H 168.588 4.54676 -0.760977 0
M  V30 1742 H 172.132 5.70653 -4.01249 0
M  V30 1743 H 168.029 5.82404 -2.78344 0
M  V30 1744 H 168.797 6.73762 -4.64744 0
M  V30 1745 N 171.46 0.379036 1.52974 0
M  V30 1746 C 172.408 -0.476033 2.27677 0
M  V30 1747 C 173.402 -1.0719 1.31174 0
M  V30 1748 O 174.608 -1.01355 1.48752 0
M  V30 1749 H 170.983 -0.172255 0.732006 0
M  V30 1750 H 172.954 0.175615 2.97883 0
M  V30 1751 C 171.703 -1.5967 3.0887 0
M  V30 1752 H 171.026 -1.1475 3.82978 0
M  V30 1753 H 172.466 -2.16943 3.64296 0
M  V30 1754 C 170.925 -2.54682 2.20542 0
M  V30 1755 O 171.455 -3.57836 1.82527 0
M  V30 1756 N 169.661 -2.24183 1.84907 0
M  V30 1757 H 169.208 -1.40333 2.1602 0
M  V30 1758 H 169.166 -2.88006 1.26096 0
M  V30 1759 N 172.938 -1.57226 0.108567 0
M  V30 1760 C 174.187 -1.94008 -0.551703 0
M  V30 1761 C 174.5 -0.993442 -1.68494 0
M  V30 1762 O 175.706 -1.25551 -2.40726 0
M  V30 1763 C 174.162 -3.44763 -1.03279 0
M  V30 1764 C 173.77 -4.47943 0.0714193 0
M  V30 1765 C 175.514 -3.90483 -1.66503 0
M  V30 1766 C 173.421 -5.89865 -0.425779 0
M  V30 1767 H 172.351 -0.724206 -0.209863 0
M  V30 1768 H 175.002 -1.82547 0.186741 0
M  V30 1769 H 173.384 -3.51422 -1.82533 0
M  V30 1770 H 174.558 -4.52942 0.847365 0
M  V30 1771 H 172.873 -4.11913 0.609669 0
M  V30 1772 H 175.47 -4.93925 -2.04798 0
M  V30 1773 H 175.813 -3.29877 -2.53942 0
M  V30 1774 H 176.346 -3.86581 -0.938074 0
M  V30 1775 H 173.085 -6.54202 0.412316 0
M  V30 1776 H 172.605 -5.88309 -1.16843 0
M  V30 1777 H 174.284 -6.40844 -0.890397 0
M  V30 1778 N 174.416 0.165178 -1.56732 0
M  V30 1779 C 175.665 0.879143 -1.81532 0
M  V30 1780 C 175.978 1.83144 -0.686842 0
M  V30 1781 O 177.184 2.58823 -0.819944 0
M  V30 1782 C 175.64 1.61388 -3.21686 0
M  V30 1783 C 175.248 0.704904 -4.4242 0
M  V30 1784 C 176.992 2.3157 -3.55774 0
M  V30 1785 C 174.899 1.44022 -5.73595 0
M  V30 1786 H 173.829 0.332033 -0.676957 0
M  V30 1787 H 176.48 0.132008 -1.83025 0
M  V30 1788 H 174.862 2.40599 -3.14529 0
M  V30 1789 H 176.036 -0.0506815 -4.60772 0
M  V30 1790 H 174.351 0.112419 -4.16248 0
M  V30 1791 H 176.948 2.8719 -4.51028 0
M  V30 1792 H 177.291 3.07201 -2.8095 0
M  V30 1793 H 177.824 1.59297 -3.64513 0
M  V30 1794 H 174.563 0.72612 -6.51466 0
M  V30 1795 H 174.083 2.16898 -5.5921 0
M  V30 1796 H 175.762 1.98606 -6.15764 0
M  V30 1797 N 175.894 1.51508 0.433938 0
M  V30 1798 C 177.31 1.39759 0.770682 0
M  V30 1799 C 177.51 0.482594 1.95636 0
M  V30 1800 O 176.566 -0.0609691 2.52426 0
M  V30 1801 C 177.879 2.81851 1.04787 0
M  V30 1802 C 179.427 2.91025 1.1521 0
M  V30 1803 C 179.902 4.34032 1.46219 0
M  V30 1804 N 181.393 4.37154 1.53136 0
M  V30 1805 C 182.128 5.4484 1.78709 0
M  V30 1806 N 181.624 6.62682 2.02051 0
M  V30 1807 N 183.417 5.32324 1.80519 0
M  V30 1808 H 175.568 2.09548 -0.346892 0
M  V30 1809 H 177.831 0.943446 -0.0928074 0
M  V30 1810 H 177.537 3.50815 0.249304 0
M  V30 1811 H 177.411 3.21386 1.97461 0
M  V30 1812 H 179.798 2.22257 1.94128 0
M  V30 1813 H 179.879 2.54983 0.204281 0
M  V30 1814 H 179.523 5.03351 0.678274 0
M  V30 1815 H 179.453 4.6759 2.42212 0
M  V30 1816 H 181.944 3.52197 1.36987 0
M  V30 1817 H 182.257 7.40543 2.20943 0
M  V30 1818 H 180.602 6.65791 1.99366 0
M  V30 1819 H 183.793 4.39246 1.61805 0
M  V30 1820 H 183.966 6.16328 2.00111 0
M  V30 1821 N 177.372 -0.689602 1.41712 0
M  V30 1822 C 178.618 -1.45181 1.41599 0
M  V30 1823 C 178.951 -1.94181 0.0270081 0
M  V30 1824 O 178.226 -1.6993 -0.946265 0
M  V30 1825 C 178.509 -2.65945 2.42787 0
M  V30 1826 C 178.362 -2.22672 3.90816 0
M  V30 1827 C 179.681 -3.68149 2.41151 0
M  V30 1828 H 176.8 -0.526576 0.515642 0
M  V30 1829 H 179.442 -0.784947 1.73028 0
M  V30 1830 H 177.592 -3.2284 2.16116 0
M  V30 1831 H 179.264 -1.71058 4.28412 0
M  V30 1832 H 177.507 -1.54394 4.05395 0
M  V30 1833 H 178.178 -3.0935 4.57172 0
M  V30 1834 H 180.654 -3.2094 2.64834 0
M  V30 1835 H 179.53 -4.50248 3.13955 0
M  V30 1836 H 179.791 -4.18259 1.43221 0
M  V30 1837 N 178.85 -1.27639 -0.924453 0
M  V30 1838 C 180.261 -1.12834 -1.48746 0
M  V30 1839 C 180.612 0.285505 -1.94112 0
M  V30 1840 O 179.737 1.17874 -1.81479 0
M  V30 1841 C 180.332 -2.04217 -2.70334 0
M  V30 1842 C 178.891 -1.93509 -3.22848 0
M  V30 1843 C 178.038 -1.96583 -1.95577 0
M  V30 1844 H 180.989 -1.40484 -0.738233 0
M  V30 1845 H 181.01 -1.59989 -3.4523 0
M  V30 1846 H 180.522 -3.07111 -2.37285 0
M  V30 1847 H 178.623 -0.936131 -3.60649 0
M  V30 1848 H 178.736 -2.79917 -3.88823 0
M  V30 1849 H 177.1 -1.4085 -2.12211 0
M  V30 1850 H 177.883 -3.01137 -1.64837 0
M  V30 1851 N 180.328 1.1314 -1.09713 0
M  V30 1852 C 181.261 2.17735 -0.683137 0
M  V30 1853 C 182.239 1.59582 0.311841 0
M  V30 1854 O 183.423 1.87298 0.212514 0
M  V30 1855 C 180.55 3.38699 -0.00684324 0
M  V30 1856 C 179.596 4.1546 -0.964102 0
M  V30 1857 S 180.429 4.74733 -2.47767 0
M  V30 1858 C 181.585 5.9904 -1.81387 0
M  V30 1859 H 181.818 2.52515 -1.56918 0
M  V30 1860 H 179.351 1.24484 -0.913404 0
M  V30 1861 H 181.309 4.08765 0.377044 0
M  V30 1862 H 179.97 3.02214 0.85589 0
M  V30 1863 H 179.163 5.02093 -0.43803 0
M  V30 1864 H 178.765 3.51066 -1.28953 0
M  V30 1865 H 181.057 6.67846 -1.13967 0
M  V30 1866 H 182 6.56261 -2.65947 0
M  V30 1867 H 182.408 5.4976 -1.28155 0
M  V30 1868 N 181.806 0.884767 1.30421 0
M  V30 1869 C 182.769 0.356277 2.26414 0
M  V30 1870 C 183.769 -0.501124 1.52792 0
M  V30 1871 O 184.959 -0.30831 1.7145 0
M  V30 1872 C 182.091 -0.492316 3.37326 0
M  V30 1873 H 183.284 1.20389 2.74675 0
M  V30 1874 H 180.837 0.661607 1.41607 0
M  V30 1875 H 181.572 -1.36052 2.94381 0
M  V30 1876 H 181.357 0.121832 3.91911 0
M  V30 1877 H 182.847 -0.853871 4.08777 0
M  V30 1878 N 183.284 -1.43765 0.645699 0
M  V30 1879 C 184.509 -2.06767 0.161883 0
M  V30 1880 C 184.934 -1.48034 -1.16049 0
M  V30 1881 O 184.292 -0.587369 -1.71522 0
M  V30 1882 C 184.34 -3.60519 0.0762003 0
M  V30 1883 O 183.444 -4.00982 -0.963721 0
M  V30 1884 H 182.785 -0.657675 0.091429 0
M  V30 1885 H 185.315 -1.84397 0.886499 0
M  V30 1886 H 185.325 -4.07853 -0.109604 0
M  V30 1887 H 184 -4.02646 1.04157 0
M  V30 1888 H 182.577 -3.65253 -0.751312 0
M  V30 1889 N 184.763 -0.387143 -1.52771 0
M  V30 1890 C 186.003 0.195537 -2.03463 0
M  V30 1891 C 186.367 1.44222 -1.26744 0
M  V30 1892 O 187.568 2.10192 -1.67549 0
M  V30 1893 C 185.839 0.459097 -3.54439 0
M  V30 1894 S 187.398 1.01237 -4.26962 0
M  V30 1895 H 184.216 0.0552675 -0.708849 0
M  V30 1896 H 186.818 -0.534992 -1.88037 0
M  V30 1897 H 185.522 -0.455382 -4.07866 0
M  V30 1898 H 185.053 1.21811 -3.74066 0
M  V30 1899 H 187.068 2.29492 -4.39941 0
M  V30 1900 N 186.241 1.57166 -0.116904 0
M  V30 1901 C 187.518 1.86645 0.585049 0
M  V30 1902 C 187.898 1.0177 1.84949 0
M  V30 1903 O 187.246 0.0960379 2.28298 0
M  V30 1904 C 187.456 3.37736 0.879507 0
M  V30 1905 C 188.804 4.06289 1.23348 0
M  V30 1906 O 189.828 3.42743 0.969836 0
M  V30 1907 O 188.687 5.18455 1.7282 0
M  V30 1908 H 185.781 0.772593 0.295007 0
M  V30 1909 H 188.327 1.69025 -0.151249 0
M  V30 1910 H 187.099 3.91296 -0.0166136 0
M  V30 1911 H 186.722 3.6078 1.67103 0
M  V30 1912 N 187.719 -0.156864 1.56817 0
M  V30 1913 C 188.966 -0.871125 1.82805 0
M  V30 1914 C 189.294 -1.81611 0.696262 0
M  V30 1915 O 188.549 -1.93141 -0.315459 0
M  V30 1916 C 188.848 -1.68737 3.1506 0
M  V30 1917 C 188.514 -0.890045 4.42028 0
M  V30 1918 C 187.176 -0.670042 4.76512 0
M  V30 1919 C 189.528 -0.331769 5.20143 0
M  V30 1920 C 186.856 0.119104 5.86579 0
M  V30 1921 C 189.208 0.444365 6.31037 0
M  V30 1922 C 187.872 0.675035 6.64078 0
M  V30 1923 H 187.142 -0.318767 0.668931 0
M  V30 1924 H 189.789 -0.135274 1.91022 0
M  V30 1925 H 188.094 -2.49304 3.0225 0
M  V30 1926 H 189.791 -2.24331 3.3238 0
M  V30 1927 H 186.381 -1.07157 4.14988 0
M  V30 1928 H 190.565 -0.489043 4.93885 0
M  V30 1929 H 185.821 0.307417 6.10627 0
M  V30 1930 H 189.995 0.884139 6.90765 0
M  V30 1931 H 187.622 1.28839 7.49203 0
M  V30 1932 N 189.197 -1.51736 -0.425897 0
M  V30 1933 C 190.422 -1.69082 -1.20108 0
M  V30 1934 C 190.847 -0.392398 -1.83962 0
M  V30 1935 O 190.205 0.64858 -1.69302 0
M  V30 1936 C 190.253 -2.81604 -2.25237 0
M  V30 1937 O 189.357 -2.46004 -3.30992 0
M  V30 1938 H 188.698 -0.563408 -0.35138 0
M  V30 1939 H 191.228 -1.98358 -0.501512 0
M  V30 1940 H 191.238 -3.06025 -2.69838 0
M  V30 1941 H 189.913 -3.75817 -1.78142 0
M  V30 1942 H 188.49 -2.32195 -2.91787 0
M  V30 1943 N 190.675 0.682077 -1.42076 0
M  V30 1944 C 191.924 1.43786 -1.41451 0
M  V30 1945 C 192.237 1.95574 -0.0317074 0
M  V30 1946 O 193.443 2.71326 0.0971462 0
M  V30 1947 C 191.899 2.60071 -2.48779 0
M  V30 1948 C 191.507 2.15013 -3.93031 0
M  V30 1949 C 193.251 3.37626 -2.57311 0
M  V30 1950 C 191.158 3.28336 -4.91883 0
M  V30 1951 H 190.088 0.540143 -0.526082 0
M  V30 1952 H 192.739 0.739157 -1.67955 0
M  V30 1953 H 191.121 3.32275 -2.15429 0
M  V30 1954 H 192.295 1.5001 -4.35699 0
M  V30 1955 H 190.61 1.50416 -3.88284 0
M  V30 1956 H 193.207 4.22012 -3.28345 0
M  V30 1957 H 193.55 3.83727 -1.61429 0
M  V30 1958 H 194.083 2.72488 -2.89819 0
M  V30 1959 H 190.822 2.87234 -5.89217 0
M  V30 1960 H 190.342 3.92145 -4.53853 0
M  V30 1961 H 192.021 3.93913 -5.13265 0
M  V30 1962 N 192.153 1.28127 0.917671 0
M  V30 1963 C 193.569 1.05749 1.19538 0
M  V30 1964 C 193.769 -0.202633 2.00479 0
M  V30 1965 O 192.825 -0.905382 2.3571 0
M  V30 1966 C 194.138 2.30273 1.93378 0
M  V30 1967 C 195.686 2.35412 2.06277 0
M  V30 1968 C 196.161 3.59692 2.83524 0
M  V30 1969 N 197.652 3.60309 2.91087 0
M  V30 1970 C 198.387 4.53147 3.51348 0
M  V30 1971 N 197.883 5.563 4.12919 0
M  V30 1972 N 199.676 4.40751 3.48849 0
M  V30 1973 H 191.827 2.09024 0.377184 0
M  V30 1974 H 194.09 0.919798 0.22951 0
M  V30 1975 H 193.796 3.22055 1.41328 0
M  V30 1976 H 193.67 2.36378 2.93947 0
M  V30 1977 H 196.057 1.4413 2.57508 0
M  V30 1978 H 196.138 2.33304 1.04895 0
M  V30 1979 H 195.782 4.51316 2.32973 0
M  V30 1980 H 195.712 3.59054 3.85211 0
M  V30 1981 H 198.203 2.85714 2.47338 0
M  V30 1982 H 198.516 6.2329 4.56869 0
M  V30 1983 H 196.861 5.60131 4.11435 0
M  V30 1984 H 200.052 3.59367 2.99955 0
M  V30 1985 H 200.225 5.13291 3.9552 0
M  V30 1986 N 193.631 -1.12557 1.10312 0
M  V30 1987 C 194.859 -1.87864 0.866873 0
M  V30 1988 C 195.274 -1.79588 -0.582557 0
M  V30 1989 O 194.631 -1.16887 -1.40156 0
M  V30 1990 C 194.682 -3.37125 1.30496 0
M  V30 1991 O 194.403 -3.45201 2.69755 0
M  V30 1992 C 195.904 -4.29373 1.10243 0
M  V30 1993 H 193.124 -0.594452 0.311236 0
M  V30 1994 H 195.668 -1.42429 1.46745 0
M  V30 1995 H 193.823 -3.80109 0.748081 0
M  V30 1996 H 194.237 -4.38056 2.88457 0
M  V30 1997 H 195.711 -5.32394 1.45811 0
M  V30 1998 H 196.188 -4.39181 0.0409492 0
M  V30 1999 H 196.794 -3.92169 1.64571 0
M  V30 2000 N 195.109 -0.891671 -1.2995 0
M  V30 2001 C 196.339 -0.527893 -1.99742 0
M  V30 2002 C 196.747 0.88979 -1.66971 0
M  V30 2003 O 196.09 1.59766 -0.906667 0
M  V30 2004 C 196.152 -0.630804 -3.53922 0
M  V30 2005 C 195.816 -2.01401 -4.10228 0
M  V30 2006 C 196.813 -2.98422 -4.25724 0
M  V30 2007 C 194.498 -2.32121 -4.45449 0
M  V30 2008 C 196.492 -4.24293 -4.75662 0
M  V30 2009 C 194.179 -3.58237 -4.95086 0
M  V30 2010 C 195.177 -4.54137 -5.10146 0
M  V30 2011 O 194.865 -5.78014 -5.58708 0
M  V30 2012 H 194.597 -0.201953 -0.645129 0
M  V30 2013 H 197.151 -1.20076 -1.66646 0
M  V30 2014 H 195.381 0.0990616 -3.86573 0
M  V30 2015 H 197.07 -0.277338 -4.04951 0
M  V30 2016 H 197.836 -2.76001 -3.98809 0
M  V30 2017 H 193.715 -1.5824 -4.32991 0
M  V30 2018 H 197.259 -4.99153 -4.87332 0
M  V30 2019 H 193.156 -3.80491 -5.21437 0
M  V30 2020 H 193.924 -5.8049 -5.77039 0
M  V30 2021 N 196.587 1.43421 -0.653314 0
M  V30 2022 C 197.815 2.06163 -0.174491 0
M  V30 2023 C 198.23 1.48969 1.1599 0
M  V30 2024 O 197.587 0.621042 1.71608 0
M  V30 2025 C 197.638 3.61417 -0.0774865 0
M  V30 2026 O 197.359 4.16485 -1.35912 0
M  V30 2027 C 198.86 4.41235 0.427402 0
M  V30 2028 H 196.08 0.664946 -0.0899353 0
M  V30 2029 H 198.624 1.83924 -0.893988 0
M  V30 2030 H 196.779 3.82841 0.59257 0
M  V30 2031 H 197.193 5.10153 -1.21839 0
M  V30 2032 H 198.667 5.5021 0.44423 0
M  V30 2033 H 199.144 4.14268 1.45873 0
M  V30 2034 H 199.75 4.2478 -0.210167 0
M  V30 2035 N 198.065 0.39524 1.52563 0
M  V30 2036 C 199.295 -0.184675 2.05773 0
M  V30 2037 C 199.703 -1.40571 1.26635 0
M  V30 2038 O 199.046 -1.81105 0.30769 0
M  V30 2039 C 199.108 -0.613551 3.54226 0
M  V30 2040 C 198.772 0.49484 4.54313 0
M  V30 2041 C 199.769 1.3541 5.01956 0
M  V30 2042 C 197.454 0.663565 4.97898 0
M  V30 2043 C 199.448 2.36716 5.91814 0
M  V30 2044 C 197.135 1.67996 5.87555 0
M  V30 2045 C 198.133 2.53017 6.34406 0
M  V30 2046 O 197.821 3.52917 7.22291 0
M  V30 2047 H 197.553 -0.030077 0.675331 0
M  V30 2048 H 200.107 0.560708 1.97599 0
M  V30 2049 H 198.337 -1.411 3.60038 0
M  V30 2050 H 200.026 -1.11981 3.90148 0
M  V30 2051 H 200.792 1.23509 4.6901 0
M  V30 2052 H 196.671 0.0114913 4.60999 0
M  V30 2053 H 200.215 3.03113 6.28306 0
M  V30 2054 H 196.112 1.79933 6.19915 0
M  V30 2055 H 196.88 3.48996 7.40367 0
M  V30 2056 N 199.544 -1.57102 0.125237 0
M  V30 2057 C 200.507 -2.14471 -0.80838 0
M  V30 2058 C 201.507 -1.0811 -1.19033 0
M  V30 2059 O 202.697 -1.33856 -1.11482 0
M  V30 2060 C 199.829 -2.69005 -2.09402 0
M  V30 2061 H 201.022 -2.98297 -0.309696 0
M  V30 2062 H 198.575 -1.55807 -0.124051 0
M  V30 2063 H 199.31 -1.88785 -2.63687 0
M  V30 2064 H 199.095 -3.46799 -1.82957 0
M  V30 2065 H 200.585 -3.13278 -2.76128 0
M  V30 2066 N 201.022 0.148545 -1.56898 0
M  V30 2067 C 202.299 0.890019 -1.74178 0
M  V30 2068 C 202.679 1.99407 -0.692839 0
M  V30 2069 O 202.027 2.26671 0.288505 0
M  V30 2070 C 202.237 1.43389 -3.18183 0
M  V30 2071 C 203.585 1.89791 -3.79822 0
M  V30 2072 O 204.609 1.53134 -3.21603 0
M  V30 2073 O 203.468 2.57387 -4.82093 0
M  V30 2074 H 200.562 0.420496 -0.712118 0
M  V30 2075 H 203.108 0.134591 -1.69165 0
M  V30 2076 H 201.88 0.640383 -3.86024 0
M  V30 2077 H 201.503 2.25287 -3.27615 0
M  V30 2078 N 202.5 1.5196 0.417844 0
M  V30 2079 C 203.728 1.69426 1.18753 0
M  V30 2080 C 204.143 0.399955 1.84515 0
M  V30 2081 O 203.5 -0.623288 1.71527 0
M  V30 2082 C 203.551 2.82375 2.25714 0
M  V30 2083 O 203.272 4.06793 1.62638 0
M  V30 2084 C 204.773 3.11277 3.15628 0
M  V30 2085 H 201.993 0.568031 0.357186 0
M  V30 2086 H 204.537 1.98475 0.49273 0
M  V30 2087 H 202.692 2.5587 2.90877 0
M  V30 2088 H 203.106 4.69667 2.3348 0
M  V30 2089 H 204.58 3.93843 3.86771 0
M  V30 2090 H 205.057 2.24473 3.77503 0
M  V30 2091 H 205.663 3.39515 2.56144 0
M  V30 2092 N 203.978 -0.674533 1.42435 0
M  V30 2093 C 205.389 -1.25514 1.38214 0
M  V30 2094 C 205.74 -1.96055 0.0755464 0
M  V30 2095 O 204.865 -2.00028 -0.8257 0
M  V30 2096 C 205.46 -2.28269 2.50357 0
M  V30 2097 C 204.019 -2.81856 2.49467 0
M  V30 2098 C 203.166 -1.56182 2.29134 0
M  V30 2099 H 206.117 -0.467902 1.51646 0
M  V30 2100 H 206.138 -3.10009 2.20624 0
M  V30 2101 H 205.65 -1.769 3.45439 0
M  V30 2102 H 203.751 -3.37346 1.58204 0
M  V30 2103 H 203.864 -3.30854 3.46515 0
M  V30 2104 H 202.228 -1.82761 1.774 0
M  V30 2105 H 203.011 -1.06778 3.26272 0
M  V30 2106 N 205.456 -1.28612 -0.910864 0
M  V30 2107 C 206.733 -1.06632 -1.63979 0
M  V30 2108 C 207.113 0.393351 -2.07403 0
M  V30 2109 O 206.461 1.37999 -1.82122 0
M  V30 2110 C 206.671 -2.0436 -2.8291 0
M  V30 2111 C 208.019 -2.34666 -3.5386 0
M  V30 2112 O 209.043 -2.02467 -2.93062 0
M  V30 2113 O 207.902 -2.89631 -4.63439 0
M  V30 2114 H 204.996 -0.407737 -0.7195 0
M  V30 2115 H 207.542 -1.39942 -0.959914 0
M  V30 2116 H 206.314 -3.02727 -2.47936 0
M  V30 2117 H 205.937 -1.71714 -3.58609 0
M  V30 2118 N 206.934 1.1197 -1.10907 0
M  V30 2119 C 208.211 1.79959 -0.766432 0
M  V30 2120 C 208.591 1.97466 0.746363 0
M  V30 2121 O 207.939 1.55491 1.67436 0
M  V30 2122 C 208.149 3.14009 -1.52314 0
M  V30 2123 C 209.497 3.89134 -1.69883 0
M  V30 2124 O 210.521 3.2368 -1.48692 0
M  V30 2125 O 209.38 5.06572 -2.05054 0
M  V30 2126 H 206.474 0.779208 -0.277062 0
M  V30 2127 H 209.02 1.18762 -1.21217 0
M  V30 2128 H 207.792 2.96587 -2.55249 0
M  V30 2129 H 207.415 3.82915 -1.07059 0
M  V30 2130 N 208.412 0.89855 1.29475 0
M  V30 2131 C 209.659 0.523882 1.95606 0
M  V30 2132 C 209.987 -0.929608 1.70847 0
M  V30 2133 O 209.242 -1.67401 1.01367 0
M  V30 2134 C 209.541 0.761398 3.49195 0
M  V30 2135 C 209.207 2.19207 3.94029 0
M  V30 2136 C 207.869 2.58326 4.05982 0
M  V30 2137 C 210.221 3.12379 4.17216 0
M  V30 2138 C 207.549 3.898 4.38489 0
M  V30 2139 C 209.901 4.43401 4.51197 0
M  V30 2140 C 208.565 4.82394 4.61359 0
M  V30 2141 H 207.835 0.191702 0.715773 0
M  V30 2142 H 210.482 1.13699 1.54094 0
M  V30 2143 H 208.787 0.0653622 3.91745 0
M  V30 2144 H 210.484 0.450904 3.98457 0
M  V30 2145 H 207.074 1.87846 3.85242 0
M  V30 2146 H 211.258 2.83371 4.07449 0
M  V30 2147 H 206.514 4.19734 4.44559 0
M  V30 2148 H 210.688 5.15623 4.68087 0
M  V30 2149 H 208.315 5.84306 4.86303 0
M  V30 2150 N 209.89 -1.43072 0.660911 0
M  V30 2151 C 210.822 -2.29108 -0.0647641 0
M  V30 2152 C 211.835 -1.42928 -0.779448 0
M  V30 2153 O 213.024 -1.66788 -0.635921 0
M  V30 2154 C 210.124 -3.20032 -1.11503 0
M  V30 2155 C 209.297 -4.34792 -0.476955 0
M  V30 2156 C 208.356 -5.06534 -1.42513 0
M  V30 2157 O 207.382 -5.61538 -0.930771 0
M  V30 2158 N 208.584 -5.1075 -2.75889 0
M  V30 2159 H 211.349 -2.92029 0.673731 0
M  V30 2160 H 208.91 -1.53846 0.50427 0
M  V30 2161 H 210.902 -3.64892 -1.75032 0
M  V30 2162 H 209.472 -2.58658 -1.75541 0
M  V30 2163 H 208.692 -3.92752 0.337572 0
M  V30 2164 H 209.98 -5.0879 -0.0318525 0
M  V30 2165 H 209.378 -4.67447 -3.18606 0
M  V30 2166 H 207.935 -5.59302 -3.347 0
M  V30 2167 N 211.368 -0.403325 -1.52352 0
M  V30 2168 C 212.298 0.416205 -2.29761 0
M  V30 2169 C 213.279 1.05123 -1.33728 0
M  V30 2170 O 214.464 1.06134 -1.62632 0
M  V30 2171 C 211.594 1.53624 -3.11475 0
M  V30 2172 C 210.548 1.02653 -4.15507 0
M  V30 2173 C 209.874 2.23971 -4.85532 0
M  V30 2174 C 211.174 0.08463 -5.22231 0
M  V30 2175 H 212.868 -0.229701 -2.98518 0
M  V30 2176 H 210.414 -0.111913 -1.43564 0
M  V30 2177 H 212.367 2.1165 -3.64393 0
M  V30 2178 H 211.091 2.20994 -2.40477 0
M  V30 2179 H 209.75 0.46871 -3.63591 0
M  V30 2180 H 209.398 2.89883 -4.11068 0
M  V30 2181 H 209.098 1.90521 -5.55856 0
M  V30 2182 H 210.622 2.82614 -5.41259 0
M  V30 2183 H 212.036 0.573509 -5.70424 0
M  V30 2184 H 210.433 -0.160783 -5.99885 0
M  V30 2185 H 211.503 -0.86237 -4.7717 0
M  V30 2186 N 212.846 1.57033 -0.133567 0
M  V30 2187 C 213.796 2.12641 0.822671 0
M  V30 2188 C 214.78 1.05081 1.21847 0
M  V30 2189 O 215.972 1.31287 1.18713 0
M  V30 2190 C 213.101 2.74094 2.06706 0
M  V30 2191 C 212.187 3.88757 1.69497 0
M  V30 2192 N 212.578 4.95194 1.03037 0
M  V30 2193 C 210.876 3.99213 1.98859 0
M  V30 2194 C 211.577 5.75414 0.852873 0
M  V30 2195 N 210.553 5.25726 1.3825 0
M  V30 2196 H 214.355 2.92308 0.305537 0
M  V30 2197 H 211.869 1.62256 0.0684276 0
M  V30 2198 H 213.866 3.12285 2.76195 0
M  V30 2199 H 212.526 1.95896 2.5895 0
M  V30 2200 H 213.537 5.13247 0.692669 0
M  V30 2201 H 210.214 3.32075 2.53047 0
M  V30 2202 H 211.604 6.71089 0.330091 0
M  V30 2203 N 214.325 -0.140222 1.56975 0
M  V30 2204 C 215.273 -1.19207 1.99731 0
M  V30 2205 C 216.267 -1.44089 0.890777 0
M  V30 2206 O 217.473 -1.44301 1.07597 0
M  V30 2207 H 213.848 -0.40142 0.635898 0
M  V30 2208 H 215.819 -0.804813 2.87342 0
M  V30 2209 C 214.568 -2.51617 2.39967 0
M  V30 2210 H 213.891 -2.33303 3.24669 0
M  V30 2211 H 215.331 -3.23827 2.73701 0
M  V30 2212 C 213.79 -3.12654 1.25496 0
M  V30 2213 O 214.32 -3.97786 0.559371 0
M  V30 2214 N 212.526 -2.72206 1.01746 0
M  V30 2215 H 212.073 -2.03074 1.58489 0
M  V30 2216 H 212.031 -3.13377 0.253461 0
M  V30 2217 N 215.803 -1.52179 -0.40978 0
M  V30 2218 C 217.05 -1.66206 -1.15679 0
M  V30 2219 C 217.378 -0.391674 -1.90516 0
M  V30 2220 O 216.633 0.62533 -1.8544 0
M  V30 2221 C 216.932 -2.83428 -2.17723 0
M  V30 2222 C 216.598 -4.21672 -1.59699 0
M  V30 2223 C 215.26 -4.59274 -1.43599 0
M  V30 2224 C 217.612 -5.07825 -1.17317 0
M  V30 2225 C 214.94 -5.80709 -0.836328 0
M  V30 2226 C 217.292 -6.29864 -0.587691 0
M  V30 2227 C 215.956 -6.66216 -0.413818 0
M  V30 2228 H 215.226 -0.608192 -0.423301 0
M  V30 2229 H 217.873 -1.86279 -0.444097 0
M  V30 2230 H 216.178 -2.57687 -2.95135 0
M  V30 2231 H 217.875 -2.91477 -2.75394 0
M  V30 2232 H 214.465 -3.9204 -1.73213 0
M  V30 2233 H 218.649 -4.79359 -1.28565 0
M  V30 2234 H 213.905 -6.07498 -0.689626 0
M  V30 2235 H 218.079 -6.95948 -0.250894 0
M  V30 2236 H 215.706 -7.60182 0.0529471 0
M  V30 2237 N 217.281 0.66697 -1.42791 0
M  V30 2238 C 218.506 1.46004 -1.47301 0
M  V30 2239 C 218.931 1.87894 -0.0880317 0
M  V30 2240 O 218.289 1.56502 0.915253 0
M  V30 2241 C 218.337 2.68031 -2.41229 0
M  V30 2242 O 217.441 3.6659 -1.88906 0
M  V30 2243 H 216.782 0.43832 -0.49877 0
M  V30 2244 H 219.312 0.817391 -1.87563 0
M  V30 2245 H 219.322 3.1601 -2.58073 0
M  V30 2246 H 217.997 2.36883 -3.41847 0
M  V30 2247 H 216.574 3.25661 -1.81656 0
M  V30 2248 N 218.759 1.29093 0.90403 0
M  V30 2249 C 219.689 1.16401 2.02418 0
M  V30 2250 C 220.67 0.0593085 1.69997 0
M  V30 2251 O 221.855 0.238021 1.92736 0
M  V30 2252 C 218.985 0.835233 3.37107 0
M  V30 2253 C 217.939 1.89578 3.83724 0
M  V30 2254 C 217.265 1.42041 5.15489 0
M  V30 2255 C 218.565 3.30394 4.04521 0
M  V30 2256 H 220.259 2.10109 2.13295 0
M  V30 2257 H 217.805 1.01157 1.02486 0
M  V30 2258 H 219.758 0.733169 4.14973 0
M  V30 2259 H 218.482 -0.137543 3.2631 0
M  V30 2260 H 217.141 1.98715 3.08071 0
M  V30 2261 H 216.789 0.436426 5.01103 0
M  V30 2262 H 216.489 2.12964 5.4765 0
M  V30 2263 H 218.013 1.33176 5.959 0
M  V30 2264 H 219.427 3.24123 4.72882 0
M  V30 2265 H 217.824 3.99237 4.48029 0
M  V30 2266 H 218.894 3.73692 3.09002 0
M  V30 2267 N 220.237 -1.11381 1.11499 0
M  V30 2268 C 221.648 -1.6465 0.880191 0
M  V30 2269 C 221.999 -1.87199 -0.587434 0
M  V30 2270 O 221.124 -1.60667 -1.44966 0
M  V30 2271 C 221.719 -2.99105 1.59128 0
M  V30 2272 C 220.278 -3.49279 1.40289 0
M  V30 2273 C 219.425 -2.24077 1.63354 0
M  V30 2274 H 222.376 -0.950123 1.27116 0
M  V30 2275 H 222.397 -3.66107 1.03664 0
M  V30 2276 H 221.909 -2.82661 2.65941 0
M  V30 2277 H 220.01 -3.70887 0.356888 0
M  V30 2278 H 220.123 -4.2803 2.15238 0
M  V30 2279 H 218.487 -2.31733 1.05698 0
M  V30 2280 H 219.27 -2.10175 2.71443 0
M  V30 2281 N 221.715 -0.905404 -1.28997 0
M  V30 2282 C 222.625 -0.392246 -2.31298 0
M  V30 2283 C 223.641 0.515889 -1.66176 0
M  V30 2284 O 224.817 0.404093 -1.97304 0
M  V30 2285 C 221.882 0.36686 -3.44754 0
M  V30 2286 C 220.943 -0.573485 -4.25452 0
M  V30 2287 C 220.176 0.149488 -5.33491 0
M  V30 2288 O 220.399 1.37255 -5.5364 0
M  V30 2289 O 219.333 -0.510919 -5.99728 0
M  V30 2290 H 223.159 -1.2411 -2.77183 0
M  V30 2291 H 220.744 -0.669926 -1.33538 0
M  V30 2292 H 222.626 0.795907 -4.13816 0
M  V30 2293 H 221.301 1.19169 -3.00966 0
M  V30 2294 H 220.208 -1.05176 -3.59011 0
M  V30 2295 H 221.541 -1.36489 -4.72897 0
M  V30 2296 N 223.193 1.4272 -0.668489 0
M  V30 2297 C 224.103 2.34596 0.0139753 0
M  V30 2298 C 225.119 1.5474 0.795703 0
M  V30 2299 O 226.295 1.87334 0.739466 0
M  V30 2300 C 223.36 3.33202 0.957982 0
M  V30 2301 C 222.421 4.28957 0.17149 0
M  V30 2302 C 221.654 5.22853 1.07053 0
M  V30 2303 O 221.877 5.21531 2.31001 0
M  V30 2304 O 220.811 5.9952 0.534727 0
M  V30 2305 H 224.637 2.9448 -0.742661 0
M  V30 2306 H 222.222 1.43117 -0.428705 0
M  V30 2307 H 224.104 3.93796 1.50008 0
M  V30 2308 H 222.779 2.758 1.69458 0
M  V30 2309 H 221.686 3.71796 -0.414558 0
M  V30 2310 H 223.019 4.89383 -0.52586 0
M  V30 2311 N 224.671 0.411399 1.52136 0
M  V30 2312 C 225.948 -0.222308 1.94333 0
M  V30 2313 C 226.328 -1.6242 1.34844 0
M  V30 2314 O 225.676 -2.22384 0.525145 0
M  V30 2315 C 225.886 -0.226345 3.48265 0
M  V30 2316 C 227.234 -0.444592 4.22266 0
M  V30 2317 O 228.258 -0.305602 3.54887 0
M  V30 2318 O 227.117 -0.718749 5.41753 0
M  V30 2319 H 224.211 -0.143907 0.814383 0
M  V30 2320 H 226.757 0.467506 1.63133 0
M  V30 2321 H 225.529 0.75475 3.83952 0
M  V30 2322 H 225.152 -0.960163 3.85832 0
M  V30 2323 N 226.149 -1.5696 0.141893 0
M  V30 2324 C 227.377 -2.00322 -0.517579 0
M  V30 2325 C 227.792 -1.02193 -1.58752 0
M  V30 2326 O 227.149 -0.0181619 -1.82491 0
M  V30 2327 C 227.2 -3.43618 -1.12289 0
M  V30 2328 O 226.921 -4.37995 -0.0956929 0
M  V30 2329 C 228.422 -4.02231 -1.86347 0
M  V30 2330 H 225.642 -0.657243 -0.135177 0
M  V30 2331 H 228.186 -2.03146 0.234973 0
M  V30 2332 H 226.341 -3.41662 -1.82609 0
M  V30 2333 H 226.755 -5.21729 -0.538469 0
M  V30 2334 H 228.229 -5.04509 -2.23997 0
M  V30 2335 H 228.706 -3.42655 -2.74744 0
M  V30 2336 H 229.312 -4.07802 -1.20737 0
M  V30 2337 N 227.627 0.131896 -1.57047 0
M  V30 2338 C 228.574 1.16236 -1.99393 0
M  V30 2339 C 229.544 1.41863 -0.863943 0
M  V30 2340 O 230.729 1.53946 -1.12718 0
M  V30 2341 C 227.869 2.48708 -2.39245 0
M  V30 2342 C 226.982 2.30127 -3.65603 0
M  V30 2343 C 226.117 3.55738 -3.94492 0
M  V30 2344 C 225.156 3.32259 -5.14073 0
M  V30 2345 N 224.293 4.50039 -5.38896 0
M  V30 2346 H 229.133 0.794251 -2.87221 0
M  V30 2347 H 226.67 0.380707 -1.42088 0
M  V30 2348 H 228.628 3.25969 -2.60384 0
M  V30 2349 H 227.258 2.83437 -1.54478 0
M  V30 2350 H 226.31 1.43845 -3.52154 0
M  V30 2351 H 227.622 2.08746 -4.5302 0
M  V30 2352 H 226.776 4.41423 -4.1621 0
M  V30 2353 H 225.515 3.80138 -3.05526 0
M  V30 2354 H 224.52 2.44963 -4.92212 0
M  V30 2355 H 225.745 3.09242 -6.04604 0
M  V30 2356 H 223.691 4.74584 -4.52886 0
M  V30 2357 H 223.608 4.31716 -6.2061 0
M  V30 2358 H 224.876 5.36895 -5.65123 0
M  V30 2359 N 229.106 1.52395 0.401703 0
M  V30 2360 C 230.036 1.79231 1.49661 0
M  V30 2361 C 231.017 0.643654 1.57452 0
M  V30 2362 O 232.202 0.889989 1.72606 0
M  V30 2363 C 229.332 1.94971 2.87409 0
M  V30 2364 C 228.286 3.10604 2.94465 0
M  V30 2365 C 227.612 3.11577 4.34538 0
M  V30 2366 C 228.912 4.49921 2.6527 0
M  V30 2367 H 230.606 2.70917 1.27454 0
M  V30 2368 H 228.152 1.30362 0.6117 0
M  V30 2369 H 230.105 2.12328 3.63999 0
M  V30 2370 H 228.829 0.999632 3.10926 0
M  V30 2371 H 227.488 2.93009 2.20321 0
M  V30 2372 H 227.136 2.14277 4.55076 0
M  V30 2373 H 226.836 3.89247 4.40183 0
M  V30 2374 H 228.36 3.31073 5.13053 0
M  V30 2375 H 229.774 4.67683 3.31581 0
M  V30 2376 H 228.171 5.29564 2.82281 0
M  V30 2377 H 229.241 4.57507 1.60671 0
M  V30 2378 N 230.584 -0.659388 1.43143 0
M  V30 2379 C 231.531 -1.77249 1.47822 0
M  V30 2380 C 232.501 -1.62818 0.328558 0
M  V30 2381 O 233.686 -1.83151 0.534838 0
M  V30 2382 C 230.826 -3.15371 1.40126 0
M  V30 2383 C 229.939 -3.4098 2.65249 0
M  V30 2384 C 229.074 -4.68915 2.49584 0
M  V30 2385 C 228.113 -4.87608 3.70006 0
M  V30 2386 N 227.25 -6.06796 3.53189 0
M  V30 2387 H 232.09 -1.72584 2.42938 0
M  V30 2388 H 229.627 -0.842297 1.20598 0
M  V30 2389 H 231.585 -3.9521 1.33659 0
M  V30 2390 H 230.215 -3.19121 0.485964 0
M  V30 2391 H 229.267 -2.55282 2.8202 0
M  V30 2392 H 230.579 -3.50681 3.54717 0
M  V30 2393 H 229.733 -5.56871 2.4079 0
M  V30 2394 H 228.472 -4.61524 1.5763 0
M  V30 2395 H 227.477 -3.9809 3.79215 0
M  V30 2396 H 228.702 -4.96834 4.62961 0
M  V30 2397 H 226.648 -6.00549 2.63965 0
M  V30 2398 H 226.565 -6.17428 4.36255 0
M  V30 2399 H 227.833 -6.9739 3.48236 0
M  V30 2400 N 232.062 -1.29571 -0.897171 0
M  V30 2401 C 233.311 -1.1706 -1.64256 0
M  V30 2402 C 233.624 0.276476 -1.93636 0
M  V30 2403 O 234.83 0.52294 -2.66416 0
M  V30 2404 C 233.286 -2.0475 -2.95982 0
M  V30 2405 C 232.894 -3.54295 -2.74187 0
M  V30 2406 C 234.638 -2.0097 -3.73914 0
M  V30 2407 C 232.545 -4.34081 -4.01656 0
M  V30 2408 H 231.475 -0.43452 -0.616205 0
M  V30 2409 H 234.126 -1.54229 -0.994268 0
M  V30 2410 H 232.508 -1.60452 -3.62038 0
M  V30 2411 H 233.682 -4.06662 -2.1671 0
M  V30 2412 H 231.997 -3.59773 -2.09648 0
M  V30 2413 H 234.594 -2.57838 -4.68427 0
M  V30 2414 H 234.937 -0.990273 -4.0435 0
M  V30 2415 H 235.47 -2.43325 -3.14703 0
M  V30 2416 H 232.209 -5.36671 -3.76384 0
M  V30 2417 H 231.729 -3.86483 -4.58684 0
M  V30 2418 H 233.408 -4.44877 -4.69781 0
M  V30 2419 N 233.54 1.10788 -1.12088 0
M  V30 2420 C 234.951 1.64181 -0.88891 0
M  V30 2421 C 235.302 1.87508 0.577498 0
M  V30 2422 O 234.427 1.61434 1.44112 0
M  V30 2423 C 235.022 2.98257 -1.60712 0
M  V30 2424 C 233.581 3.4853 -1.42139 0
M  V30 2425 C 232.728 2.23208 -1.6454 0
M  V30 2426 H 235.679 0.943368 -1.27618 0
M  V30 2427 H 235.7 3.65552 -1.05604 0
M  V30 2428 H 235.212 2.81246 -2.67436 0
M  V30 2429 H 233.313 3.70692 -0.376552 0
M  V30 2430 H 233.426 4.26882 -2.17505 0
M  V30 2431 H 231.79 2.31169 -1.06925 0
M  V30 2432 H 232.573 2.08733 -2.72554 0
M  V30 2433 N 235.018 0.912232 1.28515 0
M  V30 2434 C 235.948 0.416403 2.29757 0
M  V30 2435 C 236.929 -0.515194 1.6211 0
M  V30 2436 O 238.114 -0.423253 1.89532 0
M  V30 2437 C 235.244 -0.34572 3.45575 0
M  V30 2438 C 234.198 0.496599 4.25109 0
M  V30 2439 C 233.524 -0.393771 5.33248 0
M  V30 2440 C 234.824 1.75307 4.92001 0
M  V30 2441 H 236.518 1.26249 2.7148 0
M  V30 2442 H 234.064 0.608515 1.30511 0
M  V30 2443 H 236.017 -0.703422 4.15488 0
M  V30 2444 H 234.741 -1.2257 3.02728 0
M  V30 2445 H 233.4 0.8368 3.56922 0
M  V30 2446 H 233.048 -1.27225 4.86644 0
M  V30 2447 H 232.748 0.166209 5.87365 0
M  V30 2448 H 234.272 -0.747389 6.06009 0
M  V30 2449 H 235.686 1.46437 5.54283 0
M  V30 2450 H 234.083 2.25534 5.56106 0
M  V30 2451 H 235.153 2.48176 4.16577 0
M  V30 2452 N 236.496 -1.42363 0.676048 0
M  V30 2453 C 237.745 -2.00745 0.196037 0
M  V30 2454 C 238.058 -1.54083 -1.20489 0
M  V30 2455 O 239.264 -2.04891 -1.78134 0
M  V30 2456 C 237.72 -3.58651 0.299616 0
M  V30 2457 C 237.328 -4.143 1.70468 0
M  V30 2458 C 239.072 -4.24326 -0.121619 0
M  V30 2459 C 236.979 -5.64574 1.76096 0
M  V30 2460 H 235.909 -0.750787 0.0695301 0
M  V30 2461 H 238.56 -1.63072 0.841412 0
M  V30 2462 H 236.942 -3.93833 -0.413673 0
M  V30 2463 H 238.116 -3.90575 2.44515 0
M  V30 2464 H 236.431 -3.61081 2.07387 0
M  V30 2465 H 239.028 -5.34607 -0.0997362 0
M  V30 2466 H 239.371 -3.99897 -1.15708 0
M  V30 2467 H 239.904 -3.94108 0.540706 0
M  V30 2468 H 236.643 -5.93804 2.77628 0
M  V30 2469 H 236.163 -5.90286 1.06406 0
M  V30 2470 H 237.842 -6.29013 1.51496 0
M  V30 2471 N 237.974 -0.419461 -1.51915 0
M  V30 2472 C 238.924 0.418496 -2.24126 0
M  V30 2473 C 239.908 1.00495 -1.25656 0
M  V30 2474 O 241.1 0.926058 -1.50842 0
M  V30 2475 C 238.229 1.52899 -3.07371 0
M  V30 2476 C 237.315 0.952797 -4.13258 0
M  V30 2477 N 237.706 0.104175 -5.05693 0
M  V30 2478 C 236.004 1.22224 -4.28926 0
M  V30 2479 C 236.705 -0.21752 -5.81293 0
M  V30 2480 N 235.681 0.394293 -5.42168 0
M  V30 2481 H 239.483 -0.236048 -2.92951 0
M  V30 2482 H 236.997 -0.230481 -1.60756 0
M  V30 2483 H 238.994 2.14199 -3.57665 0
M  V30 2484 H 237.654 2.18605 -2.40088 0
M  V30 2485 H 238.665 -0.260924 -5.17242 0
M  V30 2486 H 235.342 1.87812 -3.72871 0
M  V30 2487 H 236.732 -0.906992 -6.6575 0
M  V30 2488 N 239.452 1.56882 -0.150215 0
M  V30 2489 C 240.868 1.58263 0.20617 0
M  V30 2490 C 241.068 1.16464 1.64434 0
M  V30 2491 O 240.124 0.866422 2.3717 0
M  V30 2492 C 241.437 3.00649 -0.0555025 0
M  V30 2493 C 242.985 3.12999 0.00795388 0
M  V30 2494 C 243.46 4.5744 -0.226429 0
M  V30 2495 N 244.951 4.62875 -0.173469 0
M  V30 2496 C 245.686 5.72454 -0.329288 0
M  V30 2497 N 245.182 6.90669 -0.543005 0
M  V30 2498 N 246.975 5.61467 -0.266666 0
M  V30 2499 H 239.126 1.82345 -1.08922 0
M  V30 2500 H 241.389 0.844149 -0.431413 0
M  V30 2501 H 241.095 3.3563 -1.05096 0
M  V30 2502 H 240.969 3.71337 0.66246 0
M  V30 2503 H 243.356 2.77857 0.993966 0
M  V30 2504 H 243.437 2.4479 -0.742388 0
M  V30 2505 H 243.081 4.93287 -1.20956 0
M  V30 2506 H 243.011 5.2378 0.544274 0
M  V30 2507 H 245.502 3.77898 -0.0130709 0
M  V30 2508 H 245.815 7.70045 -0.651922 0
M  V30 2509 H 244.16 6.92581 -0.579366 0
M  V30 2510 H 247.351 4.67992 -0.100441 0
M  V30 2511 H 247.524 6.46816 -0.391535 0
M  V30 2512 N 240.93 -0.123565 1.57115 0
M  V30 2513 C 241.893 -1.13583 1.99076 0
M  V30 2514 C 242.893 -1.34564 0.880296 0
M  V30 2515 O 244.083 -1.31158 1.14644 0
M  V30 2516 C 241.215 -2.49128 2.32698 0
M  V30 2517 H 242.408 -0.775287 2.89706 0
M  V30 2518 H 239.961 -0.36771 1.51913 0
M  V30 2519 H 240.696 -2.90111 1.44934 0
M  V30 2520 H 240.481 -2.35255 3.13684 0
M  V30 2521 H 241.971 -3.2199 2.65918 0
M  V30 2522 N 242.408 -1.52605 -0.393616 0
M  V30 2523 C 243.338 -1.80022 -1.48709 0
M  V30 2524 C 244.319 -0.651995 -1.57108 0
M  V30 2525 O 245.504 -0.89913 -1.72132 0
M  V30 2526 C 242.634 -1.96492 -2.86371 0
M  V30 2527 C 241.588 -3.12161 -2.92813 0
M  V30 2528 C 240.914 -3.13877 -4.3288 0
M  V30 2529 C 242.214 -4.51322 -2.6288 0
M  V30 2530 H 243.908 -2.71589 -1.26015 0
M  V30 2531 H 241.454 -1.30684 -0.604778 0
M  V30 2532 H 243.407 -2.14255 -3.62867 0
M  V30 2533 H 242.131 -1.01611 -3.10391 0
M  V30 2534 H 240.79 -2.94173 -2.18764 0
M  V30 2535 H 240.438 -2.16687 -4.53933 0
M  V30 2536 H 240.138 -3.91576 -4.38112 0
M  V30 2537 H 241.662 -3.33789 -5.1129 0
M  V30 2538 H 243.076 -4.69435 -3.29096 0
M  V30 2539 H 241.473 -5.31053 -2.79468 0
M  V30 2540 H 242.543 -4.58353 -1.58242 0
M  V30 2541 N 243.887 0.651787 -1.4349 0
M  V30 2542 C 244.819 1.77725 -1.44729 0
M  V30 2543 C 245.832 1.59141 -0.343231 0
M  V30 2544 O 247.021 1.67835 -0.607751 0
M  V30 2545 C 244.121 3.15172 -1.24579 0
M  V30 2546 C 243.294 3.60402 -2.47849 0
M  V30 2547 C 242.353 4.76656 -2.22902 0
M  V30 2548 O 241.379 4.86022 -2.96263 0
M  V30 2549 N 242.581 5.66958 -1.24656 0
M  V30 2550 H 245.346 1.77141 -2.41746 0
M  V30 2551 H 242.907 0.835678 -1.38665 0
M  V30 2552 H 244.899 3.90634 -1.0577 0
M  V30 2553 H 243.469 3.1052 -0.360015 0
M  V30 2554 H 242.689 2.75369 -2.82073 0
M  V30 2555 H 243.977 3.87368 -3.29884 0
M  V30 2556 H 243.375 5.62065 -0.640265 0
M  V30 2557 H 241.932 6.42135 -1.1183 0
M  V30 2558 N 245.365 1.30045 0.890287 0
M  V30 2559 C 246.295 1.18541 2.01172 0
M  V30 2560 C 247.276 0.0773356 1.69924 0
M  V30 2561 O 248.461 0.25845 1.92473 0
M  V30 2562 C 245.591 0.870941 3.36202 0
M  V30 2563 C 244.545 1.93637 3.81692 0
M  V30 2564 C 243.871 1.475 5.13953 0
M  V30 2565 C 245.171 3.34666 4.00994 0
M  V30 2566 H 246.865 2.12359 2.11054 0
M  V30 2567 H 244.411 1.02238 1.01407 0
M  V30 2568 H 246.364 0.777141 4.14172 0
M  V30 2569 H 245.088 -0.102926 3.26438 0
M  V30 2570 H 243.747 2.01972 3.05946 0
M  V30 2571 H 243.395 0.489551 5.00612 0
M  V30 2572 H 243.095 2.1876 5.4536 0
M  V30 2573 H 244.619 1.39489 5.94454 0
M  V30 2574 H 246.033 3.2912 4.69417 0
M  V30 2575 H 244.43 4.03966 4.43769 0
M  V30 2576 H 245.5 3.76949 3.05021 0
M  V30 2577 N 246.843 -1.10192 1.12674 0
M  V30 2578 C 247.806 -2.14786 0.799979 0
M  V30 2579 C 248.806 -1.59711 -0.18685 0
M  V30 2580 O 249.996 -1.74156 0.0392558 0
M  V30 2581 C 247.128 -3.40374 0.189228 0
M  V30 2582 H 248.321 -2.45203 1.72671 0
M  V30 2583 H 245.874 -1.25597 0.930326 0
M  V30 2584 H 246.609 -3.15577 -0.747107 0
M  V30 2585 H 246.394 -3.81637 0.899766 0
M  V30 2586 H 247.884 -4.17594 -0.0228143 0
M  V30 2587 N 248.321 -0.919034 -1.28029 0
M  V30 2588 C 249.253 -0.368762 -2.26214 0
M  V30 2589 C 250.266 0.495716 -1.55069 0
M  V30 2590 O 251.455 0.30974 -1.75792 0
M  V30 2591 C 248.555 0.491049 -3.35324 0
M  V30 2592 C 247.728 -0.352133 -4.3598 0
M  V30 2593 C 246.787 0.443622 -5.24327 0
M  V30 2594 O 245.813 -0.14566 -5.69014 0
M  V30 2595 N 247.015 1.74545 -5.53637 0
M  V30 2596 H 249.78 -1.21273 -2.74068 0
M  V30 2597 H 247.341 -0.785541 -1.41566 0
M  V30 2598 H 249.333 1.03026 -3.91366 0
M  V30 2599 H 247.903 1.23574 -2.87138 0
M  V30 2600 H 247.123 -1.07269 -3.79324 0
M  V30 2601 H 248.411 -0.928883 -5.00249 0
M  V30 2602 H 247.809 2.24666 -5.19174 0
M  V30 2603 H 246.366 2.23138 -6.12416 0
M  V30 2604 N 249.799 1.42003 -0.683588 0
M  V30 2605 C 251.215 1.55625 -0.353976 0
M  V30 2606 C 251.415 1.66151 1.14 0
M  V30 2607 O 250.471 1.63329 1.92561 0
M  V30 2608 C 251.784 2.80171 -1.092 0
M  V30 2609 C 253.332 2.93954 -1.07518 0
M  V30 2610 C 253.807 4.21372 -1.79471 0
M  V30 2611 N 255.298 4.28303 -1.76381 0
M  V30 2612 C 256.033 5.25729 -2.28904 0
M  V30 2613 N 255.529 6.29254 -2.89846 0
M  V30 2614 N 257.322 5.17586 -2.19228 0
M  V30 2615 H 249.473 1.33415 -1.6527 0
M  V30 2616 H 251.736 0.64282 -0.696769 0
M  V30 2617 H 251.442 2.78561 -2.14701 0
M  V30 2618 H 251.316 3.7133 -0.662862 0
M  V30 2619 H 253.703 2.95086 -0.028475 0
M  V30 2620 H 253.784 2.04002 -1.54328 0
M  V30 2621 H 253.428 4.21001 -2.84114 0
M  V30 2622 H 253.358 5.10275 -1.30104 0
M  V30 2623 H 255.849 3.54119 -1.31939 0
M  V30 2624 H 256.162 6.99964 -3.27522 0
M  V30 2625 H 254.507 6.29791 -2.93919 0
M  V30 2626 H 257.698 4.35631 -1.71299 0
M  V30 2627 H 257.871 5.93348 -2.60466 0
M  V30 2628 N 251.277 0.427512 1.51691 0
M  V30 2629 C 252.688 -0.0378867 1.86662 0
M  V30 2630 C 253.039 -1.42819 1.34525 0
M  V30 2631 O 252.164 -2.05037 0.692014 0
M  V30 2632 C 252.759 -0.0755266 3.38716 0
M  V30 2633 C 251.318 -0.485309 3.73258 0
M  V30 2634 C 250.465 0.328399 2.75349 0
M  V30 2635 H 253.416 0.64379 1.45055 0
M  V30 2636 H 253.437 -0.887056 3.70016 0
M  V30 2637 H 252.949 0.936487 3.76632 0
M  V30 2638 H 251.05 -1.50329 3.40928 0
M  V30 2639 H 251.163 -0.21693 4.78609 0
M  V30 2640 H 249.527 -0.211905 2.53817 0
M  V30 2641 H 250.31 1.3391 3.16106 0
M  V30 2642 N 252.755 -1.56801 0.158532 0
M  V30 2643 C 254.001 -1.96781 -0.490405 0
M  V30 2644 C 254.334 -1.04397 -1.63753 0
M  V30 2645 O 253.609 -0.0885805 -1.94298 0
M  V30 2646 C 253.892 -3.4635 -0.985594 0
M  V30 2647 C 253.745 -4.49512 0.160824 0
M  V30 2648 C 255.064 -3.98697 -1.86355 0
M  V30 2649 H 252.183 -0.715482 -0.176788 0
M  V30 2650 H 254.825 -1.88451 0.242088 0
M  V30 2651 H 252.975 -3.53579 -1.60978 0
M  V30 2652 H 254.647 -4.54353 0.797537 0
M  V30 2653 H 252.89 -4.26013 0.818256 0
M  V30 2654 H 253.561 -5.51531 -0.227569 0
M  V30 2655 H 256.037 -3.94019 -1.33746 0
M  V30 2656 H 254.913 -5.03792 -2.17909 0
M  V30 2657 H 255.174 -3.41744 -2.8047 0
M  V30 2658 N 254.233 0.115231 -1.57178 0
M  V30 2659 C 255.458 0.840354 -1.89612 0
M  V30 2660 C 255.883 1.72464 -0.750845 0
M  V30 2661 O 255.241 1.78826 0.298478 0
M  V30 2662 C 255.289 1.64654 -3.20814 0
M  V30 2663 O 254.393 2.7538 -3.06985 0
M  V30 2664 H 253.734 0.232158 -0.622092 0
M  V30 2665 H 256.264 0.0964977 -2.04372 0
M  V30 2666 H 256.274 2.03499 -3.53627 0
M  V30 2667 H 254.949 0.997416 -4.03763 0
M  V30 2668 H 253.526 2.3971 -2.85646 0
M  V30 2669 N 255.711 1.52812 0.385517 0
M  V30 2670 C 256.641 1.80808 1.47752 0
M  V30 2671 C 257.622 0.660318 1.5676 0
M  V30 2672 O 258.807 0.908246 1.71652 0
M  V30 2673 C 255.937 1.98008 2.85324 0
M  V30 2674 C 254.891 3.13709 2.91154 0
M  V30 2675 C 254.217 3.16169 4.31209 0
M  V30 2676 C 255.517 4.52709 2.60483 0
M  V30 2677 H 257.211 2.72253 1.24573 0
M  V30 2678 H 254.757 1.31003 0.597839 0
M  V30 2679 H 256.71 2.16176 3.61726 0
M  V30 2680 H 255.434 1.03255 3.09848 0
M  V30 2681 H 254.093 2.95329 2.17201 0
M  V30 2682 H 253.741 2.19092 4.52778 0
M  V30 2683 H 253.441 3.93894 4.36029 0
M  V30 2684 H 254.965 3.36496 5.09512 0
M  V30 2685 H 256.379 4.71173 3.26602 0
M  V30 2686 H 254.776 5.32528 2.76648 0
M  V30 2687 H 255.846 4.59186 1.55809 0
M  V30 2688 N 257.189 -0.644168 1.43834 0
M  V30 2689 C 258.119 -1.76814 1.52509 0
M  V30 2690 C 259.1 -1.65823 0.379052 0
M  V30 2691 O 260.285 -1.84781 0.597466 0
M  V30 2692 C 257.415 -3.15288 1.4564 0
M  V30 2693 C 256.369 -3.41053 2.58586 0
M  V30 2694 C 255.695 -4.79421 2.36769 0
M  V30 2695 C 256.995 -3.34902 4.00797 0
M  V30 2696 H 258.689 -1.69812 2.46586 0
M  V30 2697 H 256.235 -0.815542 1.1868 0
M  V30 2698 H 258.188 -3.93681 1.50311 0
M  V30 2699 H 256.912 -3.23043 0.480725 0
M  V30 2700 H 255.571 -2.65035 2.53282 0
M  V30 2701 H 255.219 -4.83863 1.37424 0
M  V30 2702 H 254.919 -4.9762 3.12487 0
M  V30 2703 H 256.443 -5.6006 2.43238 0
M  V30 2704 H 257.857 -4.03218 4.07539 0
M  V30 2705 H 256.254 -3.64637 4.76613 0
M  V30 2706 H 257.324 -2.32928 4.25291 0
M  V30 2707 N 258.668 -1.30515 -0.883378 0
M  V30 2708 C 259.631 -1.1701 -1.97082 0
M  V30 2709 C 260.631 -0.10089 -1.60483 0
M  V30 2710 O 261.821 -0.349127 -1.70666 0
M  V30 2711 C 258.953 -0.793045 -3.31547 0
M  V30 2712 H 260.146 -2.13622 -2.10489 0
M  V30 2713 H 257.699 -1.13935 -1.06998 0
M  V30 2714 H 258.434 0.172499 -3.23841 0
M  V30 2715 H 258.219 -1.56576 -3.5948 0
M  V30 2716 H 259.709 -0.722073 -4.1131 0
M  V30 2717 N 260.146 1.09593 -1.13257 0
M  V30 2718 C 261.371 1.8604 -0.916732 0
M  V30 2719 C 261.796 1.80504 0.529146 0
M  V30 2720 O 261.154 1.18127 1.37534 0
M  V30 2721 C 261.202 3.32017 -1.40703 0
M  V30 2722 O 260.306 4.08141 -0.591153 0
M  V30 2723 H 259.647 0.576943 -0.328683 0
M  V30 2724 H 262.177 1.38405 -1.50682 0
M  V30 2725 H 262.187 3.82865 -1.4099 0
M  V30 2726 H 260.862 3.35361 -2.45979 0
M  V30 2727 H 259.439 3.67084 -0.656005 0
M  V30 2728 N 261.624 0.925811 1.2754 0
M  V30 2729 C 263.035 0.610102 1.7645 0
M  V30 2730 C 263.386 -0.874723 1.75622 0
M  V30 2731 O 262.511 -1.68444 1.35851 0
M  V30 2732 C 263.106 1.10073 3.20421 0
M  V30 2733 C 261.665 0.835723 3.67005 0
M  V30 2734 C 260.812 1.26054 2.46993 0
M  V30 2735 H 263.763 1.10579 1.13833 0
M  V30 2736 H 263.784 0.447557 3.77859 0
M  V30 2737 H 263.296 2.18143 3.20991 0
M  V30 2738 H 261.397 -0.231249 3.71882 0
M  V30 2739 H 261.51 1.45193 4.56569 0
M  V30 2740 H 259.874 0.679111 2.45479 0
M  V30 2741 H 260.657 2.34984 2.50275 0
M  V30 2742 N 263.102 -1.41638 0.69111 0
M  V30 2743 C 264.348 -2.02104 0.229258 0
M  V30 2744 C 264.703 -1.53741 -1.15678 0
M  V30 2745 O 263.996 -0.736849 -1.76865 0
M  V30 2746 C 264.19 -3.56714 0.221277 0
M  V30 2747 C 264.019 -4.20083 1.605 0
M  V30 2748 C 262.789 -4.54566 2.20676 0
M  V30 2749 C 264.987 -4.46587 2.55078 0
M  V30 2750 N 262.969 -5.03199 3.5166 0
M  V30 2751 C 264.34 -4.96946 3.70735 0
M  V30 2752 C 266.395 -4.28593 2.53401 0
M  V30 2753 C 265.098 -5.31203 4.8499 0
M  V30 2754 C 267.124 -4.63936 3.66765 0
M  V30 2755 C 266.486 -5.14463 4.81152 0
M  V30 2756 H 262.585 -0.771256 0.12918 0
M  V30 2757 H 265.169 -1.72251 0.907626 0
M  V30 2758 H 263.34 -3.86051 -0.426562 0
M  V30 2759 H 265.072 -4.03896 -0.254983 0
M  V30 2760 H 261.827 -4.4087 1.73005 0
M  V30 2761 H 262.251 -5.31926 4.18789 0
M  V30 2762 H 266.893 -3.88771 1.66184 0
M  V30 2763 H 264.611 -5.69951 5.72871 0
M  V30 2764 H 268.197 -4.51677 3.66714 0
M  V30 2765 H 267.077 -5.41299 5.67419 0
M  V30 2766 N 264.58 -0.43555 -1.51462 0
M  V30 2767 C 265.808 0.130242 -2.0649 0
M  V30 2768 C 266.223 1.36614 -1.30315 0
M  V30 2769 O 265.58 1.78869 -0.362223 0
M  V30 2770 C 265.631 0.454253 -3.58635 0
M  V30 2771 O 265.352 -0.73259 -4.31931 0
M  V30 2772 C 266.853 1.07091 -4.3017 0
M  V30 2773 H 264.073 0.00871669 -0.670943 0
M  V30 2774 H 266.617 -0.614117 -1.95061 0
M  V30 2775 H 264.772 1.14851 -3.69984 0
M  V30 2776 H 265.186 -0.455787 -5.22516 0
M  V30 2777 H 266.66 1.24764 -5.37716 0
M  V30 2778 H 267.137 2.05144 -3.88346 0
M  V30 2779 H 267.743 0.416089 -4.2326 0
M  V30 2780 N 266.058 1.56714 -0.166846 0
M  V30 2781 C 267.283 2.01557 0.488833 0
M  V30 2782 C 267.708 1.0463 1.56314 0
M  V30 2783 O 267.066 0.0251304 1.81283 0
M  V30 2784 C 267.114 3.4503 1.04818 0
M  V30 2785 O 266.218 3.51163 2.16236 0
M  V30 2786 H 265.559 0.653516 0.117526 0
M  V30 2787 H 268.089 2.02818 -0.269421 0
M  V30 2788 H 268.099 3.84243 1.37191 0
M  V30 2789 H 266.774 4.15077 0.261572 0
M  V30 2790 H 265.351 3.23807 1.84942 0
M  V30 2791 N 267.536 -0.106894 1.57237 0
M  V30 2792 C 268.947 -0.662723 1.74542 0
M  V30 2793 C 269.298 -1.7971 0.787319 0
M  V30 2794 O 268.423 -2.16368 -0.0369636 0
M  V30 2795 C 269.018 -1.20896 3.16496 0
M  V30 2796 C 267.577 -1.71096 3.35266 0
M  V30 2797 C 266.724 -0.615642 2.7038 0
M  V30 2798 H 269.675 0.119106 1.58252 0
M  V30 2799 H 269.696 -2.07847 3.18716 0
M  V30 2800 H 269.208 -0.383122 3.86204 0
M  V30 2801 H 267.309 -2.56119 2.70618 0
M  V30 2802 H 267.422 -1.81208 4.43509 0
M  V30 2803 H 265.786 -1.05222 2.31949 0
M  V30 2804 H 266.569 0.199419 3.4272 0
M  V30 2805 N 269.014 -1.53014 -0.377408 0
M  V30 2806 C 270.242 -1.72515 -1.14219 0
M  V30 2807 C 270.657 -0.448735 -1.8339 0
M  V30 2808 O 270.014 0.577592 -1.73119 0
M  V30 2809 C 270.065 -2.8826 -2.18148 0
M  V30 2810 O 269.786 -4.10962 -1.51795 0
M  V30 2811 C 271.287 -3.19536 -3.07264 0
M  V30 2812 H 268.507 -0.577301 -0.342001 0
M  V30 2813 H 271.051 -1.99712 -0.439935 0
M  V30 2814 H 269.206 -2.63492 -2.83991 0
M  V30 2815 H 269.62 -4.75693 -2.20945 0
M  V30 2816 H 271.094 -4.03959 -3.76193 0
M  V30 2817 H 271.571 -2.34403 -3.71419 0
M  V30 2818 H 272.177 -3.46186 -2.47053 0
M  V30 2819 N 270.492 0.636531 -1.44174 0
M  V30 2820 C 271.738 1.39649 -1.47884 0
M  V30 2821 C 272.093 1.92098 -0.107747 0
M  V30 2822 O 271.386 1.70391 0.876208 0
M  V30 2823 C 271.58 2.58309 -2.47005 0
M  V30 2824 C 271.409 2.17476 -3.93617 0
M  V30 2825 C 270.179 2.0501 -4.61843 0
M  V30 2826 C 272.377 1.76722 -4.82984 0
M  V30 2827 N 270.359 1.57683 -5.93304 0
M  V30 2828 C 271.73 1.40601 -6.03847 0
M  V30 2829 C 273.785 1.64054 -4.70096 0
M  V30 2830 C 272.488 0.930787 -7.13252 0
M  V30 2831 C 274.514 1.17937 -5.79521 0
M  V30 2832 C 273.876 0.827625 -6.99521 0
M  V30 2833 H 269.975 0.506027 -0.596205 0
M  V30 2834 H 272.559 0.730791 -1.80465 0
M  V30 2835 H 270.73 3.22514 -2.16423 0
M  V30 2836 H 272.462 3.25083 -2.41045 0
M  V30 2837 H 269.217 2.25294 -4.16581 0
M  V30 2838 H 269.641 1.36334 -6.63131 0
M  V30 2839 H 274.283 1.89882 -3.77762 0
M  V30 2840 H 272.001 0.660012 -8.054 0
M  V30 2841 H 275.587 1.08601 -5.71574 0
M  V30 2842 H 274.467 0.476231 -7.82753 0
M  V30 2843 N 271.97 1.30982 0.876444 0
M  V30 2844 C 272.9 1.20668 1.99903 0
M  V30 2845 C 273.881 0.095354 1.69833 0
M  V30 2846 O 275.066 0.27885 1.92188 0
M  V30 2847 C 272.196 0.90655 3.3526 0
M  V30 2848 C 271.15 1.97675 3.79617 0
M  V30 2849 C 270.476 1.52943 5.1236 0
M  V30 2850 C 271.776 3.389 3.97422 0
M  V30 2851 H 273.47 2.14586 2.0879 0
M  V30 2852 H 271.016 1.03308 1.00317 0
M  V30 2853 H 272.969 0.821025 4.13324 0
M  V30 2854 H 271.693 -0.0682969 3.26529 0
M  V30 2855 H 270.352 2.05205 3.03787 0
M  V30 2856 H 270 0.54262 5.00065 0
M  V30 2857 H 269.7 2.24532 5.43009 0
M  V30 2858 H 271.224 1.45786 5.92941 0
M  V30 2859 H 272.638 3.34081 4.659 0
M  V30 2860 H 271.035 4.0865 4.3946 0
M  V30 2861 H 272.105 3.80163 3.01006 0
M  V30 2862 N 273.449 -1.08991 1.13837 0
M  V30 2863 C 274.396 -2.15748 0.819835 0
M  V30 2864 C 275.366 -1.64636 -0.220026 0
M  V30 2865 O 276.551 -1.90582 -0.0912757 0
M  V30 2866 C 273.691 -3.4382 0.296913 0
M  V30 2867 C 272.804 -4.0881 1.39636 0
M  V30 2868 C 271.939 -5.24655 0.831314 0
M  V30 2869 C 270.978 -5.81575 1.90886 0
M  V30 2870 N 270.115 -6.88774 1.36142 0
M  V30 2871 H 274.955 -2.42338 1.73426 0
M  V30 2872 H 272.492 -1.18935 0.865613 0
M  V30 2873 H 274.45 -4.17193 -0.0244339 0
M  V30 2874 H 273.08 -3.17535 -0.580628 0
M  V30 2875 H 272.132 -3.33258 1.83422 0
M  V30 2876 H 273.444 -4.47141 2.21058 0
M  V30 2877 H 272.598 -6.04942 0.461515 0
M  V30 2878 H 271.337 -4.87698 -0.013932 0
M  V30 2879 H 270.342 -4.99946 2.28767 0
M  V30 2880 H 271.567 -6.20592 2.75758 0
M  V30 2881 H 269.513 -6.53788 0.538254 0
M  V30 2882 H 269.43 -7.25898 2.11208 0
M  V30 2883 H 270.698 -7.72806 1.01933 0
M  V30 2884 N 274.927 -0.932562 -1.27047 0
M  V30 2885 C 276.155 -0.592031 -1.98249 0
M  V30 2886 C 276.57 0.831062 -1.69525 0
M  V30 2887 O 275.927 1.55299 -0.958561 0
M  V30 2888 C 275.978 -0.814279 -3.5221 0
M  V30 2889 O 275.699 -2.18139 -3.7993 0
M  V30 2890 C 277.2 -0.483121 -4.4066 0
M  V30 2891 H 274.42 -0.223896 -0.632544 0
M  V30 2892 H 276.964 -1.25091 -1.61779 0
M  V30 2893 H 275.119 -0.20213 -3.86872 0
M  V30 2894 H 275.533 -2.235 -4.74498 0
M  V30 2895 H 277.007 -0.689298 -5.47679 0
M  V30 2896 H 277.484 0.581546 -4.35333 0
M  V30 2897 H 278.09 -1.07362 -4.11526 0
M  V30 2898 N 276.405 1.4127 -0.698611 0
M  V30 2899 C 277.353 2.32588 -0.023855 0
M  V30 2900 C 278.347 1.51128 0.765292 0
M  V30 2901 O 279.553 1.67043 0.670571 0
M  V30 2902 H 275.928 0.751918 0.0110871 0
M  V30 2903 H 277.899 2.87167 -0.811031 0
M  V30 2904 C 276.648 3.35947 0.896369 0
M  V30 2905 H 275.971 3.98684 0.298548 0
M  V30 2906 H 277.411 4.02376 1.33676 0
M  V30 2907 C 275.87 2.70076 2.01396 0
M  V30 2908 O 276.4 2.55093 3.10307 0
M  V30 2909 N 274.606 2.28724 1.79259 0
M  V30 2910 H 274.153 2.4111 0.906841 0
M  V30 2911 H 274.111 1.84986 2.54219 0
M  V30 2912 N 277.883 0.443576 1.51229 0
M  V30 2913 C 279.131 -0.120557 2.0174 0
M  V30 2914 C 279.452 -1.42665 1.32935 0
M  V30 2915 O 278.722 -1.9028 0.465866 0
M  V30 2916 H 277.302 -0.0475426 0.745486 0
M  V30 2917 H 279.964 0.587711 1.85828 0
M  V30 2918 H 279.06 -0.291972 3.10731 0
M  V30 2919 N 279.361 -1.56624 0.175154 0
M  V30 2920 C 280.324 -2.16934 -0.739738 0
M  V30 2921 C 281.324 -1.11842 -1.15533 0
M  V30 2922 O 282.514 -1.37335 -1.07167 0
M  V30 2923 C 279.646 -2.75531 -2.00738 0
M  V30 2924 H 280.839 -2.99131 -0.214639 0
M  V30 2925 H 278.392 -1.56123 -0.0744197 0
M  V30 2926 H 279.127 -1.97078 -2.57548 0
M  V30 2927 H 278.912 -3.52444 -1.71831 0
M  V30 2928 H 280.402 -3.21904 -2.66021 0
M  V30 2929 N 280.839 0.0985539 -1.57292 0
M  V30 2930 C 282.085 0.803867 -1.86188 0
M  V30 2931 C 282.418 1.78549 -0.763794 0
M  V30 2932 O 281.693 1.93153 0.22855 0
M  V30 2933 C 281.976 1.53568 -3.25713 0
M  V30 2934 C 281.829 0.572277 -4.46145 0
M  V30 2935 C 283.148 2.48708 -3.63087 0
M  V30 2936 H 280.267 0.290781 -0.677211 0
M  V30 2937 H 282.909 0.0675783 -1.8988 0
M  V30 2938 H 281.059 2.16332 -3.22696 0
M  V30 2939 H 282.731 -0.0480894 -4.61275 0
M  V30 2940 H 280.974 -0.114618 -4.33649 0
M  V30 2941 H 281.645 1.12139 -5.40489 0
M  V30 2942 H 284.121 1.96039 -3.67026 0
M  V30 2943 H 282.997 2.96932 -4.61652 0
M  V30 2944 H 283.258 3.32309 -2.91588 0
M  V30 2945 N 282.317 1.53212 0.369288 0
M  V30 2946 C 283.265 1.80054 1.47253 0
M  V30 2947 C 284.259 0.669456 1.55611 0
M  V30 2948 O 285.465 0.852328 1.58541 0
M  V30 2949 H 281.84 0.570034 0.490475 0
M  V30 2950 H 283.811 2.72403 1.21817 0
M  V30 2951 C 282.56 2.00403 2.84137 0
M  V30 2952 H 281.883 2.86876 2.78464 0
M  V30 2953 H 283.323 2.23164 3.60519 0
M  V30 2954 C 281.782 0.782081 3.27697 0
M  V30 2955 O 282.312 -0.0310205 4.01688 0
M  V30 2956 N 280.518 0.606573 2.84199 0
M  V30 2957 H 280.065 1.26939 2.24152 0
M  V30 2958 H 280.023 -0.20962 3.137 0
M  V30 2959 N 283.795 -0.628877 1.44509 0
M  V30 2960 C 285.043 -1.38565 1.4712 0
M  V30 2961 C 285.364 -1.94712 0.105899 0
M  V30 2962 O 284.634 -1.75912 -0.862079 0
M  V30 2963 H 283.214 -0.514333 0.541729 0
M  V30 2964 H 285.876 -0.740018 1.80305 0
M  V30 2965 H 284.972 -2.21583 2.19789 0
M  V30 2966 N 285.273 -1.31445 -0.869486 0
M  V30 2967 C 286.22 -1.19135 -1.97675 0
M  V30 2968 C 287.19 -0.0770266 -1.65921 0
M  V30 2969 O 288.375 -0.249972 -1.89155 0
M  V30 2970 C 285.515 -0.905149 -3.33018 0
M  V30 2971 C 284.628 -2.10285 -3.77365 0
M  V30 2972 C 283.763 -1.75339 -5.01427 0
M  V30 2973 C 282.802 -2.91515 -5.38224 0
M  V30 2974 N 281.939 -2.56762 -6.53466 0
M  V30 2975 H 286.779 -2.13853 -2.07535 0
M  V30 2976 H 284.316 -1.06379 -1.01597 0
M  V30 2977 H 286.274 -0.719765 -4.10944 0
M  V30 2978 H 284.904 0.00519624 -3.228 0
M  V30 2979 H 283.956 -2.39899 -2.95216 0
M  V30 2980 H 285.268 -2.97237 -4.00564 0
M  V30 2981 H 284.422 -1.53266 -5.87022 0
M  V30 2982 H 283.161 -0.855801 -4.80133 0
M  V30 2983 H 282.166 -3.14237 -4.51149 0
M  V30 2984 H 283.391 -3.81985 -5.61484 0
M  V30 2985 H 281.337 -1.69526 -6.33717 0
M  V30 2986 H 281.254 -3.37243 -6.76612 0
M  V30 2987 H 282.522 -2.38083 -7.42251 0
M  V30 2988 N 286.751 1.08385 -1.14413 0
M  V30 2989 C 287.999 1.80419 -0.910679 0
M  V30 2990 C 288.32 1.86658 0.564243 0
M  V30 2991 O 287.59 1.35985 1.41014 0
M  V30 2992 H 286.17 0.668204 -0.333934 0
M  V30 2993 H 288.832 1.31037 -1.44275 0
M  V30 2994 H 287.928 2.83238 -1.31082 0
M  V30 2995 N 288.23 0.939286 1.26551 0
M  V30 2996 C 289.455 0.602008 1.98471 0
M  V30 2997 C 289.88 -0.815624 1.69497 0
M  V30 2998 O 289.238 -1.54912 0.941905 0
M  V30 2999 C 289.286 0.848407 3.50477 0
M  V30 3000 O 288.39 -0.0804009 4.12322 0
M  V30 3001 H 287.731 0.23049 0.622712 0
M  V30 3002 H 290.261 1.2617 1.61066 0
M  V30 3003 H 290.271 0.768553 4.00696 0
M  V30 3004 H 288.946 1.88171 3.70897 0
M  V30 3005 H 287.523 0.0503508 3.72866 0
M  V30 3006 N 289.708 -1.40897 0.706093 0
M  V30 3007 C 290.638 -2.33418 0.0620085 0
M  V30 3008 C 291.619 -1.52385 -0.755827 0
M  V30 3009 O 292.804 -1.80886 -0.706674 0
M  V30 3010 C 289.934 -3.36293 -0.867445 0
M  V30 3011 C 288.888 -4.27716 -0.155932 0
M  V30 3012 C 288.214 -5.2105 -1.20046 0
M  V30 3013 C 289.514 -5.12944 0.984149 0
M  V30 3014 H 291.208 -2.87527 0.83477 0
M  V30 3015 H 288.754 -1.38249 0.402875 0
M  V30 3016 H 290.707 -3.99949 -1.32735 0
M  V30 3017 H 289.431 -2.80556 -1.67199 0
M  V30 3018 H 288.09 -3.65498 0.284047 0
M  V30 3019 H 287.738 -4.61624 -1.99781 0
M  V30 3020 H 287.438 -5.83056 -0.729328 0
M  V30 3021 H 288.962 -5.87584 -1.66066 0
M  V30 3022 H 290.376 -5.70109 0.604048 0
M  V30 3023 H 288.773 -5.83945 1.38304 0
M  V30 3024 H 289.843 -4.49485 1.81911 0
M  V30 3025 N 291.186 -0.45159 -1.50991 0
M  V30 3026 C 292.133 0.352625 -2.2809 0
M  V30 3027 C 293.103 1.0044 -1.32291 0
M  V30 3028 O 294.288 1.02058 -1.6121 0
M  V30 3029 C 291.428 1.43983 -3.13629 0
M  V30 3030 C 290.541 0.804772 -4.24438 0
M  V30 3031 C 289.676 1.86822 -4.97263 0
M  V30 3032 C 288.715 1.21236 -5.99973 0
M  V30 3033 N 287.852 2.2178 -6.66152 0
M  V30 3034 H 292.692 -0.311186 -2.96371 0
M  V30 3035 H 290.229 -0.165308 -1.46168 0
M  V30 3036 H 292.187 2.08161 -3.61559 0
M  V30 3037 H 290.817 2.07307 -2.47434 0
M  V30 3038 H 289.869 0.0509129 -3.80366 0
M  V30 3039 H 291.181 0.286076 -4.97979 0
M  V30 3040 H 290.335 2.58628 -5.48813 0
M  V30 3041 H 289.074 2.42068 -4.23385 0
M  V30 3042 H 288.079 0.479828 -5.47702 0
M  V30 3043 H 289.304 0.667051 -6.75816 0
M  V30 3044 H 287.25 2.76079 -5.95077 0
M  V30 3045 H 287.167 1.74841 -7.35504 0
M  V30 3046 H 288.435 2.93026 -7.22327 0
M  V30 3047 N 292.664 1.56529 -0.183458 0
M  V30 3048 C 293.912 1.96855 0.457452 0
M  V30 3049 C 294.233 1.07104 1.62953 0
M  V30 3050 O 293.503 0.139887 1.954 0
M  V30 3051 H 292.083 0.72693 0.171992 0
M  V30 3052 H 294.745 1.93056 -0.267476 0
M  V30 3053 H 293.841 3.01423 0.809368 0
M  V30 3054 N 294.142 -0.090211 1.57342 0
M  V30 3055 C 295.074 -1.13541 1.99101 0
M  V30 3056 C 296.087 -1.3604 0.894258 0
M  V30 3057 O 297.276 -1.34606 1.17233 0
M  V30 3058 C 294.376 -2.49001 2.29895 0
M  V30 3059 C 293.549 -2.46712 3.61182 0
M  V30 3060 C 292.608 -3.64136 3.79857 0
M  V30 3061 O 291.634 -3.46405 4.51655 0
M  V30 3062 N 292.836 -4.83802 3.20806 0
M  V30 3063 H 295.601 -0.779942 2.89373 0
M  V30 3064 H 293.162 -0.279125 1.59476 0
M  V30 3065 H 295.154 -3.26166 2.39578 0
M  V30 3066 H 293.724 -2.76619 1.45605 0
M  V30 3067 H 292.944 -1.55058 3.62423 0
M  V30 3068 H 294.232 -2.42265 4.4742 0
M  V30 3069 H 293.63 -5.01112 2.62494 0
M  V30 3070 H 292.187 -5.58543 3.35966 0
M  V30 3071 N 295.62 -1.53406 -0.361157 0
M  V30 3072 C 297.031 -1.61442 -0.937728 0
M  V30 3073 C 297.382 -0.48461 -1.90121 0
M  V30 3074 O 296.507 0.388312 -2.12888 0
M  V30 3075 C 297.102 -2.92624 -1.70753 0
M  V30 3076 C 295.661 -3.02981 -2.23337 0
M  V30 3077 C 294.808 -2.5677 -1.04712 0
M  V30 3078 H 297.759 -1.58083 -0.139816 0
M  V30 3079 H 297.78 -2.80675 -2.56908 0
M  V30 3080 H 297.292 -3.74834 -1.00604 0
M  V30 3081 H 295.393 -2.25368 -2.96715 0
M  V30 3082 H 295.506 -4.0814 -2.50916 0
M  V30 3083 H 293.87 -2.11752 -1.41539 0
M  V30 3084 H 294.653 -3.41402 -0.360539 0
M  V30 3085 N 297.098 0.621204 -1.44841 0
M  V30 3086 C 298.346 1.37783 -1.47852 0
M  V30 3087 C 298.667 1.94653 -0.116224 0
M  V30 3088 O 297.937 1.76367 0.852737 0
M  V30 3089 H 296.517 0.511453 -0.544449 0
M  V30 3090 H 299.179 0.730446 -1.80694 0
M  V30 3091 H 298.275 2.20414 -2.20961 0
M  V30 3092 N 298.576 1.31904 0.862503 0
M  V30 3093 C 299.853 1.12644 1.59908 0
M  V30 3094 C 300.233 -0.316104 2.0872 0
M  V30 3095 O 299.581 -1.31145 1.87118 0
M  V30 3096 C 299.791 2.1472 2.7513 0
M  V30 3097 C 301.139 2.47637 3.44907 0
M  V30 3098 O 302.163 2.13205 2.85346 0
M  V30 3099 O 301.022 3.06632 4.52371 0
M  V30 3100 H 298.116 0.43416 0.703871 0
M  V30 3101 H 300.662 1.43408 0.907314 0
M  V30 3102 H 299.434 3.1172 2.3653 0
M  V30 3103 H 299.057 1.84905 3.51989 0
M  V30 3104 N 300.054 -1.07777 1.14986 0
M  V30 3105 C 301.303 -1.79669 0.916617 0
M  V30 3106 C 301.616 -1.87474 -0.557917 0
M  V30 3107 O 302.822 -2.55845 -0.908617 0
M  V30 3108 C 301.278 -3.22848 1.59051 0
M  V30 3109 C 300.886 -3.23257 3.10176 0
M  V30 3110 C 302.63 -3.99379 1.43864 0
M  V30 3111 C 300.537 -4.61063 3.70372 0
M  V30 3112 H 299.467 -0.673349 0.33929 0
M  V30 3113 H 302.118 -1.21003 1.37951 0
M  V30 3114 H 300.5 -3.8168 1.0553 0
M  V30 3115 H 301.674 -2.74095 3.70417 0
M  V30 3116 H 299.989 -2.60222 3.25074 0
M  V30 3117 H 302.586 -5.0122 1.86232 0
M  V30 3118 H 302.929 -4.14511 0.385564 0
M  V30 3119 H 303.462 -3.47032 1.94457 0
M  V30 3120 H 300.201 -4.51135 4.7556 0
M  V30 3121 H 299.721 -5.1048 3.14913 0
M  V30 3122 H 301.4 -5.30034 3.71043 0
M  V30 3123 N 301.532 -0.945985 -1.26051 0
M  V30 3124 C 302.762 -0.612136 -1.97323 0
M  V30 3125 C 303.17 0.818171 -1.70595 0
M  V30 3126 O 302.513 1.55777 -0.973613 0
M  V30 3127 C 302.575 -0.780347 -3.50929 0
M  V30 3128 C 302.239 -2.18619 -4.01317 0
M  V30 3129 C 303.236 -3.16209 -4.12683 0
M  V30 3130 C 300.921 -2.50805 -4.35203 0
M  V30 3131 C 302.915 -4.44085 -4.57238 0
M  V30 3132 C 300.602 -3.78912 -4.79446 0
M  V30 3133 C 301.6 -4.75365 -4.90425 0
M  V30 3134 O 301.288 -6.01191 -5.3369 0
M  V30 3135 H 301.02 -0.229134 -0.635982 0
M  V30 3136 H 303.574 -1.27036 -1.61404 0
M  V30 3137 H 301.804 -0.0649864 -3.86645 0
M  V30 3138 H 303.493 -0.448842 -4.03411 0
M  V30 3139 H 304.259 -2.92668 -3.86744 0
M  V30 3140 H 300.138 -1.76463 -4.2589 0
M  V30 3141 H 303.682 -5.19373 -4.65723 0
M  V30 3142 H 299.579 -4.02265 -5.0483 0
M  V30 3143 H 300.347 -6.04442 -5.51899 0
M  V30 3144 N 303.011 1.40521 -0.713556 0
M  V30 3145 C 303.961 2.27971 -0.036165 0
M  V30 3146 C 304.945 1.43151 0.734623 0
M  V30 3147 O 306.137 1.66261 0.607158 0
M  V30 3148 C 303.266 3.31661 0.886331 0
M  V30 3149 C 302.352 4.23955 0.110836 0
M  V30 3150 N 302.743 4.97641 -0.904847 0
M  V30 3151 C 301.041 4.44674 0.343692 0
M  V30 3152 C 301.742 5.65322 -1.37064 0
M  V30 3153 N 300.718 5.39162 -0.693168 0
M  V30 3154 H 304.52 2.82384 -0.814645 0
M  V30 3155 H 302.034 1.52948 -0.545963 0
M  V30 3156 H 304.031 3.93154 1.38692 0
M  V30 3157 H 302.691 2.78808 1.66421 0
M  V30 3158 H 303.702 5.01689 -1.28563 0
M  V30 3159 H 300.379 4.02801 1.09805 0
M  V30 3160 H 301.769 6.34359 -2.21447 0
M  V30 3161 N 304.489 0.459591 1.5075 0
M  V30 3162 C 305.421 -0.37665 2.26084 0
M  V30 3163 C 306.434 -0.967109 1.30961 0
M  V30 3164 O 307.623 -0.857468 1.56556 0
M  V30 3165 C 304.723 -1.54112 3.01832 0
M  V30 3166 C 303.896 -1.06553 4.24223 0
M  V30 3167 C 302.955 -2.1027 4.82362 0
M  V30 3168 O 301.981 -1.68798 5.43595 0
M  V30 3169 N 303.183 -3.42974 4.68347 0
M  V30 3170 H 305.948 0.269124 2.98489 0
M  V30 3171 H 303.509 0.28972 1.59287 0
M  V30 3172 H 305.501 -2.23165 3.37608 0
M  V30 3173 H 304.071 -2.0918 2.32298 0
M  V30 3174 H 303.291 -0.201274 3.93686 0
M  V30 3175 H 304.579 -0.725516 5.03601 0
M  V30 3176 H 303.977 -3.79385 4.19623 0
M  V30 3177 H 302.534 -4.07858 5.08424 0
M  V30 3178 N 305.967 -1.56429 0.191757 0
M  V30 3179 C 307.195 -2.01867 -0.453586 0
M  V30 3180 C 307.61 -1.07191 -1.5542 0
M  V30 3181 O 306.967 -0.0762108 -1.82341 0
M  V30 3182 C 307.018 -3.47017 -1.013 0
M  V30 3183 O 306.739 -4.38078 0.0437005 0
M  V30 3184 C 308.24 -4.07956 -1.73456 0
M  V30 3185 H 305.46 -0.661211 -0.114199 0
M  V30 3186 H 308.004 -2.02295 0.299483 0
M  V30 3187 H 306.159 -3.47298 -1.71647 0
M  V30 3188 H 306.573 -5.23178 -0.372212 0
M  V30 3189 H 308.047 -5.1138 -2.07833 0
M  V30 3190 H 308.524 -3.51222 -2.63704 0
M  V30 3191 H 309.13 -4.11437 -1.07702 0
M  V30 3192 N 307.445 0.0818655 -1.57387 0
M  V30 3193 C 308.691 0.778884 -1.87896 0
M  V30 3194 C 309.046 1.75692 -0.784229 0
M  V30 3195 O 308.339 1.90417 0.212567 0
M  V30 3196 C 308.533 1.53513 -3.22752 0
M  V30 3197 C 308.362 0.631838 -4.45239 0
M  V30 3198 C 307.132 0.272571 -5.04564 0
M  V30 3199 C 309.33 -0.0670191 -5.14256 0
M  V30 3200 N 307.312 -0.637498 -6.10581 0
M  V30 3201 C 308.683 -0.834653 -6.14356 0
M  V30 3202 C 310.738 -0.139551 -4.97704 0
M  V30 3203 C 309.441 -1.66806 -6.99691 0
M  V30 3204 C 311.467 -0.959903 -5.83558 0
M  V30 3205 C 310.829 -1.71561 -6.83188 0
M  V30 3206 H 306.928 0.260764 -0.737242 0
M  V30 3207 H 309.512 0.0408227 -1.94657 0
M  V30 3208 H 307.683 2.24398 -3.17018 0
M  V30 3209 H 309.415 2.18038 -3.40942 0
M  V30 3210 H 306.17 0.62319 -4.69482 0
M  V30 3211 H 306.594 -1.08548 -6.68241 0
M  V30 3212 H 311.236 0.430376 -4.20604 0
M  V30 3213 H 308.954 -2.249 -7.76174 0
M  V30 3214 H 312.54 -1.01887 -5.72809 0
M  V30 3215 H 311.42 -2.34017 -7.48469 0
M  V30 3216 N 308.923 1.53595 0.353017 0
M  V30 3217 C 309.886 1.80232 1.41594 0
M  V30 3218 C 310.886 0.673081 1.46035 0
M  V30 3219 O 312.076 0.941335 1.46576 0
M  V30 3220 C 309.208 1.93578 2.80607 0
M  V30 3221 H 310.401 2.75174 1.19244 0
M  V30 3222 H 307.954 1.44864 0.586872 0
M  V30 3223 H 308.689 1.00746 3.08254 0
M  V30 3224 H 308.474 2.75724 2.78781 0
M  V30 3225 H 309.964 2.15735 3.57558 0
M  V30 3226 N 310.401 -0.613514 1.45168 0
M  V30 3227 C 311.817 -0.933629 1.29443 0
M  V30 3228 C 312.017 -2.00028 0.243101 0
M  V30 3229 O 311.073 -2.49848 -0.364992 0
M  V30 3230 C 312.386 -1.38018 2.67155 0
M  V30 3231 C 313.934 -1.49471 2.75004 0
M  V30 3232 C 314.409 -1.97503 4.13227 0
M  V30 3233 N 315.9 -2.04746 4.15491 0
M  V30 3234 C 316.635 -2.43121 5.19307 0
M  V30 3235 N 316.131 -2.80506 6.33473 0
M  V30 3236 N 317.924 -2.43408 5.06664 0
M  V30 3237 H 310.075 0.0916097 2.12202 0
M  V30 3238 H 312.338 -0.0216655 0.947752 0
M  V30 3239 H 312.044 -0.670625 3.45247 0
M  V30 3240 H 311.918 -2.34784 2.95222 0
M  V30 3241 H 314.305 -2.19519 1.9722 0
M  V30 3242 H 314.386 -0.510342 2.50657 0
M  V30 3243 H 314.03 -1.28045 4.91495 0
M  V30 3244 H 313.96 -2.96843 4.34962 0
M  V30 3245 H 316.451 -1.78468 3.33103 0
M  V30 3246 H 316.764 -3.08652 7.08487 0
M  V30 3247 H 315.109 -2.78216 6.36884 0
M  V30 3248 H 318.3 -2.13604 4.16523 0
M  V30 3249 H 318.473 -2.72989 5.87691 0
M  V30 3250 N 311.879 -1.3236 -0.855495 0
M  V30 3251 C 313.109 -1.25688 -1.6397 0
M  V30 3252 C 313.517 0.177592 -1.88365 0
M  V30 3253 O 312.86 1.12485 -1.45234 0
M  V30 3254 C 312.922 -1.94602 -3.02275 0
M  V30 3255 C 312.586 -3.43937 -3.00926 0
M  V30 3256 C 313.583 -4.39435 -2.77835 0
M  V30 3257 C 311.268 -3.85858 -3.21588 0
M  V30 3258 C 313.262 -5.74829 -2.75409 0
M  V30 3259 C 310.949 -5.21361 -3.18789 0
M  V30 3260 C 311.947 -6.15658 -2.95727 0
M  V30 3261 O 311.635 -7.48681 -2.928 0
M  V30 3262 H 311.367 -0.434972 -0.51747 0
M  V30 3263 H 313.921 -1.75023 -1.075 0
M  V30 3264 H 312.151 -1.39836 -3.60531 0
M  V30 3265 H 313.84 -1.81651 -3.62985 0
M  V30 3266 H 314.606 -4.08374 -2.6164 0
M  V30 3267 H 310.485 -3.12883 -3.38564 0
M  V30 3268 H 314.029 -6.48404 -2.57328 0
M  V30 3269 H 309.926 -5.52052 -3.34528 0
M  V30 3270 H 310.694 -7.5803 -3.0876 0
M  V30 3271 N 313.357 1.07166 -1.15556 0
M  V30 3272 C 314.604 1.79798 -0.931604 0
M  V30 3273 C 314.932 1.8682 0.54115 0
M  V30 3274 O 314.187 1.34942 1.41736 0
M  V30 3275 C 314.486 3.24707 -1.49332 0
M  V30 3276 C 314.152 3.37781 -2.98688 0
M  V30 3277 C 312.814 3.41057 -3.39461 0
M  V30 3278 C 315.166 3.40424 -3.94665 0
M  V30 3279 C 312.494 3.4458 -4.74849 0
M  V30 3280 C 314.846 3.45485 -5.29927 0
M  V30 3281 C 313.51 3.47039 -5.70193 0
M  V30 3282 H 312.78 0.657928 -0.340898 0
M  V30 3283 H 315.427 1.26091 -1.44129 0
M  V30 3284 H 313.732 3.81208 -0.904859 0
M  V30 3285 H 315.429 3.79486 -1.29582 0
M  V30 3286 H 312.019 3.35932 -2.66172 0
M  V30 3287 H 316.203 3.37113 -3.64237 0
M  V30 3288 H 311.459 3.44083 -5.05388 0
M  V30 3289 H 315.633 3.46476 -6.04092 0
M  V30 3290 H 313.26 3.49522 -6.75084 0
M  V30 3291 N 314.835 0.952656 1.25548 0
M  V30 3292 C 316.081 0.607272 1.93494 0
M  V30 3293 C 316.414 -0.853245 1.74452 0
M  V30 3294 O 315.689 -1.61194 1.08843 0
M  V30 3295 C 315.972 0.96435 3.46947 0
M  V30 3296 C 315.825 2.48045 3.75225 0
M  V30 3297 C 317.144 0.487987 4.37386 0
M  V30 3298 H 314.263 0.222096 0.702739 0
M  V30 3299 H 316.905 1.18895 1.48203 0
M  V30 3300 H 315.055 0.469361 3.85654 0
M  V30 3301 H 316.727 3.04905 3.46166 0
M  V30 3302 H 314.97 2.919 3.209 0
M  V30 3303 H 315.641 2.6808 4.82532 0
M  V30 3304 H 318.117 0.912558 4.0597 0
M  V30 3305 H 316.993 0.766547 5.43521 0
M  V30 3306 H 317.254 -0.612063 4.37843 0
M  V30 3307 N 316.313 -1.40141 0.720998 0
M  V30 3308 C 317.26 -2.30688 0.071919 0
M  V30 3309 C 318.23 -1.48476 -0.744584 0
M  V30 3310 O 319.415 -1.77201 -0.707423 0
M  V30 3311 C 316.555 -3.34724 -0.839855 0
M  V30 3312 C 315.668 -4.31998 -0.0122438 0
M  V30 3313 C 314.803 -5.23102 -0.923995 0
M  V30 3314 C 313.842 -6.12033 -0.0907969 0
M  V30 3315 N 312.979 -6.95537 -0.957718 0
M  V30 3316 H 317.819 -2.85628 0.849755 0
M  V30 3317 H 315.356 -1.40653 0.430726 0
M  V30 3318 H 317.314 -3.93618 -1.38279 0
M  V30 3319 H 315.944 -2.81274 -1.58381 0
M  V30 3320 H 314.996 -3.74841 0.64794 0
M  V30 3321 H 316.308 -4.94772 0.632595 0
M  V30 3322 H 315.462 -5.86953 -1.53527 0
M  V30 3323 H 314.201 -4.60615 -1.60264 0
M  V30 3324 H 313.206 -5.47207 0.533377 0
M  V30 3325 H 314.431 -6.76581 0.584428 0
M  V30 3326 H 312.377 -6.35633 -1.62192 0
M  V30 3327 H 312.294 -7.55099 -0.36904 0
M  V30 3328 H 313.562 -7.63832 -1.555 0
M  V30 3329 N 317.792 -0.46758 -1.50504 0
M  V30 3330 C 319.039 0.0886219 -2.02306 0
M  V30 3331 C 319.367 1.40037 -1.34981 0
M  V30 3332 O 318.622 1.90136 -0.463318 0
M  V30 3333 C 318.921 0.323995 -3.55928 0
M  V30 3334 C 318.587 -0.905618 -4.41712 0
M  V30 3335 C 317.249 -1.24275 -4.64875 0
M  V30 3336 C 319.601 -1.72448 -4.91845 0
M  V30 3337 C 316.929 -2.39888 -5.35417 0
M  V30 3338 C 319.281 -2.87185 -5.63656 0
M  V30 3339 C 317.945 -3.21317 -5.85074 0
M  V30 3340 H 317.215 0.0324291 -0.74029 0
M  V30 3341 H 319.862 -0.620945 -1.81153 0
M  V30 3342 H 318.167 1.11577 -3.75577 0
M  V30 3343 H 319.864 0.76826 -3.93572 0
M  V30 3344 H 316.454 -0.632956 -4.239 0
M  V30 3345 H 320.638 -1.4772 -4.73806 0
M  V30 3346 H 315.894 -2.66611 -5.50208 0
M  V30 3347 H 320.068 -3.50985 -6.01484 0
M  V30 3348 H 317.695 -4.1101 -6.39511 0
M  V30 3349 N 319.27 1.56325 -0.20005 0
M  V30 3350 C 320.2 2.22318 0.713916 0
M  V30 3351 C 321.181 1.18788 1.21752 0
M  V30 3352 O 322.366 1.47309 1.26545 0
M  V30 3353 C 319.496 2.88639 1.93144 0
M  V30 3354 C 318.45 3.98457 1.56255 0
M  V30 3355 C 317.776 4.51967 2.85709 0
M  V30 3356 C 319.076 5.16612 0.768747 0
M  V30 3357 H 320.77 2.98952 0.163755 0
M  V30 3358 H 318.316 1.43792 0.0773219 0
M  V30 3359 H 320.269 3.33491 2.57608 0
M  V30 3360 H 318.993 2.09419 2.50621 0
M  V30 3361 H 317.652 3.54305 0.941471 0
M  V30 3362 H 317.3 3.69503 3.41287 0
M  V30 3363 H 317 5.26071 2.6177 0
M  V30 3364 H 318.524 4.99523 3.51154 0
M  V30 3365 H 319.938 5.57977 1.3166 0
M  V30 3366 H 318.335 5.96812 0.627286 0
M  V30 3367 H 319.405 4.84358 -0.229168 0
M  V30 3368 N 320.748 -0.0735177 1.57428 0
M  V30 3369 C 322.025 -0.805903 1.78226 0
M  V30 3370 C 322.405 -1.95874 0.787189 0
M  V30 3371 O 321.753 -2.2779 -0.180029 0
M  V30 3372 C 321.963 -1.28045 3.24662 0
M  V30 3373 C 323.311 -1.71453 3.88444 0
M  V30 3374 O 324.335 -1.37616 3.28543 0
M  V30 3375 O 323.194 -2.34093 4.93825 0
M  V30 3376 H 320.288 -0.386041 0.73137 0
M  V30 3377 H 322.834 -0.0537269 1.69615 0
M  V30 3378 H 321.606 -0.455476 3.8864 0
M  V30 3379 H 321.229 -2.094 3.37991 0
M  V30 3380 N 322.226 -1.5378 -0.344866 0
M  V30 3381 C 323.189 -1.80981 -1.40637 0
M  V30 3382 C 324.189 -0.680816 -1.45676 0
M  V30 3383 O 325.379 -0.949095 -1.46075 0
M  V30 3384 C 322.511 -1.95063 -2.79577 0
M  V30 3385 H 323.704 -2.75803 -1.17783 0
M  V30 3386 H 321.257 -1.45173 -0.579181 0
M  V30 3387 H 321.992 -1.02379 -3.07716 0
M  V30 3388 H 321.777 -2.77198 -2.77315 0
M  V30 3389 H 323.267 -2.17629 -3.56409 0
M  V30 3390 N 323.704 0.605807 -1.45491 0
M  V30 3391 C 324.934 1.38934 -1.52908 0
M  V30 3392 C 325.342 1.88513 -0.161086 0
M  V30 3393 O 324.685 1.62962 0.847891 0
M  V30 3394 C 324.747 2.62737 -2.45376 0
M  V30 3395 C 324.411 2.34785 -3.92078 0
M  V30 3396 C 325.408 1.95038 -4.8193 0
M  V30 3397 C 323.093 2.47642 -4.37011 0
M  V30 3398 C 325.087 1.68511 -6.14722 0
M  V30 3399 C 322.774 2.20728 -5.69844 0
M  V30 3400 C 323.772 1.81225 -6.58519 0
M  V30 3401 O 323.46 1.54627 -7.88889 0
M  V30 3402 H 323.192 0.431629 -0.520262 0
M  V30 3403 H 325.746 0.74573 -1.91384 0
M  V30 3404 H 323.976 3.29824 -2.01874 0
M  V30 3405 H 325.665 3.24783 -2.43456 0
M  V30 3406 H 326.431 1.84639 -4.48479 0
M  V30 3407 H 322.31 2.77356 -3.68232 0
M  V30 3408 H 325.854 1.37602 -6.83894 0
M  V30 3409 H 321.751 2.30744 -6.02849 0
M  V30 3410 H 322.519 1.68665 -8.00933 0
M  V30 3411 N 325.182 1.32811 0.848464 0
M  V30 3412 C 326.145 1.22194 1.9391 0
M  V30 3413 C 327.145 0.143404 1.60159 0
M  V30 3414 O 328.335 0.394253 1.6968 0
M  V30 3415 C 325.467 0.88067 3.29328 0
M  V30 3416 H 326.66 2.19127 2.04752 0
M  V30 3417 H 324.213 1.16731 1.0394 0
M  V30 3418 H 324.948 -0.0865776 3.24184 0
M  V30 3419 H 324.733 1.66052 3.55203 0
M  V30 3420 H 326.223 0.830871 4.09251 0
M  V30 3421 N 326.66 -1.06551 1.16123 0
M  V30 3422 C 327.57 -2.17484 0.879662 0
M  V30 3423 C 328.586 -1.73377 -0.147104 0
M  V30 3424 O 329.762 -2.01379 0.0289128 0
M  V30 3425 C 326.827 -3.44591 0.381829 0
M  V30 3426 C 325.888 -4.0322 1.4735 0
M  V30 3427 C 325.121 -5.24261 0.999324 0
M  V30 3428 O 325.344 -5.70198 -0.151957 0
M  V30 3429 O 324.278 -5.74775 1.78653 0
M  V30 3430 H 328.104 -2.44075 1.80724 0
M  V30 3431 H 325.689 -1.16042 0.940992 0
M  V30 3432 H 327.571 -4.21254 0.111053 0
M  V30 3433 H 326.246 -3.19532 -0.51777 0
M  V30 3434 H 325.153 -3.2806 1.79798 0
M  V30 3435 H 326.486 -4.32568 2.34831 0
M  V30 3436 N 328.138 -0.959301 -1.25041 0
M  V30 3437 C 329.088 -0.453888 -2.23436 0
M  V30 3438 C 330.072 0.459461 -1.542 0
M  V30 3439 O 331.264 0.291752 -1.74579 0
M  V30 3440 C 328.393 0.262667 -3.42294 0
M  V30 3441 C 327.479 -0.669022 -4.1879 0
M  V30 3442 N 327.87 -1.80267 -4.72586 0
M  V30 3443 C 326.168 -0.47814 -4.4343 0
M  V30 3444 C 326.869 -2.38475 -5.3057 0
M  V30 3445 N 325.845 -1.67078 -5.17287 0
M  V30 3446 H 329.647 -1.319 -2.6264 0
M  V30 3447 H 327.161 -0.817358 -1.40332 0
M  V30 3448 H 329.158 0.641911 -4.11929 0
M  V30 3449 H 327.818 1.12432 -3.04613 0
M  V30 3450 H 328.829 -2.18442 -4.69578 0
M  V30 3451 H 325.506 0.340249 -4.16111 0
M  V30 3452 H 326.896 -3.34094 -5.8295 0
M  V30 3453 N 329.616 1.39756 -0.72842 0
M  V30 3454 C 330.563 2.30647 -0.0841519 0
M  V30 3455 C 331.533 1.48869 0.7367 0
M  V30 3456 O 332.718 1.77574 0.698015 0
M  V30 3457 C 329.858 3.35165 0.822091 0
M  V30 3458 C 328.971 4.31999 -0.0106663 0
M  V30 3459 C 328.106 5.23585 0.896241 0
M  V30 3460 C 327.145 6.12072 0.0583381 0
M  V30 3461 N 326.282 6.96035 0.920818 0
M  V30 3462 H 331.122 2.85173 -0.864891 0
M  V30 3463 H 328.659 1.40422 -0.438179 0
M  V30 3464 H 330.617 3.94345 1.36189 0
M  V30 3465 H 329.247 2.8211 1.56888 0
M  V30 3466 H 328.299 3.74492 -0.66781 0
M  V30 3467 H 329.611 4.9443 -0.658825 0
M  V30 3468 H 328.765 5.87759 1.50412 0
M  V30 3469 H 327.504 4.61459 1.57819 0
M  V30 3470 H 326.509 5.46916 -0.562389 0
M  V30 3471 H 327.734 6.76261 -0.6203 0
M  V30 3472 H 325.68 6.36485 1.58818 0
M  V30 3473 H 325.597 7.55284 0.32899 0
M  V30 3474 H 326.865 7.64646 1.51447 0
M  V30 3475 N 331.094 0.475555 1.50254 0
M  V30 3476 C 332.024 -0.30611 2.31485 0
M  V30 3477 C 333.005 -0.986228 1.38591 0
M  V30 3478 O 334.19 -0.982541 1.67511 0
M  V30 3479 C 331.32 -1.38588 3.1845 0
M  V30 3480 C 330.274 -0.827115 4.19932 0
M  V30 3481 C 329.6 -2.00551 4.95665 0
M  V30 3482 C 330.9 0.16463 5.2204 0
M  V30 3483 H 332.594 0.371866 2.97082 0
M  V30 3484 H 330.14 0.180282 1.42867 0
M  V30 3485 H 332.093 -1.94023 3.74076 0
M  V30 3486 H 330.817 -2.09269 2.50747 0
M  V30 3487 H 329.476 -0.294702 3.65414 0
M  V30 3488 H 329.124 -2.6994 4.2443 0
M  V30 3489 H 328.824 -1.63784 5.64313 0
M  V30 3490 H 330.348 -2.56468 5.54127 0
M  V30 3491 H 331.762 -0.300699 5.72511 0
M  V30 3492 H 330.159 0.446813 5.98434 0
M  V30 3493 H 331.229 1.08905 4.72512 0
M  V30 3494 N 332.573 -1.56217 0.208337 0
M  V30 3495 C 333.505 -2.1695 -0.739276 0
M  V30 3496 C 334.518 -1.13492 -1.1672 0
M  V30 3497 O 335.707 -1.40529 -1.10063 0
M  V30 3498 C 332.807 -2.72755 -2.01142 0
M  V30 3499 C 331.98 -4.0125 -1.74118 0
M  V30 3500 C 331.039 -4.41749 -2.85909 0
M  V30 3501 O 330.065 -5.08912 -2.54946 0
M  V30 3502 N 331.267 -4.06342 -4.14568 0
M  V30 3503 H 334.032 -2.98893 -0.219837 0
M  V30 3504 H 331.593 -1.61878 0.0268445 0
M  V30 3505 H 333.585 -2.96826 -2.75094 0
M  V30 3506 H 332.155 -1.95191 -2.4417 0
M  V30 3507 H 331.375 -3.85173 -0.838775 0
M  V30 3508 H 332.663 -4.851 -1.53477 0
M  V30 3509 H 332.061 -3.52345 -4.42571 0
M  V30 3510 H 330.618 -4.35335 -4.85105 0
M  V30 3511 N 334.051 0.0651679 -1.57465 0
M  V30 3512 C 335.298 0.763063 -1.87573 0
M  V30 3513 C 335.626 1.77242 -0.800961 0
M  V30 3514 O 334.881 1.94651 0.202316 0
M  V30 3515 C 335.18 1.50081 -3.24362 0
M  V30 3516 C 334.846 0.630816 -4.46466 0
M  V30 3517 C 333.508 0.391082 -4.79608 0
M  V30 3518 C 335.86 0.0279465 -5.21193 0
M  V30 3519 C 333.188 -0.460894 -5.84887 0
M  V30 3520 C 335.54 -0.811522 -6.27373 0
M  V30 3521 C 334.204 -1.06106 -6.59013 0
M  V30 3522 H 333.474 0.279224 -0.686378 0
M  V30 3523 H 336.121 0.0236726 -1.91485 0
M  V30 3524 H 334.426 2.31258 -3.16271 0
M  V30 3525 H 336.123 2.04571 -3.44894 0
M  V30 3526 H 332.713 0.8278 -4.2053 0
M  V30 3527 H 336.897 0.200262 -4.95896 0
M  V30 3528 H 332.153 -0.662907 -6.07796 0
M  V30 3529 H 336.327 -1.28537 -6.84435 0
M  V30 3530 H 333.954 -1.723 -7.40417 0
M  V30 3531 N 335.529 1.53961 0.336706 0
M  V30 3532 C 336.775 1.7273 1.07406 0
M  V30 3533 C 337.13 0.488095 1.86106 0
M  V30 3534 O 336.423 -0.519379 1.84426 0
M  V30 3535 C 336.617 2.93493 2.03953 0
M  V30 3536 C 336.446 4.29039 1.34744 0
M  V30 3537 C 335.216 4.93416 1.08942 0
M  V30 3538 C 337.414 5.08501 0.770115 0
M  V30 3539 N 335.396 6.12821 0.363864 0
M  V30 3540 C 336.767 6.19752 0.175472 0
M  V30 3541 C 338.822 4.93349 0.671633 0
M  V30 3542 C 337.525 7.17503 -0.508081 0
M  V30 3543 C 339.551 5.914 0.0018076 0
M  V30 3544 C 338.913 7.01993 -0.581835 0
M  V30 3545 H 335.012 0.685026 0.377177 0
M  V30 3546 H 337.596 1.91403 0.356815 0
M  V30 3547 H 335.767 2.76308 2.72962 0
M  V30 3548 H 337.499 3.00949 2.70577 0
M  V30 3549 H 334.254 4.53099 1.37833 0
M  V30 3550 H 334.678 6.76998 0.0156092 0
M  V30 3551 H 339.32 4.08007 1.1086 0
M  V30 3552 H 337.038 8.02414 -0.956918 0
M  V30 3553 H 340.624 5.81753 -0.0738538 0
M  V30 3554 H 339.504 7.76561 -1.09192 0
M  V30 3555 N 337.007 -0.598083 1.45811 0
M  V30 3556 C 337.97 -1.69018 1.54808 0
M  V30 3557 C 338.97 -1.55037 0.426652 0
M  V30 3558 O 340.16 -1.59932 0.690456 0
M  V30 3559 C 337.292 -3.0835 1.45371 0
M  V30 3560 H 338.485 -1.62403 2.52121 0
M  V30 3561 H 336.038 -0.814626 1.33392 0
M  V30 3562 H 336.773 -3.20534 0.492793 0
M  V30 3563 H 336.558 -3.19907 2.26721 0
M  V30 3564 H 338.048 -3.8788 1.54721 0
M  V30 3565 N 338.485 -1.33259 -0.841409 0
M  V30 3566 C 339.731 -1.24757 -1.59886 0
M  V30 3567 C 340.064 0.186913 -1.93298 0
M  V30 3568 O 339.339 1.12757 -1.5848 0
M  V30 3569 C 339.622 -2.12036 -2.91055 0
M  V30 3570 C 339.475 -3.63929 -2.6434 0
M  V30 3571 C 340.794 -1.9916 -3.92458 0
M  V30 3572 H 337.913 -0.454542 -0.580138 0
M  V30 3573 H 340.555 -1.63335 -0.970647 0
M  V30 3574 H 338.705 -1.79265 -3.44669 0
M  V30 3575 H 340.377 -4.06978 -2.17178 0
M  V30 3576 H 338.62 -3.85935 -1.98082 0
M  V30 3577 H 339.291 -4.20341 -3.57796 0
M  V30 3578 H 341.767 -2.27895 -3.48143 0
M  V30 3579 H 340.643 -2.62484 -4.82072 0
M  V30 3580 H 340.904 -0.963082 -4.31482 0
M  V30 3581 N 339.963 1.05934 -1.16686 0
M  V30 3582 C 341.191 1.8249 -0.974929 0
M  V30 3583 C 341.606 1.82679 0.476861 0
M  V30 3584 O 340.963 1.2486 1.33103 0
M  V30 3585 C 341.014 3.28943 -1.49929 0
M  V30 3586 O 340.735 3.28886 -2.89423 0
M  V30 3587 C 342.236 4.22215 -1.35089 0
M  V30 3588 H 339.456 0.575295 -0.345365 0
M  V30 3589 H 342 1.33631 -1.548 0
M  V30 3590 H 340.155 3.751 -0.968423 0
M  V30 3591 H 340.569 4.20493 -3.13506 0
M  V30 3592 H 342.043 5.22987 -1.76603 0
M  V30 3593 H 342.52 4.38195 -0.296935 0
M  V30 3594 H 343.126 3.81907 -1.87155 0
M  V30 3595 N 341.441 0.965919 1.2453 0
M  V30 3596 C 342.404 0.499547 2.2369 0
M  V30 3597 C 343.404 -0.40294 1.5567 0
M  V30 3598 O 344.594 -0.19865 1.73064 0
M  V30 3599 C 341.726 -0.276792 3.39774 0
M  V30 3600 H 342.919 1.37613 2.66463 0
M  V30 3601 H 340.472 0.750324 1.37112 0
M  V30 3602 H 341.207 -1.17055 3.02438 0
M  V30 3603 H 340.992 0.370826 3.90343 0
M  V30 3604 H 342.482 -0.592175 4.1338 0
M  V30 3605 N 342.919 -1.39368 0.735821 0
M  V30 3606 C 343.829 -2.34395 0.0979693 0
M  V30 3607 C 344.845 -1.58361 -0.720968 0
M  V30 3608 O 346.021 -1.90648 -0.649245 0
M  V30 3609 C 343.086 -3.37393 -0.797916 0
M  V30 3610 C 342.147 -4.29287 0.0333662 0
M  V30 3611 C 341.38 -5.27365 -0.819854 0
M  V30 3612 O 341.603 -5.31959 -2.05855 0
M  V30 3613 O 340.537 -6.01389 -0.248079 0
M  V30 3614 H 344.363 -2.90601 0.882315 0
M  V30 3615 H 341.948 -1.40909 0.4965 0
M  V30 3616 H 343.83 -4.00505 -1.31048 0
M  V30 3617 H 342.505 -2.83571 -1.56106 0
M  V30 3618 H 341.412 -3.69395 0.591475 0
M  V30 3619 H 342.745 -4.86317 0.758752 0
M  V30 3620 N 344.397 -0.483516 -1.5 0
M  V30 3621 C 345.345 0.318061 -2.30415 0
M  V30 3622 C 346.339 0.978988 -1.38247 0
M  V30 3623 O 347.545 0.908673 -1.55381 0
M  V30 3624 H 343.92 0.121419 -0.742133 0
M  V30 3625 H 345.891 -0.380403 -2.95965 0
M  V30 3626 C 344.64 1.38013 -3.19136 0
M  V30 3627 H 343.963 0.880952 -3.89973 0
M  V30 3628 H 345.403 1.91332 -3.78375 0
M  V30 3629 C 343.862 2.38884 -2.37563 0
M  V30 3630 O 344.392 3.44412 -2.06744 0
M  V30 3631 N 342.598 2.10912 -1.99911 0
M  V30 3632 H 342.145 1.25118 -2.25174 0
M  V30 3633 H 342.103 2.78635 -1.45636 0
M  V30 3634 N 345.875 1.56104 -0.216619 0
M  V30 3635 C 346.785 2.23694 0.706982 0
M  V30 3636 C 347.801 1.24295 1.21765 0
M  V30 3637 O 348.977 1.57094 1.2603 0
M  V30 3638 C 346.042 2.8998 1.90033 0
M  V30 3639 C 345.103 4.04708 1.43213 0
M  V30 3640 C 344.336 4.67824 2.56859 0
M  V30 3641 O 344.559 4.29913 3.74874 0
M  V30 3642 O 343.493 5.56905 2.28343 0
M  V30 3643 H 347.319 3.03272 0.161235 0
M  V30 3644 H 344.904 1.49394 0.0136177 0
M  V30 3645 H 346.786 3.31837 2.59735 0
M  V30 3646 H 345.461 2.13365 2.43428 0
M  V30 3647 H 344.368 3.6743 0.70327 0
M  V30 3648 H 345.701 4.83051 0.944615 0
M  V30 3649 N 347.353 -0.0568162 1.57498 0
M  V30 3650 C 348.764 -0.606858 1.76562 0
M  V30 3651 C 349.115 -1.77114 0.844094 0
M  V30 3652 O 348.24 -2.16376 0.0318911 0
M  V30 3653 C 348.835 -1.10766 3.20182 0
M  V30 3654 C 347.394 -1.60344 3.40539 0
M  V30 3655 C 346.541 -0.529311 2.72201 0
M  V30 3656 H 349.492 0.169393 1.57793 0
M  V30 3657 H 349.513 -1.97602 3.25167 0
M  V30 3658 H 349.025 -0.26006 3.87228 0
M  V30 3659 H 347.126 -2.47379 2.78629 0
M  V30 3660 H 347.239 -1.67006 4.4905 0
M  V30 3661 H 345.603 -0.977893 2.35179 0
M  V30 3662 H 346.386 0.308352 3.41912 0
M  V30 3663 N 348.832 -1.54138 -0.328536 0
M  V30 3664 C 350.057 -1.76378 -1.09112 0
M  V30 3665 C 350.482 -0.508596 -1.81094 0
M  V30 3666 O 349.84 0.539598 -1.73084 0
M  V30 3667 C 349.888 -2.95358 -2.06872 0
M  V30 3668 O 348.992 -2.66556 -3.14677 0
M  V30 3669 H 348.333 -0.584614 -0.314838 0
M  V30 3670 H 350.863 -2.01146 -0.374348 0
M  V30 3671 H 350.873 -3.22566 -2.4983 0
M  V30 3672 H 349.548 -3.86385 -1.5388 0
M  V30 3673 H 348.125 -2.50282 -2.7643 0
M  V30 3674 N 350.31 0.590341 -1.46126 0
M  V30 3675 C 351.273 1.68194 -1.55703 0
M  V30 3676 C 352.273 1.54808 -0.434868 0
M  V30 3677 O 353.463 1.59564 -0.698928 0
M  V30 3678 C 350.595 3.07575 -1.47005 0
M  V30 3679 H 351.788 1.61064 -2.52979 0
M  V30 3680 H 349.341 0.807541 -1.33823 0
M  V30 3681 H 350.076 3.20268 -0.509785 0
M  V30 3682 H 349.861 3.187 -2.28414 0
M  V30 3683 H 351.351 3.87055 -1.56776 0
M  V30 3684 N 351.788 1.33704 0.83433 0
M  V30 3685 C 353.036 1.25169 1.58673 0
M  V30 3686 C 353.357 -0.18127 1.94156 0
M  V30 3687 O 352.627 -1.11113 1.6134 0
M  V30 3688 H 351.207 0.4603 0.58833 0
M  V30 3689 H 353.869 1.67478 0.996847 0
M  V30 3690 H 352.965 1.84856 2.51465 0
M  V30 3691 N 353.266 -1.05314 1.17247 0
M  V30 3692 C 354.196 -2.1498 0.911362 0
M  V30 3693 C 355.177 -1.69471 -0.146169 0
M  V30 3694 O 356.362 -1.942 0.003812 0
M  V30 3695 C 353.492 -3.4472 0.422528 0
M  V30 3696 C 352.446 -4.03789 1.4191 0
M  V30 3697 C 351.772 -5.28858 0.788274 0
M  V30 3698 C 353.072 -4.41418 2.7919 0
M  V30 3699 H 354.766 -2.3708 1.82848 0
M  V30 3700 H 352.312 -1.13938 0.880569 0
M  V30 3701 H 354.265 -4.20787 0.227289 0
M  V30 3702 H 352.989 -3.22269 -0.530123 0
M  V30 3703 H 351.648 -3.2979 1.60106 0
M  V30 3704 H 351.296 -5.02709 -0.171173 0
M  V30 3705 H 350.996 -5.69338 1.45353 0
M  V30 3706 H 352.52 -6.07612 0.603282 0
M  V30 3707 H 353.934 -5.08524 2.64719 0
M  V30 3708 H 352.331 -4.92913 3.42282 0
M  V30 3709 H 353.401 -3.51819 3.33693 0
M  V30 3710 N 354.744 -0.972509 -1.24016 0
M  V30 3711 C 355.674 -0.525548 -2.27509 0
M  V30 3712 C 356.655 0.437262 -1.64384 0
M  V30 3713 O 357.84 0.332343 -1.91335 0
M  V30 3714 C 354.97 0.180448 -3.46831 0
M  V30 3715 C 353.924 -0.698859 -4.22256 0
M  V30 3716 C 353.25 0.138903 -5.3452 0
M  V30 3717 C 354.55 -1.98582 -4.83076 0
M  V30 3718 H 356.244 -1.39058 -2.65148 0
M  V30 3719 H 353.79 -0.67009 -1.27459 0
M  V30 3720 H 355.743 0.504387 -4.18371 0
M  V30 3721 H 354.467 1.07987 -3.08231 0
M  V30 3722 H 353.126 -1.00614 -3.52523 0
M  V30 3723 H 352.774 1.03862 -4.9216 0
M  V30 3724 H 352.474 -0.446259 -5.85903 0
M  V30 3725 H 353.998 0.457404 -6.08884 0
M  V30 3726 H 355.412 -1.72715 -5.46665 0
M  V30 3727 H 353.809 -2.5181 -5.44713 0
M  V30 3728 H 354.879 -2.67769 -4.04262 0
M  V30 3729 N 356.222 1.38976 -0.743202 0
M  V30 3730 C 357.447 2.05161 -0.303936 0
M  V30 3731 C 357.872 1.55677 1.05576 0
M  V30 3732 O 357.23 0.704131 1.67068 0
M  V30 3733 C 357.278 3.59138 -0.324373 0
M  V30 3734 O 356.382 4.06668 0.685204 0
M  V30 3735 H 355.723 0.649815 -0.136518 0
M  V30 3736 H 358.253 1.77852 -1.01142 0
M  V30 3737 H 358.263 4.07639 -0.171618 0
M  V30 3738 H 356.938 3.94515 -1.31647 0
M  V30 3739 H 355.515 3.69561 0.497913 0
M  V30 3740 N 357.7 0.491464 1.49741 0
M  V30 3741 C 358.948 -0.0563141 2.02022 0
M  V30 3742 C 359.269 -1.38363 1.37407 0
M  V30 3743 O 358.539 -1.88702 0.526166 0
M  V30 3744 H 357.119 -0.0238014 0.746621 0
M  V30 3745 H 359.781 0.646533 1.83864 0
M  V30 3746 H 358.877 -0.192967 3.11503 0
M  V30 3747 N 359.178 -1.55987 0.224894 0
M  V30 3748 C 360.408 -2.02489 -0.41007 0
M  V30 3749 C 360.816 -1.10391 -1.53657 0
M  V30 3750 O 360.159 -0.106458 -1.83391 0
M  V30 3751 C 360.221 -3.45319 -0.999757 0
M  V30 3752 C 359.885 -4.56999 -0.00827976 0
M  V30 3753 C 360.882 -5.13812 0.793314 0
M  V30 3754 C 358.567 -5.02176 0.111442 0
M  V30 3755 C 360.561 -6.14276 1.7013 0
M  V30 3756 C 358.248 -6.02477 1.02296 0
M  V30 3757 C 359.246 -6.58403 1.81643 0
M  V30 3758 O 358.934 -7.56751 2.71262 0
M  V30 3759 H 358.666 -0.667915 -0.104235 0
M  V30 3760 H 361.22 -2.0257 0.339782 0
M  V30 3761 H 359.45 -3.42318 -1.79876 0
M  V30 3762 H 361.139 -3.7545 -1.54248 0
M  V30 3763 H 361.905 -4.79756 0.711288 0
M  V30 3764 H 357.784 -4.58323 -0.49605 0
M  V30 3765 H 361.328 -6.57854 2.32107 0
M  V30 3766 H 357.225 -6.35954 1.10599 0
M  V30 3767 H 357.993 -7.74286 2.65375 0
M  V30 3768 N 360.656 0.0484629 -1.57525 0
M  V30 3769 C 362.067 0.597486 -1.76881 0
M  V30 3770 C 362.418 1.76664 -0.853475 0
M  V30 3771 O 361.543 2.16357 -0.0433656 0
M  V30 3772 C 362.138 1.09066 -3.20765 0
M  V30 3773 C 360.697 1.58535 -3.41385 0
M  V30 3774 C 359.844 0.514868 -2.72478 0
M  V30 3775 H 362.795 -0.177758 -1.57701 0
M  V30 3776 H 362.816 1.95875 -3.2621 0
M  V30 3777 H 362.328 0.239521 -3.8736 0
M  V30 3778 H 360.429 2.45898 -2.79937 0
M  V30 3779 H 360.542 1.64622 -4.49929 0
M  V30 3780 H 358.906 0.965407 -2.35695 0
M  V30 3781 H 359.689 -0.32648 -3.41744 0
M  V30 3782 N 362.134 1.5431 0.320358 0
M  V30 3783 C 363.381 1.72668 1.05792 0
M  V30 3784 C 363.709 0.502084 1.87908 0
M  V30 3785 O 362.964 -0.516149 1.88771 0
M  V30 3786 C 363.263 2.95639 2.00828 0
M  V30 3787 C 362.929 4.30265 1.34843 0
M  V30 3788 C 361.591 4.66865 1.16578 0
M  V30 3789 C 363.943 5.13801 0.875095 0
M  V30 3790 C 361.271 5.84597 0.496336 0
M  V30 3791 C 363.623 6.32219 0.219463 0
M  V30 3792 C 362.287 6.67495 0.0246915 0
M  V30 3793 H 361.557 0.631837 0.387121 0
M  V30 3794 H 364.204 1.88552 0.334735 0
M  V30 3795 H 362.509 2.74456 2.79609 0
M  V30 3796 H 364.206 3.07038 2.57932 0
M  V30 3797 H 360.796 4.01472 1.50061 0
M  V30 3798 H 364.98 4.86039 1.00398 0
M  V30 3799 H 360.236 6.10486 0.334264 0
M  V30 3800 H 364.41 6.96227 -0.155291 0
M  V30 3801 H 362.037 7.5858 -0.496065 0
M  V30 3802 N 363.613 -0.582584 1.46437 0
M  V30 3803 C 364.545 -1.70618 1.53043 0
M  V30 3804 C 365.558 -1.57322 0.418769 0
M  V30 3805 O 366.747 -1.64744 0.687136 0
M  V30 3806 C 363.847 -3.08869 1.39474 0
M  V30 3807 C 363.02 -3.48166 2.64762 0
M  V30 3808 C 362.079 -4.65478 2.4539 0
M  V30 3809 O 361.105 -4.71333 3.19114 0
M  V30 3810 N 362.307 -5.60365 1.51564 0
M  V30 3811 H 365.072 -1.65405 2.49923 0
M  V30 3812 H 362.633 -0.768567 1.42494 0
M  V30 3813 H 364.625 -3.85143 1.24287 0
M  V30 3814 H 363.195 -3.08449 0.507758 0
M  V30 3815 H 362.415 -2.61598 2.9489 0
M  V30 3816 H 363.703 -3.71188 3.4799 0
M  V30 3817 H 363.101 -5.5837 0.907705 0
M  V30 3818 H 361.658 -6.36068 1.4234 0
M  V30 3819 N 365.091 -1.34144 -0.827227 0
M  V30 3820 C 366.331 -1.27603 -1.59677 0
M  V30 3821 C 366.695 0.153035 -1.91389 0
M  V30 3822 O 367.896 0.342566 -2.66608 0
M  V30 3823 C 366.167 -2.13784 -2.86411 0
M  V30 3824 S 367.726 -2.24552 -3.76991 0
M  V30 3825 H 364.544 -0.453789 -0.547354 0
M  V30 3826 H 367.146 -1.69309 -0.977479 0
M  V30 3827 H 365.85 -3.16627 -2.61104 0
M  V30 3828 H 365.381 -1.72959 -3.5334 0
M  V30 3829 H 367.396 -1.41514 -4.75593 0
M  V30 3830 N 366.569 1.04691 -1.17803 0
M  V30 3831 C 367.499 2.14494 -0.92275 0
M  V30 3832 C 368.48 1.69546 0.137179 0
M  V30 3833 O 369.665 1.94195 -0.0141108 0
M  V30 3834 C 366.795 3.44491 -0.440803 0
M  V30 3835 C 365.749 4.03031 -1.4405 0
M  V30 3836 C 365.075 5.28432 -0.81631 0
M  V30 3837 C 366.375 4.39932 -2.81527 0
M  V30 3838 H 368.069 2.36107 -1.84103 0
M  V30 3839 H 365.615 1.1347 -0.886599 0
M  V30 3840 H 367.568 4.2066 -0.249602 0
M  V30 3841 H 366.292 3.22546 0.513025 0
M  V30 3842 H 364.951 3.28937 -1.61853 0
M  V30 3843 H 364.599 5.02792 0.144511 0
M  V30 3844 H 364.299 5.68559 -1.48371 0
M  V30 3845 H 365.823 6.07284 -0.635496 0
M  V30 3846 H 367.237 5.07113 -2.67412 0
M  V30 3847 H 365.634 4.9109 -3.44892 0
M  V30 3848 H 366.704 3.50045 -3.35554 0
M  V30 3849 N 368.047 0.979072 1.23499 0
M  V30 3850 C 369.295 0.645941 1.91499 0
M  V30 3851 C 369.616 -0.822948 1.76784 0
M  V30 3852 O 368.886 -1.58854 1.14639 0
M  V30 3853 H 367.466 0.235919 0.708767 0
M  V30 3854 H 370.128 1.2426 1.50152 0
M  V30 3855 H 369.224 0.896411 2.9895 0
M  V30 3856 N 369.525 -1.3858 0.750561 0
M  V30 3857 C 370.772 -2.00184 0.305373 0
M  V30 3858 C 371.1 -1.59575 -1.11203 0
M  V30 3859 O 370.355 -0.823236 -1.77542 0
M  V30 3860 C 370.654 -3.55455 0.372373 0
M  V30 3861 C 370.32 -4.15765 1.745 0
M  V30 3862 C 368.982 -4.31951 2.12065 0
M  V30 3863 C 371.334 -4.49067 2.64553 0
M  V30 3864 C 368.662 -4.78734 3.39162 0
M  V30 3865 C 371.014 -4.97265 3.91038 0
M  V30 3866 C 369.678 -5.11658 4.28676 0
M  V30 3867 H 368.948 -0.732526 0.111744 0
M  V30 3868 H 371.595 -1.65673 0.960451 0
M  V30 3869 H 369.9 -3.90084 -0.366272 0
M  V30 3870 H 371.597 -4.00999 0.00953918 0
M  V30 3871 H 368.187 -4.03579 1.44297 0
M  V30 3872 H 372.371 -4.36166 2.36796 0
M  V30 3873 H 367.627 -4.88062 3.68246 0
M  V30 3874 H 371.801 -5.22003 4.60962 0
M  V30 3875 H 369.428 -5.47668 5.27222 0
M  V30 3876 N 371.003 -0.499398 -1.49478 0
M  V30 3877 C 372.231 0.0425456 -2.06856 0
M  V30 3878 C 372.646 1.30964 -1.35992 0
M  V30 3879 O 372.003 1.77172 -0.437762 0
M  V30 3880 C 372.054 0.301735 -3.60239 0
M  V30 3881 O 371.775 -0.915127 -4.28436 0
M  V30 3882 C 373.276 0.887499 -4.34325 0
M  V30 3883 H 370.496 -0.0197482 -0.670709 0
M  V30 3884 H 373.04 -0.696297 -1.92281 0
M  V30 3885 H 371.195 0.990556 -3.74522 0
M  V30 3886 H 371.609 -0.676993 -5.20113 0
M  V30 3887 H 373.083 1.01845 -5.42523 0
M  V30 3888 H 373.56 1.88488 -3.96698 0
M  V30 3889 H 374.166 0.236196 -4.24644 0
M  V30 3890 N 372.481 1.55866 -0.233164 0
M  V30 3891 C 373.892 1.847 0.272554 0
M  V30 3892 C 374.243 1.15477 1.58617 0
M  V30 3893 O 373.368 0.42841 2.12117 0
M  V30 3894 C 373.963 3.35071 0.501299 0
M  V30 3895 C 372.522 3.6418 0.951304 0
M  V30 3896 C 371.669 2.77292 0.0208209 0
M  V30 3897 H 374.62 1.52005 -0.456074 0
M  V30 3898 H 374.641 3.55906 1.34577 0
M  V30 3899 H 374.153 3.85424 -0.454936 0
M  V30 3900 H 372.254 3.19293 1.92049 0
M  V30 3901 H 372.367 4.72071 0.817675 0
M  V30 3902 H 370.731 2.49131 0.529723 0
M  V30 3903 H 371.514 3.30448 -0.93054 0
M  V30 3904 N 373.959 -0.0401083 1.57549 0
M  V30 3905 C 374.869 -1.06133 2.0922 0
M  V30 3906 C 375.885 -1.40356 1.0284 0
M  V30 3907 O 377.061 -1.49897 1.34509 0
M  V30 3908 C 374.126 -2.34658 2.55218 0
M  V30 3909 C 373.187 -2.07117 3.76033 0
M  V30 3910 C 372.42 -3.29514 4.19829 0
M  V30 3911 O 372.643 -4.39794 3.63232 0
M  V30 3912 O 371.577 -3.15863 5.12362 0
M  V30 3913 H 375.403 -0.652244 2.96613 0
M  V30 3914 H 372.988 -0.256368 1.47184 0
M  V30 3915 H 374.87 -3.10239 2.85184 0
M  V30 3916 H 373.545 -2.74883 1.70941 0
M  V30 3917 H 372.452 -1.29139 3.51104 0
M  V30 3918 H 373.785 -1.71754 4.61261 0
M  V30 3919 N 375.437 -1.54477 -0.31217 0
M  V30 3920 C 376.387 -1.81037 -1.38598 0
M  V30 3921 C 377.371 -0.666941 -1.46426 0
M  V30 3922 O 378.563 -0.927269 -1.50767 0
M  V30 3923 C 375.692 -2.05127 -2.75277 0
M  V30 3924 C 374.778 -3.25624 -2.71716 0
M  V30 3925 N 375.169 -4.46428 -2.37773 0
M  V30 3926 C 373.467 -3.27427 -3.02833 0
M  V30 3927 C 374.168 -5.28406 -2.43232 0
M  V30 3928 N 373.144 -4.6586 -2.80135 0
M  V30 3929 H 376.946 -2.7201 -1.11301 0
M  V30 3930 H 374.46 -1.53826 -0.520705 0
M  V30 3931 H 376.457 -2.22299 -3.52688 0
M  V30 3932 H 375.117 -1.15416 -3.03495 0
M  V30 3933 H 376.128 -4.73227 -2.1042 0
M  V30 3934 H 372.805 -2.47786 -3.36018 0
M  V30 3935 H 374.195 -6.34903 -2.19882 0
M  V30 3936 N 376.915 0.57481 -1.46744 0
M  V30 3937 C 377.847 1.69804 -1.53946 0
M  V30 3938 C 378.86 1.57098 -0.427106 0
M  V30 3939 O 380.049 1.64378 -0.695863 0
M  V30 3940 C 377.149 3.08125 -1.4111 0
M  V30 3941 C 376.322 3.46757 -2.66605 0
M  V30 3942 C 375.381 4.6417 -2.47855 0
M  V30 3943 O 374.407 4.69634 -3.21609 0
M  V30 3944 N 375.609 5.59553 -1.54534 0
M  V30 3945 H 378.374 1.64077 -2.50796 0
M  V30 3946 H 375.935 0.761 -1.429 0
M  V30 3947 H 377.927 3.84478 -1.26328 0
M  V30 3948 H 376.497 3.08175 -0.524109 0
M  V30 3949 H 375.717 2.6003 -2.96274 0
M  V30 3950 H 377.005 3.69337 -3.49954 0
M  V30 3951 H 376.403 5.57881 -0.937304 0
M  V30 3952 H 374.96 6.35304 -1.45711 0
M  V30 3953 N 378.394 1.34581 0.820102 0
M  V30 3954 C 379.81 1.14325 1.11364 0
M  V30 3955 C 380.01 -0.0533648 2.01429 0
M  V30 3956 O 379.066 -0.728044 2.41776 0
M  V30 3957 C 380.379 2.43983 1.75764 0
M  V30 3958 C 381.927 2.50065 1.88246 0
M  V30 3959 C 382.402 3.79732 2.56061 0
M  V30 3960 N 383.893 3.80908 2.63558 0
M  V30 3961 C 384.628 4.77961 3.16766 0
M  V30 3962 N 384.124 5.85397 3.70517 0
M  V30 3963 N 385.917 4.65413 3.15194 0
M  V30 3964 H 378.068 2.11246 0.221096 0
M  V30 3965 H 380.331 0.934289 0.160649 0
M  V30 3966 H 380.037 3.31651 1.1705 0
M  V30 3967 H 379.911 2.57531 2.75604 0
M  V30 3968 H 382.298 1.62834 2.46108 0
M  V30 3969 H 382.379 2.40442 0.873006 0
M  V30 3970 H 382.023 4.67354 1.98853 0
M  V30 3971 H 381.953 3.86639 3.57516 0
M  V30 3972 H 384.444 3.03274 2.25463 0
M  V30 3973 H 384.757 6.55463 4.09376 0
M  V30 3974 H 383.102 5.89107 3.68752 0
M  V30 3975 H 386.293 3.80627 2.72471 0
M  V30 3976 H 386.466 5.41216 3.56356 0
M  V30 3977 N 379.872 -1.04064 1.18357 0
M  V30 3978 C 381.149 -1.74252 0.888581 0
M  V30 3979 C 381.529 -2.02138 -0.60856 0
M  V30 3980 O 380.877 -1.66656 -1.56327 0
M  V30 3981 C 381.087 -3.0277 1.73584 0
M  V30 3982 C 382.435 -3.76506 1.96286 0
M  V30 3983 O 383.459 -3.12668 1.70637 0
M  V30 3984 O 382.318 -4.91243 2.39464 0
M  V30 3985 H 379.412 -0.758271 0.330082 0
M  V30 3986 H 381.958 -1.1013 1.2911 0
M  V30 3987 H 380.73 -2.78299 2.75073 0
M  V30 3988 H 380.353 -3.74631 1.33183 0
M  V30 3989 N 381.35 -0.985608 -1.22978 0
M  V30 3990 C 382.597 -0.657386 -1.91532 0
M  V30 3991 C 382.925 0.809707 -1.76845 0
M  V30 3992 O 382.18 1.60021 -1.12658 0
M  V30 3993 C 382.479 -1.00014 -3.43121 0
M  V30 3994 C 382.145 -2.4583 -3.77993 0
M  V30 3995 C 380.807 -2.85679 -3.87222 0
M  V30 3996 C 383.159 -3.40378 -3.94705 0
M  V30 3997 C 380.487 -4.19081 -4.10595 0
M  V30 3998 C 382.839 -4.73429 -4.1958 0
M  V30 3999 C 381.503 -5.1303 -4.27032 0
M  V30 4000 H 380.773 -0.240555 -0.700867 0
M  V30 4001 H 383.42 -1.24044 -1.45895 0
M  V30 4002 H 381.725 -0.335072 -3.90365 0
M  V30 4003 H 383.422 -0.724322 -3.94404 0
M  V30 4004 H 380.012 -2.13939 -3.71387 0
M  V30 4005 H 384.196 -3.10766 -3.8696 0
M  V30 4006 H 379.452 -4.49362 -4.14589 0
M  V30 4007 H 383.626 -5.46644 -4.31455 0
M  V30 4008 H 381.253 -6.16418 -4.44896 0
M  V30 4009 N 382.828 1.3818 -0.7579 0
M  V30 4010 C 384.077 1.99261 -0.312744 0
M  V30 4011 C 384.39 1.60846 1.11301 0
M  V30 4012 O 385.596 2.14929 1.65885 0
M  V30 4013 C 384.052 3.56294 -0.50821 0
M  V30 4014 C 383.66 4.03657 -1.94333 0
M  V30 4015 C 385.404 4.24313 -0.125982 0
M  V30 4016 C 383.311 5.53347 -2.08712 0
M  V30 4017 H 382.241 0.745456 -0.113185 0
M  V30 4018 H 384.892 1.57889 -0.935056 0
M  V30 4019 H 383.274 3.95575 0.183353 0
M  V30 4020 H 384.448 3.75655 -2.66871 0
M  V30 4021 H 382.763 3.48376 -2.28086 0
M  V30 4022 H 385.36 5.34279 -0.212125 0
M  V30 4023 H 385.703 4.05962 0.921964 0
M  V30 4024 H 386.236 3.90285 -0.769563 0
M  V30 4025 H 382.975 5.76607 -3.11777 0
M  V30 4026 H 382.495 5.83078 -1.4064 0
M  V30 4027 H 384.174 6.19111 -1.87912 0
M  V30 4028 N 384.306 0.507319 1.49211 0
M  V30 4029 C 385.269 -0.256763 2.27757 0
M  V30 4030 C 386.269 -0.888287 1.34038 0
M  V30 4031 O 387.459 -0.751841 1.5714 0
M  V30 4032 C 384.591 -1.36905 3.12202 0
M  V30 4033 H 385.784 0.432557 2.96764 0
M  V30 4034 H 383.337 0.262488 1.5408 0
M  V30 4035 H 384.072 -2.09233 2.47775 0
M  V30 4036 H 383.857 -0.921599 3.81115 0
M  V30 4037 H 385.347 -1.9071 3.7151 0
M  V30 4038 N 385.784 -1.5574 0.241426 0
M  V30 4039 C 387.2 -1.59196 -0.113548 0
M  V30 4040 C 387.4 -1.25852 -1.57364 0
M  V30 4041 O 386.456 -1.00322 -2.31715 0
M  V30 4042 C 387.769 -2.99814 0.230695 0
M  V30 4043 C 389.317 -3.12513 0.174547 0
M  V30 4044 C 389.792 -4.55342 0.492744 0
M  V30 4045 N 391.283 -4.61076 0.443043 0
M  V30 4046 C 392.018 -5.6956 0.662484 0
M  V30 4047 N 391.514 -6.86328 0.944761 0
M  V30 4048 N 393.307 -5.58957 0.593564 0
M  V30 4049 H 385.458 -1.75685 1.19368 0
M  V30 4050 H 387.721 -0.81756 0.479896 0
M  V30 4051 H 387.427 -3.28932 1.24485 0
M  V30 4052 H 387.301 -3.74568 -0.444833 0
M  V30 4053 H 389.688 -2.83179 -0.830277 0
M  V30 4054 H 389.769 -2.40045 0.883845 0
M  V30 4055 H 389.413 -4.85396 1.4951 0
M  V30 4056 H 389.343 -5.26062 -0.23797 0
M  V30 4057 H 391.834 -3.77179 0.233374 0
M  V30 4058 H 392.147 -7.64935 1.09977 0
M  V30 4059 H 390.492 -6.88025 0.982175 0
M  V30 4060 H 393.683 -4.66611 0.373123 0
M  V30 4061 H 393.856 -6.43433 0.767981 0
M  V30 4062 N 387.262 0.0317525 -1.57568 0
M  V30 4063 C 388.539 0.758366 -1.803 0
M  V30 4064 C 388.919 1.93718 -0.838845 0
M  V30 4065 O 388.267 2.28187 0.119571 0
M  V30 4066 C 388.477 1.19392 -3.27943 0
M  V30 4067 C 389.825 1.61094 -3.92854 0
M  V30 4068 O 390.849 1.28857 -3.32076 0
M  V30 4069 O 389.708 2.20918 -4.99858 0
M  V30 4070 H 386.802 0.366514 -0.741348 0
M  V30 4071 H 389.348 0.00873765 -1.69698 0
M  V30 4072 H 388.12 0.352275 -3.89711 0
M  V30 4073 H 387.743 2.00365 -3.43424 0
M  V30 4074 N 388.74 1.54641 0.303973 0
M  V30 4075 C 389.67 1.88386 1.3796 0
M  V30 4076 C 390.651 0.742485 1.5304 0
M  V30 4077 O 391.836 0.997959 1.66597 0
M  V30 4078 C 388.966 2.12854 2.74427 0
M  V30 4079 C 387.92 3.28702 2.74115 0
M  V30 4080 C 387.246 3.38582 4.13844 0
M  V30 4081 C 388.546 4.65881 2.3612 0
M  V30 4082 H 390.24 2.78474 1.09966 0
M  V30 4083 H 387.786 1.33988 0.527556 0
M  V30 4084 H 389.739 2.35047 3.49758 0
M  V30 4085 H 388.463 1.19535 3.03939 0
M  V30 4086 H 387.122 3.06428 2.0124 0
M  V30 4087 H 386.77 2.42784 4.40528 0
M  V30 4088 H 386.47 4.16453 4.14537 0
M  V30 4089 H 387.994 3.63031 4.90959 0
M  V30 4090 H 389.408 4.87823 3.01167 0
M  V30 4091 H 387.805 5.46444 2.48031 0
M  V30 4092 H 388.875 4.66799 1.3125 0
M  V30 4093 N 390.218 -0.567019 1.47046 0
M  V30 4094 C 391.466 -1.322 1.52864 0
M  V30 4095 C 391.787 -1.94088 0.188388 0
M  V30 4096 O 391.057 -1.7941 -0.786693 0
M  V30 4097 H 389.637 -0.490894 0.563056 0
M  V30 4098 H 392.299 -0.662879 1.83281 0
M  V30 4099 H 391.395 -2.12062 2.2899 0
M  V30 4100 N 391.696 -1.35014 -0.812953 0
M  V30 4101 C 393.107 -1.25035 -1.38648 0
M  V30 4102 C 393.458 0.119967 -1.95833 0
M  V30 4103 O 392.583 1.02069 -1.90816 0
M  V30 4104 C 393.178 -2.26394 -2.52054 0
M  V30 4105 C 391.737 -2.20175 -3.05287 0
M  V30 4106 C 390.884 -2.12451 -1.78213 0
M  V30 4107 H 393.835 -1.46235 -0.616516 0
M  V30 4108 H 393.856 -1.88672 -3.30429 0
M  V30 4109 H 393.368 -3.26116 -2.10404 0
M  V30 4110 H 391.469 -1.23841 -3.51417 0
M  V30 4111 H 391.582 -3.11863 -3.63701 0
M  V30 4112 H 389.946 -1.58328 -1.9951 0
M  V30 4113 H 390.729 -3.14024 -1.38723 0
M  V30 4114 N 393.175 1.03435 -1.18907 0
M  V30 4115 C 394.403 1.80381 -1.01342 0
M  V30 4116 C 394.818 1.83649 0.438005 0
M  V30 4117 O 394.175 1.27655 1.30424 0
M  V30 4118 C 394.226 3.25689 -1.56873 0
M  V30 4119 O 393.947 3.22673 -2.96334 0
M  V30 4120 C 395.448 4.19255 -1.44014 0
M  V30 4121 H 392.668 0.56784 -0.35749 0
M  V30 4122 H 395.212 1.30317 -1.576 0
M  V30 4123 H 393.367 3.72962 -1.04777 0
M  V30 4124 H 393.781 4.13748 -3.22355 0
M  V30 4125 H 395.255 5.19123 -1.87657 0
M  V30 4126 H 395.732 4.37467 -0.389815 0
M  V30 4127 H 396.338 3.77851 -1.95214 0
M  V30 4128 N 394.653 0.992116 1.22453 0
M  V30 4129 C 395.583 0.561677 2.26644 0
M  V30 4130 C 396.564 -0.411055 1.65059 0
M  V30 4131 O 397.749 -0.301861 1.9184 0
M  V30 4132 C 394.879 -0.125247 3.47074 0
M  V30 4133 C 393.833 0.765948 4.21091 0
M  V30 4134 C 393.159 -0.0538484 5.34673 0
M  V30 4135 C 394.459 2.06242 4.79856 0
M  V30 4136 H 396.153 1.43259 2.62902 0
M  V30 4137 H 393.699 0.690283 1.26377 0
M  V30 4138 H 395.652 -0.437764 4.1912 0
M  V30 4139 H 394.376 -1.03069 3.0991 0
M  V30 4140 H 393.035 1.0621 3.50878 0
M  V30 4141 H 392.683 -0.960188 4.9375 0
M  V30 4142 H 392.383 0.539415 5.85119 0
M  V30 4143 H 393.907 -0.360477 6.09535 0
M  V30 4144 H 395.321 1.8139 5.43848 0
M  V30 4145 H 393.718 2.60444 5.40638 0
M  V30 4146 H 394.788 2.74167 3.99951 0
M  V30 4147 N 396.131 -1.37776 0.765217 0
M  V30 4148 C 397.094 -2.28686 0.153416 0
M  V30 4149 C 398.094 -1.47727 -0.635081 0
M  V30 4150 O 399.284 -1.68027 -0.459632 0
M  V30 4151 C 396.416 -3.31608 -0.790495 0
M  V30 4152 H 397.609 -2.84297 0.954723 0
M  V30 4153 H 395.162 -1.46932 0.53299 0
M  V30 4154 H 395.897 -2.81109 -1.61705 0
M  V30 4155 H 395.682 -3.9144 -0.227348 0
M  V30 4156 H 397.172 -3.99559 -1.21419 0
M  V30 4157 N 397.609 -0.515225 -1.4894 0
M  V30 4158 C 398.557 0.269115 -2.31038 0
M  V30 4159 C 399.551 0.949443 -1.40292 0
M  V30 4160 O 400.757 0.87551 -1.57273 0
M  V30 4161 H 397.132 0.10565 -0.744542 0
M  V30 4162 H 399.103 -0.443096 -2.95092 0
M  V30 4163 C 397.852 1.31213 -3.21991 0
M  V30 4164 H 397.175 0.798034 -3.91754 0
M  V30 4165 H 398.615 1.83263 -3.82349 0
M  V30 4166 C 397.074 2.33791 -2.42576 0
M  V30 4167 O 397.604 3.3995 -2.14003 0
M  V30 4168 N 395.81 2.06625 -2.0434 0
M  V30 4169 H 395.357 1.20314 -2.27777 0
M  V30 4170 H 395.315 2.75483 -1.51514 0
M  V30 4171 N 399.087 1.5561 -0.249682 0
M  V30 4172 C 400.312 2.03865 0.381305 0
M  V30 4173 C 400.737 1.12769 1.50548 0
M  V30 4174 O 400.095 0.121189 1.80895 0
M  V30 4175 C 400.143 3.50101 0.863816 0
M  V30 4176 O 399.247 3.62132 1.97318 0
M  V30 4177 H 398.588 0.658827 0.0827194 0
M  V30 4178 H 401.118 2.01105 -0.376552 0
M  V30 4179 H 401.128 3.90975 1.1663 0
M  V30 4180 H 399.803 4.1588 0.0411816 0
M  V30 4181 H 398.38 3.33155 1.67517 0
M  V30 4182 N 400.565 -0.0233959 1.57583 0
M  V30 4183 C 401.793 -0.724682 1.93794 0
M  V30 4184 C 402.208 -1.68588 0.849912 0
M  V30 4185 O 401.565 -1.81676 -0.173204 0
M  V30 4186 C 401.616 -1.47684 3.29957 0
M  V30 4187 O 401.337 -0.554222 4.3458 0
M  V30 4188 C 402.838 -2.27477 3.80485 0
M  V30 4189 H 400.058 -0.203317 0.639455 0
M  V30 4190 H 402.602 0.0207653 2.04489 0
M  V30 4191 H 400.757 -2.17412 3.20641 0
M  V30 4192 H 401.171 -1.08232 5.13212 0
M  V30 4193 H 402.645 -2.7564 4.78254 0
M  V30 4194 H 403.122 -3.09144 3.11972 0
M  V30 4195 H 403.728 -1.62813 3.92902 0
M  V30 4196 N 402.043 -1.548 -0.295768 0
M  V30 4197 C 402.993 -1.82497 -1.3667 0
M  V30 4198 C 403.977 -0.682434 -1.45711 0
M  V30 4199 O 405.169 -0.943207 -1.49775 0
M  V30 4200 C 402.298 -2.08036 -2.73086 0
M  V30 4201 C 401.384 -3.28488 -2.68247 0
M  V30 4202 N 401.775 -4.48924 -2.33025 0
M  V30 4203 C 400.073 -3.3062 -2.99343 0
M  V30 4204 C 400.774 -5.30956 -2.37613 0
M  V30 4205 N 399.75 -4.68805 -2.75178 0
M  V30 4206 H 403.552 -2.73175 -1.0841 0
M  V30 4207 H 401.066 -1.5437 -0.504361 0
M  V30 4208 H 403.063 -2.26027 -3.5031 0
M  V30 4209 H 401.723 -1.18629 -3.02254 0
M  V30 4210 H 402.734 -4.75432 -2.05389 0
M  V30 4211 H 399.411 -2.51336 -3.33371 0
M  V30 4212 H 400.801 -6.37199 -2.13135 0
M  V30 4213 N 403.521 0.559213 -1.47345 0
M  V30 4214 C 404.471 1.66192 -1.5609 0
M  V30 4215 C 405.455 1.55323 -0.419957 0
M  V30 4216 O 406.647 1.63839 -0.669762 0
M  V30 4217 C 403.776 3.0497 -1.57634 0
M  V30 4218 C 402.862 3.2105 -2.77106 0
M  V30 4219 N 403.253 3.07203 -4.01821 0
M  V30 4220 C 401.551 3.52046 -2.73825 0
M  V30 4221 C 402.252 3.25919 -4.81821 0
M  V30 4222 N 401.228 3.52161 -4.14106 0
M  V30 4223 H 405.03 1.54052 -2.5029 0
M  V30 4224 H 402.544 0.763914 -1.43311 0
M  V30 4225 H 404.541 3.84142 -1.61989 0
M  V30 4226 H 403.201 3.18224 -0.645281 0
M  V30 4227 H 404.212 2.84572 -4.32711 0
M  V30 4228 H 400.889 3.71839 -1.89848 0
M  V30 4229 H 402.279 3.20198 -5.90697 0
M  V30 4230 N 404.999 1.35443 0.805782 0
M  V30 4231 C 405.947 1.28465 1.93906 0
M  V30 4232 C 406.941 0.17943 1.68447 0
M  V30 4233 O 408.147 0.345459 1.76654 0
M  V30 4234 H 404.522 0.399528 0.637088 0
M  V30 4235 H 406.493 2.24206 1.96912 0
M  V30 4236 C 405.242 1.07432 3.30687 0
M  V30 4237 H 404.565 1.91716 3.50835 0
M  V30 4238 H 406.005 1.06591 4.10383 0
M  V30 4239 C 404.464 -0.22179 3.36169 0
M  V30 4240 O 404.994 -1.21731 3.82811 0
M  V30 4241 N 403.2 -0.260841 2.89427 0
M  V30 4242 H 402.747 0.549884 2.51663 0
M  V30 4243 H 402.705 -1.12777 2.93477 0
M  V30 4244 N 406.477 -1.02803 1.19454 0
M  V30 4245 C 407.723 -1.76478 0.999171 0
M  V30 4246 C 408.056 -1.88456 -0.468828 0
M  V30 4247 O 407.331 -1.40198 -1.34814 0
M  V30 4248 C 407.614 -3.19044 1.66981 0
M  V30 4249 C 407.467 -3.14932 3.21151 0
M  V30 4250 C 408.786 -4.17456 1.39349 0
M  V30 4251 H 405.905 -0.640614 0.364393 0
M  V30 4252 H 408.547 -1.20005 1.47305 0
M  V30 4253 H 406.697 -3.67263 1.2669 0
M  V30 4254 H 408.369 -2.74605 3.70661 0
M  V30 4255 H 406.612 -2.52625 3.52652 0
M  V30 4256 H 407.283 -4.1566 3.63223 0
M  V30 4257 H 409.759 -3.77842 1.74283 0
M  V30 4258 H 408.635 -5.154 1.88823 0
M  V30 4259 H 408.896 -4.40949 0.318813 0
M  V30 4260 N 407.956 -0.998596 -1.21925 0
M  V30 4261 C 409.372 -0.710303 -1.42923 0
M  V30 4262 C 409.572 0.716933 -1.88314 0
M  V30 4263 O 408.628 1.48712 -2.04062 0
M  V30 4264 C 409.941 -1.72072 -2.466 0
M  V30 4265 C 411.489 -1.73681 -2.60392 0
M  V30 4266 C 411.964 -2.73601 -3.67296 0
M  V30 4267 N 413.455 -2.7223 -3.7476 0
M  V30 4268 C 414.19 -3.46206 -4.57087 0
M  V30 4269 N 413.686 -4.29802 -5.43362 0
M  V30 4270 N 415.479 -3.34886 -4.51451 0
M  V30 4271 H 407.63 -1.92028 -0.9077 0
M  V30 4272 H 409.893 -0.828487 -0.460775 0
M  V30 4273 H 409.599 -2.74231 -2.20206 0
M  V30 4274 H 409.473 -1.51818 -3.45299 0
M  V30 4275 H 411.86 -0.722173 -2.86127 0
M  V30 4276 H 411.941 -1.98005 -1.61949 0
M  V30 4277 H 411.585 -3.75217 -3.42307 0
M  V30 4278 H 411.515 -2.46545 -4.65321 0
M  V30 4279 H 414.006 -2.11576 -3.1312 0
M  V30 4280 H 414.319 -4.83061 -6.03218 0
M  V30 4281 H 412.664 -4.33887 -5.42925 0
M  V30 4282 H 415.855 -2.69015 -3.83078 0
M  V30 4283 H 416.028 -3.92796 -5.15379 0
M  V30 4284 N 409.434 1.37368 -0.772513 0
M  V30 4285 C 410.364 2.32856 -0.173304 0
M  V30 4286 C 411.345 1.55818 0.682262 0
M  V30 4287 O 412.53 1.84052 0.619566 0
M  V30 4288 C 409.66 3.40048 0.706007 0
M  V30 4289 C 408.614 4.27973 -0.0483144 0
M  V30 4290 C 407.94 5.26184 0.950491 0
M  V30 4291 C 409.24 5.07665 -1.22776 0
M  V30 4292 H 410.934 2.83217 -0.971002 0
M  V30 4293 H 408.48 1.3617 -0.468377 0
M  V30 4294 H 410.433 4.05827 1.13501 0
M  V30 4295 H 409.157 2.88214 1.53623 0
M  V30 4296 H 407.816 3.63726 -0.458107 0
M  V30 4297 H 407.464 4.7063 1.77529 0
M  V30 4298 H 407.164 5.85872 0.450314 0
M  V30 4299 H 408.688 5.94838 1.37842 0
M  V30 4300 H 410.102 5.66578 -0.875366 0
M  V30 4301 H 408.499 5.76681 -1.66007 0
M  V30 4302 H 409.569 4.40294 -2.03149 0
M  V30 4303 N 410.912 0.523116 1.48665 0
M  V30 4304 C 411.842 -0.23231 2.32342 0
M  V30 4305 C 412.823 -0.941637 1.41659 0
M  V30 4306 O 414.008 -0.928751 1.70552 0
M  V30 4307 C 411.138 -1.28387 3.22698 0
M  V30 4308 C 410.092 -0.693098 4.22351 0
M  V30 4309 C 409.418 -1.8468 5.01794 0
M  V30 4310 C 410.718 0.33063 5.21252 0
M  V30 4311 H 412.412 0.466192 2.95748 0
M  V30 4312 H 409.958 0.225643 1.42221 0
M  V30 4313 H 411.911 -1.82024 3.80059 0
M  V30 4314 H 410.635 -2.01186 2.57278 0
M  V30 4315 H 409.294 -0.178299 3.66166 0
M  V30 4316 H 408.942 -2.56301 4.32804 0
M  V30 4317 H 408.642 -1.45747 5.69238 0
M  V30 4318 H 410.166 -2.38709 5.62006 0
M  V30 4319 H 411.58 -0.118407 5.73178 0
M  V30 4320 H 409.977 0.636974 5.9671 0
M  V30 4321 H 411.047 1.23883 4.68808 0
M  V30 4322 N 412.39 -1.55475 0.257931 0
M  V30 4323 C 413.323 -2.179 -0.677862 0
M  V30 4324 C 414.301 -1.13448 -1.16483 0
M  V30 4325 O 415.485 -1.41889 -1.24095 0
M  V30 4326 C 412.612 -2.78851 -1.92249 0
M  V30 4327 C 411.658 -3.96454 -1.57246 0
M  V30 4328 S 412.491 -5.31349 -0.665501 0
M  V30 4329 C 413.647 -5.9576 -1.91889 0
M  V30 4330 H 413.88 -2.96934 -0.147396 0
M  V30 4331 H 411.413 -1.54342 0.0423023 0
M  V30 4332 H 413.371 -3.14602 -2.63697 0
M  V30 4333 H 412.032 -1.99742 -2.42409 0
M  V30 4334 H 411.225 -4.37731 -2.49814 0
M  V30 4335 H 410.827 -3.62038 -0.938325 0
M  V30 4336 H 413.119 -6.13947 -2.86487 0
M  V30 4337 H 414.062 -6.9094 -1.54942 0
M  V30 4338 H 414.47 -5.2494 -2.076 0
M  V30 4339 N 413.868 0.0150385 -1.57593 0
M  V30 4340 C 414.798 1.01047 -2.10503 0
M  V30 4341 C 415.779 1.36816 -1.01071 0
M  V30 4342 O 416.964 1.45455 -1.28672 0
M  V30 4343 C 414.094 2.30708 -2.59598 0
M  V30 4344 C 413.048 2.09142 -3.73421 0
M  V30 4345 C 412.374 3.44685 -4.08774 0
M  V30 4346 C 413.674 1.46619 -5.01298 0
M  V30 4347 H 415.368 0.569978 -2.93925 0
M  V30 4348 H 412.914 0.272724 -1.41394 0
M  V30 4349 H 414.867 3.00687 -2.95238 0
M  V30 4350 H 413.591 2.76843 -1.73279 0
M  V30 4351 H 412.25 1.41592 -3.38153 0
M  V30 4352 H 411.898 3.88495 -3.195 0
M  V30 4353 H 411.598 3.31077 -4.8545 0
M  V30 4354 H 413.122 4.16004 -4.4696 0
M  V30 4355 H 414.536 2.06535 -5.34805 0
M  V30 4356 H 412.933 1.43544 -5.82679 0
M  V30 4357 H 414.003 0.433611 -4.82957 0
M  V30 4358 N 415.346 1.54954 0.287554 0
M  V30 4359 C 416.623 1.65569 1.04146 0
M  V30 4360 C 417.003 0.512672 2.0478 0
M  V30 4361 O 416.351 -0.489038 2.23205 0
M  V30 4362 C 416.561 3.04163 1.71131 0
M  V30 4363 C 417.909 3.61429 2.22832 0
M  V30 4364 O 418.933 3.06702 1.81141 0
M  V30 4365 O 417.792 4.57281 2.9926 0
M  V30 4366 H 414.886 0.671881 0.482188 0
M  V30 4367 H 417.432 1.67297 0.28457 0
M  V30 4368 H 416.204 3.78796 0.981303 0
M  V30 4369 H 415.827 3.06271 2.53543 0
M  V30 4370 N 416.824 -0.551391 1.4764 0
M  V30 4371 C 418.101 -1.31229 1.45046 0
M  V30 4372 C 418.481 -2.10563 0.150527 0
M  V30 4373 O 417.829 -2.11374 -0.867956 0
M  V30 4374 C 418.039 -2.21189 2.69956 0
M  V30 4375 C 419.387 -2.82021 3.1741 0
M  V30 4376 O 420.411 -2.31488 2.70724 0
M  V30 4377 O 419.27 -3.73885 3.98588 0
M  V30 4378 H 416.364 -0.591193 0.578291 0
M  V30 4379 H 418.91 -0.569813 1.59847 0
M  V30 4380 H 417.682 -1.62207 3.56096 0
M  V30 4381 H 417.305 -3.02722 2.57769 0
M  V30 4382 N 418.302 -1.35869 -0.798587 0
M  V30 4383 C 419.234 -1.25305 -1.91915 0
M  V30 4384 C 420.247 -0.174548 -1.61862 0
M  V30 4385 O 421.436 -0.428499 -1.73281 0
M  V30 4386 C 418.536 -0.9086 -3.26493 0
M  V30 4387 C 417.709 -2.08711 -3.84394 0
M  V30 4388 C 416.768 -1.71717 -4.97393 0
M  V30 4389 O 415.794 -2.43692 -5.14396 0
M  V30 4390 N 416.996 -0.645473 -5.769 0
M  V30 4391 H 419.761 -2.21849 -2.01502 0
M  V30 4392 H 417.322 -1.29143 -0.976408 0
M  V30 4393 H 419.314 -0.642455 -3.99568 0
M  V30 4394 H 417.884 -0.0325815 -3.12583 0
M  V30 4395 H 417.104 -2.51659 -3.03416 0
M  V30 4396 H 418.392 -2.87468 -4.19809 0
M  V30 4397 H 417.79 -0.047648 -5.6568 0
M  V30 4398 H 416.347 -0.43913 -6.50319 0
M  V30 4399 N 419.78 1.02168 -1.19998 0
M  V30 4400 C 421.196 1.27969 -0.953737 0
M  V30 4401 C 421.396 1.98079 0.369703 0
M  V30 4402 O 420.452 2.27306 1.09947 0
M  V30 4403 C 421.765 2.11971 -2.13281 0
M  V30 4404 C 423.313 2.25255 -2.17323 0
M  V30 4405 C 423.788 3.12632 -3.34702 0
M  V30 4406 N 425.279 3.2022 -3.34684 0
M  V30 4407 C 426.014 3.88039 -4.22153 0
M  V30 4408 N 425.51 4.58027 -5.19791 0
M  V30 4409 N 427.303 3.84511 -4.10009 0
M  V30 4410 H 419.454 0.550794 -2.05134 0
M  V30 4411 H 421.717 0.305683 -0.897364 0
M  V30 4412 H 421.423 1.67785 -3.09097 0
M  V30 4413 H 421.297 3.12699 -2.10949 0
M  V30 4414 H 423.684 2.68667 -1.22073 0
M  V30 4415 H 423.765 1.24053 -2.23706 0
M  V30 4416 H 423.409 2.69926 -4.30235 0
M  V30 4417 H 423.339 4.13909 -3.25556 0
M  V30 4418 H 425.83 2.70382 -2.64012 0
M  V30 4419 H 426.143 5.07429 -5.82868 0
M  V30 4420 H 424.488 4.56869 -5.23733 0
M  V30 4421 H 427.679 3.28978 -3.33003 0
M  V30 4422 H 427.852 4.3709 -4.78389 0
M  V30 4423 N 421.258 1.00505 1.21394 0
M  V30 4424 C 422.188 0.585684 2.26035 0
M  V30 4425 C 423.169 -0.393525 1.65485 0
M  V30 4426 O 424.354 -0.281497 1.92149 0
M  V30 4427 C 421.484 -0.0884283 3.47187 0
M  V30 4428 C 420.438 0.810567 4.20254 0
M  V30 4429 C 419.764 0.00286382 5.347 0
M  V30 4430 C 421.064 2.1132 4.77641 0
M  V30 4431 H 422.758 1.46039 2.61368 0
M  V30 4432 H 420.304 0.703648 1.25638 0
M  V30 4433 H 422.257 -0.393286 4.19561 0
M  V30 4434 H 420.981 -0.997766 3.10986 0
M  V30 4435 H 419.64 1.09925 3.49731 0
M  V30 4436 H 419.288 -0.907765 4.94741 0
M  V30 4437 H 418.988 0.601444 5.84514 0
M  V30 4438 H 420.512 -0.295808 6.09883 0
M  V30 4439 H 421.926 1.87148 5.41893 0
M  V30 4440 H 420.323 2.66164 5.37845 0
M  V30 4441 H 421.393 2.78393 3.9702 0
M  V30 4442 N 422.737 -1.36956 0.779787 0
M  V30 4443 C 423.667 -2.32761 0.185651 0
M  V30 4444 C 424.648 -1.56177 -0.673989 0
M  V30 4445 O 425.833 -1.84378 -0.609797 0
M  V30 4446 C 422.963 -3.40418 -0.687964 0
M  V30 4447 C 421.917 -4.27941 0.0710102 0
M  V30 4448 C 421.243 -5.26681 -0.922573 0
M  V30 4449 C 422.543 -5.07006 1.25467 0
M  V30 4450 H 424.237 -2.82698 0.986008 0
M  V30 4451 H 421.783 -1.3592 0.475592 0
M  V30 4452 H 423.736 -4.06423 -1.11348 0
M  V30 4453 H 422.46 -2.89025 -1.52093 0
M  V30 4454 H 421.119 -3.63478 0.47739 0
M  V30 4455 H 420.767 -4.71565 -1.7503 0
M  V30 4456 H 420.467 -5.86103 -0.419237 0
M  V30 4457 H 421.991 -5.9556 -1.34686 0
M  V30 4458 H 423.405 -5.66105 0.905401 0
M  V30 4459 H 421.802 -5.75793 1.69063 0
M  V30 4460 H 422.872 -4.3921 2.05481 0
M  V30 4461 N 424.215 -0.530993 -1.48385 0
M  V30 4462 C 425.145 0.219985 -2.32461 0
M  V30 4463 C 426.126 0.934111 -1.42156 0
M  V30 4464 O 427.311 0.919694 -1.71042 0
M  V30 4465 C 424.441 1.26674 -3.23375 0
M  V30 4466 C 423.395 0.67069 -4.22712 0
M  V30 4467 C 422.721 1.82017 -5.02766 0
M  V30 4468 C 424.021 -0.358268 -5.2107 0
M  V30 4469 H 425.715 -0.48187 -2.95497 0
M  V30 4470 H 423.261 -0.233182 -1.42099 0
M  V30 4471 H 425.214 1.80006 -3.81019 0
M  V30 4472 H 423.938 1.99818 -2.58341 0
M  V30 4473 H 422.597 0.158878 -3.66256 0
M  V30 4474 H 422.245 2.54002 -4.34157 0
M  V30 4475 H 421.945 1.42727 -5.70003 0
M  V30 4476 H 423.469 2.35725 -5.63264 0
M  V30 4477 H 424.883 0.0880081 -5.73232 0
M  V30 4478 H 423.28 -0.66861 -5.96364 0
M  V30 4479 H 424.35 -1.26367 -4.68145 0
M  V30 4480 N 425.693 1.55336 -0.266172 0
M  V30 4481 C 427.104 1.85236 0.233315 0
M  V30 4482 C 427.455 1.18816 1.56132 0
M  V30 4483 O 426.58 0.473307 2.11161 0
M  V30 4484 C 427.175 3.36059 0.430113 0
M  V30 4485 C 425.734 3.66116 0.873842 0
M  V30 4486 C 424.881 2.77274 -0.0380016 0
M  V30 4487 H 427.832 1.51004 -0.488214 0
M  V30 4488 H 427.853 3.58681 1.26998 0
M  V30 4489 H 427.365 3.84373 -0.536588 0
M  V30 4490 H 425.466 3.23295 1.85233 0
M  V30 4491 H 425.579 4.73699 0.717358 0
M  V30 4492 H 423.943 2.50198 0.476759 0
M  V30 4493 H 424.726 3.284 -1.00042 0
M  V30 4494 N 427.171 -0.0066808 1.57599 0
M  V30 4495 C 428.121 -1.0086 2.04478 0
M  V30 4496 C 429.105 -1.30714 0.938231 0
M  V30 4497 O 430.297 -1.29924 1.20203 0
M  V30 4498 C 427.426 -2.30273 2.54615 0
M  V30 4499 C 426.512 -2.03413 3.72134 0
M  V30 4500 N 426.903 -1.46688 4.84062 0
M  V30 4501 C 425.201 -2.33589 3.79937 0
M  V30 4502 C 425.902 -1.36146 5.65543 0
M  V30 4503 N 424.878 -1.84477 5.1134 0
M  V30 4504 H 428.68 -0.564402 2.8843 0
M  V30 4505 H 426.194 -0.212521 1.61003 0
M  V30 4506 H 428.191 -3.02885 2.86472 0
M  V30 4507 H 426.851 -2.75352 1.72079 0
M  V30 4508 H 427.862 -1.14658 5.05049 0
M  V30 4509 H 424.539 -2.81589 3.08243 0
M  V30 4510 H 425.929 -0.925873 6.6549 0
M  V30 4511 N 428.649 -1.55105 -0.279332 0
M  V30 4512 C 429.895 -1.76597 -1.00921 0
M  V30 4513 C 430.25 -0.556831 -1.84166 0
M  V30 4514 O 429.543 0.450573 -1.86227 0
M  V30 4515 C 429.737 -3.0086 -1.92919 0
M  V30 4516 C 429.566 -4.33744 -1.18728 0
M  V30 4517 C 428.336 -4.9712 -0.905545 0
M  V30 4518 C 430.534 -5.11009 -0.580857 0
M  V30 4519 N 428.516 -6.13749 -0.136169 0
M  V30 4520 C 429.887 -6.19976 0.0546661 0
M  V30 4521 C 431.942 -4.95502 -0.488067 0
M  V30 4522 C 430.645 -7.15123 0.774028 0
M  V30 4523 C 432.671 -5.90999 0.217688 0
M  V30 4524 C 432.033 -6.9935 0.841975 0
M  V30 4525 H 428.132 -0.698553 -0.351493 0
M  V30 4526 H 430.716 -1.92595 -0.285531 0
M  V30 4527 H 428.887 -2.86249 -2.62519 0
M  V30 4528 H 430.619 -3.10784 -2.59221 0
M  V30 4529 H 427.374 -4.57903 -1.20921 0
M  V30 4530 H 427.798 -6.7659 0.235665 0
M  V30 4531 H 432.44 -4.11841 -0.956406 0
M  V30 4532 H 430.158 -7.9831 1.25407 0
M  V30 4533 H 433.744 -5.81078 0.289717 0
M  V30 4534 H 432.624 -7.71973 1.37939 0
M  V30 4535 N 430.127 0.543554 -1.4793 0
M  V30 4536 C 431.09 1.63156 -1.60975 0
M  V30 4537 C 432.09 1.53346 -0.483899 0
M  V30 4538 O 433.28 1.5726 -0.749339 0
M  V30 4539 C 430.412 3.02743 -1.56716 0
M  V30 4540 H 431.605 1.52934 -2.57975 0
M  V30 4541 H 429.158 0.764557 -1.36324 0
M  V30 4542 H 429.893 3.18484 -0.611418 0
M  V30 4543 H 429.678 3.11272 -2.38438 0
M  V30 4544 H 431.168 3.81871 -1.6901 0
M  V30 4545 N 431.605 1.3629 0.791371 0
M  V30 4546 C 432.552 1.30458 1.90393 0
M  V30 4547 C 433.522 0.173632 1.6519 0
M  V30 4548 O 434.707 0.35983 1.87376 0
M  V30 4549 C 431.847 1.09777 3.27174 0
M  V30 4550 C 430.96 2.31929 3.64462 0
M  V30 4551 C 430.095 2.04276 4.90352 0
M  V30 4552 C 429.134 3.224 5.20312 0
M  V30 4553 N 428.271 2.94424 6.37385 0
M  V30 4554 H 433.111 2.25589 1.94714 0
M  V30 4555 H 430.648 1.12122 0.952216 0
M  V30 4556 H 432.606 0.958133 4.06049 0
M  V30 4557 H 431.236 0.183014 3.22281 0
M  V30 4558 H 430.288 2.56703 2.80727 0
M  V30 4559 H 431.6 3.20085 3.82553 0
M  V30 4560 H 430.754 1.87231 5.77087 0
M  V30 4561 H 429.493 1.13428 4.74326 0
M  V30 4562 H 428.498 3.40005 4.32061 0
M  V30 4563 H 429.723 4.14071 5.38258 0
M  V30 4564 H 427.669 2.06185 6.22755 0
M  V30 4565 H 427.586 3.76118 6.55798 0
M  V30 4566 H 428.854 2.80953 7.27108 0
M  V30 4567 N 433.083 -1.0153 1.20538 0
M  V30 4568 C 434.329 -1.75408 1.01783 0
M  V30 4569 C 434.662 -1.88943 -0.448814 0
M  V30 4570 O 433.937 -1.4162 -1.33319 0
M  V30 4571 C 434.22 -3.17255 1.70356 0
M  V30 4572 C 434.073 -3.11508 3.24473 0
M  V30 4573 C 435.392 -4.15955 1.43769 0
M  V30 4574 H 432.511 -0.636713 0.371167 0
M  V30 4575 H 435.153 -1.18436 1.4857 0
M  V30 4576 H 433.303 -3.65898 1.30578 0
M  V30 4577 H 434.975 -2.70658 3.73553 0
M  V30 4578 H 433.218 -2.4887 3.55311 0
M  V30 4579 H 433.889 -4.11784 3.67611 0
M  V30 4580 H 436.365 -3.75973 1.7828 0
M  V30 4581 H 435.241 -5.13368 1.94279 0
M  V30 4582 H 435.502 -4.40586 0.365564 0
M  V30 4583 N 434.561 -1.01147 -1.20859 0
M  V30 4584 C 435.807 -0.698899 -1.90377 0
M  V30 4585 C 436.14 0.76904 -1.78324 0
M  V30 4586 O 435.415 1.55817 -1.16409 0
M  V30 4587 C 435.698 -1.12878 -3.41951 0
M  V30 4588 C 435.551 -2.65665 -3.62963 0
M  V30 4589 C 436.87 -0.696114 -4.3456 0
M  V30 4590 H 433.989 -0.255372 -0.691342 0
M  V30 4591 H 436.631 -1.25831 -1.42361 0
M  V30 4592 H 434.781 -0.652827 -3.82976 0
M  V30 4593 H 436.453 -3.21074 -3.31224 0
M  V30 4594 H 434.696 -3.06878 -3.06608 0
M  V30 4595 H 435.367 -2.90797 -4.69192 0
M  V30 4596 H 437.843 -1.10521 -4.01154 0
M  V30 4597 H 436.719 -1.025 -5.39245 0
M  V30 4598 H 436.98 0.402465 -4.40264 0
M  V30 4599 N 436.039 1.36541 -0.78704 0
M  V30 4600 C 436.969 2.32659 -0.197992 0
M  V30 4601 C 437.95 1.56533 0.665697 0
M  V30 4602 O 439.135 1.84698 0.60001 0
M  V30 4603 C 436.265 3.40778 0.669901 0
M  V30 4604 C 435.219 4.27897 -0.0937039 0
M  V30 4605 C 434.545 5.27163 0.894629 0
M  V30 4606 C 435.845 5.06334 -1.28154 0
M  V30 4607 H 437.539 2.82171 -1.00099 0
M  V30 4608 H 435.085 1.35665 -0.482793 0
M  V30 4609 H 437.038 4.07008 1.09191 0
M  V30 4610 H 435.762 2.89827 1.50558 0
M  V30 4611 H 434.421 3.6322 -0.49666 0
M  V30 4612 H 434.069 4.72486 1.72527 0
M  V30 4613 H 433.769 5.86317 0.388149 0
M  V30 4614 H 435.293 5.96266 1.31525 0
M  V30 4615 H 436.707 5.65617 -0.93541 0
M  V30 4616 H 435.104 5.74888 -1.72115 0
M  V30 4617 H 436.174 4.38114 -2.07807 0
M  V30 4618 N 437.518 0.538854 1.48102 0
M  V30 4619 C 438.746 0.0123136 2.06896 0
M  V30 4620 C 439.161 -1.27312 1.39417 0
M  V30 4621 O 438.518 -1.75949 0.484582 0
M  V30 4622 C 438.569 -0.206118 3.60912 0
M  V30 4623 O 438.29 1.0284 4.25859 0
M  V30 4624 C 439.791 -0.772033 4.36526 0
M  V30 4625 H 437.011 0.0375239 0.66995 0
M  V30 4626 H 439.555 0.747032 1.90367 0
M  V30 4627 H 437.71 -0.89091 3.77017 0
M  V30 4628 H 438.124 0.814654 5.18135 0
M  V30 4629 H 439.598 -0.874251 5.45033 0
M  V30 4630 H 440.075 -1.77904 4.01555 0
M  V30 4631 H 440.681 -0.123526 4.25121 0
M  V30 4632 N 438.996 -1.55193 0.274407 0
M  V30 4633 C 440.273 -1.91584 -0.394331 0
M  V30 4634 C 440.653 -1.19858 -1.73774 0
M  V30 4635 O 440.001 -0.3252 -2.26174 0
M  V30 4636 C 440.211 -3.4487 -0.535311 0
M  V30 4637 C 441.559 -4.16636 -0.818534 0
M  V30 4638 O 442.583 -3.5076 -0.620146 0
M  V30 4639 O 441.442 -5.33209 -1.19792 0
M  V30 4640 H 438.536 -0.798349 -0.215794 0
M  V30 4641 H 441.082 -1.66646 0.320507 0
M  V30 4642 H 439.854 -3.89145 0.410141 0
M  V30 4643 H 439.477 -3.75759 -1.29964 0
M  V30 4644 N 440.474 -0.00167713 -1.576 0
M  V30 4645 C 441.885 0.54091 -1.78693 0
M  V30 4646 C 442.236 1.7386 -0.909247 0
M  V30 4647 O 441.361 2.16109 -0.112176 0
M  V30 4648 C 441.956 0.98806 -3.24072 0
M  V30 4649 C 440.515 1.47594 -3.46256 0
M  V30 4650 C 439.662 0.42792 -2.73978 0
M  V30 4651 H 442.613 -0.22784 -1.57056 0
M  V30 4652 H 442.634 1.85398 -3.32277 0
M  V30 4653 H 442.146 0.116164 -3.87926 0
M  V30 4654 H 440.247 2.36868 -2.87618 0
M  V30 4655 H 440.36 1.50225 -4.54939 0
M  V30 4656 H 438.724 0.889934 -2.38647 0
M  V30 4657 H 439.507 -0.435038 -3.40532 0
M  V30 4658 N 441.952 1.55251 0.271103 0
M  V30 4659 C 442.862 1.9136 1.35714 0
M  V30 4660 C 443.878 0.811075 1.5394 0
M  V30 4661 O 445.054 1.11031 1.6803 0
M  V30 4662 C 442.119 2.1798 2.69603 0
M  V30 4663 C 441.18 3.4153 2.60107 0
M  V30 4664 C 440.413 3.66871 3.8761 0
M  V30 4665 O 440.636 2.94689 4.8838 0
M  V30 4666 O 439.57 4.60405 3.87699 0
M  V30 4667 H 443.396 2.83815 1.08088 0
M  V30 4668 H 440.981 1.41821 0.469792 0
M  V30 4669 H 442.863 2.36518 3.48765 0
M  V30 4670 H 441.538 1.28708 2.97012 0
M  V30 4671 H 440.445 3.28325 1.79314 0
M  V30 4672 H 441.778 4.31027 2.37647 0
M  V30 4673 N 443.43 -0.535701 1.48216 0
M  V30 4674 C 444.393 -1.623 1.61838 0
M  V30 4675 C 445.393 -1.53087 0.492024 0
M  V30 4676 O 446.583 -1.5686 0.757668 0
M  V30 4677 C 443.715 -3.01907 1.58319 0
M  V30 4678 H 444.908 -1.51564 2.58783 0
M  V30 4679 H 442.461 -0.757317 1.36727 0
M  V30 4680 H 443.196 -3.18155 0.628299 0
M  V30 4681 H 442.981 -3.10003 2.40085 0
M  V30 4682 H 444.471 -3.80969 1.71033 0
M  V30 4683 N 444.908 -1.36708 -0.784132 0
M  V30 4684 C 445.871 -1.31307 -1.87859 0
M  V30 4685 C 446.871 -0.219654 -1.59293 0
M  V30 4686 O 448.061 -0.47476 -1.67606 0
M  V30 4687 C 445.193 -1.03679 -3.24751 0
M  V30 4688 H 446.386 -2.28647 -1.94064 0
M  V30 4689 H 443.939 -1.21558 -0.98252 0
M  V30 4690 H 444.674 -0.0681936 -3.24228 0
M  V30 4691 H 444.459 -1.82811 -3.46876 0
M  V30 4692 H 445.949 -1.02518 -4.04821 0
M  V30 4693 N 446.386 1.0089 -1.21074 0
M  V30 4694 C 447.333 2.09588 -0.966512 0
M  V30 4695 C 448.303 1.65761 0.106089 0
M  V30 4696 O 449.488 1.90758 -0.0402287 0
M  V30 4697 C 446.628 3.40958 -0.533058 0
M  V30 4698 C 445.741 3.9822 -1.67467 0
M  V30 4699 C 444.876 5.17682 -1.19076 0
M  V30 4700 C 443.915 5.67043 -2.30496 0
M  V30 4701 N 443.052 6.77759 -1.83267 0
M  V30 4702 H 447.892 2.29815 -1.89708 0
M  V30 4703 H 445.429 1.12689 -0.945489 0
M  V30 4704 H 447.387 4.1637 -0.263019 0
M  V30 4705 H 446.017 3.20781 0.360505 0
M  V30 4706 H 445.069 3.1983 -2.05944 0
M  V30 4707 H 446.381 4.3085 -2.51336 0
M  V30 4708 H 445.535 6.00326 -0.877151 0
M  V30 4709 H 444.274 4.86635 -0.322066 0
M  V30 4710 H 443.279 4.82999 -2.62664 0
M  V30 4711 H 444.504 6.00121 -3.17855 0
M  V30 4712 H 442.45 6.48527 -0.987356 0
M  V30 4713 H 442.367 7.09624 -2.60711 0
M  V30 4714 H 443.635 7.63949 -1.54928 0
M  V30 4715 N 447.864 1.01787 1.20321 0
M  V30 4716 C 449.094 0.72614 1.93419 0
M  V30 4717 C 449.502 -0.717317 1.75075 0
M  V30 4718 O 448.845 -1.49836 1.06278 0
M  V30 4719 C 448.907 0.983621 3.45782 0
M  V30 4720 C 448.571 2.41645 3.87888 0
M  V30 4721 C 449.568 3.39732 3.93545 0
M  V30 4722 C 447.253 2.75752 4.19841 0
M  V30 4723 C 449.247 4.69988 4.30569 0
M  V30 4724 C 446.934 4.06221 4.56539 0
M  V30 4725 C 447.932 5.0315 4.61876 0
M  V30 4726 O 447.62 6.31284 4.97731 0
M  V30 4727 H 447.352 0.265824 0.621541 0
M  V30 4728 H 449.906 1.3623 1.53722 0
M  V30 4729 H 448.136 0.290301 3.85609 0
M  V30 4730 H 449.825 0.683279 4.00108 0
M  V30 4731 H 450.591 3.14718 3.69022 0
M  V30 4732 H 446.47 2.00993 4.14877 0
M  V30 4733 H 450.014 5.45642 4.3465 0
M  V30 4734 H 445.911 4.31013 4.80518 0
M  V30 4735 H 446.679 6.35591 5.15719 0
M  V30 4736 N 449.342 -1.36122 0.79427 0
M  V30 4737 C 450.588 -1.99406 0.369452 0
M  V30 4738 C 450.921 -1.62886 -1.05743 0
M  V30 4739 O 450.196 -0.886053 -1.73145 0
M  V30 4740 C 450.479 -3.56046 0.538833 0
M  V30 4741 C 450.332 -4.02404 2.00976 0
M  V30 4742 C 451.651 -4.40079 -0.0431359 0
M  V30 4743 H 448.77 -0.724397 0.135712 0
M  V30 4744 H 451.412 -1.61461 1.00151 0
M  V30 4745 H 449.562 -3.885 0.000771004 0
M  V30 4746 H 451.234 -3.80415 2.60926 0
M  V30 4747 H 449.477 -3.53765 2.51063 0
M  V30 4748 H 450.148 -5.11344 2.07922 0
M  V30 4749 H 452.624 -4.14013 0.416228 0
M  V30 4750 H 451.5 -5.48799 0.105374 0
M  V30 4751 H 451.761 -4.27264 -1.13571 0
M  V30 4752 N 450.82 -0.546701 -1.47814 0
M  V30 4753 C 451.77 0.227042 -2.26867 0
M  V30 4754 C 452.754 0.894844 -1.33721 0
M  V30 4755 O 453.946 0.794887 -1.58147 0
M  V30 4756 C 451.075 1.26299 -3.19223 0
M  V30 4757 C 450.161 0.59913 -4.19847 0
M  V30 4758 N 450.552 -0.324777 -5.04756 0
M  V30 4759 C 448.85 0.854331 -4.37741 0
M  V30 4760 C 449.551 -0.709386 -5.77358 0
M  V30 4761 N 448.527 -0.0666153 -5.43559 0
M  V30 4762 H 452.329 -0.483476 -2.89896 0
M  V30 4763 H 449.843 -0.365893 -1.58224 0
M  V30 4764 H 451.84 1.83116 -3.74532 0
M  V30 4765 H 450.5 1.97471 -2.57751 0
M  V30 4766 H 451.511 -0.698351 -5.1317 0
M  V30 4767 H 448.188 1.55536 -3.87447 0
M  V30 4768 H 449.578 -1.46796 -6.55668 0
M  V30 4769 N 452.299 1.55045 -0.282633 0
M  V30 4770 C 453.547 1.99365 0.331334 0
M  V30 4771 C 453.868 1.1725 1.55812 0
M  V30 4772 O 453.138 0.263871 1.94115 0
M  V30 4773 H 451.718 0.736397 0.125414 0
M  V30 4774 H 454.38 1.90964 -0.389711 0
M  V30 4775 H 453.476 3.0596 0.616036 0
M  V30 4776 N 453.777 0.010035 1.57597 0
M  V30 4777 C 455.026 -0.671945 1.90178 0
M  V30 4778 C 455.339 -1.74376 0.886131 0
M  V30 4779 O 456.545 -2.48107 1.10252 0
M  V30 4780 C 455.001 -1.24636 3.3763 0
M  V30 4781 C 454.609 -0.208838 4.47513 0
M  V30 4782 C 456.353 -1.90595 3.79307 0
M  V30 4783 C 454.26 -0.793814 5.86048 0
M  V30 4784 H 453.19 -0.25474 0.709665 0
M  V30 4785 H 455.841 0.0722206 1.83358 0
M  V30 4786 H 454.223 -2.04152 3.3932 0
M  V30 4787 H 455.397 0.562463 4.57354 0
M  V30 4788 H 453.712 0.350889 4.14919 0
M  V30 4789 H 456.309 -2.35284 4.80151 0
M  V30 4790 H 456.652 -2.74074 3.13352 0
M  V30 4791 H 457.185 -1.17798 3.79958 0
M  V30 4792 H 453.924 0.00240855 6.555 0
M  V30 4793 H 453.444 -1.53404 5.79851 0
M  V30 4794 H 455.123 -1.2894 6.34022 0
M  V30 4795 N 455.255 -1.55392 -0.262866 0
M  V30 4796 C 456.218 -1.88181 -1.30846 0
M  V30 4797 C 457.218 -0.757079 -1.41862 0
M  V30 4798 O 458.408 -1.02519 -1.40838 0
M  V30 4799 C 455.54 -2.09609 -2.68844 0
M  V30 4800 H 456.733 -2.81659 -1.02997 0
M  V30 4801 H 454.286 -1.48039 -0.501414 0
M  V30 4802 H 455.021 -1.18547 -3.01856 0
M  V30 4803 H 454.806 -2.91508 -2.62231 0
M  V30 4804 H 456.296 -2.36215 -3.44372 0
M  V30 4805 N 456.733 0.527833 -1.48498 0
M  V30 4806 C 457.979 1.28545 -1.56857 0
M  V30 4807 C 458.312 1.92678 -0.242651 0
M  V30 4808 O 457.587 1.79394 0.751545 0
M  V30 4809 C 457.87 2.37314 -2.70839 0
M  V30 4810 C 457.723 1.77858 -4.13142 0
M  V30 4811 C 459.042 3.39068 -2.80573 0
M  V30 4812 H 456.161 0.466006 -0.570971 0
M  V30 4813 H 458.803 0.587784 -1.8068 0
M  V30 4814 H 456.953 2.96821 -2.50658 0
M  V30 4815 H 458.625 1.22385 -4.44769 0
M  V30 4816 H 456.868 1.08383 -4.20042 0
M  V30 4817 H 457.539 2.56624 -4.88721 0
M  V30 4818 H 460.015 2.89518 -2.98862 0
M  V30 4819 H 458.891 4.12566 -3.6205 0
M  V30 4820 H 459.152 3.9975 -1.88818 0
M  V30 4821 N 458.211 1.37122 0.776871 0
M  V30 4822 C 459.161 1.28989 1.88005 0
M  V30 4823 C 460.145 0.178765 1.59904 0
M  V30 4824 O 461.337 0.412705 1.72121 0
M  V30 4825 C 458.466 1.09402 3.25402 0
M  V30 4826 C 457.552 2.25036 3.59471 0
M  V30 4827 N 457.943 3.50407 3.64759 0
M  V30 4828 C 456.241 2.17078 3.89607 0
M  V30 4829 C 456.942 4.26628 3.95428 0
M  V30 4830 N 455.918 3.55709 4.11062 0
M  V30 4831 H 459.72 2.2394 1.90337 0
M  V30 4832 H 457.234 1.30021 0.973052 0
M  V30 4833 H 459.231 1.01661 4.04315 0
M  V30 4834 H 457.891 0.153632 3.24336 0
M  V30 4835 H 458.902 3.8438 3.47091 0
M  V30 4836 H 455.579 1.31067 3.96393 0
M  V30 4837 H 456.969 5.35107 4.06338 0
M  V30 4838 N 459.689 -1.00246 1.21608 0
M  V30 4839 C 460.935 -1.74417 1.04643 0
M  V30 4840 C 461.29 -1.87862 -0.415387 0
M  V30 4841 O 460.583 -1.40373 -1.30407 0
M  V30 4842 C 460.777 -3.15448 1.68009 0
M  V30 4843 C 460.606 -3.15755 3.20201 0
M  V30 4844 C 459.376 -3.2219 3.89258 0
M  V30 4845 C 461.574 -3.00668 4.17257 0
M  V30 4846 N 459.556 -3.1215 5.28617 0
M  V30 4847 C 460.927 -2.98553 5.43384 0
M  V30 4848 C 462.982 -2.84989 4.08272 0
M  V30 4849 C 461.685 -2.82364 6.61561 0
M  V30 4850 C 463.711 -2.70158 5.26088 0
M  V30 4851 C 463.073 -2.68721 6.51128 0
M  V30 4852 H 459.172 -0.648317 0.437274 0
M  V30 4853 H 461.756 -1.19129 1.54001 0
M  V30 4854 H 459.927 -3.69001 1.21215 0
M  V30 4855 H 461.659 -3.78128 1.44226 0
M  V30 4856 H 458.414 -3.29488 3.40198 0
M  V30 4857 H 458.838 -3.10465 6.01615 0
M  V30 4858 H 463.48 -2.84904 3.12393 0
M  V30 4859 H 461.198 -2.81196 7.57598 0
M  V30 4860 H 464.784 -2.59022 5.20959 0
M  V30 4861 H 463.664 -2.57382 7.40759 0
M  V30 4862 N 461.167 -1.02423 -1.1978 0
M  V30 4863 C 462.397 -0.736387 -1.93031 0
M  V30 4864 C 462.805 0.708023 -1.75453 0
M  V30 4865 O 462.148 1.4927 -1.07071 0
M  V30 4866 C 462.21 -1.00194 -3.45255 0
M  V30 4867 C 461.874 -2.43698 -3.86601 0
M  V30 4868 C 462.871 -3.41814 -3.91738 0
M  V30 4869 C 460.556 -2.77975 -4.18372 0
M  V30 4870 C 462.55 -4.72265 -4.28071 0
M  V30 4871 C 460.237 -4.08636 -4.54378 0
M  V30 4872 C 461.235 -5.05592 -4.59201 0
M  V30 4873 O 460.923 -6.33914 -4.94376 0
M  V30 4874 H 460.655 -0.269116 -0.620123 0
M  V30 4875 H 463.209 -1.37043 -1.52998 0
M  V30 4876 H 461.439 -0.310747 -3.85449 0
M  V30 4877 H 463.128 -0.704488 -3.9974 0
M  V30 4878 H 463.894 -3.16671 -3.67348 0
M  V30 4879 H 459.773 -2.0319 -4.13805 0
M  V30 4880 H 463.317 -5.4794 -4.3175 0
M  V30 4881 H 459.214 -4.33556 -4.78226 0
M  V30 4882 H 459.982 -6.38317 -5.12341 0
M  V30 4883 N 462.645 1.35699 -0.801477 0
M  V30 4884 C 463.575 2.32436 -0.222658 0
M  V30 4885 C 464.556 1.5723 0.649057 0
M  V30 4886 O 465.741 1.85324 0.580387 0
M  V30 4887 C 462.871 3.41469 0.633719 0
M  V30 4888 C 461.825 4.27774 -0.139083 0
M  V30 4889 C 461.151 5.28082 0.838666 0
M  V30 4890 C 462.451 5.04946 -1.33517 0
M  V30 4891 H 464.145 2.81094 -1.03086 0
M  V30 4892 H 461.691 1.35146 -0.497155 0
M  V30 4893 H 463.644 4.08143 1.04868 0
M  V30 4894 H 462.368 2.91408 1.47475 0
M  V30 4895 H 461.027 3.62673 -0.535156 0
M  V30 4896 H 460.675 4.7429 1.67506 0
M  V30 4897 H 460.375 5.86695 0.32594 0
M  V30 4898 H 461.899 5.97628 1.25194 0
M  V30 4899 H 463.313 5.64593 -0.995349 0
M  V30 4900 H 461.71 5.7303 -1.78202 0
M  V30 4901 H 462.78 4.35886 -2.12442 0
M  V30 4902 N 464.123 0.554532 1.47522 0
M  V30 4903 C 465.4 -0.0360704 1.95567 0
M  V30 4904 C 465.78 -1.48828 1.49711 0
M  V30 4905 O 465.128 -2.16366 0.734717 0
M  V30 4906 C 465.338 0.106631 3.48837 0
M  V30 4907 C 466.686 -0.0400899 4.24581 0
M  V30 4908 O 467.71 0.0340453 3.56184 0
M  V30 4909 O 466.569 -0.199111 5.46137 0
M  V30 4910 H 463.663 -0.0656294 0.824392 0
M  V30 4911 H 466.209 0.620867 1.57935 0
M  V30 4912 H 464.981 1.11727 3.7501 0
M  V30 4913 H 464.604 -0.58804 3.93227 0
M  V30 4914 N 465.601 -1.54893 0.290851 0
M  V30 4915 C 466.848 -1.99933 -0.321391 0
M  V30 4916 C 467.176 -1.17927 -1.54672 0
M  V30 4917 O 466.431 -0.240902 -1.94212 0
M  V30 4918 C 466.73 -3.49815 -0.732397 0
M  V30 4919 C 466.396 -4.4921 0.390056 0
M  V30 4920 C 465.058 -4.76107 0.698223 0
M  V30 4921 C 467.41 -5.08453 1.14562 0
M  V30 4922 C 464.738 -5.59514 1.76526 0
M  V30 4923 C 467.09 -5.9302 2.2025 0
M  V30 4924 C 465.754 -6.18232 2.51684 0
M  V30 4925 H 465.024 -0.731608 -0.117605 0
M  V30 4926 H 467.671 -1.87107 0.407839 0
M  V30 4927 H 465.976 -3.60199 -1.54155 0
M  V30 4928 H 467.673 -3.82083 -1.21712 0
M  V30 4929 H 464.263 -4.28372 0.13976 0
M  V30 4930 H 468.447 -4.87683 0.920801 0
M  V30 4931 H 463.703 -5.77289 2.01364 0
M  V30 4932 H 467.877 -6.37955 2.7926 0
M  V30 4933 H 465.504 -6.82653 3.34499 0
M  V30 4934 N 467.08 -0.0183926 -1.57589 0
M  V30 4935 C 468.01 0.965596 -2.12599 0
M  V30 4936 C 468.991 1.34641 -1.0395 0
M  V30 4937 O 470.176 1.42693 -1.31729 0
M  V30 4938 C 467.306 2.25149 -2.64434 0
M  V30 4939 C 466.26 2.01175 -3.77773 0
M  V30 4940 C 465.586 3.35937 -4.15994 0
M  V30 4941 C 466.886 1.35953 -5.04296 0
M  V30 4942 H 468.58 0.507504 -2.95067 0
M  V30 4943 H 466.126 0.242671 -1.41941 0
M  V30 4944 H 468.079 2.94357 -3.01549 0
M  V30 4945 H 466.803 2.73105 -1.79112 0
M  V30 4946 H 465.462 1.34388 -3.4108 0
M  V30 4947 H 465.11 3.81631 -3.27669 0
M  V30 4948 H 464.81 3.20705 -4.92364 0
M  V30 4949 H 466.334 4.0643 -4.55683 0
M  V30 4950 H 467.748 1.95144 -5.39065 0
M  V30 4951 H 466.145 1.31152 -5.85593 0
M  V30 4952 H 467.215 0.331071 -4.83768 0
M  V30 4953 N 468.558 1.5553 0.254621 0
M  V30 4954 C 469.521 1.88872 1.29846 0
M  V30 4955 C 470.521 0.764591 1.41459 0
M  V30 4956 O 471.711 1.03265 1.40293 0
M  V30 4957 C 468.843 2.11032 2.67728 0
M  V30 4958 H 470.036 2.82201 1.01502 0
M  V30 4959 H 467.589 1.48303 0.493556 0
M  V30 4960 H 468.324 1.20146 3.01223 0
M  V30 4961 H 468.109 2.92895 2.60682 0
M  V30 4962 H 469.599 2.38038 3.43115 0
M  V30 4963 N 470.036 -0.519951 1.48776 0
M  V30 4964 C 471.447 -1.10177 1.50725 0
M  V30 4965 C 471.798 -1.94153 0.282678 0
M  V30 4966 O 470.923 -2.07645 -0.609298 0
M  V30 4967 C 471.518 -2.00482 2.73116 0
M  V30 4968 C 470.077 -2.53862 2.77905 0
M  V30 4969 C 469.224 -1.31047 2.44381 0
M  V30 4970 H 472.175 -0.30473 1.55747 0
M  V30 4971 H 472.196 -2.8491 2.52203 0
M  V30 4972 H 471.708 -1.39335 3.62225 0
M  V30 4973 H 469.809 -3.18702 1.93029 0
M  V30 4974 H 469.922 -2.9231 3.79594 0
M  V30 4975 H 468.286 -1.62953 1.95751 0
M  V30 4976 H 469.069 -0.71637 3.35743 0
M  V30 4977 N 471.514 -1.37532 -0.769588 0
M  V30 4978 C 472.477 -1.33292 -1.86456 0
M  V30 4979 C 473.477 -0.236537 -1.59051 0
M  V30 4980 O 474.667 -0.492511 -1.67093 0
M  V30 4981 C 471.799 -1.07118 -3.23633 0
M  V30 4982 H 472.992 -2.30692 -1.91628 0
M  V30 4983 H 470.545 -1.22593 -0.969572 0
M  V30 4984 H 471.28 -0.102578 -3.24138 0
M  V30 4985 H 471.065 -1.86479 -3.44917 0
M  V30 4986 H 472.555 -1.06806 -4.03711 0
M  V30 4987 N 472.992 0.995999 -1.22138 0
M  V30 4988 C 473.939 2.08551 -0.988687 0
M  V30 4989 C 474.909 1.65864 0.0885021 0
M  V30 4990 O 476.094 1.90704 -0.0604589 0
M  V30 4991 C 473.234 3.40374 -0.569191 0
M  V30 4992 C 472.347 3.96421 -1.71681 0
M  V30 4993 C 471.482 5.1639 -1.2456 0
M  V30 4994 C 470.521 5.64567 -2.36497 0
M  V30 4995 N 469.658 6.75777 -1.90445 0
M  V30 4996 H 474.498 2.2779 -1.92135 0
M  V30 4997 H 472.035 1.1168 -0.957388 0
M  V30 4998 H 473.993 4.16068 -0.307166 0
M  V30 4999 H 472.623 3.21145 0.326462 0
M  V30 5000 H 471.675 3.17628 -2.09324 0
M  V30 5001 H 472.987 4.2816 -2.55891 0
M  V30 5002 H 472.141 5.99362 -0.940774 0
M  V30 5003 H 470.88 4.86266 -0.373662 0
M  V30 5004 H 469.885 4.80185 -2.67772 0
M  V30 5005 H 471.11 5.96716 -3.24202 0
M  V30 5006 H 469.056 6.47443 -1.05609 0
M  V30 5007 H 468.973 7.06818 -2.68223 0
M  V30 5008 H 470.241 7.62262 -1.63022 0
M  V30 5009 N 474.47 1.03057 1.19235 0
M  V30 5010 C 475.433 0.617418 2.20727 0
M  V30 5011 C 476.433 -0.319856 1.57587 0
M  V30 5012 O 477.623 -0.106633 1.73873 0
M  V30 5013 C 474.755 -0.096296 3.40764 0
M  V30 5014 H 475.948 1.51544 2.58794 0
M  V30 5015 H 473.501 0.821949 1.32942 0
M  V30 5016 H 474.236 -1.00859 3.08217 0
M  V30 5017 H 474.021 0.577217 3.87828 0
M  V30 5018 H 475.511 -0.372219 4.15938 0
M  V30 5019 N 475.948 -1.35272 0.808662 0
M  V30 5020 C 477.176 -2.02946 0.402537 0
M  V30 5021 C 477.591 -1.60937 -0.987147 0
M  V30 5022 O 476.948 -0.807917 -1.63643 0
M  V30 5023 C 476.999 -3.58317 0.47868 0
M  V30 5024 O 476.72 -3.98799 1.81358 0
M  V30 5025 C 478.221 -4.43251 0.0656281 0
M  V30 5026 H 475.441 -0.650831 0.163279 0
M  V30 5027 H 477.985 -1.72849 1.09286 0
M  V30 5028 H 476.14 -3.87055 -0.163415 0
M  V30 5029 H 476.554 -4.93451 1.77781 0
M  V30 5030 H 478.028 -5.51738 0.170017 0
M  V30 5031 H 478.505 -4.27913 -0.989278 0
M  V30 5032 H 479.111 -4.19813 0.68096 0
M  V30 5033 N 477.426 -0.562348 -1.47226 0
M  V30 5034 C 478.356 0.170627 -2.32876 0
M  V30 5035 C 479.337 0.903748 -1.44106 0
M  V30 5036 O 480.522 0.883206 -1.72954 0
M  V30 5037 C 477.652 1.19786 -3.25989 0
M  V30 5038 C 476.606 0.580875 -4.2404 0
M  V30 5039 C 475.932 1.71311 -5.06514 0
M  V30 5040 C 477.232 -0.468714 -5.20193 0
M  V30 5041 H 478.926 -0.544441 -2.94408 0
M  V30 5042 H 476.472 -0.263271 -1.41573 0
M  V30 5043 H 478.425 1.71884 -3.84752 0
M  V30 5044 H 477.149 1.94294 -2.62521 0
M  V30 5045 H 475.808 0.0811538 -3.6651 0
M  V30 5046 H 475.456 2.44736 -4.39447 0
M  V30 5047 H 475.156 1.30604 -5.72902 0
M  V30 5048 H 476.68 2.23725 -5.68137 0
M  V30 5049 H 478.094 -0.0336028 -5.7329 0
M  V30 5050 H 476.491 -0.794957 -5.94811 0
M  V30 5051 H 477.561 -1.36269 -4.65359 0
M  V30 5052 N 478.904 1.54736 -0.299062 0
M  V30 5053 C 480.152 1.99706 0.31017 0
M  V30 5054 C 480.473 1.18896 1.54559 0
M  V30 5055 O 479.743 0.284445 1.93824 0
M  V30 5056 H 478.323 0.737686 0.117596 0
M  V30 5057 H 480.985 1.9054 -0.409943 0
M  V30 5058 H 480.081 3.06596 0.58355 0
M  V30 5059 N 480.382 0.0267497 1.57577 0
M  V30 5060 C 481.292 -0.971633 2.13533 0
M  V30 5061 C 482.308 -1.35868 1.08701 0
M  V30 5062 O 483.484 -1.44058 1.40746 0
M  V30 5063 C 480.549 -2.23622 2.64941 0
M  V30 5064 C 479.61 -1.90982 3.8448 0
M  V30 5065 C 478.843 -3.11411 4.33427 0
M  V30 5066 O 479.066 -4.23992 3.81558 0
M  V30 5067 O 478 -2.93848 5.25297 0
M  V30 5068 H 481.826 -0.525853 2.99113 0
M  V30 5069 H 479.411 -0.193712 1.48139 0
M  V30 5070 H 481.293 -2.97864 2.98086 0
M  V30 5071 H 479.968 -2.67386 1.82446 0
M  V30 5072 H 478.875 -1.14132 3.56265 0
M  V30 5073 H 480.208 -1.52036 4.6813 0
M  V30 5074 N 481.861 -1.55662 -0.24637 0
M  V30 5075 C 483.089 -1.81575 -0.991876 0
M  V30 5076 C 483.504 -0.602545 -1.78927 0
M  V30 5077 O 482.861 0.428795 -1.77391 0
M  V30 5078 C 482.912 -3.05711 -1.92933 0
M  V30 5079 O 482.633 -4.22348 -1.1642 0
M  V30 5080 C 484.134 -3.44428 -2.79078 0
M  V30 5081 H 481.354 -0.604209 -0.291844 0
M  V30 5082 H 483.898 -2.02722 -0.269095 0
M  V30 5083 H 482.053 -2.86612 -2.60638 0
M  V30 5084 H 482.467 -4.92706 -1.79835 0
M  V30 5085 H 483.941 -4.34388 -3.40603 0
M  V30 5086 H 484.418 -2.65037 -3.50217 0
M  V30 5087 H 485.024 -3.65879 -2.16824 0
M  V30 5088 N 483.339 0.512053 -1.4905 0
M  V30 5089 C 484.289 1.61142 -1.61298 0
M  V30 5090 C 485.273 1.53908 -0.46916 0
M  V30 5091 O 486.465 1.61625 -0.721547 0
M  V30 5092 C 483.594 2.998 -1.67256 0
M  V30 5093 C 482.68 3.12072 -2.87179 0
M  V30 5094 N 483.071 2.94263 -4.11391 0
M  V30 5095 C 481.369 3.43156 -2.84886 0
M  V30 5096 C 482.07 3.10426 -4.91946 0
M  V30 5097 N 481.046 3.38808 -4.251 0
M  V30 5098 H 484.848 1.46011 -2.55065 0
M  V30 5099 H 482.362 0.717934 -1.45669 0
M  V30 5100 H 484.359 3.78794 -1.74128 0
M  V30 5101 H 483.019 3.1601 -0.746195 0
M  V30 5102 H 484.03 2.70661 -4.41546 0
M  V30 5103 H 480.707 3.65611 -2.01581 0
M  V30 5104 H 482.097 3.01243 -6.00585 0
M  V30 5105 N 484.817 1.37938 0.762283 0
M  V30 5106 C 486.233 1.18945 1.06415 0
M  V30 5107 C 486.433 0.0321163 2.01474 0
M  V30 5108 O 485.489 -0.624844 2.44647 0
M  V30 5109 C 486.802 2.51218 1.65258 0
M  V30 5110 C 488.35 2.57824 1.7747 0
M  V30 5111 C 488.825 3.90251 2.39725 0
M  V30 5112 N 490.316 3.91744 2.47166 0
M  V30 5113 C 491.051 4.90966 2.96209 0
M  V30 5114 N 490.547 6.00585 3.45354 0
M  V30 5115 N 492.34 4.78363 2.9517 0
M  V30 5116 H 484.491 2.11994 0.131301 0
M  V30 5117 H 486.754 0.940262 0.120879 0
M  V30 5118 H 486.46 3.36317 1.02878 0
M  V30 5119 H 486.334 2.68989 2.64433 0
M  V30 5120 H 488.721 1.73126 2.3898 0
M  V30 5121 H 488.802 2.43928 0.770241 0
M  V30 5122 H 488.446 4.75368 1.78852 0
M  V30 5123 H 488.376 4.01454 3.40796 0
M  V30 5124 H 490.867 3.12563 2.12397 0
M  V30 5125 H 491.18 6.72236 3.81207 0
M  V30 5126 H 489.525 6.04217 3.43434 0
M  V30 5127 H 492.716 3.91841 2.56082 0
M  V30 5128 H 492.889 5.55843 3.33081 0
M  V30 5129 N 486.295 -0.989507 1.22664 0
M  V30 5130 C 487.225 -2.09847 1.02404 0
M  V30 5131 C 488.206 -1.70007 -0.0561303 0
M  V30 5132 O 489.391 -1.93906 0.106748 0
M  V30 5133 C 486.521 -3.41996 0.604663 0
M  V30 5134 C 485.475 -3.95699 1.63115 0
M  V30 5135 C 484.801 -5.23936 1.0675 0
M  V30 5136 C 486.101 -4.25999 3.02196 0
M  V30 5137 H 487.795 -2.27054 1.95158 0
M  V30 5138 H 485.341 -1.09111 0.939727 0
M  V30 5139 H 487.294 -4.1899 0.45002 0
M  V30 5140 H 486.018 -3.24626 -0.35855 0
M  V30 5141 H 484.677 -3.2084 1.77362 0
M  V30 5142 H 484.325 -5.02909 0.0955422 0
M  V30 5143 H 484.025 -5.60833 1.75328 0
M  V30 5144 H 485.549 -6.0356 0.924516 0
M  V30 5145 H 486.963 -4.93777 2.91303 0
M  V30 5146 H 485.36 -4.74076 3.67929 0
M  V30 5147 H 486.43 -3.33636 3.51873 0
M  V30 5148 N 487.773 -1.03688 -1.18687 0
M  V30 5149 C 489.02 -0.73803 -1.88572 0
M  V30 5150 C 489.348 0.733973 -1.8012 0
M  V30 5151 O 488.603 1.55098 -1.19344 0
M  V30 5152 C 488.902 -1.14477 -3.3857 0
M  V30 5153 C 488.568 -2.61641 -3.67226 0
M  V30 5154 C 487.23 -3.01846 -3.74757 0
M  V30 5155 C 489.582 -3.56812 -3.79914 0
M  V30 5156 C 486.91 -4.36118 -3.92451 0
M  V30 5157 C 489.262 -4.90799 -3.99123 0
M  V30 5158 C 487.926 -5.3068 -4.04888 0
M  V30 5159 H 487.196 -0.270064 -0.690034 0
M  V30 5160 H 489.843 -1.3012 -1.40503 0
M  V30 5161 H 488.148 -0.500337 -3.88592 0
M  V30 5162 H 489.845 -0.89095 -3.90977 0
M  V30 5163 H 486.435 -2.29498 -3.61979 0
M  V30 5164 H 490.619 -3.26899 -3.73431 0
M  V30 5165 H 485.875 -4.66542 -3.95157 0
M  V30 5166 H 490.049 -5.64451 -4.07882 0
M  V30 5167 H 487.676 -6.34733 -4.18351 0
M  V30 5168 N 489.251 1.34841 -0.815825 0
M  V30 5169 C 490.662 1.80937 -0.46029 0
M  V30 5170 C 491.013 1.67685 1.01863 0
M  V30 5171 O 490.138 1.21277 1.79223 0
M  V30 5172 C 490.733 3.28509 -0.828708 0
M  V30 5173 C 489.292 3.72712 -0.525644 0
M  V30 5174 C 488.439 2.56676 -1.04941 0
M  V30 5175 H 491.39 1.22688 -1.00664 0
M  V30 5176 H 491.411 3.80279 -0.129757 0
M  V30 5177 H 490.923 3.38122 -1.90513 0
M  V30 5178 H 489.024 3.68642 0.541666 0
M  V30 5179 H 489.137 4.67119 -1.06474 0
M  V30 5180 H 487.501 2.50302 -0.471286 0
M  V30 5181 H 488.284 2.69063 -2.13214 0
M  V30 5182 N 490.729 0.570148 1.46925 0
M  V30 5183 C 491.677 -0.183181 2.31878 0
M  V30 5184 C 492.671 -0.896721 1.43719 0
M  V30 5185 O 493.877 -0.816536 1.60414 0
M  V30 5186 H 490.252 -0.077944 0.74795 0
M  V30 5187 H 492.223 0.552312 2.93244 0
M  V30 5188 C 490.972 -1.19172 3.2664 0
M  V30 5189 H 490.295 -0.652088 3.94446 0
M  V30 5190 H 491.735 -1.68946 3.88887 0
M  V30 5191 C 490.194 -2.24627 2.51086 0
M  V30 5192 O 490.724 -3.31773 2.26472 0
M  V30 5193 N 488.93 -1.98898 2.11867 0
M  V30 5194 H 488.477 -1.11777 2.32086 0
M  V30 5195 H 488.435 -2.6967 1.61634 0
M  V30 5196 N 492.207 -1.54576 0.307264 0
M  V30 5197 C 493.435 -2.04675 -0.302597 0
M  V30 5198 C 493.85 -1.18425 -1.47041 0
M  V30 5199 O 493.207 -0.211257 -1.81273 0
M  V30 5200 C 493.258 -3.53575 -0.752801 0
M  V30 5201 O 492.979 -4.36547 0.368536 0
M  V30 5202 C 494.48 -4.19699 -1.42717 0
M  V30 5203 H 491.7 -0.66786 -0.0648374 0
M  V30 5204 H 494.244 -1.99516 0.448716 0
M  V30 5205 H 492.399 -3.59074 -1.45412 0
M  V30 5206 H 492.813 -5.24497 0.0168937 0
M  V30 5207 H 494.287 -5.25388 -1.69327 0
M  V30 5208 H 494.764 -3.69815 -2.36925 0
M  V30 5209 H 495.37 -4.18293 -0.768856 0
M  V30 5210 N 493.685 -0.035106 -1.57561 0
M  V30 5211 C 494.618 0.979673 -2.06101 0
M  V30 5212 C 495.596 1.31378 -0.958046 0
M  V30 5213 O 496.78 1.42942 -1.22881 0
M  V30 5214 C 493.907 2.29809 -2.48808 0
M  V30 5215 C 492.953 2.11817 -3.70184 0
M  V30 5216 S 493.786 1.41143 -5.16565 0
M  V30 5217 C 494.942 2.74341 -5.62572 0
M  V30 5218 H 495.175 0.566506 -2.91853 0
M  V30 5219 H 492.708 0.176744 -1.53385 0
M  V30 5220 H 494.666 3.056 -2.74078 0
M  V30 5221 H 493.327 2.68257 -1.63392 0
M  V30 5222 H 492.52 3.09299 -3.97933 0
M  V30 5223 H 492.122 1.44168 -3.45097 0
M  V30 5224 H 494.414 3.70562 -5.67177 0
M  V30 5225 H 495.357 2.51249 -6.62027 0
M  V30 5226 H 495.765 2.79863 -4.90242 0
M  V30 5227 N 495.163 1.55791 0.238111 0
M  V30 5228 C 496.093 1.94068 1.29846 0
M  V30 5229 C 497.074 0.806726 1.49753 0
M  V30 5230 O 498.259 1.06772 1.62214 0
M  V30 5231 C 495.389 2.24302 2.65153 0
M  V30 5232 C 494.343 3.40032 2.59927 0
M  V30 5233 C 493.669 3.55829 3.99111 0
M  V30 5234 C 494.969 4.75476 2.16148 0
M  V30 5235 H 496.663 2.82887 0.980563 0
M  V30 5236 H 494.209 1.36105 0.470253 0
M  V30 5237 H 496.162 2.4967 3.39475 0
M  V30 5238 H 494.886 1.32318 2.98596 0
M  V30 5239 H 493.545 3.14687 1.88063 0
M  V30 5240 H 493.193 2.6125 4.29834 0
M  V30 5241 H 492.893 4.3366 3.96501 0
M  V30 5242 H 494.417 3.83528 4.7512 0
M  V30 5243 H 495.831 5.00158 2.80205 0
M  V30 5244 H 494.228 5.56472 2.24631 0
M  V30 5245 H 495.298 4.71946 1.11333 0
M  V30 5246 N 496.642 -0.504142 1.49319 0
M  V30 5247 C 497.889 -1.25846 1.58647 0
M  V30 5248 C 498.217 -1.92592 0.27177 0
M  V30 5249 O 497.472 -1.81167 -0.74007 0
M  V30 5250 C 497.771 -2.35021 2.69258 0
M  V30 5251 C 497.437 -1.85755 4.1086 0
M  V30 5252 C 496.099 -1.72038 4.49395 0
M  V30 5253 C 498.451 -1.48844 4.99495 0
M  V30 5254 C 495.779 -1.19783 5.74342 0
M  V30 5255 C 498.131 -0.980422 6.24956 0
M  V30 5256 C 496.795 -0.829622 6.62324 0
M  V30 5257 H 496.065 -0.460505 0.580531 0
M  V30 5258 H 498.712 -0.559716 1.83138 0
M  V30 5259 H 497.017 -3.10672 2.38726 0
M  V30 5260 H 498.714 -2.93083 2.73685 0
M  V30 5261 H 495.304 -1.9739 3.80441 0
M  V30 5262 H 499.488 -1.5829 4.70381 0
M  V30 5263 H 494.744 -1.06817 6.01997 0
M  V30 5264 H 498.918 -0.685608 6.93017 0
M  V30 5265 H 496.545 -0.42253 7.59025 0
M  V30 5266 N 498.12 -1.38341 -0.754957 0
M  V30 5267 C 499.083 -1.35262 -1.85032 0
M  V30 5268 C 500.083 -0.253393 -1.58791 0
M  V30 5269 O 501.273 -0.510205 -1.66561 0
M  V30 5270 C 498.405 -1.10544 -3.22479 0
M  V30 5271 H 499.598 -2.32712 -1.8917 0
M  V30 5272 H 497.151 -1.23614 -0.956515 0
M  V30 5273 H 497.886 -0.136952 -3.24011 0
M  V30 5274 H 497.671 -1.90127 -3.4292 0
M  V30 5275 H 499.161 -1.11082 -4.02555 0
M  V30 5276 N 499.598 0.982988 -1.23187 0
M  V30 5277 C 500.823 1.76455 -1.08988 0
M  V30 5278 C 501.248 1.84726 0.354691 0
M  V30 5279 O 500.606 1.30699 1.25649 0
M  V30 5280 C 500.654 3.17094 -1.71708 0
M  V30 5281 O 499.758 4.00648 -0.977477 0
M  V30 5282 H 499.099 0.542988 -0.382177 0
M  V30 5283 H 501.629 1.23413 -1.63188 0
M  V30 5284 H 501.639 3.67684 -1.76841 0
M  V30 5285 H 500.314 3.10389 -2.76823 0
M  V30 5286 H 498.891 3.59161 -1.0029 0
M  V30 5287 N 501.076 1.04316 1.18135 0
M  V30 5288 C 501.986 0.646876 2.25505 0
M  V30 5289 C 503.002 -0.328008 1.7088 0
M  V30 5290 O 504.178 -0.182309 2.00573 0
M  V30 5291 C 501.243 0.0185664 3.46695 0
M  V30 5292 C 500.304 1.04277 4.16443 0
M  V30 5293 C 499.537 0.444352 5.31847 0
M  V30 5294 O 499.76 -0.748735 5.65465 0
M  V30 5295 O 498.694 1.17428 5.90334 0
M  V30 5296 H 502.52 1.54147 2.61672 0
M  V30 5297 H 500.105 0.814188 1.25265 0
M  V30 5298 H 501.987 -0.331068 4.20097 0
M  V30 5299 H 500.662 -0.849814 3.12346 0
M  V30 5300 H 499.569 1.44425 3.45098 0
M  V30 5301 H 500.902 1.882 4.54798 0
M  V30 5302 N 502.554 -1.34406 0.822964 0
M  V30 5303 C 503.517 -2.2783 0.250271 0
M  V30 5304 C 504.517 -1.50288 -0.571854 0
M  V30 5305 O 505.707 -1.69825 -0.387952 0
M  V30 5306 C 502.839 -3.34663 -0.649137 0
M  V30 5307 H 504.032 -2.79992 1.07444 0
M  V30 5308 H 501.585 -1.44539 0.594829 0
M  V30 5309 H 502.32 -2.87714 -1.49637 0
M  V30 5310 H 502.105 -3.92052 -0.0611199 0
M  V30 5311 H 503.595 -4.04349 -1.04363 0
M  V30 5312 N 504.032 -0.577932 -1.46621 0
M  V30 5313 C 505.272 -0.0643097 -2.04299 0
M  V30 5314 C 505.636 1.26967 -1.44026 0
M  V30 5315 O 506.837 1.87224 -1.92875 0
M  V30 5316 C 505.108 0.00547588 -3.574 0
M  V30 5317 S 506.667 0.462216 -4.36359 0
M  V30 5318 H 503.485 -0.0351573 -0.71013 0
M  V30 5319 H 506.087 -0.76935 -1.79725 0
M  V30 5320 H 504.791 -0.969423 -3.98786 0
M  V30 5321 H 504.322 0.733435 -3.86503 0
M  V30 5322 H 506.337 1.71791 -4.65513 0
M  V30 5323 N 505.51 1.54411 -0.315457 0
M  V30 5324 C 506.756 2.00716 0.289972 0
M  V30 5325 C 507.089 1.2034 1.5242 0
M  V30 5326 O 506.364 0.283579 1.92422 0
M  V30 5327 C 506.647 3.54507 0.632196 0
M  V30 5328 C 506.5 4.45615 -0.61218 0
M  V30 5329 C 507.819 4.15421 1.45305 0
M  V30 5330 H 504.938 0.729637 0.10392 0
M  V30 5331 H 507.58 1.8506 -0.430427 0
M  V30 5332 H 505.73 3.67979 1.24595 0
M  V30 5333 H 507.402 4.44026 -1.25053 0
M  V30 5334 H 505.645 4.15621 -1.24264 0
M  V30 5335 H 506.316 5.51022 -0.328379 0
M  V30 5336 H 508.792 4.05474 0.934331 0
M  V30 5337 H 507.668 5.23157 1.66127 0
M  V30 5338 H 507.929 3.68223 2.44671 0
M  V30 5339 N 506.988 0.0434614 1.5754 0
M  V30 5340 C 508.236 -0.630786 1.92004 0
M  V30 5341 C 508.557 -1.71836 0.921807 0
M  V30 5342 O 507.827 -1.9587 -0.034522 0
M  V30 5343 H 506.407 -0.235988 0.708745 0
M  V30 5344 H 509.069 0.0946462 1.9467 0
M  V30 5345 H 508.165 -1.07434 2.93026 0
M  V30 5346 N 508.466 -1.55915 -0.229846 0
M  V30 5347 C 509.691 -1.8296 -0.976743 0
M  V30 5348 C 510.116 -0.622735 -1.77493 0
M  V30 5349 O 509.474 0.428431 -1.76165 0
M  V30 5350 C 509.522 -3.07916 -1.8767 0
M  V30 5351 O 508.626 -2.86028 -2.97088 0
M  V30 5352 H 507.967 -0.603453 -0.277021 0
M  V30 5353 H 510.497 -2.0312 -0.245669 0
M  V30 5354 H 510.507 -3.37802 -2.2881 0
M  V30 5355 H 509.182 -3.95389 -1.28996 0
M  V30 5356 H 507.759 -2.67355 -2.59954 0
M  V30 5357 N 509.944 0.496216 -1.49584 0
M  V30 5358 C 510.891 1.59722 -1.66606 0
M  V30 5359 C 511.861 1.58158 -0.507477 0
M  V30 5360 O 513.046 1.76072 -0.735076 0
M  V30 5361 C 510.186 2.97844 -1.74308 0
M  V30 5362 C 509.299 3.09388 -3.01502 0
M  V30 5363 C 508.434 4.38271 -3.00153 0
M  V30 5364 C 507.473 4.43466 -4.21906 0
M  V30 5365 N 506.61 5.63784 -4.1844 0
M  V30 5366 H 511.45 1.44515 -2.60613 0
M  V30 5367 H 508.987 0.703048 -1.29212 0
M  V30 5368 H 510.945 3.77907 -1.76754 0
M  V30 5369 H 509.575 3.11743 -0.837619 0
M  V30 5370 H 508.627 2.22357 -3.08645 0
M  V30 5371 H 509.939 3.09085 -3.91494 0
M  V30 5372 H 509.093 5.2666 -3.01188 0
M  V30 5373 H 507.832 4.41146 -2.07947 0
M  V30 5374 H 506.837 3.53478 -4.21109 0
M  V30 5375 H 508.062 4.42303 -5.1531 0
M  V30 5376 H 506.008 5.67491 -3.29074 0
M  V30 5377 H 505.925 5.65118 -5.02173 0
M  V30 5378 H 507.193 6.54367 -4.23585 0
M  V30 5379 N 511.423 1.38739 0.74761 0
M  V30 5380 C 512.67 1.35274 1.50689 0
M  V30 5381 C 512.998 -0.0553359 1.94421 0
M  V30 5382 O 512.253 -1.03365 1.66175 0
M  V30 5383 C 512.552 2.25992 2.7688 0
M  V30 5384 C 512.218 3.73854 2.5208 0
M  V30 5385 C 510.88 4.14145 2.45025 0
M  V30 5386 C 513.232 4.67427 2.30568 0
M  V30 5387 C 510.56 5.4609 2.14483 0
M  V30 5388 C 512.912 5.99635 2.01545 0
M  V30 5389 C 511.576 6.39004 1.92951 0
M  V30 5390 H 510.846 0.495003 0.55141 0
M  V30 5391 H 513.493 1.71145 0.859158 0
M  V30 5392 H 511.798 1.83196 3.46333 0
M  V30 5393 H 513.495 2.20611 3.34861 0
M  V30 5394 H 510.085 3.41913 2.58444 0
M  V30 5395 H 514.269 4.3714 2.34994 0
M  V30 5396 H 509.525 5.75528 2.06342 0
M  V30 5397 H 513.699 6.71678 1.83906 0
M  V30 5398 H 511.326 7.41165 1.6905 0
M  V30 5399 N 512.901 -0.976442 1.23707 0
M  V30 5400 C 514.147 -1.72158 1.08319 0
M  V30 5401 C 514.502 -1.88701 -0.375445 0
M  V30 5402 O 513.795 -1.43107 -1.274 0
M  V30 5403 C 513.989 -3.11814 1.74662 0
M  V30 5404 C 513.818 -3.08892 3.26827 0
M  V30 5405 C 512.588 -3.13861 3.96004 0
M  V30 5406 C 514.786 -2.9175 4.2354 0
M  V30 5407 N 512.768 -3.00867 5.35119 0
M  V30 5408 C 514.139 -2.8696 5.49595 0
M  V30 5409 C 516.194 -2.76265 4.14225 0
M  V30 5410 C 514.897 -2.68268 6.67401 0
M  V30 5411 C 516.923 -2.58938 5.317 0
M  V30 5412 C 516.285 -2.54849 6.56682 0
M  V30 5413 H 512.384 -0.638896 0.450927 0
M  V30 5414 H 514.968 -1.15835 1.56494 0
M  V30 5415 H 513.139 -3.66347 1.29014 0
M  V30 5416 H 514.871 -3.74984 1.52215 0
M  V30 5417 H 511.626 -3.22198 3.4711 0
M  V30 5418 H 512.05 -2.97634 6.08065 0
M  V30 5419 H 516.692 -2.78213 3.18366 0
M  V30 5420 H 514.41 -2.65063 7.63392 0
M  V30 5421 H 517.996 -2.47914 5.26336 0
M  V30 5422 H 516.876 -2.41611 7.46052 0
M  V30 5423 N 514.379 -1.04941 -1.1758 0
M  V30 5424 C 515.289 -0.658826 -2.25159 0
M  V30 5425 C 516.305 0.318941 -1.71052 0
M  V30 5426 O 517.481 0.171669 -2.00667 0
M  V30 5427 C 514.546 -0.0369522 -3.4668 0
M  V30 5428 C 513.607 -1.06484 -4.15884 0
M  V30 5429 C 512.84 -0.472551 -5.31604 0
M  V30 5430 O 513.063 0.718736 -5.65854 0
M  V30 5431 O 511.997 -1.20557 -5.89703 0
M  V30 5432 H 515.823 -1.55533 -2.60851 0
M  V30 5433 H 513.408 -0.820819 -1.24832 0
M  V30 5434 H 515.29 0.308784 -4.20267 0
M  V30 5435 H 513.965 0.833238 -3.12792 0
M  V30 5436 H 512.872 -1.46253 -3.44327 0
M  V30 5437 H 514.205 -1.9061 -4.53794 0
M  V30 5438 N 515.857 1.33968 -0.830081 0
M  V30 5439 C 516.789 2.28194 -0.21448 0
M  V30 5440 C 517.802 1.5135 0.599752 0
M  V30 5441 O 518.991 1.73286 0.42826 0
M  V30 5442 C 516.091 3.31221 0.717356 0
M  V30 5443 C 515.264 4.37365 -0.055613 0
M  V30 5444 C 514.323 5.2011 0.798231 0
M  V30 5445 O 513.349 5.68691 0.240616 0
M  V30 5446 N 514.551 5.40523 2.11695 0
M  V30 5447 H 517.316 2.81662 -1.02405 0
M  V30 5448 H 514.877 1.46568 -0.687713 0
M  V30 5449 H 516.869 3.83477 1.29334 0
M  V30 5450 H 515.439 2.78095 1.42765 0
M  V30 5451 H 514.659 3.85727 -0.812936 0
M  V30 5452 H 515.947 5.05397 -0.587444 0
M  V30 5453 H 515.345 5.0274 2.59363 0
M  V30 5454 H 513.902 5.95871 2.64162 0
M  V30 5455 N 517.335 0.585699 1.46312 0
M  V30 5456 C 518.56 0.0762461 2.0726 0
M  V30 5457 C 518.985 -1.22071 1.43109 0
M  V30 5458 O 518.343 -1.73804 0.515942 0
M  V30 5459 C 518.391 -0.0729404 3.60526 0
M  V30 5460 O 517.495 -1.1287 3.96654 0
M  V30 5461 H 516.836 0.0641558 0.660893 0
M  V30 5462 H 519.366 0.809492 1.87905 0
M  V30 5463 H 519.376 -0.278158 4.07051 0
M  V30 5464 H 518.051 0.874188 4.06609 0
M  V30 5465 H 516.628 -0.901703 3.61834 0
M  V30 5466 N 518.813 -1.54241 0.323641 0
M  V30 5467 C 520.059 -2.00867 -0.279323 0
M  V30 5468 C 520.392 -1.21146 -1.5178 0
M  V30 5469 O 519.667 -0.29378 -1.92269 0
M  V30 5470 C 519.95 -3.54837 -0.613387 0
M  V30 5471 C 519.803 -4.45284 0.635803 0
M  V30 5472 C 521.122 -4.16186 -1.43099 0
M  V30 5473 H 518.241 -0.730177 -0.100049 0
M  V30 5474 H 520.883 -1.84829 0.440235 0
M  V30 5475 H 519.033 -3.68634 -1.22641 0
M  V30 5476 H 520.705 -4.43357 1.27406 0
M  V30 5477 H 518.948 -4.14956 1.26466 0
M  V30 5478 H 519.619 -5.5084 0.357597 0
M  V30 5479 H 522.095 -4.05964 -0.912814 0
M  V30 5480 H 520.971 -5.24031 -1.6335 0
M  V30 5481 H 521.232 -3.69516 -2.42715 0
M  V30 5482 N 520.291 -0.0518155 -1.57515 0
M  V30 5483 C 521.707 0.304735 -1.56664 0
M  V30 5484 C 521.907 1.71395 -1.05953 0
M  V30 5485 O 520.963 2.42123 -0.716414 0
M  V30 5486 C 522.276 0.132614 -3.00407 0
M  V30 5487 C 523.824 0.20367 -3.12337 0
M  V30 5488 C 524.299 0.0600706 -4.57961 0
M  V30 5489 N 525.79 0.116326 -4.63054 0
M  V30 5490 C 526.525 0.0293363 -5.73392 0
M  V30 5491 N 526.021 -0.110038 -6.92713 0
M  V30 5492 N 527.814 0.0849651 -5.62036 0
M  V30 5493 H 519.965 -0.973056 -1.888 0
M  V30 5494 H 522.228 -0.377781 -0.869474 0
M  V30 5495 H 521.934 -0.839019 -3.41546 0
M  V30 5496 H 521.808 0.893376 -3.66468 0
M  V30 5497 H 524.195 1.16578 -2.71097 0
M  V30 5498 H 524.276 -0.587857 -2.48954 0
M  V30 5499 H 523.92 -0.898715 -4.99886 0
M  V30 5500 H 523.85 0.87075 -5.19351 0
M  V30 5501 H 526.341 0.22327 -3.7724 0
M  V30 5502 H 526.654 -0.169104 -7.72615 0
M  V30 5503 H 524.999 -0.145132 -6.94848 0
M  V30 5504 H 528.19 0.192411 -4.67704 0
M  V30 5505 H 528.363 0.0137131 -6.47999 0
M  V30 5506 N 521.769 1.56035 0.221574 0
M  V30 5507 C 522.699 1.95434 1.2778 0
M  V30 5508 C 523.68 0.822564 1.48889 0
M  V30 5509 O 524.865 1.08486 1.61072 0
M  V30 5510 C 521.995 2.27102 2.62759 0
M  V30 5511 C 520.949 3.4277 2.56306 0
M  V30 5512 C 520.275 3.60043 3.95314 0
M  V30 5513 C 521.575 4.77742 2.11093 0
M  V30 5514 H 523.269 2.83912 0.950504 0
M  V30 5515 H 520.815 1.36596 0.455791 0
M  V30 5516 H 522.768 2.53256 3.36807 0
M  V30 5517 H 521.492 1.35478 2.97176 0
M  V30 5518 H 520.151 3.16664 1.84715 0
M  V30 5519 H 519.799 2.65794 4.27039 0
M  V30 5520 H 519.499 4.37841 3.91879 0
M  V30 5521 H 521.023 3.88545 4.71025 0
M  V30 5522 H 522.437 5.03102 2.74885 0
M  V30 5523 H 520.834 5.58823 2.18716 0
M  V30 5524 H 521.904 4.731 1.06321 0
M  V30 5525 N 523.247 -0.488276 1.49845 0
M  V30 5526 C 524.495 -1.23911 1.59657 0
M  V30 5527 C 524.816 -1.92816 0.291005 0
M  V30 5528 O 524.086 -1.83328 -0.690485 0
M  V30 5529 H 522.666 -0.460357 0.588286 0
M  V30 5530 H 525.328 -0.564794 1.86537 0
M  V30 5531 H 524.424 -1.99625 2.39909 0
M  V30 5532 N 524.725 -1.39134 -0.740242 0
M  V30 5533 C 525.95 -1.39518 -1.53459 0
M  V30 5534 C 526.375 0.00968883 -1.88098 0
M  V30 5535 O 525.733 0.995312 -1.51536 0
M  V30 5536 C 525.781 -2.26981 -2.802 0
M  V30 5537 O 524.885 -1.69609 -3.75908 0
M  V30 5538 H 524.226 -0.475328 -0.463637 0
M  V30 5539 H 526.756 -1.83064 -0.913717 0
M  V30 5540 H 526.766 -2.41309 -3.28989 0
M  V30 5541 H 525.441 -3.29081 -2.5432 0
M  V30 5542 H 524.018 -1.64495 -3.34658 0
M  V30 5543 N 526.204 0.969867 -1.24223 0
M  V30 5544 C 527.45 1.71582 -1.09231 0
M  V30 5545 C 527.805 1.88898 0.365432 0
M  V30 5546 O 527.098 1.43781 1.2664 0
M  V30 5547 C 527.292 3.10883 -1.76314 0
M  V30 5548 C 527.121 3.07155 -3.2846 0
M  V30 5549 C 525.891 3.11757 -3.97663 0
M  V30 5550 C 528.089 2.895 -4.25082 0
M  V30 5551 N 526.071 2.98025 -5.36707 0
M  V30 5552 C 527.442 2.84041 -5.51109 0
M  V30 5553 C 529.497 2.74064 -4.15684 0
M  V30 5554 C 528.2 2.64725 -6.68815 0
M  V30 5555 C 530.226 2.56115 -5.33066 0
M  V30 5556 C 529.588 2.51363 -6.58024 0
M  V30 5557 H 525.687 0.636496 -0.454309 0
M  V30 5558 H 528.271 1.15004 -1.57106 0
M  V30 5559 H 526.442 3.65657 -1.30955 0
M  V30 5560 H 528.174 3.74171 -1.54201 0
M  V30 5561 H 524.929 3.20352 -3.48814 0
M  V30 5562 H 525.353 2.94405 -6.09635 0
M  V30 5563 H 529.995 2.76521 -3.19837 0
M  V30 5564 H 527.713 2.61011 -7.64787 0
M  V30 5565 H 531.299 2.45119 -5.27644 0
M  V30 5566 H 530.179 2.37651 -7.47323 0
M  V30 5567 N 527.682 1.05563 1.17022 0
M  V30 5568 C 528.959 0.68165 1.83338 0
M  V30 5569 C 529.339 -0.837665 1.93769 0
M  V30 5570 O 528.687 -1.74507 1.47511 0
M  V30 5571 C 528.897 1.375 3.20772 0
M  V30 5572 C 530.245 1.51545 3.96635 0
M  V30 5573 O 531.269 1.33431 3.30264 0
M  V30 5574 O 530.128 1.812 5.15586 0
M  V30 5575 H 527.222 0.240412 0.791285 0
M  V30 5576 H 529.768 1.15545 1.24288 0
M  V30 5577 H 528.54 2.41135 3.08171 0
M  V30 5578 H 528.163 0.890798 3.87493 0
M  V30 5579 N 529.16 -1.33526 0.837174 0
M  V30 5580 C 530.576 -1.50727 0.524743 0
M  V30 5581 C 530.776 -1.77792 -0.948279 0
M  V30 5582 O 529.832 -1.83719 -1.73216 0
M  V30 5583 C 531.145 -2.66299 1.39661 0
M  V30 5584 C 532.693 -2.80183 1.39521 0
M  V30 5585 C 533.168 -3.98815 2.25189 0
M  V30 5586 N 534.659 -4.06047 2.2289 0
M  V30 5587 C 535.394 -4.97032 2.85915 0
M  V30 5588 N 534.89 -5.93143 3.57985 0
M  V30 5589 N 536.683 -4.90015 2.75394 0
M  V30 5590 H 528.834 -1.1422 1.79074 0
M  V30 5591 H 531.097 -0.561399 0.763894 0
M  V30 5592 H 530.803 -2.52974 2.4433 0
M  V30 5593 H 530.677 -3.61663 1.07145 0
M  V30 5594 H 533.064 -2.92942 0.356253 0
M  V30 5595 H 533.145 -1.85586 1.76044 0
M  V30 5596 H 532.789 -3.86817 3.29143 0
M  V30 5597 H 532.719 -4.92654 1.86009 0
M  V30 5598 H 535.21 -3.37262 1.70478 0
M  V30 5599 H 535.523 -6.59227 4.03286 0
M  V30 5600 H 533.868 -5.93223 3.62093 0
M  V30 5601 H 537.059 -4.13894 2.18654 0
M  V30 5602 H 537.232 -5.60724 3.24796 0
M  V30 5603 N 530.638 -0.59345 -1.46 0
M  V30 5604 C 531.886 -0.082988 -2.0193 0
M  V30 5605 C 532.207 1.28569 -1.46612 0
M  V30 5606 O 531.477 1.84629 -0.654909 0
M  V30 5607 H 530.057 -0.0276882 -0.746487 0
M  V30 5608 H 532.719 -0.771657 -1.78973 0
M  V30 5609 H 531.815 -0.022079 -3.12092 0
M  V30 5610 N 532.116 1.54067 -0.331816 0
M  V30 5611 C 533.049 2.20886 0.573127 0
M  V30 5612 C 534.027 1.18876 1.10938 0
M  V30 5613 O 535.211 1.47649 1.17184 0
M  V30 5614 C 532.338 2.87706 1.78726 0
M  V30 5615 C 531.384 4.03505 1.38152 0
M  V30 5616 S 532.217 5.33919 0.41123 0
M  V30 5617 C 533.373 6.04236 1.63246 0
M  V30 5618 H 533.606 2.97299 0.00555737 0
M  V30 5619 H 531.139 1.53964 -0.115893 0
M  V30 5620 H 533.097 3.26825 2.48386 0
M  V30 5621 H 531.758 2.1108 2.32603 0
M  V30 5622 H 530.951 4.49152 2.28645 0
M  V30 5623 H 530.553 3.66102 0.764524 0
M  V30 5624 H 532.845 6.26917 2.56869 0
M  V30 5625 H 533.788 6.97546 1.218 0
M  V30 5626 H 534.196 5.34247 1.82318 0
M  V30 5627 N 533.594 0.0601682 1.57485 0
M  V30 5628 C 534.526 -0.94047 2.09016 0
M  V30 5629 C 535.539 -1.26897 1.01985 0
M  V30 5630 O 536.728 -1.22819 1.29529 0
M  V30 5631 C 533.828 -2.25955 2.52582 0
M  V30 5632 C 533.001 -2.11163 3.83052 0
M  V30 5633 C 532.06 -3.26273 4.12835 0
M  V30 5634 O 531.086 -3.01779 4.82616 0
M  V30 5635 N 532.288 -4.51022 3.65458 0
M  V30 5636 H 535.053 -0.500578 2.9549 0
M  V30 5637 H 532.614 -0.125852 1.6141 0
M  V30 5638 H 534.606 -3.01846 2.69575 0
M  V30 5639 H 533.176 -2.61481 1.71308 0
M  V30 5640 H 532.396 -1.19808 3.75552 0
M  V30 5641 H 533.684 -1.98517 4.68475 0
M  V30 5642 H 533.082 -4.73811 3.09062 0
M  V30 5643 H 531.639 -5.23978 3.87673 0
M  V30 5644 N 535.072 -1.5615 -0.213296 0
M  V30 5645 C 536.302 -1.83372 -0.951757 0
M  V30 5646 C 536.71 -0.638158 -1.78113 0
M  V30 5647 O 536.053 0.402609 -1.79234 0
M  V30 5648 C 536.115 -3.04444 -1.91192 0
M  V30 5649 C 535.779 -4.39107 -1.26627 0
M  V30 5650 C 536.776 -5.15794 -0.652087 0
M  V30 5651 C 534.461 -4.85834 -1.27556 0
M  V30 5652 C 536.455 -6.37376 -0.055814 0
M  V30 5653 C 534.142 -6.07356 -0.675451 0
M  V30 5654 C 535.14 -6.82967 -0.0666367 0
M  V30 5655 O 534.828 -8.0219 0.524119 0
M  V30 5656 H 534.56 -0.613398 -0.284111 0
M  V30 5657 H 537.114 -2.04096 -0.231112 0
M  V30 5658 H 535.344 -2.79559 -2.67178 0
M  V30 5659 H 537.033 -3.18466 -2.51662 0
M  V30 5660 H 537.799 -4.80796 -0.637172 0
M  V30 5661 H 533.678 -4.26949 -1.73883 0
M  V30 5662 H 537.222 -6.96334 0.420004 0
M  V30 5663 H 533.119 -6.41825 -0.687806 0
M  V30 5664 H 533.887 -8.17426 0.419243 0
M  V30 5665 N 536.55 0.480323 -1.50102 0
M  V30 5666 C 537.775 1.26126 -1.64642 0
M  V30 5667 C 538.2 1.85257 -0.325823 0
M  V30 5668 O 537.558 1.66854 0.709194 0
M  V30 5669 C 537.606 2.35243 -2.73301 0
M  V30 5670 O 536.71 3.39646 -2.33911 0
M  V30 5671 H 536.051 0.371463 -0.550374 0
M  V30 5672 H 538.581 0.572696 -1.96421 0
M  V30 5673 H 538.591 2.80695 -2.96098 0
M  V30 5674 H 537.266 1.91574 -3.6915 0
M  V30 5675 H 535.843 2.99969 -2.21525 0
M  V30 5676 N 538.028 1.39524 0.732853 0
M  V30 5677 C 538.978 1.34905 1.83806 0
M  V30 5678 C 539.962 0.229546 1.59254 0
M  V30 5679 O 541.154 0.467255 1.70721 0
M  V30 5680 C 538.283 1.19699 3.21756 0
M  V30 5681 C 537.369 2.36359 3.5213 0
M  V30 5682 N 537.76 3.61834 3.53426 0
M  V30 5683 C 536.058 2.29363 3.82503 0
M  V30 5684 C 536.759 4.38992 3.81655 0
M  V30 5685 N 535.735 3.68606 3.99538 0
M  V30 5686 H 539.537 2.29882 1.83116 0
M  V30 5687 H 537.051 1.33051 0.931194 0
M  V30 5688 H 539.048 1.14472 4.00876 0
M  V30 5689 H 537.708 0.256739 3.23683 0
M  V30 5690 H 538.719 3.95228 3.34686 0
M  V30 5691 H 535.396 1.43612 3.92023 0
M  V30 5692 H 536.786 5.47763 3.89108 0
M  V30 5693 N 539.506 -0.963266 1.24736 0
M  V30 5694 C 540.731 -1.74699 1.11781 0
M  V30 5695 C 541.156 -1.85267 -0.325258 0
M  V30 5696 O 540.514 -1.32681 -1.23553 0
M  V30 5697 C 540.562 -3.14322 1.76731 0
M  V30 5698 O 539.666 -3.99043 1.04109 0
M  V30 5699 H 539.007 -0.53684 0.390767 0
M  V30 5700 H 541.537 -1.20801 1.65131 0
M  V30 5701 H 541.547 -3.64824 1.82668 0
M  V30 5702 H 540.222 -3.05946 2.81726 0
M  V30 5703 H 538.799 -3.5752 1.05991 0
M  V30 5704 N 540.985 -1.06182 -1.16461 0
M  V30 5705 C 542.234 -0.772927 -1.86303 0
M  V30 5706 C 542.547 0.703187 -1.82523 0
M  V30 5707 O 543.753 1.10641 -2.47933 0
M  V30 5708 C 542.209 -1.33249 -3.34324 0
M  V30 5709 C 541.817 -2.83876 -3.46581 0
M  V30 5710 C 543.561 -1.12108 -4.09429 0
M  V30 5711 C 541.468 -3.33082 -4.88682 0
M  V30 5712 H 540.398 -0.285452 -0.697878 0
M  V30 5713 H 543.049 -1.28039 -1.31447 0
M  V30 5714 H 541.431 -0.7528 -3.88779 0
M  V30 5715 H 542.605 -3.47786 -3.02293 0
M  V30 5716 H 540.92 -3.03671 -2.84909 0
M  V30 5717 H 543.517 -1.46361 -5.14279 0
M  V30 5718 H 543.86 -0.0593832 -4.16258 0
M  V30 5719 H 544.393 -1.6665 -3.6121 0
M  V30 5720 H 541.132 -4.38726 -4.87032 0
M  V30 5721 H 540.652 -2.73919 -5.33599 0
M  V30 5722 H 542.331 -3.28344 -5.57494 0
M  V30 5723 N 542.463 1.3308 -0.844243 0
M  V30 5724 C 543.712 1.96868 -0.438833 0
M  V30 5725 C 544.025 1.67599 1.00846 0
M  V30 5726 O 545.231 2.25043 1.51881 0
M  V30 5727 C 543.687 3.5234 -0.73377 0
M  V30 5728 C 543.295 3.90481 -2.1961 0
M  V30 5729 C 545.039 4.22653 -0.395574 0
M  V30 5730 C 542.946 5.38954 -2.43481 0
M  V30 5731 H 541.876 0.736749 -0.160364 0
M  V30 5732 H 544.527 1.51623 -1.03358 0
M  V30 5733 H 542.909 3.95941 -0.068589 0
M  V30 5734 H 544.083 3.57922 -2.90221 0
M  V30 5735 H 542.398 3.33165 -2.4978 0
M  V30 5736 H 544.995 5.31848 -0.551477 0
M  V30 5737 H 545.338 4.11004 0.661921 0
M  V30 5738 H 545.871 3.84601 -1.01621 0
M  V30 5739 H 542.61 5.55612 -3.47816 0
M  V30 5740 H 542.13 5.72954 -1.77437 0
M  V30 5741 H 543.809 6.05907 -2.26905 0
M  V30 5742 N 543.941 0.601185 1.45683 0
M  V30 5743 C 545.169 0.100054 2.06658 0
M  V30 5744 C 545.584 -1.21285 1.44691 0
M  V30 5745 O 544.941 -1.73735 0.558772 0
M  V30 5746 C 544.992 -0.0528579 3.61461 0
M  V30 5747 O 544.713 1.20809 4.21114 0
M  V30 5748 C 546.214 -0.586193 4.39407 0
M  V30 5749 H 543.434 0.065905 0.667756 0
M  V30 5750 H 545.978 0.827101 1.87028 0
M  V30 5751 H 544.133 -0.730203 3.80456 0
M  V30 5752 H 544.547 1.03368 5.14213 0
M  V30 5753 H 546.021 -0.642297 5.4825 0
M  V30 5754 H 546.498 -1.60713 4.0874 0
M  V30 5755 H 547.104 0.0568935 4.25262 0
M  V30 5756 N 545.419 -1.53889 0.339982 0
M  V30 5757 C 546.367 -2.26391 -0.533822 0
M  V30 5758 C 547.361 -1.28404 -1.10493 0
M  V30 5759 O 548.567 -1.46124 -1.05108 0
M  V30 5760 H 544.942 -0.727385 -0.190828 0
M  V30 5761 H 546.913 -2.98233 0.0997484 0
M  V30 5762 C 545.662 -3.04707 -1.67479 0
M  V30 5763 H 544.985 -3.79934 -1.2446 0
M  V30 5764 H 546.425 -3.58657 -2.26144 0
M  V30 5765 C 544.884 -2.13989 -2.60212 0
M  V30 5766 O 545.414 -1.73361 -3.62366 0
M  V30 5767 N 543.62 -1.79141 -2.28816 0
M  V30 5768 H 543.167 -2.12378 -1.45785 0
M  V30 5769 H 543.125 -1.18725 -2.91121 0
M  V30 5770 N 546.897 -0.0685191 -1.57451 0
M  V30 5771 C 547.827 0.89747 -2.15564 0
M  V30 5772 C 548.808 1.31266 -1.08181 0
M  V30 5773 O 549.993 1.38429 -1.36202 0
M  V30 5774 C 547.123 2.16623 -2.71463 0
M  V30 5775 C 546.077 1.89054 -3.83982 0
M  V30 5776 C 545.403 3.22532 -4.26471 0
M  V30 5777 C 546.703 1.1984 -5.08366 0
M  V30 5778 H 548.397 0.413373 -2.96533 0
M  V30 5779 H 545.943 0.197391 -1.42641 0
M  V30 5780 H 547.896 2.84614 -3.10761 0
M  V30 5781 H 546.62 2.67269 -1.8771 0
M  V30 5782 H 545.279 1.23469 -3.45183 0
M  V30 5783 H 544.927 3.71013 -3.39644 0
M  V30 5784 H 544.627 3.04879 -5.02317 0
M  V30 5785 H 546.151 3.91727 -4.68383 0
M  V30 5786 H 547.565 1.77896 -5.45001 0
M  V30 5787 H 545.962 1.12456 -5.89469 0
M  V30 5788 H 547.032 0.176996 -4.84577 0
M  V30 5789 N 548.375 1.56261 0.205012 0
M  V30 5790 C 549.305 1.96779 1.257 0
M  V30 5791 C 550.286 0.838309 1.48008 0
M  V30 5792 O 551.471 1.10189 1.59913 0
M  V30 5793 C 548.601 2.29876 2.60335 0
M  V30 5794 C 547.555 3.45469 2.52656 0
M  V30 5795 C 546.881 3.64215 3.91473 0
M  V30 5796 C 548.181 4.79954 2.06014 0
M  V30 5797 H 549.875 2.84904 0.920338 0
M  V30 5798 H 547.421 1.37072 0.441277 0
M  V30 5799 H 549.374 2.56814 3.34102 0
M  V30 5800 H 548.098 1.38622 2.95722 0
M  V30 5801 H 546.757 3.18605 1.81345 0
M  V30 5802 H 546.405 2.70309 4.24196 0
M  V30 5803 H 546.105 4.41973 3.87213 0
M  V30 5804 H 547.629 3.93519 4.66878 0
M  V30 5805 H 549.043 5.05989 2.69533 0
M  V30 5806 H 547.44 5.61111 2.12777 0
M  V30 5807 H 548.51 4.74201 1.01297 0
M  V30 5808 N 549.853 -0.472356 1.50355 0
M  V30 5809 C 551.083 -1.24603 1.64796 0
M  V30 5810 C 551.491 -1.86297 0.330156 0
M  V30 5811 O 550.834 -1.69934 -0.697728 0
M  V30 5812 C 550.896 -2.39578 2.68035 0
M  V30 5813 C 550.56 -1.98531 4.11624 0
M  V30 5814 C 551.557 -1.50856 4.97532 0
M  V30 5815 C 549.242 -2.0729 4.57532 0
M  V30 5816 C 551.236 -1.12481 6.27397 0
M  V30 5817 C 548.923 -1.68527 5.87403 0
M  V30 5818 C 549.921 -1.212 6.7216 0
M  V30 5819 O 549.609 -0.829728 7.99607 0
M  V30 5820 H 549.341 -0.383035 0.55701 0
M  V30 5821 H 551.895 -0.570392 1.97321 0
M  V30 5822 H 550.125 -3.10309 2.30749 0
M  V30 5823 H 551.814 -3.01544 2.71709 0
M  V30 5824 H 552.58 -1.43511 4.63281 0
M  V30 5825 H 548.459 -2.43076 3.91708 0
M  V30 5826 H 552.003 -0.754698 6.93506 0
M  V30 5827 H 547.9 -1.7553 6.21176 0
M  V30 5828 H 548.668 -0.958689 8.12866 0
M  V30 5829 N 551.331 -1.39911 -0.725443 0
M  V30 5830 C 552.281 -1.35878 -1.83088 0
M  V30 5831 C 553.265 -0.237989 -1.5913 0
M  V30 5832 O 554.457 -0.476302 -1.70471 0
M  V30 5833 C 551.586 -1.21403 -3.21117 0
M  V30 5834 C 550.672 -2.38223 -3.50871 0
M  V30 5835 N 551.063 -3.63703 -3.51502 0
M  V30 5836 C 549.361 -2.31388 -3.81281 0
M  V30 5837 C 550.062 -4.4101 -3.79322 0
M  V30 5838 N 549.038 -3.7072 -3.97577 0
M  V30 5839 H 552.84 -2.3085 -1.81895 0
M  V30 5840 H 550.354 -1.33543 -0.924125 0
M  V30 5841 H 552.351 -1.16597 -4.00263 0
M  V30 5842 H 551.011 -0.273902 -3.23543 0
M  V30 5843 H 552.022 -3.96998 -3.32586 0
M  V30 5844 H 548.699 -1.45689 -3.91256 0
M  V30 5845 H 550.089 -5.49819 -3.86198 0
M  V30 5846 N 552.809 0.956637 -1.25245 0
M  V30 5847 C 554.055 1.70352 -1.10036 0
M  V30 5848 C 554.388 1.90869 0.358156 0
M  V30 5849 O 553.663 1.47819 1.26411 0
M  V30 5850 C 553.946 3.08766 -1.85298 0
M  V30 5851 C 553.799 2.95672 -3.38966 0
M  V30 5852 C 555.118 4.08622 -1.63451 0
M  V30 5853 H 552.237 0.618279 -0.401123 0
M  V30 5854 H 554.879 1.11212 -1.54051 0
M  V30 5855 H 553.029 3.59252 -1.47887 0
M  V30 5856 H 554.701 2.52527 -3.86041 0
M  V30 5857 H 552.944 2.31634 -3.6678 0
M  V30 5858 H 553.615 3.93776 -3.86839 0
M  V30 5859 H 556.091 3.67038 -1.96015 0
M  V30 5860 H 554.967 5.03514 -2.18551 0
M  V30 5861 H 555.228 4.3834 -0.575357 0
M  V30 5862 N 554.287 1.06798 1.15896 0
M  V30 5863 C 555.533 0.788934 1.86825 0
M  V30 5864 C 555.866 -0.683084 1.8179 0
M  V30 5865 O 555.141 -1.50086 1.23711 0
M  V30 5866 C 555.424 1.29065 3.36176 0
M  V30 5867 C 555.277 2.8268 3.49874 0
M  V30 5868 C 556.596 0.902655 4.30744 0
M  V30 5869 H 553.715 0.288066 0.678371 0
M  V30 5870 H 556.357 1.32479 1.36195 0
M  V30 5871 H 554.507 0.834806 3.79425 0
M  V30 5872 H 556.179 3.36511 3.15528 0
M  V30 5873 H 554.422 3.21157 2.91617 0
M  V30 5874 H 555.093 3.12852 4.54783 0
M  V30 5875 H 557.569 1.29535 3.95424 0
M  V30 5876 H 556.445 1.28111 5.3374 0
M  V30 5877 H 556.706 -0.191951 4.41683 0
M  V30 5878 N 555.766 -1.3263 0.851289 0
M  V30 5879 C 557.014 -1.96978 0.452128 0
M  V30 5880 C 557.335 -1.67715 -0.99482 0
M  V30 5881 O 556.605 -0.98259 -1.69476 0
M  V30 5882 H 555.185 -0.72873 0.164202 0
M  V30 5883 H 557.847 -1.61774 1.08698 0
M  V30 5884 H 556.943 -3.06387 0.594407 0
M  V30 5885 N 557.244 -0.608902 -1.45362 0
M  V30 5886 C 558.49 -0.113196 -2.03085 0
M  V30 5887 C 558.845 1.24288 -1.46868 0
M  V30 5888 O 558.138 1.80792 -0.634402 0
M  V30 5889 C 558.332 -0.0167296 -3.57396 0
M  V30 5890 C 558.161 -1.36191 -4.28581 0
M  V30 5891 C 556.931 -1.94295 -4.66452 0
M  V30 5892 C 559.129 -2.29097 -4.60455 0
M  V30 5893 N 557.111 -3.2228 -5.22503 0
M  V30 5894 C 558.482 -3.41681 -5.17353 0
M  V30 5895 C 560.537 -2.28453 -4.42395 0
M  V30 5896 C 559.24 -4.53789 -5.58093 0
M  V30 5897 C 561.266 -3.39608 -4.8417 0
M  V30 5898 C 560.628 -4.50915 -5.41161 0
M  V30 5899 H 556.727 -0.0848213 -0.777386 0
M  V30 5900 H 559.311 -0.807541 -1.77163 0
M  V30 5901 H 557.482 0.646839 -3.82976 0
M  V30 5902 H 559.214 0.485757 -4.01774 0
M  V30 5903 H 555.969 -1.47486 -4.5005 0
M  V30 5904 H 556.393 -3.87654 -5.55025 0
M  V30 5905 H 561.035 -1.43658 -3.97646 0
M  V30 5906 H 558.753 -5.39307 -6.01808 0
M  V30 5907 H 562.339 -3.40259 -4.71927 0
M  V30 5908 H 561.219 -5.35505 -5.72891 0
M  V30 5909 N 558.722 1.53707 -0.348139 0
M  V30 5910 C 559.95 2.05406 0.248224 0
M  V30 5911 C 560.365 1.22282 1.43849 0
M  V30 5912 O 559.722 0.259244 1.80649 0
M  V30 5913 C 559.773 3.55446 0.658793 0
M  V30 5914 O 559.494 4.35417 -0.484149 0
M  V30 5915 C 560.995 4.23335 1.31539 0
M  V30 5916 H 558.215 0.669344 0.0471075 0
M  V30 5917 H 560.759 1.98257 -0.501456 0
M  V30 5918 H 558.914 3.62803 1.35841 0
M  V30 5919 H 559.328 5.24268 -0.155949 0
M  V30 5920 H 560.802 5.29692 1.55338 0
M  V30 5921 H 561.279 3.75967 2.27036 0
M  V30 5922 H 561.885 4.20184 0.657683 0
M  V30 5923 N 560.2 0.0768682 1.57412 0
M  V30 5924 C 561.477 -0.632359 1.85096 0
M  V30 5925 C 561.857 -1.87479 0.9703 0
M  V30 5926 O 561.205 -2.28469 0.0379062 0
M  V30 5927 C 561.415 -0.965174 3.35388 0
M  V30 5928 C 562.763 -1.33648 4.03018 0
M  V30 5929 O 563.787 -1.05675 3.40164 0
M  V30 5930 O 562.646 -1.85959 5.13889 0
M  V30 5931 H 559.74 -0.314574 0.764835 0
M  V30 5932 H 562.286 0.108184 1.69355 0
M  V30 5933 H 561.058 -0.0829745 3.91212 0
M  V30 5934 H 560.681 -1.76231 3.5641 0
M  V30 5935 N 561.678 -1.56367 -0.196722 0
M  V30 5936 C 562.924 -1.81698 -0.914182 0
M  V30 5937 C 563.279 -0.65367 -1.80956 0
M  V30 5938 O 562.572 0.351224 -1.88353 0
M  V30 5939 C 562.766 -3.10663 -1.767 0
M  V30 5940 C 562.595 -4.39428 -0.955689 0
M  V30 5941 C 561.365 -5.01221 -0.64076 0
M  V30 5942 C 563.563 -5.1337 -0.309165 0
M  V30 5943 N 561.545 -6.13608 0.189358 0
M  V30 5944 C 562.916 -6.18815 0.383225 0
M  V30 5945 C 564.971 -4.97393 -0.224726 0
M  V30 5946 C 563.674 -7.10015 1.15201 0
M  V30 5947 C 565.7 -5.89014 0.530658 0
M  V30 5948 C 565.062 -6.93903 1.2115 0
M  V30 5949 H 561.161 -0.716203 -0.31397 0
M  V30 5950 H 563.745 -1.93838 -0.18304 0
M  V30 5951 H 561.916 -2.99762 -2.46976 0
M  V30 5952 H 563.648 -3.24088 -2.42382 0
M  V30 5953 H 560.403 -4.63669 -0.96479 0
M  V30 5954 H 560.827 -6.74389 0.593979 0
M  V30 5955 H 565.469 -4.16331 -0.736754 0
M  V30 5956 H 563.187 -7.9054 1.67547 0
M  V30 5957 H 566.773 -5.78726 0.597326 0
M  V30 5958 H 565.653 -7.63576 1.78665 0
M  V30 5959 N 563.156 0.464375 -1.50603 0
M  V30 5960 C 564.104 1.58224 -1.70493 0
M  V30 5961 C 565.098 1.59492 -0.570836 0
M  V30 5962 O 566.304 1.63561 -0.751517 0
M  V30 5963 H 562.679 0.525161 -0.538247 0
M  V30 5964 H 564.65 1.38613 -2.64252 0
M  V30 5965 C 563.399 2.96113 -1.82243 0
M  V30 5966 H 562.722 2.95858 -2.68901 0
M  V30 5967 H 564.162 3.73769 -2.00182 0
M  V30 5968 C 562.621 3.31946 -0.575628 0
M  V30 5969 O 563.151 4.00708 0.282152 0
M  V30 5970 N 561.357 2.87436 -0.427665 0
M  V30 5971 H 560.904 2.31652 -1.12674 0
M  V30 5972 H 560.862 3.11776 0.405379 0
M  V30 5973 N 564.634 1.40294 0.718013 0
M  V30 5974 C 565.564 1.43118 1.84498 0
M  V30 5975 C 566.545 0.292403 1.67568 0
M  V30 5976 O 567.73 0.500675 1.87635 0
M  V30 5977 C 564.86 1.29065 3.22427 0
M  V30 5978 C 563.814 2.40521 3.54025 0
M  V30 5979 C 563.14 2.11546 4.91073 0
M  V30 5980 C 564.44 3.82859 3.55269 0
M  V30 5981 H 566.134 2.37432 1.82391 0
M  V30 5982 H 563.68 1.14283 0.87609 0
M  V30 5983 H 565.633 1.29658 4.00957 0
M  V30 5984 H 564.357 0.312271 3.25104 0
M  V30 5985 H 563.016 2.39173 2.77834 0
M  V30 5986 H 562.664 1.12104 4.90348 0
M  V30 5987 H 562.364 2.86216 5.1318 0
M  V30 5988 H 563.888 2.13817 5.71939 0
M  V30 5989 H 565.302 3.86044 4.23843 0
M  V30 5990 H 563.699 4.57029 3.88902 0
M  V30 5991 H 564.769 4.12617 2.54706 0
M  V30 5992 N 566.112 -0.949982 1.2575 0
M  V30 5993 C 567.075 -2.02894 1.06615 0
M  V30 5994 C 568.075 -1.60791 0.0173905 0
M  V30 5995 O 569.265 -1.72249 0.260003 0
M  V30 5996 C 566.397 -3.35219 0.619751 0
M  V30 5997 H 567.59 -2.21302 2.02399 0
M  V30 5998 H 565.143 -1.12772 1.08223 0
M  V30 5999 H 565.878 -3.22508 -0.340486 0
M  V30 6000 H 565.663 -3.67129 1.37692 0
M  V30 6001 H 567.153 -4.14505 0.507443 0
M  V30 6002 N 567.59 -1.07411 -1.15328 0
M  V30 6003 C 568.52 -0.716472 -2.22236 0
M  V30 6004 C 569.501 0.296373 -1.67498 0
M  V30 6005 O 570.686 0.168989 -1.93463 0
M  V30 6006 C 567.816 -0.114142 -3.47112 0
M  V30 6007 C 566.77 -1.05421 -4.14814 0
M  V30 6008 C 566.096 -0.314604 -5.33774 0
M  V30 6009 C 567.396 -2.38808 -4.64508 0
M  V30 6010 H 569.09 -1.61029 -2.52408 0
M  V30 6011 H 566.636 -0.775702 -1.21321 0
M  V30 6012 H 568.589 0.148001 -4.2114 0
M  V30 6013 H 567.313 0.814755 -3.16274 0
M  V30 6014 H 565.972 -1.30128 -3.42728 0
M  V30 6015 H 565.62 0.617772 -4.99192 0
M  V30 6016 H 565.32 -0.941209 -5.80013 0
M  V30 6017 H 566.844 -0.0602747 -6.1057 0
M  V30 6018 H 568.258 -2.18424 -5.3006 0
M  V30 6019 H 566.655 -2.97069 -5.21412 0
M  V30 6020 H 567.725 -3.01067 -3.80114 0
M  V30 6021 N 569.068 1.32177 -0.85831 0
M  V30 6022 C 570.016 2.30729 -0.294442 0
M  V30 6023 C 571.01 1.59009 0.584165 0
M  V30 6024 O 572.216 1.73713 0.471562 0
M  V30 6025 H 568.591 0.748097 -0.0765171 0
M  V30 6026 H 570.562 2.75774 -1.1398 0
M  V30 6027 C 569.311 3.44098 0.499208 0
M  V30 6028 H 568.634 3.99449 -0.167579 0
M  V30 6029 H 570.074 4.15202 0.859273 0
M  V30 6030 C 568.533 2.91684 1.68588 0
M  V30 6031 O 569.063 2.89481 2.78503 0
M  V30 6032 N 567.269 2.48036 1.51415 0
M  V30 6033 H 566.816 2.50027 0.620006 0
M  V30 6034 H 566.774 2.13322 2.30957 0
M  V30 6035 N 570.547 0.616602 1.45037 0
M  V30 6036 C 571.958 0.199359 1.85633 0
M  V30 6037 C 572.309 -1.24588 1.51566 0
M  V30 6038 O 571.434 -1.94594 0.94668 0
M  V30 6039 C 572.029 0.355033 3.36935 0
M  V30 6040 C 570.588 -0.00758748 3.76399 0
M  V30 6041 C 569.735 0.675256 2.68953 0
M  V30 6042 H 572.686 0.822708 1.3571 0
M  V30 6043 H 572.707 -0.410201 3.78282 0
M  V30 6044 H 572.219 1.40699 3.61698 0
M  V30 6045 H 570.32 -1.05837 3.57252 0
M  V30 6046 H 570.433 0.392346 4.77491 0
M  V30 6047 H 568.797 0.111992 2.54454 0
M  V30 6048 H 569.58 1.72952 2.96551 0
M  V30 6049 N 572.025 -1.5352 0.356285 0
M  V30 6050 C 572.935 -2.29151 -0.502712 0
M  V30 6051 C 573.951 -1.34753 -1.1008 0
M  V30 6052 O 575.127 -1.67803 -1.11374 0
M  V30 6053 C 572.192 -3.05911 -1.63154 0
M  V30 6054 C 571.253 -4.15958 -1.06194 0
M  V30 6055 C 570.486 -4.8905 -2.13696 0
M  V30 6056 O 570.709 -4.61919 -3.34645 0
M  V30 6057 O 569.643 -5.75202 -1.77275 0
M  V30 6058 H 573.469 -3.03492 0.112466 0
M  V30 6059 H 571.054 -1.4891 0.120942 0
M  V30 6060 H 572.936 -3.53874 -2.28804 0
M  V30 6061 H 571.611 -2.34415 -2.23229 0
M  V30 6062 H 570.518 -3.7227 -0.369603 0
M  V30 6063 H 571.851 -4.89593 -0.505872 0
M  V30 6064 N 573.503 -0.0852151 -1.57369 0
M  V30 6065 C 574.751 0.579658 -1.93609 0
M  V30 6066 C 575.072 1.69332 -0.967043 0
M  V30 6067 O 574.342 1.95892 -0.0174215 0
M  V30 6068 H 572.922 0.217113 -0.714752 0
M  V30 6069 H 575.584 -0.146226 -1.94351 0
M  V30 6070 H 574.68 0.996276 -2.95771 0
M  V30 6071 N 574.981 1.5647 0.188427 0
M  V30 6072 C 576.229 1.80655 0.905986 0
M  V30 6073 C 576.55 0.659391 1.83513 0
M  V30 6074 O 575.82 -0.321868 1.93238 0
M  V30 6075 H 574.4 0.666391 0.337538 0
M  V30 6076 H 577.062 1.93949 0.192339 0
M  V30 6077 H 576.158 2.74066 1.49313 0
M  V30 6078 N 576.459 -0.456382 1.50847 0
M  V30 6079 C 577.87 -1.03685 1.55262 0
M  V30 6080 C 578.221 -1.92779 0.364771 0
M  V30 6081 O 577.346 -2.10043 -0.52068 0
M  V30 6082 C 577.941 -1.88718 2.81374 0
M  V30 6083 C 576.5 -2.41847 2.88422 0
M  V30 6084 C 575.647 -1.20564 2.49719 0
M  V30 6085 H 578.598 -0.238399 1.56899 0
M  V30 6086 H 578.619 -2.73957 2.6406 0
M  V30 6087 H 578.131 -1.23847 3.67809 0
M  V30 6088 H 576.232 -3.10228 2.06372 0
M  V30 6089 H 576.345 -2.75947 3.9165 0
M  V30 6090 H 574.709 -1.54504 2.02486 0
M  V30 6091 H 575.492 -0.573326 3.38479 0
M  V30 6092 N 577.937 -1.40673 -0.710563 0
M  V30 6093 C 578.885 -1.41517 -1.84596 0
M  V30 6094 C 579.879 -0.295043 -1.66811 0
M  V30 6095 O 581.085 -0.466331 -1.73854 0
M  V30 6096 H 577.46 -0.442467 -0.608052 0
M  V30 6097 H 579.431 -2.37238 -1.80999 0
M  V30 6098 C 578.18 -1.29957 -3.225 0
M  V30 6099 H 577.503 -2.15429 -3.36794 0
M  V30 6100 H 578.943 -1.34608 -4.02066 0
M  V30 6101 C 577.402 -0.0103164 -3.36898 0
M  V30 6102 O 577.932 0.950707 -3.90288 0
M  V30 6103 N 576.138 0.0608409 -2.90536 0
M  V30 6104 H 575.685 -0.721943 -2.47277 0
M  V30 6105 H 575.643 0.92292 -3.00549 0
M  V30 6106 N 579.415 0.9433 -1.26252 0
M  V30 6107 C 580.661 1.69226 -1.12846 0
M  V30 6108 C 581.016 1.8963 0.325282 0
M  V30 6109 O 580.309 1.46435 1.23561 0
M  V30 6110 C 580.503 3.07073 -1.82868 0
M  V30 6111 C 580.332 3.00118 -3.34902 0
M  V30 6112 C 579.102 3.03251 -4.04186 0
M  V30 6113 C 581.3 2.80418 -4.31127 0
M  V30 6114 N 579.282 2.86573 -5.42908 0
M  V30 6115 C 580.653 2.72287 -5.5701 0
M  V30 6116 C 582.708 2.65185 -4.21404 0
M  V30 6117 C 581.411 2.50479 -6.74279 0
M  V30 6118 C 583.437 2.4475 -5.38378 0
M  V30 6119 C 582.799 2.37349 -6.63208 0
M  V30 6120 H 578.898 0.626716 -0.467708 0
M  V30 6121 H 581.482 1.11645 -1.5951 0
M  V30 6122 H 579.653 3.62797 -1.38682 0
M  V30 6123 H 581.385 3.70816 -1.62103 0
M  V30 6124 H 578.14 3.12882 -3.55531 0
M  V30 6125 H 578.564 2.81408 -6.15742 0
M  V30 6126 H 583.206 2.69675 -3.25631 0
M  V30 6127 H 580.924 2.4473 -7.70151 0
M  V30 6128 H 584.51 2.33872 -5.32724 0
M  V30 6129 H 583.39 2.21746 -7.52196 0
M  V30 6130 N 580.893 1.08022 1.14757 0
M  V30 6131 C 582.139 0.808705 1.85978 0
M  V30 6132 C 582.472 -0.663764 1.82504 0
M  V30 6133 O 581.747 -1.48765 1.25296 0
M  V30 6134 C 582.03 1.32623 3.34788 0
M  V30 6135 C 581.883 2.86375 3.46856 0
M  V30 6136 C 583.202 0.948291 4.29762 0
M  V30 6137 H 580.321 0.295244 0.675278 0
M  V30 6138 H 582.963 1.33917 1.34783 0
M  V30 6139 H 581.113 0.875002 3.78518 0
M  V30 6140 H 582.785 3.39839 3.11941 0
M  V30 6141 H 581.028 3.24232 2.88194 0
M  V30 6142 H 581.699 3.17658 4.51439 0
M  V30 6143 H 584.175 1.33722 3.94028 0
M  V30 6144 H 583.051 1.33765 5.32352 0
M  V30 6145 H 583.312 -0.145094 4.41862 0
M  V30 6146 N 582.371 -1.3172 0.865308 0
M  V30 6147 C 583.787 -1.4958 0.556596 0
M  V30 6148 C 583.987 -1.79763 -0.910353 0
M  V30 6149 O 583.043 -1.87351 -1.6928 0
M  V30 6150 C 584.356 -2.63277 1.45279 0
M  V30 6151 C 585.904 -2.77161 1.45433 0
M  V30 6152 C 586.379 -3.93949 2.33598 0
M  V30 6153 N 587.87 -4.01228 2.31453 0
M  V30 6154 C 588.605 -4.90855 2.96393 0
M  V30 6155 N 588.101 -5.85416 3.70486 0
M  V30 6156 N 589.894 -4.84063 2.85726 0
M  V30 6157 H 582.045 -1.10396 1.81456 0
M  V30 6158 H 584.308 -0.54507 0.775631 0
M  V30 6159 H 584.014 -2.47734 2.49641 0
M  V30 6160 H 583.888 -3.59309 1.14792 0
M  V30 6161 H 586.275 -2.9212 0.41831 0
M  V30 6162 H 586.356 -1.8181 1.79941 0
M  V30 6163 H 586 -3.79748 3.37274 0
M  V30 6164 H 585.93 -4.88598 1.96417 0
M  V30 6165 H 588.421 -3.3357 1.77593 0
M  V30 6166 H 588.734 -6.50525 4.17178 0
M  V30 6167 H 587.079 -5.85409 3.74594 0
M  V30 6168 H 590.27 -4.09163 2.27384 0
M  V30 6169 H 590.443 -5.53708 3.36617 0
M  V30 6170 N 583.85 -0.624285 -1.44708 0
M  V30 6171 C 584.798 0.0969952 -2.32398 0
M  V30 6172 C 585.792 0.842762 -1.46949 0
M  V30 6173 O 586.998 0.756436 -1.63334 0
M  V30 6174 H 583.373 0.0501306 -0.750327 0
M  V30 6175 H 585.344 -0.660767 -2.90992 0
M  V30 6176 C 584.093 1.06967 -3.30837 0
M  V30 6177 H 583.416 0.505242 -3.96595 0
M  V30 6178 H 584.856 1.54397 -3.94889 0
M  V30 6179 C 583.315 2.15153 -2.5925 0
M  V30 6180 O 583.845 3.23139 -2.3863 0
M  V30 6181 N 582.051 1.90898 -2.19103 0
M  V30 6182 H 581.598 1.03086 -2.36074 0
M  V30 6183 H 581.556 2.63485 -1.71531 0
M  V30 6184 N 585.328 1.53329 -0.364422 0
M  V30 6185 C 586.575 2.01239 0.225634 0
M  V30 6186 C 586.903 1.25172 1.48869 0
M  V30 6187 O 586.158 0.333289 1.92841 0
M  V30 6188 C 586.457 3.52911 0.564661 0
M  V30 6189 C 586.123 4.46837 -0.603936 0
M  V30 6190 C 584.785 4.72234 -0.924585 0
M  V30 6191 C 587.137 5.02409 -1.38691 0
M  V30 6192 C 584.465 5.50454 -2.0302 0
M  V30 6193 C 586.817 5.81836 -2.48293 0
M  V30 6194 C 585.481 6.0552 -2.80894 0
M  V30 6195 H 584.751 0.736386 0.0825654 0
M  V30 6196 H 587.398 1.84948 -0.496645 0
M  V30 6197 H 585.703 3.67144 1.36794 0
M  V30 6198 H 587.4 3.87455 1.03344 0
M  V30 6199 H 583.99 4.27217 -0.343983 0
M  V30 6200 H 588.174 4.82735 -1.15243 0
M  V30 6201 H 583.43 5.67024 -2.28678 0
M  V30 6202 H 587.604 6.23905 -3.0938 0
M  V30 6203 H 585.231 6.65916 -3.66688 0
M  V30 6204 N 586.806 0.0935595 1.57322 0
M  V30 6205 C 588.052 -0.571355 1.94585 0
M  V30 6206 C 588.385 -1.67929 0.975366 0
M  V30 6207 O 587.66 -1.94498 0.00816206 0
M  V30 6208 C 587.943 -1.12797 3.41978 0
M  V30 6209 C 587.796 -0.0251881 4.49793 0
M  V30 6210 C 589.115 -2.02682 3.90651 0
M  V30 6211 H 586.234 -0.206223 0.70756 0
M  V30 6212 H 588.876 0.163956 1.89291 0
M  V30 6213 H 587.026 -1.75461 3.4662 0
M  V30 6214 H 588.698 0.608979 4.57263 0
M  V30 6215 H 586.941 0.641399 4.29032 0
M  V30 6216 H 587.612 -0.455433 5.50118 0
M  V30 6217 H 590.088 -1.49925 3.88152 0
M  V30 6218 H 588.964 -2.38555 4.94351 0
M  V30 6219 H 589.225 -2.94362 3.29854 0
M  V30 6220 N 588.284 -1.56567 -0.180126 0
M  V30 6221 C 589.561 -1.7235 -0.924931 0
M  V30 6222 C 589.941 -0.652523 -2.00762 0
M  V30 6223 O 589.289 0.334115 -2.26044 0
M  V30 6224 C 589.499 -3.1523 -1.49771 0
M  V30 6225 C 590.847 -3.75921 -1.97405 0
M  V30 6226 O 591.871 -3.18452 -1.59583 0
M  V30 6227 O 590.73 -4.7681 -2.67048 0
M  V30 6228 H 587.824 -0.703502 -0.434758 0
M  V30 6229 H 590.37 -1.6886 -0.168647 0
M  V30 6230 H 589.142 -3.84656 -0.718027 0
M  V30 6231 H 588.765 -3.23009 -2.31842 0
M  V30 6232 N 589.762 0.448376 -1.51087 0
M  V30 6233 C 590.987 1.22605 -1.6728 0
M  V30 6234 C 591.412 1.84524 -0.365045 0
M  V30 6235 O 590.77 1.6832 0.673642 0
M  V30 6236 C 590.818 2.29393 -2.78229 0
M  V30 6237 O 589.922 3.34608 -2.41063 0
M  V30 6238 H 589.263 0.359705 -0.558129 0
M  V30 6239 H 591.793 0.530903 -1.97592 0
M  V30 6240 H 591.803 2.74352 -3.01986 0
M  V30 6241 H 590.478 1.83701 -3.73131 0
M  V30 6242 H 589.055 2.95202 -2.27838 0
M  V30 6243 N 591.24 1.41047 0.703093 0
M  V30 6244 C 592.651 1.35657 1.28274 0
M  V30 6245 C 593.002 0.0360309 1.96167 0
M  V30 6246 O 592.127 -0.865833 1.98324 0
M  V30 6247 C 592.722 2.45707 2.33267 0
M  V30 6248 C 591.281 2.43738 2.86825 0
M  V30 6249 C 590.428 2.25941 1.60767 0
M  V30 6250 H 593.379 1.50672 0.49836 0
M  V30 6251 H 593.4 2.14333 3.14391 0
M  V30 6252 H 592.912 3.41805 1.83824 0
M  V30 6253 H 591.013 1.51375 3.40465 0
M  V30 6254 H 591.126 3.39779 3.37768 0
M  V30 6255 H 589.49 1.73681 1.86298 0
M  V30 6256 H 590.273 3.24054 1.1333 0
M  V30 6257 N 592.718 -0.936591 1.26751 0
M  V30 6258 C 593.967 -1.67778 1.11953 0
M  V30 6259 C 594.28 -1.92694 -0.33589 0
M  V30 6260 O 595.486 -2.64682 -0.604618 0
M  V30 6261 C 593.942 -3.02138 1.95551 0
M  V30 6262 C 593.55 -2.84953 3.45696 0
M  V30 6263 C 595.294 -3.79917 1.89377 0
M  V30 6264 C 593.201 -4.14814 4.21525 0
M  V30 6265 H 592.131 -0.629275 0.415366 0
M  V30 6266 H 594.782 -1.04122 1.51099 0
M  V30 6267 H 593.164 -3.668 1.49243 0
M  V30 6268 H 594.338 -2.29112 3.99805 0
M  V30 6269 H 592.653 -2.20612 3.53156 0
M  V30 6270 H 595.25 -4.76134 2.43312 0
M  V30 6271 H 595.593 -4.07204 0.865464 0
M  V30 6272 H 596.126 -3.22037 2.33532 0
M  V30 6273 H 592.865 -3.92709 5.24843 0
M  V30 6274 H 592.385 -4.70352 3.72195 0
M  V30 6275 H 594.064 -4.83239 4.3022 0
M  V30 6276 N 594.196 -1.08629 -1.14182 0
M  V30 6277 C 595.445 -0.812271 -1.84621 0
M  V30 6278 C 595.758 0.664313 -1.83973 0
M  V30 6279 O 596.964 1.05357 -2.50224 0
M  V30 6280 C 595.42 -1.4031 -3.31423 0
M  V30 6281 C 595.028 -2.91164 -3.40481 0
M  V30 6282 C 596.772 -1.20767 -4.06959 0
M  V30 6283 C 594.679 -3.43373 -4.81507 0
M  V30 6284 H 593.609 -0.30019 -0.691666 0
M  V30 6285 H 596.26 -1.30798 -1.28701 0
M  V30 6286 H 594.642 -0.835096 -3.87094 0
M  V30 6287 H 595.816 -3.5412 -2.94848 0
M  V30 6288 H 594.131 -3.09646 -2.78403 0
M  V30 6289 H 596.728 -1.57237 -5.11058 0
M  V30 6290 H 597.071 -0.147664 -4.16038 0
M  V30 6291 H 597.604 -1.74274 -3.57594 0
M  V30 6292 H 594.343 -4.48958 -4.77616 0
M  V30 6293 H 593.863 -2.85176 -5.27669 0
M  V30 6294 H 595.542 -3.40095 -5.50404 0
M  V30 6295 N 595.674 1.31259 -0.872281 0
M  V30 6296 C 596.92 1.96913 -0.485083 0
M  V30 6297 C 597.253 1.68774 0.960667 0
M  V30 6298 O 596.528 0.985495 1.67685 0
M  V30 6299 C 596.811 3.52299 -0.745502 0
M  V30 6300 C 596.664 3.90002 -2.24095 0
M  V30 6301 C 597.983 4.39582 -0.213516 0
M  V30 6302 H 595.102 0.715252 -0.177716 0
M  V30 6303 H 597.744 1.55347 -1.09395 0
M  V30 6304 H 595.894 3.87835 -0.227276 0
M  V30 6305 H 597.566 3.64555 -2.82661 0
M  V30 6306 H 595.809 3.38526 -2.71261 0
M  V30 6307 H 596.48 4.98352 -2.37381 0
M  V30 6308 H 598.956 4.10882 -0.656902 0
M  V30 6309 H 597.832 5.47251 -0.42516 0
M  V30 6310 H 598.093 4.33158 0.884666 0
M  V30 6311 N 597.152 0.631951 1.44375 0
M  V30 6312 C 598.429 0.067646 1.95483 0
M  V30 6313 C 598.809 -1.40683 1.57389 0
M  V30 6314 O 598.157 -2.12167 0.848375 0
M  V30 6315 C 598.367 0.291392 3.47781 0
M  V30 6316 C 599.715 0.185028 4.24197 0
M  V30 6317 O 600.739 0.222803 3.55503 0
M  V30 6318 O 599.598 0.0906642 5.46425 0
M  V30 6319 H 596.692 -0.0218379 0.826712 0
M  V30 6320 H 599.238 0.703711 1.54421 0
M  V30 6321 H 598.01 1.31449 3.68561 0
M  V30 6322 H 597.633 -0.378772 3.95792 0
M  V30 6323 N 598.631 -1.53133 0.372548 0
M  V30 6324 C 599.88 -2.00539 -0.216115 0
M  V30 6325 C 600.193 -1.26374 -1.49295 0
M  V30 6326 O 601.399 -1.64404 -2.16064 0
M  V30 6327 C 599.855 -3.57253 -0.435678 0
M  V30 6328 C 599.463 -4.40302 0.82693 0
M  V30 6329 C 601.207 -4.12995 -0.981618 0
M  V30 6330 C 599.114 -5.88583 0.576567 0
M  V30 6331 H 598.044 -0.749246 -0.084536 0
M  V30 6332 H 600.695 -1.76771 0.492364 0
M  V30 6333 H 599.077 -3.77202 -1.20559 0
M  V30 6334 H 600.251 -4.32124 1.60017 0
M  V30 6335 H 598.566 -3.95699 1.29659 0
M  V30 6336 H 601.163 -5.21418 -1.18436 0
M  V30 6337 H 601.506 -3.68027 -1.94581 0
M  V30 6338 H 602.039 -3.96871 -0.271696 0
M  V30 6339 H 598.778 -6.37841 1.51128 0
M  V30 6340 H 598.298 -5.99592 -0.158047 0
M  V30 6341 H 599.977 -6.46676 0.204722 0
M  V30 6342 N 600.109 -0.101901 -1.5727 0
M  V30 6343 C 601.337 0.568392 -1.98939 0
M  V30 6344 C 601.752 1.61301 -0.981194 0
M  V30 6345 O 601.109 1.82478 0.0282869 0
M  V30 6346 C 601.16 1.20997 -3.40649 0
M  V30 6347 O 600.881 0.207129 -4.3761 0
M  V30 6348 C 602.382 1.96523 -3.97358 0
M  V30 6349 H 599.602 0.15186 -0.65359 0
M  V30 6350 H 602.146 -0.183198 -2.03678 0
M  V30 6351 H 600.301 1.91245 -3.36904 0
M  V30 6352 H 600.715 0.671071 -5.20189 0
M  V30 6353 H 602.189 2.36764 -4.98645 0
M  V30 6354 H 602.666 2.83376 -3.35552 0
M  V30 6355 H 603.272 1.31076 -4.04598 0
M  V30 6356 N 601.587 1.56661 0.17182 0
M  V30 6357 C 602.534 1.96371 1.21273 0
M  V30 6358 C 603.504 0.82756 1.44016 0
M  V30 6359 O 604.689 1.08764 1.56764 0
M  V30 6360 C 601.829 2.32838 2.54716 0
M  V30 6361 C 600.942 3.59628 2.39356 0
M  V30 6362 C 600.077 3.85311 3.65662 0
M  V30 6363 C 599.116 5.0545 3.45234 0
M  V30 6364 N 598.253 5.27268 4.63608 0
M  V30 6365 H 603.093 2.85106 0.86709 0
M  V30 6366 H 600.63 1.41073 0.416744 0
M  V30 6367 H 602.588 2.52004 3.3249 0
M  V30 6368 H 601.218 1.47214 2.87277 0
M  V30 6369 H 600.27 3.4838 1.52761 0
M  V30 6370 H 601.582 4.4756 2.20207 0
M  V30 6371 H 600.736 4.04841 4.51872 0
M  V30 6372 H 599.475 2.95753 3.8779 0
M  V30 6373 H 598.48 4.85819 2.5741 0
M  V30 6374 H 599.705 5.96538 3.24529 0
M  V30 6375 H 597.651 4.40662 4.85956 0
M  V30 6376 H 597.568 6.09422 4.4737 0
M  V30 6377 H 598.836 5.51277 5.51103 0
M  V30 6378 N 603.065 -0.440357 1.51323 0
M  V30 6379 C 604.342 -1.20109 1.5438 0
M  V30 6380 C 604.722 -2.08866 0.306303 0
M  V30 6381 O 604.07 -2.1723 -0.708773 0
M  V30 6382 C 604.28 -2.00555 2.8562 0
M  V30 6383 C 605.628 -2.577 3.37455 0
M  V30 6384 O 606.652 -2.10769 2.8715 0
M  V30 6385 O 605.511 -3.43289 4.25224 0
M  V30 6386 H 602.605 -0.546668 0.620551 0
M  V30 6387 H 605.151 -0.449672 1.63634 0
M  V30 6388 H 603.923 -1.35346 3.67147 0
M  V30 6389 H 603.546 -2.82768 2.79514 0
M  V30 6390 N 604.543 -1.41418 -0.695603 0
M  V30 6391 C 605.771 -1.4413 -1.48439 0
M  V30 6392 C 606.186 -0.0465698 -1.88743 0
M  V30 6393 O 605.543 0.934117 -1.56782 0
M  V30 6394 C 605.594 -2.34998 -2.74696 0
M  V30 6395 O 605.315 -3.69043 -2.36091 0
M  V30 6396 C 606.816 -2.46513 -3.68438 0
M  V30 6397 H 604.036 -0.490905 -0.457442 0
M  V30 6398 H 606.58 -1.85702 -0.856454 0
M  V30 6399 H 604.735 -1.96735 -3.33728 0
M  V30 6400 H 605.149 -4.17505 -3.17474 0
M  V30 6401 H 606.623 -3.1426 -4.53811 0
M  V30 6402 H 607.1 -1.49638 -4.12922 0
M  V30 6403 H 607.706 -2.85412 -3.1531 0
M  V30 6404 N 606.021 0.929856 -1.27246 0
M  V30 6405 C 607.268 1.67731 -1.13457 0
M  V30 6406 C 607.596 1.9185 0.319998 0
M  V30 6407 O 606.851 1.50524 1.25064 0
M  V30 6408 C 607.15 3.05116 -1.86115 0
M  V30 6409 C 606.816 3.00715 -3.35978 0
M  V30 6410 C 605.478 2.99222 -3.76855 0
M  V30 6411 C 607.83 2.92168 -4.3161 0
M  V30 6412 C 605.158 2.86962 -5.11732 0
M  V30 6413 C 607.51 2.81449 -5.66542 0
M  V30 6414 C 606.174 2.78305 -6.06715 0
M  V30 6415 H 605.444 0.613772 -0.415168 0
M  V30 6416 H 608.091 1.08456 -1.57827 0
M  V30 6417 H 606.396 3.68083 -1.34246 0
M  V30 6418 H 608.093 3.61822 -1.72876 0
M  V30 6419 H 604.683 3.02664 -3.03468 0
M  V30 6420 H 608.867 2.92421 -4.01003 0
M  V30 6421 H 604.123 2.82913 -5.42006 0
M  V30 6422 H 608.297 2.738 -6.40317 0
M  V30 6423 H 605.924 2.68561 -7.11181 0
M  V30 6424 N 607.499 1.09233 1.13605 0
M  V30 6425 C 608.729 0.847677 1.88409 0
M  V30 6426 C 609.137 -0.604524 1.79282 0
M  V30 6427 O 608.48 -1.42773 1.15592 0
M  V30 6428 C 608.542 1.20153 3.38827 0
M  V30 6429 C 608.206 2.65824 3.71735 0
M  V30 6430 C 609.203 3.64072 3.71143 0
M  V30 6431 C 606.888 3.01894 4.01454 0
M  V30 6432 C 608.882 4.96419 3.99808 0
M  V30 6433 C 606.569 4.34433 4.29781 0
M  V30 6434 C 607.567 5.31505 4.28942 0
M  V30 6435 O 607.255 6.61659 4.56576 0
M  V30 6436 H 606.987 0.304813 0.603378 0
M  V30 6437 H 609.541 1.4573 1.44748 0
M  V30 6438 H 607.771 0.534946 3.82982 0
M  V30 6439 H 609.46 0.936349 3.94952 0
M  V30 6440 H 610.226 3.37549 3.4826 0
M  V30 6441 H 606.105 2.26971 4.01255 0
M  V30 6442 H 609.649 5.7218 3.99069 0
M  V30 6443 H 605.546 4.607 4.52135 0
M  V30 6444 H 606.314 6.67102 4.74254 0
M  V30 6445 N 608.977 -1.30795 0.87923 0
M  V30 6446 C 609.924 -2.28282 0.339968 0
M  V30 6447 C 610.894 -1.56134 -0.566685 0
M  V30 6448 O 612.079 -1.84231 -0.496338 0
M  V30 6449 C 609.219 -3.42225 -0.444501 0
M  V30 6450 C 608.332 -4.29204 0.490717 0
M  V30 6451 C 607.467 -5.30302 -0.308784 0
M  V30 6452 C 606.506 -6.08929 0.622272 0
M  V30 6453 N 605.643 -7.01957 -0.14155 0
M  V30 6454 H 610.483 -2.73794 1.17647 0
M  V30 6455 H 608.02 -1.34682 0.591527 0
M  V30 6456 H 609.978 -4.07038 -0.915186 0
M  V30 6457 H 608.608 -2.97799 -1.24562 0
M  V30 6458 H 607.66 -3.6475 1.07988 0
M  V30 6459 H 608.972 -4.84045 1.20425 0
M  V30 6460 H 608.126 -6.00835 -0.841575 0
M  V30 6461 H 606.865 -4.7614 -1.05556 0
M  V30 6462 H 605.87 -5.37278 1.16674 0
M  V30 6463 H 607.095 -6.65178 1.36804 0
M  V30 6464 H 605.041 -6.50192 -0.870966 0
M  V30 6465 H 604.958 -7.54261 0.51246 0
M  V30 6466 H 606.226 -7.76741 -0.655271 0
M  V30 6467 N 610.455 -0.639598 -1.44038 0
M  V30 6468 C 611.387 0.0987684 -2.28987 0
M  V30 6469 C 612.4 0.80058 -1.41755 0
M  V30 6470 O 613.589 0.660611 -1.65826 0
M  V30 6471 C 610.689 1.16242 -3.18341 0
M  V30 6472 C 609.862 0.541447 -4.34036 0
M  V30 6473 C 608.921 1.50017 -5.04362 0
M  V30 6474 O 607.947 1.01403 -5.60095 0
M  V30 6475 N 609.149 2.83441 -5.06598 0
M  V30 6476 H 611.914 -0.630305 -2.92997 0
M  V30 6477 H 609.475 -0.481376 -1.54578 0
M  V30 6478 H 611.467 1.80429 -3.62253 0
M  V30 6479 H 610.037 1.79362 -2.56024 0
M  V30 6480 H 609.257 -0.27923 -3.9321 0
M  V30 6481 H 610.545 0.107379 -5.08687 0
M  V30 6482 H 609.943 3.2551 -4.62666 0
M  V30 6483 H 608.5 3.42966 -5.54272 0
M  V30 6484 N 611.933 1.52934 -0.380664 0
M  V30 6485 C 613.344 1.86457 0.0952684 0
M  V30 6486 C 613.695 1.3007 1.46889 0
M  V30 6487 O 612.82 0.628636 2.07068 0
M  V30 6488 C 613.415 3.38323 0.179648 0
M  V30 6489 C 611.974 3.71589 0.599858 0
M  V30 6490 C 611.121 2.76228 -0.243572 0
M  V30 6491 H 614.072 1.46966 -0.59888 0
M  V30 6492 H 614.093 3.67113 1.00042 0
M  V30 6493 H 613.605 3.79333 -0.820228 0
M  V30 6494 H 611.706 3.36144 1.60742 0
M  V30 6495 H 611.819 4.77715 0.364003 0
M  V30 6496 H 610.183 2.53045 0.289855 0
M  V30 6497 H 610.966 3.20074 -1.24127 0
M  V30 6498 N 613.412 0.11024 1.57214 0
M  V30 6499 C 614.345 -0.880224 2.1054 0
M  V30 6500 C 615.323 -1.26658 1.01964 0
M  V30 6501 O 616.507 -1.36917 1.29561 0
M  V30 6502 C 613.634 -2.17676 2.59489 0
M  V30 6503 C 612.68 -1.93914 3.79868 0
M  V30 6504 S 613.513 -1.16336 5.2271 0
M  V30 6505 C 614.669 -2.47188 5.75021 0
M  V30 6506 H 614.902 -0.426614 2.94223 0
M  V30 6507 H 612.435 -0.10336 1.54054 0
M  V30 6508 H 614.393 -2.92175 2.88347 0
M  V30 6509 H 613.054 -2.60156 1.76005 0
M  V30 6510 H 612.247 -2.8996 4.12236 0
M  V30 6511 H 611.849 -1.27539 3.51582 0
M  V30 6512 H 614.141 -3.43079 5.84211 0
M  V30 6513 H 615.084 -2.19377 6.7326 0
M  V30 6514 H 615.492 -2.56154 5.03036 0
M  V30 6515 N 614.89 -1.56749 -0.16351 0
M  V30 6516 C 616.137 -1.82434 -0.878866 0
M  V30 6517 C 616.465 -0.688557 -1.81904 0
M  V30 6518 O 615.72 0.323644 -1.93005 0
M  V30 6519 C 616.019 -3.14342 -1.70071 0
M  V30 6520 C 615.685 -4.41647 -0.908775 0
M  V30 6521 C 614.347 -4.76224 -0.690236 0
M  V30 6522 C 616.699 -5.19998 -0.353815 0
M  V30 6523 C 614.027 -5.86624 0.0942374 0
M  V30 6524 C 616.379 -6.3122 0.41761 0
M  V30 6525 C 615.043 -6.64358 0.646879 0
M  V30 6526 H 614.313 -0.667574 -0.3216 0
M  V30 6527 H 616.96 -1.90963 -0.14337 0
M  V30 6528 H 615.265 -3.0119 -2.50583 0
M  V30 6529 H 616.962 -3.31426 -2.25738 0
M  V30 6530 H 613.552 -4.1453 -1.08916 0
M  V30 6531 H 617.736 -4.93673 -0.509975 0
M  V30 6532 H 612.992 -6.10751 0.281529 0
M  V30 6533 H 617.166 -6.91133 0.854849 0
M  V30 6534 H 614.793 -7.49742 1.25662 0
M  V30 6535 N 616.368 0.432326 -1.51554 0
M  V30 6536 C 617.598 1.2019 -1.68042 0
M  V30 6537 C 618.006 1.85356 -0.379434 0
M  V30 6538 O 617.349 1.71724 0.652427 0
M  V30 6539 C 617.411 2.32387 -2.74292 0
M  V30 6540 C 617.075 1.87548 -4.16743 0
M  V30 6541 C 618.072 1.37611 -5.01357 0
M  V30 6542 C 615.757 1.95087 -4.62868 0
M  V30 6543 C 617.751 0.958069 -6.30159 0
M  V30 6544 C 615.438 1.52894 -5.91664 0
M  V30 6545 C 616.436 1.03336 -6.75137 0
M  V30 6546 O 616.124 0.617435 -8.01525 0
M  V30 6547 H 615.856 0.368132 -0.56697 0
M  V30 6548 H 618.41 0.517875 -1.98764 0
M  V30 6549 H 616.64 3.04082 -2.38895 0
M  V30 6550 H 618.329 2.94235 -2.79608 0
M  V30 6551 H 619.095 1.31178 -4.66923 0
M  V30 6552 H 614.974 2.32606 -3.98015 0
M  V30 6553 H 618.518 0.570562 -6.95263 0
M  V30 6554 H 614.415 1.58999 -6.25611 0
M  V30 6555 H 615.183 0.742835 -8.15122 0
M  V30 6556 N 617.846 1.41785 0.688094 0
M  V30 6557 C 618.796 1.40684 1.79421 0
M  V30 6558 C 619.78 0.280096 1.58443 0
M  V30 6559 O 620.972 0.521332 1.69148 0
M  V30 6560 C 618.101 1.29874 3.17785 0
M  V30 6561 C 617.187 2.47442 3.44432 0
M  V30 6562 N 617.578 3.72895 3.41736 0
M  V30 6563 C 615.876 2.41416 3.75013 0
M  V30 6564 C 616.577 4.50912 3.67496 0
M  V30 6565 N 615.553 3.81131 3.87608 0
M  V30 6566 H 619.355 2.35591 1.7571 0
M  V30 6567 H 616.869 1.35946 0.888393 0
M  V30 6568 H 618.866 1.27168 3.97031 0
M  V30 6569 H 617.526 0.359587 3.22703 0
M  V30 6570 H 618.537 4.05676 3.21943 0
M  V30 6571 H 615.214 1.56011 3.87256 0
M  V30 6572 H 616.604 5.59865 3.71484 0
M  V30 6573 N 619.324 -0.923095 1.27737 0
M  V30 6574 C 620.254 -2.04124 1.13383 0
M  V30 6575 C 621.235 -1.70066 0.0340658 0
M  V30 6576 O 622.42 -1.93068 0.209383 0
M  V30 6577 C 619.55 -3.3831 0.785097 0
M  V30 6578 C 618.504 -3.86496 1.8386 0
M  V30 6579 C 617.83 -5.1754 1.34373 0
M  V30 6580 C 619.13 -4.09381 3.24353 0
M  V30 6581 H 620.824 -2.1639 2.06919 0
M  V30 6582 H 618.37 -1.03976 0.996243 0
M  V30 6583 H 620.323 -4.16016 0.671485 0
M  V30 6584 H 619.047 -3.2607 -0.185969 0
M  V30 6585 H 617.706 -3.10987 1.9412 0
M  V30 6586 H 617.354 -5.01696 0.361989 0
M  V30 6587 H 617.054 -5.50751 2.04811 0
M  V30 6588 H 618.578 -5.97811 1.24315 0
M  V30 6589 H 619.992 -4.77641 3.17067 0
M  V30 6590 H 618.389 -4.53906 3.92542 0
M  V30 6591 H 619.459 -3.14515 3.69064 0
M  V30 6592 N 620.802 -1.09834 -1.13024 0
M  V30 6593 C 622.05 -0.835297 -1.8403 0
M  V30 6594 C 622.371 0.640944 -1.84165 0
M  V30 6595 O 621.641 1.46517 -1.30037 0
M  V30 6596 H 620.221 -0.306018 -0.681441 0
M  V30 6597 H 622.883 -1.38734 -1.36891 0
M  V30 6598 H 621.979 -1.19258 -2.88416 0
M  V30 6599 N 622.28 1.30327 -0.886154 0
M  V30 6600 C 623.23 2.25668 -0.325248 0
M  V30 6601 C 624.214 1.51318 0.546972 0
M  V30 6602 O 625.406 1.72623 0.391203 0
M  V30 6603 C 622.535 3.40229 0.458167 0
M  V30 6604 C 621.621 4.21933 -0.428208 0
M  V30 6605 N 622.012 4.82129 -1.52921 0
M  V30 6606 C 620.31 4.45439 -0.223535 0
M  V30 6607 C 621.011 5.43351 -2.07714 0
M  V30 6608 N 619.987 5.26002 -1.37195 0
M  V30 6609 H 623.789 2.69759 -1.1665 0
M  V30 6610 H 621.303 1.4478 -0.735691 0
M  V30 6611 H 623.3 4.07579 0.876648 0
M  V30 6612 H 621.96 2.97678 1.29684 0
M  V30 6613 H 622.971 4.81312 -1.91205 0
M  V30 6614 H 619.648 4.13481 0.577875 0
M  V30 6615 H 621.038 6.01118 -3.00178 0
M  V30 6616 N 623.758 0.647228 1.43697 0
M  V30 6617 C 625.005 0.158188 2.01881 0
M  V30 6618 C 625.333 -1.22573 1.51017 0
M  V30 6619 O 624.588 -1.83086 0.69122 0
M  V30 6620 C 624.887 0.111481 3.57226 0
M  V30 6621 C 624.553 1.43633 4.27411 0
M  V30 6622 C 623.215 1.79915 4.463 0
M  V30 6623 C 625.567 2.31011 4.67208 0
M  V30 6624 C 622.895 3.03251 5.02251 0
M  V30 6625 C 625.247 3.53633 5.24525 0
M  V30 6626 C 623.911 3.90118 5.41631 0
M  V30 6627 H 623.181 0.0578851 0.738736 0
M  V30 6628 H 625.828 0.836746 1.72252 0
M  V30 6629 H 624.133 -0.650507 3.86362 0
M  V30 6630 H 625.83 -0.283682 3.99995 0
M  V30 6631 H 622.42 1.14403 4.1305 0
M  V30 6632 H 626.604 2.04272 4.52313 0
M  V30 6633 H 621.86 3.31575 5.13681 0
M  V30 6634 H 626.034 4.21561 5.5431 0
M  V30 6635 H 623.661 4.85768 5.84751 0
M  V30 6636 N 625.236 -1.5273 0.388769 0
M  V30 6637 C 626.461 -2.0647 -0.19621 0
M  V30 6638 C 626.886 -1.25865 -1.39784 0
M  V30 6639 O 626.244 -0.283562 -1.79069 0
M  V30 6640 C 626.292 -3.56456 -0.5451 0
M  V30 6641 O 625.396 -3.78426 -1.63912 0
M  V30 6642 H 624.737 -0.663599 -0.023067 0
M  V30 6643 H 627.267 -1.96898 0.556084 0
M  V30 6644 H 627.277 -3.99888 -0.809557 0
M  V30 6645 H 625.952 -4.14561 0.333417 0
M  V30 6646 H 624.529 -3.46884 -1.36842 0
M  V30 6647 N 626.714 -0.118576 -1.57153 0
M  V30 6648 C 627.661 0.831789 -2.1529 0
M  V30 6649 C 628.631 1.26385 -1.07778 0
M  V30 6650 O 629.816 1.34144 -1.35684 0
M  V30 6651 C 626.956 2.07664 -2.75626 0
M  V30 6652 C 626.069 1.69298 -3.97444 0
M  V30 6653 C 625.204 2.88747 -4.45868 0
M  V30 6654 C 624.243 2.46619 -5.60219 0
M  V30 6655 N 623.38 3.5898 -6.03389 0
M  V30 6656 H 628.22 0.329183 -2.96176 0
M  V30 6657 H 625.757 0.150792 -1.46325 0
M  V30 6658 H 627.715 2.80601 -3.08738 0
M  V30 6659 H 626.345 2.55384 -1.97431 0
M  V30 6660 H 625.397 0.862374 -3.70496 0
M  V30 6661 H 626.709 1.34338 -4.80369 0
M  V30 6662 H 625.863 3.69909 -4.80887 0
M  V30 6663 H 624.602 3.26933 -3.61892 0
M  V30 6664 H 623.607 1.63889 -5.24805 0
M  V30 6665 H 624.832 2.0955 -6.45961 0
M  V30 6666 H 622.778 3.9684 -5.22354 0
M  V30 6667 H 622.695 3.27942 -6.81168 0
M  V30 6668 H 623.963 4.40583 -6.43045 0
M  V30 6669 N 628.193 1.56834 0.155195 0
M  V30 6670 C 629.44 1.82898 0.869179 0
M  V30 6671 C 629.768 0.698194 1.81537 0
M  V30 6672 O 629.023 -0.313404 1.93174 0
M  V30 6673 C 629.322 3.15239 1.68402 0
M  V30 6674 C 628.988 4.42123 0.885341 0
M  V30 6675 C 627.65 4.76583 0.664971 0
M  V30 6676 C 630.002 5.20178 0.326234 0
M  V30 6677 C 627.33 5.86566 -0.125346 0
M  V30 6678 C 629.682 6.3099 -0.45108 0
M  V30 6679 C 628.346 6.64006 -0.682102 0
M  V30 6680 H 627.616 0.66927 0.318055 0
M  V30 6681 H 630.263 1.91036 0.133241 0
M  V30 6682 H 628.568 3.02515 2.48982 0
M  V30 6683 H 630.265 3.32618 2.23978 0
M  V30 6684 H 626.855 4.15102 1.06716 0
M  V30 6685 H 631.039 4.93936 0.483787 0
M  V30 6686 H 626.295 6.10594 -0.313915 0
M  V30 6687 H 630.469 6.9067 -0.89149 0
M  V30 6688 H 628.096 7.49065 -1.29636 0
M  V30 6689 N 629.671 -0.424282 1.51781 0
M  V30 6690 C 630.92 -1.16961 1.64326 0
M  V30 6691 C 631.233 -1.92035 0.371749 0
M  V30 6692 O 632.439 -2.68873 0.37676 0
M  V30 6693 C 630.895 -2.12782 2.90262 0
M  V30 6694 C 630.503 -1.43295 4.24465 0
M  V30 6695 C 632.247 -2.87667 3.12166 0
M  V30 6696 C 630.154 -2.37676 5.41538 0
M  V30 6697 H 629.084 -0.440293 0.612093 0
M  V30 6698 H 631.735 -0.435431 1.78259 0
M  V30 6699 H 630.117 -2.8969 2.69992 0
M  V30 6700 H 631.291 -0.718564 4.55163 0
M  V30 6701 H 629.606 -0.805118 4.08542 0
M  V30 6702 H 632.203 -3.58395 3.96808 0
M  V30 6703 H 632.546 -3.49758 2.25776 0
M  V30 6704 H 633.079 -2.17863 3.32837 0
M  V30 6705 H 629.818 -1.80255 6.30229 0
M  V30 6706 H 629.338 -3.07132 5.15199 0
M  V30 6707 H 631.017 -2.98529 5.74012 0
M  V30 6708 N 631.149 -1.42148 -0.680565 0
M  V30 6709 C 632.56 -1.3768 -1.26099 0
M  V30 6710 C 632.911 -0.0672348 -1.96085 0
M  V30 6711 O 632.036 0.834172 -1.99676 0
M  V30 6712 C 632.631 -2.49387 -2.29328 0
M  V30 6713 C 631.19 -2.4827 -2.82911 0
M  V30 6714 C 630.337 -2.2847 -1.57152 0
M  V30 6715 H 633.288 -1.51446 -0.474326 0
M  V30 6716 H 633.309 -2.19307 -3.10941 0
M  V30 6717 H 632.821 -3.44686 -1.78363 0
M  V30 6718 H 630.922 -1.56773 -3.38013 0
M  V30 6719 H 631.035 -3.45109 -3.3232 0
M  V30 6720 H 629.399 -1.76623 -1.83511 0
M  V30 6721 H 630.182 -3.25816 -1.0816 0
M  V30 6722 N 632.627 0.916307 -1.28225 0
M  V30 6723 C 633.537 2.05165 -1.13775 0
M  V30 6724 C 634.553 1.73879 -0.0649418 0
M  V30 6725 O 635.729 1.99531 -0.273722 0
M  V30 6726 C 632.794 3.37385 -0.798267 0
M  V30 6727 C 631.855 3.82296 -1.95316 0
M  V30 6728 C 631.088 5.08206 -1.62978 0
M  V30 6729 O 631.311 5.6781 -0.542948 0
M  V30 6730 O 630.245 5.48768 -2.47261 0
M  V30 6731 H 634.071 2.20273 -2.09078 0
M  V30 6732 H 631.656 1.0373 -1.07519 0
M  V30 6733 H 633.538 4.16773 -0.62278 0
M  V30 6734 H 632.213 3.23458 0.125139 0
M  V30 6735 H 631.12 3.03746 -2.18378 0
M  V30 6736 H 632.453 4.00782 -2.85718 0
M  V30 6737 N 634.105 1.10431 1.1244 0
M  V30 6738 C 635.353 0.845045 1.83585 0
M  V30 6739 C 635.674 -0.631168 1.84503 0
M  V30 6740 O 634.944 -1.45825 1.30813 0
M  V30 6741 H 633.524 0.309628 0.679809 0
M  V30 6742 H 636.186 1.39458 1.36153 0
M  V30 6743 H 635.282 1.20786 2.8778 0
M  V30 6744 N 635.583 -1.29855 0.893053 0
M  V30 6745 C 636.808 -2.00512 0.530066 0
M  V30 6746 C 637.233 -1.66446 -0.876199 0
M  V30 6747 O 636.591 -0.885446 -1.58207 0
M  V30 6748 C 636.639 -3.53308 0.721505 0
M  V30 6749 O 635.743 -4.11764 -0.228994 0
M  V30 6750 H 635.084 -0.630617 0.207891 0
M  V30 6751 H 637.614 -1.6551 1.20282 0
M  V30 6752 H 637.624 -4.03206 0.623599 0
M  V30 6753 H 636.299 -3.77439 1.74678 0
M  V30 6754 H 634.876 -3.72805 -0.0841034 0
M  V30 6755 N 637.061 -0.65484 -1.43351 0
M  V30 6756 C 637.993 0.0744757 -2.29079 0
M  V30 6757 C 639.006 0.7855 -1.42596 0
M  V30 6758 O 640.195 0.642986 -1.66517 0
M  V30 6759 C 637.295 1.12859 -3.19556 0
M  V30 6760 C 636.468 0.495381 -4.34586 0
M  V30 6761 C 635.527 1.44659 -5.05925 0
M  V30 6762 O 634.553 0.954567 -5.61139 0
M  V30 6763 N 635.755 2.78051 -5.09576 0
M  V30 6764 H 638.52 -0.661346 -2.92312 0
M  V30 6765 H 636.081 -0.497744 -1.54059 0
M  V30 6766 H 638.073 1.76577 -3.64147 0
M  V30 6767 H 636.643 1.76636 -2.57912 0
M  V30 6768 H 635.863 -0.32092 -3.92892 0
M  V30 6769 H 637.151 0.0534203 -5.08772 0
M  V30 6770 H 636.549 3.20584 -4.66093 0
M  V30 6771 H 635.106 3.37068 -5.57878 0
M  V30 6772 N 638.539 1.52521 -0.396863 0
M  V30 6773 C 639.955 1.5953 -0.0471659 0
M  V30 6774 C 640.155 1.41044 1.43906 0
M  V30 6775 O 639.211 1.23122 2.20448 0
M  V30 6776 C 640.524 2.95972 -0.531113 0
M  V30 6777 C 642.072 3.09172 -0.488024 0
M  V30 6778 C 642.547 4.48075 -0.948281 0
M  V30 6779 N 644.038 4.54281 -0.9046 0
M  V30 6780 C 644.773 5.60007 -1.23205 0
M  V30 6781 N 644.269 6.73343 -1.63036 0
M  V30 6782 N 646.062 5.50151 -1.15282 0
M  V30 6783 H 638.213 1.62786 -1.36435 0
M  V30 6784 H 640.476 0.76514 -0.559701 0
M  V30 6785 H 640.182 3.14741 -1.56942 0
M  V30 6786 H 640.056 3.77143 0.0657922 0
M  V30 6787 H 642.443 2.90095 0.541211 0
M  V30 6788 H 642.524 2.29937 -1.12083 0
M  V30 6789 H 642.168 4.67894 -1.97578 0
M  V30 6790 H 642.098 5.25788 -0.292412 0
M  V30 6791 H 644.589 3.72918 -0.6116 0
M  V30 6792 H 644.902 7.49992 -1.86365 0
M  V30 6793 H 643.247 6.74655 -1.66929 0
M  V30 6794 H 646.438 4.6049 -0.840602 0
M  V30 6795 H 646.611 6.32444 -1.41133 0
M  V30 6796 N 640.017 0.126909 1.57088 0
M  V30 6797 C 641.263 -0.529952 1.95753 0
M  V30 6798 C 641.596 -1.65823 1.01077 0
M  V30 6799 O 640.871 -1.94437 0.0494162 0
M  V30 6800 C 641.154 -1.05517 3.44294 0
M  V30 6801 C 641.007 0.0702253 4.49745 0
M  V30 6802 C 642.326 -1.9435 3.94862 0
M  V30 6803 H 639.445 -0.191168 0.711775 0
M  V30 6804 H 642.087 0.204071 1.88901 0
M  V30 6805 H 640.237 -1.68069 3.50264 0
M  V30 6806 H 641.909 0.705834 4.55868 0
M  V30 6807 H 640.152 0.732259 4.27575 0
M  V30 6808 H 640.823 -0.338642 5.5096 0
M  V30 6809 H 643.299 -1.41658 3.91244 0
M  V30 6810 H 642.175 -2.28015 4.993 0
M  V30 6811 H 642.436 -2.87299 3.36024 0
M  V30 6812 N 641.495 -1.56914 -0.146875 0
M  V30 6813 C 642.743 -1.82994 -0.85777 0
M  V30 6814 C 643.064 -0.707814 -1.817 0
M  V30 6815 O 642.334 0.270521 -1.94023 0
M  V30 6816 H 640.914 -0.675106 -0.319751 0
M  V30 6817 H 643.576 -1.9439 -0.140849 0
M  V30 6818 H 642.672 -2.77928 -1.41994 0
M  V30 6819 N 642.974 0.416227 -1.52004 0
M  V30 6820 C 643.904 1.51365 -1.77795 0
M  V30 6821 C 644.885 1.58059 -0.628601 0
M  V30 6822 O 646.07 1.73447 -0.873478 0
M  V30 6823 C 643.2 2.89256 -1.92219 0
M  V30 6824 C 642.154 2.97415 -3.0778 0
M  V30 6825 C 641.48 4.37492 -3.07417 0
M  V30 6826 C 642.78 2.69551 -4.47369 0
M  V30 6827 H 644.474 1.30033 -2.69688 0
M  V30 6828 H 642.02 0.624112 -1.29772 0
M  V30 6829 H 643.973 3.66008 -2.08845 0
M  V30 6830 H 642.697 3.11866 -0.969917 0
M  V30 6831 H 641.356 2.23107 -2.90893 0
M  V30 6832 H 641.004 4.571 -2.09925 0
M  V30 6833 H 640.704 4.43877 -3.85029 0
M  V30 6834 H 642.228 5.16188 -3.26162 0
M  V30 6835 H 643.642 3.36028 -4.64497 0
M  V30 6836 H 642.039 2.87321 -5.26846 0
M  V30 6837 H 643.109 1.65029 -4.55953 0
M  V30 6838 N 644.452 1.42507 0.673017 0
M  V30 6839 C 645.698 1.43284 1.43519 0
M  V30 6840 C 646.031 0.049668 1.94136 0
M  V30 6841 O 645.306 -0.926369 1.71022 0
M  V30 6842 C 645.589 2.45874 2.63093 0
M  V30 6843 C 645.442 3.93388 2.18096 0
M  V30 6844 C 646.761 2.45431 3.6531 0
M  V30 6845 H 643.88 0.521752 0.520522 0
M  V30 6846 H 646.522 1.73932 0.764701 0
M  V30 6847 H 644.672 2.19869 3.20296 0
M  V30 6848 H 646.344 4.30379 1.66046 0
M  V30 6849 H 644.587 4.07169 1.49652 0
M  V30 6850 H 645.258 4.60752 3.03993 0
M  V30 6851 H 647.734 2.68561 3.17827 0
M  V30 6852 H 646.61 3.19189 4.46553 0
M  V30 6853 H 646.871 1.48092 4.16559 0
M  V30 6854 N 645.93 -0.909495 1.28709 0
M  V30 6855 C 646.893 -1.99399 1.13016 0
M  V30 6856 C 647.893 -1.60654 0.068536 0
M  V30 6857 O 649.083 -1.71334 0.314671 0
M  V30 6858 C 646.215 -3.33078 0.726085 0
M  V30 6859 H 647.408 -2.14751 2.09338 0
M  V30 6860 H 644.961 -1.09272 1.11756 0
M  V30 6861 H 645.696 -3.23428 -0.23771 0
M  V30 6862 H 645.481 -3.62562 1.49302 0
M  V30 6863 H 646.971 -4.12681 0.639058 0
M  V30 6864 N 647.408 -1.11026 -1.11852 0
M  V30 6865 C 648.633 -0.879064 -1.87849 0
M  V30 6866 C 649.058 0.565406 -1.79401 0
M  V30 6867 O 648.416 1.39886 -1.15333 0
M  V30 6868 C 648.464 -1.33985 -3.34784 0
M  V30 6869 O 647.568 -0.508803 -4.09249 0
M  V30 6870 H 646.909 -0.316992 -0.583448 0
M  V30 6871 H 649.439 -1.47863 -1.41413 0
M  V30 6872 H 649.449 -1.33248 -3.85628 0
M  V30 6873 H 648.124 -2.39172 -3.40249 0
M  V30 6874 H 646.701 -0.581913 -3.68332 0
M  V30 6875 N 648.886 1.2938 -0.899927 0
M  V30 6876 C 649.818 2.26737 -0.335139 0
M  V30 6877 C 650.831 1.54316 0.518681 0
M  V30 6878 O 652.02 1.75313 0.335803 0
M  V30 6879 C 649.12 3.34558 0.540774 0
M  V30 6880 C 648.293 4.36455 -0.287372 0
M  V30 6881 C 647.352 5.2361 0.52141 0
M  V30 6882 O 646.378 5.69167 -0.0611735 0
M  V30 6883 N 647.58 5.50985 1.82745 0
M  V30 6884 H 650.345 2.75838 -1.17191 0
M  V30 6885 H 647.906 1.42716 -0.764438 0
M  V30 6886 H 649.898 3.89794 1.08825 0
M  V30 6887 H 648.468 2.85272 1.27823 0
M  V30 6888 H 647.688 3.80875 -1.01626 0
M  V30 6889 H 648.976 5.01573 -0.854518 0
M  V30 6890 H 648.374 5.15781 2.32349 0
M  V30 6891 H 646.931 6.09036 2.32204 0
M  V30 6892 N 650.364 0.662433 1.43002 0
M  V30 6893 C 651.311 -0.0235324 2.30788 0
M  V30 6894 C 652.281 -0.805342 1.4527 0
M  V30 6895 O 653.466 -0.78009 1.74124 0
M  V30 6896 C 650.606 -0.977545 3.30965 0
M  V30 6897 C 649.719 -0.190865 4.31578 0
M  V30 6898 C 648.854 -1.13951 5.18834 0
M  V30 6899 C 647.893 -0.343796 6.11134 0
M  V30 6900 N 647.03 -1.2445 6.90982 0
M  V30 6901 H 651.87 0.730921 2.88897 0
M  V30 6902 H 649.407 0.372197 1.42313 0
M  V30 6903 H 651.365 -1.54437 3.87563 0
M  V30 6904 H 649.995 -1.69877 2.74484 0
M  V30 6905 H 649.047 0.492388 3.772 0
M  V30 6906 H 650.359 0.427464 4.96965 0
M  V30 6907 H 649.513 -1.77666 5.80103 0
M  V30 6908 H 648.252 -1.79174 4.53595 0
M  V30 6909 H 647.257 0.30665 5.48944 0
M  V30 6910 H 648.482 0.304161 6.78419 0
M  V30 6911 H 646.428 -1.88336 6.28383 0
M  V30 6912 H 646.345 -0.680959 7.52927 0
M  V30 6913 H 647.613 -1.86952 7.56749 0
M  V30 6914 N 651.842 -1.52309 0.404946 0
M  V30 6915 C 652.79 -2.28452 -0.437321 0
M  V30 6916 C 653.784 -1.32975 -1.04948 0
M  V30 6917 O 654.99 -1.50451 -0.988159 0
M  V30 6918 H 651.365 -0.734824 -0.159805 0
M  V30 6919 H 653.336 -2.97542 0.22615 0
M  V30 6920 C 652.085 -3.11536 -1.54404 0
M  V30 6921 H 651.408 -3.84871 -1.08233 0
M  V30 6922 H 652.848 -3.67926 -2.10729 0
M  V30 6923 C 651.307 -2.24833 -2.50902 0
M  V30 6924 O 651.837 -1.88574 -3.54687 0
M  V30 6925 N 650.043 -1.88685 -2.21012 0
M  V30 6926 H 649.59 -2.18371 -1.36646 0
M  V30 6927 H 649.548 -1.30966 -2.85824 0
M  V30 6928 N 653.32 -0.135238 -1.57019 0
M  V30 6929 C 654.597 0.563227 -1.87316 0
M  V30 6930 C 654.977 1.83749 -1.03921 0
M  V30 6931 O 654.325 2.2817 -0.122675 0
M  V30 6932 C 654.535 0.840031 -3.3874 0
M  V30 6933 C 655.883 1.18598 -4.077 0
M  V30 6934 O 656.907 0.92977 -3.43851 0
M  V30 6935 O 655.766 1.66758 -5.20436 0
M  V30 6936 H 652.86 0.285971 -0.775983 0
M  V30 6937 H 655.406 -0.170965 -1.68837 0
M  V30 6938 H 654.178 -0.0622785 -3.9125 0
M  V30 6939 H 653.801 1.62882 -3.62706 0
M  V30 6940 N 654.798 1.5699 0.138552 0
M  V30 6941 C 655.728 2.01933 1.17241 0
M  V30 6942 C 656.709 0.90033 1.44319 0
M  V30 6943 O 657.894 1.16872 1.55095 0
M  V30 6944 C 655.024 2.40711 2.50351 0
M  V30 6945 C 653.978 3.55874 2.37776 0
M  V30 6946 C 653.304 3.80491 3.75674 0
M  V30 6947 C 654.604 4.8826 1.85472 0
M  V30 6948 H 656.298 2.88551 0.798672 0
M  V30 6949 H 653.844 1.3882 0.382743 0
M  V30 6950 H 655.797 2.70754 3.22909 0
M  V30 6951 H 654.521 1.5104 2.89576 0
M  V30 6952 H 653.18 3.2601 1.67669 0
M  V30 6953 H 652.828 2.88057 4.12349 0
M  V30 6954 H 652.528 4.57998 3.68119 0
M  V30 6955 H 654.052 4.12967 4.49767 0
M  V30 6956 H 655.466 5.16965 2.4783 0
M  V30 6957 H 653.863 5.69631 1.88787 0
M  V30 6958 H 654.933 4.78071 0.810935 0
M  V30 6959 N 656.276 -0.40816 1.52223 0
M  V30 6960 C 657.553 -1.16807 1.56893 0
M  V30 6961 C 657.933 -2.08169 0.350537 0
M  V30 6962 O 657.281 -2.18684 -0.662536 0
M  V30 6963 C 657.491 -1.94451 2.8981 0
M  V30 6964 C 658.839 -2.50484 3.42845 0
M  V30 6965 O 659.863 -2.0463 2.91556 0
M  V30 6966 O 658.722 -3.34192 4.3241 0
M  V30 6967 H 655.816 -0.533382 0.632007 0
M  V30 6968 H 658.362 -0.414862 1.64551 0
M  V30 6969 H 657.134 -1.27527 3.69936 0
M  V30 6970 H 656.757 -2.76775 2.85449 0
M  V30 6971 N 657.755 -1.42862 -0.66545 0
M  V30 6972 C 658.718 -1.46756 -1.76055 0
M  V30 6973 C 659.718 -0.353866 -1.56858 0
M  V30 6974 O 660.908 -0.615099 -1.62979 0
M  V30 6975 C 658.04 -1.30829 -3.14796 0
M  V30 6976 H 659.233 -2.44271 -1.73987 0
M  V30 6977 H 656.786 -1.29447 -0.875965 0
M  V30 6978 H 657.521 -0.342733 -3.22484 0
M  V30 6979 H 657.306 -2.11551 -3.30134 0
M  V30 6980 H 658.796 -1.36458 -3.94676 0
M  V30 6981 N 659.233 0.902656 -1.29189 0
M  V30 6982 C 660.479 1.65532 -1.17163 0
M  V30 6983 C 660.812 1.92216 0.276879 0
M  V30 6984 O 660.087 1.53048 1.20027 0
M  V30 6985 C 660.37 3.00629 -1.98228 0
M  V30 6986 C 660.223 2.81029 -3.51202 0
M  V30 6987 C 661.542 4.01321 -1.80635 0
M  V30 6988 H 658.661 0.60071 -0.426985 0
M  V30 6989 H 661.303 1.04578 -1.5863 0
M  V30 6990 H 659.453 3.52656 -1.62991 0
M  V30 6991 H 661.125 2.35927 -3.96404 0
M  V30 6992 H 659.368 2.1587 -3.76275 0
M  V30 6993 H 660.039 3.77014 -4.03192 0
M  V30 6994 H 662.515 3.58394 -2.11406 0
M  V30 6995 H 661.391 4.93792 -2.3971 0
M  V30 6996 H 661.652 4.35505 -0.760754 0
M  V30 6997 N 660.711 1.11618 1.11262 0
M  V30 6998 C 661.674 0.779447 2.15539 0
M  V30 6999 C 662.674 -0.202081 1.59525 0
M  V30 7000 O 663.864 0.0226356 1.74185 0
M  V30 7001 C 660.996 0.15674 3.40539 0
M  V30 7002 H 662.189 1.70324 2.4684 0
M  V30 7003 H 659.742 0.918298 1.26479 0
M  V30 7004 H 660.477 -0.777186 3.1485 0
M  V30 7005 H 660.262 0.863308 3.82478 0
M  V30 7006 H 661.752 -0.062661 4.17553 0
M  V30 7007 N 662.189 -1.289 0.906776 0
M  V30 7008 C 663.119 -2.29932 0.406659 0
M  V30 7009 C 664.1 -1.6189 -0.522061 0
M  V30 7010 O 665.285 -1.8935 -0.431283 0
M  V30 7011 C 662.415 -3.45425 -0.360366 0
M  V30 7012 C 661.369 -4.25316 0.478574 0
M  V30 7013 C 660.695 -5.33076 -0.416373 0
M  V30 7014 C 661.995 -4.92739 1.7322 0
M  V30 7015 H 663.689 -2.72013 1.25097 0
M  V30 7016 H 661.235 -1.30768 0.602977 0
M  V30 7017 H 663.188 -4.15186 -0.721029 0
M  V30 7018 H 661.912 -3.02206 -1.23852 0
M  V30 7019 H 660.571 -3.57273 0.821662 0
M  V30 7020 H 660.219 -4.86101 -1.29287 0
M  V30 7021 H 659.919 -5.8743 0.141309 0
M  V30 7022 H 661.443 -6.05686 -0.773072 0
M  V30 7023 H 662.857 -5.54898 1.44086 0
M  V30 7024 H 661.254 -5.57057 2.23175 0
M  V30 7025 H 662.324 -4.17625 2.46408 0
M  V30 7026 N 663.667 -0.670007 -1.42649 0
M  V30 7027 C 664.6 0.0613623 -2.28117 0
M  V30 7028 C 665.578 0.813414 -1.40792 0
M  V30 7029 O 666.762 0.809529 -1.70232 0
M  V30 7030 C 663.889 1.09399 -3.20546 0
M  V30 7031 C 662.935 0.438064 -4.24244 0
M  V30 7032 S 663.768 -0.800808 -5.29478 0
M  V30 7033 C 664.924 0.23086 -6.25474 0
M  V30 7034 H 665.157 -0.663606 -2.89799 0
M  V30 7035 H 662.69 -0.45939 -1.47407 0
M  V30 7036 H 664.648 1.68469 -3.74337 0
M  V30 7037 H 663.309 1.79137 -2.58009 0
M  V30 7038 H 662.502 1.21707 -4.89084 0
M  V30 7039 H 662.104 -0.0789346 -3.73917 0
M  V30 7040 H 664.396 1.09204 -6.68641 0
M  V30 7041 H 665.339 -0.382945 -7.07064 0
M  V30 7042 H 665.747 0.574191 -5.61572 0
M  V30 7043 N 665.145 1.52092 -0.413018 0
M  V30 7044 C 666.095 2.23947 0.427993 0
M  V30 7045 C 667.079 1.25229 1.01027 0
M  V30 7046 O 668.271 1.50448 0.932444 0
M  V30 7047 C 665.4 3.0672 1.542 0
M  V30 7048 C 664.486 4.12851 0.970307 0
M  V30 7049 N 664.877 5.05644 0.125611 0
M  V30 7050 C 663.175 4.28404 1.24042 0
M  V30 7051 C 663.876 5.8138 -0.192876 0
M  V30 7052 N 662.852 5.41996 0.417273 0
M  V30 7053 H 666.654 2.93048 -0.223628 0
M  V30 7054 H 664.168 1.60852 -0.223664 0
M  V30 7055 H 666.165 3.56754 2.15714 0
M  V30 7056 H 664.825 2.39159 2.19621 0
M  V30 7057 H 665.836 5.17348 -0.238995 0
M  V30 7058 H 662.513 3.72071 1.89391 0
M  V30 7059 H 663.903 6.66129 -0.878762 0
M  V30 7060 N 666.623 0.143563 1.56945 0
M  V30 7061 C 668.034 -0.37783 1.82837 0
M  V30 7062 C 668.385 -1.64967 1.06209 0
M  V30 7063 O 667.51 -2.14221 0.306291 0
M  V30 7064 C 668.105 -0.692274 3.31652 0
M  V30 7065 C 666.664 -1.1582 3.58138 0
M  V30 7066 C 665.811 -0.17951 2.76718 0
M  V30 7067 H 668.762 0.368317 1.54367 0
M  V30 7068 H 668.783 -1.54729 3.47619 0
M  V30 7069 H 668.295 0.233572 3.87397 0
M  V30 7070 H 666.396 -2.10011 3.07776 0
M  V30 7071 H 666.509 -1.08655 4.66616 0
M  V30 7072 H 664.873 -0.671458 2.4569 0
M  V30 7073 H 665.656 0.739865 3.35233 0
M  V30 7074 N 668.101 -1.57061 -0.130224 0
M  V30 7075 C 669.378 -1.75205 -0.869631 0
M  V30 7076 C 669.758 -0.716063 -1.98584 0
M  V30 7077 O 669.106 0.262032 -2.26993 0
M  V30 7078 C 669.316 -3.19835 -1.39666 0
M  V30 7079 C 670.664 -3.82011 -1.85345 0
M  V30 7080 O 671.688 -3.23368 -1.49371 0
M  V30 7081 O 670.547 -4.85064 -2.51744 0
M  V30 7082 H 667.641 -0.716977 -0.412157 0
M  V30 7083 H 670.187 -1.69311 -0.11484 0
M  V30 7084 H 668.959 -3.86745 -0.595288 0
M  V30 7085 H 668.582 -3.30222 -2.21448 0
M  V30 7086 N 669.579 0.400081 -1.52437 0
M  V30 7087 C 670.827 1.14392 -1.6661 0
M  V30 7088 C 671.148 1.90792 -0.402927 0
M  V30 7089 O 670.418 1.87042 0.582425 0
M  V30 7090 H 668.998 0.425275 -0.614125 0
M  V30 7091 H 671.66 0.455076 -1.89513 0
M  V30 7092 H 670.756 1.85298 -2.51139 0
M  V30 7093 N 671.057 1.43213 0.657864 0
M  V30 7094 C 672.282 1.48227 1.45064 0
M  V30 7095 C 672.707 0.0999939 1.87834 0
M  V30 7096 O 672.065 -0.905269 1.57081 0
M  V30 7097 C 672.113 2.42931 2.6649 0
M  V30 7098 O 671.217 1.91237 3.6538 0
M  V30 7099 H 670.558 0.501551 0.435135 0
M  V30 7100 H 673.088 1.8808 0.805431 0
M  V30 7101 H 673.098 2.6008 3.1436 0
M  V30 7102 H 671.773 3.43348 2.34701 0
M  V30 7103 H 670.35 1.83726 3.24498 0
M  V30 7104 N 672.536 -0.895792 1.29666 0
M  V30 7105 C 673.499 -1.98189 1.15124 0
M  V30 7106 C 674.499 -1.60572 0.0855717 0
M  V30 7107 O 675.689 -1.70991 0.332826 0
M  V30 7108 C 672.821 -3.32289 0.761372 0
M  V30 7109 H 674.014 -2.12518 2.11603 0
M  V30 7110 H 671.567 -1.0808 1.12908 0
M  V30 7111 H 672.302 -3.23662 -0.203393 0
M  V30 7112 H 672.087 -3.60958 1.53139 0
M  V30 7113 H 673.577 -4.1198 0.682792 0
M  V30 7114 N 674.014 -1.12206 -1.10668 0
M  V30 7115 C 675.26 -0.877172 -1.82848 0
M  V30 7116 C 675.593 0.595571 -1.84842 0
M  V30 7117 O 674.868 1.44013 -1.30731 0
M  V30 7118 C 675.151 -1.44957 -3.29635 0
M  V30 7119 C 675.004 -2.99051 -3.35989 0
M  V30 7120 C 676.323 -1.10714 -4.25946 0
M  V30 7121 H 673.442 -0.320103 -0.663854 0
M  V30 7122 H 676.084 -1.38827 -1.2972 0
M  V30 7123 H 674.234 -1.01488 -3.7501 0
M  V30 7124 H 675.906 -3.51182 -2.99113 0
M  V30 7125 H 674.149 -3.34705 -2.75962 0
M  V30 7126 H 674.82 -3.34194 -4.39339 0
M  V30 7127 H 677.296 -1.48254 -3.88793 0
M  V30 7128 H 676.172 -1.5343 -5.2702 0
M  V30 7129 H 676.433 -0.019 -4.42096 0
M  V30 7130 N 675.492 1.28418 -0.913599 0
M  V30 7131 C 676.738 1.9527 -0.547484 0
M  V30 7132 C 677.071 1.71745 0.906486 0
M  V30 7133 O 676.346 1.03834 1.64465 0
M  V30 7134 C 676.629 3.49748 -0.857205 0
M  V30 7135 C 676.482 3.82675 -2.3639 0
M  V30 7136 C 677.801 4.3868 -0.353258 0
M  V30 7137 H 674.92 0.709236 -0.200381 0
M  V30 7138 H 677.562 1.51789 -1.14281 0
M  V30 7139 H 675.712 3.86915 -0.350548 0
M  V30 7140 H 677.384 3.55378 -2.94116 0
M  V30 7141 H 675.627 3.29724 -2.81894 0
M  V30 7142 H 676.298 4.90547 -2.53115 0
M  V30 7143 H 678.774 4.08584 -0.787288 0
M  V30 7144 H 677.65 5.45621 -0.599049 0
M  V30 7145 H 677.911 4.35753 0.746413 0
M  V30 7146 N 676.97 0.677563 1.42291 0
M  V30 7147 C 678.216 0.201272 2.01799 0
M  V30 7148 C 678.549 -1.19004 1.53465 0
M  V30 7149 O 677.824 -1.79953 0.738039 0
M  V30 7150 C 678.107 0.238968 3.59306 0
M  V30 7151 C 677.96 1.66594 4.17812 0
M  V30 7152 C 679.279 -0.411287 4.38174 0
M  V30 7153 H 676.398 0.0746114 0.733214 0
M  V30 7154 H 679.04 0.862872 1.69276 0
M  V30 7155 H 677.19 -0.324368 3.87144 0
M  V30 7156 H 678.862 2.28173 4.00917 0
M  V30 7157 H 677.105 2.20576 3.73536 0
M  V30 7158 H 677.776 1.64398 5.26951 0
M  V30 7159 H 680.252 0.0682804 4.16044 0
M  V30 7160 H 679.128 -0.354286 5.47755 0
M  V30 7161 H 679.389 -1.4893 4.1626 0
M  V30 7162 N 678.448 -1.51871 0.421078 0
M  V30 7163 C 679.694 -2.02237 -0.151014 0
M  V30 7164 C 680.027 -1.30554 -1.43768 0
M  V30 7165 O 679.302 -0.41546 -1.90011 0
M  V30 7166 C 679.585 -3.5802 -0.386482 0
M  V30 7167 C 679.438 -4.40339 0.9177 0
M  V30 7168 C 680.757 -4.24444 -1.16342 0
M  V30 7169 H 677.876 -0.735062 -0.0534102 0
M  V30 7170 H 680.518 -1.81656 0.556888 0
M  V30 7171 H 678.668 -3.75688 -0.989494 0
M  V30 7172 H 680.34 -4.34357 1.55344 0
M  V30 7173 H 678.583 -4.06073 1.526 0
M  V30 7174 H 679.254 -5.47451 0.707187 0
M  V30 7175 H 681.73 -4.10948 -0.652788 0
M  V30 7176 H 680.606 -5.33358 -1.29693 0
M  V30 7177 H 680.867 -3.84204 -2.18724 0
M  V30 7178 N 679.926 -0.151884 -1.56866 0
M  V30 7179 C 680.856 0.781943 -2.20018 0
M  V30 7180 C 681.837 1.25347 -1.14987 0
M  V30 7181 O 683.022 1.31015 -1.43348 0
M  V30 7182 C 680.152 2.01928 -2.82564 0
M  V30 7183 C 679.106 1.68434 -3.93464 0
M  V30 7184 C 678.432 2.99472 -4.42968 0
M  V30 7185 C 679.732 0.927244 -5.14003 0
M  V30 7186 H 681.426 0.255607 -2.98307 0
M  V30 7187 H 678.972 0.121502 -1.43486 0
M  V30 7188 H 680.925 2.67741 -3.25411 0
M  V30 7189 H 679.649 2.56943 -2.01614 0
M  V30 7190 H 678.308 1.04998 -3.51242 0
M  V30 7191 H 677.956 3.52488 -3.58834 0
M  V30 7192 H 677.656 2.77823 -5.17772 0
M  V30 7193 H 679.18 3.66348 -4.88489 0
M  V30 7194 H 680.594 1.48756 -5.53665 0
M  V30 7195 H 678.991 0.810513 -5.94601 0
M  V30 7196 H 680.061 -0.0801163 -4.84834 0
M  V30 7197 N 681.404 1.57128 0.121893 0
M  V30 7198 C 682.352 2.01109 1.16868 0
M  V30 7199 C 683.346 0.907532 1.43039 0
M  V30 7200 O 684.552 1.09274 1.43036 0
M  V30 7201 H 680.927 0.640539 0.393971 0
M  V30 7202 H 682.898 2.88261 0.771224 0
M  V30 7203 C 681.647 2.42887 2.48799 0
M  V30 7204 H 680.97 3.2737 2.29498 0
M  V30 7205 H 682.41 2.77461 3.20611 0
M  V30 7206 C 680.869 1.29137 3.11168 0
M  V30 7207 O 681.399 0.605756 3.97106 0
M  V30 7208 N 679.605 1.04916 2.71 0
M  V30 7209 H 679.152 1.60848 2.01211 0
M  V30 7210 H 679.11 0.290016 3.1306 0
M  V30 7211 N 682.882 -0.391992 1.52647 0
M  V30 7212 C 684.298 -0.731848 1.41831 0
M  V30 7213 C 684.498 -1.9423 0.536361 0
M  V30 7214 O 683.554 -2.52499 0.00866571 0
M  V30 7215 C 684.867 -0.969743 2.84634 0
M  V30 7216 C 686.415 -1.0714 2.94092 0
M  V30 7217 C 686.89 -1.34195 4.37899 0
M  V30 7218 N 688.381 -1.41023 4.41211 0
M  V30 7219 C 689.116 -1.63616 5.49561 0
M  V30 7220 N 688.612 -1.83699 6.68002 0
M  V30 7221 N 690.405 -1.65771 5.371 0
M  V30 7222 H 682.556 0.404547 2.08512 0
M  V30 7223 H 684.819 0.11879 0.940528 0
M  V30 7224 H 684.525 -0.152465 3.51369 0
M  V30 7225 H 684.399 -1.88523 3.26709 0
M  V30 7226 H 686.786 -1.87925 2.27526 0
M  V30 7227 H 686.867 -0.133887 2.55449 0
M  V30 7228 H 686.511 -0.539207 5.0503 0
M  V30 7229 H 686.441 -2.29226 4.74092 0
M  V30 7230 H 688.932 -1.27223 3.55841 0
M  V30 7231 H 689.245 -2.00437 7.46354 0
M  V30 7232 H 687.59 -1.8093 6.71036 0
M  V30 7233 H 690.781 -1.4963 4.43541 0
M  V30 7234 H 690.954 -1.83038 6.21612 0
M  V30 7235 N 684.36 -1.4356 -0.65026 0
M  V30 7236 C 685.585 -1.48995 -1.44275 0
M  V30 7237 C 686.01 -0.109954 -1.87778 0
M  V30 7238 O 685.368 0.896926 -1.57559 0
M  V30 7239 C 685.416 -2.44341 -2.65198 0
M  V30 7240 O 684.52 -1.93172 -3.6436 0
M  V30 7241 H 683.861 -0.503852 -0.432469 0
M  V30 7242 H 686.391 -1.88504 -0.795446 0
M  V30 7243 H 686.401 -2.61743 -3.12977 0
M  V30 7244 H 685.076 -3.44588 -2.32877 0
M  V30 7245 H 683.653 -1.85445 -3.23519 0
M  V30 7246 N 685.838 0.888903 -1.30139 0
M  V30 7247 C 687.063 1.67884 -1.21777 0
M  V30 7248 C 687.488 1.86848 0.216689 0
M  V30 7249 O 686.846 1.39659 1.15608 0
M  V30 7250 C 686.894 3.03483 -1.94757 0
M  V30 7251 O 685.998 3.92294 -1.27198 0
M  V30 7252 H 685.339 0.513144 -0.421402 0
M  V30 7253 H 687.869 1.10968 -1.71893 0
M  V30 7254 H 687.879 3.53553 -2.03627 0
M  V30 7255 H 686.554 2.89 -2.99085 0
M  V30 7256 H 685.131 3.50732 -1.26655 0
M  V30 7257 N 687.317 1.12792 1.10072 0
M  V30 7258 C 688.264 0.79921 2.16521 0
M  V30 7259 C 689.234 -0.235726 1.64419 0
M  V30 7260 O 690.419 -0.109457 1.90486 0
M  V30 7261 C 687.559 0.264091 3.44088 0
M  V30 7262 C 686.672 1.35729 4.10124 0
M  V30 7263 C 685.807 0.781212 5.25424 0
M  V30 7264 C 684.846 1.85327 5.8337 0
M  V30 7265 N 683.983 1.29564 6.90042 0
M  V30 7266 H 688.823 1.71105 2.43981 0
M  V30 7267 H 686.36 0.854225 1.19756 0
M  V30 7268 H 688.318 -0.0642423 4.17151 0
M  V30 7269 H 686.948 -0.610901 3.16967 0
M  V30 7270 H 686 1.80234 3.34993 0
M  V30 7271 H 687.312 2.16782 4.4923 0
M  V30 7272 H 686.466 0.403769 6.05355 0
M  V30 7273 H 685.205 -0.0604686 4.87663 0
M  V30 7274 H 684.21 2.23986 5.02106 0
M  V30 7275 H 685.435 2.69824 6.23195 0
M  V30 7276 H 683.381 0.475844 6.54272 0
M  V30 7277 H 683.298 2.04271 7.2788 0
M  V30 7278 H 684.566 0.945545 7.73744 0
M  V30 7279 N 688.795 -1.27931 0.920396 0
M  V30 7280 C 690.072 -1.89728 0.475687 0
M  V30 7281 C 690.452 -1.8337 -1.04588 0
M  V30 7282 O 689.8 -1.27404 -1.89685 0
M  V30 7283 C 690.01 -3.33959 1.01354 0
M  V30 7284 C 691.358 -4.10907 1.06963 0
M  V30 7285 O 692.382 -3.42945 0.962646 0
M  V30 7286 O 691.241 -5.32399 1.23343 0
M  V30 7287 H 688.335 -0.81294 0.151845 0
M  V30 7288 H 690.881 -1.36252 1.01161 0
M  V30 7289 H 689.653 -3.32843 2.05746 0
M  V30 7290 H 689.276 -3.94944 0.458829 0
M  V30 7291 N 690.273 -0.685099 -1.4193 0
M  V30 7292 C 691.519 -0.211971 -2.01689 0
M  V30 7293 C 691.852 1.18189 -1.54094 0
M  V30 7294 O 691.127 1.79559 -0.747572 0
M  V30 7295 C 691.41 -0.258019 -3.59174 0
M  V30 7296 C 691.263 -1.68807 -4.16922 0
M  V30 7297 C 692.582 0.388044 -4.38386 0
M  V30 7298 H 689.701 -0.0784987 -0.732808 0
M  V30 7299 H 692.343 -0.871837 -1.68816 0
M  V30 7300 H 690.493 0.303832 -3.8731 0
M  V30 7301 H 692.165 -2.30296 -3.99702 0
M  V30 7302 H 690.408 -2.22553 -3.72361 0
M  V30 7303 H 691.079 -1.6719 -5.26072 0
M  V30 7304 H 693.555 -0.0903432 -4.16002 0
M  V30 7305 H 692.431 0.325232 -5.47936 0
M  V30 7306 H 692.692 1.4672 -4.17044 0
M  V30 7307 N 691.751 1.51645 -0.429126 0
M  V30 7308 C 693.162 1.86665 0.0359003 0
M  V30 7309 C 693.513 1.34677 1.42676 0
M  V30 7310 O 692.638 0.694195 2.04963 0
M  V30 7311 C 693.233 3.38724 0.0719221 0
M  V30 7312 C 691.792 3.7331 0.481336 0
M  V30 7313 C 690.939 2.75313 -0.331329 0
M  V30 7314 H 693.89 1.44987 -0.645333 0
M  V30 7315 H 693.911 3.7011 0.883118 0
M  V30 7316 H 693.423 3.76532 -0.940495 0
M  V30 7317 H 691.524 3.41088 1.49966 0
M  V30 7318 H 691.637 4.78631 0.211837 0
M  V30 7319 H 690.001 2.53839 0.209204 0
M  V30 7320 H 690.784 3.15963 -1.34247 0
M  V30 7321 N 693.229 0.160201 1.56784 0
M  V30 7322 C 694.159 -0.770264 2.2043 0
M  V30 7323 C 695.14 -1.24736 1.15651 0
M  V30 7324 O 696.325 -1.30253 1.44041 0
M  V30 7325 C 693.455 -2.00427 2.83631 0
M  V30 7326 C 692.409 -1.66345 3.94352 0
M  V30 7327 C 691.735 -2.97119 4.4455 0
M  V30 7328 C 693.035 -0.899972 5.14488 0
M  V30 7329 H 694.729 -0.239783 2.98438 0
M  V30 7330 H 692.275 -0.113891 1.43549 0
M  V30 7331 H 694.228 -2.66012 3.26827 0
M  V30 7332 H 692.952 -2.5587 2.02973 0
M  V30 7333 H 691.611 -1.03133 3.51794 0
M  V30 7334 H 691.259 -3.5058 3.60698 0
M  V30 7335 H 690.959 -2.75073 5.19238 0
M  V30 7336 H 692.483 -3.63753 4.90425 0
M  V30 7337 H 693.897 -1.45818 5.54446 0
M  V30 7338 H 692.294 -0.778968 5.95023 0
M  V30 7339 H 693.364 0.105827 4.84785 0
M  V30 7340 N 694.707 -1.5719 -0.113559 0
M  V30 7341 C 695.935 -1.89328 -0.834422 0
M  V30 7342 C 696.35 -0.752018 -1.73177 0
M  V30 7343 O 695.707 0.276912 -1.80387 0
M  V30 7344 C 695.758 -3.20962 -1.66329 0
M  V30 7345 O 695.479 -4.30695 -0.802069 0
M  V30 7346 C 696.98 -3.6684 -2.48884 0
M  V30 7347 H 694.2 -0.626769 -0.239587 0
M  V30 7348 H 696.744 -2.04273 -0.0963195 0
M  V30 7349 H 694.899 -3.0767 -2.35409 0
M  V30 7350 H 695.313 -5.06175 -1.37431 0
M  V30 7351 H 696.787 -4.61692 -3.02563 0
M  V30 7352 H 697.264 -2.93765 -3.26495 0
M  V30 7353 H 697.87 -3.82938 -1.85036 0
M  V30 7354 N 696.185 0.383891 -1.52853 0
M  V30 7355 C 697.434 1.12563 -1.67369 0
M  V30 7356 C 697.747 1.90982 -0.422533 0
M  V30 7357 O 698.953 2.6778 -0.447914 0
M  V30 7358 C 697.409 2.05011 -2.95801 0
M  V30 7359 C 697.017 1.31991 -4.28115 0
M  V30 7360 C 698.761 2.79289 -3.19684 0
M  V30 7361 C 696.668 2.23235 -5.4765 0
M  V30 7362 H 695.598 0.42391 -0.623552 0
M  V30 7363 H 698.249 0.388016 -1.79351 0
M  V30 7364 H 696.631 2.82429 -2.77578 0
M  V30 7365 H 697.805 0.597633 -4.56908 0
M  V30 7366 H 696.12 0.696517 -4.10533 0
M  V30 7367 H 698.717 3.47749 -4.06171 0
M  V30 7368 H 699.06 3.43649 -2.3497 0
M  V30 7369 H 699.593 2.08962 -3.38496 0
M  V30 7370 H 696.332 1.63482 -6.34786 0
M  V30 7371 H 695.852 2.93364 -5.23161 0
M  V30 7372 H 697.531 2.83205 -5.81725 0
M  V30 7373 N 697.663 1.43903 0.642637 0
M  V30 7374 C 698.61 1.49881 1.75512 0
M  V30 7375 C 699.58 0.347538 1.62423 0
M  V30 7376 O 700.765 0.556177 1.82514 0
M  V30 7377 C 697.905 1.43797 3.13714 0
M  V30 7378 C 697.018 2.6921 3.37861 0
M  V30 7379 C 696.153 2.5504 4.6597 0
M  V30 7380 C 695.192 3.75671 4.83257 0
M  V30 7381 N 694.329 3.60247 6.02633 0
M  V30 7382 H 699.169 2.44935 1.69737 0
M  V30 7383 H 696.706 1.21572 0.828165 0
M  V30 7384 H 698.664 1.38262 3.93624 0
M  V30 7385 H 697.294 0.523173 3.18532 0
M  V30 7386 H 696.346 2.8498 2.51973 0
M  V30 7387 H 697.658 3.58786 3.46517 0
M  V30 7388 H 696.812 2.47273 5.54023 0
M  V30 7389 H 695.551 1.63006 4.59653 0
M  V30 7390 H 694.556 3.83836 3.93637 0
M  V30 7391 H 695.781 4.68728 4.91397 0
M  V30 7392 H 693.727 2.70955 5.97427 0
M  V30 7393 H 693.644 4.43431 6.12295 0
M  V30 7394 H 694.912 3.56351 6.93278 0
M  V30 7395 N 699.141 -0.881989 1.30609 0
M  V30 7396 C 700.418 -1.61563 1.10258 0
M  V30 7397 C 700.798 -2.08228 -0.347053 0
M  V30 7398 O 700.146 -1.85151 -1.33908 0
M  V30 7399 C 700.356 -2.78287 2.10612 0
M  V30 7400 C 701.704 -3.48545 2.4249 0
M  V30 7401 O 702.728 -2.88479 2.08945 0
M  V30 7402 O 701.587 -4.56873 2.99883 0
M  V30 7403 H 698.681 -0.710238 0.423663 0
M  V30 7404 H 701.227 -0.928503 1.42045 0
M  V30 7405 H 699.999 -2.41131 3.08174 0
M  V30 7406 H 699.622 -3.54695 1.79659 0
M  V30 7407 N 700.619 -1.13374 -1.09472 0
M  V30 7408 C 702.03 -0.90801 -1.63132 0
M  V30 7409 C 702.381 0.555576 -1.8817 0
M  V30 7410 O 701.506 1.42218 -1.63104 0
M  V30 7411 C 702.101 -1.64182 -2.96361 0
M  V30 7412 C 700.66 -1.46197 -3.46848 0
M  V30 7413 C 699.807 -1.67134 -2.21273 0
M  V30 7414 H 702.758 -1.2871 -0.928411 0
M  V30 7415 H 702.779 -1.09863 -3.64294 0
M  V30 7416 H 702.291 -2.707 -2.78106 0
M  V30 7417 H 700.392 -0.419788 -3.70228 0
M  V30 7418 H 700.505 -2.22472 -4.24315 0
M  V30 7419 H 698.869 -1.09616 -2.29905 0
M  V30 7420 H 699.652 -2.74971 -2.05538 0
M  V30 7421 N 702.098 1.27442 -0.927168 0
M  V30 7422 C 703.061 2.2512 -0.430525 0
M  V30 7423 C 704.061 1.54357 0.450619 0
M  V30 7424 O 705.251 1.72371 0.251774 0
M  V30 7425 C 702.383 3.38763 0.381144 0
M  V30 7426 H 703.576 2.70569 -1.29354 0
M  V30 7427 H 701.129 1.39355 -0.707806 0
M  V30 7428 H 701.864 2.98695 1.263 0
M  V30 7429 H 701.649 3.91298 -0.250618 0
M  V30 7430 H 703.139 4.11364 0.719012 0
M  V30 7431 N 703.576 0.692616 1.41565 0
M  V30 7432 C 704.822 0.222664 2.01574 0
M  V30 7433 C 705.155 -1.1737 1.54719 0
M  V30 7434 O 704.43 -1.79161 0.757084 0
M  V30 7435 C 704.713 0.277064 3.59033 0
M  V30 7436 C 704.566 1.71016 4.16021 0
M  V30 7437 C 705.885 -0.36479 4.38586 0
M  V30 7438 H 703.004 0.0823839 0.732381 0
M  V30 7439 H 705.646 0.880778 1.68352 0
M  V30 7440 H 703.796 -0.283288 3.87466 0
M  V30 7441 H 705.468 2.32413 3.98475 0
M  V30 7442 H 703.711 2.24525 3.71175 0
M  V30 7443 H 704.382 1.69978 5.25178 0
M  V30 7444 H 706.858 0.112404 4.15948 0
M  V30 7445 H 705.734 -0.296169 5.481 0
M  V30 7446 H 705.995 -1.44506 4.17816 0
M  V30 7447 N 705.054 -1.51416 0.437162 0
M  V30 7448 C 706.302 -2.01687 -0.129108 0
M  V30 7449 C 706.623 -1.32329 -1.43227 0
M  V30 7450 O 705.893 -0.457796 -1.90476 0
M  V30 7451 H 704.473 -0.745277 -0.0507023 0
M  V30 7452 H 707.135 -1.86075 0.579828 0
M  V30 7453 H 706.231 -3.10605 -0.305141 0
M  V30 7454 N 706.532 -0.168513 -1.56696 0
M  V30 7455 C 707.779 0.477158 -1.96798 0
M  V30 7456 C 708.107 1.63442 -1.05437 0
M  V30 7457 O 707.362 1.95503 -0.0878903 0
M  V30 7458 C 707.661 1.00441 -3.42996 0
M  V30 7459 C 707.327 -0.0366556 -4.50885 0
M  V30 7460 C 705.989 -0.322785 -4.80116 0
M  V30 7461 C 708.341 -0.743447 -5.1587 0
M  V30 7462 C 705.669 -1.32114 -5.71632 0
M  V30 7463 C 708.021 -1.73077 -6.08463 0
M  V30 7464 C 706.685 -2.02437 -6.36062 0
M  V30 7465 H 705.955 0.174604 -0.720135 0
M  V30 7466 H 708.602 -0.259884 -1.89728 0
M  V30 7467 H 706.907 1.81922 -3.47004 0
M  V30 7468 H 708.604 1.51294 -3.71364 0
M  V30 7469 H 705.194 0.196532 -4.28149 0
M  V30 7470 H 709.378 -0.535602 -4.93401 0
M  V30 7471 H 704.634 -1.55482 -5.913 0
M  V30 7472 H 708.808 -2.28382 -6.57886 0
M  V30 7473 H 706.435 -2.79946 -7.06777 0
M  V30 7474 N 708.01 1.57248 0.105221 0
M  V30 7475 C 708.94 2.04374 1.12931 0
M  V30 7476 C 709.921 0.93074 1.42377 0
M  V30 7477 O 711.106 1.20136 1.52581 0
M  V30 7478 C 708.236 2.45967 2.45189 0
M  V30 7479 C 707.19 3.60838 2.30174 0
M  V30 7480 C 706.516 3.88374 3.67518 0
M  V30 7481 C 707.816 4.92084 1.75073 0
M  V30 7482 H 709.51 2.9018 0.737287 0
M  V30 7483 H 707.056 1.39601 0.353211 0
M  V30 7484 H 709.009 2.77542 3.17094 0
M  V30 7485 H 707.733 1.57148 2.86308 0
M  V30 7486 H 706.392 3.29493 1.60716 0
M  V30 7487 H 706.04 2.96739 4.06147 0
M  V30 7488 H 705.74 4.65703 3.58321 0
M  V30 7489 H 707.264 4.22415 4.40906 0
M  V30 7490 H 708.678 5.22106 2.36809 0
M  V30 7491 H 707.075 5.73507 1.76662 0
M  V30 7492 H 708.145 4.79684 0.709347 0
M  V30 7493 N 709.488 -0.375779 1.53054 0
M  V30 7494 C 710.398 -1.48381 1.81715 0
M  V30 7495 C 711.414 -1.59087 0.704795 0
M  V30 7496 O 712.59 -1.75174 0.993785 0
M  V30 7497 C 709.655 -2.83767 1.99192 0
M  V30 7498 C 708.716 -2.82673 3.23102 0
M  V30 7499 C 707.949 -4.11601 3.39736 0
M  V30 7500 O 708.172 -5.07243 2.60885 0
M  V30 7501 O 707.106 -4.18034 4.33049 0
M  V30 7502 H 710.932 -1.27089 2.7583 0
M  V30 7503 H 708.517 -0.564902 1.38308 0
M  V30 7504 H 710.399 -3.64004 2.12318 0
M  V30 7505 H 709.074 -3.05057 1.08267 0
M  V30 7506 H 707.981 -2.0117 3.15407 0
M  V30 7507 H 709.314 -2.66335 4.13916 0
M  V30 7508 N 710.966 -1.44241 -0.634997 0
M  V30 7509 C 712.194 -1.50296 -1.42193 0
M  V30 7510 C 712.609 -0.12658 -1.88375 0
M  V30 7511 O 711.966 0.86678 -1.60603 0
M  V30 7512 C 712.017 -2.46437 -2.64482 0
M  V30 7513 O 711.738 -3.78724 -2.20226 0
M  V30 7514 C 713.239 -2.61918 -3.57651 0
M  V30 7515 H 710.459 -0.509865 -0.43621 0
M  V30 7516 H 713.003 -1.89167 -0.776921 0
M  V30 7517 H 711.158 -2.10712 -3.25083 0
M  V30 7518 H 711.572 -4.30595 -2.9948 0
M  V30 7519 H 713.046 -3.33225 -4.40074 0
M  V30 7520 H 713.523 -1.67017 -4.06204 0
M  V30 7521 H 714.129 -2.98528 -3.02921 0
M  V30 7522 N 712.444 0.87505 -1.31075 0
M  V30 7523 C 713.693 1.62245 -1.19831 0
M  V30 7524 C 714.006 1.94078 0.24357 0
M  V30 7525 O 715.212 2.67265 0.477646 0
M  V30 7526 C 713.668 2.92464 -2.09744 0
M  V30 7527 C 713.276 2.68134 -3.58898 0
M  V30 7528 C 715.02 3.70449 -2.07287 0
M  V30 7529 C 712.927 3.9423 -4.40836 0
M  V30 7530 H 711.857 0.608741 -0.444916 0
M  V30 7531 H 714.508 0.967947 -1.55894 0
M  V30 7532 H 712.89 3.59262 -1.66574 0
M  V30 7533 H 714.064 2.09776 -4.10281 0
M  V30 7534 H 712.379 2.03511 -3.6328 0
M  V30 7535 H 714.976 4.63983 -2.65752 0
M  V30 7536 H 715.319 4.02611 -1.05876 0
M  V30 7537 H 715.852 3.10528 -2.48631 0
M  V30 7538 H 712.591 3.67221 -5.42982 0
M  V30 7539 H 712.111 4.52058 -3.94213 0
M  V30 7540 H 713.79 4.62162 -4.52786 0
M  V30 7541 N 713.922 1.13953 1.08869 0
M  V30 7542 C 715.147 0.928559 1.85452 0
M  V30 7543 C 715.572 -0.517642 1.80837 0
M  V30 7544 O 714.93 -1.36779 1.19001 0
M  V30 7545 C 714.978 1.42814 3.31114 0
M  V30 7546 O 714.082 0.617129 4.07756 0
M  V30 7547 H 713.423 0.33235 0.574839 0
M  V30 7548 H 715.953 1.5156 1.37443 0
M  V30 7549 H 715.963 1.43425 3.8196 0
M  V30 7550 H 714.638 2.48109 3.33788 0
M  V30 7551 H 713.215 0.679365 3.66659 0
M  V30 7552 N 715.4 -1.26948 0.933913 0
M  V30 7553 C 716.811 -1.76058 0.621324 0
M  V30 7554 C 717.162 -1.76175 -0.863522 0
M  V30 7555 O 716.287 -1.36921 -1.67576 0
M  V30 7556 C 716.882 -3.19713 1.12111 0
M  V30 7557 C 715.441 -3.66465 0.859074 0
M  V30 7558 C 714.588 -2.46186 1.27624 0
M  V30 7559 H 717.539 -1.13127 1.11301 0
M  V30 7560 H 717.56 -3.77566 0.471608 0
M  V30 7561 H 717.072 -3.19596 2.20182 0
M  V30 7562 H 715.173 -3.72021 -0.207566 0
M  V30 7563 H 715.286 -4.55636 1.48098 0
M  V30 7564 H 713.65 -2.45042 0.694727 0
M  V30 7565 H 714.433 -2.48774 2.36572 0
M  V30 7566 N 716.879 -0.700114 -1.41195 0
M  V30 7567 C 718.127 -0.232546 -2.00758 0
M  V30 7568 C 718.448 1.1734 -1.55745 0
M  V30 7569 O 717.718 1.79262 -0.790058 0
M  V30 7570 H 716.298 -0.0829845 -0.742376 0
M  V30 7571 H 718.96 -0.902289 -1.72756 0
M  V30 7572 H 718.056 -0.253521 -3.11069 0
M  V30 7573 N 718.357 1.51182 -0.445186 0
M  V30 7574 C 719.587 2.06269 0.116922 0
M  V30 7575 C 719.995 1.31188 1.36332 0
M  V30 7576 O 719.338 0.367067 1.79995 0
M  V30 7577 C 719.4 3.56051 0.496757 0
M  V30 7578 C 719.064 4.52441 -0.64394 0
M  V30 7579 C 720.061 4.97233 -1.5184 0
M  V30 7580 C 717.746 4.95447 -0.826905 0
M  V30 7581 C 719.74 5.83712 -2.56046 0
M  V30 7582 C 717.427 5.81714 -1.87222 0
M  V30 7583 C 718.425 6.25745 -2.73738 0
M  V30 7584 O 718.113 7.10298 -3.76474 0
M  V30 7585 H 717.845 0.675954 0.00785733 0
M  V30 7586 H 720.399 1.95648 -0.625371 0
M  V30 7587 H 718.629 3.64483 1.29187 0
M  V30 7588 H 720.318 3.93618 0.990928 0
M  V30 7589 H 721.084 4.64696 -1.38862 0
M  V30 7590 H 716.963 4.60712 -0.163052 0
M  V30 7591 H 720.507 6.18 -3.23607 0
M  V30 7592 H 716.404 6.13664 -2.00218 0
M  V30 7593 H 717.172 7.28493 -3.73149 0
M  V30 7594 N 719.835 0.176821 1.56605 0
M  V30 7595 C 721.06 -0.47599 2.01864 0
M  V30 7596 C 721.485 -1.55645 1.05623 0
M  V30 7597 O 720.843 -1.81263 0.0366729 0
M  V30 7598 C 720.891 -1.02619 3.4569 0
M  V30 7599 O 719.995 -2.13996 3.52533 0
M  V30 7600 H 719.336 -0.113363 0.654251 0
M  V30 7601 H 721.866 0.28233 2.02643 0
M  V30 7602 H 721.876 -1.34742 3.85109 0
M  V30 7603 H 720.551 -0.235138 4.15235 0
M  V30 7604 H 719.128 -1.82876 3.24978 0
M  V30 7605 N 721.313 -1.57302 -0.09688 0
M  V30 7606 C 722.562 -1.85183 -0.799388 0
M  V30 7607 C 722.875 -0.765818 -1.79985 0
M  V30 7608 O 724.081 -0.931696 -2.55013 0
M  V30 7609 C 722.537 -3.28399 -1.47249 0
M  V30 7610 C 722.145 -4.45066 -0.511888 0
M  V30 7611 C 723.889 -3.65506 -2.15883 0
M  V30 7612 C 721.796 -5.79315 -1.18948 0
M  V30 7613 H 720.726 -0.690752 -0.302287 0
M  V30 7614 H 723.377 -1.83425 -0.0523104 0
M  V30 7615 H 721.759 -3.24692 -2.26697 0
M  V30 7616 H 722.933 -4.60116 0.250962 0
M  V30 7617 H 721.248 -4.16343 0.0686576 0
M  V30 7618 H 723.845 -4.63087 -2.67309 0
M  V30 7619 H 724.188 -2.94041 -2.94696 0
M  V30 7620 H 724.721 -3.71094 -1.43298 0
M  V30 7621 H 721.46 -6.54007 -0.442198 0
M  V30 7622 H 720.98 -5.68111 -1.9238 0
M  V30 7623 H 722.659 -6.23816 -1.71646 0
M  V30 7624 N 722.791 0.367657 -1.53252 0
M  V30 7625 C 723.741 1.45035 -1.75923 0
M  V30 7626 C 724.725 1.48736 -0.613719 0
M  V30 7627 O 725.917 1.54012 -0.872313 0
M  V30 7628 C 723.046 2.82493 -1.9507 0
M  V30 7629 C 722.132 2.83279 -3.15617 0
M  V30 7630 N 722.523 2.53712 -4.37566 0
M  V30 7631 C 720.821 3.1444 -3.16297 0
M  V30 7632 C 721.522 2.62123 -5.19294 0
M  V30 7633 N 720.498 2.96747 -4.55458 0
M  V30 7634 H 724.3 1.21035 -2.6782 0
M  V30 7635 H 721.814 0.575822 -1.51849 0
M  V30 7636 H 723.811 3.60473 -2.0944 0
M  V30 7637 H 722.471 3.07459 -1.044 0
M  V30 7638 H 723.482 2.27344 -4.65333 0
M  V30 7639 H 720.159 3.44733 -2.35511 0
M  V30 7640 H 721.549 2.42628 -6.26563 0
M  V30 7641 N 724.269 1.44576 0.627338 0
M  V30 7642 C 725.497 1.51048 1.41394 0
M  V30 7643 C 725.912 0.136568 1.88305 0
M  V30 7644 O 725.269 -0.858251 1.6106 0
M  V30 7645 C 725.32 2.47837 2.63172 0
M  V30 7646 O 725.041 3.79887 2.18215 0
M  V30 7647 C 726.542 2.63811 3.56257 0
M  V30 7648 H 723.762 0.512171 0.4335 0
M  V30 7649 H 726.306 1.89576 0.766878 0
M  V30 7650 H 724.461 2.12433 3.23961 0
M  V30 7651 H 724.875 4.32177 2.97192 0
M  V30 7652 H 726.349 3.35554 4.38301 0
M  V30 7653 H 726.826 1.69169 4.05313 0
M  V30 7654 H 727.432 3.0013 3.01333 0
M  V30 7655 N 725.747 -0.868086 1.31537 0
M  V30 7656 C 726.977 -1.65162 1.24118 0
M  V30 7657 C 727.385 -1.88187 -0.195558 0
M  V30 7658 O 726.728 -1.44154 -1.13866 0
M  V30 7659 C 726.79 -3.04119 1.91708 0
M  V30 7660 C 726.454 -3.04194 3.4105 0
M  V30 7661 C 727.451 -2.82016 4.36764 0
M  V30 7662 C 725.136 -3.25256 3.82772 0
M  V30 7663 C 727.13 -2.80881 5.72175 0
M  V30 7664 C 724.817 -3.23749 5.18295 0
M  V30 7665 C 725.815 -3.01589 6.12808 0
M  V30 7666 O 725.503 -2.9993 7.45853 0
M  V30 7667 H 725.235 -0.521597 0.430015 0
M  V30 7668 H 727.789 -1.09165 1.73989 0
M  V30 7669 H 726.019 -3.61849 1.36389 0
M  V30 7670 H 727.708 -3.64701 1.78179 0
M  V30 7671 H 728.474 -2.65525 4.05859 0
M  V30 7672 H 724.353 -3.41534 3.09638 0
M  V30 7673 H 727.897 -2.63503 6.45919 0
M  V30 7674 H 723.794 -3.39781 5.48834 0
M  V30 7675 H 724.562 -3.15979 7.55049 0
M  V30 7676 N 727.225 -1.14528 -1.08264 0
M  V30 7677 C 728.155 -0.856356 -2.1723 0
M  V30 7678 C 729.136 0.189251 -1.69044 0
M  V30 7679 O 730.321 0.0456119 -1.94146 0
M  V30 7680 C 727.451 -0.334662 -3.45684 0
M  V30 7681 C 726.405 -1.31588 -4.0727 0
M  V30 7682 C 725.731 -0.653428 -5.30692 0
M  V30 7683 C 727.031 -2.67866 -4.48381 0
M  V30 7684 H 728.725 -1.76755 -2.41657 0
M  V30 7685 H 726.271 -0.851287 -1.16143 0
M  V30 7686 H 728.224 -0.120128 -4.21229 0
M  V30 7687 H 726.948 0.611967 -3.20815 0
M  V30 7688 H 725.607 -1.51661 -3.33758 0
M  V30 7689 H 725.255 0.299054 -5.0211 0
M  V30 7690 H 724.955 -1.30817 -5.72853 0
M  V30 7691 H 726.479 -0.448453 -6.08951 0
M  V30 7692 H 727.893 -2.51692 -5.15096 0
M  V30 7693 H 726.29 -3.29627 -5.01464 0
M  V30 7694 H 727.36 -3.24632 -3.60198 0
M  V30 7695 N 728.703 1.26451 -0.940633 0
M  V30 7696 C 729.949 1.94401 -0.598303 0
M  V30 7697 C 730.304 1.72449 0.853178 0
M  V30 7698 O 729.597 1.0506 1.60228 0
M  V30 7699 C 729.791 3.46503 -0.875794 0
M  V30 7700 C 729.62 3.83247 -2.3527 0
M  V30 7701 C 728.39 4.06032 -3.00776 0
M  V30 7702 C 730.588 3.91841 -3.33114 0
M  V30 7703 N 728.57 4.29656 -4.38485 0
M  V30 7704 C 729.941 4.19991 -4.56078 0
M  V30 7705 C 731.996 3.74466 -3.28146 0
M  V30 7706 C 730.699 4.32574 -5.74693 0
M  V30 7707 C 732.725 3.88281 -4.46085 0
M  V30 7708 C 732.087 4.16829 -5.67831 0
M  V30 7709 H 728.186 0.734168 -0.269297 0
M  V30 7710 H 730.77 1.52541 -1.20992 0
M  V30 7711 H 728.941 3.87292 -0.293223 0
M  V30 7712 H 730.673 4.01664 -0.494788 0
M  V30 7713 H 727.428 4.01369 -2.51396 0
M  V30 7714 H 727.852 4.45501 -5.09762 0
M  V30 7715 H 732.494 3.51424 -2.35077 0
M  V30 7716 H 730.212 4.54438 -6.68215 0
M  V30 7717 H 733.798 3.76241 -4.43773 0
M  V30 7718 H 732.678 4.27284 -6.5757 0
M  V30 7719 N 730.181 0.707592 1.40822 0
M  V30 7720 C 731.597 0.38034 1.55002 0
M  V30 7721 C 731.797 -1.11163 1.68062 0
M  V30 7722 O 730.853 -1.89761 1.66574 0
M  V30 7723 C 732.166 1.1394 2.78277 0
M  V30 7724 C 733.714 1.12492 2.92087 0
M  V30 7725 C 734.189 1.86597 4.18265 0
M  V30 7726 N 735.68 1.83626 4.25248 0
M  V30 7727 C 736.415 2.37794 5.21768 0
M  V30 7728 N 735.911 3.00485 6.24244 0
M  V30 7729 N 737.704 2.27982 5.13791 0
M  V30 7730 H 729.855 1.67511 1.3059 0
M  V30 7731 H 732.118 0.707579 0.630901 0
M  V30 7732 H 731.824 2.19398 2.74877 0
M  V30 7733 H 731.698 0.725793 3.70151 0
M  V30 7734 H 734.085 0.0785564 2.94995 0
M  V30 7735 H 734.166 1.57768 2.01353 0
M  V30 7736 H 733.81 2.91219 4.16118 0
M  V30 7737 H 733.74 1.38746 5.07993 0
M  V30 7738 H 736.231 1.3793 3.51829 0
M  V30 7739 H 736.544 3.39355 6.94304 0
M  V30 7740 H 734.889 3.04567 6.24711 0
M  V30 7741 H 738.08 1.78669 4.3266 0
M  V30 7742 H 738.253 2.70499 5.88841 0
M  V30 7743 N 731.66 -1.50943 0.453197 0
M  V30 7744 C 733.076 -1.59245 0.106342 0
M  V30 7745 C 733.276 -1.46287 -1.38572 0
M  V30 7746 O 732.332 -1.31219 -2.15726 0
M  V30 7747 C 733.645 -2.93797 0.640595 0
M  V30 7748 C 735.193 -3.07148 0.602435 0
M  V30 7749 C 735.668 -4.44247 1.11393 0
M  V30 7750 N 737.159 -4.50611 1.07258 0
M  V30 7751 C 737.894 -5.55049 1.43905 0
M  V30 7752 N 737.39 -6.66828 1.87914 0
M  V30 7753 N 739.183 -5.45494 1.35621 0
M  V30 7754 H 731.334 -1.5761 1.42382 0
M  V30 7755 H 733.597 -0.74384 0.587713 0
M  V30 7756 H 733.303 -3.087 1.68515 0
M  V30 7757 H 733.177 -3.77127 0.0742272 0
M  V30 7758 H 735.564 -2.91903 -0.433171 0
M  V30 7759 H 735.645 -2.25619 1.20539 0
M  V30 7760 H 735.289 -4.60239 2.14808 0
M  V30 7761 H 735.219 -5.2434 0.487353 0
M  V30 7762 H 737.71 -3.70391 0.749585 0
M  V30 7763 H 738.023 -7.42558 2.14072 0
M  V30 7764 H 736.368 -6.67995 1.91853 0
M  V30 7765 H 739.559 -4.57053 1.01093 0
M  V30 7766 H 739.732 -6.2677 1.64508 0
M  V30 7767 N 733.138 -0.185124 -1.56509 0
M  V30 7768 C 734.07 0.771401 -2.15829 0
M  V30 7769 C 735.083 1.18392 -1.11747 0
M  V30 7770 O 736.272 1.12137 -1.38879 0
M  V30 7771 C 733.372 2.05169 -2.69739 0
M  V30 7772 C 732.545 1.80056 -3.98621 0
M  V30 7773 C 731.604 2.92435 -4.37456 0
M  V30 7774 O 730.63 2.62473 -5.05071 0
M  V30 7775 N 731.832 4.20554 -4.00143 0
M  V30 7776 H 734.597 0.264184 -2.98533 0
M  V30 7777 H 732.158 -0.00281069 -1.619 0
M  V30 7778 H 734.15 2.7947 -2.92709 0
M  V30 7779 H 732.72 2.47041 -1.91545 0
M  V30 7780 H 731.94 0.895862 -3.83885 0
M  V30 7781 H 733.228 1.60662 -4.82768 0
M  V30 7782 H 732.626 4.47753 -3.45736 0
M  V30 7783 H 731.183 4.91514 -4.28085 0
M  V30 7784 O 734.655 1.6143 -0.0476879 0
M  V30 7785 H 735.346 1.85363 0.562176 0
M  V30 END ATOM
M  V30 BEGIN BOND
M  V30 END BOND
M  V30 END CTAB
M  END
$$$$
