drugbank_drug|DB06168 8836_H|canakinumab|Homo sapiens||H-GAMMA-1 (VH(1-118)+CH1(119-216)+HINGE-REGION(217-231)+CH2(232-341)+CH3(342-448))|||||||448||||MW 49253.6|MW 49253.6|
 OpenBabel12092119123D

  0  0  0     0  0            999 V3000
M  V30 BEGIN CTAB
M  V30 COUNTS 6872 6966 0 0 0
M  V30 BEGIN ATOM
M  V30 1 H -0.908 1.98254 -0.117106 0
M  V30 2 N 0 1.576 0 0
M  V30 3 C 0.932 2.05273 1.01958 0
M  V30 4 C 1.945 0.970662 1.30698 0
M  V30 5 O 3.134 1.24746 1.27674 0
M  V30 6 C 0.234 2.43771 2.35433 0
M  V30 7 C -0.593 3.74711 2.25633 0
M  V30 8 C -1.534 4.00077 3.41796 0
M  V30 9 O -2.508 4.70743 3.19984 0
M  V30 10 N -1.306 3.47973 4.64645 0
M  V30 11 H 1.459 2.93363 0.613025 0
M  V30 12 H -0.98 1.60812 0.187383 0
M  V30 13 H 1.012 2.57855 3.11918 0
M  V30 14 H -0.418 1.612 2.67831 0
M  V30 15 H -1.198 3.70705 1.34059 0
M  V30 16 H 0.09 4.60554 2.16258 0
M  V30 17 H -0.512 2.90748 4.85265 0
M  V30 18 H -1.955 3.67386 5.38396 0
M  V30 19 N 1.4781 -0.272755 1.55222 0
M  V30 20 C 2.7241 -1.00581 1.761 0
M  V30 21 C 3.0571 -1.85932 0.560625 0
M  V30 22 O 2.3321 -1.89416 -0.441801 0
M  V30 23 C 2.6151 -1.88816 3.06628 0
M  V30 24 C 2.4681 -1.06457 4.37021 0
M  V30 25 C 3.7871 -2.8752 3.33197 0
M  V30 26 H 0.9061 -0.364244 0.640699 0
M  V30 27 H 3.5481 -0.278189 1.87952 0
M  V30 28 H 1.6981 -2.50856 2.96654 0
M  V30 29 H 3.3701 -0.464863 4.58952 0
M  V30 30 H 1.6131 -0.368043 4.32236 0
M  V30 31 H 2.2841 -1.71514 5.24678 0
M  V30 32 H 4.7601 -2.35615 3.42965 0
M  V30 33 H 3.6361 -3.46399 4.25792 0
M  V30 34 H 3.8971 -3.62657 2.52849 0
M  V30 35 N 2.9562 -1.48159 -0.537278 0
M  V30 36 C 3.8882 -1.58218 -1.65831 0
M  V30 37 C 4.9012 -0.466948 -1.5596 0
M  V30 38 O 6.0902 -0.73747 -1.62553 0
M  V30 39 C 3.1902 -1.48906 -3.04434 0
M  V30 40 C 2.3632 -2.75343 -3.3986 0
M  V30 41 C 1.4222 -2.59588 -4.57712 0
M  V30 42 O 0.4482 -3.33457 -4.61297 0
M  V30 43 N 1.6502 -1.68724 -5.55439 0
M  V30 44 H 4.4152 -2.54891 -1.57641 0
M  V30 45 H 1.9762 -1.4479 -0.724386 0
M  V30 46 H 3.9682 -1.36072 -3.81139 0
M  V30 47 H 2.5382 -0.602368 -3.06741 0
M  V30 48 H 1.7582 -3.02795 -2.52406 0
M  V30 49 H 3.0462 -3.5924 -3.60311 0
M  V30 50 H 2.4442 -1.07898 -5.55315 0
M  V30 51 H 1.0012 -1.61832 -6.3139 0
M  V30 52 N 4.4343 0.785586 -1.36625 0
M  V30 53 C 5.3643 1.91259 -1.33949 0
M  V30 54 C 6.3453 1.68795 -0.210325 0
M  V30 55 O 7.5303 1.89854 -0.408561 0
M  V30 56 C 4.6603 3.28339 -1.13186 0
M  V30 57 C 3.6143 3.65335 -2.22967 0
M  V30 58 C 2.9403 5.00806 -1.87342 0
M  V30 59 C 4.2403 3.7352 -3.65075 0
M  V30 60 H 5.9343 1.93755 -2.28253 0
M  V30 61 H 3.4803 0.930788 -1.09874 0
M  V30 62 H 5.4333 4.06804 -1.09948 0
M  V30 63 H 4.1573 3.2624 -0.153332 0
M  V30 64 H 2.8163 2.89169 -2.25337 0
M  V30 65 H 2.4643 4.95233 -0.880545 0
M  V30 66 H 2.1643 5.26529 -2.60846 0
M  V30 67 H 3.6883 5.81687 -1.85667 0
M  V30 68 H 5.1023 4.42168 -3.64911 0
M  V30 69 H 3.4993 4.10731 -4.37516 0
M  V30 70 H 4.5693 2.74527 -3.99703 0
M  V30 71 N 5.9124 1.20967 1.01018 0
M  V30 72 C 7.1584 1.02526 1.74975 0
M  V30 73 C 7.4914 -0.4408 1.89131 0
M  V30 74 O 6.7664 -1.32718 1.42184 0
M  V30 75 C 7.0494 1.71699 3.1653 0
M  V30 76 C 6.9024 3.25791 3.10129 0
M  V30 77 C 8.2214 1.45531 4.15342 0
M  V30 78 H 5.3404 0.373863 0.635134 0
M  V30 79 H 7.9824 1.49071 1.17805 0
M  V30 80 H 6.1324 1.32128 3.65341 0
M  V30 81 H 7.8044 3.74697 2.69072 0
M  V30 82 H 6.0474 3.56363 2.47362 0
M  V30 83 H 6.7184 3.69353 4.10222 0
M  V30 84 H 9.1944 1.79872 3.75213 0
M  V30 85 H 8.0704 1.96453 5.1254 0
M  V30 86 H 8.3314 0.384237 4.40427 0
M  V30 87 N 7.3905 -1.2043 1.01659 0
M  V30 88 C 8.3005 -2.2689 0.596484 0
M  V30 89 C 9.3165 -1.70107 -0.36599 0
M  V30 90 O 10.4925 -2.00117 -0.226942 0
M  V30 91 C 7.5575 -3.4665 -0.0586659 0
M  V30 92 C 6.6185 -4.18662 0.949751 0
M  V30 93 C 5.8515 -5.32705 0.32577 0
M  V30 94 O 6.0745 -5.63656 -0.874509 0
M  V30 95 O 5.0085 -5.92803 1.04249 0
M  V30 96 H 8.8345 -2.65041 1.4828 0
M  V30 97 H 6.4195 -1.27048 0.786082 0
M  V30 98 H 8.3015 -4.19256 -0.424564 0
M  V30 99 H 6.9765 -3.10375 -0.91918 0
M  V30 100 H 5.8835 -3.48229 1.36702 0
M  V30 101 H 7.2165 -4.58878 1.78023 0
M  V30 102 N 8.8686 -0.792821 -1.36206 0
M  V30 103 C 10.0936 -0.377701 -2.03932 0
M  V30 104 C 10.5186 0.998947 -1.59382 0
M  V30 105 O 9.8766 1.64421 -0.763903 0
M  V30 106 C 9.9246 -0.453635 -3.57735 0
M  V30 107 O 9.0286 0.538151 -4.08874 0
M  V30 108 H 8.3696 -0.159855 -0.644471 0
M  V30 109 H 10.8996 -1.07488 -1.7409 0
M  V30 110 H 10.9096 -0.318464 -4.06755 0
M  V30 111 H 9.5846 -1.45784 -3.89512 0
M  V30 112 H 8.1616 0.364359 -3.71116 0
M  V30 113 N 10.3467 1.47872 -0.545128 0
M  V30 114 C 11.5947 2.02093 -0.016553 0
M  V30 115 C 11.9157 1.42305 1.3332 0
M  V30 116 O 11.1857 0.593853 1.86682 0
M  V30 117 H 9.7657 0.746993 -0.00313038 0
M  V30 118 H 12.4277 1.81414 -0.712397 0
M  V30 119 H 11.5237 3.11996 0.0805422 0
M  V30 120 N 11.8248 0.280983 1.55075 0
M  V30 121 C 13.0728 -0.333455 1.9933 0
M  V30 122 C 13.3938 -1.55937 1.17085 0
M  V30 123 O 12.6638 -1.94143 0.261805 0
M  V30 124 H 11.2438 -0.126197 0.736263 0
M  V30 125 H 13.9058 0.387678 1.91005 0
M  V30 126 H 13.0018 -0.619292 3.05894 0
M  V30 127 N 13.3029 -1.57598 0.00835791 0
M  V30 128 C 14.5509 -1.90551 -0.6734 0
M  V30 129 C 14.8719 -0.883301 -1.73847 0
M  V30 130 O 14.1419 0.0781442 -1.95744 0
M  V30 131 H 12.7219 -0.703312 -0.251717 0
M  V30 132 H 15.3839 -1.94833 0.0512592 0
M  V30 133 H 14.4799 -2.9056 -1.13935 0
M  V30 134 N 14.781 0.264519 -1.55364 0
M  V30 135 C 16.027 0.99646 -1.76631 0
M  V30 136 C 16.36 1.85632 -0.570478 0
M  V30 137 O 15.635 1.89647 0.43175 0
M  V30 138 C 15.918 1.87187 -3.07625 0
M  V30 139 C 15.771 1.04138 -4.37579 0
M  V30 140 C 17.09 2.85749 -3.34717 0
M  V30 141 H 14.209 0.360841 -0.642622 0
M  V30 142 H 16.851 0.268218 -1.88097 0
M  V30 143 H 15.001 2.49279 -2.9798 0
M  V30 144 H 16.673 0.440517 -4.59192 0
M  V30 145 H 14.916 0.345115 -4.32425 0
M  V30 146 H 15.587 1.68729 -5.2558 0
M  V30 147 H 18.063 2.33793 -3.4421 0
M  V30 148 H 16.939 3.44136 -4.27623 0
M  V30 149 H 17.2 3.61311 -2.54768 0
M  V30 150 N 16.2591 1.48442 0.529413 0
M  V30 151 C 17.5051 1.5672 1.28711 0
M  V30 152 C 17.8381 0.2406 1.92704 0
M  V30 153 O 17.1131 -0.753454 1.79313 0
M  V30 154 C 17.3961 2.70587 2.37603 0
M  V30 155 C 17.2491 4.12953 1.78297 0
M  V30 156 C 18.5681 2.80212 3.39366 0
M  V30 157 H 15.6871 0.570474 0.466613 0
M  V30 158 H 18.3291 1.80617 0.589706 0
M  V30 159 H 16.4791 2.50342 2.97088 0
M  V30 160 H 18.1511 4.44639 1.22858 0
M  V30 161 H 16.3941 4.19927 1.0883 0
M  V30 162 H 17.0651 4.88448 2.57144 0
M  V30 163 H 19.5411 2.98553 2.89836 0
M  V30 164 H 18.4171 3.61611 4.12951 0
M  V30 165 H 18.6781 1.88393 3.99951 0
M  V30 166 N 17.7372 -0.778329 1.37039 0
M  V30 167 C 18.6692 -1.90034 1.2814 0
M  V30 168 C 19.6822 -1.61585 0.198558 0
M  V30 169 O 20.8712 -1.72625 0.454175 0
M  V30 170 C 17.9712 -3.25108 0.956968 0
M  V30 171 C 17.1442 -3.81253 2.14394 0
M  V30 172 C 16.2032 -4.94789 1.79082 0
M  V30 173 O 15.2292 -5.10721 2.51301 0
M  V30 174 N 16.4312 -5.75878 0.731043 0
M  V30 175 H 19.1962 -1.98186 2.24816 0
M  V30 176 H 16.7572 -0.957129 1.30578 0
M  V30 177 H 18.7492 -3.9857 0.701701 0
M  V30 178 H 17.3192 -3.125 0.0789812 0
M  V30 179 H 16.5392 -2.99647 2.56135 0
M  V30 180 H 17.8272 -4.15495 2.93668 0
M  V30 181 H 17.2252 -5.65547 0.131618 0
M  V30 182 H 15.7822 -6.49596 0.535622 0
M  V30 183 N 19.2153 -1.21501 -1.00376 0
M  V30 184 C 20.6263 -1.03146 -1.55621 0
M  V30 185 C 20.9773 0.408375 -1.91903 0
M  V30 186 O 20.1023 1.29177 -1.73616 0
M  V30 187 C 20.6973 -1.86612 -2.82775 0
M  V30 188 C 19.2563 -1.72586 -3.34501 0
M  V30 189 C 18.4033 -1.83747 -2.07683 0
M  V30 190 H 21.3543 -1.35505 -0.826081 0
M  V30 191 H 21.3753 -1.3771 -3.54706 0
M  V30 192 H 20.8873 -2.91399 -2.56336 0
M  V30 193 H 18.9883 -0.704877 -3.65872 0
M  V30 194 H 19.1013 -2.54623 -4.05837 0
M  V30 195 H 17.4653 -1.27069 -2.20739 0
M  V30 196 H 18.2483 -2.90044 -1.83655 0
M  V30 197 N 20.6934 1.19889 -1.02296 0
M  V30 198 C 21.9414 1.89046 -0.714558 0
M  V30 199 C 22.2624 1.79636 0.758681 0
M  V30 200 O 21.5324 1.20292 1.54618 0
M  V30 201 H 20.1124 0.699802 -0.261317 0
M  V30 202 H 22.7744 1.45574 -1.29592 0
M  V30 203 H 21.8704 2.95524 -1.0036 0
M  V30 204 N 22.1715 0.800033 1.35784 0
M  V30 205 C 23.5875 0.482977 1.52117 0
M  V30 206 C 23.7875 -0.996948 1.75109 0
M  V30 207 O 22.8435 -1.78216 1.78872 0
M  V30 208 C 24.1565 1.32264 2.70049 0
M  V30 209 C 25.7045 1.31742 2.83924 0
M  V30 210 C 26.1795 2.14106 4.04874 0
M  V30 211 N 27.6705 2.11607 4.12039 0
M  V30 212 C 28.4055 2.72099 5.04727 0
M  V30 213 N 27.9015 3.41492 6.02789 0
M  V30 214 N 29.6945 2.61776 4.97423 0
M  V30 215 H 21.8455 1.75856 1.19115 0
M  V30 216 H 24.1085 0.748122 0.582252 0
M  V30 217 H 23.8145 2.37261 2.59616 0
M  V30 218 H 23.6885 0.971303 3.6448 0
M  V30 219 H 26.0755 0.275333 2.93813 0
M  V30 220 H 26.1565 1.70859 1.9037 0
M  V30 221 H 25.8005 3.18351 3.95746 0
M  V30 222 H 25.7305 1.72353 4.97596 0
M  V30 223 H 28.2215 1.61112 3.41835 0
M  V30 224 H 28.5345 3.84953 6.70098 0
M  V30 225 H 26.8795 3.45596 6.02983 0
M  V30 226 H 30.0705 2.07157 4.19766 0
M  V30 227 H 30.2435 3.0921 5.69468 0
M  V30 228 N 23.6496 -1.47581 0.552962 0
M  V30 229 C 24.8746 -2.07378 0.0300593 0
M  V30 230 C 25.2996 -1.40355 -1.25229 0
M  V30 231 O 24.6576 -0.477099 -1.7491 0
M  V30 232 C 24.7056 -3.60274 -0.153231 0
M  V30 233 O 23.8096 -3.94041 -1.21678 0
M  V30 234 H 23.1506 -0.662158 0.0494182 0
M  V30 235 H 25.6806 -1.89662 0.767434 0
M  V30 236 H 25.6906 -4.0633 -0.368761 0
M  V30 237 H 24.3656 -4.08455 0.783397 0
M  V30 238 H 22.9426 -3.59735 -0.982079 0
M  V30 239 N 25.1277 -0.289203 -1.54924 0
M  V30 240 C 26.0577 0.58549 -2.2604 0
M  V30 241 C 27.0387 1.14753 -1.25562 0
M  V30 242 O 28.2237 1.17906 -1.54311 0
M  V30 243 C 25.3537 1.76305 -2.99222 0
M  V30 244 C 24.3077 1.33191 -4.06748 0
M  V30 245 C 23.6337 2.5937 -4.6758 0
M  V30 246 C 24.9337 0.471775 -5.20165 0
M  V30 247 H 26.6277 -0.00763532 -2.99399 0
M  V30 248 H 24.1737 -0.00511229 -1.43999 0
M  V30 249 H 26.1267 2.38097 -3.47689 0
M  V30 250 H 24.8507 2.38223 -2.23422 0
M  V30 251 H 23.5097 0.737121 -3.59113 0
M  V30 252 H 23.1577 3.19576 -3.88433 0
M  V30 253 H 22.8577 2.31228 -5.40192 0
M  V30 254 H 24.3817 3.21985 -5.18804 0
M  V30 255 H 25.7957 0.995056 -5.64599 0
M  V30 256 H 24.1927 0.284639 -5.99425 0
M  V30 257 H 25.2627 -0.506041 -4.82252 0
M  V30 258 N 26.6058 1.57591 -0.0167156 0
M  V30 259 C 28.0218 1.55946 0.339557 0
M  V30 260 C 28.2218 1.02109 1.73713 0
M  V30 261 O 27.2778 0.662303 2.43659 0
M  V30 262 C 28.5908 3.00037 0.199499 0
M  V30 263 C 30.1388 3.11805 0.273193 0
M  V30 264 C 30.6138 4.57713 0.162068 0
M  V30 265 N 32.1048 4.6268 0.219444 0
M  V30 266 C 32.8398 5.73185 0.157054 0
M  V30 267 N 32.3358 6.92786 0.0442936 0
M  V30 268 N 34.1288 5.61707 0.21014 0
M  V30 269 H 26.2798 1.90921 -0.930758 0
M  V30 270 H 28.5428 0.877674 -0.358319 0
M  V30 271 H 28.2488 3.4333 -0.76273 0
M  V30 272 H 28.1228 3.64387 0.974786 0
M  V30 273 H 30.5098 2.68433 1.22587 0
M  V30 274 H 30.5908 2.50201 -0.532256 0
M  V30 275 H 30.2348 5.01763 -0.78714 0
M  V30 276 H 30.1648 5.17283 0.986222 0
M  V30 277 H 32.6558 3.76649 0.307246 0
M  V30 278 H 32.9688 7.728 0.00304069 0
M  V30 279 H 31.3138 6.94999 0.00968457 0
M  V30 280 H 34.5048 4.6716 0.296546 0
M  V30 281 H 34.6778 6.47807 0.158054 0
M  V30 282 N 28.0839 -0.256276 1.55502 0
M  V30 283 C 29.0139 -1.32102 1.92539 0
M  V30 284 C 29.9949 -1.50684 0.789194 0
M  V30 285 O 31.1799 -1.63449 1.04872 0
M  V30 286 C 28.3099 -2.67752 2.21192 0
M  V30 287 C 27.2639 -2.63878 3.36975 0
M  V30 288 C 26.5899 -4.03236 3.51147 0
M  V30 289 C 27.8899 -2.21682 4.72921 0
M  V30 290 H 29.5839 -1.01351 2.81724 0
M  V30 291 H 27.1299 -0.486105 1.35547 0
M  V30 292 H 29.0829 -3.42365 2.45691 0
M  V30 293 H 27.8069 -3.0012 1.28824 0
M  V30 294 H 26.4659 -1.91722 3.12471 0
M  V30 295 H 26.1139 -4.32854 2.56216 0
M  V30 296 H 25.8139 -4.01535 4.29003 0
M  V30 297 H 27.3379 -4.79563 3.77957 0
M  V30 298 H 28.7519 -2.86023 4.96854 0
M  V30 299 H 27.1489 -2.3111 5.53812 0
M  V30 300 H 28.2189 -1.16833 4.70615 0
M  V30 301 N 29.562 -1.4872 -0.521534 0
M  V30 302 C 30.787 -1.61101 -1.30618 0
M  V30 303 C 31.212 -0.274611 -1.86085 0
M  V30 304 O 30.57 0.754937 -1.64834 0
M  V30 305 C 30.618 -2.66709 -2.4269 0
M  V30 306 O 29.722 -2.24456 -3.45967 0
M  V30 307 H 29.063 -0.539921 -0.386499 0
M  V30 308 H 31.593 -1.94767 -0.626645 0
M  V30 309 H 31.603 -2.88245 -2.88754 0
M  V30 310 H 30.278 -3.63727 -2.01682 0
M  V30 311 H 28.855 -2.13168 -3.05964 0
M  V30 312 N 31.0401 0.771051 -1.3745 0
M  V30 313 C 32.2801 1.54264 -1.34096 0
M  V30 314 C 32.6441 1.91858 0.0737639 0
M  V30 315 O 33.8451 2.67797 0.23203 0
M  V30 316 C 32.1161 2.77326 -2.25445 0
M  V30 317 S 33.6751 3.67383 -2.39948 0
M  V30 318 H 30.4931 0.528122 -0.476034 0
M  V30 319 H 33.0951 0.906633 -1.73206 0
M  V30 320 H 31.7991 2.47788 -3.27153 0
M  V30 321 H 31.3301 3.45886 -1.87421 0
M  V30 322 H 33.3451 4.69334 -1.61059 0
M  V30 323 N 32.5182 1.22032 0.997298 0
M  V30 324 C 33.4812 0.987909 2.06816 0
M  V30 325 C 34.4812 -0.0440084 1.6074 0
M  V30 326 O 35.6712 0.194053 1.73116 0
M  V30 327 C 32.8032 0.49132 3.37341 0
M  V30 328 H 33.9962 1.93803 2.28868 0
M  V30 329 H 31.5492 1.03838 1.16822 0
M  V30 330 H 32.2842 -0.463364 3.20973 0
M  V30 331 H 32.0692 1.23575 3.72118 0
M  V30 332 H 33.5592 0.348824 4.16141 0
M  V30 333 N 33.9963 -1.19345 1.0293 0
M  V30 334 C 34.9593 -2.20793 0.615069 0
M  V30 335 C 35.9593 -1.57553 -0.321533 0
M  V30 336 O 37.1493 -1.73862 -0.108483 0
M  V30 337 C 34.2813 -3.40754 -0.0999222 0
M  V30 338 H 35.4743 -2.58955 1.51269 0
M  V30 339 H 33.0273 -1.3303 0.820534 0
M  V30 340 H 33.7623 -3.0811 -1.01187 0
M  V30 341 H 33.5473 -3.87889 0.57309 0
M  V30 342 H 35.0373 -4.15898 -0.376645 0
M  V30 343 N 35.4744 -0.807222 -1.35358 0
M  V30 344 C 36.6994 -0.399309 -2.0352 0
M  V30 345 C 37.1244 0.981986 -1.60433 0
M  V30 346 O 36.4824 1.63601 -0.781299 0
M  V30 347 C 36.5304 -0.491552 -3.57234 0
M  V30 348 O 35.6344 0.494754 -4.09421 0
M  V30 349 H 34.9754 -0.166682 -0.642739 0
M  V30 350 H 37.5054 -1.09328 -1.72941 0
M  V30 351 H 37.5154 -0.361588 -4.06395 0
M  V30 352 H 36.1904 -1.49907 -3.87944 0
M  V30 353 H 34.7674 0.324977 -3.71481 0
M  V30 354 N 36.9525 1.47285 -0.560781 0
M  V30 355 C 38.2005 2.02064 -0.0379868 0
M  V30 356 C 38.5215 1.43711 1.31803 0
M  V30 357 O 37.7915 0.61362 1.86042 0
M  V30 358 H 36.3715 0.746918 -0.0110531 0
M  V30 359 H 39.0335 1.80648 -0.731598 0
M  V30 360 H 38.1295 3.12064 0.0474463 0
M  V30 361 N 38.4306 0.297415 1.54768 0
M  V30 362 C 39.6776 -0.312913 2.00068 0
M  V30 363 C 40.0056 -1.54171 1.18582 0
M  V30 364 O 39.2606 -1.94108 0.249133 0
M  V30 365 C 39.5596 -0.717561 3.50123 0
M  V30 366 C 39.2256 0.409095 4.4904 0
M  V30 367 C 37.8876 0.718399 4.75807 0
M  V30 368 C 40.2396 1.16717 5.07963 0
M  V30 369 C 37.5676 1.78896 5.5876 0
M  V30 370 C 39.9196 2.22762 5.92081 0
M  V30 371 C 38.5836 2.54303 6.1716 0
M  V30 372 H 37.8536 -0.114503 0.7321 0
M  V30 373 H 40.5006 0.415767 1.86932 0
M  V30 374 H 38.8056 -1.52627 3.60849 0
M  V30 375 H 40.5026 -1.20091 3.82595 0
M  V30 376 H 37.0926 0.157918 4.28309 0
M  V30 377 H 41.2766 0.941466 4.87289 0
M  V30 378 H 36.5326 2.0381 5.7643 0
M  V30 379 H 40.7066 2.81962 6.36765 0
M  V30 380 H 38.3336 3.3739 6.81229 0
M  V30 381 N 39.9087 -1.5758 0.0250728 0
M  V30 382 C 41.1367 -1.9593 -0.664747 0
M  V30 383 C 41.5517 -0.901352 -1.65895 0
M  V30 384 O 40.9087 0.117255 -1.82123 0
M  V30 385 C 40.9597 -3.34342 -1.37468 0
M  V30 386 O 40.6807 -4.36079 -0.420324 0
M  V30 387 C 42.1817 -3.873 -2.1567 0
M  V30 388 H 39.4017 -0.645405 -0.183557 0
M  V30 389 H 41.9457 -2.04329 0.0836372 0
M  V30 390 H 40.1007 -3.27175 -2.0745 0
M  V30 391 H 40.5147 -5.16297 -0.923991 0
M  V30 392 H 41.9887 -4.86504 -2.60803 0
M  V30 393 H 42.4657 -3.21331 -2.99405 0
M  V30 394 H 43.0717 -3.97723 -1.50654 0
M  V30 395 N 41.3868 0.248026 -1.55636 0
M  V30 396 C 42.6338 0.976224 -1.77415 0
M  V30 397 C 42.9618 1.85361 -0.589193 0
M  V30 398 O 42.2168 1.90973 0.427529 0
M  V30 399 C 42.5158 1.86819 -3.04686 0
M  V30 400 C 42.1818 1.14625 -4.36087 0
M  V30 401 C 40.8438 0.946723 -4.71795 0
M  V30 402 C 43.1958 0.634463 -5.17324 0
M  V30 403 C 40.5238 0.223091 -5.86276 0
M  V30 404 C 42.8758 -0.0756959 -6.32555 0
M  V30 405 C 41.5398 -0.286711 -6.66884 0
M  V30 406 H 40.8098 0.357226 -0.649208 0
M  V30 407 H 43.4568 0.246415 -1.89908 0
M  V30 408 H 41.7618 2.66502 -2.872 0
M  V30 409 H 43.4588 2.43329 -3.18735 0
M  V30 410 H 40.0488 1.3117 -4.08035 0
M  V30 411 H 44.2328 0.77616 -4.90193 0
M  V30 412 H 39.4888 0.0491185 -6.1138 0
M  V30 413 H 43.6628 -0.479899 -6.94745 0
M  V30 414 H 41.2898 -0.849389 -7.5544 0
M  V30 415 N 42.8649 1.48995 0.513639 0
M  V30 416 C 44.0899 1.61792 1.29762 0
M  V30 417 C 44.5149 0.284475 1.85936 0
M  V30 418 O 43.8729 -0.746185 1.65232 0
M  V30 419 C 43.9209 2.67993 2.41272 0
M  V30 420 O 43.0249 2.26287 3.44772 0
M  V30 421 H 42.3659 0.541963 0.38363 0
M  V30 422 H 44.8959 1.95097 0.616307 0
M  V30 423 H 44.9059 2.89772 2.87221 0
M  V30 424 H 43.5809 3.64791 1.9975 0
M  V30 425 H 42.1579 2.14788 3.04829 0
M  V30 426 N 44.343 -0.763751 1.37857 0
M  V30 427 C 45.589 -1.52483 1.33704 0
M  V30 428 C 45.922 -1.94051 -0.0759612 0
M  V30 429 O 45.197 -1.64675 -1.03501 0
M  V30 430 C 45.48 -2.78441 2.28348 0
M  V30 431 C 45.333 -2.43075 3.78463 0
M  V30 432 C 46.652 -3.80415 2.21298 0
M  V30 433 H 43.771 -0.553169 0.487005 0
M  V30 434 H 46.413 -0.875562 1.68624 0
M  V30 435 H 44.563 -3.33842 1.987 0
M  V30 436 H 46.235 -1.93527 4.18742 0
M  V30 437 H 44.478 -1.75666 3.96641 0
M  V30 438 H 45.149 -3.33149 4.40132 0
M  V30 439 H 47.625 -3.34527 2.47449 0
M  V30 440 H 46.501 -4.66257 2.89647 0
M  V30 441 H 46.762 -4.25262 1.20849 0
M  V30 442 N 45.8211 -1.22559 -0.990812 0
M  V30 443 C 47.0511 -1.07623 -1.76355 0
M  V30 444 C 47.4591 0.37601 -1.85426 0
M  V30 445 O 46.8021 1.27228 -1.32509 0
M  V30 446 C 46.8641 -1.61507 -3.21179 0
M  V30 447 C 46.5281 -3.10146 -3.35646 0
M  V30 448 C 47.5251 -4.07553 -3.22796 0
M  V30 449 C 45.2101 -3.49644 -3.60631 0
M  V30 450 C 47.2041 -5.42442 -3.34716 0
M  V30 451 C 44.8911 -4.84682 -3.72192 0
M  V30 452 C 45.8891 -5.8089 -3.59243 0
M  V30 453 O 45.5771 -7.13476 -3.70415 0
M  V30 454 H 45.3091 -0.377745 -0.560611 0
M  V30 455 H 47.8631 -1.62658 -1.25425 0
M  V30 456 H 46.0931 -1.00881 -3.73309 0
M  V30 457 H 47.7821 -1.42202 -3.80175 0
M  V30 458 H 48.5481 -3.78381 -3.03403 0
M  V30 459 H 44.4271 -2.75282 -3.69785 0
M  V30 460 H 47.9711 -6.17518 -3.24526 0
M  V30 461 H 43.8681 -5.13534 -3.91092 0
M  V30 462 H 44.6361 -7.21083 -3.87275 0
M  V30 463 N 47.2992 1.18797 -1.03562 0
M  V30 464 C 48.5472 1.88278 -0.734569 0
M  V30 465 C 48.8682 1.8043 0.739586 0
M  V30 466 O 48.1382 1.21925 1.53333 0
M  V30 467 H 46.7182 0.696991 -0.268725 0
M  V30 468 H 49.3802 1.44192 -1.31129 0
M  V30 469 H 48.4762 2.94443 -1.03489 0
M  V30 470 N 48.7773 0.814389 1.34928 0
M  V30 471 C 49.7103 0.175641 2.27523 0
M  V30 472 C 50.6883 -0.662953 1.48471 0
M  V30 473 O 51.8723 -0.628545 1.77712 0
M  V30 474 C 48.9993 -0.755516 3.30166 0
M  V30 475 C 48.0453 0.00445305 4.265 0
M  V30 476 S 48.8783 1.34582 5.18313 0
M  V30 477 C 50.0343 0.419315 6.24494 0
M  V30 478 H 50.2673 0.960691 2.8135 0
M  V30 479 H 47.8003 0.609846 1.41846 0
M  V30 480 H 49.7583 -1.28723 3.89796 0
M  V30 481 H 48.4193 -1.51402 2.75202 0
M  V30 482 H 47.6123 -0.703077 4.99072 0
M  V30 483 H 47.2143 0.466447 3.7108 0
M  V30 484 H 49.5063 -0.392432 6.76362 0
M  V30 485 H 50.4493 1.11446 6.99275 0
M  V30 486 H 50.8573 0.0115389 5.64499 0
M  V30 487 N 50.2554 -1.46986 0.568584 0
M  V30 488 C 51.2034 -2.31858 -0.185649 0
M  V30 489 C 52.1974 -1.43624 -0.898249 0
M  V30 490 O 53.4034 -1.60327 -0.818242 0
M  V30 491 H 49.7784 -0.747866 -0.0787399 0
M  V30 492 H 51.7494 -2.93303 0.549191 0
M  V30 493 C 50.4984 -3.26513 -1.19519 0
M  V30 494 H 49.8214 -3.94377 -0.656285 0
M  V30 495 H 51.2614 -3.88707 -1.6936 0
M  V30 496 C 49.7204 -2.50847 -2.24894 0
M  V30 497 O 50.2504 -2.26119 -3.32014 0
M  V30 498 N 48.4564 -2.11656 -1.99124 0
M  V30 499 H 48.0034 -2.31966 -1.12024 0
M  V30 500 H 47.9614 -1.61347 -2.69842 0
M  V30 501 N 51.7335 -0.305618 -1.54608 0
M  V30 502 C 52.9795 0.295595 -2.01241 0
M  V30 503 C 53.3345 1.51171 -1.19018 0
M  V30 504 O 52.6275 1.89832 -0.259684 0
M  V30 505 C 52.8215 0.698983 -3.50498 0
M  V30 506 C 52.6505 -0.476491 -4.47168 0
M  V30 507 C 51.4205 -0.969963 -4.95903 0
M  V30 508 C 53.6185 -1.32294 -4.96994 0
M  V30 509 N 51.6005 -2.11172 -5.76437 0
M  V30 510 C 52.9715 -2.31212 -5.75275 0
M  V30 511 C 55.0265 -1.35278 -4.7917 0
M  V30 512 C 53.7295 -3.32896 -6.37631 0
M  V30 513 C 55.7555 -2.35823 -5.42348 0
M  V30 514 C 55.1175 -3.33469 -6.20466 0
M  V30 515 H 51.2165 0.0724992 -0.778632 0
M  V30 516 H 53.8005 -0.436583 -1.89742 0
M  V30 517 H 51.9715 1.40032 -3.62278 0
M  V30 518 H 53.7035 1.28013 -3.8392 0
M  V30 519 H 50.4585 -0.544178 -4.70463 0
M  V30 520 H 50.8825 -2.68714 -6.21387 0
M  V30 521 H 55.5245 -0.61157 -4.18354 0
M  V30 522 H 53.2425 -4.07933 -6.97579 0
M  V30 523 H 56.8285 -2.38911 -5.30484 0
M  V30 524 H 55.7085 -4.09996 -6.68485 0
M  V30 525 N 53.2116 1.57565 -0.0334293 0
M  V30 526 C 54.4576 1.92262 0.645226 0
M  V30 527 C 54.7906 0.910543 1.71531 0
M  V30 528 O 54.0656 -0.066099 1.94388 0
M  V30 529 C 54.3486 3.37422 1.2577 0
M  V30 530 C 54.2016 4.49369 0.196891 0
M  V30 531 C 55.5206 3.82628 2.17449 0
M  V30 532 H 52.6396 0.699171 0.233085 0
M  V30 533 H 55.2816 1.89779 -0.0915694 0
M  V30 534 H 53.4316 3.39669 1.88566 0
M  V30 535 H 55.1036 4.59254 -0.433962 0
M  V30 536 H 53.3466 4.31168 -0.477137 0
M  V30 537 H 54.0176 5.47978 0.665124 0
M  V30 538 H 56.4936 3.82145 1.64634 0
M  V30 539 H 55.3696 4.84883 2.57254 0
M  V30 540 H 55.6306 3.18376 3.0674 0
M  V30 541 N 54.6897 -0.239769 1.55765 0
M  V30 542 C 56.1057 -0.588624 1.48349 0
M  V30 543 C 56.3057 -1.88005 0.72502 0
M  V30 544 O 55.3617 -2.51186 0.257269 0
M  V30 545 C 56.6747 -0.68474 2.928 0
M  V30 546 C 58.2227 -0.77659 3.03213 0
M  V30 547 C 58.6977 -0.904207 4.48986 0
M  V30 548 N 60.1887 -0.968896 4.52953 0
M  V30 549 C 60.9237 -1.08703 5.63002 0
M  V30 550 N 60.4197 -1.17026 6.82845 0
M  V30 551 N 62.2127 -1.12074 5.50814 0
M  V30 552 H 54.3637 0.607911 2.03515 0
M  V30 553 H 56.6267 0.21083 0.924259 0
M  V30 554 H 56.3327 0.194284 3.51163 0
M  V30 555 H 56.2067 -1.55435 3.43686 0
M  V30 556 H 58.5937 -1.64606 2.44926 0
M  V30 557 H 58.6747 0.118315 2.55526 0
M  V30 558 H 58.3187 -0.0392633 5.07885 0
M  V30 559 H 58.2487 -1.81426 4.9436 0
M  V30 560 H 60.7397 -0.915633 3.6664 0
M  V30 561 H 61.0527 -1.25966 7.62465 0
M  V30 562 H 59.3977 -1.13971 6.85591 0
M  V30 563 H 62.5887 -1.05226 4.5612 0
M  V30 564 H 62.7617 -1.20936 6.36615 0
M  V30 565 N 56.1678 -1.49265 -0.50573 0
M  V30 566 C 57.0998 -1.617 -1.62437 0
M  V30 567 C 58.1128 -0.499924 -1.54934 0
M  V30 568 O 59.3018 -0.771785 -1.60953 0
M  V30 569 C 56.4018 -1.5533 -3.01207 0
M  V30 570 C 55.5748 -2.8249 -3.33943 0
M  V30 571 C 54.6338 -2.69238 -4.52103 0
M  V30 572 O 53.6598 -3.43167 -4.5412 0
M  V30 573 N 54.8618 -1.80468 -5.51735 0
M  V30 574 H 57.6268 -2.58177 -1.52199 0
M  V30 575 H 55.1878 -1.46294 -0.693511 0
M  V30 576 H 57.1798 -1.44125 -3.78167 0
M  V30 577 H 55.7498 -0.667297 -3.05395 0
M  V30 578 H 54.9698 -3.08081 -2.45926 0
M  V30 579 H 56.2578 -3.66802 -3.5261 0
M  V30 580 H 55.6558 -1.19653 -5.52901 0
M  V30 581 H 54.2128 -1.75188 -6.27816 0
M  V30 582 N 57.6459 0.756429 -1.3826 0
M  V30 583 C 58.6089 1.85176 -1.35065 0
M  V30 584 C 59.6089 1.58818 -0.251703 0
M  V30 585 O 60.7989 1.66615 -0.508433 0
M  V30 586 C 57.9309 3.22596 -1.10201 0
M  V30 587 H 59.1239 1.89417 -2.3251 0
M  V30 588 H 56.6769 0.95783 -1.23512 0
M  V30 589 H 57.4119 3.24025 -0.133504 0
M  V30 590 H 57.1969 3.43122 -1.89762 0
M  V30 591 H 58.6869 4.02673 -1.10654 0
M  V30 592 N 59.124 1.23083 0.984299 0
M  V30 593 C 60.535 1.05609 1.5396 0
M  V30 594 C 60.886 -0.377793 1.92528 0
M  V30 595 O 60.011 -1.26398 1.75649 0
M  V30 596 C 60.606 1.91087 2.7977 0
M  V30 597 C 59.165 1.77885 3.31713 0
M  V30 598 C 58.312 1.87028 2.04733 0
M  V30 599 H 61.263 1.36802 0.804419 0
M  V30 600 H 61.284 1.43336 3.5247 0
M  V30 601 H 60.796 2.9544 2.51668 0
M  V30 602 H 58.897 0.762995 3.64704 0
M  V30 603 H 59.01 2.61047 4.01735 0
M  V30 604 H 57.374 1.30565 2.18689 0
M  V30 605 H 58.157 2.92929 1.79017 0
M  V30 606 N 60.6021 -1.18246 1.0419 0
M  V30 607 C 61.8501 -1.87886 0.744543 0
M  V30 608 C 62.1711 -1.8082 -0.730006 0
M  V30 609 O 61.4411 -1.22736 -1.52685 0
M  V30 610 H 60.0211 -0.695556 0.272417 0
M  V30 611 H 62.6831 -1.43494 1.31892 0
M  V30 612 H 61.7791 -2.9389 1.05049 0
M  V30 613 N 62.0802 -0.821533 -1.34494 0
M  V30 614 C 63.0272 -0.240397 -2.29545 0
M  V30 615 C 63.9972 0.634031 -1.53523 0
M  V30 616 O 65.1822 0.575966 -1.81899 0
M  V30 617 C 62.3222 0.592869 -3.39969 0
M  V30 618 C 61.4352 -0.30365 -4.30932 0
M  V30 619 C 60.5702 0.539049 -5.28458 0
M  V30 620 C 59.6092 -0.356942 -6.11058 0
M  V30 621 N 58.7462 0.446603 -7.00678 0
M  V30 622 H 63.5862 -1.05632 -2.7865 0
M  V30 623 H 61.1232 -0.532413 -1.37127 0
M  V30 624 H 63.0812 1.09129 -4.02675 0
M  V30 625 H 61.7112 1.37392 -2.92102 0
M  V30 626 H 60.7632 -0.920276 -3.691 0
M  V30 627 H 62.0752 -0.992661 -4.88823 0
M  V30 628 H 61.2292 1.102 -5.96608 0
M  V30 629 H 59.9682 1.26157 -4.71101 0
M  V30 630 H 58.9732 -0.932047 -5.41842 0
M  V30 631 H 60.1982 -1.07755 -6.70497 0
M  V30 632 H 58.1442 1.15282 -6.45791 0
M  V30 633 H 58.0612 -0.184048 -7.55776 0
M  V30 634 H 59.3292 0.992352 -7.73158 0
M  V30 635 N 63.5583 1.46682 -0.576371 0
M  V30 636 C 64.8063 2.02013 -0.0594163 0
M  V30 637 C 65.1273 1.45101 1.30271 0
M  V30 638 O 64.3973 0.633317 1.8538 0
M  V30 639 H 62.9773 0.746759 -0.0189745 0
M  V30 640 H 65.6393 1.79862 -0.750717 0
M  V30 641 H 64.7353 3.12097 0.014345 0
M  V30 642 N 65.0364 0.313813 1.54444 0
M  V30 643 C 65.9664 -0.549454 2.26943 0
M  V30 644 C 66.9474 -1.12741 1.27372 0
M  V30 645 O 68.1324 -1.15436 1.56167 0
M  V30 646 C 65.2624 -1.71523 3.01989 0
M  V30 647 C 64.2164 -1.26703 4.08816 0
M  V30 648 C 63.5424 -2.51898 4.71647 0
M  V30 649 C 64.8424 -0.388962 5.2085 0
M  V30 650 H 66.5364 0.0552661 2.99349 0
M  V30 651 H 64.0824 0.0280207 1.43973 0
M  V30 652 H 66.0354 -2.32535 3.51433 0
M  V30 653 H 64.7594 -2.34639 2.27183 0
M  V30 654 H 63.4184 -0.679896 3.6024 0
M  V30 655 H 63.0664 -3.13356 3.93468 0
M  V30 656 H 62.7664 -2.22605 5.43802 0
M  V30 657 H 64.2904 -3.1369 5.23861 0
M  V30 658 H 65.7044 -0.905107 5.6611 0
M  V30 659 H 64.1014 -0.18924 5.99802 0
M  V30 660 H 65.1714 0.582699 4.81386 0
M  V30 661 N 66.5145 -1.57545 0.0417849 0
M  V30 662 C 67.4245 -2.14451 -0.951213 0
M  V30 663 C 68.4405 -1.09992 -1.34825 0
M  V30 664 O 69.6165 -1.42114 -1.42708 0
M  V30 665 C 66.6815 -2.67063 -2.21084 0
M  V30 666 C 65.7425 -3.86284 -1.87304 0
M  V30 667 C 64.9755 -4.36378 -3.07261 0
M  V30 668 O 65.1985 -3.85587 -4.20332 0
M  V30 669 O 64.1325 -5.28077 -2.88822 0
M  V30 670 H 67.9585 -2.99601 -0.497287 0
M  V30 671 H 65.5435 -1.48317 -0.179567 0
M  V30 672 H 67.4255 -3.00914 -2.95006 0
M  V30 673 H 66.1005 -1.84989 -2.65633 0
M  V30 674 H 65.0075 -3.57338 -1.10727 0
M  V30 675 H 66.3405 -4.6956 -1.47562 0
M  V30 676 N 67.9926 0.231505 -1.5589 0
M  V30 677 C 69.2386 0.954429 -1.79617 0
M  V30 678 C 69.5936 1.82367 -0.613199 0
M  V30 679 O 68.8866 1.87524 0.393094 0
M  V30 680 C 69.0806 1.83577 -3.0665 0
M  V30 681 C 68.9096 1.05334 -4.3719 0
M  V30 682 C 67.6796 0.75225 -4.99669 0
M  V30 683 C 69.8776 0.423444 -5.12554 0
M  V30 684 N 67.8596 -0.052627 -6.13877 0
M  V30 685 C 69.2306 -0.245287 -6.19515 0
M  V30 686 C 71.2856 0.335466 -4.96769 0
M  V30 687 C 69.9886 -0.993566 -7.12405 0
M  V30 688 C 72.0146 -0.399321 -5.9005 0
M  V30 689 C 71.3766 -1.05663 -6.9643 0
M  V30 690 H 67.4756 0.329846 -0.709031 0
M  V30 691 H 70.0596 0.226172 -1.93382 0
M  V30 692 H 68.2306 2.53592 -2.94186 0
M  V30 693 H 69.9626 2.49541 -3.18608 0
M  V30 694 H 66.7176 1.06783 -4.61405 0
M  V30 695 H 67.1416 -0.443609 -6.75545 0
M  V30 696 H 71.7836 0.829311 -4.14587 0
M  V30 697 H 69.5016 -1.49896 -7.94076 0
M  V30 698 H 73.0876 -0.468265 -5.79913 0
M  V30 699 H 71.9676 -1.61612 -7.67366 0
M  V30 700 N 69.4707 1.49531 0.497807 0
M  V30 701 C 70.7167 1.59415 1.25358 0
M  V30 702 C 71.0497 0.281422 1.9215 0
M  V30 703 O 70.3247 -0.715249 1.80871 0
M  V30 704 C 70.6077 2.75566 2.3181 0
M  V30 705 C 70.4607 4.16642 1.69498 0
M  V30 706 C 71.7797 2.87347 3.33346 0
M  V30 707 H 68.8987 0.580244 0.454408 0
M  V30 708 H 71.5407 1.81827 0.551262 0
M  V30 709 H 69.6907 2.56587 2.91711 0
M  V30 710 H 71.3627 4.47145 1.13399 0
M  V30 711 H 69.6057 4.22141 0.998978 0
M  V30 712 H 70.2767 4.93792 2.46725 0
M  V30 713 H 72.7527 3.04634 2.83438 0
M  V30 714 H 71.6287 3.70289 4.05188 0
M  V30 715 H 71.8897 1.96834 3.95865 0
M  V30 716 N 70.9488 -0.749086 1.3866 0
M  V30 717 C 71.9118 -1.84457 1.36045 0
M  V30 718 C 72.9118 -1.58682 0.260122 0
M  V30 719 O 74.1018 -1.66343 0.517261 0
M  V30 720 C 71.2338 -3.22008 1.11911 0
M  V30 721 H 72.4268 -1.88182 2.33512 0
M  V30 722 H 69.9798 -0.951266 1.24019 0
M  V30 723 H 70.7148 -3.2395 0.150686 0
M  V30 724 H 70.4998 -3.42111 1.91579 0
M  V30 725 H 71.9898 -4.0208 1.12788 0
M  V30 726 N 72.4269 -1.23603 -0.977757 0
M  V30 727 C 73.6759 -1.06377 -1.71368 0
M  V30 728 C 73.9889 0.399062 -1.91486 0
M  V30 729 O 75.1949 0.691312 -2.62551 0
M  V30 730 C 73.6509 -1.85512 -3.08404 0
M  V30 731 C 73.2589 -3.36141 -2.96164 0
M  V30 732 C 75.0029 -1.76783 -3.85938 0
M  V30 733 C 72.9099 -4.07659 -4.28449 0
M  V30 734 H 71.8399 -0.394452 -0.642591 0
M  V30 735 H 74.4909 -1.47594 -1.09034 0
M  V30 736 H 72.8729 -1.37103 -3.71509 0
M  V30 737 H 74.0469 -3.92056 -2.42133 0
M  V30 738 H 72.3619 -3.45712 -2.32104 0
M  V30 739 H 74.9589 -2.27526 -4.83876 0
M  V30 740 H 75.3019 -0.731116 -4.0983 0
M  V30 741 H 75.8349 -2.22818 -3.2954 0
M  V30 742 H 72.5739 -5.11648 -4.09752 0
M  V30 743 H 72.0939 -3.5653 -4.82334 0
M  V30 744 H 73.7729 -4.141 -4.97122 0
M  V30 745 N 73.905 1.17692 -1.04816 0
M  V30 746 C 75.154 1.87192 -0.751132 0
M  V30 747 C 75.467 1.8169 0.724441 0
M  V30 748 O 76.673 2.46625 1.13527 0
M  V30 749 C 75.129 3.35857 -1.29338 0
M  V30 750 C 74.737 3.4987 -2.79812 0
M  V30 751 C 76.481 4.10709 -1.07322 0
M  V30 752 C 74.388 4.92536 -3.27356 0
M  V30 753 H 73.318 0.701162 -0.277288 0
M  V30 754 H 75.969 1.32932 -1.26496 0
M  V30 755 H 74.351 3.89631 -0.707376 0
M  V30 756 H 75.525 3.06332 -3.44235 0
M  V30 757 H 73.84 2.88433 -3.00325 0
M  V30 758 H 76.437 5.15952 -1.4035 0
M  V30 759 H 76.78 4.16299 -0.0108001 0
M  V30 760 H 77.313 3.6313 -1.62423 0
M  V30 761 H 74.052 4.92119 -4.33012 0
M  V30 762 H 73.572 5.3676 -2.67673 0
M  V30 763 H 75.251 5.61288 -3.21815 0
M  V30 764 N 75.3831 0.828654 1.34056 0
M  V30 765 C 76.6291 0.429279 1.98818 0
M  V30 766 C 76.9841 -0.998011 1.64492 0
M  V30 767 O 76.2771 -1.68652 0.909228 0
M  V30 768 C 76.4711 0.575226 3.52741 0
M  V30 769 C 76.3001 2.01515 4.02022 0
M  V30 770 C 75.0701 2.64825 4.30344 0
M  V30 771 C 77.2681 2.98261 4.18981 0
M  V30 772 N 75.2501 3.99998 4.65698 0
M  V30 773 C 76.6211 4.18356 4.57578 0
M  V30 774 C 78.6761 2.94802 4.01243 0
M  V30 775 C 77.3791 5.35454 4.80293 0
M  V30 776 C 79.4051 4.11121 4.25128 0
M  V30 777 C 78.7671 5.29969 4.64018 0
M  V30 778 H 74.8661 0.205304 0.754569 0
M  V30 779 H 77.4501 1.07457 1.62361 0
M  V30 780 H 75.6211 -0.0401962 3.88379 0
M  V30 781 H 77.3531 0.148292 4.04428 0
M  V30 782 H 74.1081 2.16027 4.21461 0
M  V30 783 H 74.5321 4.69653 4.87601 0
M  V30 784 H 79.1741 2.04054 3.70299 0
M  V30 785 H 76.8921 6.26755 5.10102 0
M  V30 786 H 80.4781 4.0985 4.12934 0
M  V30 787 H 79.3581 6.18479 4.82134 0
M  V30 788 N 76.8612 -1.46375 0.584142 0
M  V30 789 C 78.0912 -2.06461 0.0758195 0
M  V30 790 C 78.4992 -1.43322 -1.23512 0
M  V30 791 O 77.8422 -0.533216 -1.75791 0
M  V30 792 C 77.9042 -3.59131 -0.162773 0
M  V30 793 C 77.5682 -4.4447 1.06279 0
M  V30 794 C 78.5652 -4.80918 1.97519 0
M  V30 795 C 76.2502 -4.85584 1.28504 0
M  V30 796 C 78.2442 -5.57309 3.09331 0
M  V30 797 C 75.9312 -5.61734 2.4062 0
M  V30 798 C 76.9292 -5.9751 3.30863 0
M  V30 799 O 76.6172 -6.72121 4.41032 0
M  V30 800 H 76.3492 -0.673745 0.0551725 0
M  V30 801 H 78.9032 -1.88969 0.804984 0
M  V30 802 H 77.1332 -3.74936 -0.946565 0
M  V30 803 H 78.8222 -4.0114 -0.619782 0
M  V30 804 H 79.5882 -4.49732 1.81565 0
M  V30 805 H 75.4672 -4.57187 0.591702 0
M  V30 806 H 79.0112 -5.85152 3.79793 0
M  V30 807 H 74.9082 -5.92334 2.56537 0
M  V30 808 H 75.6762 -6.90547 4.39417 0
M  V30 809 N 78.3393 -0.321999 -1.54275 0
M  V30 810 C 79.6163 0.335232 -1.92706 0
M  V30 811 C 79.9963 1.70006 -1.25145 0
M  V30 812 O 79.3443 2.25067 -0.394596 0
M  V30 813 C 79.5543 0.429008 -3.46353 0
M  V30 814 C 80.9023 0.690029 -4.18956 0
M  V30 815 O 81.9263 0.511992 -3.52501 0
M  V30 816 O 80.7853 1.03338 -5.36641 0
M  V30 817 H 77.8793 0.191143 -0.804608 0
M  V30 818 H 80.4253 -0.3716 -1.65581 0
M  V30 819 H 79.1973 -0.529611 -3.87699 0
M  V30 820 H 78.8203 1.18348 -3.79578 0
M  V30 821 N 79.8174 1.5752 -0.0501392 0
M  V30 822 C 81.0654 1.9227 0.622642 0
M  V30 823 C 81.3864 0.929083 1.71444 0
M  V30 824 O 80.6564 -0.0262186 1.95882 0
M  V30 825 H 79.2364 0.709739 0.232981 0
M  V30 826 H 81.8984 1.94628 -0.102898 0
M  V30 827 H 80.9944 2.93479 1.06191 0
M  V30 828 N 81.2955 -0.223234 1.56011 0
M  V30 829 C 82.5725 -0.972108 1.69733 0
M  V30 830 C 82.9525 -2.02485 0.59691 0
M  V30 831 O 82.3005 -2.25037 -0.396324 0
M  V30 832 C 82.5105 -1.58407 3.10979 0
M  V30 833 C 83.8585 -2.07696 3.70334 0
M  V30 834 O 84.8825 -1.68304 3.1393 0
M  V30 835 O 83.7415 -2.80096 4.69264 0
M  V30 836 H 80.8355 -0.453993 0.691245 0
M  V30 837 H 83.3815 -0.215149 1.68331 0
M  V30 838 H 82.1535 -0.823831 3.82529 0
M  V30 839 H 81.7765 -2.40661 3.16493 0
M  V30 840 N 82.7736 -1.49793 -0.48987 0
M  V30 841 C 83.7216 -1.67783 -1.61095 0
M  V30 842 C 84.7156 -0.543683 -1.60438 0
M  V30 843 O 85.9216 -0.723647 -1.64813 0
M  V30 844 H 82.2966 -0.529255 -0.534222 0
M  V30 845 H 84.2676 -2.61861 -1.43078 0
M  V30 846 C 83.0166 -1.77191 -2.99164 0
M  V30 847 H 82.3396 -2.63841 -3.0038 0
M  V30 848 H 83.7796 -1.93809 -3.77113 0
M  V30 849 C 82.2386 -0.519203 -3.32875 0
M  V30 850 O 82.7686 0.350124 -4.00171 0
M  V30 851 N 80.9746 -0.378816 -2.8812 0
M  V30 852 H 80.5216 -1.08725 -2.33531 0
M  V30 853 H 80.4796 0.458239 -3.11043 0
M  V30 854 N 84.2517 0.741722 -1.39055 0
M  V30 855 C 85.1837 1.8657 -1.33133 0
M  V30 856 C 86.1967 1.61001 -0.241329 0
M  V30 857 O 87.3857 1.7136 -0.499784 0
M  V30 858 C 84.4857 3.22457 -1.04283 0
M  V30 859 C 83.6587 3.75435 -2.24427 0
M  V30 860 C 82.7177 4.89867 -1.92138 0
M  V30 861 O 81.7437 5.03879 -2.64754 0
M  V30 862 N 82.9457 5.73738 -0.88347 0
M  V30 863 H 85.7107 1.92156 -2.29991 0
M  V30 864 H 83.2717 0.922172 -1.3307 0
M  V30 865 H 85.2637 3.9657 -0.807128 0
M  V30 866 H 83.8337 3.12181 -0.161807 0
M  V30 867 H 83.0537 2.92751 -2.6399 0
M  V30 868 H 84.3417 4.07563 -3.04581 0
M  V30 869 H 83.7397 5.64999 -0.281517 0
M  V30 870 H 82.2967 6.47947 -0.707662 0
M  V30 871 N 85.7298 1.2412 0.971189 0
M  V30 872 C 86.9598 1.10415 1.7462 0
M  V30 873 C 87.3678 -0.346462 1.86001 0
M  V30 874 O 86.7108 -1.25104 1.34517 0
M  V30 875 C 86.7728 1.66596 3.18568 0
M  V30 876 C 86.4368 3.15446 3.3067 0
M  V30 877 C 87.4338 4.12636 3.16271 0
M  V30 878 C 85.1188 3.55337 3.55022 0
M  V30 879 C 87.1128 5.47699 3.26044 0
M  V30 880 C 84.7998 4.90542 3.64434 0
M  V30 881 C 85.7978 5.86532 3.49956 0
M  V30 882 O 85.4858 7.19279 3.59017 0
M  V30 883 H 85.2178 0.386616 0.55453 0
M  V30 884 H 87.7718 1.64633 1.22821 0
M  V30 885 H 86.0018 1.06808 3.71657 0
M  V30 886 H 87.6908 1.48232 3.77865 0
M  V30 887 H 88.4568 3.8316 2.97344 0
M  V30 888 H 84.3358 2.8113 3.65359 0
M  V30 889 H 87.8798 6.22603 3.14661 0
M  V30 890 H 83.7768 5.19691 3.82873 0
M  V30 891 H 84.5448 7.27153 3.75754 0
M  V30 892 N 87.2079 -1.17134 1.05439 0
M  V30 893 C 88.4379 -1.91094 0.785274 0
M  V30 894 C 88.8459 -1.77198 -0.663142 0
M  V30 895 O 88.1889 -1.10835 -1.46497 0
M  V30 896 C 88.2509 -3.42594 1.08949 0
M  V30 897 C 87.9149 -3.80274 2.53458 0
M  V30 898 C 88.9119 -3.82912 3.51673 0
M  V30 899 C 86.5969 -4.11162 2.88532 0
M  V30 900 C 88.5909 -4.15913 4.83006 0
M  V30 901 C 86.2779 -4.43831 4.20068 0
M  V30 902 C 87.2759 -4.46185 5.17115 0
M  V30 903 O 86.9639 -4.78083 6.46291 0
M  V30 904 H 86.6959 -0.613073 0.284811 0
M  V30 905 H 89.2499 -1.49461 1.40893 0
M  V30 906 H 87.4799 -3.84534 0.408741 0
M  V30 907 H 89.1689 -3.97817 0.805991 0
M  V30 908 H 89.9349 -3.5917 3.25917 0
M  V30 909 H 85.8139 -4.085 2.13656 0
M  V30 910 H 89.3579 -4.17665 5.5875 0
M  V30 911 H 85.2549 -4.67037 4.45586 0
M  V30 912 H 86.0229 -4.9593 6.51149 0
M  V30 913 N 88.686 -0.835752 -1.33615 0
M  V30 914 C 89.649 -0.272 -2.2758 0
M  V30 915 C 90.649 0.557487 -1.50827 0
M  V30 916 O 91.839 0.37173 -1.70188 0
M  V30 917 C 88.971 0.617173 -3.35267 0
M  V30 918 H 90.164 -1.10111 -2.78954 0
M  V30 919 H 87.717 -0.608594 -1.43965 0
M  V30 920 H 88.452 1.46884 -2.89129 0
M  V30 921 H 88.237 0.0237066 -3.92093 0
M  V30 922 H 89.727 1.005 -4.05326 0
M  V30 923 N 90.1641 1.46063 -0.591896 0
M  V30 924 C 91.4411 1.95595 -0.0137119 0
M  V30 925 C 91.8211 1.5345 1.4497 0
M  V30 926 O 91.1691 0.789543 2.14426 0
M  V30 927 C 91.3791 3.48453 -0.195373 0
M  V30 928 C 92.7271 4.24546 -0.0679765 0
M  V30 929 O 93.7511 3.55982 -0.124681 0
M  V30 930 O 92.6101 5.46467 0.0600579 0
M  V30 931 H 89.7041 0.825795 0.0446279 0
M  V30 932 H 92.2501 1.56303 -0.660859 0
M  V30 933 H 91.0221 3.72045 -1.21235 0
M  V30 934 H 90.6451 3.94597 0.487775 0
M  V30 935 N 91.6422 0.330177 1.54103 0
M  V30 936 C 92.8672 -0.274893 2.0557 0
M  V30 937 C 93.2922 -1.44487 1.20437 0
M  V30 938 O 92.6502 -1.80021 0.214991 0
M  V30 939 C 92.6982 -0.68079 3.54115 0
M  V30 940 O 91.8022 -1.7824 3.71893 0
M  V30 941 H 91.1432 -0.0483849 0.662235 0
M  V30 942 H 93.6732 0.480508 1.98878 0
M  V30 943 H 93.6832 -0.961635 3.96505 0
M  V30 944 H 92.3582 0.174903 4.15532 0
M  V30 945 H 90.9352 -1.49985 3.41407 0
M  V30 946 N 93.1203 -1.57491 0.0584922 0
M  V30 947 C 94.3663 -1.93264 -0.614558 0
M  V30 948 C 94.6993 -0.937717 -1.7006 0
M  V30 949 O 93.9743 0.0351652 -1.94468 0
M  V30 950 C 94.2573 -3.3938 -1.20386 0
M  V30 951 C 94.1103 -4.49625 -0.125375 0
M  V30 952 C 95.4293 -3.86039 -2.11334 0
M  V30 953 H 92.5483 -0.702791 -0.221933 0
M  V30 954 H 95.1903 -1.8961 0.12175 0
M  V30 955 H 93.3403 -3.42626 -1.83139 0
M  V30 956 H 95.0123 -4.58506 0.506971 0
M  V30 957 H 93.2553 -4.30354 0.545672 0
M  V30 958 H 93.9263 -5.48967 -0.577861 0
M  V30 959 H 96.4023 -3.84716 -1.58534 0
M  V30 960 H 95.2783 -4.88914 -2.49507 0
M  V30 961 H 95.5393 -3.23215 -3.01636 0
M  V30 962 N 94.5984 0.214957 -1.56127 0
M  V30 963 C 95.5454 1.26642 -1.92952 0
M  V30 964 C 96.5154 1.46244 -0.78753 0
M  V30 965 O 97.7004 1.59704 -1.04399 0
M  V30 966 C 94.8404 2.6104 -2.25726 0
M  V30 967 C 93.9534 2.49183 -3.52891 0
M  V30 968 C 93.0884 3.76149 -3.7508 0
M  V30 969 C 92.1274 3.59041 -4.95738 0
M  V30 970 N 91.2644 4.77972 -5.14283 0
M  V30 971 H 96.1044 0.945384 -2.82607 0
M  V30 972 H 93.6414 0.455489 -1.3987 0
M  V30 973 H 95.5994 3.39313 -2.42739 0
M  V30 974 H 94.2294 2.91227 -1.39236 0
M  V30 975 H 93.2814 1.6231 -3.44034 0
M  V30 976 H 94.5934 2.32466 -4.41318 0
M  V30 977 H 93.7474 4.62865 -3.92226 0
M  V30 978 H 92.4864 3.95799 -2.84947 0
M  V30 979 H 91.4914 2.7071 -4.78535 0
M  V30 980 H 92.7164 3.40856 -5.87362 0
M  V30 981 H 90.6624 4.97923 -4.27093 0
M  V30 982 H 90.5794 4.64006 -5.96853 0
M  V30 983 H 91.8474 5.66096 -5.35869 0
M  V30 984 N 96.0765 1.50051 0.48192 0
M  V30 985 C 97.3245 1.60181 1.23234 0
M  V30 986 C 97.6455 0.299176 1.92691 0
M  V30 987 O 96.9155 -0.682708 1.83619 0
M  V30 988 H 95.4955 0.590232 0.457859 0
M  V30 989 H 98.1575 1.86775 0.556881 0
M  V30 990 H 97.2535 2.40753 1.98607 0
M  V30 991 N 97.5546 -0.734337 1.39446 0
M  V30 992 C 98.9706 -1.03997 1.21065 0
M  V30 993 C 99.1706 -2.01369 0.0727019 0
M  V30 994 O 98.2266 -2.45856 -0.575426 0
M  V30 995 C 99.5396 -1.60163 2.54496 0
M  V30 996 C 101.088 -1.7224 2.61347 0
M  V30 997 C 101.563 -2.31814 3.95002 0
M  V30 998 N 103.054 -2.39223 3.96644 0
M  V30 999 C 103.789 -2.86258 4.96834 0
M  V30 1000 N 103.285 -3.33184 6.07421 0
M  V30 1001 N 105.078 -2.85473 4.84213 0
M  V30 1002 H 97.2286 -0.0885624 2.12215 0
M  V30 1003 H 99.4916 -0.10191 0.942506 0
M  V30 1004 H 99.1976 -0.960811 3.38321 0
M  V30 1005 H 99.0716 -2.5896 2.74262 0
M  V30 1006 H 101.459 -2.35443 1.77906 0
M  V30 1007 H 101.54 -0.720939 2.4543 0
M  V30 1008 H 101.184 -1.69238 4.78875 0
M  V30 1009 H 101.114 -3.32638 4.08239 0
M  V30 1010 H 103.605 -2.06057 3.16779 0
M  V30 1011 H 103.918 -3.67586 6.7978 0
M  V30 1012 H 102.263 -3.31191 6.11013 0
M  V30 1013 H 105.454 -2.48136 3.96921 0
M  V30 1014 H 105.627 -3.21814 5.62441 0
M  V30 1015 N 99.0327 -1.24633 -0.964593 0
M  V30 1016 C 100.28 -1.08788 -1.70796 0
M  V30 1017 C 100.608 0.372783 -1.90894 0
M  V30 1018 O 99.8627 1.29167 -1.47018 0
M  V30 1019 C 100.162 -1.7763 -3.10133 0
M  V30 1020 C 99.8277 -3.27557 -3.09866 0
M  V30 1021 C 98.4897 -3.6846 -3.09501 0
M  V30 1022 C 100.842 -4.23389 -3.03959 0
M  V30 1023 C 98.1697 -5.03624 -3.00965 0
M  V30 1024 C 100.522 -5.58565 -2.96965 0
M  V30 1025 C 99.1857 -5.98809 -2.9493 0
M  V30 1026 H 98.4557 -0.398084 -0.624988 0
M  V30 1027 H 101.103 -1.54777 -1.12767 0
M  V30 1028 H 99.4077 -1.24044 -3.71645 0
M  V30 1029 H 101.105 -1.62832 -3.66451 0
M  V30 1030 H 97.6947 -2.95006 -3.10917 0
M  V30 1031 H 101.879 -3.92787 -3.03368 0
M  V30 1032 H 97.1347 -5.33998 -2.97752 0
M  V30 1033 H 101.309 -6.32523 -2.91354 0
M  V30 1034 H 98.9357 -7.03505 -2.88071 0
M  V30 1035 N 100.511 1.16574 -1.06058 0
M  V30 1036 C 101.739 1.90952 -0.796552 0
M  V30 1037 C 102.154 1.77302 0.648808 0
M  V30 1038 O 101.511 1.11605 1.44397 0
M  V30 1039 C 101.562 3.41736 -1.17894 0
M  V30 1040 O 101.283 3.54975 -2.56758 0
M  V30 1041 C 102.784 4.33169 -0.942308 0
M  V30 1042 H 100.004 0.605594 -0.288959 0
M  V30 1043 H 102.548 1.47777 -1.41358 0
M  V30 1044 H 100.703 3.82623 -0.606491 0
M  V30 1045 H 101.117 4.4846 -2.72 0
M  V30 1046 H 102.591 5.37439 -1.25952 0
M  V30 1047 H 103.068 4.3903 0.122078 0
M  V30 1048 H 103.674 3.98007 -1.49902 0
M  V30 1049 N 101.989 0.842826 1.3317 0
M  V30 1050 C 103.238 0.436738 1.96915 0
M  V30 1051 C 103.551 -1.01025 1.67491 0
M  V30 1052 O 104.757 -1.5212 2.24881 0
M  V30 1053 C 103.213 0.730021 3.52418 0
M  V30 1054 C 102.821 2.19195 3.90714 0
M  V30 1055 C 104.565 0.391076 4.22695 0
M  V30 1056 C 102.472 2.42907 5.39212 0
M  V30 1057 H 101.402 0.15958 0.736919 0
M  V30 1058 H 104.053 1.03196 1.51733 0
M  V30 1059 H 102.435 0.0643755 3.95948 0
M  V30 1060 H 103.609 2.8984 3.58231 0
M  V30 1061 H 101.924 2.49425 3.33431 0
M  V30 1062 H 104.521 0.545817 5.31907 0
M  V30 1063 H 104.864 -0.666294 4.10933 0
M  V30 1064 H 105.397 1.01212 3.84709 0
M  V30 1065 H 102.136 3.47224 5.55982 0
M  V30 1066 H 101.656 1.76827 5.73142 0
M  V30 1067 H 103.335 2.2626 6.06148 0
M  V30 1068 N 103.467 -1.45747 0.599634 0
M  V30 1069 C 104.692 -2.07178 0.0960198 0
M  V30 1070 C 105.117 -1.44268 -1.207 0
M  V30 1071 O 104.475 -0.532503 -1.73303 0
M  V30 1072 C 104.523 -3.60579 -0.0385348 0
M  V30 1073 O 103.627 -3.97713 -1.0908 0
M  V30 1074 H 102.968 -0.660251 0.0704593 0
M  V30 1075 H 105.498 -1.87124 0.827385 0
M  V30 1076 H 105.508 -4.07298 -0.239304 0
M  V30 1077 H 104.183 -4.05756 0.912947 0
M  V30 1078 H 102.76 -3.62678 -0.867135 0
M  V30 1079 N 104.945 -0.338344 -1.53925 0
M  V30 1080 C 106.361 0.0137736 -1.59594 0
M  V30 1081 C 106.561 1.49186 -1.35447 0
M  V30 1082 O 105.617 2.24987 -1.14616 0
M  V30 1083 C 106.93 -0.41773 -2.97784 0
M  V30 1084 C 108.478 -0.369633 -3.1081 0
M  V30 1085 C 108.953 -0.776524 -4.51369 0
M  V30 1086 N 110.444 -0.730506 -4.57403 0
M  V30 1087 C 111.179 -1.01736 -5.64303 0
M  V30 1088 N 110.675 -1.3721 -6.79077 0
M  V30 1089 N 112.468 -0.941942 -5.54151 0
M  V30 1090 H 104.619 -1.3012 -1.67876 0
M  V30 1091 H 106.882 -0.530082 -0.78595 0
M  V30 1092 H 106.588 -1.44811 -3.20504 0
M  V30 1093 H 106.462 0.209729 -3.76616 0
M  V30 1094 H 108.849 0.651568 -2.87817 0
M  V30 1095 H 108.93 -1.03223 -2.34049 0
M  V30 1096 H 108.574 -1.79571 -4.75096 0
M  V30 1097 H 108.504 -0.0914649 -5.26521 0
M  V30 1098 H 110.995 -0.468783 -3.74981 0
M  V30 1099 H 111.308 -1.57597 -7.5656 0
M  V30 1100 H 109.653 -1.4105 -6.80536 0
M  V30 1101 H 112.844 -0.664184 -4.63364 0
M  V30 1102 H 113.017 -1.16884 -6.37371 0
M  V30 1103 N 106.423 1.57458 -0.0668435 0
M  V30 1104 C 107.7 1.8469 0.644132 0
M  V30 1105 C 108.08 0.958343 1.88093 0
M  V30 1106 O 107.428 0.0233579 2.28488 0
M  V30 1107 C 107.638 3.34767 0.986509 0
M  V30 1108 C 108.986 4.02159 1.36212 0
M  V30 1109 O 110.01 3.39484 1.07839 0
M  V30 1110 O 108.869 5.12694 1.89227 0
M  V30 1111 H 105.963 0.762816 0.319437 0
M  V30 1112 H 108.509 1.6942 -0.0973986 0
M  V30 1113 H 107.281 3.91151 0.107883 0
M  V30 1114 H 106.904 3.55281 1.78497 0
M  V30 1115 N 107.901 -0.206675 1.56239 0
M  V30 1116 C 108.849 -1.27571 1.94495 0
M  V30 1117 C 109.843 -1.47737 0.828862 0
M  V30 1118 O 111.049 -1.48735 1.0138 0
M  V30 1119 H 107.424 -0.428029 0.6183 0
M  V30 1120 H 109.395 -0.925961 2.8367 0
M  V30 1121 C 108.144 -2.61568 2.29079 0
M  V30 1122 H 107.467 -2.46863 3.14482 0
M  V30 1123 H 108.907 -3.35144 2.5972 0
M  V30 1124 C 107.366 -3.17695 1.12123 0
M  V30 1125 O 107.896 -3.99801 0.390153 0
M  V30 1126 N 106.102 -2.76276 0.901097 0
M  V30 1127 H 105.649 -2.09613 1.49733 0
M  V30 1128 H 105.607 -3.1417 0.120319 0
M  V30 1129 N 109.379 -1.50304 -0.473955 0
M  V30 1130 C 110.604 -1.65175 -1.25427 0
M  V30 1131 C 111.029 -0.333673 -1.85117 0
M  V30 1132 O 110.387 0.702114 -1.67153 0
M  V30 1133 C 110.435 -2.74295 -2.34082 0
M  V30 1134 O 109.539 -2.35349 -3.38651 0
M  V30 1135 H 108.88 -0.551944 -0.369126 0
M  V30 1136 H 111.41 -1.96662 -0.564364 0
M  V30 1137 H 111.42 -2.97285 -2.79438 0
M  V30 1138 H 110.095 -3.69959 -1.90008 0
M  V30 1139 H 108.672 -2.22794 -2.99027 0
M  V30 1140 N 110.857 0.726932 -1.39834 0
M  V30 1141 C 111.804 1.841 -1.39197 0
M  V30 1142 C 112.774 1.642 -0.250502 0
M  V30 1143 O 113.959 1.85494 -0.446846 0
M  V30 1144 C 111.099 3.21697 -1.24919 0
M  V30 1145 C 110.212 3.53247 -2.48678 0
M  V30 1146 C 109.347 4.80289 -2.26928 0
M  V30 1147 C 108.386 5.04707 -3.4632 0
M  V30 1148 N 107.523 6.22956 -3.23836 0
M  V30 1149 H 112.363 1.83979 -2.34427 0
M  V30 1150 H 109.9 0.898876 -1.16442 0
M  V30 1151 H 111.858 4.01137 -1.1465 0
M  V30 1152 H 110.488 3.21076 -0.333153 0
M  V30 1153 H 109.54 2.68447 -2.69519 0
M  V30 1154 H 110.852 3.67205 -3.37582 0
M  V30 1155 H 110.006 5.67725 -2.13947 0
M  V30 1156 H 108.745 4.68519 -1.35431 0
M  V30 1157 H 107.75 4.1573 -3.5979 0
M  V30 1158 H 108.975 5.18357 -4.38729 0
M  V30 1159 H 106.921 6.12459 -2.35011 0
M  V30 1160 H 106.838 6.37539 -4.063 0
M  V30 1161 H 108.106 7.1321 -3.14566 0
M  V30 1162 N 112.336 1.25143 0.95797 0
M  V30 1163 C 113.284 1.05019 2.07542 0
M  V30 1164 C 114.278 -0.0178751 1.69391 0
M  V30 1165 O 115.484 0.137472 1.79474 0
M  V30 1166 H 111.859 0.32265 0.679265 0
M  V30 1167 H 113.83 1.99759 2.21673 0
M  V30 1168 C 112.579 0.682074 3.40944 0
M  V30 1169 H 111.902 1.49573 3.70767 0
M  V30 1170 H 113.342 0.580945 4.20001 0
M  V30 1171 C 111.801 -0.611608 3.31302 0
M  V30 1172 O 112.331 -1.65465 3.66038 0
M  V30 1173 N 110.537 -0.595982 2.84423 0
M  V30 1174 H 110.084 0.253192 2.56353 0
M  V30 1175 H 110.042 -1.46173 2.78354 0
M  V30 1176 N 113.814 -1.1601 1.06675 0
M  V30 1177 C 115.042 -1.90527 0.806667 0
M  V30 1178 C 115.457 -1.77643 -0.639396 0
M  V30 1179 O 114.814 -1.12369 -1.43803 0
M  V30 1180 C 114.865 -3.41106 1.19705 0
M  V30 1181 O 114.586 -3.53608 2.58636 0
M  V30 1182 C 116.087 -4.32663 0.965266 0
M  V30 1183 H 113.307 -0.604053 0.292166 0
M  V30 1184 H 115.851 -1.47026 1.4214 0
M  V30 1185 H 114.006 -3.82296 0.626774 0
M  V30 1186 H 114.42 -4.47011 2.74375 0
M  V30 1187 H 115.894 -5.36763 1.288 0
M  V30 1188 H 116.371 -4.39089 -0.0987936 0
M  V30 1189 H 116.977 -3.97206 1.52011 0
M  V30 1190 N 115.292 -0.849877 -1.32721 0
M  V30 1191 C 116.222 -0.306308 -2.31482 0
M  V30 1192 C 117.203 0.591952 -1.59468 0
M  V30 1193 O 118.388 0.513199 -1.87296 0
M  V30 1194 C 115.518 0.510204 -3.43532 0
M  V30 1195 C 114.472 -0.293209 -4.26994 0
M  V30 1196 C 113.798 0.647743 -5.30762 0
M  V30 1197 C 115.098 -1.51634 -4.99804 0
M  V30 1198 H 116.792 -1.13153 -2.77195 0
M  V30 1199 H 114.338 -0.545553 -1.33266 0
M  V30 1200 H 116.291 0.900856 -4.11658 0
M  V30 1201 H 115.015 1.36874 -2.96535 0
M  V30 1202 H 113.674 -0.665555 -3.60508 0
M  V30 1203 H 113.322 1.50299 -4.8002 0
M  V30 1204 H 113.022 0.11422 -5.87489 0
M  V30 1205 H 114.546 1.03567 -6.01753 0
M  V30 1206 H 115.96 -1.19824 -5.60638 0
M  V30 1207 H 114.357 -1.98745 -5.66234 0
M  V30 1208 H 115.427 -2.28018 -4.27943 0
M  V30 1209 N 116.77 1.45427 -0.607355 0
M  V30 1210 C 118 2.06314 -0.108656 0
M  V30 1211 C 118.408 1.45269 1.21217 0
M  V30 1212 O 117.751 0.561115 1.74921 0
M  V30 1213 C 117.813 3.59345 0.105618 0
M  V30 1214 C 117.477 4.42723 -1.13337 0
M  V30 1215 C 118.474 4.77715 -2.05145 0
M  V30 1216 C 116.159 4.83478 -1.36213 0
M  V30 1217 C 118.153 5.52317 -3.18158 0
M  V30 1218 C 115.84 5.57835 -2.49527 0
M  V30 1219 C 116.838 5.92171 -3.40327 0
M  V30 1220 O 116.526 6.65019 -4.51669 0
M  V30 1221 H 116.258 0.672782 -0.0658842 0
M  V30 1222 H 118.812 1.87664 -0.834945 0
M  V30 1223 H 117.042 3.76394 0.886796 0
M  V30 1224 H 118.731 4.02076 0.555886 0
M  V30 1225 H 119.497 4.46787 -1.88697 0
M  V30 1226 H 115.376 4.56188 -0.664362 0
M  V30 1227 H 118.92 5.79036 -3.89054 0
M  V30 1228 H 114.817 5.88177 -2.65928 0
M  V30 1229 H 115.585 6.83469 -4.50348 0
M  V30 1230 N 118.248 0.346503 1.53744 0
M  V30 1231 C 119.178 -0.501193 2.28058 0
M  V30 1232 C 120.159 -1.10014 1.29734 0
M  V30 1233 O 121.344 -1.12097 1.58581 0
M  V30 1234 C 118.474 -1.65078 3.05559 0
M  V30 1235 C 117.428 -1.18003 4.11411 0
M  V30 1236 C 116.754 -2.41837 4.76884 0
M  V30 1237 C 118.054 -0.278394 5.21558 0
M  V30 1238 H 119.748 0.11875 2.99164 0
M  V30 1239 H 117.294 0.0585531 1.43881 0
M  V30 1240 H 119.247 -2.25028 3.56287 0
M  V30 1241 H 117.971 -2.29767 2.32109 0
M  V30 1242 H 116.63 -0.603331 3.61601 0
M  V30 1243 H 116.278 -3.0494 4.00026 0
M  V30 1244 H 115.978 -2.1102 5.48402 0
M  V30 1245 H 117.502 -3.02508 5.30397 0
M  V30 1246 H 118.916 -0.784823 5.67903 0
M  V30 1247 H 117.313 -0.0619707 6.00068 0
M  V30 1248 H 118.383 0.684677 4.80042 0
M  V30 1249 N 119.726 -1.57421 0.075193 0
M  V30 1250 C 120.658 -2.09904 -0.920483 0
M  V30 1251 C 121.671 -1.03191 -1.25918 0
M  V30 1252 O 122.86 -1.30695 -1.21577 0
M  V30 1253 C 119.96 -2.54726 -2.23534 0
M  V30 1254 C 119.133 -3.8505 -2.07498 0
M  V30 1255 C 118.192 -4.15929 -3.22319 0
M  V30 1256 O 117.218 -4.85474 -2.9716 0
M  V30 1257 N 118.42 -3.69745 -4.47514 0
M  V30 1258 H 121.185 -2.95954 -0.472359 0
M  V30 1259 H 118.746 -1.61523 -0.110444 0
M  V30 1260 H 120.738 -2.72443 -2.9926 0
M  V30 1261 H 119.308 -1.73795 -2.59835 0
M  V30 1262 H 118.528 -3.76679 -1.16219 0
M  V30 1263 H 119.816 -4.70348 -1.94038 0
M  V30 1264 H 119.214 -3.13569 -4.7084 0
M  V30 1265 H 117.771 -3.92655 -5.20255 0
M  V30 1266 N 121.204 0.198386 -1.56346 0
M  V30 1267 C 122.137 1.27381 -1.89339 0
M  V30 1268 C 123.115 1.44106 -0.753134 0
M  V30 1269 O 124.299 1.59549 -1.00381 0
M  V30 1270 C 121.426 2.6409 -2.12071 0
M  V30 1271 C 120.472 2.64253 -3.34772 0
M  V30 1272 S 121.305 2.16013 -4.89999 0
M  V30 1273 C 122.461 3.54553 -5.15794 0
M  V30 1274 H 122.694 0.992058 -2.8026 0
M  V30 1275 H 120.227 0.401726 -1.49082 0
M  V30 1276 H 122.185 3.42786 -2.2585 0
M  V30 1277 H 120.846 2.89478 -1.21906 0
M  V30 1278 H 120.039 3.64768 -3.47794 0
M  V30 1279 H 119.641 1.93637 -3.1997 0
M  V30 1280 H 121.933 4.50396 -5.06112 0
M  V30 1281 H 122.876 3.46428 -6.1757 0
M  V30 1282 H 123.284 3.49313 -4.43442 0
M  V30 1283 N 122.682 1.50554 0.465978 0
M  V30 1284 C 123.63 1.70324 1.58406 0
M  V30 1285 C 124.624 0.569139 1.59553 0
M  V30 1286 O 125.83 0.749776 1.63641 0
M  V30 1287 H 122.205 0.537688 0.525734 0
M  V30 1288 H 124.176 2.64104 1.38894 0
M  V30 1289 C 122.925 1.81928 2.96307 0
M  V30 1290 H 122.248 2.68586 2.96144 0
M  V30 1291 H 123.688 1.99784 3.73982 0
M  V30 1292 C 122.147 0.572095 3.32007 0
M  V30 1293 O 122.677 -0.286416 4.00678 0
M  V30 1294 N 120.883 0.424606 2.87481 0
M  V30 1295 H 120.43 1.12427 2.31771 0
M  V30 1296 H 120.388 -0.408697 3.11732 0
M  V30 1297 N 124.16 -0.719506 1.40217 0
M  V30 1298 C 125.408 -1.47641 1.3801 0
M  V30 1299 C 125.729 -1.94992 -0.018145 0
M  V30 1300 O 124.999 -1.70073 -0.972207 0
M  V30 1301 H 123.579 -0.547744 0.507923 0
M  V30 1302 H 126.241 -0.853187 1.75233 0
M  V30 1303 H 125.337 -2.35112 2.05253 0
M  V30 1304 N 125.638 -1.25649 -0.95132 0
M  V30 1305 C 126.568 -1.08808 -2.06599 0
M  V30 1306 C 127.549 0.00382547 -1.701 0
M  V30 1307 O 128.734 -0.166325 -1.93486 0
M  V30 1308 C 125.864 -0.709542 -3.39975 0
M  V30 1309 C 124.818 -1.75206 -3.90496 0
M  V30 1310 C 124.144 -1.22811 -5.20405 0
M  V30 1311 C 125.444 -3.15153 -4.16504 0
M  V30 1312 H 127.138 -2.02048 -2.20946 0
M  V30 1313 H 124.684 -0.972835 -1.06169 0
M  V30 1314 H 126.637 -0.578649 -4.17408 0
M  V30 1315 H 125.361 0.258556 -3.25575 0
M  V30 1316 H 124.02 -1.87145 -3.15234 0
M  V30 1317 H 123.668 -0.250145 -5.02378 0
M  V30 1318 H 123.368 -1.92492 -5.55176 0
M  V30 1319 H 124.892 -1.10968 -6.00432 0
M  V30 1320 H 126.306 -3.06349 -4.84586 0
M  V30 1321 H 124.703 -3.82333 -4.62538 0
M  V30 1322 H 125.773 -3.61966 -3.22658 0
M  V30 1323 N 127.117 1.15442 -1.07289 0
M  V30 1324 C 128.533 1.38201 -0.798288 0
M  V30 1325 C 128.733 1.92429 0.597769 0
M  V30 1326 O 127.789 2.12962 1.3566 0
M  V30 1327 C 129.102 2.35357 -1.87156 0
M  V30 1328 C 130.65 2.49021 -1.89624 0
M  V30 1329 C 131.125 3.49468 -2.96034 0
M  V30 1330 N 132.616 3.57003 -2.95132 0
M  V30 1331 C 133.351 4.34543 -3.74112 0
M  V30 1332 N 132.847 5.15421 -4.6294 0
M  V30 1333 N 134.64 4.29625 -3.62462 0
M  V30 1334 H 126.791 0.78584 -1.97328 0
M  V30 1335 H 129.054 0.408065 -0.855679 0
M  V30 1336 H 128.76 2.02626 -2.87464 0
M  V30 1337 H 128.634 3.35129 -1.73114 0
M  V30 1338 H 131.021 2.81051 -0.899687 0
M  V30 1339 H 131.102 1.4925 -2.07745 0
M  V30 1340 H 130.746 3.18173 -3.95889 0
M  V30 1341 H 130.676 4.48992 -2.75161 0
M  V30 1342 H 133.167 2.99276 -2.30743 0
M  V30 1343 H 133.48 5.7183 -5.19837 0
M  V30 1344 H 131.825 5.14729 -4.66989 0
M  V30 1345 H 135.016 3.65505 -2.92444 0
M  V30 1346 H 135.189 4.89807 -4.24256 0
M  V30 1347 N 128.595 0.856903 1.32268 0
M  V30 1348 C 129.558 0.308171 2.27119 0
M  V30 1349 C 130.558 -0.533421 1.51695 0
M  V30 1350 O 131.748 -0.344607 1.70757 0
M  V30 1351 C 128.88 -0.563757 3.36206 0
M  V30 1352 H 130.073 1.14535 2.77167 0
M  V30 1353 H 127.626 0.631421 1.42978 0
M  V30 1354 H 128.361 -1.42266 2.91429 0
M  V30 1355 H 128.146 0.0386749 3.92081 0
M  V30 1356 H 129.636 -0.940386 4.06874 0
M  V30 1357 N 130.073 -1.45103 0.615059 0
M  V30 1358 C 130.983 -2.34382 -0.101034 0
M  V30 1359 C 131.999 -1.51681 -0.852585 0
M  V30 1360 O 133.175 -1.8446 -0.808484 0
M  V30 1361 C 130.24 -3.29417 -1.08099 0
M  V30 1362 C 129.301 -4.28025 -0.330577 0
M  V30 1363 C 128.534 -5.1852 -1.26385 0
M  V30 1364 O 128.757 -5.12598 -2.50198 0
M  V30 1365 O 127.691 -5.97122 -0.756866 0
M  V30 1366 H 131.517 -2.97033 0.632855 0
M  V30 1367 H 129.102 -1.4461 0.375293 0
M  V30 1368 H 130.984 -3.87958 -1.6452 0
M  V30 1369 H 129.659 -2.69321 -1.79577 0
M  V30 1370 H 128.566 -3.73078 0.276283 0
M  V30 1371 H 129.899 -4.90997 0.343866 0
M  V30 1372 N 131.551 -0.354651 -1.53558 0
M  V30 1373 C 132.828 0.294281 -1.93374 0
M  V30 1374 C 133.208 1.67313 -1.28723 0
M  V30 1375 O 132.556 2.24179 -0.442247 0
M  V30 1376 C 132.766 0.355445 -3.47185 0
M  V30 1377 C 134.114 0.601007 -4.20325 0
M  V30 1378 O 135.138 0.437106 -3.53508 0
M  V30 1379 O 133.997 0.919322 -5.38712 0
M  V30 1380 H 131.091 0.174033 -0.808481 0
M  V30 1381 H 133.637 -0.406638 -1.64756 0
M  V30 1382 H 132.409 -0.611729 -3.86489 0
M  V30 1383 H 132.032 1.1027 -3.82003 0
M  V30 1384 N 133.029 1.57378 -0.0835403 0
M  V30 1385 C 134.257 1.98263 0.59157 0
M  V30 1386 C 134.672 0.962302 1.62435 0
M  V30 1387 O 134.029 -0.049581 1.82433 0
M  V30 1388 C 134.08 3.39214 1.24965 0
M  V30 1389 O 133.801 4.37339 0.258186 0
M  V30 1390 C 135.302 3.95038 2.01147 0
M  V30 1391 H 132.522 0.651773 0.159477 0
M  V30 1392 H 135.066 2.03878 -0.159415 0
M  V30 1393 H 133.221 3.34649 1.95164 0
M  V30 1394 H 133.635 5.19371 0.731734 0
M  V30 1395 H 135.109 4.95848 2.42567 0
M  V30 1396 H 135.586 3.32222 2.87272 0
M  V30 1397 H 136.192 4.0304 1.35789 0
M  V30 1398 N 134.507 -0.190092 1.56449 0
M  V30 1399 C 135.47 -1.21925 1.9408 0
M  V30 1400 C 136.47 -1.38176 0.822431 0
M  V30 1401 O 137.66 -1.35903 1.08977 0
M  V30 1402 C 134.792 -2.58773 2.21922 0
M  V30 1403 H 135.985 -0.897464 2.86157 0
M  V30 1404 H 133.538 -0.43181 1.50217 0
M  V30 1405 H 134.273 -2.95998 1.32499 0
M  V30 1406 H 134.058 -2.48348 3.03424 0
M  V30 1407 H 135.548 -3.32978 2.52022 0
M  V30 1408 N 135.985 -1.50799 -0.457987 0
M  V30 1409 C 137.231 -1.62683 -1.21088 0
M  V30 1410 C 137.564 -0.332268 -1.91336 0
M  V30 1411 O 136.839 0.667043 -1.82704 0
M  V30 1412 C 137.122 -2.81615 -2.24422 0
M  V30 1413 C 136.975 -4.20989 -1.58392 0
M  V30 1414 C 138.294 -2.96085 -3.2561 0
M  V30 1415 H 135.413 -0.592087 -0.438864 0
M  V30 1416 H 138.055 -1.83225 -0.50286 0
M  V30 1417 H 136.205 -2.64231 -2.84806 0
M  V30 1418 H 137.877 -4.49994 -1.01504 0
M  V30 1419 H 136.12 -4.24641 -0.886704 0
M  V30 1420 H 136.791 -5.0016 -2.33547 0
M  V30 1421 H 139.267 -3.12042 -2.75262 0
M  V30 1422 H 138.143 -3.80902 -3.95228 0
M  V30 1423 H 138.404 -2.0726 -3.90507 0
M  V30 1424 N 137.463 0.71206 -1.40597 0
M  V30 1425 C 138.693 1.49894 -1.42181 0
M  V30 1426 C 139.101 1.89189 -0.0208078 0
M  V30 1427 O 138.444 1.56223 0.966436 0
M  V30 1428 C 138.506 2.80215 -2.25211 0
M  V30 1429 C 138.17 2.63221 -3.73582 0
M  V30 1430 C 139.167 2.30249 -4.66135 0
M  V30 1431 C 136.852 2.79376 -4.17438 0
M  V30 1432 C 138.846 2.13645 -6.00529 0
M  V30 1433 C 136.533 2.6239 -5.51901 0
M  V30 1434 C 137.531 2.29573 -6.43262 0
M  V30 1435 O 137.219 2.12719 -7.75246 0
M  V30 1436 H 136.951 0.469031 -0.486812 0
M  V30 1437 H 139.505 0.88564 -1.85326 0
M  V30 1438 H 137.735 3.4389 -1.76852 0
M  V30 1439 H 139.424 3.41947 -2.18694 0
M  V30 1440 H 140.19 2.17398 -4.33547 0
M  V30 1441 H 136.069 3.03906 -3.46644 0
M  V30 1442 H 139.613 1.87953 -6.71803 0
M  V30 1443 H 135.51 2.74826 -5.84073 0
M  V30 1444 H 136.278 2.27611 -7.86216 0
M  V30 1445 N 138.941 1.26152 0.944643 0
M  V30 1446 C 140.171 1.14094 1.72239 0
M  V30 1447 C 140.579 -0.306931 1.86694 0
M  V30 1448 O 139.922 -1.22222 1.3714 0
M  V30 1449 C 139.984 1.73316 3.14963 0
M  V30 1450 C 139.648 3.2239 3.23904 0
M  V30 1451 C 140.645 4.19252 3.07447 0
M  V30 1452 C 138.33 3.62788 3.47405 0
M  V30 1453 C 140.324 5.54491 3.14353 0
M  V30 1454 C 138.011 4.98162 3.53947 0
M  V30 1455 C 139.009 5.93823 3.37436 0
M  V30 1456 O 138.697 7.26732 3.43679 0
M  V30 1457 H 138.429 0.398292 0.546205 0
M  V30 1458 H 140.983 1.67201 1.19301 0
M  V30 1459 H 139.213 1.14667 3.69308 0
M  V30 1460 H 140.902 1.56214 3.74636 0
M  V30 1461 H 141.668 3.8938 2.8915 0
M  V30 1462 H 137.547 2.88816 3.59313 0
M  V30 1463 H 141.091 6.29137 3.01384 0
M  V30 1464 H 136.988 5.27695 3.71763 0
M  V30 1465 H 137.756 7.3496 3.60245 0
M  V30 1466 N 140.419 -1.14872 1.07899 0
M  V30 1467 C 141.659 -1.8745 0.814965 0
M  V30 1468 C 142.023 -1.80758 -0.64733 0
M  V30 1469 O 143.224 -2.48422 -1.02664 0
M  V30 1470 C 141.495 -3.32286 1.31607 0
M  V30 1471 S 143.054 -4.22537 1.18357 0
M  V30 1472 H 139.872 -0.646833 0.295174 0
M  V30 1473 H 142.474 -1.38555 1.37923 0
M  V30 1474 H 141.178 -3.34703 2.37491 0
M  V30 1475 H 140.709 -3.86238 0.747261 0
M  V30 1476 H 142.724 -4.96044 0.124586 0
M  V30 1477 N 141.898 -0.863906 -1.31812 0
M  V30 1478 C 142.861 -0.320212 -2.26952 0
M  V30 1479 C 143.861 0.525369 -1.51975 0
M  V30 1480 O 145.051 0.335547 -1.70938 0
M  V30 1481 C 142.183 0.545919 -3.365 0
M  V30 1482 H 143.376 -1.16004 -2.76556 0
M  V30 1483 H 140.929 -0.638995 -1.42641 0
M  V30 1484 H 141.664 1.40718 -2.92179 0
M  V30 1485 H 141.449 -0.0594674 -3.92055 0
M  V30 1486 H 142.939 0.918796 -4.07367 0
M  V30 1487 N 143.376 1.44774 -0.622745 0
M  V30 1488 C 144.792 1.56986 -0.287652 0
M  V30 1489 C 144.992 1.61167 1.20944 0
M  V30 1490 O 144.048 1.55015 1.99315 0
M  V30 1491 C 145.361 2.84551 -0.972188 0
M  V30 1492 C 146.909 2.9825 -0.949536 0
M  V30 1493 C 147.384 4.28605 -1.61437 0
M  V30 1494 N 148.875 4.35399 -1.58057 0
M  V30 1495 C 149.61 5.34964 -2.064 0
M  V30 1496 N 149.106 6.40981 -2.62897 0
M  V30 1497 N 150.899 5.26419 -1.97078 0
M  V30 1498 H 143.05 1.40304 -1.59463 0
M  V30 1499 H 145.313 0.671794 -0.668878 0
M  V30 1500 H 145.019 2.87417 -2.02693 0
M  V30 1501 H 144.893 3.73807 -0.504771 0
M  V30 1502 H 147.28 2.94941 0.0967067 0
M  V30 1503 H 147.361 2.10364 -1.45536 0
M  V30 1504 H 147.005 4.32672 -2.66002 0
M  V30 1505 H 146.935 5.15334 -1.08344 0
M  V30 1506 H 149.426 3.59397 -1.16801 0
M  V30 1507 H 149.739 7.13225 -2.97539 0
M  V30 1508 H 148.084 6.4169 -2.66943 0
M  V30 1509 H 151.275 4.42504 -1.52669 0
M  V30 1510 H 151.448 6.03861 -2.35066 0
M  V30 1511 N 144.854 0.36279 1.53368 0
M  V30 1512 C 146.131 -0.284021 1.93527 0
M  V30 1513 C 146.511 -1.66628 1.29608 0
M  V30 1514 O 145.859 -2.23942 0.45413 0
M  V30 1515 C 146.069 -0.337028 3.47369 0
M  V30 1516 C 147.417 -0.578708 4.20638 0
M  V30 1517 O 148.441 -0.418352 3.53735 0
M  V30 1518 O 147.3 -0.89074 5.39192 0
M  V30 1519 H 144.394 -0.169743 0.809393 0
M  V30 1520 H 146.94 0.41537 1.64538 0
M  V30 1521 H 145.712 0.632217 3.86159 0
M  V30 1522 H 145.335 -1.08243 3.82582 0
M  V30 1523 N 146.332 -1.57332 0.0918853 0
M  V30 1524 C 147.262 -2.16872 -0.865371 0
M  V30 1525 C 148.243 -1.10118 -1.29646 0
M  V30 1526 O 149.428 -1.38242 -1.36392 0
M  V30 1527 C 146.558 -2.74649 -2.12569 0
M  V30 1528 C 145.512 -3.86747 -1.83333 0
M  V30 1529 C 144.838 -4.31212 -3.16166 0
M  V30 1530 C 146.138 -5.10089 -1.1228 0
M  V30 1531 H 147.832 -2.97114 -0.369307 0
M  V30 1532 H 145.378 -1.42918 -0.176194 0
M  V30 1533 H 147.331 -3.14952 -2.7997 0
M  V30 1534 H 146.055 -1.91657 -2.64452 0
M  V30 1535 H 144.714 -3.46978 -1.18331 0
M  V30 1536 H 144.362 -3.45115 -3.6593 0
M  V30 1537 H 144.062 -5.06788 -2.97388 0
M  V30 1538 H 145.586 -4.74146 -3.84731 0
M  V30 1539 H 147 -5.47582 -1.69785 0
M  V30 1540 H 145.397 -5.91073 -1.03693 0
M  V30 1541 H 146.467 -4.84786 -0.105041 0
M  V30 1542 N 147.81 0.181792 -1.56548 0
M  V30 1543 C 149.226 0.53316 -1.50431 0
M  V30 1544 C 149.426 1.85184 -0.794297 0
M  V30 1545 O 148.482 2.50058 -0.350318 0
M  V30 1546 C 149.795 0.575597 -2.9514 0
M  V30 1547 C 151.343 0.663519 -3.05886 0
M  V30 1548 C 151.818 0.736946 -4.52032 0
M  V30 1549 N 153.309 0.800118 -4.56237 0
M  V30 1550 C 154.044 0.877327 -5.66649 0
M  V30 1551 N 153.54 0.916016 -6.86718 0
M  V30 1552 N 155.333 0.915542 -5.54594 0
M  V30 1553 H 147.484 -0.683025 -2.01118 0
M  V30 1554 H 149.747 -0.244988 -0.915797 0
M  V30 1555 H 149.453 -0.324482 -3.502 0
M  V30 1556 H 149.327 1.42572 -3.49218 0
M  V30 1557 H 151.714 1.55403 -2.50867 0
M  V30 1558 H 151.795 -0.21307 -2.54911 0
M  V30 1559 H 151.439 -0.149262 -5.07681 0
M  V30 1560 H 151.369 1.62953 -5.00753 0
M  V30 1561 H 153.86 0.778926 -3.69785 0
M  V30 1562 H 154.173 0.975813 -7.66614 0
M  V30 1563 H 152.518 0.884469 -6.89349 0
M  V30 1564 H 155.709 0.882245 -4.59711 0
M  V30 1565 H 155.882 0.972253 -6.40665 0
M  V30 1566 N 149.288 1.51039 0.449983 0
M  V30 1567 C 150.516 1.66869 1.2232 0
M  V30 1568 C 150.931 0.360727 1.85322 0
M  V30 1569 O 150.288 -0.659531 1.70166 0
M  V30 1570 C 150.339 2.77524 2.31652 0
M  V30 1571 O 150.06 4.03252 1.7123 0
M  V30 1572 C 151.561 3.04512 3.2216 0
M  V30 1573 H 148.781 0.560326 0.369155 0
M  V30 1574 H 151.325 1.97385 0.534719 0
M  V30 1575 H 149.48 2.49642 2.96239 0
M  V30 1576 H 149.894 4.64609 2.43389 0
M  V30 1577 H 151.368 3.85551 3.95038 0
M  V30 1578 H 151.845 2.16415 3.8218 0
M  V30 1579 H 152.451 3.34005 2.63288 0
M  V30 1580 N 150.766 -0.704594 1.40972 0
M  V30 1581 C 152.014 -1.46169 1.39568 0
M  V30 1582 C 152.335 -1.95 0.00253745 0
M  V30 1583 O 151.605 -1.71095 -0.954114 0
M  V30 1584 H 150.185 -0.542326 0.513704 0
M  V30 1585 H 152.847 -0.834553 1.76128 0
M  V30 1586 H 151.943 -2.32922 2.07735 0
M  V30 1587 N 152.244 -1.26651 -0.937939 0
M  V30 1588 C 153.655 -1.1125 -1.49934 0
M  V30 1589 C 154.006 0.306077 -1.93798 0
M  V30 1590 O 153.131 1.19792 -1.80219 0
M  V30 1591 C 153.726 -2.01339 -2.72485 0
M  V30 1592 C 152.285 -1.90074 -3.24883 0
M  V30 1593 C 151.432 -1.94498 -1.97651 0
M  V30 1594 H 154.383 -1.39693 -0.753091 0
M  V30 1595 H 154.404 -1.56319 -3.46907 0
M  V30 1596 H 153.916 -3.04577 -2.40529 0
M  V30 1597 H 152.017 -0.897827 -3.61621 0
M  V30 1598 H 152.13 -2.75778 -3.9177 0
M  V30 1599 H 150.494 -1.38591 -2.13693 0
M  V30 1600 H 151.277 -2.99372 -1.68022 0
M  V30 1601 N 153.722 1.14298 -1.08507 0
M  V30 1602 C 154.969 1.85359 -0.815373 0
M  V30 1603 C 155.297 1.83001 0.658865 0
M  V30 1604 O 154.552 1.25655 1.50031 0
M  V30 1605 C 154.851 3.33547 -1.28379 0
M  V30 1606 C 154.517 3.56093 -2.76602 0
M  V30 1607 C 153.179 3.61955 -3.17084 0
M  V30 1608 C 155.531 3.64834 -3.72217 0
M  V30 1609 C 152.859 3.74082 -4.51973 0
M  V30 1610 C 155.211 3.78487 -5.06883 0
M  V30 1611 C 153.875 3.82598 -5.46969 0
M  V30 1612 H 153.145 0.678276 -0.298366 0
M  V30 1613 H 155.792 1.35002 -1.35819 0
M  V30 1614 H 154.097 3.86191 -0.660593 0
M  V30 1615 H 155.794 3.86959 -1.05186 0
M  V30 1616 H 152.384 3.52179 -2.4427 0
M  V30 1617 H 156.568 3.59595 -3.42061 0
M  V30 1618 H 151.824 3.75527 -4.82483 0
M  V30 1619 H 155.998 3.84193 -5.80834 0
M  V30 1620 H 153.625 3.91747 -6.51489 0
M  V30 1621 N 155.201 0.870884 1.31352 0
M  V30 1622 C 156.478 0.402907 1.91405 0
M  V30 1623 C 156.858 -1.11512 1.79244 0
M  V30 1624 O 156.206 -1.94411 1.2007 0
M  V30 1625 C 156.416 0.885301 3.37585 0
M  V30 1626 C 157.764 0.911971 4.14691 0
M  V30 1627 O 158.788 0.831016 3.46371 0
M  V30 1628 O 157.647 1.02927 5.3672 0
M  V30 1629 H 154.741 0.120698 0.818145 0
M  V30 1630 H 157.287 0.958857 1.40014 0
M  V30 1631 H 156.059 1.92889 3.40455 0
M  V30 1632 H 155.682 0.307714 3.96407 0
M  V30 1633 N 156.679 -1.44442 0.630414 0
M  V30 1634 C 157.909 -2.06115 0.141465 0
M  V30 1635 C 158.317 -1.47179 -1.1889 0
M  V30 1636 O 157.66 -0.588873 -1.74006 0
M  V30 1637 C 157.722 -3.59467 -0.0484355 0
M  V30 1638 C 157.386 -4.40864 1.20366 0
M  V30 1639 C 158.383 -4.74391 2.12719 0
M  V30 1640 C 156.068 -4.8125 1.43887 0
M  V30 1641 C 158.062 -5.47186 3.26904 0
M  V30 1642 C 155.749 -5.53795 2.5837 0
M  V30 1643 C 156.747 -5.86682 3.49705 0
M  V30 1644 O 156.435 -6.57749 4.62191 0
M  V30 1645 H 156.167 -0.671648 0.0765792 0
M  V30 1646 H 158.721 -1.86312 0.864695 0
M  V30 1647 H 156.951 -3.77758 -0.826803 0
M  V30 1648 H 158.64 -4.02909 -0.491849 0
M  V30 1649 H 159.406 -4.43728 1.95781 0
M  V30 1650 H 155.285 -4.55073 0.736853 0
M  V30 1651 H 158.829 -5.72773 3.98217 0
M  V30 1652 H 154.726 -5.83872 2.75251 0
M  V30 1653 H 155.494 -6.76217 4.61164 0
M  V30 1654 N 158.157 -0.370918 -1.53173 0
M  V30 1655 C 159.403 0.209976 -2.02313 0
M  V30 1656 C 159.758 1.45987 -1.25322 0
M  V30 1657 O 159.051 1.8856 -0.339965 0
M  V30 1658 C 159.245 0.549696 -3.53147 0
M  V30 1659 C 159.074 -0.665721 -4.44745 0
M  V30 1660 C 157.844 -1.17942 -4.91343 0
M  V30 1661 C 160.042 -1.53255 -4.90935 0
M  V30 1662 N 158.024 -2.35431 -5.66962 0
M  V30 1663 C 159.395 -2.55403 -5.64951 0
M  V30 1664 C 161.45 -1.5548 -4.73002 0
M  V30 1665 C 160.153 -3.5964 -6.22938 0
M  V30 1666 C 162.179 -2.58613 -5.31858 0
M  V30 1667 C 161.541 -3.59485 -6.05764 0
M  V30 1668 H 157.64 0.0394095 -0.781006 0
M  V30 1669 H 160.224 -0.516666 -1.8772 0
M  V30 1670 H 158.395 1.24541 -3.67891 0
M  V30 1671 H 160.127 1.11614 -3.89004 0
M  V30 1672 H 156.882 -0.743228 -4.67732 0
M  V30 1673 H 157.306 -2.94827 -6.09431 0
M  V30 1674 H 161.948 -0.788457 -4.15383 0
M  V30 1675 H 159.666 -4.37153 -6.79649 0
M  V30 1676 H 163.252 -2.61195 -5.19873 0
M  V30 1677 H 162.132 -4.3798 -6.50495 0
M  V30 1678 N 159.635 1.57281 -0.100228 0
M  V30 1679 C 160.883 1.94153 0.561157 0
M  V30 1680 C 161.204 0.983157 1.68401 0
M  V30 1681 O 160.474 0.0361132 1.95867 0
M  V30 1682 H 159.054 0.716791 0.210283 0
M  V30 1683 H 161.716 1.94202 -0.164765 0
M  V30 1684 H 160.812 2.96709 0.968008 0
M  V30 1685 N 161.113 -0.173488 1.56642 0
M  V30 1686 C 162.045 -1.23935 1.92802 0
M  V30 1687 C 163.058 -1.40589 0.820889 0
M  V30 1688 O 164.247 -1.40631 1.09933 0
M  V30 1689 C 161.347 -2.60837 2.16373 0
M  V30 1690 C 160.52 -2.6551 3.47596 0
M  V30 1691 C 159.579 -3.8376 3.60021 0
M  V30 1692 O 158.605 -3.69859 4.32658 0
M  V30 1693 N 159.807 -5.00127 2.94709 0
M  V30 1694 H 162.572 -0.932236 2.84832 0
M  V30 1695 H 160.133 -0.363268 1.57772 0
M  V30 1696 H 162.125 -3.38407 2.21952 0
M  V30 1697 H 160.695 -2.83948 1.30738 0
M  V30 1698 H 159.915 -1.74052 3.53694 0
M  V30 1699 H 161.203 -2.65641 4.33949 0
M  V30 1700 H 160.601 -5.14322 2.35563 0
M  V30 1701 H 159.158 -5.75567 3.05886 0
M  V30 1702 N 162.591 -1.51276 -0.441967 0
M  V30 1703 C 163.839 -1.63392 -1.18943 0
M  V30 1704 C 164.16 -0.350159 -1.9183 0
M  V30 1705 O 163.43 0.633784 -1.85364 0
M  V30 1706 H 162.01 -0.602164 -0.442049 0
M  V30 1707 H 164.672 -1.88186 -0.507165 0
M  V30 1708 H 163.768 -2.45934 -1.92154 0
M  V30 1709 N 164.069 0.697108 -1.41344 0
M  V30 1710 C 165.297 1.48593 -1.43972 0
M  V30 1711 C 165.712 1.88747 -0.0445612 0
M  V30 1712 O 165.069 1.56682 0.935785 0
M  V30 1713 C 165.12 2.74946 -2.34706 0
M  V30 1714 O 164.841 2.36484 -3.68791 0
M  V30 1715 C 166.342 3.687 -2.46121 0
M  V30 1716 H 163.562 0.457964 -0.490418 0
M  V30 1717 H 166.106 0.858429 -1.8561 0
M  V30 1718 H 164.261 3.33937 -1.9638 0
M  V30 1719 H 164.675 3.17918 -4.17167 0
M  V30 1720 H 166.149 4.54145 -3.13777 0
M  V30 1721 H 166.626 4.13081 -1.49199 0
M  V30 1722 H 167.232 3.15613 -2.85076 0
M  V30 1723 N 165.547 1.27147 0.931209 0
M  V30 1724 C 166.477 1.12081 2.04842 0
M  V30 1725 C 167.458 0.0232364 1.70084 0
M  V30 1726 O 168.643 0.197085 1.93197 0
M  V30 1727 C 165.773 0.76354 3.38803 0
M  V30 1728 C 164.727 1.81396 3.87659 0
M  V30 1729 C 164.053 1.31075 5.18385 0
M  V30 1730 C 165.353 3.21739 4.11438 0
M  V30 1731 H 167.047 2.05537 2.17703 0
M  V30 1732 H 164.593 0.989603 1.04608 0
M  V30 1733 H 166.546 0.644982 4.16435 0
M  V30 1734 H 165.27 -0.206727 3.25945 0
M  V30 1735 H 163.929 1.92136 3.12217 0
M  V30 1736 H 163.577 0.330037 5.01916 0
M  V30 1737 H 163.277 2.013 5.52044 0
M  V30 1738 H 164.801 1.20506 5.98591 0
M  V30 1739 H 166.215 3.14019 4.79651 0
M  V30 1740 H 164.612 3.89644 4.56397 0
M  V30 1741 H 165.682 3.67054 3.16859 0
M  V30 1742 N 167.025 -1.13721 1.09112 0
M  V30 1743 C 168.271 -1.85198 0.826414 0
M  V30 1744 C 168.604 -1.83129 -0.646319 0
M  V30 1745 O 167.879 -1.2671 -1.47563 0
M  V30 1746 C 168.162 -3.33507 1.35812 0
M  V30 1747 C 168.015 -3.44108 2.89672 0
M  V30 1748 C 169.334 -4.28838 0.989256 0
M  V30 1749 H 166.453 -0.67243 0.301675 0
M  V30 1750 H 169.095 -1.33499 1.35197 0
M  V30 1751 H 167.245 -3.77666 0.911082 0
M  V30 1752 H 168.917 -3.08684 3.428 0
M  V30 1753 H 167.16 -2.85087 3.26967 0
M  V30 1754 H 167.831 -4.48388 3.21951 0
M  V30 1755 H 170.307 -3.92734 1.37475 0
M  V30 1756 H 169.183 -5.31051 1.38838 0
M  V30 1757 H 169.444 -4.4198 -0.102924 0
M  V30 1758 N 168.503 -0.877838 -1.30888 0
M  V30 1759 C 169.731 -0.507414 -2.00581 0
M  V30 1760 C 170.146 0.902216 -1.65848 0
M  V30 1761 O 169.503 1.59225 -0.891831 0
M  V30 1762 C 169.554 -0.664162 -3.55347 0
M  V30 1763 O 169.275 -2.01829 -3.8884 0
M  V30 1764 C 170.776 -0.295787 -4.42312 0
M  V30 1765 H 167.996 -0.196866 -0.641471 0
M  V30 1766 H 170.54 -1.18117 -1.66939 0
M  V30 1767 H 168.695 -0.0378619 -3.87381 0
M  V30 1768 H 169.109 -2.03174 -4.8355 0
M  V30 1769 H 170.583 -0.456388 -5.5011 0
M  V30 1770 H 171.06 0.765663 -4.32475 0
M  V30 1771 H 171.666 -0.898113 -4.15709 0
M  V30 1772 N 169.982 1.44106 -0.638065 0
M  V30 1773 C 171.228 2.02277 -0.145546 0
M  V30 1774 C 171.561 1.50125 1.23191 0
M  V30 1775 O 170.836 0.688133 1.8192 0
M  V30 1776 C 171.119 3.59829 -0.139791 0
M  V30 1777 C 170.972 4.22247 -1.55008 0
M  V30 1778 C 172.291 4.36873 0.531966 0
M  V30 1779 H 169.41 0.734992 -0.0543632 0
M  V30 1780 H 172.052 1.71592 -0.815863 0
M  V30 1781 H 170.202 3.86102 0.431007 0
M  V30 1782 H 171.874 4.07057 -2.1703 0
M  V30 1783 H 170.117 3.79476 -2.10191 0
M  V30 1784 H 170.788 5.31284 -1.49804 0
M  V30 1785 H 173.264 4.16074 0.0464781 0
M  V30 1786 H 172.14 5.4657 0.505206 0
M  V30 1787 H 172.401 4.11995 1.60352 0
M  V30 1788 N 171.46 0.379036 1.52974 0
M  V30 1789 C 172.685 -0.209353 2.06341 0
M  V30 1790 C 173.11 -1.40583 1.24972 0
M  V30 1791 O 172.468 -1.79246 0.272155 0
M  V30 1792 C 172.516 -0.567786 3.56102 0
M  V30 1793 O 171.62 -1.66318 3.77375 0
M  V30 1794 H 170.961 -0.0272919 0.663439 0
M  V30 1795 H 173.491 0.543536 1.97248 0
M  V30 1796 H 173.501 -0.835003 3.99364 0
M  V30 1797 H 172.176 0.307013 4.14765 0
M  V30 1798 H 170.753 -1.39048 3.46006 0
M  V30 1799 N 172.938 -1.57226 0.108567 0
M  V30 1800 C 174.163 -1.99604 -0.563303 0
M  V30 1801 C 174.588 -0.987563 -1.6009 0
M  V30 1802 O 173.946 0.0421687 -1.81251 0
M  V30 1803 C 173.994 -3.40902 -1.17552 0
M  V30 1804 O 173.098 -3.42896 -2.2912 0
M  V30 1805 H 172.439 -0.648704 -0.1417 0
M  V30 1806 H 174.969 -2.03679 0.193961 0
M  V30 1807 H 174.979 -3.78886 -1.51357 0
M  V30 1808 H 173.654 -4.1382 -0.415445 0
M  V30 1809 H 172.231 -3.1672 -1.96832 0
M  V30 1810 N 174.416 0.165178 -1.56732 0
M  V30 1811 C 175.379 1.18822 -1.95995 0
M  V30 1812 C 176.379 1.3685 -0.84431 0
M  V30 1813 O 177.569 1.34152 -1.11126 0
M  V30 1814 C 174.701 2.5521 -2.26011 0
M  V30 1815 H 175.894 0.851825 -2.87548 0
M  V30 1816 H 173.447 0.407857 -1.50885 0
M  V30 1817 H 174.182 2.93852 -1.37191 0
M  V30 1818 H 173.967 2.43489 -3.07336 0
M  V30 1819 H 175.457 3.28927 -2.57288 0
M  V30 1820 N 175.894 1.51508 0.433938 0
M  V30 1821 C 177.119 1.68443 1.21003 0
M  V30 1822 C 177.544 0.382636 1.84167 0
M  V30 1823 O 176.902 -0.65755 1.68956 0
M  V30 1824 C 176.95 2.80405 2.26727 0
M  V30 1825 O 176.054 2.44245 3.32292 0
M  V30 1826 H 175.395 0.561536 0.354363 0
M  V30 1827 H 177.925 1.9809 0.512024 0
M  V30 1828 H 177.935 3.0459 2.71457 0
M  V30 1829 H 176.61 3.74867 1.80132 0
M  V30 1830 H 175.187 2.30644 2.93015 0
M  V30 1831 N 177.372 -0.689602 1.41712 0
M  V30 1832 C 178.6 -1.47827 1.44758 0
M  V30 1833 C 179.015 -1.88721 0.0545703 0
M  V30 1834 O 178.372 -1.57176 -0.927463 0
M  V30 1835 C 178.423 -2.73698 2.3616 0
M  V30 1836 O 178.144 -2.34524 3.7004 0
M  V30 1837 C 179.645 -3.67389 2.48072 0
M  V30 1838 H 176.865 -0.455357 0.49284 0
M  V30 1839 H 179.409 -0.848574 1.86063 0
M  V30 1840 H 177.564 -3.32891 1.98148 0
M  V30 1841 H 177.978 -3.15701 4.18847 0
M  V30 1842 H 179.452 -4.52475 3.16181 0
M  V30 1843 H 179.929 -4.12284 1.51388 0
M  V30 1844 H 180.535 -3.14097 2.86746 0
M  V30 1845 N 178.85 -1.27639 -0.924453 0
M  V30 1846 C 179.797 -1.10644 -2.0255 0
M  V30 1847 C 180.767 -0.00658438 -1.66099 0
M  V30 1848 O 181.952 -0.16952 -1.90045 0
M  V30 1849 C 179.092 -0.76309 -3.36557 0
M  V30 1850 C 178.205 -1.94091 -3.85944 0
M  V30 1851 C 177.34 -1.53914 -5.08413 0
M  V30 1852 C 176.379 -2.68425 -5.50104 0
M  V30 1853 N 175.516 -2.28815 -6.63768 0
M  V30 1854 H 180.356 -2.04858 -2.16419 0
M  V30 1855 H 177.893 -1.01974 -1.06017 0
M  V30 1856 H 179.851 -0.544822 -4.13627 0
M  V30 1857 H 178.481 0.142102 -3.22487 0
M  V30 1858 H 177.533 -2.27162 -3.05125 0
M  V30 1859 H 178.845 -2.7998 -4.12811 0
M  V30 1860 H 177.999 -1.28231 -5.92994 0
M  V30 1861 H 176.738 -0.651391 -4.8333 0
M  V30 1862 H 175.743 -2.94819 -4.64071 0
M  V30 1863 H 176.968 -3.57826 -5.7718 0
M  V30 1864 H 174.914 -1.42495 -6.40337 0
M  V30 1865 H 174.831 -3.08242 -6.90306 0
M  V30 1866 H 176.099 -2.06387 -7.51681 0
M  V30 1867 N 180.328 1.1314 -1.09713 0
M  V30 1868 C 181.576 1.84119 -0.833338 0
M  V30 1869 C 181.897 1.84097 0.642904 0
M  V30 1870 O 181.167 1.29881 1.46655 0
M  V30 1871 H 179.747 0.681766 -0.305293 0
M  V30 1872 H 182.409 1.37038 -1.38588 0
M  V30 1873 H 181.505 2.88543 -1.18951 0
M  V30 1874 N 181.806 0.884767 1.30421 0
M  V30 1875 C 183.217 0.553656 1.78302 0
M  V30 1876 C 183.568 -0.930153 1.7275 0
M  V30 1877 O 182.693 -1.72681 1.30423 0
M  V30 1878 C 183.288 0.998234 3.2376 0
M  V30 1879 C 181.847 0.71854 3.69478 0
M  V30 1880 C 180.994 1.18132 2.50879 0
M  V30 1881 H 183.945 1.06901 1.17294 0
M  V30 1882 H 183.966 0.327118 3.79091 0
M  V30 1883 H 183.478 2.0782 3.27769 0
M  V30 1884 H 181.579 -0.349444 3.70958 0
M  V30 1885 H 181.692 1.30595 4.60958 0
M  V30 1886 H 180.056 0.600669 2.47516 0
M  V30 1887 H 180.839 2.26902 2.57624 0
M  V30 1888 N 183.284 -1.43765 0.645699 0
M  V30 1889 C 184.509 -2.06767 0.161883 0
M  V30 1890 C 184.934 -1.48034 -1.16049 0
M  V30 1891 O 184.292 -0.587369 -1.71522 0
M  V30 1892 C 184.34 -3.60519 0.0762003 0
M  V30 1893 O 183.444 -4.00982 -0.963721 0
M  V30 1894 H 182.785 -0.657675 0.091429 0
M  V30 1895 H 185.315 -1.84397 0.886499 0
M  V30 1896 H 185.325 -4.07853 -0.109604 0
M  V30 1897 H 184 -4.02646 1.04157 0
M  V30 1898 H 182.577 -3.65253 -0.751312 0
M  V30 1899 N 184.763 -0.387143 -1.52771 0
M  V30 1900 C 186.009 0.196025 -2.0185 0
M  V30 1901 C 186.342 1.46641 -1.27319 0
M  V30 1902 O 185.617 1.90889 -0.373032 0
M  V30 1903 C 185.9 0.466136 -3.5707 0
M  V30 1904 C 185.753 -0.819385 -4.42274 0
M  V30 1905 C 187.072 1.25768 -4.21747 0
M  V30 1906 H 184.191 0.0697708 -0.73369 0
M  V30 1907 H 186.833 -0.516286 -1.82851 0
M  V30 1908 H 184.983 1.07293 -3.7339 0
M  V30 1909 H 186.655 -1.4563 -4.37709 0
M  V30 1910 H 184.898 -1.43517 -4.09372 0
M  V30 1911 H 185.569 -0.585065 -5.48891 0
M  V30 1912 H 188.045 0.744167 -4.09391 0
M  V30 1913 H 186.921 1.41541 -5.30337 0
M  V30 1914 H 187.182 2.27228 -3.79236 0
M  V30 1915 N 186.241 1.57166 -0.116904 0
M  V30 1916 C 187.488 1.95123 0.541603 0
M  V30 1917 C 187.816 1.00006 1.6682 0
M  V30 1918 O 187.071 0.0235658 1.95686 0
M  V30 1919 C 187.37 3.39508 1.11664 0
M  V30 1920 C 187.036 4.50762 0.111606 0
M  V30 1921 C 185.698 4.80918 -0.164758 0
M  V30 1922 C 188.05 5.18036 -0.573438 0
M  V30 1923 C 185.378 5.75666 -1.13249 0
M  V30 1924 C 187.73 6.13824 -1.52978 0
M  V30 1925 C 186.394 6.42374 -1.81415 0
M  V30 1926 H 185.664 0.714005 0.198187 0
M  V30 1927 H 188.311 1.9048 -0.197365 0
M  V30 1928 H 186.616 3.40835 1.93232 0
M  V30 1929 H 188.313 3.66189 1.63422 0
M  V30 1930 H 184.903 4.27272 0.337192 0
M  V30 1931 H 189.087 4.94896 -0.373092 0
M  V30 1932 H 184.343 5.96092 -1.35958 0
M  V30 1933 H 188.517 6.65039 -2.06629 0
M  V30 1934 H 186.144 7.15599 -2.56557 0
M  V30 1935 N 187.719 -0.156864 1.56817 0
M  V30 1936 C 189.13 -0.717916 1.72345 0
M  V30 1937 C 189.481 -1.82124 0.729747 0
M  V30 1938 O 188.606 -2.16141 -0.105781 0
M  V30 1939 C 189.201 -1.30904 3.12489 0
M  V30 1940 C 187.76 -1.81676 3.29653 0
M  V30 1941 C 186.907 -0.701349 2.68284 0
M  V30 1942 H 189.858 0.0686989 1.58551 0
M  V30 1943 H 189.879 -2.17882 3.11942 0
M  V30 1944 H 189.391 -0.505796 3.8479 0
M  V30 1945 H 187.492 -2.64598 2.62333 0
M  V30 1946 H 187.605 -1.95226 4.3752 0
M  V30 1947 H 185.969 -1.12548 2.28484 0
M  V30 1948 H 186.752 0.0902846 3.43181 0
M  V30 1949 N 189.197 -1.51736 -0.425897 0
M  V30 1950 C 190.127 -1.76827 -1.52494 0
M  V30 1951 C 191.108 -0.618524 -1.58456 0
M  V30 1952 O 192.293 -0.862416 -1.74 0
M  V30 1953 C 189.423 -1.90374 -2.90474 0
M  V30 1954 C 188.377 -3.0588 -2.99369 0
M  V30 1955 C 187.703 -3.04625 -4.3944 0
M  V30 1956 C 189.003 -4.45644 -2.72394 0
M  V30 1957 H 190.697 -2.68855 -1.31748 0
M  V30 1958 H 188.243 -1.29372 -0.632362 0
M  V30 1959 H 190.196 -2.0651 -3.6733 0
M  V30 1960 H 188.92 -0.95004 -3.12477 0
M  V30 1961 H 187.579 -2.89467 -2.24954 0
M  V30 1962 H 187.227 -2.0701 -4.58428 0
M  V30 1963 H 186.927 -3.82195 -4.46319 0
M  V30 1964 H 188.451 -3.22869 -5.18255 0
M  V30 1965 H 189.865 -4.62348 -3.38979 0
M  V30 1966 H 188.262 -5.25006 -2.9067 0
M  V30 1967 H 189.332 -4.54893 -1.67929 0
M  V30 1968 N 190.675 0.682077 -1.42076 0
M  V30 1969 C 191.638 1.77756 -1.44691 0
M  V30 1970 C 192.638 1.5726 -0.335535 0
M  V30 1971 O 193.828 1.63686 -0.596037 0
M  V30 1972 C 190.96 3.16301 -1.27146 0
M  V30 1973 H 192.153 1.76826 -2.42224 0
M  V30 1974 H 189.706 0.891012 -1.28416 0
M  V30 1975 H 190.441 3.22862 -0.305075 0
M  V30 1976 H 190.226 3.32581 -2.07683 0
M  V30 1977 H 191.716 3.96241 -1.31843 0
M  V30 1978 N 192.153 1.28127 0.917671 0
M  V30 1979 C 193.564 1.13622 1.48145 0
M  V30 1980 C 193.915 -0.275207 1.9426 0
M  V30 1981 O 193.04 -1.1691 1.82102 0
M  V30 1982 C 193.635 2.05648 2.69248 0
M  V30 1983 C 192.194 1.95219 3.21818 0
M  V30 1984 C 191.341 1.97618 1.94532 0
M  V30 1985 H 194.292 1.40874 0.730772 0
M  V30 1986 H 194.313 1.61818 3.44377 0
M  V30 1987 H 193.825 3.08365 2.35653 0
M  V30 1988 H 191.926 0.955244 3.60147 0
M  V30 1989 H 192.039 2.81976 3.87333 0
M  V30 1990 H 190.403 1.41973 2.11461 0
M  V30 1991 H 191.186 3.02007 1.63238 0
M  V30 1992 N 193.631 -1.12557 1.10312 0
M  V30 1993 C 194.856 -1.88405 0.867085 0
M  V30 1994 C 195.281 -1.79038 -0.576817 0
M  V30 1995 O 194.639 -1.14439 -1.40618 0
M  V30 1996 C 194.687 -3.3563 1.31851 0
M  V30 1997 O 193.791 -4.09565 0.482734 0
M  V30 1998 H 193.132 -0.585455 0.313271 0
M  V30 1999 H 195.662 -1.42352 1.4696 0
M  V30 2000 H 195.672 -3.86469 1.3079 0
M  V30 2001 H 194.347 -3.41765 2.37001 0
M  V30 2002 H 192.924 -3.68695 0.558448 0
M  V30 2003 N 195.109 -0.891671 -1.2995 0
M  V30 2004 C 196.334 -0.527932 -2.00568 0
M  V30 2005 C 196.759 0.877969 -1.66353 0
M  V30 2006 O 196.117 1.58301 -0.883762 0
M  V30 2007 C 196.165 -0.717745 -3.53385 0
M  V30 2008 O 195.269 0.233376 -4.11739 0
M  V30 2009 H 194.61 -0.20722 -0.630837 0
M  V30 2010 H 197.14 -1.20105 -1.65638 0
M  V30 2011 H 197.15 -0.619307 -4.03272 0
M  V30 2012 H 195.825 -1.74276 -3.77625 0
M  V30 2013 H 194.402 0.0880706 -3.72796 0
M  V30 2014 N 196.587 1.43421 -0.653314 0
M  V30 2015 C 197.534 2.30768 0.0382271 0
M  V30 2016 C 198.504 1.44755 0.814576 0
M  V30 2017 O 199.689 1.73624 0.791162 0
M  V30 2018 C 196.829 3.30336 0.998599 0
M  V30 2019 C 195.942 4.31448 0.218342 0
M  V30 2020 C 195.077 5.18098 1.17252 0
M  V30 2021 C 194.116 6.10902 0.382702 0
M  V30 2022 N 193.253 6.90176 1.28848 0
M  V30 2023 H 198.093 2.89357 -0.712511 0
M  V30 2024 H 195.63 1.42548 -0.363128 0
M  V30 2025 H 197.588 3.86572 1.56901 0
M  V30 2026 H 196.218 2.73397 1.71621 0
M  V30 2027 H 195.27 3.77506 -0.46836 0
M  V30 2028 H 196.582 4.97227 -0.395812 0
M  V30 2029 H 195.736 5.7896 1.81356 0
M  V30 2030 H 194.475 4.52444 1.82058 0
M  V30 2031 H 193.48 5.49128 -0.27169 0
M  V30 2032 H 194.705 6.78598 -0.260957 0
M  V30 2033 H 192.651 6.27171 1.92334 0
M  V30 2034 H 192.568 7.52478 0.728887 0
M  V30 2035 H 193.836 7.55543 1.91766 0
M  V30 2036 N 198.065 0.39524 1.52563 0
M  V30 2037 C 199.29 -0.187456 2.06551 0
M  V30 2038 C 199.715 -1.39249 1.26457 0
M  V30 2039 O 199.073 -1.78947 0.291151 0
M  V30 2040 C 199.121 -0.529985 3.56684 0
M  V30 2041 O 198.225 -1.62307 3.79118 0
M  V30 2042 H 197.566 -0.0202537 0.663691 0
M  V30 2043 H 200.096 0.564426 1.96661 0
M  V30 2044 H 200.106 -0.792598 4.00227 0
M  V30 2045 H 198.781 0.350987 4.14416 0
M  V30 2046 H 197.358 -1.3537 3.47461 0
M  V30 2047 N 199.544 -1.57102 0.125237 0
M  V30 2048 C 200.772 -1.99761 -0.538797 0
M  V30 2049 C 201.187 -1.00503 -1.59827 0
M  V30 2050 O 200.544 0.00119474 -1.825 0
M  V30 2051 C 200.595 -3.42408 -1.15927 0
M  V30 2052 O 200.316 -4.37869 -0.142143 0
M  V30 2053 C 201.817 -4.00232 -1.90602 0
M  V30 2054 H 199.037 -0.655772 -0.14214 0
M  V30 2055 H 201.581 -2.03383 0.213413 0
M  V30 2056 H 199.736 -3.39706 -1.86223 0
M  V30 2057 H 200.15 -5.21128 -0.593775 0
M  V30 2058 H 201.624 -5.02105 -2.29335 0
M  V30 2059 H 202.101 -3.39721 -2.78363 0
M  V30 2060 H 202.707 -4.06499 -1.25055 0
M  V30 2061 N 201.022 0.148545 -1.56898 0
M  V30 2062 C 202.247 0.880385 -1.87787 0
M  V30 2063 C 202.672 1.74018 -0.714093 0
M  V30 2064 O 202.03 1.78153 0.336343 0
M  V30 2065 C 202.078 1.71422 -3.17249 0
M  V30 2066 O 201.182 2.8183 -3.01074 0
M  V30 2067 H 200.523 0.245301 -0.617028 0
M  V30 2068 H 203.053 0.139826 -2.04122 0
M  V30 2069 H 203.063 2.10954 -3.49231 0
M  V30 2070 H 201.738 1.08284 -4.01556 0
M  V30 2071 H 200.315 2.45715 -2.80497 0
M  V30 2072 N 202.5 1.5196 0.417844 0
M  V30 2073 C 203.748 1.65263 1.16329 0
M  V30 2074 C 204.069 0.380634 1.91249 0
M  V30 2075 O 203.339 -0.604214 1.86349 0
M  V30 2076 H 201.919 0.60912 0.432414 0
M  V30 2077 H 204.581 1.88969 0.477162 0
M  V30 2078 H 203.677 2.4896 1.88217 0
M  V30 2079 N 203.978 -0.674533 1.42435 0
M  V30 2080 C 205.226 -1.43175 1.42637 0
M  V30 2081 C 205.547 -1.94951 0.0438992 0
M  V30 2082 O 204.817 -1.7308 -0.917607 0
M  V30 2083 H 203.397 -0.531307 0.525092 0
M  V30 2084 H 206.059 -0.797006 1.77859 0
M  V30 2085 H 205.155 -2.28463 2.12629 0
M  V30 2086 N 205.456 -1.28612 -0.910864 0
M  V30 2087 C 206.684 -1.18792 -1.69399 0
M  V30 2088 C 207.099 0.253039 -1.87097 0
M  V30 2089 O 206.456 1.17071 -1.40003 0
M  V30 2090 C 206.507 -1.88511 -3.08457 0
M  V30 2091 O 206.228 -3.26979 -2.91576 0
M  V30 2092 C 207.729 -1.85029 -4.02839 0
M  V30 2093 H 204.949 -0.412233 -0.529438 0
M  V30 2094 H 207.493 -1.69788 -1.13984 0
M  V30 2095 H 205.648 -1.41379 -3.60681 0
M  V30 2096 H 206.062 -3.61936 -3.79608 0
M  V30 2097 H 207.536 -2.38395 -4.97867 0
M  V30 2098 H 208.013 -0.823303 -4.31414 0
M  V30 2099 H 208.619 -2.31853 -3.56545 0
M  V30 2100 N 206.934 1.1197 -1.10907 0
M  V30 2101 C 207.897 2.16031 -0.765707 0
M  V30 2102 C 208.897 1.59393 0.212235 0
M  V30 2103 O 210.087 1.74196 -0.0115441 0
M  V30 2104 C 207.219 3.40632 -0.135053 0
M  V30 2105 H 208.412 2.47919 -1.68748 0
M  V30 2106 H 205.965 1.27061 -0.910226 0
M  V30 2107 H 206.7 3.14348 0.797218 0
M  V30 2108 H 206.485 3.8302 -0.838937 0
M  V30 2109 H 207.975 4.17505 0.0892469 0
M  V30 2110 N 208.412 0.89855 1.29475 0
M  V30 2111 C 209.375 0.380272 2.26023 0
M  V30 2112 C 210.375 -0.484891 1.53315 0
M  V30 2113 O 211.565 -0.290108 1.71767 0
M  V30 2114 C 208.697 -0.45651 3.3783 0
M  V30 2115 H 209.89 1.23295 2.73383 0
M  V30 2116 H 207.443 0.676589 1.40897 0
M  V30 2117 H 208.178 -1.32922 2.95808 0
M  V30 2118 H 207.963 0.163393 3.91759 0
M  V30 2119 H 209.453 -0.810466 4.0966 0
M  V30 2120 N 209.89 -1.43072 0.660911 0
M  V30 2121 C 210.82 -2.33497 -0.0122829 0
M  V30 2122 C 211.801 -1.49903 -0.803925 0
M  V30 2123 O 212.986 -1.78546 -0.763864 0
M  V30 2124 C 210.116 -3.33363 -0.973994 0
M  V30 2125 C 209.07 -4.27003 -0.291928 0
M  V30 2126 C 208.396 -5.16967 -1.36562 0
M  V30 2127 C 209.696 -5.15816 0.820462 0
M  V30 2128 H 211.39 -2.90038 0.742873 0
M  V30 2129 H 208.936 -1.39461 0.358688 0
M  V30 2130 H 210.889 -3.95524 -1.45392 0
M  V30 2131 H 209.613 -2.75095 -1.7604 0
M  V30 2132 H 208.272 -3.66217 0.167623 0
M  V30 2133 H 207.92 -4.55034 -2.14366 0
M  V30 2134 H 207.62 -5.80441 -0.914454 0
M  V30 2135 H 209.144 -5.82003 -1.84675 0
M  V30 2136 H 210.558 -5.71742 0.422366 0
M  V30 2137 H 208.955 -5.8805 1.19656 0
M  V30 2138 H 210.025 -4.55045 1.67518 0
M  V30 2139 N 211.368 -0.403325 -1.52352 0
M  V30 2140 C 212.616 0.174003 -2.0135 0
M  V30 2141 C 212.937 1.46139 -1.29106 0
M  V30 2142 O 212.207 1.91448 -0.415253 0
M  V30 2143 H 210.787 0.0672911 -0.743963 0
M  V30 2144 H 213.449 -0.538235 -1.87321 0
M  V30 2145 H 212.545 0.374254 -3.09848 0
M  V30 2146 N 212.846 1.57033 -0.133567 0
M  V30 2147 C 214.086 1.97575 0.523789 0
M  V30 2148 C 214.45 1.01605 1.62912 0
M  V30 2149 O 215.651 1.3114 2.3464 0
M  V30 2150 C 213.922 3.42256 1.02935 0
M  V30 2151 S 215.481 4.04817 1.69319 0
M  V30 2152 H 212.299 0.690427 0.169799 0
M  V30 2153 H 214.901 1.94234 -0.222101 0
M  V30 2154 H 213.605 4.09842 0.213917 0
M  V30 2155 H 213.136 3.4928 1.81017 0
M  V30 2156 H 215.151 3.96767 2.97977 0
M  V30 2157 N 214.325 -0.140222 1.56975 0
M  V30 2158 C 215.255 -1.17456 2.01808 0
M  V30 2159 C 216.236 -1.44415 0.898794 0
M  V30 2160 O 217.421 -1.5522 1.16707 0
M  V30 2161 C 214.551 -2.50607 2.40444 0
M  V30 2162 C 213.505 -2.38155 3.55621 0
M  V30 2163 C 212.831 -3.76078 3.80091 0
M  V30 2164 C 214.131 -1.85991 4.88062 0
M  V30 2165 H 215.825 -0.801743 2.88466 0
M  V30 2166 H 213.371 -0.38422 1.38779 0
M  V30 2167 H 215.324 -3.23197 2.7041 0
M  V30 2168 H 214.048 -2.89737 1.50732 0
M  V30 2169 H 212.707 -1.68016 3.25832 0
M  V30 2170 H 212.355 -4.12656 2.87618 0
M  V30 2171 H 212.055 -3.68606 4.57606 0
M  V30 2172 H 213.579 -4.50206 4.12488 0
M  V30 2173 H 214.993 -2.4838 5.16701 0
M  V30 2174 H 213.39 -1.89393 5.6943 0
M  V30 2175 H 214.46 -0.816023 4.77984 0
M  V30 2176 N 215.803 -1.52179 -0.40978 0
M  V30 2177 C 217.049 -1.66453 -1.15851 0
M  V30 2178 C 217.382 -0.392972 -1.90182 0
M  V30 2179 O 216.657 0.608579 -1.84734 0
M  V30 2180 C 216.94 -2.88612 -2.15349 0
M  V30 2181 C 216.793 -4.25815 -1.44918 0
M  V30 2182 C 218.112 -3.06294 -3.16026 0
M  V30 2183 H 215.231 -0.60575 -0.419805 0
M  V30 2184 H 217.873 -1.84732 -0.444314 0
M  V30 2185 H 216.023 -2.73158 -2.76255 0
M  V30 2186 H 217.695 -4.52995 -0.871365 0
M  V30 2187 H 215.938 -4.27247 -0.751159 0
M  V30 2188 H 216.609 -5.07337 -2.17516 0
M  V30 2189 H 219.085 -3.20641 -2.65195 0
M  V30 2190 H 217.961 -3.93283 -3.8291 0
M  V30 2191 H 218.222 -2.19579 -3.83715 0
M  V30 2192 N 217.281 0.66697 -1.42791 0
M  V30 2193 C 218.228 1.7803 -1.4688 0
M  V30 2194 C 219.198 1.6299 -0.319919 0
M  V30 2195 O 220.383 1.83432 -0.525118 0
M  V30 2196 C 217.523 3.1611 -1.38451 0
M  V30 2197 C 216.636 3.42381 -2.63437 0
M  V30 2198 C 215.771 4.70232 -2.47094 0
M  V30 2199 C 214.81 4.89564 -3.67415 0
M  V30 2200 N 213.947 6.08661 -3.49966 0
M  V30 2201 H 218.787 1.7387 -2.42019 0
M  V30 2202 H 216.324 0.84868 -1.20149 0
M  V30 2203 H 218.282 3.95914 -1.31561 0
M  V30 2204 H 216.912 3.19374 -0.469033 0
M  V30 2205 H 215.964 2.56774 -2.80662 0
M  V30 2206 H 217.276 3.52557 -3.52853 0
M  V30 2207 H 216.43 5.5814 -2.37834 0
M  V30 2208 H 215.169 4.62353 -1.5518 0
M  V30 2209 H 214.174 4.00096 -3.77099 0
M  V30 2210 H 215.399 4.99282 -4.6032 0
M  V30 2211 H 213.345 6.0194 -2.60776 0
M  V30 2212 H 213.262 6.19733 -4.32975 0
M  V30 2213 H 214.53 6.99226 -3.44532 0
M  V30 2214 N 218.759 1.29093 0.90403 0
M  V30 2215 C 220.036 1.075 1.63411 0
M  V30 2216 C 220.416 -0.382346 2.07609 0
M  V30 2217 O 219.764 -1.37031 1.82851 0
M  V30 2218 C 219.974 2.05858 2.81822 0
M  V30 2219 C 221.322 2.36539 3.52611 0
M  V30 2220 O 222.346 2.04019 2.91984 0
M  V30 2221 O 221.205 2.92085 4.61897 0
M  V30 2222 H 218.299 0.411547 0.717327 0
M  V30 2223 H 220.845 1.40449 0.952479 0
M  V30 2224 H 219.617 3.04037 2.46327 0
M  V30 2225 H 219.24 1.73613 3.57693 0
M  V30 2226 N 220.237 -1.11381 1.11499 0
M  V30 2227 C 221.467 -1.86663 0.885464 0
M  V30 2228 C 221.875 -1.80464 -0.568281 0
M  V30 2229 O 221.218 -1.18445 -1.40415 0
M  V30 2230 C 221.28 -3.36337 1.26956 0
M  V30 2231 C 220.944 -3.66304 2.73259 0
M  V30 2232 C 221.941 -3.63733 3.71476 0
M  V30 2233 C 219.626 -3.9529 3.09921 0
M  V30 2234 C 221.62 -3.89725 5.04374 0
M  V30 2235 C 219.307 -4.20941 4.43004 0
M  V30 2236 C 220.305 -4.18147 5.40039 0
M  V30 2237 O 219.993 -4.43153 6.70724 0
M  V30 2238 H 219.725 -0.597114 0.316908 0
M  V30 2239 H 222.279 -1.41782 1.48617 0
M  V30 2240 H 220.509 -3.81826 0.611999 0
M  V30 2241 H 222.198 -3.92986 1.01573 0
M  V30 2242 H 222.964 -3.41389 3.44498 0
M  V30 2243 H 218.843 -3.966 2.35009 0
M  V30 2244 H 222.387 -3.8746 5.80104 0
M  V30 2245 H 218.284 -4.42761 4.69716 0
M  V30 2246 H 219.052 -4.60717 6.76522 0
M  V30 2247 N 221.715 -0.905404 -1.28997 0
M  V30 2248 C 222.962 -0.534248 -1.95325 0
M  V30 2249 C 223.29 0.920535 -1.71337 0
M  V30 2250 O 222.545 1.66861 -1.02254 0
M  V30 2251 C 222.844 -0.779906 -3.48787 0
M  V30 2252 C 222.51 -2.21293 -3.92861 0
M  V30 2253 C 221.172 -2.60475 -4.04606 0
M  V30 2254 C 223.524 -3.14587 -4.15553 0
M  V30 2255 C 220.852 -3.9212 -4.36416 0
M  V30 2256 C 223.204 -4.45787 -4.48839 0
M  V30 2257 C 221.868 -4.84834 -4.58794 0
M  V30 2258 H 221.138 -0.195495 -0.714747 0
M  V30 2259 H 223.785 -1.14514 -1.53488 0
M  V30 2260 H 222.09 -0.0861365 -3.91705 0
M  V30 2261 H 223.787 -0.472029 -3.98212 0
M  V30 2262 H 220.377 -1.89887 -3.84241 0
M  V30 2263 H 224.561 -2.85528 -4.0594 0
M  V30 2264 H 219.817 -4.22086 -4.42327 0
M  V30 2265 H 223.991 -5.18098 -4.65346 0
M  V30 2266 H 221.618 -5.86877 -4.83197 0
M  V30 2267 N 223.193 1.4272 -0.668489 0
M  V30 2268 C 224.604 1.84793 -0.266151 0
M  V30 2269 C 224.955 1.55959 1.19043 0
M  V30 2270 O 224.08 1.01622 1.91055 0
M  V30 2271 C 224.675 3.35436 -0.476271 0
M  V30 2272 C 223.234 3.76182 -0.128113 0
M  V30 2273 C 222.381 2.66344 -0.771777 0
M  V30 2274 H 225.332 1.32656 -0.871098 0
M  V30 2275 H 225.353 3.79515 0.273561 0
M  V30 2276 H 224.865 3.5639 -1.53647 0
M  V30 2277 H 222.966 3.60836 0.928891 0
M  V30 2278 H 223.079 4.75766 -0.564231 0
M  V30 2279 H 221.443 2.53885 -0.203652 0
M  V30 2280 H 222.226 2.90123 -1.83531 0
M  V30 2281 N 224.671 0.411399 1.52136 0
M  V30 2282 C 225.581 -0.419774 2.30814 0
M  V30 2283 C 226.597 -1.0515 1.38634 0
M  V30 2284 O 227.773 -1.05252 1.71709 0
M  V30 2285 C 224.838 -1.52019 3.11594 0
M  V30 2286 C 223.899 -0.91129 4.19516 0
M  V30 2287 C 223.132 -1.95927 4.96436 0
M  V30 2288 O 223.355 -3.17775 4.73683 0
M  V30 2289 O 222.289 -1.56423 5.81219 0
M  V30 2290 H 226.115 0.221805 3.02889 0
M  V30 2291 H 223.7 0.174547 1.48377 0
M  V30 2292 H 225.582 -2.15898 3.61892 0
M  V30 2293 H 224.257 -2.14633 2.42311 0
M  V30 2294 H 223.164 -0.235157 3.7336 0
M  V30 2295 H 224.497 -0.32904 4.91099 0
M  V30 2296 N 226.149 -1.5696 0.141893 0
M  V30 2297 C 227.56 -1.82797 -0.379776 0
M  V30 2298 C 227.911 -1.06033 -1.6508 0
M  V30 2299 O 227.036 -0.304011 -2.14254 0
M  V30 2300 C 227.631 -3.31578 -0.695802 0
M  V30 2301 C 226.19 -3.58014 -1.16201 0
M  V30 2302 C 225.337 -2.76699 -0.182455 0
M  V30 2303 H 228.288 -1.54406 0.366675 0
M  V30 2304 H 228.309 -3.47454 -1.55099 0
M  V30 2305 H 227.821 -3.87421 0.229449 0
M  V30 2306 H 225.922 -3.07553 -2.10338 0
M  V30 2307 H 226.035 -4.66501 -1.09151 0
M  V30 2308 H 224.399 -2.45618 -0.674072 0
M  V30 2309 H 225.182 -3.35311 0.736297 0
M  V30 2310 N 227.627 0.131896 -1.57047 0
M  V30 2311 C 228.873 0.843179 -1.84441 0
M  V30 2312 C 229.206 1.80129 -0.725749 0
M  V30 2313 O 228.481 1.92624 0.269469 0
M  V30 2314 C 228.764 1.60442 -3.22382 0
M  V30 2315 C 228.617 0.666782 -4.4483 0
M  V30 2316 C 229.936 2.56354 -3.5773 0
M  V30 2317 H 227.055 0.305081 -0.670891 0
M  V30 2318 H 229.697 0.107839 -1.89694 0
M  V30 2319 H 227.847 2.23128 -3.18035 0
M  V30 2320 H 229.519 0.0497646 -4.61273 0
M  V30 2321 H 227.762 -0.022609 -4.33794 0
M  V30 2322 H 228.433 1.23579 -5.37989 0
M  V30 2323 H 230.909 2.0378 -3.62785 0
M  V30 2324 H 229.785 3.06657 -4.5525 0
M  V30 2325 H 230.046 3.38419 -2.84473 0
M  V30 2326 N 229.106 1.52395 0.401703 0
M  V30 2327 C 230.334 1.70676 1.16949 0
M  V30 2328 C 230.749 0.419503 1.8408 0
M  V30 2329 O 230.106 -0.605061 1.72178 0
M  V30 2330 C 230.157 2.84753 2.22706 0
M  V30 2331 O 229.878 4.08495 1.58314 0
M  V30 2332 C 231.379 3.14608 3.12309 0
M  V30 2333 H 228.599 0.571787 0.351142 0
M  V30 2334 H 231.143 1.98987 0.471652 0
M  V30 2335 H 229.298 2.58941 2.88147 0
M  V30 2336 H 229.712 4.72117 2.28485 0
M  V30 2337 H 231.186 3.97923 3.82572 0
M  V30 2338 H 231.663 2.28464 3.75101 0
M  V30 2339 H 232.269 3.42212 2.52529 0
M  V30 2340 N 230.584 -0.659388 1.43143 0
M  V30 2341 C 231.83 -1.42145 1.44647 0
M  V30 2342 C 232.163 -1.9408 0.0681907 0
M  V30 2343 O 231.438 -1.71899 -0.910007 0
M  V30 2344 C 231.721 -2.60735 2.48373 0
M  V30 2345 C 231.574 -2.14332 3.95451 0
M  V30 2346 C 232.893 -3.62951 2.48906 0
M  V30 2347 H 230.012 -0.51552 0.526696 0
M  V30 2348 H 232.654 -0.748069 1.74654 0
M  V30 2349 H 230.804 -3.18184 2.22916 0
M  V30 2350 H 232.476 -1.61932 4.31944 0
M  V30 2351 H 230.719 -1.4576 4.08578 0
M  V30 2352 H 231.39 -2.99583 4.63631 0
M  V30 2353 H 233.866 -3.1525 2.71582 0
M  V30 2354 H 232.742 -4.43487 3.23435 0
M  V30 2355 H 233.003 -4.15126 1.52061 0
M  V30 2356 N 232.062 -1.29571 -0.897171 0
M  V30 2357 C 233.287 -1.20705 -1.68656 0
M  V30 2358 C 233.712 0.228582 -1.86706 0
M  V30 2359 O 233.07 1.16494 -1.3892 0
M  V30 2360 C 233.118 -1.9282 -3.04717 0
M  V30 2361 O 232.222 -1.24697 -3.93096 0
M  V30 2362 H 231.563 -0.418126 -0.515816 0
M  V30 2363 H 234.093 -1.71183 -1.12061 0
M  V30 2364 H 234.103 -2.01372 -3.54843 0
M  V30 2365 H 232.778 -2.97239 -2.90899 0
M  V30 2366 H 231.355 -1.2442 -3.51531 0
M  V30 2367 N 233.54 1.10788 -1.12088 0
M  V30 2368 C 234.786 1.8313 -0.885148 0
M  V30 2369 C 235.141 1.8336 0.582839 0
M  V30 2370 O 234.434 1.28062 1.42516 0
M  V30 2371 C 234.628 3.29294 -1.38926 0
M  V30 2372 C 234.457 3.43302 -2.90472 0
M  V30 2373 C 233.227 3.55928 -3.58669 0
M  V30 2374 C 235.425 3.37014 -3.88492 0
M  V30 2375 N 233.407 3.58475 -4.98366 0
M  V30 2376 C 234.778 3.46263 -5.14298 0
M  V30 2377 C 236.833 3.20589 -3.80955 0
M  V30 2378 C 235.536 3.4078 -6.33452 0
M  V30 2379 C 237.562 3.16427 -4.99628 0
M  V30 2380 C 236.924 3.26253 -6.2429 0
M  V30 2381 H 233.023 0.685054 -0.377128 0
M  V30 2382 H 235.607 1.3251 -1.4265 0
M  V30 2383 H 233.778 3.78416 -0.874999 0
M  V30 2384 H 235.51 3.89578 -1.09596 0
M  V30 2385 H 232.265 3.58779 -3.09151 0
M  V30 2386 H 232.689 3.6337 -5.71219 0
M  V30 2387 H 237.331 3.11873 -2.85474 0
M  V30 2388 H 235.049 3.48263 -7.29204 0
M  V30 2389 H 238.635 3.04874 -4.95523 0
M  V30 2390 H 237.515 3.2303 -7.14578 0
M  V30 2391 N 235.018 0.912232 1.28515 0
M  V30 2392 C 235.966 0.389597 2.29314 0
M  V30 2393 C 236.96 -0.517915 1.61289 0
M  V30 2394 O 238.166 -0.399328 1.75515 0
M  V30 2395 H 234.541 0.107386 0.744293 0
M  V30 2396 H 236.512 1.25286 2.70825 0
M  V30 2397 C 235.261 -0.356496 3.45868 0
M  V30 2398 H 234.584 0.332608 3.98414 0
M  V30 2399 H 236.024 -0.686851 4.184 0
M  V30 2400 C 234.483 -1.56383 2.98406 0
M  V30 2401 O 235.013 -2.66294 3.00749 0
M  V30 2402 N 233.219 -1.41029 2.54085 0
M  V30 2403 H 232.766 -0.516089 2.52377 0
M  V30 2404 H 232.724 -2.21939 2.22689 0
M  V30 2405 N 236.496 -1.42363 0.676048 0
M  V30 2406 C 237.721 -2.06377 0.205705 0
M  V30 2407 C 238.146 -1.50463 -1.12883 0
M  V30 2408 O 237.504 -0.623619 -1.70237 0
M  V30 2409 C 237.552 -3.60277 0.152655 0
M  V30 2410 O 236.656 -4.02935 -0.87845 0
M  V30 2411 H 235.997 -0.655588 0.105359 0
M  V30 2412 H 238.527 -1.82475 0.925412 0
M  V30 2413 H 238.537 -4.07993 -0.0230675 0
M  V30 2414 H 237.212 -4.00346 1.12675 0
M  V30 2415 H 235.789 -3.66764 -0.673668 0
M  V30 2416 N 237.974 -0.419461 -1.51915 0
M  V30 2417 C 239.222 0.152637 -2.01523 0
M  V30 2418 C 239.543 1.44762 -1.30649 0
M  V30 2419 O 238.813 1.90997 -0.435535 0
M  V30 2420 H 237.393 0.0593966 -0.744635 0
M  V30 2421 H 240.055 -0.558073 -1.86739 0
M  V30 2422 H 239.151 0.341369 -3.10227 0
M  V30 2423 N 239.452 1.56882 -0.150215 0
M  V30 2424 C 240.415 2.1573 0.774157 0
M  V30 2425 C 241.415 1.0999 1.17298 0
M  V30 2426 O 242.605 1.35613 1.09338 0
M  V30 2427 C 239.737 2.72302 2.05096 0
M  V30 2428 H 240.93 2.98752 0.262201 0
M  V30 2429 H 238.483 1.55985 0.099248 0
M  V30 2430 H 239.218 1.92956 2.6065 0
M  V30 2431 H 239.003 3.49665 1.77416 0
M  V30 2432 H 240.493 3.17632 2.71109 0
M  V30 2433 N 240.93 -0.123565 1.57115 0
M  V30 2434 C 241.86 -1.15309 2.03042 0
M  V30 2435 C 242.841 -1.43454 0.914061 0
M  V30 2436 O 244.026 -1.53973 1.18347 0
M  V30 2437 C 241.156 -2.48043 2.43089 0
M  V30 2438 C 240.11 -2.3437 3.58127 0
M  V30 2439 C 239.436 -3.72026 3.84059 0
M  V30 2440 C 240.736 -1.80804 4.90007 0
M  V30 2441 H 242.43 -0.771102 2.893 0
M  V30 2442 H 239.976 -0.369479 1.39179 0
M  V30 2443 H 241.929 -3.20311 2.73823 0
M  V30 2444 H 240.653 -2.88122 1.53796 0
M  V30 2445 H 239.312 -1.64551 3.27595 0
M  V30 2446 H 238.96 -4.09582 2.91979 0
M  V30 2447 H 238.66 -3.63732 4.6149 0
M  V30 2448 H 240.184 -4.45806 4.1724 0
M  V30 2449 H 241.598 -2.42886 5.19307 0
M  V30 2450 H 239.995 -1.83343 5.71407 0
M  V30 2451 H 241.065 -0.76528 4.78823 0
M  V30 2452 N 242.408 -1.52605 -0.393616 0
M  V30 2453 C 243.636 -1.71294 -1.16043 0
M  V30 2454 C 244.051 -0.429259 -1.83855 0
M  V30 2455 O 243.408 0.595921 -1.72496 0
M  V30 2456 C 243.459 -2.8593 -2.21193 0
M  V30 2457 O 243.18 -4.09329 -1.56146 0
M  V30 2458 C 244.681 -3.16259 -3.10636 0
M  V30 2459 H 241.901 -0.573641 -0.348104 0
M  V30 2460 H 244.445 -1.99234 -0.461092 0
M  V30 2461 H 242.6 -2.60465 -2.86769 0
M  V30 2462 H 243.014 -4.73323 -2.25978 0
M  V30 2463 H 244.488 -3.99946 -3.80456 0
M  V30 2464 H 244.965 -2.3045 -3.73884 0
M  V30 2465 H 245.571 -3.43547 -2.50711 0
M  V30 2466 N 243.887 0.651787 -1.4349 0
M  V30 2467 C 245.112 1.44434 -1.48841 0
M  V30 2468 C 245.537 1.8779 -0.107955 0
M  V30 2469 O 244.895 1.57464 0.898602 0
M  V30 2470 C 244.943 2.65458 -2.44059 0
M  V30 2471 O 244.047 3.64566 -1.92784 0
M  V30 2472 H 243.388 0.433005 -0.503391 0
M  V30 2473 H 245.918 0.797451 -1.88419 0
M  V30 2474 H 245.928 3.13255 -2.6141 0
M  V30 2475 H 244.603 2.33244 -3.4434 0
M  V30 2476 H 243.18 3.23716 -1.851 0
M  V30 2477 N 245.365 1.30045 0.890287 0
M  V30 2478 C 246.613 1.18327 1.63839 0
M  V30 2479 C 246.934 -0.263455 1.93212 0
M  V30 2480 O 246.204 -1.17856 1.56482 0
M  V30 2481 H 244.784 0.434933 0.607324 0
M  V30 2482 H 247.446 1.631 1.06698 0
M  V30 2483 H 246.542 1.74024 2.59079 0
M  V30 2484 N 246.843 -1.10192 1.12674 0
M  V30 2485 C 248.089 -1.82475 0.884915 0
M  V30 2486 C 248.422 -1.85093 -0.58773 0
M  V30 2487 O 247.697 -1.3134 -1.43457 0
M  V30 2488 C 247.98 -3.29018 1.46353 0
M  V30 2489 C 247.833 -3.34718 3.00473 0
M  V30 2490 C 249.152 -4.25473 1.12519 0
M  V30 2491 H 246.271 -0.662492 0.322915 0
M  V30 2492 H 248.913 -1.2913 1.39375 0
M  V30 2493 H 247.063 -3.74576 1.03077 0
M  V30 2494 H 248.735 -2.97622 3.52447 0
M  V30 2495 H 246.978 -2.74541 3.35872 0
M  V30 2496 H 247.649 -4.37918 3.36053 0
M  V30 2497 H 250.125 -3.88161 1.499 0
M  V30 2498 H 249.001 -5.26365 1.55663 0
M  V30 2499 H 249.262 -4.42084 0.0377407 0
M  V30 2500 N 248.321 -0.919034 -1.28029 0
M  V30 2501 C 249.271 -0.382574 -2.24767 0
M  V30 2502 C 250.255 0.508286 -1.52661 0
M  V30 2503 O 251.447 0.347145 -1.73562 0
M  V30 2504 C 248.576 0.371432 -3.41285 0
M  V30 2505 C 247.662 -0.535449 -4.20706 0
M  V30 2506 N 248.053 -1.65141 -4.78082 0
M  V30 2507 C 246.351 -0.336824 -4.44726 0
M  V30 2508 C 247.052 -2.21475 -5.37888 0
M  V30 2509 N 246.028 -1.50537 -5.22341 0
M  V30 2510 H 249.83 -1.23477 -2.66703 0
M  V30 2511 H 247.344 -0.772299 -1.42861 0
M  V30 2512 H 249.341 0.772638 -4.09678 0
M  V30 2513 H 248.001 1.22066 -3.00882 0
M  V30 2514 H 249.012 -2.03392 -4.7629 0
M  V30 2515 H 245.689 0.47246 -4.14818 0
M  V30 2516 H 247.079 -3.15379 -5.93284 0
M  V30 2517 N 249.799 1.42003 -0.683588 0
M  V30 2518 C 251.027 2.05746 -0.218182 0
M  V30 2519 C 251.442 1.51396 1.12804 0
M  V30 2520 O 250.799 0.657303 1.70252 0
M  V30 2521 C 250.85 3.61171 -0.154131 0
M  V30 2522 O 250.571 4.13508 -1.44716 0
M  V30 2523 C 252.072 4.42042 0.333713 0
M  V30 2524 H 249.292 0.662888 -0.10402 0
M  V30 2525 H 251.836 1.81987 -0.9328 0
M  V30 2526 H 249.991 3.84012 0.511231 0
M  V30 2527 H 250.405 5.07453 -1.32632 0
M  V30 2528 H 251.879 5.51028 0.327423 0
M  V30 2529 H 252.356 4.17269 1.37053 0
M  V30 2530 H 252.962 4.24239 -0.300222 0
M  V30 2531 N 251.277 0.427512 1.51691 0
M  V30 2532 C 252.524 -0.142229 2.02 0
M  V30 2533 C 252.852 -1.43566 1.31221 0
M  V30 2534 O 252.107 -1.91298 0.412744 0
M  V30 2535 C 252.406 -0.418249 3.54944 0
M  V30 2536 C 252.072 0.788187 4.43958 0
M  V30 2537 C 250.734 1.11906 4.68007 0
M  V30 2538 C 253.086 1.59347 4.96244 0
M  V30 2539 C 250.414 2.25608 5.41588 0
M  V30 2540 C 252.766 2.7214 5.71072 0
M  V30 2541 C 251.43 3.05692 5.93387 0
M  V30 2542 H 250.7 -0.0520451 0.73917 0
M  V30 2543 H 253.347 0.572697 1.82736 0
M  V30 2544 H 251.652 -1.21496 3.72486 0
M  V30 2545 H 253.349 -0.872339 3.91397 0
M  V30 2546 H 249.939 0.520344 4.2543 0
M  V30 2547 H 254.123 1.35106 4.77556 0
M  V30 2548 H 249.379 2.51929 5.57083 0
M  V30 2549 H 253.553 3.34914 6.10578 0
M  V30 2550 H 251.18 3.9391 6.50184 0
M  V30 2551 N 252.755 -1.56801 0.158532 0
M  V30 2552 C 254.166 -1.83189 -0.360366 0
M  V30 2553 C 254.517 -1.07778 -1.63946 0
M  V30 2554 O 253.642 -0.326718 -2.13919 0
M  V30 2555 C 254.237 -3.32297 -0.660595 0
M  V30 2556 C 252.796 -3.59227 -1.12398 0
M  V30 2557 C 251.943 -2.76877 -0.153097 0
M  V30 2558 H 254.894 -1.54008 0.383031 0
M  V30 2559 H 254.915 -3.4908 -1.51405 0
M  V30 2560 H 254.427 -3.87156 0.270527 0
M  V30 2561 H 252.528 -3.09766 -2.07064 0
M  V30 2562 H 252.641 -4.67632 -1.04197 0
M  V30 2563 H 251.005 -2.46319 -0.647983 0
M  V30 2564 H 251.788 -3.34511 0.77182 0
M  V30 2565 N 254.233 0.115231 -1.57178 0
M  V30 2566 C 255.196 1.12526 -1.99676 0
M  V30 2567 C 256.196 1.34095 -0.88742 0
M  V30 2568 O 257.386 1.30548 -1.15337 0
M  V30 2569 C 254.518 2.4789 -2.34015 0
M  V30 2570 H 255.711 0.759912 -2.90113 0
M  V30 2571 H 253.264 0.359648 -1.52106 0
M  V30 2572 H 253.999 2.89339 -1.4647 0
M  V30 2573 H 253.784 2.33588 -3.14927 0
M  V30 2574 H 255.274 3.20575 -2.67622 0
M  V30 2575 N 255.711 1.52812 0.385517 0
M  V30 2576 C 256.957 1.68275 1.13188 0
M  V30 2577 C 257.29 0.423179 1.89533 0
M  V30 2578 O 256.565 -0.579113 1.85679 0
M  V30 2579 C 256.848 2.92001 2.1073 0
M  V30 2580 C 256.701 4.28067 1.38125 0
M  V30 2581 C 258.02 3.11283 3.11113 0
M  V30 2582 H 255.139 0.612352 0.410115 0
M  V30 2583 H 257.781 1.85415 0.414869 0
M  V30 2584 H 255.931 2.77519 2.71874 0
M  V30 2585 H 257.603 4.54324 0.799187 0
M  V30 2586 H 255.846 4.28388 0.683092 0
M  V30 2587 H 256.517 5.10733 2.09417 0
M  V30 2588 H 258.993 3.2482 2.6006 0
M  V30 2589 H 257.869 3.99325 3.76605 0
M  V30 2590 H 258.13 2.25656 3.80173 0
M  V30 2591 N 257.189 -0.644168 1.43834 0
M  V30 2592 C 258.119 -1.76814 1.52509 0
M  V30 2593 C 259.1 -1.65823 0.379052 0
M  V30 2594 O 260.285 -1.84781 0.597466 0
M  V30 2595 C 257.415 -3.15288 1.4564 0
M  V30 2596 C 256.369 -3.41053 2.58586 0
M  V30 2597 C 255.695 -4.79421 2.36769 0
M  V30 2598 C 256.995 -3.34902 4.00797 0
M  V30 2599 H 258.689 -1.69812 2.46586 0
M  V30 2600 H 256.235 -0.815542 1.1868 0
M  V30 2601 H 258.188 -3.93681 1.50311 0
M  V30 2602 H 256.912 -3.23043 0.480725 0
M  V30 2603 H 255.571 -2.65035 2.53282 0
M  V30 2604 H 255.219 -4.83863 1.37424 0
M  V30 2605 H 254.919 -4.9762 3.12487 0
M  V30 2606 H 256.443 -5.6006 2.43238 0
M  V30 2607 H 257.857 -4.03218 4.07539 0
M  V30 2608 H 256.254 -3.64637 4.76613 0
M  V30 2609 H 257.324 -2.32928 4.25291 0
M  V30 2610 N 258.668 -1.30515 -0.883378 0
M  V30 2611 C 259.6 -1.12846 -1.99496 0
M  V30 2612 C 260.613 -0.0712571 -1.62644 0
M  V30 2613 O 261.802 -0.317432 -1.75655 0
M  V30 2614 C 258.902 -0.699123 -3.3161 0
M  V30 2615 C 258.075 -1.83842 -3.96889 0
M  V30 2616 C 257.134 -1.39737 -5.07307 0
M  V30 2617 O 256.16 -2.10485 -5.28852 0
M  V30 2618 N 257.362 -0.277279 -5.79837 0
M  V30 2619 H 260.127 -2.08585 -2.15203 0
M  V30 2620 H 257.688 -1.22672 -1.05656 0
M  V30 2621 H 259.68 -0.387044 -4.02845 0
M  V30 2622 H 258.25 0.166276 -3.12157 0
M  V30 2623 H 257.47 -2.31853 -3.18807 0
M  V30 2624 H 258.758 -2.60187 -4.37241 0
M  V30 2625 H 258.156 0.3122 -5.64838 0
M  V30 2626 H 256.713 -0.0246623 -6.51795 0
M  V30 2627 N 260.146 1.09593 -1.13257 0
M  V30 2628 C 261.371 1.8604 -0.916732 0
M  V30 2629 C 261.796 1.80504 0.529146 0
M  V30 2630 O 261.154 1.18127 1.37534 0
M  V30 2631 C 261.202 3.32017 -1.40703 0
M  V30 2632 O 260.306 4.08141 -0.591153 0
M  V30 2633 H 259.647 0.576943 -0.328683 0
M  V30 2634 H 262.177 1.38405 -1.50682 0
M  V30 2635 H 262.187 3.82865 -1.4099 0
M  V30 2636 H 260.862 3.35361 -2.45979 0
M  V30 2637 H 259.439 3.67084 -0.656005 0
M  V30 2638 N 261.624 0.925811 1.2754 0
M  V30 2639 C 262.849 0.580924 1.99098 0
M  V30 2640 C 263.274 -0.833555 1.68622 0
M  V30 2641 O 262.632 -1.55903 0.925422 0
M  V30 2642 C 262.68 0.811186 3.51358 0
M  V30 2643 O 261.784 -0.124129 4.12213 0
M  V30 2644 H 261.125 0.223873 0.625122 0
M  V30 2645 H 263.655 1.24455 1.62395 0
M  V30 2646 H 263.665 0.72601 4.01489 0
M  V30 2647 H 262.34 1.84227 3.72872 0
M  V30 2648 H 260.917 0.0108006 3.72898 0
M  V30 2649 N 263.102 -1.41638 0.69111 0
M  V30 2650 C 264.35 -2.00902 0.219758 0
M  V30 2651 C 264.671 -1.54994 -1.18329 0
M  V30 2652 O 263.941 -0.778628 -1.79762 0
M  V30 2653 H 262.521 -0.74289 0.0782558 0
M  V30 2654 H 265.183 -1.73327 0.891271 0
M  V30 2655 H 264.279 -3.11224 0.233708 0
M  V30 2656 N 264.58 -0.43555 -1.51462 0
M  V30 2657 C 265.51 0.367376 -2.30592 0
M  V30 2658 C 266.491 1.02263 -1.35928 0
M  V30 2659 O 267.676 1.02661 -1.64847 0
M  V30 2660 C 264.806 1.46983 -3.14664 0
M  V30 2661 C 263.76 0.938161 -4.17591 0
M  V30 2662 C 263.086 2.13622 -4.90173 0
M  V30 2663 C 264.386 -0.0261621 -5.22293 0
M  V30 2664 H 266.08 -0.292969 -2.97963 0
M  V30 2665 H 263.626 -0.14234 -1.43295 0
M  V30 2666 H 265.579 2.03873 -3.688 0
M  V30 2667 H 264.303 2.15843 -2.4511 0
M  V30 2668 H 262.962 0.391481 -3.64504 0
M  V30 2669 H 262.61 2.81098 -4.17124 0
M  V30 2670 H 262.31 1.78688 -5.59772 0
M  V30 2671 H 263.834 2.7107 -5.47132 0
M  V30 2672 H 265.248 0.452384 -5.71512 0
M  V30 2673 H 263.645 -0.287992 -5.99409 0
M  V30 2674 H 264.715 -0.963391 -4.75233 0
M  V30 2675 N 266.058 1.56714 -0.166846 0
M  V30 2676 C 267.288 2.00828 0.48494 0
M  V30 2677 C 267.696 1.04612 1.57648 0
M  V30 2678 O 267.039 0.0383201 1.8366 0
M  V30 2679 C 267.101 3.4137 1.12723 0
M  V30 2680 C 266.765 4.56654 0.177886 0
M  V30 2681 C 267.762 5.16402 -0.60207 0
M  V30 2682 C 265.447 5.02244 0.0750139 0
M  V30 2683 C 267.441 6.20167 -1.47215 0
M  V30 2684 C 265.128 6.05859 -0.798649 0
M  V30 2685 C 266.126 6.64691 -1.57082 0
M  V30 2686 O 265.814 7.66297 -2.42989 0
M  V30 2687 H 265.546 0.663587 0.128953 0
M  V30 2688 H 268.1 2.03692 -0.264365 0
M  V30 2689 H 266.33 3.35406 1.92457 0
M  V30 2690 H 268.019 3.69466 1.68076 0
M  V30 2691 H 268.785 4.82065 -0.53274 0
M  V30 2692 H 264.664 4.56167 0.665812 0
M  V30 2693 H 268.208 6.66016 -2.07531 0
M  V30 2694 H 264.105 6.39621 -0.869199 0
M  V30 2695 H 264.873 7.83601 -2.36455 0
M  V30 2696 N 267.536 -0.106894 1.57237 0
M  V30 2697 C 268.761 -0.830287 1.90055 0
M  V30 2698 C 269.186 -1.72064 0.75998 0
M  V30 2699 O 268.544 -1.78982 -0.288991 0
M  V30 2700 C 268.592 -1.6295 3.21683 0
M  V30 2701 O 267.696 -2.73748 3.08441 0
M  V30 2702 H 267.037 -0.228855 0.623315 0
M  V30 2703 H 269.567 -0.085658 2.04421 0
M  V30 2704 H 269.577 -2.01621 3.54701 0
M  V30 2705 H 268.252 -0.975989 4.04286 0
M  V30 2706 H 266.829 -2.38192 2.86913 0
M  V30 2707 N 269.014 -1.53014 -0.377408 0
M  V30 2708 C 269.944 -1.81589 -1.46791 0
M  V30 2709 C 270.925 -0.668622 -1.56408 0
M  V30 2710 O 272.11 -0.917337 -1.71168 0
M  V30 2711 C 269.24 -1.99519 -2.8427 0
M  V30 2712 C 268.194 -3.15249 -2.89486 0
M  V30 2713 C 267.52 -3.18451 -4.29527 0
M  V30 2714 C 268.82 -4.54084 -2.58079 0
M  V30 2715 H 270.514 -2.7291 -1.23127 0
M  V30 2716 H 268.06 -1.31319 -0.590883 0
M  V30 2717 H 270.013 -2.18092 -3.60575 0
M  V30 2718 H 268.737 -1.04897 -3.09296 0
M  V30 2719 H 267.396 -2.96477 -2.15631 0
M  V30 2720 H 267.044 -2.2149 -4.5161 0
M  V30 2721 H 266.744 -3.962 -4.33934 0
M  V30 2722 H 268.268 -3.39193 -5.07721 0
M  V30 2723 H 269.682 -4.72899 -3.24098 0
M  V30 2724 H 268.079 -5.33987 -2.7382 0
M  V30 2725 H 269.149 -4.60006 -1.53372 0
M  V30 2726 N 270.492 0.636531 -1.44174 0
M  V30 2727 C 271.717 1.42847 -1.50364 0
M  V30 2728 C 272.142 1.87665 -0.127867 0
M  V30 2729 O 271.5 1.58408 0.88185 0
M  V30 2730 C 271.548 2.62854 -2.4686 0
M  V30 2731 O 270.652 3.62501 -1.9664 0
M  V30 2732 H 269.993 0.427642 -0.507955 0
M  V30 2733 H 272.523 0.777422 -1.89255 0
M  V30 2734 H 272.533 3.10465 -2.64718 0
M  V30 2735 H 271.208 2.29578 -3.46795 0
M  V30 2736 H 269.785 3.21735 -1.88523 0
M  V30 2737 N 271.97 1.30982 0.876444 0
M  V30 2738 C 273.195 1.23373 1.66715 0
M  V30 2739 C 273.62 -0.19885 1.87046 0
M  V30 2740 O 272.978 -1.1427 1.40756 0
M  V30 2741 C 273.026 1.97644 3.01611 0
M  V30 2742 O 272.13 1.30935 3.91062 0
M  V30 2743 H 271.471 0.426279 0.509099 0
M  V30 2744 H 274.001 1.72944 1.09323 0
M  V30 2745 H 274.011 2.06992 3.51594 0
M  V30 2746 H 272.686 3.01829 2.86133 0
M  V30 2747 H 271.263 1.29996 3.49507 0
M  V30 2748 N 273.449 -1.08991 1.13837 0
M  V30 2749 C 274.695 -1.81526 0.90422 0
M  V30 2750 C 275.028 -1.85706 -0.568066 0
M  V30 2751 O 274.303 -1.32855 -1.42056 0
M  V30 2752 C 274.586 -3.27447 1.49835 0
M  V30 2753 C 274.439 -3.31512 3.04006 0
M  V30 2754 C 275.758 -4.24256 1.17025 0
M  V30 2755 H 272.877 -0.659029 0.329923 0
M  V30 2756 H 275.519 -1.27644 1.40737 0
M  V30 2757 H 273.669 -3.73462 1.07044 0
M  V30 2758 H 275.341 -2.93867 3.55584 0
M  V30 2759 H 273.584 -2.70963 3.38765 0
M  V30 2760 H 274.255 -4.34329 3.40679 0
M  V30 2761 H 276.731 -3.86549 1.54009 0
M  V30 2762 H 275.607 -5.24684 1.61237 0
M  V30 2763 H 275.868 -4.42019 0.0846274 0
M  V30 2764 N 274.927 -0.932562 -1.27047 0
M  V30 2765 C 276.173 -0.576412 -1.94436 0
M  V30 2766 C 276.506 0.880891 -1.73072 0
M  V30 2767 O 275.781 1.62905 -1.06264 0
M  V30 2768 C 276.064 -0.909031 -3.48437 0
M  V30 2769 C 275.917 -2.42044 -3.79123 0
M  V30 2770 C 277.236 -0.418341 -4.38107 0
M  V30 2771 H 274.355 -0.210888 -0.706184 0
M  V30 2772 H 276.997 -1.16522 -1.50075 0
M  V30 2773 H 275.147 -0.407947 -3.86352 0
M  V30 2774 H 276.819 -2.99359 -3.50973 0
M  V30 2775 H 275.062 -2.86758 -3.25503 0
M  V30 2776 H 275.733 -2.6037 -4.86736 0
M  V30 2777 H 278.209 -0.847856 -4.0737 0
M  V30 2778 H 277.085 -0.679981 -5.44672 0
M  V30 2779 H 277.346 0.681642 -4.36814 0
M  V30 2780 N 276.405 1.4127 -0.698611 0
M  V30 2781 C 277.633 2.05503 -0.239992 0
M  V30 2782 C 278.048 1.52584 1.11191 0
M  V30 2783 O 277.405 0.675323 1.69545 0
M  V30 2784 C 277.456 3.60987 -0.192429 0
M  V30 2785 O 277.177 4.1195 -1.49094 0
M  V30 2786 C 278.678 4.42371 0.28681 0
M  V30 2787 H 275.898 0.661748 -0.111045 0
M  V30 2788 H 278.442 1.80987 -0.95205 0
M  V30 2789 H 276.597 3.84533 0.470472 0
M  V30 2790 H 277.011 5.06018 -1.38007 0
M  V30 2791 H 278.485 5.51344 0.26896 0
M  V30 2792 H 278.962 4.18699 1.32619 0
M  V30 2793 H 279.568 4.23897 -0.345201 0
M  V30 2794 N 277.883 0.443576 1.51229 0
M  V30 2795 C 279.129 -0.120975 2.02439 0
M  V30 2796 C 279.462 -1.41815 1.32674 0
M  V30 2797 O 278.737 -1.89373 0.443622 0
M  V30 2798 C 279.02 -0.333291 3.58554 0
M  V30 2799 C 278.873 0.982968 4.38928 0
M  V30 2800 C 280.192 -1.10028 4.26124 0
M  V30 2801 H 277.311 -0.0424923 0.735774 0
M  V30 2802 H 279.953 0.583794 1.80809 0
M  V30 2803 H 278.103 -0.933614 3.77115 0
M  V30 2804 H 279.775 1.61775 4.32003 0
M  V30 2805 H 278.018 1.58611 4.03763 0
M  V30 2806 H 278.689 0.788379 5.46341 0
M  V30 2807 H 281.165 -0.591711 4.11871 0
M  V30 2808 H 280.041 -1.21761 5.35225 0
M  V30 2809 H 280.302 -2.12996 3.87408 0
M  V30 2810 N 279.361 -1.56624 0.175154 0
M  V30 2811 C 280.772 -1.83561 -0.340916 0
M  V30 2812 C 281.123 -1.09511 -1.62794 0
M  V30 2813 O 280.248 -0.349389 -2.13561 0
M  V30 2814 C 280.843 -3.32979 -0.625313 0
M  V30 2815 C 279.402 -3.60399 -1.08581 0
M  V30 2816 C 278.549 -2.77024 -0.123722 0
M  V30 2817 H 281.5 -1.53593 0.399344 0
M  V30 2818 H 281.521 -3.50666 -1.47694 0
M  V30 2819 H 281.033 -3.86847 0.311575 0
M  V30 2820 H 279.134 -3.11945 -2.03767 0
M  V30 2821 H 279.247 -4.68711 -0.992317 0
M  V30 2822 H 277.611 -2.46993 -0.621821 0
M  V30 2823 H 278.394 -3.33674 0.807256 0
M  V30 2824 N 280.839 0.0985539 -1.57292 0
M  V30 2825 C 282.064 0.820196 -1.90493 0
M  V30 2826 C 282.489 1.71658 -0.769094 0
M  V30 2827 O 281.847 1.79133 0.279495 0
M  V30 2828 C 281.895 1.61242 -3.22542 0
M  V30 2829 O 280.999 2.72108 -3.09888 0
M  V30 2830 H 280.34 0.225547 -0.62452 0
M  V30 2831 H 282.87 0.0748159 -2.04463 0
M  V30 2832 H 282.88 1.99737 -3.55766 0
M  V30 2833 H 281.555 0.954535 -4.04798 0
M  V30 2834 H 280.132 2.36667 -2.88172 0
M  V30 2835 N 282.317 1.53212 0.369288 0
M  V30 2836 C 283.542 1.73423 1.1375 0
M  V30 2837 C 283.967 0.460404 1.82378 0
M  V30 2838 O 283.325 -0.585298 1.71592 0
M  V30 2839 C 283.373 2.89769 2.1463 0
M  V30 2840 O 282.477 2.58119 3.21634 0
M  V30 2841 H 281.818 0.576061 0.330227 0
M  V30 2842 H 284.348 2.00083 0.427547 0
M  V30 2843 H 284.358 3.15829 2.58294 0
M  V30 2844 H 283.033 3.8217 1.64071 0
M  V30 2845 H 281.61 2.42864 2.82969 0
M  V30 2846 N 283.795 -0.628877 1.44509 0
M  V30 2847 C 285.02 -1.42048 1.5112 0
M  V30 2848 C 285.445 -1.87594 0.137818 0
M  V30 2849 O 284.803 -1.58873 -0.873437 0
M  V30 2850 C 284.851 -2.61541 2.48251 0
M  V30 2851 O 283.955 -3.61453 1.98559 0
M  V30 2852 H 283.296 -0.424942 0.510216 0
M  V30 2853 H 285.826 -0.767374 1.89664 0
M  V30 2854 H 285.836 -3.09057 2.66361 0
M  V30 2855 H 284.511 -2.27736 3.48007 0
M  V30 2856 H 283.088 -3.20731 1.90227 0
M  V30 2857 N 285.273 -1.31445 -0.869486 0
M  V30 2858 C 286.203 -1.21727 -1.99261 0
M  V30 2859 C 287.184 -0.104359 -1.6978 0
M  V30 2860 O 288.369 -0.289038 -1.92037 0
M  V30 2861 C 285.499 -0.924317 -3.34774 0
M  V30 2862 C 284.453 -1.99685 -3.78563 0
M  V30 2863 C 283.779 -1.55658 -5.11541 0
M  V30 2864 C 285.079 -3.41003 -3.95619 0
M  V30 2865 H 286.773 -2.1569 -2.07649 0
M  V30 2866 H 284.319 -1.03839 -0.997675 0
M  V30 2867 H 286.272 -0.842934 -4.12883 0
M  V30 2868 H 284.996 0.0509793 -3.2656 0
M  V30 2869 H 283.655 -2.06813 -3.02694 0
M  V30 2870 H 283.303 -0.569132 -4.9977 0
M  V30 2871 H 283.003 -2.27409 -5.41811 0
M  V30 2872 H 284.527 -1.48928 -5.92159 0
M  V30 2873 H 285.941 -3.36547 -4.64122 0
M  V30 2874 H 284.338 -4.10975 -4.37286 0
M  V30 2875 H 285.408 -3.81754 -2.98985 0
M  V30 2876 N 286.751 1.08385 -1.14413 0
M  V30 2877 C 287.999 1.80419 -0.910679 0
M  V30 2878 C 288.32 1.86658 0.564243 0
M  V30 2879 O 287.59 1.35985 1.41014 0
M  V30 2880 H 286.17 0.668204 -0.333934 0
M  V30 2881 H 288.832 1.31037 -1.44275 0
M  V30 2882 H 287.928 2.83238 -1.31082 0
M  V30 2883 N 288.23 0.939286 1.26551 0
M  V30 2884 C 289.458 0.602536 1.97932 0
M  V30 2885 C 289.873 -0.82206 1.69964 0
M  V30 2886 O 289.23 -1.54789 0.966784 0
M  V30 2887 C 289.281 0.832946 3.51773 0
M  V30 2888 O 289.002 2.20151 3.78768 0
M  V30 2889 C 290.503 0.506483 4.40397 0
M  V30 2890 H 287.723 0.227248 0.631347 0
M  V30 2891 H 290.267 1.25948 1.61113 0
M  V30 2892 H 288.422 0.222644 3.8676 0
M  V30 2893 H 288.836 2.26013 4.73306 0
M  V30 2894 H 290.31 0.718333 5.47306 0
M  V30 2895 H 290.787 -0.558451 4.35635 0
M  V30 2896 H 291.393 1.09543 4.10951 0
M  V30 2897 N 289.708 -1.40897 0.706093 0
M  V30 2898 C 290.64 -2.29199 0.00815776 0
M  V30 2899 C 291.653 -1.45336 -0.733582 0
M  V30 2900 O 292.842 -1.68727 -0.582537 0
M  V30 2901 C 289.942 -3.23417 -1.01265 0
M  V30 2902 C 289.115 -4.36089 -0.338387 0
M  V30 2903 C 288.174 -5.10811 -1.26326 0
M  V30 2904 O 287.2 -5.64215 -0.751651 0
M  V30 2905 N 288.402 -5.19269 -2.595 0
M  V30 2906 H 291.167 -2.89738 0.766297 0
M  V30 2907 H 288.728 -1.52164 0.55296 0
M  V30 2908 H 290.72 -3.70276 -1.63334 0
M  V30 2909 H 289.29 -2.64112 -1.67223 0
M  V30 2910 H 288.51 -3.91479 0.462352 0
M  V30 2911 H 289.798 -5.08634 0.130031 0
M  V30 2912 H 289.196 -4.77347 -3.03573 0
M  V30 2913 H 287.753 -5.69667 -3.16737 0
M  V30 2914 N 291.186 -0.45159 -1.50991 0
M  V30 2915 C 292.414 0.108334 -2.06616 0
M  V30 2916 C 292.829 1.35224 -1.31757 0
M  V30 2917 O 292.186 1.78475 -0.381174 0
M  V30 2918 C 292.237 0.41619 -3.59096 0
M  V30 2919 O 291.958 -0.778361 -4.3113 0
M  V30 2920 C 293.459 1.02523 -4.31282 0
M  V30 2921 H 290.679 0.00159995 -0.670998 0
M  V30 2922 H 293.223 -0.634771 -1.94399 0
M  V30 2923 H 291.378 1.10921 -3.71181 0
M  V30 2924 H 291.792 -0.511181 -5.22003 0
M  V30 2925 H 293.266 1.19053 -5.39009 0
M  V30 2926 H 293.743 2.01013 -3.905 0
M  V30 2927 H 294.349 0.371173 -4.23677 0
M  V30 2928 N 292.664 1.56529 -0.183458 0
M  V30 2929 C 293.894 2.01331 0.463612 0
M  V30 2930 C 294.302 1.06278 1.5653 0
M  V30 2931 O 293.645 0.0577976 1.83609 0
M  V30 2932 C 293.707 3.42547 1.09096 0
M  V30 2933 C 293.371 4.56817 0.129442 0
M  V30 2934 C 294.368 5.15734 -0.656807 0
M  V30 2935 C 292.053 5.02295 0.02174 0
M  V30 2936 C 294.047 6.1857 -1.53784 0
M  V30 2937 C 291.734 6.04978 -0.862864 0
M  V30 2938 C 292.732 6.62988 -1.64123 0
M  V30 2939 O 292.42 7.63677 -2.51103 0
M  V30 2940 H 292.152 0.664917 0.121907 0
M  V30 2941 H 294.706 2.034 -0.285954 0
M  V30 2942 H 292.936 3.37428 1.88889 0
M  V30 2943 H 294.625 3.71228 1.64148 0
M  V30 2944 H 295.391 4.81473 -0.583839 0
M  V30 2945 H 291.27 4.56847 0.617392 0
M  V30 2946 H 294.814 6.63777 -2.14583 0
M  V30 2947 H 290.711 6.38663 -0.93699 0
M  V30 2948 H 291.479 7.81049 -2.44753 0
M  V30 2949 N 294.142 -0.090211 1.57342 0
M  V30 2950 C 295.391 -0.791531 1.8552 0
M  V30 2951 C 295.704 -1.79659 0.773441 0
M  V30 2952 O 296.91 -2.54616 0.942497 0
M  V30 2953 C 295.366 -1.45856 3.2902 0
M  V30 2954 C 294.974 -0.493017 4.45279 0
M  V30 2955 C 296.718 -2.14332 3.66418 0
M  V30 2956 C 294.625 -1.16491 5.79814 0
M  V30 2957 H 293.555 -0.299356 0.692027 0
M  V30 2958 H 296.206 -0.0445343 1.83446 0
M  V30 2959 H 294.588 -2.25318 3.2565 0
M  V30 2960 H 295.762 0.270464 4.60006 0
M  V30 2961 H 294.077 0.0863061 4.16311 0
M  V30 2962 H 296.674 -2.65344 4.64216 0
M  V30 2963 H 297.017 -2.93447 2.95287 0
M  V30 2964 H 297.55 -1.41724 3.71698 0
M  V30 2965 H 294.289 -0.41447 6.54188 0
M  V30 2966 H 293.809 -1.8997 5.68921 0
M  V30 2967 H 295.488 -1.69001 6.24538 0
M  V30 2968 N 295.62 -1.53406 -0.361157 0
M  V30 2969 C 296.86 -1.71507 -1.11197 0
M  V30 2970 C 297.224 -0.459337 -1.86425 0
M  V30 2971 O 298.425 -0.517102 -2.63779 0
M  V30 2972 C 296.696 -2.93307 -2.0422 0
M  V30 2973 S 298.255 -3.32135 -2.86761 0
M  V30 2974 H 295.073 -0.603448 -0.375995 0
M  V30 2975 H 297.675 -1.91516 -0.392642 0
M  V30 2976 H 296.379 -3.82891 -1.47724 0
M  V30 2977 H 295.91 -2.75712 -2.80618 0
M  V30 2978 H 297.925 -2.84493 -4.06544 0
M  V30 2979 N 297.098 0.621204 -1.44841 0
M  V30 2980 C 298.046 1.75385 -1.52784 0
M  V30 2981 C 299.04 1.64639 -0.398779 0
M  V30 2982 O 300.246 1.70598 -0.574137 0
M  V30 2983 H 296.621 0.579193 -0.479625 0
M  V30 2984 H 298.592 1.6581 -2.48092 0
M  V30 2985 C 297.341 3.13742 -1.4987 0
M  V30 2986 H 296.664 3.22663 -2.36069 0
M  V30 2987 H 298.104 3.92861 -1.59487 0
M  V30 2988 C 296.563 3.36175 -0.220973 0
M  V30 2989 O 297.093 3.95469 0.704782 0
M  V30 2990 N 295.299 2.90348 -0.120963 0
M  V30 2991 H 294.846 2.42278 -0.875162 0
M  V30 2992 H 294.804 3.05732 0.733168 0
M  V30 2993 N 298.576 1.31904 0.862503 0
M  V30 2994 C 299.822 1.22197 1.61851 0
M  V30 2995 C 300.155 -0.217641 1.92977 0
M  V30 2996 O 299.43 -1.15264 1.56666 0
M  V30 2997 C 299.713 2.07378 2.94391 0
M  V30 2998 C 299.566 3.59678 2.70096 0
M  V30 2999 C 300.885 1.92891 3.95577 0
M  V30 3000 H 298.004 0.445255 0.587296 0
M  V30 3001 H 300.646 1.6177 0.99651 0
M  V30 3002 H 298.796 1.73758 3.47477 0
M  V30 3003 H 300.468 4.03472 2.23625 0
M  V30 3004 H 298.711 3.82735 2.04197 0
M  V30 3005 H 299.382 4.14595 3.64438 0
M  V30 3006 H 301.858 2.22327 3.51724 0
M  V30 3007 H 300.734 2.54781 4.86187 0
M  V30 3008 H 300.995 0.894315 4.3296 0
M  V30 3009 N 300.054 -1.07777 1.14986 0
M  V30 3010 C 301.002 -2.16964 0.838406 0
M  V30 3011 C 301.996 -1.68372 -0.186386 0
M  V30 3012 O 303.202 -1.79951 -0.0418465 0
M  V30 3013 H 299.577 -0.708006 0.253439 0
M  V30 3014 H 301.548 -2.40454 1.76704 0
M  V30 3015 C 300.297 -3.4604 0.339335 0
M  V30 3016 H 299.62 -3.83813 1.11927 0
M  V30 3017 H 301.06 -4.23698 0.160021 0
M  V30 3018 C 299.519 -3.23569 -0.938325 0
M  V30 3019 O 300.049 -3.47752 -2.01077 0
M  V30 3020 N 298.255 -2.77079 -0.876117 0
M  V30 3021 H 297.802 -2.576 -0.00322037 0
M  V30 3022 H 297.76 -2.62422 -1.73153 0
M  V30 3023 N 301.532 -0.945985 -1.26051 0
M  V30 3024 C 302.482 -0.430164 -2.23905 0
M  V30 3025 C 303.466 0.47579 -1.53704 0
M  V30 3026 O 304.658 0.310252 -1.7426 0
M  V30 3027 C 301.787 0.298957 -3.41996 0
M  V30 3028 C 300.873 -0.624566 -4.19476 0
M  V30 3029 N 301.264 -1.75245 -4.74471 0
M  V30 3030 C 299.562 -0.431082 -4.43912 0
M  V30 3031 C 300.263 -2.32834 -5.3307 0
M  V30 3032 N 299.239 -1.61583 -5.1903 0
M  V30 3033 H 303.041 -1.29107 -2.64024 0
M  V30 3034 H 300.555 -0.802428 -1.41191 0
M  V30 3035 H 302.552 0.685565 -4.11225 0
M  V30 3036 H 301.212 1.15657 -3.03403 0
M  V30 3037 H 302.223 -2.13449 -4.71868 0
M  V30 3038 H 298.9 0.384364 -4.15727 0
M  V30 3039 H 300.29 -3.27893 -5.86461 0
M  V30 3040 N 303.011 1.40521 -0.713556 0
M  V30 3041 C 303.958 2.30723 -0.059684 0
M  V30 3042 C 304.928 1.48079 0.752448 0
M  V30 3043 O 306.113 1.76823 0.71681 0
M  V30 3044 C 303.253 3.34274 0.857594 0
M  V30 3045 C 302.366 4.31986 0.0351536 0
M  V30 3046 C 301.501 5.22605 0.951724 0
M  V30 3047 C 300.54 6.11976 0.123253 0
M  V30 3048 N 299.677 6.9502 0.99459 0
M  V30 3049 H 304.517 2.86074 -0.834596 0
M  V30 3050 H 302.054 1.40879 -0.42326 0
M  V30 3051 H 304.012 3.92879 1.40364 0
M  V30 3052 H 302.642 2.8043 1.59871 0
M  V30 3053 H 301.694 3.7518 -0.628052 0
M  V30 3054 H 303.006 4.95101 -0.606347 0
M  V30 3055 H 302.16 5.86131 1.56638 0
M  V30 3056 H 300.899 4.59759 1.62705 0
M  V30 3057 H 299.904 5.47482 -0.50435 0
M  V30 3058 H 301.129 6.76881 -0.548539 0
M  V30 3059 H 299.075 6.34764 1.6556 0
M  V30 3060 H 298.992 7.54892 0.40908 0
M  V30 3061 H 300.26 7.62997 1.59549 0
M  V30 3062 N 304.489 0.459591 1.5075 0
M  V30 3063 C 305.9 0.00171547 1.867 0
M  V30 3064 C 306.251 -1.39934 1.37525 0
M  V30 3065 O 305.376 -2.03523 0.735349 0
M  V30 3066 C 305.971 -0.00366298 3.388 0
M  V30 3067 C 304.53 -0.406026 3.74204 0
M  V30 3068 C 303.677 0.38673 2.7459 0
M  V30 3069 H 306.628 0.674413 1.43657 0
M  V30 3070 H 306.649 -0.808371 3.71814 0
M  V30 3071 H 306.161 1.01617 3.74561 0
M  V30 3072 H 304.262 -1.43063 3.4404 0
M  V30 3073 H 304.375 -0.115362 4.78961 0
M  V30 3074 H 302.739 -0.158019 2.54209 0
M  V30 3075 H 303.522 1.40585 3.13194 0
M  V30 3076 N 305.967 -1.56429 0.191757 0
M  V30 3077 C 307.192 -2.02309 -0.456706 0
M  V30 3078 C 307.617 -1.07103 -1.5463 0
M  V30 3079 O 306.975 -0.0539677 -1.8122 0
M  V30 3080 C 307.023 -3.46654 -0.993159 0
M  V30 3081 O 306.127 -3.54559 -2.10622 0
M  V30 3082 H 305.468 -0.655303 -0.107114 0
M  V30 3083 H 307.998 -2.02364 0.301653 0
M  V30 3084 H 308.008 -3.86377 -1.31061 0
M  V30 3085 H 306.683 -4.1544 -0.195504 0
M  V30 3086 H 305.26 -3.26708 -1.79767 0
M  V30 3087 N 307.445 0.0818655 -1.57387 0
M  V30 3088 C 308.393 1.11712 -2.04018 0
M  V30 3089 C 309.387 1.40683 -0.94364 0
M  V30 3090 O 310.593 1.40209 -1.12878 0
M  V30 3091 H 306.968 0.377542 -0.650358 0
M  V30 3092 H 308.939 0.697614 -2.90131 0
M  V30 3093 C 307.688 2.42537 -2.49141 0
M  V30 3094 H 307.011 2.21092 -3.33104 0
M  V30 3095 H 308.451 3.13446 -2.85531 0
M  V30 3096 C 306.91 3.0778 -1.37014 0
M  V30 3097 O 307.44 3.95436 -0.706621 0
M  V30 3098 N 305.646 2.68242 -1.11779 0
M  V30 3099 H 305.193 1.97052 -1.65917 0
M  V30 3100 H 305.151 3.1222 -0.369594 0
M  V30 3101 N 308.923 1.53595 0.353017 0
M  V30 3102 C 310.151 1.74311 1.1146 0
M  V30 3103 C 310.566 0.477854 1.82653 0
M  V30 3104 O 309.923 -0.549977 1.74016 0
M  V30 3105 C 309.974 2.91694 2.13534 0
M  V30 3106 O 309.695 4.13325 1.45238 0
M  V30 3107 C 311.196 3.24384 3.02142 0
M  V30 3108 H 308.416 0.582669 0.332773 0
M  V30 3109 H 310.96 2.00386 0.408107 0
M  V30 3110 H 309.115 2.67977 2.79763 0
M  V30 3111 H 309.529 4.79148 2.13349 0
M  V30 3112 H 311.003 4.09893 3.69718 0
M  V30 3113 H 311.48 2.40282 3.67643 0
M  V30 3114 H 312.086 3.50073 2.41514 0
M  V30 3115 N 310.401 -0.613514 1.45168 0
M  V30 3116 C 311.348 -1.72456 1.53387 0
M  V30 3117 C 312.318 -1.6169 0.380191 0
M  V30 3118 O 313.503 -1.81356 0.592836 0
M  V30 3119 C 310.643 -3.10753 1.50088 0
M  V30 3120 C 309.756 -3.32368 2.75963 0
M  V30 3121 C 308.891 -4.60737 2.64376 0
M  V30 3122 C 307.93 -4.7559 3.85332 0
M  V30 3123 N 307.067 -5.95253 3.72315 0
M  V30 3124 H 311.907 -1.64768 2.48305 0
M  V30 3125 H 309.444 -0.803503 1.23216 0
M  V30 3126 H 311.402 -3.90758 1.46164 0
M  V30 3127 H 310.032 -3.17413 0.587243 0
M  V30 3128 H 309.084 -2.4618 2.89999 0
M  V30 3129 H 310.396 -3.39218 3.65695 0
M  V30 3130 H 309.55 -5.48928 2.58385 0
M  V30 3131 H 308.289 -4.56275 1.72233 0
M  V30 3132 H 307.294 -3.85824 3.91688 0
M  V30 3133 H 308.519 -4.81854 4.78533 0
M  V30 3134 H 306.465 -5.91847 2.82937 0
M  V30 3135 H 306.382 -6.03236 4.55677 0
M  V30 3136 H 307.65 -6.85958 3.70246 0
M  V30 3137 N 311.879 -1.3236 -0.855495 0
M  V30 3138 C 313.125 -1.23054 -1.612 0
M  V30 3139 C 313.458 0.207404 -1.93089 0
M  V30 3140 O 312.733 1.14432 -1.57275 0
M  V30 3141 C 313.016 -2.08937 -2.93287 0
M  V30 3142 C 312.869 -3.61105 -2.68185 0
M  V30 3143 C 314.188 -1.94986 -3.94549 0
M  V30 3144 H 311.307 -0.448364 -0.584926 0
M  V30 3145 H 313.949 -1.62297 -0.987917 0
M  V30 3146 H 312.099 -1.75599 -3.46551 0
M  V30 3147 H 313.771 -4.04652 -2.21483 0
M  V30 3148 H 312.014 -3.83813 -2.02164 0
M  V30 3149 H 312.685 -4.16522 -3.62234 0
M  V30 3150 H 315.161 -2.24189 -3.5054 0
M  V30 3151 H 314.037 -2.57356 -4.84829 0
M  V30 3152 H 314.298 -0.917263 -4.3248 0
M  V30 3153 N 313.357 1.07166 -1.15556 0
M  V30 3154 C 314.634 1.76546 -0.842069 0
M  V30 3155 C 315.014 2.00453 0.661939 0
M  V30 3156 O 314.362 1.62452 1.60691 0
M  V30 3157 C 314.572 3.07266 -1.65495 0
M  V30 3158 C 315.92 3.81578 -1.86234 0
M  V30 3159 O 316.944 3.17083 -1.62287 0
M  V30 3160 O 315.803 4.97419 -2.26355 0
M  V30 3161 H 312.897 0.766756 -0.309862 0
M  V30 3162 H 315.443 1.13514 -1.26145 0
M  V30 3163 H 314.215 2.85494 -2.67598 0
M  V30 3164 H 313.838 3.7803 -1.23203 0
M  V30 3165 N 314.835 0.952656 1.25548 0
M  V30 3166 C 315.782 0.47008 2.25962 0
M  V30 3167 C 316.752 -0.476384 1.59122 0
M  V30 3168 O 317.937 -0.39007 1.8677 0
M  V30 3169 C 315.077 -0.247881 3.44209 0
M  V30 3170 C 314.19 0.735591 4.25691 0
M  V30 3171 C 313.325 -0.0047306 5.312 0
M  V30 3172 C 312.364 0.969805 6.04368 0
M  V30 3173 N 311.501 0.260486 7.01617 0
M  V30 3174 H 316.341 1.33126 2.66611 0
M  V30 3175 H 313.878 0.66765 1.31076 0
M  V30 3176 H 315.836 -0.680695 4.1161 0
M  V30 3177 H 314.466 -1.07312 3.0444 0
M  V30 3178 H 313.518 1.28689 3.57971 0
M  V30 3179 H 314.83 1.47934 4.76358 0
M  V30 3180 H 313.984 -0.496275 6.04667 0
M  V30 3181 H 312.723 -0.781282 4.81401 0
M  V30 3182 H 311.728 1.47237 5.29718 0
M  V30 3183 H 312.953 1.74655 6.56256 0
M  V30 3184 H 310.899 -0.497364 6.54112 0
M  V30 3185 H 310.816 0.943362 7.50091 0
M  V30 3186 H 312.084 -0.209587 7.79218 0
M  V30 3187 N 316.313 -1.40141 0.720998 0
M  V30 3188 C 317.729 -1.54632 0.395113 0
M  V30 3189 C 317.929 -1.69115 -1.09555 0
M  V30 3190 O 316.985 -1.68377 -1.88163 0
M  V30 3191 C 318.298 -2.77177 1.1659 0
M  V30 3192 C 319.846 -2.91 1.15274 0
M  V30 3193 C 320.321 -4.16465 1.90579 0
M  V30 3194 N 321.812 -4.23476 1.87675 0
M  V30 3195 C 322.547 -5.19475 2.42762 0
M  V30 3196 N 322.043 -6.21348 3.06428 0
M  V30 3197 N 323.836 -5.11592 2.32874 0
M  V30 3198 H 315.987 -1.28986 1.68749 0
M  V30 3199 H 318.25 -0.62412 0.713567 0
M  V30 3200 H 317.956 -2.72771 2.22011 0
M  V30 3201 H 317.83 -3.69442 0.76108 0
M  V30 3202 H 320.217 -2.94907 0.106702 0
M  V30 3203 H 320.298 -1.99838 1.59682 0
M  V30 3204 H 319.942 -4.1332 2.95176 0
M  V30 3205 H 319.872 -5.06646 1.43587 0
M  V30 3206 H 322.363 -3.50497 1.41281 0
M  V30 3207 H 322.676 -6.91034 3.45965 0
M  V30 3208 H 321.021 -6.21777 3.10514 0
M  V30 3209 H 324.212 -4.30936 1.82789 0
M  V30 3210 H 324.385 -5.86233 2.76106 0
M  V30 3211 N 317.792 -0.46758 -1.50504 0
M  V30 3212 C 319.038 0.0887532 -2.02606 0
M  V30 3213 C 319.371 1.39686 -1.34913 0
M  V30 3214 O 318.646 1.88644 -0.473694 0
M  V30 3215 C 318.929 0.276206 -3.59039 0
M  V30 3216 C 318.782 -1.05267 -4.37309 0
M  V30 3217 C 320.101 1.03235 -4.27821 0
M  V30 3218 H 317.22 0.0307814 -0.736357 0
M  V30 3219 H 319.862 -0.612485 -1.79857 0
M  V30 3220 H 318.012 0.8735 -3.78553 0
M  V30 3221 H 319.684 -1.68628 -4.29374 0
M  V30 3222 H 317.927 -1.65015 -4.01189 0
M  V30 3223 H 318.598 -0.875197 -5.45018 0
M  V30 3224 H 321.074 0.526111 -4.12761 0
M  V30 3225 H 319.95 1.1323 -5.37094 0
M  V30 3226 H 320.211 2.06806 -3.90748 0
M  V30 3227 N 319.27 1.56325 -0.20005 0
M  V30 3228 C 320.18 2.22931 0.730668 0
M  V30 3229 C 321.196 1.22997 1.23076 0
M  V30 3230 O 322.372 1.55748 1.27689 0
M  V30 3231 C 319.437 2.87948 1.93098 0
M  V30 3232 C 318.498 4.03166 1.47497 0
M  V30 3233 C 317.731 4.65073 2.61807 0
M  V30 3234 O 317.954 4.25913 3.79413 0
M  V30 3235 O 316.888 5.54452 2.34237 0
M  V30 3236 H 320.714 3.03084 0.193391 0
M  V30 3237 H 318.299 1.49371 0.0294621 0
M  V30 3238 H 320.181 3.29063 2.6324 0
M  V30 3239 H 318.856 2.10771 2.45677 0
M  V30 3240 H 317.763 3.66664 0.742201 0
M  V30 3241 H 319.096 4.82022 0.995796 0
M  V30 3242 N 320.748 -0.0735177 1.57428 0
M  V30 3243 C 322.159 -0.625551 1.75908 0
M  V30 3244 C 322.51 -1.78 0.825261 0
M  V30 3245 O 321.635 -2.16398 0.00893964 0
M  V30 3246 C 322.23 -1.14155 3.18989 0
M  V30 3247 C 320.789 -1.63946 3.38819 0
M  V30 3248 C 319.936 -0.558151 2.71625 0
M  V30 3249 H 322.887 0.152647 1.57964 0
M  V30 3250 H 322.908 -2.0104 3.23053 0
M  V30 3251 H 322.42 -0.301116 3.8693 0
M  V30 3252 H 320.521 -2.50321 2.7599 0
M  V30 3253 H 320.634 -1.71759 4.47253 0
M  V30 3254 H 318.998 -1.00278 2.34129 0
M  V30 3255 H 319.781 0.272071 3.4222 0
M  V30 3256 N 322.226 -1.5378 -0.344866 0
M  V30 3257 C 323.173 -1.81676 -1.42346 0
M  V30 3258 C 324.143 -0.662376 -1.52321 0
M  V30 3259 O 325.328 -0.906675 -1.67881 0
M  V30 3260 C 322.468 -2.03087 -2.79015 0
M  V30 3261 C 321.581 -3.30799 -2.77842 0
M  V30 3262 C 320.716 -3.42285 -4.0622 0
M  V30 3263 C 319.755 -4.6395 -3.9927 0
M  V30 3264 N 318.892 -4.72477 -5.19336 0
M  V30 3265 H 323.732 -2.73703 -1.17858 0
M  V30 3266 H 321.269 -1.35568 -0.570949 0
M  V30 3267 H 323.227 -2.1349 -3.58438 0
M  V30 3268 H 321.857 -1.14375 -3.01858 0
M  V30 3269 H 320.909 -3.29244 -1.90533 0
M  V30 3270 H 322.221 -4.20314 -2.68584 0
M  V30 3271 H 321.375 -3.52113 -4.94066 0
M  V30 3272 H 320.114 -2.50823 -4.18258 0
M  V30 3273 H 319.119 -4.54201 -3.09809 0
M  V30 3274 H 320.344 -5.56775 -3.88817 0
M  V30 3275 H 318.29 -3.83924 -5.3192 0
M  V30 3276 H 318.207 -5.55927 -5.12329 0
M  V30 3277 H 319.475 -4.86613 -6.08957 0
M  V30 3278 N 323.704 0.605807 -1.45491 0
M  V30 3279 C 324.929 1.39625 -1.53361 0
M  V30 3280 C 325.354 1.87351 -0.167645 0
M  V30 3281 O 324.712 1.60243 0.848051 0
M  V30 3282 C 324.76 2.57559 -2.5238 0
M  V30 3283 O 323.864 3.58248 -2.04285 0
M  V30 3284 H 323.205 0.416771 -0.516912 0
M  V30 3285 H 325.735 0.737103 -1.90861 0
M  V30 3286 H 325.745 3.0478 -2.71244 0
M  V30 3287 H 324.42 2.22171 -3.51586 0
M  V30 3288 H 322.997 3.17664 -1.95305 0
M  V30 3289 N 325.182 1.32811 0.848464 0
M  V30 3290 C 326.422 1.25046 1.61687 0
M  V30 3291 C 326.786 -0.183464 1.91121 0
M  V30 3292 O 327.987 -0.384937 2.66029 0
M  V30 3293 C 326.258 2.09201 2.89775 0
M  V30 3294 S 327.817 2.18526 3.80515 0
M  V30 3295 H 324.635 0.445023 0.554505 0
M  V30 3296 H 327.237 1.67733 1.00429 0
M  V30 3297 H 325.941 3.12433 2.66108 0
M  V30 3298 H 325.472 1.67315 3.56047 0
M  V30 3299 H 327.487 1.3393 4.77784 0
M  V30 3300 N 326.66 -1.06551 1.16123 0
M  V30 3301 C 327.937 -1.76097 0.85142 0
M  V30 3302 C 328.317 -2.00802 -0.6513 0
M  V30 3303 O 327.665 -1.63302 -1.59827 0
M  V30 3304 C 327.875 -3.06384 1.67122 0
M  V30 3305 C 329.223 -3.80585 1.88255 0
M  V30 3306 O 330.247 -3.16218 1.63966 0
M  V30 3307 O 329.106 -4.96212 2.2899 0
M  V30 3308 H 326.2 -0.765102 0.313923 0
M  V30 3309 H 328.746 -1.12844 1.26745 0
M  V30 3310 H 327.518 -2.84071 2.69108 0
M  V30 3311 H 327.141 -3.77371 1.25206 0
M  V30 3312 N 328.138 -0.959301 -1.25041 0
M  V30 3313 C 329.085 -0.482057 -2.2571 0
M  V30 3314 C 330.055 0.467939 -1.59372 0
M  V30 3315 O 331.24 0.380159 -1.86974 0
M  V30 3316 C 328.38 0.229623 -3.44335 0
M  V30 3317 C 327.493 -0.758156 -4.25295 0
M  V30 3318 C 326.628 -0.0234403 -5.31195 0
M  V30 3319 C 325.667 -1.00184 -6.03846 0
M  V30 3320 N 324.804 -0.29769 -7.01469 0
M  V30 3321 H 329.644 -1.34538 -2.65901 0
M  V30 3322 H 327.181 -0.674592 -1.3072 0
M  V30 3323 H 329.139 0.658856 -4.11965 0
M  V30 3324 H 327.769 1.05696 -3.05005 0
M  V30 3325 H 326.821 -1.30586 -3.57284 0
M  V30 3326 H 328.133 -1.50458 -4.75567 0
M  V30 3327 H 327.287 0.464201 -6.04922 0
M  V30 3328 H 326.026 0.755741 -4.81809 0
M  V30 3329 H 325.031 -1.50044 -5.2893 0
M  V30 3330 H 326.256 -1.78133 -6.55321 0
M  V30 3331 H 324.202 0.462668 -6.54366 0
M  V30 3332 H 324.119 -0.983128 -7.4958 0
M  V30 3333 H 325.387 0.16826 -7.79318 0
M  V30 3334 N 329.616 1.39756 -0.72842 0
M  V30 3335 C 330.844 2.04948 -0.283528 0
M  V30 3336 C 331.259 1.54908 1.0793 0
M  V30 3337 O 330.616 0.711135 1.68075 0
M  V30 3338 C 330.667 3.60498 -0.268957 0
M  V30 3339 O 330.388 4.08695 -1.57798 0
M  V30 3340 C 331.889 4.4288 0.192912 0
M  V30 3341 H 329.109 0.659243 -0.125056 0
M  V30 3342 H 331.653 1.78927 -0.990226 0
M  V30 3343 H 329.808 3.85444 0.388801 0
M  V30 3344 H 330.222 5.02977 -1.48709 0
M  V30 3345 H 331.696 5.51791 0.151952 0
M  V30 3346 H 332.173 4.21418 1.23708 0
M  V30 3347 H 332.779 4.23069 -0.435039 0
M  V30 3348 N 331.094 0.475555 1.50254 0
M  V30 3349 C 332.044 -0.335025 2.25525 0
M  V30 3350 C 333.028 -0.957625 1.29299 0
M  V30 3351 O 334.22 -0.869436 1.54175 0
M  V30 3352 C 331.349 -1.41385 3.12834 0
M  V30 3353 C 330.435 -0.798762 4.1651 0
M  V30 3354 N 330.826 0.0835815 5.05731 0
M  V30 3355 C 329.124 -1.06221 4.33166 0
M  V30 3356 C 329.825 0.433113 5.80085 0
M  V30 3357 N 328.801 -0.1928 5.43258 0
M  V30 3358 H 332.603 0.344612 2.91873 0
M  V30 3359 H 330.117 0.289986 1.5979 0
M  V30 3360 H 332.114 -2.00777 3.65368 0
M  V30 3361 H 330.774 -2.09543 2.48036 0
M  V30 3362 H 331.785 0.452715 5.15918 0
M  V30 3363 H 328.462 -1.73844 3.79585 0
M  V30 3364 H 329.852 1.15346 6.61925 0
M  V30 3365 N 332.573 -1.56217 0.208337 0
M  V30 3366 C 333.801 -2.02337 -0.43215 0
M  V30 3367 C 334.216 -1.08834 -1.54275 0
M  V30 3368 O 333.573 -0.0955462 -1.8225 0
M  V30 3369 C 333.624 -3.48072 -0.976138 0
M  V30 3370 O 333.345 -4.38007 0.0901621 0
M  V30 3371 C 334.846 -4.09773 -1.69119 0
M  V30 3372 H 332.066 -0.662385 -0.10718 0
M  V30 3373 H 334.61 -2.01966 0.320923 0
M  V30 3374 H 332.765 -3.49099 -1.67954 0
M  V30 3375 H 333.179 -5.23543 -0.316701 0
M  V30 3376 H 334.653 -5.13556 -2.02397 0
M  V30 3377 H 335.13 -3.53999 -2.59964 0
M  V30 3378 H 335.736 -4.12556 -1.03332 0
M  V30 3379 N 334.051 0.0651679 -1.57465 0
M  V30 3380 C 335.291 0.768329 -1.8941 0
M  V30 3381 C 335.655 1.74406 -0.802894 0
M  V30 3382 O 336.856 2.49281 -1.0056 0
M  V30 3383 C 335.127 1.45199 -3.26576 0
M  V30 3384 S 336.686 2.1893 -3.80283 0
M  V30 3385 H 333.504 0.255359 -0.663561 0
M  V30 3386 H 336.106 0.024167 -1.95485 0
M  V30 3387 H 334.81 0.728123 -4.03889 0
M  V30 3388 H 334.341 2.23545 -3.23715 0
M  V30 3389 H 336.356 3.45551 -3.56102 0
M  V30 3390 N 335.529 1.53961 0.336706 0
M  V30 3391 C 336.94 1.62914 0.911925 0
M  V30 3392 C 337.291 0.514795 1.89326 0
M  V30 3393 O 336.416 -0.354395 2.13478 0
M  V30 3394 C 337.011 2.95304 1.66076 0
M  V30 3395 C 335.57 3.06496 2.18489 0
M  V30 3396 C 334.717 2.58403 1.00613 0
M  V30 3397 H 337.668 1.58285 0.114649 0
M  V30 3398 H 337.689 2.84727 2.5241 0
M  V30 3399 H 337.201 3.76387 0.946276 0
M  V30 3400 H 335.302 2.3006 2.93092 0
M  V30 3401 H 335.415 4.1208 2.44391 0
M  V30 3402 H 333.779 2.13977 1.38152 0
M  V30 3403 H 334.562 3.41932 0.306179 0
M  V30 3404 N 337.007 -0.598083 1.45811 0
M  V30 3405 C 338.418 -1.18011 1.44673 0
M  V30 3406 C 338.769 -1.95378 0.179364 0
M  V30 3407 O 337.894 -2.04124 -0.718509 0
M  V30 3408 C 338.489 -2.14677 2.62105 0
M  V30 3409 C 337.048 -2.68236 2.64057 0
M  V30 3410 C 336.195 -1.43816 2.37091 0
M  V30 3411 H 339.146 -0.38686 1.53913 0
M  V30 3412 H 339.167 -2.97878 2.36746 0
M  V30 3413 H 338.679 -1.5834 3.5433 0
M  V30 3414 H 336.78 -3.28486 1.75864 0
M  V30 3415 H 336.893 -3.12021 3.63566 0
M  V30 3416 H 335.257 -1.731 1.86838 0
M  V30 3417 H 336.04 -0.893333 3.31473 0
M  V30 3418 N 338.485 -1.33259 -0.841409 0
M  V30 3419 C 339.725 -1.25902 -1.61022 0
M  V30 3420 C 340.089 0.173325 -1.91216 0
M  V30 3421 O 341.29 0.370824 -2.6623 0
M  V30 3422 C 339.561 -2.10735 -2.88662 0
M  V30 3423 S 341.12 -2.20541 -3.79351 0
M  V30 3424 H 337.938 -0.447958 -0.552137 0
M  V30 3425 H 340.54 -1.68263 -0.995382 0
M  V30 3426 H 339.244 -3.1384 -2.64448 0
M  V30 3427 H 338.775 -1.69201 -3.55154 0
M  V30 3428 H 340.79 -1.36462 -4.77067 0
M  V30 3429 N 339.963 1.05934 -1.16686 0
M  V30 3430 C 341.374 1.60263 -0.957745 0
M  V30 3431 C 341.725 1.89789 0.49745 0
M  V30 3432 O 340.85 1.67401 1.37135 0
M  V30 3433 C 341.445 2.91172 -1.73218 0
M  V30 3434 C 340.004 3.42188 -1.56794 0
M  V30 3435 C 339.151 2.16028 -1.73859 0
M  V30 3436 H 342.102 0.888392 -1.31504 0
M  V30 3437 H 342.123 3.60744 -1.21014 0
M  V30 3438 H 341.635 2.6965 -2.79124 0
M  V30 3439 H 339.736 3.68762 -0.533437 0
M  V30 3440 H 339.849 4.17273 -2.35414 0
M  V30 3441 H 338.213 2.26426 -1.16633 0
M  V30 3442 H 338.996 1.96985 -2.81161 0
M  V30 3443 N 341.441 0.965919 1.2453 0
M  V30 3444 C 342.404 0.499547 2.2369 0
M  V30 3445 C 343.404 -0.40294 1.5567 0
M  V30 3446 O 344.594 -0.19865 1.73064 0
M  V30 3447 C 341.726 -0.276792 3.39774 0
M  V30 3448 H 342.919 1.37613 2.66463 0
M  V30 3449 H 340.472 0.750324 1.37112 0
M  V30 3450 H 341.207 -1.17055 3.02438 0
M  V30 3451 H 340.992 0.370826 3.90343 0
M  V30 3452 H 342.482 -0.592175 4.1338 0
M  V30 3453 N 342.919 -1.39368 0.735821 0
M  V30 3454 C 344.33 -1.83313 0.354015 0
M  V30 3455 C 344.681 -1.61461 -1.11466 0
M  V30 3456 O 343.806 -1.10621 -1.85989 0
M  V30 3457 C 344.401 -3.32781 0.635769 0
M  V30 3458 C 342.96 -3.75142 0.307448 0
M  V30 3459 C 342.107 -2.62358 0.897974 0
M  V30 3460 H 345.058 -1.28349 0.933398 0
M  V30 3461 H 345.079 -3.80388 -0.0921773 0
M  V30 3462 H 344.591 -3.48654 1.70476 0
M  V30 3463 H 342.692 -3.64857 -0.755674 0
M  V30 3464 H 342.805 -4.72532 0.790583 0
M  V30 3465 H 341.169 -2.52624 0.324551 0
M  V30 3466 H 341.952 -2.81036 1.97164 0
M  V30 3467 N 344.397 -0.483516 -1.5 0
M  V30 3468 C 345.307 0.309172 -2.32554 0
M  V30 3469 C 346.323 0.984159 -1.43493 0
M  V30 3470 O 347.499 0.969399 -1.76535 0
M  V30 3471 C 344.564 1.36979 -3.18493 0
M  V30 3472 C 343.625 0.710095 -4.23387 0
M  V30 3473 C 342.858 1.72018 -5.05218 0
M  V30 3474 O 343.081 2.94813 -4.88305 0
M  V30 3475 O 342.015 1.28515 -5.8802 0
M  V30 3476 H 345.841 -0.366064 -3.01486 0
M  V30 3477 H 343.426 -0.24514 -1.47375 0
M  V30 3478 H 345.308 1.98385 -3.71781 0
M  V30 3479 H 343.983 2.02828 -2.52275 0
M  V30 3480 H 342.89 0.0567539 -3.74057 0
M  V30 3481 H 344.223 0.0943557 -4.9211 0
M  V30 3482 N 345.875 1.56104 -0.216619 0
M  V30 3483 C 346.805 2.23063 0.690296 0
M  V30 3484 C 347.786 1.20072 1.20485 0
M  V30 3485 O 348.971 1.48643 1.24976 0
M  V30 3486 C 346.101 2.90672 1.90072 0
M  V30 3487 C 345.055 4.00092 1.5202 0
M  V30 3488 C 344.381 4.54972 2.80899 0
M  V30 3489 C 345.681 5.17398 0.71391 0
M  V30 3490 H 347.375 2.99109 0.132038 0
M  V30 3491 H 344.921 1.43866 0.0620664 0
M  V30 3492 H 346.874 3.36204 2.54057 0
M  V30 3493 H 345.598 2.12066 2.48386 0
M  V30 3494 H 344.257 3.55283 0.903839 0
M  V30 3495 H 343.905 3.73102 3.37348 0
M  V30 3496 H 343.605 5.28817 2.56176 0
M  V30 3497 H 345.129 5.0322 3.45836 0
M  V30 3498 H 346.543 5.59342 1.25735 0
M  V30 3499 H 344.94 5.97444 0.563951 0
M  V30 3500 H 346.01 4.84088 -0.280527 0
M  V30 3501 N 347.353 -0.0568162 1.57498 0
M  V30 3502 C 348.283 -1.06593 2.0775 0
M  V30 3503 C 349.264 -1.39448 0.974082 0
M  V30 3504 O 350.449 -1.48815 1.24771 0
M  V30 3505 C 347.579 -2.37509 2.5339 0
M  V30 3506 C 346.533 -2.1897 3.67745 0
M  V30 3507 C 345.859 -3.55402 3.99492 0
M  V30 3508 C 347.159 -1.59859 4.97235 0
M  V30 3509 H 348.853 -0.647706 2.9231 0
M  V30 3510 H 346.399 -0.310116 1.40621 0
M  V30 3511 H 348.352 -3.08409 2.87162 0
M  V30 3512 H 347.076 -2.8134 1.65878 0
M  V30 3513 H 345.735 -1.50508 3.3428 0
M  V30 3514 H 345.383 -3.9683 3.09088 0
M  V30 3515 H 345.083 -3.43831 4.76502 0
M  V30 3516 H 346.607 -4.27708 4.35773 0
M  V30 3517 H 348.021 -2.20642 5.29141 0
M  V30 3518 H 346.418 -1.58942 5.78669 0
M  V30 3519 H 347.488 -0.561506 4.81638 0
M  V30 3520 N 348.832 -1.54138 -0.328536 0
M  V30 3521 C 350.08 -1.71765 -1.06496 0
M  V30 3522 C 350.401 -0.49149 -1.88704 0
M  V30 3523 O 349.671 0.494539 -1.89555 0
M  V30 3524 H 348.251 -0.633295 -0.396164 0
M  V30 3525 H 350.913 -1.91429 -0.366176 0
M  V30 3526 H 350.009 -2.5951 -1.73381 0
M  V30 3527 N 350.31 0.590341 -1.46126 0
M  V30 3528 C 351.558 1.34616 -1.50742 0
M  V30 3529 C 351.879 1.94363 -0.157486 0
M  V30 3530 O 351.149 1.78136 0.815136 0
M  V30 3531 H 349.729 0.499789 -0.555175 0
M  V30 3532 H 352.391 0.691953 -1.82203 0
M  V30 3533 H 351.487 2.15678 -2.25587 0
M  V30 3534 N 351.788 1.33704 0.83433 0
M  V30 3535 C 353.199 1.22813 1.4062 0
M  V30 3536 C 353.55 -0.151107 1.95617 0
M  V30 3537 O 352.675 -1.05092 1.89168 0
M  V30 3538 C 353.27 2.22355 2.55624 0
M  V30 3539 C 351.829 2.1529 3.08751 0
M  V30 3540 C 350.976 2.09589 1.8157 0
M  V30 3541 H 353.927 1.45236 0.639702 0
M  V30 3542 H 353.948 1.83391 3.33389 0
M  V30 3543 H 353.46 3.22728 2.15566 0
M  V30 3544 H 351.561 1.18235 3.53343 0
M  V30 3545 H 351.674 3.06038 3.68616 0
M  V30 3546 H 350.038 1.55134 2.02004 0
M  V30 3547 H 350.821 3.11777 1.43701 0
M  V30 3548 N 353.266 -1.05314 1.17247 0
M  V30 3549 C 354.491 -1.82509 0.985148 0
M  V30 3550 C 354.916 -1.82343 -0.461788 0
M  V30 3551 O 354.274 -1.23151 -1.33055 0
M  V30 3552 C 354.322 -3.26566 1.52929 0
M  V30 3553 O 353.426 -4.05666 0.742225 0
M  V30 3554 H 352.767 -0.564347 0.349869 0
M  V30 3555 H 355.297 -1.32718 1.55715 0
M  V30 3556 H 355.307 -3.77369 1.55103 0
M  V30 3557 H 353.982 -3.26001 2.58256 0
M  V30 3558 H 352.559 -3.64397 0.791794 0
M  V30 3559 N 354.744 -0.972509 -1.24016 0
M  V30 3560 C 355.99 -0.637978 -1.92504 0
M  V30 3561 C 356.323 0.825383 -1.75787 0
M  V30 3562 O 355.598 1.59442 -1.11393 0
M  V30 3563 C 355.881 -1.01942 -3.45369 0
M  V30 3564 C 355.734 -2.53983 -3.71231 0
M  V30 3565 C 357.053 -0.55751 -4.36555 0
M  V30 3566 H 354.172 -0.233248 -0.699117 0
M  V30 3567 H 356.814 -1.21238 -1.46292 0
M  V30 3568 H 354.964 -0.530656 -3.84859 0
M  V30 3569 H 356.636 -3.10374 -3.41271 0
M  V30 3570 H 354.879 -2.96968 -3.16216 0
M  V30 3571 H 355.55 -2.75723 -4.78206 0
M  V30 3572 H 358.026 -0.977029 -4.04467 0
M  V30 3573 H 356.902 -0.85292 -5.42233 0
M  V30 3574 H 357.163 0.542328 -4.38761 0
M  V30 3575 N 356.222 1.38976 -0.743202 0
M  V30 3576 C 357.469 2.00343 -0.294752 0
M  V30 3577 C 357.797 1.58983 1.12047 0
M  V30 3578 O 357.052 0.813809 1.77977 0
M  V30 3579 C 357.351 3.55647 -0.353517 0
M  V30 3580 C 357.017 4.16685 -1.72292 0
M  V30 3581 C 355.679 4.3307 -2.09771 0
M  V30 3582 C 358.031 4.50464 -2.62168 0
M  V30 3583 C 355.359 4.80526 -3.36618 0
M  V30 3584 C 357.711 4.99332 -3.88395 0
M  V30 3585 C 356.375 5.13924 -4.25956 0
M  V30 3586 H 355.645 0.733108 -0.107857 0
M  V30 3587 H 358.292 1.6618 -0.951651 0
M  V30 3588 H 356.597 3.89884 0.386954 0
M  V30 3589 H 358.294 4.00998 0.0117269 0
M  V30 3590 H 354.884 4.04339 -1.42155 0
M  V30 3591 H 359.068 4.37416 -2.3448 0
M  V30 3592 H 354.324 4.90008 -3.65653 0
M  V30 3593 H 358.498 5.2444 -4.58187 0
M  V30 3594 H 356.125 5.50457 -5.2431 0
M  V30 3595 N 357.7 0.491464 1.49741 0
M  V30 3596 C 358.63 -0.28154 2.31796 0
M  V30 3597 C 359.611 -0.971473 1.3963 0
M  V30 3598 O 360.796 -0.964719 1.68543 0
M  V30 3599 C 357.926 -1.35203 3.19902 0
M  V30 3600 C 356.88 -0.782529 4.20786 0
M  V30 3601 C 356.206 -1.95283 4.97764 0
M  V30 3602 C 357.506 0.21999 5.21837 0
M  V30 3603 H 359.2 0.403355 2.96671 0
M  V30 3604 H 356.746 0.195425 1.42668 0
M  V30 3605 H 358.699 -1.90045 3.76113 0
M  V30 3606 H 357.423 -2.06598 2.52953 0
M  V30 3607 H 356.082 -0.255928 3.65706 0
M  V30 3608 H 355.73 -2.65423 4.2727 0
M  V30 3609 H 355.43 -1.57789 5.66018 0
M  V30 3610 H 356.954 -2.50577 5.56816 0
M  V30 3611 H 358.368 -0.23996 5.72798 0
M  V30 3612 H 356.765 0.51026 5.97927 0
M  V30 3613 H 357.835 1.13911 4.7133 0
M  V30 3614 N 359.178 -1.55987 0.224894 0
M  V30 3615 C 360.425 -1.9839 -0.4059 0
M  V30 3616 C 360.753 -1.11261 -1.59535 0
M  V30 3617 O 360.008 -0.158314 -1.95059 0
M  V30 3618 C 360.307 -3.46394 -0.880106 0
M  V30 3619 C 359.973 -4.5046 0.19918 0
M  V30 3620 C 358.635 -4.7864 0.495661 0
M  V30 3621 C 360.987 -5.12855 0.928939 0
M  V30 3622 C 358.315 -5.66497 1.52636 0
M  V30 3623 C 360.667 -6.01828 1.949 0
M  V30 3624 C 359.331 -6.28351 2.25236 0
M  V30 3625 H 358.601 -0.725961 -0.148529 0
M  V30 3626 H 361.248 -1.88668 0.328113 0
M  V30 3627 H 359.553 -3.53337 -1.69294 0
M  V30 3628 H 361.25 -3.76577 -1.37808 0
M  V30 3629 H 357.84 -4.28579 -0.0420526 0
M  V30 3630 H 362.024 -4.9115 0.713129 0
M  V30 3631 H 357.28 -5.8531 1.76698 0
M  V30 3632 H 361.454 -6.49225 2.51951 0
M  V30 3633 H 359.081 -6.96226 3.05244 0
M  V30 3634 N 360.656 0.0484629 -1.57525 0
M  V30 3635 C 362.067 0.597486 -1.76881 0
M  V30 3636 C 362.418 1.76664 -0.853475 0
M  V30 3637 O 361.543 2.16357 -0.0433656 0
M  V30 3638 C 362.138 1.09066 -3.20765 0
M  V30 3639 C 360.697 1.58535 -3.41385 0
M  V30 3640 C 359.844 0.514868 -2.72478 0
M  V30 3641 H 362.795 -0.177758 -1.57701 0
M  V30 3642 H 362.816 1.95875 -3.2621 0
M  V30 3643 H 362.328 0.239521 -3.8736 0
M  V30 3644 H 360.429 2.45898 -2.79937 0
M  V30 3645 H 360.542 1.64622 -4.49929 0
M  V30 3646 H 358.906 0.965407 -2.35695 0
M  V30 3647 H 359.689 -0.32648 -3.41744 0
M  V30 3648 N 362.134 1.5431 0.320358 0
M  V30 3649 C 363.545 1.63872 0.894594 0
M  V30 3650 C 363.896 0.534847 1.88769 0
M  V30 3651 O 363.021 -0.331732 2.13842 0
M  V30 3652 C 363.616 2.97049 1.62934 0
M  V30 3653 C 362.175 3.08796 2.15226 0
M  V30 3654 C 361.322 2.59456 0.978671 0
M  V30 3655 H 364.273 1.58398 0.0978544 0
M  V30 3656 H 364.294 2.87388 2.49376 0
M  V30 3657 H 363.806 3.7737 0.906302 0
M  V30 3658 H 361.907 2.33156 2.90636 0
M  V30 3659 H 362.02 4.14649 2.40006 0
M  V30 3660 H 360.384 2.1543 1.35875 0
M  V30 3661 H 361.167 3.42237 0.269895 0
M  V30 3662 N 363.613 -0.582584 1.46437 0
M  V30 3663 C 364.56 -1.69164 1.5701 0
M  V30 3664 C 365.53 -1.60847 0.414403 0
M  V30 3665 O 366.715 -1.80058 0.631171 0
M  V30 3666 C 363.855 -3.075 1.56646 0
M  V30 3667 C 362.968 -3.2644 2.82951 0
M  V30 3668 C 362.103 -4.55026 2.7409 0
M  V30 3669 C 361.142 -4.6731 3.95333 0
M  V30 3670 N 360.279 -5.87221 3.84858 0
M  V30 3671 H 365.119 -1.59464 2.51744 0
M  V30 3672 H 362.656 -0.777186 1.24893 0
M  V30 3673 H 364.614 -3.8757 1.5442 0
M  V30 3674 H 363.244 -3.16096 0.654439 0
M  V30 3675 H 362.296 -2.39974 2.95155 0
M  V30 3676 H 363.608 -3.31385 3.72808 0
M  V30 3677 H 362.762 -5.43324 2.6997 0
M  V30 3678 H 361.501 -4.52519 1.81873 0
M  V30 3679 H 360.506 -3.77429 3.99784 0
M  V30 3680 H 361.731 -4.71595 4.88646 0
M  V30 3681 H 359.677 -5.85712 2.95427 0
M  V30 3682 H 359.594 -5.93435 4.6837 0
M  V30 3683 H 360.862 -6.7795 3.84713 0
M  V30 3684 N 365.091 -1.34144 -0.827227 0
M  V30 3685 C 366.502 -1.23557 -1.39966 0
M  V30 3686 C 366.853 0.140731 -1.95695 0
M  V30 3687 O 365.978 1.04087 -1.89723 0
M  V30 3688 C 366.573 -2.23708 -2.54441 0
M  V30 3689 C 365.132 -2.16924 -3.07605 0
M  V30 3690 C 364.279 -2.10549 -1.80456 0
M  V30 3691 H 367.23 -1.45573 -0.631991 0
M  V30 3692 H 367.251 -1.85157 -3.32411 0
M  V30 3693 H 366.763 -3.23866 -2.13851 0
M  V30 3694 H 364.864 -1.20107 -3.52711 0
M  V30 3695 H 364.977 -3.07988 -3.66988 0
M  V30 3696 H 363.341 -1.56203 -2.01178 0
M  V30 3697 H 364.124 -3.12535 -1.42046 0
M  V30 3698 N 366.569 1.04691 -1.17803 0
M  V30 3699 C 367.516 2.12557 -0.899343 0
M  V30 3700 C 368.486 1.65339 0.158771 0
M  V30 3701 O 369.671 1.90789 0.0204797 0
M  V30 3702 C 366.811 3.42481 -0.424315 0
M  V30 3703 C 365.924 4.03346 -1.54713 0
M  V30 3704 C 365.059 5.21208 -1.02546 0
M  V30 3705 C 364.098 5.74089 -2.12339 0
M  V30 3706 N 363.235 6.83247 -1.61612 0
M  V30 3707 H 368.075 2.35734 -1.823 0
M  V30 3708 H 365.612 1.1564 -0.909159 0
M  V30 3709 H 367.57 4.16996 -0.130421 0
M  V30 3710 H 366.2 3.19471 0.462377 0
M  V30 3711 H 365.252 3.2622 -1.95664 0
M  V30 3712 H 366.564 4.38628 -2.37501 0
M  V30 3713 H 365.718 6.02812 -0.685718 0
M  V30 3714 H 364.457 4.87414 -0.167084 0
M  V30 3715 H 363.462 4.91111 -2.47165 0
M  V30 3716 H 364.687 6.0993 -2.98601 0
M  V30 3717 H 362.633 6.5134 -0.780533 0
M  V30 3718 H 362.55 7.17559 -2.38003 0
M  V30 3719 H 363.818 7.68491 -1.30545 0
M  V30 3720 N 368.047 0.979072 1.23499 0
M  V30 3721 C 369.324 0.563674 1.87302 0
M  V30 3722 C 369.704 -0.959199 1.88049 0
M  V30 3723 O 369.052 -1.83535 1.36114 0
M  V30 3724 C 369.262 1.16822 3.28867 0
M  V30 3725 C 370.61 1.26014 4.0547 0
M  V30 3726 O 371.634 1.12158 3.38082 0
M  V30 3727 O 370.493 1.48044 5.26066 0
M  V30 3728 H 367.587 0.189602 0.804972 0
M  V30 3729 H 370.133 1.07407 1.31384 0
M  V30 3730 H 368.905 2.21049 3.22883 0
M  V30 3731 H 368.528 0.642564 3.92373 0
M  V30 3732 N 369.525 -1.3858 0.750561 0
M  V30 3733 C 370.753 -2.04471 0.316098 0
M  V30 3734 C 371.168 -1.56606 -1.05452 0
M  V30 3735 O 370.525 -0.737784 -1.66922 0
M  V30 3736 C 370.576 -3.60025 0.326275 0
M  V30 3737 O 370.297 -4.06133 1.6428 0
M  V30 3738 C 371.798 -4.43131 -0.122429 0
M  V30 3739 H 369.018 -0.65717 0.135528 0
M  V30 3740 H 371.562 -1.77329 1.01857 0
M  V30 3741 H 369.717 -3.86014 -0.327431 0
M  V30 3742 H 370.131 -5.00547 1.56693 0
M  V30 3743 H 371.605 -5.51963 -0.0641473 0
M  V30 3744 H 372.082 -4.23333 -1.16988 0
M  V30 3745 H 372.688 -4.22323 0.50229 0
M  V30 3746 N 371.003 -0.499398 -1.49478 0
M  V30 3747 C 371.933 0.269244 -2.31943 0
M  V30 3748 C 372.914 0.964054 -1.40143 0
M  V30 3749 O 374.099 0.955767 -1.69052 0
M  V30 3750 C 371.229 1.33504 -3.20615 0
M  V30 3751 C 370.183 0.760202 -4.21195 0
M  V30 3752 C 369.509 1.9264 -4.98792 0
M  V30 3753 C 370.809 -0.247661 -5.21712 0
M  V30 3754 H 372.503 -0.419082 -2.96452 0
M  V30 3755 H 370.049 -0.202988 -1.42562 0
M  V30 3756 H 372.002 1.88048 -3.77115 0
M  V30 3757 H 370.726 2.05253 -2.54045 0
M  V30 3758 H 369.385 0.23653 -3.65836 0
M  V30 3759 H 369.033 2.63154 -4.28671 0
M  V30 3760 H 368.733 1.54785 -5.66847 0
M  V30 3761 H 370.257 2.4762 -5.58137 0
M  V30 3762 H 371.671 0.209579 -5.72917 0
M  V30 3763 H 370.068 -0.541962 -5.97648 0
M  V30 3764 H 371.138 -1.16409 -4.7072 0
M  V30 3765 N 372.481 1.55866 -0.233164 0
M  V30 3766 C 373.414 2.16794 0.712442 0
M  V30 3767 C 374.392 1.1158 1.18273 0
M  V30 3768 O 375.576 1.39897 1.26337 0
M  V30 3769 C 372.703 2.75757 1.96661 0
M  V30 3770 C 371.749 3.93902 1.63533 0
M  V30 3771 S 372.582 5.30223 0.74995 0
M  V30 3772 C 373.738 5.92631 2.01343 0
M  V30 3773 H 373.971 2.96662 0.194617 0
M  V30 3774 H 371.504 1.5439 -0.0177425 0
M  V30 3775 H 373.462 3.10367 2.68668 0
M  V30 3776 H 372.123 1.9586 2.45556 0
M  V30 3777 H 371.316 4.33702 2.56747 0
M  V30 3778 H 370.918 3.60499 0.995804 0
M  V30 3779 H 373.21 6.09312 2.96219 0
M  V30 3780 H 374.153 6.88388 1.65915 0
M  V30 3781 H 374.561 5.21571 2.15925 0
M  V30 3782 N 373.959 -0.0401083 1.57549 0
M  V30 3783 C 375.208 -0.732108 1.87944 0
M  V30 3784 C 375.521 -1.77107 0.830206 0
M  V30 3785 O 376.727 -2.51488 1.02302 0
M  V30 3786 C 375.183 -1.35315 3.33494 0
M  V30 3787 C 374.791 -0.351105 4.46622 0
M  V30 3788 C 376.535 -2.02566 3.73051 0
M  V30 3789 C 374.442 -0.979859 5.83226 0
M  V30 3790 H 373.372 -0.277188 0.701201 0
M  V30 3791 H 376.023 0.0138501 1.83495 0
M  V30 3792 H 374.405 -2.14844 3.32653 0
M  V30 3793 H 375.579 0.416674 4.58912 0
M  V30 3794 H 373.894 0.218708 4.15825 0
M  V30 3795 H 376.491 -2.50441 4.72423 0
M  V30 3796 H 376.834 -2.83904 3.04474 0
M  V30 3797 H 377.367 -1.29827 3.76018 0
M  V30 3798 H 374.106 -0.206135 6.55176 0
M  V30 3799 H 373.626 -1.71774 5.74677 0
M  V30 3800 H 375.305 -1.49046 6.29599 0
M  V30 3801 N 375.437 -1.54477 -0.31217 0
M  V30 3802 C 376.662 -1.77526 -1.07235 0
M  V30 3803 C 377.087 -0.527775 -1.80544 0
M  V30 3804 O 376.445 0.52121 -1.73646 0
M  V30 3805 C 376.493 -2.97535 -2.03728 0
M  V30 3806 O 375.597 -2.69878 -3.11833 0
M  V30 3807 H 374.938 -0.58792 -0.30862 0
M  V30 3808 H 377.468 -2.01532 -0.352993 0
M  V30 3809 H 377.478 -3.25198 -2.46395 0
M  V30 3810 H 376.153 -3.87996 -1.49774 0
M  V30 3811 H 374.73 -2.53199 -2.7376 0
M  V30 3812 N 376.915 0.57481 -1.46744 0
M  V30 3813 C 378.331 0.898981 -1.31873 0
M  V30 3814 C 378.531 1.99313 -0.29605 0
M  V30 3815 O 377.587 2.50728 0.298621 0
M  V30 3816 C 378.9 1.30886 -2.7072 0
M  V30 3817 C 380.448 1.42127 -2.78871 0
M  V30 3818 C 380.923 1.86478 -4.18318 0
M  V30 3819 N 382.414 1.93658 -4.20774 0
M  V30 3820 C 383.149 2.29267 -5.2557 0
M  V30 3821 N 382.645 2.63612 -6.40688 0
M  V30 3822 N 384.438 2.29889 -5.1294 0
M  V30 3823 H 376.589 -0.147839 -2.11885 0
M  V30 3824 H 378.852 -0.00347013 -0.947994 0
M  V30 3825 H 378.558 0.578853 -3.46904 0
M  V30 3826 H 378.432 2.26874 -3.01343 0
M  V30 3827 H 380.819 2.14213 -2.0297 0
M  V30 3828 H 380.9 0.443705 -2.51922 0
M  V30 3829 H 380.544 1.14968 -4.94717 0
M  V30 3830 H 380.474 2.85207 -4.42679 0
M  V30 3831 H 382.965 1.69574 -3.37718 0
M  V30 3832 H 383.278 2.89759 -7.16421 0
M  V30 3833 H 381.623 2.61232 -6.44036 0
M  V30 3834 H 384.814 2.02485 -4.22039 0
M  V30 3835 H 384.987 2.57312 -5.94722 0
M  V30 3836 N 378.394 1.34581 0.820102 0
M  V30 3837 C 379.622 1.3018 1.60813 0
M  V30 3838 C 380.037 -0.123551 1.88395 0
M  V30 3839 O 379.394 -1.07148 1.47735 0
M  V30 3840 C 379.445 2.09312 2.94739 0
M  V30 3841 O 379.166 3.46288 2.68358 0
M  V30 3842 C 380.667 2.1234 3.89136 0
M  V30 3843 H 377.887 0.447726 0.499782 0
M  V30 3844 H 380.431 1.77237 1.02017 0
M  V30 3845 H 378.586 1.65889 3.50085 0
M  V30 3846 H 379 3.87227 3.53774 0
M  V30 3847 H 380.474 2.72126 4.80262 0
M  V30 3848 H 380.951 1.11854 4.24718 0
M  V30 3849 H 381.557 2.55864 3.39726 0
M  V30 3850 N 379.872 -1.04064 1.18357 0
M  V30 3851 C 381.283 -1.58719 0.98312 0
M  V30 3852 C 381.634 -1.90556 -0.467193 0
M  V30 3853 O 380.759 -1.69561 -1.34454 0
M  V30 3854 C 381.354 -2.88379 1.77828 0
M  V30 3855 C 379.913 -3.3965 1.62218 0
M  V30 3856 C 379.06 -2.13235 1.77274 0
M  V30 3857 H 382.011 -0.867359 1.32901 0
M  V30 3858 H 382.032 -3.58773 1.26737 0
M  V30 3859 H 381.544 -2.65176 2.83379 0
M  V30 3860 H 379.645 -3.67866 0.592036 0
M  V30 3861 H 379.758 -4.13475 2.42023 0
M  V30 3862 H 378.122 -2.24542 1.20221 0
M  V30 3863 H 378.905 -1.92487 2.8426 0
M  V30 3864 N 381.35 -0.985608 -1.22978 0
M  V30 3865 C 382.26 -0.538548 -2.28335 0
M  V30 3866 C 383.276 0.409163 -1.69121 0
M  V30 3867 O 384.452 0.277797 -1.99475 0
M  V30 3868 C 381.517 0.146867 -3.46389 0
M  V30 3869 C 380.578 -0.842896 -4.20944 0
M  V30 3870 C 379.811 -0.190095 -5.33361 0
M  V30 3871 O 380.034 1.01767 -5.61248 0
M  V30 3872 O 378.968 -0.891289 -5.95264 0
M  V30 3873 H 382.794 -1.41487 -2.68729 0
M  V30 3874 H 380.379 -0.753495 -1.29007 0
M  V30 3875 H 382.261 0.531125 -4.1804 0
M  V30 3876 H 380.936 0.997871 -3.07935 0
M  V30 3877 H 379.843 -1.27795 -3.51595 0
M  V30 3878 H 381.176 -1.66287 -4.6326 0
M  V30 3879 N 382.828 1.3818 -0.7579 0
M  V30 3880 C 384.074 2.00316 -0.316453 0
M  V30 3881 C 384.407 1.60026 1.10025 0
M  V30 3882 O 383.682 0.839835 1.75434 0
M  V30 3883 C 383.965 3.57349 -0.444245 0
M  V30 3884 C 383.818 4.07591 -1.90236 0
M  V30 3885 C 385.137 4.3981 0.1598 0
M  V30 3886 H 382.256 0.727741 -0.116459 0
M  V30 3887 H 384.898 1.6406 -0.958352 0
M  V30 3888 H 383.048 3.88365 0.102233 0
M  V30 3889 H 384.72 3.87199 -2.50748 0
M  V30 3890 H 382.963 3.60297 -2.41595 0
M  V30 3891 H 383.634 5.16677 -1.94291 0
M  V30 3892 H 386.11 4.14971 -0.306314 0
M  V30 3893 H 384.986 5.48885 0.0401675 0
M  V30 3894 H 385.247 4.24102 1.24859 0
M  V30 3895 N 384.306 0.507319 1.49211 0
M  V30 3896 C 385.534 -0.0315749 2.06876 0
M  V30 3897 C 385.949 -1.30241 1.36685 0
M  V30 3898 O 385.306 -1.76937 0.447152 0
M  V30 3899 C 385.357 -0.282627 3.60393 0
M  V30 3900 O 385.078 0.937835 4.27944 0
M  V30 3901 C 386.579 -0.864453 4.3479 0
M  V30 3902 H 383.799 0.0233048 0.670595 0
M  V30 3903 H 386.343 0.706484 1.91909 0
M  V30 3904 H 384.498 -0.97068 3.75042 0
M  V30 3905 H 384.912 0.704567 5.19746 0
M  V30 3906 H 386.386 -0.989664 5.43056 0
M  V30 3907 H 386.863 -1.86382 3.97692 0
M  V30 3908 H 387.469 -0.213672 4.24763 0
M  V30 3909 N 385.784 -1.5574 0.241426 0
M  V30 3910 C 387.024 -2.00714 -0.38644 0
M  V30 3911 C 387.388 -1.12586 -1.55526 0
M  V30 3912 O 388.589 -1.46992 -2.25048 0
M  V30 3913 C 386.86 -3.48534 -0.791128 0
M  V30 3914 S 388.419 -4.15519 -1.41029 0
M  V30 3915 H 385.237 -0.700484 -0.121834 0
M  V30 3916 H 387.839 -1.92243 0.355377 0
M  V30 3917 H 386.543 -4.10342 0.0689225 0
M  V30 3918 H 386.074 -3.6092 -1.56526 0
M  V30 3919 H 388.089 -4.16352 -2.69936 0
M  V30 3920 N 387.262 0.0317525 -1.57568 0
M  V30 3921 C 388.508 0.724175 -1.8943 0
M  V30 3922 C 388.841 1.75149 -0.838836 0
M  V30 3923 O 388.116 1.93948 0.146422 0
M  V30 3924 C 388.399 1.39615 -3.31933 0
M  V30 3925 C 388.252 0.382537 -4.4817 0
M  V30 3926 C 389.571 2.33084 -3.73309 0
M  V30 3927 H 386.69 0.261797 -0.688935 0
M  V30 3928 H 389.332 -0.013017 -1.89996 0
M  V30 3929 H 387.482 2.02451 -3.31581 0
M  V30 3930 H 389.154 -0.243689 -4.60656 0
M  V30 3931 H 387.397 -0.29844 -4.32772 0
M  V30 3932 H 388.068 0.891145 -5.44759 0
M  V30 3933 H 390.544 1.80295 -3.7501 0
M  V30 3934 H 389.42 2.77084 -4.73831 0
M  V30 3935 H 389.681 3.19643 -3.05419 0
M  V30 3936 N 388.74 1.54641 0.303973 0
M  V30 3937 C 389.986 1.74038 1.04109 0
M  V30 3938 C 390.319 0.523051 1.87024 0
M  V30 3939 O 389.594 -0.479874 1.88487 0
M  V30 3940 C 389.877 3.02761 1.94955 0
M  V30 3941 C 389.73 4.34787 1.1524 0
M  V30 3942 C 391.049 3.27336 2.94175 0
M  V30 3943 H 388.168 0.63323 0.377079 0
M  V30 3944 H 390.81 1.87354 0.316001 0
M  V30 3945 H 388.96 2.9154 2.56782 0
M  V30 3946 H 390.632 4.57922 0.557236 0
M  V30 3947 H 388.875 4.31407 0.455053 0
M  V30 3948 H 389.546 5.21116 1.8205 0
M  V30 3949 H 392.022 3.38148 2.42477 0
M  V30 3950 H 390.898 4.18726 3.54908 0
M  V30 3951 H 391.159 2.45491 3.67677 0
M  V30 3952 N 390.218 -0.567019 1.47046 0
M  V30 3953 C 391.464 -1.32658 1.53394 0
M  V30 3954 C 391.797 -1.93254 0.19148 0
M  V30 3955 O 391.072 -1.77338 -0.798844 0
M  V30 3956 C 391.355 -2.44412 2.64452 0
M  V30 3957 C 391.208 -1.88749 4.08282 0
M  V30 3958 C 392.527 -3.46387 2.71485 0
M  V30 3959 H 389.646 -0.48098 0.558415 0
M  V30 3960 H 392.288 -0.635481 1.79058 0
M  V30 3961 H 390.438 -3.03363 2.427 0
M  V30 3962 H 392.11 -1.34134 4.41368 0
M  V30 3963 H 390.353 -1.19481 4.17021 0
M  V30 3964 H 391.024 -2.69491 4.81745 0
M  V30 3965 H 393.5 -2.9734 2.91081 0
M  V30 3966 H 392.376 -4.2202 3.50985 0
M  V30 3967 H 392.637 -4.04616 1.78153 0
M  V30 3968 N 391.696 -1.35014 -0.812953 0
M  V30 3969 C 392.973 -1.18502 -1.55617 0
M  V30 3970 C 393.353 0.238421 -2.09749 0
M  V30 3971 O 392.701 1.2411 -1.91857 0
M  V30 3972 C 392.911 -2.24783 -2.66971 0
M  V30 3973 C 394.259 -2.60268 -3.35478 0
M  V30 3974 O 395.283 -2.23648 -2.77236 0
M  V30 3975 O 394.142 -3.2321 -4.40678 0
M  V30 3976 H 391.236 -0.459984 -0.687272 0
M  V30 3977 H 393.782 -1.46677 -0.853464 0
M  V30 3978 H 392.554 -3.20284 -2.24798 0
M  V30 3979 H 392.177 -1.97841 -3.44884 0
M  V30 3980 N 393.175 1.03435 -1.18907 0
M  V30 3981 C 394.421 1.77005 -0.989798 0
M  V30 3982 C 394.754 1.88205 0.478816 0
M  V30 3983 O 394.029 1.39481 1.35556 0
M  V30 3984 C 394.312 3.19925 -1.65287 0
M  V30 3985 C 394.165 3.1663 -3.19477 0
M  V30 3986 C 395.484 4.18189 -1.37134 0
M  V30 3987 H 392.603 0.642538 -0.360991 0
M  V30 3988 H 395.245 1.20784 -1.46667 0
M  V30 3989 H 393.395 3.67929 -1.24741 0
M  V30 3990 H 395.067 2.76567 -3.692 0
M  V30 3991 H 393.31 2.54491 -3.51307 0
M  V30 3992 H 393.981 4.1758 -3.61013 0
M  V30 3993 H 396.457 3.78761 -1.72276 0
M  V30 3994 H 395.333 5.16394 -1.86087 0
M  V30 3995 H 395.594 4.41112 -0.295424 0
M  V30 3996 N 394.653 0.992116 1.22453 0
M  V30 3997 C 395.878 0.685644 1.95739 0
M  V30 3998 C 396.303 -0.743 1.72804 0
M  V30 3999 O 395.661 -1.50778 1.00676 0
M  V30 4000 C 395.709 0.996293 3.46564 0
M  V30 4001 O 394.813 0.0945512 4.12292 0
M  V30 4002 H 394.154 0.256694 0.612376 0
M  V30 4003 H 396.684 1.32888 1.5557 0
M  V30 4004 H 396.694 0.93781 3.97076 0
M  V30 4005 H 395.369 2.03733 3.62582 0
M  V30 4006 H 393.946 0.208451 3.72317 0
M  V30 4007 N 396.131 -1.37776 0.765217 0
M  V30 4008 C 397.081 -2.2768 0.12075 0
M  V30 4009 C 398.065 -1.45778 -0.680988 0
M  V30 4010 O 399.257 -1.684 -0.545033 0
M  V30 4011 C 396.386 -3.34722 -0.762626 0
M  V30 4012 C 395.472 -4.24074 0.0465881 0
M  V30 4013 N 395.863 -4.93939 1.08892 0
M  V30 4014 C 394.161 -4.45643 -0.178418 0
M  V30 4015 C 394.862 -5.59845 1.57951 0
M  V30 4016 N 393.838 -5.36218 0.892797 0
M  V30 4017 H 397.64 -2.79166 0.918889 0
M  V30 4018 H 395.154 -1.50816 0.602353 0
M  V30 4019 H 397.151 -3.98031 -1.24005 0
M  V30 4020 H 395.811 -2.84793 -1.55959 0
M  V30 4021 H 396.822 -4.96572 1.47095 0
M  V30 4022 H 393.499 -4.06599 -0.9478 0
M  V30 4023 H 394.889 -6.25703 2.44838 0
M  V30 4024 N 397.609 -0.515225 -1.4894 0
M  V30 4025 C 398.519 0.259774 -2.33157 0
M  V30 4026 C 399.535 0.953501 -1.45548 0
M  V30 4027 O 400.711 0.931735 -1.78552 0
M  V30 4028 C 397.776 1.30193 -3.21326 0
M  V30 4029 C 396.837 0.620129 -4.24797 0
M  V30 4030 C 396.07 1.61263 -5.08753 0
M  V30 4031 O 396.293 2.84389 -4.94448 0
M  V30 4032 O 395.227 1.16013 -5.90614 0
M  V30 4033 H 399.053 -0.429932 -3.00641 0
M  V30 4034 H 396.638 -0.276346 -1.46822 0
M  V30 4035 H 398.52 1.90455 -3.75905 0
M  V30 4036 H 397.195 1.97431 -2.56521 0
M  V30 4037 H 396.102 -0.0226019 -3.74093 0
M  V30 4038 H 397.435 -0.0100493 -4.92199 0
M  V30 4039 N 399.087 1.5561 -0.249682 0
M  V30 4040 C 400.364 1.90932 0.424761 0
M  V30 4041 C 400.744 1.17078 1.75658 0
M  V30 4042 O 400.092 0.289176 2.26663 0
M  V30 4043 C 400.302 3.43975 0.590109 0
M  V30 4044 C 401.65 4.15281 0.884714 0
M  V30 4045 O 402.674 3.49729 0.67587 0
M  V30 4046 O 401.533 5.31236 1.28259 0
M  V30 4047 H 398.627 0.794815 0.228468 0
M  V30 4048 H 401.173 1.67135 -0.293954 0
M  V30 4049 H 399.945 3.89748 -0.34818 0
M  V30 4050 H 399.568 3.73644 1.35926 0
M  V30 4051 N 400.565 -0.0233959 1.57583 0
M  V30 4052 C 401.976 -0.56927 1.77809 0
M  V30 4053 C 402.327 -1.75284 0.881472 0
M  V30 4054 O 401.452 -2.1626 0.0777805 0
M  V30 4055 C 402.047 -1.03949 3.22459 0
M  V30 4056 C 400.606 -1.53084 3.43864 0
M  V30 4057 C 399.753 -0.471454 2.73263 0
M  V30 4058 H 402.704 0.202825 1.57399 0
M  V30 4059 H 402.725 -1.90661 3.29285 0
M  V30 4060 H 402.237 -0.177865 3.87692 0
M  V30 4061 H 400.338 -2.41414 2.83814 0
M  V30 4062 H 400.451 -1.57443 4.52491 0
M  V30 4063 H 398.815 -0.927788 2.37201 0
M  V30 4064 H 399.598 0.380808 3.41181 0
M  V30 4065 N 402.043 -1.548 -0.295768 0
M  V30 4066 C 402.953 -1.89177 -1.38742 0
M  V30 4067 C 403.969 -0.786481 -1.55211 0
M  V30 4068 O 405.145 -1.08344 -1.69775 0
M  V30 4069 C 402.21 -2.13663 -2.73036 0
M  V30 4070 C 401.271 -3.37349 -2.65508 0
M  V30 4071 C 400.504 -3.60658 -3.93398 0
M  V30 4072 O 400.727 -2.86882 -4.93006 0
M  V30 4073 O 399.661 -4.54179 -3.94975 0
M  V30 4074 H 403.487 -2.82059 -1.12589 0
M  V30 4075 H 401.072 -1.41056 -0.492295 0
M  V30 4076 H 402.954 -2.3094 -3.52484 0
M  V30 4077 H 401.629 -1.23967 -2.99022 0
M  V30 4078 H 400.536 -3.25431 -1.84514 0
M  V30 4079 H 401.869 -4.27192 -2.44474 0
M  V30 4080 N 403.521 0.559213 -1.47345 0
M  V30 4081 C 404.767 1.31843 -1.54095 0
M  V30 4082 C 405.1 1.93149 -0.201726 0
M  V30 4083 O 404.375 1.77759 0.789428 0
M  V30 4084 C 404.658 2.43006 -2.65744 0
M  V30 4085 C 404.511 1.86581 -4.09277 0
M  V30 4086 C 405.83 3.44943 -2.73318 0
M  V30 4087 H 402.949 0.478012 -0.560957 0
M  V30 4088 H 405.591 0.625977 -1.79392 0
M  V30 4089 H 403.741 3.02072 -2.44305 0
M  V30 4090 H 405.413 1.31792 -4.42073 0
M  V30 4091 H 403.656 1.17268 -4.17649 0
M  V30 4092 H 404.327 2.66933 -4.83168 0
M  V30 4093 H 406.803 2.95793 -2.92653 0
M  V30 4094 H 405.679 4.20153 -3.53218 0
M  V30 4095 H 405.94 4.03665 -1.80296 0
M  V30 4096 N 404.999 1.35443 0.805782 0
M  V30 4097 C 405.946 1.28431 1.91766 0
M  V30 4098 C 406.916 0.156102 1.65365 0
M  V30 4099 O 408.101 0.339936 1.87747 0
M  V30 4100 C 405.241 1.06301 3.2832 0
M  V30 4101 C 404.354 2.2805 3.66902 0
M  V30 4102 C 403.489 1.99064 4.92491 0
M  V30 4103 C 402.528 3.16863 5.23703 0
M  V30 4104 N 401.665 2.87647 6.40471 0
M  V30 4105 H 406.505 2.23511 1.97096 0
M  V30 4106 H 404.042 1.11105 0.964054 0
M  V30 4107 H 406 0.915012 4.07042 0
M  V30 4108 H 404.63 0.148822 3.22457 0
M  V30 4109 H 403.682 2.53711 2.83434 0
M  V30 4110 H 404.994 3.1601 3.85927 0
M  V30 4111 H 404.148 1.81099 5.7904 0
M  V30 4112 H 402.887 1.0839 4.75503 0
M  V30 4113 H 401.892 3.35404 4.35642 0
M  V30 4114 H 403.117 4.08339 5.4262 0
M  V30 4115 H 401.063 1.99568 6.24907 0
M  V30 4116 H 400.98 3.69141 6.59751 0
M  V30 4117 H 402.248 2.73226 7.30047 0
M  V30 4118 N 406.477 -1.02803 1.19454 0
M  V30 4119 C 407.724 -1.76217 0.997693 0
M  V30 4120 C 408.052 -1.887 -0.47144 0
M  V30 4121 O 407.307 -1.4011 -1.3663 0
M  V30 4122 C 407.606 -3.18941 1.6128 0
M  V30 4123 C 407.272 -3.26463 3.11019 0
M  V30 4124 C 405.934 -3.28223 3.51885 0
M  V30 4125 C 408.286 -3.25542 4.07028 0
M  V30 4126 C 405.614 -3.26719 4.8731 0
M  V30 4127 C 407.966 -3.25579 5.42385 0
M  V30 4128 C 406.63 -3.25637 5.82681 0
M  V30 4129 H 405.9 -0.644823 0.365082 0
M  V30 4130 H 408.547 -1.20655 1.4871 0
M  V30 4131 H 406.852 -3.77587 1.04572 0
M  V30 4132 H 408.549 -3.74415 1.43577 0
M  V30 4133 H 405.139 -3.25822 2.78457 0
M  V30 4134 H 409.323 -3.23362 3.76498 0
M  V30 4135 H 404.579 -3.25089 5.1781 0
M  V30 4136 H 408.753 -3.23817 6.16535 0
M  V30 4137 H 406.38 -3.24226 6.87591 0
M  V30 4138 N 407.956 -0.998596 -1.21925 0
M  V30 4139 C 408.904 -0.546641 -2.26085 0
M  V30 4140 C 409.898 0.405576 -1.64473 0
M  V30 4141 O 411.104 0.277471 -1.77849 0
M  V30 4142 H 407.479 -0.158403 -0.735127 0
M  V30 4143 H 409.45 -1.43645 -2.61551 0
M  V30 4144 C 408.199 0.117388 -3.47502 0
M  V30 4145 H 407.522 -0.606277 -3.95176 0
M  V30 4146 H 408.962 0.396993 -4.22137 0
M  V30 4147 C 407.421 1.35455 -3.0847 0
M  V30 4148 O 407.951 2.44944 -3.18379 0
M  V30 4149 N 406.157 1.23191 -2.63196 0
M  V30 4150 H 405.704 0.341006 -2.55333 0
M  V30 4151 H 405.662 2.06071 -2.37449 0
M  V30 4152 N 409.434 1.37368 -0.772513 0
M  V30 4153 C 410.68 2.00423 -0.3467 0
M  V30 4154 C 411.035 1.60224 1.06518 0
M  V30 4155 O 410.328 0.838712 1.72268 0
M  V30 4156 C 410.522 3.54817 -0.428876 0
M  V30 4157 C 410.351 4.10011 -1.84719 0
M  V30 4158 C 409.121 4.40927 -2.46803 0
M  V30 4159 C 411.319 4.30955 -2.80681 0
M  V30 4160 N 409.301 4.8184 -3.80399 0
M  V30 4161 C 410.672 4.74486 -3.99078 0
M  V30 4162 C 412.727 4.1309 -2.77958 0
M  V30 4163 C 411.43 5.02023 -5.15136 0
M  V30 4164 C 413.456 4.41764 -3.9319 0
M  V30 4165 C 412.818 4.85535 -5.10328 0
M  V30 4166 H 408.917 0.762413 -0.173927 0
M  V30 4167 H 411.501 1.66666 -1.00651 0
M  V30 4168 H 409.672 3.87881 0.200757 0
M  V30 4169 H 411.404 4.04696 0.0190668 0
M  V30 4170 H 408.159 4.30033 -1.98415 0
M  V30 4171 H 408.583 5.06604 -4.49089 0
M  V30 4172 H 413.225 3.7842 -1.88568 0
M  V30 4173 H 410.943 5.35582 -6.05126 0
M  V30 4174 H 414.529 4.29528 -3.92425 0
M  V30 4175 H 413.409 5.07296 -5.98013 0
M  V30 4176 N 410.912 0.523116 1.48665 0
M  V30 4177 C 412.142 -0.00961724 2.06598 0
M  V30 4178 C 412.55 -1.29333 1.38093 0
M  V30 4179 O 411.893 -1.77846 0.46007 0
M  V30 4180 C 411.955 -0.311135 3.58151 0
M  V30 4181 C 411.619 0.878092 4.48485 0
M  V30 4182 C 412.616 1.77464 4.88674 0
M  V30 4183 C 410.301 1.08315 4.90483 0
M  V30 4184 C 412.295 2.86021 5.69623 0
M  V30 4185 C 409.982 2.17187 5.71203 0
M  V30 4186 C 410.98 3.05873 6.10681 0
M  V30 4187 O 410.668 4.12862 6.89783 0
M  V30 4188 H 410.4 0.0272658 0.67545 0
M  V30 4189 H 412.954 0.726156 1.92136 0
M  V30 4190 H 411.184 -1.10079 3.70701 0
M  V30 4191 H 412.873 -0.785125 3.98234 0
M  V30 4192 H 413.639 1.62813 4.56855 0
M  V30 4193 H 409.518 0.402149 4.59243 0
M  V30 4194 H 413.062 3.55272 6.00356 0
M  V30 4195 H 408.959 2.31824 6.02435 0
M  V30 4196 H 409.727 4.10487 7.08126 0
M  V30 4197 N 412.39 -1.55475 0.257931 0
M  V30 4198 C 413.636 -1.99502 -0.364266 0
M  V30 4199 C 413.969 -1.146 -1.56782 0
M  V30 4200 O 413.244 -0.211968 -1.93342 0
M  V30 4201 C 413.527 -3.51917 -0.763333 0
M  V30 4202 C 413.38 -4.4758 0.446371 0
M  V30 4203 C 414.699 -4.09742 -1.60623 0
M  V30 4204 H 411.818 -0.725277 -0.130929 0
M  V30 4205 H 414.46 -1.8653 0.361446 0
M  V30 4206 H 412.61 -3.63101 -1.38166 0
M  V30 4207 H 414.282 -4.48362 1.08487 0
M  V30 4208 H 412.525 -4.19947 1.08753 0
M  V30 4209 H 413.196 -5.51862 0.123645 0
M  V30 4210 H 415.672 -4.01727 -1.08418 0
M  V30 4211 H 414.548 -5.16631 -1.85429 0
M  V30 4212 H 414.809 -3.58889 -2.58169 0
M  V30 4213 N 413.868 0.0150385 -1.57593 0
M  V30 4214 C 415.145 0.7392 -1.81094 0
M  V30 4215 C 415.525 1.92817 -0.859344 0
M  V30 4216 O 414.873 2.28301 0.095362 0
M  V30 4217 C 415.083 1.15907 -3.29191 0
M  V30 4218 C 416.431 1.56918 -3.9454 0
M  V30 4219 O 417.455 1.25328 -3.33424 0
M  V30 4220 O 416.314 2.15604 -5.02173 0
M  V30 4221 H 413.408 0.358631 -0.745193 0
M  V30 4222 H 415.954 -0.00926156 -1.69697 0
M  V30 4223 H 414.726 0.310921 -3.90063 0
M  V30 4224 H 414.349 1.96711 -3.45529 0
M  V30 4225 N 415.346 1.54954 0.287554 0
M  V30 4226 C 416.594 1.74528 1.01904 0
M  V30 4227 C 416.915 0.541349 1.87335 0
M  V30 4228 O 416.185 -0.444108 1.908 0
M  V30 4229 H 414.765 0.643576 0.379235 0
M  V30 4230 H 417.427 1.92333 0.315294 0
M  V30 4231 H 416.523 2.64015 1.6644 0
M  V30 4232 N 416.824 -0.551391 1.4764 0
M  V30 4233 C 418.07 -1.31024 1.54792 0
M  V30 4234 C 418.403 -1.9304 0.211967 0
M  V30 4235 O 417.678 -1.78175 -0.77999 0
M  V30 4236 C 417.961 -2.41593 2.67029 0
M  V30 4237 C 417.814 -1.84408 4.10261 0
M  V30 4238 C 419.133 -3.43488 2.75143 0
M  V30 4239 H 416.252 -0.475031 0.563485 0
M  V30 4240 H 418.894 -0.616454 1.79722 0
M  V30 4241 H 417.044 -3.00772 2.45904 0
M  V30 4242 H 418.716 -1.29445 4.42766 0
M  V30 4243 H 416.959 -1.15051 4.18265 0
M  V30 4244 H 417.63 -2.64367 4.84576 0
M  V30 4245 H 420.106 -2.94236 2.94218 0
M  V30 4246 H 418.982 -4.18274 3.55441 0
M  V30 4247 H 419.243 -4.02703 1.82435 0
M  V30 4248 N 418.302 -1.35869 -0.798587 0
M  V30 4249 C 419.212 -1.31578 -1.94228 0
M  V30 4250 C 420.228 -0.21939 -1.72611 0
M  V30 4251 O 421.404 -0.450167 -1.96305 0
M  V30 4252 C 418.469 -1.09528 -3.28944 0
M  V30 4253 C 417.53 -2.28556 -3.63402 0
M  V30 4254 C 416.763 -2.07549 -4.9169 0
M  V30 4255 O 416.986 -1.046 -5.60727 0
M  V30 4256 O 415.92 -2.95106 -5.24591 0
M  V30 4257 H 419.746 -2.27847 -2.00796 0
M  V30 4258 H 417.331 -1.16322 -0.937526 0
M  V30 4259 H 419.213 -0.991127 -4.09579 0
M  V30 4260 H 417.888 -0.16315 -3.23289 0
M  V30 4261 H 416.795 -2.44538 -2.83112 0
M  V30 4262 H 418.128 -3.20244 -3.73771 0
M  V30 4263 N 419.78 1.02168 -1.19998 0
M  V30 4264 C 421.026 1.75945 -1.00852 0
M  V30 4265 C 421.359 1.88702 0.458828 0
M  V30 4266 O 420.634 1.40911 1.34069 0
M  V30 4267 C 420.917 3.18154 -1.68671 0
M  V30 4268 C 420.77 3.13224 -3.22817 0
M  V30 4269 C 422.089 4.16711 -1.41561 0
M  V30 4270 H 419.208 0.638673 -0.367785 0
M  V30 4271 H 421.85 1.19222 -1.4794 0
M  V30 4272 H 420 3.66586 -1.28636 0
M  V30 4273 H 421.672 2.72635 -3.72112 0
M  V30 4274 H 419.915 2.50751 -3.53986 0
M  V30 4275 H 420.586 4.13728 -3.65422 0
M  V30 4276 H 423.062 3.76913 -1.76284 0
M  V30 4277 H 421.938 5.14391 -1.91553 0
M  V30 4278 H 422.199 4.40774 -0.342193 0
M  V30 4279 N 421.258 1.00505 1.21394 0
M  V30 4280 C 422.208 0.536503 2.21598 0
M  V30 4281 C 423.192 -0.401914 1.55799 0
M  V30 4282 O 424.384 -0.226757 1.75541 0
M  V30 4283 C 421.513 -0.135446 3.43033 0
M  V30 4284 C 420.599 0.823992 4.16018 0
M  V30 4285 N 420.99 1.97683 4.6557 0
M  V30 4286 C 419.288 0.642387 4.4135 0
M  V30 4287 C 419.989 2.58003 5.21354 0
M  V30 4288 N 418.965 1.86162 5.1073 0
M  V30 4289 H 422.767 1.41557 2.57563 0
M  V30 4290 H 420.281 0.868878 1.37202 0
M  V30 4291 H 422.278 -0.488584 4.14027 0
M  V30 4292 H 420.938 -1.01049 3.08576 0
M  V30 4293 H 421.949 2.3572 4.61147 0
M  V30 4294 H 418.626 -0.185578 4.17087 0
M  V30 4295 H 420.016 3.555 5.70149 0
M  V30 4296 N 422.737 -1.36956 0.779787 0
M  V30 4297 C 423.685 -2.32053 0.15942 0
M  V30 4298 C 424.679 -1.55333 -0.675878 0
M  V30 4299 O 425.885 -1.70668 -0.57204 0
M  V30 4300 H 422.26 -0.751286 0.0327707 0
M  V30 4301 H 424.231 -2.8195 0.977078 0
M  V30 4302 C 422.98 -3.40602 -0.698977 0
M  V30 4303 H 422.303 -3.99746 -0.0655966 0
M  V30 4304 H 423.743 -4.09486 -1.09989 0
M  V30 4305 C 422.202 -2.81359 -1.85307 0
M  V30 4306 O 422.732 -2.72751 -2.94906 0
M  V30 4307 N 420.938 -2.38786 -1.65619 0
M  V30 4308 H 420.485 -2.45987 -0.764725 0
M  V30 4309 H 420.443 -1.99493 -2.43002 0
M  V30 4310 N 424.215 -0.530993 -1.48385 0
M  V30 4311 C 425.178 0.220497 -2.28137 0
M  V30 4312 C 426.178 0.866851 -1.35434 0
M  V30 4313 O 427.368 0.726746 -1.58316 0
M  V30 4314 C 424.5 1.31921 -3.1434 0
M  V30 4315 H 425.693 -0.479714 -2.96038 0
M  V30 4316 H 423.246 -0.286968 -1.53643 0
M  V30 4317 H 423.981 2.05264 -2.51072 0
M  V30 4318 H 423.766 0.86085 -3.82533 0
M  V30 4319 H 425.256 1.84776 -3.74497 0
M  V30 4320 N 425.693 1.55336 -0.266172 0
M  V30 4321 C 426.64 2.22172 0.625165 0
M  V30 4322 C 427.61 1.19211 1.15663 0
M  V30 4323 O 428.795 1.47723 1.20758 0
M  V30 4324 C 425.935 2.93972 1.8076 0
M  V30 4325 C 425.048 4.11632 1.31084 0
M  V30 4326 C 424.183 4.71099 2.45436 0
M  V30 4327 C 423.222 5.8097 1.92718 0
M  V30 4328 N 422.359 6.34538 3.00509 0
M  V30 4329 H 427.199 2.9796 0.0485582 0
M  V30 4330 H 424.736 1.47095 0.0122024 0
M  V30 4331 H 426.694 3.33811 2.50251 0
M  V30 4332 H 425.324 2.20623 2.35638 0
M  V30 4333 H 424.376 3.76975 0.509326 0
M  V30 4334 H 425.688 4.90893 0.884633 0
M  V30 4335 H 424.842 5.13612 3.22936 0
M  V30 4336 H 423.581 3.91096 2.91368 0
M  V30 4337 H 422.586 5.37916 1.13695 0
M  V30 4338 H 423.811 6.62836 1.47733 0
M  V30 4339 H 421.757 5.57433 3.45839 0
M  V30 4340 H 421.674 7.09046 2.62279 0
M  V30 4341 H 422.942 6.81709 3.78011 0
M  V30 4342 N 427.171 -0.0066808 1.57599 0
M  V30 4343 C 428.399 -0.704087 1.94551 0
M  V30 4344 C 428.814 -1.67677 0.867746 0
M  V30 4345 O 428.171 -1.8185 -0.153925 0
M  V30 4346 C 428.222 -1.44177 3.31505 0
M  V30 4347 O 427.943 -0.508097 4.35144 0
M  V30 4348 C 429.444 -2.23429 3.82876 0
M  V30 4349 H 426.664 -0.196523 0.641576 0
M  V30 4350 H 429.208 0.042453 2.04456 0
M  V30 4351 H 427.363 -2.13999 3.22929 0
M  V30 4352 H 427.777 -1.02782 5.14331 0
M  V30 4353 H 429.251 -2.70552 4.8115 0
M  V30 4354 H 429.728 -3.05818 3.15233 0
M  V30 4355 H 430.334 -1.58636 3.94607 0
M  V30 4356 N 428.649 -1.55105 -0.279332 0
M  V30 4357 C 429.596 -1.8755 -1.34513 0
M  V30 4358 C 430.566 -0.726384 -1.49375 0
M  V30 4359 O 431.751 -0.977063 -1.63884 0
M  V30 4360 C 428.891 -2.14738 -2.70151 0
M  V30 4361 C 428.004 -3.42285 -2.63562 0
M  V30 4362 C 427.139 -3.59206 -3.91337 0
M  V30 4363 C 426.178 -4.80467 -3.79233 0
M  V30 4364 N 425.315 -4.94079 -4.98829 0
M  V30 4365 H 430.155 -2.78456 -1.06143 0
M  V30 4366 H 427.692 -1.37867 -0.512936 0
M  V30 4367 H 429.65 -2.28501 -3.49061 0
M  V30 4368 H 428.28 -1.27075 -2.96735 0
M  V30 4369 H 427.332 -3.37029 -1.76397 0
M  V30 4370 H 428.644 -4.31328 -2.50515 0
M  V30 4371 H 427.798 -3.72751 -4.78687 0
M  V30 4372 H 426.537 -2.68337 -4.07243 0
M  V30 4373 H 425.542 -4.66932 -2.90266 0
M  V30 4374 H 426.767 -5.72765 -3.64852 0
M  V30 4375 H 424.713 -4.06139 -5.15158 0
M  V30 4376 H 424.63 -5.77156 -4.8829 0
M  V30 4377 H 425.898 -5.12003 -5.8777 0
M  V30 4378 N 430.127 0.543554 -1.4793 0
M  V30 4379 C 431.538 1.12561 -1.48953 0
M  V30 4380 C 431.889 1.94578 -0.251754 0
M  V30 4381 O 431.014 2.0665 0.642255 0
M  V30 4382 C 431.609 2.04801 -2.69892 0
M  V30 4383 C 430.168 2.58251 -2.73831 0
M  V30 4384 C 429.315 1.34918 -2.42265 0
M  V30 4385 H 432.266 0.32947 -1.55242 0
M  V30 4386 H 432.287 2.88886 -2.47639 0
M  V30 4387 H 431.799 1.4508 -3.59963 0
M  V30 4388 H 429.9 3.21732 -1.87934 0
M  V30 4389 H 430.013 2.98312 -3.74895 0
M  V30 4390 H 428.377 1.66046 -1.93134 0
M  V30 4391 H 429.16 0.769693 -3.3456 0
M  V30 4392 N 431.605 1.3629 0.791371 0
M  V30 4393 C 433.021 1.16661 1.08914 0
M  V30 4394 C 433.221 -0.0106266 2.01497 0
M  V30 4395 O 432.277 -0.676596 2.43266 0
M  V30 4396 C 433.59 2.47656 1.70549 0
M  V30 4397 C 435.138 2.54002 1.82899 0
M  V30 4398 C 435.613 3.85078 2.47949 0
M  V30 4399 N 437.104 3.86413 2.5542 0
M  V30 4400 C 437.839 4.84572 3.06557 0
M  V30 4401 N 437.335 5.93124 3.58016 0
M  V30 4402 N 439.128 4.71994 3.05251 0
M  V30 4403 H 431.279 2.11668 0.176238 0
M  V30 4404 H 433.542 0.937486 0.140796 0
M  V30 4405 H 433.248 3.34059 1.09989 0
M  V30 4406 H 433.122 2.63319 2.70079 0
M  V30 4407 H 435.509 1.68018 2.42598 0
M  V30 4408 H 435.59 2.42239 0.821808 0
M  V30 4409 H 435.234 4.71467 1.88895 0
M  V30 4410 H 435.164 3.94135 3.49235 0
M  V30 4411 H 437.655 3.07988 2.18979 0
M  V30 4412 H 437.968 6.63999 3.95381 0
M  V30 4413 H 436.313 5.96796 3.56173 0
M  V30 4414 H 439.504 3.86321 2.64336 0
M  V30 4415 H 439.677 5.48653 3.44796 0
M  V30 4416 N 433.083 -1.0153 1.20538 0
M  V30 4417 C 433.993 -2.13557 0.971113 0
M  V30 4418 C 435.009 -1.73845 -0.0734366 0
M  V30 4419 O 436.185 -2.01075 0.114299 0
M  V30 4420 C 433.25 -3.42661 0.527639 0
M  V30 4421 C 432.311 -3.96608 1.64319 0
M  V30 4422 C 431.544 -5.1955 1.22078 0
M  V30 4423 O 431.767 -5.70329 0.0900198 0
M  V30 4424 O 430.701 -5.66681 2.02871 0
M  V30 4425 H 434.527 -2.3619 1.90913 0
M  V30 4426 H 432.112 -1.11946 0.989362 0
M  V30 4427 H 433.994 -4.20404 0.289621 0
M  V30 4428 H 432.669 -3.21441 -0.381779 0
M  V30 4429 H 431.576 -3.20139 1.93551 0
M  V30 4430 H 432.909 -4.22219 2.52966 0
M  V30 4431 N 434.561 -1.01147 -1.20859 0
M  V30 4432 C 435.471 -0.58686 -2.27141 0
M  V30 4433 C 436.487 0.373198 -1.69951 0
M  V30 4434 O 437.663 0.235423 -2.00019 0
M  V30 4435 C 434.728 0.0733602 -3.46622 0
M  V30 4436 C 433.789 -0.931995 -4.19061 0
M  V30 4437 C 433.022 -0.303186 -5.32838 0
M  V30 4438 O 433.245 0.898395 -5.63281 0
M  V30 4439 O 432.179 -1.01735 -5.9324 0
M  V30 4440 H 436.005 -1.47155 -2.65667 0
M  V30 4441 H 433.59 -0.780689 -1.2738 0
M  V30 4442 H 435.472 0.442333 -4.19072 0
M  V30 4443 H 434.147 0.932329 -3.09983 0
M  V30 4444 H 433.054 -1.35224 -3.48805 0
M  V30 4445 H 434.387 -1.76076 -4.59628 0
M  V30 4446 N 436.039 1.36541 -0.78704 0
M  V30 4447 C 436.971 2.28761 -0.141773 0
M  V30 4448 C 437.984 1.49365 0.647599 0
M  V30 4449 O 439.173 1.71836 0.483173 0
M  V30 4450 C 436.273 3.28771 0.822368 0
M  V30 4451 C 435.446 4.3732 0.0835594 0
M  V30 4452 C 434.505 5.17307 0.963296 0
M  V30 4453 O 433.531 5.67638 0.421419 0
M  V30 4454 N 434.733 5.33515 2.28784 0
M  V30 4455 H 437.498 2.84777 -0.933919 0
M  V30 4456 H 435.059 1.48682 -0.640735 0
M  V30 4457 H 437.051 3.79169 1.41468 0
M  V30 4458 H 435.621 2.73412 1.5154 0
M  V30 4459 H 434.841 3.88118 -0.689809 0
M  V30 4460 H 436.129 5.0701 -0.426358 0
M  V30 4461 H 435.527 4.94234 2.75226 0
M  V30 4462 H 434.084 5.87165 2.82985 0
M  V30 4463 N 437.518 0.538854 1.48102 0
M  V30 4464 C 438.748 0.0122958 2.06596 0
M  V30 4465 C 439.156 -1.27861 1.39457 0
M  V30 4466 O 438.499 -1.77348 0.478907 0
M  V30 4467 C 438.561 -0.273131 3.58461 0
M  V30 4468 C 438.225 0.92561 4.47528 0
M  V30 4469 C 439.222 1.82637 4.86765 0
M  V30 4470 C 436.907 1.13511 4.89306 0
M  V30 4471 C 438.901 2.92047 5.66558 0
M  V30 4472 C 436.588 2.23233 5.68868 0
M  V30 4473 C 437.586 3.12333 6.07402 0
M  V30 4474 O 437.274 4.20155 6.85365 0
M  V30 4475 H 437.006 0.0344283 0.675123 0
M  V30 4476 H 439.56 0.746494 1.91355 0
M  V30 4477 H 437.79 -1.06141 3.71848 0
M  V30 4478 H 439.479 -0.742842 3.99045 0
M  V30 4479 H 440.245 1.67649 4.55103 0
M  V30 4480 H 436.124 0.450835 4.5879 0
M  V30 4481 H 439.668 3.6162 5.96554 0
M  V30 4482 H 435.565 2.38201 5.99942 0
M  V30 4483 H 436.333 4.17975 7.03732 0
M  V30 4484 N 438.996 -1.55193 0.274407 0
M  V30 4485 C 439.944 -2.23924 -0.629362 0
M  V30 4486 C 440.938 -1.23602 -1.1584 0
M  V30 4487 O 442.144 -1.41535 -1.11211 0
M  V30 4488 H 438.519 -0.718637 -0.221507 0
M  V30 4489 H 440.49 -2.98388 -0.0268322 0
M  V30 4490 C 439.239 -2.97329 -1.80252 0
M  V30 4491 H 438.562 -3.74313 -1.40462 0
M  V30 4492 H 440.002 -3.48743 -2.41152 0
M  V30 4493 C 438.461 -2.0276 -2.69054 0
M  V30 4494 O 438.991 -1.57836 -3.69392 0
M  V30 4495 N 437.197 -1.69275 -2.36208 0
M  V30 4496 H 436.744 -2.06004 -1.54661 0
M  V30 4497 H 436.702 -1.06271 -2.95895 0
M  V30 4498 N 440.474 -0.00167713 -1.576 0
M  V30 4499 C 441.699 0.69739 -1.95323 0
M  V30 4500 C 442.124 1.6642 -0.876706 0
M  V30 4501 O 441.482 1.80548 0.165007 0
M  V30 4502 C 441.53 1.40403 -3.32144 0
M  V30 4503 O 440.634 2.5185 -3.26566 0
M  V30 4504 H 439.975 0.185373 -0.637599 0
M  V30 4505 H 442.505 -0.0553665 -2.04525 0
M  V30 4506 H 442.515 1.76707 -3.67748 0
M  V30 4507 H 441.19 0.695167 -4.10049 0
M  V30 4508 H 439.767 2.17861 -3.0264 0
M  V30 4509 N 441.952 1.55251 0.271103 0
M  V30 4510 C 443.18 1.79974 1.02064 0
M  V30 4511 C 443.595 0.574003 1.79863 0
M  V30 4512 O 442.952 -0.456962 1.76686 0
M  V30 4513 C 443.003 3.02603 1.97772 0
M  V30 4514 O 442.724 4.20443 1.23124 0
M  V30 4515 C 444.225 3.39944 2.84522 0
M  V30 4516 H 441.445 0.599489 0.301419 0
M  V30 4517 H 443.989 2.02268 0.301313 0
M  V30 4518 H 442.144 2.8243 2.65165 0
M  V30 4519 H 442.558 4.89783 1.87651 0
M  V30 4520 H 444.032 4.28915 3.47471 0
M  V30 4521 H 444.509 2.59432 3.54389 0
M  V30 4522 H 445.115 3.62383 2.22618 0
M  V30 4523 N 443.43 -0.535701 1.48216 0
M  V30 4524 C 444.66 -1.3148 1.59363 0
M  V30 4525 C 445.068 -1.8753 0.250844 0
M  V30 4526 O 444.411 -1.66821 -0.769174 0
M  V30 4527 C 444.473 -2.50731 2.57632 0
M  V30 4528 C 444.137 -2.15811 4.02833 0
M  V30 4529 C 445.134 -1.71822 4.90686 0
M  V30 4530 C 442.819 -2.26509 4.48329 0
M  V30 4531 C 444.813 -1.3899 6.22062 0
M  V30 4532 C 442.5 -1.93289 5.79726 0
M  V30 4533 C 443.498 -1.49599 6.66415 0
M  V30 4534 O 443.186 -1.16812 7.95368 0
M  V30 4535 H 442.918 -0.406315 0.540263 0
M  V30 4536 H 445.472 -0.653569 1.94725 0
M  V30 4537 H 443.702 -3.19817 2.1738 0
M  V30 4538 H 445.391 -3.12797 2.58675 0
M  V30 4539 H 446.157 -1.63031 4.56778 0
M  V30 4540 H 442.036 -2.59471 3.81045 0
M  V30 4541 H 445.58 -1.04816 6.89681 0
M  V30 4542 H 441.477 -2.01718 6.13172 0
M  V30 4543 H 442.245 -1.30259 8.08069 0
M  V30 4544 N 444.908 -1.36708 -0.784132 0
M  V30 4545 C 446.324 -1.17237 -1.08294 0
M  V30 4546 C 446.524 -5.93947e-05 -2.015 0
M  V30 4547 O 445.58 0.663686 -2.43622 0
M  V30 4548 C 446.893 -2.48557 -1.69233 0
M  V30 4549 C 448.441 -2.54968 -1.8155 0
M  V30 4550 C 448.916 -3.86388 -2.45904 0
M  V30 4551 N 450.407 -3.87762 -2.53367 0
M  V30 4552 C 451.142 -4.86191 -3.03983 0
M  V30 4553 N 450.638 -5.95015 -3.54866 0
M  V30 4554 N 452.431 -4.73606 -3.02743 0
M  V30 4555 H 444.582 -2.11758 -0.16501 0
M  V30 4556 H 446.845 -0.93822 -0.135822 0
M  V30 4557 H 446.551 -3.34638 -1.08215 0
M  V30 4558 H 446.425 -2.64748 -2.68679 0
M  V30 4559 H 448.812 -1.69302 -2.41704 0
M  V30 4560 H 448.893 -2.42672 -0.80895 0
M  V30 4561 H 448.537 -4.72462 -1.86392 0
M  V30 4562 H 448.467 -3.95982 -3.4714 0
M  V30 4563 H 450.958 -3.09145 -2.17343 0
M  V30 4564 H 451.271 -6.66086 -3.91854 0
M  V30 4565 H 449.616 -5.98676 -3.53003 0
M  V30 4566 H 452.807 -3.87717 -2.62284 0
M  V30 4567 H 452.98 -5.50473 -3.41881 0
M  V30 4568 N 446.386 1.0089 -1.21074 0
M  V30 4569 C 447.632 1.74866 -1.02712 0
M  V30 4570 C 447.965 1.89178 0.438787 0
M  V30 4571 O 447.24 1.42325 1.32567 0
M  V30 4572 C 447.523 3.16347 -1.72036 0
M  V30 4573 C 447.376 3.09782 -3.26121 0
M  V30 4574 C 448.695 4.15187 -1.45973 0
M  V30 4575 H 445.814 0.634736 -0.374539 0
M  V30 4576 H 448.456 1.17646 -1.49196 0
M  V30 4577 H 446.606 3.65201 -1.32517 0
M  V30 4578 H 448.278 2.68673 -3.74983 0
M  V30 4579 H 446.521 2.46982 -3.56626 0
M  V30 4580 H 447.192 4.09829 -3.6979 0
M  V30 4581 H 449.668 3.75022 -1.80272 0
M  V30 4582 H 448.544 5.12331 -1.96999 0
M  V30 4583 H 448.805 4.40386 -0.388924 0
M  V30 4584 N 447.864 1.01787 1.20321 0
M  V30 4585 C 449.11 0.708985 1.90003 0
M  V30 4586 C 449.443 -0.759572 1.78729 0
M  V30 4587 O 448.718 -1.55198 1.17234 0
M  V30 4588 C 449.001 1.1469 3.41348 0
M  V30 4589 C 448.854 2.67586 3.61549 0
M  V30 4590 C 450.173 0.71915 4.34185 0
M  V30 4591 H 447.292 0.259034 0.689978 0
M  V30 4592 H 449.934 1.26584 1.41692 0
M  V30 4593 H 448.084 0.673128 3.82624 0
M  V30 4594 H 449.756 3.22826 3.29517 0
M  V30 4595 H 447.999 3.085 3.04976 0
M  V30 4596 H 448.67 2.93281 4.67643 0
M  V30 4597 H 451.146 1.12647 4.00562 0
M  V30 4598 H 450.022 1.05358 5.38694 0
M  V30 4599 H 450.283 -0.379111 4.40472 0
M  V30 4600 N 449.342 -1.36122 0.79427 0
M  V30 4601 C 450.567 -2.03891 0.379871 0
M  V30 4602 C 450.992 -1.59488 -0.997251 0
M  V30 4603 O 450.35 -0.765652 -1.64339 0
M  V30 4604 C 450.398 -3.57687 0.457442 0
M  V30 4605 O 449.502 -4.08931 -0.5338 0
M  V30 4606 H 448.843 -0.6443 0.160541 0
M  V30 4607 H 451.373 -1.73976 1.07673 0
M  V30 4608 H 451.383 -4.06721 0.322792 0
M  V30 4609 H 450.058 -3.89357 1.46199 0
M  V30 4610 H 448.635 -3.71154 -0.360409 0
M  V30 4611 N 450.82 -0.546701 -1.47814 0
M  V30 4612 C 452.066 -0.0187684 -2.02791 0
M  V30 4613 C 452.399 1.32338 -1.42128 0
M  V30 4614 O 451.674 1.85867 -0.573023 0
M  V30 4615 C 451.957 0.0854985 -3.59998 0
M  V30 4616 C 451.81 -1.283 -4.31114 0
M  V30 4617 C 453.129 0.80412 -4.32691 0
M  V30 4618 H 450.248 -0.0082946 -0.736953 0
M  V30 4619 H 452.89 -0.706962 -1.76358 0
M  V30 4620 H 451.04 0.671609 -3.82651 0
M  V30 4621 H 452.712 -1.91151 -4.19832 0
M  V30 4622 H 450.955 -1.86049 -3.91878 0
M  V30 4623 H 451.626 -1.16287 -5.39612 0
M  V30 4624 H 454.102 0.306576 -4.14969 0
M  V30 4625 H 452.978 0.846011 -5.42341 0
M  V30 4626 H 453.239 1.85802 -4.01161 0
M  V30 4627 N 452.299 1.55045 -0.282633 0
M  V30 4628 C 453.229 2.2579 0.595066 0
M  V30 4629 C 454.21 1.25074 1.15284 0
M  V30 4630 O 455.395 1.5381 1.18559 0
M  V30 4631 C 452.525 2.98472 1.77572 0
M  V30 4632 C 451.479 4.0618 1.34914 0
M  V30 4633 C 450.805 4.66477 2.6135 0
M  V30 4634 C 452.105 5.1996 0.493821 0
M  V30 4635 H 453.799 2.994 0.00505653 0
M  V30 4636 H 451.345 1.44 0.000992001 0
M  V30 4637 H 453.298 3.46677 2.39568 0
M  V30 4638 H 452.022 2.2241 2.39168 0
M  V30 4639 H 450.681 3.58797 0.752338 0
M  V30 4640 H 450.329 3.87074 3.2122 0
M  V30 4641 H 450.029 5.39207 2.33516 0
M  V30 4642 H 451.553 5.17435 3.24181 0
M  V30 4643 H 452.967 5.64172 1.01898 0
M  V30 4644 H 451.364 5.99299 0.310047 0
M  V30 4645 H 452.434 4.82462 -0.485593 0
M  V30 4646 N 453.777 0.010035 1.57597 0
M  V30 4647 C 455.005 -0.683413 1.95287 0
M  V30 4648 C 455.42 -1.66747 0.885481 0
M  V30 4649 O 454.777 -1.82003 -0.134629 0
M  V30 4650 C 454.828 -1.40652 3.33015 0
M  V30 4651 O 454.549 -0.461916 4.35658 0
M  V30 4652 C 456.05 -2.19356 3.85225 0
M  V30 4653 H 453.27 -0.189708 0.643624 0
M  V30 4654 H 455.814 0.0641359 2.04399 0
M  V30 4655 H 453.969 -2.10562 3.2518 0
M  V30 4656 H 454.383 -0.973215 5.15392 0
M  V30 4657 H 455.857 -2.65433 4.83993 0
M  V30 4658 H 456.334 -3.02457 3.18459 0
M  V30 4659 H 456.94 -1.54442 3.96267 0
M  V30 4660 N 455.255 -1.55392 -0.262866 0
M  V30 4661 C 456.501 -1.76737 -0.99458 0
M  V30 4662 C 456.834 -0.572453 -1.85571 0
M  V30 4663 O 456.109 0.429732 -1.89693 0
M  V30 4664 C 456.392 -3.07824 -1.8686 0
M  V30 4665 C 456.245 -4.3769 -1.03672 0
M  V30 4666 C 457.564 -3.35021 -2.85393 0
M  V30 4667 H 454.683 -0.643005 -0.360157 0
M  V30 4668 H 457.325 -1.88126 -0.266216 0
M  V30 4669 H 455.475 -2.98245 -2.48962 0
M  V30 4670 H 457.147 -4.59238 -0.43563 0
M  V30 4671 H 455.39 -4.32461 -0.340513 0
M  V30 4672 H 456.061 -5.25759 -1.6817 0
M  V30 4673 H 458.537 -3.44458 -2.33426 0
M  V30 4674 H 457.413 -4.27989 -3.43681 0
M  V30 4675 H 457.674 -2.55153 -3.61039 0
M  V30 4676 N 456.733 0.527833 -1.48498 0
M  V30 4677 C 457.663 1.64136 -1.66077 0
M  V30 4678 C 458.644 1.62286 -0.509625 0
M  V30 4679 O 459.829 1.79449 -0.742413 0
M  V30 4680 C 456.959 3.02717 -1.70234 0
M  V30 4681 C 455.913 3.19426 -2.8487 0
M  V30 4682 C 455.239 4.5909 -2.74118 0
M  V30 4683 C 456.539 3.01993 -4.26142 0
M  V30 4684 H 458.233 1.4968 -2.593 0
M  V30 4685 H 455.779 0.718654 -1.24785 0
M  V30 4686 H 457.732 3.80491 -1.8112 0
M  V30 4687 H 456.456 3.18201 -0.735911 0
M  V30 4688 H 455.115 2.4407 -2.73542 0
M  V30 4689 H 454.763 4.71413 -1.7544 0
M  V30 4690 H 454.463 4.71214 -3.51042 0
M  V30 4691 H 455.987 5.3896 -2.86974 0
M  V30 4692 H 457.401 3.69558 -4.38292 0
M  V30 4693 H 455.798 3.2561 -5.04082 0
M  V30 4694 H 456.868 1.98396 -4.42456 0
M  V30 4695 N 458.211 1.37122 0.776871 0
M  V30 4696 C 459.161 1.28989 1.88005 0
M  V30 4697 C 460.145 0.178765 1.59904 0
M  V30 4698 O 461.337 0.412705 1.72121 0
M  V30 4699 C 458.466 1.09402 3.25402 0
M  V30 4700 C 457.552 2.25036 3.59471 0
M  V30 4701 N 457.943 3.50407 3.64759 0
M  V30 4702 C 456.241 2.17078 3.89607 0
M  V30 4703 C 456.942 4.26628 3.95428 0
M  V30 4704 N 455.918 3.55709 4.11062 0
M  V30 4705 H 459.72 2.2394 1.90337 0
M  V30 4706 H 457.234 1.30021 0.973052 0
M  V30 4707 H 459.231 1.01661 4.04315 0
M  V30 4708 H 457.891 0.153632 3.24336 0
M  V30 4709 H 458.902 3.8438 3.47091 0
M  V30 4710 H 455.579 1.31067 3.96393 0
M  V30 4711 H 456.969 5.35107 4.06338 0
M  V30 4712 N 459.689 -1.00246 1.21608 0
M  V30 4713 C 460.621 -2.09244 0.935401 0
M  V30 4714 C 461.634 -1.62592 -0.0823594 0
M  V30 4715 O 462.823 -1.77865 0.150456 0
M  V30 4716 C 459.923 -3.36724 0.383453 0
M  V30 4717 C 459.096 -4.1245 1.45615 0
M  V30 4718 C 458.155 -5.18219 0.912991 0
M  V30 4719 O 457.181 -5.46337 1.59701 0
M  V30 4720 N 458.383 -5.7987 -0.270478 0
M  V30 4721 H 461.148 -2.33905 1.87373 0
M  V30 4722 H 458.709 -1.16748 1.12167 0
M  V30 4723 H 460.701 -4.047 0.00562157 0
M  V30 4724 H 459.271 -3.09201 -0.459758 0
M  V30 4725 H 458.491 -3.39241 2.00772 0
M  V30 4726 H 459.779 -4.59819 2.17817 0
M  V30 4727 H 459.177 -5.59381 -0.843195 0
M  V30 4728 H 457.734 -6.49126 -0.589794 0
M  V30 4729 N 461.167 -1.02423 -1.1978 0
M  V30 4730 C 462.444 -0.632802 -1.85081 0
M  V30 4731 C 462.824 0.888745 -1.9148 0
M  V30 4732 O 462.172 1.78357 -1.42832 0
M  V30 4733 C 462.382 -1.28947 -3.24305 0
M  V30 4734 C 463.73 -1.40976 -4.00513 0
M  V30 4735 O 464.754 -1.24628 -3.33686 0
M  V30 4736 O 463.613 -1.67467 -5.20209 0
M  V30 4737 H 460.707 -0.219348 -0.79738 0
M  V30 4738 H 463.253 -1.12209 -1.27307 0
M  V30 4739 H 462.025 -2.3288 -3.14456 0
M  V30 4740 H 461.648 -0.787748 -3.89718 0
M  V30 4741 N 462.645 1.35699 -0.801477 0
M  V30 4742 C 463.891 1.99643 -0.389135 0
M  V30 4743 C 464.246 1.62447 1.03095 0
M  V30 4744 O 463.539 0.875064 1.7045 0
M  V30 4745 C 463.733 3.53828 -0.504041 0
M  V30 4746 C 463.562 4.06 -1.93375 0
M  V30 4747 C 462.332 4.35592 -2.561 0
M  V30 4748 C 464.53 4.24905 -2.89759 0
M  V30 4749 N 462.512 4.73663 -3.90534 0
M  V30 4750 C 463.883 4.65914 -4.09052 0
M  V30 4751 C 465.938 4.07101 -2.86658 0
M  V30 4752 C 464.641 4.90984 -5.25669 0
M  V30 4753 C 466.667 4.33324 -4.02472 0
M  V30 4754 C 466.029 4.74601 -5.20512 0
M  V30 4755 H 462.128 0.758552 -0.19006 0
M  V30 4756 H 464.712 1.64493 -1.04164 0
M  V30 4757 H 462.883 3.88219 0.118437 0
M  V30 4758 H 464.615 4.04645 -0.0667794 0
M  V30 4759 H 461.37 4.25728 -2.07492 0
M  V30 4760 H 461.794 4.96965 -4.59734 0
M  V30 4761 H 466.436 3.74335 -1.96552 0
M  V30 4762 H 464.154 5.22626 -6.1635 0
M  V30 4763 H 467.74 4.21107 -4.01447 0
M  V30 4764 H 466.62 4.94497 -6.08639 0
M  V30 4765 N 464.123 0.554532 1.47522 0
M  V30 4766 C 465.053 -0.182974 2.32782 0
M  V30 4767 C 466.034 -0.911377 1.43624 0
M  V30 4768 O 467.219 -0.892366 1.72483 0
M  V30 4769 C 464.349 -1.21513 3.25349 0
M  V30 4770 C 463.303 -0.603355 4.23726 0
M  V30 4771 C 462.629 -1.73995 5.05598 0
M  V30 4772 C 463.929 0.441121 5.20434 0
M  V30 4773 H 465.623 0.52882 2.94693 0
M  V30 4774 H 463.169 0.255759 1.41711 0
M  V30 4775 H 465.122 -1.73922 3.83835 0
M  V30 4776 H 463.846 -1.95683 2.61487 0
M  V30 4777 H 462.505 -0.10059 3.66462 0
M  V30 4778 H 462.153 -2.47063 4.38143 0
M  V30 4779 H 461.853 -1.3364 5.72201 0
M  V30 4780 H 463.377 -2.26735 5.66942 0
M  V30 4781 H 464.791 0.00319931 5.733 0
M  V30 4782 H 463.188 0.763402 5.95224 0
M  V30 4783 H 464.258 1.33799 4.66075 0
M  V30 4784 N 465.601 -1.54893 0.290851 0
M  V30 4785 C 466.549 -2.24579 -0.605576 0
M  V30 4786 C 467.543 -1.24824 -1.14522 0
M  V30 4787 O 468.749 -1.42706 -1.09704 0
M  V30 4788 H 465.124 -0.720946 -0.213872 0
M  V30 4789 H 467.095 -2.984 0.0048173 0
M  V30 4790 C 465.844 -2.99224 -1.77088 0
M  V30 4791 H 465.167 -3.75782 -1.36484 0
M  V30 4792 H 466.607 -3.51281 -2.3744 0
M  V30 4793 C 465.066 -2.05602 -2.66888 0
M  V30 4794 O 465.596 -1.61745 -3.67698 0
M  V30 4795 N 463.802 -1.71771 -2.34399 0
M  V30 4796 H 463.349 -2.07633 -1.52468 0
M  V30 4797 H 463.307 -1.09403 -2.94751 0
M  V30 4798 N 467.08 -0.0183926 -1.57589 0
M  V30 4799 C 468.328 0.661253 -1.90976 0
M  V30 4800 C 468.649 1.73281 -0.894353 0
M  V30 4801 O 467.919 1.9579 0.0656788 0
M  V30 4802 H 466.499 0.247233 -0.704901 0
M  V30 4803 H 469.161 -0.0636639 -1.94796 0
M  V30 4804 H 468.257 1.12083 -2.9128 0
M  V30 4805 N 468.558 1.5553 0.254621 0
M  V30 4806 C 469.505 1.89666 1.31512 0
M  V30 4807 C 470.475 0.750057 1.482 0
M  V30 4808 O 471.66 1.00301 1.62309 0
M  V30 4809 C 468.8 2.19009 2.667 0
M  V30 4810 C 467.913 3.46435 2.58083 0
M  V30 4811 C 467.048 3.65386 3.85573 0
M  V30 4812 C 466.087 4.8644 3.71541 0
M  V30 4813 N 465.224 5.01952 4.90906 0
M  V30 4814 H 470.064 2.80109 1.017 0
M  V30 4815 H 467.601 1.38666 0.490938 0
M  V30 4816 H 469.559 2.34025 3.45381 0
M  V30 4817 H 468.189 1.31779 2.94676 0
M  V30 4818 H 467.241 3.39792 1.71013 0
M  V30 4819 H 468.553 4.35258 2.43622 0
M  V30 4820 H 467.707 3.80319 4.72697 0
M  V30 4821 H 466.446 2.74781 4.02922 0
M  V30 4822 H 465.451 4.71491 2.82801 0
M  V30 4823 H 466.676 5.78497 3.55694 0
M  V30 4824 H 464.622 4.14283 5.08631 0
M  V30 4825 H 464.539 5.84851 4.79046 0
M  V30 4826 H 465.807 5.21289 5.7955 0
M  V30 4827 N 470.036 -0.519951 1.48776 0
M  V30 4828 C 470.946 -1.65025 1.66745 0
M  V30 4829 C 471.962 -1.6508 0.549954 0
M  V30 4830 O 473.138 -1.83848 0.822295 0
M  V30 4831 C 470.203 -3.0146 1.71238 0
M  V30 4832 C 469.264 -3.12182 2.94688 0
M  V30 4833 C 468.497 -4.42109 2.98958 0
M  V30 4834 O 468.72 -5.29799 2.1135 0
M  V30 4835 O 467.654 -4.57406 3.91233 0
M  V30 4836 H 471.48 -1.52801 2.62461 0
M  V30 4837 H 469.065 -0.694157 1.32294 0
M  V30 4838 H 470.947 -3.82584 1.76657 0
M  V30 4839 H 469.622 -3.13988 0.786975 0
M  V30 4840 H 468.529 -2.30316 2.94797 0
M  V30 4841 H 469.862 -3.04574 3.86646 0
M  V30 4842 N 471.514 -1.37532 -0.769588 0
M  V30 4843 C 472.744 -1.35861 -1.55645 0
M  V30 4844 C 473.152 0.0574398 -1.89113 0
M  V30 4845 O 472.495 1.03021 -1.52093 0
M  V30 4846 C 472.557 -2.13431 -2.89288 0
M  V30 4847 C 472.221 -3.62378 -2.78444 0
M  V30 4848 C 473.218 -4.56215 -2.49326 0
M  V30 4849 C 470.903 -4.05529 -2.96398 0
M  V30 4850 C 472.897 -5.91181 -2.38294 0
M  V30 4851 C 470.584 -5.40579 -2.84987 0
M  V30 4852 C 471.582 -6.33218 -2.55975 0
M  V30 4853 O 471.27 -7.65787 -2.44594 0
M  V30 4854 H 471.002 -0.467001 -0.48876 0
M  V30 4855 H 473.556 -1.81505 -0.961515 0
M  V30 4856 H 471.786 -1.62481 -3.50909 0
M  V30 4857 H 473.475 -2.04368 -3.50697 0
M  V30 4858 H 474.241 -4.24187 -2.35139 0
M  V30 4859 H 470.12 -3.33781 -3.1798 0
M  V30 4860 H 473.664 -6.63457 -2.15571 0
M  V30 4861 H 469.561 -5.72209 -2.98743 0
M  V30 4862 H 470.329 -7.76132 -2.59927 0
M  V30 4863 N 472.992 0.995999 -1.22138 0
M  V30 4864 C 473.939 2.08551 -0.988687 0
M  V30 4865 C 474.909 1.65864 0.0885021 0
M  V30 4866 O 476.094 1.90704 -0.0604589 0
M  V30 4867 C 473.234 3.40374 -0.569191 0
M  V30 4868 C 472.347 3.96421 -1.71681 0
M  V30 4869 C 471.482 5.1639 -1.2456 0
M  V30 4870 C 470.521 5.64567 -2.36497 0
M  V30 4871 N 469.658 6.75777 -1.90445 0
M  V30 4872 H 474.498 2.2779 -1.92135 0
M  V30 4873 H 472.035 1.1168 -0.957388 0
M  V30 4874 H 473.993 4.16068 -0.307166 0
M  V30 4875 H 472.623 3.21145 0.326462 0
M  V30 4876 H 471.675 3.17628 -2.09324 0
M  V30 4877 H 472.987 4.2816 -2.55891 0
M  V30 4878 H 472.141 5.99362 -0.940774 0
M  V30 4879 H 470.88 4.86266 -0.373662 0
M  V30 4880 H 469.885 4.80185 -2.67772 0
M  V30 4881 H 471.11 5.96716 -3.24202 0
M  V30 4882 H 469.056 6.47443 -1.05609 0
M  V30 4883 H 468.973 7.06818 -2.68223 0
M  V30 4884 H 470.241 7.62262 -1.63022 0
M  V30 4885 N 474.47 1.03057 1.19235 0
M  V30 4886 C 475.71 0.736757 1.9066 0
M  V30 4887 C 476.074 -0.721521 1.77927 0
M  V30 4888 O 477.275 -1.12849 2.43964 0
M  V30 4889 C 475.546 1.17755 3.37444 0
M  V30 4890 S 477.105 1.00783 4.27069 0
M  V30 4891 H 473.923 0.268174 0.658486 0
M  V30 4892 H 476.525 1.32076 1.4414 0
M  V30 4893 H 475.229 2.23448 3.44237 0
M  V30 4894 H 474.76 0.586912 3.88997 0
M  V30 4895 H 476.775 -0.0806356 4.96134 0
M  V30 4896 N 475.948 -1.35272 0.808662 0
M  V30 4897 C 476.895 -2.29764 0.218482 0
M  V30 4898 C 477.865 -1.52911 -0.648652 0
M  V30 4899 O 479.05 -1.81341 -0.593297 0
M  V30 4900 C 476.19 -3.39388 -0.625282 0
M  V30 4901 C 475.303 -4.31202 0.262516 0
M  V30 4902 C 474.438 -5.27919 -0.589451 0
M  V30 4903 C 473.477 -6.11371 0.298617 0
M  V30 4904 N 472.614 -7.0022 -0.513443 0
M  V30 4905 H 477.454 -2.79645 1.02968 0
M  V30 4906 H 474.991 -1.37629 0.519303 0
M  V30 4907 H 476.949 -4.01615 -1.12966 0
M  V30 4908 H 475.579 -2.90777 -1.40173 0
M  V30 4909 H 474.631 -3.69962 0.885013 0
M  V30 4910 H 475.943 -4.89748 0.945971 0
M  V30 4911 H 475.097 -5.95529 -1.15888 0
M  V30 4912 H 473.836 -4.69875 -1.30647 0
M  V30 4913 H 472.841 -5.42707 0.880301 0
M  V30 4914 H 474.066 -6.71494 1.01352 0
M  V30 4915 H 472.012 -6.44662 -1.21439 0
M  V30 4916 H 471.929 -7.55917 0.111922 0
M  V30 4917 H 473.197 -7.72175 -1.06608 0
M  V30 4918 N 477.426 -0.562348 -1.47226 0
M  V30 4919 C 478.672 -0.0402761 -2.0276 0
M  V30 4920 C 479.005 1.30823 -1.43523 0
M  V30 4921 O 478.28 1.85249 -0.592705 0
M  V30 4922 C 478.563 0.047311 -3.60069 0
M  V30 4923 C 478.416 -1.32865 -4.29729 0
M  V30 4924 C 479.735 0.758182 -4.3352 0
M  V30 4925 H 476.854 -0.0161105 -0.736824 0
M  V30 4926 H 479.496 -0.725628 -1.75598 0
M  V30 4927 H 477.646 0.630986 -3.83342 0
M  V30 4928 H 479.318 -1.95593 -4.17781 0
M  V30 4929 H 477.561 -1.90195 -3.89882 0
M  V30 4930 H 478.232 -1.22004 -5.38349 0
M  V30 4931 H 480.708 0.262546 -4.15271 0
M  V30 4932 H 479.584 0.78844 -5.43208 0
M  V30 4933 H 479.845 1.81537 -4.03109 0
M  V30 4934 N 478.904 1.54736 -0.299062 0
M  V30 4935 C 480.129 2.04975 0.316254 0
M  V30 4936 C 480.554 1.17501 1.46885 0
M  V30 4937 O 479.912 0.178678 1.80417 0
M  V30 4938 C 479.96 3.52672 0.751997 0
M  V30 4939 O 479.064 3.68226 1.85697 0
M  V30 4940 H 478.405 0.661126 0.0617175 0
M  V30 4941 H 480.935 1.99805 -0.440341 0
M  V30 4942 H 480.945 3.94488 1.04133 0
M  V30 4943 H 479.62 4.158 -0.0911482 0
M  V30 4944 H 478.197 3.38316 1.56834 0
M  V30 4945 N 480.382 0.0267497 1.57577 0
M  V30 4946 C 481.33 -0.973923 2.11229 0
M  V30 4947 C 482.324 -1.33849 1.03831 0
M  V30 4948 O 483.53 -1.321 1.22269 0
M  V30 4949 H 479.905 -0.331844 0.674821 0
M  V30 4950 H 481.876 -0.496092 2.94247 0
M  V30 4951 C 480.625 -2.24798 2.65257 0
M  V30 4952 H 479.948 -1.9762 3.47543 0
M  V30 4953 H 481.388 -2.93031 3.06445 0
M  V30 4954 C 479.847 -2.97611 1.57891 0
M  V30 4955 O 480.377 -3.89629 0.97735 0
M  V30 4956 N 478.583 -2.59905 1.29992 0
M  V30 4957 H 478.13 -1.85154 1.79097 0
M  V30 4958 H 478.088 -3.08932 0.583798 0
M  V30 4959 N 481.861 -1.55662 -0.24637 0
M  V30 4960 C 482.808 -1.90361 -1.30504 0
M  V30 4961 C 483.778 -0.757905 -1.47801 0
M  V30 4962 O 484.963 -1.01161 -1.61775 0
M  V30 4963 C 482.103 -2.2042 -2.65535 0
M  V30 4964 C 481.216 -3.47799 -2.56242 0
M  V30 4965 C 480.351 -3.67426 -3.8363 0
M  V30 4966 C 479.39 -4.88403 -3.68956 0
M  V30 4967 N 478.527 -5.04548 -4.88237 0
M  V30 4968 H 483.367 -2.80645 -1.00213 0
M  V30 4969 H 480.904 -1.38924 -0.483577 0
M  V30 4970 H 482.862 -2.35853 -3.44135 0
M  V30 4971 H 481.492 -1.3334 -2.93973 0
M  V30 4972 H 480.544 -3.40694 -1.69208 0
M  V30 4973 H 481.856 -4.36544 -2.4131 0
M  V30 4974 H 481.01 -3.82821 -4.70673 0
M  V30 4975 H 479.749 -2.76914 -4.01459 0
M  V30 4976 H 478.754 -4.72984 -2.80296 0
M  V30 4977 H 479.979 -5.80375 -3.52621 0
M  V30 4978 H 477.925 -4.16974 -5.06427 0
M  V30 4979 H 477.842 -5.87384 -4.75937 0
M  V30 4980 H 479.11 -5.24355 -5.76777 0
M  V30 4981 N 483.339 0.512053 -1.4905 0
M  V30 4982 C 484.302 1.59704 -1.64399 0
M  V30 4983 C 485.302 1.52285 -0.516317 0
M  V30 4984 O 486.492 1.55635 -0.782527 0
M  V30 4985 C 483.624 2.9935 -1.63102 0
M  V30 4986 H 484.817 1.47428 -2.61161 0
M  V30 4987 H 482.37 0.735469 -1.37915 0
M  V30 4988 H 483.105 3.17116 -0.678836 0
M  V30 4989 H 482.89 3.06144 -2.44986 0
M  V30 4990 H 484.38 3.782 -1.77072 0
M  V30 4991 N 484.817 1.37938 0.762283 0
M  V30 4992 C 485.747 1.37176 1.88958 0
M  V30 4993 C 486.728 0.238945 1.68413 0
M  V30 4994 O 487.913 0.440726 1.89133 0
M  V30 4995 C 485.043 1.18742 3.2637 0
M  V30 4996 C 483.997 2.29136 3.61498 0
M  V30 4997 C 483.323 1.95816 4.97554 0
M  V30 4998 C 484.623 3.71363 3.6727 0
M  V30 4999 H 486.317 2.31509 1.89853 0
M  V30 5000 H 483.863 1.11438 0.912005 0
M  V30 5001 H 485.816 1.16837 4.04879 0
M  V30 5002 H 484.54 0.208683 3.25933 0
M  V30 5003 H 483.199 2.30213 2.85303 0
M  V30 5004 H 482.847 0.964475 4.93667 0
M  V30 5005 H 482.547 2.69745 5.22026 0
M  V30 5006 H 484.071 1.95513 5.78452 0
M  V30 5007 H 485.485 3.72364 4.35911 0
M  V30 5008 H 483.882 4.44425 4.03245 0
M  V30 5009 H 484.952 4.04305 2.67704 0
M  V30 5010 N 486.295 -0.989507 1.22664 0
M  V30 5011 C 487.706 -1.54406 1.04955 0
M  V30 5012 C 488.057 -1.92366 -0.385951 0
M  V30 5013 O 487.182 -1.75111 -1.27142 0
M  V30 5014 C 487.777 -2.80578 1.89899 0
M  V30 5015 C 486.336 -3.32464 1.76478 0
M  V30 5016 C 485.483 -2.05524 1.86159 0
M  V30 5017 H 488.434 -0.810211 1.3646 0
M  V30 5018 H 488.455 -3.53075 1.4184 0
M  V30 5019 H 487.967 -2.52918 2.94371 0
M  V30 5020 H 486.068 -3.65024 0.747528 0
M  V30 5021 H 486.181 -4.02838 2.59342 0
M  V30 5022 H 484.545 -2.19241 1.29636 0
M  V30 5023 H 485.328 -1.80258 2.92168 0
M  V30 5024 N 487.773 -1.03688 -1.18687 0
M  V30 5025 C 488.736 -0.629115 -2.20397 0
M  V30 5026 C 489.736 0.311495 -1.57754 0
M  V30 5027 O 490.926 0.0974107 -1.73927 0
M  V30 5028 C 488.058 0.0782231 -3.4081 0
M  V30 5029 H 489.251 -1.52915 -2.57987 0
M  V30 5030 H 486.804 -0.828988 -1.32505 0
M  V30 5031 H 487.539 0.992233 -3.08748 0
M  V30 5032 H 487.324 -0.597776 -3.87517 0
M  V30 5033 H 488.814 0.350156 -4.16129 0
M  V30 5034 N 489.251 1.34841 -0.815825 0
M  V30 5035 C 490.662 1.80937 -0.46029 0
M  V30 5036 C 491.013 1.67685 1.01863 0
M  V30 5037 O 490.138 1.21277 1.79223 0
M  V30 5038 C 490.733 3.28509 -0.828708 0
M  V30 5039 C 489.292 3.72712 -0.525644 0
M  V30 5040 C 488.439 2.56676 -1.04941 0
M  V30 5041 H 491.39 1.22688 -1.00664 0
M  V30 5042 H 491.411 3.80279 -0.129757 0
M  V30 5043 H 490.923 3.38122 -1.90513 0
M  V30 5044 H 489.024 3.68642 0.541666 0
M  V30 5045 H 489.137 4.67119 -1.06474 0
M  V30 5046 H 487.501 2.50302 -0.471286 0
M  V30 5047 H 488.284 2.69063 -2.13214 0
M  V30 5048 N 490.729 0.570148 1.46925 0
M  V30 5049 C 491.978 0.0487352 2.01641 0
M  V30 5050 C 492.291 -1.31433 1.44861 0
M  V30 5051 O 493.497 -1.92638 1.91318 0
M  V30 5052 C 491.953 0.0365817 3.59881 0
M  V30 5053 C 491.561 1.39719 4.25655 0
M  V30 5054 C 493.305 -0.431545 4.22301 0
M  V30 5055 C 491.212 1.34345 5.75939 0
M  V30 5056 H 490.142 0.0144492 0.753862 0
M  V30 5057 H 492.793 0.719928 1.68788 0
M  V30 5058 H 491.175 -0.700522 3.89755 0
M  V30 5059 H 492.349 2.15303 4.07408 0
M  V30 5060 H 490.664 1.80431 3.75278 0
M  V30 5061 H 493.261 -0.490354 5.32447 0
M  V30 5062 H 493.604 -1.44638 3.90366 0
M  V30 5063 H 494.137 0.251102 3.97007 0
M  V30 5064 H 490.876 2.33469 6.12513 0
M  V30 5065 H 490.396 0.629615 5.96486 0
M  V30 5066 H 492.075 1.051 6.38407 0
M  V30 5067 N 492.207 -1.54576 0.307264 0
M  V30 5068 C 493.117 -2.27435 -0.57536 0
M  V30 5069 C 494.133 -1.31183 -1.14311 0
M  V30 5070 O 495.309 -1.64175 -1.16656 0
M  V30 5071 C 492.374 -3.00566 -1.72803 0
M  V30 5072 C 491.435 -4.12369 -1.19373 0
M  V30 5073 C 490.668 -4.82003 -2.29147 0
M  V30 5074 O 490.891 -4.51038 -3.49171 0
M  V30 5075 O 489.825 -5.69271 -1.95485 0
M  V30 5076 H 493.651 -3.03696 0.0158558 0
M  V30 5077 H 491.236 -1.49219 0.0735064 0
M  V30 5078 H 493.118 -3.46416 -2.39946 0
M  V30 5079 H 491.793 -2.27195 -2.30574 0
M  V30 5080 H 490.7 -3.70905 -0.487851 0
M  V30 5081 H 492.033 -4.87736 -0.661376 0
M  V30 5082 N 493.685 -0.035106 -1.57561 0
M  V30 5083 C 494.632 0.94474 -2.10578 0
M  V30 5084 C 495.602 1.3192 -1.00927 0
M  V30 5085 O 496.787 1.41147 -1.28382 0
M  V30 5086 C 493.927 2.21982 -2.64231 0
M  V30 5087 C 493.04 1.90128 -3.87911 0
M  V30 5088 C 492.175 3.11975 -4.29936 0
M  V30 5089 C 491.214 2.75968 -5.46359 0
M  V30 5090 N 490.351 3.90459 -5.83512 0
M  V30 5091 H 495.191 0.485717 -2.94015 0
M  V30 5092 H 492.728 0.228143 -1.4532 0
M  V30 5093 H 494.686 2.96572 -2.9343 0
M  V30 5094 H 493.316 2.6549 -1.83616 0
M  V30 5095 H 492.368 1.05755 -3.65404 0
M  V30 5096 H 493.68 1.59613 -4.72573 0
M  V30 5097 H 492.834 3.9488 -4.60603 0
M  V30 5098 H 491.573 3.45657 -3.44053 0
M  V30 5099 H 490.578 1.91478 -5.1538 0
M  V30 5100 H 491.803 2.43497 -6.33945 0
M  V30 5101 H 489.749 4.23971 -5.00584 0
M  V30 5102 H 489.666 3.63588 -6.62827 0
M  V30 5103 H 490.934 4.7405 -6.18787 0
M  V30 5104 N 495.163 1.55791 0.238111 0
M  V30 5105 C 496.391 1.82098 0.982233 0
M  V30 5106 C 496.806 0.612025 1.78605 0
M  V30 5107 O 496.163 -0.419381 1.77616 0
M  V30 5108 C 496.214 3.0673 1.91309 0
M  V30 5109 O 495.935 4.2296 1.14179 0
M  V30 5110 C 497.436 3.45903 2.77248 0
M  V30 5111 H 494.656 0.605748 0.288635 0
M  V30 5112 H 497.2 2.02862 0.258341 0
M  V30 5113 H 495.355 2.87991 2.59114 0
M  V30 5114 H 495.769 4.93653 1.7722 0
M  V30 5115 H 497.243 4.36189 3.38295 0
M  V30 5116 H 497.72 2.66891 3.48806 0
M  V30 5117 H 498.326 3.67024 2.14881 0
M  V30 5118 N 496.642 -0.504142 1.49319 0
M  V30 5119 C 497.891 -1.25507 1.57895 0
M  V30 5120 C 498.204 -1.93735 0.269433 0
M  V30 5121 O 499.41 -2.70492 0.233706 0
M  V30 5122 C 497.866 -2.27869 2.78574 0
M  V30 5123 C 497.474 -1.65594 4.16272 0
M  V30 5124 C 499.218 -3.0381 2.96479 0
M  V30 5125 C 497.125 -2.66048 5.28178 0
M  V30 5126 H 496.055 -0.47212 0.587894 0
M  V30 5127 H 498.706 -0.52931 1.757 0
M  V30 5128 H 497.088 -3.03594 2.54257 0
M  V30 5129 H 498.262 -0.958826 4.50714 0
M  V30 5130 H 496.577 -1.02055 4.037 0
M  V30 5131 H 499.174 -3.78925 3.77253 0
M  V30 5132 H 499.517 -3.61235 2.06918 0
M  V30 5133 H 500.05 -2.352 3.20821 0
M  V30 5134 H 496.789 -2.13408 6.19788 0
M  V30 5135 H 496.309 -3.34009 4.98195 0
M  V30 5136 H 497.988 -3.28536 5.57381 0
M  V30 5137 N 498.12 -1.38341 -0.754957 0
M  V30 5138 C 499.345 -1.37882 -1.5493 0
M  V30 5139 C 499.77 0.0296385 -1.88077 0
M  V30 5140 O 499.128 1.01133 -1.50472 0
M  V30 5141 C 499.176 -2.23996 -2.82592 0
M  V30 5142 O 498.28 -1.65612 -3.77686 0
M  V30 5143 H 497.621 -0.470384 -0.468652 0
M  V30 5144 H 500.151 -1.82084 -0.933082 0
M  V30 5145 H 500.161 -2.37806 -3.3153 0
M  V30 5146 H 498.836 -3.26365 -2.57796 0
M  V30 5147 H 497.413 -1.60936 -3.36384 0
M  V30 5148 N 499.598 0.982988 -1.23187 0
M  V30 5149 C 500.545 2.07491 -1.01075 0
M  V30 5150 C 501.515 1.65949 0.070905 0
M  V30 5151 O 502.7 1.90629 -0.0806822 0
M  V30 5152 C 499.84 3.39751 -0.605261 0
M  V30 5153 C 498.953 3.94578 -1.75876 0
M  V30 5154 C 498.088 5.15039 -1.3003 0
M  V30 5155 C 497.127 5.62027 -2.42472 0
M  V30 5156 N 496.264 6.73719 -1.97602 0
M  V30 5157 H 501.104 2.25739 -1.9454 0
M  V30 5158 H 498.641 1.10659 -0.969179 0
M  V30 5159 H 500.599 4.15719 -0.351279 0
M  V30 5160 H 499.229 3.21473 0.292382 0
M  V30 5161 H 498.281 3.1539 -2.12681 0
M  V30 5162 H 499.593 4.25422 -2.60418 0
M  V30 5163 H 498.747 5.9833 -1.00429 0
M  V30 5164 H 497.486 4.85843 -0.425216 0
M  V30 5165 H 496.491 4.77318 -2.7285 0
M  V30 5166 H 497.716 5.93244 -3.30512 0
M  V30 5167 H 495.662 6.46287 -1.1247 0
M  V30 5168 H 495.579 7.03934 -2.75705 0
M  V30 5169 H 496.847 7.6049 -1.71098 0
M  V30 5170 N 501.076 1.04316 1.18135 0
M  V30 5171 C 502.039 0.640794 2.2006 0
M  V30 5172 C 503.039 -0.303124 1.57917 0
M  V30 5173 O 504.229 -0.0881855 1.73977 0
M  V30 5174 C 501.361 -0.060148 3.40847 0
M  V30 5175 H 502.554 1.54281 2.57172 0
M  V30 5176 H 500.107 0.836004 1.32063 0
M  V30 5177 H 500.842 -0.975845 3.0927 0
M  V30 5178 H 500.627 0.618319 3.87194 0
M  V30 5179 H 502.117 -0.328082 4.16309 0
M  V30 5180 N 502.554 -1.34406 0.822964 0
M  V30 5181 C 503.501 -2.29519 0.24284 0
M  V30 5182 C 504.471 -1.5359 -0.632397 0
M  V30 5183 O 505.656 -1.8196 -0.57403 0
M  V30 5184 C 502.796 -3.40032 -0.58925 0
M  V30 5185 C 501.909 -4.30899 0.308236 0
M  V30 5186 C 501.044 -5.28515 -0.533425 0
M  V30 5187 C 500.083 -6.1102 0.363444 0
M  V30 5188 N 499.22 -7.00725 -0.439147 0
M  V30 5189 H 504.06 -2.78537 1.05929 0
M  V30 5190 H 501.597 -1.3707 0.533872 0
M  V30 5191 H 503.555 -4.0279 -1.087 0
M  V30 5192 H 502.185 -2.92248 -1.37081 0
M  V30 5193 H 501.237 -3.69002 0.924203 0
M  V30 5194 H 502.549 -4.88717 0.997862 0
M  V30 5195 H 501.703 -5.96725 -1.09565 0
M  V30 5196 H 500.442 -4.71235 -1.25656 0
M  V30 5197 H 499.447 -5.41743 0.937812 0
M  V30 5198 H 500.672 -6.70381 1.08469 0
M  V30 5199 H 498.618 -6.45913 -1.14595 0
M  V30 5200 H 498.535 -7.55756 0.19209 0
M  V30 5201 H 499.803 -7.73263 -0.984124 0
M  V30 5202 N 504.032 -0.577932 -1.46621 0
M  V30 5203 C 505.28 -0.061566 -2.02006 0
M  V30 5204 C 505.601 1.30117 -1.4524 0
M  V30 5205 O 504.871 1.85313 -0.63529 0
M  V30 5206 H 503.451 -0.0197692 -0.746738 0
M  V30 5207 H 506.113 -0.752631 -1.79782 0
M  V30 5208 H 505.209 0.0110238 -3.12098 0
M  V30 5209 N 505.51 1.54411 -0.315457 0
M  V30 5210 C 506.442 2.21527 0.588067 0
M  V30 5211 C 507.455 1.21263 1.08624 0
M  V30 5212 O 508.644 1.47777 1.00121 0
M  V30 5213 C 505.744 2.85963 1.81875 0
M  V30 5214 C 504.917 4.12291 1.46063 0
M  V30 5215 C 503.976 4.60396 2.54799 0
M  V30 5216 O 503.002 5.25265 2.19283 0
M  V30 5217 N 504.204 4.33935 3.85591 0
M  V30 5218 H 506.969 2.99697 0.013414 0
M  V30 5219 H 504.53 1.61308 -0.138295 0
M  V30 5220 H 506.522 3.15071 2.53993 0
M  V30 5221 H 505.092 2.11548 2.30144 0
M  V30 5222 H 504.312 3.90036 0.571445 0
M  V30 5223 H 505.6 4.9452 1.19695 0
M  V30 5224 H 504.998 3.81996 4.17248 0
M  V30 5225 H 503.555 4.67718 4.53964 0
M  V30 5226 N 506.988 0.0434614 1.5754 0
M  V30 5227 C 508.399 -0.493343 1.80064 0
M  V30 5228 C 508.75 -1.71388 0.955023 0
M  V30 5229 O 507.875 -2.15736 0.169434 0
M  V30 5230 C 508.47 -0.90179 3.26578 0
M  V30 5231 C 507.029 -1.38362 3.50047 0
M  V30 5232 C 506.176 -0.355129 2.75017 0
M  V30 5233 H 509.127 0.2694 1.56397 0
M  V30 5234 H 509.148 -1.76523 3.37075 0
M  V30 5235 H 508.66 -0.013271 3.88098 0
M  V30 5236 H 506.761 -2.29159 2.93798 0
M  V30 5237 H 506.874 -1.3811 4.58762 0
M  V30 5238 H 505.238 -0.826348 2.40922 0
M  V30 5239 H 506.021 0.525172 3.39259 0
M  V30 5240 N 508.466 -1.55915 -0.229846 0
M  V30 5241 C 509.882 -1.48721 -0.579166 0
M  V30 5242 C 510.082 -0.736976 -1.87539 0
M  V30 5243 O 509.138 -0.273258 -2.51017 0
M  V30 5244 C 510.451 -2.9323 -0.666082 0
M  V30 5245 C 511.999 -3.03701 -0.757267 0
M  V30 5246 C 512.474 -4.49552 -0.8756 0
M  V30 5247 N 513.965 -4.53561 -0.940035 0
M  V30 5248 C 514.7 -5.63683 -1.05116 0
M  V30 5249 N 514.196 -6.83576 -1.12675 0
M  V30 5250 N 515.989 -5.51516 -1.08565 0
M  V30 5251 H 508.14 -2.03123 0.620857 0
M  V30 5252 H 510.403 -0.922898 0.21671 0
M  V30 5253 H 510.109 -3.51032 0.21664 0
M  V30 5254 H 509.983 -3.44668 -1.53243 0
M  V30 5255 H 512.37 -2.45969 -1.63043 0
M  V30 5256 H 512.451 -2.55446 0.134583 0
M  V30 5257 H 512.095 -5.079 -0.00692351 0
M  V30 5258 H 512.025 -4.95506 -1.78274 0
M  V30 5259 H 514.516 -3.67215 -0.892269 0
M  V30 5260 H 514.829 -7.63251 -1.21109 0
M  V30 5261 H 513.174 -6.86303 -1.09603 0
M  V30 5262 H 516.365 -4.5678 -1.02319 0
M  V30 5263 H 516.538 -6.37372 -1.1688 0
M  V30 5264 N 509.944 0.496216 -1.49584 0
M  V30 5265 C 510.854 1.62352 -1.69349 0
M  V30 5266 C 511.87 1.64184 -0.576147 0
M  V30 5267 O 513.046 1.82517 -0.85144 0
M  V30 5268 C 510.111 2.98698 -1.76013 0
M  V30 5269 C 509.172 3.07454 -2.99617 0
M  V30 5270 C 508.405 4.37296 -3.05953 0
M  V30 5271 O 508.628 5.2637 -2.19752 0
M  V30 5272 O 507.562 4.51124 -3.9846 0
M  V30 5273 H 511.388 1.48606 -2.64859 0
M  V30 5274 H 508.973 0.673022 -1.33382 0
M  V30 5275 H 510.855 3.79725 -1.82721 0
M  V30 5276 H 509.53 3.12696 -0.836828 0
M  V30 5277 H 508.437 2.25597 -2.98424 0
M  V30 5278 H 509.77 2.98385 -3.91443 0
M  V30 5279 N 511.423 1.38739 0.74761 0
M  V30 5280 C 512.834 1.31507 1.32524 0
M  V30 5281 C 513.185 -0.0263963 1.96182 0
M  V30 5282 O 512.31 -0.92849 1.95469 0
M  V30 5283 C 512.905 2.38162 2.40966 0
M  V30 5284 C 511.464 2.34489 2.94434 0
M  V30 5285 C 510.611 2.20712 1.67873 0
M  V30 5286 H 513.562 1.4901 0.546043 0
M  V30 5287 H 513.583 2.04222 3.21051 0
M  V30 5288 H 513.095 3.35783 1.94605 0
M  V30 5289 H 511.196 1.40467 3.45108 0
M  V30 5290 H 511.309 3.28861 3.48407 0
M  V30 5291 H 509.673 1.67667 1.91729 0
M  V30 5292 H 510.456 3.20285 1.23582 0
M  V30 5293 N 512.901 -0.976442 1.23707 0
M  V30 5294 C 513.833 -2.07212 0.979574 0
M  V30 5295 C 514.846 -1.6273 -0.0478528 0
M  V30 5296 O 516.035 -1.77506 0.18815 0
M  V30 5297 C 513.135 -3.35835 0.45479 0
M  V30 5298 C 512.308 -4.09268 1.54331 0
M  V30 5299 C 511.367 -5.16166 1.02271 0
M  V30 5300 O 510.393 -5.42827 1.71254 0
M  V30 5301 N 511.595 -5.80313 -0.147419 0
M  V30 5302 H 514.36 -2.29878 1.92292 0
M  V30 5303 H 511.921 -1.14343 1.14618 0
M  V30 5304 H 513.913 -4.04597 0.0914631 0
M  V30 5305 H 512.483 -3.10106 -0.394068 0
M  V30 5306 H 511.703 -3.34906 2.07923 0
M  V30 5307 H 512.991 -4.55095 2.27522 0
M  V30 5308 H 512.389 -5.61043 -0.724353 0
M  V30 5309 H 510.946 -6.50231 -0.451972 0
M  V30 5310 N 514.379 -1.04941 -1.1758 0
M  V30 5311 C 515.625 -0.759112 -1.88057 0
M  V30 5312 C 515.958 0.711918 -1.8068 0
M  V30 5313 O 515.233 1.52035 -1.21308 0
M  V30 5314 C 515.516 -1.237 -3.38187 0
M  V30 5315 C 515.369 -2.77078 -3.54327 0
M  V30 5316 C 516.688 -0.834014 -4.32125 0
M  V30 5317 H 513.807 -0.277237 -0.682868 0
M  V30 5318 H 516.449 -1.30296 -1.38286 0
M  V30 5319 H 514.599 -0.774337 -3.80705 0
M  V30 5320 H 516.271 -3.31449 -3.20842 0
M  V30 5321 H 514.514 -3.16477 -2.96689 0
M  V30 5322 H 515.185 -3.05577 -4.59703 0
M  V30 5323 H 517.661 -1.23228 -3.97434 0
M  V30 5324 H 516.537 -1.19603 -5.35711 0
M  V30 5325 H 516.798 0.262195 -4.41322 0
M  V30 5326 N 515.857 1.33968 -0.830081 0
M  V30 5327 C 517.087 2.01987 -0.434142 0
M  V30 5328 C 517.495 1.62639 0.96671 0
M  V30 5329 O 516.838 0.831151 1.63822 0
M  V30 5330 C 516.9 3.5648 -0.465018 0
M  V30 5331 C 516.564 4.19176 -1.82045 0
M  V30 5332 C 517.561 4.39181 -2.78237 0
M  V30 5333 C 515.246 4.55792 -2.11089 0
M  V30 5334 C 517.24 4.94937 -4.01642 0
M  V30 5335 C 514.927 5.11258 -3.34752 0
M  V30 5336 C 515.925 5.30775 -4.29845 0
M  V30 5337 O 515.613 5.85064 -5.51322 0
M  V30 5338 H 515.345 0.653847 -0.171639 0
M  V30 5339 H 517.899 1.72066 -1.12171 0
M  V30 5340 H 516.129 3.8569 0.279284 0
M  V30 5341 H 517.818 4.05804 -0.0881334 0
M  V30 5342 H 518.584 4.11249 -2.57097 0
M  V30 5343 H 514.463 4.39901 -1.3787 0
M  V30 5344 H 518.007 5.10086 -4.75876 0
M  V30 5345 H 513.904 5.38619 -3.55753 0
M  V30 5346 H 514.672 6.03489 -5.5294 0
M  V30 5347 N 517.335 0.585699 1.46312 0
M  V30 5348 C 518.563 0.0781299 2.06752 0
M  V30 5349 C 518.978 -1.22812 1.43396 0
M  V30 5350 O 518.335 -1.74318 0.540314 0
M  V30 5351 C 518.386 -0.0911927 3.61385 0
M  V30 5352 O 518.107 1.16336 4.22371 0
M  V30 5353 C 519.608 -0.632765 4.38761 0
M  V30 5354 H 516.828 0.0588188 0.668417 0
M  V30 5355 H 519.372 0.807218 1.87894 0
M  V30 5356 H 517.527 -0.770514 3.7966 0
M  V30 5357 H 517.941 0.979082 5.15281 0
M  V30 5358 H 519.415 -0.70041 5.47538 0
M  V30 5359 H 519.892 -1.65039 4.07012 0
M  V30 5360 H 520.498 0.0117856 4.25298 0
M  V30 5361 N 518.813 -1.54241 0.323641 0
M  V30 5362 C 519.743 -2.27289 -0.534993 0
M  V30 5363 C 520.724 -1.28087 -1.11927 0
M  V30 5364 O 521.909 -1.56899 -1.14439 0
M  V30 5365 C 519.039 -3.03075 -1.69596 0
M  V30 5366 C 517.993 -4.09614 -1.24098 0
M  V30 5367 C 517.319 -4.73242 -2.4889 0
M  V30 5368 C 518.619 -5.21087 -0.355789 0
M  V30 5369 H 520.313 -2.99308 0.0743257 0
M  V30 5370 H 517.859 -1.43952 0.0371874 0
M  V30 5371 H 519.812 -3.52907 -2.30293 0
M  V30 5372 H 518.536 -2.28673 -2.33187 0
M  V30 5373 H 517.195 -3.60666 -0.656945 0
M  V30 5374 H 516.843 -3.95455 -3.10845 0
M  V30 5375 H 516.543 -5.45209 -2.19138 0
M  V30 5376 H 518.067 -5.25848 -3.10348 0
M  V30 5377 H 519.481 -5.66675 -0.869042 0
M  V30 5378 H 517.878 -5.9991 -0.151045 0
M  V30 5379 H 518.948 -4.81005 0.613339 0
M  V30 5380 N 520.291 -0.0518155 -1.57515 0
M  V30 5381 C 521.702 0.483787 -1.80323 0
M  V30 5382 C 522.053 1.70879 -0.964099 0
M  V30 5383 O 521.178 2.15643 -0.180872 0
M  V30 5384 C 521.773 0.884459 -3.27052 0
M  V30 5385 C 520.332 1.36504 -3.50776 0
M  V30 5386 C 519.479 0.340539 -2.75201 0
M  V30 5387 H 522.43 -0.277691 -1.56252 0
M  V30 5388 H 522.451 1.74733 -3.38007 0
M  V30 5389 H 521.963 -0.00731093 -3.88099 0
M  V30 5390 H 520.064 2.27598 -2.95009 0
M  V30 5391 H 520.177 1.35675 -4.59488 0
M  V30 5392 H 518.541 0.81356 -2.41357 0
M  V30 5393 H 519.324 -0.543156 -3.38976 0
M  V30 5394 N 521.769 1.56035 0.221574 0
M  V30 5395 C 523.18 1.69229 0.788567 0
M  V30 5396 C 523.531 0.653814 1.84986 0
M  V30 5397 O 522.656 -0.195065 2.15519 0
M  V30 5398 C 523.251 3.06809 1.43713 0
M  V30 5399 C 521.81 3.21858 1.95152 0
M  V30 5400 C 520.957 2.65155 0.811685 0
M  V30 5401 H 523.908 1.587 -0.00307894 0
M  V30 5402 H 523.929 3.02666 2.30594 0
M  V30 5403 H 523.441 3.82369 0.664475 0
M  V30 5404 H 521.542 2.51167 2.7522 0
M  V30 5405 H 521.655 4.29073 2.1315 0
M  V30 5406 H 520.019 2.23635 1.21899 0
M  V30 5407 H 520.802 3.43261 0.0516987 0
M  V30 5408 N 523.247 -0.488276 1.49845 0
M  V30 5409 C 524.472 -1.26997 1.63971 0
M  V30 5410 C 524.897 -1.85427 0.315994 0
M  V30 5411 O 524.255 -1.66475 -0.718032 0
M  V30 5412 C 524.303 -2.36689 2.72049 0
M  V30 5413 O 523.407 -3.40882 2.32107 0
M  V30 5414 H 522.748 -0.374376 0.548396 0
M  V30 5415 H 525.278 -0.583104 1.96115 0
M  V30 5416 H 525.288 -2.82262 2.94605 0
M  V30 5417 H 523.963 -1.93529 3.68129 0
M  V30 5418 H 522.54 -3.01139 2.19931 0
M  V30 5419 N 524.725 -1.39134 -0.740242 0
M  V30 5420 C 526.141 -1.20623 -1.0451 0
M  V30 5421 C 526.341 -0.0641651 -2.01398 0
M  V30 5422 O 525.397 0.585843 -2.4561 0
M  V30 5423 C 526.71 -2.53815 -1.6124 0
M  V30 5424 C 528.258 -2.60615 -1.73346 0
M  V30 5425 C 528.733 -3.94015 -2.33486 0
M  V30 5426 N 530.224 -3.95627 -2.40902 0
M  V30 5427 C 530.959 -4.95616 -2.88361 0
M  V30 5428 N 530.455 -6.06003 -3.35756 0
M  V30 5429 N 532.248 -4.82998 -2.87523 0
M  V30 5430 H 524.399 -2.12176 -0.0975576 0
M  V30 5431 H 526.662 -0.942066 -0.105904 0
M  V30 5432 H 526.368 -3.37911 -0.975144 0
M  V30 5433 H 526.242 -2.73162 -2.6012 0
M  V30 5434 H 528.629 -1.76906 -2.36195 0
M  V30 5435 H 528.71 -2.45123 -0.731336 0
M  V30 5436 H 528.354 -4.78153 -1.71267 0
M  V30 5437 H 528.284 -4.06825 -3.34366 0
M  V30 5438 H 530.775 -3.15903 -2.07398 0
M  V30 5439 H 531.088 -6.78215 -3.70464 0
M  V30 5440 H 529.433 -6.09604 -3.33778 0
M  V30 5441 H 532.624 -3.95866 -2.49816 0
M  V30 5442 H 532.797 -5.61072 -3.24196 0
M  V30 5443 N 526.204 0.969867 -1.24223 0
M  V30 5444 C 527.114 2.09806 -1.0497 0
M  V30 5445 C 528.13 1.73998 0.00886455 0
M  V30 5446 O 529.306 2.00513 -0.188848 0
M  V30 5447 C 526.371 3.40467 -0.654452 0
M  V30 5448 C 525.432 3.90236 -1.78926 0
M  V30 5449 C 524.665 5.14662 -1.41277 0
M  V30 5450 O 524.888 5.69602 -0.301632 0
M  V30 5451 O 523.822 5.58761 -2.23763 0
M  V30 5452 H 527.648 2.28942 -1.99548 0
M  V30 5453 H 525.233 1.08197 -1.03023 0
M  V30 5454 H 527.115 4.19039 -0.445452 0
M  V30 5455 H 525.79 3.22636 0.262216 0
M  V30 5456 H 524.697 3.12735 -2.05299 0
M  V30 5457 H 526.03 4.1254 -2.68462 0
M  V30 5458 N 527.682 1.05563 1.17022 0
M  V30 5459 C 528.592 0.670758 2.24807 0
M  V30 5460 C 529.608 -0.309865 1.71219 0
M  V30 5461 O 530.784 -0.161025 2.00755 0
M  V30 5462 C 527.849 0.055337 3.46656 0
M  V30 5463 C 526.91 1.08688 4.15314 0
M  V30 5464 C 526.143 0.500736 5.31346 0
M  V30 5465 O 526.366 -0.688718 5.66227 0
M  V30 5466 O 525.3 1.23683 5.89055 0
M  V30 5467 H 529.126 1.56914 2.60023 0
M  V30 5468 H 526.711 0.827428 1.24395 0
M  V30 5469 H 528.593 -0.286492 4.20425 0
M  V30 5470 H 527.268 -0.816638 3.13229 0
M  V30 5471 H 526.175 1.48077 3.43546 0
M  V30 5472 H 527.508 1.93014 4.52777 0
M  V30 5473 N 529.16 -1.33526 0.837174 0
M  V30 5474 C 530.093 -2.27192 0.214233 0
M  V30 5475 C 531.071 -1.49575 -0.637657 0
M  V30 5476 O 532.255 -1.78753 -0.598291 0
M  V30 5477 C 529.382 -3.31401 -0.699367 0
M  V30 5478 C 528.428 -4.26431 0.0768429 0
M  V30 5479 S 529.261 -5.15954 1.4336 0
M  V30 5480 C 530.417 -6.23692 0.525251 0
M  V30 5481 H 530.65 -2.79679 1.00831 0
M  V30 5482 H 528.183 -1.4079 0.633834 0
M  V30 5483 H 530.141 -3.91924 -1.22088 0
M  V30 5484 H 528.802 -2.77732 -1.46709 0
M  V30 5485 H 527.995 -5.00193 -0.618268 0
M  V30 5486 H 527.597 -3.70235 0.529364 0
M  V30 5487 H 529.889 -6.76931 -0.277575 0
M  V30 5488 H 530.832 -6.97283 1.23299 0
M  V30 5489 H 531.24 -5.64398 0.107351 0
M  V30 5490 N 530.638 -0.59345 -1.46 0
M  V30 5491 C 531.866 -0.0890934 -2.06708 0
M  V30 5492 C 532.281 1.2205 -1.44046 0
M  V30 5493 O 531.638 1.74029 -0.549551 0
M  V30 5494 C 531.689 0.0720263 -3.61428 0
M  V30 5495 O 531.41 -1.18574 -4.21748 0
M  V30 5496 C 532.911 0.609487 -4.3909 0
M  V30 5497 H 530.131 -0.0623628 -0.668096 0
M  V30 5498 H 532.675 -0.817171 -1.87464 0
M  V30 5499 H 530.83 0.750369 -3.80063 0
M  V30 5500 H 531.244 -1.0064 -5.14754 0
M  V30 5501 H 532.718 0.671363 -5.47902 0
M  V30 5502 H 533.195 1.62878 -4.07882 0
M  V30 5503 H 533.801 -0.03434 -4.25286 0
M  V30 5504 N 532.116 1.54067 -0.331816 0
M  V30 5505 C 533.063 2.24623 0.530372 0
M  V30 5506 C 534.033 1.24009 1.10503 0
M  V30 5507 O 535.218 1.52712 1.14384 0
M  V30 5508 C 532.358 3.01374 1.68129 0
M  V30 5509 C 531.471 4.16821 1.13507 0
M  V30 5510 C 530.606 4.81085 2.25234 0
M  V30 5511 C 529.645 5.88621 1.67903 0
M  V30 5512 N 528.782 6.46713 2.73326 0
M  V30 5513 H 533.622 2.97898 -0.0778607 0
M  V30 5514 H 531.159 1.47014 -0.0501965 0
M  V30 5515 H 533.117 3.44125 2.35868 0
M  V30 5516 H 531.747 2.30419 2.26069 0
M  V30 5517 H 530.799 3.78796 0.348979 0
M  V30 5518 H 532.111 4.94203 0.675633 0
M  V30 5519 H 531.265 5.26846 3.00862 0
M  V30 5520 H 530.004 4.03102 2.74518 0
M  V30 5521 H 529.009 5.42254 0.907773 0
M  V30 5522 H 530.234 6.68506 1.19487 0
M  V30 5523 H 528.18 5.71599 3.21886 0
M  V30 5524 H 528.097 7.19532 2.3197 0
M  V30 5525 H 529.365 6.97129 3.48758 0
M  V30 5526 N 533.594 0.0601682 1.57485 0
M  V30 5527 C 534.542 -0.928899 2.13247 0
M  V30 5528 C 535.536 -1.31616 1.06647 0
M  V30 5529 O 536.742 -1.29476 1.25043 0
M  V30 5530 H 533.117 -0.317455 0.681708 0
M  V30 5531 H 535.088 -0.433566 2.95233 0
M  V30 5532 C 533.837 -2.19121 2.69965 0
M  V30 5533 H 533.16 -1.90204 3.51657 0
M  V30 5534 H 534.6 -2.86465 3.12592 0
M  V30 5535 C 533.059 -2.94195 1.64168 0
M  V30 5536 O 533.589 -3.87468 1.05978 0
M  V30 5537 N 531.795 -2.57089 1.35476 0
M  V30 5538 H 531.342 -1.81314 1.82984 0
M  V30 5539 H 531.3 -3.07624 0.649196 0
M  V30 5540 N 535.072 -1.5615 -0.213296 0
M  V30 5541 C 536.004 -1.89586 -1.28802 0
M  V30 5542 C 537.017 -0.784844 -1.42633 0
M  V30 5543 O 538.206 -1.06319 -1.43383 0
M  V30 5544 C 535.306 -2.09665 -2.66259 0
M  V30 5545 C 534.479 -3.40726 -2.7427 0
M  V30 5546 C 533.538 -3.50137 -3.92798 0
M  V30 5547 O 532.564 -4.23105 -3.8075 0
M  V30 5548 N 533.766 -2.81886 -5.07465 0
M  V30 5549 H 536.531 -2.82368 -1.00442 0
M  V30 5550 H 534.092 -1.56796 -0.403302 0
M  V30 5551 H 536.084 -2.13268 -3.43946 0
M  V30 5552 H 534.654 -1.23469 -2.87183 0
M  V30 5553 H 533.874 -3.4915 -1.82997 0
M  V30 5554 H 535.162 -4.27048 -2.76599 0
M  V30 5555 H 534.56 -2.22397 -5.2015 0
M  V30 5556 H 533.117 -2.91139 -5.83165 0
M  V30 5557 N 536.55 0.480323 -1.50102 0
M  V30 5558 C 537.796 1.23489 -1.60867 0
M  V30 5559 C 538.129 1.91809 -0.303827 0
M  V30 5560 O 537.404 1.81694 0.694092 0
M  V30 5561 C 537.687 2.28578 -2.78252 0
M  V30 5562 C 537.54 1.64624 -4.18592 0
M  V30 5563 C 538.859 3.2997 -2.91218 0
M  V30 5564 H 535.978 0.447605 -0.585507 0
M  V30 5565 H 538.62 0.530005 -1.82458 0
M  V30 5566 H 536.77 2.88697 -2.59974 0
M  V30 5567 H 538.442 1.08173 -4.48438 0
M  V30 5568 H 536.685 0.949645 -4.23278 0
M  V30 5569 H 537.356 2.40946 -4.96638 0
M  V30 5570 H 539.832 2.79864 -3.07921 0
M  V30 5571 H 538.708 4.00839 -3.74993 0
M  V30 5572 H 538.969 3.93541 -2.0144 0
M  V30 5573 N 538.028 1.39524 0.732853 0
M  V30 5574 C 539.253 1.40329 1.52717 0
M  V30 5575 C 539.678 0.000286574 1.881 0
M  V30 5576 O 539.036 -0.987262 1.52062 0
M  V30 5577 C 539.084 2.28464 2.78992 0
M  V30 5578 O 538.188 1.716 3.75003 0
M  V30 5579 H 537.529 0.47778 0.461109 0
M  V30 5580 H 540.059 1.83546 0.903996 0
M  V30 5581 H 540.069 2.43051 3.27705 0
M  V30 5582 H 538.744 3.30425 2.52572 0
M  V30 5583 H 537.321 1.66267 3.33781 0
M  V30 5584 N 539.506 -0.963266 1.24736 0
M  V30 5585 C 540.436 -2.07628 1.06832 0
M  V30 5586 C 541.417 -1.70088 -0.0200566 0
M  V30 5587 O 542.602 -1.93636 0.147854 0
M  V30 5588 C 539.732 -3.40636 0.677069 0
M  V30 5589 C 538.686 -3.9215 1.71471 0
M  V30 5590 C 538.012 -5.21553 1.1784 0
M  V30 5591 C 539.312 -4.19493 3.11164 0
M  V30 5592 H 541.006 -2.22864 1.9993 0
M  V30 5593 H 538.552 -1.07093 0.96266 0
M  V30 5594 H 540.505 -4.17941 0.538792 0
M  V30 5595 H 539.229 -3.25313 -0.289612 0
M  V30 5596 H 537.888 -3.17005 1.84128 0
M  V30 5597 H 537.536 -5.02593 0.202195 0
M  V30 5598 H 537.236 -5.56988 1.87185 0
M  V30 5599 H 538.76 -6.01463 1.05233 0
M  V30 5600 H 540.174 -4.87487 3.01711 0
M  V30 5601 H 538.571 -4.66165 3.77902 0
M  V30 5602 H 539.641 -3.26097 3.58871 0
M  V30 5603 N 540.985 -1.06182 -1.16461 0
M  V30 5604 C 542.213 -0.798583 -1.90867 0
M  V30 5605 C 542.628 0.646921 -1.77371 0
M  V30 5606 O 541.985 1.44279 -1.11758 0
M  V30 5607 C 542.036 -1.18258 -3.4161 0
M  V30 5608 O 541.757 -2.57135 -3.54701 0
M  V30 5609 C 543.258 -0.946917 -4.33069 0
M  V30 5610 H 540.478 -0.289603 -0.605286 0
M  V30 5611 H 543.022 -1.41515 -1.47627 0
M  V30 5612 H 541.177 -0.610562 -3.82558 0
M  V30 5613 H 541.591 -2.72477 -4.4817 0
M  V30 5614 H 543.065 -1.26523 -5.37304 0
M  V30 5615 H 543.542 0.117406 -4.39043 0
M  V30 5616 H 544.148 -1.50326 -3.97847 0
M  V30 5617 N 542.463 1.3308 -0.844243 0
M  V30 5618 C 543.703 1.99414 -0.448697 0
M  V30 5619 C 544.067 1.65398 0.975058 0
M  V30 5620 O 545.268 2.24741 1.47461 0
M  V30 5621 C 543.539 3.51081 -0.669089 0
M  V30 5622 S 545.098 4.37241 -0.369564 0
M  V30 5623 H 541.916 0.690736 -0.168538 0
M  V30 5624 H 544.518 1.61977 -1.0947 0
M  V30 5625 H 543.222 3.73326 -1.70457 0
M  V30 5626 H 542.753 3.93399 -0.00913211 0
M  V30 5627 H 544.768 4.89568 0.808552 0
M  V30 5628 N 543.941 0.601185 1.45683 0
M  V30 5629 C 544.871 -0.108824 2.33246 0
M  V30 5630 C 545.852 -0.865223 1.46451 0
M  V30 5631 O 547.037 -0.83704 1.75235 0
M  V30 5632 C 544.167 -1.11101 3.2905 0
M  V30 5633 C 543.121 -0.468244 4.25431 0
M  V30 5634 C 542.447 -1.57822 5.10878 0
M  V30 5635 C 543.747 0.606469 5.18767 0
M  V30 5636 H 545.441 0.622306 2.92861 0
M  V30 5637 H 542.987 0.300714 1.40825 0
M  V30 5638 H 544.94 -1.61622 3.89174 0
M  V30 5639 H 543.664 -1.87265 2.67581 0
M  V30 5640 H 542.323 0.0160484 3.66596 0
M  V30 5641 H 541.971 -2.32998 4.45781 0
M  V30 5642 H 541.671 -1.15369 5.76163 0
M  V30 5643 H 543.195 -2.08583 5.73869 0
M  V30 5644 H 544.609 0.185589 5.73 0
M  V30 5645 H 543.006 0.952381 5.92494 0
M  V30 5646 H 544.076 1.48559 4.61582 0
M  V30 5647 N 545.419 -1.53889 0.339982 0
M  V30 5648 C 546.665 -2.01152 -0.258003 0
M  V30 5649 C 546.998 -1.22749 -1.50487 0
M  V30 5650 O 546.273 -0.314156 -1.91946 0
M  V30 5651 C 546.556 -3.55468 -0.575717 0
M  V30 5652 C 546.409 -4.44584 0.682996 0
M  V30 5653 C 547.728 -4.1768 -1.38677 0
M  V30 5654 H 544.847 -0.731198 -0.0922992 0
M  V30 5655 H 547.489 -1.84352 0.459814 0
M  V30 5656 H 545.639 -3.69914 -1.18725 0
M  V30 5657 H 547.311 -4.41981 1.32102 0
M  V30 5658 H 545.554 -4.13592 1.3086 0
M  V30 5659 H 546.225 -5.5043 0.416001 0
M  V30 5660 H 548.701 -4.0691 -0.869705 0
M  V30 5661 H 547.577 -5.25734 -1.57783 0
M  V30 5662 H 547.838 -3.72069 -2.38782 0
M  V30 5663 N 546.897 -0.0685191 -1.57451 0
M  V30 5664 C 547.844 0.899861 -2.12535 0
M  V30 5665 C 548.814 1.29749 -1.03703 0
M  V30 5666 O 549.999 1.38392 -1.31348 0
M  V30 5667 C 547.139 2.16328 -2.6888 0
M  V30 5668 C 546.252 1.81857 -3.91857 0
M  V30 5669 C 545.387 3.02786 -4.36457 0
M  V30 5670 C 544.426 2.64317 -5.5209 0
M  V30 5671 N 543.563 3.77994 -5.91663 0
M  V30 5672 H 548.403 0.423243 -2.94979 0
M  V30 5673 H 545.94 0.197268 -1.45771 0
M  V30 5674 H 547.898 2.90281 -2.99655 0
M  V30 5675 H 546.528 2.61536 -1.89206 0
M  V30 5676 H 545.58 0.979808 -3.67565 0
M  V30 5677 H 546.892 1.49553 -4.75852 0
M  V30 5678 H 546.046 3.85021 -4.68875 0
M  V30 5679 H 544.785 3.38281 -3.51308 0
M  V30 5680 H 543.79 1.80503 -5.19325 0
M  V30 5681 H 545.015 2.29995 -6.38967 0
M  V30 5682 H 542.961 4.13258 -5.09464 0
M  V30 5683 H 542.878 3.49447 -6.7039 0
M  V30 5684 H 544.146 4.60818 -6.28703 0
M  V30 5685 N 548.375 1.56261 0.205012 0
M  V30 5686 C 549.623 1.79684 0.925096 0
M  V30 5687 C 549.944 0.63989 1.84202 0
M  V30 5688 O 549.214 -0.342345 1.92885 0
M  V30 5689 H 547.794 0.662774 0.344587 0
M  V30 5690 H 550.456 1.93734 0.212899 0
M  V30 5691 H 549.552 2.72467 1.52211 0
M  V30 5692 N 549.853 -0.472356 1.50355 0
M  V30 5693 C 551.1 -1.22453 1.61281 0
M  V30 5694 C 551.428 -1.91972 0.31256 0
M  V30 5695 O 550.683 -1.82696 -0.701475 0
M  V30 5696 C 550.982 -2.29257 2.74182 0
M  V30 5697 C 550.648 -1.76999 4.14708 0
M  V30 5698 C 549.31 -1.62467 4.52944 0
M  V30 5699 C 551.662 -1.38215 5.0254 0
M  V30 5700 C 548.99 -1.07574 5.76754 0
M  V30 5701 C 551.342 -0.847638 6.26895 0
M  V30 5702 C 550.006 -0.688946 6.63935 0
M  V30 5703 H 549.276 -0.448087 0.590168 0
M  V30 5704 H 551.923 -0.520744 1.84284 0
M  V30 5705 H 550.228 -3.05538 2.45263 0
M  V30 5706 H 551.925 -2.87212 2.7984 0
M  V30 5707 H 548.515 -1.89276 3.84542 0
M  V30 5708 H 552.699 -1.48276 4.73633 0
M  V30 5709 H 547.955 -0.940237 6.04127 0
M  V30 5710 H 552.129 -0.538455 6.94315 0
M  V30 5711 H 549.756 -0.261435 7.5975 0
M  V30 5712 N 551.331 -1.39911 -0.725443 0
M  V30 5713 C 552.561 -1.40744 -1.51244 0
M  V30 5714 C 552.969 -0.00275403 -1.892 0
M  V30 5715 O 552.312 0.981299 -1.55294 0
M  V30 5716 C 552.374 -2.22527 -2.82351 0
M  V30 5717 C 552.038 -3.71053 -2.66774 0
M  V30 5718 C 553.035 -4.63916 -2.34686 0
M  V30 5719 C 550.72 -4.14753 -2.83347 0
M  V30 5720 C 552.714 -5.98463 -2.19366 0
M  V30 5721 C 550.401 -5.49372 -2.67644 0
M  V30 5722 C 551.399 -6.41042 -2.357 0
M  V30 5723 O 551.087 -7.73181 -2.20107 0
M  V30 5724 H 550.819 -0.482314 -0.473655 0
M  V30 5725 H 553.373 -1.84472 -0.903284 0
M  V30 5726 H 551.603 -1.73563 -3.45562 0
M  V30 5727 H 553.292 -2.15421 -3.44018 0
M  V30 5728 H 554.058 -4.31453 -2.21525 0
M  V30 5729 H 549.937 -3.43728 -3.072 0
M  V30 5730 H 553.481 -6.69979 -1.94354 0
M  V30 5731 H 549.378 -5.81424 -2.80387 0
M  V30 5732 H 550.146 -7.84008 -2.35103 0
M  V30 5733 N 552.809 0.956637 -1.25245 0
M  V30 5734 C 554.22 1.51569 -1.09012 0
M  V30 5735 C 554.571 1.93322 0.334813 0
M  V30 5736 O 553.696 1.78421 1.22454 0
M  V30 5737 C 554.291 2.75444 -1.97271 0
M  V30 5738 C 552.85 3.27669 -1.8523 0
M  V30 5739 C 551.997 2.00517 -1.91542 0
M  V30 5740 H 554.948 0.773746 -1.3856 0
M  V30 5741 H 554.969 3.4919 -1.51151 0
M  V30 5742 H 554.481 2.45024 -3.00973 0
M  V30 5743 H 552.582 3.62914 -0.844045 0
M  V30 5744 H 552.695 3.9582 -2.69932 0
M  V30 5745 H 551.059 2.15727 -1.35404 0
M  V30 5746 H 551.842 1.72448 -2.96844 0
M  V30 5747 N 554.287 1.06798 1.15896 0
M  V30 5748 C 555.512 0.808739 1.90982 0
M  V30 5749 C 555.937 -0.6316 1.77179 0
M  V30 5750 O 555.295 -1.4407 1.10061 0
M  V30 5751 C 555.343 1.21468 3.39526 0
M  V30 5752 O 554.447 0.356562 4.10856 0
M  V30 5753 H 553.788 0.29512 0.594811 0
M  V30 5754 H 556.318 1.42513 1.46804 0
M  V30 5755 H 556.328 1.18844 3.90308 0
M  V30 5756 H 555.003 2.26379 3.48891 0
M  V30 5757 H 553.58 0.444808 3.70238 0
M  V30 5758 N 555.766 -1.3263 0.851289 0
M  V30 5759 C 557.043 -1.91982 0.374448 0
M  V30 5760 C 557.423 -1.77568 -1.14161 0
M  V30 5761 O 556.771 -1.1717 -1.96172 0
M  V30 5762 C 556.981 -3.38862 0.835088 0
M  V30 5763 C 558.329 -4.15999 0.850309 0
M  V30 5764 O 559.353 -3.47566 0.779505 0
M  V30 5765 O 558.212 -5.38189 0.949481 0
M  V30 5766 H 555.306 -0.819846 0.10854 0
M  V30 5767 H 557.852 -1.41422 0.937966 0
M  V30 5768 H 556.624 -3.43281 1.87814 0
M  V30 5769 H 556.247 -3.96821 0.248833 0
M  V30 5770 N 557.244 -0.608902 -1.45362 0
M  V30 5771 C 558.493 -0.10218 -2.01441 0
M  V30 5772 C 558.806 1.27546 -1.48295 0
M  V30 5773 O 560.012 1.87498 -1.96359 0
M  V30 5774 C 558.468 -0.131985 -3.59658 0
M  V30 5775 C 558.076 -1.50956 -4.21801 0
M  V30 5776 C 559.82 0.319427 -4.23296 0
M  V30 5777 C 557.727 -1.49568 -5.72174 0
M  V30 5778 H 556.657 -0.0344314 -0.753213 0
M  V30 5779 H 559.308 -0.764426 -1.6682 0
M  V30 5780 H 557.69 0.596939 -3.91475 0
M  V30 5781 H 558.864 -2.26029 -4.01556 0
M  V30 5782 H 557.179 -1.90318 -3.70362 0
M  V30 5783 H 559.776 0.349013 -5.3356 0
M  V30 5784 H 560.119 1.34237 -3.94064 0
M  V30 5785 H 560.652 -0.356273 -3.96201 0
M  V30 5786 H 557.391 -2.49626 -6.06108 0
M  V30 5787 H 556.911 -0.787542 -5.94607 0
M  V30 5788 H 558.59 -1.21989 -6.35396 0
M  V30 5789 N 558.722 1.53707 -0.348139 0
M  V30 5790 C 559.685 2.23812 0.494058 0
M  V30 5791 C 560.685 1.23989 1.02388 0
M  V30 5792 O 561.875 1.48395 0.912396 0
M  V30 5793 C 559.007 2.96133 1.68872 0
M  V30 5794 H 560.2 2.99663 -0.119141 0
M  V30 5795 H 557.753 1.55983 -0.0995539 0
M  V30 5796 H 558.488 2.24481 2.34049 0
M  V30 5797 H 558.273 3.69357 1.31596 0
M  V30 5798 H 559.763 3.49475 2.28597 0
M  V30 5799 N 560.2 0.0768682 1.57412 0
M  V30 5800 C 561.446 -0.591961 1.93968 0
M  V30 5801 C 561.779 -1.68954 0.9575 0
M  V30 5802 O 561.054 -1.94496 -0.0124675 0
M  V30 5803 C 561.337 -1.16418 3.40762 0
M  V30 5804 C 561.19 -0.0728933 4.49741 0
M  V30 5805 C 562.509 -2.06814 3.88479 0
M  V30 5806 H 559.628 -0.213716 0.705333 0
M  V30 5807 H 562.27 0.14387 1.89455 0
M  V30 5808 H 560.42 -1.79128 3.4474 0
M  V30 5809 H 562.092 0.560446 4.57883 0
M  V30 5810 H 560.335 0.595859 4.29688 0
M  V30 5811 H 561.006 -0.513755 5.49604 0
M  V30 5812 H 563.482 -1.54033 3.8654 0
M  V30 5813 H 562.358 -2.43785 4.91793 0
M  V30 5814 H 562.619 -2.97844 3.26713 0
M  V30 5815 N 561.678 -1.56367 -0.196722 0
M  V30 5816 C 562.588 -1.97617 -1.2643 0
M  V30 5817 C 563.604 -0.883598 -1.49895 0
M  V30 5818 O 564.78 -1.18921 -1.62541 0
M  V30 5819 C 561.845 -2.30595 -2.58895 0
M  V30 5820 C 560.906 -3.53551 -2.43516 0
M  V30 5821 C 560.139 -3.84946 -3.69665 0
M  V30 5822 O 560.362 -3.17655 -4.73763 0
M  V30 5823 O 559.296 -4.78379 -3.65291 0
M  V30 5824 H 563.122 -2.88648 -0.944233 0
M  V30 5825 H 560.707 -1.43901 -0.401592 0
M  V30 5826 H 562.589 -2.52889 -3.37083 0
M  V30 5827 H 561.264 -1.42732 -2.90533 0
M  V30 5828 H 560.171 -3.36507 -1.63445 0
M  V30 5829 H 561.504 -4.41875 -2.16812 0
M  V30 5830 N 563.156 0.464375 -1.50603 0
M  V30 5831 C 564.402 1.21485 -1.63135 0
M  V30 5832 C 564.757 1.89538 -0.33063 0
M  V30 5833 O 564.05 1.79432 0.671903 0
M  V30 5834 C 564.244 2.278 -2.75394 0
M  V30 5835 C 564.073 1.70178 -4.16257 0
M  V30 5836 C 562.843 1.49854 -4.82568 0
M  V30 5837 C 565.041 1.19298 -5.00272 0
M  V30 5838 N 563.023 0.875458 -6.07626 0
M  V30 5839 C 564.394 0.693527 -6.16109 0
M  V30 5840 C 566.449 1.08216 -4.85998 0
M  V30 5841 C 565.152 0.0941808 -7.19238 0
M  V30 5842 C 567.178 0.496745 -5.8931 0
M  V30 5843 C 566.54 0.00770448 -7.044 0
M  V30 5844 H 562.639 0.433184 -0.651057 0
M  V30 5845 H 565.223 0.515748 -1.87745 0
M  V30 5846 H 563.394 2.95129 -2.52495 0
M  V30 5847 H 565.126 2.94814 -2.77249 0
M  V30 5848 H 561.881 1.75269 -4.39975 0
M  V30 5849 H 562.305 0.582135 -6.74493 0
M  V30 5850 H 566.947 1.44617 -3.97298 0
M  V30 5851 H 564.665 -0.28202 -8.07608 0
M  V30 5852 H 568.251 0.413275 -5.8033 0
M  V30 5853 H 567.131 -0.438188 -7.82975 0
M  V30 5854 N 564.634 1.40294 0.718013 0
M  V30 5855 C 565.544 1.42678 1.86226 0
M  V30 5856 C 566.56 0.319655 1.71039 0
M  V30 5857 O 567.736 0.563852 1.93346 0
M  V30 5858 C 564.801 1.2852 3.21999 0
M  V30 5859 C 563.862 2.49354 3.49458 0
M  V30 5860 C 563.095 2.35863 4.78753 0
M  V30 5861 O 563.318 1.37114 5.53675 0
M  V30 5862 O 562.252 3.25189 5.06494 0
M  V30 5863 H 566.078 2.39167 1.87171 0
M  V30 5864 H 563.663 1.2159 0.868112 0
M  V30 5865 H 565.545 1.22824 4.03103 0
M  V30 5866 H 564.22 0.351359 3.21787 0
M  V30 5867 H 563.127 2.60628 2.68373 0
M  V30 5868 H 564.46 3.41491 3.54464 0
M  V30 5869 N 566.112 -0.949982 1.2575 0
M  V30 5870 C 567.337 -1.73503 1.13628 0
M  V30 5871 C 567.762 -1.85601 -0.30559 0
M  V30 5872 O 567.12 -1.33984 -1.22139 0
M  V30 5873 C 567.168 -3.1243 1.80055 0
M  V30 5874 O 566.272 -3.97916 1.08336 0
M  V30 5875 H 565.613 -0.532665 0.396439 0
M  V30 5876 H 568.143 -1.19043 1.66403 0
M  V30 5877 H 568.153 -3.62866 1.86527 0
M  V30 5878 H 566.828 -3.02941 2.84956 0
M  V30 5879 H 565.405 -3.56375 1.09777 0
M  V30 5880 N 567.59 -1.07411 -1.15328 0
M  V30 5881 C 568.538 -0.689316 -2.22151 0
M  V30 5882 C 569.532 0.300156 -1.6672 0
M  V30 5883 O 570.738 0.163804 -1.79253 0
M  V30 5884 H 567.113 -0.204834 -0.723566 0
M  V30 5885 H 569.084 -1.59988 -2.51886 0
M  V30 5886 C 567.833 -0.103848 -3.47545 0
M  V30 5887 H 567.156 -0.856367 -3.90521 0
M  V30 5888 H 568.596 0.127725 -4.23808 0
M  V30 5889 C 567.055 1.15563 -3.1646 0
M  V30 5890 O 567.585 2.242 -3.33312 0
M  V30 5891 N 565.791 1.06203 -2.70498 0
M  V30 5892 H 565.338 0.177933 -2.56985 0
M  V30 5893 H 565.296 1.90553 -2.50074 0
M  V30 5894 N 569.068 1.32177 -0.85831 0
M  V30 5895 C 570.316 1.96735 -0.462568 0
M  V30 5896 C 570.637 1.6824 0.985911 0
M  V30 5897 O 569.907 0.991564 1.68952 0
M  V30 5898 H 568.487 0.727849 -0.168064 0
M  V30 5899 H 571.149 1.61195 -1.09554 0
M  V30 5900 H 570.245 3.06068 -0.610647 0
M  V30 5901 N 570.547 0.616602 1.45037 0
M  V30 5902 C 571.479 -0.135186 2.28801 0
M  V30 5903 C 572.492 -0.82303 1.40464 0
M  V30 5904 O 573.681 -0.686909 1.64754 0
M  V30 5905 C 570.781 -1.21292 3.16451 0
M  V30 5906 C 569.954 -0.61043 4.3312 0
M  V30 5907 C 569.013 -1.58022 5.01912 0
M  V30 5908 O 568.039 -1.10301 5.58411 0
M  V30 5909 N 569.241 -2.91464 5.02025 0
M  V30 5910 H 572.006 0.583612 2.93963 0
M  V30 5911 H 569.567 0.456723 1.55324 0
M  V30 5912 H 571.559 -1.86169 3.59337 0
M  V30 5913 H 570.129 -1.83412 2.53138 0
M  V30 5914 H 569.349 0.216638 3.93604 0
M  V30 5915 H 570.637 -0.188293 5.08451 0
M  V30 5916 H 570.035 -3.32829 4.57429 0
M  V30 5917 H 568.592 -3.51741 5.48745 0
M  V30 5918 N 572.025 -1.5352 0.356285 0
M  V30 5919 C 573.436 -1.86282 -0.12492 0
M  V30 5920 C 573.787 -1.27717 -1.48939 0
M  V30 5921 O 572.912 -0.595614 -2.08042 0
M  V30 5922 C 573.507 -3.37995 -0.23345 0
M  V30 5923 C 572.066 -3.70588 -0.658899 0
M  V30 5924 C 571.213 -2.76581 0.199596 0
M  V30 5925 H 574.164 -1.47901 0.575423 0
M  V30 5926 H 574.185 -3.65475 -1.0587 0
M  V30 5927 H 573.697 -3.8059 0.759776 0
M  V30 5928 H 571.798 -3.33544 -1.66069 0
M  V30 5929 H 571.911 -4.77076 -0.439957 0
M  V30 5930 H 570.275 -2.52552 -0.330076 0
M  V30 5931 H 571.058 -3.22008 1.19019 0
M  V30 5932 N 573.503 -0.0852151 -1.57369 0
M  V30 5933 C 574.413 0.891712 -2.16992 0
M  V30 5934 C 575.429 1.3174 -1.13669 0
M  V30 5935 O 576.605 1.38735 -1.45995 0
M  V30 5936 C 573.67 2.13635 -2.73059 0
M  V30 5937 C 572.731 1.7658 -3.91303 0
M  V30 5938 C 571.964 2.95111 -4.44686 0
M  V30 5939 O 572.187 4.09539 -3.97032 0
M  V30 5940 O 571.121 2.74149 -5.35841 0
M  V30 5941 H 574.947 0.414477 -3.00858 0
M  V30 5942 H 572.532 0.138598 -1.48756 0
M  V30 5943 H 574.414 2.86595 -3.08935 0
M  V30 5944 H 573.089 2.6043 -1.92244 0
M  V30 5945 H 571.996 1.00831 -3.60255 0
M  V30 5946 H 573.329 1.34557 -4.7345 0
M  V30 5947 N 574.981 1.5647 0.188427 0
M  V30 5948 C 575.929 1.95971 1.25293 0
M  V30 5949 C 576.923 0.846047 1.4676 0
M  V30 5950 O 578.129 1.03109 1.47542 0
M  V30 5951 H 574.504 0.623253 0.420784 0
M  V30 5952 H 576.475 2.84731 0.892792 0
M  V30 5953 C 575.224 2.32116 2.58877 0
M  V30 5954 H 574.547 3.17341 2.43176 0
M  V30 5955 H 575.987 2.63613 3.3209 0
M  V30 5956 C 574.446 1.15823 3.16365 0
M  V30 5957 O 574.976 0.436785 3.99318 0
M  V30 5958 N 573.182 0.933278 2.75206 0
M  V30 5959 H 572.729 1.52169 2.07852 0
M  V30 5960 H 572.687 0.156976 3.14008 0
M  V30 5961 N 576.459 -0.456382 1.50847 0
M  V30 5962 C 577.407 -1.57318 1.71329 0
M  V30 5963 C 578.401 -1.59187 0.579287 0
M  V30 5964 O 579.607 -1.6316 0.76018 0
M  V30 5965 H 575.982 -0.5223 0.541024 0
M  V30 5966 H 577.953 -1.3721 2.64983 0
M  V30 5967 C 576.702 -2.95142 1.83811 0
M  V30 5968 H 576.025 -2.94428 2.70467 0
M  V30 5969 H 577.465 -3.72702 2.02161 0
M  V30 5970 C 575.924 -3.31636 0.593224 0
M  V30 5971 O 576.454 -4.00852 -0.260898 0
M  V30 5972 N 574.66 -2.87205 0.442902 0
M  V30 5973 H 574.207 -2.31051 1.13901 0
M  V30 5974 H 574.165 -3.11986 -0.38884 0
M  V30 5975 N 577.937 -1.40673 -0.710563 0
M  V30 5976 C 579.167 -1.4234 -1.49742 0
M  V30 5977 C 579.575 -0.022821 -1.89186 0
M  V30 5978 O 578.918 0.964773 -1.56326 0
M  V30 5979 C 578.98 -2.25509 -2.79975 0
M  V30 5980 C 578.644 -3.73862 -2.62824 0
M  V30 5981 C 579.641 -4.66379 -2.29752 0
M  V30 5982 C 577.326 -4.17735 -2.78932 0
M  V30 5983 C 579.32 -6.00756 -2.13006 0
M  V30 5984 C 577.007 -5.5218 -2.61802 0
M  V30 5985 C 578.005 -6.43505 -2.28888 0
M  V30 5986 O 577.693 -7.75472 -2.11894 0
M  V30 5987 H 577.425 -0.487311 -0.468513 0
M  V30 5988 H 579.979 -1.8542 -0.883668 0
M  V30 5989 H 578.209 -1.77218 -3.43701 0
M  V30 5990 H 579.898 -2.19058 -3.41714 0
M  V30 5991 H 580.664 -4.33778 -2.16936 0
M  V30 5992 H 576.543 -3.46967 -3.03537 0
M  V30 5993 H 580.087 -6.72003 -1.87237 0
M  V30 5994 H 575.984 -5.84365 -2.74204 0
M  V30 5995 H 576.752 -7.86458 -2.26775 0
M  V30 5996 N 579.415 0.9433 -1.26252 0
M  V30 5997 C 580.362 2.0417 -1.07625 0
M  V30 5998 C 581.332 1.6609 0.0180738 0
M  V30 5999 O 582.517 1.90276 -0.141289 0
M  V30 6000 C 579.657 3.37653 -0.713043 0
M  V30 6001 C 578.77 3.88783 -1.8834 0
M  V30 6002 C 577.905 5.10642 -1.4635 0
M  V30 6003 C 576.944 5.54028 -2.60229 0
M  V30 6004 N 576.081 6.67092 -2.18936 0
M  V30 6005 H 580.921 2.19436 -2.01623 0
M  V30 6006 H 578.458 1.07519 -1.00389 0
M  V30 6007 H 580.416 4.14391 -0.483358 0
M  V30 6008 H 579.046 3.22241 0.18996 0
M  V30 6009 H 578.098 3.08464 -2.22608 0
M  V30 6010 H 579.41 4.16922 -2.73821 0
M  V30 6011 H 578.564 5.94832 -1.19414 0
M  V30 6012 H 577.303 4.84244 -0.579568 0
M  V30 6013 H 576.308 4.68396 -2.87898 0
M  V30 6014 H 577.533 5.82429 -3.49219 0
M  V30 6015 H 575.479 6.42381 -1.32974 0
M  V30 6016 H 575.396 6.94806 -2.97961 0
M  V30 6017 H 576.664 7.54662 -1.95206 0
M  V30 6018 N 580.893 1.08022 1.14757 0
M  V30 6019 C 582.121 0.828847 1.89572 0
M  V30 6020 C 582.536 -0.618621 1.78377 0
M  V30 6021 O 581.893 -1.42482 1.1404 0
M  V30 6022 C 581.944 1.23677 3.39685 0
M  V30 6023 O 581.665 2.62746 3.50566 0
M  V30 6024 C 583.166 1.01569 4.31507 0
M  V30 6025 H 580.386 0.299196 0.600602 0
M  V30 6026 H 582.93 1.43846 1.45357 0
M  V30 6027 H 581.085 0.671347 3.81539 0
M  V30 6028 H 581.499 2.79573 4.43778 0
M  V30 6029 H 582.973 1.35055 5.35223 0
M  V30 6030 H 583.45 -0.0475433 4.39174 0
M  V30 6031 H 584.056 1.56636 3.95405 0
M  V30 6032 N 582.371 -1.3172 0.865308 0
M  V30 6033 C 583.599 -2.01057 0.488251 0
M  V30 6034 C 584.014 -1.64979 -0.918 0
M  V30 6035 O 583.371 -0.876597 -1.60069 0
M  V30 6036 C 583.422 -3.55964 0.630224 0
M  V30 6037 O 583.143 -3.90749 1.98109 0
M  V30 6038 C 584.644 -4.42574 0.253567 0
M  V30 6039 H 581.864 -0.64332 0.190736 0
M  V30 6040 H 584.408 -1.68058 1.16519 0
M  V30 6041 H 582.563 -3.874 0.000895422 0
M  V30 6042 H 582.977 -4.85467 1.9855 0
M  V30 6043 H 584.451 -5.50521 0.403875 0
M  V30 6044 H 584.928 -4.31724 -0.806895 0
M  V30 6045 H 585.534 -4.16547 0.858404 0
M  V30 6046 N 583.85 -0.624285 -1.44708 0
M  V30 6047 C 585.26 -0.2092 -1.85524 0
M  V30 6048 C 585.611 1.23783 -1.52225 0
M  V30 6049 O 584.736 1.94089 -0.956986 0
M  V30 6050 C 585.332 -0.372897 -3.36742 0
M  V30 6051 C 583.891 -0.012374 -3.76398 0
M  V30 6052 C 583.038 -0.68951 -2.68591 0
M  V30 6053 H 585.989 -0.829894 -1.35272 0
M  V30 6054 H 586.01 0.390134 -3.78495 0
M  V30 6055 H 585.522 -1.42615 -3.60947 0
M  V30 6056 H 583.623 1.03941 -3.57809 0
M  V30 6057 H 583.736 -0.417663 -4.77276 0
M  V30 6058 H 582.1 -0.125484 -2.54391 0
M  V30 6059 H 582.883 -1.74522 -2.9563 0
M  V30 6060 N 585.328 1.53329 -0.364422 0
M  V30 6061 C 586.739 1.86345 0.115039 0
M  V30 6062 C 587.09 1.28505 1.4826 0
M  V30 6063 O 586.215 0.606639 2.07723 0
M  V30 6064 C 586.81 3.38114 0.215522 0
M  V30 6065 C 585.369 3.70932 0.639237 0
M  V30 6066 C 584.516 2.76471 -0.214261 0
M  V30 6067 H 587.467 1.47593 -0.583258 0
M  V30 6068 H 587.488 3.66031 1.0393 0
M  V30 6069 H 587 3.80182 -0.779948 0
M  V30 6070 H 585.101 3.3442 1.64298 0
M  V30 6071 H 585.214 4.77302 0.41465 0
M  V30 6072 H 583.578 2.52724 0.316678 0
M  V30 6073 H 584.361 3.21373 -1.20725 0
M  V30 6074 N 586.806 0.0935595 1.57322 0
M  V30 6075 C 588.052 -0.571355 1.94585 0
M  V30 6076 C 588.385 -1.67929 0.975366 0
M  V30 6077 O 587.66 -1.94498 0.00816206 0
M  V30 6078 C 587.943 -1.12797 3.41978 0
M  V30 6079 C 587.796 -0.0251881 4.49793 0
M  V30 6080 C 589.115 -2.02682 3.90651 0
M  V30 6081 H 586.234 -0.206223 0.70756 0
M  V30 6082 H 588.876 0.163956 1.89291 0
M  V30 6083 H 587.026 -1.75461 3.4662 0
M  V30 6084 H 588.698 0.608979 4.57263 0
M  V30 6085 H 586.941 0.641399 4.29032 0
M  V30 6086 H 587.612 -0.455433 5.50118 0
M  V30 6087 H 590.088 -1.49925 3.88152 0
M  V30 6088 H 588.964 -2.38555 4.94351 0
M  V30 6089 H 589.225 -2.94362 3.29854 0
M  V30 6090 N 588.284 -1.56567 -0.180126 0
M  V30 6091 C 589.214 -1.98753 -1.22553 0
M  V30 6092 C 590.195 -0.86175 -1.46656 0
M  V30 6093 O 591.38 -1.12719 -1.58139 0
M  V30 6094 C 588.51 -2.33988 -2.56645 0
M  V30 6095 C 587.464 -3.49445 -2.47128 0
M  V30 6096 C 586.79 -3.70397 -3.8563 0
M  V30 6097 C 588.09 -4.83171 -1.98352 0
M  V30 6098 H 589.784 -2.86332 -0.874896 0
M  V30 6099 H 587.33 -1.37757 -0.419414 0
M  V30 6100 H 589.283 -2.62097 -3.29974 0
M  V30 6101 H 588.007 -1.43309 -2.93479 0
M  V30 6102 H 586.666 -3.2145 -1.76254 0
M  V30 6103 H 586.314 -2.77023 -4.19842 0
M  V30 6104 H 586.014 -4.48077 -3.80132 0
M  V30 6105 H 587.538 -4.00897 -4.60558 0
M  V30 6106 H 588.952 -5.10213 -2.61449 0
M  V30 6107 H 587.349 -5.64425 -2.03823 0
M  V30 6108 H 588.419 -4.75753 -0.937402 0
M  V30 6109 N 589.762 0.448376 -1.51087 0
M  V30 6110 C 591.039 1.20926 -1.53741 0
M  V30 6111 C 591.419 2.09025 -0.295222 0
M  V30 6112 O 590.767 2.16851 0.720283 0
M  V30 6113 C 590.977 2.02067 -2.84552 0
M  V30 6114 C 592.325 2.59486 -3.36084 0
M  V30 6115 O 593.349 2.12289 -2.86028 0
M  V30 6116 O 592.208 3.45539 -4.23397 0
M  V30 6117 H 589.302 0.549951 -0.617643 0
M  V30 6118 H 591.848 0.458344 -1.63393 0
M  V30 6119 H 590.62 1.37291 -3.66425 0
M  V30 6120 H 590.243 2.84246 -2.78011 0
M  V30 6121 N 591.24 1.41047 0.703093 0
M  V30 6122 C 592.465 1.43537 1.49706 0
M  V30 6123 C 592.89 0.0401853 1.88057 0
M  V30 6124 O 592.248 -0.954785 1.54122 0
M  V30 6125 C 592.296 2.3433 2.74084 0
M  V30 6126 O 591.4 1.79515 3.71279 0
M  V30 6127 H 590.741 0.487454 0.450871 0
M  V30 6128 H 593.271 1.85422 0.86486 0
M  V30 6129 H 593.281 2.49947 3.22476 0
M  V30 6130 H 591.956 3.35708 2.45506 0
M  V30 6131 H 590.533 1.7331 3.30179 0
M  V30 6132 N 592.718 -0.936591 1.26751 0
M  V30 6133 C 593.995 -1.66094 1.03306 0
M  V30 6134 C 594.375 -2.06568 -0.435058 0
M  V30 6135 O 593.723 -1.79305 -1.41641 0
M  V30 6136 C 593.933 -2.86969 1.98619 0
M  V30 6137 C 595.281 -3.58516 2.27489 0
M  V30 6138 O 596.305 -2.97082 1.96522 0
M  V30 6139 O 595.164 -4.69181 2.80235 0
M  V30 6140 H 592.258 -0.727568 0.393158 0
M  V30 6141 H 594.804 -0.987914 1.3798 0
M  V30 6142 H 593.576 -2.53985 2.9767 0
M  V30 6143 H 593.199 -3.61996 1.64454 0
M  V30 6144 N 594.196 -1.08629 -1.14182 0
M  V30 6145 C 595.444 -0.815731 -1.84906 0
M  V30 6146 C 595.765 0.660441 -1.83475 0
M  V30 6147 O 595.035 1.47888 -1.28476 0
M  V30 6148 H 593.615 -0.298773 -0.684648 0
M  V30 6149 H 596.277 -1.37274 -1.38354 0
M  V30 6150 H 595.373 -1.16193 -2.89665 0
M  V30 6151 N 595.674 1.31259 -0.872281 0
M  V30 6152 C 596.899 2.0133 -0.498099 0
M  V30 6153 C 597.324 1.65031 0.902568 0
M  V30 6154 O 596.682 0.860164 1.59596 0
M  V30 6155 C 596.73 3.54411 -0.665205 0
M  V30 6156 O 595.834 4.11347 0.294473 0
M  V30 6157 H 595.175 0.633844 -0.197832 0
M  V30 6158 H 597.705 1.67402 -1.17633 0
M  V30 6159 H 597.715 4.04147 -0.559373 0
M  V30 6160 H 596.39 3.80171 -1.68651 0
M  V30 6161 H 594.967 3.72624 0.143403 0
M  V30 6162 N 597.152 0.631951 1.44375 0
M  V30 6163 C 598.399 0.136767 2.02038 0
M  V30 6164 C 598.727 -1.24168 1.49709 0
M  V30 6165 O 597.982 -1.83809 0.671763 0
M  V30 6166 C 598.281 0.0735861 3.57324 0
M  V30 6167 C 597.947 1.39092 4.28911 0
M  V30 6168 C 596.609 1.75171 4.48184 0
M  V30 6169 C 598.961 2.26042 4.69632 0
M  V30 6170 C 596.289 2.97907 5.05439 0
M  V30 6171 C 598.641 3.4805 5.28246 0
M  V30 6172 C 597.305 3.84351 5.45738 0
M  V30 6173 H 596.575 0.0500466 0.739308 0
M  V30 6174 H 599.222 0.818429 1.7313 0
M  V30 6175 H 597.527 -0.691449 3.8565 0
M  V30 6176 H 599.224 -0.326091 3.99672 0
M  V30 6177 H 595.814 1.10015 4.1424 0
M  V30 6178 H 599.998 1.99463 4.54454 0
M  V30 6179 H 595.254 3.26108 5.17169 0
M  V30 6180 H 599.428 4.15658 5.5875 0
M  V30 6181 H 597.055 4.79538 5.8987 0
M  V30 6182 N 598.631 -1.53133 0.372548 0
M  V30 6183 C 599.878 -2.01356 -0.214959 0
M  V30 6184 C 600.206 -1.2596 -1.48204 0
M  V30 6185 O 599.461 -0.343511 -1.92662 0
M  V30 6186 C 599.76 -3.53206 -0.545938 0
M  V30 6187 C 599.426 -4.46511 0.627624 0
M  V30 6188 C 598.088 -4.71737 0.949615 0
M  V30 6189 C 600.44 -5.01666 1.41353 0
M  V30 6190 C 597.768 -5.4937 2.05936 0
M  V30 6191 C 600.12 -5.80511 2.51375 0
M  V30 6192 C 598.784 -6.04022 2.84101 0
M  V30 6193 H 598.054 -0.736813 -0.078659 0
M  V30 6194 H 600.701 -1.84682 0.506447 0
M  V30 6195 H 599.006 -3.67864 -1.34845 0
M  V30 6196 H 600.703 -3.87997 -1.01287 0
M  V30 6197 H 597.293 -4.27029 0.366635 0
M  V30 6198 H 601.477 -4.82117 1.17802 0
M  V30 6199 H 596.733 -5.65803 2.31682 0
M  V30 6200 H 600.907 -6.22255 3.12684 0
M  V30 6201 H 598.534 -6.63962 3.70214 0
M  V30 6202 N 600.109 -0.101901 -1.5727 0
M  V30 6203 C 601.039 0.851544 -2.17419 0
M  V30 6204 C 602.02 1.28942 -1.10941 0
M  V30 6205 O 603.205 1.35509 -1.39107 0
M  V30 6206 C 600.335 2.10816 -2.75996 0
M  V30 6207 C 599.289 1.80867 -3.87906 0
M  V30 6208 C 598.615 3.13413 -4.33216 0
M  V30 6209 C 599.915 1.0903 -5.10793 0
M  V30 6210 H 601.609 0.350381 -2.97343 0
M  V30 6211 H 599.155 0.16709 -1.43027 0
M  V30 6212 H 601.108 2.77959 -3.16729 0
M  V30 6213 H 599.832 2.63227 -1.93337 0
M  V30 6214 H 598.491 1.16119 -3.47724 0
M  V30 6215 H 598.139 3.63725 -3.47438 0
M  V30 6216 H 597.839 2.94155 -5.08671 0
M  V30 6217 H 599.363 3.81704 -4.76586 0
M  V30 6218 H 600.777 1.66295 -5.48652 0
M  V30 6219 H 599.174 0.99927 -5.91722 0
M  V30 6220 H 600.244 0.0741704 -4.84843 0
M  V30 6221 N 601.587 1.56661 0.17182 0
M  V30 6222 C 602.817 1.85831 0.902804 0
M  V30 6223 C 603.225 0.685157 1.76358 0
M  V30 6224 O 602.568 -0.354947 1.80238 0
M  V30 6225 C 602.63 3.09406 1.83053 0
M  V30 6226 C 602.294 4.4231 1.1494 0
M  V30 6227 C 603.291 5.17342 0.515104 0
M  V30 6228 C 600.976 4.89045 1.14631 0
M  V30 6229 C 602.97 6.37299 -0.113194 0
M  V30 6230 C 600.657 6.08933 0.514184 0
M  V30 6231 C 601.655 6.82904 -0.114463 0
M  V30 6232 O 601.343 8.00518 -0.736622 0
M  V30 6233 H 601.075 0.620715 0.267748 0
M  V30 6234 H 603.629 2.04637 0.176918 0
M  V30 6235 H 601.859 2.86544 2.59672 0
M  V30 6236 H 603.548 3.25027 2.4313 0
M  V30 6237 H 604.314 4.82317 0.509474 0
M  V30 6238 H 600.193 4.31409 1.62502 0
M  V30 6239 H 603.737 6.94976 -0.604477 0
M  V30 6240 H 599.634 6.43423 0.517395 0
M  V30 6241 H 600.402 8.16027 -0.635822 0
M  V30 6242 N 603.065 -0.440357 1.51323 0
M  V30 6243 C 604.29 -1.21716 1.67928 0
M  V30 6244 C 604.715 -1.84328 0.374826 0
M  V30 6245 O 604.073 -1.68675 -0.664706 0
M  V30 6246 C 604.121 -2.27914 2.79442 0
M  V30 6247 O 603.225 -3.33325 2.42834 0
M  V30 6248 H 602.566 -0.35674 0.560029 0
M  V30 6249 H 605.096 -0.520417 1.97871 0
M  V30 6250 H 605.106 -2.72746 3.03436 0
M  V30 6251 H 603.781 -1.8172 3.741 0
M  V30 6252 H 602.358 -2.9399 2.294 0
M  V30 6253 N 604.543 -1.41418 -0.695603 0
M  V30 6254 C 605.49 -1.43264 -1.80954 0
M  V30 6255 C 606.46 -0.287016 -1.63601 0
M  V30 6256 O 607.645 -0.488054 -1.84452 0
M  V30 6257 C 604.785 -1.32054 -3.18835 0
M  V30 6258 C 603.898 -2.56485 -3.4762 0
M  V30 6259 C 603.033 -2.3757 -4.75115 0
M  V30 6260 C 602.072 -3.57477 -4.96867 0
M  V30 6261 N 601.209 -3.37632 -6.15588 0
M  V30 6262 H 606.049 -2.38467 -1.78711 0
M  V30 6263 H 603.586 -1.18415 -0.872715 0
M  V30 6264 H 605.544 -1.23558 -3.98484 0
M  V30 6265 H 604.174 -0.404592 -3.20254 0
M  V30 6266 H 603.226 -2.75432 -2.62376 0
M  V30 6267 H 604.538 -3.45678 -3.59594 0
M  V30 6268 H 603.692 -2.2654 -5.62818 0
M  V30 6269 H 602.431 -1.45834 -4.65386 0
M  V30 6270 H 601.436 -3.68961 -4.07612 0
M  V30 6271 H 602.661 -4.50167 -5.08455 0
M  V30 6272 H 600.607 -2.48596 -6.07072 0
M  V30 6273 H 600.524 -4.20401 -6.2833 0
M  V30 6274 H 601.792 -3.30375 -7.06026 0
M  V30 6275 N 606.021 0.929856 -1.27246 0
M  V30 6276 C 606.951 2.04722 -1.12299 0
M  V30 6277 C 607.932 1.70082 -0.0250464 0
M  V30 6278 O 609.117 1.93176 -0.199141 0
M  V30 6279 C 606.247 3.38721 -0.767145 0
M  V30 6280 C 605.201 3.87466 -1.81808 0
M  V30 6281 C 604.527 5.18246 -1.31626 0
M  V30 6282 C 605.827 4.11095 -3.22177 0
M  V30 6283 H 607.521 2.17485 -2.05769 0
M  V30 6284 H 605.067 1.04503 -0.990715 0
M  V30 6285 H 607.02 4.16366 -0.649413 0
M  V30 6286 H 605.744 3.25967 0.203259 0
M  V30 6287 H 604.403 3.12012 -1.92468 0
M  V30 6288 H 604.051 5.01881 -0.335378 0
M  V30 6289 H 603.751 5.51829 -2.01887 0
M  V30 6290 H 605.275 5.98462 -1.21143 0
M  V30 6291 H 606.689 4.79316 -3.1453 0
M  V30 6292 H 605.086 4.55982 -3.90129 0
M  V30 6293 H 606.156 3.16468 -3.67391 0
M  V30 6294 N 607.499 1.09233 1.13605 0
M  V30 6295 C 608.727 0.848908 1.88683 0
M  V30 6296 C 609.142 -0.599667 1.79024 0
M  V30 6297 O 608.499 -1.41265 1.15544 0
M  V30 6298 C 608.55 1.27273 3.38355 0
M  V30 6299 O 608.271 2.66449 3.47759 0
M  V30 6300 C 609.772 1.0614 4.30406 0
M  V30 6301 H 606.992 0.305549 0.597395 0
M  V30 6302 H 609.536 1.4538 1.43823 0
M  V30 6303 H 607.691 0.711776 3.80805 0
M  V30 6304 H 608.105 2.84264 4.40788 0
M  V30 6305 H 609.579 1.40725 5.33761 0
M  V30 6306 H 610.056 -0.000960332 4.392 0
M  V30 6307 H 610.662 1.60821 3.93722 0
M  V30 6308 N 608.977 -1.30795 0.87923 0
M  V30 6309 C 610.223 -1.96653 0.495519 0
M  V30 6310 C 610.556 -1.69282 -0.951703 0
M  V30 6311 O 609.831 -0.994374 -1.6716 0
M  V30 6312 C 610.114 -3.51898 0.764174 0
M  V30 6313 C 609.967 -3.88808 2.2616 0
M  V30 6314 C 611.286 -4.39462 0.236825 0
M  V30 6315 H 608.405 -0.7143 0.181507 0
M  V30 6316 H 611.047 -1.54765 1.10217 0
M  V30 6317 H 609.197 -3.87709 0.247841 0
M  V30 6318 H 610.869 -3.63051 2.8459 0
M  V30 6319 H 609.112 -3.37082 2.73053 0
M  V30 6320 H 609.783 -4.97086 2.4002 0
M  V30 6321 H 612.259 -4.10528 0.678683 0
M  V30 6322 H 611.135 -5.47018 0.454176 0
M  V30 6323 H 611.396 -4.33621 -0.861683 0
M  V30 6324 N 610.455 -0.639598 -1.44038 0
M  V30 6325 C 611.732 -0.078012 -1.95444 0
M  V30 6326 C 612.112 1.39847 -1.58133 0
M  V30 6327 O 611.46 2.11714 -0.859614 0
M  V30 6328 C 611.67 -0.309832 -3.47622 0
M  V30 6329 C 613.018 -0.207521 -4.24093 0
M  V30 6330 O 614.042 -0.241653 -3.55379 0
M  V30 6331 O 612.901 -0.119641 -5.46369 0
M  V30 6332 H 609.995 0.0174534 -0.826816 0
M  V30 6333 H 612.541 -0.711891 -1.54046 0
M  V30 6334 H 611.313 -1.33401 -3.67858 0
M  V30 6335 H 610.936 0.357777 -3.95987 0
M  V30 6336 N 611.933 1.52934 -0.380664 0
M  V30 6337 C 612.88 2.26197 0.458641 0
M  V30 6338 C 613.85 1.27462 1.06502 0
M  V30 6339 O 615.035 1.56274 1.09467 0
M  V30 6340 C 612.175 3.06571 1.58456 0
M  V30 6341 C 611.288 4.20222 1.00189 0
M  V30 6342 C 610.423 4.88007 2.09815 0
M  V30 6343 C 609.462 5.93665 1.49092 0
M  V30 6344 N 608.599 6.55081 2.52613 0
M  V30 6345 H 613.439 2.975 -0.172595 0
M  V30 6346 H 610.976 1.4678 -0.0969426 0
M  V30 6347 H 612.934 3.51455 2.24801 0
M  V30 6348 H 611.564 2.37494 2.18624 0
M  V30 6349 H 610.616 3.79714 0.228292 0
M  V30 6350 H 611.928 4.96102 0.518064 0
M  V30 6351 H 611.082 5.36151 2.83948 0
M  V30 6352 H 609.821 4.11632 2.61555 0
M  V30 6353 H 608.826 5.44868 0.7348 0
M  V30 6354 H 610.051 6.71969 0.981582 0
M  V30 6355 H 607.997 5.8155 3.03538 0
M  V30 6356 H 607.914 7.26548 2.08961 0
M  V30 6357 H 609.182 7.07871 3.26402 0
M  V30 6358 N 613.412 0.11024 1.57214 0
M  V30 6359 C 614.637 -0.561179 1.99664 0
M  V30 6360 C 615.062 -1.59985 0.989266 0
M  V30 6361 O 614.42 -1.81255 -0.0402399 0
M  V30 6362 C 614.468 -1.17189 3.41027 0
M  V30 6363 O 613.572 -2.28755 3.4314 0
M  V30 6364 H 612.913 -0.14101 0.648855 0
M  V30 6365 H 615.443 0.196128 2.03658 0
M  V30 6366 H 615.453 -1.50954 3.79047 0
M  V30 6367 H 614.128 -0.411041 4.13864 0
M  V30 6368 H 612.705 -1.96495 3.16929 0
M  V30 6369 N 614.89 -1.56749 -0.16351 0
M  V30 6370 C 616.306 -1.51043 -0.515567 0
M  V30 6371 C 616.506 -0.815855 -1.84245 0
M  V30 6372 O 615.562 -0.379477 -2.49632 0
M  V30 6373 C 616.875 -2.95791 -0.541114 0
M  V30 6374 C 618.423 -3.0664 -0.627776 0
M  V30 6375 C 618.898 -4.52861 -0.684141 0
M  V30 6376 N 620.389 -4.5714 -0.746818 0
M  V30 6377 C 621.124 -5.67634 -0.811137 0
M  V30 6378 N 620.62 -6.8774 -0.835811 0
M  V30 6379 N 622.413 -5.55624 -0.850756 0
M  V30 6380 H 614.564 -2.00307 0.70645 0
M  V30 6381 H 616.827 -0.912876 0.255659 0
M  V30 6382 H 616.533 -3.49797 0.365329 0
M  V30 6383 H 616.407 -3.50858 -1.38487 0
M  V30 6384 H 618.794 -2.52663 -1.52464 0
M  V30 6385 H 618.875 -2.54645 0.242805 0
M  V30 6386 H 618.519 -5.07472 0.2085 0
M  V30 6387 H 618.449 -5.02621 -1.57098 0
M  V30 6388 H 620.94 -3.70669 -0.735717 0
M  V30 6389 H 621.253 -7.67701 -0.886279 0
M  V30 6390 H 619.598 -6.90334 -0.803958 0
M  V30 6391 H 622.789 -4.60709 -0.828535 0
M  V30 6392 H 622.962 -6.41756 -0.897418 0
M  V30 6393 N 616.368 0.432326 -1.51554 0
M  V30 6394 C 617.614 1.17997 -1.65675 0
M  V30 6395 C 617.969 1.88794 -0.37076 0
M  V30 6396 O 617.262 1.80817 0.633692 0
M  V30 6397 C 617.456 2.21907 -2.80164 0
M  V30 6398 C 617.285 1.6131 -4.19773 0
M  V30 6399 C 616.055 1.39585 -4.85638 0
M  V30 6400 C 618.253 1.08659 -5.0269 0
M  V30 6401 N 616.235 0.746374 -6.09346 0
M  V30 6402 C 617.606 0.562685 -6.17441 0
M  V30 6403 C 619.661 0.978831 -4.88184 0
M  V30 6404 C 618.364 -0.0584015 -7.19276 0
M  V30 6405 C 620.39 0.371631 -5.90231 0
M  V30 6406 C 619.752 -0.141711 -7.04257 0
M  V30 6407 H 615.851 0.419277 -0.660099 0
M  V30 6408 H 618.435 0.475809 -1.88797 0
M  V30 6409 H 616.606 2.89706 -2.58698 0
M  V30 6410 H 618.338 2.88867 -2.8344 0
M  V30 6411 H 615.093 1.65897 -4.43593 0
M  V30 6412 H 615.517 0.438934 -6.75576 0
M  V30 6413 H 620.159 1.36157 -4.00276 0
M  V30 6414 H 617.877 -0.453262 -8.06828 0
M  V30 6415 H 621.463 0.290086 -5.81076 0
M  V30 6416 H 620.343 -0.60417 -7.81869 0
M  V30 6417 N 617.846 1.41785 0.688094 0
M  V30 6418 C 618.778 1.40159 1.81351 0
M  V30 6419 C 619.791 0.30262 1.59963 0
M  V30 6420 O 620.98 0.564841 1.69327 0
M  V30 6421 C 618.08 1.16517 3.1824 0
M  V30 6422 C 617.253 2.38597 3.66593 0
M  V30 6423 C 616.312 2.10699 4.82174 0
M  V30 6424 O 615.338 2.83798 4.93404 0
M  V30 6425 N 616.54 1.10187 5.69947 0
M  V30 6426 H 619.305 2.3716 1.83236 0
M  V30 6427 H 616.866 1.36494 0.870697 0
M  V30 6428 H 618.858 0.957941 3.93199 0
M  V30 6429 H 617.428 0.280873 3.11336 0
M  V30 6430 H 616.648 2.74974 2.82459 0
M  V30 6431 H 617.936 3.19919 3.95638 0
M  V30 6432 H 617.334 0.497016 5.63512 0
M  V30 6433 H 615.891 0.954518 6.44773 0
M  V30 6434 N 619.324 -0.923095 1.27737 0
M  V30 6435 C 620.256 -2.02871 1.06658 0
M  V30 6436 C 621.269 -1.62786 0.0212095 0
M  V30 6437 O 622.458 -1.76548 0.263267 0
M  V30 6438 C 619.558 -3.33603 0.59682 0
M  V30 6439 C 618.731 -4.02354 1.71551 0
M  V30 6440 C 617.79 -5.11364 1.24071 0
M  V30 6441 O 616.816 -5.35075 1.94123 0
M  V30 6442 N 618.018 -5.80416 0.0988444 0
M  V30 6443 H 620.783 -2.21515 2.01869 0
M  V30 6444 H 618.344 -1.09378 1.19365 0
M  V30 6445 H 620.336 -4.03845 0.262984 0
M  V30 6446 H 618.906 -3.11499 -0.262187 0
M  V30 6447 H 618.126 -3.25786 2.2194 0
M  V30 6448 H 619.414 -4.45035 2.46619 0
M  V30 6449 H 618.812 -5.63611 -0.485743 0
M  V30 6450 H 617.369 -6.51563 -0.17578 0
M  V30 6451 N 620.802 -1.09834 -1.13024 0
M  V30 6452 C 622.05 -0.835297 -1.8403 0
M  V30 6453 C 622.371 0.640944 -1.84165 0
M  V30 6454 O 621.641 1.46517 -1.30037 0
M  V30 6455 H 620.221 -0.306018 -0.681441 0
M  V30 6456 H 622.883 -1.38734 -1.36891 0
M  V30 6457 H 621.979 -1.19258 -2.88416 0
M  V30 6458 N 622.28 1.30327 -0.886154 0
M  V30 6459 C 623.228 2.30052 -0.343317 0
M  V30 6460 C 624.222 1.60212 0.550305 0
M  V30 6461 O 625.428 1.74674 0.434609 0
M  V30 6462 H 621.803 0.746306 -0.0923681 0
M  V30 6463 H 623.774 2.73294 -1.19804 0
M  V30 6464 C 622.523 3.45079 0.426107 0
M  V30 6465 H 621.846 3.99003 -0.25227 0
M  V30 6466 H 623.286 4.16931 0.771009 0
M  V30 6467 C 621.745 2.95195 1.62363 0
M  V30 6468 O 622.275 2.95323 2.723 0
M  V30 6469 N 620.481 2.51192 1.4612 0
M  V30 6470 H 620.028 2.51286 0.566832 0
M  V30 6471 H 619.986 2.18173 2.2638 0
M  V30 6472 N 623.758 0.647228 1.43697 0
M  V30 6473 C 625.004 0.158422 2.0218 0
M  V30 6474 C 625.337 -1.22233 1.50907 0
M  V30 6475 O 624.612 -1.81478 0.699702 0
M  V30 6476 C 624.895 0.1627 3.59732 0
M  V30 6477 C 624.748 1.57694 4.21251 0
M  V30 6478 C 626.067 -0.504138 4.37203 0
M  V30 6479 H 623.186 0.059042 0.734631 0
M  V30 6480 H 625.828 0.826772 1.71069 0
M  V30 6481 H 623.978 -0.406414 3.86368 0
M  V30 6482 H 625.65 2.19618 4.05667 0
M  V30 6483 H 623.893 2.12603 3.7813 0
M  V30 6484 H 624.564 1.53183 5.3032 0
M  V30 6485 H 627.04 -0.0199841 4.16095 0
M  V30 6486 H 625.916 -0.470394 5.46881 0
M  V30 6487 H 626.177 -1.57726 4.13007 0
M  V30 6488 N 625.236 -1.5273 0.388769 0
M  V30 6489 C 626.483 -2.01573 -0.19359 0
M  V30 6490 C 626.811 -1.27525 -1.46859 0
M  V30 6491 O 626.066 -0.363926 -1.92286 0
M  V30 6492 C 626.365 -3.53765 -0.508445 0
M  V30 6493 C 626.031 -4.4582 0.674947 0
M  V30 6494 C 624.693 -4.70703 0.999596 0
M  V30 6495 C 627.045 -5.00138 1.46666 0
M  V30 6496 C 624.373 -5.47155 2.11751 0
M  V30 6497 C 626.725 -5.77812 2.57518 0
M  V30 6498 C 625.389 -6.00975 2.90492 0
M  V30 6499 H 624.659 -0.737606 -0.0708397 0
M  V30 6500 H 627.306 -1.84134 0.526006 0
M  V30 6501 H 625.611 -3.69274 -1.30936 0
M  V30 6502 H 627.308 -3.8905 -0.971664 0
M  V30 6503 H 623.898 -4.26616 0.411906 0
M  V30 6504 H 628.082 -4.8084 1.22909 0
M  V30 6505 H 623.338 -5.63314 2.3767 0
M  V30 6506 H 627.512 -6.18904 3.19267 0
M  V30 6507 H 625.139 -6.59998 3.77236 0
M  V30 6508 N 626.714 -0.118576 -1.57153 0
M  V30 6509 C 627.939 0.550582 -1.99958 0
M  V30 6510 C 628.364 1.59458 -0.997736 0
M  V30 6511 O 627.722 1.81274 0.0306269 0
M  V30 6512 C 627.77 1.15379 -3.41643 0
M  V30 6513 O 626.874 2.26932 -3.44348 0
M  V30 6514 H 626.215 0.137567 -0.649593 0
M  V30 6515 H 628.745 -0.206926 -2.03551 0
M  V30 6516 H 628.755 1.48942 -3.79843 0
M  V30 6517 H 627.43 0.389087 -4.14076 0
M  V30 6518 H 626.007 1.94812 -3.17967 0
M  V30 6519 N 628.193 1.56834 0.155195 0
M  V30 6520 C 629.433 1.84701 0.875488 0
M  V30 6521 C 629.797 0.701747 1.78716 0
M  V30 6522 O 630.998 0.861263 2.54629 0
M  V30 6523 C 629.269 3.1773 1.63654 0
M  V30 6524 S 630.828 3.67128 2.40338 0
M  V30 6525 H 627.646 0.647856 0.292923 0
M  V30 6526 H 630.248 1.95026 0.136024 0
M  V30 6527 H 628.952 3.99059 0.958117 0
M  V30 6528 H 628.483 3.10388 2.41708 0
M  V30 6529 H 630.498 3.35739 3.65368 0
M  V30 6530 N 629.671 -0.424282 1.51781 0
M  V30 6531 C 630.896 -1.19928 1.6921 0
M  V30 6532 C 631.321 -1.8392 0.394355 0
M  V30 6533 O 630.679 -1.69371 -0.646778 0
M  V30 6534 C 630.727 -2.24937 2.81843 0
M  V30 6535 O 629.831 -3.3073 2.46356 0
M  V30 6536 H 629.172 -0.35078 0.563781 0
M  V30 6537 H 631.702 -0.499401 1.98412 0
M  V30 6538 H 631.712 -2.69512 3.06312 0
M  V30 6539 H 630.387 -1.77742 3.76006 0
M  V30 6540 H 628.964 -2.9154 2.32505 0
M  V30 6541 N 631.149 -1.42148 -0.680565 0
M  V30 6542 C 632.395 -1.42521 -1.44277 0
M  V30 6543 C 632.728 -0.0393718 -1.9416 0
M  V30 6544 O 632.003 0.935425 -1.70529 0
M  V30 6545 C 632.286 -2.44475 -2.64394 0
M  V30 6546 C 632.139 -3.92226 -2.20179 0
M  V30 6547 C 633.458 -2.43491 -3.66606 0
M  V30 6548 H 630.577 -0.518985 -0.523282 0
M  V30 6549 H 633.219 -1.73524 -0.773914 0
M  V30 6550 H 631.369 -2.18168 -3.21458 0
M  V30 6551 H 633.041 -4.29493 -1.68327 0
M  V30 6552 H 631.284 -4.0637 -1.5181 0
M  V30 6553 H 631.955 -4.59133 -3.06433 0
M  V30 6554 H 634.431 -2.66872 -3.19247 0
M  V30 6555 H 633.307 -3.16816 -4.4824 0
M  V30 6556 H 633.568 -1.45881 -4.17338 0
M  V30 6557 N 632.627 0.916307 -1.28225 0
M  V30 6558 C 633.56 2.01954 -1.06254 0
M  V30 6559 C 634.538 1.62587 0.0205983 0
M  V30 6560 O 635.722 1.88073 -0.126824 0
M  V30 6561 C 632.849 3.33086 -0.614141 0
M  V30 6562 C 631.895 3.91435 -1.69354 0
M  V30 6563 S 632.728 4.22603 -3.28887 0
M  V30 6564 C 633.884 5.568 -2.85876 0
M  V30 6565 H 634.117 2.20281 -1.99659 0
M  V30 6566 H 631.65 1.06085 -1.12184 0
M  V30 6567 H 633.608 4.089 -0.36213 0
M  V30 6568 H 632.269 3.12664 0.300036 0
M  V30 6569 H 631.462 4.86098 -1.33136 0
M  V30 6570 H 631.064 3.22248 -1.89821 0
M  V30 6571 H 633.356 6.3658 -2.31888 0
M  V30 6572 H 634.299 5.97927 -3.79326 0
M  V30 6573 H 634.707 5.17865 -2.24669 0
M  V30 6574 N 634.105 1.10431 1.1244 0
M  V30 6575 C 635.055 0.722378 2.16254 0
M  V30 6576 C 636.039 -0.268427 1.58645 0
M  V30 6577 O 637.231 -0.077169 1.76832 0
M  V30 6578 C 634.36 0.155763 3.42946 0
M  V30 6579 C 633.446 1.17361 4.07538 0
M  V30 6580 N 633.837 2.36429 4.47141 0
M  V30 6581 C 632.135 1.01412 4.34317 0
M  V30 6582 C 632.836 3.01259 4.97612 0
M  V30 6583 N 631.812 2.28777 4.93115 0
M  V30 6584 H 635.614 1.62876 2.4464 0
M  V30 6585 H 633.128 0.982031 1.29344 0
M  V30 6586 H 635.125 -0.135936 4.16678 0
M  V30 6587 H 633.785 -0.745339 3.1603 0
M  V30 6588 H 634.796 2.73954 4.39511 0
M  V30 6589 H 631.473 0.168574 4.1716 0
M  V30 6590 H 632.863 4.02541 5.37968 0
M  V30 6591 N 635.583 -1.29855 0.893053 0
M  V30 6592 C 636.493 -2.31661 0.370157 0
M  V30 6593 C 637.509 -1.65677 -0.531723 0
M  V30 6594 O 638.685 -1.9691 -0.422902 0
M  V30 6595 C 635.75 -3.44388 -0.399741 0
M  V30 6596 C 634.811 -4.2598 0.532861 0
M  V30 6597 C 634.044 -5.33324 -0.200388 0
M  V30 6598 O 634.267 -5.52305 -1.42531 0
M  V30 6599 O 633.201 -6.00188 0.453668 0
M  V30 6600 H 637.027 -2.78354 1.2146 0
M  V30 6601 H 634.612 -1.34171 0.657153 0
M  V30 6602 H 636.494 -4.13037 -0.835358 0
M  V30 6603 H 635.169 -2.99815 -1.22035 0
M  V30 6604 H 634.076 -3.59998 1.01746 0
M  V30 6605 H 635.409 -4.74178 1.3197 0
M  V30 6606 N 637.061 -0.65484 -1.43351 0
M  V30 6607 C 638.024 0.0263562 -2.29185 0
M  V30 6608 C 639.024 0.748951 -1.42293 0
M  V30 6609 O 640.214 0.589957 -1.63906 0
M  V30 6610 C 637.346 1.04806 -3.2439 0
M  V30 6611 H 638.539 -0.728883 -2.90908 0
M  V30 6612 H 636.092 -0.416149 -1.50658 0
M  V30 6613 H 636.827 1.83247 -2.67565 0
M  V30 6614 H 636.612 0.533554 -3.88453 0
M  V30 6615 H 638.102 1.52372 -3.88809 0
M  V30 6616 N 638.539 1.52521 -0.396863 0
M  V30 6617 C 639.469 2.29582 0.425941 0
M  V30 6618 C 640.45 1.33281 1.05689 0
M  V30 6619 O 641.635 1.62181 1.06823 0
M  V30 6620 C 638.765 3.10821 1.54943 0
M  V30 6621 C 637.719 4.15069 1.04413 0
M  V30 6622 C 637.045 4.84578 2.26028 0
M  V30 6623 C 638.345 5.22191 0.106767 0
M  V30 6624 H 640.039 2.98612 -0.217045 0
M  V30 6625 H 637.585 1.43611 -0.105826 0
M  V30 6626 H 639.538 3.63492 2.13193 0
M  V30 6627 H 638.262 2.39538 2.22011 0
M  V30 6628 H 636.921 3.63389 0.484118 0
M  V30 6629 H 636.569 4.09835 2.91623 0
M  V30 6630 H 636.269 5.55043 1.92876 0
M  V30 6631 H 637.793 5.40056 2.84906 0
M  V30 6632 H 639.207 5.70176 0.597685 0
M  V30 6633 H 637.604 5.99947 -0.135352 0
M  V30 6634 H 638.674 4.77531 -0.842134 0
M  V30 6635 N 640.017 0.126909 1.57088 0
M  V30 6636 C 640.967 -0.831678 2.1229 0
M  V30 6637 C 641.951 -1.22292 1.04564 0
M  V30 6638 O 643.143 -1.19269 1.30782 0
M  V30 6639 C 640.272 -2.07866 2.73215 0
M  V30 6640 C 639.358 -1.71143 3.88035 0
M  V30 6641 N 639.749 -1.05136 4.94753 0
M  V30 6642 C 638.047 -2.00549 3.98367 0
M  V30 6643 C 638.748 -0.877257 5.75047 0
M  V30 6644 N 637.724 -1.40477 5.25135 0
M  V30 6645 H 641.526 -0.317926 2.92175 0
M  V30 6646 H 639.04 -0.0753052 1.62225 0
M  V30 6647 H 641.037 -2.77516 3.11111 0
M  V30 6648 H 639.697 -2.59778 1.94796 0
M  V30 6649 H 640.708 -0.71442 5.12949 0
M  V30 6650 H 637.385 -2.54452 3.30999 0
M  V30 6651 H 638.775 -0.358536 6.70943 0
M  V30 6652 N 641.495 -1.56914 -0.146875 0
M  V30 6653 C 642.443 -1.99224 -1.20053 0
M  V30 6654 C 643.437 -0.884661 -1.44465 0
M  V30 6655 O 644.643 -1.06984 -1.44756 0
M  V30 6656 H 641.018 -0.634191 -0.404112 0
M  V30 6657 H 642.989 -2.86998 -0.816987 0
M  V30 6658 C 641.738 -2.38899 -2.52632 0
M  V30 6659 H 641.061 -3.23677 -2.34677 0
M  V30 6660 H 642.501 -2.72326 -3.24984 0
M  V30 6661 C 640.96 -1.2417 -3.13183 0
M  V30 6662 O 641.49 -0.542503 -3.9802 0
M  V30 6663 N 639.696 -1.00592 -2.72635 0
M  V30 6664 H 639.243 -1.57627 -2.03744 0
M  V30 6665 H 639.201 -0.240174 -3.13481 0
M  V30 6666 N 642.974 0.416227 -1.52004 0
M  V30 6667 C 643.924 1.50558 -1.7122 0
M  V30 6668 C 644.908 1.50613 -0.56609 0
M  V30 6669 O 646.1 1.56709 -0.822874 0
M  V30 6670 C 643.229 2.88556 -1.85984 0
M  V30 6671 C 642.315 2.93177 -3.06445 0
M  V30 6672 N 642.706 2.67505 -4.29272 0
M  V30 6673 C 641.004 3.24343 -3.06133 0
M  V30 6674 C 641.705 2.78511 -5.10692 0
M  V30 6675 N 640.681 3.11087 -4.45787 0
M  V30 6676 H 644.483 1.29494 -2.63834 0
M  V30 6677 H 641.997 0.62384 -1.4994 0
M  V30 6678 H 643.994 3.66954 -1.97865 0
M  V30 6679 H 642.654 3.10624 -0.945654 0
M  V30 6680 H 643.665 2.42033 -4.57865 0
M  V30 6681 H 640.342 3.52051 -2.24425 0
M  V30 6682 H 641.732 2.62438 -6.18527 0
M  V30 6683 N 644.452 1.42507 0.673017 0
M  V30 6684 C 645.682 1.46261 1.45916 0
M  V30 6685 C 646.09 0.0729724 1.89059 0
M  V30 6686 O 645.433 -0.922987 1.58829 0
M  V30 6687 C 645.495 2.32853 2.73898 0
M  V30 6688 C 645.159 3.80699 2.52819 0
M  V30 6689 C 646.156 4.72307 2.17306 0
M  V30 6690 C 643.841 4.24983 2.67758 0
M  V30 6691 C 645.835 6.06192 1.97003 0
M  V30 6692 C 643.522 5.58927 2.4707 0
M  V30 6693 C 644.52 6.49348 2.11746 0
M  V30 6694 O 644.208 7.80817 1.91259 0
M  V30 6695 H 643.94 0.499561 0.455428 0
M  V30 6696 H 646.494 1.87697 0.834196 0
M  V30 6697 H 644.724 1.86268 3.38882 0
M  V30 6698 H 646.413 2.28041 3.35786 0
M  V30 6699 H 647.179 4.39378 2.05359 0
M  V30 6700 H 643.058 3.54893 2.94231 0
M  V30 6701 H 646.602 6.76731 1.69355 0
M  V30 6702 H 642.499 5.91429 2.58615 0
M  V30 6703 H 643.267 7.92194 2.05843 0
M  V30 6704 N 645.93 -0.909495 1.28709 0
M  V30 6705 C 647.158 -1.69272 1.18973 0
M  V30 6706 C 647.573 -1.87123 -0.251048 0
M  V30 6707 O 646.93 -1.40127 -1.16922 0
M  V30 6708 C 646.981 -3.08257 1.88839 0
M  V30 6709 O 646.702 -2.91228 3.27289 0
M  V30 6710 C 648.203 -4.02642 1.85457 0
M  V30 6711 H 645.423 -0.528999 0.412797 0
M  V30 6712 H 647.967 -1.13803 1.69909 0
M  V30 6713 H 646.122 -3.6053 1.41762 0
M  V30 6714 H 646.536 -3.79223 3.6234 0
M  V30 6715 H 648.01 -4.97613 2.38925 0
M  V30 6716 H 648.487 -4.31327 0.827893 0
M  V30 6717 H 649.093 -3.56298 2.32233 0
M  V30 6718 N 647.408 -1.11026 -1.11852 0
M  V30 6719 C 648.34 -0.72249 -2.17515 0
M  V30 6720 C 649.353 0.243782 -1.60964 0
M  V30 6721 O 650.542 0.0273252 -1.78479 0
M  V30 6722 C 647.642 -0.0463979 -3.38868 0
M  V30 6723 C 646.815 -1.0384 -4.24895 0
M  V30 6724 C 645.874 -0.392659 -5.24733 0
M  V30 6725 O 644.9 -1.0453 -5.5952 0
M  V30 6726 N 646.102 0.846296 -5.74298 0
M  V30 6727 H 648.867 -1.63161 -2.51393 0
M  V30 6728 H 646.428 -0.999899 -1.27333 0
M  V30 6729 H 648.42 0.397215 -4.02746 0
M  V30 6730 H 646.99 0.765231 -3.03089 0
M  V30 6731 H 646.21 -1.6601 -3.57539 0
M  V30 6732 H 647.498 -1.70968 -4.79215 0
M  V30 6733 H 646.896 1.39578 -5.4821 0
M  V30 6734 H 645.453 1.23296 -6.40032 0
M  V30 6735 N 648.886 1.2938 -0.899927 0
M  V30 6736 C 649.833 2.27713 -0.376243 0
M  V30 6737 C 650.803 1.57016 0.541774 0
M  V30 6738 O 651.988 1.84997 0.466966 0
M  V30 6739 C 649.128 3.42889 0.39 0
M  V30 6740 C 648.241 4.28369 -0.558938 0
M  V30 6741 C 647.376 5.30726 0.224379 0
M  V30 6742 C 646.415 6.07862 -0.719068 0
M  V30 6743 N 645.552 7.02094 0.0298569 0
M  V30 6744 H 650.392 2.71888 -1.21988 0
M  V30 6745 H 647.929 1.33724 -0.612879 0
M  V30 6746 H 649.887 4.08443 0.850314 0
M  V30 6747 H 648.517 2.99743 1.19809 0
M  V30 6748 H 647.569 3.62986 -1.13777 0
M  V30 6749 H 648.881 4.82068 -1.2811 0
M  V30 6750 H 648.035 6.02098 0.745881 0
M  V30 6751 H 646.774 4.77759 0.979674 0
M  V30 6752 H 645.779 5.35353 -1.25207 0
M  V30 6753 H 647.004 6.62917 -1.4737 0
M  V30 6754 H 644.95 6.51496 0.767415 0
M  V30 6755 H 644.867 7.5335 -0.632391 0
M  V30 6756 H 646.135 7.77685 0.531615 0
M  V30 6757 N 650.364 0.662433 1.43002 0
M  V30 6758 C 651.589 0.186003 2.06564 0
M  V30 6759 C 652.014 -1.14314 1.49379 0
M  V30 6760 O 651.372 -1.70824 0.607346 0
M  V30 6761 C 651.42 0.118269 3.60406 0
M  V30 6762 O 650.524 -0.916859 4.02079 0
M  V30 6763 H 649.865 0.0990981 0.656563 0
M  V30 6764 H 652.395 0.907958 1.8335 0
M  V30 6765 H 652.405 -0.0619981 4.07953 0
M  V30 6766 H 651.08 1.08849 4.01403 0
M  V30 6767 H 649.657 -0.708635 3.66105 0
M  V30 6768 N 651.842 -1.52309 0.404946 0
M  V30 6769 C 652.772 -2.29805 -0.41376 0
M  V30 6770 C 653.753 -1.3384 -1.0498 0
M  V30 6771 O 654.938 -1.62745 -1.05961 0
M  V30 6772 C 652.068 -3.11639 -1.53292 0
M  V30 6773 C 651.022 -4.15616 -1.02211 0
M  V30 6774 C 650.348 -4.8577 -2.23455 0
M  V30 6775 C 651.648 -5.2224 -0.0790725 0
M  V30 6776 H 653.342 -2.98493 0.232878 0
M  V30 6777 H 650.888 -1.43552 0.113441 0
M  V30 6778 H 652.841 -3.64618 -2.11262 0
M  V30 6779 H 651.565 -2.40712 -2.20738 0
M  V30 6780 H 650.224 -3.63641 -0.46484 0
M  V30 6781 H 649.872 -4.11376 -2.89445 0
M  V30 6782 H 649.572 -5.56058 -1.89929 0
M  V30 6783 H 651.096 -5.4156 -2.82038 0
M  V30 6784 H 652.51 -5.70485 -0.567438 0
M  V30 6785 H 650.907 -5.99867 0.167167 0
M  V30 6786 H 651.977 -4.77078 0.867447 0
M  V30 6787 N 653.32 -0.135238 -1.57019 0
M  V30 6788 C 654.545 0.529343 -2.00531 0
M  V30 6789 C 654.97 1.58391 -1.01459 0
M  V30 6790 O 654.328 1.81296 0.0113986 0
M  V30 6791 C 654.376 1.11748 -3.42848 0
M  V30 6792 O 653.48 2.23267 -3.46736 0
M  V30 6793 H 652.821 0.130669 -0.651016 0
M  V30 6794 H 655.351 -0.228503 -2.0332 0
M  V30 6795 H 655.361 1.44905 -3.81401 0
M  V30 6796 H 654.036 0.345147 -4.14465 0
M  V30 6797 H 652.613 1.91428 -3.20015 0
M  V30 6798 N 654.798 1.5699 0.138552 0
M  V30 6799 C 655.728 2.01933 1.17241 0
M  V30 6800 C 656.709 0.90033 1.44319 0
M  V30 6801 O 657.894 1.16872 1.55095 0
M  V30 6802 C 655.024 2.40711 2.50351 0
M  V30 6803 C 653.978 3.55874 2.37776 0
M  V30 6804 C 653.304 3.80491 3.75674 0
M  V30 6805 C 654.604 4.8826 1.85472 0
M  V30 6806 H 656.298 2.88551 0.798672 0
M  V30 6807 H 653.844 1.3882 0.382743 0
M  V30 6808 H 655.797 2.70754 3.22909 0
M  V30 6809 H 654.521 1.5104 2.89576 0
M  V30 6810 H 653.18 3.2601 1.67669 0
M  V30 6811 H 652.828 2.88057 4.12349 0
M  V30 6812 H 652.528 4.57998 3.68119 0
M  V30 6813 H 654.052 4.12967 4.49767 0
M  V30 6814 H 655.466 5.16965 2.4783 0
M  V30 6815 H 653.863 5.69631 1.88787 0
M  V30 6816 H 654.933 4.78071 0.810935 0
M  V30 6817 N 656.276 -0.40816 1.52223 0
M  V30 6818 C 657.501 -1.18127 1.70472 0
M  V30 6819 C 657.926 -1.83491 0.41384 0
M  V30 6820 O 657.284 -1.70047 -0.628778 0
M  V30 6821 C 657.332 -2.21935 2.84213 0
M  V30 6822 O 656.436 -3.28099 2.4985 0
M  V30 6823 H 655.777 -0.344781 0.56747 0
M  V30 6824 H 658.307 -0.478328 1.9893 0
M  V30 6825 H 658.317 -2.66248 3.09153 0
M  V30 6826 H 656.992 -1.73744 3.7787 0
M  V30 6827 H 655.569 -2.89058 2.35584 0
M  V30 6828 N 657.755 -1.42862 -0.66545 0
M  V30 6829 C 659.166 -1.3901 -1.24632 0
M  V30 6830 C 659.517 -0.0880285 -1.96002 0
M  V30 6831 O 658.642 0.812947 -2.0055 0
M  V30 6832 C 659.237 -2.51806 -2.2667 0
M  V30 6833 C 657.796 -2.51257 -2.80262 0
M  V30 6834 C 656.943 -2.30124 -1.5472 0
M  V30 6835 H 659.894 -1.5194 -0.458237 0
M  V30 6836 H 659.915 -2.22593 -3.08598 0
M  V30 6837 H 659.427 -3.46558 -1.74697 0
M  V30 6838 H 657.528 -1.60349 -3.36332 0
M  V30 6839 H 657.641 -3.48614 -3.28641 0
M  V30 6840 H 656.005 -1.7856 -1.81627 0
M  V30 6841 H 656.788 -3.26945 -1.04699 0
M  V30 6842 N 659.233 0.902656 -1.29189 0
M  V30 6843 C 660.481 1.6496 -1.16758 0
M  V30 6844 C 660.802 1.92952 0.28188 0
M  V30 6845 O 660.072 1.55351 1.19344 0
M  V30 6846 H 658.652 0.611447 -0.429118 0
M  V30 6847 H 661.314 1.0825 -1.62074 0
M  V30 6848 H 660.41 2.60728 -1.71544 0
M  V30 6849 N 660.711 1.11618 1.11262 0
M  V30 6850 C 661.658 0.7762 2.17356 0
M  V30 6851 C 662.628 -0.253152 1.6416 0
M  V30 6852 O 663.813 -0.129655 1.90359 0
M  V30 6853 C 660.953 0.227581 3.44349 0
M  V30 6854 C 660.066 1.31372 4.1154 0
M  V30 6855 C 659.201 0.72544 5.26223 0
M  V30 6856 C 658.24 1.7913 5.85302 0
M  V30 6857 N 657.377 1.22237 6.91377 0
M  V30 6858 H 662.217 1.68508 2.45783 0
M  V30 6859 H 659.754 0.841475 1.20655 0
M  V30 6860 H 661.712 -0.108483 4.17059 0
M  V30 6861 H 660.342 -0.644486 3.16301 0
M  V30 6862 H 659.394 1.7667 3.36885 0
M  V30 6863 H 660.706 2.12005 4.51504 0
M  V30 6864 H 659.86 0.339541 6.05749 0
M  V30 6865 H 658.599 -0.112188 4.87571 0
M  V30 6866 H 657.604 2.18648 5.04453 0
M  V30 6867 H 658.829 2.63199 6.26022 0
M  V30 6868 H 656.775 0.406423 6.5474 0
M  V30 6869 H 656.692 1.9654 7.30006 0
M  V30 6870 H 657.96 0.863426 7.74703 0
M  V30 6871 O 662.228 -1.23648 1.03892 0
M  V30 6872 H 662.919 -1.80254 0.709093 0
M  V30 END ATOM
M  V30 BEGIN BOND
M  V30 END BOND
M  V30 END CTAB
M  END
$$$$
