drugbank_drug|DB08888 Protein sequence for the light chain
 OpenBabel12092119123D

  0  0  0     0  0            999 V3000
M  V30 BEGIN CTAB
M  V30 COUNTS 3533 3579 0 0 0
M  V30 BEGIN ATOM
M  V30 1 H -0.908 1.98254 -0.117106 0
M  V30 2 N 0 1.576 0 0
M  V30 3 C 1.246 1.9085 0.685863 0
M  V30 4 C 1.579 0.873954 1.73423 0
M  V30 5 O 0.854 -0.107317 1.94204 0
M  V30 6 C 1.137 3.34679 1.32899 0
M  V30 7 C 0.99 4.4885 0.292164 0
M  V30 8 C 2.309 3.77929 2.25516 0
M  V30 9 H -0.572 0.69407 0.247863 0
M  V30 10 H 2.07 1.89931 -0.0512938 0
M  V30 11 H 0.22 3.35593 1.95729 0
M  V30 12 H 1.892 4.60071 -0.33645 0
M  V30 13 H 0.135 4.32083 -0.385573 0
M  V30 14 H 0.806 5.46444 0.781208 0
M  V30 15 H 3.282 3.78567 1.72703 0
M  V30 16 H 2.158 4.79317 2.67481 0
M  V30 17 H 2.419 3.11797 3.13424 0
M  V30 18 N 1.4781 -0.272755 1.55222 0
M  V30 19 C 2.7241 -1.00581 1.761 0
M  V30 20 C 3.0571 -1.85932 0.560625 0
M  V30 21 O 2.3321 -1.89416 -0.441801 0
M  V30 22 C 2.6151 -1.88816 3.06628 0
M  V30 23 C 2.4681 -1.06457 4.37021 0
M  V30 24 C 3.7871 -2.8752 3.33197 0
M  V30 25 H 0.9061 -0.364244 0.640699 0
M  V30 26 H 3.5481 -0.278189 1.87952 0
M  V30 27 H 1.6981 -2.50856 2.96654 0
M  V30 28 H 3.3701 -0.464863 4.58952 0
M  V30 29 H 1.6131 -0.368043 4.32236 0
M  V30 30 H 2.2841 -1.71514 5.24678 0
M  V30 31 H 4.7601 -2.35615 3.42965 0
M  V30 32 H 3.6361 -3.46399 4.25792 0
M  V30 33 H 3.8971 -3.62657 2.52849 0
M  V30 34 N 2.9562 -1.48159 -0.537278 0
M  V30 35 C 4.2042 -1.55497 -1.29094 0
M  V30 36 C 4.5252 -0.227454 -1.93669 0
M  V30 37 O 3.7952 0.750386 -1.80959 0
M  V30 38 H 2.3752 -0.572832 -0.47945 0
M  V30 39 H 5.0372 -1.84579 -0.625818 0
M  V30 40 H 4.1332 -2.33216 -2.07405 0
M  V30 41 N 4.4343 0.785586 -1.36625 0
M  V30 42 C 5.6823 1.54057 -1.30808 0
M  V30 43 C 6.0033 1.94683 0.111157 0
M  V30 44 O 5.2733 1.65241 1.05224 0
M  V30 45 H 3.8533 0.571354 -0.481211 0
M  V30 46 H 6.5153 0.935821 -1.70963 0
M  V30 47 H 5.6113 2.44637 -1.93801 0
M  V30 48 N 5.9124 1.20967 1.01018 0
M  V30 49 C 7.1524 1.03511 1.76252 0
M  V30 50 C 7.5164 -0.42458 1.87247 0
M  V30 51 O 8.7174 -0.719508 2.58991 0
M  V30 52 C 6.9884 1.70726 3.13986 0
M  V30 53 S 8.5474 1.68458 4.05176 0
M  V30 54 H 5.3654 0.371037 0.606508 0
M  V30 55 H 7.9674 1.53628 1.20908 0
M  V30 56 H 6.6714 2.76128 3.03614 0
M  V30 57 H 6.2024 1.20767 3.74405 0
M  V30 58 H 8.2174 0.721987 4.90919 0
M  V30 59 N 7.3905 -1.2043 1.01659 0
M  V30 60 C 8.6365 -1.90079 0.706963 0
M  V30 61 C 8.9695 -1.78648 -0.761474 0
M  V30 62 O 8.2445 -1.17069 -1.55323 0
M  V30 63 C 8.5275 -3.41469 1.14327 0
M  V30 64 C 8.3805 -3.61833 2.67201 0
M  V30 65 C 9.6995 -4.34261 0.714529 0
M  V30 66 H 6.8185 -0.690254 0.2583 0
M  V30 67 H 9.4605 -1.41826 1.26433 0
M  V30 68 H 7.6105 -3.82696 0.669056 0
M  V30 69 H 9.2825 -3.2986 3.22475 0
M  V30 70 H 7.5255 -3.05304 3.08175 0
M  V30 71 H 8.1965 -4.67955 2.92783 0
M  V30 72 H 10.6725 -4.00682 1.12221 0
M  V30 73 H 9.5485 -5.38806 1.04784 0
M  V30 74 H 9.8095 -4.40431 -0.383799 0
M  V30 75 N 8.8686 -0.792821 -1.36206 0
M  V30 76 C 9.8316 -0.199459 -2.2833 0
M  V30 77 C 10.8316 0.605189 -1.48977 0
M  V30 78 O 12.0216 0.425685 -1.68919 0
M  V30 79 C 9.1536 0.723523 -3.33134 0
M  V30 80 H 10.3466 -1.01181 -2.82316 0
M  V30 81 H 7.8996 -0.562485 -1.45828 0
M  V30 82 H 8.6346 1.56008 -2.84309 0
M  V30 83 H 8.4196 0.148436 -3.91819 0
M  V30 84 H 9.9096 1.13344 -4.01924 0
M  V30 85 N 10.3467 1.47872 -0.545128 0
M  V30 86 C 11.2967 2.26842 0.229456 0
M  V30 87 C 12.2807 1.33626 0.896267 0
M  V30 88 O 13.4727 1.58063 0.79657 0
M  V30 89 C 10.6017 3.19089 1.26638 0
M  V30 90 C 9.6877 4.19783 0.603598 0
M  V30 91 N 10.0787 5.0479 -0.319405 0
M  V30 92 C 8.3767 4.3765 0.858989 0
M  V30 93 C 9.0777 5.77433 -0.703241 0
M  V30 94 N 8.0537 5.43566 -0.0608309 0
M  V30 95 H 11.8557 2.89947 -0.480391 0
M  V30 96 H 9.3697 1.58263 -0.364209 0
M  V30 97 H 11.3667 3.74337 1.83515 0
M  V30 98 H 10.0267 2.5754 1.97745 0
M  V30 99 H 11.0377 5.13244 -0.692889 0
M  V30 100 H 7.7147 3.87281 1.55948 0
M  V30 101 H 9.1047 6.55824 -1.46098 0
M  V30 102 N 11.8248 0.280983 1.55075 0
M  V30 103 C 13.2358 -0.215629 1.85451 0
M  V30 104 C 13.5868 -1.54991 1.203 0
M  V30 105 O 12.7118 -2.10699 0.493435 0
M  V30 106 C 13.3068 -0.398026 3.36454 0
M  V30 107 C 11.8658 -0.838866 3.66933 0
M  V30 108 C 11.0128 0.064458 2.77225 0
M  V30 109 H 13.9638 0.502601 1.50531 0
M  V30 110 H 13.9848 -1.23569 3.59876 0
M  V30 111 H 13.4968 0.573241 3.83843 0
M  V30 112 H 11.5978 -1.8214 3.25048 0
M  V30 113 H 11.7108 -0.672123 4.74362 0
M  V30 114 H 10.0748 -0.452863 2.50642 0
M  V30 115 H 10.8578 1.03172 3.2743 0
M  V30 116 N 13.3029 -1.57598 0.00835791 0
M  V30 117 C 14.2529 -2.05431 -0.989045 0
M  V30 118 C 15.2369 -0.950662 -1.29812 0
M  V30 119 O 16.4289 -1.21438 -1.28771 0
M  V30 120 C 13.5579 -2.56801 -2.27833 0
M  V30 121 C 12.6439 -3.74058 -1.99853 0
M  V30 122 N 13.0349 -4.8544 -1.42062 0
M  V30 123 C 11.3329 -3.82148 -2.29953 0
M  V30 124 C 12.0339 -5.66817 -1.30743 0
M  V30 125 N 11.0099 -5.13077 -1.7959 0
M  V30 126 H 14.8119 -2.88955 -0.536853 0
M  V30 127 H 12.3259 -1.61199 -0.197148 0
M  V30 128 H 14.3229 -2.89349 -3.00137 0
M  V30 129 H 12.9829 -1.74699 -2.73698 0
M  V30 130 H 13.9939 -5.0612 -1.09833 0
M  V30 131 H 10.6709 -3.10916 -2.78635 0
M  V30 132 H 12.0609 -6.66343 -0.862328 0
M  V30 133 N 14.781 0.264519 -1.55364 0
M  V30 134 C 16.006 1.01726 -1.80739 0
M  V30 135 C 16.431 1.78836 -0.583044 0
M  V30 136 O 15.789 1.75167 0.467566 0
M  V30 137 C 15.837 1.94482 -3.03659 0
M  V30 138 O 14.941 3.03386 -2.7934 0
M  V30 139 H 14.282 0.290395 -0.597132 0
M  V30 140 H 16.812 0.290854 -2.02522 0
M  V30 141 H 16.822 2.36278 -3.32621 0
M  V30 142 H 15.497 1.37772 -3.92418 0
M  V30 143 H 14.074 2.65844 -2.61498 0
M  V30 144 N 16.2591 1.48442 0.529413 0
M  V30 145 C 17.5051 1.57699 1.28463 0
M  V30 146 C 17.8601 0.247913 1.90796 0
M  V30 147 O 17.1531 -0.749279 1.76342 0
M  V30 148 C 17.3471 2.6523 2.39558 0
M  V30 149 C 17.1761 4.08464 1.88114 0
M  V30 150 C 15.9461 4.75596 1.70693 0
M  V30 151 C 18.1441 4.94613 1.40935 0
M  V30 152 N 16.1261 6.03245 1.13881 0
M  V30 153 C 17.4971 6.12511 0.960734 0
M  V30 154 C 19.5521 4.80833 1.29243 0
M  V30 155 C 18.2551 7.18149 0.406792 0
M  V30 156 C 20.2811 5.86593 0.752487 0
M  V30 157 C 19.6431 7.037 0.313946 0
M  V30 158 H 15.7421 0.631608 0.46108 0
M  V30 159 H 18.3261 1.85325 0.596886 0
M  V30 160 H 16.4971 2.39425 3.05827 0
M  V30 161 H 18.2291 2.64169 3.06589 0
M  V30 162 H 14.9841 4.31938 1.94232 0
M  V30 163 H 15.4081 6.71324 0.874831 0
M  V30 164 H 20.0501 3.90635 1.61754 0
M  V30 165 H 17.7681 8.0807 0.0693671 0
M  V30 166 H 21.3541 5.77985 0.665192 0
M  V30 167 H 20.2341 7.8414 -0.0973632 0
M  V30 168 N 17.7372 -0.778329 1.37039 0
M  V30 169 C 19.1482 -1.35421 1.28523 0
M  V30 170 C 19.4992 -1.96075 -0.0700901 0
M  V30 171 O 18.6242 -1.93352 -0.971801 0
M  V30 172 C 19.2192 -2.46211 2.32735 0
M  V30 173 C 17.7782 -2.99585 2.27873 0
M  V30 174 C 16.9252 -1.72748 2.16918 0
M  V30 175 H 19.8762 -0.5791 1.47757 0
M  V30 176 H 19.8972 -3.2552 1.9702 0
M  V30 177 H 19.4092 -2.02036 3.31365 0
M  V30 178 H 17.5102 -3.48152 1.32745 0
M  V30 179 H 17.6232 -3.55646 3.21018 0
M  V30 180 H 15.9872 -1.95416 1.63354 0
M  V30 181 H 16.7702 -1.30686 3.17452 0
M  V30 182 N 19.2153 -1.21501 -1.00376 0
M  V30 183 C 20.4613 -1.04457 -1.74529 0
M  V30 184 C 20.8163 0.417386 -1.87818 0
M  V30 185 O 20.1093 1.30556 -1.40234 0
M  V30 186 C 20.3033 -1.67673 -3.15627 0
M  V30 187 C 20.1323 -3.19865 -3.16096 0
M  V30 188 C 18.9023 -3.88915 -3.22604 0
M  V30 189 C 21.1003 -4.16936 -3.01112 0
M  V30 190 N 19.0823 -5.28284 -3.12712 0
M  V30 191 C 20.4533 -5.43066 -2.99131 0
M  V30 192 C 22.5083 -4.07968 -2.85423 0
M  V30 193 C 21.2113 -6.6126 -2.83068 0
M  V30 194 C 23.2373 -5.258 -2.70718 0
M  V30 195 C 22.5993 -6.50842 -2.69414 0
M  V30 196 H 18.6983 -0.436584 -0.648782 0
M  V30 197 H 21.2823 -1.53875 -1.19293 0
M  V30 198 H 19.4533 -1.20822 -3.6913 0
M  V30 199 H 21.1853 -1.43824 -3.78281 0
M  V30 200 H 17.9403 -3.39847 -3.2985 0
M  V30 201 H 18.3643 -6.01284 -3.11105 0
M  V30 202 H 23.0063 -3.1209 -2.85236 0
M  V30 203 H 20.7243 -7.57298 -2.82002 0
M  V30 204 H 24.3103 -5.20683 -2.59577 0
M  V30 205 H 23.1903 -7.40485 -2.5817 0
M  V30 206 N 20.6934 1.19889 -1.02296 0
M  V30 207 C 21.6254 2.22334 -0.556787 0
M  V30 208 C 22.6384 1.58674 0.364199 0
M  V30 209 O 23.8274 1.77768 0.161533 0
M  V30 210 C 20.9274 3.38257 0.208694 0
M  V30 211 C 20.1004 4.31504 -0.71577 0
M  V30 212 C 19.1594 5.262 0.00325597 0
M  V30 213 O 18.1854 5.65798 -0.621357 0
M  V30 214 N 19.3874 5.66303 1.27599 0
M  V30 215 H 22.1524 2.62957 -1.43784 0
M  V30 216 H 19.7134 1.34495 -0.901261 0
M  V30 217 H 21.7054 3.98616 0.699111 0
M  V30 218 H 20.2754 2.96472 0.991102 0
M  V30 219 H 19.4954 3.69016 -1.38638 0
M  V30 220 H 20.7834 4.9072 -1.34428 0
M  V30 221 H 20.1814 5.36155 1.80429 0
M  V30 222 H 18.7384 6.28942 1.71102 0
M  V30 223 N 22.1715 0.800033 1.35784 0
M  V30 224 C 23.4175 0.377901 1.99248 0
M  V30 225 C 23.7505 -1.05052 1.63333 0
M  V30 226 O 23.0255 -1.72768 0.893385 0
M  V30 227 C 23.3085 0.553922 3.55814 0
M  V30 228 C 23.1615 2.0268 4.01548 0
M  V30 229 C 24.4805 -0.0244802 4.40093 0
M  V30 230 H 21.5995 0.138782 0.723815 0
M  V30 231 H 24.2415 1.00835 1.61035 0
M  V30 232 H 22.3915 0.0172398 3.88496 0
M  V30 233 H 24.0635 2.62536 3.79305 0
M  V30 234 H 22.3065 2.5256 3.52698 0
M  V30 235 H 22.9775 2.10087 5.10458 0
M  V30 236 H 25.4535 0.433775 4.13833 0
M  V30 237 H 24.3295 0.128637 5.48749 0
M  V30 238 H 24.5905 -1.11758 4.27741 0
M  V30 239 N 23.6496 -1.47581 0.552962 0
M  V30 240 C 24.8746 -2.07378 0.0300593 0
M  V30 241 C 25.2996 -1.40355 -1.25229 0
M  V30 242 O 24.6576 -0.477099 -1.7491 0
M  V30 243 C 24.7056 -3.60274 -0.153231 0
M  V30 244 O 23.8096 -3.94041 -1.21678 0
M  V30 245 H 23.1506 -0.662158 0.0494182 0
M  V30 246 H 25.6806 -1.89662 0.767434 0
M  V30 247 H 25.6906 -4.0633 -0.368761 0
M  V30 248 H 24.3656 -4.08455 0.783397 0
M  V30 249 H 22.9426 -3.59735 -0.982079 0
M  V30 250 N 25.1277 -0.289203 -1.54924 0
M  V30 251 C 26.0577 0.58549 -2.2604 0
M  V30 252 C 27.0387 1.14753 -1.25562 0
M  V30 253 O 28.2237 1.17906 -1.54311 0
M  V30 254 C 25.3537 1.76305 -2.99222 0
M  V30 255 C 24.3077 1.33191 -4.06748 0
M  V30 256 C 23.6337 2.5937 -4.6758 0
M  V30 257 C 24.9337 0.471775 -5.20165 0
M  V30 258 H 26.6277 -0.00763532 -2.99399 0
M  V30 259 H 24.1737 -0.00511229 -1.43999 0
M  V30 260 H 26.1267 2.38097 -3.47689 0
M  V30 261 H 24.8507 2.38223 -2.23422 0
M  V30 262 H 23.5097 0.737121 -3.59113 0
M  V30 263 H 23.1577 3.19576 -3.88433 0
M  V30 264 H 22.8577 2.31228 -5.40192 0
M  V30 265 H 24.3817 3.21985 -5.18804 0
M  V30 266 H 25.7957 0.995056 -5.64599 0
M  V30 267 H 24.1927 0.284639 -5.99425 0
M  V30 268 H 25.2627 -0.506041 -4.82252 0
M  V30 269 N 26.6058 1.57591 -0.0167156 0
M  V30 270 C 28.0218 1.55946 0.339557 0
M  V30 271 C 28.2218 1.02109 1.73713 0
M  V30 272 O 27.2778 0.662303 2.43659 0
M  V30 273 C 28.5908 3.00037 0.199499 0
M  V30 274 C 30.1388 3.11805 0.273193 0
M  V30 275 C 30.6138 4.57713 0.162068 0
M  V30 276 N 32.1048 4.6268 0.219444 0
M  V30 277 C 32.8398 5.73185 0.157054 0
M  V30 278 N 32.3358 6.92786 0.0442936 0
M  V30 279 N 34.1288 5.61707 0.21014 0
M  V30 280 H 26.2798 1.90921 -0.930758 0
M  V30 281 H 28.5428 0.877674 -0.358319 0
M  V30 282 H 28.2488 3.4333 -0.76273 0
M  V30 283 H 28.1228 3.64387 0.974786 0
M  V30 284 H 30.5098 2.68433 1.22587 0
M  V30 285 H 30.5908 2.50201 -0.532256 0
M  V30 286 H 30.2348 5.01763 -0.78714 0
M  V30 287 H 30.1648 5.17283 0.986222 0
M  V30 288 H 32.6558 3.76649 0.307246 0
M  V30 289 H 32.9688 7.728 0.00304069 0
M  V30 290 H 31.3138 6.94999 0.00968457 0
M  V30 291 H 34.5048 4.6716 0.296546 0
M  V30 292 H 34.6778 6.47807 0.158054 0
M  V30 293 N 28.0839 -0.256276 1.55502 0
M  V30 294 C 29.3119 -1.00342 1.8094 0
M  V30 295 C 29.7269 -1.79307 0.59114 0
M  V30 296 O 29.0839 -1.77114 -0.440081 0
M  V30 297 C 29.1349 -1.94875 3.04476 0
M  V30 298 O 28.8559 -1.19107 4.21598 0
M  V30 299 C 30.3569 -2.81266 3.42644 0
M  V30 300 H 27.5769 -0.295685 0.602338 0
M  V30 301 H 30.1209 -0.281998 2.02546 0
M  V30 302 H 28.2759 -2.62457 2.84947 0
M  V30 303 H 28.6899 -1.82969 4.91551 0
M  V30 304 H 30.1639 -3.43362 4.32211 0
M  V30 305 H 30.6409 -3.51897 2.62802 0
M  V30 306 H 31.2469 -2.1915 3.64491 0
M  V30 307 N 29.562 -1.4872 -0.521534 0
M  V30 308 C 30.978 -1.35028 -0.850855 0
M  V30 309 C 31.178 -0.367712 -1.98116 0
M  V30 310 O 30.234 0.208037 -2.51642 0
M  V30 311 C 31.547 -2.75263 -1.21041 0
M  V30 312 C 33.095 -2.83813 -1.31981 0
M  V30 313 C 33.57 -4.24769 -1.71276 0
M  V30 314 N 35.061 -4.27482 -1.78363 0
M  V30 315 C 35.796 -5.33494 -2.1017 0
M  V30 316 N 35.292 -6.49775 -2.40343 0
M  V30 317 N 37.085 -5.20894 -2.11248 0
M  V30 318 H 29.236 -2.11214 0.22413 0
M  V30 319 H 31.499 -0.947252 0.0376439 0
M  V30 320 H 31.205 -3.48765 -0.453415 0
M  V30 321 H 31.079 -3.09327 -2.15863 0
M  V30 322 H 33.466 -2.10561 -2.06756 0
M  V30 323 H 33.547 -2.53358 -0.352596 0
M  V30 324 H 33.191 -4.9854 -0.970588 0
M  V30 325 H 33.121 -4.52673 -2.69062 0
M  V30 326 H 35.612 -3.43611 -1.57288 0
M  V30 327 H 35.925 -7.26402 -2.63743 0
M  V30 328 H 34.27 -6.53035 -2.37844 0
M  V30 329 H 37.461 -4.29065 -1.87139 0
M  V30 330 H 37.634 -6.03612 -2.35704 0
M  V30 331 N 31.0401 0.771051 -1.3745 0
M  V30 332 C 32.2871 1.52963 -1.32697 0
M  V30 333 C 32.6151 1.94299 0.0883274 0
M  V30 334 O 31.8701 1.64397 1.0617 0
M  V30 335 C 32.1691 2.80676 -2.2126 0
M  V30 336 C 31.8351 2.58389 -3.69521 0
M  V30 337 C 30.4971 2.52019 -4.09927 0
M  V30 338 C 32.8491 2.38469 -4.63446 0
M  V30 339 C 30.1771 2.23721 -5.42371 0
M  V30 340 C 32.5291 2.11694 -5.96128 0
M  V30 341 C 31.1931 2.03769 -6.35637 0
M  V30 342 H 30.4631 0.559732 -0.485573 0
M  V30 343 H 33.1101 0.888083 -1.69662 0
M  V30 344 H 31.4151 3.49392 -1.77291 0
M  V30 345 H 33.1121 3.38557 -2.14895 0
M  V30 346 H 29.7021 2.6421 -3.37478 0
M  V30 347 H 33.8861 2.4238 -4.33089 0
M  V30 348 H 29.1421 2.16081 -5.71943 0
M  V30 349 H 33.3161 1.9528 -6.6846 0
M  V30 350 H 30.9431 1.81606 -7.38189 0
M  V30 351 N 32.5182 1.22032 0.997298 0
M  V30 352 C 33.7662 1.04016 1.73278 0
M  V30 353 C 34.0872 -0.426255 1.90284 0
M  V30 354 O 33.3572 -1.30694 1.45931 0
M  V30 355 H 31.9372 0.381897 0.642 0
M  V30 356 H 34.5992 1.5347 1.20137 0
M  V30 357 H 33.6952 1.51441 2.72896 0
M  V30 358 N 33.9963 -1.19345 1.0293 0
M  V30 359 C 34.9293 -2.21347 0.555029 0
M  V30 360 C 35.9073 -1.57492 -0.404351 0
M  V30 361 O 37.0913 -1.85741 -0.321352 0
M  V30 362 C 34.2183 -3.38163 -0.19064 0
M  V30 363 C 33.2643 -4.20375 0.720236 0
M  V30 364 S 34.0973 -4.88371 2.19668 0
M  V30 365 C 35.2533 -6.08597 1.46153 0
M  V30 366 H 35.4863 -2.61235 1.41929 0
M  V30 367 H 33.0193 -1.29598 0.839272 0
M  V30 368 H 34.9773 -4.05871 -0.614724 0
M  V30 369 H 33.6383 -2.9671 -1.03063 0
M  V30 370 H 32.8313 -5.03793 0.14455 0
M  V30 371 H 32.4333 -3.57987 1.08266 0
M  V30 372 H 34.7253 -6.73354 0.748357 0
M  V30 373 H 35.6683 -6.7065 2.27233 0
M  V30 374 H 36.0763 -5.56297 0.958842 0
M  V30 375 N 35.4744 -0.807222 -1.35358 0
M  V30 376 C 36.4244 -0.190706 -2.27201 0
M  V30 377 C 37.4084 0.635838 -1.47804 0
M  V30 378 O 38.6004 0.492991 -1.69996 0
M  V30 379 C 35.7294 0.659337 -3.36909 0
M  V30 380 C 34.8154 -0.176971 -4.23731 0
M  V30 381 N 35.2064 -1.24029 -4.90357 0
M  V30 382 C 33.5044 0.0412953 -4.45981 0
M  V30 383 C 34.2054 -1.75092 -5.54723 0
M  V30 384 N 33.1814 -1.05727 -5.33219 0
M  V30 385 H 36.9834 -1.0043 -2.76208 0
M  V30 386 H 34.4974 -0.648445 -1.48892 0
M  V30 387 H 36.4944 1.11706 -4.01656 0
M  V30 388 H 35.1544 1.47127 -2.89454 0
M  V30 389 H 36.1654 -1.62295 -4.91814 0
M  V30 390 H 32.8424 0.82232 -4.09322 0
M  V30 391 H 34.2324 -2.63963 -6.17878 0
M  V30 392 N 36.9525 1.47285 -0.560781 0
M  V30 393 C 38.1995 2.02464 -0.038062 0
M  V30 394 C 38.5275 1.43474 1.31322 0
M  V30 395 O 37.7825 0.581311 1.86867 0
M  V30 396 C 38.0815 3.57258 0.100784 0
M  V30 397 C 37.7475 4.35184 -1.18007 0
M  V30 398 C 36.4095 4.56194 -1.53103 0
M  V30 399 C 38.7615 4.80098 -2.02867 0
M  V30 400 C 36.0895 5.19367 -2.729 0
M  V30 401 C 38.4415 5.44593 -3.21871 0
M  V30 402 C 37.1055 5.63835 -3.57276 0
M  V30 403 H 36.3755 0.740869 -0.0139279 0
M  V30 404 H 39.0225 1.76916 -0.733012 0
M  V30 405 H 37.3275 3.81819 0.878724 0
M  V30 406 H 39.0245 3.97606 0.520639 0
M  V30 407 H 35.6145 4.19113 -0.8968 0
M  V30 408 H 39.7985 4.63642 -1.7706 0
M  V30 409 H 35.0545 5.32459 -3.00496 0
M  V30 410 H 39.2285 5.78358 -3.87911 0
M  V30 411 H 36.8555 6.12557 -4.50197 0
M  V30 412 N 38.4306 0.297415 1.54768 0
M  V30 413 C 39.6706 -0.313829 2.01976 0
M  V30 414 C 40.0346 -1.51366 1.1812 0
M  V30 415 O 41.2356 -2.19603 1.5501 0
M  V30 416 C 39.5066 -0.664964 3.51159 0
M  V30 417 S 41.0656 -1.25958 4.20333 0
M  V30 418 H 37.8836 -0.0965014 0.704421 0
M  V30 419 H 40.4856 0.424451 1.90837 0
M  V30 420 H 39.1896 0.21681 4.09827 0
M  V30 421 H 38.7206 -1.43413 3.66328 0
M  V30 422 H 40.7356 -2.54751 4.25813 0
M  V30 423 N 39.9087 -1.5758 0.0250728 0
M  V30 424 C 41.1567 -1.91255 -0.653151 0
M  V30 425 C 41.4777 -0.901691 -1.729 0
M  V30 426 O 40.7477 0.0573785 -1.95816 0
M  V30 427 H 39.3277 -0.705942 -0.244243 0
M  V30 428 H 41.9897 -1.94767 0.0719209 0
M  V30 429 H 41.0857 -2.91752 -1.10847 0
M  V30 430 N 41.3868 0.248026 -1.55636 0
M  V30 431 C 42.6348 0.974295 -1.77065 0
M  V30 432 C 42.9558 1.85897 -0.588849 0
M  V30 433 O 42.2258 1.91868 0.395407 0
M  V30 434 H 40.8058 0.362733 -0.653019 0
M  V30 435 H 43.4678 0.266244 -1.93073 0
M  V30 436 H 42.5638 1.59667 -2.68166 0
M  V30 437 N 42.8649 1.48995 0.513639 0
M  V30 438 C 44.0929 1.61531 1.29288 0
M  V30 439 C 44.5079 0.281801 1.86685 0
M  V30 440 O 43.8649 -0.731111 1.67215 0
M  V30 441 C 43.9159 2.67449 2.43215 0
M  V30 442 O 43.6369 3.95626 1.88179 0
M  V30 443 C 45.1379 2.90575 3.34785 0
M  V30 444 H 42.3579 0.544165 0.392588 0
M  V30 445 H 44.9019 1.9494 0.617956 0
M  V30 446 H 43.0569 2.36853 3.0656 0
M  V30 447 H 43.4709 4.53868 2.62876 0
M  V30 448 H 44.9449 3.68449 4.11035 0
M  V30 449 H 45.4219 2.00011 3.91015 0
M  V30 450 H 46.0279 3.22538 2.77218 0
M  V30 451 N 44.343 -0.763751 1.37857 0
M  V30 452 C 45.273 -1.89103 1.36975 0
M  V30 453 C 46.254 -1.68439 0.237152 0
M  V30 454 O 47.439 -1.8918 0.438713 0
M  V30 455 C 44.569 -3.26496 1.18395 0
M  V30 456 C 43.523 -3.61741 2.28751 0
M  V30 457 C 42.849 -4.97762 1.95286 0
M  V30 458 C 44.149 -3.67665 3.70972 0
M  V30 459 H 45.843 -1.90099 2.31307 0
M  V30 460 H 43.389 -0.91319 1.11341 0
M  V30 461 H 45.342 -4.05003 1.16406 0
M  V30 462 H 44.066 -3.25955 0.205215 0
M  V30 463 H 42.725 -2.85547 2.29909 0
M  V30 464 H 42.373 -4.93769 0.959221 0
M  V30 465 H 42.073 -5.22313 2.69189 0
M  V30 466 H 43.597 -5.7866 1.94898 0
M  V30 467 H 45.011 -4.36307 3.719 0
M  V30 468 H 43.408 -4.03718 4.43995 0
M  V30 469 H 44.478 -2.68134 4.0402 0
M  V30 470 N 45.8211 -1.22559 -0.990812 0
M  V30 471 C 47.0701 -1.04553 -1.72486 0
M  V30 472 C 47.3831 0.419349 -1.91052 0
M  V30 473 O 48.5891 0.719121 -2.61803 0
M  V30 474 C 47.0451 -1.82231 -3.10355 0
M  V30 475 C 46.6531 -3.32981 -2.99713 0
M  V30 476 C 48.3971 -1.7268 -3.87791 0
M  V30 477 C 46.3041 -4.03091 -4.32748 0
M  V30 478 H 45.2341 -0.387614 -0.646739 0
M  V30 479 H 47.8851 -1.46429 -1.10593 0
M  V30 480 H 46.2671 -1.33155 -3.72942 0
M  V30 481 H 47.4411 -3.89466 -2.46278 0
M  V30 482 H 45.7561 -3.43231 -2.35758 0
M  V30 483 H 48.3531 -2.22381 -4.86262 0
M  V30 484 H 48.6961 -0.687607 -4.10582 0
M  V30 485 H 49.2291 -2.1931 -3.31885 0
M  V30 486 H 45.9681 -5.07273 -4.15156 0
M  V30 487 H 45.4881 -3.51394 -4.86089 0
M  V30 488 H 47.1671 -4.08804 -5.01486 0
M  V30 489 N 47.2992 1.18797 -1.03562 0
M  V30 490 C 48.5242 1.9314 -0.755764 0
M  V30 491 C 48.9492 1.7537 0.68022 0
M  V30 492 O 48.3072 1.06046 1.47051 0
M  V30 493 C 48.3552 3.42747 -1.12058 0
M  V30 494 O 47.4592 4.11683 -0.243124 0
M  V30 495 H 46.8002 0.602724 -0.278604 0
M  V30 496 H 49.3302 1.50678 -1.3841 0
M  V30 497 H 49.3402 3.93437 -1.08035 0
M  V30 498 H 48.0152 3.55002 -2.16672 0
M  V30 499 H 46.5922 3.71323 -0.342539 0
M  V30 500 N 48.7773 0.814389 1.34928 0
M  V30 501 C 50.1883 0.458364 1.80986 0
M  V30 502 C 50.5393 -1.02042 1.67577 0
M  V30 503 O 49.6643 -1.79352 1.21086 0
M  V30 504 C 50.2593 0.825212 3.28597 0
M  V30 505 C 48.8183 0.521677 3.72767 0
M  V30 506 C 47.9653 1.04668 2.56788 0
M  V30 507 H 50.9163 1.00533 1.22795 0
M  V30 508 H 50.9373 0.12571 3.80292 0
M  V30 509 H 50.4493 1.90154 3.38324 0
M  V30 510 H 48.5503 -0.545589 3.68584 0
M  V30 511 H 48.6633 1.05977 4.67232 0
M  V30 512 H 47.0273 0.468622 2.50352 0
M  V30 513 H 47.8103 2.12927 2.6929 0
M  V30 514 N 50.2554 -1.46986 0.568584 0
M  V30 515 C 51.1654 -2.33942 -0.17555 0
M  V30 516 C 52.1814 -1.48891 -0.90041 0
M  V30 517 O 53.3574 -1.81794 -0.86676 0
M  V30 518 C 50.4224 -3.25811 -1.18524 0
M  V30 519 C 49.4834 -4.26757 -0.466582 0
M  V30 520 C 48.7164 -5.14236 -1.42817 0
M  V30 521 O 48.9394 -5.04379 -2.66379 0
M  V30 522 O 47.8734 -5.94412 -0.946453 0
M  V30 523 H 51.6994 -2.98896 0.538036 0
M  V30 524 H 49.2844 -1.4573 0.329097 0
M  V30 525 H 51.1664 -3.82527 -1.76779 0
M  V30 526 H 49.8414 -2.63471 -1.88055 0
M  V30 527 H 48.7484 -3.73769 0.157451 0
M  V30 528 H 50.0814 -4.91843 0.187485 0
M  V30 529 N 51.7335 -0.305618 -1.54608 0
M  V30 530 C 52.9795 0.295595 -2.01241 0
M  V30 531 C 53.3345 1.51171 -1.19018 0
M  V30 532 O 52.6275 1.89832 -0.259684 0
M  V30 533 C 52.8215 0.698983 -3.50498 0
M  V30 534 C 52.6505 -0.476491 -4.47168 0
M  V30 535 C 51.4205 -0.969963 -4.95903 0
M  V30 536 C 53.6185 -1.32294 -4.96994 0
M  V30 537 N 51.6005 -2.11172 -5.76437 0
M  V30 538 C 52.9715 -2.31212 -5.75275 0
M  V30 539 C 55.0265 -1.35278 -4.7917 0
M  V30 540 C 53.7295 -3.32896 -6.37631 0
M  V30 541 C 55.7555 -2.35823 -5.42348 0
M  V30 542 C 55.1175 -3.33469 -6.20466 0
M  V30 543 H 51.2165 0.0724992 -0.778632 0
M  V30 544 H 53.8005 -0.436583 -1.89742 0
M  V30 545 H 51.9715 1.40032 -3.62278 0
M  V30 546 H 53.7035 1.28013 -3.8392 0
M  V30 547 H 50.4585 -0.544178 -4.70463 0
M  V30 548 H 50.8825 -2.68714 -6.21387 0
M  V30 549 H 55.5245 -0.61157 -4.18354 0
M  V30 550 H 53.2425 -4.07933 -6.97579 0
M  V30 551 H 56.8285 -2.38911 -5.30484 0
M  V30 552 H 55.7085 -4.09996 -6.68485 0
M  V30 553 N 53.2116 1.57565 -0.0334293 0
M  V30 554 C 54.4576 1.92262 0.645226 0
M  V30 555 C 54.7906 0.910543 1.71531 0
M  V30 556 O 54.0656 -0.066099 1.94388 0
M  V30 557 C 54.3486 3.37422 1.2577 0
M  V30 558 C 54.2016 4.49369 0.196891 0
M  V30 559 C 55.5206 3.82628 2.17449 0
M  V30 560 H 52.6396 0.699171 0.233085 0
M  V30 561 H 55.2816 1.89779 -0.0915694 0
M  V30 562 H 53.4316 3.39669 1.88566 0
M  V30 563 H 55.1036 4.59254 -0.433962 0
M  V30 564 H 53.3466 4.31168 -0.477137 0
M  V30 565 H 54.0176 5.47978 0.665124 0
M  V30 566 H 56.4936 3.82145 1.64634 0
M  V30 567 H 55.3696 4.84883 2.57254 0
M  V30 568 H 55.6306 3.18376 3.0674 0
M  V30 569 N 54.6897 -0.239769 1.55765 0
M  V30 570 C 55.6197 -1.30052 1.9393 0
M  V30 571 C 56.6007 -1.49839 0.805132 0
M  V30 572 O 57.7857 -1.62328 1.06599 0
M  V30 573 C 54.9157 -2.65391 2.2402 0
M  V30 574 C 53.8697 -2.60289 3.39755 0
M  V30 575 C 53.1957 -3.99489 3.55405 0
M  V30 576 C 54.4957 -2.16654 4.75246 0
M  V30 577 H 56.1897 -0.983573 2.82783 0
M  V30 578 H 53.7357 -0.471701 1.36055 0
M  V30 579 H 55.6887 -3.3974 2.49308 0
M  V30 580 H 54.4127 -2.98736 1.32 0
M  V30 581 H 53.0717 -1.88398 3.14487 0
M  V30 582 H 52.7197 -4.30112 2.60793 0
M  V30 583 H 52.4197 -3.96962 4.33238 0
M  V30 584 H 53.9437 -4.75528 3.83022 0
M  V30 585 H 55.3577 -2.80737 4.99859 0
M  V30 586 H 53.7547 -2.25223 5.56232 0
M  V30 587 H 54.8247 -1.11835 4.71827 0
M  V30 588 N 56.1678 -1.49265 -0.50573 0
M  V30 589 C 57.3958 -1.62215 -1.28429 0
M  V30 590 C 57.8108 -0.291697 -1.86533 0
M  V30 591 O 57.1678 0.722233 -1.67601 0
M  V30 592 C 57.2188 -2.68735 -2.41793 0
M  V30 593 O 56.9398 -3.96619 -1.86078 0
M  V30 594 C 58.4408 -2.92346 -3.3324 0
M  V30 595 H 55.6608 -0.546239 -0.389697 0
M  V30 596 H 58.2048 -1.95265 -0.607609 0
M  V30 597 H 56.3598 -2.38476 -3.053 0
M  V30 598 H 56.7738 -4.55256 -2.60465 0
M  V30 599 H 58.2478 -3.70623 -4.09075 0
M  V30 600 H 58.7248 -2.02081 -3.89948 0
M  V30 601 H 59.3308 -3.24003 -2.75503 0
M  V30 602 N 57.6459 0.756429 -1.3826 0
M  V30 603 C 58.6089 1.85176 -1.35065 0
M  V30 604 C 59.6089 1.58818 -0.251703 0
M  V30 605 O 60.7989 1.66615 -0.508433 0
M  V30 606 C 57.9309 3.22596 -1.10201 0
M  V30 607 H 59.1239 1.89417 -2.3251 0
M  V30 608 H 56.6769 0.95783 -1.23512 0
M  V30 609 H 57.4119 3.24025 -0.133504 0
M  V30 610 H 57.1969 3.43122 -1.89762 0
M  V30 611 H 58.6869 4.02673 -1.10654 0
M  V30 612 N 59.124 1.23083 0.984299 0
M  V30 613 C 60.087 1.00979 2.05757 0
M  V30 614 C 61.087 -0.0269573 1.60777 0
M  V30 615 O 62.277 0.212403 1.729 0
M  V30 616 C 59.409 0.527072 3.36801 0
M  V30 617 H 60.602 1.9622 2.26799 0
M  V30 618 H 58.155 1.05072 1.15714 0
M  V30 619 H 58.89 -0.429294 3.21446 0
M  V30 620 H 58.675 1.27515 3.70786 0
M  V30 621 H 60.165 0.392942 4.15747 0
M  V30 622 N 60.6021 -1.18246 1.0419 0
M  V30 623 C 61.5521 -2.19843 0.604392 0
M  V30 624 C 62.5361 -1.56962 -0.353814 0
M  V30 625 O 63.7281 -1.76156 -0.17267 0
M  V30 626 C 60.8571 -3.43287 -0.0298975 0
M  V30 627 C 59.9431 -4.13288 0.951531 0
M  V30 628 N 60.3341 -4.59271 2.11906 0
M  V30 629 C 58.6321 -4.39165 0.7778 0
M  V30 630 C 59.3331 -5.13173 2.73912 0
M  V30 631 N 58.3091 -5.04763 2.01779 0
M  V30 632 H 62.1111 -2.53089 1.4941 0
M  V30 633 H 59.6251 -1.34465 0.910658 0
M  V30 634 H 61.6221 -4.15334 -0.361037 0
M  V30 635 H 60.2821 -3.11537 -0.915127 0
M  V30 636 H 61.2931 -4.5368 2.49789 0
M  V30 637 H 57.9701 -4.17461 -0.0572331 0
M  V30 638 H 59.3601 -5.58947 3.72864 0
M  V30 639 N 62.0802 -0.821533 -1.34494 0
M  V30 640 C 63.3202 -0.414785 -2.00147 0
M  V30 641 C 63.6842 1.00299 -1.6372 0
M  V30 642 O 64.8852 1.51255 -2.22206 0
M  V30 643 C 63.1562 -0.609403 -3.52166 0
M  V30 644 S 64.7152 -0.295297 -4.37805 0
M  V30 645 H 61.5332 -0.15679 -0.693497 0
M  V30 646 H 64.1352 -1.06705 -1.63812 0
M  V30 647 H 62.8392 -1.64096 -3.76166 0
M  V30 648 H 62.3702 0.0576414 -3.93358 0
M  V30 649 H 64.3852 0.891531 -4.88125 0
M  V30 650 N 63.5583 1.46682 -0.576371 0
M  V30 651 C 64.4883 2.33028 0.148397 0
M  V30 652 C 65.4693 1.44961 0.889956 0
M  V30 653 O 66.6543 1.73789 0.866662 0
M  V30 654 C 63.7843 3.27117 1.1667 0
M  V30 655 C 62.7383 4.24575 0.540386 0
M  V30 656 C 62.0643 5.08126 1.6647 0
M  V30 657 C 63.3643 5.19722 -0.518331 0
M  V30 658 H 65.0583 2.93875 -0.572509 0
M  V30 659 H 62.6043 1.41315 -0.276768 0
M  V30 660 H 64.5573 3.86374 1.68204 0
M  V30 661 H 63.2813 2.64364 1.9178 0
M  V30 662 H 61.9403 3.66571 0.0461769 0
M  V30 663 H 61.5883 4.41762 2.40531 0
M  V30 664 H 61.2883 5.74122 1.25131 0
M  V30 665 H 62.8123 5.70246 2.18293 0
M  V30 666 H 64.2263 5.73232 -0.0883058 0
M  V30 667 H 62.6233 5.94026 -0.851679 0
M  V30 668 H 63.6933 4.64037 -1.40703 0
M  V30 669 N 65.0364 0.313813 1.54444 0
M  V30 670 C 65.9464 -0.565714 2.27677 0
M  V30 671 C 66.9624 -1.13754 1.31666 0
M  V30 672 O 68.1384 -1.15959 1.64668 0
M  V30 673 C 65.2034 -1.71528 3.01296 0
M  V30 674 C 64.2644 -1.17624 4.12872 0
M  V30 675 C 63.4974 -2.27102 4.8297 0
M  V30 676 O 63.7204 -3.47256 4.52514 0
M  V30 677 O 62.6544 -1.9307 5.70094 0
M  V30 678 H 66.4804 0.0287296 3.03686 0
M  V30 679 H 64.0654 0.0798312 1.49187 0
M  V30 680 H 65.9474 -2.38476 3.4743 0
M  V30 681 H 64.6224 -2.29608 2.2817 0
M  V30 682 H 63.5294 -0.472124 3.71109 0
M  V30 683 H 64.8624 -0.640695 4.88012 0
M  V30 684 N 66.5145 -1.57545 0.0417849 0
M  V30 685 C 67.4615 -2.10977 -0.935805 0
M  V30 686 C 68.4315 -1.01486 -1.31491 0
M  V30 687 O 69.6165 -1.2898 -1.40602 0
M  V30 688 C 66.7565 -2.65169 -2.2086 0
M  V30 689 C 65.8695 -3.88714 -1.88482 0
M  V30 690 C 65.0045 -4.31254 -3.1015 0
M  V30 691 C 64.0435 -5.47524 -2.7365 0
M  V30 692 N 63.1805 -5.85162 -3.87982 0
M  V30 693 H 68.0205 -2.94218 -0.473249 0
M  V30 694 H 65.5575 -1.45415 -0.221981 0
M  V30 695 H 67.5155 -2.94685 -2.95325 0
M  V30 696 H 66.1455 -1.8474 -2.64709 0
M  V30 697 H 65.1975 -3.65849 -1.04205 0
M  V30 698 H 66.5095 -4.73245 -1.57608 0
M  V30 699 H 65.6635 -4.62273 -3.92923 0
M  V30 700 H 64.4025 -3.45516 -3.44195 0
M  V30 701 H 63.4075 -5.16187 -1.89291 0
M  V30 702 H 64.6325 -6.34971 -2.40807 0
M  V30 703 H 62.5785 -5.02377 -4.21846 0
M  V30 704 H 62.4955 -6.64362 -3.60775 0
M  V30 705 H 63.7635 -6.20791 -4.71422 0
M  V30 706 N 67.9926 0.231505 -1.5589 0
M  V30 707 C 69.2176 0.978689 -1.82856 0
M  V30 708 C 69.6426 1.77559 -0.620846 0
M  V30 709 O 69.0006 1.76119 0.430305 0
M  V30 710 C 69.0486 1.87997 -3.07716 0
M  V30 711 O 68.1526 2.97393 -2.85712 0
M  V30 712 H 67.4936 0.277663 -0.603158 0
M  V30 713 H 70.0236 0.24783 -2.03093 0
M  V30 714 H 70.0336 2.2917 -3.37558 0
M  V30 715 H 68.7086 1.29417 -3.95252 0
M  V30 716 H 67.2856 2.60238 -2.67078 0
M  V30 717 N 69.4707 1.49531 0.497807 0
M  V30 718 C 70.8817 1.52344 1.07927 0
M  V30 719 C 71.2327 0.311469 1.93712 0
M  V30 720 O 70.3577 -0.578405 2.08527 0
M  V30 721 C 70.9527 2.76062 1.96405 0
M  V30 722 C 69.5117 2.81643 2.49709 0
M  V30 723 C 68.6587 2.46299 1.27404 0
M  V30 724 H 71.6097 1.56182 0.281576 0
M  V30 725 H 71.6307 2.56405 2.81135 0
M  V30 726 H 71.1427 3.64254 1.33943 0
M  V30 727 H 69.2437 1.97739 3.15801 0
M  V30 728 H 69.3567 3.83891 2.86643 0
M  V30 729 H 67.7207 1.98148 1.60029 0
M  V30 730 H 68.5037 3.36769 0.66645 0
M  V30 731 N 70.9488 -0.749086 1.3866 0
M  V30 732 C 72.3648 -1.05276 1.19955 0
M  V30 733 C 72.5648 -2.01435 0.05134 0
M  V30 734 O 71.6208 -2.45232 -0.60147 0
M  V30 735 C 72.9338 -1.62853 2.52783 0
M  V30 736 C 74.4818 -1.75002 2.59506 0
M  V30 737 C 74.9568 -2.35991 3.92521 0
M  V30 738 N 76.4478 -2.43416 3.94085 0
M  V30 739 C 77.1828 -2.91511 4.9377 0
M  V30 740 N 76.6788 -3.39608 6.03853 0
M  V30 741 N 78.4718 -2.90592 4.81157 0
M  V30 742 H 70.6228 -0.111066 2.12109 0
M  V30 743 H 72.8858 -0.111901 0.941373 0
M  V30 744 H 72.5918 -0.99664 3.37283 0
M  V30 745 H 72.4658 -2.61854 2.715 0
M  V30 746 H 74.8528 -2.37317 1.75398 0
M  V30 747 H 74.9338 -0.74693 2.44652 0
M  V30 748 H 74.5778 -1.74308 4.77053 0
M  V30 749 H 74.5078 -3.3695 4.04688 0
M  V30 750 H 76.9988 -2.09405 3.14576 0
M  V30 751 H 77.3118 -3.74775 6.75843 0
M  V30 752 H 75.6568 -3.37653 6.07466 0
M  V30 753 H 78.8478 -2.52332 3.94267 0
M  V30 754 H 79.0208 -3.27762 5.58996 0
M  V30 755 N 72.4269 -1.23603 -0.977757 0
M  V30 756 C 73.8379 -1.06424 -1.53398 0
M  V30 757 C 74.1889 0.367578 -1.92726 0
M  V30 758 O 73.3139 1.25465 -1.76316 0
M  V30 759 C 73.9089 -1.92568 -2.78753 0
M  V30 760 C 72.4679 -1.79642 -3.30765 0
M  V30 761 C 71.6149 -1.88111 -2.03739 0
M  V30 762 H 74.5659 -1.37227 -0.797152 0
M  V30 763 H 74.5869 -1.45203 -3.51705 0
M  V30 764 H 74.0989 -2.96771 -2.50098 0
M  V30 765 H 72.1999 -0.782325 -3.64294 0
M  V30 766 H 72.3129 -2.63174 -4.00345 0
M  V30 767 H 70.6769 -1.31723 -2.17994 0
M  V30 768 H 71.4599 -2.93875 -1.77461 0
M  V30 769 N 73.905 1.17692 -1.04816 0
M  V30 770 C 75.13 1.92327 -0.776207 0
M  V30 771 C 75.555 1.76082 0.661581 0
M  V30 772 O 74.913 1.076 1.45917 0
M  V30 773 C 74.961 3.41539 -1.15687 0
M  V30 774 O 74.065 4.11402 -0.286775 0
M  V30 775 H 73.406 0.599735 -0.284981 0
M  V30 776 H 75.936 1.49201 -1.4 0
M  V30 777 H 75.946 3.92269 -1.12202 0
M  V30 778 H 74.621 3.52684 -2.20425 0
M  V30 779 H 73.198 3.70939 -0.381903 0
M  V30 780 N 75.3831 0.828654 1.34056 0
M  V30 781 C 76.6081 0.431637 2.02859 0
M  V30 782 C 77.0331 -0.956339 1.61975 0
M  V30 783 O 76.3911 -1.62338 0.807228 0
M  V30 784 C 76.4391 0.548323 3.56407 0
M  V30 785 O 75.5431 -0.429556 4.10157 0
M  V30 786 H 74.8841 0.176886 0.640006 0
M  V30 787 H 77.4141 1.12066 1.71179 0
M  V30 788 H 77.4241 0.426196 4.05768 0
M  V30 789 H 76.0991 1.5606 3.8551 0
M  V30 790 H 74.6761 -0.265836 3.71951 0
M  V30 791 N 76.8612 -1.46375 0.584142 0
M  V30 792 C 78.0912 -2.06461 0.0758195 0
M  V30 793 C 78.4992 -1.43322 -1.23512 0
M  V30 794 O 77.8422 -0.533216 -1.75791 0
M  V30 795 C 77.9042 -3.59131 -0.162773 0
M  V30 796 C 77.5682 -4.4447 1.06279 0
M  V30 797 C 78.5652 -4.80918 1.97519 0
M  V30 798 C 76.2502 -4.85584 1.28504 0
M  V30 799 C 78.2442 -5.57309 3.09331 0
M  V30 800 C 75.9312 -5.61734 2.4062 0
M  V30 801 C 76.9292 -5.9751 3.30863 0
M  V30 802 O 76.6172 -6.72121 4.41032 0
M  V30 803 H 76.3492 -0.673745 0.0551725 0
M  V30 804 H 78.9032 -1.88969 0.804984 0
M  V30 805 H 77.1332 -3.74936 -0.946565 0
M  V30 806 H 78.8222 -4.0114 -0.619782 0
M  V30 807 H 79.5882 -4.49732 1.81565 0
M  V30 808 H 75.4672 -4.57187 0.591702 0
M  V30 809 H 79.0112 -5.85152 3.79793 0
M  V30 810 H 74.9082 -5.92334 2.56537 0
M  V30 811 H 75.6762 -6.90547 4.39417 0
M  V30 812 N 78.3393 -0.321999 -1.54275 0
M  V30 813 C 79.2863 0.544664 -2.24281 0
M  V30 814 C 80.2563 1.1129 -1.23303 0
M  V30 815 O 81.4413 1.15354 -1.51981 0
M  V30 816 C 78.5813 1.70045 -3.00298 0
M  V30 817 C 77.6943 1.16159 -4.1609 0
M  V30 818 C 76.8293 2.28293 -4.79641 0
M  V30 819 C 75.8683 1.71648 -5.8754 0
M  V30 820 N 75.0053 2.77438 -6.44959 0
M  V30 821 H 79.8453 -0.0588907 -2.97942 0
M  V30 822 H 77.3823 -0.0408345 -1.47043 0
M  V30 823 H 79.3403 2.38054 -3.42616 0
M  V30 824 H 77.9703 2.27531 -2.28975 0
M  V30 825 H 77.0223 0.373092 -3.78566 0
M  V30 826 H 78.3343 0.707087 -4.93763 0
M  V30 827 H 77.4883 3.0421 -5.2492 0
M  V30 828 H 76.2273 2.77079 -4.01346 0
M  V30 829 H 75.2323 0.942282 -5.41665 0
M  V30 830 H 76.4573 1.23741 -6.67731 0
M  V30 831 H 74.4033 3.25519 -5.69538 0
M  V30 832 H 74.3203 2.36547 -7.1804 0
M  V30 833 H 75.5883 3.53189 -6.94894 0
M  V30 834 N 79.8174 1.5752 -0.0501392 0
M  V30 835 C 81.0634 1.92936 0.624798 0
M  V30 836 C 81.3964 0.928685 1.70555 0
M  V30 837 O 80.6714 -0.0454779 1.94447 0
M  V30 838 C 80.9544 3.38737 1.22185 0
M  V30 839 C 80.8074 4.49552 0.149218 0
M  V30 840 C 82.1264 3.84913 2.13378 0
M  V30 841 H 79.2454 0.701604 0.225657 0
M  V30 842 H 81.8874 1.89671 -0.111693 0
M  V30 843 H 80.0374 3.4165 1.84953 0
M  V30 844 H 81.7094 4.58768 -0.482648 0
M  V30 845 H 79.9524 4.30638 -0.522841 0
M  V30 846 H 80.6234 5.48653 0.606966 0
M  V30 847 H 83.0994 3.8387 1.60572 0
M  V30 848 H 81.9754 4.87584 2.52097 0
M  V30 849 H 82.2364 3.21611 3.03346 0
M  V30 850 N 81.2955 -0.223234 1.56011 0
M  V30 851 C 82.5445 -0.945912 1.78144 0
M  V30 852 C 82.8575 -1.85567 0.618396 0
M  V30 853 O 84.0635 -2.61688 0.723318 0
M  V30 854 C 82.5195 -1.73216 3.15475 0
M  V30 855 C 82.1275 -0.868619 4.39499 0
M  V30 856 C 83.8715 -2.44615 3.46935 0
M  V30 857 C 81.7785 -1.65212 5.67855 0
M  V30 858 H 80.7085 -0.356929 0.664167 0
M  V30 859 H 83.3595 -0.199845 1.82409 0
M  V30 860 H 81.7415 -2.52107 3.05382 0
M  V30 861 H 82.9155 -0.120366 4.60643 0
M  V30 862 H 81.2305 -0.26683 4.15544 0
M  V30 863 H 83.8275 -3.03732 4.40058 0
M  V30 864 H 84.1705 -3.17417 2.69355 0
M  V30 865 H 84.7035 -1.72715 3.58349 0
M  V30 866 H 81.4425 -0.967407 6.48322 0
M  V30 867 H 80.9625 -2.37503 5.50774 0
M  V30 868 H 82.6415 -2.21322 6.07968 0
M  V30 869 N 82.7736 -1.49793 -0.48987 0
M  V30 870 C 83.7036 -1.70201 -1.59856 0
M  V30 871 C 84.6846 -0.55076 -1.60937 0
M  V30 872 O 85.8696 -0.787841 -1.77501 0
M  V30 873 C 82.9996 -1.77882 -2.98287 0
M  V30 874 C 81.9536 -2.92907 -3.12073 0
M  V30 875 C 81.2796 -2.85712 -4.51965 0
M  V30 876 C 82.5796 -4.3369 -2.91051 0
M  V30 877 H 84.2736 -2.63025 -1.43032 0
M  V30 878 H 81.8196 -1.26574 -0.686664 0
M  V30 879 H 83.7726 -1.90744 -3.75759 0
M  V30 880 H 82.4966 -0.816653 -3.16225 0
M  V30 881 H 81.1556 -2.79665 -2.37029 0
M  V30 882 H 80.8036 -1.8738 -4.66795 0
M  V30 883 H 80.5036 -3.62921 -4.62128 0
M  V30 884 H 82.0276 -3.00598 -5.31482 0
M  V30 885 H 83.4416 -4.47555 -3.58284 0
M  V30 886 H 81.8386 -5.12205 -3.12675 0
M  V30 887 H 82.9086 -4.47362 -1.87071 0
M  V30 888 N 84.2517 0.741722 -1.39055 0
M  V30 889 C 85.4997 1.49818 -1.35643 0
M  V30 890 C 85.8207 1.94938 0.0491642 0
M  V30 891 O 85.0907 1.68505 0.999141 0
M  V30 892 H 83.6707 0.555755 -0.499144 0
M  V30 893 H 86.3327 0.880957 -1.73854 0
M  V30 894 H 85.4287 2.38348 -2.01486 0
M  V30 895 N 85.7298 1.2412 0.971189 0
M  V30 896 C 86.6928 1.03156 2.04674 0
M  V30 897 C 87.6928 -0.00990322 1.60797 0
M  V30 898 O 88.8828 0.230729 1.72665 0
M  V30 899 C 86.0148 0.562765 3.36223 0
M  V30 900 H 87.2078 1.98614 2.24705 0
M  V30 901 H 84.7608 1.06293 1.14593 0
M  V30 902 H 85.4958 -0.395176 3.21883 0
M  V30 903 H 85.2808 1.31441 3.69413 0
M  V30 904 H 86.7708 0.437015 4.15307 0
M  V30 905 N 87.2079 -1.17134 1.05439 0
M  V30 906 C 88.1579 -2.1919 0.627675 0
M  V30 907 C 89.1419 -1.57328 -0.337147 0
M  V30 908 O 90.3339 -1.76329 -0.153976 0
M  V30 909 C 87.4629 -3.43299 0.00651435 0
M  V30 910 C 86.5489 -4.12255 0.995312 0
M  V30 911 N 86.9399 -4.56997 2.16765 0
M  V30 912 C 85.2379 -4.38316 0.824336 0
M  V30 913 C 85.9389 -5.10239 2.7934 0
M  V30 914 N 84.9149 -5.02595 2.07122 0
M  V30 915 H 88.7169 -2.5149 1.52086 0
M  V30 916 H 86.2309 -1.33491 0.924868 0
M  V30 917 H 88.2279 -4.15693 -0.316965 0
M  V30 918 H 86.8879 -3.1249 -0.882033 0
M  V30 919 H 87.8989 -4.51006 2.54587 0
M  V30 920 H 84.5759 -4.17498 -0.0129526 0
M  V30 921 H 85.9659 -5.54961 3.78772 0
M  V30 922 N 88.686 -0.835752 -1.33615 0
M  V30 923 C 89.618 -0.224151 -2.28101 0
M  V30 924 C 90.631 0.593331 -1.51603 0
M  V30 925 O 91.82 0.420911 -1.73466 0
M  V30 926 C 88.92 0.703309 -3.31522 0
M  V30 927 C 88.093 -0.0741528 -4.37337 0
M  V30 928 C 87.152 0.776176 -5.20444 0
M  V30 929 O 86.178 0.216506 -5.68788 0
M  V30 930 N 87.38 2.09401 -5.41416 0
M  V30 931 H 90.145 -1.03598 -2.81225 0
M  V30 932 H 87.706 -0.69392 -1.46275 0
M  V30 933 H 89.698 1.27707 -3.84022 0
M  V30 934 H 88.268 1.41585 -2.78698 0
M  V30 935 H 87.488 -0.82928 -3.85378 0
M  V30 936 H 88.776 -0.608863 -5.05144 0
M  V30 937 H 88.174 2.57229 -5.03835 0
M  V30 938 H 86.731 2.61633 -5.96985 0
M  V30 939 N 90.1641 1.46063 -0.591896 0
M  V30 940 C 91.0741 2.34192 0.13831 0
M  V30 941 C 92.0901 1.50305 0.876608 0
M  V30 942 O 93.2661 1.8315 0.837728 0
M  V30 943 C 90.3311 3.27656 1.13326 0
M  V30 944 C 89.3921 4.27445 0.39863 0
M  V30 945 C 88.6251 5.16443 1.34618 0
M  V30 946 O 88.8481 5.08553 2.58321 0
M  V30 947 O 87.7821 5.95843 0.851768 0
M  V30 948 H 91.6081 2.98002 -0.58552 0
M  V30 949 H 89.1931 1.45188 -0.352239 0
M  V30 950 H 91.0751 3.85291 1.70671 0
M  V30 951 H 89.7501 2.6643 1.83839 0
M  V30 952 H 88.6571 3.73471 -0.216895 0
M  V30 953 H 89.9901 4.91482 -0.265709 0
M  V30 954 N 91.6422 0.330177 1.54103 0
M  V30 955 C 92.8882 -0.270806 2.00984 0
M  V30 956 C 93.2212 -1.51265 1.21789 0
M  V30 957 O 92.4962 -1.92142 0.301927 0
M  V30 958 C 92.7792 -0.598339 3.55094 0
M  V30 959 C 92.6322 0.654674 4.4501 0
M  V30 960 C 93.9512 -1.41334 4.16789 0
M  V30 961 H 91.0702 -0.0969531 0.730595 0
M  V30 962 H 93.7122 0.448066 1.84641 0
M  V30 963 H 91.8622 -1.21078 3.69151 0
M  V30 964 H 93.5342 1.29285 4.42813 0
M  V30 965 H 91.7772 1.28224 4.14416 0
M  V30 966 H 92.4482 0.380944 5.50684 0
M  V30 967 H 94.9242 -0.895597 4.06347 0
M  V30 968 H 93.8002 -1.61127 5.24718 0
M  V30 969 H 94.0612 -2.41146 3.70541 0
M  V30 970 N 93.1203 -1.57491 0.0584922 0
M  V30 971 C 94.0683 -2.13148 -0.931168 0
M  V30 972 C 95.0623 -1.06507 -1.31729 0
M  V30 973 O 96.2683 -1.24906 -1.29609 0
M  V30 974 H 92.6433 -0.68137 -0.31818 0
M  V30 975 H 94.6143 -2.95187 -0.436707 0
M  V30 976 C 93.3633 -2.69732 -2.19408 0
M  V30 977 H 92.6863 -3.51454 -1.90578 0
M  V30 978 H 94.1263 -3.12287 -2.86798 0
M  V30 979 C 92.5853 -1.63855 -2.94369 0
M  V30 980 O 93.1153 -1.05565 -3.87581 0
M  V30 981 N 91.3213 -1.35202 -2.57233 0
M  V30 982 H 90.8683 -1.82791 -1.81508 0
M  V30 983 H 90.8263 -0.645922 -3.07693 0
M  V30 984 N 94.5984 0.214957 -1.56127 0
M  V30 985 C 95.5284 1.2695 -1.95974 0
M  V30 986 C 96.5094 1.48539 -0.828868 0
M  V30 987 O 97.6944 1.60611 -1.09168 0
M  V30 988 C 94.8244 2.61794 -2.28214 0
M  V30 989 C 93.7784 2.54851 -3.43853 0
M  V30 990 C 93.1044 3.93785 -3.61715 0
M  V30 991 C 94.4044 2.09065 -4.78632 0
M  V30 992 H 96.0984 0.93846 -2.84312 0
M  V30 993 H 93.6444 0.449996 -1.36788 0
M  V30 994 H 95.5974 3.35731 -2.54682 0
M  V30 995 H 94.3214 2.96599 -1.36736 0
M  V30 996 H 92.9804 1.8337 -3.17444 0
M  V30 997 H 92.6284 4.25908 -2.67602 0
M  V30 998 H 92.3284 3.90019 -4.39498 0
M  V30 999 H 93.8524 4.69374 -3.90539 0
M  V30 1000 H 95.2664 2.7275 -5.04262 0
M  V30 1001 H 93.6634 2.16346 -5.59745 0
M  V30 1002 H 94.7334 1.04315 -4.73547 0
M  V30 1003 N 96.0765 1.50051 0.48192 0
M  V30 1004 C 96.9865 1.7089 1.60728 0
M  V30 1005 C 98.0025 0.591788 1.63627 0
M  V30 1006 O 99.1785 0.868817 1.81696 0
M  V30 1007 C 96.2435 1.78855 2.97005 0
M  V30 1008 C 95.3045 3.02537 3.04581 0
M  V30 1009 C 94.5375 3.10112 4.34357 0
M  V30 1010 O 94.7605 2.24765 5.24249 0
M  V30 1011 O 93.6945 4.02747 4.47301 0
M  V30 1012 H 97.5205 2.66264 1.46072 0
M  V30 1013 H 95.1055 1.34018 0.660264 0
M  V30 1014 H 96.9875 1.86336 3.77964 0
M  V30 1015 H 95.6625 0.866628 3.11883 0
M  V30 1016 H 94.5695 3.00563 2.22739 0
M  V30 1017 H 95.9025 3.94272 2.94636 0
M  V30 1018 N 97.5546 -0.734337 1.39446 0
M  V30 1019 C 98.9656 -1.31264 1.32766 0
M  V30 1020 C 99.3166 -1.96198 -0.00767497 0
M  V30 1021 O 98.4416 -1.96346 -0.909796 0
M  V30 1022 C 99.0366 -2.38682 2.4045 0
M  V30 1023 C 97.5956 -2.92184 2.37288 0
M  V30 1024 C 96.7426 -1.6576 2.22304 0
M  V30 1025 H 99.6936 -0.531799 1.49525 0
M  V30 1026 H 99.7146 -3.19087 2.07276 0
M  V30 1027 H 99.2266 -1.91392 3.37625 0
M  V30 1028 H 97.3276 -3.43752 1.43754 0
M  V30 1029 H 97.4406 -3.45253 3.3217 0
M  V30 1030 H 95.8046 -1.9012 1.69489 0
M  V30 1031 H 96.5876 -1.20521 3.21449 0
M  V30 1032 N 99.0327 -1.24633 -0.964593 0
M  V30 1033 C 99.9827 -1.00841 -2.04487 0
M  V30 1034 C 100.967 0.0512468 -1.60818 0
M  V30 1035 O 102.159 -0.162865 -1.76249 0
M  V30 1036 C 99.2877 -0.618474 -3.37683 0
M  V30 1037 C 98.3737 -1.71437 -3.87905 0
M  V30 1038 N 98.7647 -2.9477 -4.11029 0
M  V30 1039 C 97.0627 -1.5926 -4.16596 0
M  V30 1040 C 97.7637 -3.65834 -4.52261 0
M  V30 1041 N 96.7397 -2.9341 -4.57615 0
M  V30 1042 H 100.542 -1.94487 -2.20345 0
M  V30 1043 H 98.0557 -1.14805 -1.14863 0
M  V30 1044 H 100.053 -0.429247 -4.14684 0
M  V30 1045 H 98.7127 0.310766 -3.23209 0
M  V30 1046 H 99.7237 -3.30917 -3.9839 0
M  V30 1047 H 96.4007 -0.731606 -4.1104 0
M  V30 1048 H 97.7907 -4.71646 -4.78539 0
M  V30 1049 N 100.511 1.16574 -1.06058 0
M  V30 1050 C 101.757 1.87324 -0.777022 0
M  V30 1051 C 102.09 1.81351 0.694645 0
M  V30 1052 O 101.365 1.22753 1.50871 0
M  V30 1053 C 101.648 3.36991 -1.26922 0
M  V30 1054 C 101.501 3.51667 -2.80447 0
M  V30 1055 C 102.82 4.3131 -0.87521 0
M  V30 1056 H 99.9388 0.680191 -0.28374 0
M  V30 1057 H 102.581 1.37036 -1.3161 0
M  V30 1058 H 100.731 3.79949 -0.81063 0
M  V30 1059 H 102.403 3.17664 -3.34495 0
M  V30 1060 H 100.646 2.93656 -3.19294 0
M  V30 1061 H 101.317 4.56766 -3.0995 0
M  V30 1062 H 103.793 3.9624 -1.27014 0
M  V30 1063 H 102.669 5.34545 -1.2471 0
M  V30 1064 H 102.93 4.41552 0.220071 0
M  V30 1065 N 101.989 0.842826 1.3317 0
M  V30 1066 C 102.921 0.236245 2.27979 0
M  V30 1067 C 103.934 -0.585282 1.51915 0
M  V30 1068 O 105.123 -0.411705 1.73687 0
M  V30 1069 C 102.223 -0.685717 3.3189 0
M  V30 1070 C 101.396 0.0973448 4.37292 0
M  V30 1071 C 100.455 -0.748565 5.20848 0
M  V30 1072 O 99.4809 -0.186339 5.68895 0
M  V30 1073 N 100.683 -2.06527 5.42519 0
M  V30 1074 H 103.448 1.05088 2.80672 0
M  V30 1075 H 101.009 0.701667 1.45905 0
M  V30 1076 H 103.001 -1.25669 3.84694 0
M  V30 1077 H 101.571 -1.40105 2.79445 0
M  V30 1078 H 100.791 0.849706 3.84933 0
M  V30 1079 H 102.079 0.635643 5.04814 0
M  V30 1080 H 101.477 -2.54554 5.05192 0
M  V30 1081 H 100.034 -2.58464 5.98364 0
M  V30 1082 N 103.467 -1.45747 0.599634 0
M  V30 1083 C 104.377 -2.34262 -0.125888 0
M  V30 1084 C 105.393 -1.50768 -0.868625 0
M  V30 1085 O 106.569 -1.83592 -0.828003 0
M  V30 1086 C 103.634 -3.28252 -1.11587 0
M  V30 1087 C 102.695 -4.27651 -0.375956 0
M  V30 1088 C 101.928 -5.1715 -1.31877 0
M  V30 1089 O 102.151 -5.09916 -2.55621 0
M  V30 1090 O 101.085 -5.96286 -0.820157 0
M  V30 1091 H 104.911 -2.97688 0.601315 0
M  V30 1092 H 102.496 -1.44999 0.359934 0
M  V30 1093 H 104.378 -3.86191 -1.68626 0
M  V30 1094 H 103.053 -2.67401 -1.82424 0
M  V30 1095 H 101.96 -3.7335 0.236698 0
M  V30 1096 H 103.293 -4.91334 0.29177 0
M  V30 1097 N 104.945 -0.338344 -1.53925 0
M  V30 1098 C 106.194 0.260732 -2.00008 0
M  V30 1099 C 106.507 1.52073 -1.23017 0
M  V30 1100 O 107.713 2.19672 -1.5955 0
M  V30 1101 C 106.169 0.51515 -3.56194 0
M  V30 1102 C 105.777 -0.728645 -4.42035 0
M  V30 1103 C 107.521 1.07337 -4.10706 0
M  V30 1104 C 105.428 -0.445315 -5.89721 0
M  V30 1105 H 104.358 0.101205 -0.747177 0
M  V30 1106 H 107.009 -0.452866 -1.77824 0
M  V30 1107 H 105.391 1.28932 -3.74423 0
M  V30 1108 H 106.565 -1.50352 -4.35581 0
M  V30 1109 H 104.88 -1.20813 -3.98489 0
M  V30 1110 H 107.477 1.30022 -5.18651 0
M  V30 1111 H 107.82 2.0273 -3.63602 0
M  V30 1112 H 108.353 0.360034 -3.96167 0
M  V30 1113 H 105.092 -1.36883 -6.41049 0
M  V30 1114 H 104.612 0.291569 -5.99091 0
M  V30 1115 H 106.291 -0.0606218 -6.46972 0
M  V30 1116 N 106.423 1.57458 -0.0668435 0
M  V30 1117 C 107.333 2.15937 0.916975 0
M  V30 1118 C 108.349 1.12123 1.33058 0
M  V30 1119 O 109.525 1.44366 1.40429 0
M  V30 1120 C 106.59 2.70547 2.16807 0
M  V30 1121 C 105.651 3.89215 1.81135 0
M  V30 1122 C 104.884 4.41211 3.0028 0
M  V30 1123 O 105.107 3.92225 4.14144 0
M  V30 1124 O 104.041 5.32605 2.80384 0
M  V30 1125 H 107.867 3.00354 0.449561 0
M  V30 1126 H 105.452 1.48584 0.155949 0
M  V30 1127 H 107.334 3.0557 2.90181 0
M  V30 1128 H 106.009 1.89192 2.62656 0
M  V30 1129 H 104.916 3.59054 1.05028 0
M  V30 1130 H 106.249 4.71848 1.40073 0
M  V30 1131 N 107.901 -0.206675 1.56239 0
M  V30 1132 C 109.147 -0.930218 1.80208 0
M  V30 1133 C 109.48 -1.83387 0.638981 0
M  V30 1134 O 108.755 -1.91119 -0.361066 0
M  V30 1135 C 109.038 -1.75641 3.1436 0
M  V30 1136 C 108.891 -0.878257 4.41142 0
M  V30 1137 C 110.21 -2.73129 3.45092 0
M  V30 1138 H 107.329 -0.336742 0.655571 0
M  V30 1139 H 109.971 -0.198222 1.88963 0
M  V30 1140 H 108.121 -2.38048 3.07027 0
M  V30 1141 H 109.793 -0.269787 4.6051 0
M  V30 1142 H 108.036 -0.184385 4.33408 0
M  V30 1143 H 108.707 -1.49106 5.3148 0
M  V30 1144 H 111.183 -2.20856 3.52649 0
M  V30 1145 H 110.059 -3.28028 4.40101 0
M  V30 1146 H 110.32 -3.51606 2.68003 0
M  V30 1147 N 109.379 -1.50304 -0.473955 0
M  V30 1148 C 110.604 -1.65175 -1.25427 0
M  V30 1149 C 111.029 -0.333673 -1.85117 0
M  V30 1150 O 110.387 0.702114 -1.67153 0
M  V30 1151 C 110.435 -2.74295 -2.34082 0
M  V30 1152 O 109.539 -2.35349 -3.38651 0
M  V30 1153 H 108.88 -0.551944 -0.369126 0
M  V30 1154 H 111.41 -1.96662 -0.564364 0
M  V30 1155 H 111.42 -2.97285 -2.79438 0
M  V30 1156 H 110.095 -3.69959 -1.90008 0
M  V30 1157 H 108.672 -2.22794 -2.99027 0
M  V30 1158 N 110.857 0.726932 -1.39834 0
M  V30 1159 C 112.273 1.03354 -1.21615 0
M  V30 1160 C 112.473 2.01327 -0.08338 0
M  V30 1161 O 111.529 2.46158 0.56238 0
M  V30 1162 C 112.842 1.58811 -2.55342 0
M  V30 1163 C 114.39 1.70851 -2.62257 0
M  V30 1164 C 114.865 2.29716 -3.96225 0
M  V30 1165 N 116.356 2.37116 -3.97907 0
M  V30 1166 C 117.091 2.83619 -4.98345 0
M  V30 1167 N 116.587 3.29958 -6.09179 0
M  V30 1168 N 118.38 2.82901 -4.8572 0
M  V30 1169 H 110.531 0.0773069 -2.12259 0
M  V30 1170 H 112.794 0.0969102 -0.943034 0
M  V30 1171 H 112.5 0.942855 -3.38826 0
M  V30 1172 H 112.374 2.57502 -2.75632 0
M  V30 1173 H 114.761 2.34497 -1.79152 0
M  V30 1174 H 114.842 0.707913 -2.45809 0
M  V30 1175 H 114.486 1.66696 -4.79765 0
M  V30 1176 H 114.416 3.30469 -4.09997 0
M  V30 1177 H 116.907 2.04374 -3.17868 0
M  V30 1178 H 117.22 3.63976 -6.8172 0
M  V30 1179 H 115.565 3.27946 -6.12761 0
M  V30 1180 H 118.756 2.46027 -3.98231 0
M  V30 1181 H 118.929 3.18827 -5.6414 0
M  V30 1182 N 112.336 1.25143 0.95797 0
M  V30 1183 C 113.266 1.07711 2.07173 0
M  V30 1184 C 114.247 -0.0128462 1.70095 0
M  V30 1185 O 115.432 0.156061 1.93572 0
M  V30 1186 C 112.562 0.691503 3.40346 0
M  V30 1187 C 111.516 1.73132 3.9142 0
M  V30 1188 C 110.842 1.20049 5.21049 0
M  V30 1189 C 112.142 3.1294 4.1817 0
M  V30 1190 H 113.836 2.00873 2.22014 0
M  V30 1191 H 111.382 0.967191 1.06684 0
M  V30 1192 H 113.335 0.556505 4.17709 0
M  V30 1193 H 112.059 -0.275819 3.25433 0
M  V30 1194 H 110.718 1.8547 3.16222 0
M  V30 1195 H 110.366 0.223499 5.02503 0
M  V30 1196 H 110.066 1.89545 5.56189 0
M  V30 1197 H 111.59 1.07782 6.01012 0
M  V30 1198 H 113.004 3.03775 4.86203 0
M  V30 1199 H 111.401 3.79875 4.64559 0
M  V30 1200 H 112.471 3.6025 3.24573 0
M  V30 1201 N 113.814 -1.1601 1.06675 0
M  V30 1202 C 115.061 -1.86633 0.785781 0
M  V30 1203 C 115.389 -1.81929 -0.687896 0
M  V30 1204 O 114.644 -1.23253 -1.52011 0
M  V30 1205 C 114.943 -3.35547 1.23057 0
M  V30 1206 C 114.609 -3.60448 2.70902 0
M  V30 1207 C 113.271 -3.66954 3.11285 0
M  V30 1208 C 115.623 -3.7071 3.66365 0
M  V30 1209 C 112.951 -3.81225 4.45965 0
M  V30 1210 C 115.303 -3.86503 5.00797 0
M  V30 1211 C 113.967 -3.91252 5.40813 0
M  V30 1212 H 113.237 -0.682937 0.287538 0
M  V30 1213 H 115.884 -1.37146 1.33654 0
M  V30 1214 H 114.189 -3.87193 0.59907 0
M  V30 1215 H 115.886 -3.88583 0.990163 0
M  V30 1216 H 112.476 -3.56021 2.38636 0
M  V30 1217 H 116.66 -3.64991 3.36296 0
M  V30 1218 H 111.916 -3.83155 4.76447 0
M  V30 1219 H 116.09 -3.93385 5.74649 0
M  V30 1220 H 113.717 -4.02062 6.45174 0
M  V30 1221 N 115.292 -0.849877 -1.32721 0
M  V30 1222 C 116.222 -0.306308 -2.31482 0
M  V30 1223 C 117.203 0.591952 -1.59468 0
M  V30 1224 O 118.388 0.513199 -1.87296 0
M  V30 1225 C 115.518 0.510204 -3.43532 0
M  V30 1226 C 114.472 -0.293209 -4.26994 0
M  V30 1227 C 113.798 0.647743 -5.30762 0
M  V30 1228 C 115.098 -1.51634 -4.99804 0
M  V30 1229 H 116.792 -1.13153 -2.77195 0
M  V30 1230 H 114.338 -0.545553 -1.33266 0
M  V30 1231 H 116.291 0.900856 -4.11658 0
M  V30 1232 H 115.015 1.36874 -2.96535 0
M  V30 1233 H 113.674 -0.665555 -3.60508 0
M  V30 1234 H 113.322 1.50299 -4.8002 0
M  V30 1235 H 113.022 0.11422 -5.87489 0
M  V30 1236 H 114.546 1.03567 -6.01753 0
M  V30 1237 H 115.96 -1.19824 -5.60638 0
M  V30 1238 H 114.357 -1.98745 -5.66234 0
M  V30 1239 H 115.427 -2.28018 -4.27943 0
M  V30 1240 N 116.77 1.45427 -0.607355 0
M  V30 1241 C 117.68 2.34325 0.113463 0
M  V30 1242 C 118.696 1.51226 0.860617 0
M  V30 1243 O 119.872 1.84029 0.818255 0
M  V30 1244 C 116.937 3.28839 1.09844 0
M  V30 1245 C 115.998 4.27844 0.353271 0
M  V30 1246 C 115.231 5.17842 1.29133 0
M  V30 1247 O 115.454 5.11264 2.52913 0
M  V30 1248 O 114.388 5.96713 0.788523 0
M  V30 1249 H 118.214 2.97364 -0.617094 0
M  V30 1250 H 115.799 1.44807 -0.367619 0
M  V30 1251 H 117.681 3.8708 1.66575 0
M  V30 1252 H 116.356 2.68365 1.81003 0
M  V30 1253 H 115.263 3.7322 -0.256494 0
M  V30 1254 H 116.596 4.91173 -0.317822 0
M  V30 1255 N 118.248 0.346503 1.53744 0
M  V30 1256 C 119.659 -0.136779 1.86198 0
M  V30 1257 C 120.01 -1.49749 1.26766 0
M  V30 1258 O 119.135 -2.08417 0.582355 0
M  V30 1259 C 119.73 -0.254966 3.37839 0
M  V30 1260 C 118.289 -0.682482 3.70161 0
M  V30 1261 C 117.436 0.181981 2.76702 0
M  V30 1262 H 120.387 0.565994 1.48264 0
M  V30 1263 H 120.408 -1.08195 3.64793 0
M  V30 1264 H 119.92 0.735526 3.81066 0
M  V30 1265 H 118.021 -1.68189 3.3248 0
M  V30 1266 H 118.134 -0.470326 4.76786 0
M  V30 1267 H 116.498 -0.34615 2.52337 0
M  V30 1268 H 117.281 1.16966 3.2276 0
M  V30 1269 N 119.726 -1.57421 0.075193 0
M  V30 1270 C 120.954 -1.97946 -0.602076 0
M  V30 1271 C 121.369 -0.953674 -1.62943 0
M  V30 1272 O 120.726 0.0592551 -1.82404 0
M  V30 1273 C 120.777 -3.38546 -1.26762 0
M  V30 1274 O 120.498 -4.37195 -0.281376 0
M  V30 1275 C 121.999 -3.93966 -2.03239 0
M  V30 1276 H 119.219 -0.650918 -0.162931 0
M  V30 1277 H 121.763 -2.03959 0.148601 0
M  V30 1278 H 119.918 -3.33609 -1.96936 0
M  V30 1279 H 120.332 -5.18975 -0.759267 0
M  V30 1280 H 121.806 -4.94555 -2.45193 0
M  V30 1281 H 122.283 -3.30693 -2.8903 0
M  V30 1282 H 122.889 -4.02315 -1.37924 0
M  V30 1283 N 121.204 0.198386 -1.56346 0
M  V30 1284 C 122.62 0.549085 -1.49857 0
M  V30 1285 C 122.82 1.86016 -0.774611 0
M  V30 1286 O 121.876 2.50416 -0.323776 0
M  V30 1287 C 123.189 0.606868 -2.94512 0
M  V30 1288 C 124.737 0.695925 -3.05165 0
M  V30 1289 C 125.212 0.784848 -4.51225 0
M  V30 1290 N 126.703 0.848463 -4.55363 0
M  V30 1291 C 127.438 0.937378 -5.65686 0
M  V30 1292 N 126.934 0.9888 -6.85707 0
M  V30 1293 N 128.727 0.974312 -5.53592 0
M  V30 1294 H 120.878 -0.661655 -2.01831 0
M  V30 1295 H 123.141 -0.235261 -0.918344 0
M  V30 1296 H 122.847 -0.28732 -3.50524 0
M  V30 1297 H 122.721 1.46268 -3.47686 0
M  V30 1298 H 125.108 1.58055 -2.49204 0
M  V30 1299 H 125.189 -0.186022 -2.55123 0
M  V30 1300 H 124.833 -0.0954072 -5.0781 0
M  V30 1301 H 124.763 1.68255 -4.98997 0
M  V30 1302 H 127.254 0.818103 -3.68938 0
M  V30 1303 H 127.567 1.05707 -7.65536 0
M  V30 1304 H 125.912 0.957534 -6.88372 0
M  V30 1305 H 129.103 0.930954 -4.58749 0
M  V30 1306 H 129.276 1.04015 -6.39597 0
M  V30 1307 N 122.682 1.50554 0.465978 0
M  V30 1308 C 123.629 1.6979 1.56333 0
M  V30 1309 C 124.599 0.539239 1.57103 0
M  V30 1310 O 125.784 0.770401 1.74555 0
M  V30 1311 C 122.924 1.80273 2.94271 0
M  V30 1312 C 122.037 3.07674 3.0325 0
M  V30 1313 C 121.172 3.08922 4.32135 0
M  V30 1314 C 120.211 4.30755 4.34875 0
M  V30 1315 N 119.348 4.29714 5.55239 0
M  V30 1316 H 124.188 2.63472 1.39235 0
M  V30 1317 H 121.725 1.30602 0.676873 0
M  V30 1318 H 123.683 1.84332 3.74269 0
M  V30 1319 H 122.313 0.900258 3.09992 0
M  V30 1320 H 121.365 3.13062 2.16094 0
M  V30 1321 H 122.677 3.97642 3.01135 0
M  V30 1322 H 121.831 3.11738 5.20485 0
M  V30 1323 H 120.57 2.16792 4.36866 0
M  V30 1324 H 119.575 4.28146 3.44922 0
M  V30 1325 H 120.8 5.24117 4.31831 0
M  V30 1326 H 118.746 3.4044 5.60746 0
M  V30 1327 H 118.663 5.13456 5.54886 0
M  V30 1328 H 119.931 4.36683 6.457 0
M  V30 1329 N 124.16 -0.719506 1.40217 0
M  V30 1330 C 125.437 -1.47221 1.28784 0
M  V30 1331 C 125.817 -2.10883 -0.0956067 0
M  V30 1332 O 125.165 -1.99833 -1.10811 0
M  V30 1333 C 125.375 -2.5111 2.42373 0
M  V30 1334 C 126.723 -3.17053 2.82423 0
M  V30 1335 O 127.747 -2.61429 2.41937 0
M  V30 1336 O 126.606 -4.17742 3.52355 0
M  V30 1337 H 123.7 -0.654491 0.50554 0
M  V30 1338 H 126.246 -0.752014 1.52128 0
M  V30 1339 H 125.018 -2.02556 3.34793 0
M  V30 1340 H 124.641 -3.3067 2.20778 0
M  V30 1341 N 125.638 -1.25649 -0.95132 0
M  V30 1342 C 126.887 -1.09988 -1.69073 0
M  V30 1343 C 127.2 0.358355 -1.92289 0
M  V30 1344 O 128.406 0.635466 -2.63958 0
M  V30 1345 C 126.862 -1.92012 -3.044 0
M  V30 1346 C 126.47 -3.42347 -2.88968 0
M  V30 1347 C 128.214 -1.8493 -3.82101 0
M  V30 1348 C 126.121 -4.16655 -4.19705 0
M  V30 1349 H 125.051 -0.407993 -0.63408 0
M  V30 1350 H 127.702 -1.49873 -1.05879 0
M  V30 1351 H 126.084 -1.44952 -3.68517 0
M  V30 1352 H 127.258 -3.97104 -2.33762 0
M  V30 1353 H 125.573 -3.50557 -2.24719 0
M  V30 1354 H 128.17 -2.37739 -4.78941 0
M  V30 1355 H 128.513 -0.817883 -4.08187 0
M  V30 1356 H 129.046 -2.29758 -3.2474 0
M  V30 1357 H 125.785 -5.20224 -3.98807 0
M  V30 1358 H 125.305 -3.66681 -4.74663 0
M  V30 1359 H 126.984 -4.24551 -4.88227 0
M  V30 1360 N 127.117 1.15442 -1.07289 0
M  V30 1361 C 128.08 2.18358 -0.696591 0
M  V30 1362 C 129.08 1.58637 0.262837 0
M  V30 1363 O 130.27 1.74145 0.0438809 0
M  V30 1364 C 127.402 3.4089 -0.0266151 0
M  V30 1365 H 128.595 2.53162 -1.60776 0
M  V30 1366 H 126.148 1.29893 -0.869342 0
M  V30 1367 H 126.883 3.11653 0.896822 0
M  V30 1368 H 126.668 3.85495 -0.716657 0
M  V30 1369 H 128.158 4.17009 0.222028 0
M  V30 1370 N 128.595 0.856903 1.32268 0
M  V30 1371 C 129.525 0.31858 2.31316 0
M  V30 1372 C 130.506 -0.583487 1.59779 0
M  V30 1373 O 131.691 -0.503259 1.87566 0
M  V30 1374 C 128.821 -0.491979 3.43798 0
M  V30 1375 C 127.775 0.315849 4.26833 0
M  V30 1376 C 127.101 -0.619586 5.31098 0
M  V30 1377 C 128.401 1.54282 4.98993 0
M  V30 1378 H 130.095 1.14621 2.76591 0
M  V30 1379 H 127.641 0.552613 1.32974 0
M  V30 1380 H 129.594 -0.879012 4.1213 0
M  V30 1381 H 128.318 -1.35299 2.97257 0
M  V30 1382 H 126.977 0.684664 3.6015 0
M  V30 1383 H 126.625 -1.47751 4.8081 0
M  V30 1384 H 126.325 -0.0830621 5.87541 0
M  V30 1385 H 127.849 -1.00375 6.02293 0
M  V30 1386 H 129.263 1.22796 5.59995 0
M  V30 1387 H 127.66 2.01745 5.65172 0
M  V30 1388 H 128.73 2.30285 4.26728 0
M  V30 1389 N 130.073 -1.45103 0.615059 0
M  V30 1390 C 131.003 -2.33339 -0.0865619 0
M  V30 1391 C 131.984 -1.4727 -0.851209 0
M  V30 1392 O 133.169 -1.76026 -0.820281 0
M  V30 1393 C 130.299 -3.30095 -1.07956 0
M  V30 1394 C 129.253 -4.25858 -0.427628 0
M  V30 1395 C 128.579 -5.12361 -1.5294 0
M  V30 1396 C 129.879 -5.18165 0.655944 0
M  V30 1397 H 131.573 -2.92254 0.650224 0
M  V30 1398 H 129.119 -1.40532 0.314138 0
M  V30 1399 H 131.072 -3.90698 -1.57901 0
M  V30 1400 H 129.796 -2.69355 -1.84703 0
M  V30 1401 H 128.455 -3.66564 0.0510292 0
M  V30 1402 H 128.103 -4.47984 -2.28734 0
M  V30 1403 H 127.803 -5.77238 -1.09865 0
M  V30 1404 H 129.327 -5.75833 -2.03098 0
M  V30 1405 H 130.741 -5.72796 0.240257 0
M  V30 1406 H 129.138 -5.91559 1.00888 0
M  V30 1407 H 130.208 -4.60144 1.52957 0
M  V30 1408 N 131.551 -0.354651 -1.53558 0
M  V30 1409 C 132.498 0.496968 -2.25386 0
M  V30 1410 C 133.468 1.0865 -1.25636 0
M  V30 1411 O 134.653 1.12104 -1.54394 0
M  V30 1412 C 131.793 1.63637 -3.03837 0
M  V30 1413 C 130.906 1.07307 -4.18461 0
M  V30 1414 C 130.041 2.18068 -4.84376 0
M  V30 1415 C 129.08 1.59147 -5.91049 0
M  V30 1416 N 128.217 2.63695 -6.50699 0
M  V30 1417 H 133.057 -0.122075 -2.9775 0
M  V30 1418 H 130.594 -0.0720154 -1.46924 0
M  V30 1419 H 132.552 2.30734 -3.47589 0
M  V30 1420 H 131.182 2.22623 -2.33749 0
M  V30 1421 H 130.234 0.292708 -3.79272 0
M  V30 1422 H 131.546 0.602193 -4.95152 0
M  V30 1423 H 130.7 2.93007 -5.31255 0
M  V30 1424 H 129.439 2.68504 -4.07133 0
M  V30 1425 H 128.444 0.827175 -5.43542 0
M  V30 1426 H 129.669 1.09549 -6.70206 0
M  V30 1427 H 127.615 3.13365 -5.76315 0
M  V30 1428 H 127.532 2.21263 -7.22896 0
M  V30 1429 H 128.8 3.3837 -7.02229 0
M  V30 1430 N 133.029 1.57378 -0.0835403 0
M  V30 1431 C 133.959 2.1641 0.87686 0
M  V30 1432 C 134.94 1.09429 1.30228 0
M  V30 1433 O 136.125 1.37516 1.37124 0
M  V30 1434 C 133.255 2.73517 2.14022 0
M  V30 1435 C 132.209 3.85769 1.85381 0
M  V30 1436 C 131.535 4.29529 3.18448 0
M  V30 1437 C 132.835 5.09486 1.14984 0
M  V30 1438 H 134.529 2.96914 0.385059 0
M  V30 1439 H 132.075 1.42823 0.18377 0
M  V30 1440 H 134.028 3.13463 2.81636 0
M  V30 1441 H 132.752 1.90252 2.65465 0
M  V30 1442 H 131.411 3.46345 1.20169 0
M  V30 1443 H 131.059 3.43169 3.67755 0
M  V30 1444 H 130.759 5.05204 3.00071 0
M  V30 1445 H 132.283 4.72099 3.8724 0
M  V30 1446 H 133.697 5.46674 1.72687 0
M  V30 1447 H 132.094 5.90515 1.06826 0
M  V30 1448 H 133.164 4.84724 0.130749 0
M  V30 1449 N 134.507 -0.190092 1.56449 0
M  V30 1450 C 135.732 -0.929864 1.85387 0
M  V30 1451 C 136.157 -1.7585 0.667704 0
M  V30 1452 O 135.515 -1.77198 -0.383459 0
M  V30 1453 C 135.563 -1.79773 3.12593 0
M  V30 1454 O 134.667 -2.89713 2.93496 0
M  V30 1455 H 134.008 -0.261574 0.610307 0
M  V30 1456 H 136.538 -0.193896 2.03679 0
M  V30 1457 H 136.548 -2.20139 3.43515 0
M  V30 1458 H 135.223 -1.18892 3.98544 0
M  V30 1459 H 133.8 -2.53065 2.73884 0
M  V30 1460 N 135.985 -1.50799 -0.457987 0
M  V30 1461 C 137.21 -1.66496 -1.23668 0
M  V30 1462 C 137.635 -0.353288 -1.84752 0
M  V30 1463 O 136.993 0.684346 -1.67888 0
M  V30 1464 C 137.041 -2.76763 -2.3116 0
M  V30 1465 O 136.145 -2.38928 -3.36136 0
M  V30 1466 H 135.486 -0.555828 -0.363252 0
M  V30 1467 H 138.016 -1.9725 -0.543474 0
M  V30 1468 H 138.026 -3.00232 -2.76269 0
M  V30 1469 H 136.701 -3.71954 -1.86073 0
M  V30 1470 H 135.278 -2.25953 -2.96647 0
M  V30 1471 N 137.463 0.71206 -1.40597 0
M  V30 1472 C 138.874 1.29135 -1.34837 0
M  V30 1473 C 139.225 1.96186 -0.0235395 0
M  V30 1474 O 138.35 1.97768 0.878444 0
M  V30 1475 C 138.945 2.34827 -2.44217 0
M  V30 1476 C 137.504 2.88371 -2.41907 0
M  V30 1477 C 136.651 1.62202 -2.24913 0
M  V30 1478 H 139.602 0.507944 -1.50352 0
M  V30 1479 H 139.623 3.15749 -2.12327 0
M  V30 1480 H 139.135 1.85996 -3.40627 0
M  V30 1481 H 137.236 3.41422 -1.49204 0
M  V30 1482 H 137.349 3.39925 -3.37621 0
M  V30 1483 H 135.713 1.874 -1.72492 0
M  V30 1484 H 136.496 1.15391 -3.23326 0
M  V30 1485 N 138.941 1.26152 0.944643 0
M  V30 1486 C 139.904 1.07474 2.0244 0
M  V30 1487 C 140.904 0.0242064 1.60782 0
M  V30 1488 O 142.094 0.267302 1.72137 0
M  V30 1489 C 139.226 0.633956 3.34953 0
M  V30 1490 H 140.419 2.03336 2.20442 0
M  V30 1491 H 137.972 1.087 1.12312 0
M  V30 1492 H 138.707 -0.326811 3.22649 0
M  V30 1493 H 138.492 1.39247 3.66542 0
M  V30 1494 H 139.982 0.52501 4.14287 0
M  V30 1495 N 140.419 -1.14872 1.07899 0
M  V30 1496 C 141.665 -1.86064 0.806725 0
M  V30 1497 C 141.998 -1.82434 -0.665706 0
M  V30 1498 O 141.273 -1.25138 -1.48899 0
M  V30 1499 C 141.556 -3.34929 1.32267 0
M  V30 1500 C 141.409 -3.47161 2.86006 0
M  V30 1501 C 142.728 -4.29863 0.943717 0
M  V30 1502 H 139.847 -0.675591 0.294526 0
M  V30 1503 H 142.489 -1.34925 1.33773 0
M  V30 1504 H 140.639 -3.78611 0.870974 0
M  V30 1505 H 142.311 -3.12302 3.39507 0
M  V30 1506 H 140.554 -2.88539 3.23925 0
M  V30 1507 H 141.225 -4.51777 3.17177 0
M  V30 1508 H 143.701 -3.9417 1.33302 0
M  V30 1509 H 142.577 -5.32494 1.33198 0
M  V30 1510 H 142.838 -4.41846 -0.149796 0
M  V30 1511 N 141.898 -0.863906 -1.31812 0
M  V30 1512 C 143.147 -0.46801 -1.96195 0
M  V30 1513 C 143.46 0.983474 -1.69077 0
M  V30 1514 O 144.666 1.48523 -2.27273 0
M  V30 1515 C 143.122 -0.785995 -3.51212 0
M  V30 1516 C 142.73 -2.25383 -3.87178 0
M  V30 1517 C 144.474 -0.458274 -4.22019 0
M  V30 1518 C 142.381 -2.51455 -5.3528 0
M  V30 1519 H 141.311 -0.171283 -0.734287 0
M  V30 1520 H 143.962 -1.05597 -1.50072 0
M  V30 1521 H 142.344 -0.127359 -3.95795 0
M  V30 1522 H 143.518 -2.95502 -3.53575 0
M  V30 1523 H 141.833 -2.54698 -3.2942 0
M  V30 1524 H 144.43 -0.630369 -5.30971 0
M  V30 1525 H 144.773 0.600834 -4.11941 0
M  V30 1526 H 145.306 -1.07319 -3.8305 0
M  V30 1527 H 142.045 -3.56025 -5.50387 0
M  V30 1528 H 141.565 -1.85923 -5.70257 0
M  V30 1529 H 143.244 -2.35874 -6.02472 0
M  V30 1530 N 143.376 1.44774 -0.622745 0
M  V30 1531 C 144.604 2.06487 -0.130722 0
M  V30 1532 C 145.019 1.46476 1.19123 0
M  V30 1533 O 144.376 0.584502 1.72887 0
M  V30 1534 C 144.427 3.615 -0.000807207 0
M  V30 1535 O 144.148 4.19274 -1.27048 0
M  V30 1536 C 145.649 4.40229 0.520898 0
M  V30 1537 H 142.869 0.666704 -0.0758106 0
M  V30 1538 H 145.413 1.85779 -0.854774 0
M  V30 1539 H 143.568 3.81498 0.673643 0
M  V30 1540 H 143.982 5.12622 -1.1099 0
M  V30 1541 H 145.456 5.49144 0.560838 0
M  V30 1542 H 145.933 4.1108 1.54627 0
M  V30 1543 H 146.539 4.25131 -0.120018 0
M  V30 1544 N 144.854 0.36279 1.53368 0
M  V30 1545 C 146.131 -0.284021 1.93527 0
M  V30 1546 C 146.511 -1.66628 1.29608 0
M  V30 1547 O 145.859 -2.23942 0.45413 0
M  V30 1548 C 146.069 -0.337028 3.47369 0
M  V30 1549 C 147.417 -0.578708 4.20638 0
M  V30 1550 O 148.441 -0.418352 3.53735 0
M  V30 1551 O 147.3 -0.89074 5.39192 0
M  V30 1552 H 144.394 -0.169743 0.809393 0
M  V30 1553 H 146.94 0.41537 1.64538 0
M  V30 1554 H 145.712 0.632217 3.86159 0
M  V30 1555 H 145.335 -1.08243 3.82582 0
M  V30 1556 N 146.332 -1.57332 0.0918853 0
M  V30 1557 C 147.279 -2.13847 -0.868211 0
M  V30 1558 C 148.249 -1.05618 -1.28196 0
M  V30 1559 O 149.434 -1.33387 -1.36427 0
M  V30 1560 C 146.574 -2.72062 -2.12312 0
M  V30 1561 C 145.687 -3.94514 -1.7602 0
M  V30 1562 C 144.822 -4.40903 -2.96273 0
M  V30 1563 C 143.861 -5.55953 -2.56092 0
M  V30 1564 N 142.998 -5.97209 -3.69169 0
M  V30 1565 H 147.838 -2.95575 -0.379406 0
M  V30 1566 H 145.375 -1.46048 -0.175606 0
M  V30 1567 H 147.333 -3.03931 -2.858 0
M  V30 1568 H 145.963 -1.93068 -2.58698 0
M  V30 1569 H 145.015 -3.68979 -0.925135 0
M  V30 1570 H 146.327 -4.7802 -1.42472 0
M  V30 1571 H 145.481 -4.74539 -3.78018 0
M  V30 1572 H 144.22 -3.56291 -3.33029 0
M  V30 1573 H 143.225 -5.21948 -1.72773 0
M  V30 1574 H 144.45 -6.42311 -2.20484 0
M  V30 1575 H 142.396 -5.15543 -4.05649 0
M  V30 1576 H 142.313 -6.75504 -3.39456 0
M  V30 1577 H 143.581 -6.35475 -4.51434 0
M  V30 1578 N 147.81 0.181792 -1.56548 0
M  V30 1579 C 149.056 0.901431 -1.81665 0
M  V30 1580 C 149.389 1.82347 -0.668075 0
M  V30 1581 O 148.664 1.91669 0.330615 0
M  V30 1582 C 148.947 1.70618 -3.17115 0
M  V30 1583 C 148.8 0.807964 -4.42484 0
M  V30 1584 C 150.119 2.67605 -3.49393 0
M  V30 1585 H 147.238 0.32627 -0.660846 0
M  V30 1586 H 149.88 0.168134 -1.89255 0
M  V30 1587 H 148.03 2.33133 -3.10775 0
M  V30 1588 H 149.702 0.19649 -4.60881 0
M  V30 1589 H 147.945 0.115411 -4.33646 0
M  V30 1590 H 148.616 1.40632 -5.33785 0
M  V30 1591 H 151.092 2.15218 -3.56118 0
M  V30 1592 H 149.968 3.20985 -4.45264 0
M  V30 1593 H 150.229 3.47298 -2.73563 0
M  V30 1594 N 149.288 1.51039 0.449983 0
M  V30 1595 C 150.537 1.62317 1.19733 0
M  V30 1596 C 150.85 0.339101 1.92638 0
M  V30 1597 O 152.056 0.331069 2.69474 0
M  V30 1598 C 150.512 2.86608 2.17678 0
M  V30 1599 C 150.12 4.21972 1.50479 0
M  V30 1600 C 151.864 3.07239 2.92924 0
M  V30 1601 C 149.771 5.37426 2.46834 0
M  V30 1602 H 148.701 0.604532 0.450619 0
M  V30 1603 H 151.352 1.77494 0.465625 0
M  V30 1604 H 149.734 2.65037 2.94231 0
M  V30 1605 H 150.908 4.53878 0.795716 0
M  V30 1606 H 149.223 4.07117 0.874344 0
M  V30 1607 H 151.82 3.90668 3.65079 0
M  V30 1608 H 152.163 2.19807 3.5354 0
M  V30 1609 H 152.696 3.29091 2.23481 0
M  V30 1610 H 149.435 6.27079 1.90926 0
M  V30 1611 H 148.955 5.09912 3.15832 0
M  V30 1612 H 150.634 5.68862 3.08228 0
M  V30 1613 N 150.766 -0.704594 1.40972 0
M  V30 1614 C 152.177 -1.28418 1.3552 0
M  V30 1615 C 152.528 -1.96171 0.0339434 0
M  V30 1616 O 151.653 -1.98231 -0.867944 0
M  V30 1617 C 152.248 -2.33528 2.45459 0
M  V30 1618 C 150.807 -2.87085 2.43433 0
M  V30 1619 C 149.954 -1.61007 2.2577 0
M  V30 1620 H 152.905 -0.499963 1.50619 0
M  V30 1621 H 152.926 -3.14619 2.13998 0
M  V30 1622 H 152.438 -1.84187 3.41609 0
M  V30 1623 H 150.539 -3.40626 1.51013 0
M  V30 1624 H 150.652 -3.3813 3.39419 0
M  V30 1625 H 149.016 -1.86482 1.73483 0
M  V30 1626 H 149.799 -1.13675 3.23933 0
M  V30 1627 N 152.244 -1.26651 -0.937939 0
M  V30 1628 C 153.207 -1.08546 -2.01867 0
M  V30 1629 C 154.207 -0.0327327 -1.60767 0
M  V30 1630 O 155.397 -0.276427 -1.71993 0
M  V30 1631 C 152.529 -0.651711 -3.34613 0
M  V30 1632 H 153.722 -2.04502 -2.1936 0
M  V30 1633 H 151.275 -1.09294 -1.11734 0
M  V30 1634 H 152.01 0.309696 -3.22818 0
M  V30 1635 H 151.795 -1.41189 -3.65798 0
M  V30 1636 H 153.285 -0.546973 -4.14002 0
M  V30 1637 N 153.722 1.14298 -1.08507 0
M  V30 1638 C 154.962 1.87016 -0.824894 0
M  V30 1639 C 155.326 1.81099 0.637735 0
M  V30 1640 O 156.527 2.48963 1.01345 0
M  V30 1641 C 154.798 3.31584 -1.33368 0
M  V30 1642 S 156.357 4.21903 -1.20596 0
M  V30 1643 H 153.175 0.645259 -0.2986 0
M  V30 1644 H 155.777 1.37822 -1.38656 0
M  V30 1645 H 154.481 3.33439 -2.39262 0
M  V30 1646 H 154.012 3.85836 -0.767734 0
M  V30 1647 H 156.027 4.95971 -0.150891 0
M  V30 1648 N 155.201 0.870884 1.31352 0
M  V30 1649 C 156.131 0.343096 2.30966 0
M  V30 1650 C 157.112 -0.566507 1.60389 0
M  V30 1651 O 158.297 -0.483336 1.88089 0
M  V30 1652 C 155.427 -0.455487 3.443 0
M  V30 1653 C 154.381 0.361103 4.26474 0
M  V30 1654 C 153.707 -0.563221 5.31725 0
M  V30 1655 C 155.007 1.59566 4.97329 0
M  V30 1656 H 156.701 1.17548 2.75359 0
M  V30 1657 H 154.247 0.566686 1.32381 0
M  V30 1658 H 156.2 -0.83525 4.13039 0
M  V30 1659 H 154.924 -1.32139 2.98675 0
M  V30 1660 H 153.583 0.722825 3.59403 0
M  V30 1661 H 153.231 -1.42643 4.82351 0
M  V30 1662 H 152.931 -0.0207409 5.87596 0
M  V30 1663 H 154.455 -0.939808 6.03324 0
M  V30 1664 H 155.869 1.28728 5.58661 0
M  V30 1665 H 154.266 2.07728 5.63 0
M  V30 1666 H 155.336 2.34798 4.24262 0
M  V30 1667 N 156.679 -1.44442 0.630414 0
M  V30 1668 C 158.09 -1.85434 0.217063 0
M  V30 1669 C 158.441 -1.52748 -1.23136 0
M  V30 1670 O 157.566 -0.965205 -1.93682 0
M  V30 1671 C 158.161 -3.36581 0.387168 0
M  V30 1672 C 156.72 -3.76389 0.0283297 0
M  V30 1673 C 155.867 -2.68296 0.700889 0
M  V30 1674 H 158.818 -1.34919 0.83562 0
M  V30 1675 H 158.839 -3.78657 -0.374086 0
M  V30 1676 H 158.351 -3.60339 1.44144 0
M  V30 1677 H 156.452 -3.58246 -1.02423 0
M  V30 1678 H 156.565 -4.77095 0.437892 0
M  V30 1679 H 154.929 -2.54335 0.136267 0
M  V30 1680 H 155.712 -2.94887 1.75774 0
M  V30 1681 N 158.157 -0.370918 -1.53173 0
M  V30 1682 C 159.382 0.220293 -2.06227 0
M  V30 1683 C 159.807 1.41243 -1.24225 0
M  V30 1684 O 159.165 1.79387 -0.262645 0
M  V30 1685 C 159.213 0.586663 -3.55796 0
M  V30 1686 O 158.317 1.68317 -3.76488 0
M  V30 1687 H 157.658 0.0308099 -0.663285 0
M  V30 1688 H 160.188 -0.533068 -1.97534 0
M  V30 1689 H 160.198 0.85617 -3.98916 0
M  V30 1690 H 158.873 -0.285013 -4.14922 0
M  V30 1691 H 157.45 1.40881 -3.45264 0
M  V30 1692 N 159.635 1.57281 -0.100228 0
M  V30 1693 C 161.046 1.81725 0.428107 0
M  V30 1694 C 161.397 1.01619 1.67833 0
M  V30 1695 O 160.522 0.247098 2.14985 0
M  V30 1696 C 161.117 3.29617 0.78347 0
M  V30 1697 C 159.676 3.54808 1.25653 0
M  V30 1698 C 158.823 2.76118 0.255752 0
M  V30 1699 H 161.774 1.55324 -0.325608 0
M  V30 1700 H 161.795 3.4322 1.64256 0
M  V30 1701 H 161.307 3.87893 -0.12665 0
M  V30 1702 H 159.408 3.01868 2.18418 0
M  V30 1703 H 159.521 4.63443 1.21482 0
M  V30 1704 H 157.885 2.43745 0.738956 0
M  V30 1705 H 158.668 3.37145 -0.647136 0
M  V30 1706 N 161.113 -0.173488 1.56642 0
M  V30 1707 C 162.061 -1.23417 1.97157 0
M  V30 1708 C 163.055 -1.45946 0.860013 0
M  V30 1709 O 164.261 -1.46551 1.04512 0
M  V30 1710 H 160.636 -0.414818 0.62724 0
M  V30 1711 H 162.607 -0.865582 2.8557 0
M  V30 1712 C 161.356 -2.5665 2.34576 0
M  V30 1713 H 160.679 -2.40137 3.19647 0
M  V30 1714 H 162.119 -3.2956 2.6677 0
M  V30 1715 C 160.578 -3.15245 1.18836 0
M  V30 1716 O 161.108 -3.98883 0.474869 0
M  V30 1717 N 159.314 -2.74303 0.959497 0
M  V30 1718 H 158.861 -2.0639 1.54146 0
M  V30 1719 H 158.819 -3.13844 0.186932 0
M  V30 1720 N 162.591 -1.51276 -0.441967 0
M  V30 1721 C 163.821 -1.67273 -1.21257 0
M  V30 1722 C 164.229 -0.367624 -1.85594 0
M  V30 1723 O 163.572 0.663349 -1.71305 0
M  V30 1724 C 163.634 -2.72807 -2.34129 0
M  V30 1725 C 163.298 -4.1554 -1.90198 0
M  V30 1726 C 164.295 -5.00471 -1.40801 0
M  V30 1727 C 161.98 -4.61616 -1.9803 0
M  V30 1728 C 163.974 -6.29536 -0.998174 0
M  V30 1729 C 161.661 -5.90679 -1.56658 0
M  V30 1730 C 162.659 -6.74466 -1.07633 0
M  V30 1731 O 162.347 -8.01116 -0.668459 0
M  V30 1732 H 162.079 -0.564614 -0.371734 0
M  V30 1733 H 164.633 -1.9843 -0.530521 0
M  V30 1734 H 162.863 -2.36954 -3.05597 0
M  V30 1735 H 164.552 -2.77729 -2.96009 0
M  V30 1736 H 165.318 -4.66079 -1.34148 0
M  V30 1737 H 161.197 -3.96526 -2.35135 0
M  V30 1738 H 164.741 -6.94885 -0.61482 0
M  V30 1739 H 160.638 -6.24586 -1.62979 0
M  V30 1740 H 161.406 -8.14633 -0.794722 0
M  V30 1741 N 164.069 0.697108 -1.41344 0
M  V30 1742 C 165.315 1.4593 -1.40827 0
M  V30 1743 C 165.648 1.94193 -0.0167098 0
M  V30 1744 O 164.923 1.69425 0.955263 0
M  V30 1745 C 165.206 2.67229 -2.41373 0
M  V30 1746 C 165.059 2.24741 -3.8963 0
M  V30 1747 C 166.378 3.69423 -2.39196 0
M  V30 1748 H 163.497 0.529303 -0.512842 0
M  V30 1749 H 166.139 0.794112 -1.72609 0
M  V30 1750 H 164.289 3.23982 -2.14401 0
M  V30 1751 H 165.961 1.73327 -4.27499 0
M  V30 1752 H 164.204 1.56542 -4.0457 0
M  V30 1753 H 164.875 3.1177 -4.55525 0
M  V30 1754 H 167.351 3.2234 -2.63128 0
M  V30 1755 H 166.227 4.51907 -3.11563 0
M  V30 1756 H 166.488 4.19012 -1.41001 0
M  V30 1757 N 165.547 1.27147 0.931209 0
M  V30 1758 C 166.793 1.13446 1.68101 0
M  V30 1759 C 167.126 -0.319628 1.91552 0
M  V30 1760 O 166.401 -1.23407 1.50336 0
M  V30 1761 C 166.684 1.91482 3.0497 0
M  V30 1762 C 166.537 3.44855 2.88782 0
M  V30 1763 C 167.856 1.71651 4.05246 0
M  V30 1764 H 164.975 0.413498 0.610072 0
M  V30 1765 H 167.617 1.56261 1.08086 0
M  V30 1766 H 165.767 1.55095 3.56199 0
M  V30 1767 H 167.439 3.9105 2.44698 0
M  V30 1768 H 165.682 3.71373 2.24198 0
M  V30 1769 H 166.353 3.94694 3.85902 0
M  V30 1770 H 168.829 2.0337 3.63015 0
M  V30 1771 H 167.705 2.28651 4.99009 0
M  V30 1772 H 167.966 0.663555 4.37092 0
M  V30 1773 N 167.025 -1.13721 1.09112 0
M  V30 1774 C 167.988 -2.17222 0.731241 0
M  V30 1775 C 168.988 -1.59035 -0.237566 0
M  V30 1776 O 170.178 -1.74192 -0.0161704 0
M  V30 1777 C 167.31 -3.40804 0.0808443 0
M  V30 1778 H 168.503 -2.50573 1.64783 0
M  V30 1779 H 166.056 -1.28493 0.889897 0
M  V30 1780 H 166.791 -3.1304 -0.847127 0
M  V30 1781 H 166.576 -3.84306 0.777896 0
M  V30 1782 H 168.066 -4.1731 -0.155657 0
M  V30 1783 N 168.503 -0.877838 -1.30888 0
M  V30 1784 C 169.78 -0.413052 -1.91189 0
M  V30 1785 C 170.16 1.1056 -1.79832 0
M  V30 1786 O 169.508 1.93771 -1.21099 0
M  V30 1787 C 169.718 -0.903191 -3.3711 0
M  V30 1788 C 171.066 -0.93395 -4.14201 0
M  V30 1789 O 172.09 -0.849373 -3.45925 0
M  V30 1790 O 170.949 -1.05772 -5.36167 0
M  V30 1791 H 168.043 -0.125035 -0.817493 0
M  V30 1792 H 170.589 -0.966269 -1.39504 0
M  V30 1793 H 169.361 -1.94692 -3.39427 0
M  V30 1794 H 168.984 -0.328732 -3.96239 0
M  V30 1795 N 169.982 1.44106 -0.638065 0
M  V30 1796 C 171.398 1.56672 -0.304286 0
M  V30 1797 C 171.598 1.6244 1.19228 0
M  V30 1798 O 170.654 1.57121 1.9766 0
M  V30 1799 C 171.967 2.83503 -1.00231 0
M  V30 1800 C 173.515 2.97226 -0.981116 0
M  V30 1801 C 173.99 4.26868 -1.65974 0
M  V30 1802 N 175.481 4.33698 -1.62666 0
M  V30 1803 C 176.216 5.32745 -2.12063 0
M  V30 1804 N 175.712 6.38157 -2.6968 0
M  V30 1805 N 177.505 5.24299 -2.02651 0
M  V30 1806 H 169.656 1.38605 -1.60942 0
M  V30 1807 H 171.919 0.664661 -0.675965 0
M  V30 1808 H 171.625 2.85251 -2.0573 0
M  V30 1809 H 171.499 3.73251 -0.54439 0
M  V30 1810 H 173.886 2.95027 0.0654188 0
M  V30 1811 H 173.967 2.08808 -1.47759 0
M  V30 1812 H 173.611 4.29826 -2.70576 0
M  V30 1813 H 173.541 5.14156 -1.13804 0
M  V30 1814 H 176.032 3.58138 -1.20606 0
M  V30 1815 H 176.345 7.10029 -3.05087 0
M  V30 1816 H 174.69 6.38823 -2.73734 0
M  V30 1817 H 177.881 4.4086 -1.57353 0
M  V30 1818 H 178.054 6.01334 -2.41457 0
M  V30 1819 N 171.46 0.379036 1.52974 0
M  V30 1820 C 172.688 -0.20679 2.05864 0
M  V30 1821 C 173.103 -1.41356 1.25155 0
M  V30 1822 O 172.46 -1.8009 0.295588 0
M  V30 1823 C 172.511 -0.587045 3.56702 0
M  V30 1824 O 172.232 0.571776 4.34353 0
M  V30 1825 C 173.733 -1.22983 4.25899 0
M  V30 1826 H 170.953 -0.0336123 0.670158 0
M  V30 1827 H 173.497 0.541298 1.97206 0
M  V30 1828 H 171.652 -1.28504 3.65466 0
M  V30 1829 H 172.066 0.261544 5.23847 0
M  V30 1830 H 173.54 -1.44635 5.32715 0
M  V30 1831 H 174.017 -2.19416 3.80465 0
M  V30 1832 H 174.623 -0.572892 4.21424 0
M  V30 1833 N 172.938 -1.57226 0.108567 0
M  V30 1834 C 173.848 -2.18292 -0.859401 0
M  V30 1835 C 174.864 -1.15612 -1.30038 0
M  V30 1836 O 176.04 -1.48039 -1.36552 0
M  V30 1837 C 173.105 -2.762 -2.09558 0
M  V30 1838 C 172.166 -3.93881 -1.70752 0
M  V30 1839 C 171.399 -4.49018 -2.88477 0
M  V30 1840 O 171.622 -4.03068 -4.036 0
M  V30 1841 O 170.556 -5.39852 -2.66164 0
M  V30 1842 H 174.382 -3.01441 -0.369769 0
M  V30 1843 H 171.967 -1.48945 -0.1165 0
M  V30 1844 H 173.849 -3.13156 -2.81978 0
M  V30 1845 H 172.524 -1.96089 -2.57548 0
M  V30 1846 H 171.431 -3.61713 -0.954714 0
M  V30 1847 H 172.764 -4.75396 -1.27513 0
M  V30 1848 N 174.416 0.165178 -1.56732 0
M  V30 1849 C 175.656 0.887231 -1.8414 0
M  V30 1850 C 176.02 1.79159 -0.690353 0
M  V30 1851 O 177.221 2.55172 -0.845032 0
M  V30 1852 C 175.492 1.65674 -3.16681 0
M  V30 1853 S 177.051 2.42671 -3.6559 0
M  V30 1854 H 173.869 0.297042 -0.645978 0
M  V30 1855 H 176.471 0.148439 -1.94936 0
M  V30 1856 H 175.175 0.983507 -3.98441 0
M  V30 1857 H 174.706 2.43679 -3.08843 0
M  V30 1858 H 176.721 3.67499 -3.33406 0
M  V30 1859 N 175.894 1.51508 0.433938 0
M  V30 1860 C 177.141 1.64345 1.18309 0
M  V30 1861 C 177.469 0.361315 1.91115 0
M  V30 1862 O 176.724 -0.654753 1.84422 0
M  V30 1863 C 177.023 2.79928 2.22205 0
M  V30 1864 C 176.689 4.19078 1.66387 0
M  V30 1865 C 175.351 4.56932 1.50887 0
M  V30 1866 C 177.703 5.05894 1.25381 0
M  V30 1867 C 175.031 5.79305 0.928608 0
M  V30 1868 C 177.383 6.2885 0.687823 0
M  V30 1869 C 176.047 6.65473 0.519755 0
M  V30 1870 H 175.317 0.601381 0.432923 0
M  V30 1871 H 177.964 1.85549 0.473676 0
M  V30 1872 H 176.269 2.52959 2.99197 0
M  V30 1873 H 177.966 2.87059 2.79997 0
M  V30 1874 H 174.556 3.89234 1.79428 0
M  V30 1875 H 178.74 4.77253 1.36175 0
M  V30 1876 H 173.996 6.06324 0.786186 0
M  V30 1877 H 178.17 6.95461 0.361581 0
M  V30 1878 H 175.797 7.6017 0.0679979 0
M  V30 1879 N 177.372 -0.689602 1.41712 0
M  V30 1880 C 178.621 -1.44534 1.40686 0
M  V30 1881 C 178.934 -1.95588 0.0213352 0
M  V30 1882 O 180.14 -2.71271 -0.111534 0
M  V30 1883 C 178.596 -2.61387 2.47396 0
M  V30 1884 C 178.204 -2.17094 3.91885 0
M  V30 1885 C 179.948 -3.38986 2.55517 0
M  V30 1886 C 177.855 -3.3094 4.90135 0
M  V30 1887 H 176.785 -0.542925 0.52321 0
M  V30 1888 H 179.436 -0.748054 1.6756 0
M  V30 1889 H 177.818 -3.33412 2.13664 0
M  V30 1890 H 178.992 -1.52318 4.34897 0
M  V30 1891 H 177.307 -1.52473 3.8748 0
M  V30 1892 H 179.904 -4.23747 3.26102 0
M  V30 1893 H 180.247 -3.84578 1.59391 0
M  V30 1894 H 180.78 -2.74021 2.8837 0
M  V30 1895 H 177.519 -2.90355 5.87685 0
M  V30 1896 H 177.039 -3.94546 4.51767 0
M  V30 1897 H 178.718 -3.9663 5.11169 0
M  V30 1898 N 178.85 -1.27639 -0.924453 0
M  V30 1899 C 180.078 -1.16989 -1.70649 0
M  V30 1900 C 180.493 0.272869 -1.86818 0
M  V30 1901 O 179.85 1.18549 -1.38753 0
M  V30 1902 C 179.901 -1.85229 -3.10439 0
M  V30 1903 O 179.622 -3.23868 -2.95028 0
M  V30 1904 C 181.123 -1.80746 -4.04779 0
M  V30 1905 H 178.343 -0.406595 -0.53378 0
M  V30 1906 H 180.887 -1.68569 -1.15778 0
M  V30 1907 H 179.042 -1.37545 -3.6216 0
M  V30 1908 H 179.456 -3.57889 -3.83426 0
M  V30 1909 H 180.93 -2.33101 -5.00368 0
M  V30 1910 H 181.407 -0.777499 -4.32263 0
M  V30 1911 H 182.013 -2.28059 -3.58984 0
M  V30 1912 N 180.328 1.1314 -1.09713 0
M  V30 1913 C 181.576 1.84119 -0.833338 0
M  V30 1914 C 181.897 1.84097 0.642904 0
M  V30 1915 O 181.167 1.29881 1.46655 0
M  V30 1916 H 179.747 0.681766 -0.305293 0
M  V30 1917 H 182.409 1.37038 -1.38588 0
M  V30 1918 H 181.505 2.88543 -1.18951 0
M  V30 1919 N 181.806 0.884767 1.30421 0
M  V30 1920 C 183.052 0.513218 1.96819 0
M  V30 1921 C 183.407 -0.927347 1.68577 0
M  V30 1922 O 182.7 -1.64644 0.979941 0
M  V30 1923 C 182.894 0.724318 3.49983 0
M  V30 1924 C 182.723 2.18385 3.93113 0
M  V30 1925 C 181.493 2.82839 4.18725 0
M  V30 1926 C 183.691 3.15763 4.05953 0
M  V30 1927 N 181.673 4.1939 4.48314 0
M  V30 1928 C 183.044 4.37387 4.39423 0
M  V30 1929 C 185.099 3.11555 3.88379 0
M  V30 1930 C 183.802 5.55343 4.5715 0
M  V30 1931 C 185.828 4.28782 4.07308 0
M  V30 1932 C 185.19 5.49172 4.41123 0
M  V30 1933 H 181.289 0.237123 0.745182 0
M  V30 1934 H 183.873 1.14246 1.57658 0
M  V30 1935 H 182.044 0.124565 3.882 0
M  V30 1936 H 183.776 0.31969 4.03435 0
M  V30 1937 H 180.531 2.33708 4.11919 0
M  V30 1938 H 180.955 4.89911 4.67243 0
M  V30 1939 H 185.597 2.19576 3.61312 0
M  V30 1940 H 183.315 6.47826 4.8306 0
M  V30 1941 H 186.901 4.26995 3.95179 0
M  V30 1942 H 185.781 6.38371 4.55469 0
M  V30 1943 N 183.284 -1.43765 0.645699 0
M  V30 1944 C 184.532 -2.01499 0.155731 0
M  V30 1945 C 184.853 -1.51151 -1.232 0
M  V30 1946 O 184.123 -0.721044 -1.82148 0
M  V30 1947 H 182.703 -0.745003 0.0545817 0
M  V30 1948 H 185.365 -1.76075 0.835677 0
M  V30 1949 H 184.461 -3.1181 0.134577 0
M  V30 1950 N 184.763 -0.387143 -1.52771 0
M  V30 1951 C 185.673 0.456442 -2.30117 0
M  V30 1952 C 186.689 1.07342 -1.36944 0
M  V30 1953 O 187.865 1.07971 -1.70013 0
M  V30 1954 C 184.93 1.56957 -3.09136 0
M  V30 1955 C 183.991 0.977916 -4.18014 0
M  V30 1956 C 183.224 2.038 -4.93256 0
M  V30 1957 O 183.447 3.25271 -4.68567 0
M  V30 1958 O 182.381 1.6565 -5.78657 0
M  V30 1959 H 186.207 -0.17359 -3.03203 0
M  V30 1960 H 183.792 -0.150919 -1.48636 0
M  V30 1961 H 185.674 2.21628 -3.58412 0
M  V30 1962 H 184.349 2.18461 -2.38865 0
M  V30 1963 H 183.256 0.294525 -3.72939 0
M  V30 1964 H 184.589 0.407128 -4.90513 0
M  V30 1965 N 186.241 1.57166 -0.116904 0
M  V30 1966 C 187.469 1.99473 0.549383 0
M  V30 1967 C 187.884 0.996541 1.60357 0
M  V30 1968 O 187.241 -0.0108731 1.82497 0
M  V30 1969 C 187.292 3.41788 1.17741 0
M  V30 1970 O 187.013 4.37788 0.165362 0
M  V30 1971 C 188.514 3.99216 1.92722 0
M  V30 1972 H 185.734 0.655009 0.145616 0
M  V30 1973 H 188.278 2.03494 -0.202625 0
M  V30 1974 H 186.433 3.38713 1.88021 0
M  V30 1975 H 186.847 5.20806 0.621403 0
M  V30 1976 H 188.321 5.00882 2.31995 0
M  V30 1977 H 188.798 3.3824 2.80161 0
M  V30 1978 H 189.404 4.0583 1.27209 0
M  V30 1979 N 187.719 -0.156864 1.56817 0
M  V30 1980 C 188.651 -1.21883 1.94106 0
M  V30 1981 C 189.664 -1.3971 0.835754 0
M  V30 1982 O 190.853 -1.39457 1.11418 0
M  V30 1983 C 187.953 -2.58527 2.19127 0
M  V30 1984 C 187.126 -2.61809 3.50393 0
M  V30 1985 C 186.185 -3.7992 3.64071 0
M  V30 1986 O 185.211 -3.65249 4.36557 0
M  V30 1987 N 186.413 -4.96973 2.99997 0
M  V30 1988 H 189.178 -0.901974 2.85805 0
M  V30 1989 H 186.739 -0.346513 1.58148 0
M  V30 1990 H 188.731 -3.36034 2.25529 0
M  V30 1991 H 187.301 -2.82545 1.33742 0
M  V30 1992 H 186.521 -1.7029 3.5552 0
M  V30 1993 H 187.809 -2.61024 4.36742 0
M  V30 1994 H 187.207 -5.11794 2.41004 0
M  V30 1995 H 185.764 -5.7229 3.11974 0
M  V30 1996 N 189.197 -1.51736 -0.425897 0
M  V30 1997 C 190.445 -1.64644 -1.17204 0
M  V30 1998 C 190.766 -0.370486 -1.91448 0
M  V30 1999 O 190.036 0.614088 -1.86026 0
M  V30 2000 H 188.616 -0.606819 -0.435638 0
M  V30 2001 H 191.278 -1.88713 -0.487177 0
M  V30 2002 H 190.374 -2.47958 -1.89534 0
M  V30 2003 N 190.675 0.682077 -1.42076 0
M  V30 2004 C 191.903 1.47057 -1.4554 0
M  V30 2005 C 192.318 1.8869 -0.0645779 0
M  V30 2006 O 191.675 1.57666 0.919115 0
M  V30 2007 C 191.726 2.72442 -2.37609 0
M  V30 2008 O 191.447 2.32559 -3.71279 0
M  V30 2009 C 192.948 3.66069 -2.50017 0
M  V30 2010 H 190.168 0.452737 -0.495248 0
M  V30 2011 H 192.712 0.838695 -1.8651 0
M  V30 2012 H 190.867 3.31835 -1.9991 0
M  V30 2013 H 191.281 3.13475 -4.20516 0
M  V30 2014 H 192.755 4.50792 -3.18576 0
M  V30 2015 H 193.232 4.11476 -1.53572 0
M  V30 2016 H 193.838 3.12572 -2.88407 0
M  V30 2017 N 192.153 1.28127 0.917671 0
M  V30 2018 C 193.4 1.15052 1.66641 0
M  V30 2019 C 193.728 -0.301677 1.92146 0
M  V30 2020 O 192.983 -1.23622 1.51711 0
M  V30 2021 C 193.282 1.89018 3.03327 0
M  V30 2022 C 192.948 3.38832 2.97496 0
M  V30 2023 C 191.61 3.79693 2.95613 0
M  V30 2024 C 193.962 4.34378 2.88036 0
M  V30 2025 C 191.29 5.14447 2.82066 0
M  V30 2026 C 193.642 5.69201 2.7603 0
M  V30 2027 C 192.306 6.09343 2.72502 0
M  V30 2028 H 191.576 0.421006 0.609783 0
M  V30 2029 H 194.223 1.58855 1.06945 0
M  V30 2030 H 192.528 1.37752 3.66785 0
M  V30 2031 H 194.225 1.76321 3.60156 0
M  V30 2032 H 190.815 3.06342 2.99754 0
M  V30 2033 H 194.999 4.03775 2.88581 0
M  V30 2034 H 190.255 5.44681 2.77728 0
M  V30 2035 H 194.429 6.42901 2.67678 0
M  V30 2036 H 192.056 7.13712 2.61762 0
M  V30 2037 N 193.631 -1.12557 1.10312 0
M  V30 2038 C 194.879 -1.83675 0.843091 0
M  V30 2039 C 195.2 -1.84435 -0.633131 0
M  V30 2040 O 194.47 -1.30657 -1.45964 0
M  V30 2041 H 193.05 -0.680138 0.308904 0
M  V30 2042 H 195.712 -1.36301 1.39313 0
M  V30 2043 H 194.808 -2.87908 1.2048 0
M  V30 2044 N 195.109 -0.891671 -1.2995 0
M  V30 2045 C 196.072 -0.36828 -2.26222 0
M  V30 2046 C 197.072 0.493014 -1.53056 0
M  V30 2047 O 198.262 0.299213 -1.71611 0
M  V30 2048 C 195.394 0.47442 -3.37583 0
M  V30 2049 H 196.587 -1.21844 -2.74033 0
M  V30 2050 H 194.14 -0.669107 -1.41254 0
M  V30 2051 H 194.875 1.34489 -2.95099 0
M  V30 2052 H 194.66 -0.142615 -3.91841 0
M  V30 2053 H 196.15 0.83218 -4.09224 0
M  V30 2054 N 196.587 1.43421 -0.653314 0
M  V30 2055 C 197.835 2.01414 -0.166415 0
M  V30 2056 C 198.156 1.51803 1.22397 0
M  V30 2057 O 197.426 0.730693 1.81763 0
M  V30 2058 H 196.006 0.744703 -0.0585319 0
M  V30 2059 H 198.668 1.75629 -0.845003 0
M  V30 2060 H 197.764 3.11734 -0.151111 0
M  V30 2061 N 198.065 0.39524 1.52563 0
M  V30 2062 C 198.995 -0.428384 2.29537 0
M  V30 2063 C 199.976 -1.05831 1.33169 0
M  V30 2064 O 201.161 -1.06995 1.62067 0
M  V30 2065 C 198.291 -1.55274 3.10656 0
M  V30 2066 C 197.245 -1.04855 4.14957 0
M  V30 2067 C 196.571 -2.26543 4.84337 0
M  V30 2068 C 197.871 -0.112324 5.22179 0
M  V30 2069 H 199.565 0.213867 2.98635 0
M  V30 2070 H 197.111 0.104298 1.43622 0
M  V30 2071 H 199.064 -2.1358 3.63265 0
M  V30 2072 H 197.788 -2.22266 2.39302 0
M  V30 2073 H 196.447 -0.487985 3.63338 0
M  V30 2074 H 196.095 -2.92059 4.09525 0
M  V30 2075 H 195.795 -1.93466 5.54837 0
M  V30 2076 H 197.319 -2.85481 5.39753 0
M  V30 2077 H 198.733 -0.603752 5.70112 0
M  V30 2078 H 197.13 0.128968 5.99961 0
M  V30 2079 H 198.2 0.837052 4.77621 0
M  V30 2080 N 199.544 -1.57102 0.125237 0
M  V30 2081 C 200.474 -2.18659 -0.819174 0
M  V30 2082 C 201.455 -1.12843 -1.27281 0
M  V30 2083 O 202.64 -1.41104 -1.33429 0
M  V30 2084 C 199.77 -2.79096 -2.06695 0
M  V30 2085 C 198.724 -3.90548 -1.75088 0
M  V30 2086 C 198.05 -4.37821 -3.06948 0
M  V30 2087 C 199.35 -5.12356 -1.01435 0
M  V30 2088 H 201.044 -2.9783 -0.306202 0
M  V30 2089 H 198.59 -1.4326 -0.145839 0
M  V30 2090 H 200.543 -3.2082 -2.73226 0
M  V30 2091 H 199.267 -1.97223 -2.60328 0
M  V30 2092 H 197.926 -3.49409 -1.10944 0
M  V30 2093 H 197.574 -3.52799 -3.58527 0
M  V30 2094 H 197.274 -5.12982 -2.86571 0
M  V30 2095 H 198.798 -4.822 -3.74587 0
M  V30 2096 H 200.212 -5.5106 -1.58132 0
M  V30 2097 H 198.609 -5.9314 -0.911319 0
M  V30 2098 H 199.679 -4.849 -0.00218681 0
M  V30 2099 N 201.022 0.148545 -1.56898 0
M  V30 2100 C 201.969 1.18345 -1.98149 0
M  V30 2101 C 202.939 1.42772 -0.848848 0
M  V30 2102 O 204.124 1.55132 -1.11079 0
M  V30 2103 C 201.264 2.51231 -2.36594 0
M  V30 2104 C 200.377 2.33991 -3.63142 0
M  V30 2105 C 199.512 3.59902 -3.90697 0
M  V30 2106 C 198.551 3.37692 -5.1052 0
M  V30 2107 N 197.688 4.5573 -5.34092 0
M  V30 2108 H 202.528 0.82467 -2.86362 0
M  V30 2109 H 200.065 0.395756 -1.41676 0
M  V30 2110 H 202.023 3.28713 -2.56912 0
M  V30 2111 H 200.653 2.85059 -1.51463 0
M  V30 2112 H 199.705 1.47572 -3.50609 0
M  V30 2113 H 201.017 2.13539 -4.5078 0
M  V30 2114 H 200.171 4.45813 -4.11505 0
M  V30 2115 H 198.91 3.83357 -3.01477 0
M  V30 2116 H 197.915 2.5017 -4.89587 0
M  V30 2117 H 199.14 3.15637 -6.0129 0
M  V30 2118 H 197.086 4.79361 -4.47827 0
M  V30 2119 H 197.003 4.38274 -6.15996 0
M  V30 2120 H 198.271 5.42858 -5.59397 0
M  V30 2121 N 202.5 1.5196 0.417844 0
M  V30 2122 C 203.41 1.77554 1.53336 0
M  V30 2123 C 204.426 0.660655 1.6097 0
M  V30 2124 O 205.602 0.945099 1.77848 0
M  V30 2125 C 202.667 1.91291 2.89152 0
M  V30 2126 C 201.728 3.15183 2.91475 0
M  V30 2127 C 200.961 3.28256 4.20813 0
M  V30 2128 O 201.184 2.46798 5.14244 0
M  V30 2129 O 200.118 4.21356 4.29817 0
M  V30 2130 H 203.944 2.7222 1.34647 0
M  V30 2131 H 201.529 1.36698 0.602828 0
M  V30 2132 H 203.411 2.02199 3.69721 0
M  V30 2133 H 202.086 0.998129 3.07927 0
M  V30 2134 H 200.993 3.09739 2.09791 0
M  V30 2135 H 202.326 4.06414 2.77648 0
M  V30 2136 N 203.978 -0.674533 1.42435 0
M  V30 2137 C 204.941 -1.76986 1.45632 0
M  V30 2138 C 205.941 -1.5708 0.343871 0
M  V30 2139 O 207.131 -1.63367 0.604709 0
M  V30 2140 C 204.263 -3.15623 1.28822 0
M  V30 2141 H 205.456 -1.75539 2.43158 0
M  V30 2142 H 203.009 -0.884189 1.28887 0
M  V30 2143 H 203.744 -3.22696 0.322193 0
M  V30 2144 H 203.529 -3.31475 2.09444 0
M  V30 2145 H 205.019 -3.95537 1.33942 0
M  V30 2146 N 205.456 -1.28612 -0.910864 0
M  V30 2147 C 206.388 -1.08589 -2.01844 0
M  V30 2148 C 207.401 -0.0367419 -1.62759 0
M  V30 2149 O 208.59 -0.280101 -1.76289 0
M  V30 2150 C 205.69 -0.628626 -3.33019 0
M  V30 2151 C 204.863 -1.75382 -4.00699 0
M  V30 2152 C 203.922 -1.28945 -5.10156 0
M  V30 2153 O 202.948 -1.9922 -5.33198 0
M  V30 2154 N 204.15 -0.154224 -5.80295 0
M  V30 2155 H 206.915 -2.03973 -2.19579 0
M  V30 2156 H 204.476 -1.20403 -1.08234 0
M  V30 2157 H 206.468 -0.301508 -4.03575 0
M  V30 2158 H 205.038 0.232451 -3.11735 0
M  V30 2159 H 204.258 -2.25039 -3.23653 0
M  V30 2160 H 205.546 -2.50854 -4.42662 0
M  V30 2161 H 204.944 0.43194 -5.64049 0
M  V30 2162 H 203.501 0.113599 -6.51701 0
M  V30 2163 N 206.934 1.1197 -1.10907 0
M  V30 2164 C 207.864 2.19928 -0.784473 0
M  V30 2165 C 208.845 1.6833 0.244726 0
M  V30 2166 O 210.03 1.93892 0.109418 0
M  V30 2167 C 207.16 3.46597 -0.220827 0
M  V30 2168 C 206.114 4.11376 -1.18127 0
M  V30 2169 C 205.44 5.32554 -0.478594 0
M  V30 2170 C 206.74 4.56945 -2.52979 0
M  V30 2171 H 208.434 2.47337 -1.68715 0
M  V30 2172 H 205.98 1.18879 -0.812642 0
M  V30 2173 H 207.933 4.21396 0.0184278 0
M  V30 2174 H 206.657 3.1863 0.717113 0
M  V30 2175 H 205.316 3.38564 -1.40606 0
M  V30 2176 H 204.964 5.00856 0.463976 0
M  V30 2177 H 204.664 5.76844 -1.11912 0
M  V30 2178 H 206.188 6.10096 -0.248 0
M  V30 2179 H 207.602 5.23093 -2.3462 0
M  V30 2180 H 205.999 5.1203 -3.12962 0
M  V30 2181 H 207.069 3.70676 -3.12614 0
M  V30 2182 N 208.412 0.89855 1.29475 0
M  V30 2183 C 209.823 0.572537 1.77705 0
M  V30 2184 C 210.174 -0.911778 1.73727 0
M  V30 2185 O 209.299 -1.71288 1.32247 0
M  V30 2186 C 209.894 1.03252 3.22683 0
M  V30 2187 C 208.453 0.757687 3.68695 0
M  V30 2188 C 207.6 1.20787 2.49612 0
M  V30 2189 H 210.551 1.08139 1.16153 0
M  V30 2190 H 210.572 0.367307 3.78723 0
M  V30 2191 H 210.084 2.11285 3.25546 0
M  V30 2192 H 208.185 -0.310079 3.71308 0
M  V30 2193 H 208.298 1.35476 4.59547 0
M  V30 2194 H 206.662 0.626888 2.46865 0
M  V30 2195 H 207.445 2.29622 2.55203 0
M  V30 2196 N 209.89 -1.43072 0.660911 0
M  V30 2197 C 211.136 -2.0202 0.177708 0
M  V30 2198 C 211.469 -1.52066 -1.20787 0
M  V30 2199 O 210.744 -0.716987 -1.80802 0
M  V30 2200 C 211.027 -3.59561 0.197019 0
M  V30 2201 C 210.88 -4.19727 1.61706 0
M  V30 2202 C 212.199 -4.37664 -0.462396 0
M  V30 2203 H 209.318 -0.734034 0.0660494 0
M  V30 2204 H 211.96 -1.70272 0.843058 0
M  V30 2205 H 210.11 -3.86739 -0.369527 0
M  V30 2206 H 211.782 -4.03553 2.23479 0
M  V30 2207 H 210.025 -3.76084 2.16201 0
M  V30 2208 H 210.696 -5.28834 1.58237 0
M  V30 2209 H 213.172 -4.16095 0.0197215 0
M  V30 2210 H 212.048 -5.47305 -0.418188 0
M  V30 2211 H 212.309 -4.14493 -1.53778 0
M  V30 2212 N 211.368 -0.403325 -1.52352 0
M  V30 2213 C 212.617 0.175668 -2.00934 0
M  V30 2214 C 212.93 1.46718 -1.29356 0
M  V30 2215 O 214.136 2.12708 -1.68724 0
M  V30 2216 C 212.592 0.363612 -3.58058 0
M  V30 2217 C 212.2 -0.915472 -4.38547 0
M  V30 2218 C 213.944 0.89821 -4.14888 0
M  V30 2219 C 211.851 -0.695035 -5.87302 0
M  V30 2220 H 210.781 0.0694234 -0.750797 0
M  V30 2221 H 213.432 -0.527879 -1.75743 0
M  V30 2222 H 211.814 1.12935 -3.79555 0
M  V30 2223 H 212.988 -1.68691 -4.28812 0
M  V30 2224 H 211.303 -1.37606 -3.93006 0
M  V30 2225 H 213.9 1.07907 -5.23699 0
M  V30 2226 H 214.243 1.87126 -3.71873 0
M  V30 2227 H 214.776 0.191681 -3.97338 0
M  V30 2228 H 211.515 -1.63948 -6.34666 0
M  V30 2229 H 211.035 0.0372116 -5.99788 0
M  V30 2230 H 212.714 -0.33497 -6.46132 0
M  V30 2231 N 212.846 1.57033 -0.133567 0
M  V30 2232 C 213.756 2.19632 0.824564 0
M  V30 2233 C 214.772 1.17666 1.28182 0
M  V30 2234 O 215.948 1.50193 1.3418 0
M  V30 2235 C 213.013 2.79499 2.05137 0
M  V30 2236 C 212.074 3.96548 1.64464 0
M  V30 2237 C 211.307 4.5355 2.81297 0
M  V30 2238 O 211.53 4.09438 3.97136 0
M  V30 2239 O 210.464 5.44018 2.57542 0
M  V30 2240 H 214.29 3.01991 0.321766 0
M  V30 2241 H 211.875 1.49112 0.0927889 0
M  V30 2242 H 213.757 3.17602 2.7696 0
M  V30 2243 H 212.432 2.00162 2.54395 0
M  V30 2244 H 211.339 3.63186 0.897048 0
M  V30 2245 H 212.672 4.77364 1.19934 0
M  V30 2246 N 214.325 -0.140222 1.56975 0
M  V30 2247 C 215.273 -1.19207 1.99731 0
M  V30 2248 C 216.267 -1.44089 0.890777 0
M  V30 2249 O 217.473 -1.44301 1.07597 0
M  V30 2250 H 213.848 -0.40142 0.635898 0
M  V30 2251 H 215.819 -0.804813 2.87342 0
M  V30 2252 C 214.568 -2.51617 2.39967 0
M  V30 2253 H 213.891 -2.33303 3.24669 0
M  V30 2254 H 215.331 -3.23827 2.73701 0
M  V30 2255 C 213.79 -3.12654 1.25496 0
M  V30 2256 O 214.32 -3.97786 0.559371 0
M  V30 2257 N 212.526 -2.72206 1.01746 0
M  V30 2258 H 212.073 -2.03074 1.58489 0
M  V30 2259 H 212.031 -3.13377 0.253461 0
M  V30 2260 N 215.803 -1.52179 -0.40978 0
M  V30 2261 C 216.75 -1.75475 -1.49924 0
M  V30 2262 C 217.72 -0.597175 -1.54994 0
M  V30 2263 O 218.905 -0.834655 -1.71575 0
M  V30 2264 C 216.045 -1.9107 -2.87378 0
M  V30 2265 C 215.158 -3.18717 -2.91622 0
M  V30 2266 C 214.293 -3.24747 -4.20372 0
M  V30 2267 C 213.332 -4.46598 -4.18588 0
M  V30 2268 N 212.469 -4.50025 -5.38908 0
M  V30 2269 H 217.309 -2.68458 -1.29361 0
M  V30 2270 H 214.846 -1.33024 -0.627934 0
M  V30 2271 H 216.804 -1.98096 -3.6717 0
M  V30 2272 H 215.434 -1.01469 -3.06437 0
M  V30 2273 H 214.486 -3.20866 -2.04326 0
M  V30 2274 H 215.798 -4.08544 -2.86169 0
M  V30 2275 H 214.952 -3.30841 -5.08556 0
M  V30 2276 H 213.691 -2.32857 -4.28519 0
M  V30 2277 H 212.696 -4.40652 -3.28794 0
M  V30 2278 H 213.921 -5.39783 -4.12081 0
M  V30 2279 H 211.867 -3.61017 -5.47725 0
M  V30 2280 H 211.784 -5.33697 -5.35447 0
M  V30 2281 H 213.052 -4.60347 -6.29048 0
M  V30 2282 N 217.281 0.66697 -1.42791 0
M  V30 2283 C 218.527 1.4291 -1.43891 0
M  V30 2284 C 218.86 1.94114 -0.0578972 0
M  V30 2285 O 218.135 1.71414 0.91911 0
M  V30 2286 C 218.418 2.62049 -2.46987 0
M  V30 2287 C 218.271 2.16426 -3.94309 0
M  V30 2288 C 219.59 3.64266 -2.46978 0
M  V30 2289 H 216.709 0.518306 -0.523954 0
M  V30 2290 H 219.351 0.757321 -1.74255 0
M  V30 2291 H 217.501 3.19361 -2.21225 0
M  V30 2292 H 219.173 1.64221 -4.31079 0
M  V30 2293 H 217.416 1.47925 -4.078 0
M  V30 2294 H 218.087 3.02038 -4.62036 0
M  V30 2295 H 220.563 3.16686 -2.69906 0
M  V30 2296 H 219.439 4.45196 -3.21079 0
M  V30 2297 H 219.7 4.15927 -1.49857 0
M  V30 2298 N 218.759 1.29093 0.90403 0
M  V30 2299 C 219.999 1.18076 1.66845 0
M  V30 2300 C 220.363 -0.26436 1.90171 0
M  V30 2301 O 221.564 -0.497423 2.64157 0
M  V30 2302 C 219.835 1.96722 2.98388 0
M  V30 2303 S 221.394 2.0219 3.89441 0
M  V30 2304 H 218.212 0.421104 0.572881 0
M  V30 2305 H 220.814 1.63322 1.07453 0
M  V30 2306 H 219.518 3.00866 2.7912 0
M  V30 2307 H 219.049 1.52064 3.62823 0
M  V30 2308 H 221.064 1.13545 4.83034 0
M  V30 2309 N 220.237 -1.11381 1.11499 0
M  V30 2310 C 221.185 -2.19522 0.768956 0
M  V30 2311 C 222.179 -1.67693 -0.239857 0
M  V30 2312 O 223.385 -1.79727 -0.0990755 0
M  V30 2313 H 219.76 -0.715711 0.230786 0
M  V30 2314 H 221.731 -2.45954 1.68964 0
M  V30 2315 C 220.48 -3.46945 0.229073 0
M  V30 2316 H 219.803 -3.8718 0.996596 0
M  V30 2317 H 221.243 -4.23993 0.0251441 0
M  V30 2318 C 219.702 -3.2042 -1.04079 0
M  V30 2319 O 220.232 -3.41178 -2.12038 0
M  V30 2320 N 218.438 -2.74151 -0.963823 0
M  V30 2321 H 217.985 -2.57459 -0.0851722 0
M  V30 2322 H 217.943 -2.56781 -1.81414 0
M  V30 2323 N 221.715 -0.905404 -1.28997 0
M  V30 2324 C 223.131 -0.60233 -1.47798 0
M  V30 2325 C 223.331 0.854645 -1.82478 0
M  V30 2326 O 222.387 1.63439 -1.92468 0
M  V30 2327 C 223.7 -1.53306 -2.58685 0
M  V30 2328 C 225.248 -1.53887 -2.72558 0
M  V30 2329 C 225.723 -2.45602 -3.86579 0
M  V30 2330 N 227.214 -2.43681 -3.93921 0
M  V30 2331 C 227.949 -3.11347 -4.81509 0
M  V30 2332 N 227.445 -3.88313 -5.73746 0
M  V30 2333 N 229.238 -3.00476 -4.75048 0
M  V30 2334 H 221.389 -1.84765 -1.04764 0
M  V30 2335 H 223.652 -0.792025 -0.520961 0
M  V30 2336 H 223.358 -2.57141 -2.39941 0
M  V30 2337 H 223.232 -1.25787 -3.55609 0
M  V30 2338 H 225.619 -0.507941 -2.90696 0
M  V30 2339 H 225.7 -1.85447 -1.76191 0
M  V30 2340 H 225.344 -3.48792 -3.69197 0
M  V30 2341 H 225.274 -2.11349 -4.82327 0
M  V30 2342 H 227.765 -1.87767 -3.27951 0
M  V30 2343 H 228.078 -4.36985 -6.37389 0
M  V30 2344 H 226.423 -3.92419 -5.73614 0
M  V30 2345 H 229.614 -2.39858 -4.01977 0
M  V30 2346 H 229.787 -3.53485 -5.43095 0
M  V30 2347 N 223.193 1.4272 -0.668489 0
M  V30 2348 C 224.423 2.05668 -0.196063 0
M  V30 2349 C 224.831 1.5028 1.14946 0
M  V30 2350 O 224.174 0.6348 1.72383 0
M  V30 2351 C 224.236 3.59469 -0.0468879 0
M  V30 2352 C 223.9 4.37518 -1.32012 0
M  V30 2353 C 224.897 4.68584 -2.25222 0
M  V30 2354 C 222.582 4.77266 -1.56596 0
M  V30 2355 C 224.576 5.38326 -3.41297 0
M  V30 2356 C 222.263 5.4675 -2.72962 0
M  V30 2357 C 223.261 5.77204 -3.65137 0
M  V30 2358 O 222.949 6.45264 -4.79468 0
M  V30 2359 H 222.681 0.669382 -0.0943599 0
M  V30 2360 H 225.235 1.83954 -0.913788 0
M  V30 2361 H 223.465 3.79817 0.726357 0
M  V30 2362 H 225.154 4.04071 0.384852 0
M  V30 2363 H 225.92 4.38382 -2.07477 0
M  V30 2364 H 221.799 4.52959 -0.857249 0
M  V30 2365 H 225.343 5.62014 -4.13263 0
M  V30 2366 H 221.24 5.76369 -2.90635 0
M  V30 2367 H 222.008 6.63753 -4.78931 0
M  V30 2368 N 224.671 0.411399 1.52136 0
M  V30 2369 C 225.581 -0.419774 2.30814 0
M  V30 2370 C 226.597 -1.0515 1.38634 0
M  V30 2371 O 227.773 -1.05252 1.71709 0
M  V30 2372 C 224.838 -1.52019 3.11594 0
M  V30 2373 C 223.899 -0.91129 4.19516 0
M  V30 2374 C 223.132 -1.95927 4.96436 0
M  V30 2375 O 223.355 -3.17775 4.73683 0
M  V30 2376 O 222.289 -1.56423 5.81219 0
M  V30 2377 H 226.115 0.221805 3.02889 0
M  V30 2378 H 223.7 0.174547 1.48377 0
M  V30 2379 H 225.582 -2.15898 3.61892 0
M  V30 2380 H 224.257 -2.14633 2.42311 0
M  V30 2381 H 223.164 -0.235157 3.7336 0
M  V30 2382 H 224.497 -0.32904 4.91099 0
M  V30 2383 N 226.149 -1.5696 0.141893 0
M  V30 2384 C 227.396 -1.9596 -0.510492 0
M  V30 2385 C 227.724 -1.02648 -1.65208 0
M  V30 2386 O 226.979 -0.0546947 -1.95624 0
M  V30 2387 C 227.278 -3.41242 -1.06249 0
M  V30 2388 C 226.944 -4.50882 -0.0398791 0
M  V30 2389 C 225.606 -4.80595 0.241247 0
M  V30 2390 C 227.958 -5.17058 0.65578 0
M  V30 2391 C 225.286 -5.73792 1.22393 0
M  V30 2392 C 227.638 -6.11313 1.62724 0
M  V30 2393 C 226.302 -6.39407 1.91612 0
M  V30 2394 H 225.572 -0.717068 -0.186802 0
M  V30 2395 H 228.219 -1.90142 0.227643 0
M  V30 2396 H 226.524 -3.43866 -1.87785 0
M  V30 2397 H 228.221 -3.68742 -1.57576 0
M  V30 2398 H 224.811 -4.27754 -0.269174 0
M  V30 2399 H 228.995 -4.94239 0.451779 0
M  V30 2400 H 224.251 -5.93853 1.45424 0
M  V30 2401 H 228.425 -6.61668 2.17183 0
M  V30 2402 H 226.052 -7.11427 2.6791 0
M  V30 2403 N 227.627 0.131896 -1.57047 0
M  V30 2404 C 228.557 1.16384 -2.02428 0
M  V30 2405 C 229.538 1.43936 -0.90644 0
M  V30 2406 O 230.723 1.54599 -1.17528 0
M  V30 2407 C 227.853 2.49328 -2.4177 0
M  V30 2408 C 226.807 2.36266 -3.56879 0
M  V30 2409 C 226.133 3.74057 -3.8208 0
M  V30 2410 C 227.433 1.834 -4.89042 0
M  V30 2411 H 229.127 0.786433 -2.88887 0
M  V30 2412 H 226.673 0.376855 -1.38981 0
M  V30 2413 H 228.626 3.21759 -2.7212 0
M  V30 2414 H 227.35 2.88934 -1.52266 0
M  V30 2415 H 226.009 1.66286 -3.26718 0
M  V30 2416 H 225.657 4.11125 -2.89803 0
M  V30 2417 H 225.357 3.66174 -4.59554 0
M  V30 2418 H 226.881 4.48012 -4.1487 0
M  V30 2419 H 228.295 2.45636 -5.18011 0
M  V30 2420 H 226.692 1.8637 -5.70426 0
M  V30 2421 H 227.762 0.790662 -4.7841 0
M  V30 2422 N 229.106 1.52395 0.401703 0
M  V30 2423 C 230.054 1.7689 1.51039 0
M  V30 2424 C 231.048 0.636298 1.56996 0
M  V30 2425 O 232.254 0.818507 1.60314 0
M  V30 2426 H 228.629 0.559502 0.502456 0
M  V30 2427 H 230.6 2.69757 1.27568 0
M  V30 2428 C 229.349 1.94331 2.88324 0
M  V30 2429 H 228.672 2.80905 2.84486 0
M  V30 2430 H 230.112 2.15466 3.65172 0
M  V30 2431 C 228.571 0.712396 3.29282 0
M  V30 2432 O 229.101 -0.116218 4.01532 0
M  V30 2433 N 227.307 0.546154 2.85422 0
M  V30 2434 H 226.854 1.22156 2.26794 0
M  V30 2435 H 226.812 -0.276113 3.13185 0
M  V30 2436 N 230.584 -0.659388 1.43143 0
M  V30 2437 C 231.832 -1.41654 1.44147 0
M  V30 2438 C 232.153 -1.94893 0.0645739 0
M  V30 2439 O 231.423 -1.74044 -0.899198 0
M  V30 2440 H 230.003 -0.525708 0.530697 0
M  V30 2441 H 232.665 -0.778097 1.78694 0
M  V30 2442 H 231.761 -2.26195 2.1504 0
M  V30 2443 N 232.062 -1.29571 -0.897171 0
M  V30 2444 C 233.478 -1.07637 -1.17841 0
M  V30 2445 C 233.678 0.170713 -2.00776 0
M  V30 2446 O 232.734 0.867768 -2.3712 0
M  V30 2447 C 234.047 -2.3332 -1.8969 0
M  V30 2448 C 235.595 -2.38664 -2.02505 0
M  V30 2449 C 236.07 -3.64157 -2.77765 0
M  V30 2450 N 237.561 -3.64894 -2.85318 0
M  V30 2451 C 238.296 -4.58679 -3.44094 0
M  V30 2452 N 237.792 -5.62799 -4.04017 0
M  V30 2453 N 239.585 -4.46245 -3.41793 0
M  V30 2454 H 231.736 -2.09598 -0.343883 0
M  V30 2455 H 233.999 -0.923333 -0.214848 0
M  V30 2456 H 233.705 -3.24262 -1.36187 0
M  V30 2457 H 233.579 -2.41025 -2.9015 0
M  V30 2458 H 235.966 -1.48208 -2.55183 0
M  V30 2459 H 236.047 -2.34943 -1.01171 0
M  V30 2460 H 235.691 -4.54965 -2.25763 0
M  V30 2461 H 235.621 -3.65137 -3.7945 0
M  V30 2462 H 238.112 -2.89613 -2.42761 0
M  V30 2463 H 238.425 -6.3048 -4.46895 0
M  V30 2464 H 236.77 -5.66605 -4.02472 0
M  V30 2465 H 239.961 -3.64094 -2.94199 0
M  V30 2466 H 240.134 -5.19518 -3.87304 0
M  V30 2467 N 233.54 1.10788 -1.12088 0
M  V30 2468 C 234.786 1.82942 -0.875226 0
M  V30 2469 C 235.119 1.84779 0.597538 0
M  V30 2470 O 234.394 1.30578 1.44152 0
M  V30 2471 C 234.677 3.29789 -1.44606 0
M  V30 2472 C 234.53 3.36307 -2.98693 0
M  V30 2473 C 235.849 4.26064 -1.10261 0
M  V30 2474 H 232.968 0.664195 -0.319397 0
M  V30 2475 H 235.61 1.29867 -1.38689 0
M  V30 2476 H 233.76 3.75118 -1.01089 0
M  V30 2477 H 235.432 2.99487 -3.50864 0
M  V30 2478 H 233.675 2.76318 -3.34411 0
M  V30 2479 H 234.346 4.39694 -3.33726 0
M  V30 2480 H 236.822 3.88951 -1.4784 0
M  V30 2481 H 235.698 5.27183 -1.52869 0
M  V30 2482 H 235.959 4.42098 -0.0142953 0
M  V30 2483 N 235.018 0.912232 1.28515 0
M  V30 2484 C 235.95 0.35676 2.26406 0
M  V30 2485 C 236.963 -0.503933 1.54804 0
M  V30 2486 O 238.152 -0.319059 1.75625 0
M  V30 2487 C 235.252 -0.508825 3.35058 0
M  V30 2488 C 234.425 0.329007 4.36161 0
M  V30 2489 C 233.484 -0.471422 5.24084 0
M  V30 2490 O 232.51 0.115482 5.69083 0
M  V30 2491 N 233.712 -1.77479 5.52704 0
M  V30 2492 H 236.477 1.19818 2.74707 0
M  V30 2493 H 234.038 0.778022 1.4198 0
M  V30 2494 H 236.03 -1.051 3.90815 0
M  V30 2495 H 234.6 -1.25095 2.86478 0
M  V30 2496 H 233.82 1.05256 3.79888 0
M  V30 2497 H 235.108 0.90234 5.00735 0
M  V30 2498 H 234.506 -2.27417 5.17975 0
M  V30 2499 H 233.063 -2.26382 6.11224 0
M  V30 2500 N 236.496 -1.42363 0.676048 0
M  V30 2501 C 237.721 -2.06377 0.205705 0
M  V30 2502 C 238.146 -1.50463 -1.12883 0
M  V30 2503 O 237.504 -0.623619 -1.70237 0
M  V30 2504 C 237.552 -3.60277 0.152655 0
M  V30 2505 O 236.656 -4.02935 -0.87845 0
M  V30 2506 H 235.997 -0.655588 0.105359 0
M  V30 2507 H 238.527 -1.82475 0.925412 0
M  V30 2508 H 238.537 -4.07993 -0.0230675 0
M  V30 2509 H 237.212 -4.00346 1.12675 0
M  V30 2510 H 235.789 -3.66764 -0.673668 0
M  V30 2511 N 237.974 -0.419461 -1.51915 0
M  V30 2512 C 239.202 0.152136 -2.0634 0
M  V30 2513 C 239.617 1.37988 -1.28859 0
M  V30 2514 O 238.974 1.79243 -0.343232 0
M  V30 2515 C 239.025 0.492266 -3.58133 0
M  V30 2516 O 238.746 -0.686736 -4.32684 0
M  V30 2517 C 240.247 1.11648 -4.2901 0
M  V30 2518 H 237.467 0.0158325 -0.670813 0
M  V30 2519 H 240.011 -0.593394 -1.95702 0
M  V30 2520 H 238.166 1.18769 -3.68745 0
M  V30 2521 H 238.58 -0.400341 -5.2297 0
M  V30 2522 H 240.054 1.3046 -5.36362 0
M  V30 2523 H 240.531 2.09251 -3.86148 0
M  V30 2524 H 241.137 0.460958 -4.22795 0
M  V30 2525 N 239.452 1.56882 -0.150215 0
M  V30 2526 C 240.362 2.20494 0.801222 0
M  V30 2527 C 241.378 1.19019 1.26927 0
M  V30 2528 O 242.554 1.51607 1.32579 0
M  V30 2529 C 239.619 2.81659 2.02161 0
M  V30 2530 C 238.68 3.9827 1.60249 0
M  V30 2531 C 237.913 4.56508 2.7647 0
M  V30 2532 O 238.136 4.13627 3.92771 0
M  V30 2533 O 237.07 5.46719 2.51757 0
M  V30 2534 H 240.896 3.02315 0.289717 0
M  V30 2535 H 238.481 1.49202 0.0769684 0
M  V30 2536 H 240.363 3.20522 2.73576 0
M  V30 2537 H 239.038 2.02849 2.52258 0
M  V30 2538 H 237.945 3.64117 0.858477 0
M  V30 2539 H 239.278 4.78609 1.14864 0
M  V30 2540 N 240.93 -0.123565 1.57115 0
M  V30 2541 C 241.86 -1.15309 2.03042 0
M  V30 2542 C 242.841 -1.43454 0.914061 0
M  V30 2543 O 244.026 -1.53973 1.18347 0
M  V30 2544 C 241.156 -2.48043 2.43089 0
M  V30 2545 C 240.11 -2.3437 3.58127 0
M  V30 2546 C 239.436 -3.72026 3.84059 0
M  V30 2547 C 240.736 -1.80804 4.90007 0
M  V30 2548 H 242.43 -0.771102 2.893 0
M  V30 2549 H 239.976 -0.369479 1.39179 0
M  V30 2550 H 241.929 -3.20311 2.73823 0
M  V30 2551 H 240.653 -2.88122 1.53796 0
M  V30 2552 H 239.312 -1.64551 3.27595 0
M  V30 2553 H 238.96 -4.09582 2.91979 0
M  V30 2554 H 238.66 -3.63732 4.6149 0
M  V30 2555 H 240.184 -4.45806 4.1724 0
M  V30 2556 H 241.598 -2.42886 5.19307 0
M  V30 2557 H 239.995 -1.83343 5.71407 0
M  V30 2558 H 241.065 -0.76528 4.78823 0
M  V30 2559 N 242.408 -1.52605 -0.393616 0
M  V30 2560 C 243.648 -1.6911 -1.1481 0
M  V30 2561 C 244.012 -0.41969 -1.87357 0
M  V30 2562 O 245.213 -0.461034 -2.64817 0
M  V30 2563 C 243.484 -2.88909 -2.10395 0
M  V30 2564 S 245.043 -3.25977 -2.93742 0
M  V30 2565 H 241.861 -0.595337 -0.38871 0
M  V30 2566 H 244.463 -1.90641 -0.433178 0
M  V30 2567 H 243.167 -3.79672 -1.55812 0
M  V30 2568 H 242.698 -2.69698 -2.86403 0
M  V30 2569 H 244.713 -2.75806 -4.12487 0
M  V30 2570 N 243.887 0.651787 -1.4349 0
M  V30 2571 C 244.85 1.74647 -1.48429 0
M  V30 2572 C 245.85 1.56513 -0.368817 0
M  V30 2573 O 247.04 1.62385 -0.630623 0
M  V30 2574 C 244.172 3.13533 -1.33827 0
M  V30 2575 H 245.365 1.71649 -2.4592 0
M  V30 2576 H 242.918 0.863573 -1.30277 0
M  V30 2577 H 243.653 3.22142 -0.37349 0
M  V30 2578 H 243.438 3.28101 -2.14691 0
M  V30 2579 H 244.928 3.93356 -1.40218 0
M  V30 2580 N 245.365 1.30045 0.890287 0
M  V30 2581 C 246.613 1.18327 1.63839 0
M  V30 2582 C 246.934 -0.263455 1.93212 0
M  V30 2583 O 246.204 -1.17856 1.56482 0
M  V30 2584 H 244.784 0.434933 0.607324 0
M  V30 2585 H 247.446 1.631 1.06698 0
M  V30 2586 H 246.542 1.74024 2.59079 0
M  V30 2587 N 246.843 -1.10192 1.12674 0
M  V30 2588 C 247.793 -2.14754 0.765801 0
M  V30 2589 C 248.777 -1.59154 -0.236409 0
M  V30 2590 O 249.969 -1.76951 -0.0415261 0
M  V30 2591 C 247.098 -3.42563 0.224827 0
M  V30 2592 C 246.184 -4.05091 1.25548 0
M  V30 2593 N 246.575 -4.42287 2.4539 0
M  V30 2594 C 244.873 -4.32186 1.10142 0
M  V30 2595 C 245.574 -4.91441 3.11224 0
M  V30 2596 N 244.55 -4.88405 2.38666 0
M  V30 2597 H 248.352 -2.41309 1.67772 0
M  V30 2598 H 245.866 -1.27339 1.00789 0
M  V30 2599 H 247.863 -4.16868 -0.0519578 0
M  V30 2600 H 246.523 -3.17467 -0.681515 0
M  V30 2601 H 247.534 -4.33902 2.82754 0
M  V30 2602 H 244.211 -4.16735 0.252587 0
M  V30 2603 H 245.601 -5.29749 4.13298 0
M  V30 2604 N 248.321 -0.919034 -1.28029 0
M  V30 2605 C 249.251 -0.428581 -2.29533 0
M  V30 2606 C 250.232 0.50659 -1.62381 0
M  V30 2607 O 251.417 0.413195 -1.89753 0
M  V30 2608 C 248.547 0.327388 -3.45753 0
M  V30 2609 C 247.501 -0.519137 -4.2484 0
M  V30 2610 C 246.827 0.365486 -5.33449 0
M  V30 2611 C 248.127 -1.77914 -4.91064 0
M  V30 2612 H 249.821 -1.27687 -2.70807 0
M  V30 2613 H 247.367 -0.615428 -1.30186 0
M  V30 2614 H 249.32 0.681378 -4.15855 0
M  V30 2615 H 248.044 1.20963 -3.03374 0
M  V30 2616 H 246.703 -0.855717 -3.56473 0
M  V30 2617 H 246.351 1.24642 -4.87312 0
M  V30 2618 H 246.051 -0.197356 -5.87268 0
M  V30 2619 H 247.575 0.715241 -6.06396 0
M  V30 2620 H 248.989 -1.49374 -5.53498 0
M  V30 2621 H 247.386 -2.2848 -5.54903 0
M  V30 2622 H 248.456 -2.50382 -4.15255 0
M  V30 2623 N 249.799 1.42003 -0.683588 0
M  V30 2624 C 250.762 2.29191 -0.0198243 0
M  V30 2625 C 251.762 1.43773 0.72013 0
M  V30 2626 O 252.952 1.65061 0.556815 0
M  V30 2627 C 250.084 3.26435 0.982487 0
M  V30 2628 H 251.277 2.8938 -0.787345 0
M  V30 2629 H 248.83 1.49789 -0.446418 0
M  V30 2630 H 249.565 2.71203 1.77819 0
M  V30 2631 H 249.35 3.89449 0.455182 0
M  V30 2632 H 250.84 3.918 1.44508 0
M  V30 2633 N 251.277 0.427512 1.51691 0
M  V30 2634 C 252.525 -0.141948 2.01601 0
M  V30 2635 C 252.846 -1.44067 1.31414 0
M  V30 2636 O 252.116 -1.90763 0.445658 0
M  V30 2637 H 250.696 -0.0554468 0.744939 0
M  V30 2638 H 253.358 0.567968 1.86441 0
M  V30 2639 H 252.454 -0.324913 3.10404 0
M  V30 2640 N 252.755 -1.56801 0.158532 0
M  V30 2641 C 254.003 -1.96102 -0.488712 0
M  V30 2642 C 254.324 -1.04498 -1.64636 0
M  V30 2643 O 253.594 -0.108783 -1.95598 0
M  V30 2644 H 252.174 -0.724102 -0.183535 0
M  V30 2645 H 254.836 -1.93457 0.236728 0
M  V30 2646 H 253.932 -3.00097 -0.857219 0
M  V30 2647 N 254.233 0.115231 -1.57178 0
M  V30 2648 C 255.461 0.836437 -1.89239 0
M  V30 2649 C 255.876 1.73256 -0.750175 0
M  V30 2650 O 255.233 1.80357 0.278832 0
M  V30 2651 C 255.284 1.66671 -3.20785 0
M  V30 2652 O 255.005 0.806652 -4.3061 0
M  V30 2653 C 256.506 2.49274 -3.66575 0
M  V30 2654 H 253.726 0.240253 -0.626514 0
M  V30 2655 H 256.27 0.0984932 -2.04263 0
M  V30 2656 H 254.425 2.35737 -3.0742 0
M  V30 2657 H 254.839 1.37969 -5.06028 0
M  V30 2658 H 256.313 3.03055 -4.6137 0
M  V30 2659 H 256.79 3.26807 -2.93417 0
M  V30 2660 H 257.396 1.85443 -3.82741 0
M  V30 2661 N 255.711 1.52812 0.385517 0
M  V30 2662 C 256.988 1.5861 1.14465 0
M  V30 2663 C 257.368 0.381402 2.07626 0
M  V30 2664 O 256.716 -0.629999 2.19643 0
M  V30 2665 C 256.926 2.92664 1.90128 0
M  V30 2666 C 258.274 3.46526 2.45367 0
M  V30 2667 O 259.298 2.94562 2.0028 0
M  V30 2668 O 258.157 4.37323 3.27736 0
M  V30 2669 H 255.251 0.639855 0.523941 0
M  V30 2670 H 257.797 1.65149 0.390389 0
M  V30 2671 H 256.569 3.71788 1.22022 0
M  V30 2672 H 256.192 2.89527 2.72507 0
M  V30 2673 N 257.189 -0.644168 1.43834 0
M  V30 2674 C 258.414 -1.43642 1.49605 0
M  V30 2675 C 258.839 -1.8773 0.117913 0
M  V30 2676 O 258.197 -1.57938 -0.890239 0
M  V30 2677 C 258.245 -2.6416 2.45463 0
M  V30 2678 O 257.349 -3.63538 1.94714 0
M  V30 2679 H 256.69 -0.430329 0.50568 0
M  V30 2680 H 259.22 -0.787448 1.8884 0
M  V30 2681 H 259.23 -3.11864 2.63068 0
M  V30 2682 H 257.905 -2.31414 3.45572 0
M  V30 2683 H 256.482 -3.2273 1.86814 0
M  V30 2684 N 258.668 -1.30515 -0.883378 0
M  V30 2685 C 259.908 -1.20716 -1.64946 0
M  V30 2686 C 260.272 0.234072 -1.90568 0
M  V30 2687 O 261.473 0.455335 -2.64915 0
M  V30 2688 C 259.744 -2.01444 -2.9522 0
M  V30 2689 S 261.303 -2.0836 -3.86175 0
M  V30 2690 H 258.121 -0.430165 -0.566109 0
M  V30 2691 H 260.723 -1.65011 -1.04841 0
M  V30 2692 H 259.427 -3.05268 -2.74298 0
M  V30 2693 H 258.958 -1.57817 -3.60357 0
M  V30 2694 H 260.973 -1.21215 -4.81167 0
M  V30 2695 N 260.146 1.09593 -1.13257 0
M  V30 2696 C 261.078 2.16015 -0.766167 0
M  V30 2697 C 262.091 1.61423 0.211303 0
M  V30 2698 O 263.28 1.78498 -0.00863946 0
M  V30 2699 C 260.38 3.38706 -0.114662 0
M  V30 2700 C 259.553 4.22717 -1.12379 0
M  V30 2701 C 258.612 5.23835 -0.498301 0
M  V30 2702 O 257.638 5.573 -1.15781 0
M  V30 2703 N 258.84 5.75886 0.730417 0
M  V30 2704 H 261.605 2.48055 -1.68193 0
M  V30 2705 H 259.166 1.25292 -1.02535 0
M  V30 2706 H 261.158 4.03464 0.315991 0
M  V30 2707 H 259.728 3.04569 0.704011 0
M  V30 2708 H 258.948 3.54122 -1.73179 0
M  V30 2709 H 260.236 4.75673 -1.80589 0
M  V30 2710 H 259.634 5.50911 1.28504 0
M  V30 2711 H 258.191 6.42387 1.10376 0
M  V30 2712 N 261.624 0.925811 1.2754 0
M  V30 2713 C 262.872 0.564138 1.94067 0
M  V30 2714 C 263.193 -0.897188 1.73134 0
M  V30 2715 O 262.463 -1.63573 1.07799 0
M  V30 2716 H 261.043 0.205645 0.718136 0
M  V30 2717 H 263.705 1.1778 1.55287 0
M  V30 2718 H 262.801 0.76881 3.02483 0
M  V30 2719 N 263.102 -1.41638 0.69111 0
M  V30 2720 C 264.379 -1.95036 0.148421 0
M  V30 2721 C 264.759 -1.63072 -1.34055 0
M  V30 2722 O 264.107 -0.93538 -2.08478 0
M  V30 2723 C 264.317 -3.46279 0.434951 0
M  V30 2724 C 265.665 -4.23069 0.360275 0
M  V30 2725 O 266.689 -3.54277 0.369613 0
M  V30 2726 O 265.548 -5.45583 0.316534 0
M  V30 2727 H 262.642 -0.826908 0.0123654 0
M  V30 2728 H 265.188 -1.5138 0.766963 0
M  V30 2729 H 263.96 -3.6281 1.46576 0
M  V30 2730 H 263.583 -3.97019 -0.214787 0
M  V30 2731 N 264.58 -0.43555 -1.51462 0
M  V30 2732 C 265.805 0.132627 -2.06976 0
M  V30 2733 C 266.23 1.35848 -1.30104 0
M  V30 2734 O 265.588 1.78112 -0.338493 0
M  V30 2735 C 265.636 0.43523 -3.57964 0
M  V30 2736 O 264.74 1.52198 -3.83288 0
M  V30 2737 H 264.081 0.00265 -0.663995 0
M  V30 2738 H 266.611 -0.616369 -1.95095 0
M  V30 2739 H 266.621 0.686206 -4.02188 0
M  V30 2740 H 265.296 -0.460739 -4.1334 0
M  V30 2741 H 263.873 1.2611 -3.50928 0
M  V30 2742 N 266.058 1.56714 -0.166846 0
M  V30 2743 C 267.306 1.96358 0.478305 0
M  V30 2744 C 267.627 1.0537 1.6408 0
M  V30 2745 O 266.897 0.119154 1.95537 0
M  V30 2746 H 265.477 0.725065 0.179692 0
M  V30 2747 H 268.139 1.93329 -0.246985 0
M  V30 2748 H 267.235 3.00547 0.841292 0
M  V30 2749 N 267.536 -0.106894 1.57237 0
M  V30 2750 C 268.784 -0.810921 1.85117 0
M  V30 2751 C 269.105 -1.7984 0.753827 0
M  V30 2752 O 268.375 -1.94649 -0.221056 0
M  V30 2753 H 266.955 -0.302466 0.683025 0
M  V30 2754 H 269.617 -0.0913324 1.94686 0
M  V30 2755 H 268.713 -1.34875 2.81452 0
M  V30 2756 N 269.014 -1.53014 -0.377408 0
M  V30 2757 C 270.425 -1.60438 -0.954798 0
M  V30 2758 C 270.776 -0.464418 -1.90624 0
M  V30 2759 O 269.901 0.41087 -2.12464 0
M  V30 2760 C 270.496 -2.90797 -1.73847 0
M  V30 2761 C 269.055 -3.00595 -2.26538 0
M  V30 2762 C 268.202 -2.55645 -1.07429 0
M  V30 2763 H 271.153 -1.57926 -0.156575 0
M  V30 2764 H 271.174 -2.77935 -2.5987 0
M  V30 2765 H 270.686 -3.73746 -1.04574 0
M  V30 2766 H 268.787 -2.22208 -2.99089 0
M  V30 2767 H 268.9 -4.05456 -2.5523 0
M  V30 2768 H 267.264 -2.10239 -1.43777 0
M  V30 2769 H 268.047 -3.41 -0.396728 0
M  V30 2770 N 270.492 0.636531 -1.44174 0
M  V30 2771 C 271.422 1.76003 -1.53444 0
M  V30 2772 C 272.403 1.65619 -0.387841 0
M  V30 2773 O 273.588 1.84461 -0.607257 0
M  V30 2774 C 270.718 3.14511 -1.4731 0
M  V30 2775 C 269.672 3.39677 -2.60391 0
M  V30 2776 C 268.998 4.78159 -2.39308 0
M  V30 2777 C 270.298 3.32772 -4.02567 0
M  V30 2778 H 271.992 1.68501 -2.47483 0
M  V30 2779 H 269.538 0.809237 -1.19111 0
M  V30 2780 H 271.491 3.92878 -1.52397 0
M  V30 2781 H 270.215 3.22783 -0.49785 0
M  V30 2782 H 268.874 2.63688 -2.54684 0
M  V30 2783 H 268.522 4.83128 -1.39988 0
M  V30 2784 H 268.222 4.95956 -3.15122 0
M  V30 2785 H 269.746 5.58762 -2.46205 0
M  V30 2786 H 271.16 4.01051 -4.09672 0
M  V30 2787 H 269.557 3.62104 -4.7854 0
M  V30 2788 H 270.627 2.30669 -4.2652 0
M  V30 2789 N 271.97 1.30982 0.876444 0
M  V30 2790 C 273.216 1.20474 1.63138 0
M  V30 2791 C 273.549 -0.238096 1.92735 0
M  V30 2792 O 272.824 -1.1692 1.55435 0
M  V30 2793 C 273.107 2.04244 2.96574 0
M  V30 2794 C 272.96 3.56793 2.73896 0
M  V30 2795 C 274.279 1.88684 3.97601 0
M  V30 2796 H 271.398 0.439001 0.591985 0
M  V30 2797 H 274.04 1.60704 1.01361 0
M  V30 2798 H 272.19 1.70063 3.493 0
M  V30 2799 H 273.862 4.01077 2.27892 0
M  V30 2800 H 272.105 3.80548 2.08245 0
M  V30 2801 H 272.776 4.10706 3.68815 0
M  V30 2802 H 275.252 2.18584 3.54062 0
M  V30 2803 H 274.128 2.4961 4.88862 0
M  V30 2804 H 274.389 0.848343 4.33884 0
M  V30 2805 N 273.449 -1.08991 1.13837 0
M  V30 2806 C 274.689 -1.82867 0.913183 0
M  V30 2807 C 275.053 -1.83936 -0.550604 0
M  V30 2808 O 276.254 -2.53515 -0.893515 0
M  V30 2809 C 274.525 -3.24843 1.49036 0
M  V30 2810 S 276.084 -4.15669 1.40588 0
M  V30 2811 H 272.902 -0.630278 0.329046 0
M  V30 2812 H 275.504 -1.31049 1.45073 0
M  V30 2813 H 274.208 -3.21644 2.54899 0
M  V30 2814 H 273.739 -3.81734 0.950947 0
M  V30 2815 H 275.754 -4.94686 0.387353 0
M  V30 2816 N 274.927 -0.932562 -1.27047 0
M  V30 2817 C 276.174 -0.575559 -1.94148 0
M  V30 2818 C 276.502 0.883984 -1.73251 0
M  V30 2819 O 275.757 1.64655 -1.0577 0
M  V30 2820 C 276.056 -0.853713 -3.47054 0
M  V30 2821 C 275.722 -2.29577 -3.88079 0
M  V30 2822 C 274.384 -2.68999 -3.9899 0
M  V30 2823 C 276.736 -3.23331 -4.08787 0
M  V30 2824 C 274.064 -4.01289 -4.28 0
M  V30 2825 C 276.416 -4.55207 -4.39282 0
M  V30 2826 C 275.08 -4.94457 -4.48407 0
M  V30 2827 H 274.35 -0.210612 -0.710439 0
M  V30 2828 H 276.997 -1.17744 -1.51025 0
M  V30 2829 H 275.302 -0.169204 -3.91434 0
M  V30 2830 H 276.999 -0.55639 -3.97121 0
M  V30 2831 H 273.589 -1.97994 -3.80127 0
M  V30 2832 H 277.773 -2.94074 -3.99793 0
M  V30 2833 H 273.029 -4.31374 -4.33275 0
M  V30 2834 H 277.203 -5.27852 -4.54252 0
M  V30 2835 H 274.83 -5.96994 -4.7064 0
M  V30 2836 N 276.405 1.4127 -0.698611 0
M  V30 2837 C 277.315 2.34573 -0.0357891 0
M  V30 2838 C 278.331 1.56393 0.762701 0
M  V30 2839 O 279.507 1.8886 0.699564 0
M  V30 2840 C 276.572 3.35159 0.887089 0
M  V30 2841 C 275.633 4.29225 0.0804634 0
M  V30 2842 C 274.866 5.25006 0.959387 0
M  V30 2843 O 275.089 5.26314 2.19886 0
M  V30 2844 O 274.023 6.00519 0.407439 0
M  V30 2845 H 277.849 2.92838 -0.804957 0
M  V30 2846 H 275.434 1.42175 -0.458966 0
M  V30 2847 H 277.316 3.9689 1.41621 0
M  V30 2848 H 275.991 2.79333 1.6357 0
M  V30 2849 H 274.898 3.70833 -0.493328 0
M  V30 2850 H 276.231 4.88157 -0.629547 0
M  V30 2851 N 277.883 0.443576 1.51229 0
M  V30 2852 C 278.83 -0.364716 2.279 0
M  V30 2853 C 279.8 -1.0114 1.31757 0
M  V30 2854 O 280.985 -1.02912 1.60667 0
M  V30 2855 C 278.125 -1.45644 3.12861 0
M  V30 2856 C 277.238 -0.827269 4.24005 0
M  V30 2857 C 276.373 -1.89456 4.96266 0
M  V30 2858 C 275.412 -1.24416 5.99322 0
M  V30 2859 N 274.549 -2.25309 6.64966 0
M  V30 2860 H 279.389 0.295464 2.96532 0
M  V30 2861 H 276.926 0.157554 1.46254 0
M  V30 2862 H 278.884 -2.10076 3.6045 0
M  V30 2863 H 277.514 -2.08616 2.46331 0
M  V30 2864 H 276.566 -0.0710839 3.80334 0
M  V30 2865 H 277.878 -0.312481 4.9782 0
M  V30 2866 H 277.032 -2.61535 5.47434 0
M  V30 2867 H 275.771 -2.4431 4.22095 0
M  V30 2868 H 274.776 -0.508868 5.4744 0
M  V30 2869 H 276.001 -0.702882 6.75453 0
M  V30 2870 H 273.947 -2.79231 5.93604 0
M  V30 2871 H 273.864 -1.78739 7.34567 0
M  V30 2872 H 275.132 -2.96853 7.20763 0
M  V30 2873 N 279.361 -1.56624 0.175154 0
M  V30 2874 C 280.638 -1.88688 -0.515373 0
M  V30 2875 C 281.018 -1.08564 -1.81044 0
M  V30 2876 O 280.366 -0.180703 -2.27784 0
M  V30 2877 C 280.576 -3.40768 -0.753552 0
M  V30 2878 C 281.924 -4.10587 -1.08184 0
M  V30 2879 O 282.948 -3.46106 -0.841961 0
M  V30 2880 O 281.807 -5.24512 -1.53459 0
M  V30 2881 H 278.901 -0.78301 -0.26613 0
M  V30 2882 H 281.447 -1.68347 0.213877 0
M  V30 2883 H 280.219 -3.90965 0.161829 0
M  V30 2884 H 279.842 -3.66733 -1.53598 0
M  V30 2885 N 280.839 0.0985539 -1.57292 0
M  V30 2886 C 281.786 1.11981 -2.01814 0
M  V30 2887 C 282.756 1.39999 -0.89384 0
M  V30 2888 O 283.941 1.5152 -1.15958 0
M  V30 2889 C 281.081 2.43577 -2.44467 0
M  V30 2890 C 280.194 2.2232 -3.70402 0
M  V30 2891 C 279.329 3.4729 -4.01949 0
M  V30 2892 C 278.368 3.2128 -5.21005 0
M  V30 2893 N 277.505 4.38507 -5.48321 0
M  V30 2894 H 282.345 0.733149 -2.88841 0
M  V30 2895 H 279.882 0.350482 -1.42864 0
M  V30 2896 H 281.84 3.20373 -2.6724 0
M  V30 2897 H 280.47 2.80097 -1.60455 0
M  V30 2898 H 279.522 1.36343 -3.55126 0
M  V30 2899 H 280.834 1.99089 -4.57345 0
M  V30 2900 H 279.988 4.32495 -4.25479 0
M  V30 2901 H 278.727 3.73572 -3.13521 0
M  V30 2902 H 277.732 2.34468 -4.97298 0
M  V30 2903 H 278.957 2.96348 -6.11028 0
M  V30 2904 H 276.903 4.64871 -4.62851 0
M  V30 2905 H 276.82 4.18455 -6.29628 0
M  V30 2906 H 278.088 5.24787 -5.76385 0
M  V30 2907 N 282.317 1.53212 0.369288 0
M  V30 2908 C 283.547 1.72868 1.13139 0
M  V30 2909 C 283.955 0.455754 1.83629 0
M  V30 2910 O 283.298 -0.580861 1.74275 0
M  V30 2911 C 283.36 2.83667 2.20847 0
M  V30 2912 C 283.024 4.24142 1.70155 0
M  V30 2913 C 284.021 5.06619 1.16763 0
M  V30 2914 C 281.706 4.70539 1.7578 0
M  V30 2915 C 283.7 6.33581 0.696678 0
M  V30 2916 C 281.387 5.97481 1.28297 0
M  V30 2917 C 282.385 6.78833 0.753307 0
M  V30 2918 O 282.073 8.03393 0.285475 0
M  V30 2919 H 281.805 0.581707 0.344373 0
M  V30 2920 H 284.359 2.00736 0.435243 0
M  V30 2921 H 282.589 2.51265 2.93944 0
M  V30 2922 H 284.278 2.91536 2.82421 0
M  V30 2923 H 285.044 4.71948 1.11758 0
M  V30 2924 H 280.923 4.07293 2.15949 0
M  V30 2925 H 284.467 6.97027 0.282581 0
M  V30 2926 H 280.364 6.31651 1.32994 0
M  V30 2927 H 281.132 8.17497 0.405145 0
M  V30 2928 N 283.795 -0.628877 1.44509 0
M  V30 2929 C 285.044 -1.38437 1.4669 0
M  V30 2930 C 285.357 -1.95322 0.104272 0
M  V30 2931 O 286.563 -2.715 0.00362163 0
M  V30 2932 C 285.019 -2.50659 2.5826 0
M  V30 2933 C 284.627 -2.00277 4.0074 0
M  V30 2934 C 286.371 -3.27844 2.69664 0
M  V30 2935 C 284.278 -3.09854 5.0373 0
M  V30 2936 H 283.208 -0.520245 0.545766 0
M  V30 2937 H 285.859 -0.676313 1.70582 0
M  V30 2938 H 284.241 -3.2405 2.27612 0
M  V30 2939 H 285.415 -1.33736 4.40966 0
M  V30 2940 H 283.73 -1.35901 3.93599 0
M  V30 2941 H 286.327 -4.09534 3.43781 0
M  V30 2942 H 286.67 -3.77471 1.75559 0
M  V30 2943 H 287.203 -2.61543 2.99733 0
M  V30 2944 H 283.942 -2.65168 5.99472 0
M  V30 2945 H 283.462 -3.7503 4.68095 0
M  V30 2946 H 285.141 -3.74592 5.27532 0
M  V30 2947 N 285.273 -1.31445 -0.869486 0
M  V30 2948 C 286.203 -1.21727 -1.99261 0
M  V30 2949 C 287.184 -0.104359 -1.6978 0
M  V30 2950 O 288.369 -0.289038 -1.92037 0
M  V30 2951 C 285.499 -0.924317 -3.34774 0
M  V30 2952 C 284.453 -1.99685 -3.78563 0
M  V30 2953 C 283.779 -1.55658 -5.11541 0
M  V30 2954 C 285.079 -3.41003 -3.95619 0
M  V30 2955 H 286.773 -2.1569 -2.07649 0
M  V30 2956 H 284.319 -1.03839 -0.997675 0
M  V30 2957 H 286.272 -0.842934 -4.12883 0
M  V30 2958 H 284.996 0.0509793 -3.2656 0
M  V30 2959 H 283.655 -2.06813 -3.02694 0
M  V30 2960 H 283.303 -0.569132 -4.9977 0
M  V30 2961 H 283.003 -2.27409 -5.41811 0
M  V30 2962 H 284.527 -1.48928 -5.92159 0
M  V30 2963 H 285.941 -3.36547 -4.64122 0
M  V30 2964 H 284.338 -4.10975 -4.37286 0
M  V30 2965 H 285.408 -3.81754 -2.98985 0
M  V30 2966 N 286.751 1.08385 -1.14413 0
M  V30 2967 C 287.683 2.1519 -0.789036 0
M  V30 2968 C 288.696 1.61638 0.19417 0
M  V30 2969 O 289.885 1.78479 -0.0275711 0
M  V30 2970 C 286.985 3.38565 -0.15058 0
M  V30 2971 C 286.158 4.21501 -1.16857 0
M  V30 2972 C 285.217 5.23277 -0.553832 0
M  V30 2973 O 284.243 5.56041 -1.21686 0
M  V30 2974 N 285.445 5.76629 0.669296 0
M  V30 2975 H 288.21 2.46257 -1.70814 0
M  V30 2976 H 285.771 1.24198 -1.03858 0
M  V30 2977 H 287.763 4.03777 0.273181 0
M  V30 2978 H 286.333 3.05299 0.671667 0
M  V30 2979 H 285.553 3.52265 -1.76926 0
M  V30 2980 H 286.841 4.73731 -1.85624 0
M  V30 2981 H 286.239 5.52243 1.22654 0
M  V30 2982 H 284.796 6.43521 1.03556 0
M  V30 2983 N 288.23 0.939286 1.26551 0
M  V30 2984 C 289.478 0.58469 1.93457 0
M  V30 2985 C 289.799 -0.878774 1.74076 0
M  V30 2986 O 289.069 -1.62421 1.09528 0
M  V30 2987 H 287.649 0.21325 0.715914 0
M  V30 2988 H 290.311 1.1942 1.54029 0
M  V30 2989 H 289.407 0.800849 3.0165 0
M  V30 2990 N 289.708 -1.40897 0.706093 0
M  V30 2991 C 290.954 -2.01352 0.241889 0
M  V30 2992 C 291.287 -1.55832 -1.15888 0
M  V30 2993 O 290.562 -0.774145 -1.7843 0
M  V30 2994 C 290.845 -3.58752 0.311311 0
M  V30 2995 C 290.698 -4.1437 1.74978 0
M  V30 2996 C 292.017 -4.38914 -0.322922 0
M  V30 2997 H 289.136 -0.731562 0.0893687 0
M  V30 2998 H 291.778 -1.67504 0.896802 0
M  V30 2999 H 289.928 -3.87718 -0.246302 0
M  V30 3000 H 291.6 -3.96239 2.36205 0
M  V30 3001 H 289.843 -3.69016 2.28057 0
M  V30 3002 H 290.514 -5.23532 1.74981 0
M  V30 3003 H 292.99 -4.15822 0.152089 0
M  V30 3004 H 291.866 -5.48358 -0.243855 0
M  V30 3005 H 292.127 -4.19176 -1.40513 0
M  V30 3006 N 291.186 -0.45159 -1.50991 0
M  V30 3007 C 292.414 0.108334 -2.06616 0
M  V30 3008 C 292.829 1.35224 -1.31757 0
M  V30 3009 O 292.186 1.78475 -0.381174 0
M  V30 3010 C 292.237 0.41619 -3.59096 0
M  V30 3011 O 291.958 -0.778361 -4.3113 0
M  V30 3012 C 293.459 1.02523 -4.31282 0
M  V30 3013 H 290.679 0.00159995 -0.670998 0
M  V30 3014 H 293.223 -0.634771 -1.94399 0
M  V30 3015 H 291.378 1.10921 -3.71181 0
M  V30 3016 H 291.792 -0.511181 -5.22003 0
M  V30 3017 H 293.266 1.19053 -5.39009 0
M  V30 3018 H 293.743 2.01013 -3.905 0
M  V30 3019 H 294.349 0.371173 -4.23677 0
M  V30 3020 N 292.664 1.56529 -0.183458 0
M  V30 3021 C 293.889 2.02064 0.467428 0
M  V30 3022 C 294.314 1.06282 1.55196 0
M  V30 3023 O 293.672 0.0443565 1.81246 0
M  V30 3024 C 293.72 3.46122 1.01153 0
M  V30 3025 O 292.824 3.53437 2.12499 0
M  V30 3026 H 292.165 0.654726 0.110588 0
M  V30 3027 H 294.695 2.02521 -0.290917 0
M  V30 3028 H 294.705 3.85676 1.33108 0
M  V30 3029 H 293.38 4.15331 0.217533 0
M  V30 3030 H 291.957 3.2575 1.81497 0
M  V30 3031 N 294.142 -0.090211 1.57342 0
M  V30 3032 C 295.388 -0.788838 1.8748 0
M  V30 3033 C 295.743 -1.76105 0.7749 0
M  V30 3034 O 295.036 -1.90302 -0.222663 0
M  V30 3035 C 295.23 -1.55222 3.21933 0
M  V30 3036 C 295.059 -0.655441 4.44898 0
M  V30 3037 C 293.829 -0.299325 5.04413 0
M  V30 3038 C 296.027 0.0397458 5.14285 0
M  V30 3039 N 294.009 0.605108 6.10911 0
M  V30 3040 C 295.38 0.802061 6.1479 0
M  V30 3041 C 297.435 0.113154 4.97771 0
M  V30 3042 C 296.138 1.63093 7.00566 0
M  V30 3043 C 298.164 0.928942 5.84059 0
M  V30 3044 C 297.526 1.67936 6.84088 0
M  V30 3045 H 293.625 -0.26467 0.735849 0
M  V30 3046 H 296.209 -0.0511453 1.94633 0
M  V30 3047 H 294.38 -2.26076 3.15823 0
M  V30 3048 H 296.112 -2.19843 3.39781 0
M  V30 3049 H 292.867 -0.648079 4.69145 0
M  V30 3050 H 293.291 1.05002 6.68808 0
M  V30 3051 H 297.933 -0.452676 4.2037 0
M  V30 3052 H 295.651 2.20781 7.77355 0
M  V30 3053 H 299.237 0.988478 5.73341 0
M  V30 3054 H 298.117 2.30044 7.49699 0
M  V30 3055 N 295.62 -1.53406 -0.361157 0
M  V30 3056 C 296.868 -1.69467 -1.10115 0
M  V30 3057 C 297.189 -0.451352 -1.89705 0
M  V30 3058 O 296.459 0.534636 -1.88463 0
M  V30 3059 H 295.039 -0.624749 -0.409508 0
M  V30 3060 H 297.701 -1.90609 -0.406699 0
M  V30 3061 H 296.797 -2.55774 -1.78847 0
M  V30 3062 N 297.098 0.621204 -1.44841 0
M  V30 3063 C 298.028 1.74366 -1.55303 0
M  V30 3064 C 299.009 1.65199 -0.405385 0
M  V30 3065 O 300.194 1.83807 -0.626787 0
M  V30 3066 C 297.324 3.12931 -1.50637 0
M  V30 3067 C 296.278 3.36896 -2.63979 0
M  V30 3068 C 295.604 4.75594 -2.44366 0
M  V30 3069 C 296.904 3.28483 -4.06074 0
M  V30 3070 H 298.598 1.65867 -2.49256 0
M  V30 3071 H 296.144 0.796558 -1.19962 0
M  V30 3072 H 298.097 3.9124 -1.56555 0
M  V30 3073 H 296.821 3.22237 -0.532057 0
M  V30 3074 H 295.48 2.60972 -2.57467 0
M  V30 3075 H 295.128 4.81616 -1.45105 0
M  V30 3076 H 294.828 4.92586 -3.20364 0
M  V30 3077 H 296.352 5.5612 -2.52117 0
M  V30 3078 H 297.766 3.96684 -4.13902 0
M  V30 3079 H 296.163 3.57008 -4.82354 0
M  V30 3080 H 297.233 2.26133 -4.28943 0
M  V30 3081 N 298.576 1.31904 0.862503 0
M  V30 3082 C 299.824 1.21776 1.61292 0
M  V30 3083 C 300.145 -0.222413 1.93727 0
M  V30 3084 O 299.415 -1.1451 1.58947 0
M  V30 3085 H 297.995 0.447717 0.597962 0
M  V30 3086 H 300.657 1.65326 1.03215 0
M  V30 3087 H 299.753 1.7948 2.5533 0
M  V30 3088 N 300.054 -1.07777 1.14986 0
M  V30 3089 C 301.294 -1.81888 0.932527 0
M  V30 3090 C 301.658 -1.84509 -0.531064 0
M  V30 3091 O 302.859 -2.54448 -0.866577 0
M  V30 3092 C 301.13 -3.23244 1.52473 0
M  V30 3093 S 302.689 -4.14154 1.44989 0
M  V30 3094 H 299.507 -0.626752 0.335712 0
M  V30 3095 H 302.109 -1.29503 1.46455 0
M  V30 3096 H 300.813 -3.18922 2.58296 0
M  V30 3097 H 300.344 -3.80704 0.991381 0
M  V30 3098 H 302.359 -4.94247 0.439799 0
M  V30 3099 N 301.532 -0.945985 -1.26051 0
M  V30 3100 C 302.495 -0.463897 -2.24456 0
M  V30 3101 C 303.495 0.427655 -1.55009 0
M  V30 3102 O 304.685 0.226157 -1.72726 0
M  V30 3103 C 301.817 0.330812 -3.39291 0
M  V30 3104 H 303.01 -1.33357 -2.68619 0
M  V30 3105 H 300.563 -0.728416 -1.38289 0
M  V30 3106 H 301.298 1.21852 -3.00537 0
M  V30 3107 H 301.083 -0.308679 -3.90883 0
M  V30 3108 H 302.573 0.657865 -4.12386 0
M  V30 3109 N 303.011 1.40521 -0.713556 0
M  V30 3110 C 304.427 1.54839 -0.386907 0
M  V30 3111 C 304.627 1.68532 1.1045 0
M  V30 3112 O 303.683 1.67377 1.89053 0
M  V30 3113 C 304.996 2.77792 -1.15118 0
M  V30 3114 C 306.544 2.91607 -1.13729 0
M  V30 3115 C 307.019 4.1747 -1.88368 0
M  V30 3116 N 308.51 4.24466 -1.85427 0
M  V30 3117 C 309.245 5.20755 -2.40004 0
M  V30 3118 N 308.741 6.22965 -3.03129 0
M  V30 3119 N 310.534 5.1282 -2.30158 0
M  V30 3120 H 302.685 1.29879 -1.68063 0
M  V30 3121 H 304.948 0.627896 -0.710247 0
M  V30 3122 H 304.654 2.73944 -2.20561 0
M  V30 3123 H 304.528 3.6984 -0.741477 0
M  V30 3124 H 306.915 2.94959 -0.0910608 0
M  V30 3125 H 306.996 2.00682 -1.5862 0
M  V30 3126 H 306.64 4.1488 -2.9298 0
M  V30 3127 H 306.57 5.074 -1.40898 0
M  V30 3128 H 309.061 3.51241 -1.3942 0
M  V30 3129 H 309.374 6.92859 -3.42295 0
M  V30 3130 H 307.719 6.23415 -3.07212 0
M  V30 3131 H 310.91 4.31899 -1.80501 0
M  V30 3132 H 311.083 5.87689 -2.72993 0
M  V30 3133 N 304.489 0.459591 1.5075 0
M  V30 3134 C 305.9 0.00171547 1.867 0
M  V30 3135 C 306.251 -1.39934 1.37525 0
M  V30 3136 O 305.376 -2.03523 0.735349 0
M  V30 3137 C 305.971 -0.00366298 3.388 0
M  V30 3138 C 304.53 -0.406026 3.74204 0
M  V30 3139 C 303.677 0.38673 2.7459 0
M  V30 3140 H 306.628 0.674413 1.43657 0
M  V30 3141 H 306.649 -0.808371 3.71814 0
M  V30 3142 H 306.161 1.01617 3.74561 0
M  V30 3143 H 304.262 -1.43063 3.4404 0
M  V30 3144 H 304.375 -0.115362 4.78961 0
M  V30 3145 H 302.739 -0.158019 2.54209 0
M  V30 3146 H 303.522 1.40585 3.13194 0
M  V30 3147 N 305.967 -1.56429 0.191757 0
M  V30 3148 C 306.915 -2.20273 -0.747174 0
M  V30 3149 C 307.909 -1.17288 -1.22229 0
M  V30 3150 O 309.115 -1.35441 -1.18557 0
M  V30 3151 H 305.49 -0.705885 -0.259289 0
M  V30 3152 H 307.461 -2.97826 -0.184963 0
M  V30 3153 C 306.21 -2.87356 -1.95759 0
M  V30 3154 H 305.533 -3.66341 -1.60106 0
M  V30 3155 H 306.973 -3.3547 -2.59299 0
M  V30 3156 C 305.432 -1.88213 -2.79423 0
M  V30 3157 O 305.962 -1.38033 -3.7724 0
M  V30 3158 N 304.168 -1.56516 -2.44849 0
M  V30 3159 H 303.715 -1.97516 -1.65364 0
M  V30 3160 H 303.673 -0.904369 -3.01112 0
M  V30 3161 N 307.445 0.0818655 -1.57387 0
M  V30 3162 C 308.392 1.09834 -2.0299 0
M  V30 3163 C 309.362 1.39043 -0.908639 0
M  V30 3164 O 310.547 1.50282 -1.17559 0
M  V30 3165 C 307.687 2.40971 -2.47037 0
M  V30 3166 C 306.8 2.18379 -3.7274 0
M  V30 3167 C 305.935 3.43008 -4.0561 0
M  V30 3168 C 304.974 3.15736 -5.24383 0
M  V30 3169 N 304.111 4.32667 -5.52941 0
M  V30 3170 H 308.951 0.702472 -2.89602 0
M  V30 3171 H 306.488 0.33531 -1.43227 0
M  V30 3172 H 308.446 3.1752 -2.70623 0
M  V30 3173 H 307.076 2.78379 -1.63417 0
M  V30 3174 H 306.128 1.32569 -3.56552 0
M  V30 3175 H 307.44 1.94227 -4.59431 0
M  V30 3176 H 306.594 4.27958 -4.30043 0
M  V30 3177 H 305.333 3.70225 -3.17466 0
M  V30 3178 H 304.338 2.2918 -4.99757 0
M  V30 3179 H 305.563 2.8985 -6.14136 0
M  V30 3180 H 303.509 4.59935 -4.67756 0
M  V30 3181 H 303.426 4.11753 -6.34031 0
M  V30 3182 H 304.694 5.18644 -5.81918 0
M  V30 3183 N 308.923 1.53595 0.353017 0
M  V30 3184 C 310.334 1.61937 0.929153 0
M  V30 3185 C 310.685 0.494686 1.89861 0
M  V30 3186 O 309.81 -0.377017 2.1309 0
M  V30 3187 C 310.405 2.93526 1.69199 0
M  V30 3188 C 308.964 3.04161 2.21727 0
M  V30 3189 C 308.111 2.57322 1.03348 0
M  V30 3190 H 311.062 1.58155 0.131431 0
M  V30 3191 H 311.083 2.82034 2.55416 0
M  V30 3192 H 310.595 3.75362 0.986144 0
M  V30 3193 H 308.696 2.26938 2.95516 0
M  V30 3194 H 308.809 4.09465 2.48748 0
M  V30 3195 H 307.173 2.12499 1.40414 0
M  V30 3196 H 307.956 3.41588 0.342428 0
M  V30 3197 N 310.401 -0.613514 1.45168 0
M  V30 3198 C 311.649 -1.36997 1.48581 0
M  V30 3199 C 311.97 -1.94589 0.126545 0
M  V30 3200 O 311.24 -1.76816 -0.843372 0
M  V30 3201 H 309.82 -0.508558 0.547154 0
M  V30 3202 H 312.482 -0.720853 1.81079 0
M  V30 3203 H 311.578 -2.1924 2.22127 0
M  V30 3204 N 311.879 -1.3236 -0.855495 0
M  V30 3205 C 313.125 -1.23054 -1.612 0
M  V30 3206 C 313.458 0.207404 -1.93089 0
M  V30 3207 O 312.733 1.14432 -1.57275 0
M  V30 3208 C 313.016 -2.08937 -2.93287 0
M  V30 3209 C 312.869 -3.61105 -2.68185 0
M  V30 3210 C 314.188 -1.94986 -3.94549 0
M  V30 3211 H 311.307 -0.448364 -0.584926 0
M  V30 3212 H 313.949 -1.62297 -0.987917 0
M  V30 3213 H 312.099 -1.75599 -3.46551 0
M  V30 3214 H 313.771 -4.04652 -2.21483 0
M  V30 3215 H 312.014 -3.83813 -2.02164 0
M  V30 3216 H 312.685 -4.16522 -3.62234 0
M  V30 3217 H 315.161 -2.24189 -3.5054 0
M  V30 3218 H 314.037 -2.57356 -4.84829 0
M  V30 3219 H 314.298 -0.917263 -4.3248 0
M  V30 3220 N 313.357 1.07166 -1.15556 0
M  V30 3221 C 314.587 1.83248 -0.954133 0
M  V30 3222 C 314.995 1.82449 0.500911 0
M  V30 3223 O 314.338 1.23575 1.35923 0
M  V30 3224 C 314.4 3.31393 -1.39351 0
M  V30 3225 C 314.064 3.5591 -2.86666 0
M  V30 3226 C 315.061 3.49695 -3.8472 0
M  V30 3227 C 312.746 3.83515 -3.24379 0
M  V30 3228 C 314.74 3.70737 -5.18491 0
M  V30 3229 C 312.427 4.04209 -4.58321 0
M  V30 3230 C 313.425 3.97815 -5.55186 0
M  V30 3231 O 313.113 4.17954 -6.86709 0
M  V30 3232 H 312.845 0.584941 -0.338851 0
M  V30 3233 H 315.399 1.36169 -1.53777 0
M  V30 3234 H 313.629 3.79292 -0.75329 0
M  V30 3235 H 315.318 3.88945 -1.16089 0
M  V30 3236 H 316.084 3.28368 -3.56931 0
M  V30 3237 H 311.963 3.87605 -2.49567 0
M  V30 3238 H 315.507 3.65663 -5.94085 0
M  V30 3239 H 311.404 4.25023 -4.85825 0
M  V30 3240 H 312.172 4.35291 -6.93155 0
M  V30 3241 N 314.835 0.952656 1.25548 0
M  V30 3242 C 316.081 0.607272 1.93494 0
M  V30 3243 C 316.414 -0.853245 1.74452 0
M  V30 3244 O 315.689 -1.61194 1.08843 0
M  V30 3245 C 315.972 0.96435 3.46947 0
M  V30 3246 C 315.825 2.48045 3.75225 0
M  V30 3247 C 317.144 0.487987 4.37386 0
M  V30 3248 H 314.263 0.222096 0.702739 0
M  V30 3249 H 316.905 1.18895 1.48203 0
M  V30 3250 H 315.055 0.469361 3.85654 0
M  V30 3251 H 316.727 3.04905 3.46166 0
M  V30 3252 H 314.97 2.919 3.209 0
M  V30 3253 H 315.641 2.6808 4.82532 0
M  V30 3254 H 318.117 0.912558 4.0597 0
M  V30 3255 H 316.993 0.766547 5.43521 0
M  V30 3256 H 317.254 -0.612063 4.37843 0
M  V30 3257 N 316.313 -1.40141 0.720998 0
M  V30 3258 C 317.729 -1.54632 0.395113 0
M  V30 3259 C 317.929 -1.69115 -1.09555 0
M  V30 3260 O 316.985 -1.68377 -1.88163 0
M  V30 3261 C 318.298 -2.77177 1.1659 0
M  V30 3262 C 319.846 -2.91 1.15274 0
M  V30 3263 C 320.321 -4.16465 1.90579 0
M  V30 3264 N 321.812 -4.23476 1.87675 0
M  V30 3265 C 322.547 -5.19475 2.42762 0
M  V30 3266 N 322.043 -6.21348 3.06428 0
M  V30 3267 N 323.836 -5.11592 2.32874 0
M  V30 3268 H 315.987 -1.28986 1.68749 0
M  V30 3269 H 318.25 -0.62412 0.713567 0
M  V30 3270 H 317.956 -2.72771 2.22011 0
M  V30 3271 H 317.83 -3.69442 0.76108 0
M  V30 3272 H 320.217 -2.94907 0.106702 0
M  V30 3273 H 320.298 -1.99838 1.59682 0
M  V30 3274 H 319.942 -4.1332 2.95176 0
M  V30 3275 H 319.872 -5.06646 1.43587 0
M  V30 3276 H 322.363 -3.50497 1.41281 0
M  V30 3277 H 322.676 -6.91034 3.45965 0
M  V30 3278 H 321.021 -6.21777 3.10514 0
M  V30 3279 H 324.212 -4.30936 1.82789 0
M  V30 3280 H 324.385 -5.86233 2.76106 0
M  V30 3281 N 317.792 -0.46758 -1.50504 0
M  V30 3282 C 319.038 0.0887532 -2.02606 0
M  V30 3283 C 319.371 1.39686 -1.34913 0
M  V30 3284 O 318.646 1.88644 -0.473694 0
M  V30 3285 C 318.929 0.276206 -3.59039 0
M  V30 3286 C 318.782 -1.05267 -4.37309 0
M  V30 3287 C 320.101 1.03235 -4.27821 0
M  V30 3288 H 317.22 0.0307814 -0.736357 0
M  V30 3289 H 319.862 -0.612485 -1.79857 0
M  V30 3290 H 318.012 0.8735 -3.78553 0
M  V30 3291 H 319.684 -1.68628 -4.29374 0
M  V30 3292 H 317.927 -1.65015 -4.01189 0
M  V30 3293 H 318.598 -0.875197 -5.45018 0
M  V30 3294 H 321.074 0.526111 -4.12761 0
M  V30 3295 H 319.95 1.1323 -5.37094 0
M  V30 3296 H 320.211 2.06806 -3.90748 0
M  V30 3297 N 319.27 1.56325 -0.20005 0
M  V30 3298 C 320.495 2.02548 0.44597 0
M  V30 3299 C 320.92 1.07922 1.5406 0
M  V30 3300 O 320.278 0.0635775 1.81188 0
M  V30 3301 C 320.326 3.47175 0.974761 0
M  V30 3302 O 319.43 3.55671 2.08739 0
M  V30 3303 H 318.771 0.655862 0.103638 0
M  V30 3304 H 321.301 2.02201 -0.312381 0
M  V30 3305 H 321.311 3.87067 1.2901 0
M  V30 3306 H 319.986 4.15538 0.17347 0
M  V30 3307 H 318.563 3.27657 1.78032 0
M  V30 3308 N 320.748 -0.0735177 1.57428 0
M  V30 3309 C 322.164 -0.428264 1.53747 0
M  V30 3310 C 322.364 -1.79272 0.91998 0
M  V30 3311 O 321.42 -2.47051 0.521745 0
M  V30 3312 C 322.733 -0.370914 2.98404 0
M  V30 3313 C 324.281 -0.451224 3.0973 0
M  V30 3314 C 324.756 -0.4238 4.56035 0
M  V30 3315 N 326.247 -0.483925 4.60665 0
M  V30 3316 C 326.982 -0.484891 5.71346 0
M  V30 3317 N 326.478 -0.440775 6.91396 0
M  V30 3318 N 328.271 -0.531319 5.59583 0
M  V30 3319 H 320.422 0.819949 1.95935 0
M  V30 3320 H 322.685 0.307493 0.896745 0
M  V30 3321 H 322.391 0.564956 3.47133 0
M  V30 3322 H 322.265 -1.18176 3.5821 0
M  V30 3323 H 324.652 -1.37752 2.60976 0
M  V30 3324 H 324.733 0.388167 2.52838 0
M  V30 3325 H 324.377 0.498638 5.05446 0
M  V30 3326 H 324.307 -1.2807 5.10789 0
M  V30 3327 H 326.798 -0.522338 3.74273 0
M  V30 3328 H 327.111 -0.44539 7.71515 0
M  V30 3329 H 325.456 -0.40749 6.93804 0
M  V30 3330 H 328.647 -0.563464 4.64696 0
M  V30 3331 H 328.82 -0.528603 6.4584 0
M  V30 3332 N 322.226 -1.5378 -0.344866 0
M  V30 3333 C 323.473 -1.70963 -1.08526 0
M  V30 3334 C 323.801 -0.472126 -1.88683 0
M  V30 3335 O 323.056 0.546116 -1.87926 0
M  V30 3336 C 323.355 -2.92407 -2.05506 0
M  V30 3337 C 323.021 -4.28066 -1.41671 0
M  V30 3338 C 321.683 -4.64951 -1.2399 0
M  V30 3339 C 324.035 -5.12344 -0.956726 0
M  V30 3340 C 321.363 -5.83733 -0.589277 0
M  V30 3341 C 323.715 -6.3179 -0.320015 0
M  V30 3342 C 322.379 -6.67372 -0.130881 0
M  V30 3343 H 321.649 -0.625598 -0.397124 0
M  V30 3344 H 324.296 -1.87995 -0.36469 0
M  V30 3345 H 322.601 -2.69973 -2.8394 0
M  V30 3346 H 324.298 -3.02895 -2.62784 0
M  V30 3347 H 320.888 -3.99034 -1.56429 0
M  V30 3348 H 325.072 -4.8438 -1.08118 0
M  V30 3349 H 320.328 -6.09877 -0.431344 0
M  V30 3350 H 324.502 -6.96386 0.0445072 0
M  V30 3351 H 322.129 -7.59273 0.375318 0
M  V30 3352 N 323.704 0.605807 -1.45491 0
M  V30 3353 C 324.95 1.36679 -1.49823 0
M  V30 3354 C 325.283 1.93693 -0.140175 0
M  V30 3355 O 324.558 1.75158 0.845581 0
M  V30 3356 C 324.841 2.51337 -2.57879 0
M  V30 3357 C 324.694 1.99508 -4.03134 0
M  V30 3358 C 326.013 3.53463 -2.62205 0
M  V30 3359 H 323.132 0.495617 -0.545466 0
M  V30 3360 H 325.774 0.682732 -1.7731 0
M  V30 3361 H 323.924 3.09691 -2.34571 0
M  V30 3362 H 325.596 1.45789 -4.37656 0
M  V30 3363 H 323.839 1.30496 -4.13707 0
M  V30 3364 H 324.51 2.82169 -4.74431 0
M  V30 3365 H 326.986 3.04953 -2.83095 0
M  V30 3366 H 325.862 4.31178 -3.39672 0
M  V30 3367 H 326.123 4.09197 -1.67363 0
M  V30 3368 N 325.182 1.32811 0.848464 0
M  V30 3369 C 326.41 1.26739 1.63538 0
M  V30 3370 C 326.825 -0.163484 1.88091 0
M  V30 3371 O 326.182 -1.10258 1.45429 0
M  V30 3372 C 326.233 2.03013 2.99112 0
M  V30 3373 O 325.954 3.40518 2.75643 0
M  V30 3374 C 327.455 2.04038 3.93552 0
M  V30 3375 H 324.675 0.437024 0.509167 0
M  V30 3376 H 327.219 1.75033 1.05753 0
M  V30 3377 H 325.374 1.58426 3.53525 0
M  V30 3378 H 325.788 3.79635 3.61908 0
M  V30 3379 H 327.262 2.61877 4.85926 0
M  V30 3380 H 327.739 1.0282 4.26995 0
M  V30 3381 H 328.345 2.486 3.45077 0
M  V30 3382 N 326.66 -1.06551 1.16123 0
M  V30 3383 C 327.906 -1.79719 0.952505 0
M  V30 3384 C 328.261 -1.85396 -0.514385 0
M  V30 3385 O 327.554 -1.33263 -1.37665 0
M  V30 3386 C 327.748 -3.23911 1.51052 0
M  V30 3387 C 327.577 -3.32284 3.03013 0
M  V30 3388 C 326.347 -3.42371 3.71632 0
M  V30 3389 C 328.545 -3.22363 4.00732 0
M  V30 3390 N 326.527 -3.39732 5.11327 0
M  V30 3391 C 327.898 -3.26937 5.26794 0
M  V30 3392 C 329.953 -3.0623 3.92591 0
M  V30 3393 C 328.656 -3.17035 6.45663 0
M  V30 3394 C 330.682 -2.97665 5.11028 0
M  V30 3395 C 330.044 -3.02858 6.35969 0
M  V30 3396 H 326.143 -0.670585 0.402293 0
M  V30 3397 H 328.727 -1.27125 1.4747 0
M  V30 3398 H 326.898 -3.74907 1.01484 0
M  V30 3399 H 328.63 -3.85242 1.2398 0
M  V30 3400 H 325.385 -3.47058 3.22254 0
M  V30 3401 H 325.809 -3.41919 5.84312 0
M  V30 3402 H 330.451 -3.01063 2.96852 0
M  V30 3403 H 328.169 -3.2096 7.41627 0
M  V30 3404 H 331.755 -2.86273 5.06497 0
M  V30 3405 H 330.635 -2.96286 7.26075 0
M  V30 3406 N 328.138 -0.959301 -1.25041 0
M  V30 3407 C 329.387 -0.612254 -1.92183 0
M  V30 3408 C 329.7 0.855347 -1.75907 0
M  V30 3409 O 330.906 1.31256 -2.37664 0
M  V30 3410 C 329.362 -1.04435 -3.44414 0
M  V30 3411 C 328.97 -2.53482 -3.69393 0
M  V30 3412 C 330.714 -0.770055 -4.17457 0
M  V30 3413 C 328.621 -2.90468 -5.15153 0
M  V30 3414 H 327.551 -0.225279 -0.719559 0
M  V30 3415 H 330.202 -1.16438 -1.41825 0
M  V30 3416 H 328.584 -0.4206 -3.9376 0
M  V30 3417 H 329.758 -3.20916 -3.30681 0
M  V30 3418 H 328.073 -2.78432 -3.0962 0
M  V30 3419 H 330.67 -1.02249 -5.24832 0
M  V30 3420 H 331.013 0.293611 -4.15263 0
M  V30 3421 H 331.546 -1.35437 -3.74034 0
M  V30 3422 H 328.285 -3.95871 -5.22462 0
M  V30 3423 H 327.805 -2.27711 -5.54894 0
M  V30 3424 H 329.484 -2.79914 -5.83315 0
M  V30 3425 N 329.616 1.39756 -0.72842 0
M  V30 3426 C 330.526 2.34444 -0.0855374 0
M  V30 3427 C 331.542 1.57976 0.729356 0
M  V30 3428 O 332.718 1.90301 0.659346 0
M  V30 3429 C 329.783 3.36965 0.815798 0
M  V30 3430 C 328.844 4.29299 -0.0105996 0
M  V30 3431 C 328.077 5.26923 0.84781 0
M  V30 3432 O 328.3 5.30859 2.08673 0
M  V30 3433 O 327.234 6.01249 0.279969 0
M  V30 3434 H 331.06 2.91065 -0.866892 0
M  V30 3435 H 328.645 1.4117 -0.48902 0
M  V30 3436 H 330.527 3.99804 1.33171 0
M  V30 3437 H 329.202 2.82739 1.57608 0
M  V30 3438 H 328.109 3.69703 -0.571877 0
M  V30 3439 H 329.442 4.86712 -0.73295 0
M  V30 3440 N 331.094 0.475555 1.50254 0
M  V30 3441 C 332.342 -0.077738 2.0195 0
M  V30 3442 C 332.663 -1.39813 1.35931 0
M  V30 3443 O 331.933 -1.89249 0.506123 0
M  V30 3444 H 330.513 -0.031719 0.746326 0
M  V30 3445 H 333.175 0.626995 1.84539 0
M  V30 3446 H 332.271 -0.225995 3.11281 0
M  V30 3447 N 332.573 -1.56217 0.208337 0
M  V30 3448 C 333.819 -1.98242 -0.427552 0
M  V30 3449 C 334.152 -1.09554 -1.60348 0
M  V30 3450 O 333.427 -0.15035 -1.93918 0
M  V30 3451 C 333.71 -3.4931 -0.874907 0
M  V30 3452 C 333.563 -4.48773 0.303751 0
M  V30 3453 C 334.882 -4.04424 -1.73577 0
M  V30 3454 H 332.001 -0.720744 -0.153936 0
M  V30 3455 H 334.643 -1.87586 0.30192 0
M  V30 3456 H 332.793 -3.58522 -1.49648 0
M  V30 3457 H 334.465 -4.51586 0.941682 0
M  V30 3458 H 332.708 -4.23194 0.953375 0
M  V30 3459 H 333.379 -5.51976 -0.0519883 0
M  V30 3460 H 335.855 -3.98075 -1.21143 0
M  V30 3461 H 334.731 -5.1047 -2.01771 0
M  V30 3462 H 334.992 -3.50494 -2.69456 0
M  V30 3463 N 334.051 0.0651679 -1.57465 0
M  V30 3464 C 334.984 1.10876 -1.99453 0
M  V30 3465 C 335.962 1.37205 -0.872555 0
M  V30 3466 O 337.146 1.50468 -1.13542 0
M  V30 3467 C 334.273 2.45167 -2.3369 0
M  V30 3468 C 333.319 2.3493 -3.55964 0
M  V30 3469 S 334.152 1.73708 -5.06543 0
M  V30 3470 C 335.308 3.09563 -5.43987 0
M  V30 3471 H 335.541 0.750967 -2.87659 0
M  V30 3472 H 333.074 0.273933 -1.51951 0
M  V30 3473 H 335.032 3.22412 -2.54088 0
M  V30 3474 H 333.693 2.78105 -1.46001 0
M  V30 3475 H 332.886 3.3398 -3.77457 0
M  V30 3476 H 332.488 1.65823 -3.3523 0
M  V30 3477 H 334.78 4.05882 -5.42463 0
M  V30 3478 H 335.723 2.92843 -6.44708 0
M  V30 3479 H 336.131 3.10474 -4.71451 0
M  V30 3480 N 335.529 1.53961 0.336706 0
M  V30 3481 C 336.945 1.44378 0.680241 0
M  V30 3482 C 337.145 0.606034 1.9217 0
M  V30 3483 O 336.201 0.099688 2.52303 0
M  V30 3484 C 337.514 2.87945 0.8665 0
M  V30 3485 C 339.062 2.97763 0.964682 0
M  V30 3486 C 339.537 4.42453 1.18321 0
M  V30 3487 N 341.028 4.46008 1.25025 0
M  V30 3488 C 341.763 5.55102 1.43697 0
M  V30 3489 N 341.259 6.7419 1.59498 0
M  V30 3490 N 343.052 5.42727 1.463 0
M  V30 3491 H 335.203 2.06918 -0.479455 0
M  V30 3492 H 337.466 0.935634 -0.152619 0
M  V30 3493 H 337.172 3.51691 0.0256937 0
M  V30 3494 H 337.046 3.33293 1.76623 0
M  V30 3495 H 339.433 2.34153 1.796 0
M  V30 3496 H 339.514 2.55766 0.041708 0
M  V30 3497 H 339.158 5.06645 0.356788 0
M  V30 3498 H 339.088 4.82048 2.11985 0
M  V30 3499 H 341.579 3.60196 1.14312 0
M  V30 3500 H 341.892 7.53095 1.734 0
M  V30 3501 H 340.237 6.77123 1.56621 0
M  V30 3502 H 343.428 4.48647 1.33543 0
M  V30 3503 H 343.601 6.27806 1.6051 0
M  V30 3504 N 337.007 -0.598083 1.45811 0
M  V30 3505 C 337.955 -1.72932 1.55555 0
M  V30 3506 C 338.949 -1.63984 0.424921 0
M  V30 3507 O 340.155 -1.69663 0.601205 0
M  V30 3508 H 336.53 -0.571489 0.488779 0
M  V30 3509 H 338.501 -1.61842 2.50699 0
M  V30 3510 C 337.25 -3.11318 1.54843 0
M  V30 3511 H 336.573 -3.18867 2.41172 0
M  V30 3512 H 338.013 -3.90274 1.65717 0
M  V30 3513 C 336.472 -3.3578 0.274427 0
M  V30 3514 O 337.002 -3.9654 -0.641778 0
M  V30 3515 N 335.208 -2.90119 0.167139 0
M  V30 3516 H 334.755 -2.40855 0.913596 0
M  V30 3517 H 334.713 -3.0686 -0.684435 0
M  V30 3518 N 338.485 -1.33259 -0.841409 0
M  V30 3519 C 339.433 -1.23279 -1.97244 0
M  V30 3520 C 340.427 -0.134706 -1.68864 0
M  V30 3521 O 341.633 -0.298501 -1.77508 0
M  V30 3522 H 338.008 -0.382497 -0.647457 0
M  V30 3523 H 339.979 -2.18906 -2.02787 0
M  V30 3524 C 338.728 -0.986268 -3.33419 0
M  V30 3525 H 338.051 -1.82347 -3.55794 0
M  V30 3526 H 339.491 -0.956728 -4.13065 0
M  V30 3527 C 337.95 0.310842 -3.35463 0
M  V30 3528 O 338.48 1.31838 -3.79449 0
M  V30 3529 N 336.686 0.337485 -2.88634 0
M  V30 3530 H 336.233 -0.482967 -2.53032 0
M  V30 3531 H 336.191 1.20518 -2.90384 0
M  V30 3532 O 340.002 0.979171 -1.28431 0
M  V30 3533 H 340.693 1.60369 -1.08635 0
M  V30 END ATOM
M  V30 BEGIN BOND
M  V30 END BOND
M  V30 END CTAB
M  END
$$$$
