drugbank_drug|DB09045  Dulaglutide Sequence
 OpenBabel12092119123D

  0  0  0     0  0            999 V3000
M  V30 BEGIN CTAB
M  V30 COUNTS 4123 4180 0 0 0
M  V30 BEGIN ATOM
M  V30 1 H -0.908 1.98254 -0.117106 0
M  V30 2 N 0 1.576 0 0
M  V30 3 C 0.95 2.04904 0.999926 0
M  V30 4 C 1.934 0.943764 1.30315 0
M  V30 5 O 3.126 1.20753 1.29413 0
M  V30 6 C 0.255 2.55589 2.29192 0
M  V30 7 C -0.659 3.72993 2.01834 0
M  V30 8 N -0.268 4.8468 1.44635 0
M  V30 9 C -1.97 3.80924 2.31977 0
M  V30 10 C -1.269 5.66115 1.33747 0
M  V30 11 N -2.293 5.12118 1.82308 0
M  V30 12 H 1.509 2.88666 0.55217 0
M  V30 13 H -0.977 1.61092 0.205694 0
M  V30 14 H 1.02 2.87754 3.01668 0
M  V30 15 H -0.32 1.73245 2.7462 0
M  V30 16 H 0.691 5.0553 1.12516 0
M  V30 17 H -2.632 3.09434 2.8028 0
M  V30 18 H -1.242 6.65877 0.897654 0
M  V30 19 N 1.4781 -0.272755 1.55222 0
M  V30 20 C 2.7261 -1.00234 1.75492 0
M  V30 21 C 3.0471 -1.8681 0.5592 0
M  V30 22 O 2.3171 -1.91215 -0.425882 0
M  V30 23 H 0.8971 -0.373076 0.647166 0
M  V30 24 H 3.5591 -0.296926 1.92625 0
M  V30 25 H 2.6551 -1.63913 2.65592 0
M  V30 26 N 2.9562 -1.48159 -0.537278 0
M  V30 27 C 3.8662 -1.64807 -1.6696 0
M  V30 28 C 4.8822 -0.530651 -1.65711 0
M  V30 29 O 6.0582 -0.800784 -1.84796 0
M  V30 30 C 3.1232 -1.67708 -3.03438 0
M  V30 31 C 2.1842 -2.91025 -3.156 0
M  V30 32 C 1.4172 -2.93778 -4.45567 0
M  V30 33 O 1.6402 -2.05153 -5.3223 0
M  V30 34 O 0.5742 -3.85868 -4.61941 0
M  V30 35 H 4.4002 -2.6066 -1.55853 0
M  V30 36 H 1.9852 -1.31475 -0.709549 0
M  V30 37 H 3.8672 -1.7218 -3.84619 0
M  V30 38 H 2.5422 -0.750278 -3.14885 0
M  V30 39 H 1.4492 -2.92089 -2.33741 0
M  V30 40 H 2.7822 -3.83065 -3.09066 0
M  V30 41 N 4.4343 0.785586 -1.36625 0
M  V30 42 C 5.6823 1.54057 -1.30808 0
M  V30 43 C 6.0033 1.94683 0.111157 0
M  V30 44 O 5.2733 1.65241 1.05224 0
M  V30 45 H 3.8533 0.571354 -0.481211 0
M  V30 46 H 6.5153 0.935821 -1.70963 0
M  V30 47 H 5.6113 2.44637 -1.93801 0
M  V30 48 N 5.9124 1.20967 1.01018 0
M  V30 49 C 7.1404 1.04956 1.78303 0
M  V30 50 C 7.5554 -0.400915 1.84494 0
M  V30 51 O 6.9124 -1.27826 1.30257 0
M  V30 52 C 6.9634 1.63403 3.22462 0
M  V30 53 O 6.6844 3.02775 3.16637 0
M  V30 54 C 8.1854 1.52432 4.16268 0
M  V30 55 H 5.4054 0.368858 0.560522 0
M  V30 56 H 7.9494 1.60193 1.27116 0
M  V30 57 H 6.1044 1.1227 3.70775 0
M  V30 58 H 6.5184 3.30626 4.07169 0
M  V30 59 H 7.9924 1.98078 5.15237 0
M  V30 60 H 8.4694 0.477875 4.36592 0
M  V30 61 H 9.0754 2.02787 3.73841 0
M  V30 62 N 7.3905 -1.2043 1.01659 0
M  V30 63 C 8.6375 -1.89797 0.705917 0
M  V30 64 C 8.9655 -1.78848 -0.764439 0
M  V30 65 O 8.2205 -1.16694 -1.57102 0
M  V30 66 C 8.5195 -3.40464 1.08714 0
M  V30 67 C 8.1855 -3.71614 2.5537 0
M  V30 68 C 6.8475 -3.79826 2.95441 0
M  V30 69 C 9.1995 -3.85915 3.50313 0
M  V30 70 C 6.5275 -3.99797 4.29394 0
M  V30 71 C 8.8795 -4.07396 4.83954 0
M  V30 72 C 7.5435 -4.13837 5.23732 0
M  V30 73 H 6.8135 -0.694518 0.258313 0
M  V30 74 H 9.4605 -1.42691 1.27717 0
M  V30 75 H 7.7655 -3.89385 0.434309 0
M  V30 76 H 9.4625 -3.92433 0.824461 0
M  V30 77 H 6.0525 -3.65822 2.23321 0
M  V30 78 H 10.2365 -3.78926 3.20513 0
M  V30 79 H 5.4925 -4.03018 4.59768 0
M  V30 80 H 9.6665 -4.17404 5.57447 0
M  V30 81 H 7.2935 -4.29064 6.27541 0
M  V30 82 N 8.8686 -0.792821 -1.36206 0
M  V30 83 C 10.0966 -0.378825 -2.03402 0
M  V30 84 C 10.5116 1.00586 -1.59774 0
M  V30 85 O 9.8686 1.64574 -0.788764 0
M  V30 86 C 9.9196 -0.43683 -3.58851 0
M  V30 87 O 9.6406 -1.76691 -4.00889 0
M  V30 88 C 11.1416 -0.0138943 -4.43298 0
M  V30 89 H 8.3616 -0.155673 -0.652692 0
M  V30 90 H 10.9056 -1.07261 -1.74113 0
M  V30 91 H 9.0606 0.208575 -3.86838 0
M  V30 92 H 9.4746 -1.72011 -4.95492 0
M  V30 93 H 10.9486 -0.105615 -5.51899 0
M  V30 94 H 11.4256 1.03915 -4.2673 0
M  V30 95 H 12.0316 -0.63192 -4.20579 0
M  V30 96 N 10.3467 1.47872 -0.545128 0
M  V30 97 C 11.5717 2.07391 -0.0190611 0
M  V30 98 C 11.9967 1.39688 1.25971 0
M  V30 99 O 11.3547 0.467816 1.7516 0
M  V30 100 C 11.4027 3.60188 0.172335 0
M  V30 101 O 10.5067 3.9339 1.23766 0
M  V30 102 H 9.8477 0.662411 -0.0459059 0
M  V30 103 H 12.3777 1.90066 -0.757365 0
M  V30 104 H 12.3877 4.06129 0.390305 0
M  V30 105 H 11.0627 4.08865 -0.761725 0
M  V30 106 H 9.6397 3.5921 1.00114 0
M  V30 107 N 11.8248 0.280983 1.55075 0
M  V30 108 C 13.1018 -0.386207 1.91749 0
M  V30 109 C 13.4818 -1.73264 1.20594 0
M  V30 110 O 12.8298 -2.26034 0.334784 0
M  V30 111 C 13.0398 -0.520687 3.45094 0
M  V30 112 C 14.3878 -0.800865 4.16979 0
M  V30 113 O 15.4118 -0.605271 3.5102 0
M  V30 114 O 14.2708 -1.1753 5.33712 0
M  V30 115 H 11.3648 -0.212408 0.799257 0
M  V30 116 H 13.9108 0.327568 1.66509 0
M  V30 117 H 12.6828 0.426633 3.88967 0
M  V30 118 H 12.3058 -1.2837 3.76307 0
M  V30 119 N 13.3029 -1.57598 0.00835791 0
M  V30 120 C 14.5489 -1.91211 -0.675732 0
M  V30 121 C 14.8819 -0.883139 -1.72958 0
M  V30 122 O 14.1569 0.097016 -1.94258 0
M  V30 123 C 14.4399 -3.35379 -1.31123 0
M  V30 124 C 14.2929 -4.48999 -0.268356 0
M  V30 125 C 15.6119 -3.7912 -2.23508 0
M  V30 126 H 12.7309 -0.695374 -0.244179 0
M  V30 127 H 15.3729 -1.89901 0.0613655 0
M  V30 128 H 13.5229 -3.36626 -1.93946 0
M  V30 129 H 15.1949 -4.59887 0.360844 0
M  V30 130 H 13.4379 -4.31873 0.408482 0
M  V30 131 H 14.1089 -5.46851 -0.752218 0
M  V30 132 H 16.5849 -3.79477 -1.70693 0
M  V30 133 H 15.4609 -4.80729 -2.64936 0
M  V30 134 H 15.7219 -3.13455 -3.11766 0
M  V30 135 N 14.781 0.264519 -1.55364 0
M  V30 136 C 16.006 1.01726 -1.80739 0
M  V30 137 C 16.431 1.78836 -0.583044 0
M  V30 138 O 15.789 1.75167 0.467566 0
M  V30 139 C 15.837 1.94482 -3.03659 0
M  V30 140 O 14.941 3.03386 -2.7934 0
M  V30 141 H 14.282 0.290395 -0.597132 0
M  V30 142 H 16.812 0.290854 -2.02522 0
M  V30 143 H 16.822 2.36278 -3.32621 0
M  V30 144 H 15.497 1.37772 -3.92418 0
M  V30 145 H 14.074 2.65844 -2.61498 0
M  V30 146 N 16.2591 1.48442 0.529413 0
M  V30 147 C 17.4841 1.60406 1.31471 0
M  V30 148 C 17.9091 0.264738 1.86228 0
M  V30 149 O 17.2671 -0.763668 1.64432 0
M  V30 150 C 17.3151 2.65419 2.44101 0
M  V30 151 O 16.4191 2.22618 3.47153 0
M  V30 152 H 15.7601 0.537863 0.389357 0
M  V30 153 H 18.2901 1.94432 0.636965 0
M  V30 154 H 18.3001 2.86709 2.90279 0
M  V30 155 H 16.9751 3.62652 2.03608 0
M  V30 156 H 15.5521 2.11543 3.0709 0
M  V30 157 N 17.7372 -0.778329 1.37039 0
M  V30 158 C 18.9672 -1.56507 1.34868 0
M  V30 159 C 19.3752 -1.89072 -0.0694802 0
M  V30 160 O 18.7182 -1.51434 -1.03987 0
M  V30 161 C 18.7802 -2.90641 2.11585 0
M  V30 162 C 18.4442 -2.80746 3.60598 0
M  V30 163 C 19.4412 -2.52226 4.54618 0
M  V30 164 C 17.1262 -2.98974 4.03633 0
M  V30 165 C 19.1202 -2.42054 5.89651 0
M  V30 166 C 16.8072 -2.88423 5.38754 0
M  V30 167 C 17.8052 -2.60002 6.31576 0
M  V30 168 O 17.4932 -2.49465 7.64214 0
M  V30 169 H 17.2252 -0.491723 0.463879 0
M  V30 170 H 19.7792 -0.973053 1.80889 0
M  V30 171 H 18.0092 -3.51936 1.60243 0
M  V30 172 H 19.6982 -3.51992 2.0213 0
M  V30 173 H 20.4642 -2.37835 4.22681 0
M  V30 174 H 16.3432 -3.20099 3.31749 0
M  V30 175 H 19.8872 -2.19791 6.62071 0
M  V30 176 H 15.7842 -3.0238 5.70295 0
M  V30 177 H 16.5522 -2.64864 7.74461 0
M  V30 178 N 19.2153 -1.21501 -1.00376 0
M  V30 179 C 20.1453 -0.999478 -2.11028 0
M  V30 180 C 21.1263 0.0759671 -1.6993 0
M  V30 181 O 22.3113 -0.0841106 -1.94018 0
M  V30 182 C 19.4413 -0.564709 -3.42678 0
M  V30 183 C 18.3953 -1.58486 -3.97576 0
M  V30 184 C 17.7213 -1.00628 -5.25146 0
M  V30 185 C 19.0213 -2.97204 -4.29496 0
M  V30 186 H 20.7153 -1.92495 -2.29317 0
M  V30 187 H 18.2613 -0.92693 -1.102 0
M  V30 188 H 20.2143 -0.401091 -4.19487 0
M  V30 189 H 18.9383 0.396411 -3.24185 0
M  V30 190 H 17.5973 -1.73606 -3.22888 0
M  V30 191 H 17.2453 -0.0368439 -5.02987 0
M  V30 192 H 16.9453 -1.68771 -5.62841 0
M  V30 193 H 18.4693 -0.854015 -6.04598 0
M  V30 194 H 19.8833 -2.8552 -4.97143 0
M  V30 195 H 18.2803 -3.62372 -4.78338 0
M  V30 196 H 19.3503 -3.47956 -3.3772 0
M  V30 197 N 20.6934 1.19889 -1.02296 0
M  V30 198 C 21.6034 2.26571 -0.608508 0
M  V30 199 C 22.6194 1.70299 0.356964 0
M  V30 200 O 23.7954 2.00235 0.216326 0
M  V30 201 C 20.8604 3.46677 0.0402814 0
M  V30 202 C 19.9214 4.18153 -0.97194 0
M  V30 203 C 19.1544 5.32525 -0.354016 0
M  V30 204 O 19.3774 5.64112 0.844604 0
M  V30 205 O 18.3114 5.92242 -1.07391 0
M  V30 206 H 22.1374 2.64251 -1.49684 0
M  V30 207 H 19.7224 1.26629 -0.792809 0
M  V30 208 H 21.6044 4.19475 0.402324 0
M  V30 209 H 20.2794 3.10858 0.902707 0
M  V30 210 H 19.1864 3.47499 -1.38546 0
M  V30 211 H 20.5194 4.57927 -1.80454 0
M  V30 212 N 22.1715 0.800033 1.35784 0
M  V30 213 C 23.0815 0.207204 2.33683 0
M  V30 214 C 24.0975 -0.64631 1.61551 0
M  V30 215 O 25.2735 -0.559604 1.93469 0
M  V30 216 C 22.3385 -0.639659 3.40748 0
M  V30 217 C 21.3995 0.233585 4.28664 0
M  V30 218 C 20.6325 -0.572954 5.30616 0
M  V30 219 O 20.8555 -1.80816 5.40982 0
M  V30 220 O 19.7895 0.0327285 6.01891 0
M  V30 221 H 23.6155 1.01692 2.86169 0
M  V30 222 H 21.2005 0.561691 1.38439 0
M  V30 223 H 23.0825 -1.12223 4.06182 0
M  V30 224 H 21.7575 -1.42708 2.90544 0
M  V30 225 H 20.6645 0.763147 3.66233 0
M  V30 226 H 21.9975 0.984784 4.82248 0
M  V30 227 N 23.6496 -1.47581 0.552962 0
M  V30 228 C 24.5816 -2.27997 -0.234533 0
M  V30 229 C 25.5946 -1.36753 -0.883321 0
M  V30 230 O 26.7836 -1.61612 -0.757889 0
M  V30 231 C 23.8836 -3.10879 -1.34935 0
M  V30 232 C 23.0566 -4.30056 -0.798158 0
M  V30 233 C 22.1156 -4.94567 -1.79694 0
M  V30 234 O 21.1416 -5.53087 -1.34474 0
M  V30 235 N 22.3436 -4.88878 -3.13015 0
M  V30 236 H 25.1086 -2.96222 0.455255 0
M  V30 237 H 22.6696 -1.57163 0.388761 0
M  V30 238 H 24.6616 -3.50903 -2.01616 0
M  V30 239 H 23.2316 -2.44924 -1.94244 0
M  V30 240 H 22.4516 -3.94174 0.0453079 0
M  V30 241 H 23.7396 -5.07152 -0.409173 0
M  V30 242 H 23.1376 -4.42526 -3.52402 0
M  V30 243 H 21.6946 -5.32934 -3.75266 0
M  V30 244 N 25.1277 -0.289203 -1.54924 0
M  V30 245 C 26.0907 0.579144 -2.21762 0
M  V30 246 C 27.0907 1.07047 -1.1999 0
M  V30 247 O 28.2807 0.968384 -1.44803 0
M  V30 248 C 25.4127 1.80055 -2.8947 0
M  V30 249 H 26.6057 -0.00464908 -2.999 0
M  V30 250 H 24.1587 -0.0399306 -1.56249 0
M  V30 251 H 24.8937 2.42449 -2.15381 0
M  V30 252 H 24.6787 1.45602 -3.64064 0
M  V30 253 H 26.1687 2.41773 -3.40493 0
M  V30 254 N 26.6058 1.57591 -0.0167156 0
M  V30 255 C 27.5688 2.08393 0.954204 0
M  V30 256 C 28.5688 0.996531 1.26198 0
M  V30 257 O 29.7588 1.25858 1.20438 0
M  V30 258 C 26.8908 2.5394 2.27436 0
M  V30 259 H 28.0838 2.95455 0.514451 0
M  V30 260 H 25.6368 1.54582 0.231089 0
M  V30 261 H 26.3718 1.70171 2.76066 0
M  V30 262 H 26.1568 3.33371 2.06412 0
M  V30 263 H 27.6468 2.93512 2.97053 0
M  V30 264 N 28.0839 -0.256276 1.55502 0
M  V30 265 C 29.0309 -1.31714 1.89526 0
M  V30 266 C 30.0009 -1.4828 0.748479 0
M  V30 267 O 31.1859 -1.62416 1.00128 0
M  V30 268 C 28.3259 -2.66933 2.18725 0
M  V30 269 C 27.4389 -2.58452 3.4616 0
M  V30 270 C 26.5739 -3.85961 3.64976 0
M  V30 271 C 25.6129 -3.72059 4.86044 0
M  V30 272 N 24.7499 -4.9144 5.01429 0
M  V30 273 H 29.5899 -1.01998 2.80001 0
M  V30 274 H 27.1269 -0.492413 1.38613 0
M  V30 275 H 29.0849 -3.4563 2.33657 0
M  V30 276 H 27.7149 -2.94816 1.31466 0
M  V30 277 H 26.7669 -1.71374 3.3961 0
M  V30 278 H 28.0789 -2.44085 4.34999 0
M  V30 279 H 27.2329 -4.73101 3.79816 0
M  V30 280 H 25.9719 -4.03215 2.74353 0
M  V30 281 H 24.9769 -2.83302 4.7119 0
M  V30 282 H 26.2019 -3.56309 5.78118 0
M  V30 283 H 24.1479 -5.09072 4.13741 0
M  V30 284 H 24.0649 -4.79668 5.84341 0
M  V30 285 H 25.3329 -5.80104 5.20672 0
M  V30 286 N 29.562 -1.4872 -0.521534 0
M  V30 287 C 30.472 -1.66569 -1.65203 0
M  V30 288 C 31.488 -0.548197 -1.65139 0
M  V30 289 O 32.664 -0.820339 -1.83936 0
M  V30 290 C 29.729 -1.70917 -3.01642 0
M  V30 291 C 28.79 -2.94356 -3.12495 0
M  V30 292 C 28.023 -2.98487 -4.42426 0
M  V30 293 O 28.246 -2.10786 -5.30024 0
M  V30 294 O 27.18 -3.90746 -4.57822 0
M  V30 295 H 31.006 -2.62298 -1.5308 0
M  V30 296 H 28.591 -1.3222 -0.695565 0
M  V30 297 H 30.473 -1.7625 -3.82771 0
M  V30 298 H 29.148 -0.783633 -3.14071 0
M  V30 299 H 28.055 -2.94552 -2.3063 0
M  V30 300 H 29.388 -3.86322 -3.04986 0
M  V30 301 N 31.0401 0.771051 -1.3745 0
M  V30 302 C 32.2871 1.52963 -1.32697 0
M  V30 303 C 32.6151 1.94299 0.0883274 0
M  V30 304 O 31.8701 1.64397 1.0617 0
M  V30 305 C 32.1691 2.80676 -2.2126 0
M  V30 306 C 31.8351 2.58389 -3.69521 0
M  V30 307 C 30.4971 2.52019 -4.09927 0
M  V30 308 C 32.8491 2.38469 -4.63446 0
M  V30 309 C 30.1771 2.23721 -5.42371 0
M  V30 310 C 32.5291 2.11694 -5.96128 0
M  V30 311 C 31.1931 2.03769 -6.35637 0
M  V30 312 H 30.4631 0.559732 -0.485573 0
M  V30 313 H 33.1101 0.888083 -1.69662 0
M  V30 314 H 31.4151 3.49392 -1.77291 0
M  V30 315 H 33.1121 3.38557 -2.14895 0
M  V30 316 H 29.7021 2.6421 -3.37478 0
M  V30 317 H 33.8861 2.4238 -4.33089 0
M  V30 318 H 29.1421 2.16081 -5.71943 0
M  V30 319 H 33.3161 1.9528 -6.6846 0
M  V30 320 H 30.9431 1.81606 -7.38189 0
M  V30 321 N 32.5182 1.22032 0.997298 0
M  V30 322 C 33.7672 1.03637 1.73038 0
M  V30 323 C 34.0802 -0.429475 1.90827 0
M  V30 324 O 35.2862 -0.732995 2.61418 0
M  V30 325 C 33.7422 1.80582 3.11317 0
M  V30 326 C 33.3502 3.31387 3.01474 0
M  V30 327 C 35.0942 1.70621 3.88701 0
M  V30 328 C 33.0012 4.00791 4.3488 0
M  V30 329 H 31.9312 0.384179 0.648785 0
M  V30 330 H 34.5822 1.4584 1.11368 0
M  V30 331 H 32.9642 1.31175 3.73643 0
M  V30 332 H 34.1382 3.88155 2.4834 0
M  V30 333 H 32.4532 3.41976 2.37575 0
M  V30 334 H 35.0502 2.19799 4.87434 0
M  V30 335 H 35.3932 0.665823 4.10941 0
M  V30 336 H 35.9262 2.17547 3.33044 0
M  V30 337 H 32.6652 5.05064 4.1784 0
M  V30 338 H 32.1852 3.48811 4.87945 0
M  V30 339 H 33.8642 4.06139 5.03647 0
M  V30 340 N 33.9963 -1.19345 1.0293 0
M  V30 341 C 34.9593 -2.20793 0.615069 0
M  V30 342 C 35.9593 -1.57553 -0.321533 0
M  V30 343 O 37.1493 -1.73862 -0.108483 0
M  V30 344 C 34.2813 -3.40754 -0.0999222 0
M  V30 345 H 35.4743 -2.58955 1.51269 0
M  V30 346 H 33.0273 -1.3303 0.820534 0
M  V30 347 H 33.7623 -3.0811 -1.01187 0
M  V30 348 H 33.5473 -3.87889 0.57309 0
M  V30 349 H 35.0373 -4.15898 -0.376645 0
M  V30 350 N 35.4744 -0.807222 -1.35358 0
M  V30 351 C 36.7204 -0.397594 -1.99476 0
M  V30 352 C 37.0754 1.02405 -1.62883 0
M  V30 353 O 36.3684 1.70077 -0.882282 0
M  V30 354 C 36.5624 -0.519036 -3.53611 0
M  V30 355 C 36.3914 -1.95094 -4.05177 0
M  V30 356 C 35.1614 -2.57945 -4.34503 0
M  V30 357 C 37.3594 -2.91558 -4.23673 0
M  V30 358 N 35.3414 -3.92539 -4.72003 0
M  V30 359 C 36.7124 -4.11024 -4.64176 0
M  V30 360 C 38.7674 -2.88381 -4.05883 0
M  V30 361 C 37.4704 -5.27745 -4.88751 0
M  V30 362 C 39.4964 -4.04306 -4.31614 0
M  V30 363 C 38.8584 -5.22519 -4.72391 0
M  V30 364 H 34.9574 -0.193274 -0.75774 0
M  V30 365 H 37.5414 -1.0486 -1.6405 0
M  V30 366 H 35.7124 0.101979 -3.88266 0
M  V30 367 H 37.4444 -0.0839321 -4.04613 0
M  V30 368 H 34.1994 -2.09295 -4.24844 0
M  V30 369 H 34.6234 -4.61836 -4.95011 0
M  V30 370 H 39.2654 -1.98137 -3.73499 0
M  V30 371 H 36.9834 -6.1856 -5.20008 0
M  V30 372 H 40.5694 -4.03229 -4.19402 0
M  V30 373 H 39.4494 -6.1073 -4.91913 0
M  V30 374 N 36.9525 1.47285 -0.560781 0
M  V30 375 C 37.8825 2.32857 0.173105 0
M  V30 376 C 38.8635 1.44009 0.905281 0
M  V30 377 O 40.0485 1.7286 0.885046 0
M  V30 378 C 37.1785 3.25861 1.20133 0
M  V30 379 C 36.1325 4.23978 0.585388 0
M  V30 380 C 35.4585 5.06332 1.7185 0
M  V30 381 C 36.7585 5.20242 -0.463178 0
M  V30 382 H 38.4525 2.94466 -0.541307 0
M  V30 383 H 35.9985 1.41601 -0.261764 0
M  V30 384 H 37.9515 3.84569 1.72293 0
M  V30 385 H 36.6755 2.62315 1.94573 0
M  V30 386 H 35.3345 3.66501 0.085054 0
M  V30 387 H 34.9825 4.39186 2.45203 0
M  V30 388 H 34.6825 5.72762 1.31213 0
M  V30 389 H 36.2065 5.67899 2.24329 0
M  V30 390 H 37.6205 5.73293 -0.027502 0
M  V30 391 H 36.0175 5.94896 -0.788627 0
M  V30 392 H 37.0875 4.65504 -1.35773 0
M  V30 393 N 38.4306 0.297415 1.54768 0
M  V30 394 C 39.6766 -0.313376 2.00364 0
M  V30 395 C 40.0096 -1.53815 1.18553 0
M  V30 396 O 39.2846 -1.92739 0.261103 0
M  V30 397 C 39.5676 -0.673525 3.53745 0
M  V30 398 C 39.4206 0.560133 4.46299 0
M  V30 399 C 40.7396 -1.50143 4.13697 0
M  V30 400 H 37.8586 -0.112428 0.728374 0
M  V30 401 H 40.5006 0.4088 1.8555 0
M  V30 402 H 38.6506 -1.28881 3.665 0
M  V30 403 H 40.3226 1.19863 4.45455 0
M  V30 404 H 38.5656 1.19405 4.17043 0
M  V30 405 H 39.2366 0.26405 5.51368 0
M  V30 406 H 41.7126 -0.981588 4.04356 0
M  V30 407 H 40.5886 -1.72221 5.21182 0
M  V30 408 H 40.8496 -2.48952 3.65343 0
M  V30 409 N 39.9087 -1.5758 0.0250728 0
M  V30 410 C 40.8557 -2.09973 -0.958129 0
M  V30 411 C 41.8257 -1.00085 -1.3256 0
M  V30 412 O 43.0107 -1.27481 -1.41962 0
M  V30 413 C 40.1507 -2.62812 -2.2366 0
M  V30 414 C 39.2637 -3.86693 -1.92594 0
M  V30 415 C 38.3987 -4.27941 -3.14707 0
M  V30 416 C 37.4377 -5.44591 -2.79442 0
M  V30 417 N 36.5747 -5.81014 -3.94167 0
M  V30 418 H 41.4147 -2.937 -0.504428 0
M  V30 419 H 38.9517 -1.45172 -0.237392 0
M  V30 420 H 40.9097 -2.91536 -2.98434 0
M  V30 421 H 39.5397 -1.81922 -2.66654 0
M  V30 422 H 38.5917 -3.64723 -1.0808 0
M  V30 423 H 39.9037 -4.71547 -1.62619 0
M  V30 424 H 39.0577 -4.58079 -3.97804 0
M  V30 425 H 37.7967 -3.41845 -3.4784 0
M  V30 426 H 36.8017 -5.1415 -1.94755 0
M  V30 427 H 38.0267 -6.32382 -2.47528 0
M  V30 428 H 35.9727 -4.97874 -4.2715 0
M  V30 429 H 35.8897 -6.60498 -3.67801 0
M  V30 430 H 37.1577 -6.15756 -4.7798 0
M  V30 431 N 41.3868 0.248026 -1.55636 0
M  V30 432 C 42.6348 0.974295 -1.77065 0
M  V30 433 C 42.9558 1.85897 -0.588849 0
M  V30 434 O 42.2258 1.91868 0.395407 0
M  V30 435 H 40.8058 0.362733 -0.653019 0
M  V30 436 H 43.4678 0.266244 -1.93073 0
M  V30 437 H 42.5638 1.59667 -2.68166 0
M  V30 438 N 42.8649 1.48995 0.513639 0
M  V30 439 C 44.1129 1.57531 1.26604 0
M  V30 440 C 44.4339 0.258236 1.93283 0
M  V30 441 O 43.7039 -0.721502 1.8213 0
M  V30 442 H 42.2839 0.580387 0.470276 0
M  V30 443 H 44.9459 1.85552 0.596373 0
M  V30 444 H 44.0419 2.36486 2.03669 0
M  V30 445 N 44.343 -0.763751 1.37857 0
M  V30 446 C 45.591 -1.51957 1.33243 0
M  V30 447 C 45.912 -1.94835 -0.0801709 0
M  V30 448 O 45.182 -1.66894 -1.02582 0
M  V30 449 H 43.762 -0.563626 0.49024 0
M  V30 450 H 46.424 -0.908504 1.7243 0
M  V30 451 H 45.52 -2.41523 1.97669 0
M  V30 452 N 45.8211 -1.22559 -0.990812 0
M  V30 453 C 47.0691 -1.04933 -1.72724 0
M  V30 454 C 47.3901 0.416158 -1.90508 0
M  V30 455 O 46.6601 1.29918 -1.46622 0
M  V30 456 H 45.2401 -0.385296 -0.639965 0
M  V30 457 H 47.9021 -1.54105 -1.19322 0
M  V30 458 H 46.9981 -1.52886 -2.72089 0
M  V30 459 N 47.2992 1.18797 -1.03562 0
M  V30 460 C 48.5472 1.88278 -0.734569 0
M  V30 461 C 48.8682 1.8043 0.739586 0
M  V30 462 O 48.1382 1.21925 1.53333 0
M  V30 463 H 46.7182 0.696991 -0.268725 0
M  V30 464 H 49.3802 1.44192 -1.31129 0
M  V30 465 H 48.4762 2.94443 -1.03489 0
M  V30 466 N 48.7773 0.814389 1.34928 0
M  V30 467 C 50.0253 0.397636 1.9815 0
M  V30 468 C 50.3463 -1.04069 1.64908 0
M  V30 469 O 49.6163 -1.72121 0.93548 0
M  V30 470 H 48.1963 0.144043 0.732981 0
M  V30 471 H 50.8583 1.04195 1.6471 0
M  V30 472 H 49.9543 0.509688 3.0791 0
M  V30 473 N 50.2554 -1.46986 0.568584 0
M  V30 474 C 51.5034 -2.02041 0.0487022 0
M  V30 475 C 51.8244 -1.44408 -1.31039 0
M  V30 476 O 51.0944 -0.623477 -1.85714 0
M  V30 477 H 49.6744 -0.746849 0.015014 0
M  V30 478 H 52.3364 -1.80257 0.741168 0
M  V30 479 H 51.4324 -3.12085 -0.0308961 0
M  V30 480 N 51.7335 -0.305618 -1.54608 0
M  V30 481 C 52.9585 0.307562 -2.05107 0
M  V30 482 C 53.3835 1.46385 -1.18123 0
M  V30 483 O 52.7415 1.8034 -0.186324 0
M  V30 484 C 52.7895 0.73704 -3.52987 0
M  V30 485 O 51.8935 1.84134 -3.6901 0
M  V30 486 H 51.2345 0.0589143 -0.661381 0
M  V30 487 H 53.7645 -0.448807 -1.99617 0
M  V30 488 H 53.7745 1.02459 -3.94925 0
M  V30 489 H 52.4495 -0.108773 -4.15758 0
M  V30 490 H 51.0265 1.55398 -3.38978 0
M  V30 491 N 53.2116 1.57565 -0.0334293 0
M  V30 492 C 54.4596 1.91598 0.642999 0
M  V30 493 C 54.7806 0.910847 1.7242 0
M  V30 494 O 54.0506 -0.0469931 1.95844 0
M  V30 495 H 52.6306 0.707228 0.240496 0
M  V30 496 H 55.2926 1.94726 -0.0822488 0
M  V30 497 H 54.3886 2.92336 1.09298 0
M  V30 498 N 54.6897 -0.239769 1.55765 0
M  V30 499 C 55.9377 -0.964892 1.77579 0
M  V30 500 C 56.2587 -1.85582 0.598699 0
M  V30 501 O 55.5287 -1.92075 -0.385226 0
M  V30 502 H 54.1087 -0.359265 0.654933 0
M  V30 503 H 56.7707 -0.256001 1.93211 0
M  V30 504 H 55.8667 -1.58243 2.69009 0
M  V30 505 N 56.1678 -1.49265 -0.50573 0
M  V30 506 C 57.4158 -1.582 -1.25766 0
M  V30 507 C 57.7368 -0.268482 -1.93143 0
M  V30 508 O 57.0068 0.711833 -1.8251 0
M  V30 509 H 55.5868 -0.582873 -0.467191 0
M  V30 510 H 58.2488 -1.85865 -0.586525 0
M  V30 511 H 57.3448 -2.37563 -2.02412 0
M  V30 512 N 57.6459 0.756429 -1.3826 0
M  V30 513 C 58.8939 1.51248 -1.34047 0
M  V30 514 C 59.2149 1.94875 0.0698372 0
M  V30 515 O 58.4849 1.67436 1.01696 0
M  V30 516 H 57.0649 0.561018 -0.493222 0
M  V30 517 H 59.7269 0.899347 -1.7291 0
M  V30 518 H 58.8229 2.40472 -1.98947 0
M  V30 519 N 59.124 1.23083 0.984299 0
M  V30 520 C 60.349 1.088 1.76571 0
M  V30 521 C 60.774 -0.356657 1.84688 0
M  V30 522 O 60.132 -1.25788 1.30565 0
M  V30 523 C 60.18 1.71371 3.17277 0
M  V30 524 O 59.284 0.973213 4.00752 0
M  V30 525 H 58.625 0.381599 0.543395 0
M  V30 526 H 61.155 1.63057 1.23587 0
M  V30 527 H 61.165 1.76449 3.67872 0
M  V30 528 H 59.84 2.76493 3.10684 0
M  V30 529 H 58.417 0.999078 3.59267 0
M  V30 530 N 60.6021 -1.18246 1.0419 0
M  V30 531 C 61.8501 -1.87886 0.744543 0
M  V30 532 C 62.1711 -1.8082 -0.730006 0
M  V30 533 O 61.4411 -1.22736 -1.52685 0
M  V30 534 H 60.0211 -0.695556 0.272417 0
M  V30 535 H 62.6831 -1.43494 1.31892 0
M  V30 536 H 61.7791 -2.9389 1.05049 0
M  V30 537 N 62.0802 -0.821533 -1.34494 0
M  V30 538 C 63.3282 -0.408139 -1.97936 0
M  V30 539 C 63.6492 1.03193 -1.65457 0
M  V30 540 O 62.9192 1.71622 -0.944595 0
M  V30 541 H 61.4992 -0.147928 -0.732206 0
M  V30 542 H 64.1612 -1.05067 -1.64155 0
M  V30 543 H 63.2572 -0.52601 -3.07635 0
M  V30 544 N 63.5583 1.46682 -0.576371 0
M  V30 545 C 64.8063 2.02013 -0.0594163 0
M  V30 546 C 65.1273 1.45101 1.30271 0
M  V30 547 O 64.3973 0.633317 1.8538 0
M  V30 548 H 62.9773 0.746759 -0.0189745 0
M  V30 549 H 65.6393 1.79862 -0.750717 0
M  V30 550 H 64.7353 3.12097 0.014345 0
M  V30 551 N 65.0364 0.313813 1.54444 0
M  V30 552 C 66.2844 -0.291099 1.99993 0
M  V30 553 C 66.6054 -1.53418 1.20366 0
M  V30 554 O 65.8754 -1.93544 0.302927 0
M  V30 555 H 64.4554 -0.110552 0.738774 0
M  V30 556 H 67.1174 0.428106 1.9014 0
M  V30 557 H 66.2134 -0.554268 3.07139 0
M  V30 558 N 66.5145 -1.57545 0.0417849 0
M  V30 559 C 67.7395 -1.97035 -0.647455 0
M  V30 560 C 68.1645 -0.918775 -1.64135 0
M  V30 561 O 67.5225 0.119006 -1.80909 0
M  V30 562 C 67.5705 -3.35609 -1.31905 0
M  V30 563 O 66.6745 -3.3287 -2.43457 0
M  V30 564 H 66.0155 -0.64211 -0.169086 0
M  V30 565 H 68.5455 -2.04318 0.107399 0
M  V30 566 H 68.5555 -3.72126 -1.67291 0
M  V30 567 H 67.2305 -4.11685 -0.590586 0
M  V30 568 H 65.8075 -3.08087 -2.10088 0
M  V30 569 N 67.9926 0.231505 -1.5589 0
M  V30 570 C 68.9556 1.27028 -1.90779 0
M  V30 571 C 69.9556 1.40308 -0.785507 0
M  V30 572 O 71.1456 1.38744 -1.05336 0
M  V30 573 C 68.2776 2.64566 -2.14983 0
M  V30 574 H 69.4706 0.973017 -2.83677 0
M  V30 575 H 67.0236 0.471486 -1.49019 0
M  V30 576 H 67.7586 2.99406 -1.24604 0
M  V30 577 H 67.5436 2.56305 -2.96732 0
M  V30 578 H 69.0336 3.39543 -2.43105 0
M  V30 579 N 69.4707 1.49531 0.497807 0
M  V30 580 C 70.3807 1.69176 1.62532 0
M  V30 581 C 71.3967 0.5744 1.64246 0
M  V30 582 O 72.5727 0.849497 1.82608 0
M  V30 583 C 69.6377 1.75695 2.98885 0
M  V30 584 C 68.6987 2.9929 3.07773 0
M  V30 585 C 67.9317 3.05488 4.37622 0
M  V30 586 O 68.1547 2.19192 5.26603 0
M  V30 587 O 67.0887 3.9798 4.51548 0
M  V30 588 H 70.9147 2.647 1.48887 0
M  V30 589 H 68.4997 1.3331 0.674441 0
M  V30 590 H 70.3817 1.82317 3.79919 0
M  V30 591 H 69.0567 0.8335 3.12785 0
M  V30 592 H 67.9637 2.98183 2.25915 0
M  V30 593 H 69.2967 3.91125 2.98801 0
M  V30 594 N 70.9488 -0.749086 1.3866 0
M  V30 595 C 72.1738 -1.54344 1.38538 0
M  V30 596 C 72.5988 -1.88088 -0.0216655 0
M  V30 597 O 71.9568 -1.50899 -1.00494 0
M  V30 598 C 72.0048 -2.8164 2.25192 0
M  V30 599 O 71.1088 -3.7698 1.67212 0
M  V30 600 H 70.4498 -0.466654 0.472367 0
M  V30 601 H 72.9798 -0.925355 1.82478 0
M  V30 602 H 72.9898 -3.30519 2.3921 0
M  V30 603 H 71.6648 -2.56411 3.27454 0
M  V30 604 H 70.2418 -3.35699 1.6236 0
M  V30 605 N 72.4269 -1.23603 -0.977757 0
M  V30 606 C 73.3739 -1.01954 -2.07061 0
M  V30 607 C 74.3439 0.0638697 -1.65977 0
M  V30 608 O 75.5289 -0.0887624 -1.90593 0
M  V30 609 C 72.6689 -0.619658 -3.39491 0
M  V30 610 C 71.7819 -1.77547 -3.93829 0
M  V30 611 C 70.9169 -1.32212 -5.14484 0
M  V30 612 C 69.9559 -2.44852 -5.60994 0
M  V30 613 N 69.0929 -2.00456 -6.72876 0
M  V30 614 H 73.9329 -1.95495 -2.24913 0
M  V30 615 H 71.4699 -0.973861 -1.10247 0
M  V30 616 H 73.4279 -0.368898 -4.15566 0
M  V30 617 H 72.0579 0.278752 -3.21594 0
M  V30 618 H 71.1099 -2.14016 -3.14486 0
M  V30 619 H 72.4219 -2.62219 -4.24314 0
M  V30 620 H 71.5759 -1.02965 -5.97899 0
M  V30 621 H 70.3149 -0.445808 -4.85658 0
M  V30 622 H 69.3199 -2.74871 -4.76157 0
M  V30 623 H 70.5449 -3.33024 -5.91837 0
M  V30 624 H 68.4909 -1.15208 -6.45804 0
M  V30 625 H 68.4079 -2.78687 -7.02759 0
M  V30 626 H 69.6759 -1.7432 -7.59758 0
M  V30 627 N 73.905 1.17692 -1.04816 0
M  V30 628 C 75.135 1.91508 -0.775128 0
M  V30 629 C 75.543 1.76844 0.67253 0
M  V30 630 O 74.886 1.10057 1.47082 0
M  V30 631 C 74.948 3.43167 -1.0713 0
M  V30 632 C 74.612 3.81612 -2.51438 0
M  V30 633 C 75.609 3.84772 -3.49638 0
M  V30 634 C 73.294 4.12687 -2.86348 0
M  V30 635 C 75.288 4.18469 -4.80794 0
M  V30 636 C 72.975 4.46053 -4.17708 0
M  V30 637 C 73.973 4.48921 -5.14741 0
M  V30 638 O 73.661 4.81504 -6.43746 0
M  V30 639 H 73.393 0.614575 -0.281555 0
M  V30 640 H 75.947 1.50206 -1.40098 0
M  V30 641 H 74.177 3.84745 -0.388342 0
M  V30 642 H 75.866 3.98239 -0.784883 0
M  V30 643 H 76.632 3.60893 -3.24008 0
M  V30 644 H 72.511 4.09627 -2.11486 0
M  V30 645 H 76.055 4.20623 -5.56527 0
M  V30 646 H 71.952 4.69393 -4.43103 0
M  V30 647 H 72.72 4.99377 -6.4851 0
M  V30 648 N 75.3831 0.828654 1.34056 0
M  V30 649 C 76.6311 0.41863 1.97717 0
M  V30 650 C 76.9521 -1.02314 1.66002 0
M  V30 651 O 76.2221 -1.71119 0.953683 0
M  V30 652 H 74.8021 0.151809 0.731412 0
M  V30 653 H 77.4641 1.05936 1.63596 0
M  V30 654 H 76.5601 0.542318 3.07352 0
M  V30 655 N 76.8612 -1.46375 0.584142 0
M  V30 656 C 78.2722 -1.86031 0.157959 0
M  V30 657 C 78.6232 -1.48753 -1.27933 0
M  V30 658 O 77.7482 -0.903098 -1.96655 0
M  V30 659 C 78.3432 -3.37642 0.279892 0
M  V30 660 C 76.9022 -3.76289 -0.09143 0
M  V30 661 C 76.0492 -2.7039 0.615178 0
M  V30 662 H 79.0002 -1.37509 0.792274 0
M  V30 663 H 79.0212 -3.77275 -0.494364 0
M  V30 664 H 78.5332 -3.64742 1.32607 0
M  V30 665 H 76.6342 -3.54806 -1.13769 0
M  V30 666 H 76.7472 -4.78246 0.285886 0
M  V30 667 H 75.1112 -2.5464 0.0552833 0
M  V30 668 H 75.8942 -3.0033 1.66303 0
M  V30 669 N 78.3393 -0.321999 -1.54275 0
M  V30 670 C 79.7503 0.166384 -1.85957 0
M  V30 671 C 80.1013 1.51747 -1.24367 0
M  V30 672 O 79.2263 2.09317 -0.549124 0
M  V30 673 C 79.8213 0.308681 -3.37391 0
M  V30 674 C 78.3803 0.741286 -3.69028 0
M  V30 675 C 77.5273 -0.137937 -2.76957 0
M  V30 676 H 80.4783 -0.542335 -1.49146 0
M  V30 677 H 80.4993 1.13984 -3.63026 0
M  V30 678 H 80.0113 -0.674809 -3.82188 0
M  V30 679 H 78.1123 1.73458 -3.29762 0
M  V30 680 H 78.2253 0.546118 -4.75977 0
M  V30 681 H 76.5893 0.386251 -2.51754 0
M  V30 682 H 77.3723 -1.11816 -3.2458 0
M  V30 683 N 79.8174 1.5752 -0.0501392 0
M  V30 684 C 81.0574 1.94521 0.627783 0
M  V30 685 C 81.4214 0.928265 1.68069 0
M  V30 686 O 82.6224 1.18517 2.41261 0
M  V30 687 C 80.8934 3.36319 1.20932 0
M  V30 688 S 82.4524 3.95272 1.90539 0
M  V30 689 H 79.2704 0.680456 0.206158 0
M  V30 690 H 81.8724 1.95139 -0.118829 0
M  V30 691 H 80.5764 4.08132 0.430865 0
M  V30 692 H 80.1074 3.39193 1.99277 0
M  V30 693 H 82.1224 3.80415 3.18589 0
M  V30 694 N 81.2955 -0.223234 1.56011 0
M  V30 695 C 82.7065 -0.790368 1.69145 0
M  V30 696 C 83.0575 -1.85055 0.651845 0
M  V30 697 O 82.1825 -2.15498 -0.197359 0
M  V30 698 C 82.7775 -1.4404 3.06656 0
M  V30 699 C 81.3365 -1.95494 3.2165 0
M  V30 700 C 80.4835 -0.814506 2.65068 0
M  V30 701 H 83.4345 0.00139011 1.587 0
M  V30 702 H 83.4555 -2.30916 3.0242 0
M  V30 703 H 82.9675 -0.668543 3.82298 0
M  V30 704 H 81.0685 -2.75487 2.50874 0
M  V30 705 H 81.1815 -2.13607 4.28846 0
M  V30 706 H 79.5455 -1.22137 2.23505 0
M  V30 707 H 80.3285 -0.0553515 3.43255 0
M  V30 708 N 82.7736 -1.49793 -0.48987 0
M  V30 709 C 84.1846 -1.52914 -1.07118 0
M  V30 710 C 84.5356 -0.321738 -1.93544 0
M  V30 711 O 83.6606 0.567338 -2.08831 0
M  V30 712 C 84.2556 -2.771 -1.94938 0
M  V30 713 C 82.8146 -2.82963 -2.48212 0
M  V30 714 C 81.9616 -2.46972 -1.26096 0
M  V30 715 H 84.9126 -1.56329 -0.273289 0
M  V30 716 H 84.9336 -2.57892 -2.79771 0
M  V30 717 H 84.4456 -3.64959 -1.32009 0
M  V30 718 H 82.5466 -1.99411 -3.14748 0
M  V30 719 H 82.6596 -3.85406 -2.84603 0
M  V30 720 H 81.0236 -1.98994 -1.58976 0
M  V30 721 H 81.8066 -3.37118 -0.648581 0
M  V30 722 N 84.2517 0.741722 -1.39055 0
M  V30 723 C 85.4917 1.51385 -1.37338 0
M  V30 724 C 85.8557 1.91972 0.0330513 0
M  V30 725 O 87.0567 2.68229 0.175174 0
M  V30 726 C 85.3277 2.72481 -2.31276 0
M  V30 727 S 86.8867 3.62211 -2.47687 0
M  V30 728 H 83.7047 0.517906 -0.487129 0
M  V30 729 H 86.3067 0.86969 -1.7509 0
M  V30 730 H 85.0107 2.40793 -3.32336 0
M  V30 731 H 84.5417 3.41832 -1.94716 0
M  V30 732 H 86.5567 4.65812 -1.70978 0
M  V30 733 N 85.7298 1.2412 0.971189 0
M  V30 734 C 87.1408 1.07236 1.52831 0
M  V30 735 C 87.4918 -0.357352 1.92918 0
M  V30 736 O 86.6168 -1.24528 1.76979 0
M  V30 737 C 87.2118 1.94043 2.77728 0
M  V30 738 C 85.7708 1.81394 3.29808 0
M  V30 739 C 84.9178 1.89189 2.02738 0
M  V30 740 H 87.8688 1.37648 0.789864 0
M  V30 741 H 87.8898 1.47066 3.5093 0
M  V30 742 H 87.4018 2.98093 2.4852 0
M  V30 743 H 85.5028 0.801634 3.63874 0
M  V30 744 H 85.6158 2.65294 3.98944 0
M  V30 745 H 83.9798 1.32877 2.17292 0
M  V30 746 H 84.7628 2.94812 1.759 0
M  V30 747 N 87.2079 -1.17134 1.05439 0
M  V30 748 C 88.1709 -2.19439 0.661764 0
M  V30 749 C 89.1709 -1.58199 -0.288042 0
M  V30 750 O 90.3609 -1.74053 -0.0715803 0
M  V30 751 C 87.4929 -3.40889 -0.0276209 0
M  V30 752 H 88.6859 -2.55688 1.56728 0
M  V30 753 H 86.2389 -1.31259 0.848567 0
M  V30 754 H 86.9739 -3.10187 -0.94629 0
M  V30 755 H 86.7589 -3.86586 0.655238 0
M  V30 756 H 88.2489 -4.16603 -0.288342 0
M  V30 757 N 88.686 -0.835752 -1.33615 0
M  V30 758 C 90.097 -0.487099 -1.80234 0
M  V30 759 C 90.448 0.993627 -1.69179 0
M  V30 760 O 89.573 1.77403 -1.23924 0
M  V30 761 C 90.168 -0.877385 -3.27242 0
M  V30 762 C 88.727 -0.580915 -3.7189 0
M  V30 763 C 87.874 -1.0874 -2.5509 0
M  V30 764 H 90.825 -1.02474 -1.2118 0
M  V30 765 H 90.846 -0.186195 -3.80044 0
M  V30 766 H 90.358 -1.95512 -3.35256 0
M  V30 767 H 88.459 0.486881 -3.69405 0
M  V30 768 H 88.572 -1.13396 -4.65487 0
M  V30 769 H 86.936 -0.508392 -2.49575 0
M  V30 770 H 87.719 -2.17184 -2.65868 0
M  V30 771 N 90.1641 1.46063 -0.591896 0
M  V30 772 C 91.0741 2.34192 0.13831 0
M  V30 773 C 92.0901 1.50305 0.876608 0
M  V30 774 O 93.2661 1.8315 0.837728 0
M  V30 775 C 90.3311 3.27656 1.13326 0
M  V30 776 C 89.3921 4.27445 0.39863 0
M  V30 777 C 88.6251 5.16443 1.34618 0
M  V30 778 O 88.8481 5.08553 2.58321 0
M  V30 779 O 87.7821 5.95843 0.851768 0
M  V30 780 H 91.6081 2.98002 -0.58552 0
M  V30 781 H 89.1931 1.45188 -0.352239 0
M  V30 782 H 91.0751 3.85291 1.70671 0
M  V30 783 H 89.7501 2.6643 1.83839 0
M  V30 784 H 88.6571 3.73471 -0.216895 0
M  V30 785 H 89.9901 4.91482 -0.265709 0
M  V30 786 N 91.6422 0.330177 1.54103 0
M  V30 787 C 92.6052 -0.520144 2.2322 0
M  V30 788 C 93.6052 -1.03828 1.22786 0
M  V30 789 O 94.7952 -0.929652 1.4732 0
M  V30 790 C 91.9272 -1.72317 2.94142 0
M  V30 791 H 93.1202 0.0841605 2.99782 0
M  V30 792 H 90.6732 0.0813433 1.56088 0
M  V30 793 H 91.4082 -2.36653 2.21734 0
M  V30 794 H 91.1932 -1.35898 3.67796 0
M  V30 795 H 92.6832 -2.3266 3.46784 0
M  V30 796 N 93.1203 -1.57491 0.0584922 0
M  V30 797 C 94.0833 -2.1085 -0.898617 0
M  V30 798 C 95.0833 -1.02964 -1.23511 0
M  V30 799 O 96.2733 -1.29007 -1.17059 0
M  V30 800 C 93.4053 -2.59881 -2.20623 0
M  V30 801 H 94.5983 -2.96715 -0.435936 0
M  V30 802 H 92.1513 -1.55141 -0.190023 0
M  V30 803 H 92.8863 -1.77431 -2.71457 0
M  V30 804 H 92.6713 -3.38727 -1.97501 0
M  V30 805 H 94.1613 -3.01285 -2.89166 0
M  V30 806 N 94.5984 0.214957 -1.56127 0
M  V30 807 C 95.8464 0.936518 -1.79091 0
M  V30 808 C 96.1674 1.84606 -0.628148 0
M  V30 809 O 95.4374 1.92664 0.35462 0
M  V30 810 H 94.0174 0.3488 -0.660566 0
M  V30 811 H 96.6794 0.22523 -1.93594 0
M  V30 812 H 95.7754 1.53943 -2.71492 0
M  V30 813 N 96.0765 1.50051 0.48192 0
M  V30 814 C 97.3245 1.60181 1.23234 0
M  V30 815 C 97.6455 0.299176 1.92691 0
M  V30 816 O 96.9155 -0.682708 1.83619 0
M  V30 817 H 95.4955 0.590232 0.457859 0
M  V30 818 H 98.1575 1.86775 0.556881 0
M  V30 819 H 97.2535 2.40753 1.98607 0
M  V30 820 N 97.5546 -0.734337 1.39446 0
M  V30 821 C 98.9656 -1.31264 1.32766 0
M  V30 822 C 99.3166 -1.96198 -0.00767497 0
M  V30 823 O 98.4416 -1.96346 -0.909796 0
M  V30 824 C 99.0366 -2.38682 2.4045 0
M  V30 825 C 97.5956 -2.92184 2.37288 0
M  V30 826 C 96.7426 -1.6576 2.22304 0
M  V30 827 H 99.6936 -0.531799 1.49525 0
M  V30 828 H 99.7146 -3.19087 2.07276 0
M  V30 829 H 99.2266 -1.91392 3.37625 0
M  V30 830 H 97.3276 -3.43752 1.43754 0
M  V30 831 H 97.4406 -3.45253 3.3217 0
M  V30 832 H 95.8046 -1.9012 1.69489 0
M  V30 833 H 96.5876 -1.20521 3.21449 0
M  V30 834 N 99.0327 -1.24633 -0.964593 0
M  V30 835 C 100.258 -1.11596 -1.74818 0
M  V30 836 C 100.683 0.32723 -1.85232 0
M  V30 837 O 100.041 1.23695 -1.32549 0
M  V30 838 C 100.089 -1.76397 -3.1451 0
M  V30 839 O 99.1927 -1.03685 -3.99153 0
M  V30 840 H 98.5337 -0.390196 -0.537255 0
M  V30 841 H 101.064 -1.65002 -1.20977 0
M  V30 842 H 101.074 -1.8228 -3.65018 0
M  V30 843 H 99.7487 -2.81401 -3.06246 0
M  V30 844 H 98.3257 -1.05611 -3.57632 0
M  V30 845 N 100.511 1.16574 -1.06058 0
M  V30 846 C 101.757 1.87324 -0.777022 0
M  V30 847 C 102.09 1.81351 0.694645 0
M  V30 848 O 101.365 1.22753 1.50871 0
M  V30 849 C 101.648 3.36991 -1.26922 0
M  V30 850 C 101.501 3.51667 -2.80447 0
M  V30 851 C 102.82 4.3131 -0.87521 0
M  V30 852 H 99.9388 0.680191 -0.28374 0
M  V30 853 H 102.581 1.37036 -1.3161 0
M  V30 854 H 100.731 3.79949 -0.81063 0
M  V30 855 H 102.403 3.17664 -3.34495 0
M  V30 856 H 100.646 2.93656 -3.19294 0
M  V30 857 H 101.317 4.56766 -3.0995 0
M  V30 858 H 103.793 3.9624 -1.27014 0
M  V30 859 H 102.669 5.34545 -1.2471 0
M  V30 860 H 102.93 4.41552 0.220071 0
M  V30 861 N 101.989 0.842826 1.3317 0
M  V30 862 C 103.236 0.440447 1.97652 0
M  V30 863 C 103.564 -1.00123 1.6675 0
M  V30 864 O 102.819 -1.7155 0.941761 0
M  V30 865 C 103.118 0.612607 3.52111 0
M  V30 866 C 102.784 2.02297 4.02972 0
M  V30 867 C 101.446 2.40874 4.16573 0
M  V30 868 C 103.798 2.94402 4.30089 0
M  V30 869 C 101.126 3.70852 4.54627 0
M  V30 870 C 103.478 4.23865 4.69597 0
M  V30 871 C 102.142 4.62392 4.81404 0
M  V30 872 H 101.412 0.161171 0.72326 0
M  V30 873 H 104.059 1.07061 1.58777 0
M  V30 874 H 102.364 -0.100849 3.9167 0
M  V30 875 H 104.061 0.2815 4.00011 0
M  V30 876 H 100.651 1.71338 3.92863 0
M  V30 877 H 104.835 2.65835 4.19101 0
M  V30 878 H 100.091 4.00501 4.61962 0
M  V30 879 H 104.265 4.95306 4.89536 0
M  V30 880 H 101.892 5.63154 5.10648 0
M  V30 881 N 103.467 -1.45747 0.599634 0
M  V30 882 C 104.397 -2.33235 -0.111306 0
M  V30 883 C 105.378 -1.46359 -0.866781 0
M  V30 884 O 106.563 -1.75146 -0.838904 0
M  V30 885 C 103.693 -3.28932 -1.11451 0
M  V30 886 C 102.647 -4.25381 -0.472772 0
M  V30 887 C 101.973 -5.1071 -1.58365 0
M  V30 888 C 103.273 -5.18831 0.600948 0
M  V30 889 H 104.967 -2.92927 0.61919 0
M  V30 890 H 102.513 -1.40857 0.299215 0
M  V30 891 H 104.466 -3.89002 -1.62036 0
M  V30 892 H 103.19 -2.67381 -1.8755 0
M  V30 893 H 101.849 -3.66598 0.0121472 0
M  V30 894 H 101.497 -4.45533 -2.33473 0
M  V30 895 H 101.197 -5.7604 -1.15982 0
M  V30 896 H 102.721 -5.73647 -2.09194 0
M  V30 897 H 104.135 -5.73019 0.179491 0
M  V30 898 H 102.532 -5.92595 0.946076 0
M  V30 899 H 103.602 -4.6174 1.48068 0
M  V30 900 N 104.945 -0.338344 -1.53925 0
M  V30 901 C 106.192 0.259758 -2.00827 0
M  V30 902 C 106.52 1.50973 -1.22628 0
M  V30 903 O 105.775 1.93379 -0.300509 0
M  V30 904 C 106.074 0.62448 -3.51902 0
M  V30 905 C 105.74 -0.528006 -4.47798 0
M  V30 906 C 104.402 -0.844298 -4.73735 0
M  V30 907 C 106.754 -1.30143 -5.0469 0
M  V30 908 C 104.082 -1.93648 -5.53821 0
M  V30 909 C 106.434 -2.38382 -5.85967 0
M  V30 910 C 105.098 -2.70576 -6.10201 0
M  V30 911 H 104.368 0.0950523 -0.734878 0
M  V30 912 H 107.015 -0.465182 -1.85764 0
M  V30 913 H 105.32 1.43006 -3.64769 0
M  V30 914 H 107.017 1.09905 -3.85645 0
M  V30 915 H 103.607 -0.271421 -4.2774 0
M  V30 916 H 107.791 -1.07033 -4.84621 0
M  V30 917 H 103.047 -2.19021 -5.70824 0
M  V30 918 H 107.221 -2.98746 -6.29066 0
M  V30 919 H 104.848 -3.55333 -6.72044 0
M  V30 920 N 106.423 1.57458 -0.0668435 0
M  V30 921 C 107.834 1.80776 0.466558 0
M  V30 922 C 108.185 0.980361 1.69951 0
M  V30 923 O 107.31 0.201441 2.1546 0
M  V30 924 C 107.905 3.27881 0.85321 0
M  V30 925 C 106.464 3.52062 1.3315 0
M  V30 926 C 105.611 2.75513 0.314264 0
M  V30 927 H 108.562 1.5598 -0.292588 0
M  V30 928 H 108.583 3.39659 1.715 0
M  V30 929 H 108.095 3.88075 -0.0443439 0
M  V30 930 H 106.196 2.97167 2.24772 0
M  V30 931 H 106.309 4.60762 1.31285 0
M  V30 932 H 104.673 2.42123 0.790492 0
M  V30 933 H 105.456 3.38442 -0.575477 0
M  V30 934 N 107.901 -0.206675 1.56239 0
M  V30 935 C 109.312 -0.772383 1.69974 0
M  V30 936 C 109.663 -1.84353 0.671436 0
M  V30 937 O 108.788 -2.15695 -0.174491 0
M  V30 938 C 109.383 -1.40779 3.08167 0
M  V30 939 C 107.942 -1.92072 3.23706 0
M  V30 940 C 107.089 -0.786347 2.65917 0
M  V30 941 H 110.04 0.0182223 1.5869 0
M  V30 942 H 110.061 -2.27696 3.04852 0
M  V30 943 H 109.573 -0.627958 3.82986 0
M  V30 944 H 107.674 -2.7281 2.53782 0
M  V30 945 H 107.787 -2.09046 4.31087 0
M  V30 946 H 106.151 -1.1976 2.24788 0
M  V30 947 H 106.934 -0.0189416 3.43295 0
M  V30 948 N 109.379 -1.50304 -0.473955 0
M  V30 949 C 110.326 -1.68959 -1.57231 0
M  V30 950 C 111.296 -0.530899 -1.57387 0
M  V30 951 O 112.481 -0.761133 -1.74961 0
M  V30 952 C 109.621 -1.7871 -2.95223 0
M  V30 953 C 108.734 -3.06061 -3.04878 0
M  V30 954 C 107.869 -3.06626 -4.33767 0
M  V30 955 C 106.908 -4.28443 -4.37154 0
M  V30 956 N 106.045 -4.26763 -5.5751 0
M  V30 957 H 110.885 -2.6273 -1.40631 0
M  V30 958 H 108.422 -1.30241 -0.683789 0
M  V30 959 H 110.38 -1.82344 -3.75242 0
M  V30 960 H 109.01 -0.883806 -3.10465 0
M  V30 961 H 108.062 -3.11911 -2.17751 0
M  V30 962 H 109.374 -3.96039 -3.0324 0
M  V30 963 H 108.528 -3.08973 -5.22131 0
M  V30 964 H 107.267 -2.14473 -4.3801 0
M  V30 965 H 106.272 -4.2631 -3.47188 0
M  V30 966 H 107.497 -5.2182 -4.34605 0
M  V30 967 H 105.443 -3.37462 -5.62544 0
M  V30 968 H 105.36 -5.10507 -5.57601 0
M  V30 969 H 106.628 -4.33253 -6.48006 0
M  V30 970 N 110.857 0.726932 -1.39834 0
M  V30 971 C 112.268 1.30558 -1.3346 0
M  V30 972 C 112.619 1.962 -0.00273003 0
M  V30 973 O 111.744 1.96826 0.899371 0
M  V30 974 C 112.339 2.37404 -2.41713 0
M  V30 975 C 110.898 2.90921 -2.38835 0
M  V30 976 C 110.045 1.64578 -2.2318 0
M  V30 977 H 112.996 0.523862 -1.49804 0
M  V30 978 H 113.017 3.17984 -2.08966 0
M  V30 979 H 112.529 1.89599 -3.38635 0
M  V30 980 H 110.63 3.42985 -1.45575 0
M  V30 981 H 110.743 3.43487 -3.33997 0
M  V30 982 H 109.107 1.89219 -1.70494 0
M  V30 983 H 109.89 1.18814 -3.22084 0
M  V30 984 N 112.336 1.25143 0.95797 0
M  V30 985 C 113.283 1.05235 2.05412 0
M  V30 986 C 114.253 -0.0374561 1.66058 0
M  V30 987 O 115.438 0.119073 1.90428 0
M  V30 988 C 112.578 0.673589 3.38462 0
M  V30 989 C 111.691 1.8379 3.90954 0
M  V30 990 C 110.826 1.40381 5.12315 0
M  V30 991 C 109.865 2.53746 5.57027 0
M  V30 992 N 109.002 2.11136 6.69601 0
M  V30 993 H 113.842 1.99048 2.21774 0
M  V30 994 H 111.379 0.991277 1.08683 0
M  V30 995 H 113.337 0.434964 4.14926 0
M  V30 996 H 111.967 -0.227554 3.21997 0
M  V30 997 H 111.019 2.18992 3.11041 0
M  V30 998 H 112.331 2.68937 4.20089 0
M  V30 999 H 111.485 1.12464 5.96185 0
M  V30 1000 H 110.224 0.523015 4.84887 0
M  V30 1001 H 109.229 2.82412 4.71724 0
M  V30 1002 H 110.454 3.42398 5.86464 0
M  V30 1003 H 108.4 1.25468 6.4389 0
M  V30 1004 H 108.317 2.89832 6.98236 0
M  V30 1005 H 109.585 1.86385 7.56889 0
M  V30 1006 N 113.814 -1.1601 1.06675 0
M  V30 1007 C 115.091 -1.82679 0.699114 0
M  V30 1008 C 115.471 -1.94559 -0.819137 0
M  V30 1009 O 114.819 -1.49169 -1.73092 0
M  V30 1010 C 115.029 -3.19445 1.40555 0
M  V30 1011 C 116.377 -3.95171 1.55323 0
M  V30 1012 O 117.401 -3.28976 1.36577 0
M  V30 1013 O 116.26 -5.13833 1.86112 0
M  V30 1014 H 113.354 -0.788954 0.247951 0
M  V30 1015 H 115.9 -1.23179 1.16726 0
M  V30 1016 H 114.672 -3.05856 2.44065 0
M  V30 1017 H 114.295 -3.86625 0.927733 0
M  V30 1018 N 115.292 -0.849877 -1.32721 0
M  V30 1019 C 116.52 -0.464754 -2.01613 0
M  V30 1020 C 116.935 0.937191 -1.63897 0
M  V30 1021 O 116.292 1.61081 -0.857856 0
M  V30 1022 C 116.343 -0.588638 -3.56675 0
M  V30 1023 O 116.064 -1.93535 -3.93034 0
M  V30 1024 C 117.565 -0.2019 -4.4284 0
M  V30 1025 H 114.785 -0.183215 -0.645502 0
M  V30 1026 H 117.329 -1.1455 -1.69407 0
M  V30 1027 H 115.484 0.0443159 -3.87375 0
M  V30 1028 H 115.898 -1.92871 -4.87751 0
M  V30 1029 H 117.372 -0.339599 -5.50954 0
M  V30 1030 H 117.849 0.857224 -4.30753 0
M  V30 1031 H 118.455 -0.809733 -4.17521 0
M  V30 1032 N 116.77 1.45427 -0.607355 0
M  V30 1033 C 117.7 2.3329 0.0989352 0
M  V30 1034 C 118.681 1.46816 0.859007 0
M  V30 1035 O 119.866 1.75588 0.829604 0
M  V30 1036 C 116.996 3.29518 1.09705 0
M  V30 1037 C 115.95 4.25626 0.450206 0
M  V30 1038 C 115.276 5.11542 1.55655 0
M  V30 1039 C 116.576 5.18505 -0.628455 0
M  V30 1040 H 118.27 2.92595 -0.634716 0
M  V30 1041 H 115.816 1.40696 -0.306681 0
M  V30 1042 H 117.769 3.89855 1.59971 0
M  V30 1043 H 116.493 2.68372 1.86129 0
M  V30 1044 H 115.152 3.66586 -0.0315886 0
M  V30 1045 H 114.8 4.46765 2.31107 0
M  V30 1046 H 114.5 5.76647 1.12925 0
M  V30 1047 H 116.024 5.74748 2.06148 0
M  V30 1048 H 117.438 5.72916 -0.209877 0
M  V30 1049 H 115.835 5.92085 -0.977489 0
M  V30 1050 H 116.905 4.60948 -1.50514 0
M  V30 1051 N 118.248 0.346503 1.53744 0
M  V30 1052 C 119.181 -0.552023 2.21423 0
M  V30 1053 C 120.159 -1.09798 1.19929 0
M  V30 1054 O 121.343 -1.1577 1.4876 0
M  V30 1055 C 118.47 -1.75972 2.89398 0
M  V30 1056 C 117.516 -1.34295 4.04805 0
M  V30 1057 S 118.349 -0.360263 5.34287 0
M  V30 1058 C 119.505 -1.57473 6.05767 0
M  V30 1059 H 119.738 0.0228119 2.97291 0
M  V30 1060 H 117.271 0.130579 1.53847 0
M  V30 1061 H 119.229 -2.45256 3.2918 0
M  V30 1062 H 117.89 -2.30578 2.1329 0
M  V30 1063 H 117.083 -2.24349 4.51313 0
M  V30 1064 H 116.685 -0.729555 3.66815 0
M  V30 1065 H 118.977 -2.50875 6.29339 0
M  V30 1066 H 119.92 -1.15138 6.98676 0
M  V30 1067 H 120.328 -1.77212 5.35963 0
M  V30 1068 N 119.726 -1.57421 0.075193 0
M  V30 1069 C 120.975 -1.92794 -0.592731 0
M  V30 1070 C 121.288 -0.957478 -1.70563 0
M  V30 1071 O 122.494 -1.20417 -2.43335 0
M  V30 1072 C 120.95 -3.42495 -1.10569 0
M  V30 1073 C 120.558 -4.47994 -0.0236121 0
M  V30 1074 C 122.302 -3.86864 -1.74748 0
M  V30 1075 C 120.209 -5.88829 -0.550803 0
M  V30 1076 H 119.139 -0.719591 -0.225177 0
M  V30 1077 H 121.79 -1.82902 0.147978 0
M  V30 1078 H 120.172 -3.47471 -1.89947 0
M  V30 1079 H 121.346 -4.54637 0.751099 0
M  V30 1080 H 119.661 -4.13113 0.522159 0
M  V30 1081 H 122.258 -4.8947 -2.15229 0
M  V30 1082 H 122.601 -3.24417 -2.60882 0
M  V30 1083 H 123.134 -3.84504 -1.01986 0
M  V30 1084 H 119.873 -6.54929 0.273457 0
M  V30 1085 H 119.393 -5.85698 -1.29296 0
M  V30 1086 H 121.072 -6.38811 -1.02613 0
M  V30 1087 N 121.204 0.198386 -1.56346 0
M  V30 1088 C 122.429 0.939682 -1.84891 0
M  V30 1089 C 122.854 1.76202 -0.658369 0
M  V30 1090 O 122.212 1.76993 0.392851 0
M  V30 1091 C 122.26 1.81428 -3.11635 0
M  V30 1092 O 121.364 2.91265 -2.91956 0
M  V30 1093 H 120.705 0.264807 -0.608912 0
M  V30 1094 H 123.235 0.204695 -2.03573 0
M  V30 1095 H 123.245 2.21958 -3.42343 0
M  V30 1096 H 121.92 1.21004 -3.97908 0
M  V30 1097 H 120.497 2.54514 -2.72538 0
M  V30 1098 N 122.682 1.50554 0.465978 0
M  V30 1099 C 124.098 1.38093 0.800154 0
M  V30 1100 C 124.298 0.440988 1.96615 0
M  V30 1101 O 123.354 -0.114499 2.5224 0
M  V30 1102 C 124.667 2.79565 1.10742 0
M  V30 1103 C 126.215 2.88516 1.21357 0
M  V30 1104 C 126.69 4.30833 1.55393 0
M  V30 1105 N 128.181 4.33807 1.62375 0
M  V30 1106 C 128.916 5.40927 1.90225 0
M  V30 1107 N 128.412 6.58247 2.16062 0
M  V30 1108 N 130.205 5.28376 1.9177 0
M  V30 1109 H 122.356 2.10237 -0.302366 0
M  V30 1110 H 124.619 0.945203 -0.0727746 0
M  V30 1111 H 124.325 3.50208 0.323661 0
M  V30 1112 H 124.199 3.17125 2.04234 0
M  V30 1113 H 126.586 2.1809 1.98799 0
M  V30 1114 H 126.667 2.54492 0.258321 0
M  V30 1115 H 126.311 5.01799 0.784889 0
M  V30 1116 H 126.241 4.62347 2.52076 0
M  V30 1117 H 128.732 3.49212 1.44427 0
M  V30 1118 H 129.045 7.3569 2.36601 0
M  V30 1119 H 127.39 6.61413 2.13444 0
M  V30 1120 H 130.581 4.35715 1.71085 0
M  V30 1121 H 130.754 6.11944 2.13139 0
M  V30 1122 N 124.16 -0.719506 1.40217 0
M  V30 1123 C 125.388 -1.50864 1.41589 0
M  V30 1124 C 125.803 -1.88794 0.0145275 0
M  V30 1125 O 125.16 -1.55174 -0.960594 0
M  V30 1126 C 125.211 -2.78646 2.30302 0
M  V30 1127 O 124.932 -2.42321 3.64983 0
M  V30 1128 C 126.433 -3.72569 2.40224 0
M  V30 1129 H 123.653 -0.465709 0.48307 0
M  V30 1130 H 126.197 -0.88785 1.84221 0
M  V30 1131 H 124.352 -3.37019 1.91042 0
M  V30 1132 H 124.766 -3.24514 4.12057 0
M  V30 1133 H 126.24 -4.5908 3.06512 0
M  V30 1134 H 126.717 -4.15403 1.42608 0
M  V30 1135 H 127.323 -3.20109 2.80019 0
M  V30 1136 N 125.638 -1.25649 -0.95132 0
M  V30 1137 C 127.049 -1.09654 -1.51106 0
M  V30 1138 C 127.4 0.326615 -1.93462 0
M  V30 1139 O 126.525 1.21697 -1.78938 0
M  V30 1140 C 127.12 -1.98437 -2.74605 0
M  V30 1141 C 125.679 -1.86618 -3.2688 0
M  V30 1142 C 124.826 -1.9239 -1.99703 0
M  V30 1143 H 127.777 -1.38887 -0.767865 0
M  V30 1144 H 127.798 -1.5263 -3.48546 0
M  V30 1145 H 127.31 -3.02009 -2.43746 0
M  V30 1146 H 125.411 -0.859421 -3.62553 0
M  V30 1147 H 125.524 -2.71607 -3.94673 0
M  V30 1148 H 123.888 -1.36317 -2.15151 0
M  V30 1149 H 124.671 -2.97573 -1.71188 0
M  V30 1150 N 127.117 1.15442 -1.07289 0
M  V30 1151 C 128.027 2.23786 -0.704057 0
M  V30 1152 C 129.043 1.7166 0.284413 0
M  V30 1153 O 130.219 2.00972 0.131205 0
M  V30 1154 C 127.284 3.46535 -0.106792 0
M  V30 1155 C 126.345 4.13654 -1.14842 0
M  V30 1156 C 125.578 5.30544 -0.57956 0
M  V30 1157 O 125.801 5.67187 0.604585 0
M  V30 1158 O 124.735 5.87154 -1.32414 0
M  V30 1159 H 128.561 2.57664 -1.60757 0
M  V30 1160 H 126.146 1.23152 -0.845803 0
M  V30 1161 H 128.028 4.20804 0.224048 0
M  V30 1162 H 126.703 3.14407 0.770049 0
M  V30 1163 H 125.61 3.4131 -1.5316 0
M  V30 1164 H 126.943 4.49861 -1.99714 0
M  V30 1165 N 128.595 0.856903 1.32268 0
M  V30 1166 C 129.841 0.462069 1.97466 0
M  V30 1167 C 130.174 -0.980298 1.67642 0
M  V30 1168 O 129.449 -1.68824 0.965858 0
M  V30 1169 C 129.732 0.704336 3.53145 0
M  V30 1170 C 129.585 2.19529 3.9259 0
M  V30 1171 C 130.904 0.1622 4.39801 0
M  V30 1172 H 128.023 0.169357 0.717278 0
M  V30 1173 H 130.665 1.07574 1.56614 0
M  V30 1174 H 128.815 0.181999 3.88073 0
M  V30 1175 H 130.487 2.78387 3.67829 0
M  V30 1176 H 128.73 2.67292 3.41668 0
M  V30 1177 H 129.401 2.31549 5.01088 0
M  V30 1178 H 131.877 0.608905 4.11621 0
M  V30 1179 H 130.753 0.361265 5.4771 0
M  V30 1180 H 131.014 -0.935158 4.32096 0
M  V30 1181 N 130.073 -1.45103 0.615059 0
M  V30 1182 C 131.301 -2.06553 0.11977 0
M  V30 1183 C 131.716 -1.45842 -1.19898 0
M  V30 1184 O 131.073 -0.575325 -1.73194 0
M  V30 1185 C 131.124 -3.61495 -0.018364 0
M  V30 1186 O 130.845 -4.19942 1.24822 0
M  V30 1187 C 132.346 -4.39947 -0.544237 0
M  V30 1188 H 129.566 -0.667096 0.0722739 0
M  V30 1189 H 132.11 -1.8623 0.84491 0
M  V30 1190 H 130.265 -3.81135 -0.693865 0
M  V30 1191 H 130.679 -5.13204 1.0827 0
M  V30 1192 H 132.153 -5.48838 -0.589953 0
M  V30 1193 H 132.63 -4.10255 -1.56805 0
M  V30 1194 H 133.236 -4.25188 0.0974703 0
M  V30 1195 N 131.551 -0.354651 -1.53558 0
M  V30 1196 C 132.791 0.238651 -2.03002 0
M  V30 1197 C 133.155 1.46878 -1.23656 0
M  V30 1198 O 134.356 2.13699 -1.63053 0
M  V30 1199 C 132.627 0.534175 -3.53386 0
M  V30 1200 S 134.186 1.10271 -4.24719 0
M  V30 1201 H 131.004 0.0702908 -0.707517 0
M  V30 1202 H 133.606 -0.494987 -1.8913 0
M  V30 1203 H 132.31 -0.368765 -4.0874 0
M  V30 1204 H 131.841 1.29718 -3.71398 0
M  V30 1205 H 133.856 2.38772 -4.34974 0
M  V30 1206 N 133.029 1.57378 -0.0835403 0
M  V30 1207 C 134.275 1.94217 0.583733 0
M  V30 1208 C 134.608 0.964653 1.68547 0
M  V30 1209 O 133.883 -0.00422258 1.945 0
M  V30 1210 C 134.166 3.41253 1.14972 0
M  V30 1211 C 134.019 4.49768 0.0538277 0
M  V30 1212 C 135.338 3.89352 2.05166 0
M  V30 1213 H 132.457 0.706233 0.210724 0
M  V30 1214 H 135.099 1.89392 -0.1519 0
M  V30 1215 H 133.249 3.45496 1.77665 0
M  V30 1216 H 134.921 4.57641 -0.579851 0
M  V30 1217 H 133.164 4.29432 -0.614068 0
M  V30 1218 H 133.835 5.49817 0.490452 0
M  V30 1219 H 136.311 3.87189 1.52393 0
M  V30 1220 H 135.187 4.92822 2.41698 0
M  V30 1221 H 135.448 3.27973 2.96456 0
M  V30 1222 N 134.507 -0.190092 1.56449 0
M  V30 1223 C 135.753 -0.911052 1.81184 0
M  V30 1224 C 136.086 -1.82699 0.658396 0
M  V30 1225 O 135.361 -1.91491 -0.340775 0
M  V30 1226 C 135.644 -1.72297 3.16205 0
M  V30 1227 C 135.497 -0.831419 4.42049 0
M  V30 1228 C 136.816 -2.69454 3.47969 0
M  V30 1229 H 133.935 -0.32977 0.659106 0
M  V30 1230 H 136.577 -0.178169 1.89163 0
M  V30 1231 H 134.727 -2.34778 3.09534 0
M  V30 1232 H 136.399 -0.220929 4.60771 0
M  V30 1233 H 134.642 -0.138406 4.33579 0
M  V30 1234 H 135.313 -1.43461 5.33032 0
M  V30 1235 H 137.789 -2.17104 3.54972 0
M  V30 1236 H 136.665 -3.23342 4.43555 0
M  V30 1237 H 136.926 -3.48744 2.71717 0
M  V30 1238 N 135.985 -1.50799 -0.457987 0
M  V30 1239 C 137.231 -1.62683 -1.21088 0
M  V30 1240 C 137.564 -0.332268 -1.91336 0
M  V30 1241 O 136.839 0.667043 -1.82704 0
M  V30 1242 C 137.122 -2.81615 -2.24422 0
M  V30 1243 C 136.975 -4.20989 -1.58392 0
M  V30 1244 C 138.294 -2.96085 -3.2561 0
M  V30 1245 H 135.413 -0.592087 -0.438864 0
M  V30 1246 H 138.055 -1.83225 -0.50286 0
M  V30 1247 H 136.205 -2.64231 -2.84806 0
M  V30 1248 H 137.877 -4.49994 -1.01504 0
M  V30 1249 H 136.12 -4.24641 -0.886704 0
M  V30 1250 H 136.791 -5.0016 -2.33547 0
M  V30 1251 H 139.267 -3.12042 -2.75262 0
M  V30 1252 H 138.143 -3.80902 -3.95228 0
M  V30 1253 H 138.404 -2.0726 -3.90507 0
M  V30 1254 N 137.463 0.71206 -1.40597 0
M  V30 1255 C 138.74 1.46536 -1.29563 0
M  V30 1256 C 139.12 2.10931 0.0844217 0
M  V30 1257 O 138.468 2.00418 1.0975 0
M  V30 1258 C 138.678 2.49821 -2.43701 0
M  V30 1259 C 140.026 3.15551 -2.841 0
M  V30 1260 O 141.05 2.60142 -2.4332 0
M  V30 1261 O 139.909 4.15867 -3.54566 0
M  V30 1262 H 137.003 0.651801 -0.509004 0
M  V30 1263 H 139.549 0.743935 -1.52524 0
M  V30 1264 H 138.321 2.00778 -3.35863 0
M  V30 1265 H 137.944 3.29495 -2.22528 0
M  V30 1266 N 138.941 1.26152 0.944643 0
M  V30 1267 C 140.187 1.11657 1.69294 0
M  V30 1268 C 140.52 -0.339926 1.91202 0
M  V30 1269 O 139.795 -1.24994 1.49019 0
M  V30 1270 C 140.078 1.88236 3.06984 0
M  V30 1271 C 139.931 3.41772 2.92424 0
M  V30 1272 C 141.25 1.67343 4.07043 0
M  V30 1273 H 138.369 0.407004 0.614424 0
M  V30 1274 H 141.011 1.55106 1.09737 0
M  V30 1275 H 139.161 1.51308 3.57824 0
M  V30 1276 H 140.833 3.88433 2.48832 0
M  V30 1277 H 139.076 3.68974 2.28124 0
M  V30 1278 H 139.747 3.90579 3.90067 0
M  V30 1279 H 142.223 1.99509 3.65151 0
M  V30 1280 H 141.099 2.23346 5.01406 0
M  V30 1281 H 141.36 0.617158 4.37771 0
M  V30 1282 N 140.419 -1.14872 1.07899 0
M  V30 1283 C 141.644 -1.90202 0.826926 0
M  V30 1284 C 142.069 -1.77774 -0.614664 0
M  V30 1285 O 141.427 -1.11431 -1.43013 0
M  V30 1286 C 141.475 -3.38352 1.24702 0
M  V30 1287 O 140.579 -4.10497 0.39575 0
M  V30 1288 H 139.92 -0.591968 0.300782 0
M  V30 1289 H 142.45 -1.45437 1.43907 0
M  V30 1290 H 142.46 -3.89156 1.22563 0
M  V30 1291 H 141.135 -3.46715 2.29698 0
M  V30 1292 H 139.712 -3.69796 0.480117 0
M  V30 1293 N 141.898 -0.863906 -1.31812 0
M  V30 1294 C 142.83 -0.272485 -2.27575 0
M  V30 1295 C 143.843 0.56104 -1.52827 0
M  V30 1296 O 145.032 0.384021 -1.7432 0
M  V30 1297 C 142.132 0.63283 -3.32939 0
M  V30 1298 C 141.305 -0.166902 -4.37081 0
M  V30 1299 C 140.364 0.665608 -5.21973 0
M  V30 1300 O 139.39 0.0958091 -5.69119 0
M  V30 1301 N 140.592 1.9787 -5.45736 0
M  V30 1302 H 143.357 -1.0954 -2.78964 0
M  V30 1303 H 140.918 -0.724791 -1.4477 0
M  V30 1304 H 142.91 1.19532 -3.86645 0
M  V30 1305 H 141.48 1.35642 -2.81638 0
M  V30 1306 H 140.7 -0.910838 -3.83533 0
M  V30 1307 H 141.988 -0.715874 -5.03739 0
M  V30 1308 H 141.386 2.46484 -5.09178 0
M  V30 1309 H 139.943 2.48911 -6.024 0
M  V30 1310 N 143.376 1.44774 -0.622745 0
M  V30 1311 C 144.286 2.34433 0.0886031 0
M  V30 1312 C 145.302 1.52131 0.844529 0
M  V30 1313 O 146.478 1.84886 0.798691 0
M  V30 1314 C 143.543 3.29986 1.0635 0
M  V30 1315 C 142.604 4.28195 0.307873 0
M  V30 1316 C 141.837 5.19183 1.23633 0
M  V30 1317 O 142.06 5.13918 2.47476 0
M  V30 1318 O 140.994 5.97515 0.725189 0
M  V30 1319 H 144.82 2.96693 -0.648599 0
M  V30 1320 H 142.405 1.44408 -0.382957 0
M  V30 1321 H 144.287 3.88825 1.6246 0
M  V30 1322 H 142.962 2.70269 1.78146 0
M  V30 1323 H 141.869 3.72927 -0.296064 0
M  V30 1324 H 143.202 4.90808 -0.3699 0
M  V30 1325 N 144.854 0.36279 1.53368 0
M  V30 1326 C 146.131 -0.284021 1.93527 0
M  V30 1327 C 146.511 -1.66628 1.29608 0
M  V30 1328 O 145.859 -2.23942 0.45413 0
M  V30 1329 C 146.069 -0.337028 3.47369 0
M  V30 1330 C 147.417 -0.578708 4.20638 0
M  V30 1331 O 148.441 -0.418352 3.53735 0
M  V30 1332 O 147.3 -0.89074 5.39192 0
M  V30 1333 H 144.394 -0.169743 0.809393 0
M  V30 1334 H 146.94 0.41537 1.64538 0
M  V30 1335 H 145.712 0.632217 3.86159 0
M  V30 1336 H 145.335 -1.08243 3.82582 0
M  V30 1337 N 146.332 -1.57332 0.0918853 0
M  V30 1338 C 147.743 -1.81496 -0.437739 0
M  V30 1339 C 148.094 -1.00727 -1.6837 0
M  V30 1340 O 147.219 -0.235694 -2.15113 0
M  V30 1341 C 147.814 -3.29197 -0.800939 0
M  V30 1342 C 146.373 -3.54136 -1.27532 0
M  V30 1343 C 145.52 -2.75979 -0.270392 0
M  V30 1344 H 148.471 -1.55494 0.317366 0
M  V30 1345 H 148.492 -3.42344 -1.66074 0
M  V30 1346 H 148.004 -3.87955 0.106078 0
M  V30 1347 H 146.105 -3.00705 -2.20016 0
M  V30 1348 H 146.218 -4.62792 -1.23938 0
M  V30 1349 H 144.582 -2.43349 -0.751872 0
M  V30 1350 H 145.365 -3.37484 0.629248 0
M  V30 1351 N 147.81 0.181792 -1.56548 0
M  V30 1352 C 148.72 1.24538 -1.98815 0
M  V30 1353 C 149.736 1.49045 -0.897861 0
M  V30 1354 O 150.912 1.61399 -1.20467 0
M  V30 1355 C 147.977 2.56683 -2.33055 0
M  V30 1356 C 147.038 2.40131 -3.55859 0
M  V30 1357 C 146.271 3.65975 -3.88456 0
M  V30 1358 O 146.494 4.70711 -3.22161 0
M  V30 1359 O 145.428 3.6071 -4.81842 0
M  V30 1360 H 149.254 0.916647 -2.89536 0
M  V30 1361 H 146.839 0.387842 -1.44278 0
M  V30 1362 H 148.721 3.34655 -2.56094 0
M  V30 1363 H 147.396 2.89157 -1.45498 0
M  V30 1364 H 146.303 1.60226 -3.38051 0
M  V30 1365 H 147.636 2.12585 -4.43924 0
M  V30 1366 N 149.288 1.51039 0.449983 0
M  V30 1367 C 150.534 1.63322 1.20223 0
M  V30 1368 C 150.867 0.34241 1.91158 0
M  V30 1369 O 150.142 -0.657344 1.83055 0
M  V30 1370 C 150.425 2.82801 2.22925 0
M  V30 1371 C 150.278 4.21823 1.56157 0
M  V30 1372 C 151.597 2.97807 3.24035 0
M  V30 1373 H 148.716 0.594407 0.435718 0
M  V30 1374 H 151.358 1.83489 0.493136 0
M  V30 1375 H 149.508 2.65738 2.834 0
M  V30 1376 H 151.18 4.50526 0.991162 0
M  V30 1377 H 149.423 4.25105 0.864172 0
M  V30 1378 H 150.094 5.01391 2.30891 0
M  V30 1379 H 152.57 3.13497 2.73603 0
M  V30 1380 H 151.446 3.82992 3.93202 0
M  V30 1381 H 151.707 2.09328 3.89402 0
M  V30 1382 N 150.766 -0.704594 1.40972 0
M  V30 1383 C 151.698 -1.82974 1.38033 0
M  V30 1384 C 152.711 -1.60305 0.283931 0
M  V30 1385 O 153.9 -1.69975 0.545042 0
M  V30 1386 C 151 -3.19578 1.12795 0
M  V30 1387 C 150.173 -3.69352 2.34302 0
M  V30 1388 C 149.232 -4.84601 2.05058 0
M  V30 1389 O 148.258 -4.96682 2.7802 0
M  V30 1390 N 149.46 -5.71194 1.03528 0
M  V30 1391 H 152.225 -1.85991 2.35005 0
M  V30 1392 H 149.786 -0.886567 1.35468 0
M  V30 1393 H 151.778 -3.9429 0.911987 0
M  V30 1394 H 150.348 -3.11642 0.24452 0
M  V30 1395 H 149.568 -2.85649 2.71659 0
M  V30 1396 H 150.856 -3.99345 3.1528 0
M  V30 1397 H 150.254 -5.64054 0.431217 0
M  V30 1398 H 148.811 -6.45843 0.879205 0
M  V30 1399 N 152.244 -1.26651 -0.937939 0
M  V30 1400 C 153.491 -1.12387 -1.6845 0
M  V30 1401 C 153.819 0.332208 -1.91642 0
M  V30 1402 O 153.074 1.2602 -1.49725 0
M  V30 1403 C 153.373 -1.84168 -3.06295 0
M  V30 1404 C 153.039 -3.34056 -3.02849 0
M  V30 1405 C 151.701 -3.74942 -3.01616 0
M  V30 1406 C 154.053 -4.29741 -2.9491 0
M  V30 1407 C 151.381 -5.09894 -2.90215 0
M  V30 1408 C 153.733 -5.64738 -2.8505 0
M  V30 1409 C 152.397 -6.0493 -2.82162 0
M  V30 1410 H 151.667 -0.411252 -0.616403 0
M  V30 1411 H 154.314 -1.57134 -1.09459 0
M  V30 1412 H 152.619 -1.319 -3.6893 0
M  V30 1413 H 154.316 -1.70569 -3.62915 0
M  V30 1414 H 150.906 -3.01534 -3.0459 0
M  V30 1415 H 155.09 -3.99133 -2.94969 0
M  V30 1416 H 150.346 -5.40194 -2.86358 0
M  V30 1417 H 154.52 -6.38561 -2.77872 0
M  V30 1418 H 152.147 -7.09457 -2.73084 0
M  V30 1419 N 153.722 1.14298 -1.08507 0
M  V30 1420 C 154.67 2.21483 -0.710483 0
M  V30 1421 C 155.664 1.66998 0.284234 0
M  V30 1422 O 156.87 1.79401 0.146692 0
M  V30 1423 H 153.245 0.721578 -0.211729 0
M  V30 1424 H 155.216 2.50348 -1.62384 0
M  V30 1425 C 153.965 3.4743 -0.137007 0
M  V30 1426 H 153.288 3.89686 -0.893592 0
M  V30 1427 H 154.728 4.2391 0.0872789 0
M  V30 1428 C 153.187 3.17548 1.12538 0
M  V30 1429 O 153.717 3.35437 2.21009 0
M  V30 1430 N 151.923 2.71499 1.03617 0
M  V30 1431 H 151.47 2.57143 0.153403 0
M  V30 1432 H 151.428 2.51881 1.88158 0
M  V30 1433 N 155.201 0.870884 1.31352 0
M  V30 1434 C 156.447 0.492314 1.97352 0
M  V30 1435 C 156.802 -0.945174 1.67583 0
M  V30 1436 O 156.095 -1.65674 0.962423 0
M  V30 1437 C 156.289 0.687157 3.50732 0
M  V30 1438 C 156.118 2.14203 3.95407 0
M  V30 1439 C 154.888 2.78382 4.21701 0
M  V30 1440 C 157.086 3.1144 4.09279 0
M  V30 1441 N 155.068 4.14611 4.52737 0
M  V30 1442 C 156.439 4.32702 4.44037 0
M  V30 1443 C 158.494 3.07418 3.91661 0
M  V30 1444 C 157.197 5.50463 4.63015 0
M  V30 1445 C 159.223 4.24438 4.11833 0
M  V30 1446 C 158.585 5.44463 4.46923 0
M  V30 1447 H 154.684 0.229206 0.747655 0
M  V30 1448 H 157.268 1.12568 1.5886 0
M  V30 1449 H 155.439 0.083384 3.8831 0
M  V30 1450 H 157.171 0.276883 4.03752 0
M  V30 1451 H 153.926 2.29326 4.14375 0
M  V30 1452 H 154.35 4.84928 4.72413 0
M  V30 1453 H 158.992 2.15732 3.6362 0
M  V30 1454 H 156.71 6.42666 4.89904 0
M  V30 1455 H 160.296 4.2278 3.99685 0
M  V30 1456 H 159.176 6.33504 4.62214 0
M  V30 1457 N 156.679 -1.44442 0.630414 0
M  V30 1458 C 157.909 -2.06115 0.141465 0
M  V30 1459 C 158.317 -1.47179 -1.1889 0
M  V30 1460 O 157.66 -0.588873 -1.74006 0
M  V30 1461 C 157.722 -3.59467 -0.0484355 0
M  V30 1462 C 157.386 -4.40864 1.20366 0
M  V30 1463 C 158.383 -4.74391 2.12719 0
M  V30 1464 C 156.068 -4.8125 1.43887 0
M  V30 1465 C 158.062 -5.47186 3.26904 0
M  V30 1466 C 155.749 -5.53795 2.5837 0
M  V30 1467 C 156.747 -5.86682 3.49705 0
M  V30 1468 O 156.435 -6.57749 4.62191 0
M  V30 1469 H 156.167 -0.671648 0.0765792 0
M  V30 1470 H 158.721 -1.86312 0.864695 0
M  V30 1471 H 156.951 -3.77758 -0.826803 0
M  V30 1472 H 158.64 -4.02909 -0.491849 0
M  V30 1473 H 159.406 -4.43728 1.95781 0
M  V30 1474 H 155.285 -4.55073 0.736853 0
M  V30 1475 H 158.829 -5.72773 3.98217 0
M  V30 1476 H 154.726 -5.83872 2.75251 0
M  V30 1477 H 155.494 -6.76217 4.61164 0
M  V30 1478 N 158.157 -0.370918 -1.53173 0
M  V30 1479 C 159.403 0.217423 -2.01631 0
M  V30 1480 C 159.736 1.47983 -1.25756 0
M  V30 1481 O 159.011 1.91274 -0.352764 0
M  V30 1482 C 159.294 0.503982 -3.56556 0
M  V30 1483 C 159.147 -0.77243 -4.43118 0
M  V30 1484 C 160.466 1.30234 -4.20389 0
M  V30 1485 H 157.585 0.0775486 -0.732909 0
M  V30 1486 H 160.227 -0.496863 -1.83388 0
M  V30 1487 H 158.377 1.11248 -3.72231 0
M  V30 1488 H 160.049 -1.4098 -4.39229 0
M  V30 1489 H 158.292 -1.39167 -4.10871 0
M  V30 1490 H 158.963 -0.526815 -5.4948 0
M  V30 1491 H 161.439 0.787546 -4.08579 0
M  V30 1492 H 160.315 1.47158 -5.28806 0
M  V30 1493 H 160.576 2.31237 -3.76805 0
M  V30 1494 N 159.635 1.57281 -0.100228 0
M  V30 1495 C 160.912 1.86014 0.604812 0
M  V30 1496 C 161.292 0.998025 1.86018 0
M  V30 1497 O 160.64 0.0718184 2.28387 0
M  V30 1498 C 160.85 3.36784 0.915278 0
M  V30 1499 C 162.198 4.04957 1.27651 0
M  V30 1500 O 163.222 3.41695 1.00613 0
M  V30 1501 O 162.081 5.16593 1.7831 0
M  V30 1502 H 159.175 0.76942 0.303185 0
M  V30 1503 H 161.721 1.69176 -0.133313 0
M  V30 1504 H 160.493 3.91292 0.0248896 0
M  V30 1505 H 160.116 3.58987 1.70921 0
M  V30 1506 N 161.113 -0.173488 1.56642 0
M  V30 1507 C 162.361 -0.888706 1.81512 0
M  V30 1508 C 162.682 -1.82875 0.676872 0
M  V30 1509 O 161.952 -1.93536 -0.303414 0
M  V30 1510 H 160.532 -0.331164 0.669582 0
M  V30 1511 H 163.194 -0.173823 1.94123 0
M  V30 1512 H 162.29 -1.46691 2.75478 0
M  V30 1513 N 162.591 -1.51276 -0.441967 0
M  V30 1514 C 163.837 -1.63958 -1.19355 0
M  V30 1515 C 164.17 -0.352543 -1.90973 0
M  V30 1516 O 163.445 0.647627 -1.83401 0
M  V30 1517 C 163.728 -2.83979 -2.21422 0
M  V30 1518 C 163.581 -4.22646 -1.53918 0
M  V30 1519 C 164.9 -2.99521 -3.22451 0
M  V30 1520 H 162.019 -0.596709 -0.432559 0
M  V30 1521 H 164.661 -1.83748 -0.483398 0
M  V30 1522 H 162.811 -2.67237 -2.81987 0
M  V30 1523 H 164.483 -4.51045 -0.967256 0
M  V30 1524 H 162.726 -4.25558 -0.841615 0
M  V30 1525 H 163.397 -5.02609 -2.28229 0
M  V30 1526 H 165.873 -3.14944 -2.71937 0
M  V30 1527 H 164.749 -3.85072 -3.91166 0
M  V30 1528 H 165.01 -2.11391 -3.88287 0
M  V30 1529 N 164.069 0.697108 -1.41344 0
M  V30 1530 C 164.979 1.84088 -1.45427 0
M  V30 1531 C 165.995 1.70545 -0.34501 0
M  V30 1532 O 167.171 1.92488 -0.592492 0
M  V30 1533 C 164.236 3.20056 -1.33286 0
M  V30 1534 C 163.297 3.45718 -2.54514 0
M  V30 1535 C 162.53 4.75199 -2.42944 0
M  V30 1536 O 162.753 5.51579 -1.45318 0
M  V30 1537 O 161.687 5.0161 -3.32672 0
M  V30 1538 H 165.513 1.836 -2.41919 0
M  V30 1539 H 163.098 0.849966 -1.22866 0
M  V30 1540 H 164.98 4.01236 -1.28794 0
M  V30 1541 H 163.655 3.2123 -0.39909 0
M  V30 1542 H 162.562 2.64474 -2.64583 0
M  V30 1543 H 163.895 3.49356 -3.46715 0
M  V30 1544 N 165.547 1.27147 0.931209 0
M  V30 1545 C 166.793 1.13446 1.68101 0
M  V30 1546 C 167.126 -0.319628 1.91552 0
M  V30 1547 O 166.401 -1.23407 1.50336 0
M  V30 1548 C 166.684 1.91482 3.0497 0
M  V30 1549 C 166.537 3.44855 2.88782 0
M  V30 1550 C 167.856 1.71651 4.05246 0
M  V30 1551 H 164.975 0.413498 0.610072 0
M  V30 1552 H 167.617 1.56261 1.08086 0
M  V30 1553 H 165.767 1.55095 3.56199 0
M  V30 1554 H 167.439 3.9105 2.44698 0
M  V30 1555 H 165.682 3.71373 2.24198 0
M  V30 1556 H 166.353 3.94694 3.85902 0
M  V30 1557 H 168.829 2.0337 3.63015 0
M  V30 1558 H 167.705 2.28651 4.99009 0
M  V30 1559 H 167.966 0.663555 4.37092 0
M  V30 1560 N 167.025 -1.13721 1.09112 0
M  V30 1561 C 167.975 -2.17082 0.697091 0
M  V30 1562 C 168.959 -1.58321 -0.286923 0
M  V30 1563 O 170.151 -1.7673 -0.0978008 0
M  V30 1564 C 167.28 -3.43105 0.115729 0
M  V30 1565 C 166.366 -4.0888 1.12596 0
M  V30 1566 N 166.757 -4.4987 2.31195 0
M  V30 1567 C 165.055 -4.35471 0.963366 0
M  V30 1568 C 165.756 -5.01094 2.95431 0
M  V30 1569 N 164.732 -4.95751 2.23006 0
M  V30 1570 H 168.534 -2.46524 1.6001 0
M  V30 1571 H 166.048 -1.30481 0.966869 0
M  V30 1572 H 168.045 -4.16491 -0.184555 0
M  V30 1573 H 166.705 -3.15138 -0.78217 0
M  V30 1574 H 167.716 -4.42678 2.68806 0
M  V30 1575 H 164.393 -4.17328 0.119878 0
M  V30 1576 H 165.783 -5.4263 3.96236 0
M  V30 1577 N 168.503 -0.877838 -1.30888 0
M  V30 1578 C 169.451 -0.328662 -2.30266 0
M  V30 1579 C 170.445 0.560496 -1.59859 0
M  V30 1580 O 171.651 0.445722 -1.74394 0
M  V30 1581 H 168.026 -0.0876142 -0.746879 0
M  V30 1582 H 169.997 -1.18061 -2.74051 0
M  V30 1583 C 168.746 0.448071 -3.44801 0
M  V30 1584 H 168.069 -0.226859 -3.99156 0
M  V30 1585 H 169.509 0.797541 -4.16432 0
M  V30 1586 C 167.968 1.64239 -2.94155 0
M  V30 1587 O 168.498 2.74175 -2.93583 0
M  V30 1588 N 166.704 1.47716 -2.50256 0
M  V30 1589 H 166.251 0.582821 -2.5092 0
M  V30 1590 H 166.209 2.27765 -2.16727 0
M  V30 1591 N 169.982 1.44106 -0.638065 0
M  V30 1592 C 170.945 2.29138 0.0531013 0
M  V30 1593 C 171.945 1.41409 0.765506 0
M  V30 1594 O 173.135 1.63206 0.609046 0
M  V30 1595 C 170.267 3.23144 1.08584 0
M  V30 1596 H 171.46 2.91739 -0.694883 0
M  V30 1597 H 169.013 1.51134 -0.398538 0
M  V30 1598 H 169.748 2.65408 1.86357 0
M  V30 1599 H 169.533 3.87804 0.578852 0
M  V30 1600 H 171.023 3.87004 1.56899 0
M  V30 1601 N 171.46 0.379036 1.52974 0
M  V30 1602 C 172.407 -0.461048 2.26148 0
M  V30 1603 C 173.377 -1.06637 1.27349 0
M  V30 1604 O 174.562 -1.09633 1.56157 0
M  V30 1605 C 171.702 -1.58782 3.06402 0
M  V30 1606 C 170.815 -1.00636 4.20115 0
M  V30 1607 C 169.95 -2.10334 4.87784 0
M  V30 1608 C 168.989 -1.49724 5.93506 0
M  V30 1609 N 168.126 -2.5331 6.54812 0
M  V30 1610 H 172.966 0.169429 2.97518 0
M  V30 1611 H 170.503 0.0953806 1.4679 0
M  V30 1612 H 172.461 -2.25174 3.51215 0
M  V30 1613 H 171.091 -2.18876 2.37261 0
M  V30 1614 H 170.143 -0.232332 3.7969 0
M  V30 1615 H 171.455 -0.523343 4.96047 0
M  V30 1616 H 170.609 -2.84519 5.35849 0
M  V30 1617 H 169.348 -2.61992 4.11353 0
M  V30 1618 H 168.353 -0.740598 5.44789 0
M  V30 1619 H 169.578 -0.988732 6.71864 0
M  V30 1620 H 167.524 -3.04156 5.81227 0
M  V30 1621 H 167.441 -2.09734 7.26325 0
M  V30 1622 H 168.709 -3.27155 7.07524 0
M  V30 1623 N 172.938 -1.57226 0.108567 0
M  V30 1624 C 174.166 -1.99179 -0.559954 0
M  V30 1625 C 174.581 -0.988022 -1.60884 0
M  V30 1626 O 173.938 0.0205512 -1.82488 0
M  V30 1627 C 173.989 -3.41159 -1.19552 0
M  V30 1628 O 173.71 -4.37694 -0.188577 0
M  V30 1629 C 175.211 -3.98188 -1.94837 0
M  V30 1630 H 172.431 -0.654228 -0.149088 0
M  V30 1631 H 174.975 -2.03598 0.19183 0
M  V30 1632 H 173.13 -3.37711 -1.89815 0
M  V30 1633 H 173.544 -5.20469 -0.649014 0
M  V30 1634 H 175.018 -4.99644 -2.34648 0
M  V30 1635 H 175.495 -3.3675 -2.81951 0
M  V30 1636 H 176.101 -4.0515 -1.2936 0
M  V30 1637 N 174.416 0.165178 -1.56732 0
M  V30 1638 C 175.363 1.2044 -1.96883 0
M  V30 1639 C 176.333 1.43664 -0.833657 0
M  V30 1640 O 177.518 1.56302 -1.09427 0
M  V30 1641 C 174.658 2.53727 -2.33916 0
M  V30 1642 C 173.771 2.3783 -3.6064 0
M  V30 1643 C 172.906 3.64026 -3.86857 0
M  V30 1644 C 171.945 3.43088 -5.06909 0
M  V30 1645 N 171.082 4.61369 -5.29229 0
M  V30 1646 H 175.922 0.854996 -2.85471 0
M  V30 1647 H 173.459 0.41076 -1.41249 0
M  V30 1648 H 175.417 3.31419 -2.53411 0
M  V30 1649 H 174.047 2.8665 -1.48431 0
M  V30 1650 H 173.099 1.51282 -3.49024 0
M  V30 1651 H 174.411 2.18308 -4.4849 0
M  V30 1652 H 173.565 4.50152 -4.06753 0
M  V30 1653 H 172.304 3.86533 -2.97394 0
M  V30 1654 H 171.309 2.55349 -4.86906 0
M  V30 1655 H 172.534 3.21997 -5.97909 0
M  V30 1656 H 170.48 4.84084 -4.42718 0
M  V30 1657 H 170.397 4.44783 -6.11313 0
M  V30 1658 H 171.665 5.48761 -5.53608 0
M  V30 1659 N 175.894 1.51508 0.433938 0
M  V30 1660 C 177.305 1.56784 1.01369 0
M  V30 1661 C 177.656 0.393349 1.92217 0
M  V30 1662 O 176.781 -0.489441 2.10792 0
M  V30 1663 C 177.376 2.84144 1.8452 0
M  V30 1664 C 175.935 2.9198 2.37539 0
M  V30 1665 C 175.082 2.51482 1.16843 0
M  V30 1666 H 178.033 1.57236 0.215081 0
M  V30 1667 H 178.054 2.68098 2.70007 0
M  V30 1668 H 177.566 3.69607 1.18373 0
M  V30 1669 H 175.667 2.10955 3.0713 0
M  V30 1670 H 175.78 3.95704 2.70103 0
M  V30 1671 H 174.144 2.04758 1.51481 0
M  V30 1672 H 174.927 3.39293 0.523015 0
M  V30 1673 N 177.372 -0.689602 1.41712 0
M  V30 1674 C 178.788 -1.00093 1.24312 0
M  V30 1675 C 178.988 -2.01036 0.136729 0
M  V30 1676 O 178.044 -2.47562 -0.496918 0
M  V30 1677 C 179.357 -1.51985 2.59463 0
M  V30 1678 C 180.905 -1.63838 2.66695 0
M  V30 1679 C 181.38 -2.1913 4.02177 0
M  V30 1680 N 182.871 -2.26483 4.04054 0
M  V30 1681 C 183.606 -2.70306 5.0569 0
M  V30 1682 N 183.102 -3.13691 6.17713 0
M  V30 1683 N 184.895 -2.69923 4.9305 0
M  V30 1684 H 177.046 -0.0210029 2.1239 0
M  V30 1685 H 179.309 -0.0718733 0.945272 0
M  V30 1686 H 179.015 -0.85269 3.41207 0
M  V30 1687 H 178.889 -2.50103 2.82362 0
M  V30 1688 H 181.276 -2.29664 1.85306 0
M  V30 1689 H 181.357 -0.642492 2.476 0
M  V30 1690 H 181.001 -1.53918 4.84016 0
M  V30 1691 H 180.931 -3.19482 4.18615 0
M  V30 1692 H 183.422 -1.95874 3.23174 0
M  V30 1693 H 183.735 -3.45773 6.9113 0
M  V30 1694 H 182.08 -3.11585 6.21241 0
M  V30 1695 H 185.271 -2.35382 4.04614 0
M  V30 1696 H 185.444 -3.03758 5.72394 0
M  V30 1697 N 178.85 -1.27639 -0.924453 0
M  V30 1698 C 179.76 -1.12466 -2.05885 0
M  V30 1699 C 180.776 -0.053869 -1.73917 0
M  V30 1700 O 181.952 -0.261012 -1.99702 0
M  V30 1701 C 179.017 -0.776768 -3.37886 0
M  V30 1702 C 178.078 -1.92878 -3.83532 0
M  V30 1703 C 177.311 -1.59739 -5.09234 0
M  V30 1704 O 177.534 -0.506782 -5.68144 0
M  V30 1705 O 176.468 -2.43761 -5.50331 0
M  V30 1706 H 180.294 -2.07671 -2.21599 0
M  V30 1707 H 177.879 -1.06857 -1.04413 0
M  V30 1708 H 179.761 -0.596229 -4.17161 0
M  V30 1709 H 178.436 0.145732 -3.23372 0
M  V30 1710 H 177.343 -2.1644 -3.0513 0
M  V30 1711 H 178.676 -2.8316 -4.02593 0
M  V30 1712 N 180.328 1.1314 -1.09713 0
M  V30 1713 C 181.238 2.22242 -0.751367 0
M  V30 1714 C 182.254 1.72224 0.247938 0
M  V30 1715 O 183.43 2.01205 0.0885463 0
M  V30 1716 C 180.495 3.46231 -0.180274 0
M  V30 1717 C 179.556 4.11125 -1.2359 0
M  V30 1718 C 178.789 5.29195 -0.691966 0
M  V30 1719 O 179.012 5.68342 0.48414 0
M  V30 1720 O 177.946 5.84214 -1.44838 0
M  V30 1721 H 181.772 2.54197 -1.66186 0
M  V30 1722 H 179.357 1.21331 -0.871735 0
M  V30 1723 H 181.239 4.21185 0.134739 0
M  V30 1724 H 179.914 3.1597 0.703185 0
M  V30 1725 H 178.821 3.37985 -1.60366 0
M  V30 1726 H 180.154 4.45524 -2.09211 0
M  V30 1727 N 181.806 0.884767 1.30421 0
M  V30 1728 C 182.738 0.308655 2.27112 0
M  V30 1729 C 183.751 -0.536655 1.53701 0
M  V30 1730 O 184.94 -0.35624 1.74909 0
M  V30 1731 C 182.04 -0.579782 3.33904 0
M  V30 1732 C 181.213 0.236417 4.36761 0
M  V30 1733 C 180.272 -0.582482 5.22966 0
M  V30 1734 O 179.298 -0.00525502 5.692 0
M  V30 1735 N 180.5 -1.89163 5.48815 0
M  V30 1736 H 183.265 1.13964 2.77186 0
M  V30 1737 H 180.826 0.747731 1.43599 0
M  V30 1738 H 182.818 -1.13366 3.88497 0
M  V30 1739 H 181.388 -1.31144 2.83761 0
M  V30 1740 H 180.608 0.97174 3.82035 0
M  V30 1741 H 181.896 0.795924 5.02536 0
M  V30 1742 H 181.294 -2.38352 5.13035 0
M  V30 1743 H 179.851 -2.39296 6.06284 0
M  V30 1744 N 183.284 -1.43765 0.645699 0
M  V30 1745 C 184.531 -2.01898 0.15604 0
M  V30 1746 C 184.859 -1.50887 -1.22733 0
M  V30 1747 O 184.114 -0.689271 -1.8316 0
M  V30 1748 C 184.413 -3.57238 0.107679 0
M  V30 1749 C 184.079 -4.27564 1.43178 0
M  V30 1750 C 182.741 -4.46492 1.7944 0
M  V30 1751 C 185.093 -4.67454 2.30513 0
M  V30 1752 C 182.421 -5.02573 3.02716 0
M  V30 1753 C 184.773 -5.24901 3.53074 0
M  V30 1754 C 183.437 -5.42046 3.89541 0
M  V30 1755 H 182.707 -0.738797 0.057099 0
M  V30 1756 H 185.354 -1.72341 0.834912 0
M  V30 1757 H 183.659 -3.86293 -0.654618 0
M  V30 1758 H 185.356 -3.99965 -0.287938 0
M  V30 1759 H 181.946 -4.13171 1.13963 0
M  V30 1760 H 186.13 -4.5253 2.0379 0
M  V30 1761 H 181.386 -5.14033 3.31028 0
M  V30 1762 H 185.56 -5.54758 4.20971 0
M  V30 1763 H 183.187 -5.85268 4.85145 0
M  V30 1764 N 184.763 -0.387143 -1.52771 0
M  V30 1765 C 185.711 0.463953 -2.27926 0
M  V30 1766 C 186.705 1.06493 -1.31741 0
M  V30 1767 O 187.911 1.00565 -1.49287 0
M  V30 1768 H 184.286 0.16837 -0.732909 0
M  V30 1769 H 186.257 -0.19141 -2.97785 0
M  V30 1770 C 185.006 1.5803 -3.09713 0
M  V30 1771 H 184.329 1.12718 -3.83581 0
M  V30 1772 H 185.769 2.15008 -3.65442 0
M  V30 1773 C 184.228 2.53509 -2.2189 0
M  V30 1774 O 184.758 3.56863 -1.84422 0
M  V30 1775 N 182.964 2.23199 -1.86093 0
M  V30 1776 H 182.511 1.39185 -2.16761 0
M  V30 1777 H 182.469 2.87333 -1.27621 0
M  V30 1778 N 186.241 1.57166 -0.116904 0
M  V30 1779 C 187.466 1.999 0.55271 0
M  V30 1780 C 187.891 0.996039 1.59564 0
M  V30 1781 O 187.249 -0.032556 1.81271 0
M  V30 1782 C 187.297 3.4152 1.15742 0
M  V30 1783 O 186.401 3.44106 2.27299 0
M  V30 1784 H 185.742 0.649447 0.138258 0
M  V30 1785 H 188.272 2.03573 -0.204759 0
M  V30 1786 H 188.282 3.79684 1.49346 0
M  V30 1787 H 186.957 4.14034 0.393493 0
M  V30 1788 H 185.534 3.17759 1.9515 0
M  V30 1789 N 187.719 -0.156864 1.56817 0
M  V30 1790 C 188.947 -0.886316 1.86955 0
M  V30 1791 C 189.362 -1.75185 0.703975 0
M  V30 1792 O 188.719 -1.79555 -0.326552 0
M  V30 1793 C 188.77 -1.75117 3.16253 0
M  V30 1794 O 188.491 -0.920537 4.2832 0
M  V30 1795 C 189.992 -2.58905 3.59837 0
M  V30 1796 H 187.212 -0.25678 0.619923 0
M  V30 1797 H 189.756 -0.152615 2.0393 0
M  V30 1798 H 187.911 -2.43805 3.01062 0
M  V30 1799 H 188.325 -1.51337 5.02192 0
M  V30 1800 H 189.799 -3.1518 4.53172 0
M  V30 1801 H 190.276 -3.34472 2.84649 0
M  V30 1802 H 190.882 -1.95526 3.7769 0
M  V30 1803 N 189.197 -1.51736 -0.425897 0
M  V30 1804 C 190.427 -1.68549 -1.19476 0
M  V30 1805 C 190.835 -0.387288 -1.85194 0
M  V30 1806 O 190.178 0.645142 -1.71999 0
M  V30 1807 C 190.24 -2.75275 -2.31223 0
M  V30 1808 C 189.904 -4.17534 -1.8578 0
M  V30 1809 C 190.901 -5.01936 -1.35485 0
M  V30 1810 C 188.586 -4.6369 -1.93123 0
M  V30 1811 C 190.58 -6.30559 -0.931347 0
M  V30 1812 C 188.267 -5.92307 -1.50384 0
M  V30 1813 C 189.265 -6.75569 -1.00473 0
M  V30 1814 O 188.953 -8.0178 -0.583452 0
M  V30 1815 H 188.685 -0.568525 -0.365725 0
M  V30 1816 H 191.239 -1.98982 -0.509444 0
M  V30 1817 H 189.469 -2.40182 -3.03067 0
M  V30 1818 H 191.158 -2.80853 -2.93047 0
M  V30 1819 H 191.924 -4.67475 -1.29197 0
M  V30 1820 H 187.803 -3.98997 -2.30916 0
M  V30 1821 H 191.347 -6.95498 -0.541084 0
M  V30 1822 H 187.244 -6.2628 -1.56346 0
M  V30 1823 H 188.012 -8.1543 -0.708275 0
M  V30 1824 N 190.675 0.682077 -1.42076 0
M  V30 1825 C 192.091 0.994324 -1.24841 0
M  V30 1826 C 192.291 2.0096 -0.147389 0
M  V30 1827 O 191.347 2.47822 0.483782 0
M  V30 1828 C 192.66 1.50607 -2.60265 0
M  V30 1829 C 194.208 1.62421 -2.6756 0
M  V30 1830 C 194.683 2.16994 -4.03333 0
M  V30 1831 N 196.174 2.24337 -4.0525 0
M  V30 1832 C 196.909 2.67621 -5.07116 0
M  V30 1833 N 196.405 3.1041 -6.19368 0
M  V30 1834 N 198.198 2.67305 -4.94474 0
M  V30 1835 H 190.349 0.00973908 -2.12398 0
M  V30 1836 H 192.612 0.0668593 -0.945639 0
M  V30 1837 H 192.318 0.834583 -3.41654 0
M  V30 1838 H 192.192 2.48602 -2.83684 0
M  V30 1839 H 194.579 2.28678 -1.86521 0
M  V30 1840 H 194.66 0.629352 -2.47937 0
M  V30 1841 H 194.304 1.51349 -4.84826 0
M  V30 1842 H 194.234 3.17258 -4.20304 0
M  V30 1843 H 196.725 1.94158 -3.24209 0
M  V30 1844 H 197.038 3.42103 -6.92954 0
M  V30 1845 H 195.383 3.08286 -6.22884 0
M  V30 1846 H 198.574 2.33233 -4.05857 0
M  V30 1847 H 198.747 3.00718 -5.73997 0
M  V30 1848 N 192.153 1.28127 0.917671 0
M  V30 1849 C 193.399 1.15223 1.66888 0
M  V30 1850 C 193.732 -0.299293 1.9188 0
M  V30 1851 O 193.007 -1.21805 1.51637 0
M  V30 1852 C 193.29 1.94706 3.02922 0
M  V30 1853 C 193.143 3.47898 2.85109 0
M  V30 1854 C 194.462 1.75939 4.03402 0
M  V30 1855 H 191.581 0.419946 0.605652 0
M  V30 1856 H 194.223 1.57398 1.06423 0
M  V30 1857 H 192.373 1.58864 3.54534 0
M  V30 1858 H 194.045 3.93624 2.40537 0
M  V30 1859 H 192.288 3.7373 2.20246 0
M  V30 1860 H 192.959 3.98765 3.81694 0
M  V30 1861 H 195.435 2.07209 3.60837 0
M  V30 1862 H 194.311 2.33931 4.96556 0
M  V30 1863 H 194.572 0.709877 4.36364 0
M  V30 1864 N 193.631 -1.12557 1.10312 0
M  V30 1865 C 194.877 -1.84311 0.846011 0
M  V30 1866 C 195.21 -1.83805 -0.626859 0
M  V30 1867 O 194.485 -1.28268 -1.46211 0
M  V30 1868 C 194.768 -3.32048 1.39341 0
M  V30 1869 C 194.621 -3.41016 2.93305 0
M  V30 1870 C 195.94 -4.27764 1.03468 0
M  V30 1871 H 193.059 -0.669192 0.30879 0
M  V30 1872 H 195.701 -1.32057 1.36605 0
M  V30 1873 H 193.851 -3.76678 0.951087 0
M  V30 1874 H 195.523 -3.05031 3.46055 0
M  V30 1875 H 193.766 -2.81603 3.29973 0
M  V30 1876 H 194.437 -4.44948 3.26689 0
M  V30 1877 H 196.913 -3.91253 1.41633 0
M  V30 1878 H 195.789 -5.29549 1.44463 0
M  V30 1879 H 196.05 -4.42064 -0.0560404 0
M  V30 1880 N 195.109 -0.891671 -1.2995 0
M  V30 1881 C 196.334 -0.527932 -2.00568 0
M  V30 1882 C 196.759 0.877969 -1.66353 0
M  V30 1883 O 196.117 1.58301 -0.883762 0
M  V30 1884 C 196.165 -0.717745 -3.53385 0
M  V30 1885 O 195.269 0.233376 -4.11739 0
M  V30 1886 H 194.61 -0.20722 -0.630837 0
M  V30 1887 H 197.14 -1.20105 -1.65638 0
M  V30 1888 H 197.15 -0.619307 -4.03272 0
M  V30 1889 H 195.825 -1.74276 -3.77625 0
M  V30 1890 H 194.402 0.0880706 -3.72796 0
M  V30 1891 N 196.587 1.43421 -0.653314 0
M  V30 1892 C 197.833 2.02111 -0.166992 0
M  V30 1893 C 198.166 1.51423 1.21592 0
M  V30 1894 O 197.441 0.707389 1.8118 0
M  V30 1895 C 197.724 3.5966 -0.177948 0
M  V30 1896 C 197.577 4.20579 -1.59478 0
M  V30 1897 C 198.896 4.37413 0.4856 0
M  V30 1898 H 196.015 0.734374 -0.0621557 0
M  V30 1899 H 198.657 1.70717 -0.834016 0
M  V30 1900 H 196.807 3.86537 0.390032 0
M  V30 1901 H 198.479 4.04732 -2.21336 0
M  V30 1902 H 196.722 3.77226 -2.14204 0
M  V30 1903 H 197.393 5.29665 -1.5543 0
M  V30 1904 H 199.869 4.161 0.00234528 0
M  V30 1905 H 198.745 5.47075 0.447207 0
M  V30 1906 H 199.006 4.13672 1.55974 0
M  V30 1907 N 198.065 0.39524 1.52563 0
M  V30 1908 C 198.995 -0.428384 2.29537 0
M  V30 1909 C 199.976 -1.05831 1.33169 0
M  V30 1910 O 201.161 -1.06995 1.62067 0
M  V30 1911 C 198.291 -1.55274 3.10656 0
M  V30 1912 C 197.245 -1.04855 4.14957 0
M  V30 1913 C 196.571 -2.26543 4.84337 0
M  V30 1914 C 197.871 -0.112324 5.22179 0
M  V30 1915 H 199.565 0.213867 2.98635 0
M  V30 1916 H 197.111 0.104298 1.43622 0
M  V30 1917 H 199.064 -2.1358 3.63265 0
M  V30 1918 H 197.788 -2.22266 2.39302 0
M  V30 1919 H 196.447 -0.487985 3.63338 0
M  V30 1920 H 196.095 -2.92059 4.09525 0
M  V30 1921 H 195.795 -1.93466 5.54837 0
M  V30 1922 H 197.319 -2.85481 5.39753 0
M  V30 1923 H 198.733 -0.603752 5.70112 0
M  V30 1924 H 197.13 0.128968 5.99961 0
M  V30 1925 H 198.2 0.837052 4.77621 0
M  V30 1926 N 199.544 -1.57102 0.125237 0
M  V30 1927 C 200.772 -1.99761 -0.538797 0
M  V30 1928 C 201.187 -1.00503 -1.59827 0
M  V30 1929 O 200.544 0.00119474 -1.825 0
M  V30 1930 C 200.595 -3.42408 -1.15927 0
M  V30 1931 O 200.316 -4.37869 -0.142143 0
M  V30 1932 C 201.817 -4.00232 -1.90602 0
M  V30 1933 H 199.037 -0.655772 -0.14214 0
M  V30 1934 H 201.581 -2.03383 0.213413 0
M  V30 1935 H 199.736 -3.39706 -1.86223 0
M  V30 1936 H 200.15 -5.21128 -0.593775 0
M  V30 1937 H 201.624 -5.02105 -2.29335 0
M  V30 1938 H 202.101 -3.39721 -2.78363 0
M  V30 1939 H 202.707 -4.06499 -1.25055 0
M  V30 1940 N 201.022 0.148545 -1.56898 0
M  V30 1941 C 202.268 0.862694 -1.83536 0
M  V30 1942 C 202.601 1.80889 -0.706604 0
M  V30 1943 O 201.876 1.92328 0.289885 0
M  V30 1944 C 202.159 1.63853 -3.20662 0
M  V30 1945 C 202.012 0.713925 -4.44098 0
M  V30 1946 C 203.331 2.60133 -3.54991 0
M  V30 1947 H 200.45 0.312179 -0.667618 0
M  V30 1948 H 203.092 0.127953 -1.89569 0
M  V30 1949 H 201.242 2.26489 -3.1565 0
M  V30 1950 H 202.914 0.098686 -4.61194 0
M  V30 1951 H 201.157 0.0234019 -4.33794 0
M  V30 1952 H 201.828 1.29278 -5.36648 0
M  V30 1953 H 204.304 2.07616 -3.60603 0
M  V30 1954 H 203.18 3.11468 -4.51972 0
M  V30 1955 H 203.441 3.41417 -2.80868 0
M  V30 1956 N 202.5 1.5196 0.417844 0
M  V30 1957 C 203.43 1.77634 1.51554 0
M  V30 1958 C 204.411 0.626918 1.58126 0
M  V30 1959 O 205.596 0.871632 1.7354 0
M  V30 1960 C 202.726 1.91911 2.8946 0
M  V30 1961 C 201.68 3.07463 2.97743 0
M  V30 1962 C 201.006 3.06951 4.37819 0
M  V30 1963 C 202.306 4.47082 2.70027 0
M  V30 1964 H 204 2.6955 1.3032 0
M  V30 1965 H 201.546 1.29706 0.625492 0
M  V30 1966 H 203.499 2.08455 3.6623 0
M  V30 1967 H 202.223 0.966598 3.11969 0
M  V30 1968 H 200.882 2.90656 2.23416 0
M  V30 1969 H 200.53 2.09438 4.57323 0
M  V30 1970 H 200.23 3.84556 4.44286 0
M  V30 1971 H 201.754 3.25613 5.16535 0
M  V30 1972 H 203.168 4.6414 3.36522 0
M  V30 1973 H 201.565 5.2654 2.87881 0
M  V30 1974 H 202.635 4.55777 1.65514 0
M  V30 1975 N 203.978 -0.674533 1.42435 0
M  V30 1976 C 204.928 -1.7807 1.4239 0
M  V30 1977 C 205.912 -1.58169 0.295202 0
M  V30 1978 O 207.104 -1.68643 0.537449 0
M  V30 1979 C 204.233 -3.16532 1.32901 0
M  V30 1980 C 203.319 -3.42055 2.50717 0
M  V30 1981 N 203.71 -3.38162 3.76139 0
M  V30 1982 C 202.008 -3.72692 2.44983 0
M  V30 1983 C 202.709 -3.63177 4.54398 0
M  V30 1984 N 201.685 -3.83954 3.84812 0
M  V30 1985 H 205.487 -1.73454 2.37257 0
M  V30 1986 H 203.001 -0.875381 1.36788 0
M  V30 1987 H 204.998 -3.958 1.30951 0
M  V30 1988 H 203.658 -3.22345 0.390363 0
M  V30 1989 H 204.669 -3.18057 4.0873 0
M  V30 1990 H 201.346 -3.85749 1.59699 0
M  V30 1991 H 202.736 -3.66125 5.63384 0
M  V30 1992 N 205.456 -1.28612 -0.910864 0
M  V30 1993 C 206.388 -1.08589 -2.01844 0
M  V30 1994 C 207.401 -0.0367419 -1.62759 0
M  V30 1995 O 208.59 -0.280101 -1.76289 0
M  V30 1996 C 205.69 -0.628626 -3.33019 0
M  V30 1997 C 204.863 -1.75382 -4.00699 0
M  V30 1998 C 203.922 -1.28945 -5.10156 0
M  V30 1999 O 202.948 -1.9922 -5.33198 0
M  V30 2000 N 204.15 -0.154224 -5.80295 0
M  V30 2001 H 206.915 -2.03973 -2.19579 0
M  V30 2002 H 204.476 -1.20403 -1.08234 0
M  V30 2003 H 206.468 -0.301508 -4.03575 0
M  V30 2004 H 205.038 0.232451 -3.11735 0
M  V30 2005 H 204.258 -2.25039 -3.23653 0
M  V30 2006 H 205.546 -2.50854 -4.42662 0
M  V30 2007 H 204.944 0.43194 -5.64049 0
M  V30 2008 H 203.501 0.113599 -6.51701 0
M  V30 2009 N 206.934 1.1197 -1.10907 0
M  V30 2010 C 208.211 1.79959 -0.766432 0
M  V30 2011 C 208.591 1.97466 0.746363 0
M  V30 2012 O 207.939 1.55491 1.67436 0
M  V30 2013 C 208.149 3.14009 -1.52314 0
M  V30 2014 C 209.497 3.89134 -1.69883 0
M  V30 2015 O 210.521 3.2368 -1.48692 0
M  V30 2016 O 209.38 5.06572 -2.05054 0
M  V30 2017 H 206.474 0.779208 -0.277062 0
M  V30 2018 H 209.02 1.18762 -1.21217 0
M  V30 2019 H 207.792 2.96587 -2.55249 0
M  V30 2020 H 207.415 3.82915 -1.07059 0
M  V30 2021 N 208.412 0.89855 1.29475 0
M  V30 2022 C 209.658 0.534065 1.96263 0
M  V30 2023 C 210.013 -0.909415 1.69551 0
M  V30 2024 O 209.306 -1.63596 0.997349 0
M  V30 2025 C 209.5 0.761398 3.49195 0
M  V30 2026 C 209.329 2.22542 3.90775 0
M  V30 2027 C 208.099 2.87264 4.15701 0
M  V30 2028 C 210.297 3.20051 4.02581 0
M  V30 2029 N 208.279 4.24121 4.4384 0
M  V30 2030 C 209.65 4.42023 4.34759 0
M  V30 2031 C 211.705 3.15657 3.85052 0
M  V30 2032 C 210.408 5.60161 4.51235 0
M  V30 2033 C 212.434 4.33078 4.02737 0
M  V30 2034 C 211.796 5.5382 4.35273 0
M  V30 2035 H 207.895 0.245013 0.742625 0
M  V30 2036 H 210.479 1.15912 1.56437 0
M  V30 2037 H 208.65 0.165732 3.88046 0
M  V30 2038 H 210.382 0.362462 4.03074 0
M  V30 2039 H 207.137 2.38064 4.09417 0
M  V30 2040 H 207.561 4.94839 4.6202 0
M  V30 2041 H 212.203 2.23396 3.58962 0
M  V30 2042 H 209.921 6.52913 4.76162 0
M  V30 2043 H 213.507 4.31163 3.90628 0
M  V30 2044 H 212.387 6.43166 4.48672 0
M  V30 2045 N 209.89 -1.43072 0.660911 0
M  V30 2046 C 210.82 -2.33497 -0.0122829 0
M  V30 2047 C 211.801 -1.49903 -0.803925 0
M  V30 2048 O 212.986 -1.78546 -0.763864 0
M  V30 2049 C 210.116 -3.33363 -0.973994 0
M  V30 2050 C 209.07 -4.27003 -0.291928 0
M  V30 2051 C 208.396 -5.16967 -1.36562 0
M  V30 2052 C 209.696 -5.15816 0.820462 0
M  V30 2053 H 211.39 -2.90038 0.742873 0
M  V30 2054 H 208.936 -1.39461 0.358688 0
M  V30 2055 H 210.889 -3.95524 -1.45392 0
M  V30 2056 H 209.613 -2.75095 -1.7604 0
M  V30 2057 H 208.272 -3.66217 0.167623 0
M  V30 2058 H 207.92 -4.55034 -2.14366 0
M  V30 2059 H 207.62 -5.80441 -0.914454 0
M  V30 2060 H 209.144 -5.82003 -1.84675 0
M  V30 2061 H 210.558 -5.71742 0.422366 0
M  V30 2062 H 208.955 -5.8805 1.19656 0
M  V30 2063 H 210.025 -4.55045 1.67518 0
M  V30 2064 N 211.368 -0.403325 -1.52352 0
M  V30 2065 C 212.316 0.439752 -2.28405 0
M  V30 2066 C 213.31 1.05089 -1.32863 0
M  V30 2067 O 214.516 0.989759 -1.50345 0
M  V30 2068 H 210.891 0.160587 -0.734653 0
M  V30 2069 H 212.862 -0.222983 -2.97566 0
M  V30 2070 C 211.611 1.54736 -3.11371 0
M  V30 2071 H 210.934 1.08643 -3.84755 0
M  V30 2072 H 212.374 2.1112 -3.67701 0
M  V30 2073 C 210.833 2.51141 -2.24566 0
M  V30 2074 O 211.363 3.54887 -1.88196 0
M  V30 2075 N 209.569 2.21213 -1.8845 0
M  V30 2076 H 209.116 1.36878 -2.18225 0
M  V30 2077 H 209.074 2.85963 -1.30662 0
M  V30 2078 N 212.846 1.57033 -0.133567 0
M  V30 2079 C 214.094 1.953 0.519848 0
M  V30 2080 C 214.415 1.01866 1.66278 0
M  V30 2081 O 213.685 0.0776513 1.95746 0
M  V30 2082 H 212.265 0.721091 0.195032 0
M  V30 2083 H 214.927 1.93809 -0.205921 0
M  V30 2084 H 214.023 2.98695 0.904854 0
M  V30 2085 N 214.325 -0.140222 1.56975 0
M  V30 2086 C 215.272 -1.17292 1.98774 0
M  V30 2087 C 216.242 -1.4232 0.856408 0
M  V30 2088 O 217.427 -1.54541 1.119 0
M  V30 2089 C 214.567 -2.49973 2.37923 0
M  V30 2090 C 213.68 -2.32062 3.64378 0
M  V30 2091 C 212.815 -3.57825 3.926 0
M  V30 2092 C 211.854 -3.3498 5.12303 0
M  V30 2093 N 210.991 -4.52891 5.36502 0
M  V30 2094 H 215.831 -0.809472 2.86795 0
M  V30 2095 H 213.368 -0.388237 1.41884 0
M  V30 2096 H 215.326 -3.27346 2.58652 0
M  V30 2097 H 213.956 -2.84252 1.52972 0
M  V30 2098 H 213.008 -1.45711 3.51387 0
M  V30 2099 H 214.32 -2.11145 4.51906 0
M  V30 2100 H 213.474 -4.43624 4.13863 0
M  V30 2101 H 212.213 -3.81753 3.03506 0
M  V30 2102 H 211.218 -2.4757 4.90906 0
M  V30 2103 H 212.443 -3.12444 6.02956 0
M  V30 2104 H 210.389 -4.76979 4.50363 0
M  V30 2105 H 210.306 -4.35001 6.18312 0
M  V30 2106 H 211.574 -5.39884 5.62268 0
M  V30 2107 N 215.803 -1.52179 -0.40978 0
M  V30 2108 C 216.713 -1.78364 -1.52392 0
M  V30 2109 C 217.729 -0.669183 -1.60617 0
M  V30 2110 O 218.905 -0.954518 -1.77344 0
M  V30 2111 C 215.97 -1.92822 -2.88133 0
M  V30 2112 C 215.031 -3.16725 -2.898 0
M  V30 2113 C 214.264 -3.30483 -4.19067 0
M  V30 2114 O 214.487 -2.49522 -5.12928 0
M  V30 2115 O 213.421 -4.2363 -4.27576 0
M  V30 2116 H 217.247 -2.72931 -1.33201 0
M  V30 2117 H 214.832 -1.37016 -0.59557 0
M  V30 2118 H 216.714 -2.04157 -3.68643 0
M  V30 2119 H 215.389 -1.01444 -3.07393 0
M  V30 2120 H 214.296 -3.10848 -2.08146 0
M  V30 2121 H 215.629 -4.07881 -2.75489 0
M  V30 2122 N 217.281 0.66697 -1.42791 0
M  V30 2123 C 218.511 1.45294 -1.46878 0
M  V30 2124 C 218.919 1.89027 -0.0809861 0
M  V30 2125 O 218.262 1.59219 0.916246 0
M  V30 2126 C 218.324 2.72908 -2.34012 0
M  V30 2127 C 217.988 2.51203 -3.81767 0
M  V30 2128 C 218.985 2.15302 -4.73224 0
M  V30 2129 C 216.67 2.65954 -4.26115 0
M  V30 2130 C 218.664 1.94431 -6.07022 0
M  V30 2131 C 216.351 2.44699 -5.59969 0
M  V30 2132 C 217.349 2.08992 -6.5024 0
M  V30 2133 O 217.037 1.87948 -7.81621 0
M  V30 2134 H 216.769 0.453306 -0.501487 0
M  V30 2135 H 219.323 0.826232 -1.88049 0
M  V30 2136 H 217.553 3.38089 -1.87703 0
M  V30 2137 H 219.242 3.34816 -2.29462 0
M  V30 2138 H 220.008 2.03495 -4.40244 0
M  V30 2139 H 215.887 2.92724 -3.56137 0
M  V30 2140 H 219.431 1.66484 -6.77443 0
M  V30 2141 H 215.328 2.56105 -5.9252 0
M  V30 2142 H 216.096 2.02483 -7.93059 0
M  V30 2143 N 218.759 1.29093 0.90403 0
M  V30 2144 C 219.706 1.13853 2.00764 0
M  V30 2145 C 220.676 0.0330084 1.66067 0
M  V30 2146 O 221.861 0.199733 1.89752 0
M  V30 2147 C 219.001 0.816537 3.35301 0
M  V30 2148 C 218.114 2.00206 3.82807 0
M  V30 2149 C 217.249 1.61983 5.059 0
M  V30 2150 C 216.288 2.77143 5.45764 0
M  V30 2151 N 215.425 2.39346 6.60044 0
M  V30 2152 H 220.265 2.08276 2.13132 0
M  V30 2153 H 217.802 1.03648 1.04381 0
M  V30 2154 H 219.76 0.610557 4.12708 0
M  V30 2155 H 218.39 -0.090779 3.22672 0
M  V30 2156 H 217.442 2.31988 3.01473 0
M  V30 2157 H 218.754 2.86512 4.08304 0
M  V30 2158 H 217.908 1.37649 5.90879 0
M  V30 2159 H 216.647 0.728202 4.82233 0
M  V30 2160 H 215.652 3.02165 4.59322 0
M  V30 2161 H 216.877 3.66964 5.71414 0
M  V30 2162 H 214.823 1.52665 6.37989 0
M  V30 2163 H 214.74 3.19185 6.85315 0
M  V30 2164 H 216.008 2.1832 7.48303 0
M  V30 2165 N 220.237 -1.11381 1.11499 0
M  V30 2166 C 221.477 -1.84763 0.874188 0
M  V30 2167 C 221.841 -1.82726 -0.589496 0
M  V30 2168 O 223.042 -2.51562 -0.947089 0
M  V30 2169 C 221.313 -3.27931 1.42112 0
M  V30 2170 S 222.872 -4.18557 1.31739 0
M  V30 2171 H 219.69 -0.637115 0.315603 0
M  V30 2172 H 222.292 -1.34097 1.42261 0
M  V30 2173 H 220.996 -3.26978 2.48019 0
M  V30 2174 H 220.527 -3.83665 0.869761 0
M  V30 2175 H 222.542 -4.95396 0.282335 0
M  V30 2176 N 221.715 -0.905404 -1.28997 0
M  V30 2177 C 222.662 -0.385892 -2.27551 0
M  V30 2178 C 223.632 0.535113 -1.57244 0
M  V30 2179 O 224.817 0.459119 -1.85194 0
M  V30 2180 C 221.957 0.375461 -3.43051 0
M  V30 2181 C 221.07 -0.577092 -4.28128 0
M  V30 2182 C 220.205 0.201879 -5.30816 0
M  V30 2183 C 219.244 -0.744829 -6.07551 0
M  V30 2184 N 218.381 9.42587e-05 -7.021 0
M  V30 2185 H 223.221 -1.23139 -2.71368 0
M  V30 2186 H 220.758 -0.618542 -1.33463 0
M  V30 2187 H 222.716 0.832992 -4.088 0
M  V30 2188 H 221.346 1.18537 -3.00248 0
M  V30 2189 H 220.398 -1.15315 -3.62501 0
M  V30 2190 H 221.71 -1.30152 -4.8152 0
M  V30 2191 H 220.864 0.720351 -6.02408 0
M  V30 2192 H 219.603 0.959413 -4.7817 0
M  V30 2193 H 218.608 -1.27475 -5.34818 0
M  V30 2194 H 219.833 -1.50178 -6.62286 0
M  V30 2195 H 217.779 0.739791 -6.51815 0
M  V30 2196 H 217.696 -0.664321 -7.53076 0
M  V30 2197 H 218.964 0.498644 -7.77903 0
M  V30 2198 N 223.193 1.4272 -0.668489 0
M  V30 2199 C 224.439 2.01923 -0.188419 0
M  V30 2200 C 224.772 1.52704 1.19979 0
M  V30 2201 O 224.047 0.726566 1.8042 0
M  V30 2202 C 224.33 3.59451 -0.216085 0
M  V30 2203 C 224.183 4.18864 -1.6393 0
M  V30 2204 C 225.502 4.37903 0.439179 0
M  V30 2205 H 222.621 0.733674 -0.0699412 0
M  V30 2206 H 225.263 1.69822 -0.852076 0
M  V30 2207 H 223.413 3.86929 0.349012 0
M  V30 2208 H 225.085 4.02362 -2.25616 0
M  V30 2209 H 223.328 3.74933 -2.18193 0
M  V30 2210 H 223.999 5.27987 -1.61039 0
M  V30 2211 H 226.475 4.16079 -0.0417878 0
M  V30 2212 H 225.351 5.47519 0.389157 0
M  V30 2213 H 225.612 4.15303 1.51577 0
M  V30 2214 N 224.671 0.411399 1.52136 0
M  V30 2215 C 225.896 -0.165538 2.06738 0
M  V30 2216 C 226.321 -1.379 1.27926 0
M  V30 2217 O 225.679 -1.78628 0.310114 0
M  V30 2218 C 225.727 -0.492124 3.57226 0
M  V30 2219 O 224.831 -1.58276 3.80818 0
M  V30 2220 H 224.172 -0.0132132 0.663869 0
M  V30 2221 H 226.702 0.585253 1.96051 0
M  V30 2222 H 226.712 -0.750104 4.01045 0
M  V30 2223 H 225.387 0.394922 4.14021 0
M  V30 2224 H 223.964 -1.31677 3.48877 0
M  V30 2225 N 226.149 -1.5696 0.141893 0
M  V30 2226 C 227.097 -2.17784 -0.816874 0
M  V30 2227 C 228.091 -1.1334 -1.25899 0
M  V30 2228 O 229.297 -1.316 -1.22806 0
M  V30 2229 H 225.672 -0.697278 -0.281615 0
M  V30 2230 H 227.643 -2.97087 -0.279621 0
M  V30 2231 C 226.392 -2.80983 -2.04802 0
M  V30 2232 H 225.715 -3.61062 -1.7168 0
M  V30 2233 H 227.155 -3.2705 -2.69841 0
M  V30 2234 C 225.614 -1.79228 -2.8527 0
M  V30 2235 O 226.144 -1.25962 -3.8144 0
M  V30 2236 N 224.35 -1.48647 -2.49704 0
M  V30 2237 H 223.897 -1.92155 -1.71564 0
M  V30 2238 H 223.855 -0.808115 -3.03837 0
M  V30 2239 N 227.627 0.131896 -1.57047 0
M  V30 2240 C 228.574 1.16236 -1.99393 0
M  V30 2241 C 229.544 1.41863 -0.863943 0
M  V30 2242 O 230.729 1.53946 -1.12718 0
M  V30 2243 C 227.869 2.48708 -2.39245 0
M  V30 2244 C 226.982 2.30127 -3.65603 0
M  V30 2245 C 226.117 3.55738 -3.94492 0
M  V30 2246 C 225.156 3.32259 -5.14073 0
M  V30 2247 N 224.293 4.50039 -5.38896 0
M  V30 2248 H 229.133 0.794251 -2.87221 0
M  V30 2249 H 226.67 0.380707 -1.42088 0
M  V30 2250 H 228.628 3.25969 -2.60384 0
M  V30 2251 H 227.258 2.83437 -1.54478 0
M  V30 2252 H 226.31 1.43845 -3.52154 0
M  V30 2253 H 227.622 2.08746 -4.5302 0
M  V30 2254 H 226.776 4.41423 -4.1621 0
M  V30 2255 H 225.515 3.80138 -3.05526 0
M  V30 2256 H 224.52 2.44963 -4.92212 0
M  V30 2257 H 225.745 3.09242 -6.04604 0
M  V30 2258 H 223.691 4.74584 -4.52886 0
M  V30 2259 H 223.608 4.31716 -6.2061 0
M  V30 2260 H 224.876 5.36895 -5.65123 0
M  V30 2261 N 229.106 1.52395 0.401703 0
M  V30 2262 C 230.354 1.66488 1.14569 0
M  V30 2263 C 230.675 0.400897 1.90835 0
M  V30 2264 O 229.945 -0.584415 1.8698 0
M  V30 2265 H 228.525 0.613672 0.425929 0
M  V30 2266 H 231.187 1.89464 0.457093 0
M  V30 2267 H 230.283 2.50942 1.85566 0
M  V30 2268 N 230.584 -0.659388 1.43143 0
M  V30 2269 C 231.514 -1.78422 1.50625 0
M  V30 2270 C 232.495 -1.66216 0.361443 0
M  V30 2271 O 233.68 -1.85404 0.577834 0
M  V30 2272 C 230.81 -3.16815 1.42287 0
M  V30 2273 C 229.764 -3.43777 2.54954 0
M  V30 2274 C 229.09 -4.81905 2.31671 0
M  V30 2275 C 230.39 -3.39134 3.97222 0
M  V30 2276 H 232.084 -1.72417 2.44771 0
M  V30 2277 H 229.63 -0.828084 1.17808 0
M  V30 2278 H 231.583 -3.95253 1.46127 0
M  V30 2279 H 230.307 -3.23534 0.446435 0
M  V30 2280 H 228.966 -2.67707 2.50457 0
M  V30 2281 H 228.614 -4.85294 1.32284 0
M  V30 2282 H 228.314 -5.00906 3.07192 0
M  V30 2283 H 229.838 -5.62609 2.37284 0
M  V30 2284 H 231.252 -4.07518 4.03239 0
M  V30 2285 H 229.649 -3.69671 4.72719 0
M  V30 2286 H 230.719 -2.37426 4.22797 0
M  V30 2287 N 232.062 -1.29571 -0.897171 0
M  V30 2288 C 233.473 -1.15964 -1.46319 0
M  V30 2289 C 233.824 0.244267 -1.94674 0
M  V30 2290 O 232.949 1.13998 -1.83939 0
M  V30 2291 C 233.544 -2.09906 -2.65942 0
M  V30 2292 C 232.103 -2.00314 -3.18671 0
M  V30 2293 C 231.25 -2.00687 -1.91363 0
M  V30 2294 H 234.201 -1.42019 -0.708268 0
M  V30 2295 H 234.222 -1.67276 -3.41759 0
M  V30 2296 H 233.734 -3.12075 -2.30718 0
M  V30 2297 H 231.835 -1.01242 -3.58582 0
M  V30 2298 H 231.948 -2.88102 -3.82798 0
M  V30 2299 H 230.312 -1.45319 -2.09175 0
M  V30 2300 H 231.095 -3.04566 -1.58413 0
M  V30 2301 N 233.54 1.10788 -1.12088 0
M  V30 2302 C 234.765 1.87002 -0.896949 0
M  V30 2303 C 235.19 1.79933 0.548261 0
M  V30 2304 O 234.548 1.16662 1.38779 0
M  V30 2305 C 234.596 3.3349 -1.37174 0
M  V30 2306 O 233.7 4.08745 -0.547831 0
M  V30 2307 H 233.041 0.580397 -0.322545 0
M  V30 2308 H 235.571 1.39996 -1.49206 0
M  V30 2309 H 235.581 3.84339 -1.36922 0
M  V30 2310 H 234.256 3.37951 -2.42408 0
M  V30 2311 H 232.833 3.6776 -0.617034 0
M  V30 2312 N 235.018 0.912232 1.28515 0
M  V30 2313 C 236.243 0.559774 1.99703 0
M  V30 2314 C 236.668 -0.851393 1.67729 0
M  V30 2315 O 236.026 -1.56875 0.908834 0
M  V30 2316 C 236.074 0.773874 3.52198 0
M  V30 2317 O 235.178 -0.167842 4.12058 0
M  V30 2318 H 234.519 0.21723 0.627461 0
M  V30 2319 H 237.049 1.22725 1.63706 0
M  V30 2320 H 237.059 0.683386 4.02236 0
M  V30 2321 H 235.734 1.80261 3.74805 0
M  V30 2322 H 234.311 -0.0287509 3.72889 0
M  V30 2323 N 236.496 -1.42363 0.676048 0
M  V30 2324 C 237.745 -2.00745 0.196037 0
M  V30 2325 C 238.058 -1.54083 -1.20489 0
M  V30 2326 O 239.264 -2.04891 -1.78134 0
M  V30 2327 C 237.72 -3.58651 0.299616 0
M  V30 2328 C 237.328 -4.143 1.70468 0
M  V30 2329 C 239.072 -4.24326 -0.121619 0
M  V30 2330 C 236.979 -5.64574 1.76096 0
M  V30 2331 H 235.909 -0.750787 0.0695301 0
M  V30 2332 H 238.56 -1.63072 0.841412 0
M  V30 2333 H 236.942 -3.93833 -0.413673 0
M  V30 2334 H 238.116 -3.90575 2.44515 0
M  V30 2335 H 236.431 -3.61081 2.07387 0
M  V30 2336 H 239.028 -5.34607 -0.0997362 0
M  V30 2337 H 239.371 -3.99897 -1.15708 0
M  V30 2338 H 239.904 -3.94108 0.540706 0
M  V30 2339 H 236.643 -5.93804 2.77628 0
M  V30 2340 H 236.163 -5.90286 1.06406 0
M  V30 2341 H 237.842 -6.29013 1.51496 0
M  V30 2342 N 237.974 -0.419461 -1.51915 0
M  V30 2343 C 238.884 0.407528 -2.31033 0
M  V30 2344 C 239.9 1.04413 -1.3919 0
M  V30 2345 O 241.076 1.0434 -1.72265 0
M  V30 2346 C 238.141 1.50365 -3.12396 0
M  V30 2347 C 237.202 0.889029 -4.19994 0
M  V30 2348 C 236.435 1.93291 -4.97468 0
M  V30 2349 O 236.658 3.15259 -4.75361 0
M  V30 2350 O 235.592 1.53339 -5.8204 0
M  V30 2351 H 239.418 -0.237865 -3.02767 0
M  V30 2352 H 237.003 -0.182413 -1.48282 0
M  V30 2353 H 238.885 2.13975 -3.63032 0
M  V30 2354 H 237.56 2.13345 -2.43445 0
M  V30 2355 H 236.467 0.215353 -3.7348 0
M  V30 2356 H 237.8 0.302991 -4.91267 0
M  V30 2357 N 239.452 1.56882 -0.150215 0
M  V30 2358 C 240.399 2.16922 0.788244 0
M  V30 2359 C 241.369 1.10303 1.24187 0
M  V30 2360 O 242.554 1.38359 1.31383 0
M  V30 2361 C 239.694 2.79754 2.02068 0
M  V30 2362 C 238.807 4.00775 1.61257 0
M  V30 2363 C 237.942 4.51595 2.79705 0
M  V30 2364 C 236.981 5.65074 2.35282 0
M  V30 2365 N 236.118 6.10499 3.4675 0
M  V30 2366 H 240.958 2.96779 0.269444 0
M  V30 2367 H 238.495 1.46599 0.12128 0
M  V30 2368 H 240.453 3.14329 2.74323 0
M  V30 2369 H 239.083 2.02536 2.51354 0
M  V30 2370 H 238.135 3.72158 0.787553 0
M  V30 2371 H 239.447 4.82978 1.24633 0
M  V30 2372 H 238.601 4.88242 3.60145 0
M  V30 2373 H 237.34 3.68406 3.19576 0
M  V30 2374 H 236.345 5.28 1.53283 0
M  V30 2375 H 237.57 6.50052 1.96493 0
M  V30 2376 H 235.516 5.30243 3.86236 0
M  V30 2377 H 235.433 6.87637 3.14152 0
M  V30 2378 H 236.701 6.51791 4.27537 0
M  V30 2379 N 240.93 -0.123565 1.57115 0
M  V30 2380 C 242.158 -0.846461 1.88793 0
M  V30 2381 C 242.573 -1.73652 0.740976 0
M  V30 2382 O 241.93 -1.80207 -0.288393 0
M  V30 2383 C 241.981 -1.6837 3.19897 0
M  V30 2384 O 241.702 -0.829477 4.30176 0
M  V30 2385 C 243.203 -2.51214 3.65248 0
M  V30 2386 H 240.423 -0.243573 0.625231 0
M  V30 2387 H 242.967 -0.109324 2.04208 0
M  V30 2388 H 241.122 -2.37364 3.06165 0
M  V30 2389 H 241.536 -1.40651 5.0529 0
M  V30 2390 H 243.01 -3.05497 4.59756 0
M  V30 2391 H 243.487 -3.28359 2.9168 0
M  V30 2392 H 244.093 -1.8747 3.81752 0
M  V30 2393 N 242.408 -1.52605 -0.393616 0
M  V30 2394 C 243.657 -1.66649 -1.13627 0
M  V30 2395 C 243.97 -0.410364 -1.91247 0
M  V30 2396 O 245.176 -0.430854 -2.68059 0
M  V30 2397 C 243.632 -2.9449 -2.06891 0
M  V30 2398 C 243.24 -4.27266 -1.34714 0
M  V30 2399 C 244.984 -3.17899 -2.81319 0
M  V30 2400 C 242.891 -5.46217 -2.26717 0
M  V30 2401 H 241.821 -0.62084 -0.427871 0
M  V30 2402 H 244.472 -1.791 -0.399428 0
M  V30 2403 H 242.854 -2.75774 -2.84191 0
M  V30 2404 H 244.028 -4.56518 -0.626714 0
M  V30 2405 H 242.343 -4.10081 -0.722643 0
M  V30 2406 H 244.94 -4.03949 -3.50328 0
M  V30 2407 H 245.283 -2.32777 -3.45139 0
M  V30 2408 H 245.816 -3.37159 -2.11113 0
M  V30 2409 H 242.555 -6.33733 -1.67521 0
M  V30 2410 H 242.075 -5.21283 -2.96689 0
M  V30 2411 H 243.754 -5.7991 -2.86903 0
M  V30 2412 N 243.887 0.651787 -1.4349 0
M  V30 2413 C 245.112 1.44434 -1.48841 0
M  V30 2414 C 245.537 1.8779 -0.107955 0
M  V30 2415 O 244.895 1.57464 0.898602 0
M  V30 2416 C 244.943 2.65458 -2.44059 0
M  V30 2417 O 244.047 3.64566 -1.92784 0
M  V30 2418 H 243.388 0.433005 -0.503391 0
M  V30 2419 H 245.918 0.797451 -1.88419 0
M  V30 2420 H 245.928 3.13255 -2.6141 0
M  V30 2421 H 244.603 2.33244 -3.4434 0
M  V30 2422 H 243.18 3.23716 -1.851 0
M  V30 2423 N 245.365 1.30045 0.890287 0
M  V30 2424 C 246.312 1.15976 1.99545 0
M  V30 2425 C 247.282 0.0506202 1.66023 0
M  V30 2426 O 248.467 0.219847 1.89529 0
M  V30 2427 C 245.607 0.852054 3.34416 0
M  V30 2428 C 244.72 2.04255 3.80662 0
M  V30 2429 C 243.855 1.6734 5.04154 0
M  V30 2430 C 242.894 2.82916 5.42794 0
M  V30 2431 N 242.031 2.46333 6.57468 0
M  V30 2432 H 246.871 2.10524 2.10911 0
M  V30 2433 H 244.408 1.04749 1.03276 0
M  V30 2434 H 246.366 0.654296 4.12037 0
M  V30 2435 H 244.996 -0.0565502 3.2275 0
M  V30 2436 H 244.048 2.35172 2.98995 0
M  V30 2437 H 245.36 2.90826 4.05242 0
M  V30 2438 H 244.514 1.43908 5.89386 0
M  V30 2439 H 243.253 0.779308 4.81433 0
M  V30 2440 H 242.258 3.0702 4.56091 0
M  V30 2441 H 243.483 3.73004 5.6749 0
M  V30 2442 H 241.429 1.59423 6.36334 0
M  V30 2443 H 241.346 3.26436 6.81891 0
M  V30 2444 H 242.614 2.26244 7.45945 0
M  V30 2445 N 246.843 -1.10192 1.12674 0
M  V30 2446 C 247.806 -2.14786 0.799979 0
M  V30 2447 C 248.806 -1.59711 -0.18685 0
M  V30 2448 O 249.996 -1.74156 0.0392558 0
M  V30 2449 C 247.128 -3.40374 0.189228 0
M  V30 2450 H 248.321 -2.45203 1.72671 0
M  V30 2451 H 245.874 -1.25597 0.930326 0
M  V30 2452 H 246.609 -3.15577 -0.747107 0
M  V30 2453 H 246.394 -3.81637 0.899766 0
M  V30 2454 H 247.884 -4.17594 -0.0228143 0
M  V30 2455 N 248.321 -0.919034 -1.28029 0
M  V30 2456 C 249.268 -0.410005 -2.27129 0
M  V30 2457 C 250.238 0.518405 -1.57803 0
M  V30 2458 O 251.423 0.439451 -1.8567 0
M  V30 2459 C 248.563 0.339054 -3.4343 0
M  V30 2460 C 247.676 -0.622468 -4.27492 0
M  V30 2461 C 246.811 0.145567 -5.31001 0
M  V30 2462 C 245.85 -0.809226 -6.06727 0
M  V30 2463 N 244.987 -0.0743728 -7.02061 0
M  V30 2464 H 249.827 -1.26011 -2.70047 0
M  V30 2465 H 247.364 -0.632663 -1.328 0
M  V30 2466 H 249.322 0.789586 -4.0966 0
M  V30 2467 H 247.952 1.15346 -3.01488 0
M  V30 2468 H 247.004 -1.19153 -3.61257 0
M  V30 2469 H 248.316 -1.35252 -4.80113 0
M  V30 2470 H 247.47 0.656417 -6.03139 0
M  V30 2471 H 246.209 0.908643 -4.79161 0
M  V30 2472 H 245.214 -1.3314 -5.33436 0
M  V30 2473 H 246.439 -1.57194 -6.60656 0
M  V30 2474 H 244.385 0.670616 -6.52563 0
M  V30 2475 H 244.302 -0.744157 -7.52329 0
M  V30 2476 H 245.57 0.416109 -7.78389 0
M  V30 2477 N 249.799 1.42003 -0.683588 0
M  V30 2478 C 251.047 2.01015 -0.209101 0
M  V30 2479 C 251.368 1.54365 1.19149 0
M  V30 2480 O 250.638 0.769083 1.80172 0
M  V30 2481 H 249.218 0.743294 -0.074315 0
M  V30 2482 H 251.88 1.73798 -0.882066 0
M  V30 2483 H 250.976 3.11343 -0.2172 0
M  V30 2484 N 251.277 0.427512 1.51691 0
M  V30 2485 C 252.209 -0.424521 2.25234 0
M  V30 2486 C 253.222 -0.994671 1.2888 0
M  V30 2487 O 254.411 -0.890483 1.54702 0
M  V30 2488 C 251.511 -1.60479 2.98496 0
M  V30 2489 C 250.684 -1.15527 4.21868 0
M  V30 2490 C 249.743 -2.20454 4.77793 0
M  V30 2491 O 248.769 -1.8029 5.39893 0
M  V30 2492 N 249.971 -3.52831 4.60967 0
M  V30 2493 H 252.736 0.205749 2.98993 0
M  V30 2494 H 250.297 0.255867 1.59865 0
M  V30 2495 H 252.289 -2.30276 3.32799 0
M  V30 2496 H 250.859 -2.14061 2.27809 0
M  V30 2497 H 250.079 -0.284736 3.9317 0
M  V30 2498 H 251.367 -0.832173 5.01949 0
M  V30 2499 H 250.765 -3.88201 4.11481 0
M  V30 2500 H 249.322 -4.18551 4.99658 0
M  V30 2501 N 252.755 -1.56801 0.158532 0
M  V30 2502 C 254.166 -1.83189 -0.360366 0
M  V30 2503 C 254.517 -1.07778 -1.63946 0
M  V30 2504 O 253.642 -0.326718 -2.13919 0
M  V30 2505 C 254.237 -3.32297 -0.660595 0
M  V30 2506 C 252.796 -3.59227 -1.12398 0
M  V30 2507 C 251.943 -2.76877 -0.153097 0
M  V30 2508 H 254.894 -1.54008 0.383031 0
M  V30 2509 H 254.915 -3.4908 -1.51405 0
M  V30 2510 H 254.427 -3.87156 0.270527 0
M  V30 2511 H 252.528 -3.09766 -2.07064 0
M  V30 2512 H 252.641 -4.67632 -1.04197 0
M  V30 2513 H 251.005 -2.46319 -0.647983 0
M  V30 2514 H 251.788 -3.34511 0.77182 0
M  V30 2515 N 254.233 0.115231 -1.57178 0
M  V30 2516 C 255.649 0.468877 -1.52557 0
M  V30 2517 C 255.849 1.81649 -0.872125 0
M  V30 2518 O 254.905 2.48347 -0.45606 0
M  V30 2519 C 256.218 0.4499 -2.97315 0
M  V30 2520 C 257.766 0.533185 -3.08425 0
M  V30 2521 C 258.241 0.54456 -4.54751 0
M  V30 2522 N 259.732 0.605892 -4.5922 0
M  V30 2523 C 260.467 0.636203 -5.6986 0
M  V30 2524 N 259.963 0.623931 -6.89985 0
M  V30 2525 N 261.756 0.679496 -5.57978 0
M  V30 2526 H 253.907 -0.767712 -1.9804 0
M  V30 2527 H 256.17 -0.283609 -0.904583 0
M  V30 2528 H 255.876 -0.472721 -3.48509 0
M  V30 2529 H 255.75 1.27632 -3.5495 0
M  V30 2530 H 258.137 1.44623 -2.57232 0
M  V30 2531 H 258.218 -0.320995 -2.53778 0
M  V30 2532 H 257.862 -0.364452 -5.06591 0
M  V30 2533 H 257.792 1.41568 -5.07214 0
M  V30 2534 H 260.283 0.621386 -3.72756 0
M  V30 2535 H 260.596 0.649787 -7.70063 0
M  V30 2536 H 258.941 0.591296 -6.9248 0
M  V30 2537 H 262.132 0.686472 -4.63039 0
M  V30 2538 H 262.305 0.69965 -6.44212 0
M  V30 2539 N 255.711 1.52812 0.385517 0
M  V30 2540 C 256.621 1.80766 1.49535 0
M  V30 2541 C 257.637 0.694651 1.59532 0
M  V30 2542 O 258.813 0.982611 1.75803 0
M  V30 2543 C 255.878 1.97381 2.85029 0
M  V30 2544 C 254.939 3.21295 2.84724 0
M  V30 2545 C 254.172 3.37108 4.13756 0
M  V30 2546 O 254.395 2.5765 5.08893 0
M  V30 2547 O 253.329 4.30378 4.20783 0
M  V30 2548 H 257.155 2.75015 1.28842 0
M  V30 2549 H 254.74 1.37946 0.573697 0
M  V30 2550 H 256.622 2.09996 3.65349 0
M  V30 2551 H 255.297 1.06322 3.05741 0
M  V30 2552 H 254.204 3.1412 2.03174 0
M  V30 2553 H 255.537 4.12212 2.68965 0
M  V30 2554 N 257.189 -0.644168 1.43834 0
M  V30 2555 C 258.6 -1.22554 1.40845 0
M  V30 2556 C 258.951 -1.9585 0.117115 0
M  V30 2557 O 258.076 -2.01734 -0.783086 0
M  V30 2558 C 258.671 -2.22907 2.55143 0
M  V30 2559 C 257.23 -2.76501 2.5539 0
M  V30 2560 C 256.377 -1.51287 2.32396 0
M  V30 2561 H 259.328 -0.43563 1.52604 0
M  V30 2562 H 259.349 -3.05259 2.2715 0
M  V30 2563 H 258.861 -1.69533 3.49114 0
M  V30 2564 H 256.962 -3.33914 1.65324 0
M  V30 2565 H 257.075 -3.23429 3.53455 0
M  V30 2566 H 255.439 -1.78957 1.81236 0
M  V30 2567 H 256.222 -0.998336 3.28463 0
M  V30 2568 N 258.668 -1.30515 -0.883378 0
M  V30 2569 C 259.6 -1.12846 -1.99496 0
M  V30 2570 C 260.613 -0.0712571 -1.62644 0
M  V30 2571 O 261.802 -0.317432 -1.75655 0
M  V30 2572 C 258.902 -0.699123 -3.3161 0
M  V30 2573 C 258.075 -1.83842 -3.96889 0
M  V30 2574 C 257.134 -1.39737 -5.07307 0
M  V30 2575 O 256.16 -2.10485 -5.28852 0
M  V30 2576 N 257.362 -0.277279 -5.79837 0
M  V30 2577 H 260.127 -2.08585 -2.15203 0
M  V30 2578 H 257.688 -1.22672 -1.05656 0
M  V30 2579 H 259.68 -0.387044 -4.02845 0
M  V30 2580 H 258.25 0.166276 -3.12157 0
M  V30 2581 H 257.47 -2.31853 -3.18807 0
M  V30 2582 H 258.758 -2.60187 -4.37241 0
M  V30 2583 H 258.156 0.3122 -5.64838 0
M  V30 2584 H 256.713 -0.0246623 -6.51795 0
M  V30 2585 N 260.146 1.09593 -1.13257 0
M  V30 2586 C 261.392 1.82003 -0.89458 0
M  V30 2587 C 261.725 1.85402 0.577906 0
M  V30 2588 O 261 1.32099 1.42759 0
M  V30 2589 C 261.283 3.28237 -1.48096 0
M  V30 2590 C 261.136 3.3312 -3.02244 0
M  V30 2591 C 262.455 4.24871 -1.14774 0
M  V30 2592 H 259.574 0.66077 -0.326424 0
M  V30 2593 H 262.216 1.28389 -1.40058 0
M  V30 2594 H 260.366 3.74024 -1.05062 0
M  V30 2595 H 262.038 2.95748 -3.54021 0
M  V30 2596 H 260.281 2.72756 -3.37323 0
M  V30 2597 H 260.952 4.3613 -3.38371 0
M  V30 2598 H 263.428 3.87361 -1.51957 0
M  V30 2599 H 262.304 5.25532 -1.58452 0
M  V30 2600 H 262.565 4.42058 -0.0611849 0
M  V30 2601 N 261.624 0.925811 1.2754 0
M  V30 2602 C 262.854 0.580666 1.98272 0
M  V30 2603 C 263.262 -0.845207 1.69272 0
M  V30 2604 O 262.605 -1.57306 0.948707 0
M  V30 2605 C 262.667 0.724418 3.52126 0
M  V30 2606 C 262.331 2.12206 4.04744 0
M  V30 2607 C 263.328 3.09604 4.17662 0
M  V30 2608 C 261.013 2.4385 4.39138 0
M  V30 2609 C 263.007 4.36755 4.64246 0
M  V30 2610 C 260.694 3.71237 4.85414 0
M  V30 2611 C 261.692 4.67503 4.97926 0
M  V30 2612 O 261.38 5.92624 5.43187 0
M  V30 2613 H 261.112 0.218987 0.639547 0
M  V30 2614 H 263.666 1.24452 1.63404 0
M  V30 2615 H 261.896 0.0034663 3.867 0
M  V30 2616 H 263.585 0.384607 4.04074 0
M  V30 2617 H 264.351 2.86478 3.91351 0
M  V30 2618 H 260.23 1.69665 4.28643 0
M  V30 2619 H 263.774 5.11898 4.73927 0
M  V30 2620 H 259.671 3.94182 5.11166 0
M  V30 2621 H 260.439 5.95585 5.61445 0
M  V30 2622 N 263.102 -1.41638 0.69111 0
M  V30 2623 C 264.33 -2.05628 0.22909 0
M  V30 2624 C 264.745 -1.51992 -1.11999 0
M  V30 2625 O 264.102 -0.666322 -1.69901 0
M  V30 2626 C 264.153 -3.61084 0.173283 0
M  V30 2627 O 263.874 -4.12735 1.46907 0
M  V30 2628 C 265.375 -4.42213 -0.310266 0
M  V30 2629 H 262.595 -0.662327 0.107534 0
M  V30 2630 H 265.139 -1.81489 0.942438 0
M  V30 2631 H 263.294 -3.84278 -0.490858 0
M  V30 2632 H 263.708 -5.06743 1.35322 0
M  V30 2633 H 265.182 -5.51194 -0.298196 0
M  V30 2634 H 265.659 -4.1799 -1.34838 0
M  V30 2635 H 266.265 -4.24074 0.322716 0
M  V30 2636 N 264.58 -0.43555 -1.51462 0
M  V30 2637 C 265.51 0.367376 -2.30592 0
M  V30 2638 C 266.491 1.02263 -1.35928 0
M  V30 2639 O 267.676 1.02661 -1.64847 0
M  V30 2640 C 264.806 1.46983 -3.14664 0
M  V30 2641 C 263.76 0.938161 -4.17591 0
M  V30 2642 C 263.086 2.13622 -4.90173 0
M  V30 2643 C 264.386 -0.0261621 -5.22293 0
M  V30 2644 H 266.08 -0.292969 -2.97963 0
M  V30 2645 H 263.626 -0.14234 -1.43295 0
M  V30 2646 H 265.579 2.03873 -3.688 0
M  V30 2647 H 264.303 2.15843 -2.4511 0
M  V30 2648 H 262.962 0.391481 -3.64504 0
M  V30 2649 H 262.61 2.81098 -4.17124 0
M  V30 2650 H 262.31 1.78688 -5.59772 0
M  V30 2651 H 263.834 2.7107 -5.47132 0
M  V30 2652 H 265.248 0.452384 -5.71512 0
M  V30 2653 H 263.645 -0.287992 -5.99409 0
M  V30 2654 H 264.715 -0.963391 -4.75233 0
M  V30 2655 N 266.058 1.56714 -0.166846 0
M  V30 2656 C 267.469 1.83378 0.350646 0
M  V30 2657 C 267.82 1.08646 1.63372 0
M  V30 2658 O 266.945 0.338058 2.13743 0
M  V30 2659 C 267.54 3.32643 0.642963 0
M  V30 2660 C 266.099 3.59818 1.10491 0
M  V30 2661 C 265.246 2.76954 0.138411 0
M  V30 2662 H 268.197 1.53803 -0.391193 0
M  V30 2663 H 268.218 3.49878 1.49551 0
M  V30 2664 H 267.73 3.87007 -0.291055 0
M  V30 2665 H 265.831 3.1086 2.05418 0
M  V30 2666 H 265.944 4.68178 1.01716 0
M  V30 2667 H 264.308 2.4666 0.634911 0
M  V30 2668 H 265.091 3.34097 -0.789549 0
M  V30 2669 N 267.536 -0.106894 1.57237 0
M  V30 2670 C 268.947 -0.662723 1.74542 0
M  V30 2671 C 269.298 -1.7971 0.787319 0
M  V30 2672 O 268.423 -2.16368 -0.0369636 0
M  V30 2673 C 269.018 -1.20896 3.16496 0
M  V30 2674 C 267.577 -1.71096 3.35266 0
M  V30 2675 C 266.724 -0.615642 2.7038 0
M  V30 2676 H 269.675 0.119106 1.58252 0
M  V30 2677 H 269.696 -2.07847 3.18716 0
M  V30 2678 H 269.208 -0.383122 3.86204 0
M  V30 2679 H 267.309 -2.56119 2.70618 0
M  V30 2680 H 267.422 -1.81208 4.43509 0
M  V30 2681 H 265.786 -1.05222 2.31949 0
M  V30 2682 H 266.569 0.199419 3.4272 0
M  V30 2683 N 269.014 -1.53014 -0.377408 0
M  V30 2684 C 270.239 -1.72818 -1.14668 0
M  V30 2685 C 270.664 -0.450725 -1.8262 0
M  V30 2686 O 270.022 0.59439 -1.7128 0
M  V30 2687 C 270.07 -2.88627 -2.16164 0
M  V30 2688 O 269.174 -2.56409 -3.22998 0
M  V30 2689 H 268.515 -0.574301 -0.333278 0
M  V30 2690 H 271.045 -1.99853 -0.438152 0
M  V30 2691 H 271.055 -3.14455 -2.59966 0
M  V30 2692 H 269.73 -3.81294 -1.66095 0
M  V30 2693 H 268.307 -2.4136 -2.84253 0
M  V30 2694 N 270.492 0.636531 -1.44174 0
M  V30 2695 C 271.424 1.7618 -1.46606 0
M  V30 2696 C 272.437 1.58768 -0.360091 0
M  V30 2697 O 273.626 1.67181 -0.625518 0
M  V30 2698 C 270.726 3.13833 -1.27915 0
M  V30 2699 C 269.899 3.57753 -2.51658 0
M  V30 2700 C 268.958 4.74265 -2.27945 0
M  V30 2701 O 267.984 4.82852 -3.01401 0
M  V30 2702 N 269.186 5.65604 -1.30662 0
M  V30 2703 H 271.951 1.74567 -2.43612 0
M  V30 2704 H 269.512 0.820924 -1.39544 0
M  V30 2705 H 271.504 3.8949 -1.09907 0
M  V30 2706 H 270.074 3.10121 -0.39293 0
M  V30 2707 H 269.294 2.72362 -2.84978 0
M  V30 2708 H 270.582 3.83847 -3.33974 0
M  V30 2709 H 269.98 5.61354 -0.699844 0
M  V30 2710 H 268.537 6.40913 -1.18634 0
M  V30 2711 N 271.97 1.30982 0.876444 0
M  V30 2712 C 272.88 1.2003 2.01569 0
M  V30 2713 C 273.896 0.11838 1.73597 0
M  V30 2714 O 275.072 0.33495 1.98595 0
M  V30 2715 C 272.137 0.901637 3.34771 0
M  V30 2716 C 271.198 2.06979 3.76109 0
M  V30 2717 C 270.431 1.78529 5.02954 0
M  V30 2718 O 270.654 0.717296 5.65872 0
M  V30 2719 O 269.588 2.64019 5.40905 0
M  V30 2720 H 273.414 2.15753 2.13739 0
M  V30 2721 H 270.999 1.10658 1.00375 0
M  V30 2722 H 272.881 0.750645 4.1466 0
M  V30 2723 H 271.556 -0.0256141 3.2369 0
M  V30 2724 H 270.463 2.27616 2.96887 0
M  V30 2725 H 271.796 2.97907 3.91807 0
M  V30 2726 N 273.449 -1.08991 1.13837 0
M  V30 2727 C 274.359 -2.19301 0.833333 0
M  V30 2728 C 275.375 -1.73026 -0.183847 0
M  V30 2729 O 276.551 -2.01395 -0.0138092 0
M  V30 2730 C 273.616 -3.45323 0.308651 0
M  V30 2731 C 272.677 -4.06255 1.38764 0
M  V30 2732 C 271.91 -5.26262 0.887896 0
M  V30 2733 O 272.133 -5.69747 -0.27287 0
M  V30 2734 O 271.067 -5.78435 1.66421 0
M  V30 2735 H 274.893 -2.47854 1.75506 0
M  V30 2736 H 272.478 -1.18012 0.916166 0
M  V30 2737 H 274.36 -4.21394 0.0216739 0
M  V30 2738 H 273.035 -3.18362 -0.585431 0
M  V30 2739 H 271.942 -3.318 1.72799 0
M  V30 2740 H 273.275 -4.37452 2.25602 0
M  V30 2741 N 274.927 -0.932562 -1.27047 0
M  V30 2742 C 275.86 -0.379774 -2.25018 0
M  V30 2743 C 276.838 0.526587 -1.53837 0
M  V30 2744 O 278.022 0.465992 -1.82649 0
M  V30 2745 C 275.149 0.455187 -3.35627 0
M  V30 2746 C 274.195 -0.388428 -4.24728 0
M  V30 2747 S 275.028 -1.80701 -5.04091 0
M  V30 2748 C 276.184 -0.979865 -6.18182 0
M  V30 2749 H 276.417 -1.2101 -2.71558 0
M  V30 2750 H 273.95 -0.735078 -1.35779 0
M  V30 2751 H 275.908 0.931052 -3.99802 0
M  V30 2752 H 274.569 1.26009 -2.87716 0
M  V30 2753 H 273.762 0.25089 -5.03375 0
M  V30 2754 H 273.364 -0.798649 -3.65373 0
M  V30 2755 H 275.656 -0.218115 -6.77149 0
M  V30 2756 H 276.599 -1.73951 -6.86401 0
M  V30 2757 H 277.007 -0.51973 -5.62102 0
M  V30 2758 N 276.405 1.4127 -0.698611 0
M  V30 2759 C 277.633 2.05503 -0.239992 0
M  V30 2760 C 278.048 1.52584 1.11191 0
M  V30 2761 O 277.405 0.675323 1.69545 0
M  V30 2762 C 277.456 3.60987 -0.192429 0
M  V30 2763 O 277.177 4.1195 -1.49094 0
M  V30 2764 C 278.678 4.42371 0.28681 0
M  V30 2765 H 275.898 0.661748 -0.111045 0
M  V30 2766 H 278.442 1.80987 -0.95205 0
M  V30 2767 H 276.597 3.84533 0.470472 0
M  V30 2768 H 277.011 5.06018 -1.38007 0
M  V30 2769 H 278.485 5.51344 0.26896 0
M  V30 2770 H 278.962 4.18699 1.32619 0
M  V30 2771 H 279.568 4.23897 -0.345201 0
M  V30 2772 N 277.883 0.443576 1.51229 0
M  V30 2773 C 278.83 -0.364716 2.279 0
M  V30 2774 C 279.8 -1.0114 1.31757 0
M  V30 2775 O 280.985 -1.02912 1.60667 0
M  V30 2776 C 278.125 -1.45644 3.12861 0
M  V30 2777 C 277.238 -0.827269 4.24005 0
M  V30 2778 C 276.373 -1.89456 4.96266 0
M  V30 2779 C 275.412 -1.24416 5.99322 0
M  V30 2780 N 274.549 -2.25309 6.64966 0
M  V30 2781 H 279.389 0.295464 2.96532 0
M  V30 2782 H 276.926 0.157554 1.46254 0
M  V30 2783 H 278.884 -2.10076 3.6045 0
M  V30 2784 H 277.514 -2.08616 2.46331 0
M  V30 2785 H 276.566 -0.0710839 3.80334 0
M  V30 2786 H 277.878 -0.312481 4.9782 0
M  V30 2787 H 277.032 -2.61535 5.47434 0
M  V30 2788 H 275.771 -2.4431 4.22095 0
M  V30 2789 H 274.776 -0.508868 5.4744 0
M  V30 2790 H 276.001 -0.702882 6.75453 0
M  V30 2791 H 273.947 -2.79231 5.93604 0
M  V30 2792 H 273.864 -1.78739 7.34567 0
M  V30 2793 H 275.132 -2.96853 7.20763 0
M  V30 2794 N 279.361 -1.56624 0.175154 0
M  V30 2795 C 280.309 -2.19468 -0.770495 0
M  V30 2796 C 281.303 -1.15985 -1.23466 0
M  V30 2797 O 282.509 -1.34176 -1.19987 0
M  V30 2798 H 278.884 -0.703095 -0.266761 0
M  V30 2799 H 280.855 -2.97613 -0.216542 0
M  V30 2800 C 279.604 -2.85264 -1.98796 0
M  V30 2801 H 278.927 -3.64623 -1.63983 0
M  V30 2802 H 280.367 -3.327 -2.62843 0
M  V30 2803 C 278.826 -1.85239 -2.81404 0
M  V30 2804 O 279.356 -1.34024 -3.78682 0
M  V30 2805 N 277.562 -1.53911 -2.46495 0
M  V30 2806 H 277.109 -1.95751 -1.67449 0
M  V30 2807 H 277.067 -0.872382 -3.02054 0
M  V30 2808 N 280.839 0.0985539 -1.57292 0
M  V30 2809 C 281.771 1.14595 -1.98496 0
M  V30 2810 C 282.784 1.36512 -0.887031 0
M  V30 2811 O 283.973 1.35225 -1.16518 0
M  V30 2812 C 281.073 2.50216 -2.28572 0
M  V30 2813 C 280.246 2.48624 -3.59868 0
M  V30 2814 C 279.305 3.66146 -3.7792 0
M  V30 2815 O 278.331 3.48795 -4.49812 0
M  V30 2816 N 279.533 4.85496 -3.18235 0
M  V30 2817 H 282.298 0.795277 -2.88956 0
M  V30 2818 H 279.859 0.287579 -1.59325 0
M  V30 2819 H 281.851 3.27432 -2.37845 0
M  V30 2820 H 280.421 2.77387 -1.44136 0
M  V30 2821 H 279.641 1.56978 -3.61596 0
M  V30 2822 H 280.929 2.44635 -4.46129 0
M  V30 2823 H 280.327 5.02497 -2.59833 0
M  V30 2824 H 278.884 5.60317 -3.32999 0
M  V30 2825 N 282.317 1.53212 0.369288 0
M  V30 2826 C 283.563 1.69466 1.11397 0
M  V30 2827 C 283.896 0.443257 1.89074 0
M  V30 2828 O 283.171 -0.559386 1.86282 0
M  V30 2829 C 283.454 2.9422 2.07621 0
M  V30 2830 C 283.307 4.29508 1.33577 0
M  V30 2831 C 284.626 3.14565 3.07794 0
M  V30 2832 H 281.745 0.616667 0.403597 0
M  V30 2833 H 284.387 1.85845 0.395179 0
M  V30 2834 H 282.537 2.80387 2.68916 0
M  V30 2835 H 284.209 4.55147 0.750955 0
M  V30 2836 H 282.452 4.29088 0.637618 0
M  V30 2837 H 283.123 5.12926 2.03989 0
M  V30 2838 H 285.599 3.2756 2.56601 0
M  V30 2839 H 284.475 4.03297 3.72348 0
M  V30 2840 H 284.736 2.29675 3.77759 0
M  V30 2841 N 283.795 -0.628877 1.44509 0
M  V30 2842 C 285.02 -1.42048 1.5112 0
M  V30 2843 C 285.445 -1.87594 0.137818 0
M  V30 2844 O 284.803 -1.58873 -0.873437 0
M  V30 2845 C 284.851 -2.61541 2.48251 0
M  V30 2846 O 283.955 -3.61453 1.98559 0
M  V30 2847 H 283.296 -0.424942 0.510216 0
M  V30 2848 H 285.826 -0.767374 1.89664 0
M  V30 2849 H 285.836 -3.09057 2.66361 0
M  V30 2850 H 284.511 -2.27736 3.48007 0
M  V30 2851 H 283.088 -3.20731 1.90227 0
M  V30 2852 N 285.273 -1.31445 -0.869486 0
M  V30 2853 C 286.203 -1.21727 -1.99261 0
M  V30 2854 C 287.184 -0.104359 -1.6978 0
M  V30 2855 O 288.369 -0.289038 -1.92037 0
M  V30 2856 C 285.499 -0.924317 -3.34774 0
M  V30 2857 C 284.453 -1.99685 -3.78563 0
M  V30 2858 C 283.779 -1.55658 -5.11541 0
M  V30 2859 C 285.079 -3.41003 -3.95619 0
M  V30 2860 H 286.773 -2.1569 -2.07649 0
M  V30 2861 H 284.319 -1.03839 -0.997675 0
M  V30 2862 H 286.272 -0.842934 -4.12883 0
M  V30 2863 H 284.996 0.0509793 -3.2656 0
M  V30 2864 H 283.655 -2.06813 -3.02694 0
M  V30 2865 H 283.303 -0.569132 -4.9977 0
M  V30 2866 H 283.003 -2.27409 -5.41811 0
M  V30 2867 H 284.527 -1.48928 -5.92159 0
M  V30 2868 H 285.941 -3.36547 -4.64122 0
M  V30 2869 H 284.338 -4.10975 -4.37286 0
M  V30 2870 H 285.408 -3.81754 -2.98985 0
M  V30 2871 N 286.751 1.08385 -1.14413 0
M  V30 2872 C 287.979 1.84517 -0.936001 0
M  V30 2873 C 288.394 1.81626 0.515503 0
M  V30 2874 O 287.751 1.22008 1.35721 0
M  V30 2875 C 287.802 3.32049 -1.42918 0
M  V30 2876 O 287.523 3.34951 -2.82381 0
M  V30 2877 C 289.024 4.24986 -1.26103 0
M  V30 2878 H 286.244 0.582491 -0.333084 0
M  V30 2879 H 288.788 1.36885 -1.5193 0
M  V30 2880 H 286.943 3.7707 -0.888641 0
M  V30 2881 H 287.357 4.27048 -3.04517 0
M  V30 2882 H 288.831 5.26615 -1.6547 0
M  V30 2883 H 289.308 4.38726 -0.20392 0
M  V30 2884 H 289.914 3.85791 -1.79012 0
M  V30 2885 N 288.23 0.939286 1.26551 0
M  V30 2886 C 289.47 0.5933 1.956 0
M  V30 2887 C 289.834 -0.851515 1.72085 0
M  V30 2888 O 291.035 -1.30634 2.34921 0
M  V30 2889 C 289.306 0.923996 3.45249 0
M  V30 2890 S 290.865 0.688269 4.33369 0
M  V30 2891 H 287.683 0.218591 0.676564 0
M  V30 2892 H 290.285 1.2102 1.5354 0
M  V30 2893 H 288.989 1.97297 3.59864 0
M  V30 2894 H 288.52 0.296746 3.92279 0
M  V30 2895 H 290.535 -0.448434 4.9417 0
M  V30 2896 N 289.708 -1.40897 0.706093 0
M  V30 2897 C 290.638 -2.33418 0.0620085 0
M  V30 2898 C 291.619 -1.52385 -0.755827 0
M  V30 2899 O 292.804 -1.80886 -0.706674 0
M  V30 2900 C 289.934 -3.36293 -0.867445 0
M  V30 2901 C 288.888 -4.27716 -0.155932 0
M  V30 2902 C 288.214 -5.2105 -1.20046 0
M  V30 2903 C 289.514 -5.12944 0.984149 0
M  V30 2904 H 291.208 -2.87527 0.83477 0
M  V30 2905 H 288.754 -1.38249 0.402875 0
M  V30 2906 H 290.707 -3.99949 -1.32735 0
M  V30 2907 H 289.431 -2.80556 -1.67199 0
M  V30 2908 H 288.09 -3.65498 0.284047 0
M  V30 2909 H 287.738 -4.61624 -1.99781 0
M  V30 2910 H 287.438 -5.83056 -0.729328 0
M  V30 2911 H 288.962 -5.87584 -1.66066 0
M  V30 2912 H 290.376 -5.70109 0.604048 0
M  V30 2913 H 288.773 -5.83945 1.38304 0
M  V30 2914 H 289.843 -4.49485 1.81911 0
M  V30 2915 N 291.186 -0.45159 -1.50991 0
M  V30 2916 C 292.432 0.110237 -2.025 0
M  V30 2917 C 292.765 1.41109 -1.33424 0
M  V30 2918 O 292.04 1.89135 -0.453659 0
M  V30 2919 C 292.323 0.314271 -3.58726 0
M  V30 2920 C 292.176 -1.00623 -4.38401 0
M  V30 2921 C 293.495 1.07767 -4.26702 0
M  V30 2922 H 290.614 0.0385897 -0.735989 0
M  V30 2923 H 293.256 -0.593374 -1.80497 0
M  V30 2924 H 291.406 0.913601 -3.77605 0
M  V30 2925 H 293.078 -1.64064 -4.31139 0
M  V30 2926 H 291.321 -1.6075 -4.02917 0
M  V30 2927 H 291.992 -0.817341 -5.45915 0
M  V30 2928 H 294.468 0.56986 -4.12179 0
M  V30 2929 H 293.344 1.18921 -5.35863 0
M  V30 2930 H 293.605 2.10939 -3.88532 0
M  V30 2931 N 292.664 1.56529 -0.183458 0
M  V30 2932 C 293.611 2.18546 0.742055 0
M  V30 2933 C 294.581 1.12912 1.2182 0
M  V30 2934 O 295.766 1.41115 1.28418 0
M  V30 2935 C 292.906 2.83977 1.96089 0
M  V30 2936 C 292.019 4.04105 1.52719 0
M  V30 2937 C 291.154 4.57427 2.70063 0
M  V30 2938 C 290.193 5.69938 2.23243 0
M  V30 2939 N 289.33 6.17717 3.33722 0
M  V30 2940 H 294.17 2.97284 0.206432 0
M  V30 2941 H 291.707 1.46823 0.0901571 0
M  V30 2942 H 293.665 3.20077 2.67594 0
M  V30 2943 H 292.295 2.07822 2.47002 0
M  V30 2944 H 291.347 3.73745 0.708436 0
M  V30 2945 H 292.659 4.85513 1.1436 0
M  V30 2946 H 291.813 4.95772 3.49708 0
M  V30 2947 H 290.552 3.75101 3.11689 0
M  V30 2948 H 289.557 5.31133 1.42048 0
M  V30 2949 H 290.782 6.54073 1.82661 0
M  V30 2950 H 288.728 5.38317 3.74902 0
M  V30 2951 H 288.645 6.94146 2.99495 0
M  V30 2952 H 289.913 6.60713 4.13616 0
M  V30 2953 N 294.142 -0.090211 1.57342 0
M  V30 2954 C 295.39 -0.791241 1.85967 0
M  V30 2955 C 295.711 -1.7903 0.772859 0
M  V30 2956 O 294.981 -1.94872 -0.200398 0
M  V30 2957 H 293.561 -0.295205 0.686195 0
M  V30 2958 H 296.223 -0.0706782 1.94772 0
M  V30 2959 H 295.319 -1.31882 2.82867 0
M  V30 2960 N 295.62 -1.53406 -0.361157 0
M  V30 2961 C 296.867 -1.69802 -1.10333 0
M  V30 2962 C 297.195 -0.452087 -1.89173 0
M  V30 2963 O 296.45 0.566017 -1.87336 0
M  V30 2964 C 296.749 -2.90211 -2.08596 0
M  V30 2965 C 296.415 -4.26539 -1.46203 0
M  V30 2966 C 295.077 -4.6361 -1.28915 0
M  V30 2967 C 297.429 -5.113 -1.01101 0
M  V30 2968 C 294.757 -5.83075 -0.651157 0
M  V30 2969 C 297.109 -6.31415 -0.387007 0
M  V30 2970 C 295.773 -6.67195 -0.201657 0
M  V30 2971 H 295.043 -0.621351 -0.403737 0
M  V30 2972 H 297.69 -1.87598 -0.384609 0
M  V30 2973 H 295.995 -2.66946 -2.86788 0
M  V30 2974 H 297.692 -3.00091 -2.65982 0
M  V30 2975 H 294.282 -3.97352 -1.60653 0
M  V30 2976 H 298.466 -4.83206 -1.13249 0
M  V30 2977 H 293.722 -6.09385 -0.496006 0
M  V30 2978 H 297.896 -6.96394 -0.0293563 0
M  V30 2979 H 295.523 -7.59628 0.294766 0
M  V30 2980 N 297.098 0.621204 -1.44841 0
M  V30 2981 C 298.328 1.40548 -1.51426 0
M  V30 2982 C 298.736 1.88673 -0.141083 0
M  V30 2983 O 298.079 1.62053 0.865128 0
M  V30 2984 C 298.141 2.65325 -2.42576 0
M  V30 2985 C 297.805 2.3893 -3.89566 0
M  V30 2986 C 298.802 2.00138 -4.79834 0
M  V30 2987 C 296.487 2.52263 -4.3436 0
M  V30 2988 C 298.481 1.75021 -6.129 0
M  V30 2989 C 296.168 2.2676 -5.67471 0
M  V30 2990 C 297.166 1.88199 -6.56559 0
M  V30 2991 O 296.854 1.62986 -7.87204 0
M  V30 2992 H 296.586 0.437122 -0.515655 0
M  V30 2993 H 299.14 0.765987 -1.90583 0
M  V30 2994 H 297.37 3.31947 -1.98364 0
M  V30 2995 H 299.059 3.27347 -2.39998 0
M  V30 2996 H 299.825 1.89386 -4.46495 0
M  V30 2997 H 295.704 2.81246 -3.65269 0
M  V30 2998 H 299.248 1.44848 -6.82396 0
M  V30 2999 H 295.145 2.37125 -6.00368 0
M  V30 3000 H 295.913 1.7715 -7.991 0
M  V30 3001 N 298.576 1.31904 0.862503 0
M  V30 3002 C 299.987 1.19803 1.43193 0
M  V30 3003 C 300.338 -0.192567 1.95253 0
M  V30 3004 O 299.463 -1.09081 1.86896 0
M  V30 3005 C 300.058 2.16883 2.60283 0
M  V30 3006 C 298.617 2.08692 3.13248 0
M  V30 3007 C 297.764 2.05691 1.85975 0
M  V30 3008 H 300.715 1.43846 0.670365 0
M  V30 3009 H 300.736 1.76278 3.37204 0
M  V30 3010 H 300.248 3.18083 2.22363 0
M  V30 3011 H 298.349 1.10713 3.55771 0
M  V30 3012 H 298.462 2.9815 3.75025 0
M  V30 3013 H 296.826 1.50814 2.05249 0
M  V30 3014 H 297.609 3.08659 1.50282 0
M  V30 3015 N 300.054 -1.07777 1.14986 0
M  V30 3016 C 301.279 -1.84558 0.946213 0
M  V30 3017 C 301.704 -1.81323 -0.500362 0
M  V30 3018 O 301.062 -1.20301 -1.35637 0
M  V30 3019 C 301.11 -3.29736 1.45968 0
M  V30 3020 O 300.214 -4.07149 0.65601 0
M  V30 3021 H 299.555 -0.571641 0.33782 0
M  V30 3022 H 302.085 -1.35991 1.52865 0
M  V30 3023 H 302.095 -3.80574 1.47063 0
M  V30 3024 H 300.77 -3.31406 2.51283 0
M  V30 3025 H 299.347 -3.65994 0.714322 0
M  V30 3026 N 301.532 -0.945985 -1.26051 0
M  V30 3027 C 302.809 -0.513816 -1.88731 0
M  V30 3028 C 303.189 1.00872 -1.8544 0
M  V30 3029 O 302.537 1.8708 -1.312 0
M  V30 3030 C 302.747 -1.08062 -3.31849 0
M  V30 3031 C 304.095 -1.1522 -4.08668 0
M  V30 3032 O 305.119 -1.03155 -3.40936 0
M  V30 3033 O 303.978 -1.34044 -5.29806 0
M  V30 3034 H 301.072 -0.168193 -0.809716 0
M  V30 3035 H 303.618 -1.03886 -1.34186 0
M  V30 3036 H 302.39 -2.1241 -3.2863 0
M  V30 3037 H 302.013 -0.538307 -3.93939 0
M  V30 3038 N 303.011 1.40521 -0.713556 0
M  V30 3039 C 304.26 2.00155 -0.249192 0
M  V30 3040 C 304.573 1.57224 1.16362 0
M  V30 3041 O 305.779 2.09542 1.72639 0
M  V30 3042 C 304.235 3.5773 -0.3946 0
M  V30 3043 C 303.843 4.09635 -1.81392 0
M  V30 3044 C 305.587 4.24499 0.00907364 0
M  V30 3045 C 303.494 5.59707 -1.91003 0
M  V30 3046 H 302.424 0.74868 -0.0894114 0
M  V30 3047 H 305.075 1.60784 -0.884352 0
M  V30 3048 H 303.457 3.94792 0.30911 0
M  V30 3049 H 304.631 3.83955 -2.54785 0
M  V30 3050 H 302.946 3.55456 -2.16888 0
M  V30 3051 H 305.543 5.34683 -0.0420404 0
M  V30 3052 H 305.886 4.02824 1.05065 0
M  V30 3053 H 306.419 3.92536 -0.645007 0
M  V30 3054 H 303.158 5.86234 -2.93275 0
M  V30 3055 H 302.678 5.87258 -1.22019 0
M  V30 3056 H 304.357 6.24776 -1.6812 0
M  V30 3057 N 304.489 0.459591 1.5075 0
M  V30 3058 C 305.452 -0.329093 2.26825 0
M  V30 3059 C 306.452 -0.930481 1.31144 0
M  V30 3060 O 307.642 -0.801453 1.54669 0
M  V30 3061 C 304.774 -1.46768 3.07688 0
M  V30 3062 H 305.967 0.337924 2.9799 0
M  V30 3063 H 303.52 0.213336 1.54837 0
M  V30 3064 H 304.255 -2.17009 2.40993 0
M  V30 3065 H 304.04 -1.04238 3.77991 0
M  V30 3066 H 305.53 -2.02433 3.65254 0
M  V30 3067 N 305.967 -1.56429 0.191757 0
M  V30 3068 C 307.213 -1.97777 -0.448554 0
M  V30 3069 C 307.546 -1.07847 -1.61501 0
M  V30 3070 O 306.821 -0.129774 -1.94067 0
M  V30 3071 C 307.104 -3.48362 -0.911906 0
M  V30 3072 C 306.957 -4.4907 0.256136 0
M  V30 3073 C 308.276 -4.02561 -1.77857 0
M  V30 3074 H 305.395 -0.719071 -0.161572 0
M  V30 3075 H 308.037 -1.87896 0.282007 0
M  V30 3076 H 306.187 -3.56914 -1.53442 0
M  V30 3077 H 307.859 -4.5256 0.893733 0
M  V30 3078 H 306.102 -4.24181 0.908436 0
M  V30 3079 H 306.773 -5.51889 -0.11053 0
M  V30 3080 H 309.249 -3.96767 -1.25359 0
M  V30 3081 H 308.125 -5.08301 -2.07174 0
M  V30 3082 H 308.386 -3.47616 -2.73158 0
M  V30 3083 N 307.445 0.0818655 -1.57387 0
M  V30 3084 C 308.355 1.11642 -2.06333 0
M  V30 3085 C 309.371 1.43033 -0.99083 0
M  V30 3086 O 310.547 1.53411 -1.30488 0
M  V30 3087 C 307.612 2.41342 -2.48907 0
M  V30 3088 C 306.673 2.17014 -3.7041 0
M  V30 3089 C 305.906 3.4053 -4.10944 0
M  V30 3090 O 306.129 4.4927 -3.51444 0
M  V30 3091 O 305.063 3.29336 -5.03807 0
M  V30 3092 H 308.889 0.730657 -2.9478 0
M  V30 3093 H 306.474 0.295301 -1.46452 0
M  V30 3094 H 308.356 3.17691 -2.76858 0
M  V30 3095 H 307.031 2.79319 -1.63593 0
M  V30 3096 H 305.938 1.38403 -3.47556 0
M  V30 3097 H 307.271 1.83923 -4.56545 0
M  V30 3098 N 308.923 1.53595 0.353017 0
M  V30 3099 C 310.169 1.71581 1.09232 0
M  V30 3100 C 310.524 0.468328 1.86613 0
M  V30 3101 O 309.817 -0.538911 1.83865 0
M  V30 3102 C 310.011 2.91313 2.07054 0
M  V30 3103 C 309.84 4.27585 1.39287 0
M  V30 3104 C 308.61 4.92233 1.1417 0
M  V30 3105 C 310.808 5.07656 0.824005 0
M  V30 3106 N 308.79 6.124 0.428841 0
M  V30 3107 C 310.161 6.19531 0.241195 0
M  V30 3108 C 312.216 4.92609 0.723922 0
M  V30 3109 C 310.919 7.18002 -0.431952 0
M  V30 3110 C 312.945 5.91365 0.0645334 0
M  V30 3111 C 312.307 7.02571 -0.507347 0
M  V30 3112 H 308.406 0.680987 0.384422 0
M  V30 3113 H 310.99 1.91013 0.377096 0
M  V30 3114 H 309.161 2.73398 2.75877 0
M  V30 3115 H 310.893 2.98062 2.73753 0
M  V30 3116 H 307.648 4.51612 1.42631 0
M  V30 3117 H 308.072 6.76944 0.0874131 0
M  V30 3118 H 312.714 4.06808 1.15181 0
M  V30 3119 H 310.432 8.03384 -0.871758 0
M  V30 3120 H 314.018 5.81799 -0.0121469 0
M  V30 3121 H 312.898 7.77675 -1.0095 0
M  V30 3122 N 310.401 -0.613514 1.45168 0
M  V30 3123 C 311.311 -1.75296 1.55912 0
M  V30 3124 C 312.327 -1.68244 0.443856 0
M  V30 3125 O 313.503 -1.88706 0.70371 0
M  V30 3126 C 310.568 -3.1174 1.5172 0
M  V30 3127 C 309.629 -3.30291 2.74238 0
M  V30 3128 C 308.862 -4.60226 2.70236 0
M  V30 3129 O 309.085 -5.42168 1.77229 0
M  V30 3130 O 308.019 -4.81361 3.61352 0
M  V30 3131 H 311.845 -1.69183 2.52212 0
M  V30 3132 H 309.43 -0.776886 1.27612 0
M  V30 3133 H 311.312 -3.93044 1.51968 0
M  V30 3134 H 309.987 -3.18357 0.585697 0
M  V30 3135 H 308.894 -2.48598 2.79553 0
M  V30 3136 H 310.227 -3.28547 3.66494 0
M  V30 3137 N 311.879 -1.3236 -0.855495 0
M  V30 3138 C 313.104 -1.2601 -1.64731 0
M  V30 3139 C 313.529 0.169068 -1.87339 0
M  V30 3140 O 312.887 1.12016 -1.42556 0
M  V30 3141 C 312.935 -2.02417 -2.98429 0
M  V30 3142 O 312.039 -1.3714 -3.8893 0
M  V30 3143 H 311.38 -0.434325 -0.502253 0
M  V30 3144 H 313.91 -1.74661 -1.06558 0
M  V30 3145 H 313.92 -2.12559 -3.48257 0
M  V30 3146 H 312.595 -3.06343 -2.81295 0
M  V30 3147 H 311.172 -1.3554 -3.47395 0
M  V30 3148 N 313.357 1.07166 -1.15556 0
M  V30 3149 C 314.305 2.16517 -0.8499 0
M  V30 3150 C 315.299 1.68468 0.177454 0
M  V30 3151 O 316.505 1.79971 0.0323026 0
M  V30 3152 H 312.88 0.706652 -0.25719 0
M  V30 3153 H 314.851 2.39514 -1.77976 0
M  V30 3154 C 313.6 3.45855 -0.357682 0
M  V30 3155 H 312.923 3.83214 -1.13961 0
M  V30 3156 H 314.363 4.23607 -0.182489 0
M  V30 3157 C 312.822 3.24062 0.921152 0
M  V30 3158 O 313.352 3.48813 1.9923 0
M  V30 3159 N 311.558 2.77539 0.86141 0
M  V30 3160 H 311.105 2.57598 -0.0104408 0
M  V30 3161 H 311.063 2.63337 1.71758 0
M  V30 3162 N 314.835 0.952656 1.25548 0
M  V30 3163 C 316.083 0.605176 1.92826 0
M  V30 3164 C 316.404 -0.860261 1.74999 0
M  V30 3165 O 315.674 -1.6125 1.11244 0
M  V30 3166 H 314.254 0.220832 0.713612 0
M  V30 3167 H 316.916 1.21047 1.52754 0
M  V30 3168 H 316.012 0.832798 3.00784 0
M  V30 3169 N 316.313 -1.40141 0.720998 0
M  V30 3170 C 317.245 -2.29177 0.0324669 0
M  V30 3171 C 318.258 -1.46105 -0.718126 0
M  V30 3172 O 319.447 -1.69335 -0.564608 0
M  V30 3173 C 316.547 -3.24473 -0.978292 0
M  V30 3174 C 315.72 -4.36423 -0.292115 0
M  V30 3175 C 314.779 -5.12122 -1.20901 0
M  V30 3176 O 313.805 -5.64981 -0.691766 0
M  V30 3177 N 315.007 -5.21992 -2.53978 0
M  V30 3178 H 317.772 -2.88909 0.796984 0
M  V30 3179 H 315.333 -1.51569 0.569068 0
M  V30 3180 H 317.325 -3.71987 -1.59398 0
M  V30 3181 H 315.895 -2.65871 -1.64413 0
M  V30 3182 H 315.115 -3.90967 0.503847 0
M  V30 3183 H 316.403 -5.08467 0.183971 0
M  V30 3184 H 315.801 -4.8054 -2.98493 0
M  V30 3185 H 314.358 -5.72995 -3.10677 0
M  V30 3186 N 317.792 -0.46758 -1.50504 0
M  V30 3187 C 319.203 -0.0116166 -1.86696 0
M  V30 3188 C 319.554 1.39202 -1.38265 0
M  V30 3189 O 318.679 2.0313 -0.746132 0
M  V30 3190 C 319.274 -0.0143044 -3.38797 0
M  V30 3191 C 317.833 0.386175 -3.74414 0
M  V30 3192 C 316.98 -0.401287 -2.74381 0
M  V30 3193 H 319.931 -0.682022 -1.43297 0
M  V30 3194 H 319.952 0.788641 -3.72237 0
M  V30 3195 H 319.464 -1.03602 -3.74016 0
M  V30 3196 H 317.565 1.41237 -3.44794 0
M  V30 3197 H 317.678 0.0899596 -4.79016 0
M  V30 3198 H 316.042 0.144536 -2.5429 0
M  V30 3199 H 316.825 -1.42244 -3.12444 0
M  V30 3200 N 319.27 1.56325 -0.20005 0
M  V30 3201 C 320.18 2.22931 0.730668 0
M  V30 3202 C 321.196 1.22997 1.23076 0
M  V30 3203 O 322.372 1.55748 1.27689 0
M  V30 3204 C 319.437 2.87948 1.93098 0
M  V30 3205 C 318.498 4.03166 1.47497 0
M  V30 3206 C 317.731 4.65073 2.61807 0
M  V30 3207 O 317.954 4.25913 3.79413 0
M  V30 3208 O 316.888 5.54452 2.34237 0
M  V30 3209 H 320.714 3.03084 0.193391 0
M  V30 3210 H 318.299 1.49371 0.0294621 0
M  V30 3211 H 320.181 3.29063 2.6324 0
M  V30 3212 H 318.856 2.10771 2.45677 0
M  V30 3213 H 317.763 3.66664 0.742201 0
M  V30 3214 H 319.096 4.82022 0.995796 0
M  V30 3215 N 320.748 -0.0735177 1.57428 0
M  V30 3216 C 321.696 -1.10628 2.04607 0
M  V30 3217 C 322.69 -1.40181 0.951088 0
M  V30 3218 O 323.896 -1.39608 1.1362 0
M  V30 3219 H 320.271 -0.374088 0.652351 0
M  V30 3220 H 322.242 -0.682218 2.90497 0
M  V30 3221 C 320.991 -2.41212 2.50423 0
M  V30 3222 H 320.314 -2.19322 3.34272 0
M  V30 3223 H 321.754 -3.11927 2.87189 0
M  V30 3224 C 320.213 -3.0705 1.38644 0
M  V30 3225 O 320.743 -3.95056 0.727582 0
M  V30 3226 N 318.949 -2.67645 1.132 0
M  V30 3227 H 318.496 -1.96169 1.66959 0
M  V30 3228 H 318.454 -3.1202 0.386147 0
M  V30 3229 N 322.226 -1.5378 -0.344866 0
M  V30 3230 C 323.174 -1.82373 -1.4437 0
M  V30 3231 C 324.168 -0.694128 -1.54526 0
M  V30 3232 O 325.374 -0.877442 -1.57165 0
M  V30 3233 H 321.749 -0.577765 -0.481344 0
M  V30 3234 H 323.72 -2.74306 -1.17468 0
M  V30 3235 C 322.469 -2.04898 -2.80913 0
M  V30 3236 H 321.792 -2.9127 -2.73865 0
M  V30 3237 H 323.232 -2.28871 -3.56923 0
M  V30 3238 C 321.691 -0.834116 -3.26411 0
M  V30 3239 O 322.221 -0.0328885 -4.01687 0
M  V30 3240 N 320.427 -0.65171 -2.83198 0
M  V30 3241 H 319.974 -1.30489 -2.22104 0
M  V30 3242 H 319.932 0.159686 -3.13994 0
M  V30 3243 N 323.704 0.605807 -1.45491 0
M  V30 3244 C 324.934 1.38934 -1.52908 0
M  V30 3245 C 325.342 1.88513 -0.161086 0
M  V30 3246 O 324.685 1.62962 0.847891 0
M  V30 3247 C 324.747 2.62737 -2.45376 0
M  V30 3248 C 324.411 2.34785 -3.92078 0
M  V30 3249 C 325.408 1.95038 -4.8193 0
M  V30 3250 C 323.093 2.47642 -4.37011 0
M  V30 3251 C 325.087 1.68511 -6.14722 0
M  V30 3252 C 322.774 2.20728 -5.69844 0
M  V30 3253 C 323.772 1.81225 -6.58519 0
M  V30 3254 O 323.46 1.54627 -7.88889 0
M  V30 3255 H 323.192 0.431629 -0.520262 0
M  V30 3256 H 325.746 0.74573 -1.91384 0
M  V30 3257 H 323.976 3.29824 -2.01874 0
M  V30 3258 H 325.665 3.24783 -2.43456 0
M  V30 3259 H 326.431 1.84639 -4.48479 0
M  V30 3260 H 322.31 2.77356 -3.68232 0
M  V30 3261 H 325.854 1.37602 -6.83894 0
M  V30 3262 H 321.751 2.30744 -6.02849 0
M  V30 3263 H 322.519 1.68665 -8.00933 0
M  V30 3264 N 325.182 1.32811 0.848464 0
M  V30 3265 C 326.129 1.22265 1.95755 0
M  V30 3266 C 327.099 0.103413 1.65778 0
M  V30 3267 O 328.284 0.280033 1.88734 0
M  V30 3268 C 325.424 0.958014 3.31536 0
M  V30 3269 C 324.537 2.16262 3.73971 0
M  V30 3270 C 323.672 1.83295 4.98575 0
M  V30 3271 C 322.711 3.00041 5.33518 0
M  V30 3272 N 321.848 2.67125 6.49299 0
M  V30 3273 H 326.688 2.17128 2.04107 0
M  V30 3274 H 324.225 1.07982 0.998913 0
M  V30 3275 H 326.183 0.785052 4.09747 0
M  V30 3276 H 324.813 0.046159 3.22767 0
M  V30 3277 H 323.865 2.44565 2.91362 0
M  V30 3278 H 325.177 3.03572 3.95785 0
M  V30 3279 H 324.331 1.62586 5.84509 0
M  V30 3280 H 323.07 0.932078 4.7871 0
M  V30 3281 H 322.075 3.21374 4.46093 0
M  V30 3282 H 323.3 3.90869 5.55336 0
M  V30 3283 H 321.246 1.79586 6.3094 0
M  V30 3284 H 321.163 3.47965 6.71161 0
M  V30 3285 H 322.431 2.49861 7.3837 0
M  V30 3286 N 326.66 -1.06551 1.16123 0
M  V30 3287 C 327.888 -1.83005 0.965237 0
M  V30 3288 C 328.303 -1.82423 -0.486542 0
M  V30 3289 O 327.66 -1.24152 -1.33763 0
M  V30 3290 C 327.711 -3.29733 1.48183 0
M  V30 3291 O 327.432 -3.30416 2.87674 0
M  V30 3292 C 328.933 -4.22926 1.32848 0
M  V30 3293 H 326.153 -0.577118 0.342309 0
M  V30 3294 H 328.697 -1.3445 1.54089 0
M  V30 3295 H 326.852 -3.75609 0.948517 0
M  V30 3296 H 327.266 -4.22149 3.11272 0
M  V30 3297 H 328.74 -5.23916 1.73827 0
M  V30 3298 H 329.217 -4.38346 0.273692 0
M  V30 3299 H 329.823 -3.82894 1.85127 0
M  V30 3300 N 328.138 -0.959301 -1.25041 0
M  V30 3301 C 329.366 -0.633949 -1.96948 0
M  V30 3302 C 329.781 0.794916 -1.7125 0
M  V30 3303 O 329.138 1.53231 -0.991287 0
M  V30 3304 C 329.189 -0.888805 -3.50403 0
M  V30 3305 O 328.91 -2.26149 -3.75218 0
M  V30 3306 C 330.411 -0.576482 -4.39536 0
M  V30 3307 H 327.631 -0.237263 -0.627652 0
M  V30 3308 H 330.175 -1.28495 -1.59089 0
M  V30 3309 H 328.33 -0.284145 -3.86357 0
M  V30 3310 H 328.744 -2.33514 -4.6965 0
M  V30 3311 H 330.218 -0.805314 -5.46094 0
M  V30 3312 H 330.695 0.489075 -4.36468 0
M  V30 3313 H 331.301 -1.16067 -4.09156 0
M  V30 3314 N 329.616 1.39756 -0.72842 0
M  V30 3315 C 331.027 1.83498 -0.344289 0
M  V30 3316 C 331.378 1.60868 1.12321 0
M  V30 3317 O 330.503 1.09634 1.86573 0
M  V30 3318 C 331.098 3.33114 -0.618112 0
M  V30 3319 C 329.657 3.753 -0.287549 0
M  V30 3320 C 328.804 2.62831 -0.884048 0
M  V30 3321 H 331.755 1.28842 -0.926578 0
M  V30 3322 H 331.776 3.80334 0.112349 0
M  V30 3323 H 331.288 3.49553 -1.68625 0
M  V30 3324 H 329.389 3.64451 0.775012 0
M  V30 3325 H 329.502 4.72945 -0.765512 0
M  V30 3326 H 327.866 2.52792 -0.311149 0
M  V30 3327 H 328.649 2.82078 -1.95671 0
M  V30 3328 N 331.094 0.475555 1.50254 0
M  V30 3329 C 332.505 0.0215174 1.86688 0
M  V30 3330 C 332.856 -1.38467 1.39001 0
M  V30 3331 O 331.981 -2.02732 0.756894 0
M  V30 3332 C 332.576 0.0322715 3.38785 0
M  V30 3333 C 331.135 -0.366314 3.74613 0
M  V30 3334 C 330.282 0.415832 2.74164 0
M  V30 3335 H 333.233 0.689612 1.42934 0
M  V30 3336 H 333.254 -0.76889 3.7265 0
M  V30 3337 H 332.766 1.05584 3.73462 0
M  V30 3338 H 330.867 -1.39406 3.45538 0
M  V30 3339 H 330.98 -0.064555 4.79057 0
M  V30 3340 H 329.344 -0.131048 2.54363 0
M  V30 3341 H 330.127 1.43899 3.11686 0
M  V30 3342 N 332.573 -1.56217 0.208337 0
M  V30 3343 C 333.819 -1.98242 -0.427552 0
M  V30 3344 C 334.152 -1.09554 -1.60348 0
M  V30 3345 O 333.427 -0.15035 -1.93918 0
M  V30 3346 C 333.71 -3.4931 -0.874907 0
M  V30 3347 C 333.563 -4.48773 0.303751 0
M  V30 3348 C 334.882 -4.04424 -1.73577 0
M  V30 3349 H 332.001 -0.720744 -0.153936 0
M  V30 3350 H 334.643 -1.87586 0.30192 0
M  V30 3351 H 332.793 -3.58522 -1.49648 0
M  V30 3352 H 334.465 -4.51586 0.941682 0
M  V30 3353 H 332.708 -4.23194 0.953375 0
M  V30 3354 H 333.379 -5.51976 -0.0519883 0
M  V30 3355 H 335.855 -3.98075 -1.21143 0
M  V30 3356 H 334.731 -5.1047 -2.01771 0
M  V30 3357 H 334.992 -3.50494 -2.69456 0
M  V30 3358 N 334.051 0.0651679 -1.57465 0
M  V30 3359 C 334.981 1.07693 -2.07182 0
M  V30 3360 C 335.962 1.39962 -0.966673 0
M  V30 3361 O 337.147 1.49475 -1.2398 0
M  V30 3362 C 334.277 2.3885 -2.52127 0
M  V30 3363 C 333.231 2.20917 -3.66579 0
M  V30 3364 C 332.557 3.57515 -3.97601 0
M  V30 3365 C 333.857 1.62493 -4.9638 0
M  V30 3366 H 335.551 0.663199 -2.91962 0
M  V30 3367 H 333.097 0.317569 -1.40455 0
M  V30 3368 H 335.05 3.09928 -2.85522 0
M  V30 3369 H 333.774 2.82215 -1.64384 0
M  V30 3370 H 332.433 1.52279 -3.33477 0
M  V30 3371 H 332.081 3.98463 -3.06979 0
M  V30 3372 H 331.781 3.46353 -4.74672 0
M  V30 3373 H 333.305 4.30013 -4.33499 0
M  V30 3374 H 334.719 2.23445 -5.27963 0
M  V30 3375 H 333.116 1.62009 -5.77818 0
M  V30 3376 H 334.186 0.587041 -4.81333 0
M  V30 3377 N 335.529 1.53961 0.336706 0
M  V30 3378 C 336.806 1.62171 1.09361 0
M  V30 3379 C 337.186 0.447263 2.06307 0
M  V30 3380 O 336.534 -0.559802 2.21537 0
M  V30 3381 C 336.744 2.98565 1.80721 0
M  V30 3382 C 338.092 3.54157 2.34218 0
M  V30 3383 O 339.116 3.00784 1.90807 0
M  V30 3384 O 337.975 4.47528 3.13657 0
M  V30 3385 H 335.069 0.6562 0.503319 0
M  V30 3386 H 337.615 1.66307 0.33765 0
M  V30 3387 H 336.387 3.75482 1.10132 0
M  V30 3388 H 336.01 2.9805 2.63158 0
M  V30 3389 N 337.007 -0.598083 1.45811 0
M  V30 3390 C 338.232 -1.3881 1.54099 0
M  V30 3391 C 338.657 -1.8726 0.177578 0
M  V30 3392 O 338.015 -1.6069 -0.839541 0
M  V30 3393 C 338.063 -2.56217 2.53743 0
M  V30 3394 O 337.167 -3.5716 2.06182 0
M  V30 3395 H 336.508 -0.414024 0.519115 0
M  V30 3396 H 339.038 -0.726971 1.91249 0
M  V30 3397 H 339.048 -3.03337 2.72856 0
M  V30 3398 H 337.723 -2.20303 3.5276 0
M  V30 3399 H 336.3 -3.16624 1.96987 0
M  V30 3400 N 338.485 -1.33259 -0.841409 0
M  V30 3401 C 339.762 -1.15174 -1.58096 0
M  V30 3402 C 340.142 0.282858 -2.09196 0
M  V30 3403 O 339.49 1.28151 -1.89181 0
M  V30 3404 C 339.7 -2.1907 -2.71679 0
M  V30 3405 C 341.048 -2.53093 -3.40924 0
M  V30 3406 O 342.072 -2.17717 -2.81918 0
M  V30 3407 O 340.931 -3.1379 -4.47435 0
M  V30 3408 H 338.025 -0.445303 -0.696875 0
M  V30 3409 H 340.571 -1.44833 -0.884385 0
M  V30 3410 H 339.343 -3.15443 -2.31541 0
M  V30 3411 H 338.966 -1.90481 -3.49002 0
M  V30 3412 N 339.963 1.05934 -1.16686 0
M  V30 3413 C 341.211 1.78447 -0.948744 0
M  V30 3414 C 341.532 1.87813 0.524523 0
M  V30 3415 O 340.802 1.38945 1.38098 0
M  V30 3416 H 339.382 0.660971 -0.348033 0
M  V30 3417 H 342.044 1.27947 -1.47022 0
M  V30 3418 H 341.14 2.80394 -1.37061 0
M  V30 3419 N 341.441 0.965919 1.2453 0
M  V30 3420 C 342.666 0.643971 1.97149 0
M  V30 3421 C 343.091 -0.779487 1.71189 0
M  V30 3422 O 342.449 -1.5288 0.974553 0
M  V30 3423 C 342.497 0.922557 3.48599 0
M  V30 3424 O 341.601 0.00707672 4.12399 0
M  V30 3425 H 340.942 0.243647 0.617683 0
M  V30 3426 H 343.472 1.29558 1.58353 0
M  V30 3427 H 343.482 0.853373 3.98976 0
M  V30 3428 H 342.157 1.95996 3.66822 0
M  V30 3429 H 340.734 0.12943 3.72675 0
M  V30 3430 N 342.919 -1.39368 0.735821 0
M  V30 3431 C 344.166 -2.00497 0.284123 0
M  V30 3432 C 344.494 -1.58387 -1.12889 0
M  V30 3433 O 343.749 -0.804359 -1.78406 0
M  V30 3434 C 344.048 -3.5583 0.334651 0
M  V30 3435 C 343.714 -4.17593 1.7008 0
M  V30 3436 C 342.376 -4.34176 2.07472 0
M  V30 3437 C 344.728 -4.51848 2.59775 0
M  V30 3438 C 342.056 -4.82304 3.34065 0
M  V30 3439 C 344.408 -5.01384 3.85741 0
M  V30 3440 C 343.072 -5.16175 4.23225 0
M  V30 3441 H 342.342 -0.73367 0.103968 0
M  V30 3442 H 344.989 -1.66683 0.942825 0
M  V30 3443 H 343.294 -3.89674 -0.407625 0
M  V30 3444 H 344.991 -4.00986 -0.0329927 0
M  V30 3445 H 341.581 -4.05087 1.40008 0
M  V30 3446 H 345.765 -4.38653 2.32157 0
M  V30 3447 H 341.021 -4.91941 3.63049 0
M  V30 3448 H 345.195 -5.26863 4.55399 0
M  V30 3449 H 342.822 -5.5323 5.21384 0
M  V30 3450 N 344.397 -0.483516 -1.5 0
M  V30 3451 C 345.644 0.0671597 -2.02389 0
M  V30 3452 C 345.972 1.38597 -1.36459 0
M  V30 3453 O 345.227 1.89634 -0.483458 0
M  V30 3454 C 345.526 0.286226 -3.56252 0
M  V30 3455 C 345.192 -0.952416 -4.40726 0
M  V30 3456 C 343.854 -1.29199 -4.63531 0
M  V30 3457 C 346.206 -1.77655 -4.89988 0
M  V30 3458 C 343.534 -2.45553 -5.32842 0
M  V30 3459 C 345.886 -2.93147 -5.60578 0
M  V30 3460 C 344.55 -3.27505 -5.81633 0
M  V30 3461 H 343.82 0.0245755 -0.740592 0
M  V30 3462 H 346.467 -0.640124 -1.80485 0
M  V30 3463 H 344.772 1.07587 -3.76739 0
M  V30 3464 H 346.469 0.726473 -3.94365 0
M  V30 3465 H 343.059 -0.677881 -4.23205 0
M  V30 3466 H 347.243 -1.52737 -4.72213 0
M  V30 3467 H 342.499 -2.72431 -5.47349 0
M  V30 3468 H 346.673 -3.57344 -5.97727 0
M  V30 3469 H 344.3 -4.1777 -6.35116 0
M  V30 3470 N 345.875 1.56104 -0.216619 0
M  V30 3471 C 346.805 2.23063 0.690296 0
M  V30 3472 C 347.786 1.20072 1.20485 0
M  V30 3473 O 348.971 1.48643 1.24976 0
M  V30 3474 C 346.101 2.90672 1.90072 0
M  V30 3475 C 345.055 4.00092 1.5202 0
M  V30 3476 C 344.381 4.54972 2.80899 0
M  V30 3477 C 345.681 5.17398 0.71391 0
M  V30 3478 H 347.375 2.99109 0.132038 0
M  V30 3479 H 344.921 1.43866 0.0620664 0
M  V30 3480 H 346.874 3.36204 2.54057 0
M  V30 3481 H 345.598 2.12066 2.48386 0
M  V30 3482 H 344.257 3.55283 0.903839 0
M  V30 3483 H 343.905 3.73102 3.37348 0
M  V30 3484 H 343.605 5.28817 2.56176 0
M  V30 3485 H 345.129 5.0322 3.45836 0
M  V30 3486 H 346.543 5.59342 1.25735 0
M  V30 3487 H 344.94 5.97444 0.563951 0
M  V30 3488 H 346.01 4.84088 -0.280527 0
M  V30 3489 N 347.353 -0.0568162 1.57498 0
M  V30 3490 C 348.583 -0.764515 1.91934 0
M  V30 3491 C 348.991 -1.70877 0.81227 0
M  V30 3492 O 348.334 -1.82351 -0.222213 0
M  V30 3493 C 348.396 -1.5994 3.21962 0
M  V30 3494 C 348.06 -0.822925 4.4953 0
M  V30 3495 C 349.057 -0.135464 5.19723 0
M  V30 3496 C 346.742 -0.785666 4.96117 0
M  V30 3497 C 348.736 0.578861 6.34766 0
M  V30 3498 C 346.423 -0.0675784 6.11063 0
M  V30 3499 C 347.421 0.613471 6.80239 0
M  V30 3500 O 347.109 1.31996 7.92989 0
M  V30 3501 H 346.841 -0.221647 0.63863 0
M  V30 3502 H 349.395 -0.0268218 2.05382 0
M  V30 3503 H 347.625 -2.38026 3.04763 0
M  V30 3504 H 349.314 -2.18715 3.41934 0
M  V30 3505 H 350.08 -0.155458 4.84751 0
M  V30 3506 H 345.959 -1.30524 4.42136 0
M  V30 3507 H 349.503 1.111 6.88696 0
M  V30 3508 H 345.4 -0.0455636 6.45484 0
M  V30 3509 H 346.168 1.23077 8.09194 0
M  V30 3510 N 348.832 -1.54138 -0.328536 0
M  V30 3511 C 350.057 -1.76378 -1.09112 0
M  V30 3512 C 350.482 -0.508596 -1.81094 0
M  V30 3513 O 349.84 0.539598 -1.73084 0
M  V30 3514 C 349.888 -2.95358 -2.06872 0
M  V30 3515 O 348.992 -2.66556 -3.14677 0
M  V30 3516 H 348.333 -0.584614 -0.314838 0
M  V30 3517 H 350.863 -2.01146 -0.374348 0
M  V30 3518 H 350.873 -3.22566 -2.4983 0
M  V30 3519 H 349.548 -3.86385 -1.5388 0
M  V30 3520 H 348.125 -2.50282 -2.7643 0
M  V30 3521 N 350.31 0.590341 -1.46126 0
M  V30 3522 C 351.726 0.912917 -1.30912 0
M  V30 3523 C 351.926 1.99616 -0.274893 0
M  V30 3524 O 350.982 2.50397 0.325197 0
M  V30 3525 C 352.295 1.3375 -2.69317 0
M  V30 3526 C 353.843 1.45077 -2.77348 0
M  V30 3527 C 354.318 1.90904 -4.16317 0
M  V30 3528 N 355.809 1.9811 -4.18696 0
M  V30 3529 C 356.544 2.34828 -5.23109 0
M  V30 3530 N 356.04 2.70393 -6.37856 0
M  V30 3531 N 357.833 2.35317 -5.10473 0
M  V30 3532 H 349.984 -0.125358 -2.1203 0
M  V30 3533 H 352.247 0.00658481 -0.947977 0
M  V30 3534 H 351.953 0.615614 -3.4627 0
M  V30 3535 H 351.827 2.30058 -2.9892 0
M  V30 3536 H 354.214 2.16353 -2.00687 0
M  V30 3537 H 354.295 0.4704 -2.51438 0
M  V30 3538 H 353.939 1.20209 -4.9347 0
M  V30 3539 H 353.869 2.89886 -4.39629 0
M  V30 3540 H 356.36 1.73146 -3.359 0
M  V30 3541 H 356.673 2.97341 -7.13308 0
M  V30 3542 H 355.018 2.68048 -6.41229 0
M  V30 3543 H 358.209 2.0695 -4.19868 0
M  V30 3544 H 358.382 2.63605 -5.9196 0
M  V30 3545 N 351.788 1.33704 0.83433 0
M  V30 3546 C 352.718 1.26967 1.95963 0
M  V30 3547 C 353.699 0.149337 1.69443 0
M  V30 3548 O 354.884 0.339852 1.91203 0
M  V30 3549 C 352.014 1.01275 3.32206 0
M  V30 3550 C 350.968 2.09652 3.73136 0
M  V30 3551 C 350.294 1.69166 5.07235 0
M  V30 3552 C 351.594 3.51372 3.86439 0
M  V30 3553 H 353.288 2.2112 2.01857 0
M  V30 3554 H 350.834 1.06447 0.969793 0
M  V30 3555 H 352.787 0.952106 4.10503 0
M  V30 3556 H 351.511 0.0356203 3.26581 0
M  V30 3557 H 350.17 2.14766 2.97104 0
M  V30 3558 H 349.818 0.701437 4.98085 0
M  V30 3559 H 349.518 2.41694 5.35591 0
M  V30 3560 H 351.042 1.64576 5.88003 0
M  V30 3561 H 352.456 3.48734 4.55036 0
M  V30 3562 H 350.853 4.22425 4.26236 0
M  V30 3563 H 351.923 3.89546 2.88759 0
M  V30 3564 N 353.266 -1.05314 1.17247 0
M  V30 3565 C 354.494 -1.81971 0.984593 0
M  V30 3566 C 354.909 -1.82929 -0.467166 0
M  V30 3567 O 354.266 -1.25564 -1.32438 0
M  V30 3568 C 354.317 -3.28143 1.51672 0
M  V30 3569 O 354.038 -3.27347 2.91163 0
M  V30 3570 C 355.539 -4.21493 1.37326 0
M  V30 3571 H 352.759 -0.573455 0.348411 0
M  V30 3572 H 355.303 -1.32808 1.55506 0
M  V30 3573 H 353.458 -3.74582 0.988302 0
M  V30 3574 H 353.872 -4.18824 3.15732 0
M  V30 3575 H 355.346 -5.22043 1.79375 0
M  V30 3576 H 355.823 -4.38031 0.320169 0
M  V30 3577 H 356.429 -3.80909 1.89178 0
M  V30 3578 N 354.744 -0.972509 -1.24016 0
M  V30 3579 C 355.99 -0.637978 -1.92504 0
M  V30 3580 C 356.323 0.825383 -1.75787 0
M  V30 3581 O 355.598 1.59442 -1.11393 0
M  V30 3582 C 355.881 -1.01942 -3.45369 0
M  V30 3583 C 355.734 -2.53983 -3.71231 0
M  V30 3584 C 357.053 -0.55751 -4.36555 0
M  V30 3585 H 354.172 -0.233248 -0.699117 0
M  V30 3586 H 356.814 -1.21238 -1.46292 0
M  V30 3587 H 354.964 -0.530656 -3.84859 0
M  V30 3588 H 356.636 -3.10374 -3.41271 0
M  V30 3589 H 354.879 -2.96968 -3.16216 0
M  V30 3590 H 355.55 -2.75723 -4.78206 0
M  V30 3591 H 358.026 -0.977029 -4.04467 0
M  V30 3592 H 356.902 -0.85292 -5.42233 0
M  V30 3593 H 357.163 0.542328 -4.38761 0
M  V30 3594 N 356.222 1.38976 -0.743202 0
M  V30 3595 C 357.499 1.94351 -0.220705 0
M  V30 3596 C 357.879 1.67935 1.2791 0
M  V30 3597 O 357.227 1.01211 2.04862 0
M  V30 3598 C 357.437 3.44426 -0.563171 0
M  V30 3599 C 358.785 4.2144 -0.517046 0
M  V30 3600 O 359.809 3.52661 -0.500846 0
M  V30 3601 O 358.668 5.44032 -0.518806 0
M  V30 3602 H 355.762 0.825879 -0.043047 0
M  V30 3603 H 358.308 1.48429 -0.822618 0
M  V30 3604 H 357.08 3.5712 -1.59941 0
M  V30 3605 H 356.703 3.97543 0.0672883 0
M  V30 3606 N 357.7 0.491464 1.49741 0
M  V30 3607 C 358.647 -0.292027 2.28945 0
M  V30 3608 C 359.617 -0.968973 1.34908 0
M  V30 3609 O 360.802 -0.97748 1.6386 0
M  V30 3610 C 357.942 -1.35617 3.17336 0
M  V30 3611 C 357.055 -0.691957 4.26422 0
M  V30 3612 C 356.19 -1.73572 5.02042 0
M  V30 3613 C 355.229 -1.05286 6.02977 0
M  V30 3614 N 354.366 -2.0404 6.71798 0
M  V30 3615 H 359.206 0.389654 2.95442 0
M  V30 3616 H 356.743 0.204003 1.45679 0
M  V30 3617 H 358.701 -1.98502 3.66951 0
M  V30 3618 H 357.331 -2.00674 2.52844 0
M  V30 3619 H 356.383 0.0499523 3.80367 0
M  V30 3620 H 357.695 -0.153946 4.98562 0
M  V30 3621 H 356.849 -2.43987 5.55478 0
M  V30 3622 H 355.588 -2.30757 4.29654 0
M  V30 3623 H 354.593 -0.334446 5.48782 0
M  V30 3624 H 355.818 -0.487636 6.77347 0
M  V30 3625 H 353.764 -2.60205 6.02187 0
M  V30 3626 H 353.681 -1.55279 7.39881 0
M  V30 3627 H 354.949 -2.73772 7.29842 0
M  V30 3628 N 359.178 -1.55987 0.224894 0
M  V30 3629 C 360.403 -2.03232 -0.41369 0
M  V30 3630 C 360.828 -1.10359 -1.52323 0
M  V30 3631 O 360.186 -0.092395 -1.81064 0
M  V30 3632 C 360.234 -3.48682 -0.919405 0
M  V30 3633 O 359.338 -3.58947 -2.03054 0
M  V30 3634 H 358.679 -0.657428 -0.0931903 0
M  V30 3635 H 361.209 -2.01679 0.34451 0
M  V30 3636 H 361.219 -3.8907 -1.22835 0
M  V30 3637 H 359.894 -4.15761 -0.107339 0
M  V30 3638 H 358.471 -3.30448 -1.72796 0
M  V30 3639 N 360.656 0.0484629 -1.57525 0
M  V30 3640 C 362.072 0.40375 -1.54409 0
M  V30 3641 C 362.272 1.77786 -0.948384 0
M  V30 3642 O 361.328 2.46189 -0.560983 0
M  V30 3643 C 362.641 0.323394 -2.98956 0
M  V30 3644 C 364.189 0.401892 -3.10409 0
M  V30 3645 C 364.664 0.351195 -4.56652 0
M  V30 3646 N 366.155 0.410576 -4.61377 0
M  V30 3647 C 366.89 0.393933 -5.72045 0
M  V30 3648 N 366.386 0.330724 -6.9201 0
M  V30 3649 N 368.179 0.442227 -5.60358 0
M  V30 3650 H 360.33 -0.851016 -1.94606 0
M  V30 3651 H 362.593 -0.321721 -0.89174 0
M  V30 3652 H 362.299 -0.62011 -3.4619 0
M  V30 3653 H 362.173 1.12463 -3.60044 0
M  V30 3654 H 364.56 1.33582 -2.63134 0
M  V30 3655 H 364.641 -0.428342 -2.52188 0
M  V30 3656 H 364.285 -0.578987 -5.04589 0
M  V30 3657 H 364.215 1.19928 -5.12762 0
M  V30 3658 H 366.706 0.462729 -3.75056 0
M  V30 3659 H 367.019 0.322592 -7.72126 0
M  V30 3660 H 365.364 0.29706 -6.94365 0
M  V30 3661 H 368.555 0.489464 -4.65534 0
M  V30 3662 H 368.728 0.425788 -6.466 0
M  V30 3663 N 362.134 1.5431 0.320358 0
M  V30 3664 C 363.38 1.73859 1.05568 0
M  V30 3665 C 363.735 0.507807 1.85578 0
M  V30 3666 O 363.028 -0.499789 1.84967 0
M  V30 3667 C 363.222 2.95639 2.00828 0
M  V30 3668 C 363.051 4.30444 1.30186 0
M  V30 3669 C 361.821 4.94544 1.03703 0
M  V30 3670 C 364.019 5.0929 0.716138 0
M  V30 3671 N 362.001 6.13172 0.298846 0
M  V30 3672 C 363.372 6.19903 0.109729 0
M  V30 3673 C 365.427 4.94034 0.619269 0
M  V30 3674 C 364.13 7.16924 -0.584153 0
M  V30 3675 C 366.156 5.91369 -0.0609184 0
M  V30 3676 C 365.518 7.01336 -0.656258 0
M  V30 3677 H 361.617 0.688988 0.36989 0
M  V30 3678 H 364.201 1.9177 0.336494 0
M  V30 3679 H 362.372 2.79188 2.70016 0
M  V30 3680 H 364.104 3.03802 2.6737 0
M  V30 3681 H 360.859 4.54536 1.33019 0
M  V30 3682 H 361.283 6.76977 -0.0561964 0
M  V30 3683 H 365.925 4.0916 1.06526 0
M  V30 3684 H 363.643 8.01354 -1.04197 0
M  V30 3685 H 367.229 5.81642 -0.135552 0
M  V30 3686 H 366.109 7.75359 -1.17423 0
M  V30 3687 N 363.613 -0.582584 1.46437 0
M  V30 3688 C 364.545 -1.70618 1.53043 0
M  V30 3689 C 365.558 -1.57322 0.418769 0
M  V30 3690 O 366.747 -1.64744 0.687136 0
M  V30 3691 C 363.847 -3.08869 1.39474 0
M  V30 3692 C 363.02 -3.48166 2.64762 0
M  V30 3693 C 362.079 -4.65478 2.4539 0
M  V30 3694 O 361.105 -4.71333 3.19114 0
M  V30 3695 N 362.307 -5.60365 1.51564 0
M  V30 3696 H 365.072 -1.65405 2.49923 0
M  V30 3697 H 362.633 -0.768567 1.42494 0
M  V30 3698 H 364.625 -3.85143 1.24287 0
M  V30 3699 H 363.195 -3.08449 0.507758 0
M  V30 3700 H 362.415 -2.61598 2.9489 0
M  V30 3701 H 363.703 -3.71188 3.4799 0
M  V30 3702 H 363.101 -5.5837 0.907705 0
M  V30 3703 H 361.658 -6.36068 1.4234 0
M  V30 3704 N 365.091 -1.34144 -0.827227 0
M  V30 3705 C 366.001 -1.27428 -1.96975 0
M  V30 3706 C 367.017 -0.182728 -1.73038 0
M  V30 3707 O 368.193 -0.408426 -1.97215 0
M  V30 3708 C 365.258 -1.02526 -3.31194 0
M  V30 3709 C 364.319 -2.20796 -3.68168 0
M  V30 3710 C 363.552 -1.97073 -4.95982 0
M  V30 3711 O 363.775 -0.926822 -5.6282 0
M  V30 3712 O 362.709 -2.83912 -5.30733 0
M  V30 3713 H 366.535 -2.23537 -2.05584 0
M  V30 3714 H 364.12 -1.14307 -0.961989 0
M  V30 3715 H 366.002 -0.904026 -4.11589 0
M  V30 3716 H 364.677 -0.0945389 -3.23562 0
M  V30 3717 H 363.584 -2.38477 -2.88235 0
M  V30 3718 H 364.917 -3.12243 -3.8048 0
M  V30 3719 N 366.569 1.04691 -1.17803 0
M  V30 3720 C 367.817 1.7743 -0.967617 0
M  V30 3721 C 368.138 1.88359 0.504574 0
M  V30 3722 O 367.408 1.40402 1.36617 0
M  V30 3723 H 365.988 0.657242 -0.355024 0
M  V30 3724 H 368.65 1.2638 -1.48371 0
M  V30 3725 H 367.746 2.78924 -1.40027 0
M  V30 3726 N 368.047 0.979072 1.23499 0
M  V30 3727 C 368.995 0.510604 2.26926 0
M  V30 3728 C 369.989 -0.431691 1.63807 0
M  V30 3729 O 371.195 -0.30573 1.77385 0
M  V30 3730 H 367.57 0.146688 0.737554 0
M  V30 3731 H 369.541 1.39466 2.63803 0
M  V30 3732 C 368.29 -0.172658 3.47271 0
M  V30 3733 H 367.613 0.543331 3.96091 0
M  V30 3734 H 369.053 -0.464101 4.21452 0
M  V30 3735 C 367.512 -1.40345 3.06276 0
M  V30 3736 O 368.042 -2.49978 3.14442 0
M  V30 3737 N 366.248 -1.27362 2.61203 0
M  V30 3738 H 365.795 -0.381584 2.54758 0
M  V30 3739 H 365.753 -2.09822 2.34141 0
M  V30 3740 N 369.525 -1.3858 0.750561 0
M  V30 3741 C 370.771 -2.00481 0.305825 0
M  V30 3742 C 371.104 -1.5944 -1.10872 0
M  V30 3743 O 370.379 -0.83052 -1.75877 0
M  V30 3744 C 370.662 -3.5758 0.425287 0
M  V30 3745 C 370.515 -4.08594 1.88072 0
M  V30 3746 C 371.834 -4.39719 -0.183122 0
M  V30 3747 H 368.953 -0.728348 0.112598 0
M  V30 3748 H 371.595 -1.64566 0.949638 0
M  V30 3749 H 369.745 -3.88306 -0.122828 0
M  V30 3750 H 371.417 -3.88523 2.48691 0
M  V30 3751 H 369.66 -3.61574 2.39681 0
M  V30 3752 H 370.331 -5.177 1.91548 0
M  V30 3753 H 372.807 -4.15128 0.284303 0
M  V30 3754 H 371.683 -5.48856 -0.0692757 0
M  V30 3755 H 371.944 -4.23434 -1.27106 0
M  V30 3756 N 371.003 -0.499398 -1.49478 0
M  V30 3757 C 372.25 0.0456899 -2.02448 0
M  V30 3758 C 372.578 1.37142 -1.37921 0
M  V30 3759 O 371.833 1.89111 -0.503544 0
M  V30 3760 C 372.132 0.248424 -3.56536 0
M  V30 3761 C 371.798 -0.999107 -4.39692 0
M  V30 3762 C 370.46 -1.34108 -4.62135 0
M  V30 3763 C 372.812 -1.82842 -4.88076 0
M  V30 3764 C 370.14 -2.51191 -5.30208 0
M  V30 3765 C 372.492 -2.99076 -5.57437 0
M  V30 3766 C 371.156 -3.33655 -5.78127 0
M  V30 3767 H 370.426 0.0167191 -0.740811 0
M  V30 3768 H 373.073 -0.65923 -1.79795 0
M  V30 3769 H 371.378 1.03586 -3.77859 0
M  V30 3770 H 373.075 0.684605 -3.95113 0
M  V30 3771 H 369.665 -0.722729 -4.22463 0
M  V30 3772 H 373.849 -1.57737 -4.70566 0
M  V30 3773 H 369.105 -2.78221 -5.44429 0
M  V30 3774 H 373.279 -3.63664 -5.93904 0
M  V30 3775 H 370.906 -4.24483 -6.30649 0
M  V30 3776 N 372.481 1.55866 -0.233164 0
M  V30 3777 C 373.706 2.03449 0.402906 0
M  V30 3778 C 374.131 1.11166 1.51736 0
M  V30 3779 O 373.489 0.101996 1.81013 0
M  V30 3780 C 373.537 3.49165 0.9009 0
M  V30 3781 O 372.641 3.60019 2.01147 0
M  V30 3782 H 371.982 0.657913 0.0897025 0
M  V30 3783 H 374.512 2.01493 -0.355201 0
M  V30 3784 H 374.522 3.89716 1.2077 0
M  V30 3785 H 373.197 4.15813 0.0852889 0
M  V30 3786 H 371.774 3.3136 1.71042 0
M  V30 3787 N 373.959 -0.0401083 1.57549 0
M  V30 3788 C 375.199 -0.738098 1.90608 0
M  V30 3789 C 375.563 -1.73107 0.830539 0
M  V30 3790 O 376.764 -2.4765 1.04513 0
M  V30 3791 C 375.035 -1.39985 3.28845 0
M  V30 3792 S 376.594 -2.12852 3.83718 0
M  V30 3793 H 373.412 -0.24477 0.667539 0
M  V30 3794 H 376.014 0.00693599 1.95499 0
M  V30 3795 H 374.718 -0.663775 4.04997 0
M  V30 3796 H 374.249 -2.18366 3.2723 0
M  V30 3797 H 376.264 -3.39842 3.61555 0
M  V30 3798 N 375.437 -1.54477 -0.31217 0
M  V30 3799 C 376.662 -1.77526 -1.07235 0
M  V30 3800 C 377.087 -0.527775 -1.80544 0
M  V30 3801 O 376.445 0.52121 -1.73646 0
M  V30 3802 C 376.493 -2.97535 -2.03728 0
M  V30 3803 O 375.597 -2.69878 -3.11833 0
M  V30 3804 H 374.938 -0.58792 -0.30862 0
M  V30 3805 H 377.468 -2.01532 -0.352993 0
M  V30 3806 H 377.478 -3.25198 -2.46395 0
M  V30 3807 H 376.153 -3.87996 -1.49774 0
M  V30 3808 H 374.73 -2.53199 -2.7376 0
M  V30 3809 N 376.915 0.57481 -1.46744 0
M  V30 3810 C 378.161 1.3347 -1.52688 0
M  V30 3811 C 378.494 1.93353 -0.181229 0
M  V30 3812 O 377.769 1.76912 0.808237 0
M  V30 3813 C 378.052 2.45811 -2.63152 0
M  V30 3814 C 377.905 1.90912 -4.07275 0
M  V30 3815 C 379.224 3.47822 -2.69644 0
M  V30 3816 H 376.343 0.483935 -0.555856 0
M  V30 3817 H 378.985 0.644968 -1.78718 0
M  V30 3818 H 377.135 3.04646 -2.41088 0
M  V30 3819 H 378.807 1.36473 -4.4065 0
M  V30 3820 H 377.05 1.21691 -4.16382 0
M  V30 3821 H 377.721 2.72042 -4.80309 0
M  V30 3822 H 380.197 2.9888 -2.895 0
M  V30 3823 H 379.073 4.23876 -3.48742 0
M  V30 3824 H 379.334 4.05555 -1.76005 0
M  V30 3825 N 378.394 1.34581 0.820102 0
M  V30 3826 C 379.327 1.20735 1.93644 0
M  V30 3827 C 380.305 0.0983343 1.62302 0
M  V30 3828 O 381.489 0.263997 1.86642 0
M  V30 3829 C 378.616 0.856037 3.27704 0
M  V30 3830 C 377.662 1.97521 3.78005 0
M  V30 3831 S 378.495 3.58906 3.97425 0
M  V30 3832 C 379.651 3.25822 5.34407 0
M  V30 3833 H 379.884 2.15231 2.05093 0
M  V30 3834 H 377.417 1.1964 0.97599 0
M  V30 3835 H 379.375 0.660133 4.05157 0
M  V30 3836 H 378.036 -0.0706253 3.14021 0
M  V30 3837 H 377.229 1.68321 4.75062 0
M  V30 3838 H 376.831 2.12875 3.07507 0
M  V30 3839 H 379.123 2.77812 6.17922 0
M  V30 3840 H 380.066 4.22029 5.68592 0
M  V30 3841 H 380.474 2.61932 5.00052 0
M  V30 3842 N 379.872 -1.04064 1.18357 0
M  V30 3843 C 380.822 -2.10393 0.878561 0
M  V30 3844 C 381.806 -1.60183 -0.151713 0
M  V30 3845 O 382.998 -1.76923 0.0523303 0
M  V30 3846 C 380.127 -3.4089 0.406096 0
M  V30 3847 C 379.213 -3.97866 1.46844 0
M  V30 3848 N 379.604 -4.28657 2.68489 0
M  V30 3849 C 377.902 -4.2574 1.32896 0
M  V30 3850 C 378.603 -4.74253 3.36836 0
M  V30 3851 N 377.579 -4.75068 2.64219 0
M  V30 3852 H 381.381 -2.32076 1.80327 0
M  V30 3853 H 378.895 -1.21818 1.07397 0
M  V30 3854 H 380.892 -4.16557 0.169088 0
M  V30 3855 H 379.552 -3.20633 -0.512275 0
M  V30 3856 H 380.563 -4.18304 3.05356 0
M  V30 3857 H 377.24 -4.1481 0.473134 0
M  V30 3858 H 378.63 -5.07096 4.40798 0
M  V30 3859 N 381.35 -0.985608 -1.22978 0
M  V30 3860 C 382.26 -0.538548 -2.28335 0
M  V30 3861 C 383.276 0.409163 -1.69121 0
M  V30 3862 O 384.452 0.277797 -1.99475 0
M  V30 3863 C 381.517 0.146867 -3.46389 0
M  V30 3864 C 380.578 -0.842896 -4.20944 0
M  V30 3865 C 379.811 -0.190095 -5.33361 0
M  V30 3866 O 380.034 1.01767 -5.61248 0
M  V30 3867 O 378.968 -0.891289 -5.95264 0
M  V30 3868 H 382.794 -1.41487 -2.68729 0
M  V30 3869 H 380.379 -0.753495 -1.29007 0
M  V30 3870 H 382.261 0.531125 -4.1804 0
M  V30 3871 H 380.936 0.997871 -3.07935 0
M  V30 3872 H 379.843 -1.27795 -3.51595 0
M  V30 3873 H 381.176 -1.66287 -4.6326 0
M  V30 3874 N 382.828 1.3818 -0.7579 0
M  V30 3875 C 383.791 2.28764 -0.141286 0
M  V30 3876 C 384.791 1.47388 0.642907 0
M  V30 3877 O 385.981 1.67781 0.468536 0
M  V30 3878 C 383.113 3.31184 0.808069 0
M  V30 3879 H 384.306 2.848 -0.939633 0
M  V30 3880 H 381.859 1.47212 -0.525191 0
M  V30 3881 H 382.594 2.80247 1.63193 0
M  V30 3882 H 382.379 3.91314 0.248104 0
M  V30 3883 H 383.869 3.98909 1.23536 0
M  V30 3884 N 384.306 0.507319 1.49211 0
M  V30 3885 C 385.236 -0.256939 2.32082 0
M  V30 3886 C 386.217 -0.956609 1.40652 0
M  V30 3887 O 387.402 -0.946788 1.69557 0
M  V30 3888 C 384.532 -1.31802 3.21318 0
M  V30 3889 C 383.486 -0.737855 4.21592 0
M  V30 3890 C 382.812 -1.89992 4.99807 0
M  V30 3891 C 384.112 0.275325 5.21574 0
M  V30 3892 H 385.806 0.434798 2.96226 0
M  V30 3893 H 383.352 0.210546 1.42452 0
M  V30 3894 H 385.305 -1.86045 3.78107 0
M  V30 3895 H 384.029 -2.03903 2.5513 0
M  V30 3896 H 382.688 -0.217126 3.65956 0
M  V30 3897 H 382.336 -2.60877 4.30061 0
M  V30 3898 H 382.036 -1.51777 5.6766 0
M  V30 3899 H 383.56 -2.44657 5.59442 0
M  V30 3900 H 384.974 -0.179193 5.7302 0
M  V30 3901 H 383.371 0.573649 5.97352 0
M  V30 3902 H 384.441 1.18903 4.70096 0
M  V30 3903 N 385.784 -1.5574 0.241426 0
M  V30 3904 C 386.734 -2.17803 -0.674233 0
M  V30 3905 C 387.718 -1.13225 -1.14319 0
M  V30 3906 O 388.91 -1.39153 -1.09387 0
M  V30 3907 C 386.039 -2.87682 -1.87333 0
M  V30 3908 C 385.125 -3.99509 -1.42313 0
M  V30 3909 N 385.516 -5.01115 -0.686798 0
M  V30 3910 C 383.814 -4.11964 -1.70885 0
M  V30 3911 C 384.515 -5.79922 -0.454456 0
M  V30 3912 N 383.491 -5.34001 -1.01705 0
M  V30 3913 H 387.293 -2.93718 -0.103447 0
M  V30 3914 H 384.807 -1.62342 0.0435095 0
M  V30 3915 H 386.804 -3.3057 -2.54026 0
M  V30 3916 H 385.464 -2.13269 -2.4484 0
M  V30 3917 H 386.475 -5.16799 -0.337459 0
M  V30 3918 H 383.152 -3.48718 -2.2957 0
M  V30 3919 H 384.542 -6.71768 0.132992 0
M  V30 3920 N 387.262 0.0317525 -1.57568 0
M  V30 3921 C 388.21 1.05165 -2.07468 0
M  V30 3922 C 389.204 1.3761 -0.98792 0
M  V30 3923 O 390.41 1.36546 -1.17282 0
M  V30 3924 H 386.785 0.35666 -0.66204 0
M  V30 3925 H 388.756 0.604958 -2.92203 0
M  V30 3926 C 387.505 2.34488 -2.56731 0
M  V30 3927 H 386.828 2.10383 -3.39969 0
M  V30 3928 H 388.268 3.04203 -2.95358 0
M  V30 3929 C 386.727 3.03266 -1.46736 0
M  V30 3930 O 387.257 3.92988 -0.832069 0
M  V30 3931 N 385.463 2.6455 -1.20256 0
M  V30 3932 H 385.01 1.91674 -1.72102 0
M  V30 3933 H 384.968 3.10886 -0.468737 0
M  V30 3934 N 388.74 1.54641 0.303973 0
M  V30 3935 C 389.69 1.8177 1.37636 0
M  V30 3936 C 390.674 0.674697 1.46071 0
M  V30 3937 O 391.866 0.935251 1.50273 0
M  V30 3938 C 388.995 2.06584 2.74186 0
M  V30 3939 C 388.081 3.2706 2.69986 0
M  V30 3940 N 388.472 4.47682 2.35402 0
M  V30 3941 C 386.77 3.29028 3.01092 0
M  V30 3942 C 387.471 5.29689 2.40426 0
M  V30 3943 N 386.447 4.67339 2.7766 0
M  V30 3944 H 390.249 2.72596 1.09857 0
M  V30 3945 H 387.763 1.541 0.51254 0
M  V30 3946 H 389.76 2.24166 3.51504 0
M  V30 3947 H 388.42 1.17024 3.02879 0
M  V30 3948 H 389.431 4.74336 2.07908 0
M  V30 3949 H 386.108 2.49565 3.34699 0
M  V30 3950 H 387.498 6.3606 2.16512 0
M  V30 3951 N 390.218 -0.567019 1.47046 0
M  V30 3952 C 391.448 -1.34831 1.56538 0
M  V30 3953 C 391.856 -1.8802 0.21101 0
M  V30 3954 O 391.199 -1.65152 -0.804387 0
M  V30 3955 C 391.261 -2.56139 2.52256 0
M  V30 3956 C 390.925 -2.24307 3.98165 0
M  V30 3957 C 391.922 -1.82192 4.86931 0
M  V30 3958 C 389.607 -2.35968 4.43423 0
M  V30 3959 C 391.601 -1.52153 6.18973 0
M  V30 3960 C 389.288 -2.05542 5.75496 0
M  V30 3961 C 390.286 -1.63701 6.63092 0
M  V30 3962 O 389.974 -1.33657 7.92711 0
M  V30 3963 H 389.706 -0.417683 0.531523 0
M  V30 3964 H 392.26 -0.694726 1.93294 0
M  V30 3965 H 390.49 -3.24356 2.10548 0
M  V30 3966 H 392.179 -3.18214 2.51982 0
M  V30 3967 H 392.945 -1.72684 4.53217 0
M  V30 3968 H 388.824 -2.67495 3.75456 0
M  V30 3969 H 392.368 -1.19421 6.87302 0
M  V30 3970 H 388.265 -2.14679 6.08755 0
M  V30 3971 H 389.033 -1.4737 8.05124 0
M  V30 3972 N 391.696 -1.35014 -0.812953 0
M  V30 3973 C 392.924 -1.31031 -1.6012 0
M  V30 3974 C 393.339 0.113558 -1.88458 0
M  V30 3975 O 392.696 1.06363 -1.48301 0
M  V30 3976 C 392.747 -2.10872 -2.93624 0
M  V30 3977 O 392.468 -3.47706 -2.66518 0
M  V30 3978 C 393.969 -2.14401 -3.88004 0
M  V30 3979 H 391.189 -0.45037 -0.497401 0
M  V30 3980 H 393.733 -1.77775 -1.01076 0
M  V30 3981 H 391.888 -1.67744 -3.492 0
M  V30 3982 H 392.302 -3.89097 -3.51715 0
M  V30 3983 H 393.776 -2.74669 -4.78812 0
M  V30 3984 H 394.253 -1.14105 -4.24119 0
M  V30 3985 H 394.859 -2.57662 -3.38364 0
M  V30 3986 N 393.175 1.03435 -1.18907 0
M  V30 3987 C 394.107 2.1165 -0.879595 0
M  V30 3988 C 395.12 1.62316 0.125439 0
M  V30 3989 O 396.309 1.78201 -0.103245 0
M  V30 3990 C 393.409 3.37622 -0.294042 0
M  V30 3991 C 392.582 4.16166 -1.34629 0
M  V30 3992 C 391.641 5.20457 -0.775274 0
M  V30 3993 O 390.667 5.50379 -1.4516 0
M  V30 3994 N 391.869 5.78949 0.424126 0
M  V30 3995 H 394.634 2.38791 -1.81105 0
M  V30 3996 H 392.195 1.19681 -1.09032 0
M  V30 3997 H 394.187 4.04572 0.101679 0
M  V30 3998 H 392.757 3.07873 0.541575 0
M  V30 3999 H 391.977 3.44444 -1.91707 0
M  V30 4000 H 393.265 4.65432 -2.05549 0
M  V30 4001 H 392.663 5.56948 0.991209 0
M  V30 4002 H 391.22 6.47334 0.761691 0
M  V30 4003 N 394.653 0.992116 1.22453 0
M  V30 4004 C 395.6 0.541731 2.24352 0
M  V30 4005 C 396.57 -0.425519 1.60557 0
M  V30 4006 O 397.755 -0.330453 1.87917 0
M  V30 4007 C 394.895 -0.138248 3.44823 0
M  V30 4008 C 394.008 0.870649 4.23136 0
M  V30 4009 C 393.143 0.164269 5.30946 0
M  V30 4010 C 392.182 1.16159 6.00977 0
M  V30 4011 N 391.319 0.483568 7.00433 0
M  V30 4012 H 396.159 1.41541 2.62241 0
M  V30 4013 H 393.696 0.709013 1.28885 0
M  V30 4014 H 395.654 -0.5494 4.13567 0
M  V30 4015 H 394.284 -0.975721 3.077 0
M  V30 4016 H 393.336 1.40013 3.53696 0
M  V30 4017 H 394.648 1.63014 4.7141 0
M  V30 4018 H 393.802 -0.303653 6.0594 0
M  V30 4019 H 392.541 -0.627733 4.83643 0
M  V30 4020 H 391.546 1.64015 5.24766 0
M  V30 4021 H 392.771 1.95445 6.50368 0
M  V30 4022 H 390.717 -0.289012 6.55363 0
M  V30 4023 H 390.634 1.18152 7.4671 0
M  V30 4024 H 391.902 0.0384219 7.79491 0
M  V30 4025 N 396.131 -1.37776 0.765217 0
M  V30 4026 C 397.356 -2.04651 0.336537 0
M  V30 4027 C 397.781 -1.57337 -1.03086 0
M  V30 4028 O 397.139 -0.730621 -1.65927 0
M  V30 4029 C 397.187 -3.58577 0.381468 0
M  V30 4030 O 396.291 -4.07706 -0.62042 0
M  V30 4031 H 395.632 -0.64756 0.146838 0
M  V30 4032 H 398.162 -1.76221 1.03959 0
M  V30 4033 H 398.172 -4.07314 0.236448 0
M  V30 4034 H 396.847 -3.9237 1.37907 0
M  V30 4035 H 395.424 -3.70306 -0.439056 0
M  V30 4036 N 397.609 -0.515225 -1.4894 0
M  V30 4037 C 398.539 0.244628 -2.32215 0
M  V30 4038 C 399.52 0.949136 -1.41157 0
M  V30 4039 O 400.705 0.937783 -1.70057 0
M  V30 4040 C 397.835 1.30096 -3.22013 0
M  V30 4041 C 396.789 0.715486 -4.21977 0
M  V30 4042 C 396.115 1.87339 -5.00808 0
M  V30 4043 C 397.415 -0.302982 -5.2142 0
M  V30 4044 H 399.109 -0.450501 -2.95991 0
M  V30 4045 H 396.655 -0.218098 -1.42339 0
M  V30 4046 H 398.608 1.84037 -3.79089 0
M  V30 4047 H 397.332 2.02547 -2.56207 0
M  V30 4048 H 395.991 0.197715 -3.66066 0
M  V30 4049 H 395.639 2.58592 -4.31438 0
M  V30 4050 H 395.339 1.48764 -5.68457 0
M  V30 4051 H 396.863 2.41686 -5.60732 0
M  V30 4052 H 398.277 0.148802 -5.73107 0
M  V30 4053 H 396.674 -0.60532 -5.97039 0
M  V30 4054 H 397.744 -1.21395 -4.69459 0
M  V30 4055 N 399.087 1.5561 -0.249682 0
M  V30 4056 C 400.312 2.03865 0.381305 0
M  V30 4057 C 400.737 1.12769 1.50548 0
M  V30 4058 O 400.095 0.121189 1.80895 0
M  V30 4059 C 400.143 3.50101 0.863816 0
M  V30 4060 O 399.247 3.62132 1.97318 0
M  V30 4061 H 398.588 0.658827 0.0827194 0
M  V30 4062 H 401.118 2.01105 -0.376552 0
M  V30 4063 H 401.128 3.90975 1.1663 0
M  V30 4064 H 399.803 4.1588 0.0411816 0
M  V30 4065 H 398.38 3.33155 1.67517 0
M  V30 4066 N 400.565 -0.0233959 1.57583 0
M  V30 4067 C 401.495 -1.02162 2.09965 0
M  V30 4068 C 402.476 -1.3735 1.00344 0
M  V30 4069 O 403.661 -1.46135 1.27899 0
M  V30 4070 C 400.791 -2.32081 2.58371 0
M  V30 4071 C 399.745 -2.1112 3.72307 0
M  V30 4072 C 399.071 -3.46848 4.06941 0
M  V30 4073 C 400.371 -1.49276 5.00514 0
M  V30 4074 H 402.065 -0.585557 2.93618 0
M  V30 4075 H 399.611 -0.280218 1.41247 0
M  V30 4076 H 401.564 -3.02249 2.93639 0
M  V30 4077 H 400.288 -2.77758 1.71808 0
M  V30 4078 H 398.947 -1.43384 3.37397 0
M  V30 4079 H 398.595 -3.90184 3.17436 0
M  V30 4080 H 398.295 -3.33646 4.83688 0
M  V30 4081 H 399.819 -4.18369 4.44747 0
M  V30 4082 H 401.233 -2.09368 5.33702 0
M  V30 4083 H 399.63 -1.46632 5.8191 0
M  V30 4084 H 400.7 -0.459217 4.82721 0
M  V30 4085 N 402.043 -1.548 -0.295768 0
M  V30 4086 C 403.268 -1.78653 -1.05346 0
M  V30 4087 C 403.693 -0.546894 -1.79974 0
M  V30 4088 O 403.051 0.502763 -1.7419 0
M  V30 4089 C 403.099 -2.99679 -2.00561 0
M  V30 4090 O 402.203 -2.7317 -3.08953 0
M  V30 4091 H 401.544 -0.59116 -0.302367 0
M  V30 4092 H 404.074 -2.01895 -0.331598 0
M  V30 4093 H 404.084 -3.27793 -2.42932 0
M  V30 4094 H 402.759 -3.89562 -1.4565 0
M  V30 4095 H 401.336 -2.56089 -2.71059 0
M  V30 4096 N 403.521 0.559213 -1.47345 0
M  V30 4097 C 404.451 1.67622 -1.62558 0
M  V30 4098 C 405.432 1.63331 -0.475087 0
M  V30 4099 O 406.617 1.80983 -0.704182 0
M  V30 4100 C 403.747 3.0626 -1.63774 0
M  V30 4101 C 402.701 3.25397 -2.7803 0
M  V30 4102 C 402.027 4.64801 -2.64318 0
M  V30 4103 C 403.327 3.10965 -4.19641 0
M  V30 4104 H 405.021 1.55146 -2.56067 0
M  V30 4105 H 402.567 0.744961 -1.23233 0
M  V30 4106 H 404.52 3.84247 -1.73008 0
M  V30 4107 H 403.244 3.1969 -0.66825 0
M  V30 4108 H 401.903 2.49817 -2.68304 0
M  V30 4109 H 401.551 4.75028 -1.65401 0
M  V30 4110 H 401.251 4.78555 -3.40968 0
M  V30 4111 H 402.775 5.44926 -2.75478 0
M  V30 4112 H 404.189 3.78772 -4.30354 0
M  V30 4113 H 402.586 3.36229 -4.97062 0
M  V30 4114 H 403.656 2.07736 -4.38148 0
M  V30 4115 N 404.999 1.35443 0.805782 0
M  V30 4116 C 406.247 1.28507 1.55982 0
M  V30 4117 C 406.568 -0.140046 1.94496 0
M  V30 4118 O 405.838 -1.07666 1.63661 0
M  V30 4119 H 404.418 0.472676 0.578434 0
M  V30 4120 H 407.08 1.69555 0.961098 0
M  V30 4121 H 406.176 1.90148 2.47488 0
M  V30 4122 O 406.516 -0.944775 1.30982 0
M  V30 4123 H 407.207 -1.57432 1.12848 0
M  V30 END ATOM
M  V30 BEGIN BOND
M  V30 END BOND
M  V30 END CTAB
M  END
$$$$
