drugbank_drug|DB09046 Peptide Sequence
 OpenBabel12092119133D

  0  0  0     0  0            999 V3000
M  V30 BEGIN CTAB
M  V30 COUNTS 2298 2315 0 0 0
M  V30 BEGIN ATOM
M  V30 1 H -0.908 1.98254 -0.117106 0
M  V30 2 N 0 1.576 0 0
M  V30 3 C 0.933 2.03868 1.02534 0
M  V30 4 C 1.911 0.928543 1.3348 0
M  V30 5 O 3.095 1.19667 1.45644 0
M  V30 6 C 0.222 2.43627 2.35294 0
M  V30 7 C -0.732 3.65373 2.2001 0
M  V30 8 S 0.101 5.13292 1.52614 0
M  V30 9 C 1.257 5.56322 2.86805 0
M  V30 10 H 1.49 2.90518 0.631377 0
M  V30 11 H -0.977 1.52953 0.210867 0
M  V30 12 H 0.981 2.67203 3.11629 0
M  V30 13 H -0.358 1.57376 2.7183 0
M  V30 14 H -1.165 3.90944 3.18086 0
M  V30 15 H -1.563 3.418 1.51819 0
M  V30 16 H 0.729 5.58782 3.83104 0
M  V30 17 H 1.672 6.56266 2.65933 0
M  V30 18 H 2.08 4.83886 2.90714 0
M  V30 19 N 1.4781 -0.272755 1.55222 0
M  V30 20 C 2.7241 -1.00581 1.761 0
M  V30 21 C 3.0571 -1.85932 0.560625 0
M  V30 22 O 2.3321 -1.89416 -0.441801 0
M  V30 23 C 2.6151 -1.88816 3.06628 0
M  V30 24 C 2.4681 -1.06457 4.37021 0
M  V30 25 C 3.7871 -2.8752 3.33197 0
M  V30 26 H 0.9061 -0.364244 0.640699 0
M  V30 27 H 3.5481 -0.278189 1.87952 0
M  V30 28 H 1.6981 -2.50856 2.96654 0
M  V30 29 H 3.3701 -0.464863 4.58952 0
M  V30 30 H 1.6131 -0.368043 4.32236 0
M  V30 31 H 2.2841 -1.71514 5.24678 0
M  V30 32 H 4.7601 -2.35615 3.42965 0
M  V30 33 H 3.6361 -3.46399 4.25792 0
M  V30 34 H 3.8971 -3.62657 2.52849 0
M  V30 35 N 2.9562 -1.48159 -0.537278 0
M  V30 36 C 4.3672 -1.49429 -1.11928 0
M  V30 37 C 4.7182 -0.26 -1.9447 0
M  V30 38 O 3.8432 0.633489 -2.0692 0
M  V30 39 C 4.4382 -2.70758 -2.03656 0
M  V30 40 C 2.9972 -2.74923 -2.57088 0
M  V30 41 C 2.1442 -2.42835 -1.3389 0
M  V30 42 H 5.0952 -1.55381 -0.322886 0
M  V30 43 H 5.1162 -2.48861 -2.87834 0
M  V30 44 H 4.6282 -3.60575 -1.43553 0
M  V30 45 H 2.7292 -1.89296 -3.20933 0
M  V30 46 H 2.8422 -3.76157 -2.9672 0
M  V30 47 H 1.2062 -1.93836 -1.65226 0
M  V30 48 H 1.9892 -3.34884 -0.755504 0
M  V30 49 N 4.4343 0.785586 -1.36625 0
M  V30 50 C 5.6833 1.53883 -1.30396 0
M  V30 51 C 5.9963 1.95271 0.113452 0
M  V30 52 O 7.2023 2.69858 0.298142 0
M  V30 53 C 5.6583 2.77808 -2.28802 0
M  V30 54 C 5.2663 2.43574 -3.75999 0
M  V30 55 C 7.0103 3.55783 -2.31558 0
M  V30 56 C 4.9173 3.63919 -4.66173 0
M  V30 57 H 3.8473 0.577678 -0.484566 0
M  V30 58 H 6.4983 0.861705 -1.62009 0
M  V30 59 H 4.8803 3.47339 -1.90188 0
M  V30 60 H 6.0543 1.81916 -4.23371 0
M  V30 61 H 4.3693 1.78803 -3.76056 0
M  V30 62 H 6.9663 4.45205 -2.96137 0
M  V30 63 H 7.3093 3.94644 -1.3252 0
M  V30 64 H 7.8423 2.93235 -2.68809 0
M  V30 65 H 4.5813 3.3015 -5.66287 0
M  V30 66 H 4.1013 4.2473 -4.23515 0
M  V30 67 H 5.7803 4.30901 -4.82632 0
M  V30 68 N 5.9124 1.20967 1.01018 0
M  V30 69 C 6.8444 0.922059 2.09835 0
M  V30 70 C 7.8574 -0.0927106 1.62536 0
M  V30 71 O 9.0464 0.139127 1.77957 0
M  V30 72 C 6.1464 0.362004 3.36961 0
M  V30 73 C 5.3194 1.42986 4.13369 0
M  V30 74 C 4.3784 0.879976 5.1879 0
M  V30 75 O 3.4044 1.56219 5.47343 0
M  V30 76 N 4.6064 -0.307396 5.79686 0
M  V30 77 H 7.3714 1.8588 2.35093 0
M  V30 78 H 4.9324 1.11422 1.1746 0
M  V30 79 H 6.9244 -0.0201474 4.04695 0
M  V30 80 H 5.4944 -0.479437 3.08902 0
M  V30 81 H 4.7144 1.98608 3.40512 0
M  V30 82 H 6.0024 2.14885 4.61196 0
M  V30 83 H 5.4004 -0.878796 5.58832 0
M  V30 84 H 3.9574 -0.631115 6.48737 0
M  V30 85 N 7.3905 -1.2043 1.01659 0
M  V30 86 C 8.3375 -2.23215 0.586822 0
M  V30 87 C 9.3075 -1.61382 -0.393085 0
M  V30 88 O 10.4925 -1.88544 -0.292525 0
M  V30 89 C 7.6325 -3.45032 -0.0687464 0
M  V30 90 C 6.7455 -4.21296 0.955724 0
M  V30 91 C 5.8805 -5.30507 0.271208 0
M  V30 92 C 4.9195 -5.98515 1.28244 0
M  V30 93 N 4.0565 -6.99316 0.62459 0
M  V30 94 H 8.8965 -2.59336 1.46796 0
M  V30 95 H 6.4335 -1.27431 0.734836 0
M  V30 96 H 8.3915 -4.1459 -0.465965 0
M  V30 97 H 7.0215 -3.09604 -0.913529 0
M  V30 98 H 6.0735 -3.50803 1.4711 0
M  V30 99 H 7.3855 -4.6803 1.72479 0
M  V30 100 H 6.5395 -6.06428 -0.18151 0
M  V30 101 H 5.2785 -4.8481 -0.530163 0
M  V30 102 H 4.2835 -5.21355 1.74554 0
M  V30 103 H 5.5085 -6.46298 2.08509 0
M  V30 104 H 3.4545 -6.55812 -0.156914 0
M  V30 105 H 3.3715 -7.44178 1.33172 0
M  V30 106 H 4.6395 -7.79255 0.195462 0
M  V30 107 N 8.8686 -0.792821 -1.36206 0
M  V30 108 C 10.1146 -0.36733 -1.99446 0
M  V30 109 C 10.4476 1.05917 -1.62774 0
M  V30 110 O 9.7226 1.7324 -0.88421 0
M  V30 111 C 10.0056 -0.535044 -3.56103 0
M  V30 112 C 9.8586 -2.00548 -4.02617 0
M  V30 113 C 11.1776 0.0478191 -4.40074 0
M  V30 114 H 8.2966 -0.134941 -0.724541 0
M  V30 115 H 10.9386 -0.999794 -1.61568 0
M  V30 116 H 9.0886 0.00336329 -3.885 0
M  V30 117 H 10.7606 -2.60521 -3.80692 0
M  V30 118 H 9.0036 -2.50686 -3.54032 0
M  V30 119 H 9.6746 -2.07377 -5.11565 0
M  V30 120 H 12.1506 -0.411822 -4.14057 0
M  V30 121 H 11.0266 -0.0995336 -5.4881 0
M  V30 122 H 11.2876 1.14025 -4.27142 0
M  V30 123 N 10.3467 1.47872 -0.545128 0
M  V30 124 C 11.2787 2.27869 0.246621 0
M  V30 125 C 12.2917 1.36282 0.890561 0
M  V30 126 O 13.4807 1.61207 0.766449 0
M  V30 127 C 10.5807 3.10159 1.36582 0
M  V30 128 C 9.7537 4.29627 0.820954 0
M  V30 129 C 8.8127 4.93607 1.82314 0
M  V30 130 O 7.8387 5.52366 1.37406 0
M  V30 131 N 9.0407 4.87211 3.15603 0
M  V30 132 H 11.8057 2.96459 -0.439539 0
M  V30 133 H 9.3667 1.57367 -0.380421 0
M  V30 134 H 11.3587 3.49829 2.03474 0
M  V30 135 H 9.9287 2.43891 1.9554 0
M  V30 136 H 9.1487 3.94192 -0.0244032 0
M  V30 137 H 10.4367 5.06928 0.436063 0
M  V30 138 H 9.8347 4.40651 3.54744 0
M  V30 139 H 8.3917 5.30937 3.78087 0
M  V30 140 N 11.8248 0.280983 1.55075 0
M  V30 141 C 13.1018 -0.386207 1.91749 0
M  V30 142 C 13.4818 -1.73264 1.20594 0
M  V30 143 O 12.8298 -2.26034 0.334784 0
M  V30 144 C 13.0398 -0.520687 3.45094 0
M  V30 145 C 14.3878 -0.800865 4.16979 0
M  V30 146 O 15.4118 -0.605271 3.5102 0
M  V30 147 O 14.2708 -1.1753 5.33712 0
M  V30 148 H 11.3648 -0.212408 0.799257 0
M  V30 149 H 13.9108 0.327568 1.66509 0
M  V30 150 H 12.6828 0.426633 3.88967 0
M  V30 151 H 12.3058 -1.2837 3.76307 0
M  V30 152 N 13.3029 -1.57598 0.00835791 0
M  V30 153 C 14.5799 -1.82172 -0.712235 0
M  V30 154 C 14.9599 -0.887873 -1.9152 0
M  V30 155 O 14.3079 0.06146 -2.28417 0
M  V30 156 C 14.5179 -3.30875 -1.11008 0
M  V30 157 C 15.8659 -3.96826 -1.51044 0
M  V30 158 O 16.8899 -3.35248 -1.20364 0
M  V30 159 O 15.7489 -5.05318 -2.08125 0
M  V30 160 H 12.8429 -0.750435 -0.347529 0
M  V30 161 H 15.3889 -1.69665 0.0344523 0
M  V30 162 H 14.1609 -3.90481 -0.252982 0
M  V30 163 H 13.7839 -3.48412 -1.9156 0
M  V30 164 N 14.781 0.264519 -1.55364 0
M  V30 165 C 16.009 1.013 -1.80405 0
M  V30 166 C 16.424 1.79618 -0.581622 0
M  V30 167 O 15.781 1.76879 0.449468 0
M  V30 168 C 15.832 1.96487 -3.03439 0
M  V30 169 O 15.553 1.21341 -4.20961 0
M  V30 170 C 17.054 2.83079 -3.41147 0
M  V30 171 H 14.274 0.298875 -0.600762 0
M  V30 172 H 16.818 0.292736 -2.02394 0
M  V30 173 H 14.973 2.63965 -2.83551 0
M  V30 174 H 15.387 1.85573 -4.90574 0
M  V30 175 H 16.861 3.4565 -4.30384 0
M  V30 176 H 17.338 3.53286 -2.60932 0
M  V30 177 H 17.944 2.2108 -3.63323 0
M  V30 178 N 16.2591 1.48442 0.529413 0
M  V30 179 C 17.2061 1.63007 1.63394 0
M  V30 180 C 18.1761 0.47212 1.59249 0
M  V30 181 O 19.3611 0.695673 1.77666 0
M  V30 182 C 16.5011 1.6763 3.01653 0
M  V30 183 C 15.6141 2.94535 3.16027 0
M  V30 184 C 14.7491 2.90316 4.44849 0
M  V30 185 C 13.7881 4.11923 4.52754 0
M  V30 186 N 12.9251 4.05777 5.72965 0
M  V30 187 H 17.7651 2.5733 1.50285 0
M  V30 188 H 15.3021 1.27613 0.731656 0
M  V30 189 H 17.2601 1.68292 3.81751 0
M  V30 190 H 15.8901 0.76797 3.13532 0
M  V30 191 H 14.9421 3.03615 2.29177 0
M  V30 192 H 16.2541 3.84512 3.17729 0
M  V30 193 H 15.4081 2.89382 5.33238 0
M  V30 194 H 14.1471 1.98068 4.45668 0
M  V30 195 H 13.1521 4.13131 3.62771 0
M  V30 196 H 14.3771 5.0533 4.53672 0
M  V30 197 H 12.3231 3.16351 5.74681 0
M  V30 198 H 12.2401 4.8946 5.76164 0
M  V30 199 H 13.5081 4.08904 6.6364 0
M  V30 200 N 17.7372 -0.778329 1.37039 0
M  V30 201 C 18.9652 -1.56734 1.35063 0
M  V30 202 C 19.3802 -1.88686 -0.0655597 0
M  V30 203 O 18.7372 -1.5096 -1.02554 0
M  V30 204 C 18.7882 -2.88163 2.18276 0
M  V30 205 O 18.5092 -2.57583 3.54376 0
M  V30 206 C 20.0102 -3.82422 2.24206 0
M  V30 207 H 17.2302 -0.485778 0.462883 0
M  V30 208 H 19.7742 -0.965185 1.8029 0
M  V30 209 H 17.9292 -3.44818 1.76576 0
M  V30 210 H 18.3432 -3.41699 3.97922 0
M  V30 211 H 19.8172 -4.71667 2.86765 0
M  V30 212 H 20.2942 -4.21078 1.24861 0
M  V30 213 H 20.9002 -3.31697 2.6619 0
M  V30 214 N 19.2153 -1.21501 -1.00376 0
M  V30 215 C 20.1453 -0.999478 -2.11028 0
M  V30 216 C 21.1263 0.0759671 -1.6993 0
M  V30 217 O 22.3113 -0.0841106 -1.94018 0
M  V30 218 C 19.4413 -0.564709 -3.42678 0
M  V30 219 C 18.3953 -1.58486 -3.97576 0
M  V30 220 C 17.7213 -1.00628 -5.25146 0
M  V30 221 C 19.0213 -2.97204 -4.29496 0
M  V30 222 H 20.7153 -1.92495 -2.29317 0
M  V30 223 H 18.2613 -0.92693 -1.102 0
M  V30 224 H 20.2143 -0.401091 -4.19487 0
M  V30 225 H 18.9383 0.396411 -3.24185 0
M  V30 226 H 17.5973 -1.73606 -3.22888 0
M  V30 227 H 17.2453 -0.0368439 -5.02987 0
M  V30 228 H 16.9453 -1.68771 -5.62841 0
M  V30 229 H 18.4693 -0.854015 -6.04598 0
M  V30 230 H 19.8833 -2.8552 -4.97143 0
M  V30 231 H 18.2803 -3.62372 -4.78338 0
M  V30 232 H 19.3503 -3.47956 -3.3772 0
M  V30 233 N 20.6934 1.19889 -1.02296 0
M  V30 234 C 21.9424 1.88743 -0.711257 0
M  V30 235 C 22.2554 1.80112 0.762817 0
M  V30 236 O 23.4614 2.44161 1.18733 0
M  V30 237 C 21.9174 3.38525 -1.22185 0
M  V30 238 C 21.5254 3.55727 -2.72328 0
M  V30 239 C 23.2694 4.12893 -0.985864 0
M  V30 240 C 21.1764 4.99369 -3.16835 0
M  V30 241 H 20.1064 0.706885 -0.262353 0
M  V30 242 H 22.7574 1.35586 -1.23648 0
M  V30 243 H 21.1394 3.91044 -0.624571 0
M  V30 244 H 22.3134 3.13564 -3.3766 0
M  V30 245 H 20.6284 2.94739 -2.9414 0
M  V30 246 H 23.2254 5.18813 -1.29374 0
M  V30 247 H 23.5684 4.16228 0.0775055 0
M  V30 248 H 24.1014 3.66494 -1.54684 0
M  V30 249 H 20.8404 5.01193 -4.22476 0
M  V30 250 H 20.3604 5.42317 -2.56228 0
M  V30 251 H 22.0394 5.67988 -3.09837 0
M  V30 252 N 22.1715 0.800033 1.35784 0
M  V30 253 C 23.1185 0.203848 2.29898 0
M  V30 254 C 24.0885 -0.658375 1.52495 0
M  V30 255 O 25.2735 -0.604832 1.8096 0
M  V30 256 C 22.4135 -0.64688 3.38983 0
M  V30 257 C 21.5265 0.235054 4.3136 0
M  V30 258 C 20.6615 -0.623054 5.27533 0
M  V30 259 C 19.7005 0.259682 6.11549 0
M  V30 260 N 18.8375 -0.558019 6.99879 0
M  V30 261 H 23.6775 1.01186 2.80295 0
M  V30 262 H 21.2145 0.51053 1.37957 0
M  V30 263 H 23.1725 -1.15521 4.00887 0
M  V30 264 H 21.8025 -1.42021 2.89879 0
M  V30 265 H 20.8545 0.861438 3.70518 0
M  V30 266 H 22.1665 0.914768 4.9034 0
M  V30 267 H 21.3205 -1.19678 5.94779 0
M  V30 268 H 20.0595 -1.33636 4.69034 0
M  V30 269 H 19.0645 0.845726 5.43256 0
M  V30 270 H 20.2895 0.970748 6.72126 0
M  V30 271 H 18.2355 -1.25542 6.43875 0
M  V30 272 H 18.1525 0.0637872 7.55973 0
M  V30 273 H 19.4205 -1.11523 7.71481 0
M  V30 274 N 23.6496 -1.47581 0.552962 0
M  V30 275 C 24.8776 -2.06875 0.0320556 0
M  V30 276 C 25.2926 -1.40625 -1.25976 0
M  V30 277 O 24.6496 -0.501349 -1.75479 0
M  V30 278 C 24.7006 -3.61092 -0.17167 0
M  V30 279 O 24.4216 -4.24858 1.06899 0
M  V30 280 C 25.9226 -4.37242 -0.730344 0
M  V30 281 H 23.1426 -0.669561 0.043915 0
M  V30 282 H 25.6866 -1.89646 0.765163 0
M  V30 283 H 23.8416 -3.7785 -0.854894 0
M  V30 284 H 24.2556 -5.17334 0.864059 0
M  V30 285 H 25.7296 -5.45842 -0.822203 0
M  V30 286 H 26.2066 -4.03235 -1.74064 0
M  V30 287 H 26.8126 -4.25219 -0.0829543 0
M  V30 288 N 25.1277 -0.289203 -1.54924 0
M  V30 289 C 26.3767 0.324231 -1.99077 0
M  V30 290 C 26.6897 1.5591 -1.18117 0
M  V30 291 O 27.8957 2.24637 -1.52481 0
M  V30 292 C 26.3517 0.628209 -3.54375 0
M  V30 293 C 25.9597 -0.587647 -4.44129 0
M  V30 294 C 27.7037 1.20349 -4.07083 0
M  V30 295 C 25.6107 -0.257475 -5.90839 0
M  V30 296 H 24.5407 0.124924 -0.743579 0
M  V30 297 H 27.1917 -0.396063 -1.79175 0
M  V30 298 H 25.5737 1.40778 -3.70132 0
M  V30 299 H 26.7477 -1.36418 -4.40144 0
M  V30 300 H 25.0627 -1.08074 -4.0213 0
M  V30 301 H 27.6597 1.46456 -5.14252 0
M  V30 302 H 28.0027 2.14195 -3.56968 0
M  V30 303 H 28.5357 0.485889 -3.94821 0
M  V30 304 H 25.2747 -1.16419 -6.45079 0
M  V30 305 H 24.7947 0.482018 -5.9786 0
M  V30 306 H 26.4737 0.145238 -6.46837 0
M  V30 307 N 26.6058 1.57591 -0.0167156 0
M  V30 308 C 27.8518 1.91567 0.665582 0
M  V30 309 C 28.1848 0.892298 1.72487 0
M  V30 310 O 27.4598 -0.0867127 1.94307 0
M  V30 311 C 27.7428 3.36069 1.29342 0
M  V30 312 C 27.5958 4.49135 0.244541 0
M  V30 313 C 28.9148 3.803 2.21495 0
M  V30 314 H 26.0338 0.69666 0.240488 0
M  V30 315 H 28.6758 1.89866 -0.0714356 0
M  V30 316 H 26.8258 3.3765 1.92158 0
M  V30 317 H 28.4978 4.59689 -0.385228 0
M  V30 318 H 26.7408 4.3165 -0.431379 0
M  V30 319 H 27.4118 5.47242 0.723207 0
M  V30 320 H 29.8878 3.80377 1.68678 0
M  V30 321 H 28.7638 4.82127 2.62382 0
M  V30 322 H 29.0248 3.15104 3.101 0
M  V30 323 N 28.0839 -0.256276 1.55502 0
M  V30 324 C 29.3119 -1.00342 1.8094 0
M  V30 325 C 29.7269 -1.79307 0.59114 0
M  V30 326 O 29.0839 -1.77114 -0.440081 0
M  V30 327 C 29.1349 -1.94875 3.04476 0
M  V30 328 O 28.8559 -1.19107 4.21598 0
M  V30 329 C 30.3569 -2.81266 3.42644 0
M  V30 330 H 27.5769 -0.295685 0.602338 0
M  V30 331 H 30.1209 -0.281998 2.02546 0
M  V30 332 H 28.2759 -2.62457 2.84947 0
M  V30 333 H 28.6899 -1.82969 4.91551 0
M  V30 334 H 30.1639 -3.43362 4.32211 0
M  V30 335 H 30.6409 -3.51897 2.62802 0
M  V30 336 H 31.2469 -2.1915 3.64491 0
M  V30 337 N 29.562 -1.4872 -0.521534 0
M  V30 338 C 30.978 -1.35028 -0.850855 0
M  V30 339 C 31.178 -0.367712 -1.98116 0
M  V30 340 O 30.234 0.208037 -2.51642 0
M  V30 341 C 31.547 -2.75263 -1.21041 0
M  V30 342 C 33.095 -2.83813 -1.31981 0
M  V30 343 C 33.57 -4.24769 -1.71276 0
M  V30 344 N 35.061 -4.27482 -1.78363 0
M  V30 345 C 35.796 -5.33494 -2.1017 0
M  V30 346 N 35.292 -6.49775 -2.40343 0
M  V30 347 N 37.085 -5.20894 -2.11248 0
M  V30 348 H 29.236 -2.11214 0.22413 0
M  V30 349 H 31.499 -0.947252 0.0376439 0
M  V30 350 H 31.205 -3.48765 -0.453415 0
M  V30 351 H 31.079 -3.09327 -2.15863 0
M  V30 352 H 33.466 -2.10561 -2.06756 0
M  V30 353 H 33.547 -2.53358 -0.352596 0
M  V30 354 H 33.191 -4.9854 -0.970588 0
M  V30 355 H 33.121 -4.52673 -2.69062 0
M  V30 356 H 35.612 -3.43611 -1.57288 0
M  V30 357 H 35.925 -7.26402 -2.63743 0
M  V30 358 H 34.27 -6.53035 -2.37844 0
M  V30 359 H 37.461 -4.29065 -1.87139 0
M  V30 360 H 37.634 -6.03612 -2.35704 0
M  V30 361 N 31.0401 0.771051 -1.3745 0
M  V30 362 C 32.2891 1.52491 -1.3202 0
M  V30 363 C 32.6021 1.9538 0.0927347 0
M  V30 364 O 33.8081 2.70159 0.269503 0
M  V30 365 C 32.2641 2.75366 -2.31736 0
M  V30 366 C 31.8721 2.39573 -3.78562 0
M  V30 367 C 33.6161 3.53307 -2.35318 0
M  V30 368 C 31.5231 3.58954 -4.70007 0
M  V30 369 H 30.4531 0.572506 -0.490666 0
M  V30 370 H 33.1041 0.844474 -1.62914 0
M  V30 371 H 31.4861 3.45303 -1.93861 0
M  V30 372 H 32.6601 1.77415 -4.25277 0
M  V30 373 H 30.9751 1.74805 -3.77932 0
M  V30 374 H 33.5721 4.42039 -3.00842 0
M  V30 375 H 33.9151 3.93217 -1.36698 0
M  V30 376 H 34.4481 2.90367 -2.71904 0
M  V30 377 H 31.1871 3.24125 -5.69757 0
M  V30 378 H 30.7071 4.20214 -4.27996 0
M  V30 379 H 32.3861 4.25758 -4.87175 0
M  V30 380 N 32.5182 1.22032 0.997298 0
M  V30 381 C 33.4662 0.983634 2.10778 0
M  V30 382 C 34.4602 -0.0717564 1.69248 0
M  V30 383 O 35.6662 0.080304 1.79821 0
M  V30 384 H 32.0412 0.300877 0.689186 0
M  V30 385 H 34.0122 1.92606 2.27916 0
M  V30 386 C 32.7612 0.57326 3.42942 0
M  V30 387 H 32.0842 1.37702 3.75338 0
M  V30 388 H 33.5242 0.447031 4.21637 0
M  V30 389 C 31.9832 -0.7167 3.29188 0
M  V30 390 O 32.5132 -1.77027 3.60589 0
M  V30 391 N 30.7192 -0.686167 2.82383 0
M  V30 392 H 30.2662 0.171507 2.57028 0
M  V30 393 H 30.2242 -1.54955 2.73562 0
M  V30 394 N 33.9963 -1.19345 1.0293 0
M  V30 395 C 35.2733 -1.84811 0.640642 0
M  V30 396 C 35.6533 -1.91855 -0.88062 0
M  V30 397 O 35.0013 -1.43587 -1.7775 0
M  V30 398 C 35.2113 -3.23755 1.30321 0
M  V30 399 C 36.5593 -3.99912 1.42673 0
M  V30 400 O 37.5833 -3.33155 1.26041 0
M  V30 401 O 36.4423 -5.19494 1.6967 0
M  V30 402 H 33.5363 -0.796443 0.222726 0
M  V30 403 H 36.0823 -1.26831 1.12748 0
M  V30 404 H 34.8543 -3.13466 2.34211 0
M  V30 405 H 34.4773 -3.89381 0.804261 0
M  V30 406 N 35.4744 -0.807222 -1.35358 0
M  V30 407 C 36.7234 -0.384376 -1.98004 0
M  V30 408 C 37.0364 1.0543 -1.64754 0
M  V30 409 O 38.2424 1.58029 -2.20769 0
M  V30 410 C 36.6984 -0.636326 -3.5423 0
M  V30 411 C 36.3064 -2.08759 -3.96388 0
M  V30 412 C 38.0504 -0.278869 -4.23583 0
M  V30 413 C 35.9574 -2.28525 -5.45463 0
M  V30 414 H 34.8874 -0.139986 -0.740891 0
M  V30 415 H 37.5384 -0.991369 -1.54415 0
M  V30 416 H 35.9204 0.0406256 -3.95979 0
M  V30 417 H 37.0944 -2.8024 -3.6579 0
M  V30 418 H 35.4094 -2.40497 -3.39926 0
M  V30 419 H 38.0064 -0.404599 -5.33167 0
M  V30 420 H 38.3494 0.775012 -4.09022 0
M  V30 421 H 38.8824 -0.909764 -3.87257 0
M  V30 422 H 35.6214 -3.32361 -5.64992 0
M  V30 423 H 35.1414 -1.61569 -5.77629 0
M  V30 424 H 36.8204 -2.10109 -6.11934 0
M  V30 425 N 36.9525 1.47285 -0.560781 0
M  V30 426 C 38.1775 2.07359 -0.0410566 0
M  V30 427 C 38.6025 1.41017 1.24483 0
M  V30 428 O 37.9605 0.486368 1.74654 0
M  V30 429 C 38.0085 3.6035 0.134123 0
M  V30 430 O 37.1125 3.94681 1.19587 0
M  V30 431 H 36.4535 0.661887 -0.0529291 0
M  V30 432 H 38.9835 1.89252 -0.777482 0
M  V30 433 H 38.9935 4.0652 0.347207 0
M  V30 434 H 37.6685 4.08034 -0.805047 0
M  V30 435 H 36.2455 3.60251 0.962987 0
M  V30 436 N 38.4306 0.297415 1.54768 0
M  V30 437 C 39.3806 -0.595275 2.20092 0
M  V30 438 C 40.3646 -1.10163 1.17273 0
M  V30 439 O 41.5566 -1.043 1.43006 0
M  V30 440 C 38.6856 -1.7684 2.94249 0
M  V30 441 C 37.7716 -1.27818 4.0438 0
M  V30 442 N 38.1626 -0.505695 5.03266 0
M  V30 443 C 36.4606 -1.55923 4.17857 0
M  V30 444 C 37.1616 -0.245094 5.81183 0
M  V30 445 N 36.1376 -0.823881 5.3732 0
M  V30 446 H 39.9396 0.00250837 2.939 0
M  V30 447 H 37.4536 0.102007 1.62079 0
M  V30 448 H 39.4506 -2.41944 3.39513 0
M  V30 449 H 38.1106 -2.36992 2.21957 0
M  V30 450 H 39.1216 -0.150928 5.1768 0
M  V30 451 H 35.7986 -2.16849 3.56767 0
M  V30 452 H 37.1886 0.375084 6.70852 0
M  V30 453 N 39.9087 -1.5758 0.0250728 0
M  V30 454 C 41.1367 -1.9593 -0.664747 0
M  V30 455 C 41.5517 -0.901352 -1.65895 0
M  V30 456 O 40.9087 0.117255 -1.82123 0
M  V30 457 C 40.9597 -3.34342 -1.37468 0
M  V30 458 O 40.6807 -4.36079 -0.420324 0
M  V30 459 C 42.1817 -3.873 -2.1567 0
M  V30 460 H 39.4017 -0.645405 -0.183557 0
M  V30 461 H 41.9457 -2.04329 0.0836372 0
M  V30 462 H 40.1007 -3.27175 -2.0745 0
M  V30 463 H 40.5147 -5.16297 -0.923991 0
M  V30 464 H 41.9887 -4.86504 -2.60803 0
M  V30 465 H 42.4657 -3.21331 -2.99405 0
M  V30 466 H 43.0717 -3.97723 -1.50654 0
M  V30 467 N 41.3868 0.248026 -1.55636 0
M  V30 468 C 42.3188 1.32993 -1.8667 0
M  V30 469 C 43.3318 1.44345 -0.752877 0
M  V30 470 O 44.5208 1.45715 -1.03098 0
M  V30 471 C 41.6208 2.70863 -2.03682 0
M  V30 472 C 40.7938 2.81792 -3.34532 0
M  V30 473 C 39.8528 4.005 -3.41301 0
M  V30 474 O 38.8788 3.9008 -4.14519 0
M  V30 475 N 40.0808 5.13618 -2.70512 0
M  V30 476 H 42.8458 1.06707 -2.8006 0
M  V30 477 H 40.4068 0.438129 -1.55859 0
M  V30 478 H 42.3988 3.48612 -2.05553 0
M  V30 479 H 40.9688 2.89862 -1.17041 0
M  V30 480 H 40.1888 1.90729 -3.44987 0
M  V30 481 H 41.4768 2.86043 -4.20781 0
M  V30 482 H 40.8748 5.24975 -2.10755 0
M  V30 483 H 39.4318 5.89505 -2.78077 0
M  V30 484 N 42.8649 1.48995 0.513639 0
M  V30 485 C 44.0899 1.61792 1.29762 0
M  V30 486 C 44.5149 0.284475 1.85936 0
M  V30 487 O 43.8729 -0.746185 1.65232 0
M  V30 488 C 43.9209 2.67993 2.41272 0
M  V30 489 O 43.0249 2.26287 3.44772 0
M  V30 490 H 42.3659 0.541963 0.38363 0
M  V30 491 H 44.8959 1.95097 0.616307 0
M  V30 492 H 44.9059 2.89772 2.87221 0
M  V30 493 H 43.5809 3.64791 1.9975 0
M  V30 494 H 42.1579 2.14788 3.04829 0
M  V30 495 N 44.343 -0.763751 1.37857 0
M  V30 496 C 45.589 -1.52483 1.33704 0
M  V30 497 C 45.922 -1.94051 -0.0759612 0
M  V30 498 O 45.197 -1.64675 -1.03501 0
M  V30 499 C 45.48 -2.78441 2.28348 0
M  V30 500 C 45.333 -2.43075 3.78463 0
M  V30 501 C 46.652 -3.80415 2.21298 0
M  V30 502 H 43.771 -0.553169 0.487005 0
M  V30 503 H 46.413 -0.875562 1.68624 0
M  V30 504 H 44.563 -3.33842 1.987 0
M  V30 505 H 46.235 -1.93527 4.18742 0
M  V30 506 H 44.478 -1.75666 3.96641 0
M  V30 507 H 45.149 -3.33149 4.40132 0
M  V30 508 H 47.625 -3.34527 2.47449 0
M  V30 509 H 46.501 -4.66257 2.89647 0
M  V30 510 H 46.762 -4.25262 1.20849 0
M  V30 511 N 45.8211 -1.22559 -0.990812 0
M  V30 512 C 47.0461 -1.07862 -1.77145 0
M  V30 513 C 47.4711 0.366447 -1.84496 0
M  V30 514 O 46.8291 1.26478 -1.29896 0
M  V30 515 C 46.8771 -1.69686 -3.18181 0
M  V30 516 O 45.9811 -0.951946 -4.01263 0
M  V30 517 H 45.3221 -0.378712 -0.545411 0
M  V30 518 H 47.8521 -1.62399 -1.2445 0
M  V30 519 H 47.8621 -1.74496 -3.68802 0
M  V30 520 H 46.5371 -2.74841 -3.12146 0
M  V30 521 H 45.1141 -0.980011 -3.59792 0
M  V30 522 N 47.2992 1.18797 -1.03562 0
M  V30 523 C 48.5242 1.9314 -0.755764 0
M  V30 524 C 48.9492 1.7537 0.68022 0
M  V30 525 O 48.3072 1.06046 1.47051 0
M  V30 526 C 48.3552 3.42747 -1.12058 0
M  V30 527 O 47.4592 4.11683 -0.243124 0
M  V30 528 H 46.8002 0.602724 -0.278604 0
M  V30 529 H 49.3302 1.50678 -1.3841 0
M  V30 530 H 49.3402 3.93437 -1.08035 0
M  V30 531 H 48.0152 3.55002 -2.16672 0
M  V30 532 H 46.5922 3.71323 -0.342539 0
M  V30 533 N 48.7773 0.814389 1.34928 0
M  V30 534 C 49.7243 0.22822 2.29669 0
M  V30 535 C 50.6943 -0.642164 1.53184 0
M  V30 536 O 51.8793 -0.585605 1.81591 0
M  V30 537 C 49.0193 -0.61089 3.3965 0
M  V30 538 C 48.1323 0.280792 4.31086 0
M  V30 539 C 47.2673 -0.567067 5.28165 0
M  V30 540 C 46.3063 0.324531 6.11239 0
M  V30 541 N 45.4433 -0.483756 7.00431 0
M  V30 542 H 50.2833 1.04153 2.79206 0
M  V30 543 H 47.8203 0.525133 1.37407 0
M  V30 544 H 49.7783 -1.11263 4.0209 0
M  V30 545 H 48.4083 -1.38939 2.91369 0
M  V30 546 H 47.4603 0.900688 3.69583 0
M  V30 547 H 48.7723 0.966723 4.89342 0
M  V30 548 H 47.9263 -1.13363 5.96015 0
M  V30 549 H 46.6653 -1.28654 4.70425 0
M  V30 550 H 45.6703 0.903298 5.42329 0
M  V30 551 H 46.8953 1.04198 6.71059 0
M  V30 552 H 44.8413 -1.18706 6.45171 0
M  V30 553 H 44.7583 0.143965 7.55863 0
M  V30 554 H 46.0263 -1.03334 7.7262 0
M  V30 555 N 50.2554 -1.46986 0.568584 0
M  V30 556 C 51.1874 -2.28233 -0.210337 0
M  V30 557 C 52.2004 -1.37682 -0.868767 0
M  V30 558 O 53.3894 -1.62406 -0.740705 0
M  V30 559 C 50.4894 -3.12293 -1.3163 0
M  V30 560 C 49.6624 -4.30878 -0.7525 0
M  V30 561 C 48.7214 -4.96445 -1.74439 0
M  V30 562 O 47.7474 -5.54482 -1.286 0
M  V30 563 N 48.9494 -4.92171 -3.07812 0
M  V30 564 H 51.7144 -2.95723 0.486648 0
M  V30 565 H 49.2754 -1.56742 0.405409 0
M  V30 566 H 51.2674 -3.53022 -1.97883 0
M  V30 567 H 49.8374 -2.46971 -1.91636 0
M  V30 568 H 49.0574 -3.94104 0.0871128 0
M  V30 569 H 50.3454 -5.07558 -0.35536 0
M  V30 570 H 49.7434 -4.46239 -3.47688 0
M  V30 571 H 48.3004 -5.36884 -3.69592 0
M  V30 572 N 51.7335 -0.305618 -1.54608 0
M  V30 573 C 52.6805 0.568421 -2.23691 0
M  V30 574 C 53.6505 1.12592 -1.22116 0
M  V30 575 O 54.8355 1.16959 -1.50749 0
M  V30 576 C 51.9755 1.7322 -2.98477 0
M  V30 577 C 51.0885 1.20566 -4.14835 0
M  V30 578 C 50.2235 2.33368 -4.77193 0
M  V30 579 C 49.2625 1.7787 -5.85686 0
M  V30 580 N 48.3995 2.84263 -6.4198 0
M  V30 581 H 53.2395 -0.0272867 -2.97988 0
M  V30 582 H 50.7765 -0.0252363 -1.47078 0
M  V30 583 H 52.7345 2.41675 -3.40072 0
M  V30 584 H 51.3645 2.29947 -2.26548 0
M  V30 585 H 50.4165 0.413223 -3.78149 0
M  V30 586 H 51.7285 0.759417 -4.92985 0
M  V30 587 H 50.8825 3.09761 -5.21664 0
M  V30 588 H 49.6215 2.8132 -3.98385 0
M  V30 589 H 48.6265 0.99968 -5.40635 0
M  V30 590 H 49.8515 1.30816 -6.66381 0
M  V30 591 H 47.7975 3.31541 -5.66053 0
M  V30 592 H 47.7145 2.44149 -7.15491 0
M  V30 593 H 48.9825 3.6054 -6.91109 0
M  V30 594 N 53.2116 1.57565 -0.0334293 0
M  V30 595 C 54.4576 1.92262 0.645226 0
M  V30 596 C 54.7906 0.910543 1.71531 0
M  V30 597 O 54.0656 -0.066099 1.94388 0
M  V30 598 C 54.3486 3.37422 1.2577 0
M  V30 599 C 54.2016 4.49369 0.196891 0
M  V30 600 C 55.5206 3.82628 2.17449 0
M  V30 601 H 52.6396 0.699171 0.233085 0
M  V30 602 H 55.2816 1.89779 -0.0915694 0
M  V30 603 H 53.4316 3.39669 1.88566 0
M  V30 604 H 55.1036 4.59254 -0.433962 0
M  V30 605 H 53.3466 4.31168 -0.477137 0
M  V30 606 H 54.0176 5.47978 0.665124 0
M  V30 607 H 56.4936 3.82145 1.64634 0
M  V30 608 H 55.3696 4.84883 2.57254 0
M  V30 609 H 55.6306 3.18376 3.0674 0
M  V30 610 N 54.6897 -0.239769 1.55765 0
M  V30 611 C 55.9177 -0.98417 1.81994 0
M  V30 612 C 56.3327 -1.7867 0.610124 0
M  V30 613 O 55.6897 -1.77571 -0.421271 0
M  V30 614 C 55.7407 -1.91635 3.06526 0
M  V30 615 O 55.4617 -1.14629 4.22838 0
M  V30 616 C 56.9627 -2.77616 3.45607 0
M  V30 617 H 54.1827 -0.28928 0.605441 0
M  V30 618 H 56.7267 -0.260499 2.02834 0
M  V30 619 H 54.8817 -2.5942 2.87715 0
M  V30 620 H 55.2957 -1.77745 4.93464 0
M  V30 621 H 56.7697 -3.38759 4.35828 0
M  V30 622 H 57.2467 -3.4909 2.6652 0
M  V30 623 H 57.8527 -2.15271 3.66795 0
M  V30 624 N 56.1678 -1.49265 -0.50573 0
M  V30 625 C 57.4158 -1.582 -1.25766 0
M  V30 626 C 57.7368 -0.268482 -1.93143 0
M  V30 627 O 57.0068 0.711833 -1.8251 0
M  V30 628 H 55.5868 -0.582873 -0.467191 0
M  V30 629 H 58.2488 -1.85865 -0.586525 0
M  V30 630 H 57.3448 -2.37563 -2.02412 0
M  V30 631 N 57.6459 0.756429 -1.3826 0
M  V30 632 C 58.5759 1.88374 -1.37976 0
M  V30 633 C 59.5569 1.68311 -0.246082 0
M  V30 634 O 60.7419 1.88944 -0.44874 0
M  V30 635 C 57.8719 3.25864 -1.20125 0
M  V30 636 C 56.8259 3.60523 -2.30666 0
M  V30 637 C 56.1519 4.9672 -1.97923 0
M  V30 638 C 57.4519 3.65692 -3.72916 0
M  V30 639 H 59.1459 1.88869 -2.32312 0
M  V30 640 H 56.6919 0.907272 -1.11824 0
M  V30 641 H 58.6449 4.0438 -1.18552 0
M  V30 642 H 57.3689 3.25841 -0.222498 0
M  V30 643 H 56.0279 2.84324 -2.3142 0
M  V30 644 H 55.6759 4.93253 -0.985393 0
M  V30 645 H 55.3759 5.20878 -2.71955 0
M  V30 646 H 56.8999 5.77618 -1.97964 0
M  V30 647 H 58.3139 4.34328 -3.74208 0
M  V30 648 H 56.7109 4.01358 -4.4613 0
M  V30 649 H 57.7809 2.65987 -4.05436 0
M  V30 650 N 59.124 1.23083 0.984299 0
M  V30 651 C 60.401 0.9689 1.69917 0
M  V30 652 C 60.781 -0.513604 2.04757 0
M  V30 653 O 60.129 -1.48383 1.73767 0
M  V30 654 C 60.339 1.87518 2.94343 0
M  V30 655 C 61.687 2.13636 3.6694 0
M  V30 656 O 62.711 1.85036 3.04368 0
M  V30 657 O 61.57 2.62119 4.79537 0
M  V30 658 H 58.664 0.365095 0.742048 0
M  V30 659 H 61.21 1.34107 1.03987 0
M  V30 660 H 59.982 2.87756 2.65164 0
M  V30 661 H 59.605 1.50514 3.6801 0
M  V30 662 N 60.6021 -1.18246 1.0419 0
M  V30 663 C 61.8491 -1.88257 0.746017 0
M  V30 664 C 62.1771 -1.80429 -0.726331 0
M  V30 665 O 61.4321 -1.2 -1.54591 0
M  V30 666 C 61.7311 -3.38082 1.15911 0
M  V30 667 C 61.3971 -3.66114 2.63195 0
M  V30 668 C 60.0591 -3.73474 3.03432 0
M  V30 669 C 62.4111 -3.78398 3.5842 0
M  V30 670 C 59.7391 -3.90599 4.37778 0
M  V30 671 C 62.0911 -3.97039 4.92487 0
M  V30 672 C 60.7551 -4.02635 5.32392 0
M  V30 673 H 60.0251 -0.688883 0.272987 0
M  V30 674 H 62.6721 -1.3995 1.30715 0
M  V30 675 H 60.9771 -3.88377 0.516806 0
M  V30 676 H 62.6741 -3.90596 0.907516 0
M  V30 677 H 59.2641 -3.61003 2.3103 0
M  V30 678 H 63.4481 -3.72042 3.28479 0
M  V30 679 H 58.7041 -3.93175 4.68213 0
M  V30 680 H 62.8781 -4.05486 5.66175 0
M  V30 681 H 60.5051 -4.15657 6.36501 0
M  V30 682 N 62.0802 -0.821533 -1.34494 0
M  V30 683 C 63.3292 -0.405355 -1.97585 0
M  V30 684 C 63.6422 1.03677 -1.65863 0
M  V30 685 O 64.8482 1.55679 -2.22433 0
M  V30 686 C 63.3042 -0.673861 -3.53535 0
M  V30 687 C 62.9122 -2.12951 -3.94152 0
M  V30 688 C 64.6562 -0.32378 -4.23263 0
M  V30 689 C 62.5632 -2.34298 -5.43009 0
M  V30 690 H 61.4932 -0.147836 -0.739365 0
M  V30 691 H 64.1442 -1.00769 -1.53355 0
M  V30 692 H 62.5262 -0.00137554 -3.96 0
M  V30 693 H 63.7002 -2.84104 -3.62797 0
M  V30 694 H 62.0152 -2.44089 -3.37356 0
M  V30 695 H 64.6122 -0.461126 -5.32708 0
M  V30 696 H 64.9552 0.731586 -4.09821 0
M  V30 697 H 65.4882 -0.950786 -3.8627 0
M  V30 698 H 62.2272 -3.38335 -5.61435 0
M  V30 699 H 61.7472 -1.67687 -5.75883 0
M  V30 700 H 63.4262 -2.16588 -6.09671 0
M  V30 701 N 63.5583 1.46682 -0.576371 0
M  V30 702 C 64.9693 1.86112 -0.148091 0
M  V30 703 C 65.3203 1.48073 1.2872 0
M  V30 704 O 64.4453 0.892656 1.97131 0
M  V30 705 C 65.0403 3.37786 -0.261982 0
M  V30 706 C 63.5993 3.76235 0.111384 0
M  V30 707 C 62.7463 2.70713 -0.60083 0
M  V30 708 H 65.6973 1.37927 -0.78497 0
M  V30 709 H 65.7183 3.77007 0.514364 0
M  V30 710 H 65.2303 3.6544 -1.30671 0
M  V30 711 H 63.3313 3.54198 1.15649 0
M  V30 712 H 63.4443 4.78391 -0.26052 0
M  V30 713 H 61.8083 2.54666 -0.0417783 0
M  V30 714 H 62.5913 3.01208 -1.64708 0
M  V30 715 N 65.0364 0.313813 1.54444 0
M  V30 716 C 66.2844 -0.291099 1.99993 0
M  V30 717 C 66.6054 -1.53418 1.20366 0
M  V30 718 O 65.8754 -1.93544 0.302927 0
M  V30 719 H 64.4554 -0.110552 0.738774 0
M  V30 720 H 67.1174 0.428106 1.9014 0
M  V30 721 H 66.2134 -0.554268 3.07139 0
M  V30 722 N 66.5145 -1.57545 0.0417849 0
M  V30 723 C 67.4445 -2.14009 -0.933929 0
M  V30 724 C 68.4255 -1.05938 -1.33083 0
M  V30 725 O 69.6105 -1.33833 -1.40721 0
M  V30 726 C 66.7405 -2.67747 -2.21199 0
M  V30 727 C 65.6945 -3.80718 -1.95544 0
M  V30 728 C 65.0205 -4.20935 -3.29724 0
M  V30 729 C 66.3205 -5.06258 -1.28452 0
M  V30 730 H 68.0145 -2.95788 -0.463645 0
M  V30 731 H 65.5605 -1.42285 -0.221573 0
M  V30 732 H 67.5135 -3.05886 -2.89848 0
M  V30 733 H 66.2375 -1.83147 -2.70416 0
M  V30 734 H 64.8965 -3.43037 -1.2931 0
M  V30 735 H 64.5445 -3.33298 -3.76724 0
M  V30 736 H 64.2445 -4.9707 -3.13361 0
M  V30 737 H 65.7685 -4.61666 -3.9962 0
M  V30 738 H 67.1825 -5.41903 -1.8712 0
M  V30 739 H 65.5795 -5.87475 -1.22445 0
M  V30 740 H 66.6495 -4.84207 -0.259219 0
M  V30 741 N 67.9926 0.231505 -1.5589 0
M  V30 742 C 68.9426 1.29007 -1.87993 0
M  V30 743 C 69.9266 1.42764 -0.742102 0
M  V30 744 O 71.1186 1.45747 -1.00433 0
M  V30 745 C 68.2476 2.6425 -2.1915 0
M  V30 746 C 67.3336 2.54435 -3.39299 0
M  V30 747 N 67.7246 2.14262 -4.58176 0
M  V30 748 C 66.0226 2.85416 -3.42715 0
M  V30 749 C 66.7236 2.15455 -5.40328 0
M  V30 750 N 65.6996 2.55558 -4.79783 0
M  V30 751 H 69.5016 0.970213 -2.77424 0
M  V30 752 H 67.0156 0.440097 -1.56323 0
M  V30 753 H 69.0126 3.40665 -2.40319 0
M  V30 754 H 67.6726 2.9709 -1.31025 0
M  V30 755 H 68.6836 1.85554 -4.83518 0
M  V30 756 H 65.3606 3.22693 -2.64906 0
M  V30 757 H 66.7506 1.86605 -6.45467 0
M  V30 758 N 69.4707 1.49531 0.497807 0
M  V30 759 C 70.8817 1.52344 1.07927 0
M  V30 760 C 71.2327 0.311469 1.93712 0
M  V30 761 O 70.3577 -0.578405 2.08527 0
M  V30 762 C 70.9527 2.76062 1.96405 0
M  V30 763 C 69.5117 2.81643 2.49709 0
M  V30 764 C 68.6587 2.46299 1.27404 0
M  V30 765 H 71.6097 1.56182 0.281576 0
M  V30 766 H 71.6307 2.56405 2.81135 0
M  V30 767 H 71.1427 3.64254 1.33943 0
M  V30 768 H 69.2437 1.97739 3.15801 0
M  V30 769 H 69.3567 3.83891 2.86643 0
M  V30 770 H 67.7207 1.98148 1.60029 0
M  V30 771 H 68.5037 3.36769 0.66645 0
M  V30 772 N 70.9488 -0.749086 1.3866 0
M  V30 773 C 72.1978 -1.50371 1.3443 0
M  V30 774 C 72.5108 -1.95503 -0.0616397 0
M  V30 775 O 73.7168 -2.70554 -0.226489 0
M  V30 776 C 72.1728 -2.71644 2.36088 0
M  V30 777 C 71.7808 -2.3352 3.82325 0
M  V30 778 C 73.5248 -3.49518 2.40909 0
M  V30 779 C 71.4318 -3.51431 4.75658 0
M  V30 780 H 70.3618 -0.564628 0.499712 0
M  V30 781 H 73.0128 -0.818449 1.64237 0
M  V30 782 H 71.3948 -3.42175 1.9933 0
M  V30 783 H 72.5688 -1.70627 4.28046 0
M  V30 784 H 70.8838 -1.6877 3.80665 0
M  V30 785 H 73.4808 -4.37197 3.07836 0
M  V30 786 H 73.8238 -3.90992 1.42937 0
M  V30 787 H 74.3568 -2.86005 2.76489 0
M  V30 788 H 71.0958 -3.15019 5.74842 0
M  V30 789 H 70.6158 -4.13352 4.34627 0
M  V30 790 H 72.2948 -4.17953 4.93887 0
M  V30 791 N 72.4269 -1.23603 -0.977757 0
M  V30 792 C 73.3569 -1.04401 -2.0886 0
M  V30 793 C 74.3379 0.0399052 -1.70053 0
M  V30 794 O 75.5229 -0.125246 -1.93796 0
M  V30 795 C 72.6529 -0.637269 -3.41403 0
M  V30 796 C 71.6069 -1.66883 -3.94124 0
M  V30 797 C 70.9329 -1.11745 -5.22893 0
M  V30 798 C 72.2329 -3.06247 -4.23096 0
M  V30 799 H 73.9269 -1.97316 -2.25182 0
M  V30 800 H 71.4729 -0.950096 -1.08209 0
M  V30 801 H 73.4259 -0.48998 -4.18542 0
M  V30 802 H 72.1499 0.327557 -3.24953 0
M  V30 803 H 70.8089 -1.80416 -3.19133 0
M  V30 804 H 70.4569 -0.143527 -5.02795 0
M  V30 805 H 70.1569 -1.80672 -5.59134 0
M  V30 806 H 71.6809 -0.982067 -6.02651 0
M  V30 807 H 73.0949 -2.96001 -4.90975 0
M  V30 808 H 71.4919 -3.72436 -4.70544 0
M  V30 809 H 72.5619 -3.55041 -3.30263 0
M  V30 810 N 73.905 1.17692 -1.04816 0
M  V30 811 C 75.133 1.91786 -0.776254 0
M  V30 812 C 75.548 1.76604 0.667577 0
M  V30 813 O 74.905 1.10067 1.45573 0
M  V30 814 C 74.956 3.42967 -1.14263 0
M  V30 815 O 74.677 3.57678 -2.52978 0
M  V30 816 C 76.178 4.34144 -0.896311 0
M  V30 817 H 73.398 0.608624 -0.282519 0
M  V30 818 H 75.942 1.49268 -1.39783 0
M  V30 819 H 74.097 3.83245 -0.565874 0
M  V30 820 H 74.511 4.51319 -2.67229 0
M  V30 821 H 75.985 5.38744 -1.20244 0
M  V30 822 H 76.462 4.38876 0.168636 0
M  V30 823 H 77.068 3.99574 -1.45672 0
M  V30 824 N 75.3831 0.828654 1.34056 0
M  V30 825 C 76.3131 0.269443 2.3194 0
M  V30 826 C 77.2941 -0.617247 1.58506 0
M  V30 827 O 78.4791 -0.542931 1.86456 0
M  V30 828 C 75.6091 -0.564793 3.42677 0
M  V30 829 C 74.5631 0.225241 4.27407 0
M  V30 830 C 73.8891 -0.7321 5.29664 0
M  V30 831 C 75.1891 1.43663 5.02154 0
M  V30 832 H 76.8831 1.08728 2.7896 0
M  V30 833 H 74.4291 0.524283 1.34117 0
M  V30 834 H 76.3821 -0.966233 4.10173 0
M  V30 835 H 75.1061 -1.41574 2.9432 0
M  V30 836 H 73.7651 0.608117 3.61521 0
M  V30 837 H 73.4131 -1.57916 4.77568 0
M  V30 838 H 73.1131 -0.20767 5.87233 0
M  V30 839 H 74.6371 -1.13128 6.00029 0
M  V30 840 H 76.0511 1.1089 5.62473 0
M  V30 841 H 74.4481 1.89711 5.69324 0
M  V30 842 H 75.5181 2.21181 4.31517 0
M  V30 843 N 76.8612 -1.46375 0.584142 0
M  V30 844 C 78.0862 -2.07268 0.0740405 0
M  V30 845 C 78.5112 -1.42979 -1.22223 0
M  V30 846 O 77.8692 -0.514092 -1.73859 0
M  V30 847 C 77.9172 -3.60518 -0.0767769 0
M  V30 848 O 77.0212 -3.96533 -1.13292 0
M  V30 849 H 76.3622 -0.660961 0.0634524 0
M  V30 850 H 78.8922 -1.87991 0.807492 0
M  V30 851 H 78.9022 -4.07021 -0.282489 0
M  V30 852 H 77.5772 -4.06702 0.86986 0
M  V30 853 H 76.1542 -3.61738 -0.905553 0
M  V30 854 N 78.3393 -0.321999 -1.54275 0
M  V30 855 C 79.2863 0.544664 -2.24281 0
M  V30 856 C 80.2563 1.1129 -1.23303 0
M  V30 857 O 81.4413 1.15354 -1.51981 0
M  V30 858 C 78.5813 1.70045 -3.00298 0
M  V30 859 C 77.6943 1.16159 -4.1609 0
M  V30 860 C 76.8293 2.28293 -4.79641 0
M  V30 861 C 75.8683 1.71648 -5.8754 0
M  V30 862 N 75.0053 2.77438 -6.44959 0
M  V30 863 H 79.8453 -0.0588907 -2.97942 0
M  V30 864 H 77.3823 -0.0408345 -1.47043 0
M  V30 865 H 79.3403 2.38054 -3.42616 0
M  V30 866 H 77.9703 2.27531 -2.28975 0
M  V30 867 H 77.0223 0.373092 -3.78566 0
M  V30 868 H 78.3343 0.707087 -4.93763 0
M  V30 869 H 77.4883 3.0421 -5.2492 0
M  V30 870 H 76.2273 2.77079 -4.01346 0
M  V30 871 H 75.2323 0.942282 -5.41665 0
M  V30 872 H 76.4573 1.23741 -6.67731 0
M  V30 873 H 74.4033 3.25519 -5.69538 0
M  V30 874 H 74.3203 2.36547 -7.1804 0
M  V30 875 H 75.5883 3.53189 -6.94894 0
M  V30 876 N 79.8174 1.5752 -0.0501392 0
M  V30 877 C 80.7504 2.07026 0.959962 0
M  V30 878 C 81.7284 0.970539 1.30458 0
M  V30 879 O 82.9124 1.2424 1.41763 0
M  V30 880 C 80.0394 2.5099 2.27424 0
M  V30 881 C 79.0854 3.72188 2.08275 0
M  V30 882 S 79.9184 5.17888 1.36207 0
M  V30 883 C 81.0744 5.65165 2.6896 0
M  V30 884 H 81.3074 2.9238 0.538631 0
M  V30 885 H 78.8404 1.53547 0.162099 0
M  V30 886 H 80.7984 2.76982 3.02971 0
M  V30 887 H 79.4594 1.65944 2.66686 0
M  V30 888 H 78.6524 4.00866 3.05487 0
M  V30 889 H 78.2544 3.46457 1.40868 0
M  V30 890 H 80.5464 5.70687 3.65133 0
M  V30 891 H 81.4894 6.64394 2.4492 0
M  V30 892 H 81.8974 4.9289 2.75172 0
M  V30 893 N 81.2955 -0.223234 1.56011 0
M  V30 894 C 82.5725 -0.972108 1.69733 0
M  V30 895 C 82.9525 -2.02485 0.59691 0
M  V30 896 O 82.3005 -2.25037 -0.396324 0
M  V30 897 C 82.5105 -1.58407 3.10979 0
M  V30 898 C 83.8585 -2.07696 3.70334 0
M  V30 899 O 84.8825 -1.68304 3.1393 0
M  V30 900 O 83.7415 -2.80096 4.69264 0
M  V30 901 H 80.8355 -0.453993 0.691245 0
M  V30 902 H 83.3815 -0.215149 1.68331 0
M  V30 903 H 82.1535 -0.823831 3.82529 0
M  V30 904 H 81.7765 -2.40661 3.16493 0
M  V30 905 N 82.7736 -1.49793 -0.48987 0
M  V30 906 C 83.7056 -1.63413 -1.60713 0
M  V30 907 C 84.7186 -0.516329 -1.54395 0
M  V30 908 O 85.9076 -0.788812 -1.60125 0
M  V30 909 C 83.0076 -1.58516 -2.99543 0
M  V30 910 C 82.1806 -2.86016 -3.30928 0
M  V30 911 C 81.2396 -2.74018 -4.49222 0
M  V30 912 O 80.2656 -3.47964 -4.50455 0
M  V30 913 N 81.4676 -1.86309 -5.4979 0
M  V30 914 H 84.2326 -2.59777 -1.49452 0
M  V30 915 H 81.7936 -1.47022 -0.677955 0
M  V30 916 H 83.7856 -1.48128 -3.76617 0
M  V30 917 H 82.3556 -0.69965 -3.0467 0
M  V30 918 H 81.5756 -3.10672 -2.42645 0
M  V30 919 H 82.8636 -3.70521 -3.487 0
M  V30 920 H 82.2616 -1.2551 -5.51601 0
M  V30 921 H 80.8186 -1.81837 -6.25922 0
M  V30 922 N 84.2517 0.741722 -1.39055 0
M  V30 923 C 85.4797 1.53098 -1.39171 0
M  V30 924 C 85.8947 1.88794 0.0155099 0
M  V30 925 O 85.2517 1.53626 0.985159 0
M  V30 926 C 85.3027 2.82274 -2.2584 0
M  V30 927 O 85.0237 2.48097 -3.61081 0
M  V30 928 C 86.5247 3.76343 -2.34266 0
M  V30 929 H 83.7447 0.473335 -0.4756 0
M  V30 930 H 86.2887 0.917045 -1.82785 0
M  V30 931 H 84.4437 3.40015 -1.85656 0
M  V30 932 H 84.8577 3.31029 -4.06842 0
M  V30 933 H 86.3317 4.63898 -2.9917 0
M  V30 934 H 86.8087 4.17619 -1.35982 0
M  V30 935 H 87.4147 3.24523 -2.74891 0
M  V30 936 N 85.7298 1.2412 0.971189 0
M  V30 937 C 86.6598 1.05508 2.08304 0
M  V30 938 C 87.6408 -0.0308864 1.70072 0
M  V30 939 O 88.8258 0.135521 1.93727 0
M  V30 940 C 85.9558 0.655365 3.4106 0
M  V30 941 C 84.9098 1.68971 3.93234 0
M  V30 942 C 84.2358 1.14516 5.22293 0
M  V30 943 C 85.5358 3.08487 4.21465 0
M  V30 944 H 87.2298 1.98507 2.24132 0
M  V30 945 H 84.7758 0.955821 1.07704 0
M  V30 946 H 86.7288 0.51217 4.18276 0
M  V30 947 H 85.4528 -0.31032 3.25122 0
M  V30 948 H 84.1118 1.82106 3.18171 0
M  V30 949 H 83.7598 0.170189 5.02712 0
M  V30 950 H 83.4598 1.83635 5.58168 0
M  V30 951 H 84.9838 1.01401 6.02121 0
M  V30 952 H 86.3978 2.98601 4.89398 0
M  V30 953 H 84.7948 3.74926 4.68562 0
M  V30 954 H 85.8648 3.56787 3.28376 0
M  V30 955 N 87.2079 -1.17134 1.05439 0
M  V30 956 C 88.1709 -2.19439 0.661764 0
M  V30 957 C 89.1709 -1.58199 -0.288042 0
M  V30 958 O 90.3609 -1.74053 -0.0715803 0
M  V30 959 C 87.4929 -3.40889 -0.0276209 0
M  V30 960 H 88.6859 -2.55688 1.56728 0
M  V30 961 H 86.2389 -1.31259 0.848567 0
M  V30 962 H 86.9739 -3.10187 -0.94629 0
M  V30 963 H 86.7589 -3.86586 0.655238 0
M  V30 964 H 88.2489 -4.16603 -0.288342 0
M  V30 965 N 88.686 -0.835752 -1.33615 0
M  V30 966 C 89.932 -0.430596 -1.98176 0
M  V30 967 C 90.265 1.00684 -1.66061 0
M  V30 968 O 89.54 1.70339 -0.938877 0
M  V30 969 C 89.823 -0.648065 -3.5422 0
M  V30 970 C 89.676 -2.13255 -3.96033 0
M  V30 971 C 90.995 -0.0922113 -4.40003 0
M  V30 972 H 88.114 -0.157924 -0.719881 0
M  V30 973 H 90.756 -1.05069 -1.58305 0
M  V30 974 H 88.906 -0.120237 -3.88314 0
M  V30 975 H 90.578 -2.725 -3.72211 0
M  V30 976 H 88.821 -2.61823 -3.45878 0
M  V30 977 H 89.492 -2.23547 -5.04708 0
M  V30 978 H 91.968 -0.543343 -4.12537 0
M  V30 979 H 90.844 -0.274083 -5.48215 0
M  V30 980 H 91.105 1.00378 -4.30554 0
M  V30 981 N 90.1641 1.46063 -0.591896 0
M  V30 982 C 91.3941 2.06418 -0.0867676 0
M  V30 983 C 91.8021 1.43975 1.22751 0
M  V30 984 O 91.1451 0.542531 1.75506 0
M  V30 985 C 91.2071 3.59213 0.143725 0
M  V30 986 C 90.8711 4.439 -1.08635 0
M  V30 987 C 91.8681 4.79864 -2.00067 0
M  V30 988 C 89.5531 4.84896 -1.31077 0
M  V30 989 C 91.5471 5.55661 -3.12282 0
M  V30 990 C 89.2341 5.6045 -2.43596 0
M  V30 991 C 90.2321 5.95747 -3.34027 0
M  V30 992 O 89.9201 6.69772 -4.4459 0
M  V30 993 H 89.6521 0.673443 -0.0587447 0
M  V30 994 H 92.2061 1.88539 -0.814994 0
M  V30 995 H 90.4361 3.75433 0.926668 0
M  V30 996 H 92.1251 4.01463 0.5985 0
M  V30 997 H 92.8911 4.48763 -1.83947 0
M  V30 998 H 88.7701 4.56867 -0.61594 0
M  V30 999 H 92.3141 5.8313 -3.82891 0
M  V30 1000 H 88.2111 5.90965 -2.59674 0
M  V30 1001 H 88.9791 6.88207 -4.43073 0
M  V30 1002 N 91.6422 0.330177 1.54103 0
M  V30 1003 C 92.5742 -0.566902 2.22079 0
M  V30 1004 C 93.5872 -1.07462 1.22294 0
M  V30 1005 O 94.7762 -0.987065 1.48726 0
M  V30 1006 C 91.8762 -1.79138 2.87685 0
M  V30 1007 C 91.0492 -1.42123 4.13666 0
M  V30 1008 C 90.1082 -2.50394 4.62806 0
M  V30 1009 O 89.1342 -2.14261 5.27334 0
M  V30 1010 N 90.3362 -3.81433 4.37595 0
M  V30 1011 H 93.1012 0.0151844 2.99696 0
M  V30 1012 H 90.6622 0.153681 1.61169 0
M  V30 1013 H 92.6542 -2.50975 3.1748 0
M  V30 1014 H 91.2242 -2.28115 2.13734 0
M  V30 1015 H 90.4442 -0.534201 3.90564 0
M  V30 1016 H 91.7322 -1.14971 4.9564 0
M  V30 1017 H 91.1302 -4.13584 3.8596 0
M  V30 1018 H 89.6872 -4.4948 4.72029 0
M  V30 1019 N 93.1203 -1.57491 0.0584922 0
M  V30 1020 C 94.0523 -2.08916 -0.942694 0
M  V30 1021 C 95.0653 -1.0185 -1.27006 0
M  V30 1022 O 96.2543 -1.29398 -1.22957 0
M  V30 1023 C 93.3543 -2.52341 -2.26224 0
M  V30 1024 C 92.5273 -3.82827 -2.1157 0
M  V30 1025 C 91.5863 -4.12487 -3.26712 0
M  V30 1026 O 90.6123 -4.82295 -3.02292 0
M  V30 1027 N 91.8143 -3.64978 -4.5141 0
M  V30 1028 H 94.5793 -2.95437 -0.503722 0
M  V30 1029 H 92.1403 -1.61397 -0.12757 0
M  V30 1030 H 94.1323 -2.69254 -3.02133 0
M  V30 1031 H 92.7023 -1.7103 -2.61663 0
M  V30 1032 H 91.9223 -3.75425 -1.20208 0
M  V30 1033 H 93.2103 -4.68263 -1.99015 0
M  V30 1034 H 92.6083 -3.08558 -4.7414 0
M  V30 1035 H 91.1653 -3.87115 -5.2439 0
M  V30 1036 N 94.5984 0.214957 -1.56127 0
M  V30 1037 C 95.8474 0.936451 -1.78643 0
M  V30 1038 C 96.1604 1.85237 -0.628229 0
M  V30 1039 O 97.3664 2.613 -0.737186 0
M  V30 1040 C 95.8224 1.7154 -3.16389 0
M  V30 1041 C 95.4304 0.845299 -4.39953 0
M  V30 1042 C 97.1744 2.42772 -3.48227 0
M  V30 1043 C 95.0814 1.62198 -5.68723 0
M  V30 1044 H 94.0114 0.353401 -0.666051 0
M  V30 1045 H 96.6624 0.190169 -1.82512 0
M  V30 1046 H 95.0444 2.50484 -3.06715 0
M  V30 1047 H 96.2184 0.0959353 -4.607 0
M  V30 1048 H 94.5334 0.244789 -4.1568 0
M  V30 1049 H 97.1304 3.01394 -4.41663 0
M  V30 1050 H 97.4734 3.15984 -2.71035 0
M  V30 1051 H 98.0064 1.70813 -3.5926 0
M  V30 1052 H 94.7454 0.933011 -6.48826 0
M  V30 1053 H 94.2654 2.34579 -5.52026 0
M  V30 1054 H 95.9444 2.18095 -6.09133 0
M  V30 1055 N 96.0765 1.50051 0.48192 0
M  V30 1056 C 97.0065 1.71046 1.58951 0
M  V30 1057 C 97.9875 0.559288 1.60642 0
M  V30 1058 O 99.1725 0.797243 1.77081 0
M  V30 1059 C 96.3025 1.79462 2.97339 0
M  V30 1060 C 95.2565 2.94558 3.10515 0
M  V30 1061 C 94.5825 2.88105 4.50444 0
M  V30 1062 C 95.8825 4.35227 2.88747 0
M  V30 1063 H 97.5765 2.6378 1.41635 0
M  V30 1064 H 95.1225 1.26936 0.679942 0
M  V30 1065 H 97.0755 1.92734 3.74742 0
M  V30 1066 H 95.7995 0.833412 3.15788 0
M  V30 1067 H 94.4585 2.80918 2.35543 0
M  V30 1068 H 94.1065 1.89853 4.65795 0
M  V30 1069 H 93.8065 3.65366 4.60197 0
M  V30 1070 H 95.3305 3.03412 5.29881 0
M  V30 1071 H 96.7445 4.49449 3.55905 0
M  V30 1072 H 95.1415 5.13856 3.09955 0
M  V30 1073 H 96.2115 4.48347 1.84696 0
M  V30 1074 N 97.5546 -0.734337 1.39446 0
M  V30 1075 C 98.7826 -1.52358 1.39981 0
M  V30 1076 C 99.1976 -1.88799 -0.0054975 0
M  V30 1077 O 98.5546 -1.54146 -0.976998 0
M  V30 1078 C 98.6056 -2.81072 2.27333 0
M  V30 1079 O 98.3266 -2.46178 3.62392 0
M  V30 1080 C 99.8276 -3.75096 2.36259 0
M  V30 1081 H 97.0476 -0.470806 0.478103 0
M  V30 1082 H 99.5916 -0.907339 1.83269 0
M  V30 1083 H 97.7466 -3.39026 1.87457 0
M  V30 1084 H 98.1606 -3.28866 4.08592 0
M  V30 1085 H 99.6346 -4.62305 3.01626 0
M  V30 1086 H 100.112 -4.16892 1.38194 0
M  V30 1087 H 100.718 -3.23061 2.76608 0
M  V30 1088 N 99.0327 -1.24633 -0.964593 0
M  V30 1089 C 100.258 -1.11596 -1.74818 0
M  V30 1090 C 100.683 0.32723 -1.85232 0
M  V30 1091 O 100.041 1.23695 -1.32549 0
M  V30 1092 C 100.089 -1.76397 -3.1451 0
M  V30 1093 O 99.1927 -1.03685 -3.99153 0
M  V30 1094 H 98.5337 -0.390196 -0.537255 0
M  V30 1095 H 101.064 -1.65002 -1.20977 0
M  V30 1096 H 101.074 -1.8228 -3.65018 0
M  V30 1097 H 99.7487 -2.81401 -3.06246 0
M  V30 1098 H 98.3257 -1.05611 -3.57632 0
M  V30 1099 N 100.511 1.16574 -1.06058 0
M  V30 1100 C 101.444 2.19798 -0.61352 0
M  V30 1101 C 102.422 1.58509 0.362453 0
M  V30 1102 O 103.606 1.86527 0.271994 0
M  V30 1103 C 100.733 3.3855 0.100915 0
M  V30 1104 C 99.7788 4.18317 -0.831438 0
M  V30 1105 S 100.612 4.82375 -2.32539 0
M  V30 1106 C 101.768 6.04508 -1.62238 0
M  V30 1107 H 102.001 2.5738 -1.48805 0
M  V30 1108 H 99.5338 1.27327 -0.873338 0
M  V30 1109 H 101.492 4.07358 0.506898 0
M  V30 1110 H 100.153 2.99338 0.951604 0
M  V30 1111 H 99.3458 5.03232 -0.278071 0
M  V30 1112 H 98.9478 3.5499 -1.17719 0
M  V30 1113 H 101.24 6.71133 -0.926622 0
M  V30 1114 H 102.183 6.64389 -2.44934 0
M  V30 1115 H 102.591 5.53559 -1.106 0
M  V30 1116 N 101.989 0.842826 1.3317 0
M  V30 1117 C 103.4 0.496651 1.79973 0
M  V30 1118 C 103.751 -0.984641 1.69703 0
M  V30 1119 O 102.876 -1.76743 1.24863 0
M  V30 1120 C 103.471 0.894727 3.26772 0
M  V30 1121 C 102.03 0.600629 3.71577 0
M  V30 1122 C 101.177 1.10091 2.5451 0
M  V30 1123 H 104.128 1.03116 1.20635 0
M  V30 1124 H 104.149 0.206347 3.7994 0
M  V30 1125 H 103.661 1.97287 3.34215 0
M  V30 1126 H 101.762 -0.467284 3.69658 0
M  V30 1127 H 101.875 1.15863 4.64879 0
M  V30 1128 H 100.239 0.52162 2.49301 0
M  V30 1129 H 101.022 2.18591 2.64713 0
M  V30 1130 N 103.467 -1.45747 0.599634 0
M  V30 1131 C 104.692 -2.07178 0.0960198 0
M  V30 1132 C 105.117 -1.44268 -1.207 0
M  V30 1133 O 104.475 -0.532503 -1.73303 0
M  V30 1134 C 104.523 -3.60579 -0.0385348 0
M  V30 1135 O 103.627 -3.97713 -1.0908 0
M  V30 1136 H 102.968 -0.660251 0.0704593 0
M  V30 1137 H 105.498 -1.87124 0.827385 0
M  V30 1138 H 105.508 -4.07298 -0.239304 0
M  V30 1139 H 104.183 -4.05756 0.912947 0
M  V30 1140 H 102.76 -3.62678 -0.867135 0
M  V30 1141 N 104.945 -0.338344 -1.53925 0
M  V30 1142 C 106.361 0.0137736 -1.59594 0
M  V30 1143 C 106.561 1.49186 -1.35447 0
M  V30 1144 O 105.617 2.24987 -1.14616 0
M  V30 1145 C 106.93 -0.41773 -2.97784 0
M  V30 1146 C 108.478 -0.369633 -3.1081 0
M  V30 1147 C 108.953 -0.776524 -4.51369 0
M  V30 1148 N 110.444 -0.730506 -4.57403 0
M  V30 1149 C 111.179 -1.01736 -5.64303 0
M  V30 1150 N 110.675 -1.3721 -6.79077 0
M  V30 1151 N 112.468 -0.941942 -5.54151 0
M  V30 1152 H 104.619 -1.3012 -1.67876 0
M  V30 1153 H 106.882 -0.530082 -0.78595 0
M  V30 1154 H 106.588 -1.44811 -3.20504 0
M  V30 1155 H 106.462 0.209729 -3.76616 0
M  V30 1156 H 108.849 0.651568 -2.87817 0
M  V30 1157 H 108.93 -1.03223 -2.34049 0
M  V30 1158 H 108.574 -1.79571 -4.75096 0
M  V30 1159 H 108.504 -0.0914649 -5.26521 0
M  V30 1160 H 110.995 -0.468783 -3.74981 0
M  V30 1161 H 111.308 -1.57597 -7.5656 0
M  V30 1162 H 109.653 -1.4105 -6.80536 0
M  V30 1163 H 112.844 -0.664184 -4.63364 0
M  V30 1164 H 113.017 -1.16884 -6.37371 0
M  V30 1165 N 106.423 1.57458 -0.0668435 0
M  V30 1166 C 107.371 2.13639 0.919851 0
M  V30 1167 C 108.365 1.07204 1.31163 0
M  V30 1168 O 109.571 1.25591 1.28945 0
M  V30 1169 H 105.946 0.683048 0.314562 0
M  V30 1170 H 107.917 2.95415 0.421047 0
M  V30 1171 C 106.666 2.70892 2.17975 0
M  V30 1172 H 105.989 3.5246 1.88711 0
M  V30 1173 H 107.429 3.13803 2.85138 0
M  V30 1174 C 105.888 1.65414 2.93496 0
M  V30 1175 O 106.418 1.07619 3.87015 0
M  V30 1176 N 104.624 1.36564 2.56512 0
M  V30 1177 H 104.171 1.83751 1.80536 0
M  V30 1178 H 104.129 0.66223 3.07347 0
M  V30 1179 N 107.901 -0.206675 1.56239 0
M  V30 1180 C 109.147 -0.930218 1.80208 0
M  V30 1181 C 109.48 -1.83387 0.638981 0
M  V30 1182 O 108.755 -1.91119 -0.361066 0
M  V30 1183 C 109.038 -1.75641 3.1436 0
M  V30 1184 C 108.891 -0.878257 4.41142 0
M  V30 1185 C 110.21 -2.73129 3.45092 0
M  V30 1186 H 107.329 -0.336742 0.655571 0
M  V30 1187 H 109.971 -0.198222 1.88963 0
M  V30 1188 H 108.121 -2.38048 3.07027 0
M  V30 1189 H 109.793 -0.269787 4.6051 0
M  V30 1190 H 108.036 -0.184385 4.33408 0
M  V30 1191 H 108.707 -1.49106 5.3148 0
M  V30 1192 H 111.183 -2.20856 3.52649 0
M  V30 1193 H 110.059 -3.28028 4.40101 0
M  V30 1194 H 110.32 -3.51606 2.68003 0
M  V30 1195 N 109.379 -1.50304 -0.473955 0
M  V30 1196 C 110.628 -1.60392 -1.22301 0
M  V30 1197 C 110.941 -0.308411 -1.93153 0
M  V30 1198 O 112.147 -0.288156 -2.69966 0
M  V30 1199 C 110.603 -2.83109 -2.2221 0
M  V30 1200 C 110.211 -4.19524 -1.57173 0
M  V30 1201 C 111.955 -3.0254 -2.97775 0
M  V30 1202 C 109.862 -5.33431 -2.55353 0
M  V30 1203 H 108.792 -0.597286 -0.460179 0
M  V30 1204 H 111.443 -1.76731 -0.493803 0
M  V30 1205 H 109.825 -2.60322 -2.9841 0
M  V30 1206 H 110.999 -4.52554 -0.867824 0
M  V30 1207 H 109.314 -4.05674 -0.939002 0
M  V30 1208 H 111.911 -3.84811 -3.71248 0
M  V30 1209 H 112.254 -2.14154 -3.56992 0
M  V30 1210 H 112.787 -3.25494 -2.28688 0
M  V30 1211 H 109.526 -6.23962 -2.00878 0
M  V30 1212 H 109.046 -5.04823 -3.23904 0
M  V30 1213 H 110.725 -5.63887 -3.17239 0
M  V30 1214 N 110.857 0.726932 -1.39834 0
M  V30 1215 C 111.789 1.85147 -1.35104 0
M  V30 1216 C 112.802 1.60736 -0.258392 0
M  V30 1217 O 113.991 1.70821 -0.517931 0
M  V30 1218 C 111.091 3.21332 -1.07697 0
M  V30 1219 C 110.264 3.73033 -2.28396 0
M  V30 1220 C 109.323 4.87802 -1.97322 0
M  V30 1221 O 108.349 5.01043 -2.70083 0
M  V30 1222 N 109.551 5.72768 -0.944273 0
M  V30 1223 H 112.316 1.89706 -2.32017 0
M  V30 1224 H 109.877 0.908006 -1.3404 0
M  V30 1225 H 111.869 3.95691 -0.849144 0
M  V30 1226 H 110.439 3.11992 -0.194909 0
M  V30 1227 H 109.659 2.89934 -2.6708 0
M  V30 1228 H 110.947 4.0431 -3.08887 0
M  V30 1229 H 110.345 5.64669 -0.341427 0
M  V30 1230 H 108.902 6.4716 -0.776346 0
M  V30 1231 N 112.336 1.25143 0.95797 0
M  V30 1232 C 113.585 1.0909 1.69654 0
M  V30 1233 C 113.898 -0.368548 1.92097 0
M  V30 1234 O 115.104 -0.649455 2.63618 0
M  V30 1235 C 113.56 1.90395 3.05414 0
M  V30 1236 C 113.168 3.4081 2.90779 0
M  V30 1237 C 114.912 1.82901 3.83076 0
M  V30 1238 C 112.819 4.14423 4.21909 0
M  V30 1239 H 111.749 0.404625 0.636235 0
M  V30 1240 H 114.4 1.4931 1.06672 0
M  V30 1241 H 112.782 1.42996 3.69281 0
M  V30 1242 H 113.956 3.95859 2.35865 0
M  V30 1243 H 112.271 3.49361 2.26575 0
M  V30 1244 H 114.868 2.35196 4.80195 0
M  V30 1245 H 115.211 0.796224 4.08615 0
M  V30 1246 H 115.744 2.28033 3.25954 0
M  V30 1247 H 112.483 5.18102 4.01561 0
M  V30 1248 H 112.003 3.64159 4.76601 0
M  V30 1249 H 113.682 4.21956 4.90471 0
M  V30 1250 N 113.814 -1.1601 1.06675 0
M  V30 1251 C 115.039 -1.91068 0.806706 0
M  V30 1252 C 115.464 -1.77112 -0.633485 0
M  V30 1253 O 114.822 -1.09908 -1.44187 0
M  V30 1254 C 114.87 -3.39655 1.21106 0
M  V30 1255 O 113.974 -4.10893 0.352189 0
M  V30 1256 H 113.315 -0.595125 0.294486 0
M  V30 1257 H 115.845 -1.46955 1.42356 0
M  V30 1258 H 115.855 -3.90434 1.18428 0
M  V30 1259 H 114.53 -3.49132 2.26008 0
M  V30 1260 H 113.107 -3.70285 0.440868 0
M  V30 1261 N 115.292 -0.849877 -1.32721 0
M  V30 1262 C 116.24 -0.279745 -2.30912 0
M  V30 1263 C 117.234 0.594278 -1.58634 0
M  V30 1264 O 118.44 0.482613 -1.73409 0
M  V30 1265 H 114.815 -0.0717521 -0.748569 0
M  V30 1266 H 116.786 -1.12222 -2.76494 0
M  V30 1267 C 115.535 0.521108 -3.43773 0
M  V30 1268 H 114.858 -0.142141 -3.99547 0
M  V30 1269 H 116.298 0.885693 -4.14646 0
M  V30 1270 C 114.757 1.70442 -2.90605 0
M  V30 1271 O 115.287 2.8034 -2.87702 0
M  V30 1272 N 113.493 1.52991 -2.47067 0
M  V30 1273 H 113.04 0.635914 -2.49628 0
M  V30 1274 H 112.998 2.32311 -2.11847 0
M  V30 1275 N 116.77 1.45427 -0.607355 0
M  V30 1276 C 118.047 1.9557 -0.0344566 0
M  V30 1277 C 118.427 1.54979 1.43334 0
M  V30 1278 O 117.775 0.812241 2.13576 0
M  V30 1279 C 117.985 3.48226 -0.232321 0
M  V30 1280 C 119.333 4.2445 -0.113001 0
M  V30 1281 O 120.357 3.55829 -0.162431 0
M  V30 1282 O 119.216 5.465 0.00209442 0
M  V30 1283 H 116.31 0.826222 0.0358667 0
M  V30 1284 H 118.856 1.55594 -0.6774 0
M  V30 1285 H 117.628 3.70739 -1.25174 0
M  V30 1286 H 117.251 3.95092 0.445896 0
M  V30 1287 N 118.248 0.346503 1.53744 0
M  V30 1288 C 119.178 -0.501193 2.28058 0
M  V30 1289 C 120.159 -1.10014 1.29734 0
M  V30 1290 O 121.344 -1.12097 1.58581 0
M  V30 1291 C 118.474 -1.65078 3.05559 0
M  V30 1292 C 117.428 -1.18003 4.11411 0
M  V30 1293 C 116.754 -2.41837 4.76884 0
M  V30 1294 C 118.054 -0.278394 5.21558 0
M  V30 1295 H 119.748 0.11875 2.99164 0
M  V30 1296 H 117.294 0.0585531 1.43881 0
M  V30 1297 H 119.247 -2.25028 3.56287 0
M  V30 1298 H 117.971 -2.29767 2.32109 0
M  V30 1299 H 116.63 -0.603331 3.61601 0
M  V30 1300 H 116.278 -3.0494 4.00026 0
M  V30 1301 H 115.978 -2.1102 5.48402 0
M  V30 1302 H 117.502 -3.02508 5.30397 0
M  V30 1303 H 118.916 -0.784823 5.67903 0
M  V30 1304 H 117.313 -0.0619707 6.00068 0
M  V30 1305 H 118.383 0.684677 4.80042 0
M  V30 1306 N 119.726 -1.57421 0.075193 0
M  V30 1307 C 120.636 -2.1642 -0.905511 0
M  V30 1308 C 121.652 -1.12828 -1.32461 0
M  V30 1309 O 122.828 -1.45109 -1.39661 0
M  V30 1310 C 119.893 -2.71693 -2.15369 0
M  V30 1311 C 118.954 -3.90171 -1.79068 0
M  V30 1312 C 118.187 -4.42798 -2.97936 0
M  V30 1313 O 118.41 -3.94416 -4.12058 0
M  V30 1314 O 117.344 -5.34085 -2.77555 0
M  V30 1315 H 121.17 -3.00588 -0.433626 0
M  V30 1316 H 118.755 -1.48664 -0.148067 0
M  V30 1317 H 120.637 -3.07104 -2.88557 0
M  V30 1318 H 119.312 -1.90582 -2.61649 0
M  V30 1319 H 118.219 -3.59606 -1.03122 0
M  V30 1320 H 119.552 -4.72584 -1.37569 0
M  V30 1321 N 121.204 0.198386 -1.56346 0
M  V30 1322 C 122.152 1.26538 -1.95169 0
M  V30 1323 C 123.146 1.47295 -0.836685 0
M  V30 1324 O 124.352 1.48195 -1.02167 0
M  V30 1325 H 120.727 0.424744 -0.620561 0
M  V30 1326 H 122.698 0.910904 -2.84157 0
M  V30 1327 C 121.447 2.6035 -2.30463 0
M  V30 1328 H 120.77 2.45192 -3.15786 0
M  V30 1329 H 122.21 3.33762 -2.61494 0
M  V30 1330 C 120.669 3.17096 -1.13806 0
M  V30 1331 O 121.199 3.99588 -0.41135 0
M  V30 1332 N 119.405 2.75795 -0.915736 0
M  V30 1333 H 118.952 2.08816 -1.50843 0
M  V30 1334 H 118.91 3.14101 -0.136979 0
M  V30 1335 N 122.682 1.50554 0.465978 0
M  V30 1336 C 123.612 1.72722 1.57128 0
M  V30 1337 C 124.593 0.576294 1.6004 0
M  V30 1338 O 125.778 0.81598 1.76225 0
M  V30 1339 C 122.908 1.82605 2.95419 0
M  V30 1340 C 121.862 2.97835 3.07373 0
M  V30 1341 C 121.188 2.92867 4.47363 0
M  V30 1342 C 122.488 4.38265 2.84114 0
M  V30 1343 H 124.182 2.65267 1.38829 0
M  V30 1344 H 121.728 1.2765 0.666441 0
M  V30 1345 H 123.681 1.96698 3.72677 0
M  V30 1346 H 122.405 0.866858 3.14886 0
M  V30 1347 H 121.064 2.83401 2.3255 0
M  V30 1348 H 120.712 1.94783 4.63755 0
M  V30 1349 H 120.412 3.70227 4.56296 0
M  V30 1350 H 121.936 3.09015 5.26633 0
M  V30 1351 H 123.35 4.53198 3.51118 0
M  V30 1352 H 121.747 5.17115 3.04487 0
M  V30 1353 H 122.817 4.50281 1.7993 0
M  V30 1354 N 124.16 -0.719506 1.40217 0
M  V30 1355 C 125.576 -1.02707 1.22161 0
M  V30 1356 C 125.776 -2.0128 0.0940557 0
M  V30 1357 O 124.832 -2.46452 -0.549318 0
M  V30 1358 C 126.145 -1.57454 2.56181 0
M  V30 1359 C 127.693 -1.69458 2.63159 0
M  V30 1360 C 128.168 -2.27611 3.97438 0
M  V30 1361 N 129.659 -2.35002 3.99159 0
M  V30 1362 C 130.394 -2.80972 4.99842 0
M  V30 1363 N 129.89 -3.26723 6.10921 0
M  V30 1364 N 131.683 -2.80321 4.87213 0
M  V30 1365 H 123.834 -0.0660492 2.12297 0
M  V30 1366 H 126.097 -0.0919077 0.943534 0
M  V30 1367 H 125.803 -0.924873 3.39321 0
M  V30 1368 H 125.677 -2.56036 2.76993 0
M  V30 1369 H 128.064 -2.33543 1.80393 0
M  V30 1370 H 128.145 -0.694867 2.46181 0
M  V30 1371 H 127.789 -1.6415 4.80643 0
M  V30 1372 H 127.719 -3.2829 4.11744 0
M  V30 1373 H 130.21 -2.02685 3.18947 0
M  V30 1374 H 130.523 -3.60355 6.8364 0
M  V30 1375 H 128.868 -3.24692 6.14492 0
M  V30 1376 H 132.059 -2.43912 3.9953 0
M  V30 1377 H 132.232 -3.15831 5.65822 0
M  V30 1378 N 125.638 -1.25649 -0.95132 0
M  V30 1379 C 126.915 -1.01361 -1.67288 0
M  V30 1380 C 127.295 0.459135 -2.06046 0
M  V30 1381 O 126.643 1.43723 -1.7764 0
M  V30 1382 C 126.853 -1.95256 -2.89268 0
M  V30 1383 C 128.201 -2.23289 -3.61147 0
M  V30 1384 O 129.225 -1.93041 -2.99355 0
M  V30 1385 O 128.084 -2.74741 -4.72419 0
M  V30 1386 H 125.178 -0.38464 -0.732107 0
M  V30 1387 H 127.724 -1.36817 -1.00395 0
M  V30 1388 H 126.496 -2.94685 -2.57442 0
M  V30 1389 H 126.119 -1.60218 -3.6389 0
M  V30 1390 N 127.117 1.15442 -1.07289 0
M  V30 1391 C 128.047 2.22312 -0.714107 0
M  V30 1392 C 129.028 1.67467 0.298155 0
M  V30 1393 O 130.213 1.93445 0.171048 0
M  V30 1394 C 127.343 3.47124 -0.110448 0
M  V30 1395 C 126.297 4.14926 -1.04979 0
M  V30 1396 C 125.623 5.33807 -0.308924 0
M  V30 1397 C 126.923 4.64762 -2.38314 0
M  V30 1398 H 128.617 2.5258 -1.6076 0
M  V30 1399 H 126.163 1.21404 -0.77441 0
M  V30 1400 H 128.116 4.21124 0.152482 0
M  V30 1401 H 126.84 3.16187 0.81812 0
M  V30 1402 H 125.499 3.42866 -1.29764 0
M  V30 1403 H 125.147 4.99126 0.623084 0
M  V30 1404 H 124.847 5.80113 -0.935036 0
M  V30 1405 H 126.371 6.10576 -0.0537771 0
M  V30 1406 H 127.785 5.30292 -2.1786 0
M  V30 1407 H 126.182 5.21728 -2.96514 0
M  V30 1408 H 127.252 3.80434 -3.00663 0
M  V30 1409 N 128.595 0.856903 1.32268 0
M  V30 1410 C 129.525 0.31858 2.31316 0
M  V30 1411 C 130.506 -0.583487 1.59779 0
M  V30 1412 O 131.691 -0.503259 1.87566 0
M  V30 1413 C 128.821 -0.491979 3.43798 0
M  V30 1414 C 127.775 0.315849 4.26833 0
M  V30 1415 C 127.101 -0.619586 5.31098 0
M  V30 1416 C 128.401 1.54282 4.98993 0
M  V30 1417 H 130.095 1.14621 2.76591 0
M  V30 1418 H 127.641 0.552613 1.32974 0
M  V30 1419 H 129.594 -0.879012 4.1213 0
M  V30 1420 H 128.318 -1.35299 2.97257 0
M  V30 1421 H 126.977 0.684664 3.6015 0
M  V30 1422 H 126.625 -1.47751 4.8081 0
M  V30 1423 H 126.325 -0.0830621 5.87541 0
M  V30 1424 H 127.849 -1.00375 6.02293 0
M  V30 1425 H 129.263 1.22796 5.59995 0
M  V30 1426 H 127.66 2.01745 5.65172 0
M  V30 1427 H 128.73 2.30285 4.26728 0
M  V30 1428 N 130.073 -1.45103 0.615059 0
M  V30 1429 C 131.023 -2.27679 -0.120966 0
M  V30 1430 C 132.007 -1.3775 -0.831491 0
M  V30 1431 O 133.199 -1.61683 -0.720249 0
M  V30 1432 C 130.328 -3.24767 -1.1127 0
M  V30 1433 C 129.414 -4.22184 -0.402627 0
M  V30 1434 N 129.805 -5.02692 0.559884 0
M  V30 1435 C 128.103 -4.4125 -0.649202 0
M  V30 1436 C 128.804 -5.73421 0.977942 0
M  V30 1437 N 127.78 -5.42657 0.320104 0
M  V30 1438 H 131.582 -2.87325 0.618181 0
M  V30 1439 H 129.096 -1.56345 0.439304 0
M  V30 1440 H 131.093 -3.82666 -1.65446 0
M  V30 1441 H 129.753 -2.66682 -1.85232 0
M  V30 1442 H 130.764 -5.09354 0.936976 0
M  V30 1443 H 127.441 -3.9428 -1.37293 0
M  V30 1444 H 128.831 -6.48107 1.77222 0
M  V30 1445 N 131.551 -0.354651 -1.53558 0
M  V30 1446 C 132.797 0.238797 -2.01389 0
M  V30 1447 C 133.13 1.49309 -1.2418 0
M  V30 1448 O 132.405 1.91638 -0.332457 0
M  V30 1449 C 132.688 0.541771 -3.56001 0
M  V30 1450 C 132.541 -0.725388 -4.43912 0
M  V30 1451 C 133.86 1.34685 -4.18984 0
M  V30 1452 H 130.979 0.0853177 -0.732045 0
M  V30 1453 H 133.621 -0.477384 -1.83905 0
M  V30 1454 H 131.771 1.15189 -3.71031 0
M  V30 1455 H 133.443 -1.36313 -4.407 0
M  V30 1456 H 131.686 -1.34801 -4.12324 0
M  V30 1457 H 132.357 -0.468505 -5.50008 0
M  V30 1458 H 134.833 0.830837 -4.07721 0
M  V30 1459 H 133.709 1.52759 -5.27215 0
M  V30 1460 H 133.97 2.35221 -3.74331 0
M  V30 1461 N 133.029 1.57378 -0.0835403 0
M  V30 1462 C 133.959 2.1641 0.87686 0
M  V30 1463 C 134.94 1.09429 1.30228 0
M  V30 1464 O 136.125 1.37516 1.37124 0
M  V30 1465 C 133.255 2.73517 2.14022 0
M  V30 1466 C 132.209 3.85769 1.85381 0
M  V30 1467 C 131.535 4.29529 3.18448 0
M  V30 1468 C 132.835 5.09486 1.14984 0
M  V30 1469 H 134.529 2.96914 0.385059 0
M  V30 1470 H 132.075 1.42823 0.18377 0
M  V30 1471 H 134.028 3.13463 2.81636 0
M  V30 1472 H 132.752 1.90252 2.65465 0
M  V30 1473 H 131.411 3.46345 1.20169 0
M  V30 1474 H 131.059 3.43169 3.67755 0
M  V30 1475 H 130.759 5.05204 3.00071 0
M  V30 1476 H 132.283 4.72099 3.8724 0
M  V30 1477 H 133.697 5.46674 1.72687 0
M  V30 1478 H 132.094 5.90515 1.06826 0
M  V30 1479 H 133.164 4.84724 0.130749 0
M  V30 1480 N 134.507 -0.190092 1.56449 0
M  V30 1481 C 135.47 -1.21925 1.9408 0
M  V30 1482 C 136.47 -1.38176 0.822431 0
M  V30 1483 O 137.66 -1.35903 1.08977 0
M  V30 1484 C 134.792 -2.58773 2.21922 0
M  V30 1485 H 135.985 -0.897464 2.86157 0
M  V30 1486 H 133.538 -0.43181 1.50217 0
M  V30 1487 H 134.273 -2.95998 1.32499 0
M  V30 1488 H 134.058 -2.48348 3.03424 0
M  V30 1489 H 135.548 -3.32978 2.52022 0
M  V30 1490 N 135.985 -1.50799 -0.457987 0
M  V30 1491 C 137.232 -1.62442 -1.20908 0
M  V30 1492 C 137.56 -0.330865 -1.91665 0
M  V30 1493 O 136.815 0.68401 -1.83357 0
M  V30 1494 C 137.114 -2.76358 -2.2663 0
M  V30 1495 C 136.78 -4.16378 -1.73033 0
M  V30 1496 C 135.442 -4.54473 -1.58138 0
M  V30 1497 C 137.794 -5.03836 -1.33413 0
M  V30 1498 C 135.122 -5.77754 -1.02065 0
M  V30 1499 C 137.474 -6.27676 -0.78778 0
M  V30 1500 C 136.138 -6.64562 -0.625561 0
M  V30 1501 H 135.408 -0.594417 -0.442435 0
M  V30 1502 H 138.055 -1.84772 -0.503136 0
M  V30 1503 H 136.36 -2.48167 -3.03184 0
M  V30 1504 H 138.057 -2.82568 -2.84528 0
M  V30 1505 H 134.647 -3.86331 -1.85598 0
M  V30 1506 H 138.831 -4.75026 -1.4375 0
M  V30 1507 H 134.087 -6.04997 -0.882547 0
M  V30 1508 H 138.261 -6.94797 -0.472177 0
M  V30 1509 H 135.888 -7.59965 -0.188926 0
M  V30 1510 N 137.463 0.71206 -1.40597 0
M  V30 1511 C 138.688 1.50617 -1.42581 0
M  V30 1512 C 139.113 1.88079 -0.0282102 0
M  V30 1513 O 138.471 1.53511 0.964579 0
M  V30 1514 C 138.519 2.7557 -2.3258 0
M  V30 1515 O 137.623 3.72414 -1.77148 0
M  V30 1516 H 136.964 0.453966 -0.484573 0
M  V30 1517 H 139.494 0.876649 -1.84868 0
M  V30 1518 H 139.504 3.2406 -2.47889 0
M  V30 1519 H 138.179 2.47639 -3.34138 0
M  V30 1520 H 136.756 3.31276 -1.71204 0
M  V30 1521 N 138.941 1.26152 0.944643 0
M  V30 1522 C 139.888 1.07408 2.04285 0
M  V30 1523 C 140.858 -0.0198413 1.66088 0
M  V30 1524 O 142.043 0.139264 1.90291 0
M  V30 1525 C 139.183 0.70945 3.37729 0
M  V30 1526 C 138.296 1.87926 3.88983 0
M  V30 1527 C 137.431 1.45807 5.10797 0
M  V30 1528 C 136.47 2.5964 5.54305 0
M  V30 1529 N 135.607 2.18226 6.67324 0
M  V30 1530 H 140.447 2.01389 2.1965 0
M  V30 1531 H 137.984 1.00275 1.07626 0
M  V30 1532 H 139.942 0.478948 4.14442 0
M  V30 1533 H 138.572 -0.193389 3.2222 0
M  V30 1534 H 137.624 2.22279 3.08701 0
M  V30 1535 H 138.936 2.73377 4.17213 0
M  V30 1536 H 138.09 1.18781 5.94959 0
M  V30 1537 H 136.829 0.574414 4.84305 0
M  V30 1538 H 135.834 2.87399 4.68702 0
M  V30 1539 H 137.059 3.48599 5.828 0
M  V30 1540 H 135.005 1.3229 6.42523 0
M  V30 1541 H 134.922 2.97221 6.95123 0
M  V30 1542 H 136.19 1.94403 7.54869 0
M  V30 1543 N 140.419 -1.14872 1.07899 0
M  V30 1544 C 141.644 -1.90202 0.826926 0
M  V30 1545 C 142.069 -1.77774 -0.614664 0
M  V30 1546 O 141.427 -1.11431 -1.43013 0
M  V30 1547 C 141.475 -3.38352 1.24702 0
M  V30 1548 O 140.579 -4.10497 0.39575 0
M  V30 1549 H 139.92 -0.591968 0.300782 0
M  V30 1550 H 142.45 -1.45437 1.43907 0
M  V30 1551 H 142.46 -3.89156 1.22563 0
M  V30 1552 H 141.135 -3.46715 2.29698 0
M  V30 1553 H 139.712 -3.69796 0.480117 0
M  V30 1554 N 141.898 -0.863906 -1.31812 0
M  V30 1555 C 143.138 -0.47825 -1.98726 0
M  V30 1556 C 143.502 0.950397 -1.66828 0
M  V30 1557 O 144.703 1.44109 -2.26905 0
M  V30 1558 C 142.974 -0.721134 -3.50049 0
M  V30 1559 S 144.533 -0.434432 -4.36644 0
M  V30 1560 H 141.351 -0.178773 -0.688158 0
M  V30 1561 H 143.953 -1.11862 -1.60334 0
M  V30 1562 H 142.657 -1.75981 -3.70755 0
M  V30 1563 H 142.188 -0.0675315 -3.93342 0
M  V30 1564 H 144.203 0.735786 -4.90714 0
M  V30 1565 N 143.376 1.44774 -0.622745 0
M  V30 1566 C 144.326 2.2774 0.108889 0
M  V30 1567 C 145.31 1.38189 0.824175 0
M  V30 1568 O 146.502 1.62063 0.711664 0
M  V30 1569 C 143.631 3.25353 1.09546 0
M  V30 1570 C 142.717 4.22392 0.380232 0
M  V30 1571 N 143.108 5.02388 -0.586535 0
M  V30 1572 C 141.406 4.41588 0.625792 0
M  V30 1573 C 142.107 5.72894 -1.00834 0
M  V30 1574 N 141.083 5.42479 -0.348878 0
M  V30 1575 H 144.885 2.86993 -0.63341 0
M  V30 1576 H 142.399 1.5611 -0.447589 0
M  V30 1577 H 144.396 3.83538 1.63414 0
M  V30 1578 H 143.056 2.6766 1.83815 0
M  V30 1579 H 144.067 5.0885 -0.963975 0
M  V30 1580 H 140.744 3.95003 1.352 0
M  V30 1581 H 142.134 6.47158 -1.80656 0
M  V30 1582 N 144.854 0.36279 1.53368 0
M  V30 1583 C 145.784 -0.476976 2.28576 0
M  V30 1584 C 146.765 -1.08631 1.30894 0
M  V30 1585 O 147.95 -1.10409 1.59761 0
M  V30 1586 C 145.08 -1.61828 3.07293 0
M  V30 1587 C 144.034 -1.13633 4.1264 0
M  V30 1588 C 143.36 -2.36766 4.79423 0
M  V30 1589 C 144.66 -0.223061 5.21823 0
M  V30 1590 H 146.354 0.150474 2.99022 0
M  V30 1591 H 143.9 0.0738103 1.43811 0
M  V30 1592 H 145.853 -2.21237 3.58653 0
M  V30 1593 H 144.577 -2.27292 2.34533 0
M  V30 1594 H 143.236 -0.564945 3.62221 0
M  V30 1595 H 142.884 -3.0068 4.03238 0
M  V30 1596 H 142.584 -2.05192 5.50609 0
M  V30 1597 H 144.108 -2.96865 5.33576 0
M  V30 1598 H 145.522 -0.724545 5.68703 0
M  V30 1599 H 143.919 0.001678 6.001 0
M  V30 1600 H 144.989 0.735553 4.79289 0
M  V30 1601 N 146.332 -1.57332 0.0918853 0
M  V30 1602 C 147.743 -1.81496 -0.437739 0
M  V30 1603 C 148.094 -1.00727 -1.6837 0
M  V30 1604 O 147.219 -0.235694 -2.15113 0
M  V30 1605 C 147.814 -3.29197 -0.800939 0
M  V30 1606 C 146.373 -3.54136 -1.27532 0
M  V30 1607 C 145.52 -2.75979 -0.270392 0
M  V30 1608 H 148.471 -1.55494 0.317366 0
M  V30 1609 H 148.492 -3.42344 -1.66074 0
M  V30 1610 H 148.004 -3.87955 0.106078 0
M  V30 1611 H 146.105 -3.00705 -2.20016 0
M  V30 1612 H 146.218 -4.62792 -1.23938 0
M  V30 1613 H 144.582 -2.43349 -0.751872 0
M  V30 1614 H 145.365 -3.37484 0.629248 0
M  V30 1615 N 147.81 0.181792 -1.56548 0
M  V30 1616 C 149.056 0.896803 -1.82562 0
M  V30 1617 C 149.411 1.80324 -0.670908 0
M  V30 1618 O 148.704 1.8868 0.333235 0
M  V30 1619 C 148.898 1.73728 -3.12335 0
M  V30 1620 C 148.727 0.913714 -4.4032 0
M  V30 1621 C 147.497 0.592903 -5.01809 0
M  V30 1622 C 149.695 0.260164 -5.13642 0
M  V30 1623 N 147.677 -0.247901 -6.13399 0
M  V30 1624 C 149.048 -0.442256 -6.18421 0
M  V30 1625 C 151.103 0.177253 -4.97584 0
M  V30 1626 C 149.806 -1.21971 -7.08883 0
M  V30 1627 C 151.832 -0.586839 -5.88481 0
M  V30 1628 C 151.194 -1.27766 -6.92716 0
M  V30 1629 H 147.293 0.307122 -0.719166 0
M  V30 1630 H 149.877 0.164535 -1.94004 0
M  V30 1631 H 148.048 2.44105 -3.02105 0
M  V30 1632 H 149.78 2.39279 -3.26386 0
M  V30 1633 H 146.535 0.920502 -4.64568 0
M  V30 1634 H 146.959 -0.658304 -6.73792 0
M  V30 1635 H 151.601 0.696993 -4.17015 0
M  V30 1636 H 149.319 -1.75083 -7.88905 0
M  V30 1637 H 152.905 -0.652522 -5.78129 0
M  V30 1638 H 151.785 -1.85943 -7.61836 0
M  V30 1639 N 149.288 1.51039 0.449983 0
M  V30 1640 C 150.251 1.70863 1.5277 0
M  V30 1641 C 151.251 0.578846 1.5002 0
M  V30 1642 O 152.441 0.846213 1.52266 0
M  V30 1643 C 149.573 1.75341 2.9235 0
M  V30 1644 H 150.766 2.67034 1.36502 0
M  V30 1645 H 148.319 1.40838 0.677812 0
M  V30 1646 H 149.054 0.809383 3.14037 0
M  V30 1647 H 148.839 2.57436 2.95752 0
M  V30 1648 H 150.329 1.92559 3.70555 0
M  V30 1649 N 150.766 -0.704594 1.40972 0
M  V30 1650 C 151.991 -1.49858 1.43378 0
M  V30 1651 C 152.416 -1.88061 0.038184 0
M  V30 1652 O 151.774 -1.5402 -0.956425 0
M  V30 1653 C 151.822 -2.74333 2.34038 0
M  V30 1654 O 150.926 -3.7147 1.7912 0
M  V30 1655 H 150.267 -0.45139 0.486974 0
M  V30 1656 H 152.797 -0.866832 1.8533 0
M  V30 1657 H 152.807 -3.22741 2.49604 0
M  V30 1658 H 151.482 -2.45863 3.35446 0
M  V30 1659 H 150.059 -3.30363 1.72958 0
M  V30 1660 N 152.244 -1.26651 -0.937939 0
M  V30 1661 C 153.492 -1.12165 -1.68118 0
M  V30 1662 C 153.813 0.334983 -1.92101 0
M  V30 1663 O 153.083 1.23583 -1.52 0
M  V30 1664 H 151.663 -0.412093 -0.623048 0
M  V30 1665 H 154.325 -1.59027 -1.12678 0
M  V30 1666 H 153.421 -1.64289 -2.6536 0
M  V30 1667 N 153.722 1.14298 -1.08507 0
M  V30 1668 C 154.652 2.21542 -0.737646 0
M  V30 1669 C 155.633 1.67773 0.280377 0
M  V30 1670 O 156.818 1.93616 0.150521 0
M  V30 1671 C 153.948 3.46988 -0.147259 0
M  V30 1672 C 152.902 4.13789 -1.09374 0
M  V30 1673 C 152.228 5.33449 -0.365524 0
M  V30 1674 C 153.528 4.62208 -2.4323 0
M  V30 1675 H 155.222 2.5086 -1.6343 0
M  V30 1676 H 152.768 1.20576 -0.787243 0
M  V30 1677 H 154.721 4.21262 0.107808 0
M  V30 1678 H 153.445 3.17037 0.784538 0
M  V30 1679 H 152.104 3.4147 -1.33393 0
M  V30 1680 H 151.752 4.99759 0.57011 0
M  V30 1681 H 151.452 5.79088 -0.996512 0
M  V30 1682 H 152.976 6.10485 -0.118534 0
M  V30 1683 H 154.39 5.27952 -2.23472 0
M  V30 1684 H 152.787 5.18553 -3.02031 0
M  V30 1685 H 153.857 3.77224 -3.04681 0
M  V30 1686 N 155.201 0.870884 1.31352 0
M  V30 1687 C 156.111 0.330783 2.32256 0
M  V30 1688 C 157.127 -0.559767 1.6475 0
M  V30 1689 O 158.303 -0.456263 1.96164 0
M  V30 1690 C 155.368 -0.458137 3.4366 0
M  V30 1691 C 154.429 0.460482 4.26823 0
M  V30 1692 C 153.662 -0.290881 5.32907 0
M  V30 1693 O 153.885 -1.51885 5.49806 0
M  V30 1694 O 152.819 0.351732 6.00871 0
M  V30 1695 H 156.645 1.16718 2.80376 0
M  V30 1696 H 154.23 0.634285 1.35267 0
M  V30 1697 H 156.112 -0.905343 4.1156 0
M  V30 1698 H 154.787 -1.27106 2.97701 0
M  V30 1699 H 153.694 0.956207 3.61673 0
M  V30 1700 H 155.027 1.23903 4.7635 0
M  V30 1701 N 156.679 -1.44442 0.630414 0
M  V30 1702 C 157.907 -2.06414 0.141671 0
M  V30 1703 C 158.322 -1.47105 -1.18345 0
M  V30 1704 O 157.679 -0.593662 -1.72574 0
M  V30 1705 C 157.73 -3.61494 0.0199784 0
M  V30 1706 O 157.451 -4.18594 1.29269 0
M  V30 1707 C 158.952 -4.40499 -0.497544 0
M  V30 1708 H 156.172 -0.666292 0.0793452 0
M  V30 1709 H 158.716 -1.85323 0.864614 0
M  V30 1710 H 156.871 -3.8185 -0.653402 0
M  V30 1711 H 157.285 -5.12026 1.13707 0
M  V30 1712 H 158.759 -5.49433 -0.531708 0
M  V30 1713 H 159.236 -4.11895 -1.52445 0
M  V30 1714 H 159.842 -4.25061 0.142562 0
M  V30 1715 N 158.157 -0.370918 -1.53173 0
M  V30 1716 C 159.087 0.464847 -2.28826 0
M  V30 1717 C 160.068 1.07936 -1.31468 0
M  V30 1718 O 161.253 1.0956 -1.60344 0
M  V30 1719 C 158.383 1.60196 -3.08147 0
M  V30 1720 C 157.337 1.11443 -4.13237 0
M  V30 1721 C 156.663 2.3422 -4.80672 0
M  V30 1722 C 157.963 0.195384 -5.21934 0
M  V30 1723 H 159.657 -0.166329 -2.98938 0
M  V30 1724 H 157.203 -0.0814359 -1.4377 0
M  V30 1725 H 159.156 2.19332 -3.59822 0
M  V30 1726 H 157.88 2.26045 -2.35735 0
M  V30 1727 H 156.539 0.545727 -3.62515 0
M  V30 1728 H 156.187 2.98537 -4.04827 0
M  V30 1729 H 155.887 2.02269 -5.51689 0
M  V30 1730 H 157.411 2.94032 -5.35143 0
M  V30 1731 H 158.825 0.694375 -5.69079 0
M  V30 1732 H 157.222 -0.0335027 -6.00091 0
M  V30 1733 H 158.292 -0.760961 -4.78892 0
M  V30 1734 N 159.635 1.57281 -0.100228 0
M  V30 1735 C 160.912 1.86014 0.604812 0
M  V30 1736 C 161.292 0.998025 1.86018 0
M  V30 1737 O 160.64 0.0718184 2.28387 0
M  V30 1738 C 160.85 3.36784 0.915278 0
M  V30 1739 C 162.198 4.04957 1.27651 0
M  V30 1740 O 163.222 3.41695 1.00613 0
M  V30 1741 O 162.081 5.16593 1.7831 0
M  V30 1742 H 159.175 0.76942 0.303185 0
M  V30 1743 H 161.721 1.69176 -0.133313 0
M  V30 1744 H 160.493 3.91292 0.0248896 0
M  V30 1745 H 160.116 3.58987 1.70921 0
M  V30 1746 N 161.113 -0.173488 1.56642 0
M  V30 1747 C 162.338 -0.910149 1.86363 0
M  V30 1748 C 162.763 -1.75132 0.686318 0
M  V30 1749 O 162.121 -1.77595 -0.364643 0
M  V30 1750 C 162.169 -1.76447 3.14482 0
M  V30 1751 O 161.273 -2.86584 2.96553 0
M  V30 1752 H 160.614 -0.255086 0.613047 0
M  V30 1753 H 163.144 -0.172283 2.03873 0
M  V30 1754 H 163.154 -2.16483 3.45831 0
M  V30 1755 H 161.829 -1.14658 3.99783 0
M  V30 1756 H 160.406 -2.50146 2.76553 0
M  V30 1757 N 162.591 -1.51276 -0.441967 0
M  V30 1758 C 163.521 -1.752 -1.54361 0
M  V30 1759 C 164.502 -0.601682 -1.59103 0
M  V30 1760 O 165.687 -0.843913 -1.74905 0
M  V30 1761 C 162.817 -1.87282 -2.92477 0
M  V30 1762 C 161.771 -3.02687 -3.02596 0
M  V30 1763 C 161.097 -2.99947 -4.42647 0
M  V30 1764 C 162.397 -4.4273 -2.77106 0
M  V30 1765 H 164.091 -2.67442 -1.34592 0
M  V30 1766 H 161.637 -1.28694 -0.646048 0
M  V30 1767 H 163.59 -2.02602 -3.695 0
M  V30 1768 H 162.314 -0.916844 -3.13467 0
M  V30 1769 H 160.973 -2.87065 -2.28012 0
M  V30 1770 H 160.621 -2.02136 -4.60597 0
M  V30 1771 H 160.321 -3.77439 -4.50348 0
M  V30 1772 H 161.845 -3.17354 -5.2165 0
M  V30 1773 H 163.259 -4.58727 -3.43864 0
M  V30 1774 H 161.656 -5.21893 -2.96222 0
M  V30 1775 H 162.726 -4.53087 -1.72744 0
M  V30 1776 N 164.069 0.697108 -1.41344 0
M  V30 1777 C 165.317 1.45426 -1.40341 0
M  V30 1778 C 165.638 1.94996 -0.0128787 0
M  V30 1779 O 164.908 1.71599 0.945027 0
M  V30 1780 H 163.488 0.539594 -0.516573 0
M  V30 1781 H 166.15 0.825201 -1.76569 0
M  V30 1782 H 165.246 2.31817 -2.08967 0
M  V30 1783 N 165.547 1.27147 0.931209 0
M  V30 1784 C 166.795 1.13055 1.6752 0
M  V30 1785 C 167.116 -0.324791 1.92276 0
M  V30 1786 O 166.386 -1.22775 1.52654 0
M  V30 1787 H 164.966 0.415391 0.620854 0
M  V30 1788 H 167.628 1.59623 1.11833 0
M  V30 1789 H 166.724 1.65694 2.64485 0
M  V30 1790 N 167.025 -1.13721 1.09112 0
M  V30 1791 C 168.271 -1.85198 0.826414 0
M  V30 1792 C 168.604 -1.83129 -0.646319 0
M  V30 1793 O 167.879 -1.2671 -1.47563 0
M  V30 1794 C 168.162 -3.33507 1.35812 0
M  V30 1795 C 168.015 -3.44108 2.89672 0
M  V30 1796 C 169.334 -4.28838 0.989256 0
M  V30 1797 H 166.453 -0.67243 0.301675 0
M  V30 1798 H 169.095 -1.33499 1.35197 0
M  V30 1799 H 167.245 -3.77666 0.911082 0
M  V30 1800 H 168.917 -3.08684 3.428 0
M  V30 1801 H 167.16 -2.85087 3.26967 0
M  V30 1802 H 167.831 -4.48388 3.21951 0
M  V30 1803 H 170.307 -3.92734 1.37475 0
M  V30 1804 H 169.183 -5.31051 1.38838 0
M  V30 1805 H 169.444 -4.4198 -0.102924 0
M  V30 1806 N 168.503 -0.877838 -1.30888 0
M  V30 1807 C 169.433 -0.35534 -2.3078 0
M  V30 1808 C 170.414 0.557994 -1.60687 0
M  V30 1809 O 171.599 0.473355 -1.88343 0
M  V30 1810 C 168.729 0.437221 -3.44537 0
M  V30 1811 C 167.683 -0.383715 -4.26276 0
M  V30 1812 C 167.009 0.535014 -5.32017 0
M  V30 1813 C 168.309 -1.62201 -4.96476 0
M  V30 1814 H 170.003 -1.19007 -2.74732 0
M  V30 1815 H 167.549 -0.573698 -1.32078 0
M  V30 1816 H 169.502 0.813334 -4.13477 0
M  V30 1817 H 168.226 1.30553 -2.99372 0
M  V30 1818 H 166.885 -0.741874 -3.59015 0
M  V30 1819 H 166.533 1.40083 -4.831 0
M  V30 1820 H 166.233 -0.0104211 -5.87599 0
M  V30 1821 H 167.757 0.907799 -6.03814 0
M  V30 1822 H 169.171 -1.31689 -5.5797 0
M  V30 1823 H 167.568 -2.10711 -5.61891 0
M  V30 1824 H 168.638 -2.37044 -4.23011 0
M  V30 1825 N 169.982 1.44106 -0.638065 0
M  V30 1826 C 170.892 2.34513 0.0637334 0
M  V30 1827 C 171.908 1.53018 0.828346 0
M  V30 1828 O 173.084 1.85723 0.779036 0
M  V30 1829 C 170.149 3.31095 1.02844 0
M  V30 1830 C 169.21 4.28497 0.26244 0
M  V30 1831 C 168.443 5.20465 1.1812 0
M  V30 1832 O 168.666 5.16514 2.42011 0
M  V30 1833 O 167.6 5.98251 0.661774 0
M  V30 1834 H 171.426 2.95989 -0.68003 0
M  V30 1835 H 169.011 1.43994 -0.398252 0
M  V30 1836 H 170.893 3.90526 1.58327 0
M  V30 1837 H 169.568 2.72144 1.7527 0
M  V30 1838 H 168.475 3.72592 -0.335602 0
M  V30 1839 H 169.808 4.90388 -0.421936 0
M  V30 1840 N 171.46 0.379036 1.52974 0
M  V30 1841 C 172.423 -0.448865 2.24762 0
M  V30 1842 C 173.423 -0.998689 1.26027 0
M  V30 1843 O 174.613 -0.882313 1.50203 0
M  V30 1844 C 171.745 -1.62872 2.99476 0
M  V30 1845 H 172.938 0.179491 2.99362 0
M  V30 1846 H 170.491 0.13096 1.5575 0
M  V30 1847 H 171.226 -2.29479 2.29151 0
M  V30 1848 H 171.011 -1.24128 3.71934 0
M  V30 1849 H 172.501 -2.2151 3.5401 0
M  V30 1850 N 172.938 -1.57226 0.108567 0
M  V30 1851 C 174.163 -1.99604 -0.563303 0
M  V30 1852 C 174.588 -0.987563 -1.6009 0
M  V30 1853 O 173.946 0.0421687 -1.81251 0
M  V30 1854 C 173.994 -3.40902 -1.17552 0
M  V30 1855 O 173.098 -3.42896 -2.2912 0
M  V30 1856 H 172.439 -0.648704 -0.1417 0
M  V30 1857 H 174.969 -2.03679 0.193961 0
M  V30 1858 H 174.979 -3.78886 -1.51357 0
M  V30 1859 H 173.654 -4.1382 -0.415445 0
M  V30 1860 H 172.231 -3.1672 -1.96832 0
M  V30 1861 N 174.416 0.165178 -1.56732 0
M  V30 1862 C 175.664 0.879068 -1.8198 0
M  V30 1863 C 175.985 1.82514 -0.686561 0
M  V30 1864 O 175.255 1.93694 0.293146 0
M  V30 1865 H 173.835 0.327608 -0.671329 0
M  V30 1866 H 176.497 0.163526 -1.94213 0
M  V30 1867 H 175.593 1.45228 -2.76252 0
M  V30 1868 N 175.894 1.51508 0.433938 0
M  V30 1869 C 177.124 1.67914 1.20369 0
M  V30 1870 C 177.532 0.377461 1.85397 0
M  V30 1871 O 176.875 -0.654255 1.71654 0
M  V30 1872 C 176.937 2.74045 2.32679 0
M  V30 1873 C 176.601 4.16543 1.87991 0
M  V30 1874 C 177.598 5.01211 1.38145 0
M  V30 1875 C 175.283 4.6266 1.95579 0
M  V30 1876 C 177.277 6.30056 0.964774 0
M  V30 1877 C 174.964 5.91501 1.53523 0
M  V30 1878 C 175.962 6.75027 1.04055 0
M  V30 1879 O 175.65 8.01459 0.625964 0
M  V30 1880 H 175.382 0.566578 0.368735 0
M  V30 1881 H 177.936 1.98709 0.51999 0
M  V30 1882 H 176.166 2.38572 3.04336 0
M  V30 1883 H 177.855 2.79295 2.94532 0
M  V30 1884 H 178.621 4.66783 1.31675 0
M  V30 1885 H 174.5 3.97767 2.33029 0
M  V30 1886 H 178.044 6.95202 0.57796 0
M  V30 1887 H 173.941 6.25442 1.59665 0
M  V30 1888 H 174.709 8.15043 0.751509 0
M  V30 1889 N 177.372 -0.689602 1.41712 0
M  V30 1890 C 178.597 -1.48329 1.44959 0
M  V30 1891 C 179.022 -1.8801 0.0581283 0
M  V30 1892 O 178.38 -1.55026 -0.940035 0
M  V30 1893 C 178.428 -2.71835 2.36935 0
M  V30 1894 O 177.532 -3.69549 1.8305 0
M  V30 1895 H 176.873 -0.446199 0.491734 0
M  V30 1896 H 179.403 -0.847127 1.86239 0
M  V30 1897 H 179.413 -3.20076 2.53013 0
M  V30 1898 H 178.088 -2.42291 3.38035 0
M  V30 1899 H 176.665 -3.2851 1.76452 0
M  V30 1900 N 178.85 -1.27639 -0.924453 0
M  V30 1901 C 180.078 -1.16989 -1.70649 0
M  V30 1902 C 180.493 0.272869 -1.86818 0
M  V30 1903 O 179.85 1.18549 -1.38753 0
M  V30 1904 C 179.901 -1.85229 -3.10439 0
M  V30 1905 O 179.622 -3.23868 -2.95028 0
M  V30 1906 C 181.123 -1.80746 -4.04779 0
M  V30 1907 H 178.343 -0.406595 -0.53378 0
M  V30 1908 H 180.887 -1.68569 -1.15778 0
M  V30 1909 H 179.042 -1.37545 -3.6216 0
M  V30 1910 H 179.456 -3.57889 -3.83426 0
M  V30 1911 H 180.93 -2.33101 -5.00368 0
M  V30 1912 H 181.407 -0.777499 -4.32263 0
M  V30 1913 H 182.013 -2.28059 -3.58984 0
M  V30 1914 N 180.328 1.1314 -1.09713 0
M  V30 1915 C 181.238 2.22242 -0.751367 0
M  V30 1916 C 182.254 1.72224 0.247938 0
M  V30 1917 O 183.43 2.01205 0.0885463 0
M  V30 1918 C 180.495 3.46231 -0.180274 0
M  V30 1919 C 179.556 4.11125 -1.2359 0
M  V30 1920 C 178.789 5.29195 -0.691966 0
M  V30 1921 O 179.012 5.68342 0.48414 0
M  V30 1922 O 177.946 5.84214 -1.44838 0
M  V30 1923 H 181.772 2.54197 -1.66186 0
M  V30 1924 H 179.357 1.21331 -0.871735 0
M  V30 1925 H 181.239 4.21185 0.134739 0
M  V30 1926 H 179.914 3.1597 0.703185 0
M  V30 1927 H 178.821 3.37985 -1.60366 0
M  V30 1928 H 180.154 4.45524 -2.09211 0
M  V30 1929 N 181.806 0.884767 1.30421 0
M  V30 1930 C 183.052 0.503851 1.96441 0
M  V30 1931 C 183.385 -0.944518 1.69684 0
M  V30 1932 O 182.66 -1.66737 1.00145 0
M  V30 1933 C 182.943 0.779085 3.51571 0
M  V30 1934 C 182.796 2.27807 3.87846 0
M  V30 1935 C 184.115 0.255452 4.39358 0
M  V30 1936 H 181.234 0.184533 0.713524 0
M  V30 1937 H 183.876 1.10872 1.54297 0
M  V30 1938 H 182.026 0.264274 3.876 0
M  V30 1939 H 183.698 2.86127 3.61841 0
M  V30 1940 H 181.941 2.74479 3.35922 0
M  V30 1941 H 182.612 2.42125 4.96064 0
M  V30 1942 H 185.088 0.696079 4.10236 0
M  V30 1943 H 183.964 0.477361 5.4682 0
M  V30 1944 H 184.225 -0.843293 4.33983 0
M  V30 1945 N 183.284 -1.43765 0.645699 0
M  V30 1946 C 184.53 -2.02197 0.156271 0
M  V30 1947 C 184.863 -1.50776 -1.22393 0
M  V30 1948 O 184.138 -0.697771 -1.81553 0
M  V30 1949 C 184.421 -3.59749 0.158872 0
M  V30 1950 C 184.274 -4.21419 1.57245 0
M  V30 1951 C 185.593 -4.37149 -0.50879 0
M  V30 1952 H 182.712 -0.734694 0.0582602 0
M  V30 1953 H 185.354 -1.71157 0.824951 0
M  V30 1954 H 183.504 -3.86325 -0.410525 0
M  V30 1955 H 185.176 -4.059 2.19186 0
M  V30 1956 H 183.419 -3.78356 2.122 0
M  V30 1957 H 184.09 -5.30482 1.52619 0
M  V30 1958 H 186.566 -4.16093 -0.024412 0
M  V30 1959 H 185.442 -5.4683 -0.476213 0
M  V30 1960 H 185.703 -4.12839 -1.58165 0
M  V30 1961 N 184.763 -0.387143 -1.52771 0
M  V30 1962 C 185.726 0.436939 -2.24997 0
M  V30 1963 C 186.726 0.991991 -1.26555 0
M  V30 1964 O 187.916 0.874335 -1.50669 0
M  V30 1965 C 185.048 1.61281 -3.00335 0
M  V30 1966 H 186.241 -0.195365 -2.99263 0
M  V30 1967 H 183.794 -0.139218 -1.55679 0
M  V30 1968 H 184.529 2.2826 -2.30364 0
M  V30 1969 H 184.314 1.22154 -3.72587 0
M  V30 1970 H 185.804 2.19629 -3.5518 0
M  V30 1971 N 186.241 1.57166 -0.116904 0
M  V30 1972 C 187.171 2.18222 0.830759 0
M  V30 1973 C 188.152 1.12167 1.27877 0
M  V30 1974 O 189.337 1.40394 1.34176 0
M  V30 1975 C 186.467 2.77996 2.08172 0
M  V30 1976 C 185.421 3.89614 1.77157 0
M  V30 1977 C 184.747 4.36187 3.09265 0
M  V30 1978 C 186.047 5.1181 1.04151 0
M  V30 1979 H 187.741 2.97664 0.321992 0
M  V30 1980 H 185.287 1.4318 0.153434 0
M  V30 1981 H 187.24 3.19366 2.74924 0
M  V30 1982 H 185.964 1.9584 2.6137 0
M  V30 1983 H 184.623 3.48816 1.12796 0
M  V30 1984 H 184.271 3.50893 3.60393 0
M  V30 1985 H 183.971 5.11455 2.89288 0
M  V30 1986 H 185.495 4.80207 3.77139 0
M  V30 1987 H 186.909 5.50214 1.61052 0
M  V30 1988 H 185.306 5.92648 0.942762 0
M  V30 1989 H 186.376 4.84892 0.0279022 0
M  V30 1990 N 187.719 -0.156864 1.56817 0
M  V30 1991 C 188.944 -0.890331 1.87318 0
M  V30 1992 C 189.369 -1.74394 0.704855 0
M  V30 1993 O 188.727 -1.77972 -0.345786 0
M  V30 1994 C 188.775 -1.73102 3.16336 0
M  V30 1995 O 187.879 -2.83422 2.99576 0
M  V30 1996 H 187.22 -0.24857 0.615718 0
M  V30 1997 H 189.75 -0.150649 2.04045 0
M  V30 1998 H 189.76 -2.12803 3.48107 0
M  V30 1999 H 188.435 -1.10412 4.00976 0
M  V30 2000 H 187.012 -2.47199 2.7919 0
M  V30 2001 N 189.197 -1.51736 -0.425897 0
M  V30 2002 C 190.613 -1.40166 -0.76326 0
M  V30 2003 C 190.813 -0.492962 -1.95377 0
M  V30 2004 O 189.869 0.0475815 -2.52455 0
M  V30 2005 C 191.182 -2.82403 -1.03291 0
M  V30 2006 C 192.73 -2.91632 -1.13665 0
M  V30 2007 C 193.205 -4.34801 -1.43916 0
M  V30 2008 N 194.696 -4.3796 -1.50816 0
M  V30 2009 C 195.431 -5.4578 -1.75817 0
M  V30 2010 N 194.927 -6.63744 -1.98534 0
M  V30 2011 N 196.72 -5.33274 -1.77694 0
M  V30 2012 H 188.871 -2.09361 0.358 0
M  V30 2013 H 191.134 -0.942941 0.0978094 0
M  V30 2014 H 190.84 -3.50943 -0.230696 0
M  V30 2015 H 190.714 -3.22428 -1.95754 0
M  V30 2016 H 193.101 -2.23284 -1.92947 0
M  V30 2017 H 193.182 -2.55088 -0.190756 0
M  V30 2018 H 192.826 -5.03703 -0.65157 0
M  V30 2019 H 192.756 -4.68868 -2.39729 0
M  V30 2020 H 195.247 -3.52919 -1.35118 0
M  V30 2021 H 195.56 -7.41704 -2.17013 0
M  V30 2022 H 193.905 -6.66839 -1.95832 0
M  V30 2023 H 197.096 -4.40098 -1.59473 0
M  V30 2024 H 197.269 -6.1738 -1.9684 0
M  V30 2025 N 190.675 0.682077 -1.42076 0
M  V30 2026 C 191.605 1.80796 -1.47767 0
M  V30 2027 C 192.586 1.6677 -0.334954 0
M  V30 2028 O 193.771 1.863 -0.548264 0
M  V30 2029 C 190.901 3.19038 -1.37229 0
M  V30 2030 C 189.855 3.47789 -2.49453 0
M  V30 2031 C 189.181 4.8553 -2.23975 0
M  V30 2032 C 190.481 3.45411 -3.91776 0
M  V30 2033 H 192.175 1.7629 -2.41997 0
M  V30 2034 H 189.721 0.846721 -1.16476 0
M  V30 2035 H 191.674 3.97528 -1.39821 0
M  V30 2036 H 190.398 3.24204 -0.394907 0
M  V30 2037 H 189.057 2.71657 -2.46166 0
M  V30 2038 H 188.705 4.87337 -1.24547 0
M  V30 2039 H 188.405 5.0573 -2.99184 0
M  V30 2040 H 189.929 5.66312 -2.28304 0
M  V30 2041 H 191.343 4.13882 -3.96705 0
M  V30 2042 H 189.74 3.77145 -4.66778 0
M  V30 2043 H 190.81 2.44122 -4.18966 0
M  V30 2044 N 192.153 1.28127 0.917671 0
M  V30 2045 C 193.085 1.07517 2.02417 0
M  V30 2046 C 194.098 0.0281099 1.62776 0
M  V30 2047 O 195.287 0.270748 1.76435 0
M  V30 2048 C 192.387 0.610957 3.33347 0
M  V30 2049 C 191.56 1.73255 4.01624 0
M  V30 2050 C 190.619 1.26238 5.10833 0
M  V30 2051 O 189.645 1.96389 5.34247 0
M  V30 2052 N 190.847 0.123448 5.80369 0
M  V30 2053 H 193.612 2.02806 2.20658 0
M  V30 2054 H 191.173 1.19827 1.08871 0
M  V30 2055 H 193.165 0.280101 4.0373 0
M  V30 2056 H 191.735 -0.24898 3.11607 0
M  V30 2057 H 190.955 2.23319 3.24842 0
M  V30 2058 H 192.243 2.48503 4.43986 0
M  V30 2059 H 191.641 -0.461847 5.63812 0
M  V30 2060 H 190.198 -0.148158 6.51632 0
M  V30 2061 N 193.631 -1.12557 1.10312 0
M  V30 2062 C 194.879 -1.83675 0.843091 0
M  V30 2063 C 195.2 -1.84435 -0.633131 0
M  V30 2064 O 194.47 -1.30657 -1.45964 0
M  V30 2065 H 193.05 -0.680138 0.308904 0
M  V30 2066 H 195.712 -1.36301 1.39313 0
M  V30 2067 H 194.808 -2.87908 1.2048 0
M  V30 2068 N 195.109 -0.891671 -1.2995 0
M  V30 2069 C 196.334 -0.527932 -2.00568 0
M  V30 2070 C 196.759 0.877969 -1.66353 0
M  V30 2071 O 196.117 1.58301 -0.883762 0
M  V30 2072 C 196.165 -0.717745 -3.53385 0
M  V30 2073 O 195.269 0.233376 -4.11739 0
M  V30 2074 H 194.61 -0.20722 -0.630837 0
M  V30 2075 H 197.14 -1.20105 -1.65638 0
M  V30 2076 H 197.15 -0.619307 -4.03272 0
M  V30 2077 H 195.825 -1.74276 -3.77625 0
M  V30 2078 H 194.402 0.0880706 -3.72796 0
M  V30 2079 N 196.587 1.43421 -0.653314 0
M  V30 2080 C 197.517 2.33487 0.0246656 0
M  V30 2081 C 198.498 1.49475 0.811863 0
M  V30 2082 O 199.683 1.78139 0.773322 0
M  V30 2083 C 196.813 3.32841 0.99166 0
M  V30 2084 C 195.767 4.26842 0.314568 0
M  V30 2085 C 195.093 5.16236 1.39302 0
M  V30 2086 C 196.393 5.16243 -0.793095 0
M  V30 2087 H 198.087 2.90427 -0.727481 0
M  V30 2088 H 195.633 1.39649 -0.351287 0
M  V30 2089 H 197.586 3.94747 1.47487 0
M  V30 2090 H 196.31 2.74158 1.77497 0
M  V30 2091 H 194.969 3.663 -0.148199 0
M  V30 2092 H 194.617 4.53891 2.16776 0
M  V30 2093 H 194.317 5.79948 0.945223 0
M  V30 2094 H 195.841 5.81015 1.87759 0
M  V30 2095 H 197.255 5.71958 -0.392039 0
M  V30 2096 H 195.652 5.88676 -1.16536 0
M  V30 2097 H 196.722 4.55927 -1.65103 0
M  V30 2098 N 198.065 0.39524 1.52563 0
M  V30 2099 C 198.997 -0.472201 2.24283 0
M  V30 2100 C 200.01 -1.02178 1.26742 0
M  V30 2101 O 201.199 -0.923097 1.52778 0
M  V30 2102 C 198.299 -1.66775 2.95024 0
M  V30 2103 C 197.472 -1.2445 4.19322 0
M  V30 2104 C 196.531 -2.30539 4.7301 0
M  V30 2105 O 195.557 -1.91702 5.35947 0
M  V30 2106 N 196.759 -3.6253 4.53379 0
M  V30 2107 H 199.524 0.142282 2.99362 0
M  V30 2108 H 197.085 0.2219 1.60372 0
M  V30 2109 H 199.077 -2.37283 3.27839 0
M  V30 2110 H 197.647 -2.18845 2.23217 0
M  V30 2111 H 196.867 -0.368069 3.92478 0
M  V30 2112 H 198.155 -0.938457 5.0007 0
M  V30 2113 H 197.553 -3.96841 4.03154 0
M  V30 2114 H 196.11 -4.29055 4.90668 0
M  V30 2115 N 199.544 -1.57102 0.125237 0
M  V30 2116 C 200.821 -1.86953 -0.575142 0
M  V30 2117 C 201.201 -1.02749 -1.84407 0
M  V30 2118 O 200.549 -0.108144 -2.28244 0
M  V30 2119 C 200.759 -3.38198 -0.861583 0
M  V30 2120 C 202.107 -4.06937 -1.21192 0
M  V30 2121 O 203.131 -3.43252 -0.951645 0
M  V30 2122 O 201.99 -5.19364 -1.70068 0
M  V30 2123 H 199.084 -0.774147 -0.290906 0
M  V30 2124 H 201.63 -1.68942 0.160211 0
M  V30 2125 H 200.402 -3.91282 0.0373647 0
M  V30 2126 H 200.025 -3.61661 -1.65188 0
M  V30 2127 N 201.022 0.148545 -1.56898 0
M  V30 2128 C 201.955 1.21293 -1.93296 0
M  V30 2129 C 202.933 1.41637 -0.798599 0
M  V30 2130 O 204.117 1.56275 -1.05406 0
M  V30 2131 C 201.244 2.5721 -2.20365 0
M  V30 2132 C 200.29 2.53469 -3.4301 0
M  V30 2133 S 201.123 2.00315 -4.96623 0
M  V30 2134 C 202.279 3.37964 -5.26812 0
M  V30 2135 H 202.512 0.902393 -2.83274 0
M  V30 2136 H 200.045 0.354094 -1.50285 0
M  V30 2137 H 202.003 3.35427 -2.36641 0
M  V30 2138 H 200.664 2.85454 -1.31054 0
M  V30 2139 H 199.857 3.53518 -3.59223 0
M  V30 2140 H 199.459 1.83359 -3.25968 0
M  V30 2141 H 201.751 4.34066 -5.20185 0
M  V30 2142 H 202.694 3.26606 -6.28279 0
M  V30 2143 H 203.102 3.35028 -4.54331 0
M  V30 2144 N 202.5 1.5196 0.417844 0
M  V30 2145 C 203.43 1.77634 1.51554 0
M  V30 2146 C 204.411 0.626918 1.58126 0
M  V30 2147 O 205.596 0.871632 1.7354 0
M  V30 2148 C 202.726 1.91911 2.8946 0
M  V30 2149 C 201.68 3.07463 2.97743 0
M  V30 2150 C 201.006 3.06951 4.37819 0
M  V30 2151 C 202.306 4.47082 2.70027 0
M  V30 2152 H 204 2.6955 1.3032 0
M  V30 2153 H 201.546 1.29706 0.625492 0
M  V30 2154 H 203.499 2.08455 3.6623 0
M  V30 2155 H 202.223 0.966598 3.11969 0
M  V30 2156 H 200.882 2.90656 2.23416 0
M  V30 2157 H 200.53 2.09438 4.57323 0
M  V30 2158 H 200.23 3.84556 4.44286 0
M  V30 2159 H 201.754 3.25613 5.16535 0
M  V30 2160 H 203.168 4.6414 3.36522 0
M  V30 2161 H 201.565 5.2654 2.87881 0
M  V30 2162 H 202.635 4.55777 1.65514 0
M  V30 2163 N 203.978 -0.674533 1.42435 0
M  V30 2164 C 205.224 -1.43521 1.4413 0
M  V30 2165 C 205.579 -1.92316 0.0567773 0
M  V30 2166 O 204.872 -1.68008 -0.921076 0
M  V30 2167 C 205.066 -2.64767 2.40069 0
M  V30 2168 C 204.895 -2.27836 3.87713 0
M  V30 2169 C 203.665 -2.17183 4.56245 0
M  V30 2170 C 205.863 -1.89466 4.78129 0
M  V30 2171 N 203.845 -1.73358 5.88915 0
M  V30 2172 C 205.216 -1.56561 5.99907 0
M  V30 2173 C 207.271 -1.7646 4.65582 0
M  V30 2174 C 205.974 -1.11957 7.10534 0
M  V30 2175 C 208 -1.3326 5.76191 0
M  V30 2176 C 207.362 -1.0128 6.97081 0
M  V30 2177 H 203.461 -0.521656 0.582579 0
M  V30 2178 H 206.045 -0.778381 1.78464 0
M  V30 2179 H 204.216 -3.28139 2.07796 0
M  V30 2180 H 205.948 -3.3136 2.32342 0
M  V30 2181 H 202.703 -2.3626 4.10461 0
M  V30 2182 H 203.127 -1.53867 6.59283 0
M  V30 2183 H 207.769 -1.99831 3.72595 0
M  V30 2184 H 205.487 -0.873318 8.03367 0
M  V30 2185 H 209.073 -1.23717 5.68494 0
M  V30 2186 H 207.953 -0.683597 7.81215 0
M  V30 2187 N 205.456 -1.28612 -0.910864 0
M  V30 2188 C 206.388 -1.08589 -2.01844 0
M  V30 2189 C 207.401 -0.0367419 -1.62759 0
M  V30 2190 O 208.59 -0.280101 -1.76289 0
M  V30 2191 C 205.69 -0.628626 -3.33019 0
M  V30 2192 C 204.863 -1.75382 -4.00699 0
M  V30 2193 C 203.922 -1.28945 -5.10156 0
M  V30 2194 O 202.948 -1.9922 -5.33198 0
M  V30 2195 N 204.15 -0.154224 -5.80295 0
M  V30 2196 H 206.915 -2.03973 -2.19579 0
M  V30 2197 H 204.476 -1.20403 -1.08234 0
M  V30 2198 H 206.468 -0.301508 -4.03575 0
M  V30 2199 H 205.038 0.232451 -3.11735 0
M  V30 2200 H 204.258 -2.25039 -3.23653 0
M  V30 2201 H 205.546 -2.50854 -4.42662 0
M  V30 2202 H 204.944 0.43194 -5.64049 0
M  V30 2203 H 203.501 0.113599 -6.51701 0
M  V30 2204 N 206.934 1.1197 -1.10907 0
M  V30 2205 C 207.864 2.19928 -0.784473 0
M  V30 2206 C 208.845 1.6833 0.244726 0
M  V30 2207 O 210.03 1.93892 0.109418 0
M  V30 2208 C 207.16 3.46597 -0.220827 0
M  V30 2209 C 206.114 4.11376 -1.18127 0
M  V30 2210 C 205.44 5.32554 -0.478594 0
M  V30 2211 C 206.74 4.56945 -2.52979 0
M  V30 2212 H 208.434 2.47337 -1.68715 0
M  V30 2213 H 205.98 1.18879 -0.812642 0
M  V30 2214 H 207.933 4.21396 0.0184278 0
M  V30 2215 H 206.657 3.1863 0.717113 0
M  V30 2216 H 205.316 3.38564 -1.40606 0
M  V30 2217 H 204.964 5.00856 0.463976 0
M  V30 2218 H 204.664 5.76844 -1.11912 0
M  V30 2219 H 206.188 6.10096 -0.248 0
M  V30 2220 H 207.602 5.23093 -2.3462 0
M  V30 2221 H 205.999 5.1203 -3.12962 0
M  V30 2222 H 207.069 3.70676 -3.12614 0
M  V30 2223 N 208.412 0.89855 1.29475 0
M  V30 2224 C 209.689 0.443416 1.90508 0
M  V30 2225 C 210.069 -1.07685 1.81569 0
M  V30 2226 O 209.417 -1.9182 1.24166 0
M  V30 2227 C 209.627 0.956708 3.35631 0
M  V30 2228 C 210.975 0.999728 4.12663 0
M  V30 2229 O 211.999 0.904299 3.4453 0
M  V30 2230 O 210.858 1.14289 5.34416 0
M  V30 2231 H 207.952 0.138025 0.815401 0
M  V30 2232 H 210.498 0.98834 1.37949 0
M  V30 2233 H 209.27 2.00067 3.36287 0
M  V30 2234 H 208.893 0.391728 3.95666 0
M  V30 2235 N 209.89 -1.43072 0.660911 0
M  V30 2236 C 210.82 -2.33497 -0.0122829 0
M  V30 2237 C 211.801 -1.49903 -0.803925 0
M  V30 2238 O 212.986 -1.78546 -0.763864 0
M  V30 2239 C 210.116 -3.33363 -0.973994 0
M  V30 2240 C 209.07 -4.27003 -0.291928 0
M  V30 2241 C 208.396 -5.16967 -1.36562 0
M  V30 2242 C 209.696 -5.15816 0.820462 0
M  V30 2243 H 211.39 -2.90038 0.742873 0
M  V30 2244 H 208.936 -1.39461 0.358688 0
M  V30 2245 H 210.889 -3.95524 -1.45392 0
M  V30 2246 H 209.613 -2.75095 -1.7604 0
M  V30 2247 H 208.272 -3.66217 0.167623 0
M  V30 2248 H 207.92 -4.55034 -2.14366 0
M  V30 2249 H 207.62 -5.80441 -0.914454 0
M  V30 2250 H 209.144 -5.82003 -1.84675 0
M  V30 2251 H 210.558 -5.71742 0.422366 0
M  V30 2252 H 208.955 -5.8805 1.19656 0
M  V30 2253 H 210.025 -4.55045 1.67518 0
M  V30 2254 N 211.368 -0.403325 -1.52352 0
M  V30 2255 C 212.593 0.176499 -2.06648 0
M  V30 2256 C 213.018 1.38577 -1.27193 0
M  V30 2257 O 212.376 1.7879 -0.300637 0
M  V30 2258 C 212.424 0.511061 -3.5696 0
M  V30 2259 O 211.528 1.60294 -3.79973 0
M  V30 2260 H 210.869 0.0167337 -0.663789 0
M  V30 2261 H 213.399 -0.574848 -1.96359 0
M  V30 2262 H 213.409 0.771362 -4.00642 0
M  V30 2263 H 212.084 -0.37296 -4.14224 0
M  V30 2264 H 210.661 1.33526 -3.48174 0
M  V30 2265 N 212.846 1.57033 -0.133567 0
M  V30 2266 C 214.257 1.82593 0.389464 0
M  V30 2267 C 214.608 1.05156 1.6564 0
M  V30 2268 O 213.733 0.292644 2.14412 0
M  V30 2269 C 214.328 3.31204 0.713377 0
M  V30 2270 C 212.887 3.57393 1.18098 0
M  V30 2271 C 212.034 2.76598 0.197126 0
M  V30 2272 H 214.985 1.54598 -0.358481 0
M  V30 2273 H 215.006 3.46627 1.56939 0
M  V30 2274 H 214.518 3.87537 -0.2089 0
M  V30 2275 H 212.619 3.06433 2.11966 0
M  V30 2276 H 212.732 4.65915 1.11624 0
M  V30 2277 H 211.096 2.45257 0.687088 0
M  V30 2278 H 211.879 3.35697 -0.718504 0
M  V30 2279 N 214.325 -0.140222 1.56975 0
M  V30 2280 C 215.573 -0.850005 1.83356 0
M  V30 2281 C 215.894 -1.81399 0.71551 0
M  V30 2282 O 215.164 -1.94136 -0.262294 0
M  V30 2283 H 213.744 -0.316886 0.676456 0
M  V30 2284 H 216.406 -0.132608 1.94448 0
M  V30 2285 H 215.502 -1.40814 2.78528 0
M  V30 2286 N 215.803 -1.52179 -0.40978 0
M  V30 2287 C 217.043 -1.67882 -1.16597 0
M  V30 2288 C 217.407 -0.399795 -1.87791 0
M  V30 2289 O 218.608 -0.43292 -2.65291 0
M  V30 2290 C 216.879 -2.86662 -2.13448 0
M  V30 2291 S 218.438 -3.22843 -2.97183 0
M  V30 2292 H 215.256 -0.59118 -0.395002 0
M  V30 2293 H 217.858 -1.9017 -0.453373 0
M  V30 2294 H 216.562 -3.77998 -1.59831 0
M  V30 2295 H 216.093 -2.66645 -2.89247 0
M  V30 2296 H 218.108 -2.71415 -4.15389 0
M  V30 2297 O 217.32 0.555659 -1.5164 0
M  V30 2298 H 218.011 1.21079 -1.51194 0
M  V30 END ATOM
M  V30 BEGIN BOND
M  V30 END BOND
M  V30 END CTAB
M  END
$$$$
