drugbank_drug|DB09103 >Sequence Stem Cell Factor<<<<
 OpenBabel12092119123D

  0  0  0     0  0            999 V3000
M  V30 BEGIN CTAB
M  V30 COUNTS 2622 2646 0 0 0
M  V30 BEGIN ATOM
M  V30 1 H -0.908 1.98254 -0.117106 0
M  V30 2 N 0 1.576 0 0
M  V30 3 C 0.933 2.03868 1.02534 0
M  V30 4 C 1.911 0.928543 1.3348 0
M  V30 5 O 3.095 1.19667 1.45644 0
M  V30 6 C 0.222 2.43627 2.35294 0
M  V30 7 C -0.732 3.65373 2.2001 0
M  V30 8 S 0.101 5.13292 1.52614 0
M  V30 9 C 1.257 5.56322 2.86805 0
M  V30 10 H 1.49 2.90518 0.631377 0
M  V30 11 H -0.977 1.52953 0.210867 0
M  V30 12 H 0.981 2.67203 3.11629 0
M  V30 13 H -0.358 1.57376 2.7183 0
M  V30 14 H -1.165 3.90944 3.18086 0
M  V30 15 H -1.563 3.418 1.51819 0
M  V30 16 H 0.729 5.58782 3.83104 0
M  V30 17 H 1.672 6.56266 2.65933 0
M  V30 18 H 2.08 4.83886 2.90714 0
M  V30 19 N 1.4781 -0.272755 1.55222 0
M  V30 20 C 2.3881 -1.35918 1.91216 0
M  V30 21 C 3.4041 -1.54026 0.809436 0
M  V30 22 O 4.5801 -1.68148 1.10852 0
M  V30 23 C 1.6451 -2.69834 2.17693 0
M  V30 24 C 0.7061 -2.6047 3.41253 0
M  V30 25 C -0.0609 -3.88 3.66458 0
M  V30 26 O 0.1621 -4.88693 2.94169 0
M  V30 27 O -0.9039 -3.88189 4.59992 0
M  V30 28 H 2.9221 -1.0839 2.83699 0
M  V30 29 H 0.5071 -0.471301 1.41771 0
M  V30 30 H 2.3891 -3.49017 2.36147 0
M  V30 31 H 1.0641 -2.97148 1.28392 0
M  V30 32 H -0.0289 -1.79663 3.28134 0
M  V30 33 H 1.3041 -2.38106 4.30774 0
M  V30 34 N 2.9562 -1.48159 -0.537278 0
M  V30 35 C 4.2042 -1.55497 -1.29094 0
M  V30 36 C 4.5252 -0.227454 -1.93669 0
M  V30 37 O 3.7952 0.750386 -1.80959 0
M  V30 38 H 2.3752 -0.572832 -0.47945 0
M  V30 39 H 5.0372 -1.84579 -0.625818 0
M  V30 40 H 4.1332 -2.33216 -2.07405 0
M  V30 41 N 4.4343 0.785586 -1.36625 0
M  V30 42 C 5.6833 1.53883 -1.30396 0
M  V30 43 C 5.9963 1.95271 0.113452 0
M  V30 44 O 7.2023 2.69858 0.298142 0
M  V30 45 C 5.6583 2.77808 -2.28802 0
M  V30 46 C 5.2663 2.43574 -3.75999 0
M  V30 47 C 7.0103 3.55783 -2.31558 0
M  V30 48 C 4.9173 3.63919 -4.66173 0
M  V30 49 H 3.8473 0.577678 -0.484566 0
M  V30 50 H 6.4983 0.861705 -1.62009 0
M  V30 51 H 4.8803 3.47339 -1.90188 0
M  V30 52 H 6.0543 1.81916 -4.23371 0
M  V30 53 H 4.3693 1.78803 -3.76056 0
M  V30 54 H 6.9663 4.45205 -2.96137 0
M  V30 55 H 7.3093 3.94644 -1.3252 0
M  V30 56 H 7.8423 2.93235 -2.68809 0
M  V30 57 H 4.5813 3.3015 -5.66287 0
M  V30 58 H 4.1013 4.2473 -4.23515 0
M  V30 59 H 5.7803 4.30901 -4.82632 0
M  V30 60 N 5.9124 1.20967 1.01018 0
M  V30 61 C 7.1524 1.03511 1.76252 0
M  V30 62 C 7.5164 -0.42458 1.87247 0
M  V30 63 O 8.7174 -0.719508 2.58991 0
M  V30 64 C 6.9884 1.70726 3.13986 0
M  V30 65 S 8.5474 1.68458 4.05176 0
M  V30 66 H 5.3654 0.371037 0.606508 0
M  V30 67 H 7.9674 1.53628 1.20908 0
M  V30 68 H 6.6714 2.76128 3.03614 0
M  V30 69 H 6.2024 1.20767 3.74405 0
M  V30 70 H 8.2174 0.721987 4.90919 0
M  V30 71 N 7.3905 -1.2043 1.01659 0
M  V30 72 C 8.8065 -1.41852 0.731442 0
M  V30 73 C 9.0065 -1.89358 -0.688898 0
M  V30 74 O 8.0625 -2.06247 -1.45666 0
M  V30 75 C 9.3755 -2.44019 1.75714 0
M  V30 76 C 10.9235 -2.57785 1.77527 0
M  V30 77 C 11.3985 -3.63194 2.79023 0
M  V30 78 N 12.8895 -3.70678 2.77763 0
M  V30 79 C 13.6245 -4.51897 3.52954 0
M  V30 80 N 13.1205 -5.36921 4.37821 0
M  V30 81 N 14.9135 -4.4643 3.41551 0
M  V30 82 H 7.0645 -0.879093 1.93354 0
M  V30 83 H 9.3275 -0.448425 0.835236 0
M  V30 84 H 9.0335 -2.1611 2.77469 0
M  V30 85 H 8.9075 -3.43007 1.56927 0
M  V30 86 H 11.2945 -2.85023 0.764569 0
M  V30 87 H 11.3755 -1.58992 2.00387 0
M  V30 88 H 11.0195 -3.36699 3.80258 0
M  V30 89 H 10.9495 -4.61609 2.53425 0
M  V30 90 H 13.4405 -3.09944 2.16201 0
M  V30 91 H 13.7535 -5.95981 4.91962 0
M  V30 92 H 12.0985 -5.36424 4.41899 0
M  V30 93 H 15.2895 -3.79042 2.74672 0
M  V30 94 H 15.4625 -5.09491 4.00404 0
M  V30 95 N 8.8686 -0.792821 -1.36206 0
M  V30 96 C 9.8166 -0.181555 -2.3189 0
M  V30 97 C 10.8106 0.661025 -1.55971 0
M  V30 98 O 12.0166 0.555728 -1.71206 0
M  V30 99 H 8.3916 -0.0399382 -0.750939 0
M  V30 100 H 10.3626 -1.00394 -2.81005 0
M  V30 101 C 9.1116 0.666444 -3.41253 0
M  V30 102 H 8.4346 0.0274489 -3.99791 0
M  V30 103 H 9.8746 1.06076 -4.10517 0
M  V30 104 C 8.3336 1.82614 -2.83114 0
M  V30 105 O 8.8636 2.9229 -2.75553 0
M  V30 106 N 7.0696 1.63333 -2.40356 0
M  V30 107 H 6.6166 0.741217 -2.46706 0
M  V30 108 H 6.5746 2.41087 -2.01803 0
M  V30 109 N 10.3467 1.47872 -0.545128 0
M  V30 110 C 11.7627 1.5829 -0.204032 0
M  V30 111 C 11.9627 1.54529 1.29317 0
M  V30 112 O 11.0187 1.44232 2.07252 0
M  V30 113 C 12.3317 2.89304 -0.819987 0
M  V30 114 C 13.8797 3.02864 -0.790105 0
M  V30 115 C 14.3547 4.3656 -1.38491 0
M  V30 116 N 15.8457 4.43165 -1.34755 0
M  V30 117 C 16.5807 5.45153 -1.77753 0
M  V30 118 N 16.0767 6.54016 -2.2855 0
M  V30 119 N 17.8697 5.36125 -1.68897 0
M  V30 120 H 10.0207 1.4856 -1.51802 0
M  V30 121 H 12.2837 0.706305 -0.632327 0
M  V30 122 H 11.9897 2.97757 -1.87173 0
M  V30 123 H 11.8637 3.75957 -0.305915 0
M  V30 124 H 14.2507 2.94014 0.252913 0
M  V30 125 H 14.3317 2.17782 -1.34181 0
M  V30 126 H 13.9757 4.46164 -2.42693 0
M  V30 127 H 13.9057 5.20353 -0.808754 0
M  V30 128 H 16.3967 3.65083 -0.975855 0
M  V30 129 H 16.7097 7.27994 -2.59314 0
M  V30 130 H 15.0547 6.54938 -2.32553 0
M  V30 131 H 18.2457 4.49975 -1.28998 0
M  V30 132 H 18.4187 6.15472 -2.02726 0
M  V30 133 N 11.8248 0.280983 1.55075 0
M  V30 134 C 13.0708 -0.33461 2.00021 0
M  V30 135 C 13.4038 -1.55063 1.16915 0
M  V30 136 O 12.6788 -1.93006 0.240646 0
M  V30 137 C 12.9618 -0.711007 3.53011 0
M  V30 138 C 12.8148 0.512766 4.46868 0
M  V30 139 C 14.1338 -1.54522 4.12081 0
M  V30 140 H 11.2528 -0.120147 0.727141 0
M  V30 141 H 13.8948 0.389097 1.85973 0
M  V30 142 H 12.0448 -1.32761 3.65112 0
M  V30 143 H 13.7168 1.15131 4.46702 0
M  V30 144 H 11.9598 1.14975 4.18286 0
M  V30 145 H 12.6308 0.205556 5.51617 0
M  V30 146 H 15.1068 -1.02442 4.03293 0
M  V30 147 H 13.9828 -1.77739 5.19327 0
M  V30 148 H 14.2438 -2.52813 3.62682 0
M  V30 149 N 13.3029 -1.57598 0.00835791 0
M  V30 150 C 14.5309 -1.95214 -0.68549 0
M  V30 151 C 14.9459 -0.883706 -1.66841 0
M  V30 152 O 14.3029 0.136565 -1.81988 0
M  V30 153 C 14.3539 -3.32865 -1.41007 0
M  V30 154 O 14.0749 -4.35609 -0.466552 0
M  V30 155 C 15.5759 -3.84991 -2.19765 0
M  V30 156 H 12.7959 -0.643422 -0.190392 0
M  V30 157 H 15.3399 -2.04406 0.0619607 0
M  V30 158 H 13.4949 -3.24956 -2.10908 0
M  V30 159 H 13.9089 -5.15288 -0.978699 0
M  V30 160 H 15.3829 -4.8371 -2.65948 0
M  V30 161 H 15.8599 -3.18137 -3.02796 0
M  V30 162 H 16.4659 -3.96103 -1.54864 0
M  V30 163 N 14.781 0.264519 -1.55364 0
M  V30 164 C 15.729 1.34702 -1.89626 0
M  V30 165 C 16.723 1.50712 -0.773459 0
M  V30 166 O 17.929 1.52395 -0.957897 0
M  V30 167 H 14.304 0.450682 -0.601988 0
M  V30 168 H 16.275 1.0306 -2.80038 0
M  V30 169 C 15.024 2.6989 -2.19214 0
M  V30 170 H 14.347 2.58365 -3.05103 0
M  V30 171 H 15.787 3.44553 -2.47102 0
M  V30 172 C 14.246 3.21637 -1.00254 0
M  V30 173 O 14.776 4.00973 -0.241501 0
M  V30 174 N 12.982 2.7943 -0.797938 0
M  V30 175 H 12.529 2.15026 -1.4185 0
M  V30 176 H 12.487 3.144 -0.00363422 0
M  V30 177 N 16.2591 1.48442 0.529413 0
M  V30 178 C 17.2071 1.63452 1.65487 0
M  V30 179 C 18.2011 0.500955 1.61823 0
M  V30 180 O 19.4071 0.679695 1.66674 0
M  V30 181 H 15.7821 0.514905 0.548066 0
M  V30 182 H 17.7531 2.57975 1.49971 0
M  V30 183 C 16.5021 1.69196 3.03756 0
M  V30 184 H 15.8251 2.55784 3.07269 0
M  V30 185 H 17.2651 1.83743 3.82119 0
M  V30 186 C 15.7241 0.430765 3.34135 0
M  V30 187 O 16.2541 -0.4561 3.99102 0
M  V30 188 N 14.4601 0.302293 2.89023 0
M  V30 189 H 14.0071 1.02496 2.36331 0
M  V30 190 H 13.9651 -0.540546 3.09718 0
M  V30 191 N 17.7372 -0.778329 1.37039 0
M  V30 192 C 18.9832 -1.53892 1.32079 0
M  V30 193 C 19.3162 -1.9396 -0.0965386 0
M  V30 194 O 18.5912 -1.63568 -1.05242 0
M  V30 195 C 18.8742 -2.80847 2.25382 0
M  V30 196 C 18.7272 -2.47076 3.75864 0
M  V30 197 C 20.0462 -3.82741 2.1725 0
M  V30 198 H 17.1652 -0.558303 0.48111 0
M  V30 199 H 19.8072 -0.893397 1.67685 0
M  V30 200 H 17.9572 -3.35931 1.95148 0
M  V30 201 H 19.6292 -1.97957 4.16666 0
M  V30 202 H 17.8722 -1.79863 3.94755 0
M  V30 203 H 18.5432 -3.37798 4.36574 0
M  V30 204 H 21.0192 -3.37133 2.43887 0
M  V30 205 H 19.8952 -4.69303 2.84686 0
M  V30 206 H 20.1562 -4.2652 1.16331 0
M  V30 207 N 19.2153 -1.21501 -1.00376 0
M  V30 208 C 20.1623 -0.975387 -2.09177 0
M  V30 209 C 21.1323 0.0990615 -1.65804 0
M  V30 210 O 22.3173 -0.0483147 -1.90739 0
M  V30 211 C 19.4573 -0.547507 -3.40729 0
M  V30 212 C 18.5703 -1.69153 -3.97506 0
M  V30 213 C 17.7053 -1.2127 -5.17172 0
M  V30 214 C 16.7443 -2.32897 -5.66061 0
M  V30 215 N 15.8813 -1.86138 -6.76976 0
M  V30 216 H 20.7213 -1.9068 -2.29009 0
M  V30 217 H 18.2583 -0.950257 -1.12288 0
M  V30 218 H 20.2163 -0.280667 -4.16255 0
M  V30 219 H 18.8463 0.346904 -3.20931 0
M  V30 220 H 17.8983 -2.07298 -3.18954 0
M  V30 221 H 19.2103 -2.5316 -4.29781 0
M  V30 222 H 18.3643 -0.902591 -5.99948 0
M  V30 223 H 17.1033 -0.342692 -4.86495 0
M  V30 224 H 16.1083 -2.64709 -4.81881 0
M  V30 225 H 17.3333 -3.20396 -5.98768 0
M  V30 226 H 15.2793 -1.01484 -6.48103 0
M  V30 227 H 15.1963 -2.63717 -7.08512 0
M  V30 228 H 16.4643 -1.58165 -7.63285 0
M  V30 229 N 20.6934 1.19889 -1.02296 0
M  V30 230 C 21.9704 1.85148 -0.630832 0
M  V30 231 C 22.3504 1.91385 0.890782 0
M  V30 232 O 21.6984 1.42642 1.78509 0
M  V30 233 C 21.9084 3.24442 -1.28602 0
M  V30 234 C 23.2564 4.00663 -1.4055 0
M  V30 235 O 24.2804 3.33818 -1.24273 0
M  V30 236 O 23.1394 5.20387 -1.66913 0
M  V30 237 H 20.2334 0.797613 -0.218499 0
M  V30 238 H 22.7794 1.27427 -1.12074 0
M  V30 239 H 21.5514 3.14704 -2.32545 0
M  V30 240 H 21.1744 3.89802 -0.7836 0
M  V30 241 N 22.1715 0.800033 1.35784 0
M  V30 242 C 23.4175 0.377901 1.99248 0
M  V30 243 C 23.7505 -1.05052 1.63333 0
M  V30 244 O 23.0255 -1.72768 0.893385 0
M  V30 245 C 23.3085 0.553922 3.55814 0
M  V30 246 C 23.1615 2.0268 4.01548 0
M  V30 247 C 24.4805 -0.0244802 4.40093 0
M  V30 248 H 21.5995 0.138782 0.723815 0
M  V30 249 H 24.2415 1.00835 1.61035 0
M  V30 250 H 22.3915 0.0172398 3.88496 0
M  V30 251 H 24.0635 2.62536 3.79305 0
M  V30 252 H 22.3065 2.5256 3.52698 0
M  V30 253 H 22.9775 2.10087 5.10458 0
M  V30 254 H 25.4535 0.433775 4.13833 0
M  V30 255 H 24.3295 0.128637 5.48749 0
M  V30 256 H 24.5905 -1.11758 4.27741 0
M  V30 257 N 23.6496 -1.47581 0.552962 0
M  V30 258 C 24.8776 -2.06875 0.0320556 0
M  V30 259 C 25.2926 -1.40625 -1.25976 0
M  V30 260 O 24.6496 -0.501349 -1.75479 0
M  V30 261 C 24.7006 -3.61092 -0.17167 0
M  V30 262 O 24.4216 -4.24858 1.06899 0
M  V30 263 C 25.9226 -4.37242 -0.730344 0
M  V30 264 H 23.1426 -0.669561 0.043915 0
M  V30 265 H 25.6866 -1.89646 0.765163 0
M  V30 266 H 23.8416 -3.7785 -0.854894 0
M  V30 267 H 24.2556 -5.17334 0.864059 0
M  V30 268 H 25.7296 -5.45842 -0.822203 0
M  V30 269 H 26.2066 -4.03235 -1.74064 0
M  V30 270 H 26.8126 -4.25219 -0.0829543 0
M  V30 271 N 25.1277 -0.289203 -1.54924 0
M  V30 272 C 26.0747 0.592115 -2.23075 0
M  V30 273 C 27.0447 1.13881 -1.20915 0
M  V30 274 O 28.2297 1.18551 -1.495 0
M  V30 275 C 25.3697 1.76376 -2.96623 0
M  V30 276 C 24.4827 1.24959 -4.13533 0
M  V30 277 C 23.6177 2.38416 -4.74691 0
M  V30 278 C 22.6567 1.84072 -5.83767 0
M  V30 279 N 21.7937 2.91057 -6.38929 0
M  V30 280 H 26.6337 0.00432038 -2.98 0
M  V30 281 H 24.1707 -0.00963529 -1.47097 0
M  V30 282 H 26.1287 2.45268 -3.3749 0
M  V30 283 H 24.7587 2.32337 -2.24097 0
M  V30 284 H 23.8107 0.453307 -3.77689 0
M  V30 285 H 25.1227 0.811662 -4.92152 0
M  V30 286 H 24.2767 3.15276 -5.18349 0
M  V30 287 H 23.0157 2.8553 -3.95378 0
M  V30 288 H 22.0207 1.05697 -5.39545 0
M  V30 289 H 23.2457 1.37877 -6.64956 0
M  V30 290 H 21.1917 3.37526 -5.62505 0
M  V30 291 H 21.1087 2.51724 -7.12861 0
M  V30 292 H 22.3767 3.6785 -6.87246 0
M  V30 293 N 26.6058 1.57591 -0.0167156 0
M  V30 294 C 27.5358 2.12496 0.967858 0
M  V30 295 C 28.5168 1.03807 1.34752 0
M  V30 296 O 29.7018 1.31577 1.42833 0
M  V30 297 C 26.8318 2.64194 2.25431 0
M  V30 298 C 25.7858 3.77559 2.01576 0
M  V30 299 C 25.1118 4.15636 3.36379 0
M  V30 300 C 26.4118 5.04151 1.36489 0
M  V30 301 H 28.1058 2.95013 0.510643 0
M  V30 302 H 25.6518 1.41915 0.244181 0
M  V30 303 H 27.6048 3.01236 2.94678 0
M  V30 304 H 26.3288 1.78821 2.73296 0
M  V30 305 H 24.9878 3.40937 1.34751 0
M  V30 306 H 24.6358 3.27263 3.81979 0
M  V30 307 H 24.3358 4.92022 3.21229 0
M  V30 308 H 25.8598 4.5525 4.06915 0
M  V30 309 H 27.2738 5.38857 1.95718 0
M  V30 310 H 25.6708 5.85453 1.31776 0
M  V30 311 H 26.7408 4.83733 0.336219 0
M  V30 312 N 28.0839 -0.256276 1.55502 0
M  V30 313 C 29.3299 -0.987079 1.77157 0
M  V30 314 C 29.6629 -1.85327 0.580315 0
M  V30 315 O 28.9379 -1.89874 -0.421686 0
M  V30 316 C 29.2209 -1.85553 3.08613 0
M  V30 317 C 29.0739 -1.01816 4.38125 0
M  V30 318 C 30.3929 -2.8397 3.36228 0
M  V30 319 H 27.5119 -0.357428 0.644526 0
M  V30 320 H 30.1539 -0.258239 1.88237 0
M  V30 321 H 28.3039 -2.47695 2.99298 0
M  V30 322 H 29.9759 -0.416159 4.59419 0
M  V30 323 H 28.2189 -0.322178 4.32602 0
M  V30 324 H 28.8899 -1.65939 5.26468 0
M  V30 325 H 31.3659 -2.31964 3.45445 0
M  V30 326 H 30.2419 -3.41864 4.29442 0
M  V30 327 H 30.5029 -3.59955 2.56681 0
M  V30 328 N 29.562 -1.4872 -0.521534 0
M  V30 329 C 30.525 -1.63379 -1.60748 0
M  V30 330 C 31.525 -0.50661 -1.52611 0
M  V30 331 O 32.715 -0.772601 -1.5613 0
M  V30 332 C 29.847 -1.61192 -3.00383 0
M  V30 333 H 31.04 -2.60217 -1.49087 0
M  V30 334 H 28.593 -1.37444 -0.744235 0
M  V30 335 H 29.328 -0.65863 -3.17541 0
M  V30 336 H 29.113 -2.43032 -3.07698 0
M  V30 337 H 30.603 -1.7466 -3.7932 0
M  V30 338 N 31.0401 0.771051 -1.3745 0
M  V30 339 C 31.9881 1.90574 -1.33358 0
M  V30 340 C 32.9821 1.67936 -0.22224 0
M  V30 341 O 34.1881 1.75717 -0.390304 0
M  V30 342 H 30.5631 0.626714 -0.415612 0
M  V30 343 H 32.5341 1.91142 -2.29144 0
M  V30 344 C 31.2831 3.27845 -1.15813 0
M  V30 345 H 30.6061 3.45842 -2.00583 0
M  V30 346 H 32.0461 4.07538 -1.17 0
M  V30 347 C 30.5051 3.36625 0.136165 0
M  V30 348 O 31.0351 3.85785 1.11949 0
M  V30 349 N 29.2411 2.89997 0.187099 0
M  V30 350 H 28.7881 2.50182 -0.613753 0
M  V30 351 H 28.7461 2.96252 1.05272 0
M  V30 352 N 32.5182 1.22032 0.997298 0
M  V30 353 C 33.4482 1.01065 2.10495 0
M  V30 354 C 34.4292 -0.0669542 1.69968 0
M  V30 355 O 35.6142 0.0943987 1.9397 0
M  V30 356 C 32.7442 0.582874 3.42374 0
M  V30 357 C 31.6982 1.60592 3.96729 0
M  V30 358 C 31.0242 1.03412 5.24605 0
M  V30 359 C 32.3242 2.99478 4.27914 0
M  V30 360 H 34.0182 1.93708 2.28292 0
M  V30 361 H 31.5642 0.932761 1.09707 0
M  V30 362 H 33.5172 0.423332 4.19268 0
M  V30 363 H 32.2412 -0.379213 3.24391 0
M  V30 364 H 30.9002 1.75316 3.21963 0
M  V30 365 H 30.5482 0.063518 5.0296 0
M  V30 366 H 30.2482 1.71754 5.61938 0
M  V30 367 H 31.7722 0.886066 6.04137 0
M  V30 368 H 33.1862 2.88153 4.95622 0
M  V30 369 H 31.5832 3.64903 4.76409 0
M  V30 370 H 32.6532 3.49742 3.3587 0
M  V30 371 N 33.9963 -1.19345 1.0293 0
M  V30 372 C 35.4073 -1.70725 0.755633 0
M  V30 373 C 35.7583 -1.82326 -0.724676 0
M  V30 374 O 34.8833 -1.49471 -1.56484 0
M  V30 375 C 35.4783 -3.10084 1.36503 0
M  V30 376 C 34.0373 -3.58723 1.13994 0
M  V30 377 C 33.1843 -2.35577 1.46283 0
M  V30 378 H 36.1353 -1.0418 1.19718 0
M  V30 379 H 36.1563 -3.72787 0.762217 0
M  V30 380 H 35.6683 -3.01609 2.44241 0
M  V30 381 H 33.7693 -3.72512 0.0807901 0
M  V30 382 H 33.8823 -4.42816 1.82894 0
M  V30 383 H 32.2463 -2.38935 0.88217 0
M  V30 384 H 33.0293 -2.29731 2.55105 0
M  V30 385 N 35.4744 -0.807222 -1.35358 0
M  V30 386 C 36.4214 -0.216037 -2.29787 0
M  V30 387 C 37.3914 0.650278 -1.52842 0
M  V30 388 O 38.5764 0.595227 -1.81278 0
M  V30 389 C 35.7164 0.628893 -3.39321 0
M  V30 390 C 34.8294 -0.257927 -4.31229 0
M  V30 391 C 33.9644 0.595069 -5.27856 0
M  V30 392 C 33.0034 -0.292111 -6.11403 0
M  V30 393 N 32.1404 0.520895 -7.00165 0
M  V30 394 H 36.9804 -1.02671 -2.79755 0
M  V30 395 H 34.5174 -0.517839 -1.37684 0
M  V30 396 H 36.4754 1.13393 -4.01494 0
M  V30 397 H 35.1054 1.40482 -2.90628 0
M  V30 398 H 34.1574 -0.881076 -3.70056 0
M  V30 399 H 35.4694 -0.940759 -4.89848 0
M  V30 400 H 34.6234 1.16522 -5.95405 0
M  V30 401 H 33.3624 1.31146 -4.69736 0
M  V30 402 H 32.3674 -0.874525 -5.428 0
M  V30 403 H 33.5924 -1.00638 -6.71602 0
M  V30 404 H 31.5384 1.22125 -6.44532 0
M  V30 405 H 31.4554 -0.103877 -7.55929 0
M  V30 406 H 32.7234 1.0743 -7.72062 0
M  V30 407 N 36.9525 1.47285 -0.560781 0
M  V30 408 C 38.2295 1.9558 0.0277798 0
M  V30 409 C 38.6095 1.5034 1.48192 0
M  V30 410 O 37.9575 0.743882 2.16052 0
M  V30 411 C 38.1675 3.48789 -0.121418 0
M  V30 412 C 39.5155 4.24594 0.0220912 0
M  V30 413 O 40.5395 3.56166 -0.0491439 0
M  V30 414 O 39.3985 5.46217 0.175958 0
M  V30 415 H 36.4925 0.824663 0.0621342 0
M  V30 416 H 39.0385 1.5767 -0.627556 0
M  V30 417 H 37.8105 3.74533 -1.13316 0
M  V30 418 H 37.4335 3.93473 0.571366 0
M  V30 419 N 38.4306 0.297415 1.54768 0
M  V30 420 C 39.6606 -0.315165 2.04182 0
M  V30 421 C 40.0686 -1.4834 1.17439 0
M  V30 422 O 39.4116 -1.82695 0.191891 0
M  V30 423 C 39.4736 -0.837583 3.49607 0
M  V30 424 C 39.1376 0.204912 4.5654 0
M  V30 425 C 40.1346 1.03214 5.09552 0
M  V30 426 C 37.8196 0.345578 5.0111 0
M  V30 427 C 39.8136 1.986 6.05671 0
M  V30 428 C 37.5006 1.30289 5.97049 0
M  V30 429 C 38.4986 2.12159 6.49213 0
M  V30 430 O 38.1866 3.06268 7.43273 0
M  V30 431 H 37.9186 -0.0729646 0.672051 0
M  V30 432 H 40.4726 0.433907 2.00765 0
M  V30 433 H 38.7026 -1.63712 3.50336 0
M  V30 434 H 40.3916 -1.36566 3.82236 0
M  V30 435 H 41.1576 0.934312 4.75916 0
M  V30 436 H 37.0366 -0.28171 4.60138 0
M  V30 437 H 40.5806 2.62542 6.46311 0
M  V30 438 H 36.4776 1.40145 6.30103 0
M  V30 439 H 37.2456 3.01205 7.61064 0
M  V30 440 N 39.9087 -1.5758 0.0250728 0
M  V30 441 C 40.8417 -2.05473 -0.992777 0
M  V30 442 C 41.8197 -0.949661 -1.31986 0
M  V30 443 O 43.0037 -1.21969 -1.43722 0
M  V30 444 C 40.1307 -2.4734 -2.31389 0
M  V30 445 C 39.1767 -3.68827 -2.1417 0
M  V30 446 S 40.0097 -5.15655 -1.44429 0
M  V30 447 C 41.1657 -5.60814 -2.77918 0
M  V30 448 H 41.3987 -2.91486 -0.585078 0
M  V30 449 H 38.9317 -1.53269 -0.186507 0
M  V30 450 H 40.8897 -2.72127 -3.07339 0
M  V30 451 H 39.5507 -1.6168 -2.69292 0
M  V30 452 H 38.7437 -3.95955 -3.11826 0
M  V30 453 H 38.3457 -3.44172 -1.46362 0
M  V30 454 H 40.6377 -5.64806 -3.74166 0
M  V30 455 H 41.5807 -6.60414 -2.55459 0
M  V30 456 H 41.9887 -4.8845 -2.82979 0
M  V30 457 N 41.3868 0.248026 -1.55636 0
M  V30 458 C 42.6358 0.974134 -1.76617 0
M  V30 459 C 42.9488 1.86528 -0.588796 0
M  V30 460 O 44.1548 2.62805 -0.681594 0
M  V30 461 C 42.6108 1.78213 -3.12679 0
M  V30 462 C 42.2188 0.93843 -4.38061 0
M  V30 463 C 43.9628 2.50104 -3.42999 0
M  V30 464 C 41.8698 1.74225 -5.65155 0
M  V30 465 H 40.7998 0.36745 -0.658405 0
M  V30 466 H 43.4508 0.22884 -1.82067 0
M  V30 467 H 41.8328 2.56933 -3.01333 0
M  V30 468 H 43.0068 0.193635 -4.60393 0
M  V30 469 H 41.3218 0.332905 -4.15067 0
M  V30 470 H 43.9188 3.10694 -4.3517 0
M  V30 471 H 44.2618 3.21662 -2.64271 0
M  V30 472 H 44.7948 1.78395 -3.55556 0
M  V30 473 H 41.5338 1.07043 -6.46701 0
M  V30 474 H 41.0538 2.46235 -5.46926 0
M  V30 475 H 42.7328 2.30967 -6.0437 0
M  V30 476 N 42.8649 1.48995 0.513639 0
M  V30 477 C 44.0929 1.61531 1.29288 0
M  V30 478 C 44.5079 0.281801 1.86685 0
M  V30 479 O 43.8649 -0.731111 1.67215 0
M  V30 480 C 43.9159 2.67449 2.43215 0
M  V30 481 O 43.6369 3.95626 1.88179 0
M  V30 482 C 45.1379 2.90575 3.34785 0
M  V30 483 H 42.3579 0.544165 0.392588 0
M  V30 484 H 44.9019 1.9494 0.617956 0
M  V30 485 H 43.0569 2.36853 3.0656 0
M  V30 486 H 43.4709 4.53868 2.62876 0
M  V30 487 H 44.9449 3.68449 4.11035 0
M  V30 488 H 45.4219 2.00011 3.91015 0
M  V30 489 H 46.0279 3.22538 2.77218 0
M  V30 490 N 44.343 -0.763751 1.37857 0
M  V30 491 C 45.273 -1.89103 1.36975 0
M  V30 492 C 46.254 -1.68439 0.237152 0
M  V30 493 O 47.439 -1.8918 0.438713 0
M  V30 494 C 44.569 -3.26496 1.18395 0
M  V30 495 C 43.523 -3.61741 2.28751 0
M  V30 496 C 42.849 -4.97762 1.95286 0
M  V30 497 C 44.149 -3.67665 3.70972 0
M  V30 498 H 45.843 -1.90099 2.31307 0
M  V30 499 H 43.389 -0.91319 1.11341 0
M  V30 500 H 45.342 -4.05003 1.16406 0
M  V30 501 H 44.066 -3.25955 0.205215 0
M  V30 502 H 42.725 -2.85547 2.29909 0
M  V30 503 H 42.373 -4.93769 0.959221 0
M  V30 504 H 42.073 -5.22313 2.69189 0
M  V30 505 H 43.597 -5.7866 1.94898 0
M  V30 506 H 45.011 -4.36307 3.719 0
M  V30 507 H 43.408 -4.03718 4.43995 0
M  V30 508 H 44.478 -2.68134 4.0402 0
M  V30 509 N 45.8211 -1.22559 -0.990812 0
M  V30 510 C 46.7681 -0.997519 -2.0813 0
M  V30 511 C 47.7381 0.0814702 -1.659 0
M  V30 512 O 48.9231 -0.0685424 -1.90677 0
M  V30 513 C 46.0631 -0.583615 -3.40129 0
M  V30 514 C 45.1761 -1.7336 -3.9569 0
M  V30 515 C 44.3111 -1.26748 -5.15857 0
M  V30 516 C 43.3501 -2.38888 -5.63559 0
M  V30 517 N 42.4871 -1.93308 -6.74964 0
M  V30 518 H 47.3271 -1.93099 -2.26973 0
M  V30 519 H 44.8641 -0.962114 -1.11273 0
M  V30 520 H 46.8221 -0.324801 -4.15934 0
M  V30 521 H 45.4521 0.312845 -3.2128 0
M  V30 522 H 44.5041 -2.10669 -3.16738 0
M  V30 523 H 45.8161 -2.57704 -4.27071 0
M  V30 524 H 44.9701 -0.966173 -5.98957 0
M  V30 525 H 43.7091 -0.394272 -4.86104 0
M  V30 526 H 42.7141 -2.69805 -4.79046 0
M  V30 527 H 43.9391 -3.26728 -5.95336 0
M  V30 528 H 41.8851 -1.08352 -6.4699 0
M  V30 529 H 41.8021 -2.71217 -7.05675 0
M  V30 530 H 43.0701 -1.66252 -7.61564 0
M  V30 531 N 47.2992 1.18797 -1.03562 0
M  V30 532 C 48.5292 1.92319 -0.754773 0
M  V30 533 C 48.9372 1.7612 0.691248 0
M  V30 534 O 48.2802 1.08491 1.48241 0
M  V30 535 C 48.3422 3.44284 -1.03484 0
M  V30 536 C 48.0062 3.84258 -2.47376 0
M  V30 537 C 49.0032 3.88459 -3.45537 0
M  V30 538 C 46.6882 4.15701 -2.81954 0
M  V30 539 C 48.6822 4.23545 -4.76328 0
M  V30 540 C 46.3692 4.50458 -4.12954 0
M  V30 541 C 47.3672 4.54356 -5.09951 0
M  V30 542 O 47.0552 4.88305 -6.38603 0
M  V30 543 H 46.7872 0.617527 -0.275021 0
M  V30 544 H 49.3412 1.51683 -1.38497 0
M  V30 545 H 47.5712 3.85135 -0.347513 0
M  V30 546 H 49.2602 3.99049 -0.7426 0
M  V30 547 H 50.0262 3.6431 -3.20162 0
M  V30 548 H 45.9052 4.11847 -2.0713 0
M  V30 549 H 49.4492 4.26502 -5.52035 0
M  V30 550 H 45.3462 4.74067 -4.38099 0
M  V30 551 H 46.1142 5.06227 -6.43177 0
M  V30 552 N 48.7773 0.814389 1.34928 0
M  V30 553 C 50.0233 0.399013 1.98836 0
M  V30 554 C 50.3563 -1.03314 1.64438 0
M  V30 555 O 49.6313 -1.71811 0.911659 0
M  V30 556 C 49.9143 0.591629 3.55207 0
M  V30 557 C 49.7673 2.06928 3.99376 0
M  V30 558 C 51.0863 0.022199 4.40094 0
M  V30 559 H 48.2053 0.146451 0.722303 0
M  V30 560 H 50.8473 1.02537 1.59957 0
M  V30 561 H 48.9973 0.0584441 3.88456 0
M  V30 562 H 50.6693 2.66544 3.76499 0
M  V30 563 H 48.9123 2.56287 3.49999 0
M  V30 564 H 49.5833 2.1549 5.08201 0
M  V30 565 H 52.0593 0.477643 4.13349 0
M  V30 566 H 50.9353 0.186832 5.48582 0
M  V30 567 H 51.1963 -1.07215 4.28902 0
M  V30 568 N 50.2554 -1.46986 0.568584 0
M  V30 569 C 51.6664 -1.86188 0.138219 0
M  V30 570 C 52.0174 -1.47388 -1.29504 0
M  V30 571 O 51.1424 -0.88219 -1.97602 0
M  V30 572 C 51.7374 -3.3792 0.244065 0
M  V30 573 C 50.2964 -3.76171 -0.131335 0
M  V30 574 C 49.4434 -2.71027 0.586465 0
M  V30 575 H 52.3944 -1.38342 0.777645 0
M  V30 576 H 52.4154 -3.76729 -0.534351 0
M  V30 577 H 51.9274 -3.66128 1.28731 0
M  V30 578 H 50.0284 -3.5358 -1.17526 0
M  V30 579 H 50.1414 -4.78523 0.235146 0
M  V30 580 H 48.5054 -2.54684 0.0282722 0
M  V30 581 H 49.2884 -3.02077 1.63109 0
M  V30 582 N 51.7335 -0.305618 -1.54608 0
M  V30 583 C 52.9815 0.301701 -1.99835 0
M  V30 584 C 53.3025 1.54054 -1.19551 0
M  V30 585 O 52.5725 1.93702 -0.292658 0
M  V30 586 H 51.1525 0.114468 -0.738178 0
M  V30 587 H 53.8145 -0.418016 -1.90364 0
M  V30 588 H 52.9105 0.570548 -3.06841 0
M  V30 589 N 53.2116 1.57565 -0.0334293 0
M  V30 590 C 54.1446 2.05997 0.981866 0
M  V30 591 C 55.1226 0.956647 1.3148 0
M  V30 592 O 56.3066 1.22729 1.43073 0
M  V30 593 C 53.4336 2.48564 2.30074 0
M  V30 594 C 52.4796 3.69958 2.12211 0
M  V30 595 S 53.3126 5.16414 1.41692 0
M  V30 596 C 54.4686 5.6228 2.7494 0
M  V30 597 H 54.7016 2.91792 0.569612 0
M  V30 598 H 52.2346 1.53366 0.178376 0
M  V30 599 H 54.1926 2.73753 3.05892 0
M  V30 600 H 52.8536 1.63106 2.68431 0
M  V30 601 H 52.0466 3.97603 3.09722 0
M  V30 602 H 51.6486 3.44943 1.44535 0
M  V30 603 H 53.9406 5.66783 3.71165 0
M  V30 604 H 54.8836 6.61759 2.51953 0
M  V30 605 H 55.2916 4.89944 2.80384 0
M  V30 606 N 54.6897 -0.239769 1.55765 0
M  V30 607 C 55.9667 -0.990056 1.68693 0
M  V30 608 C 56.3467 -2.03107 0.5754 0
M  V30 609 O 55.6947 -2.24604 -0.42017 0
M  V30 610 C 55.9047 -1.61696 3.09282 0
M  V30 611 C 57.2527 -2.11613 3.6811 0
M  V30 612 O 58.2767 -1.71624 3.12127 0
M  V30 613 O 57.1357 -2.85057 4.66267 0
M  V30 614 H 54.2297 -0.461299 0.686391 0
M  V30 615 H 56.7757 -0.232991 1.68093 0
M  V30 616 H 55.5477 -0.864357 3.81634 0
M  V30 617 H 55.1707 -2.44005 3.13923 0
M  V30 618 N 56.1678 -1.49265 -0.50573 0
M  V30 619 C 57.4138 -1.58748 -1.26202 0
M  V30 620 C 57.7468 -0.271227 -1.92297 0
M  V30 621 O 57.0218 0.724831 -1.80489 0
M  V30 622 C 57.3048 -2.74332 -2.33268 0
M  V30 623 C 57.1578 -4.15737 -1.71705 0
M  V30 624 C 58.4768 -2.85576 -3.34865 0
M  V30 625 H 55.5958 -0.577826 -0.457478 0
M  V30 626 H 58.2378 -1.81532 -0.560897 0
M  V30 627 H 56.3878 -2.55036 -2.93068 0
M  V30 628 H 58.0598 -4.46537 -1.15769 0
M  V30 629 H 56.3028 -4.21605 -1.02135 0
M  V30 630 H 56.9738 -4.92477 -2.49341 0
M  V30 631 H 59.4498 -3.03127 -2.8505 0
M  V30 632 H 58.3258 -3.68135 -4.07146 0
M  V30 633 H 58.5868 -1.94732 -3.96903 0
M  V30 634 N 57.6459 0.756429 -1.3826 0
M  V30 635 C 58.5759 1.88374 -1.37976 0
M  V30 636 C 59.5569 1.68311 -0.246082 0
M  V30 637 O 60.7419 1.88944 -0.44874 0
M  V30 638 C 57.8719 3.25864 -1.20125 0
M  V30 639 C 56.8259 3.60523 -2.30666 0
M  V30 640 C 56.1519 4.9672 -1.97923 0
M  V30 641 C 57.4519 3.65692 -3.72916 0
M  V30 642 H 59.1459 1.88869 -2.32312 0
M  V30 643 H 56.6919 0.907272 -1.11824 0
M  V30 644 H 58.6449 4.0438 -1.18552 0
M  V30 645 H 57.3689 3.25841 -0.222498 0
M  V30 646 H 56.0279 2.84324 -2.3142 0
M  V30 647 H 55.6759 4.93253 -0.985393 0
M  V30 648 H 55.3759 5.20878 -2.71955 0
M  V30 649 H 56.8999 5.77618 -1.97964 0
M  V30 650 H 58.3139 4.34328 -3.74208 0
M  V30 651 H 56.7109 4.01358 -4.4613 0
M  V30 652 H 57.7809 2.65987 -4.05436 0
M  V30 653 N 59.124 1.23083 0.984299 0
M  V30 654 C 60.535 1.05609 1.5396 0
M  V30 655 C 60.886 -0.377793 1.92528 0
M  V30 656 O 60.011 -1.26398 1.75649 0
M  V30 657 C 60.606 1.91087 2.7977 0
M  V30 658 C 59.165 1.77885 3.31713 0
M  V30 659 C 58.312 1.87028 2.04733 0
M  V30 660 H 61.263 1.36802 0.804419 0
M  V30 661 H 61.284 1.43336 3.5247 0
M  V30 662 H 60.796 2.9544 2.51668 0
M  V30 663 H 58.897 0.762995 3.64704 0
M  V30 664 H 59.01 2.61047 4.01735 0
M  V30 665 H 57.374 1.30565 2.18689 0
M  V30 666 H 58.157 2.92929 1.79017 0
M  V30 667 N 60.6021 -1.18246 1.0419 0
M  V30 668 C 61.8271 -1.92736 0.765996 0
M  V30 669 C 62.2521 -1.75728 -0.67091 0
M  V30 670 O 61.6101 -1.06825 -1.46486 0
M  V30 671 C 61.6581 -3.42148 1.13875 0
M  V30 672 O 60.7621 -4.11548 0.264954 0
M  V30 673 H 60.1031 -0.601238 0.281797 0
M  V30 674 H 62.6331 -1.49942 1.39207 0
M  V30 675 H 62.6431 -3.92858 1.1012 0
M  V30 676 H 61.3181 -3.53848 2.18551 0
M  V30 677 H 59.8951 -3.71137 0.362226 0
M  V30 678 N 62.0802 -0.821533 -1.34494 0
M  V30 679 C 63.0302 -0.214793 -2.26986 0
M  V30 680 C 64.0142 0.620125 -1.4847 0
M  V30 681 O 65.2062 0.474933 -1.70509 0
M  V30 682 C 62.3352 0.623566 -3.37589 0
M  V30 683 C 61.4212 -0.221904 -4.23519 0
M  V30 684 N 61.8122 -1.29223 -4.89014 0
M  V30 685 C 60.1102 -0.00600922 -4.46 0
M  V30 686 C 60.8112 -1.80965 -5.52835 0
M  V30 687 N 59.7872 -1.11376 -5.32068 0
M  V30 688 H 63.5892 -1.03354 -2.75128 0
M  V30 689 H 61.1032 -0.6642 -1.48196 0
M  V30 690 H 63.1002 1.0744 -4.02818 0
M  V30 691 H 61.7602 1.44049 -2.90998 0
M  V30 692 H 62.7712 -1.67502 -4.90065 0
M  V30 693 H 59.4482 0.77886 -4.10171 0
M  V30 694 H 60.8382 -2.70502 -6.15043 0
M  V30 695 N 63.5583 1.46682 -0.576371 0
M  V30 696 C 64.7983 2.04306 -0.0621356 0
M  V30 697 C 65.1623 1.4389 1.2712 0
M  V30 698 O 66.3633 1.92675 1.87429 0
M  V30 699 C 64.6343 3.57399 0.00927922 0
M  V30 700 S 66.1933 4.36309 0.466859 0
M  V30 701 H 63.0113 0.710167 -0.0344016 0
M  V30 702 H 65.6133 1.79807 -0.767437 0
M  V30 703 H 64.3173 3.98889 -0.965178 0
M  V30 704 H 63.8483 3.86424 0.737547 0
M  V30 705 H 65.8633 4.6533 1.72287 0
M  V30 706 N 65.0364 0.313813 1.54444 0
M  V30 707 C 66.2824 -0.284918 2.01395 0
M  V30 708 C 66.6374 -1.50537 1.19818 0
M  V30 709 O 65.9304 -1.89692 0.269748 0
M  V30 710 C 66.1244 -0.680386 3.50864 0
M  V30 711 C 65.9534 0.500198 4.4691 0
M  V30 712 C 64.7234 0.996248 4.95382 0
M  V30 713 C 66.9214 1.34928 4.96285 0
M  V30 714 N 64.9034 2.14226 5.75309 0
M  V30 715 C 66.2744 2.3426 5.7404 0
M  V30 716 C 68.3294 1.37818 4.78446 0
M  V30 717 C 67.0324 3.36272 6.35856 0
M  V30 718 C 69.0584 2.38695 5.4109 0
M  V30 719 C 68.4204 3.36755 6.18688 0
M  V30 720 H 64.5194 -0.0683689 0.779006 0
M  V30 721 H 67.1034 0.44664 1.89508 0
M  V30 722 H 65.2744 -1.38109 3.63016 0
M  V30 723 H 67.0064 -1.25975 3.84594 0
M  V30 724 H 63.7614 0.56912 4.70168 0
M  V30 725 H 64.1854 2.72005 6.19953 0
M  V30 726 H 68.8274 0.633747 4.18023 0
M  V30 727 H 66.5454 4.11627 6.95405 0
M  V30 728 H 70.1314 2.41721 5.29209 0
M  V30 729 H 69.0114 4.13535 6.66302 0
M  V30 730 N 66.5145 -1.57545 0.0417849 0
M  V30 731 C 67.7635 -1.91494 -0.633492 0
M  V30 732 C 68.0765 -0.921084 -1.72556 0
M  V30 733 O 69.2825 -1.15228 -2.45835 0
M  V30 734 C 67.7385 -3.40072 -1.17808 0
M  V30 735 C 67.3465 -4.47843 -0.118633 0
M  V30 736 C 69.0905 -3.8307 -1.82915 0
M  V30 737 C 66.9975 -5.87529 -0.675578 0
M  V30 738 H 65.9275 -0.714653 -0.24039 0
M  V30 739 H 68.5785 -1.83175 0.109148 0
M  V30 740 H 66.9605 -3.43364 -1.97274 0
M  V30 741 H 68.1345 -4.56128 0.654494 0
M  V30 742 H 66.4495 -4.14128 0.434414 0
M  V30 743 H 69.0465 -4.84794 -2.25563 0
M  V30 744 H 69.3895 -3.1881 -2.67705 0
M  V30 745 H 69.9225 -3.82255 -1.10119 0
M  V30 746 H 66.6615 -6.55362 0.134475 0
M  V30 747 H 66.1815 -5.82824 -1.4169 0
M  V30 748 H 67.8605 -6.36491 -1.1614 0
M  V30 749 N 67.9926 0.231505 -1.5589 0
M  V30 750 C 69.2176 0.978689 -1.82856 0
M  V30 751 C 69.6426 1.77559 -0.620846 0
M  V30 752 O 69.0006 1.76119 0.430305 0
M  V30 753 C 69.0486 1.87997 -3.07716 0
M  V30 754 O 68.1526 2.97393 -2.85712 0
M  V30 755 H 67.4936 0.277663 -0.603158 0
M  V30 756 H 70.0236 0.24783 -2.03093 0
M  V30 757 H 70.0336 2.2917 -3.37558 0
M  V30 758 H 68.7086 1.29417 -3.95252 0
M  V30 759 H 67.2856 2.60238 -2.67078 0
M  V30 760 N 69.4707 1.49531 0.497807 0
M  V30 761 C 70.3807 1.69176 1.62532 0
M  V30 762 C 71.3967 0.5744 1.64246 0
M  V30 763 O 72.5727 0.849497 1.82608 0
M  V30 764 C 69.6377 1.75695 2.98885 0
M  V30 765 C 68.6987 2.9929 3.07773 0
M  V30 766 C 67.9317 3.05488 4.37622 0
M  V30 767 O 68.1547 2.19192 5.26603 0
M  V30 768 O 67.0887 3.9798 4.51548 0
M  V30 769 H 70.9147 2.647 1.48887 0
M  V30 770 H 68.4997 1.3331 0.674441 0
M  V30 771 H 70.3817 1.82317 3.79919 0
M  V30 772 H 69.0567 0.8335 3.12785 0
M  V30 773 H 67.9637 2.98183 2.25915 0
M  V30 774 H 69.2967 3.91125 2.98801 0
M  V30 775 N 70.9488 -0.749086 1.3866 0
M  V30 776 C 71.8818 -1.87111 1.30631 0
M  V30 777 C 72.8598 -1.61572 0.18251 0
M  V30 778 O 74.0438 -1.85019 0.360592 0
M  V30 779 C 71.1708 -3.22815 1.02511 0
M  V30 780 C 70.2168 -3.67234 2.1689 0
M  V30 781 S 71.0498 -3.78245 3.79066 0
M  V30 782 C 72.2058 -5.16761 3.53142 0
M  V30 783 H 72.4388 -1.93636 2.25594 0
M  V30 784 H 69.9718 -0.912525 1.24549 0
M  V30 785 H 71.9298 -4.01181 0.869701 0
M  V30 786 H 70.5908 -3.13964 0.0925884 0
M  V30 787 H 69.7838 -4.65677 1.92771 0
M  V30 788 H 69.3858 -2.96034 2.28561 0
M  V30 789 H 71.6778 -6.02656 3.09534 0
M  V30 790 H 72.6208 -5.45902 4.50995 0
M  V30 791 H 73.0288 -4.85771 2.87554 0
M  V30 792 N 72.4269 -1.23603 -0.977757 0
M  V30 793 C 73.6729 -1.07129 -1.72195 0
M  V30 794 C 74.0059 0.390501 -1.90233 0
M  V30 795 O 73.2809 1.28902 -1.45653 0
M  V30 796 C 73.5639 -1.80031 -3.11867 0
M  V30 797 C 73.4169 -3.33899 -3.01383 0
M  V30 798 C 74.7359 -1.56492 -4.11337 0
M  V30 799 H 71.8549 -0.390571 -0.624999 0
M  V30 800 H 74.4969 -1.52142 -1.13811 0
M  V30 801 H 72.6469 -1.41768 -3.6171 0
M  V30 802 H 74.3189 -3.81699 -2.59043 0
M  V30 803 H 72.5619 -3.62796 -2.37827 0
M  V30 804 H 73.2329 -3.801 -4.00285 0
M  V30 805 H 75.7089 -1.89757 -3.70313 0
M  V30 806 H 74.5849 -2.09973 -5.07151 0
M  V30 807 H 74.8459 -0.500874 -4.39254 0
M  V30 808 N 73.905 1.17692 -1.04816 0
M  V30 809 C 75.151 1.88137 -0.75711 0
M  V30 810 C 75.484 1.80604 0.713841 0
M  V30 811 O 74.759 1.21146 1.52164 0
M  V30 812 C 75.042 3.38318 -1.2334 0
M  V30 813 C 74.895 3.54622 -2.76701 0
M  V30 814 C 76.214 4.32214 -0.829415 0
M  V30 815 H 73.333 0.683163 -0.27651 0
M  V30 816 H 75.975 1.38424 -1.30149 0
M  V30 817 H 74.125 3.80787 -0.770286 0
M  V30 818 H 75.797 3.21194 -3.31107 0
M  V30 819 H 74.04 2.97026 -3.16161 0
M  V30 820 H 74.711 4.60028 -3.05088 0
M  V30 821 H 77.187 3.97565 -1.22805 0
M  V30 822 H 76.063 5.35838 -1.19033 0
M  V30 823 H 76.324 4.41294 0.266891 0
M  V30 824 N 75.3831 0.828654 1.34056 0
M  V30 825 C 76.3151 0.212052 2.28217 0
M  V30 826 C 77.3281 -0.601362 1.51286 0
M  V30 827 O 78.5171 -0.430104 1.73241 0
M  V30 828 C 75.6171 -0.72088 3.31144 0
M  V30 829 C 74.7901 0.0509587 4.3737 0
M  V30 830 C 73.8491 -0.803766 5.20025 0
M  V30 831 O 72.8751 -0.246667 5.68665 0
M  V30 832 N 74.0771 -2.1227 5.40298 0
M  V30 833 H 76.8421 1.02105 2.81771 0
M  V30 834 H 74.4031 0.686153 1.46641 0
M  V30 835 H 76.3951 -1.29742 3.8334 0
M  V30 836 H 74.9651 -1.43061 2.77943 0
M  V30 837 H 74.1851 0.808831 3.85813 0
M  V30 838 H 75.4731 0.582065 5.0546 0
M  V30 839 H 74.8711 -2.59898 5.02464 0
M  V30 840 H 73.4281 -2.64796 5.95589 0
M  V30 841 N 76.8612 -1.46375 0.584142 0
M  V30 842 C 77.7912 -2.33103 -0.136037 0
M  V30 843 C 78.7722 -1.45431 -0.882255 0
M  V30 844 O 79.9572 -1.74246 -0.857434 0
M  V30 845 C 77.0872 -3.27731 -1.14933 0
M  V30 846 C 76.0412 -4.24855 -0.517862 0
M  V30 847 C 75.3672 -5.09001 -1.63773 0
M  V30 848 C 76.6672 -5.19439 0.545886 0
M  V30 849 H 78.3612 -2.93568 0.588086 0
M  V30 850 H 75.9072 -1.41166 0.284259 0
M  V30 851 H 77.8602 -3.87261 -1.66153 0
M  V30 852 H 76.5842 -2.65377 -1.90375 0
M  V30 853 H 75.2432 -3.6659 -0.0267361 0
M  V30 854 H 74.8912 -4.43031 -2.38185 0
M  V30 855 H 74.5912 -5.74777 -1.22085 0
M  V30 856 H 76.1152 -5.71396 -2.15266 0
M  V30 857 H 77.5292 -5.73177 0.118704 0
M  V30 858 H 75.9262 -5.93566 0.88317 0
M  V30 859 H 76.9962 -4.63285 1.43162 0
M  V30 860 N 78.3393 -0.321999 -1.54275 0
M  V30 861 C 79.5643 0.285791 -2.05422 0
M  V30 862 C 79.9893 1.45124 -1.19669 0
M  V30 863 O 79.3473 1.80132 -0.205441 0
M  V30 864 C 79.3953 0.69956 -3.53749 0
M  V30 865 O 78.4993 1.8021 -3.70942 0
M  V30 866 H 77.8403 0.0518962 -0.661969 0
M  V30 867 H 80.3703 -0.469954 -1.9913 0
M  V30 868 H 80.3803 0.982649 -3.9599 0
M  V30 869 H 79.0553 -0.152864 -4.15619 0
M  V30 870 H 77.6323 1.51794 -3.40607 0
M  V30 871 N 79.8174 1.5752 -0.0501392 0
M  V30 872 C 81.0944 1.83996 0.663685 0
M  V30 873 C 81.4744 0.938339 1.89099 0
M  V30 874 O 80.8224 -0.00087759 2.285 0
M  V30 875 C 81.0324 3.33702 1.02196 0
M  V30 876 C 82.3804 4.00691 1.40469 0
M  V30 877 O 83.4044 3.38321 1.11433 0
M  V30 878 O 82.2634 5.10658 1.94654 0
M  V30 879 H 79.3574 0.759385 0.32751 0
M  V30 880 H 81.9034 1.69514 -0.0794238 0
M  V30 881 H 80.6754 3.91015 0.149364 0
M  V30 882 H 80.2984 3.53368 1.82255 0
M  V30 883 N 81.2955 -0.223234 1.56011 0
M  V30 884 C 82.5205 -0.968978 1.83373 0
M  V30 885 C 82.9455 -1.77227 0.630254 0
M  V30 886 O 82.3035 -1.76345 -0.420959 0
M  V30 887 C 82.3515 -1.86363 3.08709 0
M  V30 888 O 81.4555 -2.95873 2.87285 0
M  V30 889 H 80.7965 -0.274461 0.604622 0
M  V30 890 H 83.3265 -0.237056 2.03222 0
M  V30 891 H 83.3365 -2.27376 3.38768 0
M  V30 892 H 82.0115 -1.27319 3.95933 0
M  V30 893 H 80.5885 -2.58818 2.68454 0
M  V30 894 N 82.7736 -1.49793 -0.48987 0
M  V30 895 C 83.7036 -1.70201 -1.59856 0
M  V30 896 C 84.6846 -0.55076 -1.60937 0
M  V30 897 O 85.8696 -0.787841 -1.77501 0
M  V30 898 C 82.9996 -1.77882 -2.98287 0
M  V30 899 C 81.9536 -2.92907 -3.12073 0
M  V30 900 C 81.2796 -2.85712 -4.51965 0
M  V30 901 C 82.5796 -4.3369 -2.91051 0
M  V30 902 H 84.2736 -2.63025 -1.43032 0
M  V30 903 H 81.8196 -1.26574 -0.686664 0
M  V30 904 H 83.7726 -1.90744 -3.75759 0
M  V30 905 H 82.4966 -0.816653 -3.16225 0
M  V30 906 H 81.1556 -2.79665 -2.37029 0
M  V30 907 H 80.8036 -1.8738 -4.66795 0
M  V30 908 H 80.5036 -3.62921 -4.62128 0
M  V30 909 H 82.0276 -3.00598 -5.31482 0
M  V30 910 H 83.4416 -4.47555 -3.58284 0
M  V30 911 H 81.8386 -5.12205 -3.12675 0
M  V30 912 H 82.9086 -4.47362 -1.87071 0
M  V30 913 N 84.2517 0.741722 -1.39055 0
M  V30 914 C 85.4797 1.53098 -1.39171 0
M  V30 915 C 85.8947 1.88794 0.0155099 0
M  V30 916 O 85.2517 1.53626 0.985159 0
M  V30 917 C 85.3027 2.82274 -2.2584 0
M  V30 918 O 85.0237 2.48097 -3.61081 0
M  V30 919 C 86.5247 3.76343 -2.34266 0
M  V30 920 H 83.7447 0.473335 -0.4756 0
M  V30 921 H 86.2887 0.917045 -1.82785 0
M  V30 922 H 84.4437 3.40015 -1.85656 0
M  V30 923 H 84.8577 3.31029 -4.06842 0
M  V30 924 H 86.3317 4.63898 -2.9917 0
M  V30 925 H 86.8087 4.17619 -1.35982 0
M  V30 926 H 87.4147 3.24523 -2.74891 0
M  V30 927 N 85.7298 1.2412 0.971189 0
M  V30 928 C 87.0068 0.986867 1.6888 0
M  V30 929 C 87.3868 -0.491857 2.0529 0
M  V30 930 O 86.7348 -1.46531 1.75331 0
M  V30 931 C 86.9448 1.9063 2.92338 0
M  V30 932 C 88.2928 2.17515 3.64654 0
M  V30 933 O 89.3168 1.88254 3.02388 0
M  V30 934 O 88.1758 2.6719 4.7673 0
M  V30 935 H 85.2698 0.372944 0.738134 0
M  V30 936 H 87.8158 1.35203 1.02559 0
M  V30 937 H 86.5878 2.90552 2.62097 0
M  V30 938 H 86.2108 1.54408 3.66393 0
M  V30 939 N 87.2079 -1.17134 1.05439 0
M  V30 940 C 88.1379 -2.2342 0.678649 0
M  V30 941 C 89.1189 -1.66971 -0.32476 0
M  V30 942 O 90.3039 -1.93149 -0.201802 0
M  V30 943 C 87.4339 -3.47256 0.0552099 0
M  V30 944 C 86.3879 -4.16543 0.98365 0
M  V30 945 C 85.7139 -5.34231 0.223961 0
M  V30 946 C 87.0139 -4.68495 2.3089 0
M  V30 947 H 88.7079 -2.55105 1.56722 0
M  V30 948 H 86.2539 -1.2262 0.754998 0
M  V30 949 H 88.2069 -4.20828 -0.21946 0
M  V30 950 H 86.9309 -3.14846 -0.868319 0
M  V30 951 H 85.5899 -3.44887 1.24293 0
M  V30 952 H 85.2379 -4.98071 -0.702412 0
M  V30 953 H 84.9379 -5.81527 0.842627 0
M  V30 954 H 86.4619 -6.10585 -0.0433671 0
M  V30 955 H 87.8759 -5.33691 2.09396 0
M  V30 956 H 86.2729 -5.26379 2.88176 0
M  V30 957 H 87.3429 -3.85169 2.94572 0
M  V30 958 N 88.686 -0.835752 -1.33615 0
M  V30 959 C 89.616 -0.281739 -2.31794 0
M  V30 960 C 90.597 0.608833 -1.58831 0
M  V30 961 O 91.782 0.533035 -1.86741 0
M  V30 962 C 88.912 0.546612 -3.42971 0
M  V30 963 C 87.866 -0.247904 -4.27281 0
M  V30 964 C 87.192 0.704001 -5.30045 0
M  V30 965 C 88.492 -1.46324 -5.01385 0
M  V30 966 H 90.186 -1.10206 -2.78379 0
M  V30 967 H 87.732 -0.531388 -1.33837 0
M  V30 968 H 89.685 0.944467 -4.1068 0
M  V30 969 H 88.409 1.40011 -2.95067 0
M  V30 970 H 87.068 -0.627281 -3.61194 0
M  V30 971 H 86.716 1.55381 -4.78399 0
M  V30 972 H 86.416 0.176524 -5.87335 0
M  V30 973 H 87.94 1.09944 -6.0062 0
M  V30 974 H 89.354 -1.13871 -5.61877 0
M  V30 975 H 87.751 -1.92728 -5.6831 0
M  V30 976 H 88.821 -2.23467 -4.30338 0
M  V30 977 N 90.1641 1.46063 -0.591896 0
M  V30 978 C 91.4411 1.95595 -0.0137119 0
M  V30 979 C 91.8211 1.5345 1.4497 0
M  V30 980 O 91.1691 0.789543 2.14426 0
M  V30 981 C 91.3791 3.48453 -0.195373 0
M  V30 982 C 92.7271 4.24546 -0.0679765 0
M  V30 983 O 93.7511 3.55982 -0.124681 0
M  V30 984 O 92.6101 5.46467 0.0600579 0
M  V30 985 H 89.7041 0.825795 0.0446279 0
M  V30 986 H 92.2501 1.56303 -0.660859 0
M  V30 987 H 91.0221 3.72045 -1.21235 0
M  V30 988 H 90.6451 3.94597 0.487775 0
M  V30 989 N 91.6422 0.330177 1.54103 0
M  V30 990 C 92.5892 -0.532762 2.24567 0
M  V30 991 C 93.5592 -1.10635 1.23892 0
M  V30 992 O 94.7442 -1.14546 1.5259 0
M  V30 993 C 91.8842 -1.6845 3.01195 0
M  V30 994 C 90.9972 -1.13951 4.167 0
M  V30 995 C 90.1322 -2.25746 4.80845 0
M  V30 996 C 89.1712 -1.6853 5.88442 0
M  V30 997 N 88.3082 -2.74014 6.46421 0
M  V30 998 H 93.1482 0.0746905 2.97906 0
M  V30 999 H 90.6852 0.048632 1.4702 0
M  V30 1000 H 92.6432 -2.36234 3.43874 0
M  V30 1001 H 91.2732 -2.26314 2.30178 0
M  V30 1002 H 90.3252 -0.35301 3.78758 0
M  V30 1003 H 91.6372 -0.680892 4.94131 0
M  V30 1004 H 90.7912 -3.01422 5.26526 0
M  V30 1005 H 89.5302 -2.74947 4.0281 0
M  V30 1006 H 88.5352 -0.913543 5.42157 0
M  V30 1007 H 89.7602 -1.20198 6.68378 0
M  V30 1008 H 87.7062 -3.22494 5.71256 0
M  V30 1009 H 87.6232 -2.32735 7.19285 0
M  V30 1010 H 88.8912 -3.49499 6.96757 0
M  V30 1011 N 93.1203 -1.57491 0.0584922 0
M  V30 1012 C 94.3673 -1.92978 -0.613648 0
M  V30 1013 C 94.6953 -0.937461 -1.70417 0
M  V30 1014 O 93.9503 0.049078 -1.95638 0
M  V30 1015 C 94.2493 -3.3513 -1.24188 0
M  V30 1016 C 93.9153 -4.50037 -0.278826 0
M  V30 1017 C 92.5773 -4.81198 -0.0138447 0
M  V30 1018 C 94.9293 -5.19807 0.380777 0
M  V30 1019 C 92.2573 -5.79473 0.918052 0
M  V30 1020 C 94.6093 -6.19079 1.30091 0
M  V30 1021 C 93.2733 -6.48665 1.57449 0
M  V30 1022 H 92.5433 -0.706157 -0.22455 0
M  V30 1023 H 95.1903 -1.91082 0.126533 0
M  V30 1024 H 93.4953 -3.33429 -2.05749 0
M  V30 1025 H 95.1923 -3.59871 -1.769 0
M  V30 1026 H 91.7823 -4.25726 -0.495539 0
M  V30 1027 H 95.9663 -4.95939 0.189158 0
M  V30 1028 H 91.2223 -6.00727 1.1374 0
M  V30 1029 H 95.3963 -6.7225 1.81804 0
M  V30 1030 H 93.0233 -7.24628 2.29822 0
M  V30 1031 N 94.5984 0.214957 -1.56127 0
M  V30 1032 C 95.8234 0.95924 -1.83884 0
M  V30 1033 C 96.2484 1.7689 -0.639644 0
M  V30 1034 O 95.6064 1.76566 0.411601 0
M  V30 1035 C 95.6544 1.84723 -3.09693 0
M  V30 1036 O 94.7584 2.94346 -2.8885 0
M  V30 1037 H 94.0994 0.27125 -0.606069 0
M  V30 1038 H 96.6294 0.226276 -2.03345 0
M  V30 1039 H 96.6394 2.25576 -3.39969 0
M  V30 1040 H 95.3144 1.25218 -3.96602 0
M  V30 1041 H 93.8914 2.57391 -2.69823 0
M  V30 1042 N 96.0765 1.50051 0.48192 0
M  V30 1043 C 97.0245 1.68635 1.60203 0
M  V30 1044 C 98.0185 0.552184 1.60148 0
M  V30 1045 O 99.2245 0.732377 1.64427 0
M  V30 1046 H 95.5995 0.532081 0.531407 0
M  V30 1047 H 97.5705 2.62616 1.41688 0
M  V30 1048 C 96.3195 1.78775 2.9822 0
M  V30 1049 H 95.6425 2.6543 2.98976 0
M  V30 1050 H 97.0825 1.95806 3.7608 0
M  V30 1051 C 95.5415 0.536849 3.32595 0
M  V30 1052 O 96.0715 -0.328897 4.00351 0
M  V30 1053 N 94.2775 0.394091 2.87915 0
M  V30 1054 H 93.8245 1.09962 2.32951 0
M  V30 1055 H 93.7825 -0.441737 3.11281 0
M  V30 1056 N 97.5546 -0.734337 1.39446 0
M  V30 1057 C 98.8036 -1.48937 1.36017 0
M  V30 1058 C 99.1166 -1.95557 -0.0409005 0
M  V30 1059 O 100.323 -2.70779 -0.19778 0
M  V30 1060 C 98.7786 -2.69125 2.38955 0
M  V30 1061 C 98.3866 -2.29452 3.8478 0
M  V30 1062 C 100.131 -3.46944 2.44603 0
M  V30 1063 C 98.0376 -3.46366 4.79358 0
M  V30 1064 H 96.9676 -0.559296 0.505672 0
M  V30 1065 H 99.6186 -0.800983 1.65095 0
M  V30 1066 H 98.0006 -3.40041 2.02948 0
M  V30 1067 H 99.1746 -1.66077 4.29831 0
M  V30 1068 H 97.4896 -1.64723 3.82433 0
M  V30 1069 H 100.087 -4.33907 3.12456 0
M  V30 1070 H 100.43 -3.89454 1.47076 0
M  V30 1071 H 100.963 -2.83056 2.79507 0
M  V30 1072 H 97.7016 -3.08905 5.78151 0
M  V30 1073 H 97.2216 -4.08719 4.38986 0
M  V30 1074 H 98.9006 -4.12691 4.98292 0
M  V30 1075 N 99.0327 -1.24633 -0.964593 0
M  V30 1076 C 100.258 -1.11596 -1.74818 0
M  V30 1077 C 100.683 0.32723 -1.85232 0
M  V30 1078 O 100.041 1.23695 -1.32549 0
M  V30 1079 C 100.089 -1.76397 -3.1451 0
M  V30 1080 O 99.1927 -1.03685 -3.99153 0
M  V30 1081 H 98.5337 -0.390196 -0.537255 0
M  V30 1082 H 101.064 -1.65002 -1.20977 0
M  V30 1083 H 101.074 -1.8228 -3.65018 0
M  V30 1084 H 99.7487 -2.81401 -3.06246 0
M  V30 1085 H 98.3257 -1.05611 -3.57632 0
M  V30 1086 N 100.511 1.16574 -1.06058 0
M  V30 1087 C 101.421 2.2452 -0.680282 0
M  V30 1088 C 102.437 1.71348 0.302604 0
M  V30 1089 O 103.613 2.00822 0.152513 0
M  V30 1090 C 100.678 3.46629 -0.0700315 0
M  V30 1091 C 99.7388 4.14849 -1.10448 0
M  V30 1092 C 98.9718 5.31129 -0.523256 0
M  V30 1093 O 99.1948 5.66514 0.664709 0
M  V30 1094 O 98.1288 5.88526 -1.26179 0
M  V30 1095 H 101.955 2.59355 -1.58015 0
M  V30 1096 H 99.5398 1.24043 -0.832694 0
M  V30 1097 H 101.422 4.20543 0.268667 0
M  V30 1098 H 100.097 3.13573 0.803353 0
M  V30 1099 H 99.0038 3.42916 -1.49532 0
M  V30 1100 H 100.337 4.51954 -1.94931 0
M  V30 1101 N 101.989 0.842826 1.3317 0
M  V30 1102 C 103.237 0.439577 1.97262 0
M  V30 1103 C 103.558 -1.00548 1.67078 0
M  V30 1104 O 102.828 -1.70098 0.971779 0
M  V30 1105 H 101.408 0.159558 0.72976 0
M  V30 1106 H 104.07 1.07665 1.62463 0
M  V30 1107 H 103.166 0.574886 3.0676 0
M  V30 1108 N 103.467 -1.45747 0.599634 0
M  V30 1109 C 104.397 -2.33235 -0.111306 0
M  V30 1110 C 105.378 -1.46359 -0.866781 0
M  V30 1111 O 106.563 -1.75146 -0.838904 0
M  V30 1112 C 103.693 -3.28932 -1.11451 0
M  V30 1113 C 102.647 -4.25381 -0.472772 0
M  V30 1114 C 101.973 -5.1071 -1.58365 0
M  V30 1115 C 103.273 -5.18831 0.600948 0
M  V30 1116 H 104.967 -2.92927 0.61919 0
M  V30 1117 H 102.513 -1.40857 0.299215 0
M  V30 1118 H 104.466 -3.89002 -1.62036 0
M  V30 1119 H 103.19 -2.67381 -1.8755 0
M  V30 1120 H 101.849 -3.66598 0.0121472 0
M  V30 1121 H 101.497 -4.45533 -2.33473 0
M  V30 1122 H 101.197 -5.7604 -1.15982 0
M  V30 1123 H 102.721 -5.73647 -2.09194 0
M  V30 1124 H 104.135 -5.73019 0.179491 0
M  V30 1125 H 102.532 -5.92595 0.946076 0
M  V30 1126 H 103.602 -4.6174 1.48068 0
M  V30 1127 N 104.945 -0.338344 -1.53925 0
M  V30 1128 C 106.17 0.263987 -2.05713 0
M  V30 1129 C 106.595 1.43847 -1.21201 0
M  V30 1130 O 105.953 1.79904 -0.224535 0
M  V30 1131 C 106.001 0.662 -3.54471 0
M  V30 1132 O 105.105 1.76265 -3.72833 0
M  V30 1133 H 104.446 0.0448722 -0.662482 0
M  V30 1134 H 106.976 -0.491048 -1.9862 0
M  V30 1135 H 106.986 0.940594 -3.9701 0
M  V30 1136 H 105.661 -0.196937 -4.15433 0
M  V30 1137 H 104.238 1.48173 -3.42198 0
M  V30 1138 N 106.423 1.57458 -0.0668435 0
M  V30 1139 C 107.371 2.13639 0.919851 0
M  V30 1140 C 108.365 1.07204 1.31163 0
M  V30 1141 O 109.571 1.25591 1.28945 0
M  V30 1142 H 105.946 0.683048 0.314562 0
M  V30 1143 H 107.917 2.95415 0.421047 0
M  V30 1144 C 106.666 2.70892 2.17975 0
M  V30 1145 H 105.989 3.5246 1.88711 0
M  V30 1146 H 107.429 3.13803 2.85138 0
M  V30 1147 C 105.888 1.65414 2.93496 0
M  V30 1148 O 106.418 1.07619 3.87015 0
M  V30 1149 N 104.624 1.36564 2.56512 0
M  V30 1150 H 104.171 1.83751 1.80536 0
M  V30 1151 H 104.129 0.66223 3.07347 0
M  V30 1152 N 107.901 -0.206675 1.56239 0
M  V30 1153 C 109.131 -0.943975 1.83773 0
M  V30 1154 C 109.539 -1.77841 0.645703 0
M  V30 1155 O 108.882 -1.79403 -0.395008 0
M  V30 1156 C 108.944 -1.899 3.05251 0
M  V30 1157 C 108.608 -1.24764 4.39639 0
M  V30 1158 C 109.605 -0.630216 5.16066 0
M  V30 1159 C 107.29 -1.25496 4.8637 0
M  V30 1160 C 109.284 -0.0287946 6.37393 0
M  V30 1161 C 106.971 -0.649698 6.07637 0
M  V30 1162 C 107.969 -0.0376845 6.8299 0
M  V30 1163 O 107.657 0.55812 8.0196 0
M  V30 1164 H 107.389 -0.281508 0.614597 0
M  V30 1165 H 109.943 -0.222458 2.04192 0
M  V30 1166 H 108.173 -2.6599 2.80689 0
M  V30 1167 H 109.862 -2.5031 3.1953 0
M  V30 1168 H 110.628 -0.616785 4.81062 0
M  V30 1169 H 106.507 -1.72072 4.27683 0
M  V30 1170 H 110.051 0.449518 6.9615 0
M  V30 1171 H 105.948 -0.660592 6.42111 0
M  V30 1172 H 106.716 0.453891 8.17241 0
M  V30 1173 N 109.379 -1.50304 -0.473955 0
M  V30 1174 C 110.604 -1.65175 -1.25427 0
M  V30 1175 C 111.029 -0.333673 -1.85117 0
M  V30 1176 O 110.387 0.702114 -1.67153 0
M  V30 1177 C 110.435 -2.74295 -2.34082 0
M  V30 1178 O 109.539 -2.35349 -3.38651 0
M  V30 1179 H 108.88 -0.551944 -0.369126 0
M  V30 1180 H 111.41 -1.96662 -0.564364 0
M  V30 1181 H 111.42 -2.97285 -2.79438 0
M  V30 1182 H 110.095 -3.69959 -1.90008 0
M  V30 1183 H 108.672 -2.22794 -2.99027 0
M  V30 1184 N 110.857 0.726932 -1.39834 0
M  V30 1185 C 112.106 1.48214 -1.36805 0
M  V30 1186 C 112.419 1.95576 0.0305291 0
M  V30 1187 O 113.625 2.7088 0.183417 0
M  V30 1188 C 112.081 2.67854 -2.40379 0
M  V30 1189 C 111.689 2.27408 -3.85992 0
M  V30 1190 C 113.433 3.45641 -2.46439 0
M  V30 1191 C 111.34 3.43819 -4.81189 0
M  V30 1192 H 110.27 0.556606 -0.508631 0
M  V30 1193 H 112.921 0.792216 -1.65518 0
M  V30 1194 H 111.303 3.3896 -2.04749 0
M  V30 1195 H 112.477 1.63795 -4.30706 0
M  V30 1196 H 110.792 1.62692 -3.83302 0
M  V30 1197 H 113.389 4.32244 -3.14753 0
M  V30 1198 H 113.732 3.88669 -1.49139 0
M  V30 1199 H 114.265 2.8157 -2.81004 0
M  V30 1200 H 111.004 3.05834 -5.79781 0
M  V30 1201 H 110.524 4.06385 -4.41148 0
M  V30 1202 H 112.203 4.10043 -5.00474 0
M  V30 1203 N 112.336 1.25143 0.95797 0
M  V30 1204 C 113.585 1.0909 1.69654 0
M  V30 1205 C 113.898 -0.368548 1.92097 0
M  V30 1206 O 115.104 -0.649455 2.63618 0
M  V30 1207 C 113.56 1.90395 3.05414 0
M  V30 1208 C 113.168 3.4081 2.90779 0
M  V30 1209 C 114.912 1.82901 3.83076 0
M  V30 1210 C 112.819 4.14423 4.21909 0
M  V30 1211 H 111.749 0.404625 0.636235 0
M  V30 1212 H 114.4 1.4931 1.06672 0
M  V30 1213 H 112.782 1.42996 3.69281 0
M  V30 1214 H 113.956 3.95859 2.35865 0
M  V30 1215 H 112.271 3.49361 2.26575 0
M  V30 1216 H 114.868 2.35196 4.80195 0
M  V30 1217 H 115.211 0.796224 4.08615 0
M  V30 1218 H 115.744 2.28033 3.25954 0
M  V30 1219 H 112.483 5.18102 4.01561 0
M  V30 1220 H 112.003 3.64159 4.76601 0
M  V30 1221 H 113.682 4.21956 4.90471 0
M  V30 1222 N 113.814 -1.1601 1.06675 0
M  V30 1223 C 115.091 -1.82679 0.699114 0
M  V30 1224 C 115.471 -1.94559 -0.819137 0
M  V30 1225 O 114.819 -1.49169 -1.73092 0
M  V30 1226 C 115.029 -3.19445 1.40555 0
M  V30 1227 C 116.377 -3.95171 1.55323 0
M  V30 1228 O 117.401 -3.28976 1.36577 0
M  V30 1229 O 116.26 -5.13833 1.86112 0
M  V30 1230 H 113.354 -0.788954 0.247951 0
M  V30 1231 H 115.9 -1.23179 1.16726 0
M  V30 1232 H 114.672 -3.05856 2.44065 0
M  V30 1233 H 114.295 -3.86625 0.927733 0
M  V30 1234 N 115.292 -0.849877 -1.32721 0
M  V30 1235 C 116.239 -0.289033 -2.28983 0
M  V30 1236 C 117.209 0.601324 -1.54833 0
M  V30 1237 O 118.394 0.537253 -1.8308 0
M  V30 1238 C 115.534 0.520623 -3.4115 0
M  V30 1239 C 114.647 -0.394989 -4.3019 0
M  V30 1240 C 113.782 0.426834 -5.29482 0
M  V30 1241 C 112.821 -0.486476 -6.10164 0
M  V30 1242 N 111.958 0.297879 -7.01468 0
M  V30 1243 H 116.798 -1.11519 -2.76347 0
M  V30 1244 H 114.335 -0.56138 -1.35967 0
M  V30 1245 H 116.293 1.00563 -4.04899 0
M  V30 1246 H 114.923 1.31165 -2.9495 0
M  V30 1247 H 113.975 -0.99836 -3.67065 0
M  V30 1248 H 115.287 -1.09612 -4.86607 0
M  V30 1249 H 114.441 0.975205 -5.98811 0
M  V30 1250 H 113.18 1.16136 -4.73671 0
M  V30 1251 H 112.185 -1.04677 -5.39743 0
M  V30 1252 H 113.41 -1.21953 -6.6806 0
M  V30 1253 H 111.356 1.01558 -6.48091 0
M  V30 1254 H 111.273 -0.344318 -7.55216 0
M  V30 1255 H 112.541 0.828131 -7.75089 0
M  V30 1256 N 116.77 1.45427 -0.607355 0
M  V30 1257 C 117.7 2.3329 0.0989352 0
M  V30 1258 C 118.681 1.46816 0.859007 0
M  V30 1259 O 119.866 1.75588 0.829604 0
M  V30 1260 C 116.996 3.29518 1.09705 0
M  V30 1261 C 115.95 4.25626 0.450206 0
M  V30 1262 C 115.276 5.11542 1.55655 0
M  V30 1263 C 116.576 5.18505 -0.628455 0
M  V30 1264 H 118.27 2.92595 -0.634716 0
M  V30 1265 H 115.816 1.40696 -0.306681 0
M  V30 1266 H 117.769 3.89855 1.59971 0
M  V30 1267 H 116.493 2.68372 1.86129 0
M  V30 1268 H 115.152 3.66586 -0.0315886 0
M  V30 1269 H 114.8 4.46765 2.31107 0
M  V30 1270 H 114.5 5.76647 1.12925 0
M  V30 1271 H 116.024 5.74748 2.06148 0
M  V30 1272 H 117.438 5.72916 -0.209877 0
M  V30 1273 H 115.835 5.92085 -0.977489 0
M  V30 1274 H 116.905 4.60948 -1.50514 0
M  V30 1275 N 118.248 0.346503 1.53744 0
M  V30 1276 C 119.494 -0.249473 2.0126 0
M  V30 1277 C 119.827 -1.49965 1.23386 0
M  V30 1278 O 119.102 -1.91811 0.32229 0
M  V30 1279 C 119.385 -0.560643 3.55709 0
M  V30 1280 C 119.238 0.701836 4.44291 0
M  V30 1281 C 120.557 -1.36905 4.18264 0
M  V30 1282 H 117.676 -0.0891987 0.731582 0
M  V30 1283 H 120.318 0.467624 1.84156 0
M  V30 1284 H 118.468 -1.17156 3.70414 0
M  V30 1285 H 120.14 1.33974 4.41417 0
M  V30 1286 H 118.383 1.32612 4.13033 0
M  V30 1287 H 119.054 0.43933 5.50249 0
M  V30 1288 H 121.53 -0.852448 4.07275 0
M  V30 1289 H 120.406 -1.55553 5.26398 0
M  V30 1290 H 120.667 -2.37203 3.73078 0
M  V30 1291 N 119.726 -1.57421 0.075193 0
M  V30 1292 C 120.674 -2.14124 -0.908508 0
M  V30 1293 C 121.668 -1.07898 -1.30592 0
M  V30 1294 O 122.874 -1.26273 -1.28277 0
M  V30 1295 H 119.249 -0.684707 -0.310935 0
M  V30 1296 H 121.22 -2.95634 -0.405374 0
M  V30 1297 C 119.969 -2.72044 -2.16535 0
M  V30 1298 H 119.292 -3.53456 -1.86839 0
M  V30 1299 H 120.732 -3.15311 -2.83469 0
M  V30 1300 C 119.191 -1.66968 -2.92615 0
M  V30 1301 O 119.721 -1.0967 -3.86439 0
M  V30 1302 N 117.927 -1.37923 -2.55784 0
M  V30 1303 H 117.474 -1.84706 -1.79559 0
M  V30 1304 H 117.432 -0.67852 -3.06991 0
M  V30 1305 N 121.204 0.198386 -1.56346 0
M  V30 1306 C 122.453 0.917451 -1.79627 0
M  V30 1307 C 122.766 1.8456 -0.64784 0
M  V30 1308 O 123.972 2.60504 -0.764859 0
M  V30 1309 C 122.428 1.68175 -3.18191 0
M  V30 1310 C 122.036 0.798589 -4.40825 0
M  V30 1311 C 123.78 2.39065 -3.50782 0
M  V30 1312 C 121.687 1.56157 -5.70411 0
M  V30 1313 H 120.617 0.346317 -0.669762 0
M  V30 1314 H 123.268 0.170801 -1.82703 0
M  V30 1315 H 121.65 2.47216 -3.09354 0
M  V30 1316 H 122.824 0.0470665 -4.60776 0
M  V30 1317 H 121.139 0.200686 -4.15916 0
M  V30 1318 H 123.736 2.96692 -4.44835 0
M  V30 1319 H 124.079 3.13091 -2.74371 0
M  V30 1320 H 124.612 1.66993 -3.61052 0
M  V30 1321 H 121.351 0.864142 -6.49779 0
M  V30 1322 H 120.871 2.2871 -5.54483 0
M  V30 1323 H 122.55 2.11622 -6.11412 0
M  V30 1324 N 122.682 1.50554 0.465978 0
M  V30 1325 C 123.928 1.62038 1.21949 0
M  V30 1326 C 124.261 0.322116 1.9151 0
M  V30 1327 O 123.536 -0.676723 1.82348 0
M  V30 1328 C 123.819 2.80421 2.25912 0
M  V30 1329 C 123.672 4.20144 1.60622 0
M  V30 1330 C 124.991 2.94354 3.27176 0
M  V30 1331 H 122.11 0.589752 0.441998 0
M  V30 1332 H 124.752 1.82956 0.51257 0
M  V30 1333 H 122.902 2.62717 2.86203 0
M  V30 1334 H 124.574 4.49449 1.03889 0
M  V30 1335 H 122.817 4.24165 0.909211 0
M  V30 1336 H 123.488 4.98914 2.36196 0
M  V30 1337 H 125.964 3.10578 2.76913 0
M  V30 1338 H 124.84 3.788 3.97242 0
M  V30 1339 H 125.101 2.05186 3.916 0
M  V30 1340 N 124.16 -0.719506 1.40217 0
M  V30 1341 C 125.437 -1.47221 1.28784 0
M  V30 1342 C 125.817 -2.10883 -0.0956067 0
M  V30 1343 O 125.165 -1.99833 -1.10811 0
M  V30 1344 C 125.375 -2.5111 2.42373 0
M  V30 1345 C 126.723 -3.17053 2.82423 0
M  V30 1346 O 127.747 -2.61429 2.41937 0
M  V30 1347 O 126.606 -4.17742 3.52355 0
M  V30 1348 H 123.7 -0.654491 0.50554 0
M  V30 1349 H 126.246 -0.752014 1.52128 0
M  V30 1350 H 125.018 -2.02556 3.34793 0
M  V30 1351 H 124.641 -3.3067 2.20778 0
M  V30 1352 N 125.638 -1.25649 -0.95132 0
M  V30 1353 C 126.915 -1.01361 -1.67288 0
M  V30 1354 C 127.295 0.459135 -2.06046 0
M  V30 1355 O 126.643 1.43723 -1.7764 0
M  V30 1356 C 126.853 -1.95256 -2.89268 0
M  V30 1357 C 128.201 -2.23289 -3.61147 0
M  V30 1358 O 129.225 -1.93041 -2.99355 0
M  V30 1359 O 128.084 -2.74741 -4.72419 0
M  V30 1360 H 125.178 -0.38464 -0.732107 0
M  V30 1361 H 127.724 -1.36817 -1.00395 0
M  V30 1362 H 126.496 -2.94685 -2.57442 0
M  V30 1363 H 126.119 -1.60218 -3.6389 0
M  V30 1364 N 127.117 1.15442 -1.07289 0
M  V30 1365 C 128.047 2.22312 -0.714107 0
M  V30 1366 C 129.028 1.67467 0.298155 0
M  V30 1367 O 130.213 1.93445 0.171048 0
M  V30 1368 C 127.343 3.47124 -0.110448 0
M  V30 1369 C 126.297 4.14926 -1.04979 0
M  V30 1370 C 125.623 5.33807 -0.308924 0
M  V30 1371 C 126.923 4.64762 -2.38314 0
M  V30 1372 H 128.617 2.5258 -1.6076 0
M  V30 1373 H 126.163 1.21404 -0.77441 0
M  V30 1374 H 128.116 4.21124 0.152482 0
M  V30 1375 H 126.84 3.16187 0.81812 0
M  V30 1376 H 125.499 3.42866 -1.29764 0
M  V30 1377 H 125.147 4.99126 0.623084 0
M  V30 1378 H 124.847 5.80113 -0.935036 0
M  V30 1379 H 126.371 6.10576 -0.0537771 0
M  V30 1380 H 127.785 5.30292 -2.1786 0
M  V30 1381 H 126.182 5.21728 -2.96514 0
M  V30 1382 H 127.252 3.80434 -3.00663 0
M  V30 1383 N 128.595 0.856903 1.32268 0
M  V30 1384 C 129.841 0.462069 1.97466 0
M  V30 1385 C 130.174 -0.980298 1.67642 0
M  V30 1386 O 129.449 -1.68824 0.965858 0
M  V30 1387 C 129.732 0.704336 3.53145 0
M  V30 1388 C 129.585 2.19529 3.9259 0
M  V30 1389 C 130.904 0.1622 4.39801 0
M  V30 1390 H 128.023 0.169357 0.717278 0
M  V30 1391 H 130.665 1.07574 1.56614 0
M  V30 1392 H 128.815 0.181999 3.88073 0
M  V30 1393 H 130.487 2.78387 3.67829 0
M  V30 1394 H 128.73 2.67292 3.41668 0
M  V30 1395 H 129.401 2.31549 5.01088 0
M  V30 1396 H 131.877 0.608905 4.11621 0
M  V30 1397 H 130.753 0.361265 5.4771 0
M  V30 1398 H 131.014 -0.935158 4.32096 0
M  V30 1399 N 130.073 -1.45103 0.615059 0
M  V30 1400 C 130.983 -2.34382 -0.101034 0
M  V30 1401 C 131.999 -1.51681 -0.852585 0
M  V30 1402 O 133.175 -1.8446 -0.808484 0
M  V30 1403 C 130.24 -3.29417 -1.08099 0
M  V30 1404 C 129.301 -4.28025 -0.330577 0
M  V30 1405 C 128.534 -5.1852 -1.26385 0
M  V30 1406 O 128.757 -5.12598 -2.50198 0
M  V30 1407 O 127.691 -5.97122 -0.756866 0
M  V30 1408 H 131.517 -2.97033 0.632855 0
M  V30 1409 H 129.102 -1.4461 0.375293 0
M  V30 1410 H 130.984 -3.87958 -1.6452 0
M  V30 1411 H 129.659 -2.69321 -1.79577 0
M  V30 1412 H 128.566 -3.73078 0.276283 0
M  V30 1413 H 129.899 -4.90997 0.343866 0
M  V30 1414 N 131.551 -0.354651 -1.53558 0
M  V30 1415 C 132.791 0.238651 -2.03002 0
M  V30 1416 C 133.155 1.46878 -1.23656 0
M  V30 1417 O 134.356 2.13699 -1.63053 0
M  V30 1418 C 132.627 0.534175 -3.53386 0
M  V30 1419 S 134.186 1.10271 -4.24719 0
M  V30 1420 H 131.004 0.0702908 -0.707517 0
M  V30 1421 H 133.606 -0.494987 -1.8913 0
M  V30 1422 H 132.31 -0.368765 -4.0874 0
M  V30 1423 H 131.841 1.29718 -3.71398 0
M  V30 1424 H 133.856 2.38772 -4.34974 0
M  V30 1425 N 133.029 1.57378 -0.0835403 0
M  V30 1426 C 134.275 1.94217 0.583733 0
M  V30 1427 C 134.608 0.964653 1.68547 0
M  V30 1428 O 133.883 -0.00422258 1.945 0
M  V30 1429 C 134.166 3.41253 1.14972 0
M  V30 1430 C 134.019 4.49768 0.0538277 0
M  V30 1431 C 135.338 3.89352 2.05166 0
M  V30 1432 H 132.457 0.706233 0.210724 0
M  V30 1433 H 135.099 1.89392 -0.1519 0
M  V30 1434 H 133.249 3.45496 1.77665 0
M  V30 1435 H 134.921 4.57641 -0.579851 0
M  V30 1436 H 133.164 4.29432 -0.614068 0
M  V30 1437 H 133.835 5.49817 0.490452 0
M  V30 1438 H 136.311 3.87189 1.52393 0
M  V30 1439 H 135.187 4.92822 2.41698 0
M  V30 1440 H 135.448 3.27973 2.96456 0
M  V30 1441 N 134.507 -0.190092 1.56449 0
M  V30 1442 C 135.454 -1.23557 1.94942 0
M  V30 1443 C 136.424 -1.44972 0.810696 0
M  V30 1444 O 137.609 -1.58023 1.06927 0
M  V30 1445 C 134.749 -2.57416 2.2985 0
M  V30 1446 C 133.862 -2.43537 3.5681 0
M  V30 1447 C 132.997 -3.70134 3.81017 0
M  V30 1448 C 132.036 -3.51109 5.01387 0
M  V30 1449 N 131.173 -4.6973 5.21822 0
M  V30 1450 H 136.013 -0.900304 2.84075 0
M  V30 1451 H 133.55 -0.43318 1.40577 0
M  V30 1452 H 135.508 -3.35409 2.48106 0
M  V30 1453 H 134.138 -2.88975 1.43852 0
M  V30 1454 H 133.19 -1.56816 3.46573 0
M  V30 1455 H 134.502 -2.25415 4.4496 0
M  V30 1456 H 133.656 -4.56566 3.9954 0
M  V30 1457 H 132.395 -3.91215 2.91207 0
M  V30 1458 H 131.4 -2.63063 4.82782 0
M  V30 1459 H 132.625 -3.31468 5.9271 0
M  V30 1460 H 130.571 -4.91065 4.34961 0
M  V30 1461 H 130.488 -4.54452 6.0416 0
M  V30 1462 H 131.756 -5.57499 5.44808 0
M  V30 1463 N 135.985 -1.50799 -0.457987 0
M  V30 1464 C 136.895 -1.73426 -1.57989 0
M  V30 1465 C 137.911 -0.617745 -1.62665 0
M  V30 1466 O 139.087 -0.897614 -1.80291 0
M  V30 1467 C 136.152 -1.83557 -2.94122 0
M  V30 1468 C 135.213 -3.07345 -2.99729 0
M  V30 1469 C 134.446 -3.16983 -4.29368 0
M  V30 1470 O 134.669 -2.33077 -5.20607 0
M  V30 1471 O 133.603 -4.09812 -4.40837 0
M  V30 1472 H 137.429 -2.68555 -1.41817 0
M  V30 1473 H 135.014 -1.35052 -0.638859 0
M  V30 1474 H 136.896 -1.92326 -3.74952 0
M  V30 1475 H 135.571 -0.916137 -3.10465 0
M  V30 1476 H 134.478 -3.04068 -2.1793 0
M  V30 1477 H 135.811 -3.9891 -2.88326 0
M  V30 1478 N 137.463 0.71206 -1.40597 0
M  V30 1479 C 138.411 1.84746 -1.41321 0
M  V30 1480 C 139.405 1.66842 -0.293268 0
M  V30 1481 O 140.611 1.73904 -0.464481 0
M  V30 1482 H 136.986 0.608522 -0.441819 0
M  V30 1483 H 138.957 1.81252 -2.37045 0
M  V30 1484 C 137.706 3.22638 -1.29614 0
M  V30 1485 H 137.029 3.37023 -2.15071 0
M  V30 1486 H 138.469 4.02209 -1.3418 0
M  V30 1487 C 136.928 3.36899 -0.00673121 0
M  V30 1488 O 137.458 3.90186 0.954859 0
M  V30 1489 N 135.664 2.9053 0.0639327 0
M  V30 1490 H 135.211 2.47353 -0.719311 0
M  V30 1491 H 135.169 3.0045 0.926118 0
M  V30 1492 N 138.941 1.26152 0.944643 0
M  V30 1493 C 140.166 1.14363 1.7302 0
M  V30 1494 C 140.591 -0.29772 1.85729 0
M  V30 1495 O 139.949 -1.2157 1.34501 0
M  V30 1496 C 139.997 1.81378 3.11664 0
M  V30 1497 O 139.101 1.10022 3.97453 0
M  V30 1498 H 138.442 0.398694 0.53098 0
M  V30 1499 H 140.972 1.66906 1.18337 0
M  V30 1500 H 140.982 1.88064 3.62072 0
M  V30 1501 H 139.657 2.86237 3.0173 0
M  V30 1502 H 138.234 1.11287 3.55907 0
M  V30 1503 N 140.419 -1.14872 1.07899 0
M  V30 1504 C 141.644 -1.90202 0.826926 0
M  V30 1505 C 142.069 -1.77774 -0.614664 0
M  V30 1506 O 141.427 -1.11431 -1.43013 0
M  V30 1507 C 141.475 -3.38352 1.24702 0
M  V30 1508 O 140.579 -4.10497 0.39575 0
M  V30 1509 H 139.92 -0.591968 0.300782 0
M  V30 1510 H 142.45 -1.45437 1.43907 0
M  V30 1511 H 142.46 -3.89156 1.22563 0
M  V30 1512 H 141.135 -3.46715 2.29698 0
M  V30 1513 H 139.712 -3.69796 0.480117 0
M  V30 1514 N 141.898 -0.863906 -1.31812 0
M  V30 1515 C 142.845 -0.313303 -2.28664 0
M  V30 1516 C 143.815 0.584868 -1.55462 0
M  V30 1517 O 145 0.517805 -1.83639 0
M  V30 1518 C 142.14 0.48441 -3.41683 0
M  V30 1519 C 141.253 -0.440594 -4.29747 0
M  V30 1520 C 140.388 0.370652 -5.29905 0
M  V30 1521 C 139.427 -0.551164 -6.09613 0
M  V30 1522 N 138.564 0.223462 -7.01744 0
M  V30 1523 H 143.404 -1.14444 -2.75148 0
M  V30 1524 H 140.941 -0.575769 -1.35364 0
M  V30 1525 H 142.899 0.962627 -4.05943 0
M  V30 1526 H 141.529 1.28029 -2.96325 0
M  V30 1527 H 140.581 -1.03724 -3.65986 0
M  V30 1528 H 141.893 -1.14767 -4.85417 0
M  V30 1529 H 141.047 0.911638 -5.99812 0
M  V30 1530 H 139.786 1.11105 -4.74876 0
M  V30 1531 H 138.791 -1.10396 -5.38603 0
M  V30 1532 H 140.016 -1.29032 -6.66729 0
M  V30 1533 H 137.962 0.946787 -6.49132 0
M  V30 1534 H 137.879 -0.424399 -7.54808 0
M  V30 1535 H 139.147 0.745876 -7.75923 0
M  V30 1536 N 143.376 1.44774 -0.622745 0
M  V30 1537 C 144.653 1.95522 -0.0551974 0
M  V30 1538 C 145.033 1.5649 1.41683 0
M  V30 1539 O 144.381 0.834848 2.12703 0
M  V30 1540 C 144.591 3.4796 -0.269242 0
M  V30 1541 C 145.939 4.24306 -0.158014 0
M  V30 1542 O 146.963 3.55637 -0.200162 0
M  V30 1543 O 145.822 5.46471 -0.0558693 0
M  V30 1544 H 142.916 0.826556 0.0271015 0
M  V30 1545 H 145.462 1.54866 -0.693864 0
M  V30 1546 H 144.234 3.6939 -1.29099 0
M  V30 1547 H 143.857 3.95543 0.403966 0
M  V30 1548 N 144.854 0.36279 1.53368 0
M  V30 1549 C 145.784 -0.476976 2.28576 0
M  V30 1550 C 146.765 -1.08631 1.30894 0
M  V30 1551 O 147.95 -1.10409 1.59761 0
M  V30 1552 C 145.08 -1.61828 3.07293 0
M  V30 1553 C 144.034 -1.13633 4.1264 0
M  V30 1554 C 143.36 -2.36766 4.79423 0
M  V30 1555 C 144.66 -0.223061 5.21823 0
M  V30 1556 H 146.354 0.150474 2.99022 0
M  V30 1557 H 143.9 0.0738103 1.43811 0
M  V30 1558 H 145.853 -2.21237 3.58653 0
M  V30 1559 H 144.577 -2.27292 2.34533 0
M  V30 1560 H 143.236 -0.564945 3.62221 0
M  V30 1561 H 142.884 -3.0068 4.03238 0
M  V30 1562 H 142.584 -2.05192 5.50609 0
M  V30 1563 H 144.108 -2.96865 5.33576 0
M  V30 1564 H 145.522 -0.724545 5.68703 0
M  V30 1565 H 143.919 0.001678 6.001 0
M  V30 1566 H 144.989 0.735553 4.79289 0
M  V30 1567 N 146.332 -1.57332 0.0918853 0
M  V30 1568 C 147.279 -2.13847 -0.868211 0
M  V30 1569 C 148.249 -1.05618 -1.28196 0
M  V30 1570 O 149.434 -1.33387 -1.36427 0
M  V30 1571 C 146.574 -2.72062 -2.12312 0
M  V30 1572 C 145.687 -3.94514 -1.7602 0
M  V30 1573 C 144.822 -4.40903 -2.96273 0
M  V30 1574 C 143.861 -5.55953 -2.56092 0
M  V30 1575 N 142.998 -5.97209 -3.69169 0
M  V30 1576 H 147.838 -2.95575 -0.379406 0
M  V30 1577 H 145.375 -1.46048 -0.175606 0
M  V30 1578 H 147.333 -3.03931 -2.858 0
M  V30 1579 H 145.963 -1.93068 -2.58698 0
M  V30 1580 H 145.015 -3.68979 -0.925135 0
M  V30 1581 H 146.327 -4.7802 -1.42472 0
M  V30 1582 H 145.481 -4.74539 -3.78018 0
M  V30 1583 H 144.22 -3.56291 -3.33029 0
M  V30 1584 H 143.225 -5.21948 -1.72773 0
M  V30 1585 H 144.45 -6.42311 -2.20484 0
M  V30 1586 H 142.396 -5.15543 -4.05649 0
M  V30 1587 H 142.313 -6.75504 -3.39456 0
M  V30 1588 H 143.581 -6.35475 -4.51434 0
M  V30 1589 N 147.81 0.181792 -1.56548 0
M  V30 1590 C 148.757 1.22521 -1.95595 0
M  V30 1591 C 149.727 1.4454 -0.818373 0
M  V30 1592 O 150.912 1.57454 -1.07763 0
M  V30 1593 C 148.052 2.56193 -2.31212 0
M  V30 1594 C 147.165 2.41641 -3.58097 0
M  V30 1595 C 146.3 3.68108 -3.82975 0
M  V30 1596 C 145.339 3.48445 -5.03242 0
M  V30 1597 N 144.476 4.66956 -5.24306 0
M  V30 1598 H 149.316 0.885226 -2.84548 0
M  V30 1599 H 146.853 0.425718 -1.40805 0
M  V30 1600 H 148.811 3.34088 -2.49882 0
M  V30 1601 H 147.441 2.88208 -1.45382 0
M  V30 1602 H 146.493 1.54976 -3.474 0
M  V30 1603 H 147.805 2.23052 -4.46149 0
M  V30 1604 H 146.959 4.54441 -4.01956 0
M  V30 1605 H 145.698 3.89666 -2.93278 0
M  V30 1606 H 144.703 2.60499 -4.8417 0
M  V30 1607 H 145.928 3.2832 -5.9446 0
M  V30 1608 H 143.874 4.88752 -4.37559 0
M  V30 1609 H 143.791 4.51242 -6.06561 0
M  V30 1610 H 145.059 5.54602 -5.47756 0
M  V30 1611 N 149.288 1.51039 0.449983 0
M  V30 1612 C 150.513 1.6715 1.22783 0
M  V30 1613 C 150.938 0.363081 1.84563 0
M  V30 1614 O 150.296 -0.675433 1.68249 0
M  V30 1615 C 150.344 2.77985 2.29689 0
M  V30 1616 O 149.448 2.40707 3.34864 0
M  V30 1617 H 148.789 0.557746 0.360299 0
M  V30 1618 H 151.319 1.97535 0.533005 0
M  V30 1619 H 151.329 3.01693 2.74673 0
M  V30 1620 H 150.004 3.72935 1.84098 0
M  V30 1621 H 148.581 2.27523 2.95445 0
M  V30 1622 N 150.766 -0.704594 1.40972 0
M  V30 1623 C 152.013 -1.46458 1.39844 0
M  V30 1624 C 152.341 -1.94499 0.00447594 0
M  V30 1625 O 151.596 -1.69275 -0.982057 0
M  V30 1626 C 151.895 -2.698 2.34399 0
M  V30 1627 C 151.561 -2.40464 3.81429 0
M  V30 1628 C 150.223 -2.32174 4.21484 0
M  V30 1629 C 152.575 -2.16086 4.74296 0
M  V30 1630 C 149.903 -1.97589 5.52427 0
M  V30 1631 C 152.255 -1.83011 6.05549 0
M  V30 1632 C 150.919 -1.7321 6.44635 0
M  V30 1633 H 150.189 -0.535927 0.511725 0
M  V30 1634 H 152.836 -0.806124 1.73706 0
M  V30 1635 H 151.141 -3.40536 1.93759 0
M  V30 1636 H 152.838 -3.27919 2.30804 0
M  V30 1637 H 149.428 -2.47808 3.49699 0
M  V30 1638 H 153.612 -2.2144 4.4416 0
M  V30 1639 H 148.868 -1.88547 5.81601 0
M  V30 1640 H 153.042 -1.63164 6.77016 0
M  V30 1641 H 150.669 -1.46179 7.46013 0
M  V30 1642 N 152.244 -1.26651 -0.937939 0
M  V30 1643 C 153.191 -1.0849 -2.03712 0
M  V30 1644 C 154.161 0.011033 -1.66096 0
M  V30 1645 O 155.346 -0.149353 -1.90215 0
M  V30 1646 C 152.486 -0.72735 -3.37348 0
M  V30 1647 C 151.599 -1.89986 -3.87981 0
M  V30 1648 C 150.734 -1.48513 -5.10017 0
M  V30 1649 C 149.773 -2.62575 -5.5292 0
M  V30 1650 N 148.91 -2.21762 -6.66158 0
M  V30 1651 H 153.75 -2.02551 -2.18579 0
M  V30 1652 H 151.287 -1.00844 -1.07093 0
M  V30 1653 H 153.245 -0.50092 -4.14182 0
M  V30 1654 H 151.875 0.176298 -3.22318 0
M  V30 1655 H 150.927 -2.23913 -3.07518 0
M  V30 1656 H 152.239 -2.75586 -4.15757 0
M  V30 1657 H 151.393 -1.21934 -5.94321 0
M  V30 1658 H 150.132 -0.60009 -4.83994 0
M  V30 1659 H 149.137 -2.8988 -4.67172 0
M  V30 1660 H 150.362 -3.51685 -5.80943 0
M  V30 1661 H 148.308 -1.35696 -6.41812 0
M  V30 1662 H 148.225 -3.00903 -6.93537 0
M  V30 1663 H 149.493 -1.98403 -7.53828 0
M  V30 1664 N 153.722 1.14298 -1.08507 0
M  V30 1665 C 154.947 1.8976 -0.837001 0
M  V30 1666 C 155.372 1.78097 0.605228 0
M  V30 1667 O 154.73 1.12188 1.4242 0
M  V30 1668 C 154.778 3.37685 -1.26495 0
M  V30 1669 O 153.882 4.10281 -0.417514 0
M  V30 1670 H 153.223 0.590365 -0.303917 0
M  V30 1671 H 155.753 1.44672 -1.44676 0
M  V30 1672 H 155.763 3.88501 -1.24625 0
M  V30 1673 H 154.438 3.45492 -2.31534 0
M  V30 1674 H 153.015 3.69536 -0.499722 0
M  V30 1675 N 155.201 0.870884 1.31352 0
M  V30 1676 C 156.612 0.534714 1.78879 0
M  V30 1677 C 156.963 -0.948423 1.71754 0
M  V30 1678 O 156.088 -1.74055 1.28584 0
M  V30 1679 C 156.683 0.963839 3.24801 0
M  V30 1680 C 155.242 0.679311 3.70219 0
M  V30 1681 C 154.389 1.15465 2.52117 0
M  V30 1682 H 157.34 1.05651 1.18421 0
M  V30 1683 H 157.361 0.286892 3.79417 0
M  V30 1684 H 156.873 2.04332 3.29955 0
M  V30 1685 H 154.974 -0.388769 3.70566 0
M  V30 1686 H 155.087 1.25698 4.62317 0
M  V30 1687 H 153.451 0.574383 2.48139 0
M  V30 1688 H 154.234 2.24157 2.60016 0
M  V30 1689 N 156.679 -1.44442 0.630414 0
M  V30 1690 C 157.589 -2.34476 -0.0761693 0
M  V30 1691 C 158.605 -1.52576 -0.836449 0
M  V30 1692 O 159.781 -1.85307 -0.788874 0
M  V30 1693 C 156.846 -3.30545 -1.04599 0
M  V30 1694 C 155.907 -4.28352 -0.28516 0
M  V30 1695 C 155.14 -5.19831 -1.20878 0
M  V30 1696 O 155.363 -5.15223 -2.44747 0
M  V30 1697 O 154.297 -5.97892 -0.693491 0
M  V30 1698 H 158.123 -2.96345 0.664324 0
M  V30 1699 H 155.708 -1.44203 0.39061 0
M  V30 1700 H 157.59 -3.89681 -1.60396 0
M  V30 1701 H 156.265 -2.7121 -1.76711 0
M  V30 1702 H 155.172 -3.72764 0.315837 0
M  V30 1703 H 156.505 -4.90605 0.395924 0
M  V30 1704 N 158.157 -0.370918 -1.53173 0
M  V30 1705 C 159.568 0.107139 -1.86392 0
M  V30 1706 C 159.919 1.47714 -1.29132 0
M  V30 1707 O 159.044 2.07464 -0.615439 0
M  V30 1708 C 159.639 0.201187 -3.38202 0
M  V30 1709 C 158.198 0.623507 -3.712 0
M  V30 1710 C 157.345 -0.225978 -2.76378 0
M  V30 1711 H 160.296 -0.58951 -1.47345 0
M  V30 1712 H 160.317 1.02377 -3.66468 0
M  V30 1713 H 159.829 -0.796058 -3.79848 0
M  V30 1714 H 157.93 1.62879 -3.35114 0
M  V30 1715 H 158.043 0.394414 -4.77474 0
M  V30 1716 H 156.407 0.305962 -2.52856 0
M  V30 1717 H 157.19 -1.22086 -3.20858 0
M  V30 1718 N 159.635 1.57281 -0.100228 0
M  V30 1719 C 161.051 1.57527 0.256416 0
M  V30 1720 C 161.251 1.11173 1.68056 0
M  V30 1721 O 160.307 0.79053 2.39806 0
M  V30 1722 C 161.62 3.00673 0.0401747 0
M  V30 1723 C 163.168 3.12815 0.107528 0
M  V30 1724 C 163.643 4.57929 -0.0807834 0
M  V30 1725 N 165.134 4.63193 -0.0261207 0
M  V30 1726 C 165.869 5.73212 -0.146999 0
M  V30 1727 N 165.365 6.92047 -0.322999 0
M  V30 1728 N 167.158 5.62031 -0.0879044 0
M  V30 1729 H 159.309 1.85718 -1.03065 0
M  V30 1730 H 161.572 0.857446 -0.404339 0
M  V30 1731 H 161.278 3.38804 -0.943649 0
M  V30 1732 H 161.152 3.69042 0.780262 0
M  V30 1733 H 163.539 2.74554 1.08186 0
M  V30 1734 H 163.62 2.47028 -0.664134 0
M  V30 1735 H 163.264 4.96886 -1.05201 0
M  V30 1736 H 163.194 5.21783 0.710635 0
M  V30 1737 H 165.685 3.77748 0.107161 0
M  V30 1738 H 165.998 7.7173 -0.406608 0
M  V30 1739 H 164.343 6.94074 -0.358733 0
M  V30 1740 H 167.534 4.68075 0.048498 0
M  V30 1741 H 167.707 6.47734 -0.185557 0
M  V30 1742 N 161.113 -0.173488 1.56642 0
M  V30 1743 C 162.043 -1.2171 1.99271 0
M  V30 1744 C 163.024 -1.46289 0.867959 0
M  V30 1745 O 164.209 -1.5766 1.13388 0
M  V30 1746 C 161.339 -2.55651 2.35074 0
M  V30 1747 C 160.293 -2.45645 3.50489 0
M  V30 1748 C 159.619 -3.84056 3.72028 0
M  V30 1749 C 160.919 -1.96302 4.84007 0
M  V30 1750 H 162.613 -0.86275 2.867 0
M  V30 1751 H 160.159 -0.413571 1.37933 0
M  V30 1752 H 162.112 -3.2886 2.63494 0
M  V30 1753 H 160.836 -2.92869 1.44552 0
M  V30 1754 H 159.495 -1.7489 3.22194 0
M  V30 1755 H 159.143 -4.18664 2.788 0
M  V30 1756 H 158.843 -3.7823 4.49684 0
M  V30 1757 H 160.367 -4.58854 4.02846 0
M  V30 1758 H 161.781 -2.59284 5.11317 0
M  V30 1759 H 160.178 -2.01429 5.65284 0
M  V30 1760 H 161.248 -0.917226 4.76146 0
M  V30 1761 N 162.591 -1.51276 -0.441967 0
M  V30 1762 C 163.838 -1.63715 -1.19179 0
M  V30 1763 C 164.166 -0.351175 -1.91303 0
M  V30 1764 O 163.421 0.664524 -1.84072 0
M  V30 1765 C 163.72 -2.78746 -2.23686 0
M  V30 1766 C 163.386 -4.18189 -1.68607 0
M  V30 1767 C 162.048 -4.56125 -1.53308 0
M  V30 1768 C 164.4 -5.05222 -1.28062 0
M  V30 1769 C 161.728 -5.78804 -0.959317 0
M  V30 1770 C 164.08 -6.28476 -0.721162 0
M  V30 1771 C 162.744 -6.65188 -0.55504 0
M  V30 1772 H 162.014 -0.599076 -0.436106 0
M  V30 1773 H 164.661 -1.85296 -0.48351 0
M  V30 1774 H 162.966 -2.51369 -3.00535 0
M  V30 1775 H 164.663 -2.8557 -2.81515 0
M  V30 1776 H 161.253 -3.88277 -1.8149 0
M  V30 1777 H 165.437 -4.76524 -1.38704 0
M  V30 1778 H 160.693 -6.05899 -0.81833 0
M  V30 1779 H 164.867 -6.95259 -0.398458 0
M  V30 1780 H 162.494 -7.60123 -0.108311 0
M  V30 1781 N 164.069 0.697108 -1.41344 0
M  V30 1782 C 165.297 1.48593 -1.43972 0
M  V30 1783 C 165.712 1.88747 -0.0445612 0
M  V30 1784 O 165.069 1.56682 0.935785 0
M  V30 1785 C 165.12 2.74946 -2.34706 0
M  V30 1786 O 164.841 2.36484 -3.68791 0
M  V30 1787 C 166.342 3.687 -2.46121 0
M  V30 1788 H 163.562 0.457964 -0.490418 0
M  V30 1789 H 166.106 0.858429 -1.8561 0
M  V30 1790 H 164.261 3.33937 -1.9638 0
M  V30 1791 H 164.675 3.17918 -4.17167 0
M  V30 1792 H 166.149 4.54145 -3.13777 0
M  V30 1793 H 166.626 4.13081 -1.49199 0
M  V30 1794 H 167.232 3.15613 -2.85076 0
M  V30 1795 N 165.547 1.27147 0.931209 0
M  V30 1796 C 166.958 1.12044 1.49342 0
M  V30 1797 C 167.309 -0.295795 1.93957 0
M  V30 1798 O 166.434 -1.18835 1.80852 0
M  V30 1799 C 167.029 2.02781 2.71414 0
M  V30 1800 C 165.588 1.91794 3.2387 0
M  V30 1801 C 164.735 1.95543 1.96617 0
M  V30 1802 H 167.686 1.40091 0.745672 0
M  V30 1803 H 167.707 1.58156 3.46074 0
M  V30 1804 H 167.219 3.05848 2.38911 0
M  V30 1805 H 165.32 0.916992 3.6114 0
M  V30 1806 H 165.433 2.77852 3.90302 0
M  V30 1807 H 163.797 1.39722 2.12955 0
M  V30 1808 H 164.58 3.00259 1.66432 0
M  V30 1809 N 167.025 -1.13721 1.09112 0
M  V30 1810 C 167.935 -2.22638 0.73957 0
M  V30 1811 C 168.951 -1.72091 -0.257068 0
M  V30 1812 O 170.127 -2.01155 -0.0992154 0
M  V30 1813 C 167.192 -3.46322 0.16191 0
M  V30 1814 C 166.253 -4.11775 1.21408 0
M  V30 1815 C 165.486 -5.29555 0.663891 0
M  V30 1816 O 165.709 -5.68077 -0.514274 0
M  V30 1817 O 164.643 -5.84973 1.41738 0
M  V30 1818 H 168.469 -2.55074 1.64836 0
M  V30 1819 H 166.054 -1.21791 0.865289 0
M  V30 1820 H 167.936 -4.21107 -0.157073 0
M  V30 1821 H 166.611 -3.15593 -0.719932 0
M  V30 1822 H 165.518 -3.3883 1.58571 0
M  V30 1823 H 166.851 -4.46627 2.06845 0
M  V30 1824 N 168.503 -0.877838 -1.30888 0
M  V30 1825 C 169.413 -0.343096 -2.32078 0
M  V30 1826 C 170.429 0.551022 -1.65045 0
M  V30 1827 O 171.605 0.445854 -1.96403 0
M  V30 1828 C 168.67 0.439905 -3.43898 0
M  V30 1829 C 167.731 -0.483111 -4.26573 0
M  V30 1830 C 166.964 0.262616 -5.33053 0
M  V30 1831 O 167.187 1.48967 -5.50604 0
M  V30 1832 O 166.121 -0.383593 -6.00676 0
M  V30 1833 H 169.947 -1.18203 -2.79753 0
M  V30 1834 H 167.532 -0.64145 -1.34929 0
M  V30 1835 H 169.414 0.883504 -4.12034 0
M  V30 1836 H 168.089 1.25526 -2.98371 0
M  V30 1837 H 166.996 -0.975374 -3.61161 0
M  V30 1838 H 168.329 -1.26427 -4.75686 0
M  V30 1839 N 169.982 1.44106 -0.638065 0
M  V30 1840 C 171.229 2.01978 -0.14533 0
M  V30 1841 C 171.557 1.50234 1.23532 0
M  V30 1842 O 170.812 0.679548 1.83523 0
M  V30 1843 C 171.111 3.5729 -0.0887327 0
M  V30 1844 C 170.777 4.28317 -1.40909 0
M  V30 1845 C 169.439 4.47437 -1.77069 0
M  V30 1846 C 171.791 4.6867 -2.28031 0
M  V30 1847 C 169.119 5.04171 -3.00047 0
M  V30 1848 C 171.471 5.26766 -3.50286 0
M  V30 1849 C 170.135 5.44104 -3.86661 0
M  V30 1850 H 169.405 0.739089 -0.0531801 0
M  V30 1851 H 172.052 1.72781 -0.825761 0
M  V30 1852 H 170.357 3.8594 0.675095 0
M  V30 1853 H 172.054 3.99807 0.309145 0
M  V30 1854 H 168.644 4.1377 -1.1177 0
M  V30 1855 H 172.828 4.53604 -2.01388 0
M  V30 1856 H 168.084 5.15782 -3.28298 0
M  V30 1857 H 172.258 5.56983 -4.18023 0
M  V30 1858 H 169.885 5.87832 -4.82034 0
M  V30 1859 N 171.46 0.379036 1.52974 0
M  V30 1860 C 172.707 -0.206421 2.01445 0
M  V30 1861 C 173.035 -1.47668 1.26587 0
M  V30 1862 O 172.29 -1.92514 0.351675 0
M  V30 1863 C 172.589 -0.53096 3.53434 0
M  V30 1864 C 172.255 0.646546 4.46241 0
M  V30 1865 C 170.917 0.969604 4.7133 0
M  V30 1866 C 173.269 1.43479 5.01062 0
M  V30 1867 C 170.597 2.08263 5.48492 0
M  V30 1868 C 172.949 2.53834 5.7944 0
M  V30 1869 C 171.613 2.86659 6.02812 0
M  V30 1870 H 170.883 -0.0755349 0.73714 0
M  V30 1871 H 173.53 0.514271 1.84465 0
M  V30 1872 H 171.835 -1.33285 3.68432 0
M  V30 1873 H 173.532 -0.996417 3.88423 0
M  V30 1874 H 170.122 0.384734 4.2687 0
M  V30 1875 H 174.306 1.19844 4.81613 0
M  V30 1876 H 169.562 2.34078 5.64816 0
M  V30 1877 H 173.736 3.15319 6.20924 0
M  V30 1878 H 171.363 3.73026 6.62387 0
M  V30 1879 N 172.938 -1.57226 0.108567 0
M  V30 1880 C 174.354 -1.5766 -0.248058 0
M  V30 1881 C 174.554 -1.12063 -1.67464 0
M  V30 1882 O 173.61 -0.803236 -2.39383 0
M  V30 1883 C 174.923 -3.0069 -0.0242287 0
M  V30 1884 C 176.471 -3.12868 -0.0909372 0
M  V30 1885 C 176.946 -4.57879 0.105067 0
M  V30 1886 N 178.437 -4.63172 0.0506846 0
M  V30 1887 C 179.172 -5.73126 0.177396 0
M  V30 1888 N 178.668 -6.91866 0.359696 0
M  V30 1889 N 180.461 -5.61977 0.117709 0
M  V30 1890 H 172.612 -1.85169 1.04049 0
M  V30 1891 H 174.875 -0.85529 0.40888 0
M  V30 1892 H 174.581 -3.38299 0.961604 0
M  V30 1893 H 174.455 -3.6945 -0.76068 0
M  V30 1894 H 176.842 -2.75124 -1.06729 0
M  V30 1895 H 176.923 -2.46672 0.677225 0
M  V30 1896 H 176.567 -4.96321 1.07834 0
M  V30 1897 H 176.497 -5.22153 -0.682954 0
M  V30 1898 H 178.988 -3.778 -0.0871266 0
M  V30 1899 H 179.301 -7.71503 0.447529 0
M  V30 1900 H 177.646 -6.93874 0.395536 0
M  V30 1901 H 180.837 -4.68094 -0.0236741 0
M  V30 1902 H 181.01 -6.47627 0.219905 0
M  V30 1903 N 174.416 0.165178 -1.56732 0
M  V30 1904 C 175.665 0.879143 -1.81532 0
M  V30 1905 C 175.978 1.83144 -0.686842 0
M  V30 1906 O 177.184 2.58823 -0.819944 0
M  V30 1907 C 175.64 1.61388 -3.21686 0
M  V30 1908 C 175.248 0.704904 -4.4242 0
M  V30 1909 C 176.992 2.3157 -3.55774 0
M  V30 1910 C 174.899 1.44022 -5.73595 0
M  V30 1911 H 173.829 0.332033 -0.676957 0
M  V30 1912 H 176.48 0.132008 -1.83025 0
M  V30 1913 H 174.862 2.40599 -3.14529 0
M  V30 1914 H 176.036 -0.0506815 -4.60772 0
M  V30 1915 H 174.351 0.112419 -4.16248 0
M  V30 1916 H 176.948 2.8719 -4.51028 0
M  V30 1917 H 177.291 3.07201 -2.8095 0
M  V30 1918 H 177.824 1.59297 -3.64513 0
M  V30 1919 H 174.563 0.72612 -6.51466 0
M  V30 1920 H 174.083 2.16898 -5.5921 0
M  V30 1921 H 175.762 1.98606 -6.15764 0
M  V30 1922 N 175.894 1.51508 0.433938 0
M  V30 1923 C 177.141 1.64345 1.18309 0
M  V30 1924 C 177.469 0.361315 1.91115 0
M  V30 1925 O 176.724 -0.654753 1.84422 0
M  V30 1926 C 177.023 2.79928 2.22205 0
M  V30 1927 C 176.689 4.19078 1.66387 0
M  V30 1928 C 175.351 4.56932 1.50887 0
M  V30 1929 C 177.703 5.05894 1.25381 0
M  V30 1930 C 175.031 5.79305 0.928608 0
M  V30 1931 C 177.383 6.2885 0.687823 0
M  V30 1932 C 176.047 6.65473 0.519755 0
M  V30 1933 H 175.317 0.601381 0.432923 0
M  V30 1934 H 177.964 1.85549 0.473676 0
M  V30 1935 H 176.269 2.52959 2.99197 0
M  V30 1936 H 177.966 2.87059 2.79997 0
M  V30 1937 H 174.556 3.89234 1.79428 0
M  V30 1938 H 178.74 4.77253 1.36175 0
M  V30 1939 H 173.996 6.06324 0.786186 0
M  V30 1940 H 178.17 6.95461 0.361581 0
M  V30 1941 H 175.797 7.6017 0.0679979 0
M  V30 1942 N 177.372 -0.689602 1.41712 0
M  V30 1943 C 178.32 -1.82475 1.44242 0
M  V30 1944 C 179.314 -1.66354 0.319774 0
M  V30 1945 O 180.52 -1.73143 0.492089 0
M  V30 1946 H 176.895 -0.601416 0.451445 0
M  V30 1947 H 178.866 -1.77458 2.39899 0
M  V30 1948 C 177.615 -3.20535 1.3473 0
M  V30 1949 H 176.938 -3.33559 2.20405 0
M  V30 1950 H 178.378 -4.00023 1.40562 0
M  V30 1951 C 176.837 -3.36846 0.0603281 0
M  V30 1952 O 177.367 -3.91656 -0.892663 0
M  V30 1953 N 175.573 -2.90595 -0.0177039 0
M  V30 1954 H 175.12 -2.46178 0.758572 0
M  V30 1955 H 175.078 -3.01886 -0.878201 0
M  V30 1956 N 178.85 -1.27639 -0.924453 0
M  V30 1957 C 180.266 -1.05113 -1.20097 0
M  V30 1958 C 180.466 0.213262 -2.00368 0
M  V30 1959 O 179.522 0.91787 -2.35226 0
M  V30 1960 C 180.835 -2.29244 -1.94596 0
M  V30 1961 C 182.383 -2.34315 -2.07522 0
M  V30 1962 C 182.858 -3.58183 -2.85427 0
M  V30 1963 N 184.349 -3.5876 -2.92994 0
M  V30 1964 C 185.084 -4.51277 -3.53746 0
M  V30 1965 N 184.58 -5.54102 -4.15863 0
M  V30 1966 N 186.373 -4.38894 -3.51181 0
M  V30 1967 H 178.524 -2.08821 -0.388264 0
M  V30 1968 H 180.787 -0.918568 -0.234385 0
M  V30 1969 H 180.493 -3.21301 -1.43034 0
M  V30 1970 H 180.367 -2.34816 -2.95197 0
M  V30 1971 H 182.754 -1.42762 -2.58269 0
M  V30 1972 H 182.835 -2.32744 -1.06131 0
M  V30 1973 H 182.479 -4.50074 -2.35363 0
M  V30 1974 H 182.409 -3.57006 -3.8711 0
M  V30 1975 H 184.9 -2.84398 -2.4885 0
M  V30 1976 H 185.213 -6.20859 -4.60168 0
M  V30 1977 H 183.558 -5.57941 -4.144 0
M  V30 1978 H 186.749 -3.57772 -3.01856 0
M  V30 1979 H 186.922 -5.11186 -3.98237 0
M  V30 1980 N 180.328 1.1314 -1.09713 0
M  V30 1981 C 181.553 1.88862 -0.857081 0
M  V30 1982 C 181.978 1.78729 0.586304 0
M  V30 1983 O 181.336 1.13692 1.41222 0
M  V30 1984 C 181.384 3.36325 -1.30069 0
M  V30 1985 O 180.488 4.09815 -0.461007 0
M  V30 1986 H 179.829 0.587108 -0.310162 0
M  V30 1987 H 182.359 1.43129 -1.46203 0
M  V30 1988 H 182.369 3.87157 -1.28738 0
M  V30 1989 H 181.044 3.43017 -2.35185 0
M  V30 1990 H 179.621 3.68986 -0.538888 0
M  V30 1991 N 181.806 0.884767 1.30421 0
M  V30 1992 C 183.055 0.499164 1.95426 0
M  V30 1993 C 183.368 -0.95645 1.70621 0
M  V30 1994 O 184.574 -1.44889 2.29607 0
M  V30 1995 C 183.03 0.84177 3.49917 0
M  V30 1996 C 182.638 2.31514 3.83543 0
M  V30 1997 C 184.382 0.525355 4.21237 0
M  V30 1998 C 182.289 2.59939 5.31212 0
M  V30 1999 H 181.219 0.182944 0.73147 0
M  V30 2000 H 183.87 1.07971 1.48373 0
M  V30 2001 H 182.252 0.190311 3.95542 0
M  V30 2002 H 183.426 3.0109 3.48829 0
M  V30 2003 H 181.741 2.59907 3.25326 0
M  V30 2004 H 184.338 0.714762 5.29901 0
M  V30 2005 H 184.681 -0.535222 4.12845 0
M  V30 2006 H 185.214 1.134 3.81294 0
M  V30 2007 H 181.953 3.64736 5.44654 0
M  V30 2008 H 181.473 1.94972 5.67227 0
M  V30 2009 H 183.152 2.45429 5.98643 0
M  V30 2010 N 183.284 -1.43765 0.645699 0
M  V30 2011 C 184.561 -1.9541 0.0862963 0
M  V30 2012 C 184.941 -1.58725 -1.39175 0
M  V30 2013 O 184.289 -0.868581 -2.11348 0
M  V30 2014 C 184.499 -3.47488 0.324565 0
M  V30 2015 C 185.847 -4.24001 0.225497 0
M  V30 2016 O 186.871 -3.55274 0.256715 0
M  V30 2017 O 185.73 -5.46313 0.142801 0
M  V30 2018 H 182.824 -0.826882 -0.0139483 0
M  V30 2019 H 185.37 -1.53743 0.718415 0
M  V30 2020 H 184.142 -3.67289 1.3496 0
M  V30 2021 H 183.765 -3.96135 -0.340987 0
M  V30 2022 N 184.763 -0.387143 -1.52771 0
M  V30 2023 C 185.726 0.436939 -2.24997 0
M  V30 2024 C 186.726 0.991991 -1.26555 0
M  V30 2025 O 187.916 0.874335 -1.50669 0
M  V30 2026 C 185.048 1.61281 -3.00335 0
M  V30 2027 H 186.241 -0.195365 -2.99263 0
M  V30 2028 H 183.794 -0.139218 -1.55679 0
M  V30 2029 H 184.529 2.2826 -2.30364 0
M  V30 2030 H 184.314 1.22154 -3.72587 0
M  V30 2031 H 185.804 2.19629 -3.5518 0
M  V30 2032 N 186.241 1.57166 -0.116904 0
M  V30 2033 C 187.488 1.95123 0.541603 0
M  V30 2034 C 187.816 1.00006 1.6682 0
M  V30 2035 O 187.071 0.0235658 1.95686 0
M  V30 2036 C 187.37 3.39508 1.11664 0
M  V30 2037 C 187.036 4.50762 0.111606 0
M  V30 2038 C 185.698 4.80918 -0.164758 0
M  V30 2039 C 188.05 5.18036 -0.573438 0
M  V30 2040 C 185.378 5.75666 -1.13249 0
M  V30 2041 C 187.73 6.13824 -1.52978 0
M  V30 2042 C 186.394 6.42374 -1.81415 0
M  V30 2043 H 185.664 0.714005 0.198187 0
M  V30 2044 H 188.311 1.9048 -0.197365 0
M  V30 2045 H 186.616 3.40835 1.93232 0
M  V30 2046 H 188.313 3.66189 1.63422 0
M  V30 2047 H 184.903 4.27272 0.337192 0
M  V30 2048 H 189.087 4.94896 -0.373092 0
M  V30 2049 H 184.343 5.96092 -1.35958 0
M  V30 2050 H 188.517 6.65039 -2.06629 0
M  V30 2051 H 186.144 7.15599 -2.56557 0
M  V30 2052 N 187.719 -0.156864 1.56817 0
M  V30 2053 C 188.666 -1.19394 1.97519 0
M  V30 2054 C 189.636 -1.4322 0.841265 0
M  V30 2055 O 190.821 -1.55719 1.10255 0
M  V30 2056 C 187.961 -2.52483 2.35258 0
M  V30 2057 C 187.074 -2.35914 3.61896 0
M  V30 2058 C 186.209 -3.61969 3.88782 0
M  V30 2059 C 185.248 -3.40395 5.08722 0
M  V30 2060 N 184.385 -4.58556 5.31668 0
M  V30 2061 H 189.225 -0.839845 2.85921 0
M  V30 2062 H 186.762 -0.403264 1.41464 0
M  V30 2063 H 188.72 -3.30071 2.55165 0
M  V30 2064 H 187.35 -2.85859 1.49949 0
M  V30 2065 H 186.402 -1.49429 3.49821 0
M  V30 2066 H 187.714 -2.15926 4.49641 0
M  V30 2067 H 186.868 -4.47989 4.09135 0
M  V30 2068 H 185.607 -3.84951 2.9944 0
M  V30 2069 H 184.612 -2.52763 4.88253 0
M  V30 2070 H 185.837 -3.18822 5.99608 0
M  V30 2071 H 183.783 -4.81729 4.45279 0
M  V30 2072 H 183.7 -4.41535 6.13664 0
M  V30 2073 H 184.968 -5.45817 5.5651 0
M  V30 2074 N 189.197 -1.51736 -0.425897 0
M  V30 2075 C 190.474 -1.55519 -1.1863 0
M  V30 2076 C 190.854 -0.326219 -2.08564 0
M  V30 2077 O 190.202 0.688012 -2.17896 0
M  V30 2078 C 190.412 -2.87521 -1.9782 0
M  V30 2079 C 191.76 -3.39899 -2.54468 0
M  V30 2080 O 192.784 -2.89148 -2.08019 0
M  V30 2081 O 191.643 -4.2848 -3.39215 0
M  V30 2082 H 188.737 -0.625739 -0.540721 0
M  V30 2083 H 191.283 -1.64055 -0.434038 0
M  V30 2084 H 190.055 -3.68422 -1.31836 0
M  V30 2085 H 189.678 -2.822 -2.80088 0
M  V30 2086 N 190.675 0.682077 -1.42076 0
M  V30 2087 C 191.922 1.44215 -1.42156 0
M  V30 2088 C 192.25 1.94468 -0.0354186 0
M  V30 2089 O 191.505 1.70816 0.955002 0
M  V30 2090 C 191.804 2.66036 -2.38662 0
M  V30 2091 C 191.47 2.34366 -3.85206 0
M  V30 2092 C 190.132 2.25439 -4.25124 0
M  V30 2093 C 192.484 2.08513 -4.77673 0
M  V30 2094 C 189.812 1.88775 -5.55501 0
M  V30 2095 C 192.164 1.73354 -6.08384 0
M  V30 2096 C 190.828 1.62933 -6.47309 0
M  V30 2097 H 190.098 0.527718 -0.520187 0
M  V30 2098 H 192.745 0.778387 -1.74967 0
M  V30 2099 H 191.05 3.3741 -1.99152 0
M  V30 2100 H 192.747 3.24205 -2.35991 0
M  V30 2101 H 189.337 2.42213 -3.53597 0
M  V30 2102 H 193.521 2.14346 -4.47626 0
M  V30 2103 H 188.777 1.7927 -5.84527 0
M  V30 2104 H 192.951 1.52373 -6.79526 0
M  V30 2105 H 190.578 1.34292 -7.48244 0
M  V30 2106 N 192.153 1.28127 0.917671 0
M  V30 2107 C 193.399 1.15223 1.66888 0
M  V30 2108 C 193.732 -0.299293 1.9188 0
M  V30 2109 O 193.007 -1.21805 1.51637 0
M  V30 2110 C 193.29 1.94706 3.02922 0
M  V30 2111 C 193.143 3.47898 2.85109 0
M  V30 2112 C 194.462 1.75939 4.03402 0
M  V30 2113 H 191.581 0.419946 0.605652 0
M  V30 2114 H 194.223 1.57398 1.06423 0
M  V30 2115 H 192.373 1.58864 3.54534 0
M  V30 2116 H 194.045 3.93624 2.40537 0
M  V30 2117 H 192.288 3.7373 2.20246 0
M  V30 2118 H 192.959 3.98765 3.81694 0
M  V30 2119 H 195.435 2.07209 3.60837 0
M  V30 2120 H 194.311 2.33931 4.96556 0
M  V30 2121 H 194.572 0.709877 4.36364 0
M  V30 2122 N 193.631 -1.12557 1.10312 0
M  V30 2123 C 194.877 -1.84311 0.846011 0
M  V30 2124 C 195.21 -1.83805 -0.626859 0
M  V30 2125 O 194.485 -1.28268 -1.46211 0
M  V30 2126 C 194.768 -3.32048 1.39341 0
M  V30 2127 C 194.621 -3.41016 2.93305 0
M  V30 2128 C 195.94 -4.27764 1.03468 0
M  V30 2129 H 193.059 -0.669192 0.30879 0
M  V30 2130 H 195.701 -1.32057 1.36605 0
M  V30 2131 H 193.851 -3.76678 0.951087 0
M  V30 2132 H 195.523 -3.05031 3.46055 0
M  V30 2133 H 193.766 -2.81603 3.29973 0
M  V30 2134 H 194.437 -4.44948 3.26689 0
M  V30 2135 H 196.913 -3.91253 1.41633 0
M  V30 2136 H 195.789 -5.29549 1.44463 0
M  V30 2137 H 196.05 -4.42064 -0.0560404 0
M  V30 2138 N 195.109 -0.891671 -1.2995 0
M  V30 2139 C 196.072 -0.36828 -2.26222 0
M  V30 2140 C 197.072 0.493014 -1.53056 0
M  V30 2141 O 198.262 0.299213 -1.71611 0
M  V30 2142 C 195.394 0.47442 -3.37583 0
M  V30 2143 H 196.587 -1.21844 -2.74033 0
M  V30 2144 H 194.14 -0.669107 -1.41254 0
M  V30 2145 H 194.875 1.34489 -2.95099 0
M  V30 2146 H 194.66 -0.142615 -3.91841 0
M  V30 2147 H 196.15 0.83218 -4.09224 0
M  V30 2148 N 196.587 1.43421 -0.653314 0
M  V30 2149 C 197.812 2.06678 -0.172846 0
M  V30 2150 C 198.237 1.48648 1.15262 0
M  V30 2151 O 197.595 0.596457 1.71208 0
M  V30 2152 C 197.643 3.60474 -0.0953184 0
M  V30 2153 O 196.747 4.01487 0.942442 0
M  V30 2154 H 196.088 0.657181 -0.0949155 0
M  V30 2155 H 198.618 1.83925 -0.896265 0
M  V30 2156 H 198.628 4.07905 0.0879728 0
M  V30 2157 H 197.303 4.02088 -1.06291 0
M  V30 2158 H 195.88 3.65646 0.731932 0
M  V30 2159 N 198.065 0.39524 1.52563 0
M  V30 2160 C 198.975 -0.444232 2.30356 0
M  V30 2161 C 199.991 -1.06615 1.37511 0
M  V30 2162 O 201.167 -1.07067 1.70583 0
M  V30 2163 C 198.232 -1.55315 3.09964 0
M  V30 2164 C 197.293 -0.955734 4.18526 0
M  V30 2165 C 196.526 -2.01181 4.9433 0
M  V30 2166 O 196.749 -3.22781 4.70285 0
M  V30 2167 O 195.683 -1.62579 5.79527 0
M  V30 2168 H 199.509 0.189667 3.03107 0
M  V30 2169 H 197.094 0.1588 1.48554 0
M  V30 2170 H 198.976 -2.19724 3.59582 0
M  V30 2171 H 197.651 -2.17191 2.4002 0
M  V30 2172 H 196.558 -0.274743 3.7309 0
M  V30 2173 H 197.891 -0.381109 4.90722 0
M  V30 2174 N 199.544 -1.57102 0.125237 0
M  V30 2175 C 200.772 -1.99761 -0.538797 0
M  V30 2176 C 201.187 -1.00503 -1.59827 0
M  V30 2177 O 200.544 0.00119474 -1.825 0
M  V30 2178 C 200.595 -3.42408 -1.15927 0
M  V30 2179 O 200.316 -4.37869 -0.142143 0
M  V30 2180 C 201.817 -4.00232 -1.90602 0
M  V30 2181 H 199.037 -0.655772 -0.14214 0
M  V30 2182 H 201.581 -2.03383 0.213413 0
M  V30 2183 H 199.736 -3.39706 -1.86223 0
M  V30 2184 H 200.15 -5.21128 -0.593775 0
M  V30 2185 H 201.624 -5.02105 -2.29335 0
M  V30 2186 H 202.101 -3.39721 -2.78363 0
M  V30 2187 H 202.707 -4.06499 -1.25055 0
M  V30 2188 N 201.022 0.148545 -1.56898 0
M  V30 2189 C 202.247 0.880385 -1.87787 0
M  V30 2190 C 202.672 1.74018 -0.714093 0
M  V30 2191 O 202.03 1.78153 0.336343 0
M  V30 2192 C 202.078 1.71422 -3.17249 0
M  V30 2193 O 201.182 2.8183 -3.01074 0
M  V30 2194 H 200.523 0.245301 -0.617028 0
M  V30 2195 H 203.053 0.139826 -2.04122 0
M  V30 2196 H 203.063 2.10954 -3.49231 0
M  V30 2197 H 201.738 1.08284 -4.01556 0
M  V30 2198 H 200.315 2.45715 -2.80497 0
M  V30 2199 N 202.5 1.5196 0.417844 0
M  V30 2200 C 203.777 1.56146 1.17803 0
M  V30 2201 C 204.157 0.337275 2.08388 0
M  V30 2202 O 203.505 -0.676447 2.18258 0
M  V30 2203 C 203.715 2.88566 1.96293 0
M  V30 2204 C 205.063 3.41244 2.52662 0
M  V30 2205 O 206.087 2.90247 2.06483 0
M  V30 2206 O 204.946 4.30273 3.36938 0
M  V30 2207 H 202.04 0.628598 0.537395 0
M  V30 2208 H 204.586 1.64283 0.425331 0
M  V30 2209 H 203.358 3.69116 1.2988 0
M  V30 2210 H 202.981 2.83681 2.78587 0
M  V30 2211 N 203.978 -0.674533 1.42435 0
M  V30 2212 C 205.218 -1.4466 1.44405 0
M  V30 2213 C 205.582 -1.91911 0.0585784 0
M  V30 2214 O 206.783 -2.68759 -0.0469991 0
M  V30 2215 C 205.054 -2.61136 2.44013 0
M  V30 2216 S 206.613 -3.49981 2.64687 0
M  V30 2217 H 203.431 -0.494074 0.511284 0
M  V30 2218 H 206.033 -0.785162 1.7904 0
M  V30 2219 H 204.737 -2.24662 3.43446 0
M  V30 2220 H 204.268 -3.32153 2.10803 0
M  V30 2221 H 206.283 -4.57124 1.93007 0
M  V30 2222 N 205.456 -1.28612 -0.910864 0
M  V30 2223 C 206.702 -1.16106 -1.66274 0
M  V30 2224 C 207.035 0.289113 -1.92036 0
M  V30 2225 O 206.31 1.21 -1.52281 0
M  V30 2226 C 206.593 -1.96309 -3.01885 0
M  V30 2227 C 206.446 -3.49405 -2.8326 0
M  V30 2228 C 207.765 -1.78076 -4.02463 0
M  V30 2229 H 204.884 -0.423152 -0.603417 0
M  V30 2230 H 207.526 -1.57961 -1.05586 0
M  V30 2231 H 205.676 -1.60742 -3.53687 0
M  V30 2232 H 207.348 -3.94894 -2.38446 0
M  V30 2233 H 205.591 -3.74893 -2.18261 0
M  V30 2234 H 206.262 -4.00784 -3.79574 0
M  V30 2235 H 208.738 -2.0912 -3.59733 0
M  V30 2236 H 207.614 -2.36561 -4.95308 0
M  V30 2237 H 207.875 -0.733008 -4.35981 0
M  V30 2238 N 206.934 1.1197 -1.10907 0
M  V30 2239 C 208.18 1.8386 -0.855773 0
M  V30 2240 C 208.513 1.84134 0.617103 0
M  V30 2241 O 207.788 1.29041 1.45529 0
M  V30 2242 C 208.071 3.31305 -1.411 0
M  V30 2243 C 207.924 3.39456 -2.9511 0
M  V30 2244 C 209.243 4.2721 -1.05736 0
M  V30 2245 H 206.362 0.667545 -0.312334 0
M  V30 2246 H 209.004 1.31331 -1.37303 0
M  V30 2247 H 207.154 3.76169 -0.97105 0
M  V30 2248 H 208.826 3.03191 -3.47668 0
M  V30 2249 H 207.069 2.79849 -3.31462 0
M  V30 2250 H 207.74 4.43209 -3.29044 0
M  V30 2251 H 210.216 3.90497 -1.43706 0
M  V30 2252 H 209.092 5.28775 -1.47269 0
M  V30 2253 H 209.353 4.42088 0.0325958 0
M  V30 2254 N 208.412 0.89855 1.29475 0
M  V30 2255 C 209.637 0.538561 2.00285 0
M  V30 2256 C 210.062 -0.869135 1.66816 0
M  V30 2257 O 209.42 -1.57831 0.892145 0
M  V30 2258 C 209.468 0.736475 3.52999 0
M  V30 2259 O 208.572 -0.211537 4.11857 0
M  V30 2260 H 207.913 0.210563 0.62973 0
M  V30 2261 H 210.443 1.20982 1.64998 0
M  V30 2262 H 210.453 0.640685 4.02938 0
M  V30 2263 H 209.128 1.76276 3.76696 0
M  V30 2264 H 207.705 -0.0682991 3.72837 0
M  V30 2265 N 209.89 -1.43072 0.660911 0
M  V30 2266 C 211.115 -2.06584 0.183805 0
M  V30 2267 C 211.54 -1.49257 -1.14472 0
M  V30 2268 O 210.898 -0.605528 -1.70889 0
M  V30 2269 C 210.946 -3.60418 0.114434 0
M  V30 2270 O 210.05 -4.01981 -0.921137 0
M  V30 2271 H 209.391 -0.656669 0.0983994 0
M  V30 2272 H 211.921 -1.83447 0.906006 0
M  V30 2273 H 211.931 -4.07946 -0.0663394 0
M  V30 2274 H 210.606 -4.01519 1.08422 0
M  V30 2275 H 209.183 -3.66029 -0.71253 0
M  V30 2276 N 211.368 -0.403325 -1.52352 0
M  V30 2277 C 212.596 0.174012 -2.06167 0
M  V30 2278 C 213.011 1.39347 -1.27388 0
M  V30 2279 O 212.368 1.79597 -0.324201 0
M  V30 2280 C 212.419 0.530223 -3.5759 0
M  V30 2281 O 212.14 -0.640806 -4.33388 0
M  V30 2282 C 213.641 1.16192 -4.27802 0
M  V30 2283 H 210.861 0.0229464 -0.670608 0
M  V30 2284 H 213.405 -0.572604 -1.9632 0
M  V30 2285 H 211.56 1.22673 -3.67464 0
M  V30 2286 H 211.974 -0.344851 -5.23365 0
M  V30 2287 H 213.448 1.36141 -5.34948 0
M  V30 2288 H 213.925 2.13335 -3.83907 0
M  V30 2289 H 214.531 0.505775 -4.22282 0
M  V30 2290 N 212.846 1.57033 -0.133567 0
M  V30 2291 C 213.776 2.1909 0.807567 0
M  V30 2292 C 214.757 1.13517 1.26681 0
M  V30 2293 O 215.942 1.41809 1.32679 0
M  V30 2294 C 213.072 2.80188 2.05212 0
M  V30 2295 C 212.026 3.91471 1.73015 0
M  V30 2296 C 211.352 4.39443 3.04622 0
M  V30 2297 C 212.652 5.12886 0.987168 0
M  V30 2298 H 214.346 2.97988 0.290403 0
M  V30 2299 H 211.892 1.43335 0.138239 0
M  V30 2300 H 213.845 3.22264 2.71521 0
M  V30 2301 H 212.569 1.98601 2.59278 0
M  V30 2302 H 211.228 3.49993 1.0909 0
M  V30 2303 H 210.876 3.54695 3.56651 0
M  V30 2304 H 210.576 5.14495 2.83847 0
M  V30 2305 H 212.1 4.8418 3.72024 0
M  V30 2306 H 213.514 5.51891 1.55208 0
M  V30 2307 H 211.911 5.93615 0.87985 0
M  V30 2308 H 212.981 4.84894 -0.0235286 0
M  V30 2309 N 214.325 -0.140222 1.56975 0
M  V30 2310 C 215.55 -0.870414 1.88251 0
M  V30 2311 C 215.975 -1.73637 0.723312 0
M  V30 2312 O 215.333 -1.78329 -0.32689 0
M  V30 2313 C 215.381 -1.69737 3.18154 0
M  V30 2314 O 214.485 -2.80229 3.02565 0
M  V30 2315 H 213.826 -0.242025 0.61832 0
M  V30 2316 H 216.356 -0.128999 2.04193 0
M  V30 2317 H 216.366 -2.09099 3.50345 0
M  V30 2318 H 215.041 -1.06152 4.02125 0
M  V30 2319 H 213.618 -2.44224 2.81796 0
M  V30 2320 N 215.803 -1.52179 -0.40978 0
M  V30 2321 C 217.214 -1.58377 -0.988615 0
M  V30 2322 C 217.565 -0.423879 -1.91566 0
M  V30 2323 O 216.69 0.455844 -2.11544 0
M  V30 2324 C 217.285 -2.87044 -1.79976 0
M  V30 2325 C 215.844 -2.95722 -2.32863 0
M  V30 2326 C 214.991 -2.53309 -1.12828 0
M  V30 2327 H 217.942 -1.57558 -0.190039 0
M  V30 2328 H 217.963 -2.7236 -2.65707 0
M  V30 2329 H 217.475 -3.71444 -1.12478 0
M  V30 2330 H 215.576 -2.15814 -3.03735 0
M  V30 2331 H 215.689 -3.99951 -2.63773 0
M  V30 2332 H 214.053 -2.07142 -1.48204 0
M  V30 2333 H 214.836 -3.40082 -0.46897 0
M  V30 2334 N 217.281 0.66697 -1.42791 0
M  V30 2335 C 218.191 1.80962 -1.49299 0
M  V30 2336 C 219.207 1.69775 -0.381108 0
M  V30 2337 O 220.383 1.91188 -0.633188 0
M  V30 2338 C 217.448 3.17156 -1.40045 0
M  V30 2339 C 216.509 3.40242 -2.6179 0
M  V30 2340 C 215.742 4.69939 -2.52969 0
M  V30 2341 O 215.965 5.48372 -1.56985 0
M  V30 2342 O 214.899 4.94441 -3.43237 0
M  V30 2343 H 218.725 1.78427 -2.45759 0
M  V30 2344 H 216.31 0.823713 -1.24641 0
M  V30 2345 H 218.192 3.98413 -1.37276 0
M  V30 2346 H 216.867 3.20312 -0.467138 0
M  V30 2347 H 215.774 2.58802 -2.70134 0
M  V30 2348 H 217.107 3.41923 -3.54047 0
M  V30 2349 N 218.759 1.29093 0.90403 0
M  V30 2350 C 219.706 1.13853 2.00764 0
M  V30 2351 C 220.676 0.0330084 1.66067 0
M  V30 2352 O 221.861 0.199733 1.89752 0
M  V30 2353 C 219.001 0.816537 3.35301 0
M  V30 2354 C 218.114 2.00206 3.82807 0
M  V30 2355 C 217.249 1.61983 5.059 0
M  V30 2356 C 216.288 2.77143 5.45764 0
M  V30 2357 N 215.425 2.39346 6.60044 0
M  V30 2358 H 220.265 2.08276 2.13132 0
M  V30 2359 H 217.802 1.03648 1.04381 0
M  V30 2360 H 219.76 0.610557 4.12708 0
M  V30 2361 H 218.39 -0.090779 3.22672 0
M  V30 2362 H 217.442 2.31988 3.01473 0
M  V30 2363 H 218.754 2.86512 4.08304 0
M  V30 2364 H 217.908 1.37649 5.90879 0
M  V30 2365 H 216.647 0.728202 4.82233 0
M  V30 2366 H 215.652 3.02165 4.59322 0
M  V30 2367 H 216.877 3.66964 5.71414 0
M  V30 2368 H 214.823 1.52665 6.37989 0
M  V30 2369 H 214.74 3.19185 6.85315 0
M  V30 2370 H 216.008 2.1832 7.48303 0
M  V30 2371 N 220.237 -1.11381 1.11499 0
M  V30 2372 C 221.514 -1.7955 0.775965 0
M  V30 2373 C 221.894 -1.97859 -0.73588 0
M  V30 2374 O 221.242 -1.56376 -1.66609 0
M  V30 2375 C 221.452 -3.13196 1.53977 0
M  V30 2376 C 222.8 -3.88227 1.71944 0
M  V30 2377 O 223.824 -3.22887 1.50407 0
M  V30 2378 O 222.683 -5.05477 2.07738 0
M  V30 2379 H 219.777 -0.777728 0.28119 0
M  V30 2380 H 222.323 -1.18118 1.21845 0
M  V30 2381 H 221.095 -2.95229 2.56818 0
M  V30 2382 H 220.718 -3.82342 1.09088 0
M  V30 2383 N 221.715 -0.905404 -1.28997 0
M  V30 2384 C 222.94 -0.549175 -1.99997 0
M  V30 2385 C 223.365 0.860276 -1.67275 0
M  V30 2386 O 222.723 1.57355 -0.900502 0
M  V30 2387 C 222.771 -0.755185 -3.52604 0
M  V30 2388 O 221.875 0.189692 -4.11964 0
M  V30 2389 H 221.216 -0.213899 -0.628604 0
M  V30 2390 H 223.746 -1.21856 -1.64354 0
M  V30 2391 H 223.756 -0.662045 -4.02593 0
M  V30 2392 H 222.431 -1.78271 -3.75755 0
M  V30 2393 H 221.008 0.0485257 -3.72868 0
M  V30 2394 N 223.193 1.4272 -0.668489 0
M  V30 2395 C 224.609 1.55992 -0.33745 0
M  V30 2396 C 224.809 1.64933 1.15756 0
M  V30 2397 O 223.865 1.61278 1.94282 0
M  V30 2398 C 225.178 2.81314 -1.06222 0
M  V30 2399 C 226.726 2.95078 -1.04394 0
M  V30 2400 C 227.201 4.23252 -1.74991 0
M  V30 2401 N 228.692 4.3015 -1.71829 0
M  V30 2402 C 229.427 5.28127 -2.23315 0
M  V30 2403 N 228.923 6.32293 -2.83156 0
M  V30 2404 N 230.716 5.19882 -2.13726 0
M  V30 2405 H 222.867 1.3516 -1.63846 0
M  V30 2406 H 225.13 0.650174 -0.689912 0
M  V30 2407 H 224.836 2.80823 -2.11734 0
M  V30 2408 H 224.71 3.72012 -0.62344 0
M  V30 2409 H 227.097 2.951 0.0028244 0
M  V30 2410 H 227.178 2.05627 -1.52155 0
M  V30 2411 H 226.822 4.2399 -2.79633 0
M  V30 2412 H 226.752 5.11626 -1.24685 0
M  V30 2413 H 229.243 3.55499 -1.28175 0
M  V30 2414 H 229.556 7.03398 -3.20079 0
M  V30 2415 H 227.901 6.32873 -2.87223 0
M  V30 2416 H 231.092 4.37423 -1.66669 0
M  V30 2417 H 231.265 5.96077 -2.54158 0
M  V30 2418 N 224.671 0.411399 1.52136 0
M  V30 2419 C 225.917 -0.163888 2.02137 0
M  V30 2420 C 226.25 -1.44597 1.29636 0
M  V30 2421 O 225.525 -1.90272 0.403353 0
M  V30 2422 C 225.808 -0.40927 3.57767 0
M  V30 2423 C 225.661 0.889643 4.40914 0
M  V30 2424 C 226.98 -1.19042 4.23694 0
M  V30 2425 H 224.099 -0.0580896 0.734707 0
M  V30 2426 H 226.741 0.54531 1.82007 0
M  V30 2427 H 224.891 -1.0134 3.7505 0
M  V30 2428 H 226.563 1.52575 4.35337 0
M  V30 2429 H 224.806 1.50011 4.07037 0
M  V30 2430 H 225.477 0.672314 5.4789 0
M  V30 2431 H 227.953 -0.678942 4.10524 0
M  V30 2432 H 226.829 -1.33086 5.32522 0
M  V30 2433 H 227.09 -2.21166 3.82803 0
M  V30 2434 N 226.149 -1.5696 0.141893 0
M  V30 2435 C 227.374 -2.00754 -0.520838 0
M  V30 2436 C 227.799 -1.0213 -1.57959 0
M  V30 2437 O 227.157 0.00371324 -1.813 0
M  V30 2438 C 227.205 -3.43318 -1.10294 0
M  V30 2439 O 226.309 -3.47679 -2.21795 0
M  V30 2440 H 225.65 -0.651564 -0.127908 0
M  V30 2441 H 228.18 -2.03221 0.23712 0
M  V30 2442 H 228.19 -3.82012 -1.43287 0
M  V30 2443 H 226.865 -4.14608 -0.327574 0
M  V30 2444 H 225.442 -3.20824 -1.9007 0
M  V30 2445 N 227.627 0.131896 -1.57047 0
M  V30 2446 C 228.873 0.843179 -1.84441 0
M  V30 2447 C 229.206 1.80129 -0.725749 0
M  V30 2448 O 228.481 1.92624 0.269469 0
M  V30 2449 C 228.764 1.60442 -3.22382 0
M  V30 2450 C 228.617 0.666782 -4.4483 0
M  V30 2451 C 229.936 2.56354 -3.5773 0
M  V30 2452 H 227.055 0.305081 -0.670891 0
M  V30 2453 H 229.697 0.107839 -1.89694 0
M  V30 2454 H 227.847 2.23128 -3.18035 0
M  V30 2455 H 229.519 0.0497646 -4.61273 0
M  V30 2456 H 227.762 -0.022609 -4.33794 0
M  V30 2457 H 228.433 1.23579 -5.37989 0
M  V30 2458 H 230.909 2.0378 -3.62785 0
M  V30 2459 H 229.785 3.06657 -4.5525 0
M  V30 2460 H 230.046 3.38419 -2.84473 0
M  V30 2461 N 229.106 1.52395 0.401703 0
M  V30 2462 C 230.334 1.70676 1.16949 0
M  V30 2463 C 230.749 0.419503 1.8408 0
M  V30 2464 O 230.106 -0.605061 1.72178 0
M  V30 2465 C 230.157 2.84753 2.22706 0
M  V30 2466 O 229.878 4.08495 1.58314 0
M  V30 2467 C 231.379 3.14608 3.12309 0
M  V30 2468 H 228.599 0.571787 0.351142 0
M  V30 2469 H 231.143 1.98987 0.471652 0
M  V30 2470 H 229.298 2.58941 2.88147 0
M  V30 2471 H 229.712 4.72117 2.28485 0
M  V30 2472 H 231.186 3.97923 3.82572 0
M  V30 2473 H 231.663 2.28464 3.75101 0
M  V30 2474 H 232.269 3.42212 2.52529 0
M  V30 2475 N 230.584 -0.659388 1.43143 0
M  V30 2476 C 231.531 -1.77249 1.47822 0
M  V30 2477 C 232.501 -1.62818 0.328558 0
M  V30 2478 O 233.686 -1.83151 0.534838 0
M  V30 2479 C 230.826 -3.15371 1.40126 0
M  V30 2480 C 229.939 -3.4098 2.65249 0
M  V30 2481 C 229.074 -4.68915 2.49584 0
M  V30 2482 C 228.113 -4.87608 3.70006 0
M  V30 2483 N 227.25 -6.06796 3.53189 0
M  V30 2484 H 232.09 -1.72584 2.42938 0
M  V30 2485 H 229.627 -0.842297 1.20598 0
M  V30 2486 H 231.585 -3.9521 1.33659 0
M  V30 2487 H 230.215 -3.19121 0.485964 0
M  V30 2488 H 229.267 -2.55282 2.8202 0
M  V30 2489 H 230.579 -3.50681 3.54717 0
M  V30 2490 H 229.733 -5.56871 2.4079 0
M  V30 2491 H 228.472 -4.61524 1.5763 0
M  V30 2492 H 227.477 -3.9809 3.79215 0
M  V30 2493 H 228.702 -4.96834 4.62961 0
M  V30 2494 H 226.648 -6.00549 2.63965 0
M  V30 2495 H 226.565 -6.17428 4.36255 0
M  V30 2496 H 227.833 -6.9739 3.48236 0
M  V30 2497 N 232.062 -1.29571 -0.897171 0
M  V30 2498 C 233.473 -1.15964 -1.46319 0
M  V30 2499 C 233.824 0.244267 -1.94674 0
M  V30 2500 O 232.949 1.13998 -1.83939 0
M  V30 2501 C 233.544 -2.09906 -2.65942 0
M  V30 2502 C 232.103 -2.00314 -3.18671 0
M  V30 2503 C 231.25 -2.00687 -1.91363 0
M  V30 2504 H 234.201 -1.42019 -0.708268 0
M  V30 2505 H 234.222 -1.67276 -3.41759 0
M  V30 2506 H 233.734 -3.12075 -2.30718 0
M  V30 2507 H 231.835 -1.01242 -3.58582 0
M  V30 2508 H 231.948 -2.88102 -3.82798 0
M  V30 2509 H 230.312 -1.45319 -2.09175 0
M  V30 2510 H 231.095 -3.04566 -1.58413 0
M  V30 2511 N 233.54 1.10788 -1.12088 0
M  V30 2512 C 234.787 1.82671 -0.873931 0
M  V30 2513 C 235.115 1.85004 0.600311 0
M  V30 2514 O 234.37 1.30365 1.45957 0
M  V30 2515 C 234.669 3.29294 -1.38926 0
M  V30 2516 C 234.335 3.47113 -2.87791 0
M  V30 2517 C 232.997 3.51684 -3.28439 0
M  V30 2518 C 235.349 3.52808 -3.83635 0
M  V30 2519 C 232.677 3.59513 -4.63646 0
M  V30 2520 C 235.029 3.62169 -5.18668 0
M  V30 2521 C 233.693 3.65003 -5.58864 0
M  V30 2522 H 232.963 0.668441 -0.319794 0
M  V30 2523 H 235.61 1.30613 -1.40045 0
M  V30 2524 H 233.915 3.83894 -0.783122 0
M  V30 2525 H 235.612 3.83416 -1.17443 0
M  V30 2526 H 232.202 3.4423 -2.5535 0
M  V30 2527 H 236.386 3.4853 -3.53328 0
M  V30 2528 H 231.642 3.59987 -4.94185 0
M  V30 2529 H 235.816 3.6552 -5.92763 0
M  V30 2530 H 233.443 3.70822 -6.63623 0
M  V30 2531 N 235.018 0.912232 1.28515 0
M  V30 2532 C 235.951 0.343928 2.25593 0
M  V30 2533 C 236.929 -0.550994 1.5298 0
M  V30 2534 O 238.113 -0.494991 1.81885 0
M  V30 2535 C 235.24 -0.508525 3.34861 0
M  V30 2536 C 234.286 0.320808 4.25292 0
M  V30 2537 S 235.119 1.72658 5.06902 0
M  V30 2538 C 236.275 0.881394 6.19663 0
M  V30 2539 H 236.508 1.16674 2.73449 0
M  V30 2540 H 234.041 0.713384 1.36931 0
M  V30 2541 H 235.999 -0.994539 3.9827 0
M  V30 2542 H 234.66 -1.30571 2.85675 0
M  V30 2543 H 233.853 -0.330941 5.02912 0
M  V30 2544 H 233.455 0.74042 3.66598 0
M  V30 2545 H 235.747 0.110359 6.7741 0
M  V30 2546 H 236.69 1.63009 6.89082 0
M  V30 2547 H 237.098 0.430239 5.62858 0
M  V30 2548 N 236.496 -1.42363 0.676048 0
M  V30 2549 C 237.426 -2.33497 0.0124832 0
M  V30 2550 C 238.407 -1.50748 -0.787981 0
M  V30 2551 O 239.592 -1.79346 -0.744884 0
M  V30 2552 C 236.722 -3.34377 -0.938582 0
M  V30 2553 C 235.676 -4.27289 -0.246622 0
M  V30 2554 C 235.002 -5.18386 -1.31071 0
M  V30 2555 C 236.302 -5.14916 0.875125 0
M  V30 2556 H 237.996 -2.89233 0.773593 0
M  V30 2557 H 235.542 -1.39073 0.37346 0
M  V30 2558 H 237.495 -3.97044 -1.41188 0
M  V30 2559 H 236.219 -2.76947 -1.73113 0
M  V30 2560 H 234.878 -3.66018 0.206456 0
M  V30 2561 H 234.526 -4.57282 -2.09528 0
M  V30 2562 H 234.226 -5.81378 -0.852839 0
M  V30 2563 H 235.75 -5.83929 -1.78492 0
M  V30 2564 H 237.164 -5.71262 0.482983 0
M  V30 2565 H 235.561 -5.86747 1.25887 0
M  V30 2566 H 236.631 -4.53242 1.72335 0
M  V30 2567 N 237.974 -0.419461 -1.51915 0
M  V30 2568 C 239.385 0.0477853 -1.86639 0
M  V30 2569 C 239.736 1.43531 -1.33766 0
M  V30 2570 O 238.861 2.05401 -0.68113 0
M  V30 2571 C 239.456 0.0934885 -3.38671 0
M  V30 2572 C 238.015 0.505097 -3.72996 0
M  V30 2573 C 237.162 -0.313792 -2.75519 0
M  V30 2574 H 240.113 -0.636088 -1.45395 0
M  V30 2575 H 240.134 0.906667 -3.6954 0
M  V30 2576 H 239.646 -0.916501 -3.77123 0
M  V30 2577 H 237.747 1.52135 -3.40126 0
M  V30 2578 H 237.86 0.242309 -4.78487 0
M  V30 2579 H 236.224 0.225363 -2.53701 0
M  V30 2580 H 237.007 -1.32232 -3.16812 0
M  V30 2581 N 239.452 1.56882 -0.150215 0
M  V30 2582 C 240.863 1.82995 0.370076 0
M  V30 2583 C 241.214 1.06907 1.64515 0
M  V30 2584 O 240.339 0.315369 2.1409 0
M  V30 2585 C 240.934 3.31942 0.678208 0
M  V30 2586 C 239.493 3.58625 1.14301 0
M  V30 2587 C 238.64 2.76792 0.167778 0
M  V30 2588 H 241.591 1.54209 -0.374858 0
M  V30 2589 H 241.612 3.48272 1.53254 0
M  V30 2590 H 241.124 3.87294 -0.249991 0
M  V30 2591 H 239.225 3.08664 2.08704 0
M  V30 2592 H 239.338 4.67073 1.06676 0
M  V30 2593 H 237.702 2.45972 0.661037 0
M  V30 2594 H 238.485 3.34916 -0.754069 0
M  V30 2595 N 240.93 -0.123565 1.57115 0
M  V30 2596 C 242.176 -0.833386 1.84885 0
M  V30 2597 C 242.509 -1.79742 0.735292 0
M  V30 2598 O 241.784 -1.92764 -0.25925 0
M  V30 2599 C 242.067 -1.5873 3.23228 0
M  V30 2600 C 241.92 -0.643183 4.45178 0
M  V30 2601 C 243.239 -2.54453 3.59085 0
M  V30 2602 H 240.358 -0.301518 0.6725 0
M  V30 2603 H 243 -0.097778 1.89748 0
M  V30 2604 H 241.15 -2.21438 3.19214 0
M  V30 2605 H 242.822 -0.0253015 4.61293 0
M  V30 2606 H 241.065 0.0456139 4.33776 0
M  V30 2607 H 241.736 -1.20724 5.38637 0
M  V30 2608 H 244.212 -2.01853 3.63861 0
M  V30 2609 H 243.088 -3.04238 4.5687 0
M  V30 2610 H 243.349 -3.36906 2.86264 0
M  V30 2611 N 242.408 -1.52605 -0.393616 0
M  V30 2612 C 243.371 -1.76415 -1.46323 0
M  V30 2613 C 244.371 -0.634126 -1.47768 0
M  V30 2614 O 245.561 -0.902142 -1.4902 0
M  V30 2615 C 242.693 -1.8607 -2.85641 0
M  V30 2616 H 243.886 -2.71916 -1.26498 0
M  V30 2617 H 241.439 -1.43257 -0.625073 0
M  V30 2618 H 242.174 -0.925378 -3.10817 0
M  V30 2619 H 241.959 -2.68235 -2.85993 0
M  V30 2620 H 243.449 -2.06179 -3.63153 0
M  V30 2621 O 243.925 0.539544 -1.52221 0
M  V30 2622 H 244.616 1.19468 -1.5247 0
M  V30 END ATOM
M  V30 BEGIN BOND
M  V30 END BOND
M  V30 END CTAB
M  END
$$$$
