drugbank_drug|DB09532 Human Secretin
 OpenBabel12092119123D

434435  0  0  0  0  0  0  0  0999 V2000
   -0.9080    1.9825   -0.1171 H   0  0  0  0  0 15  0  0  0  0  0  0
    0.0000    1.5760    0.0000 N   0  0  0  0  0 15  0  0  0  0  0  0
    0.9500    2.0490    0.9999 C   0  0  0  0  0 15  0  0  0  0  0  0
    1.9340    0.9438    1.3031 C   0  0  0  0  0 15  0  0  0  0  0  0
    3.1260    1.2075    1.2941 O   0  0  0  0  0 15  0  0  0  0  0  0
    0.2550    2.5559    2.2919 C   0  0  0  0  0 15  0  0  0  0  0  0
   -0.6590    3.7299    2.0183 C   0  0  0  0  0 15  0  0  0  0  0  0
   -0.2680    4.8468    1.4463 N   0  0  0  0  0 15  0  0  0  0  0  0
   -1.9700    3.8092    2.3198 C   0  0  0  0  0 15  0  0  0  0  0  0
   -1.2690    5.6612    1.3375 C   0  0  0  0  0 15  0  0  0  0  0  0
   -2.2930    5.1212    1.8231 N   0  0  0  0  0 15  0  0  0  0  0  0
    1.5090    2.8867    0.5522 H   0  0  0  0  0 15  0  0  0  0  0  0
   -0.9770    1.6109    0.2057 H   0  0  0  0  0 15  0  0  0  0  0  0
    1.0200    2.8775    3.0167 H   0  0  0  0  0 15  0  0  0  0  0  0
   -0.3200    1.7324    2.7462 H   0  0  0  0  0 15  0  0  0  0  0  0
    0.6910    5.0553    1.1252 H   0  0  0  0  0 15  0  0  0  0  0  0
   -2.6320    3.0943    2.8028 H   0  0  0  0  0 15  0  0  0  0  0  0
   -1.2420    6.6588    0.8977 H   0  0  0  0  0 15  0  0  0  0  0  0
    1.4781   -0.2728    1.5522 N   0  0  0  0  0 15  0  0  0  0  0  0
    2.7031   -1.0268    1.8020 C   0  0  0  0  0 15  0  0  0  0  0  0
    3.1281   -1.7914    0.5736 C   0  0  0  0  0 15  0  0  0  0  0  0
    2.4861   -1.7492   -0.4768 O   0  0  0  0  0 15  0  0  0  0  0  0
    2.5341   -1.9609    3.0262 C   0  0  0  0  0 15  0  0  0  0  0  0
    1.6381   -3.0486    2.7773 O   0  0  0  0  0 15  0  0  0  0  0  0
    0.9791   -0.2936    0.5956 H   0  0  0  0  0 15  0  0  0  0  0  0
    3.5091   -0.3016    2.0237 H   0  0  0  0  0 15  0  0  0  0  0  0
    3.5191   -2.3804    3.3136 H   0  0  0  0  0 15  0  0  0  0  0  0
    2.1941   -1.3985    3.9168 H   0  0  0  0  0 15  0  0  0  0  0  0
    0.7711   -2.6723    2.6008 H   0  0  0  0  0 15  0  0  0  0  0  0
    2.9562   -1.4816   -0.5373 N   0  0  0  0  0 15  0  0  0  0  0  0
    4.2332   -1.4629   -1.2984 C   0  0  0  0  0 15  0  0  0  0  0  0
    4.6132   -0.1706   -2.1041 C   0  0  0  0  0 15  0  0  0  0  0  0
    3.9612    0.8477   -2.1219 O   0  0  0  0  0 15  0  0  0  0  0  0
    4.1712   -2.7205   -2.1860 C   0  0  0  0  0 15  0  0  0  0  0  0
    5.5192   -3.2009   -2.7898 C   0  0  0  0  0 15  0  0  0  0  0  0
    6.5432   -2.7292   -2.2889 O   0  0  0  0  0 15  0  0  0  0  0  0
    5.4022   -4.0214   -3.7006 O   0  0  0  0  0 15  0  0  0  0  0  0
    2.4962   -0.5839   -0.5856 H   0  0  0  0  0 15  0  0  0  0  0  0
    5.0422   -1.6038   -0.5545 H   0  0  0  0  0 15  0  0  0  0  0  0
    3.8142   -3.5763   -1.5880 H   0  0  0  0  0 15  0  0  0  0  0  0
    3.4372   -2.6065   -3.0025 H   0  0  0  0  0 15  0  0  0  0  0  0
    4.4343    0.7856   -1.3662 N   0  0  0  0  0 15  0  0  0  0  0  0
    5.6823    1.5406   -1.3081 C   0  0  0  0  0 15  0  0  0  0  0  0
    6.0033    1.9468    0.1112 C   0  0  0  0  0 15  0  0  0  0  0  0
    5.2733    1.6524    1.0522 O   0  0  0  0  0 15  0  0  0  0  0  0
    3.8533    0.5714   -0.4812 H   0  0  0  0  0 15  0  0  0  0  0  0
    6.5153    0.9358   -1.7096 H   0  0  0  0  0 15  0  0  0  0  0  0
    5.6113    2.4464   -1.9380 H   0  0  0  0  0 15  0  0  0  0  0  0
    5.9124    1.2097    1.0102 N   0  0  0  0  0 15  0  0  0  0  0  0
    7.1404    1.0496    1.7830 C   0  0  0  0  0 15  0  0  0  0  0  0
    7.5554   -0.4009    1.8449 C   0  0  0  0  0 15  0  0  0  0  0  0
    6.9124   -1.2783    1.3026 O   0  0  0  0  0 15  0  0  0  0  0  0
    6.9634    1.6340    3.2246 C   0  0  0  0  0 15  0  0  0  0  0  0
    6.6844    3.0277    3.1664 O   0  0  0  0  0 15  0  0  0  0  0  0
    8.1854    1.5243    4.1627 C   0  0  0  0  0 15  0  0  0  0  0  0
    5.4054    0.3689    0.5605 H   0  0  0  0  0 15  0  0  0  0  0  0
    7.9494    1.6019    1.2712 H   0  0  0  0  0 15  0  0  0  0  0  0
    6.1044    1.1227    3.7078 H   0  0  0  0  0 15  0  0  0  0  0  0
    6.5184    3.3063    4.0717 H   0  0  0  0  0 15  0  0  0  0  0  0
    7.9924    1.9808    5.1524 H   0  0  0  0  0 15  0  0  0  0  0  0
    8.4694    0.4779    4.3659 H   0  0  0  0  0 15  0  0  0  0  0  0
    9.0754    2.0279    3.7384 H   0  0  0  0  0 15  0  0  0  0  0  0
    7.3905   -1.2043    1.0166 N   0  0  0  0  0 15  0  0  0  0  0  0
    8.6375   -1.8980    0.7059 C   0  0  0  0  0 15  0  0  0  0  0  0
    8.9655   -1.7885   -0.7644 C   0  0  0  0  0 15  0  0  0  0  0  0
    8.2205   -1.1669   -1.5710 O   0  0  0  0  0 15  0  0  0  0  0  0
    8.5195   -3.4046    1.0871 C   0  0  0  0  0 15  0  0  0  0  0  0
    8.1855   -3.7161    2.5537 C   0  0  0  0  0 15  0  0  0  0  0  0
    6.8475   -3.7983    2.9544 C   0  0  0  0  0 15  0  0  0  0  0  0
    9.1995   -3.8592    3.5031 C   0  0  0  0  0 15  0  0  0  0  0  0
    6.5275   -3.9980    4.2939 C   0  0  0  0  0 15  0  0  0  0  0  0
    8.8795   -4.0740    4.8395 C   0  0  0  0  0 15  0  0  0  0  0  0
    7.5435   -4.1384    5.2373 C   0  0  0  0  0 15  0  0  0  0  0  0
    6.8135   -0.6945    0.2583 H   0  0  0  0  0 15  0  0  0  0  0  0
    9.4605   -1.4269    1.2772 H   0  0  0  0  0 15  0  0  0  0  0  0
    7.7655   -3.8939    0.4343 H   0  0  0  0  0 15  0  0  0  0  0  0
    9.4625   -3.9243    0.8245 H   0  0  0  0  0 15  0  0  0  0  0  0
    6.0525   -3.6582    2.2332 H   0  0  0  0  0 15  0  0  0  0  0  0
   10.2365   -3.7893    3.2051 H   0  0  0  0  0 15  0  0  0  0  0  0
    5.4925   -4.0302    4.5977 H   0  0  0  0  0 15  0  0  0  0  0  0
    9.6665   -4.1740    5.5745 H   0  0  0  0  0 15  0  0  0  0  0  0
    7.2935   -4.2906    6.2754 H   0  0  0  0  0 15  0  0  0  0  0  0
    8.8686   -0.7928   -1.3621 N   0  0  0  0  0 15  0  0  0  0  0  0
   10.0966   -0.3788   -2.0340 C   0  0  0  0  0 15  0  0  0  0  0  0
   10.5116    1.0059   -1.5977 C   0  0  0  0  0 15  0  0  0  0  0  0
    9.8686    1.6457   -0.7888 O   0  0  0  0  0 15  0  0  0  0  0  0
    9.9196   -0.4368   -3.5885 C   0  0  0  0  0 15  0  0  0  0  0  0
    9.6406   -1.7669   -4.0089 O   0  0  0  0  0 15  0  0  0  0  0  0
   11.1416   -0.0139   -4.4330 C   0  0  0  0  0 15  0  0  0  0  0  0
    8.3616   -0.1557   -0.6527 H   0  0  0  0  0 15  0  0  0  0  0  0
   10.9056   -1.0726   -1.7411 H   0  0  0  0  0 15  0  0  0  0  0  0
    9.0606    0.2086   -3.8684 H   0  0  0  0  0 15  0  0  0  0  0  0
    9.4746   -1.7201   -4.9549 H   0  0  0  0  0 15  0  0  0  0  0  0
   10.9486   -0.1056   -5.5190 H   0  0  0  0  0 15  0  0  0  0  0  0
   11.4256    1.0392   -4.2673 H   0  0  0  0  0 15  0  0  0  0  0  0
   12.0316   -0.6319   -4.2058 H   0  0  0  0  0 15  0  0  0  0  0  0
   10.3467    1.4787   -0.5451 N   0  0  0  0  0 15  0  0  0  0  0  0
   11.5717    2.0739   -0.0191 C   0  0  0  0  0 15  0  0  0  0  0  0
   11.9967    1.3969    1.2597 C   0  0  0  0  0 15  0  0  0  0  0  0
   11.3547    0.4678    1.7516 O   0  0  0  0  0 15  0  0  0  0  0  0
   11.4027    3.6019    0.1723 C   0  0  0  0  0 15  0  0  0  0  0  0
   10.5067    3.9339    1.2377 O   0  0  0  0  0 15  0  0  0  0  0  0
    9.8477    0.6624   -0.0459 H   0  0  0  0  0 15  0  0  0  0  0  0
   12.3777    1.9007   -0.7574 H   0  0  0  0  0 15  0  0  0  0  0  0
   12.3877    4.0613    0.3903 H   0  0  0  0  0 15  0  0  0  0  0  0
   11.0627    4.0886   -0.7617 H   0  0  0  0  0 15  0  0  0  0  0  0
    9.6397    3.5921    1.0011 H   0  0  0  0  0 15  0  0  0  0  0  0
   11.8248    0.2810    1.5507 N   0  0  0  0  0 15  0  0  0  0  0  0
   12.7348   -0.6139    2.2643 C   0  0  0  0  0 15  0  0  0  0  0  0
   13.7508   -1.1652    1.2922 C   0  0  0  0  0 15  0  0  0  0  0  0
   14.9268   -1.1943    1.6217 O   0  0  0  0  0 15  0  0  0  0  0  0
   11.9918   -1.7788    2.9759 C   0  0  0  0  0 15  0  0  0  0  0  0
   11.0528   -1.2636    4.1028 C   0  0  0  0  0 15  0  0  0  0  0  0
   10.2858   -2.3730    4.7804 C   0  0  0  0  0 15  0  0  0  0  0  0
   10.5088   -3.5678    4.4505 O   0  0  0  0  0 15  0  0  0  0  0  0
    9.4428   -2.0512    5.6587 O   0  0  0  0  0 15  0  0  0  0  0  0
   13.2688   -0.0357    3.0368 H   0  0  0  0  0 15  0  0  0  0  0  0
   10.8538    0.0482    1.4932 H   0  0  0  0  0 15  0  0  0  0  0  0
   12.7358   -2.4579    3.4229 H   0  0  0  0  0 15  0  0  0  0  0  0
   11.4108   -2.3440    2.2325 H   0  0  0  0  0 15  0  0  0  0  0  0
   10.3178   -0.5507    3.7002 H   0  0  0  0  0 15  0  0  0  0  0  0
   11.6508   -0.7441    4.8654 H   0  0  0  0  0 15  0  0  0  0  0  0
   13.3029   -1.5760    0.0084 N   0  0  0  0  0 15  0  0  0  0  0  0
   14.2329   -2.1198   -0.9791 C   0  0  0  0  0 15  0  0  0  0  0  0
   15.2139   -1.0309   -1.3530 C   0  0  0  0  0 15  0  0  0  0  0  0
   16.3989   -1.3082   -1.4353 O   0  0  0  0  0 15  0  0  0  0  0  0
   13.5289   -2.6299   -2.2683 C   0  0  0  0  0 15  0  0  0  0  0  0
   12.4829   -3.7648   -2.0358 C   0  0  0  0  0 15  0  0  0  0  0  0
   11.8089   -4.1385   -3.3858 C   0  0  0  0  0 15  0  0  0  0  0  0
   13.1089   -5.0342   -1.3916 C   0  0  0  0  0 15  0  0  0  0  0  0
   14.8029   -2.9474   -0.5263 H   0  0  0  0  0 15  0  0  0  0  0  0
   12.3489   -1.4178   -0.2517 H   0  0  0  0  0 15  0  0  0  0  0  0
   14.3019   -2.9967   -2.9627 H   0  0  0  0  0 15  0  0  0  0  0  0
   13.0259   -1.7737   -2.7424 H   0  0  0  0  0 15  0  0  0  0  0  0
   11.6849   -3.4022   -1.3656 H   0  0  0  0  0 15  0  0  0  0  0  0
   11.3329   -3.2523   -3.8371 H   0  0  0  0  0 15  0  0  0  0  0  0
   11.0329   -4.9031   -3.2383 H   0  0  0  0  0 15  0  0  0  0  0  0
   12.5569   -4.5309   -4.0932 H   0  0  0  0  0 15  0  0  0  0  0  0
   13.9709   -5.3781   -1.9857 H   0  0  0  0  0 15  0  0  0  0  0  0
   12.3679   -5.8475   -1.3488 H   0  0  0  0  0 15  0  0  0  0  0  0
   13.4379   -4.8355   -0.3619 H   0  0  0  0  0 15  0  0  0  0  0  0
   14.7810    0.2645   -1.5536 N   0  0  0  0  0 15  0  0  0  0  0  0
   16.0060    1.0173   -1.8074 C   0  0  0  0  0 15  0  0  0  0  0  0
   16.4310    1.7884   -0.5830 C   0  0  0  0  0 15  0  0  0  0  0  0
   15.7890    1.7517    0.4676 O   0  0  0  0  0 15  0  0  0  0  0  0
   15.8370    1.9448   -3.0366 C   0  0  0  0  0 15  0  0  0  0  0  0
   14.9410    3.0339   -2.7934 O   0  0  0  0  0 15  0  0  0  0  0  0
   14.2820    0.2904   -0.5971 H   0  0  0  0  0 15  0  0  0  0  0  0
   16.8120    0.2909   -2.0252 H   0  0  0  0  0 15  0  0  0  0  0  0
   16.8220    2.3628   -3.3262 H   0  0  0  0  0 15  0  0  0  0  0  0
   15.4970    1.3777   -3.9242 H   0  0  0  0  0 15  0  0  0  0  0  0
   14.0740    2.6584   -2.6150 H   0  0  0  0  0 15  0  0  0  0  0  0
   16.2591    1.4844    0.5294 N   0  0  0  0  0 15  0  0  0  0  0  0
   17.6751    1.3458    0.8580 C   0  0  0  0  0 15  0  0  0  0  0  0
   17.8751    0.3572    1.9831 C   0  0  0  0  0 15  0  0  0  0  0  0
   16.9311   -0.2214    2.5153 O   0  0  0  0  0 15  0  0  0  0  0  0
   18.2441    2.7462    1.2250 C   0  0  0  0  0 15  0  0  0  0  0  0
   19.7921    2.8311    1.3348 C   0  0  0  0  0 15  0  0  0  0  0  0
   20.2671    4.2385    1.7353 C   0  0  0  0  0 15  0  0  0  0  0  0
   21.7581    4.2653    1.8063 N   0  0  0  0  0 15  0  0  0  0  0  0
   22.4931    5.3237    2.1300 C   0  0  0  0  0 15  0  0  0  0  0  0
   21.9891    6.4849    2.4379 N   0  0  0  0  0 15  0  0  0  0  0  0
   23.7821    5.1977    2.1401 N   0  0  0  0  0 15  0  0  0  0  0  0
   15.9331    2.1133   -0.2129 H   0  0  0  0  0 15  0  0  0  0  0  0
   18.1961    0.9474   -0.0326 H   0  0  0  0  0 15  0  0  0  0  0  0
   17.9021    3.4852    0.4719 H   0  0  0  0  0 15  0  0  0  0  0  0
   17.7761    3.0818    2.1750 H   0  0  0  0  0 15  0  0  0  0  0  0
   20.1631    2.0946    2.0787 H   0  0  0  0  0 15  0  0  0  0  0  0
   20.2441    2.5317    0.3660 H   0  0  0  0  0 15  0  0  0  0  0  0
   19.8881    4.9802    0.9970 H   0  0  0  0  0 15  0  0  0  0  0  0
   19.8181    4.5124    2.7146 H   0  0  0  0  0 15  0  0  0  0  0  0
   22.3091    3.4277    1.5911 H   0  0  0  0  0 15  0  0  0  0  0  0
   22.6221    7.2499    2.6759 H   0  0  0  0  0 15  0  0  0  0  0  0
   20.9671    6.5176    2.4130 H   0  0  0  0  0 15  0  0  0  0  0  0
   24.1581    4.2807    1.8941 H   0  0  0  0  0 15  0  0  0  0  0  0
   24.3311    6.0235    2.3890 H   0  0  0  0  0 15  0  0  0  0  0  0
   17.7372   -0.7783    1.3704 N   0  0  0  0  0 15  0  0  0  0  0  0
   18.6672   -1.9055    1.3496 C   0  0  0  0  0 15  0  0  0  0  0  0
   19.6482   -1.6868    0.2193 C   0  0  0  0  0 15  0  0  0  0  0  0
   20.8332   -1.8963    0.4186 O   0  0  0  0  0 15  0  0  0  0  0  0
   17.9632   -3.2773    1.1493 C   0  0  0  0  0 15  0  0  0  0  0  0
   16.9172   -3.6415    2.2490 C   0  0  0  0  0 15  0  0  0  0  0  0
   16.2432   -4.9981    1.9000 C   0  0  0  0  0 15  0  0  0  0  0  0
   17.5432   -3.7158    3.6705 C   0  0  0  0  0 15  0  0  0  0  0  0
   19.2372   -1.9254    2.2928 H   0  0  0  0  0 15  0  0  0  0  0  0
   16.7832   -0.9249    1.1037 H   0  0  0  0  0 15  0  0  0  0  0  0
   18.7362   -4.0622    1.1210 H   0  0  0  0  0 15  0  0  0  0  0  0
   17.4602   -3.2615    0.1706 H   0  0  0  0  0 15  0  0  0  0  0  0
   16.1192   -2.8797    2.2687 H   0  0  0  0  0 15  0  0  0  0  0  0
   15.7672   -4.9476    0.9068 H   0  0  0  0  0 15  0  0  0  0  0  0
   15.4672   -5.2514    2.6363 H   0  0  0  0  0 15  0  0  0  0  0  0
   16.9912   -5.8069    1.8875 H   0  0  0  0  0 15  0  0  0  0  0  0
   18.4052   -4.4023    3.6725 H   0  0  0  0  0 15  0  0  0  0  0  0
   16.8022   -4.0840    4.3969 H   0  0  0  0  0 15  0  0  0  0  0  0
   17.8722   -2.7240    4.0115 H   0  0  0  0  0 15  0  0  0  0  0  0
   19.2153   -1.2150   -1.0038 N   0  0  0  0  0 15  0  0  0  0  0  0
   20.6313   -0.9726   -1.2654 C   0  0  0  0  0 15  0  0  0  0  0  0
   20.8313    0.3403   -1.9861 C   0  0  0  0  0 15  0  0  0  0  0  0
   19.8873    1.0656   -2.2891 O   0  0  0  0  0 15  0  0  0  0  0  0
   21.2003   -2.1640   -2.0878 C   0  0  0  0  0 15  0  0  0  0  0  0
   22.7483   -2.2064   -2.2200 C   0  0  0  0  0 15  0  0  0  0  0  0
   23.2233   -3.3931   -3.0763 C   0  0  0  0  0 15  0  0  0  0  0  0
   24.7143   -3.3940   -3.1522 N   0  0  0  0  0 15  0  0  0  0  0  0
   25.4493   -4.2787   -3.8173 C   0  0  0  0  0 15  0  0  0  0  0  0
   24.9453   -5.2653   -4.5026 N   0  0  0  0  0 15  0  0  0  0  0  0
   26.7383   -4.1567   -3.7838 N   0  0  0  0  0 15  0  0  0  0  0  0
   18.8893   -2.0593   -0.5203 H   0  0  0  0  0 15  0  0  0  0  0  0
   21.1523   -0.9018   -0.2923 H   0  0  0  0  0 15  0  0  0  0  0  0
   20.8583   -3.1155   -1.6318 H   0  0  0  0  0 15  0  0  0  0  0  0
   20.7323   -2.1557   -3.0953 H   0  0  0  0  0 15  0  0  0  0  0  0
   23.1193   -1.2605   -2.6683 H   0  0  0  0  0 15  0  0  0  0  0  0
   23.2003   -2.2552   -1.2072 H   0  0  0  0  0 15  0  0  0  0  0  0
   22.8443   -4.3419   -2.6351 H   0  0  0  0  0 15  0  0  0  0  0  0
   22.7743   -3.3166   -4.0903 H   0  0  0  0  0 15  0  0  0  0  0  0
   25.2653   -2.6800   -2.6643 H   0  0  0  0  0 15  0  0  0  0  0  0
   25.5783   -5.9034   -4.9872 H   0  0  0  0  0 15  0  0  0  0  0  0
   23.9233   -5.3046   -4.4904 H   0  0  0  0  0 15  0  0  0  0  0  0
   27.1143   -3.3785   -3.2400 H   0  0  0  0  0 15  0  0  0  0  0  0
   27.2873   -4.8482   -4.2994 H   0  0  0  0  0 15  0  0  0  0  0  0
   20.6934    1.1989   -1.0230 N   0  0  0  0  0 15  0  0  0  0  0  0
   21.6034    2.2657   -0.6085 C   0  0  0  0  0 15  0  0  0  0  0  0
   22.6194    1.7030    0.3570 C   0  0  0  0  0 15  0  0  0  0  0  0
   23.7954    2.0023    0.2163 O   0  0  0  0  0 15  0  0  0  0  0  0
   20.8604    3.4668    0.0403 C   0  0  0  0  0 15  0  0  0  0  0  0
   19.9214    4.1815   -0.9719 C   0  0  0  0  0 15  0  0  0  0  0  0
   19.1544    5.3252   -0.3540 C   0  0  0  0  0 15  0  0  0  0  0  0
   19.3774    5.6411    0.8446 O   0  0  0  0  0 15  0  0  0  0  0  0
   18.3114    5.9224   -1.0739 O   0  0  0  0  0 15  0  0  0  0  0  0
   22.1374    2.6425   -1.4968 H   0  0  0  0  0 15  0  0  0  0  0  0
   19.7224    1.2663   -0.7928 H   0  0  0  0  0 15  0  0  0  0  0  0
   21.6044    4.1948    0.4023 H   0  0  0  0  0 15  0  0  0  0  0  0
   20.2794    3.1086    0.9027 H   0  0  0  0  0 15  0  0  0  0  0  0
   19.1864    3.4750   -1.3855 H   0  0  0  0  0 15  0  0  0  0  0  0
   20.5194    4.5793   -1.8045 H   0  0  0  0  0 15  0  0  0  0  0  0
   22.1715    0.8000    1.3578 N   0  0  0  0  0 15  0  0  0  0  0  0
   23.4195    0.3766    1.9856 C   0  0  0  0  0 15  0  0  0  0  0  0
   23.7405   -1.0581    1.6379 C   0  0  0  0  0 15  0  0  0  0  0  0
   23.0105   -1.7310    0.9172 O   0  0  0  0  0 15  0  0  0  0  0  0
   21.5905    0.1363    0.7345 H   0  0  0  0  0 15  0  0  0  0  0  0
   24.2525    1.0244    1.6581 H   0  0  0  0  0 15  0  0  0  0  0  0
   23.3485    0.4770    3.0843 H   0  0  0  0  0 15  0  0  0  0  0  0
   23.6496   -1.4758    0.5530 N   0  0  0  0  0 15  0  0  0  0  0  0
   24.6126   -2.2844   -0.1866 C   0  0  0  0  0 15  0  0  0  0  0  0
   25.6126   -1.3671   -0.8466 C   0  0  0  0  0 15  0  0  0  0  0  0
   26.8026   -1.5938   -0.7032 O   0  0  0  0  0 15  0  0  0  0  0  0
   23.9346   -3.1626   -1.2724 C   0  0  0  0  0 15  0  0  0  0  0  0
   25.1276   -2.9529    0.5236 H   0  0  0  0  0 15  0  0  0  0  0  0
   22.6806   -1.5320    0.3097 H   0  0  0  0  0 15  0  0  0  0  0  0
   23.4156   -2.5409   -2.0151 H   0  0  0  0  0 15  0  0  0  0  0  0
   23.2006   -3.8377   -0.8040 H   0  0  0  0  0 15  0  0  0  0  0  0
   24.6906   -3.7720   -1.7920 H   0  0  0  0  0 15  0  0  0  0  0  0
   25.1277   -0.2892   -1.5492 N   0  0  0  0  0 15  0  0  0  0  0  0
   26.5437    0.0645   -1.5947 C   0  0  0  0  0 15  0  0  0  0  0  0
   26.7437    1.5342   -1.3063 C   0  0  0  0  0 15  0  0  0  0  0  0
   25.7997    2.2852   -1.0740 O   0  0  0  0  0 15  0  0  0  0  0  0
   27.1127   -0.3228   -2.9896 C   0  0  0  0  0 15  0  0  0  0  0  0
   28.6607   -0.2706   -3.1183 C   0  0  0  0  0 15  0  0  0  0  0  0
   29.1357   -0.6325   -4.5361 C   0  0  0  0  0 15  0  0  0  0  0  0
   30.6267   -0.5846   -4.5950 N   0  0  0  0  0 15  0  0  0  0  0  0
   31.3617   -0.8373   -5.6725 C   0  0  0  0  0 15  0  0  0  0  0  0
   30.8577   -1.1554   -6.8310 N   0  0  0  0  0 15  0  0  0  0  0  0
   32.6507   -0.7652   -5.5687 N   0  0  0  0  0 15  0  0  0  0  0  0
   24.8017   -1.2471   -1.7193 H   0  0  0  0  0 15  0  0  0  0  0  0
   27.0647   -0.5048   -0.8024 H   0  0  0  0  0 15  0  0  0  0  0  0
   26.7707   -1.3454   -3.2495 H   0  0  0  0  0 15  0  0  0  0  0  0
   26.6447    0.3294   -3.7576 H   0  0  0  0  0 15  0  0  0  0  0  0
   29.0317    0.7428   -2.8560 H   0  0  0  0  0 15  0  0  0  0  0  0
   29.1127   -0.9572   -2.3721 H   0  0  0  0  0 15  0  0  0  0  0  0
   28.7567   -1.6437   -4.8057 H   0  0  0  0  0 15  0  0  0  0  0  0
   28.6867    0.0761   -5.2655 H   0  0  0  0  0 15  0  0  0  0  0  0
   31.1777   -0.3492   -3.7628 H   0  0  0  0  0 15  0  0  0  0  0  0
   31.4907   -1.3345   -7.6119 H   0  0  0  0  0 15  0  0  0  0  0  0
   29.8357   -1.1933   -6.8468 H   0  0  0  0  0 15  0  0  0  0  0  0
   33.0267   -0.5164   -4.6524 H   0  0  0  0  0 15  0  0  0  0  0  0
   33.1997   -0.9655   -6.4077 H   0  0  0  0  0 15  0  0  0  0  0  0
   26.6058    1.5759   -0.0167 N   0  0  0  0  0 15  0  0  0  0  0  0
   27.5358    2.1250    0.9679 C   0  0  0  0  0 15  0  0  0  0  0  0
   28.5168    1.0381    1.3475 C   0  0  0  0  0 15  0  0  0  0  0  0
   29.7018    1.3158    1.4283 O   0  0  0  0  0 15  0  0  0  0  0  0
   26.8318    2.6419    2.2543 C   0  0  0  0  0 15  0  0  0  0  0  0
   25.7858    3.7756    2.0158 C   0  0  0  0  0 15  0  0  0  0  0  0
   25.1118    4.1564    3.3638 C   0  0  0  0  0 15  0  0  0  0  0  0
   26.4118    5.0415    1.3649 C   0  0  0  0  0 15  0  0  0  0  0  0
   28.1058    2.9501    0.5106 H   0  0  0  0  0 15  0  0  0  0  0  0
   25.6518    1.4191    0.2442 H   0  0  0  0  0 15  0  0  0  0  0  0
   27.6048    3.0124    2.9468 H   0  0  0  0  0 15  0  0  0  0  0  0
   26.3288    1.7882    2.7330 H   0  0  0  0  0 15  0  0  0  0  0  0
   24.9878    3.4094    1.3475 H   0  0  0  0  0 15  0  0  0  0  0  0
   24.6358    3.2726    3.8198 H   0  0  0  0  0 15  0  0  0  0  0  0
   24.3358    4.9202    3.2123 H   0  0  0  0  0 15  0  0  0  0  0  0
   25.8598    4.5525    4.0691 H   0  0  0  0  0 15  0  0  0  0  0  0
   27.2738    5.3886    1.9572 H   0  0  0  0  0 15  0  0  0  0  0  0
   25.6708    5.8545    1.3178 H   0  0  0  0  0 15  0  0  0  0  0  0
   26.7408    4.8373    0.3362 H   0  0  0  0  0 15  0  0  0  0  0  0
   28.0839   -0.2563    1.5550 N   0  0  0  0  0 15  0  0  0  0  0  0
   29.0159   -1.3398    1.8596 C   0  0  0  0  0 15  0  0  0  0  0  0
   30.0289   -1.4474    0.7452 C   0  0  0  0  0 15  0  0  0  0  0  0
   31.2179   -1.4626    1.0232 O   0  0  0  0  0 15  0  0  0  0  0  0
   28.3179   -2.7194    2.0224 C   0  0  0  0  0 15  0  0  0  0  0  0
   27.4909   -2.8356    3.3303 C   0  0  0  0  0 15  0  0  0  0  0  0
   26.5499   -4.0230    3.3917 C   0  0  0  0  0 15  0  0  0  0  0  0
   25.5759   -3.9227    4.1244 O   0  0  0  0  0 15  0  0  0  0  0  0
   26.7779   -5.1505    2.6778 N   0  0  0  0  0 15  0  0  0  0  0  0
   29.5429   -1.0819    2.7949 H   0  0  0  0  0 15  0  0  0  0  0  0
   27.1039   -0.4464    1.5562 H   0  0  0  0  0 15  0  0  0  0  0  0
   29.0959   -3.4970    2.0370 H   0  0  0  0  0 15  0  0  0  0  0  0
   27.6659   -2.9048    1.1550 H   0  0  0  0  0 15  0  0  0  0  0  0
   26.8859   -1.9256    3.4397 H   0  0  0  0  0 15  0  0  0  0  0  0
   28.1739   -2.8827    4.1926 H   0  0  0  0  0 15  0  0  0  0  0  0
   27.5719   -5.2609    2.0797 H   0  0  0  0  0 15  0  0  0  0  0  0
   26.1289   -5.9097    2.7495 H   0  0  0  0  0 15  0  0  0  0  0  0
   29.5620   -1.4872   -0.5215 N   0  0  0  0  0 15  0  0  0  0  0  0
   30.9780   -1.3503   -0.8509 C   0  0  0  0  0 15  0  0  0  0  0  0
   31.1780   -0.3677   -1.9812 C   0  0  0  0  0 15  0  0  0  0  0  0
   30.2340    0.2080   -2.5164 O   0  0  0  0  0 15  0  0  0  0  0  0
   31.5470   -2.7526   -1.2104 C   0  0  0  0  0 15  0  0  0  0  0  0
   33.0950   -2.8381   -1.3198 C   0  0  0  0  0 15  0  0  0  0  0  0
   33.5700   -4.2477   -1.7128 C   0  0  0  0  0 15  0  0  0  0  0  0
   35.0610   -4.2748   -1.7836 N   0  0  0  0  0 15  0  0  0  0  0  0
   35.7960   -5.3349   -2.1017 C   0  0  0  0  0 15  0  0  0  0  0  0
   35.2920   -6.4977   -2.4034 N   0  0  0  0  0 15  0  0  0  0  0  0
   37.0850   -5.2089   -2.1125 N   0  0  0  0  0 15  0  0  0  0  0  0
   29.2360   -2.1121    0.2241 H   0  0  0  0  0 15  0  0  0  0  0  0
   31.4990   -0.9473    0.0376 H   0  0  0  0  0 15  0  0  0  0  0  0
   31.2050   -3.4877   -0.4534 H   0  0  0  0  0 15  0  0  0  0  0  0
   31.0790   -3.0933   -2.1586 H   0  0  0  0  0 15  0  0  0  0  0  0
   33.4660   -2.1056   -2.0676 H   0  0  0  0  0 15  0  0  0  0  0  0
   33.5470   -2.5336   -0.3526 H   0  0  0  0  0 15  0  0  0  0  0  0
   33.1910   -4.9854   -0.9706 H   0  0  0  0  0 15  0  0  0  0  0  0
   33.1210   -4.5267   -2.6906 H   0  0  0  0  0 15  0  0  0  0  0  0
   35.6120   -3.4361   -1.5729 H   0  0  0  0  0 15  0  0  0  0  0  0
   35.9250   -7.2640   -2.6374 H   0  0  0  0  0 15  0  0  0  0  0  0
   34.2700   -6.5304   -2.3784 H   0  0  0  0  0 15  0  0  0  0  0  0
   37.4610   -4.2906   -1.8714 H   0  0  0  0  0 15  0  0  0  0  0  0
   37.6340   -6.0361   -2.3570 H   0  0  0  0  0 15  0  0  0  0  0  0
   31.0401    0.7711   -1.3745 N   0  0  0  0  0 15  0  0  0  0  0  0
   31.9701    1.8983   -1.3597 C   0  0  0  0  0 15  0  0  0  0  0  0
   32.9511    1.6856   -0.2282 C   0  0  0  0  0 15  0  0  0  0  0  0
   34.1361    1.8941   -0.4287 O   0  0  0  0  0 15  0  0  0  0  0  0
   31.2661    3.2712   -1.1666 C   0  0  0  0  0 15  0  0  0  0  0  0
   30.2201    3.6295   -2.2683 C   0  0  0  0  0 15  0  0  0  0  0  0
   29.5461    4.9879   -1.9264 C   0  0  0  0  0 15  0  0  0  0  0  0
   30.8461    3.6963   -3.6902 C   0  0  0  0  0 15  0  0  0  0  0  0
   32.5401    1.9132   -2.3030 H   0  0  0  0  0 15  0  0  0  0  0  0
   30.0861    0.9191   -1.1086 H   0  0  0  0  0 15  0  0  0  0  0  0
   32.0391    4.0561   -1.1426 H   0  0  0  0  0 15  0  0  0  0  0  0
   30.7631    3.2606   -0.1879 H   0  0  0  0  0 15  0  0  0  0  0  0
   29.4221    2.8676   -2.2839 H   0  0  0  0  0 15  0  0  0  0  0  0
   29.0701    4.9427   -0.9330 H   0  0  0  0  0 15  0  0  0  0  0  0
   28.7701    5.2373   -2.6642 H   0  0  0  0  0 15  0  0  0  0  0  0
   30.2941    5.7969   -1.9183 H   0  0  0  0  0 15  0  0  0  0  0  0
   31.7081    4.3827   -3.6958 H   0  0  0  0  0 15  0  0  0  0  0  0
   30.1051    4.0607   -4.4185 H   0  0  0  0  0 15  0  0  0  0  0  0
   31.1751    2.7027   -4.0259 H   0  0  0  0  0 15  0  0  0  0  0  0
   32.5182    1.2203    0.9973 N   0  0  0  0  0 15  0  0  0  0  0  0
   33.4482    1.0107    2.1049 C   0  0  0  0  0 15  0  0  0  0  0  0
   34.4292   -0.0670    1.6997 C   0  0  0  0  0 15  0  0  0  0  0  0
   35.6142    0.0944    1.9397 O   0  0  0  0  0 15  0  0  0  0  0  0
   32.7442    0.5829    3.4237 C   0  0  0  0  0 15  0  0  0  0  0  0
   31.6982    1.6059    3.9673 C   0  0  0  0  0 15  0  0  0  0  0  0
   31.0242    1.0341    5.2460 C   0  0  0  0  0 15  0  0  0  0  0  0
   32.3242    2.9948    4.2791 C   0  0  0  0  0 15  0  0  0  0  0  0
   34.0182    1.9371    2.2829 H   0  0  0  0  0 15  0  0  0  0  0  0
   31.5642    0.9328    1.0971 H   0  0  0  0  0 15  0  0  0  0  0  0
   33.5172    0.4233    4.1927 H   0  0  0  0  0 15  0  0  0  0  0  0
   32.2412   -0.3792    3.2439 H   0  0  0  0  0 15  0  0  0  0  0  0
   30.9002    1.7532    3.2196 H   0  0  0  0  0 15  0  0  0  0  0  0
   30.5482    0.0635    5.0296 H   0  0  0  0  0 15  0  0  0  0  0  0
   30.2482    1.7175    5.6194 H   0  0  0  0  0 15  0  0  0  0  0  0
   31.7722    0.8861    6.0414 H   0  0  0  0  0 15  0  0  0  0  0  0
   33.1862    2.8815    4.9562 H   0  0  0  0  0 15  0  0  0  0  0  0
   31.5832    3.6490    4.7641 H   0  0  0  0  0 15  0  0  0  0  0  0
   32.6532    3.4974    3.3587 H   0  0  0  0  0 15  0  0  0  0  0  0
   33.9963   -1.1934    1.0293 N   0  0  0  0  0 15  0  0  0  0  0  0
   34.9283   -2.2204    0.5686 C   0  0  0  0  0 15  0  0  0  0  0  0
   35.9413   -1.5886   -0.3558 C   0  0  0  0  0 15  0  0  0  0  0  0
   37.1303   -1.7785   -0.1521 O   0  0  0  0  0 15  0  0  0  0  0  0
   34.2303   -3.3836   -0.1908 C   0  0  0  0  0 15  0  0  0  0  0  0
   33.4033   -4.3112    0.7386 C   0  0  0  0  0 15  0  0  0  0  0  0
   32.4623   -5.2619    0.0246 C   0  0  0  0  0 15  0  0  0  0  0  0
   31.4883   -5.6546    0.6514 O   0  0  0  0  0 15  0  0  0  0  0  0
   32.6903   -5.6697   -1.2459 N   0  0  0  0  0 15  0  0  0  0  0  0
   35.4553   -2.6219    1.4518 H   0  0  0  0  0 15  0  0  0  0  0  0
   33.0163   -1.3402    0.9084 H   0  0  0  0  0 15  0  0  0  0  0  0
   35.0083   -3.9898   -0.6780 H   0  0  0  0  0 15  0  0  0  0  0  0
   33.5783   -2.9699   -0.9754 H   0  0  0  0  0 15  0  0  0  0  0  0
   32.7983   -3.6828    1.4059 H   0  0  0  0  0 15  0  0  0  0  0  0
   34.0863   -4.9000    1.3703 H   0  0  0  0  0 15  0  0  0  0  0  0
   33.4843   -5.3710   -1.7758 H   0  0  0  0  0 15  0  0  0  0  0  0
   32.0413   -6.2984   -1.6776 H   0  0  0  0  0 15  0  0  0  0  0  0
   35.4744   -0.8072   -1.3536 N   0  0  0  0  0 15  0  0  0  0  0  0
   36.7224   -0.3871   -1.9836 C   0  0  0  0  0 15  0  0  0  0  0  0
   37.0434    1.0494   -1.6435 C   0  0  0  0  0 15  0  0  0  0  0  0
   36.3134    1.7261   -0.9263 O   0  0  0  0  0 15  0  0  0  0  0  0
   34.8934   -0.1402   -0.7337 H   0  0  0  0  0 15  0  0  0  0  0  0
   37.5554   -1.0332   -1.6526 H   0  0  0  0  0 15  0  0  0  0  0  0
   36.6514   -0.4934   -3.0818 H   0  0  0  0  0 15  0  0  0  0  0  0
   36.9525    1.4729   -0.5608 N   0  0  0  0  0 15  0  0  0  0  0  0
   37.8825    2.3286    0.1731 C   0  0  0  0  0 15  0  0  0  0  0  0
   38.8635    1.4401    0.9053 C   0  0  0  0  0 15  0  0  0  0  0  0
   40.0485    1.7286    0.8850 O   0  0  0  0  0 15  0  0  0  0  0  0
   37.1785    3.2586    1.2013 C   0  0  0  0  0 15  0  0  0  0  0  0
   36.1325    4.2398    0.5854 C   0  0  0  0  0 15  0  0  0  0  0  0
   35.4585    5.0633    1.7185 C   0  0  0  0  0 15  0  0  0  0  0  0
   36.7585    5.2024   -0.4632 C   0  0  0  0  0 15  0  0  0  0  0  0
   38.4525    2.9447   -0.5413 H   0  0  0  0  0 15  0  0  0  0  0  0
   35.9985    1.4160   -0.2618 H   0  0  0  0  0 15  0  0  0  0  0  0
   37.9515    3.8457    1.7229 H   0  0  0  0  0 15  0  0  0  0  0  0
   36.6755    2.6231    1.9457 H   0  0  0  0  0 15  0  0  0  0  0  0
   35.3345    3.6650    0.0851 H   0  0  0  0  0 15  0  0  0  0  0  0
   34.9825    4.3919    2.4520 H   0  0  0  0  0 15  0  0  0  0  0  0
   34.6825    5.7276    1.3121 H   0  0  0  0  0 15  0  0  0  0  0  0
   36.2065    5.6790    2.2433 H   0  0  0  0  0 15  0  0  0  0  0  0
   37.6205    5.7329   -0.0275 H   0  0  0  0  0 15  0  0  0  0  0  0
   36.0175    5.9490   -0.7886 H   0  0  0  0  0 15  0  0  0  0  0  0
   37.0875    4.6550   -1.3577 H   0  0  0  0  0 15  0  0  0  0  0  0
   38.4306    0.2974    1.5477 N   0  0  0  0  0 15  0  0  0  0  0  0
   39.6766   -0.3134    2.0036 C   0  0  0  0  0 15  0  0  0  0  0  0
   40.0096   -1.5381    1.1855 C   0  0  0  0  0 15  0  0  0  0  0  0
   39.2846   -1.9274    0.2611 O   0  0  0  0  0 15  0  0  0  0  0  0
   39.5676   -0.6735    3.5375 C   0  0  0  0  0 15  0  0  0  0  0  0
   39.4206    0.5601    4.4630 C   0  0  0  0  0 15  0  0  0  0  0  0
   40.7396   -1.5014    4.1370 C   0  0  0  0  0 15  0  0  0  0  0  0
   37.8586   -0.1124    0.7284 H   0  0  0  0  0 15  0  0  0  0  0  0
   40.5006    0.4088    1.8555 H   0  0  0  0  0 15  0  0  0  0  0  0
   38.6506   -1.2888    3.6650 H   0  0  0  0  0 15  0  0  0  0  0  0
   40.3226    1.1986    4.4546 H   0  0  0  0  0 15  0  0  0  0  0  0
   38.5656    1.1941    4.1704 H   0  0  0  0  0 15  0  0  0  0  0  0
   39.2366    0.2641    5.5137 H   0  0  0  0  0 15  0  0  0  0  0  0
   41.7126   -0.9816    4.0436 H   0  0  0  0  0 15  0  0  0  0  0  0
   40.5886   -1.7222    5.2118 H   0  0  0  0  0 15  0  0  0  0  0  0
   40.8496   -2.4895    3.6534 H   0  0  0  0  0 15  0  0  0  0  0  0
   39.9476   -1.6067    0.1639 O   0  0  0  0  0 15  0  0  0  0  0  0
   40.6386   -1.8893   -0.4272 H   0  0  0  0  0 15  0  0  0  0  0  0
M  END
$$$$
