drugbank_drug|DB09334  Corticotropin-lipotropin precursor
 OpenBabel12092119123D

  0  0  0     0  0            999 V3000
M  V30 BEGIN CTAB
M  V30 COUNTS 4061 4109 0 0 0
M  V30 BEGIN ATOM
M  V30 1 H -0.908 1.98254 -0.117106 0
M  V30 2 N 0 1.576 0 0
M  V30 3 C 0.933 2.03868 1.02534 0
M  V30 4 C 1.911 0.928543 1.3348 0
M  V30 5 O 3.095 1.19667 1.45644 0
M  V30 6 C 0.222 2.43627 2.35294 0
M  V30 7 C -0.732 3.65373 2.2001 0
M  V30 8 S 0.101 5.13292 1.52614 0
M  V30 9 C 1.257 5.56322 2.86805 0
M  V30 10 H 1.49 2.90518 0.631377 0
M  V30 11 H -0.977 1.52953 0.210867 0
M  V30 12 H 0.981 2.67203 3.11629 0
M  V30 13 H -0.358 1.57376 2.7183 0
M  V30 14 H -1.165 3.90944 3.18086 0
M  V30 15 H -1.563 3.418 1.51819 0
M  V30 16 H 0.729 5.58782 3.83104 0
M  V30 17 H 1.672 6.56266 2.65933 0
M  V30 18 H 2.08 4.83886 2.90714 0
M  V30 19 N 1.4781 -0.272755 1.55222 0
M  V30 20 C 2.8891 -0.84378 1.66545 0
M  V30 21 C 3.2401 -1.87035 0.592641 0
M  V30 22 O 2.3651 -2.14761 -0.265818 0
M  V30 23 C 2.9601 -1.53723 3.01918 0
M  V30 24 C 1.5191 -2.05628 3.15268 0
M  V30 25 C 0.6661 -0.898424 2.62343 0
M  V30 26 H 3.6171 -0.0490998 1.58624 0
M  V30 27 H 3.6381 -2.40421 2.94921 0
M  V30 28 H 3.1501 -0.78983 3.79978 0
M  V30 29 H 1.2511 -2.83329 2.41983 0
M  V30 30 H 1.3641 -2.27142 4.21833 0
M  V30 31 H -0.2719 -1.29186 2.19506 0
M  V30 32 H 0.5111 -0.164528 3.42906 0
M  V30 33 N 2.9562 -1.48159 -0.537278 0
M  V30 34 C 4.3722 -1.34118 -0.865129 0
M  V30 35 C 4.5722 -0.346678 -1.98495 0
M  V30 36 O 3.6282 0.234715 -2.51407 0
M  V30 37 C 4.9412 -2.73963 -1.23954 0
M  V30 38 C 6.4892 -2.82397 -1.34984 0
M  V30 39 C 6.9642 -4.22928 -1.75772 0
M  V30 40 N 8.4552 -4.25566 -1.82887 0
M  V30 41 C 9.1902 -5.31235 -2.15817 0
M  V30 42 N 8.6862 -6.47189 -2.47222 0
M  V30 43 N 10.4792 -5.18624 -2.16761 0
M  V30 44 H 2.6302 -2.1144 0.201715 0
M  V30 45 H 4.8932 -0.947598 0.0275949 0
M  V30 46 H 4.5992 -3.48264 -0.490381 0
M  V30 47 H 4.4732 -3.0702 -2.19132 0
M  V30 48 H 6.8602 -2.08356 -2.08978 0
M  V30 49 H 6.9412 -2.5297 -0.379448 0
M  V30 50 H 6.5852 -4.97482 -1.02341 0
M  V30 51 H 6.5152 -4.49794 -2.73848 0
M  V30 52 H 9.0062 -3.41924 -1.60924 0
M  V30 53 H 9.3192 -7.23564 -2.71433 0
M  V30 54 H 7.6642 -6.50476 -2.44757 0
M  V30 55 H 10.8552 -4.27056 -1.91679 0
M  V30 56 H 11.0282 -6.01078 -2.42093 0
M  V30 57 N 4.4343 0.785586 -1.36625 0
M  V30 58 C 5.6593 1.57963 -1.34397 0
M  V30 59 C 6.0843 1.87964 0.071526 0
M  V30 60 O 5.4423 1.48182 1.0446 0
M  V30 61 C 5.4903 2.87511 -2.17646 0
M  V30 62 O 4.5943 3.81281 -1.57158 0
M  V30 63 H 3.9353 0.479014 -0.459828 0
M  V30 64 H 6.4653 0.973411 -1.79961 0
M  V30 65 H 6.4753 3.36745 -2.30362 0
M  V30 66 H 5.1503 2.65002 -3.20541 0
M  V30 67 H 3.7273 3.39885 -1.53403 0
M  V30 68 N 5.9124 1.20967 1.01018 0
M  V30 69 C 7.1524 1.03511 1.76252 0
M  V30 70 C 7.5164 -0.42458 1.87247 0
M  V30 71 O 8.7174 -0.719508 2.58991 0
M  V30 72 C 6.9884 1.70726 3.13986 0
M  V30 73 S 8.5474 1.68458 4.05176 0
M  V30 74 H 5.3654 0.371037 0.606508 0
M  V30 75 H 7.9674 1.53628 1.20908 0
M  V30 76 H 6.6714 2.76128 3.03614 0
M  V30 77 H 6.2024 1.20767 3.74405 0
M  V30 78 H 8.2174 0.721987 4.90919 0
M  V30 79 N 7.3905 -1.2043 1.01659 0
M  V30 80 C 8.6305 -1.91507 0.714456 0
M  V30 81 C 8.9945 -1.77073 -0.742237 0
M  V30 82 O 10.1955 -2.42631 -1.15688 0
M  V30 83 C 8.4665 -3.38795 1.13809 0
M  V30 84 S 10.0255 -4.28216 0.957925 0
M  V30 85 H 6.8435 -0.661571 0.260471 0
M  V30 86 H 9.4455 -1.45671 1.30384 0
M  V30 87 H 8.1495 -3.46822 2.19415 0
M  V30 88 H 7.6805 -3.89656 0.541474 0
M  V30 89 H 9.6955 -4.96007 -0.138531 0
M  V30 90 N 8.8686 -0.792821 -1.36206 0
M  V30 91 C 10.0936 -0.377701 -2.03932 0
M  V30 92 C 10.5186 0.998947 -1.59382 0
M  V30 93 O 9.8766 1.64421 -0.763903 0
M  V30 94 C 9.9246 -0.453635 -3.57735 0
M  V30 95 O 9.0286 0.538151 -4.08874 0
M  V30 96 H 8.3696 -0.159855 -0.644471 0
M  V30 97 H 10.8996 -1.07488 -1.7409 0
M  V30 98 H 10.9096 -0.318464 -4.06755 0
M  V30 99 H 9.5846 -1.45784 -3.89512 0
M  V30 100 H 8.1616 0.364359 -3.71116 0
M  V30 101 N 10.3467 1.47872 -0.545128 0
M  V30 102 C 11.7627 1.5829 -0.204032 0
M  V30 103 C 11.9627 1.54529 1.29317 0
M  V30 104 O 11.0187 1.44232 2.07252 0
M  V30 105 C 12.3317 2.89304 -0.819987 0
M  V30 106 C 13.8797 3.02864 -0.790105 0
M  V30 107 C 14.3547 4.3656 -1.38491 0
M  V30 108 N 15.8457 4.43165 -1.34755 0
M  V30 109 C 16.5807 5.45153 -1.77753 0
M  V30 110 N 16.0767 6.54016 -2.2855 0
M  V30 111 N 17.8697 5.36125 -1.68897 0
M  V30 112 H 10.0207 1.4856 -1.51802 0
M  V30 113 H 12.2837 0.706305 -0.632327 0
M  V30 114 H 11.9897 2.97757 -1.87173 0
M  V30 115 H 11.8637 3.75957 -0.305915 0
M  V30 116 H 14.2507 2.94014 0.252913 0
M  V30 117 H 14.3317 2.17782 -1.34181 0
M  V30 118 H 13.9757 4.46164 -2.42693 0
M  V30 119 H 13.9057 5.20353 -0.808754 0
M  V30 120 H 16.3967 3.65083 -0.975855 0
M  V30 121 H 16.7097 7.27994 -2.59314 0
M  V30 122 H 15.0547 6.54938 -2.32553 0
M  V30 123 H 18.2457 4.49975 -1.28998 0
M  V30 124 H 18.4187 6.15472 -2.02726 0
M  V30 125 N 11.8248 0.280983 1.55075 0
M  V30 126 C 13.0498 -0.340154 2.04592 0
M  V30 127 C 13.4748 -1.48246 1.15779 0
M  V30 128 O 12.8328 -1.80614 0.15761 0
M  V30 129 C 12.8808 -0.793104 3.5177 0
M  V30 130 O 11.9848 -1.89981 3.66034 0
M  V30 131 H 11.3258 -0.0694289 0.66036 0
M  V30 132 H 13.8558 0.416993 2.00306 0
M  V30 133 H 13.8658 -1.08729 3.93245 0
M  V30 134 H 12.5408 0.0426163 4.15878 0
M  V30 135 H 11.1178 -1.60771 3.36463 0
M  V30 136 N 13.3029 -1.57598 0.00835791 0
M  V30 137 C 14.5509 -1.90551 -0.6734 0
M  V30 138 C 14.8719 -0.883301 -1.73847 0
M  V30 139 O 14.1419 0.0781442 -1.95744 0
M  V30 140 H 12.7219 -0.703312 -0.251717 0
M  V30 141 H 15.3839 -1.94833 0.0512592 0
M  V30 142 H 14.4799 -2.9056 -1.13935 0
M  V30 143 N 14.781 0.264519 -1.55364 0
M  V30 144 C 15.744 1.31046 -1.88042 0
M  V30 145 C 16.744 1.41943 -0.755569 0
M  V30 146 O 17.934 1.40947 -1.02369 0
M  V30 147 C 15.066 2.69067 -2.09323 0
M  V30 148 H 16.259 1.03297 -2.81549 0
M  V30 149 H 13.812 0.502989 -1.47986 0
M  V30 150 H 14.547 3.01982 -1.18226 0
M  V30 151 H 14.332 2.62542 -2.91229 0
M  V30 152 H 15.822 3.44623 -2.35848 0
M  V30 153 N 16.2591 1.48442 0.529413 0
M  V30 154 C 17.1891 1.65902 1.64313 0
M  V30 155 C 18.1701 0.507897 1.6234 0
M  V30 156 O 19.3551 0.740503 1.79528 0
M  V30 157 C 16.4851 1.69911 3.02898 0
M  V30 158 C 15.4391 2.8453 3.19729 0
M  V30 159 C 14.7651 2.73629 4.59381 0
M  V30 160 C 16.0651 4.25821 3.02447 0
M  V30 161 H 17.7591 2.5914 1.49955 0
M  V30 162 H 15.3051 1.24709 0.719982 0
M  V30 163 H 17.2581 1.80715 3.80684 0
M  V30 164 H 15.9821 0.732524 3.18279 0
M  V30 165 H 14.6411 2.73283 2.44361 0
M  V30 166 H 14.2891 1.74938 4.71599 0
M  V30 167 H 13.9891 3.50541 4.71588 0
M  V30 168 H 15.5131 2.86401 5.39265 0
M  V30 169 H 16.9271 4.37898 3.70024 0
M  V30 170 H 15.3241 5.03735 3.26146 0
M  V30 171 H 16.3941 4.42244 1.98867 0
M  V30 172 N 17.7372 -0.778329 1.37039 0
M  V30 173 C 18.6672 -1.90546 1.34962 0
M  V30 174 C 19.6482 -1.68681 0.219274 0
M  V30 175 O 20.8332 -1.89634 0.418624 0
M  V30 176 C 17.9632 -3.27734 1.14925 0
M  V30 177 C 16.9172 -3.64147 2.24902 0
M  V30 178 C 16.2432 -4.99806 1.89996 0
M  V30 179 C 17.5432 -3.71579 3.67051 0
M  V30 180 H 19.2372 -1.92541 2.29277 0
M  V30 181 H 16.7832 -0.924948 1.10366 0
M  V30 182 H 18.7362 -4.06215 1.12104 0
M  V30 183 H 17.4602 -3.26154 0.170631 0
M  V30 184 H 16.1192 -2.8797 2.26868 0
M  V30 185 H 15.7672 -4.94759 0.906796 0
M  V30 186 H 15.4672 -5.25139 2.63634 0
M  V30 187 H 16.9912 -5.80694 1.88749 0
M  V30 188 H 18.4052 -4.40227 3.67251 0
M  V30 189 H 16.8022 -4.08405 4.39688 0
M  V30 190 H 17.8722 -2.72404 4.01154 0
M  V30 191 N 19.2153 -1.21501 -1.00376 0
M  V30 192 C 20.1453 -0.999478 -2.11028 0
M  V30 193 C 21.1263 0.0759671 -1.6993 0
M  V30 194 O 22.3113 -0.0841106 -1.94018 0
M  V30 195 C 19.4413 -0.564709 -3.42678 0
M  V30 196 C 18.3953 -1.58486 -3.97576 0
M  V30 197 C 17.7213 -1.00628 -5.25146 0
M  V30 198 C 19.0213 -2.97204 -4.29496 0
M  V30 199 H 20.7153 -1.92495 -2.29317 0
M  V30 200 H 18.2613 -0.92693 -1.102 0
M  V30 201 H 20.2143 -0.401091 -4.19487 0
M  V30 202 H 18.9383 0.396411 -3.24185 0
M  V30 203 H 17.5973 -1.73606 -3.22888 0
M  V30 204 H 17.2453 -0.0368439 -5.02987 0
M  V30 205 H 16.9453 -1.68771 -5.62841 0
M  V30 206 H 18.4693 -0.854015 -6.04598 0
M  V30 207 H 19.8833 -2.8552 -4.97143 0
M  V30 208 H 18.2803 -3.62372 -4.78338 0
M  V30 209 H 19.3503 -3.47956 -3.3772 0
M  V30 210 N 20.6934 1.19889 -1.02296 0
M  V30 211 C 21.6564 2.21116 -0.603351 0
M  V30 212 C 22.6564 1.5738 0.329884 0
M  V30 213 O 23.8464 1.73802 0.117702 0
M  V30 214 C 20.9784 3.40696 0.117992 0
M  V30 215 H 22.1714 2.59754 -1.49893 0
M  V30 216 H 19.7244 1.33463 -0.813468 0
M  V30 217 H 20.4594 3.07569 1.0282 0
M  V30 218 H 20.2444 3.88188 -0.552511 0
M  V30 219 H 21.7344 4.15692 0.398696 0
M  V30 220 N 22.1715 0.800033 1.35784 0
M  V30 221 C 23.1015 0.220184 2.3246 0
M  V30 222 C 24.0825 -0.65073 1.57161 0
M  V30 223 O 25.2675 -0.582359 1.85263 0
M  V30 224 C 22.3975 -0.637353 3.41402 0
M  V30 225 C 21.3515 0.134531 4.27789 0
M  V30 226 C 20.6775 -0.844285 5.27992 0
M  V30 227 C 21.9775 1.32979 5.05088 0
M  V30 228 H 23.6715 1.02787 2.81203 0
M  V30 229 H 21.2175 0.495717 1.35199 0
M  V30 230 H 23.1705 -1.05302 4.08031 0
M  V30 231 H 21.8945 -1.47785 2.91251 0
M  V30 232 H 20.5535 0.531296 3.6273 0
M  V30 233 H 20.2015 -1.68011 4.74111 0
M  V30 234 H 19.9015 -0.332184 5.8666 0
M  V30 235 H 21.4255 -1.2583 5.97494 0
M  V30 236 H 22.8395 0.98934 5.64699 0
M  V30 237 H 21.2365 1.77593 5.7322 0
M  V30 238 H 22.3065 2.11978 4.36111 0
M  V30 239 N 23.6496 -1.47581 0.552962 0
M  V30 240 C 24.5796 -2.32762 -0.185451 0
M  V30 241 C 25.5606 -1.43527 -0.912905 0
M  V30 242 O 26.7456 -1.72388 -0.894201 0
M  V30 243 C 23.8756 -3.25219 -1.21859 0
M  V30 244 C 22.8296 -4.23661 -0.607864 0
M  V30 245 C 22.1556 -5.05413 -1.74533 0
M  V30 246 C 23.4556 -5.20481 0.435582 0
M  V30 247 H 25.1496 -2.94749 0.525684 0
M  V30 248 H 22.6956 -1.41738 0.254251 0
M  V30 249 H 24.6486 -3.8365 -1.7433 0
M  V30 250 H 23.3726 -2.61279 -1.95961 0
M  V30 251 H 22.0316 -3.66451 -0.104489 0
M  V30 252 H 21.6796 -4.3788 -2.47529 0
M  V30 253 H 21.3796 -5.72059 -1.34249 0
M  V30 254 H 22.9036 -5.66701 -2.27338 0
M  V30 255 H 24.3176 -5.733 -0.00290157 0
M  V30 256 H 22.7146 -5.95305 0.757067 0
M  V30 257 H 23.7846 -4.66217 1.33303 0
M  V30 258 N 25.1277 -0.289203 -1.54924 0
M  V30 259 C 26.0577 0.58549 -2.2604 0
M  V30 260 C 27.0387 1.14753 -1.25562 0
M  V30 261 O 28.2237 1.17906 -1.54311 0
M  V30 262 C 25.3537 1.76305 -2.99222 0
M  V30 263 C 24.3077 1.33191 -4.06748 0
M  V30 264 C 23.6337 2.5937 -4.6758 0
M  V30 265 C 24.9337 0.471775 -5.20165 0
M  V30 266 H 26.6277 -0.00763532 -2.99399 0
M  V30 267 H 24.1737 -0.00511229 -1.43999 0
M  V30 268 H 26.1267 2.38097 -3.47689 0
M  V30 269 H 24.8507 2.38223 -2.23422 0
M  V30 270 H 23.5097 0.737121 -3.59113 0
M  V30 271 H 23.1577 3.19576 -3.88433 0
M  V30 272 H 22.8577 2.31228 -5.40192 0
M  V30 273 H 24.3817 3.21985 -5.18804 0
M  V30 274 H 25.7957 0.995056 -5.64599 0
M  V30 275 H 24.1927 0.284639 -5.99425 0
M  V30 276 H 25.2627 -0.506041 -4.82252 0
M  V30 277 N 26.6058 1.57591 -0.0167156 0
M  V30 278 C 27.5378 2.06343 0.997753 0
M  V30 279 C 28.5508 0.984469 1.29661 0
M  V30 280 O 29.7398 1.26093 1.26344 0
M  V30 281 C 26.8398 2.46255 2.32834 0
M  V30 282 C 26.0128 3.77083 2.21646 0
M  V30 283 C 25.0718 4.0368 3.37534 0
M  V30 284 O 24.0978 4.7411 3.14973 0
M  V30 285 N 25.2998 3.52881 4.60929 0
M  V30 286 H 28.0648 2.93997 0.581875 0
M  V30 287 H 25.6258 1.61002 0.170316 0
M  V30 288 H 27.6178 2.61149 3.09166 0
M  V30 289 H 26.1878 1.64032 2.66106 0
M  V30 290 H 25.4078 3.72106 1.30119 0
M  V30 291 H 26.6958 4.62822 2.11361 0
M  V30 292 H 26.0938 2.95878 4.82154 0
M  V30 293 H 24.6508 3.73076 5.34469 0
M  V30 294 N 28.0839 -0.256276 1.55502 0
M  V30 295 C 29.0469 -1.30047 1.88734 0
M  V30 296 C 30.0469 -1.4154 0.763086 0
M  V30 297 O 31.2369 -1.40403 1.03115 0
M  V30 298 C 28.3689 -2.67953 2.10747 0
M  V30 299 H 29.5619 -1.01802 2.82093 0
M  V30 300 H 27.1149 -0.495134 1.4825 0
M  V30 301 H 27.8499 -3.01351 1.19825 0
M  V30 302 H 27.6349 -2.60993 2.92617 0
M  V30 303 H 29.1249 -3.43368 2.37673 0
M  V30 304 N 29.562 -1.4872 -0.521534 0
M  V30 305 C 30.787 -1.61101 -1.30618 0
M  V30 306 C 31.212 -0.274611 -1.86085 0
M  V30 307 O 30.57 0.754937 -1.64834 0
M  V30 308 C 30.618 -2.66709 -2.4269 0
M  V30 309 O 29.722 -2.24456 -3.45967 0
M  V30 310 H 29.063 -0.539921 -0.386499 0
M  V30 311 H 31.593 -1.94767 -0.626645 0
M  V30 312 H 31.603 -2.88245 -2.88754 0
M  V30 313 H 30.278 -3.63727 -2.01682 0
M  V30 314 H 28.855 -2.13168 -3.05964 0
M  V30 315 N 31.0401 0.771051 -1.3745 0
M  V30 316 C 31.9731 1.89166 -1.27638 0
M  V30 317 C 32.9511 1.61842 -0.156782 0
M  V30 318 O 34.1351 1.85569 -0.331111 0
M  V30 319 C 31.2621 3.24405 -0.973621 0
M  V30 320 C 30.3081 3.70638 -2.1102 0
M  V30 321 S 31.1411 3.84228 -3.73 0
M  V30 322 C 32.2971 5.22313 -3.44876 0
M  V30 323 H 32.5301 1.972 -2.22485 0
M  V30 324 H 30.0631 0.932224 -1.23081 0
M  V30 325 H 32.0211 4.02514 -0.805766 0
M  V30 326 H 30.6821 3.14071 -0.0426279 0
M  V30 327 H 29.8751 4.68685 -1.85338 0
M  V30 328 H 29.4771 2.99632 -2.23822 0
M  V30 329 H 31.7691 6.07505 -2.99908 0
M  V30 330 H 32.7121 5.53008 -4.42253 0
M  V30 331 H 33.1201 4.90284 -2.79789 0
M  V30 332 N 32.5182 1.22032 0.997298 0
M  V30 333 C 33.4282 1.00271 2.12092 0
M  V30 334 C 34.4442 -0.047621 1.73935 0
M  V30 335 O 35.6202 0.144136 2.00884 0
M  V30 336 C 32.6852 0.578449 3.4184 0
M  V30 337 C 31.7462 1.70189 3.94125 0
M  V30 338 C 30.9792 1.29778 5.17681 0
M  V30 339 O 31.2022 0.174676 5.70132 0
M  V30 340 O 30.1362 2.11261 5.63607 0
M  V30 341 H 33.9622 1.94398 2.3333 0
M  V30 342 H 31.5472 1.00587 1.10465 0
M  V30 343 H 33.4292 0.351998 4.19927 0
M  V30 344 H 32.1042 -0.334019 3.21972 0
M  V30 345 H 31.0112 1.98282 3.1723 0
M  V30 346 H 32.3442 2.59206 4.18417 0
M  V30 347 N 33.9963 -1.19345 1.0293 0
M  V30 348 C 35.2423 -1.89318 0.727083 0
M  V30 349 C 35.5753 -1.79446 -0.742483 0
M  V30 350 O 34.8503 -1.1871 -1.54072 0
M  V30 351 C 35.1333 -3.40238 1.17942 0
M  V30 352 C 34.9863 -3.58979 2.71024 0
M  V30 353 C 36.3053 -4.33479 0.760548 0
M  V30 354 H 33.4243 -0.687475 0.265606 0
M  V30 355 H 36.0663 -1.40477 1.2793 0
M  V30 356 H 34.2163 -3.81964 0.709608 0
M  V30 357 H 35.8883 -3.26421 3.25955 0
M  V30 358 H 34.1313 -3.02018 3.11396 0
M  V30 359 H 34.8023 -4.64823 2.9773 0
M  V30 360 H 37.2783 -3.99469 1.16464 0
M  V30 361 H 36.1543 -5.37664 1.10493 0
M  V30 362 H 36.4153 -4.40813 -0.337063 0
M  V30 363 N 35.4744 -0.807222 -1.35358 0
M  V30 364 C 36.8904 -0.491038 -1.51858 0
M  V30 365 C 37.0904 0.987648 -1.75635 0
M  V30 366 O 36.1464 1.77265 -1.79815 0
M  V30 367 C 37.4594 -1.33695 -2.69344 0
M  V30 368 C 39.0074 -1.33246 -2.83222 0
M  V30 369 C 39.4824 -2.1625 -4.03733 0
M  V30 370 N 40.9734 -2.1379 -4.10911 0
M  V30 371 C 41.7084 -2.74772 -5.03277 0
M  V30 372 N 41.2044 -3.44684 -6.0097 0
M  V30 373 N 42.9974 -2.6441 -4.96028 0
M  V30 374 H 35.1484 -1.76485 -1.18181 0
M  V30 375 H 37.4114 -0.751199 -0.578276 0
M  V30 376 H 37.1174 -2.38634 -2.58354 0
M  V30 377 H 36.9914 -0.990618 -3.6396 0
M  V30 378 H 39.3784 -0.290911 -2.93663 0
M  V30 379 H 39.4594 -1.71866 -1.89461 0
M  V30 380 H 39.1034 -3.20445 -3.94052 0
M  V30 381 H 39.0334 -1.74989 -4.96675 0
M  V30 382 H 41.5244 -1.62923 -3.40976 0
M  V30 383 H 41.8374 -3.88501 -6.68047 0
M  V30 384 H 40.1824 -3.48788 -6.01142 0
M  V30 385 H 43.3734 -2.0938 -4.18662 0
M  V30 386 H 43.5464 -3.12225 -5.6782 0
M  V30 387 N 36.9525 1.47285 -0.560781 0
M  V30 388 C 38.2005 2.02064 -0.0379868 0
M  V30 389 C 38.5215 1.43711 1.31803 0
M  V30 390 O 37.7915 0.61362 1.86042 0
M  V30 391 H 36.3715 0.746918 -0.0110531 0
M  V30 392 H 39.0335 1.80648 -0.731598 0
M  V30 393 H 38.1295 3.12064 0.0474463 0
M  V30 394 N 38.4306 0.297415 1.54768 0
M  V30 395 C 39.6766 -0.306263 2.01081 0
M  V30 396 C 40.0316 -1.518 1.18214 0
M  V30 397 O 39.3246 -1.89967 0.249613 0
M  V30 398 C 39.5186 -0.717561 3.50123 0
M  V30 399 C 39.3476 0.45277 4.47415 0
M  V30 400 C 38.1176 0.943651 4.9641 0
M  V30 401 C 40.3156 1.29657 4.97688 0
M  V30 402 N 38.2976 2.08112 5.77549 0
M  V30 403 C 39.6686 2.28158 5.76493 0
M  V30 404 C 41.7236 1.32735 4.79881 0
M  V30 405 C 40.4266 3.29509 6.39387 0
M  V30 406 C 42.4526 2.32943 5.43591 0
M  V30 407 C 41.8146 3.30174 6.22225 0
M  V30 408 H 37.9136 -0.0766274 0.778237 0
M  V30 409 H 40.4976 0.426515 1.89971 0
M  V30 410 H 38.6686 -1.41952 3.6153 0
M  V30 411 H 40.4006 -1.30047 3.83236 0
M  V30 412 H 37.1556 0.51922 4.70745 0
M  V30 413 H 37.5796 2.65414 6.22803 0
M  V30 414 H 42.2216 0.589375 4.18672 0
M  V30 415 H 39.9396 4.04228 6.99732 0
M  V30 416 H 43.5256 2.36094 5.31743 0
M  V30 417 H 42.4056 4.06445 6.7065 0
M  V30 418 N 39.9087 -1.5758 0.0250728 0
M  V30 419 C 41.1487 -1.93497 -0.65865 0
M  V30 420 C 41.5127 -0.901409 -1.69525 0
M  V30 421 O 42.7137 -1.14664 -2.43116 0
M  V30 422 C 40.9847 -3.34352 -1.26267 0
M  V30 423 S 42.5437 -3.92191 -1.96803 0
M  V30 424 H 39.3617 -0.67709 -0.216958 0
M  V30 425 H 41.9637 -1.95303 0.0877692 0
M  V30 426 H 40.6677 -4.07395 -0.495741 0
M  V30 427 H 40.1987 -3.3598 -2.04648 0
M  V30 428 H 42.2137 -3.75298 -3.24601 0
M  V30 429 N 41.3868 0.248026 -1.55636 0
M  V30 430 C 42.3168 1.31079 -1.93237 0
M  V30 431 C 43.2978 1.50264 -0.797174 0
M  V30 432 O 44.4828 1.62891 -1.05737 0
M  V30 433 C 41.6128 2.66575 -2.22609 0
M  V30 434 C 40.5668 2.62087 -3.3837 0
M  V30 435 C 39.8928 4.01369 -3.53281 0
M  V30 436 C 41.1928 2.19171 -4.7409 0
M  V30 437 H 42.8868 0.998556 -2.82257 0
M  V30 438 H 40.4328 0.47891 -1.35803 0
M  V30 439 H 42.3858 3.41057 -2.47503 0
M  V30 440 H 41.1098 2.99432 -1.30414 0
M  V30 441 H 39.7688 1.90063 -3.13483 0
M  V30 442 H 39.4168 4.31489 -2.58508 0
M  V30 443 H 39.1168 3.99254 -4.31127 0
M  V30 444 H 40.6408 4.77552 -3.80495 0
M  V30 445 H 42.0548 2.83384 -4.98363 0
M  V30 446 H 40.4518 2.2817 -5.5503 0
M  V30 447 H 41.5218 1.14336 -4.71227 0
M  V30 448 N 42.8649 1.48995 0.513639 0
M  V30 449 C 43.7749 1.67443 1.64317 0
M  V30 450 C 44.7909 0.556947 1.64846 0
M  V30 451 O 45.9669 0.830082 1.83498 0
M  V30 452 C 43.0319 1.72515 3.00732 0
M  V30 453 C 42.0929 2.96009 3.1093 0
M  V30 454 C 41.3259 3.00829 4.40837 0
M  V30 455 O 41.5489 2.13594 5.28898 0
M  V30 456 O 40.4829 3.93168 4.55744 0
M  V30 457 H 44.3089 2.63106 1.51687 0
M  V30 458 H 41.8939 1.32588 0.688543 0
M  V30 459 H 43.7759 1.78277 3.81831 0
M  V30 460 H 42.4509 0.800278 3.13651 0
M  V30 461 H 41.3579 2.9577 2.29065 0
M  V30 462 H 42.6909 3.87934 3.02933 0
M  V30 463 N 44.343 -0.763751 1.37857 0
M  V30 464 C 45.568 -1.55805 1.36893 0
M  V30 465 C 45.993 -1.88054 -0.0416135 0
M  V30 466 O 45.351 -1.49825 -1.02089 0
M  V30 467 C 45.399 -2.84012 2.22192 0
M  V30 468 O 44.503 -3.78732 1.63204 0
M  V30 469 H 43.844 -0.471638 0.46739 0
M  V30 470 H 46.374 -0.944657 1.81487 0
M  V30 471 H 46.384 -3.33037 2.35691 0
M  V30 472 H 45.059 -2.59869 3.24716 0
M  V30 473 H 43.636 -3.37402 1.58791 0
M  V30 474 N 45.8211 -1.22559 -0.990812 0
M  V30 475 C 47.0461 -1.07862 -1.77145 0
M  V30 476 C 47.4711 0.366447 -1.84496 0
M  V30 477 O 46.8291 1.26478 -1.29896 0
M  V30 478 C 46.8771 -1.69686 -3.18181 0
M  V30 479 O 45.9811 -0.951946 -4.01263 0
M  V30 480 H 45.3221 -0.378712 -0.545411 0
M  V30 481 H 47.8521 -1.62399 -1.2445 0
M  V30 482 H 47.8621 -1.74496 -3.68802 0
M  V30 483 H 46.5371 -2.74841 -3.12146 0
M  V30 484 H 45.1141 -0.980011 -3.59792 0
M  V30 485 N 47.2992 1.18797 -1.03562 0
M  V30 486 C 48.2312 2.21731 -0.580337 0
M  V30 487 C 49.2442 1.59051 0.347349 0
M  V30 488 O 50.4332 1.77929 0.142669 0
M  V30 489 C 47.5332 3.38459 0.172805 0
M  V30 490 C 46.7062 4.3072 -0.761496 0
M  V30 491 C 45.7652 5.26174 -0.0525547 0
M  V30 492 O 44.7912 5.65108 -0.681333 0
M  V30 493 N 45.9932 5.67624 1.21586 0
M  V30 494 H 48.7582 2.61417 -1.46565 0
M  V30 495 H 46.3192 1.33531 -0.915476 0
M  V30 496 H 48.3112 3.99335 0.656793 0
M  V30 497 H 46.8812 2.97507 0.959602 0
M  V30 498 H 46.1012 3.67525 -1.42544 0
M  V30 499 H 47.3892 4.89267 -1.39626 0
M  V30 500 H 46.7872 5.38038 1.74732 0
M  V30 501 H 45.3442 6.30721 1.64421 0
M  V30 502 N 48.7773 0.814389 1.34928 0
M  V30 503 C 50.0173 0.404165 2.00364 0
M  V30 504 C 50.3813 -1.01166 1.63185 0
M  V30 505 O 51.5823 -1.52431 2.21401 0
M  V30 506 C 49.8533 0.590718 3.52484 0
M  V30 507 S 51.4123 0.272075 4.37956 0
M  V30 508 H 48.2303 0.15311 0.694319 0
M  V30 509 H 50.8323 1.05834 1.64376 0
M  V30 510 H 49.5363 1.62099 3.77031 0
M  V30 511 H 49.0673 -0.0785013 3.93322 0
M  V30 512 H 51.0823 -0.917405 4.87645 0
M  V30 513 N 50.2554 -1.46986 0.568584 0
M  V30 514 C 51.1874 -2.28233 -0.210337 0
M  V30 515 C 52.2004 -1.37682 -0.868767 0
M  V30 516 O 53.3894 -1.62406 -0.740705 0
M  V30 517 C 50.4894 -3.12293 -1.3163 0
M  V30 518 C 49.6624 -4.30878 -0.7525 0
M  V30 519 C 48.7214 -4.96445 -1.74439 0
M  V30 520 O 47.7474 -5.54482 -1.286 0
M  V30 521 N 48.9494 -4.92171 -3.07812 0
M  V30 522 H 51.7144 -2.95723 0.486648 0
M  V30 523 H 49.2754 -1.56742 0.405409 0
M  V30 524 H 51.2674 -3.53022 -1.97883 0
M  V30 525 H 49.8374 -2.46971 -1.91636 0
M  V30 526 H 49.0574 -3.94104 0.0871128 0
M  V30 527 H 50.3454 -5.07558 -0.35536 0
M  V30 528 H 49.7434 -4.46239 -3.47688 0
M  V30 529 H 48.3004 -5.36884 -3.69592 0
M  V30 530 N 51.7335 -0.305618 -1.54608 0
M  V30 531 C 53.0105 0.355652 -1.92339 0
M  V30 532 C 53.3905 1.71324 -1.23335 0
M  V30 533 O 52.7385 2.25473 -0.370702 0
M  V30 534 C 52.9485 0.46572 -3.45879 0
M  V30 535 C 54.2965 0.734426 -4.182 0
M  V30 536 O 55.3205 0.54935 -3.51938 0
M  V30 537 O 54.1795 1.09024 -5.35515 0
M  V30 538 H 51.2735 0.199666 -0.802535 0
M  V30 539 H 53.8195 -0.354017 -1.65966 0
M  V30 540 H 52.5915 -0.488461 -3.88239 0
M  V30 541 H 52.2145 1.22367 -3.78301 0
M  V30 542 N 53.2116 1.57565 -0.0334293 0
M  V30 543 C 54.1416 2.13511 0.945265 0
M  V30 544 C 55.1226 1.05231 1.33643 0
M  V30 545 O 56.3076 1.33084 1.41429 0
M  V30 546 C 53.4376 2.6657 2.22616 0
M  V30 547 C 52.3916 3.79676 1.97561 0
M  V30 548 C 51.7176 4.1918 3.31952 0
M  V30 549 C 53.0176 5.0557 1.31135 0
M  V30 550 H 54.7116 2.95538 0.479325 0
M  V30 551 H 52.2576 1.42166 0.229115 0
M  V30 552 H 54.2106 3.04344 2.91466 0
M  V30 553 H 52.9346 1.8171 2.71384 0
M  V30 554 H 51.5936 3.42347 1.31127 0
M  V30 555 H 51.2416 3.31296 3.78487 0
M  V30 556 H 50.9416 4.95402 3.15992 0
M  V30 557 H 52.4656 4.59541 4.02063 0
M  V30 558 H 53.8796 5.40903 1.89992 0
M  V30 559 H 52.2766 5.86818 1.25559 0
M  V30 560 H 53.3466 4.84062 0.284894 0
M  V30 561 N 54.6897 -0.239769 1.55765 0
M  V30 562 C 55.9177 -0.98417 1.81994 0
M  V30 563 C 56.3327 -1.7867 0.610124 0
M  V30 564 O 55.6897 -1.77571 -0.421271 0
M  V30 565 C 55.7407 -1.91635 3.06526 0
M  V30 566 O 55.4617 -1.14629 4.22838 0
M  V30 567 C 56.9627 -2.77616 3.45607 0
M  V30 568 H 54.1827 -0.28928 0.605441 0
M  V30 569 H 56.7267 -0.260499 2.02834 0
M  V30 570 H 54.8817 -2.5942 2.87715 0
M  V30 571 H 55.2957 -1.77745 4.93464 0
M  V30 572 H 56.7697 -3.38759 4.35828 0
M  V30 573 H 57.2467 -3.4909 2.6652 0
M  V30 574 H 57.8527 -2.15271 3.66795 0
M  V30 575 N 56.1678 -1.49265 -0.50573 0
M  V30 576 C 57.3958 -1.62215 -1.28429 0
M  V30 577 C 57.8108 -0.291697 -1.86533 0
M  V30 578 O 57.1678 0.722233 -1.67601 0
M  V30 579 C 57.2188 -2.68735 -2.41793 0
M  V30 580 O 56.9398 -3.96619 -1.86078 0
M  V30 581 C 58.4408 -2.92346 -3.3324 0
M  V30 582 H 55.6608 -0.546239 -0.389697 0
M  V30 583 H 58.2048 -1.95265 -0.607609 0
M  V30 584 H 56.3598 -2.38476 -3.053 0
M  V30 585 H 56.7738 -4.55256 -2.60465 0
M  V30 586 H 58.2478 -3.70623 -4.09075 0
M  V30 587 H 58.7248 -2.02081 -3.89948 0
M  V30 588 H 59.3308 -3.24003 -2.75503 0
M  V30 589 N 57.6459 0.756429 -1.3826 0
M  V30 590 C 58.5559 1.9009 -1.37488 0
M  V30 591 C 59.5719 1.71855 -0.272366 0
M  V30 592 O 60.7479 1.94827 -0.510318 0
M  V30 593 C 57.8129 3.25421 -1.19592 0
M  V30 594 C 56.8739 3.56202 -2.39622 0
M  V30 595 C 56.1069 4.85075 -2.2257 0
M  V30 596 O 56.3299 5.57246 -1.21793 0
M  V30 597 O 55.2639 5.15269 -3.11098 0
M  V30 598 H 59.0899 1.93695 -2.33914 0
M  V30 599 H 56.6749 0.901313 -1.1915 0
M  V30 600 H 58.5569 4.06337 -1.11661 0
M  V30 601 H 57.2319 3.22634 -0.262486 0
M  V30 602 H 56.1389 2.75458 -2.53128 0
M  V30 603 H 57.4719 3.63747 -3.31586 0
M  V30 604 N 59.124 1.23083 0.984299 0
M  V30 605 C 60.349 1.088 1.76571 0
M  V30 606 C 60.774 -0.356657 1.84688 0
M  V30 607 O 60.132 -1.25788 1.30565 0
M  V30 608 C 60.18 1.71371 3.17277 0
M  V30 609 O 59.284 0.973213 4.00752 0
M  V30 610 H 58.625 0.381599 0.543395 0
M  V30 611 H 61.155 1.63057 1.23587 0
M  V30 612 H 61.165 1.76449 3.67872 0
M  V30 613 H 59.84 2.76493 3.10684 0
M  V30 614 H 58.417 0.999078 3.59267 0
M  V30 615 N 60.6021 -1.18246 1.0419 0
M  V30 616 C 61.5501 -2.23968 0.627792 0
M  V30 617 C 62.5441 -1.65828 -0.346019 0
M  V30 618 O 63.7501 -1.78733 -0.213175 0
M  V30 619 H 60.1251 -0.728939 0.184802 0
M  V30 620 H 62.0961 -2.56202 1.52981 0
M  V30 621 C 60.8451 -3.47699 0.00796591 0
M  V30 622 H 60.1681 -3.92734 0.748347 0
M  V30 623 H 61.6081 -4.23294 -0.24455 0
M  V30 624 C 60.0671 -3.13153 -1.24246 0
M  V30 625 O 60.5971 -3.27003 -2.33307 0
M  V30 626 N 58.8031 -2.67467 -1.13622 0
M  V30 627 H 58.3501 -2.56396 -0.248734 0
M  V30 628 H 58.3081 -2.44724 -1.97377 0
M  V30 629 N 62.0802 -0.821533 -1.34494 0
M  V30 630 C 63.0102 -0.257138 -2.3208 0
M  V30 631 C 63.9912 0.625645 -1.58176 0
M  V30 632 O 65.1762 0.552811 -1.86166 0
M  V30 633 C 62.3062 0.582958 -3.42372 0
M  V30 634 C 61.2602 -0.202571 -4.2752 0
M  V30 635 C 60.5862 0.760179 -5.29269 0
M  V30 636 C 61.8862 -1.40998 -5.02908 0
M  V30 637 H 63.5802 -1.07247 -2.79532 0
M  V30 638 H 61.1262 -0.517163 -1.34393 0
M  V30 639 H 63.0792 0.987972 -4.09655 0
M  V30 640 H 61.8032 1.43133 -2.93565 0
M  V30 641 H 60.4622 -0.588936 -3.61838 0
M  V30 642 H 60.1102 1.60447 -4.76724 0
M  V30 643 H 59.8102 0.238809 -5.87115 0
M  V30 644 H 61.3342 1.16308 -5.9942 0
M  V30 645 H 62.7482 -1.07905 -5.63054 0
M  V30 646 H 61.1452 -1.86689 -5.70322 0
M  V30 647 H 62.2152 -2.1889 -4.32684 0
M  V30 648 N 63.5583 1.46682 -0.576371 0
M  V30 649 C 64.4883 2.33028 0.148397 0
M  V30 650 C 65.4693 1.44961 0.889956 0
M  V30 651 O 66.6543 1.73789 0.866662 0
M  V30 652 C 63.7843 3.27117 1.1667 0
M  V30 653 C 62.7383 4.24575 0.540386 0
M  V30 654 C 62.0643 5.08126 1.6647 0
M  V30 655 C 63.3643 5.19722 -0.518331 0
M  V30 656 H 65.0583 2.93875 -0.572509 0
M  V30 657 H 62.6043 1.41315 -0.276768 0
M  V30 658 H 64.5573 3.86374 1.68204 0
M  V30 659 H 63.2813 2.64364 1.9178 0
M  V30 660 H 61.9403 3.66571 0.0461769 0
M  V30 661 H 61.5883 4.41762 2.40531 0
M  V30 662 H 61.2883 5.74122 1.25131 0
M  V30 663 H 62.8123 5.70246 2.18293 0
M  V30 664 H 64.2263 5.73232 -0.0883058 0
M  V30 665 H 62.6233 5.94026 -0.851679 0
M  V30 666 H 63.6933 4.64037 -1.40703 0
M  V30 667 N 65.0364 0.313813 1.54444 0
M  V30 668 C 65.9464 -0.565714 2.27677 0
M  V30 669 C 66.9624 -1.13754 1.31666 0
M  V30 670 O 68.1384 -1.15959 1.64668 0
M  V30 671 C 65.2034 -1.71528 3.01296 0
M  V30 672 C 64.2644 -1.17624 4.12872 0
M  V30 673 C 63.4974 -2.27102 4.8297 0
M  V30 674 O 63.7204 -3.47256 4.52514 0
M  V30 675 O 62.6544 -1.9307 5.70094 0
M  V30 676 H 66.4804 0.0287296 3.03686 0
M  V30 677 H 64.0654 0.0798312 1.49187 0
M  V30 678 H 65.9474 -2.38476 3.4743 0
M  V30 679 H 64.6224 -2.29608 2.2817 0
M  V30 680 H 63.5294 -0.472124 3.71109 0
M  V30 681 H 64.8624 -0.640695 4.88012 0
M  V30 682 N 66.5145 -1.57545 0.0417849 0
M  V30 683 C 67.7545 -1.94185 -0.63809 0
M  V30 684 C 68.1185 -0.919339 -1.68559 0
M  V30 685 O 69.3195 -1.17236 -2.41886 0
M  V30 686 C 67.5905 -3.35672 -1.22714 0
M  V30 687 S 69.1495 -3.94256 -1.92633 0
M  V30 688 H 65.9675 -0.679353 -0.209764 0
M  V30 689 H 68.5695 -1.95199 0.108479 0
M  V30 690 H 67.2735 -4.07898 -0.452503 0
M  V30 691 H 66.8045 -3.38132 -2.01073 0
M  V30 692 H 68.8195 -3.7872 -3.20602 0
M  V30 693 N 67.9926 0.231505 -1.5589 0
M  V30 694 C 69.2416 0.955346 -1.7764 0
M  V30 695 C 69.5546 1.85893 -0.608546 0
M  V30 696 O 70.7606 2.62067 -0.70943 0
M  V30 697 C 69.2166 1.74886 -3.14552 0
M  V30 698 C 68.8246 0.891915 -4.39032 0
M  V30 699 C 70.5686 2.46452 -3.45633 0
M  V30 700 C 68.4756 1.68221 -5.66971 0
M  V30 701 H 67.4056 0.360446 -0.662265 0
M  V30 702 H 70.0566 0.209516 -1.823 0
M  V30 703 H 68.4386 2.53723 -3.04041 0
M  V30 704 H 69.6126 0.144793 -4.60572 0
M  V30 705 H 67.9276 0.288863 -4.15397 0
M  V30 706 H 70.5246 3.06061 -4.38441 0
M  V30 707 H 70.8676 3.18841 -2.67668 0
M  V30 708 H 71.4006 1.74613 -3.57428 0
M  V30 709 H 68.1396 1.00178 -6.478 0
M  V30 710 H 67.6596 2.4042 -5.49507 0
M  V30 711 H 69.3386 2.24544 -6.06786 0
M  V30 712 N 69.4707 1.49531 0.497807 0
M  V30 713 C 70.8867 1.36365 0.829266 0
M  V30 714 C 71.0867 0.399184 1.97506 0
M  V30 715 O 70.1427 -0.167977 2.51941 0
M  V30 716 C 71.4557 2.77153 1.16647 0
M  V30 717 C 73.0037 2.85877 1.27449 0
M  V30 718 C 73.4787 4.2744 1.64497 0
M  V30 719 N 74.9697 4.30265 1.7154 0
M  V30 720 C 75.7047 5.3677 2.01656 0
M  V30 721 N 75.2007 6.53516 2.29976 0
M  V30 722 N 76.9937 5.24189 2.02934 0
M  V30 723 H 69.1447 2.10831 -0.257703 0
M  V30 724 H 71.4077 0.946534 -0.0527091 0
M  V30 725 H 71.1137 3.49442 0.397872 0
M  V30 726 H 70.9877 3.12722 2.10915 0
M  V30 727 H 73.3747 2.13824 2.0338 0
M  V30 728 H 73.4557 2.53887 0.312244 0
M  V30 729 H 73.0997 5.00021 0.891151 0
M  V30 730 H 73.0297 4.56896 2.61827 0
M  V30 731 H 75.5207 3.4607 1.51802 0
M  V30 732 H 75.8337 7.30506 2.52153 0
M  V30 733 H 74.1787 6.56737 2.27425 0
M  V30 734 H 77.3697 4.31988 1.80289 0
M  V30 735 H 77.5427 6.07286 2.26071 0
M  V30 736 N 70.9488 -0.749086 1.3866 0
M  V30 737 C 71.9118 -1.84457 1.36045 0
M  V30 738 C 72.9118 -1.58682 0.260122 0
M  V30 739 O 74.1018 -1.66343 0.517261 0
M  V30 740 C 71.2338 -3.22008 1.11911 0
M  V30 741 H 72.4268 -1.88182 2.33512 0
M  V30 742 H 69.9798 -0.951266 1.24019 0
M  V30 743 H 70.7148 -3.2395 0.150686 0
M  V30 744 H 70.4998 -3.42111 1.91579 0
M  V30 745 H 71.9898 -4.0208 1.12788 0
M  V30 746 N 72.4269 -1.23603 -0.977757 0
M  V30 747 C 73.6669 -1.08148 -1.73446 0
M  V30 748 C 74.0309 0.374785 -1.88307 0
M  V30 749 O 75.2319 0.650588 -2.60808 0
M  V30 750 C 73.5029 -1.78991 -3.0935 0
M  V30 751 S 75.0619 -1.79141 -4.00567 0
M  V30 752 H 71.8799 -0.386987 -0.596458 0
M  V30 753 H 74.4819 -1.5678 -1.16792 0
M  V30 754 H 73.1859 -2.8408 -2.96187 0
M  V30 755 H 72.7169 -1.30651 -3.71071 0
M  V30 756 H 74.7319 -0.851892 -4.88833 0
M  V30 757 N 73.905 1.17692 -1.04816 0
M  V30 758 C 74.852 2.21581 -0.645797 0
M  V30 759 C 75.822 1.62367 0.350159 0
M  V30 760 O 77.007 1.89254 0.242433 0
M  V30 761 C 74.147 3.45092 -0.0227568 0
M  V30 762 C 73.26 4.18613 -1.06709 0
M  V30 763 C 72.395 5.29602 -0.411767 0
M  V30 764 C 71.434 5.94904 -1.44067 0
M  V30 765 N 70.571 6.97414 -0.809781 0
M  V30 766 H 75.411 2.55353 -1.5362 0
M  V30 767 H 72.948 1.25438 -0.768364 0
M  V30 768 H 74.906 4.15679 0.35588 0
M  V30 769 H 73.536 3.11917 0.831122 0
M  V30 770 H 72.588 3.46779 -1.5636 0
M  V30 771 H 73.9 4.63293 -1.84827 0
M  V30 772 H 73.054 6.06696 0.0206623 0
M  V30 773 H 71.793 4.86045 0.401438 0
M  V30 774 H 70.798 5.16544 -1.88316 0
M  V30 775 H 72.023 6.40542 -2.25571 0
M  V30 776 H 69.969 6.55998 -0.0170186 0
M  V30 777 H 69.886 7.40386 -1.52856 0
M  V30 778 H 71.154 7.78463 -0.401999 0
M  V30 779 N 75.3831 0.828654 1.34056 0
M  V30 780 C 76.7941 0.477534 1.8049 0
M  V30 781 C 77.1451 -1.00258 1.6865 0
M  V30 782 O 76.2701 -1.78057 1.22982 0
M  V30 783 C 76.8651 0.860018 3.27703 0
M  V30 784 C 75.4241 0.561185 3.72193 0
M  V30 785 C 74.5711 1.07385 2.55663 0
M  V30 786 H 77.5221 1.0183 1.21722 0
M  V30 787 H 77.5431 0.166038 3.80138 0
M  V30 788 H 77.0551 1.93731 3.36288 0
M  V30 789 H 75.1561 -0.506465 3.69142 0
M  V30 790 H 75.2691 1.10926 4.66082 0
M  V30 791 H 73.6331 0.495149 2.49841 0
M  V30 792 H 74.4161 2.15771 2.67016 0
M  V30 793 N 76.8612 -1.46375 0.584142 0
M  V30 794 C 78.1382 -1.956 0.0033388 0
M  V30 795 C 78.5182 -1.52679 -1.45782 0
M  V30 796 O 77.8662 -0.77816 -2.14842 0
M  V30 797 C 78.0762 -3.48551 0.176891 0
M  V30 798 C 79.4242 -4.24576 0.0454609 0
M  V30 799 O 80.4482 -3.56043 0.105801 0
M  V30 800 O 79.3072 -5.46427 -0.0890376 0
M  V30 801 H 76.4012 -0.825547 -0.0490066 0
M  V30 802 H 78.9472 -1.56652 0.65256 0
M  V30 803 H 77.7192 -3.72683 1.1926 0
M  V30 804 H 77.3422 -3.94332 -0.508695 0
M  V30 805 N 78.3393 -0.321999 -1.54275 0
M  V30 806 C 79.2693 0.537411 -2.27231 0
M  V30 807 C 80.2503 1.12064 -1.27968 0
M  V30 808 O 81.4353 1.14606 -1.56777 0
M  V30 809 C 78.5653 1.69919 -3.02894 0
M  V30 810 C 77.5193 1.24534 -4.09482 0
M  V30 811 C 76.8453 2.49394 -4.72977 0
M  V30 812 C 78.1453 0.361335 -5.21049 0
M  V30 813 H 79.8393 -0.0711406 -2.99315 0
M  V30 814 H 77.3853 -0.0356555 -1.43956 0
M  V30 815 H 79.3383 2.30668 -3.52662 0
M  V30 816 H 78.0623 2.33431 -2.28424 0
M  V30 817 H 76.7213 0.660782 -3.60596 0
M  V30 818 H 76.3693 3.11265 -3.95124 0
M  V30 819 H 76.0693 2.19718 -5.44975 0
M  V30 820 H 77.5933 3.10908 -5.25517 0
M  V30 821 H 79.0073 0.875072 -5.66582 0
M  V30 822 H 77.4043 0.157428 -5.99893 0
M  V30 823 H 78.4743 -0.60822 -4.8107 0
M  V30 824 N 79.8174 1.5752 -0.0501392 0
M  V30 825 C 81.0424 1.97376 0.636997 0
M  V30 826 C 81.4674 0.927466 1.63645 0
M  V30 827 O 80.8254 -0.10941 1.8097 0
M  V30 828 C 80.8734 3.36304 1.30123 0
M  V30 829 O 79.9774 3.34156 2.41689 0
M  V30 830 H 79.3184 0.642998 0.165679 0
M  V30 831 H 81.8484 2.04258 -0.118233 0
M  V30 832 H 81.8584 3.73008 1.65315 0
M  V30 833 H 80.5334 4.11993 0.568746 0
M  V30 834 H 79.1104 3.09196 2.08451 0
M  V30 835 N 81.2955 -0.223234 1.56011 0
M  V30 836 C 82.2585 -1.26014 1.9145 0
M  V30 837 C 83.2585 -1.3989 0.792937 0
M  V30 838 O 84.4485 -1.38184 1.0607 0
M  V30 839 C 81.5805 -2.63422 2.16383 0
M  V30 840 H 82.7735 -0.95796 2.84189 0
M  V30 841 H 80.3265 -0.463576 1.49267 0
M  V30 842 H 81.0615 -2.98741 1.2619 0
M  V30 843 H 80.8465 -2.54728 2.98088 0
M  V30 844 H 82.3365 -3.38249 2.44903 0
M  V30 845 N 82.7736 -1.49793 -0.48987 0
M  V30 846 C 83.6836 -1.70036 -1.61632 0
M  V30 847 C 84.6996 -0.583102 -1.63939 0
M  V30 848 O 85.8756 -0.859169 -1.82154 0
M  V30 849 C 82.9406 -1.77277 -2.97949 0
M  V30 850 C 82.0016 -3.00918 -3.06181 0
M  V30 851 C 81.2346 -3.07804 -4.35996 0
M  V30 852 O 81.4576 -2.21982 -5.25433 0
M  V30 853 O 80.3916 -4.00369 -4.49431 0
M  V30 854 H 84.2176 -2.65486 -1.47482 0
M  V30 855 H 81.8026 -1.33666 -0.667362 0
M  V30 856 H 83.6846 -1.84329 -3.78947 0
M  V30 857 H 82.3596 -0.850076 -3.12339 0
M  V30 858 H 81.2666 -2.99377 -2.2433 0
M  V30 859 H 82.5996 -3.92704 -2.96723 0
M  V30 860 N 84.2517 0.741722 -1.39055 0
M  V30 861 C 85.4797 1.53098 -1.39171 0
M  V30 862 C 85.8947 1.88794 0.0155099 0
M  V30 863 O 85.2517 1.53626 0.985159 0
M  V30 864 C 85.3027 2.82274 -2.2584 0
M  V30 865 O 85.0237 2.48097 -3.61081 0
M  V30 866 C 86.5247 3.76343 -2.34266 0
M  V30 867 H 83.7447 0.473335 -0.4756 0
M  V30 868 H 86.2887 0.917045 -1.82785 0
M  V30 869 H 84.4437 3.40015 -1.85656 0
M  V30 870 H 84.8577 3.31029 -4.06842 0
M  V30 871 H 86.3317 4.63898 -2.9917 0
M  V30 872 H 86.8087 4.17619 -1.35982 0
M  V30 873 H 87.4147 3.24523 -2.74891 0
M  V30 874 N 85.7298 1.2412 0.971189 0
M  V30 875 C 87.1408 1.07236 1.52831 0
M  V30 876 C 87.4918 -0.357352 1.92918 0
M  V30 877 O 86.6168 -1.24528 1.76979 0
M  V30 878 C 87.2118 1.94043 2.77728 0
M  V30 879 C 85.7708 1.81394 3.29808 0
M  V30 880 C 84.9178 1.89189 2.02738 0
M  V30 881 H 87.8688 1.37648 0.789864 0
M  V30 882 H 87.8898 1.47066 3.5093 0
M  V30 883 H 87.4018 2.98093 2.4852 0
M  V30 884 H 85.5028 0.801634 3.63874 0
M  V30 885 H 85.6158 2.65294 3.98944 0
M  V30 886 H 83.9798 1.32877 2.17292 0
M  V30 887 H 84.7628 2.94812 1.759 0
M  V30 888 N 87.2079 -1.17134 1.05439 0
M  V30 889 C 88.1409 -2.2012 0.601855 0
M  V30 890 C 89.1189 -1.58314 -0.370854 0
M  V30 891 O 90.3029 -1.8638 -0.281882 0
M  V30 892 C 87.4299 -3.38491 -0.118868 0
M  V30 893 C 86.4759 -4.18752 0.809242 0
M  V30 894 S 87.3089 -4.83602 2.29977 0
M  V30 895 C 88.4649 -6.0536 1.59029 0
M  V30 896 H 88.6979 -2.58165 1.47438 0
M  V30 897 H 86.2309 -1.27788 0.866573 0
M  V30 898 H 88.1889 -4.07084 -0.528495 0
M  V30 899 H 86.8499 -2.98829 -0.967465 0
M  V30 900 H 86.0429 -5.03373 0.251379 0
M  V30 901 H 85.6449 -3.5561 1.15835 0
M  V30 902 H 87.9369 -6.71615 0.891017 0
M  V30 903 H 88.8799 -6.65679 2.41407 0
M  V30 904 H 89.2879 -5.54138 1.07663 0
M  V30 905 N 88.686 -0.835752 -1.33615 0
M  V30 906 C 89.933 -0.429959 -1.97883 0
M  V30 907 C 90.261 1.01006 -1.66217 0
M  V30 908 O 89.516 1.72047 -0.93265 0
M  V30 909 C 89.815 -0.593925 -3.52431 0
M  V30 910 C 89.481 -2.00158 -4.04039 0
M  V30 911 C 88.143 -2.38662 -4.17844 0
M  V30 912 C 90.495 -2.92117 -4.31644 0
M  V30 913 C 87.823 -3.68435 -4.56588 0
M  V30 914 C 90.175 -4.21368 -4.71838 0
M  V30 915 C 88.839 -4.59833 -4.83849 0
M  V30 916 H 88.109 -0.157333 -0.724104 0
M  V30 917 H 90.756 -1.06217 -1.59343 0
M  V30 918 H 89.061 0.121619 -3.91611 0
M  V30 919 H 90.758 -0.260282 -4.00154 0
M  V30 920 H 87.348 -1.69252 -3.93766 0
M  V30 921 H 91.532 -2.63608 -4.20505 0
M  V30 922 H 86.788 -3.98046 -4.64079 0
M  V30 923 H 90.962 -4.92703 -4.92155 0
M  V30 924 H 88.589 -5.60438 -5.13627 0
M  V30 925 N 90.1641 1.46063 -0.591896 0
M  V30 926 C 91.5751 1.85944 -0.167822 0
M  V30 927 C 91.9261 1.49429 1.27143 0
M  V30 928 O 91.0511 0.913515 1.96173 0
M  V30 929 C 91.6461 3.37489 -0.297794 0
M  V30 930 C 90.2051 3.76332 0.0714732 0
M  V30 931 C 89.3521 2.7006 -0.629509 0
M  V30 932 H 92.3031 1.37087 -0.799555 0
M  V30 933 H 92.3241 3.77532 0.474349 0
M  V30 934 H 91.8361 3.64034 -1.3454 0
M  V30 935 H 89.9371 3.55405 1.11886 0
M  V30 936 H 90.0501 4.78088 -0.311245 0
M  V30 937 H 88.4141 2.54607 -0.0687867 0
M  V30 938 H 89.1971 2.99444 -1.67894 0
M  V30 939 N 91.6422 0.330177 1.54103 0
M  V30 940 C 92.8902 -0.269871 2.0029 0
M  V30 941 C 93.2112 -1.52133 1.21986 0
M  V30 942 O 92.4812 -1.93212 0.323438 0
M  V30 943 H 91.0612 -0.10271 0.739905 0
M  V30 944 H 93.7232 0.448249 1.89675 0
M  V30 945 H 92.8192 -0.52166 3.07709 0
M  V30 946 N 93.1203 -1.57491 0.0584922 0
M  V30 947 C 94.0683 -2.13148 -0.931168 0
M  V30 948 C 95.0623 -1.06507 -1.31729 0
M  V30 949 O 96.2683 -1.24906 -1.29609 0
M  V30 950 H 92.6433 -0.68137 -0.31818 0
M  V30 951 H 94.6143 -2.95187 -0.436707 0
M  V30 952 C 93.3633 -2.69732 -2.19408 0
M  V30 953 H 92.6863 -3.51454 -1.90578 0
M  V30 954 H 94.1263 -3.12287 -2.86798 0
M  V30 955 C 92.5853 -1.63855 -2.94369 0
M  V30 956 O 93.1153 -1.05565 -3.87581 0
M  V30 957 N 91.3213 -1.35202 -2.57233 0
M  V30 958 H 90.8683 -1.82791 -1.81508 0
M  V30 959 H 90.8263 -0.645922 -3.07693 0
M  V30 960 N 94.5984 0.214957 -1.56127 0
M  V30 961 C 95.8464 0.936518 -1.79091 0
M  V30 962 C 96.1674 1.84606 -0.628148 0
M  V30 963 O 95.4374 1.92664 0.35462 0
M  V30 964 H 94.0174 0.3488 -0.660566 0
M  V30 965 H 96.6794 0.22523 -1.93594 0
M  V30 966 H 95.7754 1.53943 -2.71492 0
M  V30 967 N 96.0765 1.50051 0.48192 0
M  V30 968 C 97.3535 1.51009 1.2432 0
M  V30 969 C 97.7335 0.248587 2.09631 0
M  V30 970 O 97.0815 -0.768409 2.15192 0
M  V30 971 C 97.2915 2.79981 2.08355 0
M  V30 972 C 98.6395 3.3022 2.66908 0
M  V30 973 O 99.6635 2.81228 2.18607 0
M  V30 974 O 98.5225 4.15595 3.54884 0
M  V30 975 H 95.6165 0.605239 0.563573 0
M  V30 976 H 98.1625 1.62332 0.494627 0
M  V30 977 H 96.9345 3.63275 1.45419 0
M  V30 978 H 96.5575 2.7161 2.90368 0
M  V30 979 N 97.5546 -0.734337 1.39446 0
M  V30 980 C 98.4646 -1.87879 1.40495 0
M  V30 981 C 99.4806 -1.714 0.299672 0
M  V30 982 O 100.657 -1.93991 0.541249 0
M  V30 983 C 97.7216 -3.23477 1.24754 0
M  V30 984 C 96.7826 -3.52344 2.45259 0
M  V30 985 C 96.0156 -4.81473 2.30259 0
M  V30 986 O 96.2386 -5.55237 1.30643 0
M  V30 987 O 95.1726 -5.10254 3.19256 0
M  V30 988 H 98.9986 -1.89949 2.36966 0
M  V30 989 H 96.5836 -0.882243 1.20569 0
M  V30 990 H 98.4656 -4.04509 1.18111 0
M  V30 991 H 97.1406 -3.22176 0.313781 0
M  V30 992 H 96.0476 -2.71396 2.57478 0
M  V30 993 H 97.3806 -3.58426 3.37331 0
M  V30 994 N 99.0327 -1.24633 -0.964593 0
M  V30 995 C 99.9647 -0.999302 -2.06268 0
M  V30 996 C 100.978 0.0323226 -1.62768 0
M  V30 997 O 102.167 -0.205079 -1.77318 0
M  V30 998 C 99.2667 -0.486816 -3.35385 0
M  V30 999 C 98.4397 -1.5823 -4.07777 0
M  V30 1000 C 97.4987 -1.07191 -5.15166 0
M  V30 1001 O 96.5247 -1.76426 -5.41168 0
M  V30 1002 N 97.7267 0.0920373 -5.80427 0
M  V30 1003 H 100.492 -1.94477 -2.28033 0
M  V30 1004 H 98.0527 -1.15704 -1.13244 0
M  V30 1005 H 100.045 -0.130066 -4.04491 0
M  V30 1006 H 98.6147 0.364459 -3.10468 0
M  V30 1007 H 97.8347 -2.11109 -3.32906 0
M  V30 1008 H 99.1227 -2.31854 -4.52903 0
M  V30 1009 H 98.5207 0.670784 -5.61709 0
M  V30 1010 H 97.0777 0.389905 -6.50633 0
M  V30 1011 N 100.511 1.16574 -1.06058 0
M  V30 1012 C 101.922 1.68662 -0.800632 0
M  V30 1013 C 102.273 1.84184 0.67608 0
M  V30 1014 O 101.398 1.53568 1.52466 0
M  V30 1015 C 101.993 3.06356 -1.44676 0
M  V30 1016 C 100.552 3.55575 -1.23465 0
M  V30 1017 C 99.6988 2.31616 -1.52477 0
M  V30 1018 H 102.65 1.00969 -1.22438 0
M  V30 1019 H 102.671 3.70636 -0.860788 0
M  V30 1020 H 102.183 2.95027 -2.52152 0
M  V30 1021 H 100.284 3.72167 -0.179527 0
M  V30 1022 H 100.397 4.37812 -1.94571 0
M  V30 1023 H 98.7608 2.36512 -0.945209 0
M  V30 1024 H 99.5438 2.22887 -2.61106 0
M  V30 1025 N 101.989 0.842826 1.3317 0
M  V30 1026 C 102.919 0.294028 2.31641 0
M  V30 1027 C 103.9 -0.600401 1.59151 0
M  V30 1028 O 105.085 -0.523124 1.87022 0
M  V30 1029 C 102.215 -0.528416 3.43257 0
M  V30 1030 C 101.169 0.27056 4.27144 0
M  V30 1031 C 100.495 -0.675881 5.30411 0
M  V30 1032 C 101.795 1.48981 5.00602 0
M  V30 1033 H 103.489 1.11681 2.77791 0
M  V30 1034 H 101.035 0.538478 1.33553 0
M  V30 1035 H 102.988 -0.922674 4.11175 0
M  V30 1036 H 101.712 -1.38445 2.95805 0
M  V30 1037 H 100.371 0.646427 3.60856 0
M  V30 1038 H 100.019 -1.52842 4.79216 0
M  V30 1039 H 99.7189 -0.145374 5.8742 0
M  V30 1040 H 101.243 -1.06757 6.01195 0
M  V30 1041 H 102.657 1.16849 5.61266 0
M  V30 1042 H 101.054 1.95739 5.6728 0
M  V30 1043 H 102.124 2.25746 4.29147 0
M  V30 1044 N 103.467 -1.45747 0.599634 0
M  V30 1045 C 104.695 -2.06668 0.0978551 0
M  V30 1046 C 105.11 -1.44562 -1.21439 0
M  V30 1047 O 104.467 -0.556923 -1.73795 0
M  V30 1048 C 104.518 -3.61456 -0.0567044 0
M  V30 1049 O 104.239 -4.21242 1.20361 0
M  V30 1050 C 105.74 -4.39345 -0.590869 0
M  V30 1051 H 102.96 -0.667825 0.0651943 0
M  V30 1052 H 105.504 -1.87115 0.82511 0
M  V30 1053 H 103.659 -3.80378 -0.734251 0
M  V30 1054 H 104.073 -5.14323 1.02821 0
M  V30 1055 H 105.547 -5.48182 -0.648131 0
M  V30 1056 H 106.024 -4.08568 -1.61147 0
M  V30 1057 H 106.63 -4.25268 0.0523679 0
M  V30 1058 N 104.945 -0.338344 -1.53925 0
M  V30 1059 C 105.855 0.529421 -2.28548 0
M  V30 1060 C 106.871 1.11645 -1.3346 0
M  V30 1061 O 108.047 1.13325 -1.66492 0
M  V30 1062 C 105.112 1.66713 -3.03987 0
M  V30 1063 C 104.173 1.11041 -4.14691 0
M  V30 1064 C 103.406 2.19389 -4.86522 0
M  V30 1065 O 103.629 3.40013 -4.57982 0
M  V30 1066 O 102.563 1.83976 -5.73094 0
M  V30 1067 H 106.389 -0.0770399 -3.03602 0
M  V30 1068 H 103.974 -0.103555 -1.49041 0
M  V30 1069 H 105.856 2.32918 -3.5118 0
M  V30 1070 H 104.531 2.25949 -2.31794 0
M  V30 1071 H 103.438 0.413024 -3.71813 0
M  V30 1072 H 104.771 0.562975 -4.8897 0
M  V30 1073 N 106.423 1.57458 -0.0668435 0
M  V30 1074 C 107.371 2.13639 0.919851 0
M  V30 1075 C 108.365 1.07204 1.31163 0
M  V30 1076 O 109.571 1.25591 1.28945 0
M  V30 1077 H 105.946 0.683048 0.314562 0
M  V30 1078 H 107.917 2.95415 0.421047 0
M  V30 1079 C 106.666 2.70892 2.17975 0
M  V30 1080 H 105.989 3.5246 1.88711 0
M  V30 1081 H 107.429 3.13803 2.85138 0
M  V30 1082 C 105.888 1.65414 2.93496 0
M  V30 1083 O 106.418 1.07619 3.87015 0
M  V30 1084 N 104.624 1.36564 2.56512 0
M  V30 1085 H 104.171 1.83751 1.80536 0
M  V30 1086 H 104.129 0.66223 3.07347 0
M  V30 1087 N 107.901 -0.206675 1.56239 0
M  V30 1088 C 109.312 -0.772383 1.69974 0
M  V30 1089 C 109.663 -1.84353 0.671436 0
M  V30 1090 O 108.788 -2.15695 -0.174491 0
M  V30 1091 C 109.383 -1.40779 3.08167 0
M  V30 1092 C 107.942 -1.92072 3.23706 0
M  V30 1093 C 107.089 -0.786347 2.65917 0
M  V30 1094 H 110.04 0.0182223 1.5869 0
M  V30 1095 H 110.061 -2.27696 3.04852 0
M  V30 1096 H 109.573 -0.627958 3.82986 0
M  V30 1097 H 107.674 -2.7281 2.53782 0
M  V30 1098 H 107.787 -2.09046 4.31087 0
M  V30 1099 H 106.151 -1.1976 2.24788 0
M  V30 1100 H 106.934 -0.0189416 3.43295 0
M  V30 1101 N 109.379 -1.50304 -0.473955 0
M  V30 1102 C 110.795 -1.37667 -0.807466 0
M  V30 1103 C 110.995 -0.430555 -1.96846 0
M  V30 1104 O 110.051 0.127874 -2.52176 0
M  V30 1105 C 111.364 -2.78974 -1.12223 0
M  V30 1106 C 112.912 -2.87868 -1.22885 0
M  V30 1107 C 113.387 -4.30003 -1.57676 0
M  V30 1108 N 114.878 -4.3294 -1.64673 0
M  V30 1109 C 115.613 -5.3991 -1.93091 0
M  V30 1110 N 115.109 -6.57092 -2.1955 0
M  V30 1111 N 116.902 -5.27351 -1.94569 0
M  V30 1112 H 109.053 -2.10394 0.291212 0
M  V30 1113 H 111.316 -0.945575 0.0677609 0
M  V30 1114 H 111.022 -3.50031 -0.342229 0
M  V30 1115 H 110.896 -3.16038 -2.05913 0
M  V30 1116 H 113.283 -2.17032 -1.99953 0
M  V30 1117 H 113.364 -2.54352 -0.271814 0
M  V30 1118 H 113.008 -5.01375 -0.81149 0
M  V30 1119 H 112.938 -4.61004 -2.54525 0
M  V30 1120 H 115.429 -3.48441 -1.46277 0
M  V30 1121 H 115.742 -7.34425 -2.405 0
M  V30 1122 H 114.087 -6.60272 -2.16948 0
M  V30 1123 H 117.278 -4.34801 -1.73394 0
M  V30 1124 H 117.451 -6.10805 -2.16381 0
M  V30 1125 N 110.857 0.726932 -1.39834 0
M  V30 1126 C 111.804 1.841 -1.39197 0
M  V30 1127 C 112.774 1.642 -0.250502 0
M  V30 1128 O 113.959 1.85494 -0.446846 0
M  V30 1129 C 111.099 3.21697 -1.24919 0
M  V30 1130 C 110.212 3.53247 -2.48678 0
M  V30 1131 C 109.347 4.80289 -2.26928 0
M  V30 1132 C 108.386 5.04707 -3.4632 0
M  V30 1133 N 107.523 6.22956 -3.23836 0
M  V30 1134 H 112.363 1.83979 -2.34427 0
M  V30 1135 H 109.9 0.898876 -1.16442 0
M  V30 1136 H 111.858 4.01137 -1.1465 0
M  V30 1137 H 110.488 3.21076 -0.333153 0
M  V30 1138 H 109.54 2.68447 -2.69519 0
M  V30 1139 H 110.852 3.67205 -3.37582 0
M  V30 1140 H 110.006 5.67725 -2.13947 0
M  V30 1141 H 108.745 4.68519 -1.35431 0
M  V30 1142 H 107.75 4.1573 -3.5979 0
M  V30 1143 H 108.975 5.18357 -4.38729 0
M  V30 1144 H 106.921 6.12459 -2.35011 0
M  V30 1145 H 106.838 6.37539 -4.063 0
M  V30 1146 H 108.106 7.1321 -3.14566 0
M  V30 1147 N 112.336 1.25143 0.95797 0
M  V30 1148 C 113.566 1.12261 1.73439 0
M  V30 1149 C 113.974 -0.326715 1.86358 0
M  V30 1150 O 113.317 -1.2367 1.35836 0
M  V30 1151 C 113.379 1.69966 3.16784 0
M  V30 1152 C 113.043 3.18936 3.27305 0
M  V30 1153 C 114.04 4.15968 3.11877 0
M  V30 1154 C 111.725 3.59083 3.51234 0
M  V30 1155 C 113.719 5.51126 3.20217 0
M  V30 1156 C 111.406 4.9438 3.5921 0
M  V30 1157 C 112.404 5.90211 3.43716 0
M  V30 1158 O 112.092 7.23046 3.51368 0
M  V30 1159 H 111.824 0.392476 0.550399 0
M  V30 1160 H 114.378 1.65927 1.21068 0
M  V30 1161 H 112.608 1.10744 3.70503 0
M  V30 1162 H 114.297 1.52232 3.76272 0
M  V30 1163 H 115.063 3.86292 2.93264 0
M  V30 1164 H 110.942 2.84989 3.62356 0
M  V30 1165 H 114.486 6.25905 3.0804 0
M  V30 1166 H 110.383 5.23723 3.77339 0
M  V30 1167 H 111.151 7.31097 3.6802 0
M  V30 1168 N 113.814 -1.1601 1.06675 0
M  V30 1169 C 115.06 -1.86909 0.786945 0
M  V30 1170 C 115.393 -1.81717 -0.685018 0
M  V30 1171 O 114.668 -1.23551 -1.50218 0
M  V30 1172 C 114.951 -3.36313 1.28707 0
M  V30 1173 C 114.804 -3.50175 2.82308 0
M  V30 1174 C 116.123 -4.3084 0.898071 0
M  V30 1175 H 113.242 -0.678677 0.287343 0
M  V30 1176 H 115.884 -1.36336 1.32334 0
M  V30 1177 H 114.034 -3.79513 0.830768 0
M  V30 1178 H 115.706 -3.15886 3.36175 0
M  V30 1179 H 113.949 -2.91959 3.20847 0
M  V30 1180 H 114.62 -4.55116 3.12368 0
M  V30 1181 H 117.096 -3.95561 1.29114 0
M  V30 1182 H 115.972 -5.33876 1.27543 0
M  V30 1183 H 116.233 -4.41662 -0.196651 0
M  V30 1184 N 115.292 -0.849877 -1.32721 0
M  V30 1185 C 116.225 -0.235903 -2.26977 0
M  V30 1186 C 117.203 0.623355 -1.50177 0
M  V30 1187 O 118.387 0.581207 -1.79316 0
M  V30 1188 C 115.514 0.667712 -3.32053 0
M  V30 1189 C 114.56 -0.11753 -4.26338 0
M  V30 1190 S 115.393 -1.48277 -5.14562 0
M  V30 1191 C 116.549 -0.584741 -6.23163 0
M  V30 1192 H 116.782 -1.03495 -2.78704 0
M  V30 1193 H 114.315 -0.64724 -1.40179 0
M  V30 1194 H 116.273 1.18343 -3.93072 0
M  V30 1195 H 114.934 1.44052 -2.7912 0
M  V30 1196 H 114.127 0.57051 -5.00761 0
M  V30 1197 H 113.729 -0.564668 -3.69713 0
M  V30 1198 H 116.021 0.212968 -6.77165 0
M  V30 1199 H 116.964 -1.29947 -6.96074 0
M  V30 1200 H 117.372 -0.161202 -5.6427 0
M  V30 1201 N 116.77 1.45427 -0.607355 0
M  V30 1202 C 118.018 2.01841 -0.102253 0
M  V30 1203 C 118.339 1.47832 1.27164 0
M  V30 1204 O 117.609 0.672497 1.83995 0
M  V30 1205 H 116.189 0.746188 -0.0348101 0
M  V30 1206 H 118.851 1.78229 -0.7887 0
M  V30 1207 H 117.947 3.12057 -0.0518585 0
M  V30 1208 N 118.248 0.346503 1.53744 0
M  V30 1209 C 119.198 -0.524953 2.21874 0
M  V30 1210 C 120.182 -1.06376 1.20718 0
M  V30 1211 O 121.374 -0.996972 1.46251 0
M  V30 1212 C 118.503 -1.6739 2.99726 0
M  V30 1213 C 117.589 -1.14888 4.08242 0
M  V30 1214 N 117.98 -0.345329 5.0462 0
M  V30 1215 C 116.278 -1.4255 4.22606 0
M  V30 1216 C 116.979 -0.0600706 5.81669 0
M  V30 1217 N 115.955 -0.65252 5.39669 0
M  V30 1218 H 119.757 0.0960091 2.93743 0
M  V30 1219 H 117.271 0.15352 1.61673 0
M  V30 1220 H 119.268 -2.3102 3.47038 0
M  V30 1221 H 117.928 -2.29811 2.29384 0
M  V30 1222 H 118.939 0.0138439 5.17898 0
M  V30 1223 H 115.616 -2.05389 3.63486 0
M  V30 1224 H 117.006 0.588321 6.69319 0
M  V30 1225 N 119.726 -1.57421 0.075193 0
M  V30 1226 C 120.973 -1.93618 -0.593146 0
M  V30 1227 C 121.301 -0.955484 -1.69413 0
M  V30 1228 O 120.556 0.0283251 -1.9568 0
M  V30 1229 C 120.855 -3.36428 -1.20626 0
M  V30 1230 C 120.521 -4.50307 -0.231078 0
M  V30 1231 C 119.183 -4.81186 0.0371936 0
M  V30 1232 C 121.535 -5.19374 0.435888 0
M  V30 1233 C 118.863 -5.78466 0.979461 0
M  V30 1234 C 121.215 -6.17665 1.3665 0
M  V30 1235 C 119.879 -6.46958 1.6432 0
M  V30 1236 H 119.149 -0.708499 -0.217047 0
M  V30 1237 H 121.796 -1.90937 0.146793 0
M  V30 1238 H 120.101 -3.35592 -2.02201 0
M  V30 1239 H 121.798 -3.61727 -1.73073 0
M  V30 1240 H 118.388 -4.26227 -0.450357 0
M  V30 1241 H 122.572 -4.95711 0.241748 0
M  V30 1242 H 117.828 -5.99487 1.20106 0
M  V30 1243 H 122.002 -6.70284 1.88924 0
M  V30 1244 H 119.629 -7.2215 2.37494 0
M  V30 1245 N 121.204 0.198386 -1.56346 0
M  V30 1246 C 122.62 0.549085 -1.49857 0
M  V30 1247 C 122.82 1.86016 -0.774611 0
M  V30 1248 O 121.876 2.50416 -0.323776 0
M  V30 1249 C 123.189 0.606868 -2.94512 0
M  V30 1250 C 124.737 0.695925 -3.05165 0
M  V30 1251 C 125.212 0.784848 -4.51225 0
M  V30 1252 N 126.703 0.848463 -4.55363 0
M  V30 1253 C 127.438 0.937378 -5.65686 0
M  V30 1254 N 126.934 0.9888 -6.85707 0
M  V30 1255 N 128.727 0.974312 -5.53592 0
M  V30 1256 H 120.878 -0.661655 -2.01831 0
M  V30 1257 H 123.141 -0.235261 -0.918344 0
M  V30 1258 H 122.847 -0.28732 -3.50524 0
M  V30 1259 H 122.721 1.46268 -3.47686 0
M  V30 1260 H 125.108 1.58055 -2.49204 0
M  V30 1261 H 125.189 -0.186022 -2.55123 0
M  V30 1262 H 124.833 -0.0954072 -5.0781 0
M  V30 1263 H 124.763 1.68255 -4.98997 0
M  V30 1264 H 127.254 0.818103 -3.68938 0
M  V30 1265 H 127.567 1.05707 -7.65536 0
M  V30 1266 H 125.912 0.957534 -6.88372 0
M  V30 1267 H 129.103 0.930954 -4.58749 0
M  V30 1268 H 129.276 1.04015 -6.39597 0
M  V30 1269 N 122.682 1.50554 0.465978 0
M  V30 1270 C 123.928 1.63006 1.21658 0
M  V30 1271 C 124.283 0.328613 1.89573 0
M  V30 1272 O 123.576 -0.673813 1.79361 0
M  V30 1273 C 123.77 2.75152 2.28093 0
M  V30 1274 C 123.599 4.16075 1.7062 0
M  V30 1275 C 122.369 4.82408 1.50368 0
M  V30 1276 C 124.567 5.00145 1.1983 0
M  V30 1277 N 122.549 6.07532 0.881924 0
M  V30 1278 C 123.92 6.16035 0.700083 0
M  V30 1279 C 125.975 4.85882 1.08733 0
M  V30 1280 C 124.678 7.19228 0.101835 0
M  V30 1281 C 126.704 5.89257 0.503016 0
M  V30 1282 C 126.066 7.04398 0.0152005 0
M  V30 1283 H 122.165 0.650596 0.433877 0
M  V30 1284 H 124.749 1.8769 0.517746 0
M  V30 1285 H 122.92 2.52181 2.95397 0
M  V30 1286 H 124.652 2.76935 2.95109 0
M  V30 1287 H 121.407 4.39788 1.75737 0
M  V30 1288 H 121.831 6.7443 0.589312 0
M  V30 1289 H 126.473 3.97144 1.4504 0
M  V30 1290 H 124.191 8.07637 -0.273426 0
M  V30 1291 H 127.777 5.80286 0.419451 0
M  V30 1292 H 126.657 7.83021 -0.429856 0
M  V30 1293 N 124.16 -0.719506 1.40217 0
M  V30 1294 C 125.437 -1.47221 1.28784 0
M  V30 1295 C 125.817 -2.10883 -0.0956067 0
M  V30 1296 O 125.165 -1.99833 -1.10811 0
M  V30 1297 C 125.375 -2.5111 2.42373 0
M  V30 1298 C 126.723 -3.17053 2.82423 0
M  V30 1299 O 127.747 -2.61429 2.41937 0
M  V30 1300 O 126.606 -4.17742 3.52355 0
M  V30 1301 H 123.7 -0.654491 0.50554 0
M  V30 1302 H 126.246 -0.752014 1.52128 0
M  V30 1303 H 125.018 -2.02556 3.34793 0
M  V30 1304 H 124.641 -3.3067 2.20778 0
M  V30 1305 N 125.638 -1.25649 -0.95132 0
M  V30 1306 C 127.054 -1.02542 -1.223 0
M  V30 1307 C 127.254 0.255715 -1.99871 0
M  V30 1308 O 126.31 0.967558 -2.33226 0
M  V30 1309 C 127.623 -2.25065 -1.99415 0
M  V30 1310 C 129.171 -2.29861 -2.12446 0
M  V30 1311 C 129.646 -3.52048 -2.92961 0
M  V30 1312 N 131.137 -3.52465 -3.00538 0
M  V30 1313 C 131.872 -4.43672 -3.63239 0
M  V30 1314 N 131.368 -5.45157 -4.27523 0
M  V30 1315 N 133.161 -4.31346 -3.60412 0
M  V30 1316 H 125.312 -2.07951 -0.432471 0
M  V30 1317 H 127.575 -0.91339 -0.253816 0
M  V30 1318 H 127.281 -3.18194 -1.49817 0
M  V30 1319 H 127.155 -2.28502 -3.00111 0
M  V30 1320 H 129.542 -1.37252 -2.61239 0
M  V30 1321 H 129.623 -2.3044 -1.11044 0
M  V30 1322 H 129.267 -4.44981 -2.44856 0
M  V30 1323 H 129.197 -3.48715 -3.94596 0
M  V30 1324 H 131.688 -2.79056 -2.54826 0
M  V30 1325 H 132.001 -6.10958 -4.73234 0
M  V30 1326 H 130.346 -5.49025 -4.26141 0
M  V30 1327 H 133.537 -3.51288 -3.09377 0
M  V30 1328 H 133.71 -5.02624 -4.0899 0
M  V30 1329 N 127.117 1.15442 -1.07289 0
M  V30 1330 C 128.364 1.86213 -0.795668 0
M  V30 1331 C 128.692 1.82291 0.678238 0
M  V30 1332 O 127.947 1.24057 1.51355 0
M  V30 1333 C 128.246 3.3489 -1.24834 0
M  V30 1334 C 127.912 3.59007 -2.72809 0
M  V30 1335 C 126.574 3.65298 -3.13227 0
M  V30 1336 C 128.926 3.68762 -3.68326 0
M  V30 1337 C 126.254 3.78854 -4.4798 0
M  V30 1338 C 128.606 3.83842 -5.0284 0
M  V30 1339 C 127.27 3.88378 -5.4288 0
M  V30 1340 H 126.54 0.681403 -0.291155 0
M  V30 1341 H 129.187 1.36435 -1.34379 0
M  V30 1342 H 127.492 3.8687 -0.619595 0
M  V30 1343 H 129.189 3.88052 -1.01076 0
M  V30 1344 H 125.779 3.5475 -2.40521 0
M  V30 1345 H 129.963 3.63202 -3.38227 0
M  V30 1346 H 125.219 3.80623 -4.78472 0
M  V30 1347 H 129.393 3.90332 -5.76727 0
M  V30 1348 H 127.02 3.98635 -6.47298 0
M  V30 1349 N 128.595 0.856903 1.32268 0
M  V30 1350 C 129.843 0.460474 1.96784 0
M  V30 1351 C 130.164 -0.987701 1.68135 0
M  V30 1352 O 129.434 -1.69058 0.989765 0
M  V30 1353 H 128.014 0.167289 0.728027 0
M  V30 1354 H 130.676 1.09383 1.61312 0
M  V30 1355 H 129.772 0.60739 3.06133 0
M  V30 1356 N 130.073 -1.45103 0.615059 0
M  V30 1357 C 131.489 -1.57137 0.279322 0
M  V30 1358 C 131.689 -1.60523 -1.21797 0
M  V30 1359 O 130.745 -1.53956 -2.00134 0
M  V30 1360 C 132.058 -2.85062 0.957083 0
M  V30 1361 C 133.606 -2.98749 0.933706 0
M  V30 1362 C 134.081 -4.29455 1.59162 0
M  V30 1363 N 135.572 -4.36231 1.55746 0
M  V30 1364 C 136.307 -5.36051 2.0356 0
M  V30 1365 N 135.803 -6.42367 2.59494 0
M  V30 1366 N 137.596 -5.27456 1.94284 0
M  V30 1367 H 129.747 -1.41148 1.58717 0
M  V30 1368 H 132.01 -0.675331 0.665306 0
M  V30 1369 H 131.716 -2.88488 2.01166 0
M  V30 1370 H 131.59 -3.7407 0.48494 0
M  V30 1371 H 133.977 -2.94886 -0.112347 0
M  V30 1372 H 134.058 -2.11132 1.44419 0
M  V30 1373 H 133.702 -4.34077 2.63704 0
M  V30 1374 H 133.632 -5.15901 1.0561 0
M  V30 1375 H 136.123 -3.60011 1.14893 0
M  V30 1376 H 136.436 -7.14793 2.93752 0
M  V30 1377 H 134.781 -6.43097 2.63537 0
M  V30 1378 H 137.972 -4.43308 1.5032 0
M  V30 1379 H 138.145 -6.05099 2.3186 0
M  V30 1380 N 131.551 -0.354651 -1.53558 0
M  V30 1381 C 132.967 -0.00315426 -1.596 0
M  V30 1382 C 133.167 1.47741 -1.37021 0
M  V30 1383 O 132.223 2.23759 -1.16996 0
M  V30 1384 C 133.536 -0.44929 -2.97325 0
M  V30 1385 C 135.084 -0.402578 -3.104 0
M  V30 1386 C 135.559 -0.824355 -4.5052 0
M  V30 1387 N 137.05 -0.778979 -4.56603 0
M  V30 1388 C 137.785 -1.07715 -5.63192 0
M  V30 1389 N 137.281 -1.44405 -6.77583 0
M  V30 1390 N 139.074 -1.00066 -5.53121 0
M  V30 1391 H 131.225 -1.31893 -1.66487 0
M  V30 1392 H 133.488 -0.538388 -0.780284 0
M  V30 1393 H 133.194 -1.48202 -3.1895 0
M  V30 1394 H 133.068 0.169772 -3.76818 0
M  V30 1395 H 135.455 0.621004 -2.88492 0
M  V30 1396 H 135.536 -1.05699 -2.32941 0
M  V30 1397 H 135.18 -1.846 -4.73165 0
M  V30 1398 H 135.11 -0.147304 -5.26394 0
M  V30 1399 H 137.601 -0.508528 -3.74463 0
M  V30 1400 H 137.914 -1.65612 -7.54846 0
M  V30 1401 H 136.259 -1.4826 -6.79002 0
M  V30 1402 H 139.45 -0.713293 -4.62633 0
M  V30 1403 H 139.623 -1.23638 -6.36096 0
M  V30 1404 N 133.029 1.57378 -0.0835403 0
M  V30 1405 C 133.977 2.14602 0.89714 0
M  V30 1406 C 134.971 1.08589 1.30018 0
M  V30 1407 O 136.177 1.26952 1.27606 0
M  V30 1408 H 132.552 0.686346 0.3073 0
M  V30 1409 H 134.523 2.95845 0.38969 0
M  V30 1410 C 133.272 2.73188 2.15089 0
M  V30 1411 H 132.595 3.54442 1.84962 0
M  V30 1412 H 134.035 3.1681 2.81793 0
M  V30 1413 C 132.494 1.68517 2.91725 0
M  V30 1414 O 133.024 1.11718 3.85852 0
M  V30 1415 N 131.23 1.39277 2.55049 0
M  V30 1416 H 130.777 1.85655 1.78577 0
M  V30 1417 H 130.735 0.694791 3.06627 0
M  V30 1418 N 134.507 -0.190092 1.56449 0
M  V30 1419 C 135.732 -0.929864 1.85387 0
M  V30 1420 C 136.157 -1.7585 0.667704 0
M  V30 1421 O 135.515 -1.77198 -0.383459 0
M  V30 1422 C 135.563 -1.79773 3.12593 0
M  V30 1423 O 134.667 -2.89713 2.93496 0
M  V30 1424 H 134.008 -0.261574 0.610307 0
M  V30 1425 H 136.538 -0.193896 2.03679 0
M  V30 1426 H 136.548 -2.20139 3.43515 0
M  V30 1427 H 135.223 -1.18892 3.98544 0
M  V30 1428 H 133.8 -2.53065 2.73884 0
M  V30 1429 N 135.985 -1.50799 -0.457987 0
M  V30 1430 C 137.21 -1.66496 -1.23668 0
M  V30 1431 C 137.635 -0.353288 -1.84752 0
M  V30 1432 O 136.993 0.684346 -1.67888 0
M  V30 1433 C 137.041 -2.76763 -2.3116 0
M  V30 1434 O 136.145 -2.38928 -3.36136 0
M  V30 1435 H 135.486 -0.555828 -0.363252 0
M  V30 1436 H 138.016 -1.9725 -0.543474 0
M  V30 1437 H 138.026 -3.00232 -2.76269 0
M  V30 1438 H 136.701 -3.71954 -1.86073 0
M  V30 1439 H 135.278 -2.25953 -2.96647 0
M  V30 1440 N 137.463 0.71206 -1.40597 0
M  V30 1441 C 138.688 1.50617 -1.42581 0
M  V30 1442 C 139.113 1.88079 -0.0282102 0
M  V30 1443 O 138.471 1.53511 0.964579 0
M  V30 1444 C 138.519 2.7557 -2.3258 0
M  V30 1445 O 137.623 3.72414 -1.77148 0
M  V30 1446 H 136.964 0.453966 -0.484573 0
M  V30 1447 H 139.494 0.876649 -1.84868 0
M  V30 1448 H 139.504 3.2406 -2.47889 0
M  V30 1449 H 138.179 2.47639 -3.34138 0
M  V30 1450 H 136.756 3.31276 -1.71204 0
M  V30 1451 N 138.941 1.26152 0.944643 0
M  V30 1452 C 140.166 1.14363 1.7302 0
M  V30 1453 C 140.591 -0.29772 1.85729 0
M  V30 1454 O 139.949 -1.2157 1.34501 0
M  V30 1455 C 139.997 1.81378 3.11664 0
M  V30 1456 O 139.101 1.10022 3.97453 0
M  V30 1457 H 138.442 0.398694 0.53098 0
M  V30 1458 H 140.972 1.66906 1.18337 0
M  V30 1459 H 140.982 1.88064 3.62072 0
M  V30 1460 H 139.657 2.86237 3.0173 0
M  V30 1461 H 138.234 1.11287 3.55907 0
M  V30 1462 N 140.419 -1.14872 1.07899 0
M  V30 1463 C 141.667 -1.85422 0.803941 0
M  V30 1464 C 141.988 -1.83051 -0.67211 0
M  V30 1465 O 141.258 -1.27532 -1.48703 0
M  V30 1466 H 139.838 -0.686537 0.294408 0
M  V30 1467 H 142.5 -1.39226 1.3639 0
M  V30 1468 H 141.596 -2.90399 1.14346 0
M  V30 1469 N 141.898 -0.863906 -1.31812 0
M  V30 1470 C 143.123 -0.48527 -2.01643 0
M  V30 1471 C 143.548 0.913058 -1.64453 0
M  V30 1472 O 142.906 1.6014 -0.849985 0
M  V30 1473 C 142.954 -0.642625 -3.54828 0
M  V30 1474 O 142.058 0.320659 -4.11151 0
M  V30 1475 H 141.399 -0.193793 -0.635091 0
M  V30 1476 H 143.929 -1.16565 -1.68148 0
M  V30 1477 H 143.939 -0.533628 -4.04495 0
M  V30 1478 H 142.614 -1.66227 -3.81237 0
M  V30 1479 H 141.191 0.167126 -3.72525 0
M  V30 1480 N 143.376 1.44774 -0.622745 0
M  V30 1481 C 144.601 2.06999 -0.128968 0
M  V30 1482 C 145.026 1.4617 1.1839 0
M  V30 1483 O 144.384 0.560007 1.72434 0
M  V30 1484 C 144.432 3.60595 -0.0188351 0
M  V30 1485 O 143.536 3.99398 1.02739 0
M  V30 1486 H 142.877 0.659047 -0.0809544 0
M  V30 1487 H 145.407 1.85784 -0.85705 0
M  V30 1488 H 145.417 4.07627 0.174476 0
M  V30 1489 H 144.092 4.04252 -0.977384 0
M  V30 1490 H 142.669 3.64011 0.809326 0
M  V30 1491 N 144.854 0.36279 1.53368 0
M  V30 1492 C 146.102 -0.227326 2.00817 0
M  V30 1493 C 146.423 -1.49511 1.25186 0
M  V30 1494 O 145.693 -1.92482 0.364348 0
M  V30 1495 H 144.273 -0.0869923 0.741917 0
M  V30 1496 H 146.935 0.488381 1.88682 0
M  V30 1497 H 146.031 -0.456273 3.08747 0
M  V30 1498 N 146.332 -1.57332 0.0918853 0
M  V30 1499 C 147.295 -2.12708 -0.85369 0
M  V30 1500 C 148.295 -1.05561 -1.213 0
M  V30 1501 O 149.485 -1.31461 -1.14296 0
M  V30 1502 C 146.617 -2.64503 -2.15061 0
M  V30 1503 H 147.81 -2.97573 -0.3729 0
M  V30 1504 H 145.363 -1.55509 -0.157072 0
M  V30 1505 H 146.098 -1.83149 -2.67632 0
M  V30 1506 H 145.883 -3.4284 -1.90272 0
M  V30 1507 H 147.373 -3.07351 -2.82711 0
M  V30 1508 N 147.81 0.181792 -1.56548 0
M  V30 1509 C 149.058 0.89832 -1.81038 0
M  V30 1510 C 149.379 1.83232 -0.667164 0
M  V30 1511 O 148.649 1.93372 0.313673 0
M  V30 1512 H 147.229 0.33471 -0.667816 0
M  V30 1513 H 149.891 0.184116 -1.94028 0
M  V30 1514 H 148.987 1.4815 -2.74696 0
M  V30 1515 N 149.288 1.51039 0.449983 0
M  V30 1516 C 150.22 1.67617 1.56324 0
M  V30 1517 C 151.233 0.557083 1.52972 0
M  V30 1518 O 152.422 0.830989 1.57977 0
M  V30 1519 C 149.522 1.66402 2.95235 0
M  V30 1520 C 148.695 2.9469 3.23229 0
M  V30 1521 C 147.754 2.85832 4.41799 0
M  V30 1522 O 146.78 3.59785 4.41071 0
M  V30 1523 N 147.982 2.00821 5.44657 0
M  V30 1524 H 150.747 2.63648 1.42512 0
M  V30 1525 H 148.308 1.48767 0.638737 0
M  V30 1526 H 150.3 1.58062 3.72557 0
M  V30 1527 H 148.87 0.780182 3.02708 0
M  V30 1528 H 148.09 3.16996 2.34323 0
M  V30 1529 H 149.378 3.79636 3.38754 0
M  V30 1530 H 148.776 1.40091 5.48079 0
M  V30 1531 H 147.333 1.98368 6.20881 0
M  V30 1532 N 150.766 -0.704594 1.40972 0
M  V30 1533 C 151.713 -1.81862 1.42109 0
M  V30 1534 C 152.683 -1.63781 0.276593 0
M  V30 1535 O 153.868 -1.84759 0.4763 0
M  V30 1536 C 151.008 -3.19669 1.30022 0
M  V30 1537 C 150.121 -3.49246 2.54267 0
M  V30 1538 C 149.256 -4.76618 2.3454 0
M  V30 1539 C 148.295 -4.99133 3.54306 0
M  V30 1540 N 147.432 -6.17726 3.33706 0
M  V30 1541 H 152.272 -1.80226 2.37324 0
M  V30 1542 H 149.809 -0.880238 1.17857 0
M  V30 1543 H 151.767 -3.99263 1.21018 0
M  V30 1544 H 150.397 -3.20506 0.384192 0
M  V30 1545 H 149.449 -2.64125 2.73756 0
M  V30 1546 H 150.761 -3.61788 3.43381 0
M  V30 1547 H 149.915 -5.64249 2.22952 0
M  V30 1548 H 148.654 -4.66305 1.42867 0
M  V30 1549 H 147.659 -4.09953 3.66359 0
M  V30 1550 H 148.884 -5.11311 4.4692 0
M  V30 1551 H 146.83 -6.08642 2.44725 0
M  V30 1552 H 146.747 -6.30995 4.16391 0
M  V30 1553 H 148.015 -7.08115 3.25873 0
M  V30 1554 N 152.244 -1.26651 -0.937939 0
M  V30 1555 C 153.66 -1.03834 -1.21205 0
M  V30 1556 C 153.86 0.234502 -2.00131 0
M  V30 1557 O 152.916 0.942767 -2.3424 0
M  V30 1558 C 154.229 -2.27167 -1.97017 0
M  V30 1559 C 155.777 -2.32101 -2.09996 0
M  V30 1560 C 156.252 -3.55136 -2.8921 0
M  V30 1561 N 157.743 -3.55632 -2.96783 0
M  V30 1562 C 158.478 -4.475 -3.58512 0
M  V30 1563 N 157.974 -5.4966 -4.21717 0
M  V30 1564 N 159.767 -4.35145 -3.55816 0
M  V30 1565 H 151.918 -2.08398 -0.410391 0
M  V30 1566 H 154.181 -0.916031 -0.244114 0
M  V30 1567 H 153.887 -3.19765 -1.46434 0
M  V30 1568 H 153.761 -2.31672 -2.97671 0
M  V30 1569 H 156.148 -1.40015 -2.59769 0
M  V30 1570 H 156.229 -2.31605 -1.08594 0
M  V30 1571 H 155.873 -4.47553 -2.40123 0
M  V30 1572 H 155.803 -3.5288 -3.90875 0
M  V30 1573 H 158.294 -2.81743 -2.51852 0
M  V30 1574 H 158.607 -6.15943 -4.66727 0
M  V30 1575 H 156.952 -5.53514 -4.20294 0
M  V30 1576 H 160.143 -3.5455 -3.05634 0
M  V30 1577 H 160.316 -5.06934 -4.03636 0
M  V30 1578 N 153.722 1.14298 -1.08507 0
M  V30 1579 C 154.632 2.23027 -0.727753 0
M  V30 1580 C 155.648 1.71952 0.26619 0
M  V30 1581 O 156.824 2.011 0.109882 0
M  V30 1582 C 153.889 3.46403 -0.143541 0
M  V30 1583 C 152.95 4.12413 -1.19223 0
M  V30 1584 C 152.183 5.29899 -0.635798 0
M  V30 1585 O 152.406 5.67796 0.544393 0
M  V30 1586 O 151.34 5.85717 -1.38634 0
M  V30 1587 H 155.166 2.55945 -1.63481 0
M  V30 1588 H 152.751 1.22248 -0.858817 0
M  V30 1589 H 154.633 4.21018 0.179404 0
M  V30 1590 H 153.308 3.15206 0.736659 0
M  V30 1591 H 152.215 3.39667 -1.56772 0
M  V30 1592 H 153.548 4.47718 -2.04474 0
M  V30 1593 N 155.201 0.870884 1.31352 0
M  V30 1594 C 156.478 0.402907 1.91405 0
M  V30 1595 C 156.858 -1.11512 1.79244 0
M  V30 1596 O 156.206 -1.94411 1.2007 0
M  V30 1597 C 156.416 0.885301 3.37585 0
M  V30 1598 C 157.764 0.911971 4.14691 0
M  V30 1599 O 158.788 0.831016 3.46371 0
M  V30 1600 O 157.647 1.02927 5.3672 0
M  V30 1601 H 154.741 0.120698 0.818145 0
M  V30 1602 H 157.287 0.958857 1.40014 0
M  V30 1603 H 156.059 1.92889 3.40455 0
M  V30 1604 H 155.682 0.307714 3.96407 0
M  V30 1605 N 156.679 -1.44442 0.630414 0
M  V30 1606 C 157.925 -2.02351 0.134816 0
M  V30 1607 C 158.258 -1.4947 -1.23986 0
M  V30 1608 O 157.533 -0.678475 -1.82283 0
M  V30 1609 C 157.816 -3.59898 0.120707 0
M  V30 1610 C 157.669 -4.23063 1.52767 0
M  V30 1611 C 158.988 -4.36585 -0.555127 0
M  V30 1612 H 156.107 -0.73527 0.0504646 0
M  V30 1613 H 158.749 -1.72022 0.806751 0
M  V30 1614 H 156.899 -3.85868 -0.451477 0
M  V30 1615 H 158.571 -4.08202 2.14869 0
M  V30 1616 H 156.814 -3.80586 2.08175 0
M  V30 1617 H 157.485 -5.32071 1.46984 0
M  V30 1618 H 159.961 -4.16044 -0.0685429 0
M  V30 1619 H 158.837 -5.46294 -0.534185 0
M  V30 1620 H 159.098 -4.11138 -1.62535 0
M  V30 1621 N 158.157 -0.370918 -1.53173 0
M  V30 1622 C 159.382 0.220293 -2.06227 0
M  V30 1623 C 159.807 1.41243 -1.24225 0
M  V30 1624 O 159.165 1.79387 -0.262645 0
M  V30 1625 C 159.213 0.586663 -3.55796 0
M  V30 1626 O 158.317 1.68317 -3.76488 0
M  V30 1627 H 157.658 0.0308099 -0.663285 0
M  V30 1628 H 160.188 -0.533068 -1.97534 0
M  V30 1629 H 160.198 0.85617 -3.98916 0
M  V30 1630 H 158.873 -0.285013 -4.14922 0
M  V30 1631 H 157.45 1.40881 -3.45264 0
M  V30 1632 N 159.635 1.57281 -0.100228 0
M  V30 1633 C 160.598 2.13158 0.842398 0
M  V30 1634 C 161.598 1.06202 1.20738 0
M  V30 1635 O 162.788 1.32066 1.13597 0
M  V30 1636 C 159.92 2.65639 2.13655 0
M  V30 1637 H 161.113 2.97766 0.357114 0
M  V30 1638 H 158.666 1.5559 0.148823 0
M  V30 1639 H 159.401 1.84566 2.66657 0
M  V30 1640 H 159.186 3.43844 1.88451 0
M  V30 1641 H 160.676 3.08846 2.81077 0
M  V30 1642 N 161.113 -0.173488 1.56642 0
M  V30 1643 C 162.361 -0.888706 1.81512 0
M  V30 1644 C 162.682 -1.82875 0.676872 0
M  V30 1645 O 161.952 -1.93536 -0.303414 0
M  V30 1646 H 160.532 -0.331164 0.669582 0
M  V30 1647 H 163.194 -0.173823 1.94123 0
M  V30 1648 H 162.29 -1.46691 2.75478 0
M  V30 1649 N 162.591 -1.51276 -0.441967 0
M  V30 1650 C 163.501 -1.75092 -1.56141 0
M  V30 1651 C 164.517 -0.634963 -1.62001 0
M  V30 1652 O 165.693 -0.916686 -1.79329 0
M  V30 1653 C 162.758 -1.86666 -2.92158 0
M  V30 1654 C 161.819 -3.10506 -2.96453 0
M  V30 1655 C 161.052 -3.21519 -4.25982 0
M  V30 1656 O 161.275 -2.38586 -5.18105 0
M  V30 1657 O 160.209 -4.14465 -4.36466 0
M  V30 1658 H 164.035 -2.70044 -1.38961 0
M  V30 1659 H 161.62 -1.35722 -0.624499 0
M  V30 1660 H 163.502 -1.96292 -3.72891 0
M  V30 1661 H 162.177 -0.949014 -3.09476 0
M  V30 1662 H 161.084 -3.06363 -2.14692 0
M  V30 1663 H 162.417 -4.01945 -2.84079 0
M  V30 1664 N 164.069 0.697108 -1.41344 0
M  V30 1665 C 165.346 1.45154 -1.31109 0
M  V30 1666 C 165.726 2.11009 0.0620449 0
M  V30 1667 O 165.074 2.01571 1.07618 0
M  V30 1668 C 165.284 2.47223 -2.46337 0
M  V30 1669 C 166.632 3.1252 -2.87431 0
M  V30 1670 O 167.656 2.57547 -2.46065 0
M  V30 1671 O 166.515 4.12083 -3.58957 0
M  V30 1672 H 163.609 0.646365 -0.515889 0
M  V30 1673 H 166.155 0.727716 -1.53305 0
M  V30 1674 H 164.927 1.97204 -3.37974 0
M  V30 1675 H 164.55 3.27116 -2.2601 0
M  V30 1676 N 165.547 1.27147 0.931209 0
M  V30 1677 C 166.787 1.14511 1.69312 0
M  V30 1678 C 167.151 -0.304638 1.89568 0
M  V30 1679 O 168.352 -0.553343 2.63043 0
M  V30 1680 C 166.623 1.90349 3.02493 0
M  V30 1681 S 168.182 1.93884 3.93642 0
M  V30 1682 H 165 0.408858 0.581684 0
M  V30 1683 H 167.602 1.61006 1.10893 0
M  V30 1684 H 166.306 2.94877 2.85439 0
M  V30 1685 H 165.837 1.44333 3.65966 0
M  V30 1686 H 167.852 1.03273 4.85334 0
M  V30 1687 N 167.025 -1.13721 1.09112 0
M  V30 1688 C 168.273 -1.84559 0.823562 0
M  V30 1689 C 168.594 -1.83754 -0.652658 0
M  V30 1690 O 167.864 -1.29102 -1.47342 0
M  V30 1691 H 166.444 -0.683376 0.301673 0
M  V30 1692 H 169.106 -1.37771 1.37859 0
M  V30 1693 H 168.202 -2.8917 1.17419 0
M  V30 1694 N 168.503 -0.877838 -1.30888 0
M  V30 1695 C 169.914 -0.544193 -1.78593 0
M  V30 1696 C 170.265 0.939301 -1.72254 0
M  V30 1697 O 169.39 1.7337 -1.29505 0
M  V30 1698 C 169.985 -0.98105 -3.24285 0
M  V30 1699 C 168.544 -0.698935 -3.69854 0
M  V30 1700 C 167.691 -1.168 -2.51502 0
M  V30 1701 H 170.642 -1.06278 -1.17859 0
M  V30 1702 H 170.663 -0.307009 -3.79259 0
M  V30 1703 H 170.175 -2.06079 -3.28866 0
M  V30 1704 H 168.276 0.369112 -3.70767 0
M  V30 1705 H 168.389 -1.28148 -4.61644 0
M  V30 1706 H 166.753 -0.587535 -2.47831 0
M  V30 1707 H 167.536 -2.25533 -2.58824 0
M  V30 1708 N 169.982 1.44106 -0.638065 0
M  V30 1709 C 170.912 2.33448 0.0494287 0
M  V30 1710 C 171.893 1.48606 0.827672 0
M  V30 1711 O 173.078 1.77308 0.792173 0
M  V30 1712 C 170.208 3.31771 1.02691 0
M  V30 1713 C 169.162 4.26485 0.359823 0
M  V30 1714 C 168.488 5.14729 1.44769 0
M  V30 1715 C 169.788 5.17056 -0.738296 0
M  V30 1716 H 171.482 2.91183 -0.696636 0
M  V30 1717 H 169.028 1.40014 -0.336456 0
M  V30 1718 H 170.981 3.93161 1.51666 0
M  V30 1719 H 169.705 2.7226 1.80395 0
M  V30 1720 H 168.364 3.66437 -0.10934 0
M  V30 1721 H 168.012 4.51566 2.21578 0
M  V30 1722 H 167.712 5.78913 1.00668 0
M  V30 1723 H 169.236 5.78991 1.93911 0
M  V30 1724 H 170.65 5.72342 -0.331354 0
M  V30 1725 H 169.047 5.89879 -1.10286 0
M  V30 1726 H 170.117 4.57652 -1.60258 0
M  V30 1727 N 171.46 0.379036 1.52974 0
M  V30 1728 C 172.871 -0.0972525 1.86447 0
M  V30 1729 C 173.222 -1.47027 1.29914 0
M  V30 1730 O 172.347 -2.07135 0.626433 0
M  V30 1731 C 172.942 -0.183248 3.38304 0
M  V30 1732 C 171.501 -0.603812 3.71525 0
M  V30 1733 C 170.648 0.240632 2.76254 0
M  V30 1734 H 173.599 0.597316 1.4703 0
M  V30 1735 H 173.62 -1.00432 3.67006 0
M  V30 1736 H 173.132 0.816191 3.79421 0
M  V30 1737 H 171.233 -1.61099 3.35973 0
M  V30 1738 H 171.346 -0.369086 4.77676 0
M  V30 1739 H 169.71 -0.292548 2.53014 0
M  V30 1740 H 170.493 1.23786 3.20206 0
M  V30 1741 N 172.938 -1.57226 0.108567 0
M  V30 1742 C 173.848 -2.18292 -0.859401 0
M  V30 1743 C 174.864 -1.15612 -1.30038 0
M  V30 1744 O 176.04 -1.48039 -1.36552 0
M  V30 1745 C 173.105 -2.762 -2.09558 0
M  V30 1746 C 172.166 -3.93881 -1.70752 0
M  V30 1747 C 171.399 -4.49018 -2.88477 0
M  V30 1748 O 171.622 -4.03068 -4.036 0
M  V30 1749 O 170.556 -5.39852 -2.66164 0
M  V30 1750 H 174.382 -3.01441 -0.369769 0
M  V30 1751 H 171.967 -1.48945 -0.1165 0
M  V30 1752 H 173.849 -3.13156 -2.81978 0
M  V30 1753 H 172.524 -1.96089 -2.57548 0
M  V30 1754 H 171.431 -3.61713 -0.954714 0
M  V30 1755 H 172.764 -4.75396 -1.27513 0
M  V30 1756 N 174.416 0.165178 -1.56732 0
M  V30 1757 C 175.664 0.879068 -1.8198 0
M  V30 1758 C 175.985 1.82514 -0.686561 0
M  V30 1759 O 175.255 1.93694 0.293146 0
M  V30 1760 H 173.835 0.327608 -0.671329 0
M  V30 1761 H 176.497 0.163526 -1.94213 0
M  V30 1762 H 175.593 1.45228 -2.76252 0
M  V30 1763 N 175.894 1.51508 0.433938 0
M  V30 1764 C 177.142 1.6402 1.18075 0
M  V30 1765 C 177.463 0.360328 1.91642 0
M  V30 1766 O 176.733 -0.623945 1.85698 0
M  V30 1767 H 175.313 0.6045 0.43885 0
M  V30 1768 H 177.975 1.88452 0.497178 0
M  V30 1769 H 177.071 2.46949 1.90847 0
M  V30 1770 N 177.372 -0.689602 1.41712 0
M  V30 1771 C 178.783 -1.26973 1.36875 0
M  V30 1772 C 179.134 -1.96124 0.054748 0
M  V30 1773 O 178.259 -1.99141 -0.84687 0
M  V30 1774 C 178.854 -2.30912 2.47922 0
M  V30 1775 C 177.413 -2.84486 2.46464 0
M  V30 1776 C 176.56 -1.58603 2.27465 0
M  V30 1777 H 179.511 -0.48396 1.51141 0
M  V30 1778 H 179.532 -3.12331 2.17323 0
M  V30 1779 H 179.044 -1.80554 3.43543 0
M  V30 1780 H 177.145 -3.39005 1.54617 0
M  V30 1781 H 177.258 -3.34511 3.42986 0
M  V30 1782 H 175.622 -1.84632 1.75451 0
M  V30 1783 H 176.405 -1.10233 3.25121 0
M  V30 1784 N 178.85 -1.27639 -0.924453 0
M  V30 1785 C 179.76 -1.12466 -2.05885 0
M  V30 1786 C 180.776 -0.053869 -1.73917 0
M  V30 1787 O 181.952 -0.261012 -1.99702 0
M  V30 1788 C 179.017 -0.776768 -3.37886 0
M  V30 1789 C 178.078 -1.92878 -3.83532 0
M  V30 1790 C 177.311 -1.59739 -5.09234 0
M  V30 1791 O 177.534 -0.506782 -5.68144 0
M  V30 1792 O 176.468 -2.43761 -5.50331 0
M  V30 1793 H 180.294 -2.07671 -2.21599 0
M  V30 1794 H 177.879 -1.06857 -1.04413 0
M  V30 1795 H 179.761 -0.596229 -4.17161 0
M  V30 1796 H 178.436 0.145732 -3.23372 0
M  V30 1797 H 177.343 -2.1644 -3.0513 0
M  V30 1798 H 178.676 -2.8316 -4.02593 0
M  V30 1799 N 180.328 1.1314 -1.09713 0
M  V30 1800 C 181.739 1.66029 -0.853885 0
M  V30 1801 C 182.09 1.86241 0.617142 0
M  V30 1802 O 181.215 1.5834 1.47503 0
M  V30 1803 C 181.81 3.01599 -1.5435 0
M  V30 1804 C 180.369 3.51467 -1.34714 0
M  V30 1805 C 179.516 2.26648 -1.59769 0
M  V30 1806 H 182.467 0.970226 -1.25588 0
M  V30 1807 H 182.488 3.67709 -0.978267 0
M  V30 1808 H 182 2.86856 -2.6141 0
M  V30 1809 H 180.101 3.71408 -0.297838 0
M  V30 1810 H 180.214 4.314 -2.08401 0
M  V30 1811 H 178.578 2.33385 -1.01998 0
M  V30 1812 H 179.361 2.14467 -2.68065 0
M  V30 1813 N 181.806 0.884767 1.30421 0
M  V30 1814 C 183.222 0.57874 1.48737 0
M  V30 1815 C 183.422 -0.883567 1.81095 0
M  V30 1816 O 182.478 -1.6648 1.89844 0
M  V30 1817 C 183.791 1.49171 2.61091 0
M  V30 1818 C 185.339 1.49532 2.74971 0
M  V30 1819 C 185.814 2.39421 3.90438 0
M  V30 1820 N 187.305 2.37383 3.97748 0
M  V30 1821 C 188.04 3.03647 4.86401 0
M  V30 1822 N 187.536 3.79136 5.79852 0
M  V30 1823 N 189.329 2.9288 4.79768 0
M  V30 1824 H 181.48 1.83075 1.0769 0
M  V30 1825 H 183.743 0.783637 0.533495 0
M  V30 1826 H 183.449 2.53291 2.44001 0
M  V30 1827 H 183.323 1.20113 3.57565 0
M  V30 1828 H 185.71 0.46163 2.91467 0
M  V30 1829 H 185.791 1.8262 1.79119 0
M  V30 1830 H 185.435 3.42874 3.74699 0
M  V30 1831 H 185.365 2.03649 4.85628 0
M  V30 1832 H 187.856 1.82525 3.30897 0
M  V30 1833 H 188.169 4.26789 6.4426 0
M  V30 1834 H 186.514 3.83243 5.79784 0
M  V30 1835 H 189.705 2.33433 4.05742 0
M  V30 1836 H 189.878 3.448 5.4865 0
M  V30 1837 N 183.284 -1.43765 0.645699 0
M  V30 1838 C 184.509 -2.06767 0.161883 0
M  V30 1839 C 184.934 -1.48034 -1.16049 0
M  V30 1840 O 184.292 -0.587369 -1.71522 0
M  V30 1841 C 184.34 -3.60519 0.0762003 0
M  V30 1842 O 183.444 -4.00982 -0.963721 0
M  V30 1843 H 182.785 -0.657675 0.091429 0
M  V30 1844 H 185.315 -1.84397 0.886499 0
M  V30 1845 H 185.325 -4.07853 -0.109604 0
M  V30 1846 H 184 -4.02646 1.04157 0
M  V30 1847 H 182.577 -3.65253 -0.751312 0
M  V30 1848 N 184.763 -0.387143 -1.52771 0
M  V30 1849 C 186.04 0.253197 -1.93954 0
M  V30 1850 C 186.42 1.64545 -1.32243 0
M  V30 1851 O 185.768 2.23191 -0.489699 0
M  V30 1852 C 185.978 0.281722 -3.47861 0
M  V30 1853 C 187.326 0.511715 -4.21505 0
M  V30 1854 O 188.35 0.362023 -3.54356 0
M  V30 1855 O 187.209 0.804847 -5.40541 0
M  V30 1856 H 184.303 0.156845 -0.811991 0
M  V30 1857 H 186.849 -0.441494 -1.63856 0
M  V30 1858 H 185.621 -0.693571 -3.85104 0
M  V30 1859 H 185.244 1.02142 -3.84256 0
M  V30 1860 N 186.241 1.57166 -0.116904 0
M  V30 1861 C 187.489 1.94737 0.540533 0
M  V30 1862 C 187.81 1.00096 1.67349 0
M  V30 1863 O 187.08 0.0568854 1.95817 0
M  V30 1864 H 185.66 0.718981 0.202669 0
M  V30 1865 H 188.322 1.94017 -0.185353 0
M  V30 1866 H 187.418 2.97719 0.936483 0
M  V30 1867 N 187.719 -0.156864 1.56817 0
M  V30 1868 C 188.682 -1.17781 1.96622 0
M  V30 1869 C 189.682 -1.36401 0.851555 0
M  V30 1870 O 190.872 -1.33561 1.11836 0
M  V30 1871 C 188.004 -2.54008 2.27361 0
M  V30 1872 H 189.197 -0.836564 2.87996 0
M  V30 1873 H 186.75 -0.39985 1.51099 0
M  V30 1874 H 187.485 -2.9312 1.38748 0
M  V30 1875 H 187.27 -2.41856 3.08623 0
M  V30 1876 H 188.76 -3.27558 2.59029 0
M  V30 1877 N 189.197 -1.51736 -0.425897 0
M  V30 1878 C 190.144 -1.73875 -1.51776 0
M  V30 1879 C 191.114 -0.580702 -1.55618 0
M  V30 1880 O 192.299 -0.81641 -1.72451 0
M  V30 1881 C 189.439 -1.88012 -2.89388 0
M  V30 1882 C 188.552 -3.15606 -2.94986 0
M  V30 1883 C 187.687 -3.20271 -4.23793 0
M  V30 1884 C 186.726 -4.42134 -4.23302 0
M  V30 1885 N 185.863 -4.44284 -5.43651 0
M  V30 1886 H 190.703 -2.67071 -1.32201 0
M  V30 1887 H 188.24 -1.32351 -0.642008 0
M  V30 1888 H 190.198 -1.9419 -3.69251 0
M  V30 1889 H 188.828 -0.98213 -3.07496 0
M  V30 1890 H 187.88 -3.18681 -2.07717 0
M  V30 1891 H 189.192 -4.05486 -2.90486 0
M  V30 1892 H 188.346 -3.25428 -5.12036 0
M  V30 1893 H 187.085 -2.28299 -4.30965 0
M  V30 1894 H 186.09 -4.3714 -3.3345 0
M  V30 1895 H 187.315 -5.35382 -4.17783 0
M  V30 1896 H 185.261 -3.55188 -5.51523 0
M  V30 1897 H 185.178 -5.27988 -5.41078 0
M  V30 1898 H 186.446 -4.53649 -6.33895 0
M  V30 1899 N 190.675 0.682077 -1.42076 0
M  V30 1900 C 192.086 1.26246 -1.37546 0
M  V30 1901 C 192.437 1.96092 -0.0651481 0
M  V30 1902 O 191.562 1.99587 0.836297 0
M  V30 1903 C 192.157 2.29594 -2.49143 0
M  V30 1904 C 190.716 2.83175 -2.47969 0
M  V30 1905 C 189.863 1.57395 -2.28303 0
M  V30 1906 H 192.814 0.475937 -1.51395 0
M  V30 1907 H 192.835 3.11175 -2.18976 0
M  V30 1908 H 192.347 1.78729 -3.44496 0
M  V30 1909 H 190.448 3.3818 -1.56413 0
M  V30 1910 H 190.561 3.32687 -3.44755 0
M  V30 1911 H 188.925 1.83699 -1.76428 0
M  V30 1912 H 189.708 1.08507 -3.25701 0
M  V30 1913 N 192.153 1.28127 0.917671 0
M  V30 1914 C 193.401 1.14825 1.66312 0
M  V30 1915 C 193.722 -0.304379 1.9261 0
M  V30 1916 O 192.992 -1.21149 1.53947 0
M  V30 1917 H 191.572 0.421953 0.616413 0
M  V30 1918 H 194.234 1.608 1.10134 0
M  V30 1919 H 193.33 1.68489 2.62712 0
M  V30 1920 N 193.631 -1.12557 1.10312 0
M  V30 1921 C 195.042 -1.65574 0.862678 0
M  V30 1922 C 195.393 -1.86566 -0.607256 0
M  V30 1923 O 194.518 -1.59121 -1.46662 0
M  V30 1924 C 195.113 -3.00776 1.55947 0
M  V30 1925 C 193.672 -3.50748 1.36576 0
M  V30 1926 C 192.819 -2.25797 1.60968 0
M  V30 1927 H 195.77 -0.963552 1.26101 0
M  V30 1928 H 195.791 -3.67185 0.997753 0
M  V30 1929 H 195.303 -2.85465 2.62928 0
M  V30 1930 H 193.404 -3.71245 0.317531 0
M  V30 1931 H 193.517 -4.30289 2.10686 0
M  V30 1932 H 191.881 -2.32841 1.03234 0
M  V30 1933 H 192.664 -2.13043 2.69198 0
M  V30 1934 N 195.109 -0.891671 -1.2995 0
M  V30 1935 C 196.525 -0.58662 -1.48428 0
M  V30 1936 C 196.725 0.873951 -1.81561 0
M  V30 1937 O 195.781 1.65471 -1.90724 0
M  V30 1938 C 197.094 -1.50553 -2.60296 0
M  V30 1939 C 198.642 -1.50988 -2.74175 0
M  V30 1940 C 199.117 -2.41488 -3.89163 0
M  V30 1941 N 200.608 -2.39489 -3.96483 0
M  V30 1942 C 201.343 -3.06223 -4.84784 0
M  V30 1943 N 200.839 -3.82206 -5.77833 0
M  V30 1944 N 202.632 -2.95421 -4.78208 0
M  V30 1945 H 194.783 -1.83644 -1.06718 0
M  V30 1946 H 197.046 -0.786455 -0.529332 0
M  V30 1947 H 196.752 -2.54581 -2.42654 0
M  V30 1948 H 196.626 -1.22008 -3.56923 0
M  V30 1949 H 199.013 -0.47708 -2.91218 0
M  V30 1950 H 199.094 -1.83567 -1.78148 0
M  V30 1951 H 198.738 -3.44857 -3.72876 0
M  V30 1952 H 198.668 -2.06222 -4.84541 0
M  V30 1953 H 201.159 -1.84278 -3.29924 0
M  V30 1954 H 201.472 -4.302 -6.41988 0
M  V30 1955 H 199.817 -3.86313 -5.77743 0
M  V30 1956 H 203.008 -2.35581 -4.04499 0
M  V30 1957 H 203.181 -3.47704 -5.46814 0
M  V30 1958 N 196.587 1.43421 -0.653314 0
M  V30 1959 C 197.497 2.34568 0.0388565 0
M  V30 1960 C 198.513 1.53888 0.81207 0
M  V30 1961 O 199.689 1.86539 0.759294 0
M  V30 1962 C 196.754 3.32167 0.993269 0
M  V30 1963 C 195.815 4.28751 0.216977 0
M  V30 1964 C 195.048 5.21688 1.12593 0
M  V30 1965 O 195.271 5.19052 2.36519 0
M  V30 1966 O 194.205 5.98919 0.598284 0
M  V30 1967 H 198.031 2.95251 -0.711386 0
M  V30 1968 H 195.616 1.43564 -0.413502 0
M  V30 1969 H 197.498 3.92183 1.54176 0
M  V30 1970 H 196.173 2.73987 1.72374 0
M  V30 1971 H 195.08 3.72215 -0.375101 0
M  V30 1972 H 196.413 4.89913 -0.473924 0
M  V30 1973 N 198.065 0.39524 1.52563 0
M  V30 1974 C 199.313 -0.184678 2.01254 0
M  V30 1975 C 199.634 -1.46822 1.28329 0
M  V30 1976 O 198.904 -1.91666 0.405094 0
M  V30 1977 H 197.484 -0.0712355 0.743596 0
M  V30 1978 H 200.146 0.528293 1.87603 0
M  V30 1979 H 199.242 -0.390681 3.09645 0
M  V30 1980 N 199.544 -1.57102 0.125237 0
M  V30 1981 C 200.491 -2.15641 -0.822655 0
M  V30 1982 C 201.461 -1.08313 -1.25927 0
M  V30 1983 O 202.646 -1.36251 -1.33567 0
M  V30 1984 C 199.786 -2.76504 -2.06494 0
M  V30 1985 C 198.899 -3.98158 -1.67612 0
M  V30 1986 C 198.034 -4.47088 -2.86854 0
M  V30 1987 C 197.073 -5.6126 -2.44242 0
M  V30 1988 N 196.21 -6.04905 -3.56419 0
M  V30 1989 H 201.05 -2.96313 -0.316625 0
M  V30 1990 H 198.587 -1.46388 -0.144588 0
M  V30 1991 H 200.545 -3.09925 -2.79289 0
M  V30 1992 H 199.175 -1.98512 -2.54545 0
M  V30 1993 H 198.227 -3.70858 -0.846661 0
M  V30 1994 H 199.539 -4.80934 -1.32301 0
M  V30 1995 H 198.693 -4.82451 -3.67867 0
M  V30 1996 H 197.432 -3.63275 -3.25396 0
M  V30 1997 H 196.437 -5.25495 -1.61663 0
M  V30 1998 H 197.662 -6.46843 -2.0681 0
M  V30 1999 H 195.608 -5.24032 -3.94623 0
M  V30 2000 H 195.525 -6.82552 -3.25051 0
M  V30 2001 H 196.793 -6.44907 -4.37853 0
M  V30 2002 N 201.022 0.148545 -1.56898 0
M  V30 2003 C 202.438 0.501131 -1.51528 0
M  V30 2004 C 202.638 1.83458 -0.833399 0
M  V30 2005 O 201.694 2.49259 -0.40328 0
M  V30 2006 C 203.007 0.512864 -2.96294 0
M  V30 2007 C 204.555 0.598487 -3.07225 0
M  V30 2008 C 205.03 0.640897 -4.53494 0
M  V30 2009 N 206.521 0.703163 -4.57832 0
M  V30 2010 C 207.256 0.756935 -5.68382 0
M  V30 2011 N 206.752 0.770147 -6.88506 0
M  V30 2012 N 208.545 0.797698 -5.56411 0
M  V30 2013 H 200.696 -0.725532 -1.99624 0
M  V30 2014 H 202.959 -0.264358 -0.910395 0
M  V30 2015 H 202.665 -0.398691 -3.49433 0
M  V30 2016 H 202.539 1.35133 -3.52163 0
M  V30 2017 H 204.926 1.50046 -2.54106 0
M  V30 2018 H 205.007 -0.267093 -2.54402 0
M  V30 2019 H 204.651 -0.256915 -5.0725 0
M  V30 2020 H 204.581 1.52295 -5.04097 0
M  V30 2021 H 207.072 0.700314 -3.71354 0
M  V30 2022 H 207.385 0.812983 -7.68512 0
M  V30 2023 H 205.73 0.738049 -6.9107 0
M  V30 2024 H 208.921 0.784535 -4.61479 0
M  V30 2025 H 209.094 0.83614 -6.42583 0
M  V30 2026 N 202.5 1.5196 0.417844 0
M  V30 2027 C 203.725 1.69717 1.1921 0
M  V30 2028 C 204.15 0.402148 1.83751 0
M  V30 2029 O 203.508 -0.639593 1.69643 0
M  V30 2030 C 203.556 2.82794 2.2374 0
M  V30 2031 O 202.66 2.47756 3.29683 0
M  V30 2032 H 202.001 0.565263 0.348387 0
M  V30 2033 H 204.531 1.98621 0.490985 0
M  V30 2034 H 204.541 3.07452 2.68212 0
M  V30 2035 H 203.216 3.76756 1.76146 0
M  V30 2036 H 201.793 2.33739 2.90552 0
M  V30 2037 N 203.978 -0.674533 1.42435 0
M  V30 2038 C 205.208 -1.46071 1.46105 0
M  V30 2039 C 205.616 -1.89067 0.0709605 0
M  V30 2040 O 204.959 -1.58731 -0.924677 0
M  V30 2041 C 205.021 -2.74145 2.32561 0
M  V30 2042 C 204.685 -2.53224 3.8043 0
M  V30 2043 C 205.682 -2.17809 4.72075 0
M  V30 2044 C 203.367 -2.6821 4.24698 0
M  V30 2045 C 205.361 -1.97648 6.05982 0
M  V30 2046 C 203.048 -2.47665 5.58664 0
M  V30 2047 C 204.046 -2.12437 6.49122 0
M  V30 2048 O 203.734 -1.9209 7.80613 0
M  V30 2049 H 203.466 -0.455959 0.499076 0
M  V30 2050 H 206.02 -0.836193 1.87609 0
M  V30 2051 H 204.25 -3.3908 1.85908 0
M  V30 2052 H 205.939 -3.36028 2.27683 0
M  V30 2053 H 206.705 -2.05826 4.39159 0
M  V30 2054 H 202.584 -2.94609 3.54579 0
M  V30 2055 H 206.128 -1.70075 6.7655 0
M  V30 2056 H 202.025 -2.59244 5.91154 0
M  V30 2057 H 202.793 -2.06686 7.91974 0
M  V30 2058 N 205.456 -1.28612 -0.910864 0
M  V30 2059 C 206.681 -1.1891 -1.69927 0
M  V30 2060 C 207.106 0.248372 -1.86453 0
M  V30 2061 O 206.464 1.17961 -1.37676 0
M  V30 2062 C 206.512 -1.89578 -3.06745 0
M  V30 2063 O 205.616 -1.20521 -3.94396 0
M  V30 2064 H 204.957 -0.412632 -0.520222 0
M  V30 2065 H 207.487 -1.69985 -1.1387 0
M  V30 2066 H 207.497 -1.97597 -3.56958 0
M  V30 2067 H 206.172 -2.94136 -2.94035 0
M  V30 2068 H 204.749 -1.20684 -3.52831 0
M  V30 2069 N 206.934 1.1197 -1.10907 0
M  V30 2070 C 207.867 2.16998 -0.706192 0
M  V30 2071 C 208.845 1.59903 0.294897 0
M  V30 2072 O 210.029 1.87513 0.192636 0
M  V30 2073 C 207.156 3.38673 -0.0427664 0
M  V30 2074 C 206.202 4.14414 -1.00811 0
M  V30 2075 S 207.035 4.72079 -2.52789 0
M  V30 2076 C 208.191 5.97083 -1.87731 0
M  V30 2077 H 208.424 2.50837 -1.59587 0
M  V30 2078 H 205.957 1.23508 -0.926555 0
M  V30 2079 H 207.915 4.09142 0.333668 0
M  V30 2080 H 206.576 3.03105 0.823788 0
M  V30 2081 H 205.769 5.016 -0.491259 0
M  V30 2082 H 205.371 3.49678 -1.3267 0
M  V30 2083 H 207.663 6.66599 -1.21044 0
M  V30 2084 H 208.606 6.53403 -2.72892 0
M  V30 2085 H 209.014 5.4837 -1.33979 0
M  V30 2086 N 208.412 0.89855 1.29475 0
M  V30 2087 C 209.322 0.379974 2.31502 0
M  V30 2088 C 210.338 -0.524695 1.659 0
M  V30 2089 O 211.514 -0.414551 1.97087 0
M  V30 2090 C 208.579 -0.385138 3.44554 0
M  V30 2091 C 207.64 0.550914 4.2575 0
M  V30 2092 C 206.873 -0.177778 5.33404 0
M  V30 2093 O 207.096 -1.40189 5.52904 0
M  V30 2094 O 206.03 0.479106 5.9999 0
M  V30 2095 H 209.856 1.22639 2.77837 0
M  V30 2096 H 207.441 0.662834 1.33891 0
M  V30 2097 H 209.323 -0.817841 4.13388 0
M  V30 2098 H 207.998 -1.20763 3.0033 0
M  V30 2099 H 206.905 1.03271 3.59564 0
M  V30 2100 H 208.238 1.33979 4.73614 0
M  V30 2101 N 209.89 -1.43072 0.660911 0
M  V30 2102 C 210.84 -2.27948 -0.04847 0
M  V30 2103 C 211.824 -1.40325 -0.787246 0
M  V30 2104 O 213.016 -1.63893 -0.668446 0
M  V30 2105 C 210.145 -3.28143 -1.00881 0
M  V30 2106 C 209.231 -4.23252 -0.268108 0
M  V30 2107 N 209.622 -5.00656 0.719528 0
M  V30 2108 C 207.92 -4.43092 -0.508493 0
M  V30 2109 C 208.621 -5.70019 1.15988 0
M  V30 2110 N 207.597 -5.41364 0.492584 0
M  V30 2111 H 211.399 -2.85213 0.709279 0
M  V30 2112 H 208.913 -1.54869 0.488822 0
M  V30 2113 H 210.91 -3.87736 -1.53188 0
M  V30 2114 H 209.57 -2.7244 -1.76654 0
M  V30 2115 H 210.581 -5.06115 1.09855 0
M  V30 2116 H 207.258 -3.98449 -1.24679 0
M  V30 2117 H 208.648 -6.4214 1.97751 0
M  V30 2118 N 211.368 -0.403325 -1.52352 0
M  V30 2119 C 212.615 0.174347 -2.01748 0
M  V30 2120 C 212.943 1.45636 -1.2892 0
M  V30 2121 O 212.198 1.9193 -0.382258 0
M  V30 2122 C 212.497 0.474665 -3.54234 0
M  V30 2123 C 212.163 -0.717458 -4.45155 0
M  V30 2124 C 210.825 -1.04447 -4.69728 0
M  V30 2125 C 213.177 -1.51432 -4.98716 0
M  V30 2126 C 210.505 -2.16963 -5.45109 0
M  V30 2127 C 212.857 -2.6302 -5.75329 0
M  V30 2128 C 211.521 -2.96213 -5.98175 0
M  V30 2129 H 210.791 0.0637981 -0.738248 0
M  V30 2130 H 213.438 -0.543553 -1.83624 0
M  V30 2131 H 211.743 1.27406 -3.70506 0
M  V30 2132 H 213.44 0.934496 -3.89959 0
M  V30 2133 H 210.03 -0.452596 -4.26204 0
M  V30 2134 H 214.214 -1.27491 -4.79645 0
M  V30 2135 H 209.47 -2.43034 -5.61021 0
M  V30 2136 H 213.644 -3.25158 -6.15829 0
M  V30 2137 H 211.271 -3.83516 -6.56368 0
M  V30 2138 N 212.846 1.57033 -0.133567 0
M  V30 2139 C 214.262 1.58035 0.222944 0
M  V30 2140 C 214.462 1.14713 1.6566 0
M  V30 2141 O 213.518 0.841218 2.38075 0
M  V30 2142 C 214.831 3.00691 -0.0236116 0
M  V30 2143 C 216.379 3.12973 0.0411512 0
M  V30 2144 C 216.854 4.57654 -0.177899 0
M  V30 2145 N 218.345 4.63033 -0.124365 0
M  V30 2146 C 219.08 5.72771 -0.268553 0
M  V30 2147 N 218.576 6.91206 -0.46972 0
M  V30 2148 N 220.369 5.61718 -0.2071 0
M  V30 2149 H 212.52 1.8349 -1.06981 0
M  V30 2150 H 214.783 0.848677 -0.422436 0
M  V30 2151 H 214.489 3.36726 -1.0153 0
M  V30 2152 H 214.363 3.70614 0.701808 0
M  V30 2153 H 216.75 2.76787 1.02338 0
M  V30 2154 H 216.831 2.45564 -0.716383 0
M  V30 2155 H 216.475 4.94542 -1.15717 0
M  V30 2156 H 216.405 5.23173 0.599797 0
M  V30 2157 H 218.896 3.7789 0.027011 0
M  V30 2158 H 219.209 7.70693 -0.570212 0
M  V30 2159 H 217.554 6.93156 -0.505876 0
M  V30 2160 H 220.745 4.68072 -0.0507986 0
M  V30 2161 H 220.918 6.47195 -0.322909 0
M  V30 2162 N 214.325 -0.140222 1.56975 0
M  V30 2163 C 215.571 -0.848084 1.84876 0
M  V30 2164 C 215.926 -1.78481 0.718481 0
M  V30 2165 O 215.219 -1.89497 -0.283093 0
M  V30 2166 C 215.413 -1.65386 3.16832 0
M  V30 2167 C 215.242 -0.79665 4.42587 0
M  V30 2168 C 214.012 -0.459648 5.03205 0
M  V30 2169 C 216.21 -0.12389 5.14151 0
M  V30 2170 N 214.192 0.410446 6.12526 0
M  V30 2171 C 215.563 0.606064 6.17031 0
M  V30 2172 C 217.618 -0.0452654 4.97879 0
M  V30 2173 C 216.321 1.40723 7.054 0
M  V30 2174 C 218.347 0.742658 5.86718 0
M  V30 2175 C 217.709 1.46087 6.89085 0
M  V30 2176 H 213.808 -0.287946 0.727056 0
M  V30 2177 H 216.392 -0.11304 1.94372 0
M  V30 2178 H 214.563 -2.36009 3.08471 0
M  V30 2179 H 216.295 -2.30541 3.32615 0
M  V30 2180 H 213.05 -0.797006 4.66846 0
M  V30 2181 H 213.474 0.836716 6.7181 0
M  V30 2182 H 218.116 -0.586184 4.18717 0
M  V30 2183 H 215.834 1.95938 7.83986 0
M  V30 2184 H 219.42 0.805574 5.76196 0
M  V30 2185 H 218.3 2.06077 7.56639 0
M  V30 2186 N 215.803 -1.52179 -0.40978 0
M  V30 2187 C 217.051 -1.65878 -1.15451 0
M  V30 2188 C 217.372 -0.390771 -1.91044 0
M  V30 2189 O 216.642 0.594323 -1.86667 0
M  V30 2190 H 215.222 -0.611405 -0.429177 0
M  V30 2191 H 217.884 -1.89219 -0.467134 0
M  V30 2192 H 216.98 -2.49954 -1.86894 0
M  V30 2193 N 217.281 0.66697 -1.42791 0
M  V30 2194 C 218.228 1.7803 -1.4688 0
M  V30 2195 C 219.198 1.6299 -0.319919 0
M  V30 2196 O 220.383 1.83432 -0.525118 0
M  V30 2197 C 217.523 3.1611 -1.38451 0
M  V30 2198 C 216.636 3.42381 -2.63437 0
M  V30 2199 C 215.771 4.70232 -2.47094 0
M  V30 2200 C 214.81 4.89564 -3.67415 0
M  V30 2201 N 213.947 6.08661 -3.49966 0
M  V30 2202 H 218.787 1.7387 -2.42019 0
M  V30 2203 H 216.324 0.84868 -1.20149 0
M  V30 2204 H 218.282 3.95914 -1.31561 0
M  V30 2205 H 216.912 3.19374 -0.469033 0
M  V30 2206 H 215.964 2.56774 -2.80662 0
M  V30 2207 H 217.276 3.52557 -3.52853 0
M  V30 2208 H 216.43 5.5814 -2.37834 0
M  V30 2209 H 215.169 4.62353 -1.5518 0
M  V30 2210 H 214.174 4.00096 -3.77099 0
M  V30 2211 H 215.399 4.99282 -4.6032 0
M  V30 2212 H 213.345 6.0194 -2.60776 0
M  V30 2213 H 213.262 6.19733 -4.32975 0
M  V30 2214 H 214.53 6.99226 -3.44532 0
M  V30 2215 N 218.759 1.29093 0.90403 0
M  V30 2216 C 220.17 1.15186 1.46932 0
M  V30 2217 C 220.521 -0.254587 1.94541 0
M  V30 2218 O 219.646 -1.14972 1.83332 0
M  V30 2219 C 220.241 2.08492 2.67051 0
M  V30 2220 C 218.8 1.98621 3.19729 0
M  V30 2221 C 217.947 1.9967 1.92425 0
M  V30 2222 H 220.898 1.41641 0.715789 0
M  V30 2223 H 220.919 1.65461 3.42641 0
M  V30 2224 H 220.431 3.10847 2.3237 0
M  V30 2225 H 218.532 0.993389 3.59114 0
M  V30 2226 H 218.645 2.86068 3.8432 0
M  V30 2227 H 217.009 1.44208 2.09943 0
M  V30 2228 H 217.792 3.03721 1.60026 0
M  V30 2229 N 220.237 -1.11381 1.11499 0
M  V30 2230 C 221.483 -1.83403 0.865512 0
M  V30 2231 C 221.816 -1.84459 -0.607329 0
M  V30 2232 O 221.091 -1.29811 -1.44842 0
M  V30 2233 C 221.374 -3.30552 1.42855 0
M  V30 2234 C 221.227 -3.37886 2.96906 0
M  V30 2235 C 222.546 -4.26643 1.08 0
M  V30 2236 H 219.665 -0.665879 0.31587 0
M  V30 2237 H 222.307 -1.30601 1.37998 0
M  V30 2238 H 220.457 -3.75648 0.990985 0
M  V30 2239 H 222.129 -3.01343 3.49271 0
M  V30 2240 H 220.372 -2.78088 3.32941 0
M  V30 2241 H 221.043 -4.41458 3.31389 0
M  V30 2242 H 223.519 -3.89729 1.45775 0
M  V30 2243 H 222.395 -5.27986 1.50072 0
M  V30 2244 H 222.656 -4.42099 -0.00915037 0
M  V30 2245 N 221.715 -0.905404 -1.28997 0
M  V30 2246 C 222.963 -0.533192 -1.9494 0
M  V30 2247 C 223.284 0.924618 -1.71685 0
M  V30 2248 O 222.554 1.65268 -1.05183 0
M  V30 2249 H 221.134 -0.194194 -0.721317 0
M  V30 2250 H 223.796 -1.15294 -1.57141 0
M  V30 2251 H 222.892 -0.72059 -3.03667 0
M  V30 2252 N 223.193 1.4272 -0.668489 0
M  V30 2253 C 224.14 2.30796 0.0137489 0
M  V30 2254 C 225.11 1.4561 0.799177 0
M  V30 2255 O 226.295 1.74453 0.772702 0
M  V30 2256 C 223.435 3.31377 0.963507 0
M  V30 2257 C 222.548 4.31655 0.172569 0
M  V30 2258 C 221.683 5.19312 1.1175 0
M  V30 2259 C 220.722 6.11274 0.317886 0
M  V30 2260 N 219.859 6.91504 1.2152 0
M  V30 2261 H 224.699 2.88585 -0.743161 0
M  V30 2262 H 222.236 1.42154 -0.378226 0
M  V30 2263 H 224.194 3.88214 1.52792 0
M  V30 2264 H 222.824 2.75202 1.68712 0
M  V30 2265 H 221.876 3.76988 -0.508374 0
M  V30 2266 H 223.188 4.96779 -0.448527 0
M  V30 2267 H 222.342 5.80851 1.75206 0
M  V30 2268 H 221.081 4.5435 1.77249 0
M  V30 2269 H 220.086 5.48809 -0.329918 0
M  V30 2270 H 221.311 6.78283 -0.332917 0
M  V30 2271 H 219.257 6.29176 1.85671 0
M  V30 2272 H 219.174 7.53209 0.649036 0
M  V30 2273 H 220.442 7.57535 1.83742 0
M  V30 2274 N 224.671 0.411399 1.52136 0
M  V30 2275 C 225.618 -0.412975 2.27075 0
M  V30 2276 C 226.588 -1.03912 1.29582 0
M  V30 2277 O 227.773 -1.06296 1.58448 0
M  V30 2278 C 224.913 -1.52247 3.09701 0
M  V30 2279 C 224.026 -0.917021 4.22155 0
M  V30 2280 C 223.161 -1.9994 4.92135 0
M  V30 2281 C 222.2 -1.37101 5.96548 0
M  V30 2282 N 221.337 -2.39364 6.60038 0
M  V30 2283 H 226.177 0.232499 2.97092 0
M  V30 2284 H 223.714 0.126496 1.46555 0
M  V30 2285 H 225.672 -2.17674 3.55913 0
M  V30 2286 H 224.302 -2.13794 2.41851 0
M  V30 2287 H 223.354 -0.151742 3.80097 0
M  V30 2288 H 224.666 -0.418006 4.97045 0
M  V30 2289 H 223.82 -2.73088 5.41763 0
M  V30 2290 H 222.559 -2.53208 4.16818 0
M  V30 2291 H 221.564 -0.624873 5.46237 0
M  V30 2292 H 222.789 -0.845998 6.7381 0
M  V30 2293 H 220.735 -2.91759 5.87548 0
M  V30 2294 H 220.652 -1.9428 7.3061 0
M  V30 2295 H 221.92 -3.12074 7.14304 0
M  V30 2296 N 226.149 -1.5696 0.141893 0
M  V30 2297 C 227.565 -1.58151 -0.21456 0
M  V30 2298 C 227.765 -1.1559 -1.65049 0
M  V30 2299 O 226.821 -0.853832 -2.37626 0
M  V30 2300 C 228.134 -3.00674 0.0395576 0
M  V30 2301 C 229.682 -3.1299 -0.0245529 0
M  V30 2302 C 230.157 -4.57554 0.202167 0
M  V30 2303 N 231.648 -4.62961 0.148919 0
M  V30 2304 C 232.383 -5.7262 0.298924 0
M  V30 2305 N 231.879 -6.90947 0.50637 0
M  V30 2306 N 233.672 -5.61601 0.236886 0
M  V30 2307 H 225.823 -1.8292 1.07953 0
M  V30 2308 H 228.086 -0.846425 0.42693 0
M  V30 2309 H 227.792 -3.36183 1.03315 0
M  V30 2310 H 227.666 -3.70981 -0.682143 0
M  V30 2311 H 230.053 -2.77326 -1.00869 0
M  V30 2312 H 230.134 -2.4518 0.729396 0
M  V30 2313 H 229.778 -4.93922 1.18338 0
M  V30 2314 H 229.708 -5.23484 -0.572044 0
M  V30 2315 H 232.199 -3.77899 -0.00697015 0
M  V30 2316 H 232.512 -7.7038 0.611076 0
M  V30 2317 H 230.857 -6.92878 0.542628 0
M  V30 2318 H 234.048 -4.68039 0.0756209 0
M  V30 2319 H 234.221 -6.47015 0.357227 0
M  V30 2320 N 227.627 0.131896 -1.57047 0
M  V30 2321 C 229.043 0.485031 -1.52051 0
M  V30 2322 C 229.243 1.82563 -0.85281 0
M  V30 2323 O 228.299 2.48817 -0.429694 0
M  V30 2324 C 229.612 0.481409 -2.96821 0
M  V30 2325 C 231.16 0.565868 -3.07842 0
M  V30 2326 C 231.635 0.592762 -4.54148 0
M  V30 2327 N 233.126 0.654564 -4.58552 0
M  V30 2328 C 233.861 0.696608 -5.69153 0
M  V30 2329 N 233.357 0.697078 -6.89284 0
M  V30 2330 N 235.15 0.738639 -5.57226 0
M  V30 2331 H 227.301 -0.746664 -1.98843 0
M  V30 2332 H 229.564 -0.273999 -0.90754 0
M  V30 2333 H 229.27 -0.435731 -3.4899 0
M  V30 2334 H 229.144 1.3139 -3.53577 0
M  V30 2335 H 231.531 1.47343 -2.55684 0
M  V30 2336 H 231.612 -0.29406 -2.54104 0
M  V30 2337 H 231.256 -0.310701 -5.06949 0
M  V30 2338 H 231.186 1.46939 -5.05684 0
M  V30 2339 H 233.677 0.660887 -3.72076 0
M  V30 2340 H 233.99 0.731426 -7.69331 0
M  V30 2341 H 232.335 0.66471 -6.91814 0
M  V30 2342 H 235.526 0.735545 -4.62285 0
M  V30 2343 H 235.699 0.767938 -6.43434 0
M  V30 2344 N 229.106 1.52395 0.401703 0
M  V30 2345 C 230.517 1.58899 0.980202 0
M  V30 2346 C 230.868 0.434032 1.91339 0
M  V30 2347 O 229.993 -0.444619 2.11783 0
M  V30 2348 C 230.588 2.87994 1.78451 0
M  V30 2349 C 229.147 2.96953 2.31292 0
M  V30 2350 C 228.294 2.53903 1.11483 0
M  V30 2351 H 231.245 1.57657 0.18168 0
M  V30 2352 H 231.266 2.73765 2.64259 0
M  V30 2353 H 230.778 3.72035 1.10506 0
M  V30 2354 H 228.879 2.17422 3.02586 0
M  V30 2355 H 228.992 4.01344 2.61649 0
M  V30 2356 H 227.356 2.07925 1.47104 0
M  V30 2357 H 228.139 3.40326 0.450928 0
M  V30 2358 N 230.584 -0.659388 1.43143 0
M  V30 2359 C 231.83 -1.42145 1.44647 0
M  V30 2360 C 232.163 -1.9408 0.0681907 0
M  V30 2361 O 231.438 -1.71899 -0.910007 0
M  V30 2362 C 231.721 -2.60735 2.48373 0
M  V30 2363 C 231.574 -2.14332 3.95451 0
M  V30 2364 C 232.893 -3.62951 2.48906 0
M  V30 2365 H 230.012 -0.51552 0.526696 0
M  V30 2366 H 232.654 -0.748069 1.74654 0
M  V30 2367 H 230.804 -3.18184 2.22916 0
M  V30 2368 H 232.476 -1.61932 4.31944 0
M  V30 2369 H 230.719 -1.4576 4.08578 0
M  V30 2370 H 231.39 -2.99583 4.63631 0
M  V30 2371 H 233.866 -3.1525 2.71582 0
M  V30 2372 H 232.742 -4.43487 3.23435 0
M  V30 2373 H 233.003 -4.15126 1.52061 0
M  V30 2374 N 232.062 -1.29571 -0.897171 0
M  V30 2375 C 233.009 -1.14916 -2.00158 0
M  V30 2376 C 233.979 -0.0418149 -1.66047 0
M  V30 2377 O 235.164 -0.209793 -1.89643 0
M  V30 2378 C 232.304 -0.834307 -3.34863 0
M  V30 2379 C 231.417 -2.02234 -3.8174 0
M  V30 2380 C 230.552 -1.64664 -5.05034 0
M  V30 2381 C 229.591 -2.80033 -5.44286 0
M  V30 2382 N 228.728 -2.42843 -6.58765 0
M  V30 2383 H 233.568 -2.09403 -2.12025 0
M  V30 2384 H 231.105 -1.042 -1.0383 0
M  V30 2385 H 233.063 -0.632436 -4.12379 0
M  V30 2386 H 231.693 0.0736656 -3.22716 0
M  V30 2387 H 230.745 -2.33583 -3.00238 0
M  V30 2388 H 232.057 -2.88673 -4.06779 0
M  V30 2389 H 231.211 -1.4078 -5.9014 0
M  V30 2390 H 229.95 -0.753766 -4.8184 0
M  V30 2391 H 228.955 -3.04596 -4.57713 0
M  V30 2392 H 230.18 -3.69989 -5.6946 0
M  V30 2393 H 228.126 -1.56046 -6.3717 0
M  V30 2394 H 228.043 -3.22815 -6.83613 0
M  V30 2395 H 229.311 -2.22285 -7.47134 0
M  V30 2396 N 233.54 1.10788 -1.12088 0
M  V30 2397 C 234.786 1.82942 -0.875226 0
M  V30 2398 C 235.119 1.84779 0.597538 0
M  V30 2399 O 234.394 1.30578 1.44152 0
M  V30 2400 C 234.677 3.29789 -1.44606 0
M  V30 2401 C 234.53 3.36307 -2.98693 0
M  V30 2402 C 235.849 4.26064 -1.10261 0
M  V30 2403 H 232.968 0.664195 -0.319397 0
M  V30 2404 H 235.61 1.29867 -1.38689 0
M  V30 2405 H 233.76 3.75118 -1.01089 0
M  V30 2406 H 235.432 2.99487 -3.50864 0
M  V30 2407 H 233.675 2.76318 -3.34411 0
M  V30 2408 H 234.346 4.39694 -3.33726 0
M  V30 2409 H 236.822 3.88951 -1.4784 0
M  V30 2410 H 235.698 5.27183 -1.52869 0
M  V30 2411 H 235.959 4.42098 -0.0142953 0
M  V30 2412 N 235.018 0.912232 1.28515 0
M  V30 2413 C 236.248 0.559604 1.98877 0
M  V30 2414 C 236.656 -0.863113 1.68366 0
M  V30 2415 O 235.999 -1.58304 0.931969 0
M  V30 2416 C 236.061 0.68703 3.52874 0
M  V30 2417 C 235.725 2.07901 4.06972 0
M  V30 2418 C 236.722 3.05157 4.20922 0
M  V30 2419 C 234.407 2.39178 4.417 0
M  V30 2420 C 236.401 4.31806 4.68852 0
M  V30 2421 C 234.088 3.66068 4.89324 0
M  V30 2422 C 235.086 4.62195 5.02856 0
M  V30 2423 O 234.774 5.86829 5.49442 0
M  V30 2424 H 234.506 0.212191 0.641834 0
M  V30 2425 H 237.06 1.22712 1.64715 0
M  V30 2426 H 235.29 -0.0375486 3.86682 0
M  V30 2427 H 236.979 0.341727 4.04459 0
M  V30 2428 H 237.745 2.82311 3.94367 0
M  V30 2429 H 233.624 1.65109 4.30418 0
M  V30 2430 H 237.168 5.06842 4.79329 0
M  V30 2431 H 233.065 3.88739 5.15318 0
M  V30 2432 H 233.833 5.89597 5.6773 0
M  V30 2433 N 236.496 -1.42363 0.676048 0
M  V30 2434 C 237.907 -1.84649 0.275948 0
M  V30 2435 C 238.258 -1.56588 -1.18214 0
M  V30 2436 O 237.383 -1.02634 -1.90513 0
M  V30 2437 C 237.978 -3.35178 0.494053 0
M  V30 2438 C 236.537 -3.76109 0.148061 0
M  V30 2439 C 235.684 -2.65931 0.785891 0
M  V30 2440 H 238.635 -1.32192 0.878121 0
M  V30 2441 H 238.656 -3.79655 -0.25343 0
M  V30 2442 H 238.168 -3.55571 1.55535 0
M  V30 2443 H 236.269 -3.61323 -0.909742 0
M  V30 2444 H 236.382 -4.7546 0.589454 0
M  V30 2445 H 234.746 -2.53773 0.217113 0
M  V30 2446 H 235.529 -2.89146 1.85067 0
M  V30 2447 N 237.974 -0.419461 -1.51915 0
M  V30 2448 C 238.922 0.415502 -2.28859 0
M  V30 2449 C 239.916 1.03674 -1.3397 0
M  V30 2450 O 241.122 0.973757 -1.51387 0
M  V30 2451 H 237.497 0.152786 -0.736315 0
M  V30 2452 H 239.468 -0.254531 -2.97312 0
M  V30 2453 C 238.217 1.51425 -3.12995 0
M  V30 2454 H 237.54 1.04556 -3.85886 0
M  V30 2455 H 238.98 2.07208 -3.6992 0
M  V30 2456 C 237.439 2.48745 -2.27217 0
M  V30 2457 O 237.969 3.52871 -1.9195 0
M  V30 2458 N 236.175 2.19202 -1.90785 0
M  V30 2459 H 235.722 1.34556 -2.19664 0
M  V30 2460 H 235.68 2.84561 -1.33687 0
M  V30 2461 N 239.452 1.56882 -0.150215 0
M  V30 2462 C 240.7 1.9584 0.499105 0
M  V30 2463 C 241.021 1.03623 1.65188 0
M  V30 2464 O 240.291 0.0984084 1.95653 0
M  V30 2465 H 238.871 0.723119 0.187373 0
M  V30 2466 H 241.533 1.9358 -0.226466 0
M  V30 2467 H 240.629 2.99638 0.873122 0
M  V30 2468 N 240.93 -0.123565 1.57115 0
M  V30 2469 C 241.893 -1.13583 1.99076 0
M  V30 2470 C 242.893 -1.34564 0.880296 0
M  V30 2471 O 244.083 -1.31158 1.14644 0
M  V30 2472 C 241.215 -2.49128 2.32698 0
M  V30 2473 H 242.408 -0.775287 2.89706 0
M  V30 2474 H 239.961 -0.36771 1.51913 0
M  V30 2475 H 240.696 -2.90111 1.44934 0
M  V30 2476 H 240.481 -2.35255 3.13684 0
M  V30 2477 H 241.971 -3.2199 2.65918 0
M  V30 2478 N 242.408 -1.52605 -0.393616 0
M  V30 2479 C 243.318 -1.79971 -1.50492 0
M  V30 2480 C 244.334 -0.686181 -1.59899 0
M  V30 2481 O 245.51 -0.973274 -1.76322 0
M  V30 2482 C 242.575 -1.95867 -2.86072 0
M  V30 2483 C 241.636 -3.19781 -2.86424 0
M  V30 2484 C 240.869 -3.34909 -4.15538 0
M  V30 2485 O 241.092 -2.54948 -5.10253 0
M  V30 2486 O 240.026 -4.28141 -4.23059 0
M  V30 2487 H 243.852 -2.74328 -1.30299 0
M  V30 2488 H 241.437 -1.3764 -0.581005 0
M  V30 2489 H 243.319 -2.08056 -3.66457 0
M  V30 2490 H 241.994 -1.04699 -3.063 0
M  V30 2491 H 240.901 -3.13038 -2.04837 0
M  V30 2492 H 242.234 -4.1078 -2.71147 0
M  V30 2493 N 243.887 0.651787 -1.4349 0
M  V30 2494 C 245.164 1.40909 -1.35661 0
M  V30 2495 C 245.544 2.11099 -0.00511733 0
M  V30 2496 O 244.892 2.04892 1.0115 0
M  V30 2497 C 245.102 2.3926 -2.54078 0
M  V30 2498 C 246.45 3.03217 -2.97228 0
M  V30 2499 O 247.474 2.49588 -2.54135 0
M  V30 2500 O 246.333 4.00455 -3.71885 0
M  V30 2501 H 243.427 0.629625 -0.536191 0
M  V30 2502 H 245.973 0.678575 -1.55542 0
M  V30 2503 H 244.745 1.86352 -3.44076 0
M  V30 2504 H 244.368 3.1976 -2.36303 0
M  V30 2505 N 245.365 1.30045 0.890287 0
M  V30 2506 C 246.275 1.17885 2.02831 0
M  V30 2507 C 247.291 0.0999609 1.73713 0
M  V30 2508 O 248.467 0.313867 1.98939 0
M  V30 2509 C 245.532 0.866079 3.35708 0
M  V30 2510 C 244.593 2.02979 3.78283 0
M  V30 2511 C 243.826 1.73184 5.0482 0
M  V30 2512 O 244.049 0.657237 5.66601 0
M  V30 2513 O 242.983 2.58267 5.43674 0
M  V30 2514 H 246.809 2.13474 2.16015 0
M  V30 2515 H 244.394 1.09587 1.01543 0
M  V30 2516 H 246.276 0.706623 4.15433 0
M  V30 2517 H 244.951 -0.0599443 3.23644 0
M  V30 2518 H 243.858 2.24454 2.99285 0
M  V30 2519 H 245.191 2.93734 3.94944 0
M  V30 2520 N 246.843 -1.10192 1.12674 0
M  V30 2521 C 248.068 -1.86523 0.906853 0
M  V30 2522 C 248.493 -1.80221 -0.538711 0
M  V30 2523 O 247.851 -1.17396 -1.38158 0
M  V30 2524 C 247.899 -3.32758 1.3894 0
M  V30 2525 O 247.003 -4.08449 0.5695 0
M  V30 2526 H 246.344 -0.578678 0.325619 0
M  V30 2527 H 248.874 -1.39203 1.49946 0
M  V30 2528 H 248.884 -3.83608 1.38958 0
M  V30 2529 H 247.559 -3.36661 2.44197 0
M  V30 2530 H 246.136 -3.67427 0.636528 0
M  V30 2531 N 248.321 -0.919034 -1.28029 0
M  V30 2532 C 249.284 -0.416182 -2.2539 0
M  V30 2533 C 250.284 0.460438 -1.54067 0
M  V30 2534 O 251.474 0.262744 -1.72207 0
M  V30 2535 C 248.606 0.402707 -3.38513 0
M  V30 2536 H 249.799 -1.27629 -2.71387 0
M  V30 2537 H 247.352 -0.698919 -1.39803 0
M  V30 2538 H 248.087 1.282 -2.97885 0
M  V30 2539 H 247.872 -0.225698 -3.9145 0
M  V30 2540 H 249.362 0.745191 -4.10897 0
M  V30 2541 N 249.799 1.42003 -0.683588 0
M  V30 2542 C 250.709 2.34597 -0.0109075 0
M  V30 2543 C 251.725 1.55576 0.779245 0
M  V30 2544 O 252.901 1.88107 0.719555 0
M  V30 2545 C 249.966 3.34199 0.922588 0
M  V30 2546 C 249.027 4.29115 0.125984 0
M  V30 2547 C 248.26 5.23959 1.01502 0
M  V30 2548 O 248.483 5.23952 2.25456 0
M  V30 2549 O 247.417 6.00053 0.47111 0
M  V30 2550 H 251.243 2.93675 -0.773853 0
M  V30 2551 H 248.828 1.42654 -0.443861 0
M  V30 2552 H 250.71 3.95365 1.45823 0
M  V30 2553 H 249.385 2.77582 1.66523 0
M  V30 2554 H 248.292 3.71335 -0.453969 0
M  V30 2555 H 249.625 4.88798 -0.577736 0
M  V30 2556 N 251.277 0.427512 1.51691 0
M  V30 2557 C 252.24 -0.377132 2.26076 0
M  V30 2558 C 253.24 -0.958089 1.29141 0
M  V30 2559 O 254.43 -0.83408 1.52934 0
M  V30 2560 C 251.562 -1.53262 3.04506 0
M  V30 2561 H 252.755 0.27464 2.9864 0
M  V30 2562 H 250.308 0.180445 1.55255 0
M  V30 2563 H 251.043 -2.22072 2.36335 0
M  V30 2564 H 250.828 -1.12232 3.75694 0
M  V30 2565 H 252.318 -2.10135 3.60878 0
M  V30 2566 N 252.755 -1.56801 0.158532 0
M  V30 2567 C 254.002 -1.9649 -0.489679 0
M  V30 2568 C 254.33 -1.04394 -1.6411 0
M  V30 2569 O 253.585 -0.0754401 -1.95555 0
M  V30 2570 C 253.884 -3.4235 -1.02623 0
M  V30 2571 C 253.55 -4.50899 0.00794526 0
M  V30 2572 C 252.212 -4.80312 0.292207 0
M  V30 2573 C 254.564 -5.16333 0.710584 0
M  V30 2574 C 251.892 -5.72461 1.28472 0
M  V30 2575 C 254.244 -6.09553 1.69199 0
M  V30 2576 C 252.908 -6.37339 1.98383 0
M  V30 2577 H 252.178 -0.719009 -0.179186 0
M  V30 2578 H 254.825 -1.8989 0.247798 0
M  V30 2579 H 253.13 -3.45838 -1.84128 0
M  V30 2580 H 254.827 -3.70393 -1.53656 0
M  V30 2581 H 251.417 -4.28015 -0.22379 0
M  V30 2582 H 255.601 -4.93732 0.504174 0
M  V30 2583 H 250.857 -5.92278 1.51714 0
M  V30 2584 H 255.031 -6.59327 2.24189 0
M  V30 2585 H 252.658 -7.08546 2.7544 0
M  V30 2586 N 254.233 0.115231 -1.57178 0
M  V30 2587 C 255.644 0.67197 -1.74188 0
M  V30 2588 C 255.995 1.80125 -0.777777 0
M  V30 2589 O 255.12 2.16346 0.0484376 0
M  V30 2590 C 255.715 1.22573 -3.1585 0
M  V30 2591 C 254.274 1.72872 -3.34353 0
M  V30 2592 C 253.421 0.629972 -2.70049 0
M  V30 2593 H 256.372 -0.110712 -1.58313 0
M  V30 2594 H 256.393 2.09535 -3.17609 0
M  V30 2595 H 255.905 0.403598 -3.85996 0
M  V30 2596 H 254.006 2.5755 -2.69256 0
M  V30 2597 H 254.119 1.83557 -4.42542 0
M  V30 2598 H 252.483 1.0645 -2.31388 0
M  V30 2599 H 253.266 -0.181241 -3.42821 0
M  V30 2600 N 255.711 1.52812 0.385517 0
M  V30 2601 C 256.641 1.80808 1.47752 0
M  V30 2602 C 257.622 0.660318 1.5676 0
M  V30 2603 O 258.807 0.908246 1.71652 0
M  V30 2604 C 255.937 1.98008 2.85324 0
M  V30 2605 C 254.891 3.13709 2.91154 0
M  V30 2606 C 254.217 3.16169 4.31209 0
M  V30 2607 C 255.517 4.52709 2.60483 0
M  V30 2608 H 257.211 2.72253 1.24573 0
M  V30 2609 H 254.757 1.31003 0.597839 0
M  V30 2610 H 256.71 2.16176 3.61726 0
M  V30 2611 H 255.434 1.03255 3.09848 0
M  V30 2612 H 254.093 2.95329 2.17201 0
M  V30 2613 H 253.741 2.19092 4.52778 0
M  V30 2614 H 253.441 3.93894 4.36029 0
M  V30 2615 H 254.965 3.36496 5.09512 0
M  V30 2616 H 256.379 4.71173 3.26602 0
M  V30 2617 H 254.776 5.32528 2.76648 0
M  V30 2618 H 255.846 4.59186 1.55809 0
M  V30 2619 N 257.189 -0.644168 1.43834 0
M  V30 2620 C 258.099 -1.78563 1.52159 0
M  V30 2621 C 259.115 -1.69147 0.408069 0
M  V30 2622 O 260.291 -1.90156 0.663524 0
M  V30 2623 C 257.356 -3.14888 1.45073 0
M  V30 2624 C 256.417 -3.36034 2.6717 0
M  V30 2625 C 255.65 -4.65855 2.60413 0
M  V30 2626 O 255.873 -5.45805 1.65689 0
M  V30 2627 O 254.807 -4.88918 3.5106 0
M  V30 2628 H 258.633 -1.74494 2.48567 0
M  V30 2629 H 256.218 -0.80378 1.25935 0
M  V30 2630 H 258.1 -3.96179 1.43597 0
M  V30 2631 H 256.775 -3.19528 0.518037 0
M  V30 2632 H 255.682 -2.54472 2.74217 0
M  V30 2633 H 257.015 -3.36247 3.59442 0
M  V30 2634 N 258.668 -1.30515 -0.883378 0
M  V30 2635 C 259.915 -1.1943 -1.63532 0
M  V30 2636 C 260.243 0.250627 -1.92878 0
M  V30 2637 O 259.498 1.19556 -1.54935 0
M  V30 2638 C 259.797 -1.96994 -2.98209 0
M  V30 2639 C 259.463 -3.466 -2.88408 0
M  V30 2640 C 258.125 -3.87397 -2.85442 0
M  V30 2641 C 260.477 -4.41863 -2.76418 0
M  V30 2642 C 257.805 -5.21745 -2.68327 0
M  V30 2643 C 260.157 -5.7632 -2.60841 0
M  V30 2644 C 258.821 -6.16354 -2.56251 0
M  V30 2645 H 258.091 -0.437025 -0.598406 0
M  V30 2646 H 260.738 -1.61635 -1.02696 0
M  V30 2647 H 259.043 -1.47429 -3.63004 0
M  V30 2648 H 260.74 -1.85808 -3.55354 0
M  V30 2649 H 257.33 -3.14182 -2.91527 0
M  V30 2650 H 261.514 -4.11285 -2.77775 0
M  V30 2651 H 256.77 -5.51853 -2.63189 0
M  V30 2652 H 260.944 -6.49772 -2.50538 0
M  V30 2653 H 258.571 -7.20401 -2.42748 0
M  V30 2654 N 260.146 1.09593 -1.13257 0
M  V30 2655 C 261.093 2.1618 -0.808381 0
M  V30 2656 C 262.063 1.64517 0.228754 0
M  V30 2657 O 263.248 1.9053 0.101381 0
M  V30 2658 C 260.388 3.43973 -0.278675 0
M  V30 2659 C 259.501 4.09545 -1.37466 0
M  V30 2660 C 258.636 5.25088 -0.803479 0
M  V30 2661 C 257.675 5.82579 -1.87799 0
M  V30 2662 N 256.812 6.89486 -1.32488 0
M  V30 2663 H 261.652 2.43254 -1.72138 0
M  V30 2664 H 259.189 1.19392 -0.859294 0
M  V30 2665 H 261.147 4.17174 0.0465583 0
M  V30 2666 H 259.777 3.17223 0.597459 0
M  V30 2667 H 258.829 3.34226 -1.81652 0
M  V30 2668 H 260.141 4.48307 -2.18684 0
M  V30 2669 H 259.295 6.05178 -0.429427 0
M  V30 2670 H 258.034 4.87684 0.0397956 0
M  V30 2671 H 257.039 5.01152 -2.26113 0
M  V30 2672 H 258.264 6.22045 -2.72463 0
M  V30 2673 H 256.21 6.54064 -0.503575 0
M  V30 2674 H 256.127 7.27007 -2.07355 0
M  V30 2675 H 257.395 7.73336 -0.978336 0
M  V30 2676 N 261.624 0.925811 1.2754 0
M  V30 2677 C 263.04 0.625767 1.46821 0
M  V30 2678 C 263.24 -0.825506 1.83814 0
M  V30 2679 O 262.296 -1.60356 1.95044 0
M  V30 2680 C 263.609 1.57402 2.56213 0
M  V30 2681 C 265.157 1.58204 2.70075 0
M  V30 2682 C 265.632 2.51721 3.82623 0
M  V30 2683 N 267.123 2.49917 3.89994 0
M  V30 2684 C 267.858 3.18968 4.76494 0
M  V30 2685 N 267.354 3.97391 5.67496 0
M  V30 2686 N 269.147 3.07996 4.70208 0
M  V30 2687 H 261.298 1.86409 1.01811 0
M  V30 2688 H 263.561 0.800213 0.508295 0
M  V30 2689 H 263.267 2.60925 2.35819 0
M  V30 2690 H 263.141 1.31428 3.53563 0
M  V30 2691 H 265.528 0.554124 2.89851 0
M  V30 2692 H 265.609 1.88226 1.73218 0
M  V30 2693 H 265.253 3.54622 3.63601 0
M  V30 2694 H 265.183 2.18996 4.78903 0
M  V30 2695 H 267.674 1.9296 3.24923 0
M  V30 2696 H 267.987 4.4707 6.30356 0
M  V30 2697 H 266.332 4.01495 5.67298 0
M  V30 2698 H 269.523 2.46223 3.9811 0
M  V30 2699 H 269.696 3.6208 5.37403 0
M  V30 2700 N 263.102 -1.41638 0.69111 0
M  V30 2701 C 264.012 -2.34588 0.0233487 0
M  V30 2702 C 265.028 -1.55987 -0.770984 0
M  V30 2703 O 266.204 -1.88486 -0.709569 0
M  V30 2704 C 263.269 -3.34684 -0.904851 0
M  V30 2705 C 262.33 -4.29176 -0.103225 0
M  V30 2706 C 261.563 -5.2449 -0.987216 0
M  V30 2707 O 261.786 -5.2514 -2.22674 0
M  V30 2708 O 260.72 -6.00295 -0.439281 0
M  V30 2709 H 264.546 -2.93261 0.789416 0
M  V30 2710 H 262.131 -1.42417 0.45142 0
M  V30 2711 H 264.013 -3.96133 -1.43724 0
M  V30 2712 H 262.688 -2.78461 -1.65049 0
M  V30 2713 H 261.595 -3.71089 0.473655 0
M  V30 2714 H 262.928 -4.88484 0.60365 0
M  V30 2715 N 264.58 -0.43555 -1.51462 0
M  V30 2716 C 265.51 0.367376 -2.30592 0
M  V30 2717 C 266.491 1.02263 -1.35928 0
M  V30 2718 O 267.676 1.02661 -1.64847 0
M  V30 2719 C 264.806 1.46983 -3.14664 0
M  V30 2720 C 263.76 0.938161 -4.17591 0
M  V30 2721 C 263.086 2.13622 -4.90173 0
M  V30 2722 C 264.386 -0.0261621 -5.22293 0
M  V30 2723 H 266.08 -0.292969 -2.97963 0
M  V30 2724 H 263.626 -0.14234 -1.43295 0
M  V30 2725 H 265.579 2.03873 -3.688 0
M  V30 2726 H 264.303 2.15843 -2.4511 0
M  V30 2727 H 262.962 0.391481 -3.64504 0
M  V30 2728 H 262.61 2.81098 -4.17124 0
M  V30 2729 H 262.31 1.78688 -5.59772 0
M  V30 2730 H 263.834 2.7107 -5.47132 0
M  V30 2731 H 265.248 0.452384 -5.71512 0
M  V30 2732 H 263.645 -0.287992 -5.99409 0
M  V30 2733 H 264.715 -0.963391 -4.75233 0
M  V30 2734 N 266.058 1.56714 -0.166846 0
M  V30 2735 C 267.286 2.0112 0.485644 0
M  V30 2736 C 267.701 1.04705 1.57106 0
M  V30 2737 O 267.058 0.0471923 1.82439 0
M  V30 2738 C 267.109 3.45361 1.06808 0
M  V30 2739 O 266.83 4.38092 0.0259995 0
M  V30 2740 C 268.331 4.05145 1.79924 0
M  V30 2741 H 265.551 0.65931 0.124704 0
M  V30 2742 H 268.095 2.02746 -0.267262 0
M  V30 2743 H 266.25 3.44524 1.7715 0
M  V30 2744 H 266.664 5.22519 0.455398 0
M  V30 2745 H 268.138 5.08009 2.15942 0
M  V30 2746 H 268.615 3.46982 2.69258 0
M  V30 2747 H 269.221 4.09672 1.14234 0
M  V30 2748 N 267.536 -0.106894 1.57237 0
M  V30 2749 C 268.784 -0.810921 1.85117 0
M  V30 2750 C 269.105 -1.7984 0.753827 0
M  V30 2751 O 268.375 -1.94649 -0.221056 0
M  V30 2752 H 266.955 -0.302466 0.683025 0
M  V30 2753 H 269.617 -0.0913324 1.94686 0
M  V30 2754 H 268.713 -1.34875 2.81452 0
M  V30 2755 N 269.014 -1.53014 -0.377408 0
M  V30 2756 C 269.946 -1.74884 -1.48149 0
M  V30 2757 C 270.959 -0.629433 -1.5014 0
M  V30 2758 O 272.148 -0.905416 -1.53833 0
M  V30 2759 C 269.248 -1.80299 -2.86959 0
M  V30 2760 C 268.421 -3.09776 -3.08801 0
M  V30 2761 C 267.48 -3.06586 -4.27658 0
M  V30 2762 O 266.506 -3.80419 -4.23403 0
M  V30 2763 N 267.708 -2.26578 -5.34455 0
M  V30 2764 H 270.473 -2.70147 -1.29771 0
M  V30 2765 H 268.034 -1.51646 -0.56703 0
M  V30 2766 H 270.026 -1.75657 -3.64591 0
M  V30 2767 H 268.596 -0.92372 -2.98641 0
M  V30 2768 H 267.816 -3.27815 -2.18931 0
M  V30 2769 H 269.104 -3.95366 -3.20255 0
M  V30 2770 H 268.502 -1.66081 -5.40771 0
M  V30 2771 H 267.059 -2.27766 -6.10709 0
M  V30 2772 N 270.492 0.636531 -1.44174 0
M  V30 2773 C 271.908 0.954104 -1.27941 0
M  V30 2774 C 272.108 2.0039 -0.211248 0
M  V30 2775 O 271.164 2.49236 0.404695 0
M  V30 2776 C 272.477 1.4225 -2.64925 0
M  V30 2777 C 274.025 1.53827 -2.72592 0
M  V30 2778 C 274.5 2.04053 -4.10032 0
M  V30 2779 N 275.991 2.11331 -4.12182 0
M  V30 2780 C 276.726 2.51352 -5.15374 0
M  V30 2781 N 276.222 2.90549 -6.2893 0
M  V30 2782 N 278.015 2.51438 -5.02728 0
M  V30 2783 H 270.166 -0.0578386 -2.12321 0
M  V30 2784 H 272.429 0.0367406 -0.947288 0
M  V30 2785 H 272.135 0.725466 -3.44136 0
M  V30 2786 H 272.009 2.39451 -2.9145 0
M  V30 2787 H 274.396 2.22628 -1.93702 0
M  V30 2788 H 274.477 0.550154 -2.49814 0
M  V30 2789 H 274.121 1.35848 -4.89395 0
M  V30 2790 H 274.051 3.03726 -4.30184 0
M  V30 2791 H 276.542 1.83745 -3.30222 0
M  V30 2792 H 276.855 3.19884 -7.03487 0
M  V30 2793 H 275.2 2.88313 -6.32377 0
M  V30 2794 H 278.391 2.20203 -4.13072 0
M  V30 2795 H 278.564 2.82304 -5.83274 0
M  V30 2796 N 271.97 1.30982 0.876444 0
M  V30 2797 C 272.9 1.20668 1.99903 0
M  V30 2798 C 273.881 0.095354 1.69833 0
M  V30 2799 O 275.066 0.27885 1.92188 0
M  V30 2800 C 272.196 0.90655 3.3526 0
M  V30 2801 C 271.15 1.97675 3.79617 0
M  V30 2802 C 270.476 1.52943 5.1236 0
M  V30 2803 C 271.776 3.389 3.97422 0
M  V30 2804 H 273.47 2.14586 2.0879 0
M  V30 2805 H 271.016 1.03308 1.00317 0
M  V30 2806 H 272.969 0.821025 4.13324 0
M  V30 2807 H 271.693 -0.0682969 3.26529 0
M  V30 2808 H 270.352 2.05205 3.03787 0
M  V30 2809 H 270 0.54262 5.00065 0
M  V30 2810 H 269.7 2.24532 5.43009 0
M  V30 2811 H 271.224 1.45786 5.92941 0
M  V30 2812 H 272.638 3.34081 4.659 0
M  V30 2813 H 271.035 4.0865 4.3946 0
M  V30 2814 H 272.105 3.80163 3.01006 0
M  V30 2815 N 273.449 -1.08991 1.13837 0
M  V30 2816 C 274.865 -1.33312 0.877506 0
M  V30 2817 C 275.065 -1.95587 -0.48456 0
M  V30 2818 O 274.121 -2.20509 -1.23013 0
M  V30 2819 C 275.434 -2.24045 2.0056 0
M  V30 2820 C 276.982 -2.37542 2.03821 0
M  V30 2821 C 277.457 -3.31614 3.15905 0
M  V30 2822 N 278.948 -3.39189 3.15445 0
M  V30 2823 C 279.683 -4.11992 3.98811 0
M  V30 2824 N 279.179 -4.87553 4.92203 0
M  V30 2825 N 280.972 -4.07762 3.86894 0
M  V30 2826 H 273.123 -0.669456 2.01574 0
M  V30 2827 H 275.386 -0.357482 0.878015 0
M  V30 2828 H 275.092 -1.85521 2.98789 0
M  V30 2829 H 274.966 -3.24466 1.92359 0
M  V30 2830 H 277.353 -2.75327 1.06202 0
M  V30 2831 H 277.434 -1.36884 2.16093 0
M  V30 2832 H 277.078 -2.94551 4.13766 0
M  V30 2833 H 277.008 -4.32186 3.0087 0
M  V30 2834 H 279.499 -2.85314 2.47799 0
M  V30 2835 H 279.812 -5.40549 5.52292 0
M  V30 2836 H 278.157 -4.86627 4.96205 0
M  V30 2837 H 281.348 -3.47833 3.13257 0
M  V30 2838 H 281.521 -4.64238 4.52092 0
M  V30 2839 N 274.927 -0.932562 -1.27047 0
M  V30 2840 C 275.837 -0.441219 -2.30414 0
M  V30 2841 C 276.853 0.480525 -1.67233 0
M  V30 2842 O 278.029 0.362151 -1.98117 0
M  V30 2843 C 275.094 0.293651 -3.45454 0
M  V30 2844 C 274.155 -0.663601 -4.2414 0
M  V30 2845 C 273.388 0.0362932 -5.33688 0
M  V30 2846 O 273.611 1.2548 -5.56427 0
M  V30 2847 O 272.545 -0.638015 -5.98509 0
M  V30 2848 H 276.371 -1.29962 -2.74488 0
M  V30 2849 H 273.956 -0.6981 -1.32087 0
M  V30 2850 H 275.838 0.707951 -4.15411 0
M  V30 2851 H 274.513 1.12758 -3.03426 0
M  V30 2852 H 273.42 -1.12768 -3.56699 0
M  V30 2853 H 274.753 -1.46489 -4.69896 0
M  V30 2854 N 276.405 1.4127 -0.698611 0
M  V30 2855 C 277.653 2.00782 -0.230409 0
M  V30 2856 C 277.974 1.5562 1.17505 0
M  V30 2857 O 277.244 0.78815 1.79346 0
M  V30 2858 H 275.824 0.742464 -0.0821944 0
M  V30 2859 H 278.486 1.72852 -0.90045 0
M  V30 2860 H 277.582 3.11095 -0.25021 0
M  V30 2861 N 277.883 0.443576 1.51229 0
M  V30 2862 C 279.16 -0.181038 1.9476 0
M  V30 2863 C 279.54 -1.59523 1.38259 0
M  V30 2864 O 278.888 -2.2122 0.572198 0
M  V30 2865 C 279.098 -0.152422 3.48667 0
M  V30 2866 C 280.446 -0.354923 4.23114 0
M  V30 2867 O 281.47 -0.230257 3.55455 0
M  V30 2868 O 280.329 -0.603674 5.43156 0
M  V30 2869 H 277.423 -0.1266 0.817252 0
M  V30 2870 H 279.969 0.502004 1.62105 0
M  V30 2871 H 278.741 0.836022 3.82265 0
M  V30 2872 H 278.364 -0.878107 3.87782 0
M  V30 2873 N 279.361 -1.56624 0.175154 0
M  V30 2874 C 280.609 -1.96609 -0.467885 0
M  V30 2875 C 280.93 -1.06238 -1.63519 0
M  V30 2876 O 280.2 -0.129523 -1.95471 0
M  V30 2877 H 278.78 -0.726008 -0.175845 0
M  V30 2878 H 281.442 -1.93195 0.257234 0
M  V30 2879 H 280.538 -3.00989 -0.825342 0
M  V30 2880 N 280.839 0.0985539 -1.57292 0
M  V30 2881 C 282.25 0.653457 -1.74891 0
M  V30 2882 C 282.601 1.7929 -0.796838 0
M  V30 2883 O 281.726 2.16385 0.0254886 0
M  V30 2884 C 282.321 1.19216 -3.17133 0
M  V30 2885 C 280.88 1.69316 -3.36168 0
M  V30 2886 C 280.027 0.601294 -2.70702 0
M  V30 2887 H 282.978 -0.127497 -1.58187 0
M  V30 2888 H 282.999 2.06154 -3.19814 0
M  V30 2889 H 282.511 0.362635 -3.86402 0
M  V30 2890 H 280.612 2.5468 -2.71972 0
M  V30 2891 H 280.725 1.78853 -4.44464 0
M  V30 2892 H 279.089 1.0399 -2.32504 0
M  V30 2893 H 279.872 -0.217592 -3.4261 0
M  V30 2894 N 282.317 1.53212 0.369288 0
M  V30 2895 C 283.594 1.59815 1.12776 0
M  V30 2896 C 283.974 0.403402 2.0721 0
M  V30 2897 O 283.322 -0.606667 2.20299 0
M  V30 2898 C 283.532 2.94664 1.87013 0
M  V30 2899 C 284.88 3.49109 2.41677 0
M  V30 2900 O 285.904 2.96669 1.97144 0
M  V30 2901 O 284.763 4.40775 3.23079 0
M  V30 2902 H 281.857 0.645376 0.517125 0
M  V30 2903 H 284.403 1.65553 0.37285 0
M  V30 2904 H 283.175 3.73061 1.18071 0
M  V30 2905 H 282.798 2.92401 2.69421 0
M  V30 2906 N 283.795 -0.628877 1.44509 0
M  V30 2907 C 285.043 -1.38565 1.4712 0
M  V30 2908 C 285.364 -1.94712 0.105899 0
M  V30 2909 O 284.634 -1.75912 -0.862079 0
M  V30 2910 H 283.214 -0.514333 0.541729 0
M  V30 2911 H 285.876 -0.740018 1.80305 0
M  V30 2912 H 284.972 -2.21583 2.19789 0
M  V30 2913 N 285.273 -1.31445 -0.869486 0
M  V30 2914 C 286.684 -1.19042 -1.43826 0
M  V30 2915 C 287.035 0.202919 -1.95148 0
M  V30 2916 O 286.16 1.10071 -1.86315 0
M  V30 2917 C 286.755 -2.15499 -2.6143 0
M  V30 2918 C 285.314 -2.07028 -3.14351 0
M  V30 2919 C 284.461 -2.04701 -1.87063 0
M  V30 2920 H 287.412 -1.43489 -0.677984 0
M  V30 2921 H 287.433 -1.74488 -3.38134 0
M  V30 2922 H 286.945 -3.16899 -2.24046 0
M  V30 2923 H 285.046 -1.08825 -3.56354 0
M  V30 2924 H 285.159 -2.96157 -3.766 0
M  V30 2925 H 283.523 -1.49724 -2.06046 0
M  V30 2926 H 284.306 -3.07857 -1.51917 0
M  V30 2927 N 286.751 1.08385 -1.14413 0
M  V30 2928 C 287.714 2.13486 -0.834048 0
M  V30 2929 C 288.714 1.59988 0.161418 0
M  V30 2930 O 289.904 1.74071 -0.0669575 0
M  V30 2931 C 287.036 3.4003 -0.243354 0
M  V30 2932 H 288.229 2.42425 -1.7655 0
M  V30 2933 H 285.782 1.24101 -0.950189 0
M  V30 2934 H 286.517 3.16726 0.696807 0
M  V30 2935 H 286.302 3.80157 -0.960367 0
M  V30 2936 H 287.792 4.17577 -0.0436242 0
M  V30 2937 N 288.23 0.939286 1.26551 0
M  V30 2938 C 289.507 0.5038 1.89001 0
M  V30 2939 C 289.887 -1.01854 1.84903 0
M  V30 2940 O 289.235 -1.87773 1.30206 0
M  V30 2941 C 289.445 1.063 3.32417 0
M  V30 2942 C 290.793 1.13051 4.09273 0
M  V30 2943 O 291.817 1.01345 3.41479 0
M  V30 2944 O 290.676 1.31233 5.30509 0
M  V30 2945 H 287.77 0.163897 0.810597 0
M  V30 2946 H 290.316 1.03173 1.34735 0
M  V30 2947 H 289.088 2.10665 3.29752 0
M  V30 2948 H 288.711 0.517408 3.94219 0
M  V30 2949 N 289.708 -1.40897 0.706093 0
M  V30 2950 C 290.985 -1.94868 0.169099 0
M  V30 2951 C 291.365 -1.64485 -1.32318 0
M  V30 2952 O 290.713 -0.95744 -2.07474 0
M  V30 2953 C 290.923 -3.45798 0.471654 0
M  V30 2954 C 292.271 -4.22663 0.405127 0
M  V30 2955 O 293.295 -3.53865 0.407168 0
M  V30 2956 O 292.154 -5.45216 0.374383 0
M  V30 2957 H 289.248 -0.82673 0.0211352 0
M  V30 2958 H 291.794 -1.50558 0.782976 0
M  V30 2959 H 290.566 -3.61235 1.50416 0
M  V30 2960 H 290.189 -3.97225 -0.172666 0
M  V30 2961 N 291.186 -0.45159 -1.50991 0
M  V30 2962 C 292.434 0.109857 -2.01801 0
M  V30 2963 C 292.755 1.41958 -1.3369 0
M  V30 2964 O 292.025 1.9003 -0.475951 0
M  V30 2965 H 290.605 0.0435884 -0.745727 0
M  V30 2966 H 293.267 -0.597557 -1.85514 0
M  V30 2967 H 292.363 0.275489 -3.10882 0
M  V30 2968 N 292.664 1.56529 -0.183458 0
M  V30 2969 C 293.627 2.17324 0.728223 0
M  V30 2970 C 294.627 1.12453 1.14939 0
M  V30 2971 O 295.817 1.37902 1.06437 0
M  V30 2972 C 292.949 2.76591 1.99274 0
M  V30 2973 H 294.142 2.99241 0.198772 0
M  V30 2974 H 291.695 1.5616 0.0661391 0
M  V30 2975 H 292.43 1.98441 2.56499 0
M  V30 2976 H 292.215 3.5335 1.69959 0
M  V30 2977 H 293.705 3.23311 2.6431 0
M  V30 2978 N 294.142 -0.090211 1.57342 0
M  V30 2979 C 295.39 -0.791241 1.85967 0
M  V30 2980 C 295.711 -1.7903 0.772859 0
M  V30 2981 O 294.981 -1.94872 -0.200398 0
M  V30 2982 H 293.561 -0.295205 0.686195 0
M  V30 2983 H 296.223 -0.0706782 1.94772 0
M  V30 2984 H 295.319 -1.31882 2.82867 0
M  V30 2985 N 295.62 -1.53406 -0.361157 0
M  V30 2986 C 296.583 -1.79479 -1.42548 0
M  V30 2987 C 297.583 -0.665327 -1.4639 0
M  V30 2988 O 298.773 -0.933549 -1.47073 0
M  V30 2989 C 295.905 -1.92087 -2.8163 0
M  V30 2990 H 297.098 -2.74538 -1.20701 0
M  V30 2991 H 294.651 -1.4455 -0.594546 0
M  V30 2992 H 295.386 -0.991099 -3.08784 0
M  V30 2993 H 295.171 -2.74241 -2.80239 0
M  V30 2994 H 296.661 -2.13836 -3.58697 0
M  V30 2995 N 297.098 0.621204 -1.44841 0
M  V30 2996 C 298.03 1.74615 -1.48466 0
M  V30 2997 C 299.043 1.58377 -0.37691 0
M  V30 2998 O 300.232 1.66508 -0.643215 0
M  V30 2999 C 297.332 3.12459 -1.31236 0
M  V30 3000 C 296.505 3.55064 -2.55438 0
M  V30 3001 C 295.564 4.71821 -2.32963 0
M  V30 3002 O 294.59 4.79628 -3.06505 0
M  V30 3003 N 295.792 5.64186 -1.36654 0
M  V30 3004 H 298.557 1.71973 -2.45449 0
M  V30 3005 H 296.118 0.806077 -1.40407 0
M  V30 3006 H 298.11 3.88302 -1.14032 0
M  V30 3007 H 296.68 3.09686 -0.4258 0
M  V30 3008 H 295.9 2.69324 -2.87851 0
M  V30 3009 H 297.188 3.80284 -3.38026 0
M  V30 3010 H 296.586 5.6058 -0.759344 0
M  V30 3011 H 295.143 6.39618 -1.25425 0
M  V30 3012 N 298.576 1.31904 0.862503 0
M  V30 3013 C 299.539 1.20131 1.95195 0
M  V30 3014 C 300.539 0.126409 1.60302 0
M  V30 3015 O 301.729 0.376234 1.70089 0
M  V30 3016 C 298.861 0.845691 3.30244 0
M  V30 3017 H 300.054 2.16943 2.07064 0
M  V30 3018 H 297.607 1.15622 1.05172 0
M  V30 3019 H 298.342 -0.120957 3.24074 0
M  V30 3020 H 298.127 1.62276 3.56944 0
M  V30 3021 H 299.617 0.787418 4.10109 0
M  V30 3022 N 300.054 -1.07777 1.14986 0
M  V30 3023 C 301.331 -1.7699 0.832695 0
M  V30 3024 C 301.711 -2.001 -0.672561 0
M  V30 3025 O 301.059 -1.61598 -1.6155 0
M  V30 3026 C 301.269 -3.08139 1.63863 0
M  V30 3027 C 302.617 -3.8256 1.84208 0
M  V30 3028 O 303.641 -3.17939 1.60603 0
M  V30 3029 O 302.5 -4.98612 2.23714 0
M  V30 3030 H 299.594 -0.768389 0.305791 0
M  V30 3031 H 302.14 -1.14182 1.25541 0
M  V30 3032 H 300.912 -2.86909 2.6608 0
M  V30 3033 H 300.535 -3.78678 1.21197 0
M  V30 3034 N 301.532 -0.945985 -1.26051 0
M  V30 3035 C 302.462 -0.477172 -2.28572 0
M  V30 3036 C 303.443 0.472032 -1.63419 0
M  V30 3037 O 304.628 0.372853 -1.90587 0
M  V30 3038 C 301.758 0.253975 -3.4637 0
M  V30 3039 C 300.712 -0.609135 -4.23643 0
M  V30 3040 C 300.038 0.252252 -5.34105 0
M  V30 3041 C 301.338 -1.8829 -4.8718 0
M  V30 3042 H 303.032 -1.33402 -2.68038 0
M  V30 3043 H 300.578 -0.642904 -1.28852 0
M  V30 3044 H 302.531 0.593016 -4.17207 0
M  V30 3045 H 301.255 1.145 -3.05871 0
M  V30 3046 H 299.914 -0.931138 -3.54578 0
M  V30 3047 H 299.562 1.14278 -4.89846 0
M  V30 3048 H 299.262 -0.32188 -5.86718 0
M  V30 3049 H 300.786 0.586454 -6.07777 0
M  V30 3050 H 302.2 -1.61081 -5.50205 0
M  V30 3051 H 300.597 -2.40199 -5.49931 0
M  V30 3052 H 301.667 -2.59134 -4.09851 0
M  V30 3053 N 303.011 1.40521 -0.713556 0
M  V30 3054 C 303.921 2.34522 -0.0606667 0
M  V30 3055 C 304.937 1.57193 0.74607 0
M  V30 3056 O 306.113 1.89591 0.679493 0
M  V30 3057 C 303.178 3.36081 0.851491 0
M  V30 3058 C 302.239 4.29286 0.0349339 0
M  V30 3059 C 301.472 5.25994 0.903649 0
M  V30 3060 O 301.695 5.28616 2.14292 0
M  V30 3061 O 300.629 6.00918 0.343723 0
M  V30 3062 H 304.455 2.91968 -0.835972 0
M  V30 3063 H 302.04 1.41681 -0.47402 0
M  V30 3064 H 303.922 3.98369 1.37404 0
M  V30 3065 H 302.597 2.81052 1.60598 0
M  V30 3066 H 301.504 3.70289 -0.532633 0
M  V30 3067 H 302.837 4.87462 -0.681287 0
M  V30 3068 N 304.489 0.459591 1.5075 0
M  V30 3069 C 305.439 -0.358926 2.25157 0
M  V30 3070 C 306.423 -0.971285 1.28276 0
M  V30 3071 O 307.615 -0.885739 1.53244 0
M  V30 3072 C 304.744 -1.44695 3.11317 0
M  V30 3073 C 303.83 -0.842894 4.15639 0
M  V30 3074 N 304.221 0.0299373 5.05791 0
M  V30 3075 C 302.519 -1.10809 4.32015 0
M  V30 3076 C 303.22 0.371563 5.80512 0
M  V30 3077 N 302.196 -0.250409 5.43023 0
M  V30 3078 H 305.998 0.313636 2.92222 0
M  V30 3079 H 303.512 0.273021 1.60089 0
M  V30 3080 H 305.509 -2.04641 3.63218 0
M  V30 3081 H 304.169 -2.12162 2.45799 0
M  V30 3082 H 305.18 0.39797 5.16369 0
M  V30 3083 H 301.857 -1.7786 3.77719 0
M  V30 3084 H 303.247 1.08319 6.63111 0
M  V30 3085 N 305.967 -1.56429 0.191757 0
M  V30 3086 C 307.192 -2.02309 -0.456706 0
M  V30 3087 C 307.617 -1.07103 -1.5463 0
M  V30 3088 O 306.975 -0.0539677 -1.8122 0
M  V30 3089 C 307.023 -3.46654 -0.993159 0
M  V30 3090 O 306.127 -3.54559 -2.10622 0
M  V30 3091 H 305.468 -0.655303 -0.107114 0
M  V30 3092 H 307.998 -2.02364 0.301653 0
M  V30 3093 H 308.008 -3.86377 -1.31061 0
M  V30 3094 H 306.683 -4.1544 -0.195504 0
M  V30 3095 H 305.26 -3.26708 -1.79767 0
M  V30 3096 N 307.445 0.0818655 -1.57387 0
M  V30 3097 C 308.375 1.09885 -2.06028 0
M  V30 3098 C 309.356 1.4098 -0.951774 0
M  V30 3099 O 310.541 1.50781 -1.22387 0
M  V30 3100 C 307.671 2.4151 -2.4958 0
M  V30 3101 C 306.625 2.24792 -3.64215 0
M  V30 3102 C 305.951 3.61712 -3.93787 0
M  V30 3103 C 307.251 1.67749 -4.94629 0
M  V30 3104 H 308.945 0.694128 -2.91243 0
M  V30 3105 H 306.491 0.332448 -1.4011 0
M  V30 3106 H 308.444 3.12939 -2.82219 0
M  V30 3107 H 307.168 2.83943 -1.61381 0
M  V30 3108 H 305.827 1.55807 -3.31843 0
M  V30 3109 H 305.475 4.01697 -3.02735 0
M  V30 3110 H 305.175 3.51368 -4.70971 0
M  V30 3111 H 306.699 4.34587 -4.28913 0
M  V30 3112 H 308.113 2.29032 -5.25564 0
M  V30 3113 H 306.51 1.68128 -5.76067 0
M  V30 3114 H 307.58 0.638059 -4.80684 0
M  V30 3115 N 308.923 1.53595 0.353017 0
M  V30 3116 C 309.853 1.83902 1.43883 0
M  V30 3117 C 310.834 0.693421 1.55324 0
M  V30 3118 O 312.019 0.944452 1.69687 0
M  V30 3119 C 309.149 2.04016 2.8106 0
M  V30 3120 C 308.103 3.19814 2.84434 0
M  V30 3121 C 307.429 3.25244 4.24406 0
M  V30 3122 C 308.729 4.58133 2.50822 0
M  V30 3123 H 310.423 2.74835 1.1877 0
M  V30 3124 H 307.969 1.32242 0.569917 0
M  V30 3125 H 309.922 2.238 3.57059 0
M  V30 3126 H 308.646 1.09804 3.07588 0
M  V30 3127 H 307.305 2.9987 2.10887 0
M  V30 3128 H 306.953 2.28646 4.48029 0
M  V30 3129 H 306.653 4.03054 4.27576 0
M  V30 3130 H 308.177 3.47228 5.0226 0
M  V30 3131 H 309.591 4.77995 3.16534 0
M  V30 3132 H 307.988 5.38276 2.6529 0
M  V30 3133 H 309.058 4.62387 1.46034 0
M  V30 3134 N 310.401 -0.613514 1.45168 0
M  V30 3135 C 311.647 -1.37471 1.49096 0
M  V30 3136 C 311.98 -1.93765 0.129901 0
M  V30 3137 O 311.255 -1.74707 -0.854858 0
M  V30 3138 C 311.538 -2.52701 2.56542 0
M  V30 3139 C 311.391 -2.01643 4.0207 0
M  V30 3140 C 312.71 -3.54849 2.60327 0
M  V30 3141 H 309.829 -0.498502 0.54283 0
M  V30 3142 H 312.471 -0.692125 1.76945 0
M  V30 3143 H 310.621 -3.10931 2.32926 0
M  V30 3144 H 312.293 -1.48108 4.36877 0
M  V30 3145 H 310.536 -1.32688 4.13009 0
M  V30 3146 H 311.207 -2.84681 4.72928 0
M  V30 3147 H 313.683 -3.0645 2.81474 0
M  V30 3148 H 312.559 -4.32973 3.37381 0
M  V30 3149 H 312.82 -4.10079 1.6519 0
M  V30 3150 N 311.879 -1.3236 -0.855495 0
M  V30 3151 C 312.842 -1.21164 -1.94556 0
M  V30 3152 C 313.842 -0.134908 -1.60233 0
M  V30 3153 O 315.032 -0.385249 -1.69887 0
M  V30 3154 C 312.164 -0.863192 -3.29791 0
M  V30 3155 H 313.357 -2.18038 -2.05911 0
M  V30 3156 H 310.91 -1.16179 -1.04557 0
M  V30 3157 H 311.645 0.103769 -3.24134 0
M  V30 3158 H 311.43 -1.64166 -3.56078 0
M  V30 3159 H 312.92 -0.809156 -4.09686 0
M  V30 3160 N 313.357 1.07166 -1.15556 0
M  V30 3161 C 314.32 2.12589 -0.856644 0
M  V30 3162 C 315.32 1.6015 0.14444 0
M  V30 3163 O 316.51 1.7399 -0.0854163 0
M  V30 3164 C 313.642 3.39753 -0.279405 0
M  V30 3165 H 314.835 2.40539 -1.79112 0
M  V30 3166 H 312.388 1.23086 -0.963298 0
M  V30 3167 H 313.123 3.17447 0.663174 0
M  V30 3168 H 312.908 3.79117 -1.00063 0
M  V30 3169 H 314.398 4.17507 -0.0879113 0
M  V30 3170 N 314.835 0.952656 1.25548 0
M  V30 3171 C 315.745 0.47782 2.29682 0
M  V30 3172 C 316.761 -0.453859 1.67977 0
M  V30 3173 O 317.937 -0.330587 1.98668 0
M  V30 3174 C 315.002 -0.238655 3.45878 0
M  V30 3175 C 314.063 0.730994 4.23031 0
M  V30 3176 C 313.296 0.0486165 5.33678 0
M  V30 3177 O 313.519 -1.16612 5.58353 0
M  V30 3178 O 312.453 0.733152 5.97418 0
M  V30 3179 H 316.279 1.34312 2.72386 0
M  V30 3180 H 313.864 0.719026 1.30959 0
M  V30 3181 H 315.746 -0.641774 4.16484 0
M  V30 3182 H 314.421 -1.07916 3.05181 0
M  V30 3183 H 313.328 1.18428 3.5486 0
M  V30 3184 H 314.661 1.53946 4.67506 0
M  V30 3185 N 316.313 -1.40141 0.720998 0
M  V30 3186 C 317.26 -2.30688 0.071919 0
M  V30 3187 C 318.23 -1.48476 -0.744584 0
M  V30 3188 O 319.415 -1.77201 -0.707423 0
M  V30 3189 C 316.555 -3.34724 -0.839855 0
M  V30 3190 C 315.668 -4.31998 -0.0122438 0
M  V30 3191 C 314.803 -5.23102 -0.923995 0
M  V30 3192 C 313.842 -6.12033 -0.0907969 0
M  V30 3193 N 312.979 -6.95537 -0.957718 0
M  V30 3194 H 317.819 -2.85628 0.849755 0
M  V30 3195 H 315.356 -1.40653 0.430726 0
M  V30 3196 H 317.314 -3.93618 -1.38279 0
M  V30 3197 H 315.944 -2.81274 -1.58381 0
M  V30 3198 H 314.996 -3.74841 0.64794 0
M  V30 3199 H 316.308 -4.94772 0.632595 0
M  V30 3200 H 315.462 -5.86953 -1.53527 0
M  V30 3201 H 314.201 -4.60615 -1.60264 0
M  V30 3202 H 313.206 -5.47207 0.533377 0
M  V30 3203 H 314.431 -6.76581 0.584428 0
M  V30 3204 H 312.377 -6.35633 -1.62192 0
M  V30 3205 H 312.294 -7.55099 -0.36904 0
M  V30 3206 H 313.562 -7.63832 -1.555 0
M  V30 3207 N 317.792 -0.46758 -1.50504 0
M  V30 3208 C 318.739 0.328413 -2.28452 0
M  V30 3209 C 319.709 0.990313 -1.33349 0
M  V30 3210 O 320.894 1.00343 -1.62284 0
M  V30 3211 C 318.034 1.40648 -3.15138 0
M  V30 3212 C 317.147 0.759709 -4.25267 0
M  V30 3213 C 316.282 1.81537 -4.99217 0
M  V30 3214 C 315.321 1.14866 -6.01226 0
M  V30 3215 N 314.458 2.14702 -6.68467 0
M  V30 3216 H 319.298 -0.342603 -2.96024 0
M  V30 3217 H 316.835 -0.180801 -1.45985 0
M  V30 3218 H 318.793 2.04315 -3.63746 0
M  V30 3219 H 317.423 2.04671 -2.49619 0
M  V30 3220 H 316.475 0.0105671 -3.80399 0
M  V30 3221 H 317.787 0.233243 -4.98254 0
M  V30 3222 H 316.941 2.52793 -5.51526 0
M  V30 3223 H 315.68 2.37564 -4.25928 0
M  V30 3224 H 314.685 0.42171 -5.4818 0
M  V30 3225 H 315.91 0.595334 -6.76485 0
M  V30 3226 H 313.856 2.69752 -5.97972 0
M  V30 3227 H 313.773 1.6703 -7.37317 0
M  V30 3228 H 315.041 2.85348 -7.25394 0
M  V30 3229 N 319.27 1.56325 -0.20005 0
M  V30 3230 C 320.547 1.89484 0.48529 0
M  V30 3231 C 320.927 1.1143 1.79294 0
M  V30 3232 O 320.275 0.216919 2.27468 0
M  V30 3233 C 320.485 3.41923 0.699243 0
M  V30 3234 C 321.833 4.12256 1.01638 0
M  V30 3235 O 322.857 3.47402 0.786792 0
M  V30 3236 O 321.716 5.26887 1.45095 0
M  V30 3237 H 318.81 0.787144 0.253639 0
M  V30 3238 H 321.356 1.67985 -0.240633 0
M  V30 3239 H 320.128 3.90658 -0.224008 0
M  V30 3240 H 319.751 3.69131 1.47744 0
M  V30 3241 N 320.748 -0.0735177 1.57428 0
M  V30 3242 C 321.658 -1.10547 2.06922 0
M  V30 3243 C 322.674 -1.42506 0.998402 0
M  V30 3244 O 323.85 -1.52717 1.31299 0
M  V30 3245 C 320.915 -2.40019 2.50184 0
M  V30 3246 C 319.976 -2.15046 3.71556 0
M  V30 3247 C 319.209 -3.38345 4.12745 0
M  V30 3248 O 319.432 -4.47399 3.53822 0
M  V30 3249 O 318.366 -3.2666 5.05546 0
M  V30 3250 H 322.192 -0.715013 2.95163 0
M  V30 3251 H 319.777 -0.287531 1.46607 0
M  V30 3252 H 321.659 -3.16218 2.78539 0
M  V30 3253 H 320.334 -2.78447 1.65072 0
M  V30 3254 H 319.241 -1.36558 3.48285 0
M  V30 3255 H 320.574 -1.81499 4.57514 0
M  V30 3256 N 322.226 -1.5378 -0.344866 0
M  V30 3257 C 323.474 -1.70625 -1.08311 0
M  V30 3258 C 323.795 -0.471447 -1.89215 0
M  V30 3259 O 323.065 0.514616 -1.8902 0
M  V30 3260 H 321.645 -0.629058 -0.402859 0
M  V30 3261 H 324.307 -1.9103 -0.386459 0
M  V30 3262 H 323.403 -2.57656 -1.76124 0
M  V30 3263 N 323.704 0.605807 -1.45491 0
M  V30 3264 C 325.115 1.18777 -1.44045 0
M  V30 3265 C 325.466 1.95471 -0.169001 0
M  V30 3266 O 324.591 2.0374 0.729324 0
M  V30 3267 C 325.186 2.16064 -2.60963 0
M  V30 3268 C 323.745 2.69633 -2.62631 0
M  V30 3269 C 322.892 1.45072 -2.36325 0
M  V30 3270 H 325.843 0.395017 -1.53705 0
M  V30 3271 H 325.864 2.9913 -2.35163 0
M  V30 3272 H 325.376 1.60217 -3.53486 0
M  V30 3273 H 323.477 3.29414 -1.74119 0
M  V30 3274 H 323.59 3.13944 -3.61906 0
M  V30 3275 H 321.954 1.74089 -1.85917 0
M  V30 3276 H 322.737 0.910899 -3.30995 0
M  V30 3277 N 325.182 1.32811 0.848464 0
M  V30 3278 C 326.412 1.26556 1.63301 0
M  V30 3279 C 326.82 -0.1676 1.88456 0
M  V30 3280 O 326.163 -1.11713 1.45828 0
M  V30 3281 C 326.225 1.96202 3.01239 0
M  V30 3282 C 325.889 3.45528 2.99098 0
M  V30 3283 C 326.886 4.40903 2.75501 0
M  V30 3284 C 324.571 3.87558 3.19537 0
M  V30 3285 C 326.565 5.76282 2.72356 0
M  V30 3286 C 324.252 5.23044 3.16019 0
M  V30 3287 C 325.25 6.17217 2.92458 0
M  V30 3288 O 324.938 7.50223 2.88825 0
M  V30 3289 H 324.67 0.43771 0.515156 0
M  V30 3290 H 327.224 1.7559 1.0657 0
M  V30 3291 H 325.454 1.41746 3.59785 0
M  V30 3292 H 327.143 1.83573 3.62016 0
M  V30 3293 H 327.909 4.09756 2.5947 0
M  V30 3294 H 323.788 3.14674 3.369 0
M  V30 3295 H 327.332 6.4976 2.53886 0
M  V30 3296 H 323.229 5.53818 3.31596 0
M  V30 3297 H 323.997 7.59657 3.04735 0
M  V30 3298 N 326.66 -1.06551 1.16123 0
M  V30 3299 C 328.076 -1.3142 0.905585 0
M  V30 3300 C 328.276 -1.96571 -0.442964 0
M  V30 3301 O 327.332 -2.23068 -1.18308 0
M  V30 3302 C 328.645 -2.19741 2.05267 0
M  V30 3303 C 330.193 -2.33165 2.08813 0
M  V30 3304 C 330.668 -3.24838 3.22868 0
M  V30 3305 N 332.159 -3.32421 3.22568 0
M  V30 3306 C 332.894 -4.0344 4.0746 0
M  V30 3307 N 332.39 -4.77003 5.02434 0
M  V30 3308 N 334.183 -3.99464 3.95456 0
M  V30 3309 H 326.334 -0.626548 2.02949 0
M  V30 3310 H 328.597 -0.338777 0.8854 0
M  V30 3311 H 328.303 -1.79142 3.02657 0
M  V30 3312 H 328.177 -3.20313 1.99198 0
M  V30 3313 H 330.564 -2.73013 1.12018 0
M  V30 3314 H 330.645 -1.3227 2.18948 0
M  V30 3315 H 330.289 -2.85708 4.19921 0
M  V30 3316 H 330.219 -4.25707 3.0997 0
M  V30 3317 H 332.71 -2.79994 2.53795 0
M  V30 3318 H 333.023 -5.28712 5.63634 0
M  V30 3319 H 331.368 -4.75992 5.06415 0
M  V30 3320 H 334.559 -3.4111 3.20564 0
M  V30 3321 H 334.732 -4.54544 4.61837 0
M  V30 3322 N 328.138 -0.959301 -1.25041 0
M  V30 3323 C 329.071 -0.427418 -2.24161 0
M  V30 3324 C 330.049 0.493837 -1.54919 0
M  V30 3325 O 331.233 0.427144 -1.83597 0
M  V30 3326 C 328.36 0.383893 -3.36517 0
M  V30 3327 C 327.406 -0.478431 -4.23808 0
M  V30 3328 S 328.239 -1.91353 -5.00144 0
M  V30 3329 C 329.395 -1.11077 -6.15965 0
M  V30 3330 H 329.628 -1.26743 -2.6893 0
M  V30 3331 H 327.161 -0.763714 -1.34189 0
M  V30 3332 H 329.119 0.846039 -4.01687 0
M  V30 3333 H 327.78 1.19878 -2.90324 0
M  V30 3334 H 326.973 0.14406 -5.03794 0
M  V30 3335 H 326.575 -0.87597 -3.63597 0
M  V30 3336 H 328.867 -0.361699 -6.76534 0
M  V30 3337 H 329.81 -1.88472 -6.82557 0
M  V30 3338 H 330.218 -0.638843 -5.60873 0
M  V30 3339 N 329.616 1.39756 -0.72842 0
M  V30 3340 C 330.526 2.34444 -0.0855374 0
M  V30 3341 C 331.542 1.57976 0.729356 0
M  V30 3342 O 332.718 1.90301 0.659346 0
M  V30 3343 C 329.783 3.36965 0.815798 0
M  V30 3344 C 328.844 4.29299 -0.0105996 0
M  V30 3345 C 328.077 5.26923 0.84781 0
M  V30 3346 O 328.3 5.30859 2.08673 0
M  V30 3347 O 327.234 6.01249 0.279969 0
M  V30 3348 H 331.06 2.91065 -0.866892 0
M  V30 3349 H 328.645 1.4117 -0.48902 0
M  V30 3350 H 330.527 3.99804 1.33171 0
M  V30 3351 H 329.202 2.82739 1.57608 0
M  V30 3352 H 328.109 3.69703 -0.571877 0
M  V30 3353 H 329.442 4.86712 -0.73295 0
M  V30 3354 N 331.094 0.475555 1.50254 0
M  V30 3355 C 332.044 -0.335025 2.25525 0
M  V30 3356 C 333.028 -0.957625 1.29299 0
M  V30 3357 O 334.22 -0.869436 1.54175 0
M  V30 3358 C 331.349 -1.41385 3.12834 0
M  V30 3359 C 330.435 -0.798762 4.1651 0
M  V30 3360 N 330.826 0.0835815 5.05731 0
M  V30 3361 C 329.124 -1.06221 4.33166 0
M  V30 3362 C 329.825 0.433113 5.80085 0
M  V30 3363 N 328.801 -0.1928 5.43258 0
M  V30 3364 H 332.603 0.344612 2.91873 0
M  V30 3365 H 330.117 0.289986 1.5979 0
M  V30 3366 H 332.114 -2.00777 3.65368 0
M  V30 3367 H 330.774 -2.09543 2.48036 0
M  V30 3368 H 331.785 0.452715 5.15918 0
M  V30 3369 H 328.462 -1.73844 3.79585 0
M  V30 3370 H 329.852 1.15346 6.61925 0
M  V30 3371 N 332.573 -1.56217 0.208337 0
M  V30 3372 C 333.82 -1.97949 -0.42692 0
M  V30 3373 C 334.148 -1.09562 -1.60706 0
M  V30 3374 O 333.403 -0.137616 -1.95216 0
M  V30 3375 C 333.702 -3.45441 -0.916797 0
M  V30 3376 C 333.368 -4.50646 0.151391 0
M  V30 3377 C 332.03 -4.79139 0.444867 0
M  V30 3378 C 334.382 -5.13811 0.874492 0
M  V30 3379 C 331.71 -5.68084 1.46619 0
M  V30 3380 C 334.062 -6.03861 1.88506 0
M  V30 3381 C 332.726 -6.30704 2.18559 0
M  V30 3382 H 331.996 -0.724345 -0.156221 0
M  V30 3383 H 334.643 -1.89006 0.308084 0
M  V30 3384 H 332.948 -3.51521 -1.73032 0
M  V30 3385 H 334.645 -3.75094 -1.41794 0
M  V30 3386 H 331.235 -4.28511 -0.0875068 0
M  V30 3387 H 335.419 -4.91879 0.660996 0
M  V30 3388 H 330.675 -5.87151 1.7048 0
M  V30 3389 H 334.849 -6.51861 2.45051 0
M  V30 3390 H 332.476 -6.99424 2.97843 0
M  V30 3391 N 334.051 0.0651679 -1.57465 0
M  V30 3392 C 335.467 0.420105 -1.53972 0
M  V30 3393 C 335.667 1.78782 -0.929474 0
M  V30 3394 O 334.723 2.46771 -0.534839 0
M  V30 3395 C 336.036 0.355084 -2.98596 0
M  V30 3396 C 337.584 0.434792 -3.09965 0
M  V30 3397 C 338.059 0.399609 -4.56253 0
M  V30 3398 N 339.55 0.459488 -4.60915 0
M  V30 3399 C 340.285 0.454584 -5.71595 0
M  V30 3400 N 339.781 0.404102 -6.9162 0
M  V30 3401 N 341.574 0.501635 -5.59857 0
M  V30 3402 H 333.725 -0.830328 -1.95498 0
M  V30 3403 H 335.988 -0.312244 -0.895102 0
M  V30 3404 H 335.694 -0.583357 -3.46828 0
M  V30 3405 H 335.568 1.16275 -3.58831 0
M  V30 3406 H 337.955 1.36366 -2.61703 0
M  V30 3407 H 338.036 -0.40157 -2.52628 0
M  V30 3408 H 337.68 -0.525436 -5.05175 0
M  V30 3409 H 337.61 1.25359 -5.11461 0
M  V30 3410 H 340.101 0.502482 -3.74544 0
M  V30 3411 H 340.414 0.404468 -7.71741 0
M  V30 3412 H 338.759 0.37069 -6.94011 0
M  V30 3413 H 341.95 0.538812 -4.64989 0
M  V30 3414 H 342.123 0.494345 -6.46112 0
M  V30 3415 N 335.529 1.53961 0.336706 0
M  V30 3416 C 336.775 1.7273 1.07406 0
M  V30 3417 C 337.13 0.488095 1.86106 0
M  V30 3418 O 336.423 -0.519379 1.84426 0
M  V30 3419 C 336.617 2.93493 2.03953 0
M  V30 3420 C 336.446 4.29039 1.34744 0
M  V30 3421 C 335.216 4.93416 1.08942 0
M  V30 3422 C 337.414 5.08501 0.770115 0
M  V30 3423 N 335.396 6.12821 0.363864 0
M  V30 3424 C 336.767 6.19752 0.175472 0
M  V30 3425 C 338.822 4.93349 0.671633 0
M  V30 3426 C 337.525 7.17503 -0.508081 0
M  V30 3427 C 339.551 5.914 0.0018076 0
M  V30 3428 C 338.913 7.01993 -0.581835 0
M  V30 3429 H 335.012 0.685026 0.377177 0
M  V30 3430 H 337.596 1.91403 0.356815 0
M  V30 3431 H 335.767 2.76308 2.72962 0
M  V30 3432 H 337.499 3.00949 2.70577 0
M  V30 3433 H 334.254 4.53099 1.37833 0
M  V30 3434 H 334.678 6.76998 0.0156092 0
M  V30 3435 H 339.32 4.08007 1.1086 0
M  V30 3436 H 337.038 8.02414 -0.956918 0
M  V30 3437 H 340.624 5.81753 -0.0738538 0
M  V30 3438 H 339.504 7.76561 -1.09192 0
M  V30 3439 N 337.007 -0.598083 1.45811 0
M  V30 3440 C 338.255 -1.35413 1.50026 0
M  V30 3441 C 338.576 -1.94444 0.147177 0
M  V30 3442 O 337.846 -1.77701 -0.824571 0
M  V30 3443 H 336.426 -0.502727 0.552517 0
M  V30 3444 H 339.088 -0.701606 1.81834 0
M  V30 3445 H 338.184 -2.16871 2.2444 0
M  V30 3446 N 338.485 -1.33259 -0.841409 0
M  V30 3447 C 339.71 -1.2775 -1.63385 0
M  V30 3448 C 340.135 0.149188 -1.87507 0
M  V30 3449 O 339.493 1.10498 -1.43736 0
M  V30 3450 C 339.541 -2.05571 -2.96265 0
M  V30 3451 O 338.645 -1.41257 -3.87453 0
M  V30 3452 H 337.986 -0.439627 -0.497618 0
M  V30 3453 H 340.516 -1.75782 -1.04699 0
M  V30 3454 H 340.526 -2.16241 -3.45982 0
M  V30 3455 H 339.201 -3.09309 -2.7803 0
M  V30 3456 H 337.778 -1.39217 -3.45938 0
M  V30 3457 N 339.963 1.05934 -1.16686 0
M  V30 3458 C 341.374 1.60263 -0.957745 0
M  V30 3459 C 341.725 1.89789 0.49745 0
M  V30 3460 O 340.85 1.67401 1.37135 0
M  V30 3461 C 341.445 2.91172 -1.73218 0
M  V30 3462 C 340.004 3.42188 -1.56794 0
M  V30 3463 C 339.151 2.16028 -1.73859 0
M  V30 3464 H 342.102 0.888392 -1.31504 0
M  V30 3465 H 342.123 3.60744 -1.21014 0
M  V30 3466 H 341.635 2.6965 -2.79124 0
M  V30 3467 H 339.736 3.68762 -0.533437 0
M  V30 3468 H 339.849 4.17273 -2.35414 0
M  V30 3469 H 338.213 2.26426 -1.16633 0
M  V30 3470 H 338.996 1.96985 -2.81161 0
M  V30 3471 N 341.441 0.965919 1.2453 0
M  V30 3472 C 342.852 0.665929 1.7442 0
M  V30 3473 C 343.203 -0.818407 1.78316 0
M  V30 3474 O 342.328 -1.64037 1.41141 0
M  V30 3475 C 342.923 1.20211 3.16757 0
M  V30 3476 C 341.482 0.952059 3.6416 0
M  V30 3477 C 340.629 1.33848 2.42858 0
M  V30 3478 H 343.58 1.14144 1.10258 0
M  V30 3479 H 343.601 0.567544 3.76244 0
M  V30 3480 H 343.113 2.28244 3.13889 0
M  V30 3481 H 341.214 -0.112821 3.72429 0
M  V30 3482 H 341.327 1.59645 4.51719 0
M  V30 3483 H 339.691 0.756864 2.43195 0
M  V30 3484 H 340.474 2.42827 2.42673 0
M  V30 3485 N 342.919 -1.39368 0.735821 0
M  V30 3486 C 343.866 -2.30599 0.0963825 0
M  V30 3487 C 344.836 -1.49257 -0.728794 0
M  V30 3488 O 346.021 -1.77941 -0.688588 0
M  V30 3489 C 343.161 -3.35596 -0.804305 0
M  V30 3490 C 342.274 -4.31987 0.0335761 0
M  V30 3491 C 341.409 -5.24053 -0.868461 0
M  V30 3492 C 340.448 -6.12095 -0.0258776 0
M  V30 3493 N 339.585 -6.96514 -0.883893 0
M  V30 3494 H 344.425 -2.8471 0.880002 0
M  V30 3495 H 341.962 -1.40188 0.445619 0
M  V30 3496 H 343.92 -3.95062 -1.34096 0
M  V30 3497 H 342.55 -2.82938 -1.55389 0
M  V30 3498 H 341.602 -3.74133 0.68766 0
M  V30 3499 H 342.914 -4.94074 0.685036 0
M  V30 3500 H 342.068 -5.88549 -1.47293 0
M  V30 3501 H 340.807 -4.62289 -1.5537 0
M  V30 3502 H 339.812 -5.4661 0.591386 0
M  V30 3503 H 341.037 -6.75923 0.656156 0
M  V30 3504 H 338.983 -6.37318 -1.55441 0
M  V30 3505 H 338.9 -7.55448 -0.288931 0
M  V30 3506 H 340.168 -7.65439 -1.4739 0
M  V30 3507 N 344.397 -0.483516 -1.5 0
M  V30 3508 C 345.674 0.129337 -1.95172 0
M  V30 3509 C 346.054 1.55802 -1.4244 0
M  V30 3510 O 345.402 2.19625 -0.630649 0
M  V30 3511 C 345.612 0.0599251 -3.48949 0
M  V30 3512 C 346.96 0.242617 -4.23906 0
M  V30 3513 O 347.984 0.135933 -3.55941 0
M  V30 3514 O 346.843 0.459454 -5.44565 0
M  V30 3515 H 343.937 0.104887 -0.820322 0
M  V30 3516 H 346.483 -0.544807 -1.60717 0
M  V30 3517 H 345.255 -0.937079 -3.79914 0
M  V30 3518 H 344.878 0.774984 -3.89974 0
M  V30 3519 N 345.875 1.56104 -0.216619 0
M  V30 3520 C 346.822 2.2007 0.695531 0
M  V30 3521 C 347.792 1.15471 1.19397 0
M  V30 3522 O 348.977 1.43807 1.25396 0
M  V30 3523 C 346.117 2.88073 1.90021 0
M  V30 3524 C 345.23 4.07253 1.44113 0
M  V30 3525 C 344.365 4.63052 2.603 0
M  V30 3526 C 343.404 5.74545 2.11103 0
M  V30 3527 N 342.541 6.24656 3.20545 0
M  V30 3528 H 347.381 2.97655 0.143327 0
M  V30 3529 H 344.918 1.46982 0.0589934 0
M  V30 3530 H 346.876 3.25681 2.60745 0
M  V30 3531 H 345.506 2.13015 2.42538 0
M  V30 3532 H 344.558 3.75164 0.628999 0
M  V30 3533 H 345.87 4.8783 1.04036 0
M  V30 3534 H 345.024 5.03078 3.39113 0
M  V30 3535 H 343.763 3.81628 3.03663 0
M  V30 3536 H 342.768 5.34027 1.3075 0
M  V30 3537 H 343.993 6.57801 1.68746 0
M  V30 3538 H 341.939 5.46148 3.63399 0
M  V30 3539 H 341.856 7.00343 2.84704 0
M  V30 3540 H 343.124 6.69338 3.99508 0
M  V30 3541 N 347.353 -0.0568162 1.57498 0
M  V30 3542 C 348.769 -0.411933 1.54192 0
M  V30 3543 C 348.969 -1.78287 0.938942 0
M  V30 3544 O 348.025 -2.46483 0.547919 0
M  V30 3545 C 349.338 -0.339244 2.9878 0
M  V30 3546 C 350.886 -0.418348 3.10192 0
M  V30 3547 C 351.361 -0.375407 4.56459 0
M  V30 3548 N 352.852 -0.435038 4.61153 0
M  V30 3549 C 353.587 -0.424265 5.71828 0
M  V30 3550 N 353.083 -0.367418 6.91825 0
M  V30 3551 N 354.876 -0.471938 5.60115 0
M  V30 3552 H 347.027 0.840684 1.95055 0
M  V30 3553 H 349.29 0.316987 0.893433 0
M  V30 3554 H 348.996 0.601742 3.46514 0
M  V30 3555 H 348.87 -1.14371 3.59443 0
M  V30 3556 H 351.257 -1.34976 2.62422 0
M  V30 3557 H 351.338 0.414962 2.52412 0
M  V30 3558 H 350.982 0.552219 5.04889 0
M  V30 3559 H 350.912 -1.22645 5.12119 0
M  V30 3560 H 353.403 -0.482612 3.74806 0
M  V30 3561 H 353.716 -0.363535 7.71944 0
M  V30 3562 H 352.061 -0.333879 6.94198 0
M  V30 3563 H 355.252 -0.514145 4.65268 0
M  V30 3564 H 355.425 -0.460073 6.46365 0
M  V30 3565 N 348.832 -1.54138 -0.328536 0
M  V30 3566 C 350.062 -1.75807 -1.08516 0
M  V30 3567 C 350.47 -0.50428 -1.82356 0
M  V30 3568 O 349.813 0.534451 -1.75754 0
M  V30 3569 C 349.875 -2.89423 -2.13248 0
M  V30 3570 C 349.539 -4.28504 -1.5885 0
M  V30 3571 C 350.536 -5.09536 -1.03289 0
M  V30 3572 C 348.221 -4.75034 -1.63243 0
M  V30 3573 C 350.215 -6.35206 -0.52845 0
M  V30 3574 C 347.902 -6.00672 -1.12411 0
M  V30 3575 C 348.9 -6.80592 -0.573062 0
M  V30 3576 O 348.588 -8.03867 -0.0723692 0
M  V30 3577 H 348.32 -0.590633 -0.328829 0
M  V30 3578 H 350.874 -2.01819 -0.381868 0
M  V30 3579 H 349.104 -2.5897 -2.87178 0
M  V30 3580 H 350.793 -2.98921 -2.74592 0
M  V30 3581 H 351.559 -4.74745 -0.99206 0
M  V30 3582 H 347.438 -4.12875 -2.05074 0
M  V30 3583 H 350.982 -6.97532 -0.0976774 0
M  V30 3584 H 346.879 -6.34955 -1.162 0
M  V30 3585 H 347.647 -8.18283 -0.188258 0
M  V30 3586 N 350.31 0.590341 -1.46126 0
M  V30 3587 C 351.558 1.34616 -1.50742 0
M  V30 3588 C 351.879 1.94363 -0.157486 0
M  V30 3589 O 351.149 1.78136 0.815136 0
M  V30 3590 H 349.729 0.499789 -0.555175 0
M  V30 3591 H 352.391 0.691953 -1.82203 0
M  V30 3592 H 351.487 2.15678 -2.25587 0
M  V30 3593 N 351.788 1.33704 0.83433 0
M  V30 3594 C 353.036 1.25169 1.58673 0
M  V30 3595 C 353.357 -0.18127 1.94156 0
M  V30 3596 O 352.627 -1.11113 1.6134 0
M  V30 3597 H 351.207 0.4603 0.58833 0
M  V30 3598 H 353.869 1.67478 0.996847 0
M  V30 3599 H 352.965 1.84856 2.51465 0
M  V30 3600 N 353.266 -1.05314 1.17247 0
M  V30 3601 C 354.513 -1.78293 0.960091 0
M  V30 3602 C 354.841 -1.87658 -0.51136 0
M  V30 3603 O 354.096 -1.3718 -1.39571 0
M  V30 3604 C 354.395 -3.2229 1.54479 0
M  V30 3605 C 354.061 -3.32987 3.04024 0
M  V30 3606 C 352.723 -3.35613 3.44844 0
M  V30 3607 C 355.075 -3.34102 4.00031 0
M  V30 3608 C 352.403 -3.36982 4.8027 0
M  V30 3609 C 354.755 -3.3701 5.35357 0
M  V30 3610 C 353.419 -3.37923 5.75642 0
M  V30 3611 H 352.689 -0.652422 0.351322 0
M  V30 3612 H 355.336 -1.23782 1.46117 0
M  V30 3613 H 353.641 -3.7972 0.965391 0
M  V30 3614 H 355.338 -3.77376 1.35603 0
M  V30 3615 H 351.928 -3.31655 2.71483 0
M  V30 3616 H 356.112 -3.31276 3.69554 0
M  V30 3617 H 351.368 -3.35999 5.10798 0
M  V30 3618 H 355.542 -3.36822 6.09528 0
M  V30 3619 H 353.169 -3.38738 6.80559 0
M  V30 3620 N 354.744 -0.972509 -1.24016 0
M  V30 3621 C 355.677 -0.45117 -2.23696 0
M  V30 3622 C 356.655 0.477378 -1.55434 0
M  V30 3623 O 357.839 0.407647 -1.84039 0
M  V30 3624 C 354.966 0.34818 -3.36906 0
M  V30 3625 C 354.012 -0.523355 -4.23277 0
M  V30 3626 S 354.845 -1.96647 -4.98087 0
M  V30 3627 C 356.001 -1.17604 -6.14752 0
M  V30 3628 H 356.234 -1.29588 -2.67571 0
M  V30 3629 H 353.767 -0.777903 -1.33372 0
M  V30 3630 H 355.725 0.803387 -4.02562 0
M  V30 3631 H 354.386 1.16792 -2.91579 0
M  V30 3632 H 353.579 0.0906181 -5.03919 0
M  V30 3633 H 353.181 -0.914485 -3.62647 0
M  V30 3634 H 355.473 -0.433434 -6.76112 0
M  V30 3635 H 356.416 -1.95701 -6.8052 0
M  V30 3636 H 356.824 -0.698295 -5.60164 0
M  V30 3637 N 356.222 1.38976 -0.743202 0
M  V30 3638 C 357.45 2.04636 -0.30525 0
M  V30 3639 C 357.865 1.56044 1.06281 0
M  V30 3640 O 357.222 0.728921 1.67311 0
M  V30 3641 C 357.273 3.60193 -0.307177 0
M  V30 3642 O 356.994 4.06998 -1.62124 0
M  V30 3643 C 358.495 4.4306 0.145928 0
M  V30 3644 H 355.715 0.65788 -0.132041 0
M  V30 3645 H 358.259 1.77866 -1.00915 0
M  V30 3646 H 356.414 3.85835 0.347898 0
M  V30 3647 H 356.828 5.01371 -1.54036 0
M  V30 3648 H 358.302 5.51921 0.0934183 0
M  V30 3649 H 358.779 4.22706 1.19231 0
M  V30 3650 H 359.385 4.22584 -0.479886 0
M  V30 3651 N 357.7 0.491464 1.49741 0
M  V30 3652 C 358.925 -0.0557177 2.07325 0
M  V30 3653 C 359.35 -1.30925 1.35056 0
M  V30 3654 O 358.708 -1.76733 0.404365 0
M  V30 3655 C 358.756 -0.302074 3.59333 0
M  V30 3656 O 357.86 -1.37868 3.88672 0
M  V30 3657 H 357.201 0.0219956 0.663636 0
M  V30 3658 H 359.731 0.688352 1.92673 0
M  V30 3659 H 359.741 -0.536464 4.04458 0
M  V30 3660 H 358.416 0.61383 4.11345 0
M  V30 3661 H 356.993 -1.12999 3.55367 0
M  V30 3662 N 359.178 -1.55987 0.224894 0
M  V30 3663 C 360.088 -2.24066 -0.69511 0
M  V30 3664 C 361.104 -1.24939 -1.21104 0
M  V30 3665 O 362.28 -1.5776 -1.25195 0
M  V30 3666 C 359.345 -2.90983 -1.88493 0
M  V30 3667 C 358.406 -4.05462 -1.41064 0
M  V30 3668 C 357.639 -4.69179 -2.54375 0
M  V30 3669 O 357.862 -4.31895 -3.72589 0
M  V30 3670 O 356.796 -5.58108 -2.25386 0
M  V30 3671 H 360.622 -3.03353 -0.145149 0
M  V30 3672 H 358.207 -1.49399 -0.00569476 0
M  V30 3673 H 360.089 -3.33209 -2.57972 0
M  V30 3674 H 358.764 -2.14653 -2.42293 0
M  V30 3675 H 357.671 -3.67798 -0.683774 0
M  V30 3676 H 359.004 -4.83545 -0.918985 0
M  V30 3677 N 360.656 0.0484629 -1.57525 0
M  V30 3678 C 361.603 1.05504 -2.05275 0
M  V30 3679 C 362.573 1.37084 -0.937927 0
M  V30 3680 O 363.758 1.47754 -1.2072 0
M  V30 3681 C 360.898 2.35676 -2.52093 0
M  V30 3682 C 360.011 2.10423 -3.77288 0
M  V30 3683 C 359.146 3.34327 -4.12794 0
M  V30 3684 C 358.185 3.04542 -5.30962 0
M  V30 3685 N 357.322 4.20841 -5.61994 0
M  V30 3686 H 362.162 0.640885 -2.91027 0
M  V30 3687 H 359.699 0.304854 -1.43906 0
M  V30 3688 H 361.657 3.11709 -2.77297 0
M  V30 3689 H 360.287 2.7485 -1.69285 0
M  V30 3690 H 359.339 1.24976 -3.59284 0
M  V30 3691 H 360.651 1.84438 -4.63448 0
M  V30 3692 H 359.805 4.1874 -4.39024 0
M  V30 3693 H 358.544 3.63408 -3.25247 0
M  V30 3694 H 357.549 2.18528 -5.04505 0
M  V30 3695 H 358.774 2.76758 -6.20146 0
M  V30 3696 H 356.72 4.4991 -4.77406 0
M  V30 3697 H 356.637 3.98212 -6.42622 0
M  V30 3698 H 357.905 5.06184 -5.92789 0
M  V30 3699 N 362.134 1.5431 0.320358 0
M  V30 3700 C 363.359 1.76954 1.08175 0
M  V30 3701 C 363.784 0.518193 1.80821 0
M  V30 3702 O 363.142 -0.530411 1.73368 0
M  V30 3703 C 363.19 2.96451 2.05303 0
M  V30 3704 O 362.294 2.68221 3.13259 0
M  V30 3705 H 361.635 0.586275 0.311733 0
M  V30 3706 H 364.165 2.01342 0.363676 0
M  V30 3707 H 364.175 3.23887 2.48116 0
M  V30 3708 H 362.85 3.87196 1.51829 0
M  V30 3709 H 361.427 2.51744 2.75099 0
M  V30 3710 N 363.613 -0.582584 1.46437 0
M  V30 3711 C 364.545 -1.70618 1.53043 0
M  V30 3712 C 365.558 -1.57322 0.418769 0
M  V30 3713 O 366.747 -1.64744 0.687136 0
M  V30 3714 C 363.847 -3.08869 1.39474 0
M  V30 3715 C 363.02 -3.48166 2.64762 0
M  V30 3716 C 362.079 -4.65478 2.4539 0
M  V30 3717 O 361.105 -4.71333 3.19114 0
M  V30 3718 N 362.307 -5.60365 1.51564 0
M  V30 3719 H 365.072 -1.65405 2.49923 0
M  V30 3720 H 362.633 -0.768567 1.42494 0
M  V30 3721 H 364.625 -3.85143 1.24287 0
M  V30 3722 H 363.195 -3.08449 0.507758 0
M  V30 3723 H 362.415 -2.61598 2.9489 0
M  V30 3724 H 363.703 -3.71188 3.4799 0
M  V30 3725 H 363.101 -5.5837 0.907705 0
M  V30 3726 H 361.658 -6.36068 1.4234 0
M  V30 3727 N 365.091 -1.34144 -0.827227 0
M  V30 3728 C 366.319 -1.29325 -1.61501 0
M  V30 3729 C 366.734 0.13354 -1.88327 0
M  V30 3730 O 366.091 1.0793 -1.47164 0
M  V30 3731 C 366.142 -2.07746 -2.95844 0
M  V30 3732 O 365.863 -3.4486 -2.70191 0
M  V30 3733 C 367.364 -2.10273 -3.90256 0
M  V30 3734 H 364.584 -0.445069 -0.50215 0
M  V30 3735 H 367.128 -1.76693 -1.02955 0
M  V30 3736 H 365.283 -1.6403 -3.5096 0
M  V30 3737 H 365.697 -3.85345 -3.55822 0
M  V30 3738 H 367.171 -2.69575 -4.81698 0
M  V30 3739 H 367.648 -1.096 -4.25305 0
M  V30 3740 H 368.254 -2.54059 -3.41078 0
M  V30 3741 N 366.569 1.04691 -1.17803 0
M  V30 3742 C 367.98 1.59238 -0.974689 0
M  V30 3743 C 368.331 1.90306 0.477292 0
M  V30 3744 O 367.456 1.68846 1.35352 0
M  V30 3745 C 368.051 2.89318 -1.76296 0
M  V30 3746 C 366.61 3.40506 -1.60414 0
M  V30 3747 C 365.757 2.14172 -1.76141 0
M  V30 3748 H 368.708 0.874395 -1.32439 0
M  V30 3749 H 368.729 3.5944 -1.24833 0
M  V30 3750 H 368.241 2.66675 -2.81968 0
M  V30 3751 H 366.342 3.68175 -0.572519 0
M  V30 3752 H 366.455 4.14753 -2.39827 0
M  V30 3753 H 364.819 2.25176 -1.19028 0
M  V30 3754 H 365.602 1.93992 -2.83235 0
M  V30 3755 N 368.047 0.979072 1.23499 0
M  V30 3756 C 368.977 0.537606 2.27227 0
M  V30 3757 C 369.958 -0.428539 1.64613 0
M  V30 3758 O 371.143 -0.322191 1.91509 0
M  V30 3759 C 368.273 -0.162052 3.46922 0
M  V30 3760 C 367.227 0.721242 4.21879 0
M  V30 3761 C 366.553 -0.110555 5.34586 0
M  V30 3762 C 367.853 2.01141 4.82016 0
M  V30 3763 H 369.547 1.40462 2.64406 0
M  V30 3764 H 367.093 0.67684 1.27102 0
M  V30 3765 H 369.046 -0.482192 4.18632 0
M  V30 3766 H 367.77 -1.06351 3.08799 0
M  V30 3767 H 366.429 1.02482 3.51984 0
M  V30 3768 H 366.077 -1.0125 4.92704 0
M  V30 3769 H 365.777 0.477325 5.85658 0
M  V30 3770 H 367.301 -0.425107 6.09118 0
M  V30 3771 H 368.715 1.75612 5.45741 0
M  V30 3772 H 367.112 2.54695 5.43369 0
M  V30 3773 H 368.182 2.69909 4.02836 0
M  V30 3774 N 369.525 -1.3858 0.750561 0
M  V30 3775 C 370.771 -2.00481 0.305825 0
M  V30 3776 C 371.104 -1.5944 -1.10872 0
M  V30 3777 O 370.379 -0.83052 -1.75877 0
M  V30 3778 C 370.662 -3.5758 0.425287 0
M  V30 3779 C 370.515 -4.08594 1.88072 0
M  V30 3780 C 371.834 -4.39719 -0.183122 0
M  V30 3781 H 368.953 -0.728348 0.112598 0
M  V30 3782 H 371.595 -1.64566 0.949638 0
M  V30 3783 H 369.745 -3.88306 -0.122828 0
M  V30 3784 H 371.417 -3.88523 2.48691 0
M  V30 3785 H 369.66 -3.61574 2.39681 0
M  V30 3786 H 370.331 -5.177 1.91548 0
M  V30 3787 H 372.807 -4.15128 0.284303 0
M  V30 3788 H 371.683 -5.48856 -0.0692757 0
M  V30 3789 H 371.944 -4.23434 -1.27106 0
M  V30 3790 N 371.003 -0.499398 -1.49478 0
M  V30 3791 C 372.231 0.0425456 -2.06856 0
M  V30 3792 C 372.646 1.30964 -1.35992 0
M  V30 3793 O 372.003 1.77172 -0.437762 0
M  V30 3794 C 372.054 0.301735 -3.60239 0
M  V30 3795 O 371.775 -0.915127 -4.28436 0
M  V30 3796 C 373.276 0.887499 -4.34325 0
M  V30 3797 H 370.496 -0.0197482 -0.670709 0
M  V30 3798 H 373.04 -0.696297 -1.92281 0
M  V30 3799 H 371.195 0.990556 -3.74522 0
M  V30 3800 H 371.609 -0.676993 -5.20113 0
M  V30 3801 H 373.083 1.01845 -5.42523 0
M  V30 3802 H 373.56 1.88488 -3.96698 0
M  V30 3803 H 374.166 0.236196 -4.24644 0
M  V30 3804 N 372.481 1.55866 -0.233164 0
M  V30 3805 C 373.411 2.23783 0.666599 0
M  V30 3806 C 374.392 1.21343 1.19205 0
M  V30 3807 O 375.577 1.4996 1.23392 0
M  V30 3808 C 372.707 2.92671 1.86978 0
M  V30 3809 C 371.661 4.01682 1.47768 0
M  V30 3810 C 370.987 4.57926 2.76058 0
M  V30 3811 C 372.287 5.18126 0.658993 0
M  V30 3812 H 373.981 2.99232 0.100306 0
M  V30 3813 H 371.527 1.43924 0.046804 0
M  V30 3814 H 373.48 3.3888 2.50476 0
M  V30 3815 H 372.204 2.14688 2.46123 0
M  V30 3816 H 370.863 3.56222 0.866106 0
M  V30 3817 H 370.511 3.76659 3.33372 0
M  V30 3818 H 370.211 5.31505 2.50552 0
M  V30 3819 H 371.735 5.06859 3.40479 0
M  V30 3820 H 373.149 5.60644 1.19795 0
M  V30 3821 H 371.546 5.98009 0.500552 0
M  V30 3822 H 372.616 4.83763 -0.331856 0
M  V30 3823 N 373.959 -0.0401083 1.57549 0
M  V30 3824 C 375.206 -0.733125 1.88763 0
M  V30 3825 C 375.534 -1.75946 0.829058 0
M  V30 3826 O 374.789 -1.94949 -0.171323 0
M  V30 3827 C 375.088 -1.44902 3.26708 0
M  V30 3828 C 374.754 -0.559707 4.47413 0
M  V30 3829 C 373.416 -0.314731 4.8017 0
M  V30 3830 C 375.768 0.0549743 5.21171 0
M  V30 3831 C 373.096 0.553886 5.8408 0
M  V30 3832 C 375.448 0.911229 6.26003 0
M  V30 3833 C 374.112 1.16577 6.57241 0
M  V30 3834 H 373.382 -0.268269 0.690733 0
M  V30 3835 H 376.029 0.00679408 1.91499 0
M  V30 3836 H 374.334 -2.26197 3.1991 0
M  V30 3837 H 376.031 -1.99058 3.48105 0
M  V30 3838 H 372.621 -0.760793 4.21794 0
M  V30 3839 H 376.805 -0.121344 4.96152 0
M  V30 3840 H 372.061 0.759518 6.06664 0
M  V30 3841 H 376.235 1.3941 6.82303 0
M  V30 3842 H 373.862 1.84058 7.37582 0
M  V30 3843 N 375.437 -1.54477 -0.31217 0
M  V30 3844 C 376.384 -1.84655 -1.38461 0
M  V30 3845 C 377.354 -0.694536 -1.50882 0
M  V30 3846 O 378.539 -0.942081 -1.6592 0
M  V30 3847 C 375.679 -2.0896 -2.74645 0
M  V30 3848 C 374.792 -3.36618 -2.70763 0
M  V30 3849 C 373.927 -3.50824 -3.98868 0
M  V30 3850 C 372.966 -4.72315 -3.89339 0
M  V30 3851 N 372.103 -4.83387 -5.09197 0
M  V30 3852 H 376.943 -2.76142 -1.12026 0
M  V30 3853 H 374.48 -1.36748 -0.542065 0
M  V30 3854 H 376.438 -2.21045 -3.53829 0
M  V30 3855 H 375.068 -1.20752 -2.99364 0
M  V30 3856 H 374.12 -3.33211 -1.83506 0
M  V30 3857 H 375.432 -4.25917 -2.59608 0
M  V30 3858 H 374.586 -3.62513 -4.86486 0
M  V30 3859 H 373.325 -2.59638 -4.12843 0
M  V30 3860 H 372.33 -4.6067 -3.00105 0
M  V30 3861 H 373.555 -5.64897 -3.76919 0
M  V30 3862 H 371.501 -3.9512 -5.23657 0
M  V30 3863 H 371.418 -5.66669 -5.00422 0
M  V30 3864 H 372.686 -4.9942 -5.98498 0
M  V30 3865 N 376.915 0.57481 -1.46744 0
M  V30 3866 C 377.863 1.70435 -1.58286 0
M  V30 3867 C 378.857 1.63287 -0.450956 0
M  V30 3868 O 380.063 1.68685 -0.628121 0
M  V30 3869 H 376.438 0.56364 -0.497809 0
M  V30 3870 H 378.409 1.57833 -2.53242 0
M  V30 3871 C 377.158 3.08815 -1.59776 0
M  V30 3872 H 376.481 3.1499 -2.46214 0
M  V30 3873 H 377.921 3.87588 -1.71905 0
M  V30 3874 C 376.38 3.35301 -0.327812 0
M  V30 3875 O 376.91 3.97511 0.57861 0
M  V30 3876 N 375.116 2.89816 -0.213274 0
M  V30 3877 H 374.663 2.39371 -0.951798 0
M  V30 3878 H 374.621 3.0791 0.63553 0
M  V30 3879 N 378.394 1.34581 0.820102 0
M  V30 3880 C 379.357 1.2628 1.91275 0
M  V30 3881 C 380.357 0.177344 1.59819 0
M  V30 3882 O 381.547 0.430156 1.68806 0
M  V30 3883 C 378.679 0.950327 3.27386 0
M  V30 3884 H 379.872 2.23421 2.00057 0
M  V30 3885 H 377.425 1.1891 1.0144 0
M  V30 3886 H 378.16 -0.0177938 3.24295 0
M  V30 3887 H 377.945 1.73549 3.51601 0
M  V30 3888 H 379.435 0.917492 4.07396 0
M  V30 3889 N 379.872 -1.04064 1.18357 0
M  V30 3890 C 381.121 -1.76662 0.973313 0
M  V30 3891 C 381.434 -1.89154 -0.497991 0
M  V30 3892 O 382.64 -2.58606 -0.826762 0
M  V30 3893 C 381.096 -3.17624 1.69242 0
M  V30 3894 C 380.704 -3.13225 3.20303 0
M  V30 3895 C 382.448 -3.946 1.56497 0
M  V30 3896 C 380.355 -4.49046 3.84853 0
M  V30 3897 H 379.285 -0.662214 0.36054 0
M  V30 3898 H 381.936 -1.16553 1.41731 0
M  V30 3899 H 380.318 -3.78129 1.1762 0
M  V30 3900 H 381.492 -2.62172 3.78949 0
M  V30 3901 H 379.807 -2.49749 3.33189 0
M  V30 3902 H 382.404 -4.95042 2.02084 0
M  V30 3903 H 382.747 -4.13074 0.517243 0
M  V30 3904 H 383.28 -3.4067 2.05399 0
M  V30 3905 H 380.019 -4.35777 4.89672 0
M  V30 3906 H 379.539 -5.00203 3.30994 0
M  V30 3907 H 381.218 -5.17961 3.87718 0
M  V30 3908 N 381.35 -0.985608 -1.22978 0
M  V30 3909 C 382.599 -0.652881 -1.90841 0
M  V30 3910 C 382.912 0.817842 -1.77681 0
M  V30 3911 O 384.118 1.26185 -2.40395 0
M  V30 3912 C 382.574 -1.11717 -3.42122 0
M  V30 3913 C 382.182 -2.6126 -3.63933 0
M  V30 3914 C 383.926 -0.85843 -4.1573 0
M  V30 3915 C 381.833 -3.0133 -5.08876 0
M  V30 3916 H 380.763 -0.240491 -0.714619 0
M  V30 3917 H 383.414 -1.1942 -1.39324 0
M  V30 3918 H 381.796 -0.504027 -3.92779 0
M  V30 3919 H 382.97 -3.27858 -3.23799 0
M  V30 3920 H 381.285 -2.84937 -3.03644 0
M  V30 3921 H 383.882 -1.13359 -5.22546 0
M  V30 3922 H 384.225 0.205461 -4.15793 0
M  V30 3923 H 384.758 -1.43341 -3.71077 0
M  V30 3924 H 381.497 -4.06864 -5.13947 0
M  V30 3925 H 381.017 -2.3943 -5.49939 0
M  V30 3926 H 382.696 -2.92224 -5.77247 0
M  V30 3927 N 382.828 1.3818 -0.7579 0
M  V30 3928 C 383.775 2.30416 -0.133057 0
M  V30 3929 C 384.745 1.50398 0.704957 0
M  V30 3930 O 385.93 1.79014 0.660192 0
M  V30 3931 C 383.07 3.36834 0.750813 0
M  V30 3932 C 382.183 4.31879 -0.102297 0
M  V30 3933 C 381.318 5.25368 0.784979 0
M  V30 3934 C 380.357 6.12058 -0.0715046 0
M  V30 3935 N 379.494 6.97832 0.772972 0
M  V30 3936 H 384.334 2.83274 -0.925186 0
M  V30 3937 H 381.871 1.39461 -0.467866 0
M  V30 3938 H 383.829 3.97145 1.27794 0
M  V30 3939 H 382.459 2.85374 1.50868 0
M  V30 3940 H 381.511 3.72991 -0.747095 0
M  V30 3941 H 382.823 4.92921 -0.763552 0
M  V30 3942 H 381.977 5.90818 1.37911 0
M  V30 3943 H 380.716 4.64703 1.47996 0
M  V30 3944 H 379.721 5.456 -0.678272 0
M  V30 3945 H 380.946 6.74793 -0.763606 0
M  V30 3946 H 378.892 6.3971 1.45282 0
M  V30 3947 H 378.809 7.55812 0.168709 0
M  V30 3948 H 380.077 7.67687 1.35194 0
M  V30 3949 N 384.306 0.507319 1.49211 0
M  V30 3950 C 385.254 -0.281364 2.30892 0
M  V30 3951 C 386.248 -0.95687 1.39787 0
M  V30 3952 O 387.454 -0.883838 1.56807 0
M  V30 3953 H 383.829 -0.109597 0.743971 0
M  V30 3954 H 385.8 0.42744 2.95323 0
M  V30 3955 C 384.549 -1.32918 3.21291 0
M  V30 3956 H 383.872 -0.818799 3.91326 0
M  V30 3957 H 385.312 -1.85288 3.81372 0
M  V30 3958 C 383.771 -2.35074 2.41333 0
M  V30 3959 O 384.301 -3.4108 2.12197 0
M  V30 3960 N 382.507 -2.07705 2.03241 0
M  V30 3961 H 382.054 -1.2152 2.27136 0
M  V30 3962 H 382.012 -2.76283 1.50051 0
M  V30 3963 N 385.784 -1.5574 0.241426 0
M  V30 3964 C 386.747 -2.19877 -0.647063 0
M  V30 3965 C 387.747 -1.16642 -1.10686 0
M  V30 3966 O 388.937 -1.41757 -1.01245 0
M  V30 3967 C 386.069 -2.83797 -1.88871 0
M  V30 3968 H 387.262 -2.99772 -0.087574 0
M  V30 3969 H 384.815 -1.56298 -0.00813574 0
M  V30 3970 H 385.55 -2.07824 -2.48957 0
M  V30 3971 H 385.335 -3.59414 -1.56728 0
M  V30 3972 H 386.825 -3.32898 -2.52129 0
M  V30 3973 N 387.262 0.0317525 -1.57568 0
M  V30 3974 C 388.492 0.733884 -1.93126 0
M  V30 3975 C 388.9 1.69563 -0.839352 0
M  V30 3976 O 388.243 1.82681 0.193175 0
M  V30 3977 C 388.305 1.54798 -3.24465 0
M  V30 3978 C 387.969 0.751304 -4.50782 0
M  V30 3979 C 388.966 0.0527632 -5.19873 0
M  V30 3980 C 386.651 0.706639 -4.97305 0
M  V30 3981 C 388.645 -0.679774 -6.33765 0
M  V30 3982 C 386.332 -0.0296449 -6.11093 0
M  V30 3983 C 387.33 -0.721614 -6.79177 0
M  V30 3984 O 387.018 -1.44595 -7.90789 0
M  V30 3985 H 386.75 0.211459 -0.642076 0
M  V30 3986 H 389.304 -0.00585615 -2.05399 0
M  V30 3987 H 387.534 2.33147 -3.08512 0
M  V30 3988 H 389.223 2.13247 -3.4537 0
M  V30 3989 H 389.989 0.0783188 -4.84937 0
M  V30 3990 H 385.868 1.23474 -4.44157 0
M  V30 3991 H 389.412 -1.22042 -6.86842 0
M  V30 3992 H 385.309 -0.0571331 -6.45475 0
M  V30 3993 H 386.077 -1.35935 -8.07133 0
M  V30 3994 N 388.74 1.54641 0.303973 0
M  V30 3995 C 389.687 1.85386 1.37479 0
M  V30 3996 C 390.657 0.702528 1.50512 0
M  V30 3997 O 391.842 0.950867 1.65418 0
M  V30 3998 C 388.982 2.10413 2.73533 0
M  V30 3999 C 388.095 3.38049 2.68974 0
M  V30 4000 C 387.23 3.52934 3.97002 0
M  V30 4001 C 386.269 4.74373 3.86829 0
M  V30 4002 N 385.406 4.8608 5.06627 0
M  V30 4003 H 390.246 2.76732 1.1056 0
M  V30 4004 H 387.783 1.37034 0.534805 0
M  V30 4005 H 389.741 2.22919 3.52652 0
M  V30 4006 H 388.371 1.22338 2.98719 0
M  V30 4007 H 387.423 3.3418 1.81736 0
M  V30 4008 H 388.735 4.27288 2.57346 0
M  V30 4009 H 387.889 3.65088 4.84557 0
M  V30 4010 H 386.628 2.61824 4.1146 0
M  V30 4011 H 385.633 4.62255 2.97658 0
M  V30 4012 H 386.858 5.66888 3.73918 0
M  V30 4013 H 384.804 3.97891 5.21554 0
M  V30 4014 H 384.721 5.69315 4.9741 0
M  V30 4015 H 385.989 5.02587 5.95841 0
M  V30 4016 N 390.218 -0.567019 1.47046 0
M  V30 4017 C 391.165 -1.67489 1.58796 0
M  V30 4018 C 392.135 -1.60399 0.43144 0
M  V30 4019 O 393.32 -1.79378 0.650233 0
M  V30 4020 C 390.46 -3.05821 1.59899 0
M  V30 4021 C 389.573 -3.2342 2.86397 0
M  V30 4022 C 388.708 -4.52093 2.789 0
M  V30 4023 C 387.747 -4.6309 4.00267 0
M  V30 4024 N 386.884 -5.83106 3.91064 0
M  V30 4025 H 391.724 -1.56785 2.53422 0
M  V30 4026 H 389.261 -0.763896 1.2571 0
M  V30 4027 H 391.219 -3.8591 1.58522 0
M  V30 4028 H 389.849 -3.15384 0.687929 0
M  V30 4029 H 388.901 -2.3683 2.97684 0
M  V30 4030 H 390.213 -3.27412 3.76301 0
M  V30 4031 H 389.367 -5.4043 2.75718 0
M  V30 4032 H 388.106 -4.50565 1.86662 0
M  V30 4033 H 387.111 -3.73168 4.03765 0
M  V30 4034 H 388.336 -4.66386 4.93621 0
M  V30 4035 H 386.282 -5.82546 3.01623 0
M  V30 4036 H 386.199 -5.88434 4.74638 0
M  V30 4037 H 387.467 -6.73831 3.91882 0
M  V30 4038 N 391.696 -1.35014 -0.812953 0
M  V30 4039 C 392.944 -1.27678 -1.56661 0
M  V30 4040 C 393.265 0.150359 -1.94419 0
M  V30 4041 O 392.535 1.08532 -1.63088 0
M  V30 4042 H 391.115 -0.469602 -0.580933 0
M  V30 4043 H 393.777 -1.69043 -0.970076 0
M  V30 4044 H 392.873 -1.88833 -2.48492 0
M  V30 4045 N 393.175 1.03435 -1.18907 0
M  V30 4046 C 394.085 2.15075 -0.937015 0
M  V30 4047 C 395.101 1.73706 0.101085 0
M  V30 4048 O 396.277 2.01232 -0.0822948 0
M  V30 4049 C 393.342 3.43458 -0.473057 0
M  V30 4050 C 392.403 3.99172 -1.57989 0
M  V30 4051 C 391.636 5.21427 -1.13797 0
M  V30 4052 O 391.859 5.704 0.000725941 0
M  V30 4053 O 390.793 5.69837 -1.9383 0
M  V30 4054 H 394.619 2.39198 -1.87131 0
M  V30 4055 H 392.204 1.13506 -0.971427 0
M  V30 4056 H 394.086 4.20811 -0.222702 0
M  V30 4057 H 392.761 3.20793 0.432869 0
M  V30 4058 H 391.668 3.23178 -1.88433 0
M  V30 4059 H 393.001 4.2619 -2.46217 0
M  V30 4060 O 394.692 1.12039 1.16316 0
M  V30 4061 H 395.383 0.829719 1.7503 0
M  V30 END ATOM
M  V30 BEGIN BOND
M  V30 END BOND
M  V30 END CTAB
M  END
$$$$
