drugbank_drug|DB09310 Coagulation Factor XIII A-Subunit (dimer)
 OpenBabel12092119133D

  0  0  0     0  0            999 V3000
M  V30 BEGIN CTAB
M  V30 COUNTS 11594 11731 0 0 0
M  V30 BEGIN ATOM
M  V30 1 H -0.908 1.98254 -0.117106 0
M  V30 2 N 0 1.576 0 0
M  V30 3 C 0.933 2.03868 1.02534 0
M  V30 4 C 1.911 0.928543 1.3348 0
M  V30 5 O 3.095 1.19667 1.45644 0
M  V30 6 C 0.222 2.43627 2.35294 0
M  V30 7 C -0.732 3.65373 2.2001 0
M  V30 8 S 0.101 5.13292 1.52614 0
M  V30 9 C 1.257 5.56322 2.86805 0
M  V30 10 H 1.49 2.90518 0.631377 0
M  V30 11 H -0.977 1.52953 0.210867 0
M  V30 12 H 0.981 2.67203 3.11629 0
M  V30 13 H -0.358 1.57376 2.7183 0
M  V30 14 H -1.165 3.90944 3.18086 0
M  V30 15 H -1.563 3.418 1.51819 0
M  V30 16 H 0.729 5.58782 3.83104 0
M  V30 17 H 1.672 6.56266 2.65933 0
M  V30 18 H 2.08 4.83886 2.90714 0
M  V30 19 N 1.4781 -0.272755 1.55222 0
M  V30 20 C 2.7031 -1.02683 1.80197 0
M  V30 21 C 3.1281 -1.79142 0.573551 0
M  V30 22 O 2.4861 -1.74917 -0.476849 0
M  V30 23 C 2.5341 -1.9609 3.02624 0
M  V30 24 O 1.6381 -3.04863 2.77727 0
M  V30 25 H 0.9791 -0.293557 0.595584 0
M  V30 26 H 3.5091 -0.30159 2.02365 0
M  V30 27 H 3.5191 -2.38039 3.31363 0
M  V30 28 H 2.1941 -1.39851 3.91682 0
M  V30 29 H 0.7711 -2.67228 2.60084 0
M  V30 30 N 2.9562 -1.48159 -0.537278 0
M  V30 31 C 3.8662 -1.64807 -1.6696 0
M  V30 32 C 4.8822 -0.530651 -1.65711 0
M  V30 33 O 6.0582 -0.800784 -1.84796 0
M  V30 34 C 3.1232 -1.67708 -3.03438 0
M  V30 35 C 2.1842 -2.91025 -3.156 0
M  V30 36 C 1.4172 -2.93778 -4.45567 0
M  V30 37 O 1.6402 -2.05153 -5.3223 0
M  V30 38 O 0.5742 -3.85868 -4.61941 0
M  V30 39 H 4.4002 -2.6066 -1.55853 0
M  V30 40 H 1.9852 -1.31475 -0.709549 0
M  V30 41 H 3.8672 -1.7218 -3.84619 0
M  V30 42 H 2.5422 -0.750278 -3.14885 0
M  V30 43 H 1.4492 -2.92089 -2.33741 0
M  V30 44 H 2.7822 -3.83065 -3.09066 0
M  V30 45 N 4.4343 0.785586 -1.36625 0
M  V30 46 C 5.6623 1.57448 -1.3423 0
M  V30 47 C 6.0773 1.88649 0.0755653 0
M  V30 48 O 5.4343 1.50414 1.03354 0
M  V30 49 C 5.4853 2.89316 -2.16745 0
M  V30 50 O 5.2063 2.59459 -3.53005 0
M  V30 51 C 6.7073 3.83606 -2.22174 0
M  V30 52 H 3.9273 0.488226 -0.4603 0
M  V30 53 H 6.4713 0.974733 -1.79775 0
M  V30 54 H 4.6263 3.4575 -1.74745 0
M  V30 55 H 5.0403 3.43804 -3.96105 0
M  V30 56 H 6.5143 4.73181 -2.8426 0
M  V30 57 H 6.9913 4.21734 -1.22627 0
M  V30 58 H 7.5973 3.33104 -2.64427 0
M  V30 59 N 5.9124 1.20967 1.01018 0
M  V30 60 C 7.1374 1.0503 1.78839 0
M  V30 61 C 7.5624 -0.395752 1.8389 0
M  V30 62 O 6.9204 -1.28529 1.27867 0
M  V30 63 C 6.9684 1.64602 3.2084 0
M  V30 64 O 6.0724 0.887988 4.02726 0
M  V30 65 H 5.4134 0.369987 0.551367 0
M  V30 66 H 7.9434 1.60399 1.27018 0
M  V30 67 H 7.9534 1.68607 3.71532 0
M  V30 68 H 6.6284 2.69841 3.16479 0
M  V30 69 H 5.2054 0.922648 3.61305 0
M  V30 70 N 7.3905 -1.2043 1.01659 0
M  V30 71 C 8.8065 -1.41852 0.731442 0
M  V30 72 C 9.0065 -1.89358 -0.688898 0
M  V30 73 O 8.0625 -2.06247 -1.45666 0
M  V30 74 C 9.3755 -2.44019 1.75714 0
M  V30 75 C 10.9235 -2.57785 1.77527 0
M  V30 76 C 11.3985 -3.63194 2.79023 0
M  V30 77 N 12.8895 -3.70678 2.77763 0
M  V30 78 C 13.6245 -4.51897 3.52954 0
M  V30 79 N 13.1205 -5.36921 4.37821 0
M  V30 80 N 14.9135 -4.4643 3.41551 0
M  V30 81 H 7.0645 -0.879093 1.93354 0
M  V30 82 H 9.3275 -0.448425 0.835236 0
M  V30 83 H 9.0335 -2.1611 2.77469 0
M  V30 84 H 8.9075 -3.43007 1.56927 0
M  V30 85 H 11.2945 -2.85023 0.764569 0
M  V30 86 H 11.3755 -1.58992 2.00387 0
M  V30 87 H 11.0195 -3.36699 3.80258 0
M  V30 88 H 10.9495 -4.61609 2.53425 0
M  V30 89 H 13.4405 -3.09944 2.16201 0
M  V30 90 H 13.7535 -5.95981 4.91962 0
M  V30 91 H 12.0985 -5.36424 4.41899 0
M  V30 92 H 15.2895 -3.79042 2.74672 0
M  V30 93 H 15.4625 -5.09491 4.00404 0
M  V30 94 N 8.8686 -0.792821 -1.36206 0
M  V30 95 C 10.0966 -0.378825 -2.03402 0
M  V30 96 C 10.5116 1.00586 -1.59774 0
M  V30 97 O 9.8686 1.64574 -0.788764 0
M  V30 98 C 9.9196 -0.43683 -3.58851 0
M  V30 99 O 9.6406 -1.76691 -4.00889 0
M  V30 100 C 11.1416 -0.0138943 -4.43298 0
M  V30 101 H 8.3616 -0.155673 -0.652692 0
M  V30 102 H 10.9056 -1.07261 -1.74113 0
M  V30 103 H 9.0606 0.208575 -3.86838 0
M  V30 104 H 9.4746 -1.72011 -4.95492 0
M  V30 105 H 10.9486 -0.105615 -5.51899 0
M  V30 106 H 11.4256 1.03915 -4.2673 0
M  V30 107 H 12.0316 -0.63192 -4.20579 0
M  V30 108 N 10.3467 1.47872 -0.545128 0
M  V30 109 C 11.3097 2.28337 0.198717 0
M  V30 110 C 12.3097 1.36255 0.853888 0
M  V30 111 O 13.4997 1.59003 0.711606 0
M  V30 112 C 10.6317 3.15585 1.28915 0
M  V30 113 H 11.8247 2.95567 -0.507941 0
M  V30 114 H 9.3777 1.53362 -0.301616 0
M  V30 115 H 10.1127 2.53019 2.02859 0
M  V30 116 H 9.8977 3.83337 0.824309 0
M  V30 117 H 11.3877 3.76243 1.81194 0
M  V30 118 N 11.8248 0.280983 1.55075 0
M  V30 119 C 13.0718 -0.334115 1.99725 0
M  V30 120 C 13.3998 -1.5542 1.1694 0
M  V30 121 O 12.6548 -1.94361 0.228531 0
M  V30 122 C 12.9538 -0.754656 3.49342 0
M  V30 123 C 12.6198 0.361445 4.49449 0
M  V30 124 C 11.2818 0.667893 4.76542 0
M  V30 125 C 13.6338 1.11322 5.09173 0
M  V30 126 C 10.9618 1.7296 5.60626 0
M  V30 127 C 13.3138 2.1647 5.9441 0
M  V30 128 C 11.9778 2.47742 6.19822 0
M  V30 129 H 11.2478 -0.122261 0.730844 0
M  V30 130 H 13.8948 0.395917 1.87363 0
M  V30 131 H 12.1998 -1.56446 3.5921 0
M  V30 132 H 13.8968 -1.24142 3.813 0
M  V30 133 H 10.4868 0.112481 4.28452 0
M  V30 134 H 14.6708 0.88973 4.8826 0
M  V30 135 H 9.9268 1.97684 5.78559 0
M  V30 136 H 14.1008 2.75193 6.3972 0
M  V30 137 H 11.7278 3.30145 6.84769 0
M  V30 138 N 13.3029 -1.57598 0.00835791 0
M  V30 139 C 14.5509 -1.90551 -0.6734 0
M  V30 140 C 14.8719 -0.883301 -1.73847 0
M  V30 141 O 14.1419 0.0781442 -1.95744 0
M  V30 142 H 12.7219 -0.703312 -0.251717 0
M  V30 143 H 15.3839 -1.94833 0.0512592 0
M  V30 144 H 14.4799 -2.9056 -1.13935 0
M  V30 145 N 14.781 0.264519 -1.55364 0
M  V30 146 C 16.029 0.993021 -1.76021 0
M  V30 147 C 16.35 1.86511 -0.569099 0
M  V30 148 O 15.62 1.91438 0.415735 0
M  V30 149 H 14.2 0.369639 -0.649135 0
M  V30 150 H 16.862 0.286707 -1.9278 0
M  V30 151 H 15.958 1.62502 -2.66457 0
M  V30 152 N 16.2591 1.48442 0.529413 0
M  V30 153 C 17.6751 1.34575 0.858004 0
M  V30 154 C 17.8751 0.3572 1.98309 0
M  V30 155 O 16.9311 -0.221379 2.51528 0
M  V30 156 C 18.2441 2.74617 1.22499 0
M  V30 157 C 19.7921 2.83109 1.33484 0
M  V30 158 C 20.2671 4.23854 1.73526 0
M  V30 159 N 21.7581 4.2653 1.80628 0
M  V30 160 C 22.4931 5.32372 2.12997 0
M  V30 161 N 21.9891 6.48491 2.43786 0
M  V30 162 N 23.7821 5.19766 2.14008 0
M  V30 163 H 15.9331 2.1133 -0.212925 0
M  V30 164 H 18.1961 0.947439 -0.0326199 0
M  V30 165 H 17.9021 3.4852 0.471905 0
M  V30 166 H 17.7761 3.08177 2.17501 0
M  V30 167 H 20.1631 2.09462 2.0787 0
M  V30 168 H 20.2441 2.53168 0.366027 0
M  V30 169 H 19.8881 4.98018 0.997013 0
M  V30 170 H 19.8181 4.5124 2.71459 0
M  V30 171 H 22.3091 3.42772 1.59108 0
M  V30 172 H 22.6221 7.24993 2.67592 0
M  V30 173 H 20.9671 6.51765 2.41304 0
M  V30 174 H 24.1581 4.28066 1.89412 0
M  V30 175 H 24.3311 6.02354 2.38902 0
M  V30 176 N 17.7372 -0.778329 1.37039 0
M  V30 177 C 19.1532 -1.07796 1.17695 0
M  V30 178 C 19.3532 -2.01498 0.00860115 0
M  V30 179 O 18.4092 -2.43901 -0.653352 0
M  V30 180 C 19.7222 -1.68178 2.49272 0
M  V30 181 C 21.2702 -1.80467 2.55735 0
M  V30 182 C 21.7452 -2.44263 3.87427 0
M  V30 183 N 23.2362 -2.51721 3.88833 0
M  V30 184 C 23.9712 -3.01919 4.87476 0
M  V30 185 N 23.4672 -3.5234 5.96513 0
M  V30 186 N 25.2602 -3.00733 4.74885 0
M  V30 187 H 17.4112 -0.156032 2.11826 0
M  V30 188 H 19.6742 -0.131844 0.938787 0
M  V30 189 H 19.3802 -1.06796 3.35093 0
M  V30 190 H 19.2542 -2.67554 2.65885 0
M  V30 191 H 21.6412 -2.40984 1.70325 0
M  V30 192 H 21.7222 -0.798656 2.43013 0
M  V30 193 H 21.3662 -1.84388 4.73248 0
M  V30 194 H 21.2962 -3.45458 3.9745 0
M  V30 195 H 23.7872 -2.1603 3.10063 0
M  V30 196 H 24.1002 -3.89027 6.67741 0
M  V30 197 H 22.4452 -3.50462 6.00168 0
M  V30 198 H 25.6362 -2.60638 3.88826 0
M  V30 199 H 25.8092 -3.39545 5.51918 0
M  V30 200 N 19.2153 -1.21501 -1.00376 0
M  V30 201 C 20.1783 -0.976927 -2.07337 0
M  V30 202 C 21.1783 0.0525322 -1.60714 0
M  V30 203 O 22.3683 -0.184869 -1.73216 0
M  V30 204 C 19.5003 -0.473423 -3.37597 0
M  V30 205 H 20.6933 -1.92587 -2.29892 0
M  V30 206 H 18.2463 -1.03217 -1.17371 0
M  V30 207 H 18.9813 0.480379 -3.20722 0
M  V30 208 H 18.7663 -1.216 -3.72768 0
M  V30 209 H 20.2563 -0.32675 -4.1632 0
M  V30 210 N 20.6934 1.19889 -1.02296 0
M  V30 211 C 21.9394 1.89701 -0.717033 0
M  V30 212 C 22.2724 1.7905 0.751989 0
M  V30 213 O 21.5474 1.17891 1.547 0
M  V30 214 C 21.8304 3.40858 -1.16136 0
M  V30 215 C 21.6834 3.60411 -2.69117 0
M  V30 216 C 23.0024 4.33876 -0.737549 0
M  V30 217 H 20.1214 0.688874 -0.261957 0
M  V30 218 H 22.7634 1.41154 -1.27183 0
M  V30 219 H 20.9134 3.82335 -0.689342 0
M  V30 220 H 22.5854 3.28145 -3.2422 0
M  V30 221 H 20.8284 3.03665 -3.0979 0
M  V30 222 H 21.4994 4.66396 -2.95261 0
M  V30 223 H 23.9754 4.00081 -1.14344 0
M  V30 224 H 22.8514 5.38242 -1.0764 0
M  V30 225 H 23.1124 4.40628 0.360436 0
M  V30 226 N 22.1715 0.800033 1.35784 0
M  V30 227 C 23.5825 0.439142 1.81462 0
M  V30 228 C 23.9335 -1.03813 1.66485 0
M  V30 229 O 23.0585 -1.80626 1.19177 0
M  V30 230 C 23.6535 0.790314 3.29453 0
M  V30 231 C 22.2125 0.482111 3.733 0
M  V30 232 C 21.3595 1.01938 2.57883 0
M  V30 233 H 24.3105 0.992254 1.23855 0
M  V30 234 H 24.3315 0.0853677 3.80404 0
M  V30 235 H 23.8435 1.86554 3.40322 0
M  V30 236 H 21.9445 -0.584652 3.67984 0
M  V30 237 H 22.0575 1.01015 4.6833 0
M  V30 238 H 20.4215 0.442043 2.50835 0
M  V30 239 H 21.2045 2.10059 2.71533 0
M  V30 240 N 23.6496 -1.47581 0.552962 0
M  V30 241 C 25.0606 -1.86324 0.118463 0
M  V30 242 C 25.4116 -1.46006 -1.3106 0
M  V30 243 O 24.5366 -0.861182 -1.98526 0
M  V30 244 C 25.1316 -3.3816 0.20821 0
M  V30 245 C 23.6906 -3.7601 -0.171226 0
M  V30 246 C 22.8376 -2.71634 0.557686 0
M  V30 247 H 25.7886 -1.39159 0.762928 0
M  V30 248 H 25.8096 -3.76141 -0.574278 0
M  V30 249 H 25.3216 -3.67473 1.24841 0
M  V30 250 H 23.4226 -3.52313 -1.21269 0
M  V30 251 H 23.5356 -4.78745 0.184379 0
M  V30 252 H 21.8996 -2.547 0.00125792 0
M  V30 253 H 22.6826 -3.0379 1.59896 0
M  V30 254 N 25.1277 -0.289203 -1.54924 0
M  V30 255 C 26.0757 0.607966 -2.24514 0
M  V30 256 C 27.0697 1.14655 -1.24702 0
M  V30 257 O 28.2757 1.09856 -1.4259 0
M  V30 258 H 24.6507 0.21464 -0.720718 0
M  V30 259 H 26.6217 -0.00164182 -2.984 0
M  V30 260 C 25.3707 1.77406 -2.99036 0
M  V30 261 H 24.6937 1.36884 -3.75637 0
M  V30 262 H 26.1337 2.37814 -3.51028 0
M  V30 263 C 24.5927 2.67107 -2.05318 0
M  V30 264 O 25.1227 3.6787 -1.61353 0
M  V30 265 N 23.3287 2.34582 -1.71521 0
M  V30 266 H 22.8757 1.52688 -2.07471 0
M  V30 267 H 22.8337 2.94867 -1.0909 0
M  V30 268 N 26.6058 1.57591 -0.0167156 0
M  V30 269 C 27.5538 2.10604 0.987353 0
M  V30 270 C 28.5478 1.02977 1.34507 0
M  V30 271 O 29.7538 1.21425 1.32875 0
M  V30 272 H 26.1288 0.672695 0.336134 0
M  V30 273 H 28.0998 2.93925 0.514817 0
M  V30 274 C 26.8488 2.6382 2.26483 0
M  V30 275 H 26.1718 3.46278 1.99829 0
M  V30 276 H 27.6118 3.04573 2.94977 0
M  V30 277 C 26.0708 1.55992 2.9861 0
M  V30 278 O 26.6008 0.952521 3.90243 0
M  V30 279 N 24.8068 1.28335 2.60727 0
M  V30 280 H 24.3538 1.77914 1.86291 0
M  V30 281 H 24.3118 0.564115 3.09298 0
M  V30 282 N 28.0839 -0.256276 1.55502 0
M  V30 283 C 29.3089 -1.00766 1.81276 0
M  V30 284 C 29.7339 -1.78524 0.59252 0
M  V30 285 O 29.0919 -1.75413 -0.45827 0
M  V30 286 C 29.1399 -1.92869 3.04687 0
M  V30 287 O 28.2439 -3.019 2.80945 0
M  V30 288 H 27.5849 -0.287224 0.598664 0
M  V30 289 H 30.1149 -0.280109 2.02674 0
M  V30 290 H 30.1249 -2.34511 3.33869 0
M  V30 291 H 28.7999 -1.35689 3.93143 0
M  V30 292 H 27.3769 -2.64454 2.62904 0
M  V30 293 N 29.562 -1.4872 -0.521534 0
M  V30 294 C 30.51 -1.64328 -1.64618 0
M  V30 295 C 31.504 -0.50953 -1.61555 0
M  V30 296 O 32.71 -0.688525 -1.66311 0
M  V30 297 H 29.085 -0.517805 -0.545328 0
M  V30 298 H 31.056 -2.58767 -1.48601 0
M  V30 299 C 29.805 -1.70805 -3.02855 0
M  V30 300 H 29.128 -2.5741 -3.05909 0
M  V30 301 H 30.568 -1.85766 -3.81139 0
M  V30 302 C 29.027 -0.448479 -3.33902 0
M  V30 303 O 29.557 0.434928 -3.99339 0
M  V30 304 N 27.763 -0.317616 -2.88859 0
M  V30 305 H 27.31 -1.03748 -2.35784 0
M  V30 306 H 27.268 0.524113 -3.10001 0
M  V30 307 N 31.0401 0.771051 -1.3745 0
M  V30 308 C 32.0031 1.86598 -1.33093 0
M  V30 309 C 33.0031 1.59076 -0.234845 0
M  V30 310 O 34.1931 1.67145 -0.490732 0
M  V30 311 C 31.3251 3.23747 -1.06773 0
M  V30 312 H 32.5181 1.91873 -2.30488 0
M  V30 313 H 30.0711 0.970876 -1.2249 0
M  V30 314 H 30.8061 3.24148 -0.099129 0
M  V30 315 H 30.5911 3.45115 -1.86112 0
M  V30 316 H 32.0811 4.03824 -1.06377 0
M  V30 317 N 32.5182 1.22032 0.997298 0
M  V30 318 C 33.4812 0.987909 2.06816 0
M  V30 319 C 34.4812 -0.0440084 1.6074 0
M  V30 320 O 35.6712 0.194053 1.73116 0
M  V30 321 C 32.8032 0.49132 3.37341 0
M  V30 322 H 33.9962 1.93803 2.28868 0
M  V30 323 H 31.5492 1.03838 1.16822 0
M  V30 324 H 32.2842 -0.463364 3.20973 0
M  V30 325 H 32.0692 1.23575 3.72118 0
M  V30 326 H 33.5592 0.348824 4.16141 0
M  V30 327 N 33.9963 -1.19345 1.0293 0
M  V30 328 C 34.9063 -2.26245 0.620515 0
M  V30 329 C 35.9223 -1.70486 -0.347928 0
M  V30 330 O 37.0983 -2.00347 -0.205704 0
M  V30 331 C 34.1633 -3.46693 -0.0218957 0
M  V30 332 C 33.2243 -4.17632 0.994102 0
M  V30 333 C 32.4573 -5.32329 0.382253 0
M  V30 334 O 32.6803 -5.64552 -0.814676 0
M  V30 335 O 31.6143 -5.91664 1.10531 0
M  V30 336 H 35.4403 -2.63453 1.51083 0
M  V30 337 H 33.0253 -1.26207 0.799513 0
M  V30 338 H 34.9073 -4.19683 -0.380072 0
M  V30 339 H 33.5823 -3.11333 -0.886209 0
M  V30 340 H 32.4893 -3.4676 1.40387 0
M  V30 341 H 33.8223 -4.56964 1.8288 0
M  V30 342 N 35.4744 -0.807222 -1.35358 0
M  V30 343 C 36.7514 -0.311126 -1.9311 0
M  V30 344 C 37.1314 1.19937 -1.73719 0
M  V30 345 O 36.4794 1.99918 -1.10657 0
M  V30 346 C 36.6894 -0.723226 -3.41424 0
M  V30 347 C 38.0374 -0.713078 -4.18569 0
M  V30 348 O 39.0614 -0.664811 -3.49941 0
M  V30 349 O 37.9204 -0.772022 -5.41019 0
M  V30 350 H 35.0144 -0.081526 -0.822972 0
M  V30 351 H 37.5604 -0.890962 -1.4443 0
M  V30 352 H 36.3324 -1.76426 -3.4927 0
M  V30 353 H 35.9554 -0.118232 -3.97424 0
M  V30 354 N 36.9525 1.47285 -0.560781 0
M  V30 355 C 38.2295 1.9558 0.0277798 0
M  V30 356 C 38.6095 1.5034 1.48192 0
M  V30 357 O 37.9575 0.743882 2.16052 0
M  V30 358 C 38.1675 3.48789 -0.121418 0
M  V30 359 C 39.5155 4.24594 0.0220912 0
M  V30 360 O 40.5395 3.56166 -0.0491439 0
M  V30 361 O 39.3985 5.46217 0.175958 0
M  V30 362 H 36.4925 0.824663 0.0621342 0
M  V30 363 H 39.0385 1.5767 -0.627556 0
M  V30 364 H 37.8105 3.74533 -1.13316 0
M  V30 365 H 37.4335 3.93473 0.571366 0
M  V30 366 N 38.4306 0.297415 1.54768 0
M  V30 367 C 39.3606 -0.573494 2.26348 0
M  V30 368 C 40.3416 -1.14085 1.26169 0
M  V30 369 O 41.5266 -1.17086 1.54934 0
M  V30 370 C 38.6566 -1.74716 3.00153 0
M  V30 371 C 37.6106 -1.31032 4.07449 0
M  V30 372 C 36.9366 -2.56887 4.68949 0
M  V30 373 C 38.2366 -0.444183 5.20408 0
M  V30 374 H 39.9306 0.0235131 2.99391 0
M  V30 375 H 37.4766 0.0127488 1.43994 0
M  V30 376 H 39.4296 -2.3625 3.48947 0
M  V30 377 H 38.1536 -2.37035 2.24682 0
M  V30 378 H 36.8126 -0.718066 3.59499 0
M  V30 379 H 36.4606 -3.17512 3.90122 0
M  V30 380 H 36.1606 -2.2836 5.41411 0
M  V30 381 H 37.6846 -3.19229 5.20505 0
M  V30 382 H 39.0986 -0.9651 5.65118 0
M  V30 383 H 37.4956 -0.252846 5.99567 0
M  V30 384 H 38.5656 0.531609 4.81977 0
M  V30 385 N 39.9087 -1.5758 0.0250728 0
M  V30 386 C 41.3197 -1.79476 -0.514323 0
M  V30 387 C 41.6707 -0.934956 -1.72491 0
M  V30 388 O 40.7957 -0.144245 -2.15919 0
M  V30 389 C 41.3907 -3.25503 -0.939842 0
M  V30 390 C 39.9497 -3.48408 -1.42438 0
M  V30 391 C 39.0967 -2.74583 -0.387201 0
M  V30 392 H 42.0477 -1.567 0.25113 0
M  V30 393 H 42.0687 -3.34992 -1.80445 0
M  V30 394 H 41.5807 -3.88056 -0.0585628 0
M  V30 395 H 39.6817 -2.91103 -2.32572 0
M  V30 396 H 39.7947 -4.57119 -1.43455 0
M  V30 397 H 38.1587 -2.39942 -0.854409 0
M  V30 398 H 38.9417 -3.39849 0.485543 0
M  V30 399 N 41.3868 0.248026 -1.55636 0
M  V30 400 C 42.6148 0.993808 -1.81469 0
M  V30 401 C 43.0298 1.78991 -0.60064 0
M  V30 402 O 42.3868 1.77345 0.430682 0
M  V30 403 C 42.4378 1.93258 -3.05506 0
M  V30 404 O 42.1588 1.16869 -4.22224 0
M  V30 405 C 43.6598 2.79444 -3.4413 0
M  V30 406 H 40.8798 0.292486 -0.603898 0
M  V30 407 H 43.4238 0.271253 -2.02693 0
M  V30 408 H 41.5788 2.60943 -2.86335 0
M  V30 409 H 41.9928 1.80359 -4.92515 0
M  V30 410 H 43.4668 3.41066 -4.34026 0
M  V30 411 H 43.9438 3.50499 -2.64665 0
M  V30 412 H 44.5498 2.17214 -3.65648 0
M  V30 413 N 42.8649 1.48995 0.513639 0
M  V30 414 C 44.1109 1.58076 1.27042 0
M  V30 415 C 44.4439 0.261026 1.92438 0
M  V30 416 O 43.7189 -0.734393 1.80103 0
M  V30 417 C 44.0019 2.73091 2.34719 0
M  V30 418 C 43.8549 4.14821 1.73907 0
M  V30 419 C 45.1739 2.83796 3.36375 0
M  V30 420 H 42.2929 0.575391 0.460536 0
M  V30 421 H 44.9349 1.81232 0.570516 0
M  V30 422 H 43.0849 2.53479 2.94416 0
M  V30 423 H 44.7569 4.45917 1.18135 0
M  V30 424 H 42.9999 4.21058 1.0437 0
M  V30 425 H 43.6709 4.91147 2.51949 0
M  V30 426 H 46.1469 3.01611 2.86653 0
M  V30 427 H 45.0229 3.65971 4.09093 0
M  V30 428 H 45.2839 1.92624 3.9793 0
M  V30 429 N 44.343 -0.763751 1.37857 0
M  V30 430 C 45.253 -1.90817 1.36478 0
M  V30 431 C 46.269 -1.71997 0.263248 0
M  V30 432 O 47.445 -1.95095 0.499979 0
M  V30 433 C 44.51 -3.2605 1.17864 0
M  V30 434 C 43.571 -3.57467 2.3773 0
M  V30 435 C 42.804 -4.86249 2.19995 0
M  V30 436 O 43.027 -5.57884 1.18836 0
M  V30 437 O 41.961 -5.16911 3.08361 0
M  V30 438 H 45.787 -1.94933 2.32884 0
M  V30 439 H 43.372 -0.907619 1.1867 0
M  V30 440 H 45.254 -4.06924 1.09504 0
M  V30 441 H 43.929 -3.22769 0.245372 0
M  V30 442 H 42.836 -2.76796 2.51664 0
M  V30 443 H 44.169 -3.655 3.29652 0
M  V30 444 N 45.8211 -1.22559 -0.990812 0
M  V30 445 C 46.7511 -1.0218 -2.09956 0
M  V30 446 C 47.7321 0.0579394 -1.70001 0
M  V30 447 O 48.9171 -0.104684 -1.93918 0
M  V30 448 C 46.0471 -0.601023 -3.4206 0
M  V30 449 C 45.0011 -1.62694 -3.95872 0
M  V30 450 C 44.3271 -1.06193 -5.24049 0
M  V30 451 C 45.6271 -3.01743 -4.2632 0
M  V30 452 H 47.3211 -1.94916 -2.27262 0
M  V30 453 H 44.8671 -0.938566 -1.09211 0
M  V30 454 H 46.8201 -0.445561 -4.19038 0
M  V30 455 H 45.5441 0.362005 -3.24588 0
M  V30 456 H 44.2031 -1.77021 -3.21028 0
M  V30 457 H 43.8511 -0.0901903 -5.02919 0
M  V30 458 H 43.5511 -1.74732 -5.61019 0
M  V30 459 H 45.0751 -0.918092 -6.03658 0
M  V30 460 H 46.4891 -2.90777 -4.94087 0
M  V30 461 H 44.8861 -3.67425 -4.74467 0
M  V30 462 H 45.9561 -3.51518 -3.34011 0
M  V30 463 N 47.2992 1.18797 -1.03562 0
M  V30 464 C 48.2312 2.21731 -0.580337 0
M  V30 465 C 49.2442 1.59051 0.347349 0
M  V30 466 O 50.4332 1.77929 0.142669 0
M  V30 467 C 47.5332 3.38459 0.172805 0
M  V30 468 C 46.7062 4.3072 -0.761496 0
M  V30 469 C 45.7652 5.26174 -0.0525547 0
M  V30 470 O 44.7912 5.65108 -0.681333 0
M  V30 471 N 45.9932 5.67624 1.21586 0
M  V30 472 H 48.7582 2.61417 -1.46565 0
M  V30 473 H 46.3192 1.33531 -0.915476 0
M  V30 474 H 48.3112 3.99335 0.656793 0
M  V30 475 H 46.8812 2.97507 0.959602 0
M  V30 476 H 46.1012 3.67525 -1.42544 0
M  V30 477 H 47.3892 4.89267 -1.39626 0
M  V30 478 H 46.7872 5.38038 1.74732 0
M  V30 479 H 45.3442 6.30721 1.64421 0
M  V30 480 N 48.7773 0.814389 1.34928 0
M  V30 481 C 50.0253 0.397636 1.9815 0
M  V30 482 C 50.3463 -1.04069 1.64908 0
M  V30 483 O 49.6163 -1.72121 0.93548 0
M  V30 484 H 48.1963 0.144043 0.732981 0
M  V30 485 H 50.8583 1.04195 1.6471 0
M  V30 486 H 49.9543 0.509688 3.0791 0
M  V30 487 N 50.2554 -1.46986 0.568584 0
M  V30 488 C 51.5014 -2.02741 0.0488709 0
M  V30 489 C 51.8344 -1.44077 -1.30214 0
M  V30 490 O 51.1094 -0.600552 -1.84996 0
M  V30 491 C 51.3924 -3.60086 -0.032047 0
M  V30 492 C 51.2454 -4.29162 1.34686 0
M  V30 493 C 52.5644 -4.33838 -0.739798 0
M  V30 494 H 49.6834 -0.736749 0.0192338 0
M  V30 495 H 52.3254 -1.75289 0.733065 0
M  V30 496 H 50.4754 -3.83606 -0.61473 0
M  V30 497 H 52.1474 -4.16948 1.97362 0
M  V30 498 H 50.3904 -3.89073 1.91846 0
M  V30 499 H 51.0614 -5.37826 1.24285 0
M  V30 500 H 53.5374 -4.15378 -0.244939 0
M  V30 501 H 52.4134 -5.43537 -0.765406 0
M  V30 502 H 52.6744 -4.03875 -1.79827 0
M  V30 503 N 51.7335 -0.305618 -1.54608 0
M  V30 504 C 52.9795 0.302746 -2.00528 0
M  V30 505 C 53.3125 1.53184 -1.19367 0
M  V30 506 O 52.5875 1.92598 -0.271321 0
M  V30 507 C 52.8705 0.654756 -3.54097 0
M  V30 508 C 52.7235 -0.583793 -4.45995 0
M  V30 509 C 54.0425 1.47947 -4.14487 0
M  V30 510 H 51.1615 0.108564 -0.72896 0
M  V30 511 H 53.8035 -0.418634 -1.85331 0
M  V30 512 H 51.9535 1.26935 -3.67178 0
M  V30 513 H 53.6255 -1.22224 -4.44814 0
M  V30 514 H 51.8685 -1.21615 -4.16404 0
M  V30 515 H 52.5395 -0.293287 -5.5122 0
M  V30 516 H 55.0155 0.96013 -4.04871 0
M  V30 517 H 53.8915 1.69454 -5.22088 0
M  V30 518 H 54.1525 2.47011 -3.66658 0
M  V30 519 N 53.2116 1.57565 -0.0334293 0
M  V30 520 C 54.6226 1.79746 0.504798 0
M  V30 521 C 54.9736 0.944091 1.71992 0
M  V30 522 O 54.0986 0.155694 2.15839 0
M  V30 523 C 54.6936 3.25997 0.922567 0
M  V30 524 C 53.2526 3.49159 1.40588 0
M  V30 525 C 52.3996 2.74785 0.372633 0
M  V30 526 H 55.3506 1.56565 -0.259436 0
M  V30 527 H 55.3716 3.35945 1.78666 0
M  V30 528 H 54.8836 3.88081 0.0379825 0
M  V30 529 H 52.9846 2.92332 2.31025 0
M  V30 530 H 53.0976 4.57873 1.41028 0
M  V30 531 H 51.4616 2.40391 0.841672 0
M  V30 532 H 52.2446 3.39587 -0.503559 0
M  V30 533 N 54.6897 -0.239769 1.55765 0
M  V30 534 C 56.1057 -0.588624 1.48349 0
M  V30 535 C 56.3057 -1.88005 0.72502 0
M  V30 536 O 55.3617 -2.51186 0.257269 0
M  V30 537 C 56.6747 -0.68474 2.928 0
M  V30 538 C 58.2227 -0.77659 3.03213 0
M  V30 539 C 58.6977 -0.904207 4.48986 0
M  V30 540 N 60.1887 -0.968896 4.52953 0
M  V30 541 C 60.9237 -1.08703 5.63002 0
M  V30 542 N 60.4197 -1.17026 6.82845 0
M  V30 543 N 62.2127 -1.12074 5.50814 0
M  V30 544 H 54.3637 0.607911 2.03515 0
M  V30 545 H 56.6267 0.21083 0.924259 0
M  V30 546 H 56.3327 0.194284 3.51163 0
M  V30 547 H 56.2067 -1.55435 3.43686 0
M  V30 548 H 58.5937 -1.64606 2.44926 0
M  V30 549 H 58.6747 0.118315 2.55526 0
M  V30 550 H 58.3187 -0.0392633 5.07885 0
M  V30 551 H 58.2487 -1.81426 4.9436 0
M  V30 552 H 60.7397 -0.915633 3.6664 0
M  V30 553 H 61.0527 -1.25966 7.62465 0
M  V30 554 H 59.3977 -1.13971 6.85591 0
M  V30 555 H 62.5887 -1.05226 4.5612 0
M  V30 556 H 62.7617 -1.20936 6.36615 0
M  V30 557 N 56.1678 -1.49265 -0.50573 0
M  V30 558 C 57.4158 -1.582 -1.25766 0
M  V30 559 C 57.7368 -0.268482 -1.93143 0
M  V30 560 O 57.0068 0.711833 -1.8251 0
M  V30 561 H 55.5868 -0.582873 -0.467191 0
M  V30 562 H 58.2488 -1.85865 -0.586525 0
M  V30 563 H 57.3448 -2.37563 -2.02412 0
M  V30 564 N 57.6459 0.756429 -1.3826 0
M  V30 565 C 58.8919 1.51772 -1.34511 0
M  V30 566 C 59.2249 1.94089 0.0656691 0
M  V30 567 O 58.4999 1.65221 1.02626 0
M  V30 568 C 58.7829 2.77226 -2.29821 0
M  V30 569 C 58.6359 2.41065 -3.79747 0
M  V30 570 C 59.9549 3.79236 -2.23312 0
M  V30 571 H 57.0739 0.550578 -0.489931 0
M  V30 572 H 59.7159 0.866607 -1.69086 0
M  V30 573 H 57.8659 3.32784 -2.00467 0
M  V30 574 H 59.5379 1.91303 -4.19763 0
M  V30 575 H 57.7809 1.7356 -3.97567 0
M  V30 576 H 58.4519 3.3081 -4.41892 0
M  V30 577 H 60.9279 3.3321 -2.49219 0
M  V30 578 H 59.8039 4.64714 -2.92116 0
M  V30 579 H 60.0649 4.24615 -1.23102 0
M  V30 580 N 59.124 1.23083 0.984299 0
M  V30 581 C 60.072 1.00593 2.09723 0
M  V30 582 C 61.066 -0.0538014 1.69315 0
M  V30 583 O 62.272 0.0993719 1.79725 0
M  V30 584 H 58.647 0.30817 0.685956 0
M  V30 585 H 60.618 1.95012 2.2586 0
M  V30 586 C 59.367 0.609601 3.42314 0
M  V30 587 H 58.69 1.41675 3.73856 0
M  V30 588 H 60.13 0.491726 4.21139 0
M  V30 589 C 58.589 -0.681745 3.2993 0
M  V30 590 O 59.119 -1.73192 3.62446 0
M  V30 591 N 57.325 -0.656178 2.83095 0
M  V30 592 H 56.872 0.198759 2.56832 0
M  V30 593 H 56.83 -1.52044 2.75191 0
M  V30 594 N 60.6021 -1.18246 1.0419 0
M  V30 595 C 61.5321 -2.24127 0.654914 0
M  V30 596 C 62.5131 -1.66617 -0.342451 0
M  V30 597 O 63.6981 -1.92924 -0.222277 0
M  V30 598 C 60.8281 -3.47295 0.0183757 0
M  V30 599 C 59.7821 -4.17563 0.939414 0
M  V30 600 C 59.1081 -5.34438 0.167286 0
M  V30 601 C 60.4081 -4.70917 2.25908 0
M  V30 602 H 62.1021 -2.56753 1.54007 0
M  V30 603 H 59.6481 -1.23414 0.74195 0
M  V30 604 H 61.6011 -4.20572 -0.264082 0
M  V30 605 H 60.3251 -3.13907 -0.901664 0
M  V30 606 H 58.9841 -3.46186 1.20628 0
M  V30 607 H 58.6321 -4.97298 -0.7552 0
M  V30 608 H 58.3321 -5.82388 0.780901 0
M  V30 609 H 59.8561 -6.10504 -0.108125 0
M  V30 610 H 61.2701 -5.35882 2.03724 0
M  V30 611 H 59.6671 -5.29406 2.82577 0
M  V30 612 H 60.7371 -3.88272 2.9047 0
M  V30 613 N 62.0802 -0.821533 -1.34494 0
M  V30 614 C 63.0122 -0.199946 -2.28326 0
M  V30 615 C 64.0252 0.609377 -1.50965 0
M  V30 616 O 65.2142 0.439285 -1.7301 0
M  V30 617 C 62.3142 0.738431 -3.30757 0
M  V30 618 C 61.4872 -0.0277632 -4.37391 0
M  V30 619 C 60.5462 0.831332 -5.19591 0
M  V30 620 O 59.5722 0.276822 -5.68526 0
M  V30 621 N 60.7742 2.15132 -5.39165 0
M  V30 622 H 63.5392 -1.00609 -2.82308 0
M  V30 623 H 61.1002 -0.678366 -1.47003 0
M  V30 624 H 63.0922 1.31773 -3.82646 0
M  V30 625 H 61.6622 1.44533 -2.7718 0
M  V30 626 H 60.8822 -0.788359 -3.86236 0
M  V30 627 H 62.1702 -0.555251 -5.05761 0
M  V30 628 H 61.5682 2.62559 -5.01078 0
M  V30 629 H 60.1252 2.6795 -5.94177 0
M  V30 630 N 63.5583 1.46682 -0.576371 0
M  V30 631 C 64.4683 2.34032 0.163141 0
M  V30 632 C 65.4843 1.49367 0.892501 0
M  V30 633 O 66.6603 1.82252 0.857106 0
M  V30 634 C 63.7253 3.26435 1.16795 0
M  V30 635 C 62.7863 4.26998 0.443944 0
M  V30 636 C 62.0193 5.14986 1.40088 0
M  V30 637 O 62.2423 5.05785 2.637 0
M  V30 638 O 61.1763 5.94906 0.914917 0
M  V30 639 H 65.0023 2.98607 -0.55388 0
M  V30 640 H 62.5873 1.45554 -0.336821 0
M  V30 641 H 64.4693 3.83459 1.74748 0
M  V30 642 H 63.1443 2.64465 1.86655 0
M  V30 643 H 62.0513 3.7368 -0.177271 0
M  V30 644 H 63.3843 4.91736 -0.213566 0
M  V30 645 N 65.0364 0.313813 1.54444 0
M  V30 646 C 66.2834 -0.291675 2.00388 0
M  V30 647 C 66.6114 -1.52904 1.2021 0
M  V30 648 O 65.8664 -1.93833 0.269707 0
M  V30 649 C 66.1654 -0.680386 3.50864 0
M  V30 650 C 65.8314 0.456699 4.48581 0
M  V30 651 C 64.4934 0.768824 4.75018 0
M  V30 652 C 66.8454 1.22098 5.06697 0
M  V30 653 C 64.1734 1.84812 5.56831 0
M  V30 654 C 66.5254 2.29029 5.89685 0
M  V30 655 C 65.1894 2.60834 6.14428 0
M  V30 656 H 64.4594 -0.106732 0.733273 0
M  V30 657 H 67.1064 0.43557 1.86481 0
M  V30 658 H 65.4114 -1.48791 3.62448 0
M  V30 659 H 67.1084 -1.16026 3.83847 0
M  V30 660 H 63.6984 0.203337 4.28117 0
M  V30 661 H 67.8824 0.993096 4.86263 0
M  V30 662 H 63.1384 2.09912 5.74236 0
M  V30 663 H 67.3124 2.887 6.33739 0
M  V30 664 H 64.9394 3.44596 6.77612 0
M  V30 665 N 66.5145 -1.57545 0.0417849 0
M  V30 666 C 67.4445 -2.14009 -0.933929 0
M  V30 667 C 68.4255 -1.05938 -1.33083 0
M  V30 668 O 69.6105 -1.33833 -1.40721 0
M  V30 669 C 66.7405 -2.67747 -2.21199 0
M  V30 670 C 65.6945 -3.80718 -1.95544 0
M  V30 671 C 65.0205 -4.20935 -3.29724 0
M  V30 672 C 66.3205 -5.06258 -1.28452 0
M  V30 673 H 68.0145 -2.95788 -0.463645 0
M  V30 674 H 65.5605 -1.42285 -0.221573 0
M  V30 675 H 67.5135 -3.05886 -2.89848 0
M  V30 676 H 66.2375 -1.83147 -2.70416 0
M  V30 677 H 64.8965 -3.43037 -1.2931 0
M  V30 678 H 64.5445 -3.33298 -3.76724 0
M  V30 679 H 64.2445 -4.9707 -3.13361 0
M  V30 680 H 65.7685 -4.61666 -3.9962 0
M  V30 681 H 67.1825 -5.41903 -1.8712 0
M  V30 682 H 65.5795 -5.87475 -1.22445 0
M  V30 683 H 66.6495 -4.84207 -0.259219 0
M  V30 684 N 67.9926 0.231505 -1.5589 0
M  V30 685 C 68.9406 1.30649 -1.92441 0
M  V30 686 C 69.9346 1.49037 -0.805254 0
M  V30 687 O 71.1406 1.50329 -0.990007 0
M  V30 688 H 67.5156 0.437812 -0.611412 0
M  V30 689 H 69.4866 0.970973 -2.82161 0
M  V30 690 C 68.2356 2.65179 -2.24889 0
M  V30 691 H 67.5586 2.51835 -3.10514 0
M  V30 692 H 68.9986 3.39234 -2.54355 0
M  V30 693 C 67.4576 3.19439 -1.07054 0
M  V30 694 O 67.9876 4.00371 -0.326499 0
M  V30 695 N 66.1936 2.77675 -0.85703 0
M  V30 696 H 65.7406 2.11969 -1.46379 0
M  V30 697 H 65.6986 3.14321 -0.0703223 0
M  V30 698 N 69.4707 1.49531 0.497807 0
M  V30 699 C 70.7167 1.59415 1.25358 0
M  V30 700 C 71.0497 0.281422 1.9215 0
M  V30 701 O 70.3247 -0.715249 1.80871 0
M  V30 702 C 70.6077 2.75566 2.3181 0
M  V30 703 C 70.4607 4.16642 1.69498 0
M  V30 704 C 71.7797 2.87347 3.33346 0
M  V30 705 H 68.8987 0.580244 0.454408 0
M  V30 706 H 71.5407 1.81827 0.551262 0
M  V30 707 H 69.6907 2.56587 2.91711 0
M  V30 708 H 71.3627 4.47145 1.13399 0
M  V30 709 H 69.6057 4.22141 0.998978 0
M  V30 710 H 70.2767 4.93792 2.46725 0
M  V30 711 H 72.7527 3.04634 2.83438 0
M  V30 712 H 71.6287 3.70289 4.05188 0
M  V30 713 H 71.8897 1.96834 3.95865 0
M  V30 714 N 70.9488 -0.749086 1.3866 0
M  V30 715 C 72.1768 -1.53834 1.38358 0
M  V30 716 C 72.5918 -1.88783 -0.0255219 0
M  V30 717 O 71.9488 -1.53101 -0.993292 0
M  V30 718 C 71.9998 -2.83468 2.2434 0
M  V30 719 O 71.7208 -2.50008 3.5976 0
M  V30 720 C 73.2218 -3.7758 2.32267 0
M  V30 721 H 70.4418 -0.47585 0.473083 0
M  V30 722 H 72.9858 -0.926726 1.82297 0
M  V30 723 H 71.1408 -3.40995 1.83851 0
M  V30 724 H 71.5548 -3.33182 4.05081 0
M  V30 725 H 73.0288 -4.65478 2.96706 0
M  V30 726 H 73.5058 -4.18334 1.33765 0
M  V30 727 H 74.1118 -3.25976 2.73166 0
M  V30 728 N 72.4269 -1.23603 -0.977757 0
M  V30 729 C 73.6519 -1.09735 -1.75991 0
M  V30 730 C 74.0769 0.346858 -1.84874 0
M  V30 731 O 73.4349 1.25093 -1.3123 0
M  V30 732 C 73.4829 -1.73051 -3.16363 0
M  V30 733 O 72.5869 -0.994452 -4.0023 0
M  V30 734 H 71.9279 -0.384476 -0.541364 0
M  V30 735 H 74.4579 -1.6371 -1.2272 0
M  V30 736 H 74.4679 -1.78398 -3.66931 0
M  V30 737 H 73.1429 -2.78137 -3.09213 0
M  V30 738 H 71.7199 -1.01812 -3.58732 0
M  V30 739 N 73.905 1.17692 -1.04816 0
M  V30 740 C 75.151 1.88137 -0.75711 0
M  V30 741 C 75.484 1.80604 0.713841 0
M  V30 742 O 74.759 1.21146 1.52164 0
M  V30 743 C 75.042 3.38318 -1.2334 0
M  V30 744 C 74.895 3.54622 -2.76701 0
M  V30 745 C 76.214 4.32214 -0.829415 0
M  V30 746 H 73.333 0.683163 -0.27651 0
M  V30 747 H 75.975 1.38424 -1.30149 0
M  V30 748 H 74.125 3.80787 -0.770286 0
M  V30 749 H 75.797 3.21194 -3.31107 0
M  V30 750 H 74.04 2.97026 -3.16161 0
M  V30 751 H 74.711 4.60028 -3.05088 0
M  V30 752 H 77.187 3.97565 -1.22805 0
M  V30 753 H 76.063 5.35838 -1.19033 0
M  V30 754 H 76.324 4.41294 0.266891 0
M  V30 755 N 75.3831 0.828654 1.34056 0
M  V30 756 C 76.3331 0.226828 2.26869 0
M  V30 757 C 77.3171 -0.612243 1.48796 0
M  V30 758 O 78.5091 -0.465884 1.70759 0
M  V30 759 C 75.6381 -0.605654 3.37915 0
M  V30 760 C 74.7241 0.244361 4.23395 0
M  V30 761 N 75.1151 1.31815 4.88322 0
M  V30 762 C 73.4131 0.0296616 4.4599 0
M  V30 763 C 74.1141 1.83895 5.51867 0
M  V30 764 N 73.0901 1.14196 5.3147 0
M  V30 765 H 76.8921 1.04811 2.74576 0
M  V30 766 H 74.4061 0.67205 1.47842 0
M  V30 767 H 76.4031 -1.05302 4.03382 0
M  V30 768 H 75.0631 -1.42504 2.91758 0
M  V30 769 H 76.0741 1.70099 4.8917 0
M  V30 770 H 72.7511 -0.757097 4.10578 0
M  V30 771 H 74.1411 2.7376 6.136 0
M  V30 772 N 76.8612 -1.46375 0.584142 0
M  V30 773 C 77.7912 -2.33103 -0.136037 0
M  V30 774 C 78.7722 -1.45431 -0.882255 0
M  V30 775 O 79.9572 -1.74246 -0.857434 0
M  V30 776 C 77.0872 -3.27731 -1.14933 0
M  V30 777 C 76.0412 -4.24855 -0.517862 0
M  V30 778 C 75.3672 -5.09001 -1.63773 0
M  V30 779 C 76.6672 -5.19439 0.545886 0
M  V30 780 H 78.3612 -2.93568 0.588086 0
M  V30 781 H 75.9072 -1.41166 0.284259 0
M  V30 782 H 77.8602 -3.87261 -1.66153 0
M  V30 783 H 76.5842 -2.65377 -1.90375 0
M  V30 784 H 75.2432 -3.6659 -0.0267361 0
M  V30 785 H 74.8912 -4.43031 -2.38185 0
M  V30 786 H 74.5912 -5.74777 -1.22085 0
M  V30 787 H 76.1152 -5.71396 -2.15266 0
M  V30 788 H 77.5292 -5.73177 0.118704 0
M  V30 789 H 75.9262 -5.93566 0.88317 0
M  V30 790 H 76.9962 -4.63285 1.43162 0
M  V30 791 N 78.3393 -0.321999 -1.54275 0
M  V30 792 C 79.5863 0.281044 -2.0054 0
M  V30 793 C 79.9143 1.52265 -1.21019 0
M  V30 794 O 79.1693 1.93687 -0.279982 0
M  V30 795 C 79.4683 0.661769 -3.5122 0
M  V30 796 C 79.1343 -0.480482 -4.48333 0
M  V30 797 C 77.7963 -0.794005 -4.74604 0
M  V30 798 C 80.1483 -1.24783 -5.06042 0
M  V30 799 C 77.4763 -1.87763 -5.55844 0
M  V30 800 C 79.8283 -2.32153 -5.88462 0
M  V30 801 C 78.4923 -2.64089 -6.13036 0
M  V30 802 H 77.7623 0.102841 -0.733829 0
M  V30 803 H 80.4093 -0.445453 -1.86247 0
M  V30 804 H 78.7143 1.46867 -3.63232 0
M  V30 805 H 80.4113 1.13989 -3.84457 0
M  V30 806 H 77.0013 -0.226039 -4.28004 0
M  V30 807 H 81.1853 -1.01887 -4.85729 0
M  V30 808 H 76.4413 -2.12954 -5.73115 0
M  V30 809 H 80.6153 -2.92057 -6.32199 0
M  V30 810 H 78.2423 -3.48185 -6.75775 0
M  V30 811 N 79.8174 1.5752 -0.0501392 0
M  V30 812 C 80.7644 2.1147 0.924603 0
M  V30 813 C 81.7344 1.02182 1.30951 0
M  V30 814 O 82.9194 1.29723 1.39916 0
M  V30 815 C 80.0594 2.66337 2.19451 0
M  V30 816 C 79.1724 3.89708 1.86418 0
M  V30 817 C 78.3074 4.32893 3.07859 0
M  V30 818 C 77.3464 5.48967 2.70742 0
M  V30 819 N 76.4834 5.87211 3.84874 0
M  V30 820 H 81.3234 2.94465 0.457639 0
M  V30 821 H 78.8604 1.45531 0.214266 0
M  V30 822 H 80.8184 2.96247 2.93758 0
M  V30 823 H 79.4484 1.86141 2.63726 0
M  V30 824 H 78.5004 3.66396 1.02264 0
M  V30 825 H 79.8124 4.74074 1.55096 0
M  V30 826 H 78.9664 4.6435 3.90466 0
M  V30 827 H 77.7054 3.47336 3.42358 0
M  V30 828 H 76.7104 5.17183 1.86551 0
M  V30 829 H 77.9354 6.3624 2.37436 0
M  V30 830 H 75.8814 5.04607 4.19175 0
M  V30 831 H 75.7984 6.66266 3.57247 0
M  V30 832 H 77.0664 6.23282 4.68123 0
M  V30 833 N 81.2955 -0.223234 1.56011 0
M  V30 834 C 82.2055 -1.29766 1.95443 0
M  V30 835 C 83.2215 -1.51373 0.858028 0
M  V30 836 O 84.3975 -1.64536 1.16146 0
M  V30 837 C 81.4625 -2.62772 2.26167 0
M  V30 838 C 80.5235 -2.49482 3.49367 0
M  V30 839 C 79.7565 -3.76145 3.78616 0
M  V30 840 O 79.9795 -4.79087 3.09568 0
M  V30 841 O 78.9135 -3.73358 4.72109 0
M  V30 842 H 82.7395 -0.99309 2.87004 0
M  V30 843 H 80.3245 -0.425958 1.43199 0
M  V30 844 H 82.2065 -3.41327 2.47131 0
M  V30 845 H 80.8815 -2.92913 1.37781 0
M  V30 846 H 79.7885 -1.69133 3.33684 0
M  V30 847 H 81.1215 -2.2428 4.38131 0
M  V30 848 N 82.7736 -1.49793 -0.48987 0
M  V30 849 C 84.1896 -1.36803 -0.822022 0
M  V30 850 C 84.3896 -0.409652 -1.97292 0
M  V30 851 O 83.4456 0.154614 -2.52026 0
M  V30 852 C 84.7586 -2.77768 -1.15175 0
M  V30 853 C 86.3066 -2.86549 -1.25931 0
M  V30 854 C 86.7816 -4.28306 -1.62228 0
M  V30 855 N 88.2726 -4.31169 -1.69256 0
M  V30 856 C 89.0076 -5.37832 -1.98807 0
M  V30 857 N 88.5036 -6.54726 -2.26507 0
M  V30 858 N 90.2966 -5.25258 -2.00152 0
M  V30 859 H 82.4476 -2.10691 0.268881 0
M  V30 860 H 84.7106 -0.946241 0.057728 0
M  V30 861 H 84.4166 -3.49648 -0.379335 0
M  V30 862 H 84.2906 -3.13836 -2.09253 0
M  V30 863 H 86.6776 -2.14899 -2.02243 0
M  V30 864 H 86.7586 -2.54049 -0.298776 0
M  V30 865 H 86.4026 -5.00486 -0.864622 0
M  V30 866 H 86.3326 -4.58279 -2.594 0
M  V30 867 H 88.8236 -3.4687 -1.49965 0
M  V30 868 H 89.1366 -7.31833 -2.48276 0
M  V30 869 H 87.4816 -6.57933 -2.23939 0
M  V30 870 H 90.6726 -4.32938 -1.77996 0
M  V30 871 H 90.8456 -6.08476 -2.22848 0
M  V30 872 N 84.2517 0.741722 -1.39055 0
M  V30 873 C 85.4977 1.50234 -1.37118 0
M  V30 874 C 85.8527 1.92368 0.0350439 0
M  V30 875 O 85.1457 1.63422 1.00019 0
M  V30 876 C 85.3397 2.7592 -2.27163 0
M  V30 877 C 85.1687 2.46074 -3.76401 0
M  V30 878 C 83.9387 2.38704 -4.45364 0
M  V30 879 C 86.1367 2.12062 -4.68545 0
M  V30 880 N 84.1187 2.01258 -5.79973 0
M  V30 881 C 85.4897 1.85005 -5.91754 0
M  V30 882 C 87.5447 1.98473 -4.56632 0
M  V30 883 C 86.2477 1.4573 -7.04383 0
M  V30 884 C 88.2737 1.60599 -5.69176 0
M  V30 885 C 87.6357 1.34423 -6.91455 0
M  V30 886 H 83.7347 0.548858 -0.557027 0
M  V30 887 H 86.3187 0.862642 -1.74547 0
M  V30 888 H 84.4897 3.3768 -1.91904 0
M  V30 889 H 86.2217 3.42068 -2.16267 0
M  V30 890 H 82.9767 2.55574 -3.98721 0
M  V30 891 H 83.4007 1.85147 -6.51191 0
M  V30 892 H 88.0427 2.17381 -3.62637 0
M  V30 893 H 85.7607 1.25562 -7.98286 0
M  V30 894 H 89.3467 1.507 -5.61944 0
M  V30 895 H 88.2267 1.05555 -7.77064 0
M  V30 896 N 85.7298 1.2412 0.971189 0
M  V30 897 C 87.0068 0.986867 1.6888 0
M  V30 898 C 87.3868 -0.491857 2.0529 0
M  V30 899 O 86.7348 -1.46531 1.75331 0
M  V30 900 C 86.9448 1.9063 2.92338 0
M  V30 901 C 88.2928 2.17515 3.64654 0
M  V30 902 O 89.3168 1.88254 3.02388 0
M  V30 903 O 88.1758 2.6719 4.7673 0
M  V30 904 H 85.2698 0.372944 0.738134 0
M  V30 905 H 87.8158 1.35203 1.02559 0
M  V30 906 H 86.5878 2.90552 2.62097 0
M  V30 907 H 86.2108 1.54408 3.66393 0
M  V30 908 N 87.2079 -1.17134 1.05439 0
M  V30 909 C 88.4359 -1.91372 0.786414 0
M  V30 910 C 88.8509 -1.76955 -0.658202 0
M  V30 911 O 88.2079 -1.10838 -1.44987 0
M  V30 912 C 88.2589 -3.42356 1.1608 0
M  V30 913 O 87.9799 -3.56332 2.54871 0
M  V30 914 C 89.4809 -4.33663 0.919322 0
M  V30 915 H 86.7009 -0.607118 0.285743 0
M  V30 916 H 89.2449 -1.48525 1.40572 0
M  V30 917 H 87.3999 -3.82939 0.586191 0
M  V30 918 H 87.8139 -4.49896 2.69618 0
M  V30 919 H 89.2879 -5.38099 1.231 0
M  V30 920 H 89.7649 -4.38959 -0.145359 0
M  V30 921 H 90.3709 -3.98796 1.47789 0
M  V30 922 N 88.686 -0.835752 -1.33615 0
M  V30 923 C 89.634 -0.255238 -2.31195 0
M  V30 924 C 90.628 0.61107 -1.57995 0
M  V30 925 O 91.834 0.500979 -1.72888 0
M  V30 926 H 88.209 -0.0638085 -0.749288 0
M  V30 927 H 90.18 -1.09283 -2.77669 0
M  V30 928 C 88.929 0.55754 -3.43201 0
M  V30 929 H 88.252 -0.0997553 -3.99676 0
M  V30 930 H 89.692 0.929622 -4.13683 0
M  V30 931 C 88.151 1.73515 -2.88781 0
M  V30 932 O 88.681 2.83376 -2.84712 0
M  V30 933 N 86.887 1.55603 -2.4543 0
M  V30 934 H 86.434 0.662354 -2.48939 0
M  V30 935 H 86.392 2.34545 -2.09371 0
M  V30 936 N 90.1641 1.46063 -0.591896 0
M  V30 937 C 91.1111 2.30399 0.136069 0
M  V30 938 C 92.0811 1.41169 0.875238 0
M  V30 939 O 93.2661 1.70112 0.86409 0
M  V30 940 C 90.4061 3.25804 1.13781 0
M  V30 941 C 89.5191 4.30134 0.401137 0
M  V30 942 C 88.6541 5.12659 1.39121 0
M  V30 943 C 87.6931 6.0873 0.641462 0
M  V30 944 N 86.8301 6.8409 1.58004 0
M  V30 945 H 91.6701 2.92118 -0.589144 0
M  V30 946 H 89.2071 1.43959 -0.302342 0
M  V30 947 H 91.1651 3.79569 1.73156 0
M  V30 948 H 89.7951 2.65872 1.83062 0
M  V30 949 H 88.8471 3.79152 -0.307826 0
M  V30 950 H 90.1591 4.98458 -0.184565 0
M  V30 951 H 89.3131 5.70747 2.05749 0
M  V30 952 H 88.0521 4.44316 2.01084 0
M  V30 953 H 87.0571 5.49786 -0.0385419 0
M  V30 954 H 88.2821 6.79095 0.0270945 0
M  V30 955 H 86.2281 6.18449 2.18761 0
M  V30 956 H 86.1451 7.48709 1.04738 0
M  V30 957 H 87.4131 7.4673 2.23639 0
M  V30 958 N 91.6422 0.330177 1.54103 0
M  V30 959 C 92.8882 -0.270806 2.00984 0
M  V30 960 C 93.2212 -1.51265 1.21789 0
M  V30 961 O 92.4962 -1.92142 0.301927 0
M  V30 962 C 92.7792 -0.598339 3.55094 0
M  V30 963 C 92.6322 0.654674 4.4501 0
M  V30 964 C 93.9512 -1.41334 4.16789 0
M  V30 965 H 91.0702 -0.0969531 0.730595 0
M  V30 966 H 93.7122 0.448066 1.84641 0
M  V30 967 H 91.8622 -1.21078 3.69151 0
M  V30 968 H 93.5342 1.29285 4.42813 0
M  V30 969 H 91.7772 1.28224 4.14416 0
M  V30 970 H 92.4482 0.380944 5.50684 0
M  V30 971 H 94.9242 -0.895597 4.06347 0
M  V30 972 H 93.8002 -1.61127 5.24718 0
M  V30 973 H 94.0612 -2.41146 3.70541 0
M  V30 974 N 93.1203 -1.57491 0.0584922 0
M  V30 975 C 94.3973 -1.84346 -0.653918 0
M  V30 976 C 94.7773 -0.948355 -1.88599 0
M  V30 977 O 94.1253 -0.0112403 -2.28497 0
M  V30 978 C 94.3353 -3.34239 -1.00425 0
M  V30 979 C 95.6833 -4.01431 -1.38342 0
M  V30 980 O 96.7073 -3.38907 -1.09637 0
M  V30 981 O 95.5663 -5.11683 -1.91943 0
M  V30 982 H 92.6603 -0.761112 -0.323478 0
M  V30 983 H 95.2063 -1.6947 0.0884125 0
M  V30 984 H 93.9783 -3.91089 -0.128625 0
M  V30 985 H 93.6013 -3.54329 -1.80378 0
M  V30 986 N 94.5984 0.214957 -1.56127 0
M  V30 987 C 95.5484 1.27006 -1.8935 0
M  V30 988 C 96.5324 1.41969 -0.757202 0
M  V30 989 O 97.7244 1.44673 -1.01973 0
M  V30 990 C 94.8534 2.61911 -2.2194 0
M  V30 991 C 93.9394 2.50822 -3.41978 0
M  V30 992 N 94.3304 2.09391 -4.60423 0
M  V30 993 C 92.6284 2.81765 -3.45723 0
M  V30 994 C 93.3294 2.09712 -5.42582 0
M  V30 995 N 92.3054 2.50454 -4.82466 0
M  V30 996 H 96.1074 0.940734 -2.78437 0
M  V30 997 H 93.6214 0.423492 -1.56781 0
M  V30 998 H 95.6184 3.38096 -2.43919 0
M  V30 999 H 94.2784 2.95684 -1.34169 0
M  V30 1000 H 95.2894 1.80416 -4.85459 0
M  V30 1001 H 91.9664 3.19865 -2.68314 0
M  V30 1002 H 93.3564 1.79748 -6.4741 0
M  V30 1003 N 96.0765 1.50051 0.48192 0
M  V30 1004 C 97.0265 1.64512 1.5786 0
M  V30 1005 C 98.0105 0.500073 1.52932 0
M  V30 1006 O 99.2025 0.753964 1.60139 0
M  V30 1007 C 96.3315 1.73263 2.9637 0
M  V30 1008 C 95.4175 2.93409 3.06222 0
M  V30 1009 N 95.8085 4.17236 2.85915 0
M  V30 1010 C 94.1065 2.91742 3.37346 0
M  V30 1011 C 94.8075 4.981 3.00451 0
M  V30 1012 N 93.7835 4.3184 3.30174 0
M  V30 1013 H 97.5855 2.57955 1.40842 0
M  V30 1014 H 95.0995 1.47086 0.688439 0
M  V30 1015 H 97.0965 1.81724 3.75209 0
M  V30 1016 H 95.7565 0.809711 3.14442 0
M  V30 1017 H 96.7675 4.46909 2.6171 0
M  V30 1018 H 93.4445 2.08907 3.61475 0
M  V30 1019 H 94.8345 6.06532 2.89082 0
M  V30 1020 N 97.5546 -0.734337 1.39446 0
M  V30 1021 C 98.7826 -1.52358 1.39981 0
M  V30 1022 C 99.1976 -1.88799 -0.0054975 0
M  V30 1023 O 98.5546 -1.54146 -0.976998 0
M  V30 1024 C 98.6056 -2.81072 2.27333 0
M  V30 1025 O 98.3266 -2.46178 3.62392 0
M  V30 1026 C 99.8276 -3.75096 2.36259 0
M  V30 1027 H 97.0476 -0.470806 0.478103 0
M  V30 1028 H 99.5916 -0.907339 1.83269 0
M  V30 1029 H 97.7466 -3.39026 1.87457 0
M  V30 1030 H 98.1606 -3.28866 4.08592 0
M  V30 1031 H 99.6346 -4.62305 3.01626 0
M  V30 1032 H 100.112 -4.16892 1.38194 0
M  V30 1033 H 100.718 -3.23061 2.76608 0
M  V30 1034 N 99.0327 -1.24633 -0.964593 0
M  V30 1035 C 100.31 -0.995809 -1.68354 0
M  V30 1036 C 100.69 0.480964 -2.05548 0
M  V30 1037 O 100.038 1.45599 -1.76105 0
M  V30 1038 C 100.248 -1.92177 -2.91323 0
M  V30 1039 C 101.596 -2.19446 -3.63495 0
M  V30 1040 O 102.62 -1.89855 -3.01386 0
M  V30 1041 O 101.479 -2.69714 -4.75307 0
M  V30 1042 H 98.5727 -0.376854 -0.736146 0
M  V30 1043 H 101.119 -1.35745 -1.0184 0
M  V30 1044 H 99.8907 -2.91938 -2.60553 0
M  V30 1045 H 99.5137 -1.56349 -3.65569 0
M  V30 1046 N 100.511 1.16574 -1.06058 0
M  V30 1047 C 101.458 2.20883 -0.669263 0
M  V30 1048 C 102.428 1.62729 0.332918 0
M  V30 1049 O 103.613 1.895 0.222346 0
M  V30 1050 C 100.753 3.45049 -0.0593572 0
M  V30 1051 C 99.8658 4.17458 -1.11143 0
M  V30 1052 C 99.0008 5.29135 -0.467916 0
M  V30 1053 C 98.0398 5.93343 -1.50369 0
M  V30 1054 N 97.1768 6.96516 -0.883706 0
M  V30 1055 H 102.017 2.53709 -1.5632 0
M  V30 1056 H 99.5538 1.24616 -0.781625 0
M  V30 1057 H 101.512 4.16033 0.311771 0
M  V30 1058 H 100.142 3.12781 0.797992 0
M  V30 1059 H 99.1938 3.45101 -1.60029 0
M  V30 1060 H 100.506 4.61307 -1.89731 0
M  V30 1061 H 99.6598 6.06684 -0.0436871 0
M  V30 1062 H 98.3988 4.86443 0.349864 0
M  V30 1063 H 97.4038 5.14517 -1.93784 0
M  V30 1064 H 98.6288 6.38114 -2.32352 0
M  V30 1065 H 96.5748 6.55943 -0.086595 0
M  V30 1066 H 96.4918 7.38723 -1.607 0
M  V30 1067 H 97.7598 7.77993 -0.484543 0
M  V30 1068 N 101.989 0.842826 1.3317 0
M  V30 1069 C 103.219 0.453397 2.01564 0
M  V30 1070 C 103.627 -0.951147 1.63554 0
M  V30 1071 O 102.97 -1.63021 0.846746 0
M  V30 1072 C 103.032 0.499013 3.5602 0
M  V30 1073 C 102.696 1.86037 4.1742 0
M  V30 1074 C 103.693 2.82416 4.36506 0
M  V30 1075 C 101.378 2.15428 4.53757 0
M  V30 1076 C 103.372 4.06346 4.91082 0
M  V30 1077 C 101.059 3.39615 5.0804 0
M  V30 1078 C 102.057 4.3489 5.26649 0
M  V30 1079 O 101.745 5.5688 5.79776 0
M  V30 1080 H 101.477 0.177871 0.652179 0
M  V30 1081 H 104.031 1.13808 1.70988 0
M  V30 1082 H 102.261 -0.242467 3.85939 0
M  V30 1083 H 103.95 0.126852 4.05702 0
M  V30 1084 H 104.716 2.6101 4.08777 0
M  V30 1085 H 100.595 1.42061 4.38565 0
M  V30 1086 H 104.139 4.80722 5.05522 0
M  V30 1087 H 100.036 3.60876 5.352 0
M  V30 1088 H 100.804 5.58674 5.98185 0
M  V30 1089 N 103.467 -1.45747 0.599634 0
M  V30 1090 C 104.377 -2.34262 -0.125888 0
M  V30 1091 C 105.393 -1.50768 -0.868625 0
M  V30 1092 O 106.569 -1.83592 -0.828003 0
M  V30 1093 C 103.634 -3.28252 -1.11587 0
M  V30 1094 C 102.695 -4.27651 -0.375956 0
M  V30 1095 C 101.928 -5.1715 -1.31877 0
M  V30 1096 O 102.151 -5.09916 -2.55621 0
M  V30 1097 O 101.085 -5.96286 -0.820157 0
M  V30 1098 H 104.911 -2.97688 0.601315 0
M  V30 1099 H 102.496 -1.44999 0.359934 0
M  V30 1100 H 104.378 -3.86191 -1.68626 0
M  V30 1101 H 103.053 -2.67401 -1.82424 0
M  V30 1102 H 101.96 -3.7335 0.236698 0
M  V30 1103 H 103.293 -4.91334 0.29177 0
M  V30 1104 N 104.945 -0.338344 -1.53925 0
M  V30 1105 C 105.893 0.536231 -2.26335 0
M  V30 1106 C 106.887 1.1063 -1.28286 0
M  V30 1107 O 108.093 1.05264 -1.46012 0
M  V30 1108 H 104.468 0.191602 -0.727181 0
M  V30 1109 H 106.439 -0.0965747 -2.98244 0
M  V30 1110 C 105.188 1.67803 -3.04528 0
M  V30 1111 H 104.511 1.24864 -3.79801 0
M  V30 1112 H 105.951 2.26526 -3.58416 0
M  V30 1113 C 104.41 2.60439 -2.13712 0
M  V30 1114 O 104.94 3.6255 -1.72975 0
M  V30 1115 N 103.146 2.29006 -1.78898 0
M  V30 1116 H 102.693 1.46011 -2.12223 0
M  V30 1117 H 102.651 2.91248 -1.18416 0
M  V30 1118 N 106.423 1.57458 -0.0668435 0
M  V30 1119 C 107.371 2.13639 0.919851 0
M  V30 1120 C 108.365 1.07204 1.31163 0
M  V30 1121 O 109.571 1.25591 1.28945 0
M  V30 1122 H 105.946 0.683048 0.314562 0
M  V30 1123 H 107.917 2.95415 0.421047 0
M  V30 1124 C 106.666 2.70892 2.17975 0
M  V30 1125 H 105.989 3.5246 1.88711 0
M  V30 1126 H 107.429 3.13803 2.85138 0
M  V30 1127 C 105.888 1.65414 2.93496 0
M  V30 1128 O 106.418 1.07619 3.87015 0
M  V30 1129 N 104.624 1.36564 2.56512 0
M  V30 1130 H 104.171 1.83751 1.80536 0
M  V30 1131 H 104.129 0.66223 3.07347 0
M  V30 1132 N 107.901 -0.206675 1.56239 0
M  V30 1133 C 108.848 -1.25617 1.93621 0
M  V30 1134 C 109.818 -1.45824 0.795274 0
M  V30 1135 O 111.003 -1.59148 1.05245 0
M  V30 1136 C 108.143 -2.59839 2.27107 0
M  V30 1137 C 107.256 -2.47308 3.54207 0
M  V30 1138 C 106.391 -3.74155 3.7707 0
M  V30 1139 C 105.43 -3.56407 4.97635 0
M  V30 1140 N 104.567 -4.75238 5.1681 0
M  V30 1141 H 109.407 -0.930383 2.83104 0
M  V30 1142 H 106.944 -0.448065 1.4011 0
M  V30 1143 H 108.902 -3.38021 2.44535 0
M  V30 1144 H 107.532 -2.90485 1.40778 0
M  V30 1145 H 106.584 -1.60483 3.4489 0
M  V30 1146 H 107.896 -2.30122 4.42544 0
M  V30 1147 H 107.05 -4.60778 3.94675 0
M  V30 1148 H 105.789 -3.94282 2.87042 0
M  V30 1149 H 104.794 -2.68168 4.79964 0
M  V30 1150 H 106.019 -3.37736 5.89161 0
M  V30 1151 H 103.965 -4.95651 4.29728 0
M  V30 1152 H 103.882 -4.60835 5.99306 0
M  V30 1153 H 105.15 -5.63246 5.38864 0
M  V30 1154 N 109.379 -1.50304 -0.473955 0
M  V30 1155 C 110.309 -1.71886 -1.58042 0
M  V30 1156 C 111.29 -0.567799 -1.60344 0
M  V30 1157 O 112.475 -0.806623 -1.76656 0
M  V30 1158 C 109.605 -1.81036 -2.96384 0
M  V30 1159 C 108.559 -2.962 -3.08949 0
M  V30 1160 C 107.885 -2.9049 -4.48909 0
M  V30 1161 C 109.185 -4.36752 -2.86434 0
M  V30 1162 H 110.879 -2.64527 -1.40234 0
M  V30 1163 H 108.425 -1.27295 -0.673201 0
M  V30 1164 H 110.378 -1.94719 -3.73714 0
M  V30 1165 H 109.102 -0.850147 -3.15341 0
M  V30 1166 H 107.761 -2.82164 -2.3405 0
M  V30 1167 H 107.409 -1.92321 -4.64781 0
M  V30 1168 H 107.109 -3.67802 -4.58253 0
M  V30 1169 H 108.633 -3.06218 -5.28264 0
M  V30 1170 H 110.047 -4.5133 -3.53517 0
M  V30 1171 H 108.444 -5.15493 -3.07225 0
M  V30 1172 H 109.514 -4.49321 -1.82316 0
M  V30 1173 N 110.857 0.726932 -1.39834 0
M  V30 1174 C 112.106 1.48214 -1.36805 0
M  V30 1175 C 112.419 1.95576 0.0305291 0
M  V30 1176 O 113.625 2.7088 0.183417 0
M  V30 1177 C 112.081 2.67854 -2.40379 0
M  V30 1178 C 111.689 2.27408 -3.85992 0
M  V30 1179 C 113.433 3.45641 -2.46439 0
M  V30 1180 C 111.34 3.43819 -4.81189 0
M  V30 1181 H 110.27 0.556606 -0.508631 0
M  V30 1182 H 112.921 0.792216 -1.65518 0
M  V30 1183 H 111.303 3.3896 -2.04749 0
M  V30 1184 H 112.477 1.63795 -4.30706 0
M  V30 1185 H 110.792 1.62692 -3.83302 0
M  V30 1186 H 113.389 4.32244 -3.14753 0
M  V30 1187 H 113.732 3.88669 -1.49139 0
M  V30 1188 H 114.265 2.8157 -2.81004 0
M  V30 1189 H 111.004 3.05834 -5.79781 0
M  V30 1190 H 110.524 4.06385 -4.41148 0
M  V30 1191 H 112.203 4.10043 -5.00474 0
M  V30 1192 N 112.336 1.25143 0.95797 0
M  V30 1193 C 113.582 1.09855 1.70469 0
M  V30 1194 C 113.915 -0.360187 1.90831 0
M  V30 1195 O 113.19 -1.26568 1.47685 0
M  V30 1196 C 113.473 1.8497 3.08963 0
M  V30 1197 C 113.326 3.38652 2.96032 0
M  V30 1198 C 114.645 1.63016 4.08795 0
M  V30 1199 H 111.764 0.400465 0.618706 0
M  V30 1200 H 114.406 1.53933 1.11376 0
M  V30 1201 H 112.556 1.47505 3.59409 0
M  V30 1202 H 114.228 3.85772 2.52938 0
M  V30 1203 H 112.471 3.66534 2.32025 0
M  V30 1204 H 113.142 3.8642 3.94187 0
M  V30 1205 H 115.618 1.95625 3.67247 0
M  V30 1206 H 114.494 2.18015 5.03747 0
M  V30 1207 H 114.755 0.570692 4.38401 0
M  V30 1208 N 113.814 -1.1601 1.06675 0
M  V30 1209 C 115.23 -1.38622 0.790948 0
M  V30 1210 C 115.43 -1.92109 -0.607965 0
M  V30 1211 O 114.486 -2.12239 -1.36787 0
M  V30 1212 C 115.799 -2.36347 1.85905 0
M  V30 1213 C 117.347 -2.50023 1.88301 0
M  V30 1214 C 117.822 -3.51033 2.94176 0
M  V30 1215 N 119.313 -3.58563 2.93235 0
M  V30 1216 C 120.048 -4.36521 3.71803 0
M  V30 1217 N 119.544 -5.17869 4.602 0
M  V30 1218 N 121.337 -4.31541 3.60178 0
M  V30 1219 H 113.488 -0.796294 1.96908 0
M  V30 1220 H 115.751 -0.412597 0.853503 0
M  V30 1221 H 115.457 -2.04147 2.86386 0
M  V30 1222 H 115.331 -3.36042 1.71334 0
M  V30 1223 H 117.718 -2.81524 0.884769 0
M  V30 1224 H 117.799 -1.5035 2.06951 0
M  V30 1225 H 117.443 -3.20268 3.94196 0
M  V30 1226 H 117.373 -4.50445 2.72776 0
M  V30 1227 H 119.864 -3.00496 2.29152 0
M  V30 1228 H 120.177 -5.74578 5.16797 0
M  V30 1229 H 118.522 -5.17199 4.64253 0
M  V30 1230 H 121.713 -3.67051 2.90502 0
M  V30 1231 H 121.886 -4.9205 4.21653 0
M  V30 1232 N 115.292 -0.849877 -1.32721 0
M  V30 1233 C 116.708 -0.539102 -1.50219 0
M  V30 1234 C 116.908 0.931271 -1.78689 0
M  V30 1235 O 115.964 1.71455 -1.85363 0
M  V30 1236 C 117.277 -1.42196 -2.64954 0
M  V30 1237 C 118.825 -1.42189 -2.78839 0
M  V30 1238 C 119.3 -2.28985 -3.96648 0
M  V30 1239 N 120.791 -2.26754 -4.03902 0
M  V30 1240 C 121.526 -2.90644 -4.94281 0
M  V30 1241 N 121.022 -3.63629 -5.897 0
M  V30 1242 N 122.815 -2.80057 -4.87365 0
M  V30 1243 H 114.966 -1.80156 -1.12506 0
M  V30 1244 H 117.229 -0.769217 -0.554085 0
M  V30 1245 H 116.935 -2.46733 -2.50631 0
M  V30 1246 H 116.809 -1.10591 -3.60624 0
M  V30 1247 H 119.196 -0.38419 -2.92588 0
M  V30 1248 H 119.277 -1.77807 -1.83898 0
M  V30 1249 H 118.921 -3.32819 -3.83658 0
M  V30 1250 H 118.851 -1.90702 -4.90857 0
M  V30 1251 H 121.342 -1.73688 -3.3562 0
M  V30 1252 H 121.655 -4.09558 -6.55349 0
M  V30 1253 H 120 -3.67737 -5.89741 0
M  V30 1254 H 123.191 -2.22593 -4.11789 0
M  V30 1255 H 123.364 -3.30132 -5.57599 0
M  V30 1256 N 116.77 1.45427 -0.607355 0
M  V30 1257 C 118.018 2.01841 -0.102253 0
M  V30 1258 C 118.339 1.47832 1.27164 0
M  V30 1259 O 117.609 0.672497 1.83995 0
M  V30 1260 H 116.189 0.746188 -0.0348101 0
M  V30 1261 H 118.851 1.78229 -0.7887 0
M  V30 1262 H 117.947 3.12057 -0.0518585 0
M  V30 1263 N 118.248 0.346503 1.53744 0
M  V30 1264 C 119.18 -0.543316 2.22667 0
M  V30 1265 C 120.193 -1.06159 1.23427 0
M  V30 1266 O 121.382 -0.971235 1.49764 0
M  V30 1267 C 118.482 -1.76076 2.89569 0
M  V30 1268 C 117.655 -1.37727 4.15151 0
M  V30 1269 C 116.714 -2.45471 4.65436 0
M  V30 1270 O 115.74 -2.08655 5.29577 0
M  V30 1271 N 116.942 -3.7677 4.41616 0
M  V30 1272 H 119.707 0.0469703 2.99663 0
M  V30 1273 H 117.268 0.170766 1.60997 0
M  V30 1274 H 119.26 -2.47593 3.20125 0
M  V30 1275 H 117.83 -2.25835 2.16142 0
M  V30 1276 H 117.05 -0.492746 3.91108 0
M  V30 1277 H 118.338 -1.09708 4.96832 0
M  V30 1278 H 117.736 -4.09467 3.90325 0
M  V30 1279 H 116.293 -4.44448 4.7677 0
M  V30 1280 N 119.726 -1.57421 0.075193 0
M  V30 1281 C 120.951 -1.98364 -0.605515 0
M  V30 1282 C 121.376 -0.953383 -1.62149 0
M  V30 1283 O 120.734 0.0806053 -1.81121 0
M  V30 1284 C 120.782 -3.38332 -1.24756 0
M  V30 1285 O 119.886 -3.37959 -2.36342 0
M  V30 1286 H 119.227 -0.645553 -0.155428 0
M  V30 1287 H 121.757 -2.04044 0.150714 0
M  V30 1288 H 121.767 -3.75591 -1.5936 0
M  V30 1289 H 120.442 -4.12846 -0.503129 0
M  V30 1290 H 119.019 -3.12474 -2.03506 0
M  V30 1291 N 121.204 0.198386 -1.56346 0
M  V30 1292 C 122.451 0.919286 -1.80431 0
M  V30 1293 C 122.779 1.83393 -0.647866 0
M  V30 1294 O 122.034 1.92236 0.366556 0
M  V30 1295 C 122.333 1.77031 -3.10475 0
M  V30 1296 C 121.999 1.00693 -4.39513 0
M  V30 1297 C 120.661 0.796145 -4.74568 0
M  V30 1298 C 123.013 0.469559 -5.19081 0
M  V30 1299 C 120.341 0.0364588 -5.86689 0
M  V30 1300 C 122.693 -0.2769 -6.31994 0
M  V30 1301 C 121.357 -0.49873 -6.65634 0
M  V30 1302 H 120.627 0.336391 -0.660244 0
M  V30 1303 H 123.274 0.185872 -1.90596 0
M  V30 1304 H 121.579 2.5723 -2.95533 0
M  V30 1305 H 123.276 2.33065 -3.26315 0
M  V30 1306 H 119.866 1.18122 -4.12001 0
M  V30 1307 H 124.05 0.619816 -4.92414 0
M  V30 1308 H 119.306 -0.145412 -6.11227 0
M  V30 1309 H 123.48 -0.700684 -6.92866 0
M  V30 1310 H 121.107 -1.0893 -7.52355 0
M  V30 1311 N 122.682 1.50554 0.465978 0
M  V30 1312 C 123.912 1.65323 1.23903 0
M  V30 1313 C 124.32 0.338051 1.86155 0
M  V30 1314 O 123.663 -0.690518 1.70228 0
M  V30 1315 C 123.725 2.69048 2.3844 0
M  V30 1316 C 123.389 4.12462 1.96784 0
M  V30 1317 C 124.386 4.98168 1.48745 0
M  V30 1318 C 122.071 4.58407 2.05349 0
M  V30 1319 C 124.065 6.27868 1.0982 0
M  V30 1320 C 121.752 5.88112 1.66035 0
M  V30 1321 C 122.75 6.72668 1.18349 0
M  V30 1322 O 122.438 7.99951 0.795825 0
M  V30 1323 H 122.17 0.558629 0.38067 0
M  V30 1324 H 124.724 1.97561 0.562022 0
M  V30 1325 H 122.954 2.32062 3.09328 0
M  V30 1326 H 124.643 2.72985 3.0039 0
M  V30 1327 H 125.409 4.63885 1.41546 0
M  V30 1328 H 121.288 3.92735 2.41414 0
M  V30 1329 H 124.832 6.93819 0.725293 0
M  V30 1330 H 120.729 6.21914 1.72895 0
M  V30 1331 H 121.497 8.13265 0.924222 0
M  V30 1332 N 124.16 -0.719506 1.40217 0
M  V30 1333 C 125.406 -1.48152 1.38488 0
M  V30 1334 C 125.739 -1.94195 -0.0141867 0
M  V30 1335 O 125.014 -1.67884 -0.982096 0
M  V30 1336 C 125.297 -2.71035 2.37091 0
M  V30 1337 C 125.15 -2.30912 3.86005 0
M  V30 1338 C 126.469 -3.73182 2.33288 0
M  V30 1339 H 123.588 -0.537395 0.504357 0
M  V30 1340 H 126.23 -0.821472 1.71324 0
M  V30 1341 H 124.38 -3.27352 2.0922 0
M  V30 1342 H 126.052 -1.80107 4.24687 0
M  V30 1343 H 124.295 -1.62958 4.02029 0
M  V30 1344 H 124.966 -3.18978 4.50508 0
M  V30 1345 H 127.442 -3.26485 2.57966 0
M  V30 1346 H 126.318 -4.56806 3.04334 0
M  V30 1347 H 126.579 -4.21202 1.34317 0
M  V30 1348 N 125.638 -1.25649 -0.95132 0
M  V30 1349 C 126.57 -1.02112 -2.05197 0
M  V30 1350 C 127.583 0.0150571 -1.62793 0
M  V30 1351 O 128.772 -0.223874 -1.77091 0
M  V30 1352 C 125.872 -0.522361 -3.3485 0
M  V30 1353 C 125.045 -1.62546 -4.06076 0
M  V30 1354 C 124.104 -1.12649 -5.14001 0
M  V30 1355 O 123.13 -1.82156 -5.39266 0
M  V30 1356 N 124.332 0.03047 -5.80492 0
M  V30 1357 H 127.097 -1.96885 -2.25957 0
M  V30 1358 H 124.658 -1.16899 -1.1201 0
M  V30 1359 H 126.65 -0.172961 -4.0433 0
M  V30 1360 H 125.22 0.33151 -3.10837 0
M  V30 1361 H 124.44 -2.14628 -3.30649 0
M  V30 1362 H 125.728 -2.36644 -4.50419 0
M  V30 1363 H 125.126 0.611169 -5.62389 0
M  V30 1364 H 123.683 0.320875 -6.5101 0
M  V30 1365 N 127.117 1.15442 -1.07289 0
M  V30 1366 C 128.366 1.85557 -0.790669 0
M  V30 1367 C 128.679 1.83186 0.685739 0
M  V30 1368 O 129.885 2.48977 1.0827 0
M  V30 1369 C 128.341 3.33038 -1.36433 0
M  V30 1370 C 127.949 3.43856 -2.8717 0
M  V30 1371 C 129.693 4.0834 -1.1601 0
M  V30 1372 C 127.6 4.85482 -3.3773 0
M  V30 1373 H 126.53 0.695122 -0.292098 0
M  V30 1374 H 129.181 1.30219 -1.29287 0
M  V30 1375 H 127.563 3.88043 -0.789864 0
M  V30 1376 H 128.737 2.98961 -3.50655 0
M  V30 1377 H 127.052 2.81998 -3.06376 0
M  V30 1378 H 129.649 5.12859 -1.51262 0
M  V30 1379 H 129.992 4.16182 -0.0991007 0
M  V30 1380 H 130.525 3.59603 -1.70089 0
M  V30 1381 H 127.264 4.82823 -4.43353 0
M  V30 1382 H 126.784 5.30961 -2.78999 0
M  V30 1383 H 128.463 5.54335 -3.33648 0
M  V30 1384 N 128.595 0.856903 1.32268 0
M  V30 1385 C 129.872 0.382583 1.91822 0
M  V30 1386 C 130.252 -1.13407 1.78051 0
M  V30 1387 O 129.6 -1.95673 1.18001 0
M  V30 1388 C 129.81 0.849446 3.38505 0
M  V30 1389 C 131.158 0.867936 4.15634 0
M  V30 1390 O 132.182 0.794232 3.47232 0
M  V30 1391 O 131.041 0.972286 5.37781 0
M  V30 1392 H 128.135 0.112014 0.819379 0
M  V30 1393 H 130.681 0.943952 1.41024 0
M  V30 1394 H 129.453 1.89267 3.42482 0
M  V30 1395 H 129.076 0.265652 3.96712 0
M  V30 1396 N 130.073 -1.45103 0.615059 0
M  V30 1397 C 131.32 -2.02183 0.113179 0
M  V30 1398 C 131.648 -1.48249 -1.25906 0
M  V30 1399 O 130.903 -0.650265 -1.84581 0
M  V30 1400 C 131.202 -3.57386 0.0318797 0
M  V30 1401 C 130.868 -4.30505 1.34077 0
M  V30 1402 C 129.53 -4.50197 1.69929 0
M  V30 1403 C 131.882 -4.72238 2.20546 0
M  V30 1404 C 129.21 -5.08881 2.91988 0
M  V30 1405 C 131.562 -5.32272 3.41861 0
M  V30 1406 C 130.226 -5.50187 3.77956 0
M  V30 1407 H 129.496 -0.739842 0.0414151 0
M  V30 1408 H 132.143 -1.74073 0.798168 0
M  V30 1409 H 130.448 -3.84817 -0.736409 0
M  V30 1410 H 132.145 -3.99264 -0.372712 0
M  V30 1411 H 128.735 -4.15496 1.05173 0
M  V30 1412 H 132.919 -4.56751 1.94146 0
M  V30 1413 H 128.175 -5.20939 3.2005 0
M  V30 1414 H 132.349 -5.63563 4.09109 0
M  V30 1415 H 129.976 -5.95427 4.72622 0
M  V30 1416 N 131.551 -0.354651 -1.53558 0
M  V30 1417 C 132.776 0.242153 -2.05981 0
M  V30 1418 C 133.201 1.42553 -1.2272 0
M  V30 1419 O 132.559 1.79656 -0.243604 0
M  V30 1420 C 132.607 0.624367 -3.55154 0
M  V30 1421 O 131.711 1.72301 -3.74681 0
M  V30 1422 H 131.052 0.0378432 -0.662921 0
M  V30 1423 H 133.582 -0.512087 -1.98088 0
M  V30 1424 H 133.592 0.898433 -3.97985 0
M  V30 1425 H 132.267 -0.240989 -4.15201 0
M  V30 1426 H 130.844 1.44535 -3.4375 0
M  V30 1427 N 133.029 1.57378 -0.0835403 0
M  V30 1428 C 134.445 1.57246 0.273109 0
M  V30 1429 C 134.645 1.09385 1.69225 0
M  V30 1430 O 133.701 0.765051 2.40631 0
M  V30 1431 C 135.014 3.00614 0.0720628 0
M  V30 1432 C 136.562 3.12684 0.1407 0
M  V30 1433 C 137.037 4.57989 -0.0322094 0
M  V30 1434 N 138.528 4.63194 0.0230085 0
M  V30 1435 C 139.263 5.73335 -0.0861941 0
M  V30 1436 N 138.759 6.9235 -0.24958 0
M  V30 1437 N 140.552 5.62093 -0.0282886 0
M  V30 1438 H 132.703 1.86801 -1.0109 0
M  V30 1439 H 134.966 0.861687 -0.395222 0
M  V30 1440 H 134.672 3.39786 -0.907662 0
M  V30 1441 H 134.546 3.68193 0.81936 0
M  V30 1442 H 136.933 2.73391 1.11092 0
M  V30 1443 H 137.014 2.47719 -0.637896 0
M  V30 1444 H 136.658 4.97973 -0.999247 0
M  V30 1445 H 136.588 5.21 0.765937 0
M  V30 1446 H 139.079 3.77613 0.14722 0
M  V30 1447 H 139.392 7.72117 -0.324733 0
M  V30 1448 H 137.737 6.94415 -0.285097 0
M  V30 1449 H 140.928 4.67997 0.0981408 0
M  V30 1450 H 141.101 6.47895 -0.116845 0
M  V30 1451 N 134.507 -0.190092 1.56449 0
M  V30 1452 C 135.918 -0.754312 1.70784 0
M  V30 1453 C 136.269 -1.83631 0.690951 0
M  V30 1454 O 135.394 -2.15868 -0.151604 0
M  V30 1455 C 135.989 -1.37503 3.09642 0
M  V30 1456 C 134.548 -1.88628 3.25725 0
M  V30 1457 C 133.695 -0.758098 2.66736 0
M  V30 1458 H 136.646 0.0350524 1.58661 0
M  V30 1459 H 136.667 -2.2445 3.0725 0
M  V30 1460 H 136.179 -0.587302 3.83631 0
M  V30 1461 H 134.28 -2.70103 2.56661 0
M  V30 1462 H 134.393 -2.04462 4.3328 0
M  V30 1463 H 132.757 -1.17369 2.26046 0
M  V30 1464 H 133.54 0.0174705 3.43296 0
M  V30 1465 N 135.985 -1.50799 -0.457987 0
M  V30 1466 C 137.215 -1.65977 -1.23025 0
M  V30 1467 C 137.623 -0.347918 -1.85974 0
M  V30 1468 O 136.966 0.68148 -1.70592 0
M  V30 1469 C 137.028 -2.70309 -2.3701 0
M  V30 1470 C 136.692 -4.135 -1.94594 0
M  V30 1471 C 137.689 -4.98949 -1.46101 0
M  V30 1472 C 135.374 -4.5949 -2.02915 0
M  V30 1473 C 137.368 -6.28442 -1.06489 0
M  V30 1474 C 135.055 -5.88984 -1.62914 0
M  V30 1475 C 136.053 -6.73286 -1.1478 0
M  V30 1476 O 135.741 -8.00362 -0.75339 0
M  V30 1477 H 135.473 -0.56064 -0.377702 0
M  V30 1478 H 138.027 -1.97857 -0.551537 0
M  V30 1479 H 136.257 -2.337 -3.08093 0
M  V30 1480 H 137.946 -2.74574 -2.98938 0
M  V30 1481 H 138.712 -4.6463 -1.39084 0
M  V30 1482 H 134.591 -3.94009 -2.39328 0
M  V30 1483 H 138.135 -6.94194 -0.688488 0
M  V30 1484 H 134.032 -6.22822 -1.69595 0
M  V30 1485 H 134.8 -8.13744 -0.88108 0
M  V30 1486 N 137.463 0.71206 -1.40597 0
M  V30 1487 C 138.74 1.46536 -1.29563 0
M  V30 1488 C 139.12 2.10931 0.0844217 0
M  V30 1489 O 138.468 2.00418 1.0975 0
M  V30 1490 C 138.678 2.49821 -2.43701 0
M  V30 1491 C 140.026 3.15551 -2.841 0
M  V30 1492 O 141.05 2.60142 -2.4332 0
M  V30 1493 O 139.909 4.15867 -3.54566 0
M  V30 1494 H 137.003 0.651801 -0.509004 0
M  V30 1495 H 139.549 0.743935 -1.52524 0
M  V30 1496 H 138.321 2.00778 -3.35863 0
M  V30 1497 H 137.944 3.29495 -2.22528 0
M  V30 1498 N 138.941 1.26152 0.944643 0
M  V30 1499 C 140.352 1.10454 1.50522 0
M  V30 1500 C 140.703 -0.31635 1.93633 0
M  V30 1501 O 139.828 -1.20746 1.79581 0
M  V30 1502 C 140.423 1.99891 2.73549 0
M  V30 1503 C 138.982 1.88348 3.25886 0
M  V30 1504 C 138.129 1.93447 1.9868 0
M  V30 1505 H 141.08 1.39292 0.760489 0
M  V30 1506 H 141.101 1.54477 3.47732 0
M  V30 1507 H 140.613 3.03297 2.42141 0
M  V30 1508 H 138.714 0.878636 3.62092 0
M  V30 1509 H 138.827 2.73696 3.93227 0
M  V30 1510 H 137.191 1.37456 2.14425 0
M  V30 1511 H 137.974 2.98476 1.69607 0
M  V30 1512 N 140.419 -1.14872 1.07899 0
M  V30 1513 C 141.835 -1.37776 0.805606 0
M  V30 1514 C 142.035 -1.92743 -0.587555 0
M  V30 1515 O 141.091 -2.13678 -1.34528 0
M  V30 1516 C 142.404 -2.34361 1.88402 0
M  V30 1517 C 143.952 -2.48012 1.90942 0
M  V30 1518 C 144.427 -3.47893 2.97883 0
M  V30 1519 N 145.918 -3.55433 2.97021 0
M  V30 1520 C 146.653 -4.32553 3.76412 0
M  V30 1521 N 146.149 -5.12959 4.65666 0
M  V30 1522 N 147.942 -4.27697 3.64735 0
M  V30 1523 H 140.093 -0.775365 1.97742 0
M  V30 1524 H 142.356 -0.403521 0.857831 0
M  V30 1525 H 142.062 -2.01098 2.88535 0
M  V30 1526 H 141.936 -3.34206 1.74889 0
M  V30 1527 H 144.323 -2.8057 0.914579 0
M  V30 1528 H 144.404 -1.48147 2.08534 0
M  V30 1529 H 144.048 -3.16069 3.97571 0
M  V30 1530 H 143.978 -4.47527 2.77538 0
M  V30 1531 H 146.469 -2.98048 2.32326 0
M  V30 1532 H 146.782 -5.69065 5.22862 0
M  V30 1533 H 145.127 -5.12245 4.69712 0
M  V30 1534 H 148.318 -3.63949 2.94378 0
M  V30 1535 H 148.491 -4.8755 4.26848 0
M  V30 1536 N 141.898 -0.863906 -1.31812 0
M  V30 1537 C 143.314 -0.555004 -1.49639 0
M  V30 1538 C 143.514 0.912266 -1.79666 0
M  V30 1539 O 142.57 1.69479 -1.87171 0
M  V30 1540 C 143.883 -1.44998 -2.63431 0
M  V30 1541 C 145.431 -1.45138 -2.77316 0
M  V30 1542 C 145.906 -2.33179 -3.94197 0
M  V30 1543 N 147.397 -2.31025 -4.01474 0
M  V30 1544 C 148.132 -2.95871 -4.9117 0
M  V30 1545 N 147.628 -3.69863 -5.8581 0
M  V30 1546 N 149.421 -2.85211 -4.84367 0
M  V30 1547 H 141.572 -1.81339 -1.10589 0
M  V30 1548 H 143.835 -0.77505 -0.545895 0
M  V30 1549 H 143.541 -2.49377 -2.48 0
M  V30 1550 H 143.415 -1.14409 -3.59431 0
M  V30 1551 H 145.802 -0.415201 -2.92164 0
M  V30 1552 H 145.883 -1.79747 -1.82001 0
M  V30 1553 H 145.527 -3.3687 -3.80107 0
M  V30 1554 H 145.457 -1.95897 -4.88807 0
M  V30 1555 H 147.948 -1.77238 -3.33759 0
M  V30 1556 H 148.261 -4.16486 -6.50968 0
M  V30 1557 H 146.606 -3.73971 -5.85808 0
M  V30 1558 H 149.797 -2.26948 -4.09405 0
M  V30 1559 H 149.97 -3.36027 -5.54066 0
M  V30 1560 N 143.376 1.44774 -0.622745 0
M  V30 1561 C 144.653 1.95522 -0.0551974 0
M  V30 1562 C 145.033 1.5649 1.41683 0
M  V30 1563 O 144.381 0.834848 2.12703 0
M  V30 1564 C 144.591 3.4796 -0.269242 0
M  V30 1565 C 145.939 4.24306 -0.158014 0
M  V30 1566 O 146.963 3.55637 -0.200162 0
M  V30 1567 O 145.822 5.46471 -0.0558693 0
M  V30 1568 H 142.916 0.826556 0.0271015 0
M  V30 1569 H 145.462 1.54866 -0.693864 0
M  V30 1570 H 144.234 3.6939 -1.29099 0
M  V30 1571 H 143.857 3.95543 0.403966 0
M  V30 1572 N 144.854 0.36279 1.53368 0
M  V30 1573 C 145.784 -0.476976 2.28576 0
M  V30 1574 C 146.765 -1.08631 1.30894 0
M  V30 1575 O 147.95 -1.10409 1.59761 0
M  V30 1576 C 145.08 -1.61828 3.07293 0
M  V30 1577 C 144.034 -1.13633 4.1264 0
M  V30 1578 C 143.36 -2.36766 4.79423 0
M  V30 1579 C 144.66 -0.223061 5.21823 0
M  V30 1580 H 146.354 0.150474 2.99022 0
M  V30 1581 H 143.9 0.0738103 1.43811 0
M  V30 1582 H 145.853 -2.21237 3.58653 0
M  V30 1583 H 144.577 -2.27292 2.34533 0
M  V30 1584 H 143.236 -0.564945 3.62221 0
M  V30 1585 H 142.884 -3.0068 4.03238 0
M  V30 1586 H 142.584 -2.05192 5.50609 0
M  V30 1587 H 144.108 -2.96865 5.33576 0
M  V30 1588 H 145.522 -0.724545 5.68703 0
M  V30 1589 H 143.919 0.001678 6.001 0
M  V30 1590 H 144.989 0.735553 4.79289 0
M  V30 1591 N 146.332 -1.57332 0.0918853 0
M  V30 1592 C 147.579 -1.94236 -0.572577 0
M  V30 1593 C 147.907 -0.973398 -1.6839 0
M  V30 1594 O 147.162 0.00756912 -1.95699 0
M  V30 1595 C 147.461 -3.37689 -1.17051 0
M  V30 1596 C 147.127 -4.50527 -0.183304 0
M  V30 1597 C 145.789 -4.81119 0.0882276 0
M  V30 1598 C 148.141 -5.18883 0.49095 0
M  V30 1599 C 145.469 -5.77395 1.04076 0
M  V30 1600 C 147.821 -6.1618 1.43193 0
M  V30 1601 C 146.485 -6.45179 1.71173 0
M  V30 1602 H 145.755 -0.710762 -0.209521 0
M  V30 1603 H 148.402 -1.9077 0.167036 0
M  V30 1604 H 146.707 -3.37718 -1.9863 0
M  V30 1605 H 148.404 -3.63543 -1.69227 0
M  V30 1606 H 144.994 -4.26681 -0.405124 0
M  V30 1607 H 149.178 -4.95427 0.294312 0
M  V30 1608 H 144.434 -5.98179 1.26457 0
M  V30 1609 H 148.608 -6.68243 1.96023 0
M  V30 1610 H 146.235 -7.1959 2.4514 0
M  V30 1611 N 147.81 0.181792 -1.56548 0
M  V30 1612 C 149.226 0.53316 -1.50431 0
M  V30 1613 C 149.426 1.85184 -0.794297 0
M  V30 1614 O 148.482 2.50058 -0.350318 0
M  V30 1615 C 149.795 0.575597 -2.9514 0
M  V30 1616 C 151.343 0.663519 -3.05886 0
M  V30 1617 C 151.818 0.736946 -4.52032 0
M  V30 1618 N 153.309 0.800118 -4.56237 0
M  V30 1619 C 154.044 0.877327 -5.66649 0
M  V30 1620 N 153.54 0.916016 -6.86718 0
M  V30 1621 N 155.333 0.915542 -5.54594 0
M  V30 1622 H 147.484 -0.683025 -2.01118 0
M  V30 1623 H 149.747 -0.244988 -0.915797 0
M  V30 1624 H 149.453 -0.324482 -3.502 0
M  V30 1625 H 149.327 1.42572 -3.49218 0
M  V30 1626 H 151.714 1.55403 -2.50867 0
M  V30 1627 H 151.795 -0.21307 -2.54911 0
M  V30 1628 H 151.439 -0.149262 -5.07681 0
M  V30 1629 H 151.369 1.62953 -5.00753 0
M  V30 1630 H 153.86 0.778926 -3.69785 0
M  V30 1631 H 154.173 0.975813 -7.66614 0
M  V30 1632 H 152.518 0.884469 -6.89349 0
M  V30 1633 H 155.709 0.882245 -4.59711 0
M  V30 1634 H 155.882 0.972253 -6.40665 0
M  V30 1635 N 149.288 1.51039 0.449983 0
M  V30 1636 C 150.534 1.63322 1.20223 0
M  V30 1637 C 150.867 0.34241 1.91158 0
M  V30 1638 O 150.142 -0.657344 1.83055 0
M  V30 1639 C 150.425 2.82801 2.22925 0
M  V30 1640 C 150.278 4.21823 1.56157 0
M  V30 1641 C 151.597 2.97807 3.24035 0
M  V30 1642 H 148.716 0.594407 0.435718 0
M  V30 1643 H 151.358 1.83489 0.493136 0
M  V30 1644 H 149.508 2.65738 2.834 0
M  V30 1645 H 151.18 4.50526 0.991162 0
M  V30 1646 H 149.423 4.25105 0.864172 0
M  V30 1647 H 150.094 5.01391 2.30891 0
M  V30 1648 H 152.57 3.13497 2.73603 0
M  V30 1649 H 151.446 3.82992 3.93202 0
M  V30 1650 H 151.707 2.09328 3.89402 0
M  V30 1651 N 150.766 -0.704594 1.40972 0
M  V30 1652 C 151.676 -1.84856 1.44448 0
M  V30 1653 C 152.692 -1.70726 0.335961 0
M  V30 1654 O 153.868 -1.92799 0.582276 0
M  V30 1655 C 150.933 -3.20758 1.31587 0
M  V30 1656 C 149.994 -3.47063 2.52677 0
M  V30 1657 C 149.227 -4.76481 2.4042 0
M  V30 1658 O 149.45 -5.52341 1.42391 0
M  V30 1659 O 148.384 -5.03367 3.30007 0
M  V30 1660 H 152.21 -1.8488 2.40942 0
M  V30 1661 H 149.795 -0.85647 1.22413 0
M  V30 1662 H 151.677 -4.01913 1.26665 0
M  V30 1663 H 150.352 -3.21438 0.382049 0
M  V30 1664 H 149.259 -2.65873 2.63177 0
M  V30 1665 H 150.592 -3.5119 3.44858 0
M  V30 1666 N 152.244 -1.26651 -0.937939 0
M  V30 1667 C 153.474 -1.15006 -1.71631 0
M  V30 1668 C 153.882 0.297026 -1.86854 0
M  V30 1669 O 153.225 1.21493 -1.37786 0
M  V30 1670 C 153.287 -1.74984 -3.14039 0
M  V30 1671 C 152.951 -3.24103 -3.2219 0
M  V30 1672 C 153.948 -4.20877 -3.05219 0
M  V30 1673 C 151.633 -3.64625 -3.45476 0
M  V30 1674 C 153.627 -5.56151 -3.11408 0
M  V30 1675 C 151.314 -5.00032 -3.513 0
M  V30 1676 C 152.312 -5.95604 -3.34282 0
M  V30 1677 O 152 -7.28545 -3.3982 0
M  V30 1678 H 151.732 -0.401183 -0.544085 0
M  V30 1679 H 154.286 -1.67832 -1.18413 0
M  V30 1680 H 152.516 -1.16624 -3.68695 0
M  V30 1681 H 154.205 -1.58199 -3.73802 0
M  V30 1682 H 154.971 -3.90908 -2.87081 0
M  V30 1683 H 150.85 -2.90718 -3.57777 0
M  V30 1684 H 154.394 -6.30727 -2.98043 0
M  V30 1685 H 150.291 -5.29659 -3.68959 0
M  V30 1686 H 151.059 -7.3686 -3.56343 0
M  V30 1687 N 153.722 1.14298 -1.08507 0
M  V30 1688 C 154.968 1.85633 -0.816581 0
M  V30 1689 C 155.301 1.82784 0.656021 0
M  V30 1690 O 154.576 1.25926 1.48233 0
M  V30 1691 C 154.859 3.34223 -1.34041 0
M  V30 1692 C 154.712 3.45639 -2.87843 0
M  V30 1693 C 156.031 4.29356 -0.9665 0
M  V30 1694 H 153.15 0.67402 -0.298104 0
M  V30 1695 H 155.792 1.34214 -1.34487 0
M  V30 1696 H 153.942 3.78144 -0.89104 0
M  V30 1697 H 155.614 3.10498 -3.41158 0
M  V30 1698 H 153.857 2.86817 -3.25451 0
M  V30 1699 H 154.528 4.50089 -3.19569 0
M  V30 1700 H 157.004 3.93457 -1.35391 0
M  V30 1701 H 155.88 5.3178 -1.3602 0
M  V30 1702 H 156.141 4.41919 0.126362 0
M  V30 1703 N 155.201 0.870884 1.31352 0
M  V30 1704 C 156.45 0.478408 1.95944 0
M  V30 1705 C 156.763 -0.974493 1.69597 0
M  V30 1706 O 157.969 -1.47316 2.28058 0
M  V30 1707 C 156.425 0.804609 3.50791 0
M  V30 1708 C 156.033 2.27433 3.85977 0
M  V30 1709 C 157.777 0.480648 4.2177 0
M  V30 1710 C 155.684 2.5429 5.33939 0
M  V30 1711 H 154.614 0.175175 0.733369 0
M  V30 1712 H 157.265 1.06391 1.4951 0
M  V30 1713 H 155.647 0.148347 3.95722 0
M  V30 1714 H 156.821 2.97373 3.52002 0
M  V30 1715 H 155.136 2.56442 3.28065 0
M  V30 1716 H 157.733 0.658519 5.30629 0
M  V30 1717 H 158.076 -0.578979 4.12254 0
M  V30 1718 H 158.609 1.09349 3.82476 0
M  V30 1719 H 155.348 3.58939 5.48491 0
M  V30 1720 H 154.868 1.88945 5.69263 0
M  V30 1721 H 156.547 2.39066 6.01212 0
M  V30 1722 N 156.679 -1.44442 0.630414 0
M  V30 1723 C 157.927 -2.01653 0.134351 0
M  V30 1724 C 158.248 -1.49836 -1.24796 0
M  V30 1725 O 157.518 -0.701684 -1.82902 0
M  V30 1726 H 156.098 -0.74554 0.0466769 0
M  V30 1727 H 158.76 -1.76952 0.816955 0
M  V30 1728 H 157.856 -3.11935 0.101498 0
M  V30 1729 N 158.157 -0.370918 -1.53173 0
M  V30 1730 C 159.573 -0.0200818 -1.59587 0
M  V30 1731 C 159.773 1.46279 -1.38581 0
M  V30 1732 O 158.829 2.22506 -1.19363 0
M  V30 1733 C 160.142 -0.4808 -2.96831 0
M  V30 1734 C 161.69 -0.435477 -3.09956 0
M  V30 1735 C 162.165 -0.872092 -4.4962 0
M  V30 1736 N 163.656 -0.827364 -4.55751 0
M  V30 1737 C 164.391 -1.13683 -5.62018 0
M  V30 1738 N 163.887 -1.51584 -6.76014 0
M  V30 1739 N 165.68 -1.05927 -5.52029 0
M  V30 1740 H 157.831 -1.33652 -1.65079 0
M  V30 1741 H 160.094 -0.546634 -0.774529 0
M  V30 1742 H 159.8 -1.51577 -3.1736 0
M  V30 1743 H 159.674 0.129796 -3.76977 0
M  V30 1744 H 162.061 0.590371 -2.89134 0
M  V30 1745 H 162.142 -1.08164 -2.31806 0
M  V30 1746 H 161.786 -1.89608 -4.71181 0
M  V30 1747 H 161.716 -0.203127 -5.26208 0
M  V30 1748 H 164.207 -0.548216 -3.73902 0
M  V30 1749 H 164.52 -1.73609 -7.53047 0
M  V30 1750 H 162.865 -1.55454 -6.77391 0
M  V30 1751 H 166.056 -0.762321 -4.61851 0
M  V30 1752 H 166.229 -1.30378 -6.34749 0
M  V30 1753 N 159.635 1.57281 -0.100228 0
M  V30 1754 C 160.865 1.98591 0.569681 0
M  V30 1755 C 161.273 0.978315 1.61943 0
M  V30 1756 O 160.616 -0.0396108 1.83657 0
M  V30 1757 C 160.678 3.36282 1.271 0
M  V30 1758 C 160.342 4.55488 0.371409 0
M  V30 1759 C 161.339 5.18491 -0.382504 0
M  V30 1760 C 159.024 5.01474 0.287965 0
M  V30 1761 C 161.018 6.25852 -1.20779 0
M  V30 1762 C 158.705 6.08701 -0.540965 0
M  V30 1763 C 159.703 6.70755 -1.28749 0
M  V30 1764 O 159.391 7.75914 -2.10269 0
M  V30 1765 H 159.123 0.65752 0.156982 0
M  V30 1766 H 161.677 2.0463 -0.177734 0
M  V30 1767 H 159.907 3.26941 2.0651 0
M  V30 1768 H 161.596 3.62005 1.83595 0
M  V30 1769 H 162.362 4.83891 -0.3278 0
M  V30 1770 H 158.241 4.52932 0.858689 0
M  V30 1771 H 161.785 6.74218 -1.79096 0
M  V30 1772 H 157.682 6.42732 -0.597131 0
M  V30 1773 H 158.45 7.92925 -2.03007 0
M  V30 1774 N 161.113 -0.173488 1.56642 0
M  V30 1775 C 162.524 -0.736155 1.71574 0
M  V30 1776 C 162.875 -1.82888 0.710389 0
M  V30 1777 O 162 -2.16017 -0.1287 0
M  V30 1778 C 162.595 -1.34211 3.11083 0
M  V30 1779 C 161.154 -1.85162 3.27707 0
M  V30 1780 C 160.301 -0.729765 2.67525 0
M  V30 1781 H 163.252 0.0518786 1.58615 0
M  V30 1782 H 163.273 -2.21178 3.09613 0
M  V30 1783 H 162.785 -0.546579 3.84232 0
M  V30 1784 H 160.886 -2.67366 2.59512 0
M  V30 1785 H 160.999 -1.99855 4.35425 0
M  V30 1786 H 159.363 -1.14965 2.27278 0
M  V30 1787 H 160.146 0.0538806 3.43258 0
M  V30 1788 N 162.591 -1.51276 -0.441967 0
M  V30 1789 C 163.523 -1.68444 -1.55433 0
M  V30 1790 C 164.536 -0.565187 -1.52674 0
M  V30 1791 O 165.725 -0.839356 -1.57534 0
M  V30 1792 C 162.825 -1.67966 -2.94348 0
M  V30 1793 C 161.998 -2.964 -3.21661 0
M  V30 1794 C 161.057 -2.88171 -4.40277 0
M  V30 1795 O 160.083 -3.62119 -4.39157 0
M  V30 1796 N 161.285 -2.03706 -5.43584 0
M  V30 1797 H 164.05 -2.644 -1.41112 0
M  V30 1798 H 161.611 -1.49104 -0.630838 0
M  V30 1799 H 163.603 -1.60035 -3.71713 0
M  V30 1800 H 162.173 -0.796225 -3.0229 0
M  V30 1801 H 161.393 -3.18234 -2.32638 0
M  V30 1802 H 162.681 -3.81427 -3.36736 0
M  V30 1803 H 162.079 -1.42995 -5.47329 0
M  V30 1804 H 160.636 -2.01658 -6.1982 0
M  V30 1805 N 164.069 0.697108 -1.41344 0
M  V30 1806 C 164.979 1.84088 -1.45427 0
M  V30 1807 C 165.995 1.70545 -0.34501 0
M  V30 1808 O 167.171 1.92488 -0.592492 0
M  V30 1809 C 164.236 3.20056 -1.33286 0
M  V30 1810 C 163.297 3.45718 -2.54514 0
M  V30 1811 C 162.53 4.75199 -2.42944 0
M  V30 1812 O 162.753 5.51579 -1.45318 0
M  V30 1813 O 161.687 5.0161 -3.32672 0
M  V30 1814 H 165.513 1.836 -2.41919 0
M  V30 1815 H 163.098 0.849966 -1.22866 0
M  V30 1816 H 164.98 4.01236 -1.28794 0
M  V30 1817 H 163.655 3.2123 -0.39909 0
M  V30 1818 H 162.562 2.64474 -2.64583 0
M  V30 1819 H 163.895 3.49356 -3.46715 0
M  V30 1820 N 165.547 1.27147 0.931209 0
M  V30 1821 C 166.495 1.09398 2.05268 0
M  V30 1822 C 167.489 0.0180591 1.6939 0
M  V30 1823 O 168.695 0.17551 1.79142 0
M  V30 1824 H 165.07 0.336986 0.672268 0
M  V30 1825 H 167.041 2.04416 2.17386 0
M  V30 1826 C 165.79 0.75424 3.39421 0
M  V30 1827 H 165.113 1.57404 3.67511 0
M  V30 1828 H 166.553 0.669903 4.18674 0
M  V30 1829 C 165.012 -0.541197 3.32525 0
M  V30 1830 O 165.542 -1.57664 3.69466 0
M  V30 1831 N 163.748 -0.535517 2.85623 0
M  V30 1832 H 163.295 0.307511 2.55758 0
M  V30 1833 H 163.253 -1.40236 2.81392 0
M  V30 1834 N 167.025 -1.13721 1.09112 0
M  V30 1835 C 167.972 -2.19031 0.727591 0
M  V30 1836 C 168.942 -1.63555 -0.289656 0
M  V30 1837 O 170.127 -1.90023 -0.172026 0
M  V30 1838 C 167.267 -3.4477 0.15082 0
M  V30 1839 C 166.38 -4.14365 1.22172 0
M  V30 1840 C 165.515 -5.27709 0.608042 0
M  V30 1841 C 164.554 -5.89147 1.66047 0
M  V30 1842 N 163.691 -6.93929 1.06806 0
M  V30 1843 H 168.531 -2.49475 1.62991 0
M  V30 1844 H 166.068 -1.22499 0.81439 0
M  V30 1845 H 168.026 -4.16714 -0.201358 0
M  V30 1846 H 166.656 -3.14787 -0.714783 0
M  V30 1847 H 165.708 -3.40737 1.69122 0
M  V30 1848 H 167.02 -4.56114 2.01895 0
M  V30 1849 H 166.174 -6.06355 0.204523 0
M  V30 1850 H 164.913 -4.872 -0.220769 0
M  V30 1851 H 163.918 -5.09198 2.07357 0
M  V30 1852 H 165.143 -6.31729 2.49189 0
M  V30 1853 H 163.089 -6.55483 0.260476 0
M  V30 1854 H 163.006 -7.34202 1.8023 0
M  V30 1855 H 164.274 -7.76434 0.690644 0
M  V30 1856 N 168.503 -0.877838 -1.30888 0
M  V30 1857 C 169.751 -0.491723 -1.96027 0
M  V30 1858 C 170.072 0.960827 -1.69685 0
M  V30 1859 O 169.342 1.67462 -1.01654 0
M  V30 1860 H 167.922 -0.17885 -0.725273 0
M  V30 1861 H 170.584 -1.11935 -1.59551 0
M  V30 1862 H 169.68 -0.656016 -3.05128 0
M  V30 1863 N 169.982 1.44106 -0.638065 0
M  V30 1864 C 171.21 2.06336 -0.152615 0
M  V30 1865 C 171.625 1.47731 1.17563 0
M  V30 1866 O 170.982 0.602806 1.72257 0
M  V30 1867 C 171.033 3.61479 -0.0391491 0
M  V30 1868 O 170.754 4.17903 -1.31487 0
M  V30 1869 C 172.255 4.40757 0.474176 0
M  V30 1870 H 169.475 0.665862 -0.0828776 0
M  V30 1871 H 172.019 1.84862 -0.87443 0
M  V30 1872 H 170.174 3.82191 0.633142 0
M  V30 1873 H 170.588 5.11416 -1.16421 0
M  V30 1874 H 172.062 5.49707 0.502562 0
M  V30 1875 H 172.539 4.12697 1.50258 0
M  V30 1876 H 173.145 4.24979 -0.165102 0
M  V30 1877 N 171.46 0.379036 1.52974 0
M  V30 1878 C 172.69 -0.20649 2.05566 0
M  V30 1879 C 173.098 -1.41906 1.25137 0
M  V30 1880 O 172.441 -1.81421 0.288464 0
M  V30 1881 C 172.503 -0.651086 3.53555 0
M  V30 1882 C 172.167 0.446626 4.54812 0
M  V30 1883 C 173.164 1.30079 5.03364 0
M  V30 1884 C 170.849 0.610719 4.98573 0
M  V30 1885 C 172.843 2.30426 5.94292 0
M  V30 1886 C 170.53 1.61754 5.89304 0
M  V30 1887 C 171.528 2.46274 6.37054 0
M  V30 1888 O 171.216 3.45237 7.25994 0
M  V30 1889 H 170.948 -0.0372381 0.674974 0
M  V30 1890 H 173.502 0.539718 1.98182 0
M  V30 1891 H 171.732 -1.44911 3.58522 0
M  V30 1892 H 173.421 -1.16112 3.88938 0
M  V30 1893 H 174.187 1.18527 4.70294 0
M  V30 1894 H 170.066 -0.0374044 4.60985 0
M  V30 1895 H 173.61 2.96432 6.31485 0
M  V30 1896 H 169.507 1.73348 6.21788 0
M  V30 1897 H 170.275 3.41124 7.44027 0
M  V30 1898 N 172.938 -1.57226 0.108567 0
M  V30 1899 C 174.187 -1.94008 -0.551703 0
M  V30 1900 C 174.5 -0.993442 -1.68494 0
M  V30 1901 O 175.706 -1.25551 -2.40726 0
M  V30 1902 C 174.162 -3.44763 -1.03279 0
M  V30 1903 C 173.77 -4.47943 0.0714193 0
M  V30 1904 C 175.514 -3.90483 -1.66503 0
M  V30 1905 C 173.421 -5.89865 -0.425779 0
M  V30 1906 H 172.351 -0.724206 -0.209863 0
M  V30 1907 H 175.002 -1.82547 0.186741 0
M  V30 1908 H 173.384 -3.51422 -1.82533 0
M  V30 1909 H 174.558 -4.52942 0.847365 0
M  V30 1910 H 172.873 -4.11913 0.609669 0
M  V30 1911 H 175.47 -4.93925 -2.04798 0
M  V30 1912 H 175.813 -3.29877 -2.53942 0
M  V30 1913 H 176.346 -3.86581 -0.938074 0
M  V30 1914 H 173.085 -6.54202 0.412316 0
M  V30 1915 H 172.605 -5.88309 -1.16843 0
M  V30 1916 H 174.284 -6.40844 -0.890397 0
M  V30 1917 N 174.416 0.165178 -1.56732 0
M  V30 1918 C 175.827 0.727046 -1.71962 0
M  V30 1919 C 176.178 1.82508 -0.720078 0
M  V30 1920 O 175.303 2.16082 0.117242 0
M  V30 1921 C 175.898 1.32559 -3.11791 0
M  V30 1922 C 174.457 1.83422 -3.28684 0
M  V30 1923 C 173.604 0.715567 -2.67908 0
M  V30 1924 H 176.555 -0.0602896 -1.58585 0
M  V30 1925 H 176.576 2.19533 -3.10782 0
M  V30 1926 H 176.088 0.526195 -3.84516 0
M  V30 1927 H 174.189 2.65986 -2.60926 0
M  V30 1928 H 174.302 1.97543 -4.36478 0
M  V30 1929 H 172.666 1.13758 -2.27884 0
M  V30 1930 H 173.449 -0.0720836 -3.43224 0
M  V30 1931 N 175.894 1.51508 0.433938 0
M  V30 1932 C 177.14 1.64588 1.18484 0
M  V30 1933 C 177.473 0.362666 1.90784 0
M  V30 1934 O 176.748 -0.637892 1.83742 0
M  V30 1935 C 177.031 2.85149 2.19913 0
M  V30 1936 C 176.884 4.23456 1.51674 0
M  V30 1937 C 178.203 3.01227 3.20858 0
M  V30 1938 H 175.322 0.598994 0.429389 0
M  V30 1939 H 177.964 1.84002 0.473647 0
M  V30 1940 H 176.114 2.68729 2.80566 0
M  V30 1941 H 177.786 4.51552 0.943322 0
M  V30 1942 H 176.029 4.25998 0.819035 0
M  V30 1943 H 176.7 5.03812 2.2556 0
M  V30 1944 H 179.176 3.16382 2.70263 0
M  V30 1945 H 178.052 3.87141 3.89118 0
M  V30 1946 H 178.313 2.13447 3.8716 0
M  V30 1947 N 177.372 -0.689602 1.41712 0
M  V30 1948 C 178.783 -1.26973 1.36875 0
M  V30 1949 C 179.134 -1.96124 0.054748 0
M  V30 1950 O 178.259 -1.99141 -0.84687 0
M  V30 1951 C 178.854 -2.30912 2.47922 0
M  V30 1952 C 177.413 -2.84486 2.46464 0
M  V30 1953 C 176.56 -1.58603 2.27465 0
M  V30 1954 H 179.511 -0.48396 1.51141 0
M  V30 1955 H 179.532 -3.12331 2.17323 0
M  V30 1956 H 179.044 -1.80554 3.43543 0
M  V30 1957 H 177.145 -3.39005 1.54617 0
M  V30 1958 H 177.258 -3.34511 3.42986 0
M  V30 1959 H 175.622 -1.84632 1.75451 0
M  V30 1960 H 176.405 -1.10233 3.25121 0
M  V30 1961 N 178.85 -1.27639 -0.924453 0
M  V30 1962 C 180.099 -1.13549 -1.66702 0
M  V30 1963 C 180.412 0.317487 -1.93006 0
M  V30 1964 O 181.618 0.579333 -2.65247 0
M  V30 1965 C 180.074 -1.98426 -3.00259 0
M  V30 1966 C 179.682 -3.484 -2.81641 0
M  V30 1967 C 181.426 -1.92993 -3.78092 0
M  V30 1968 C 179.333 -4.25464 -4.10773 0
M  V30 1969 H 178.263 -0.421351 -0.625283 0
M  V30 1970 H 180.914 -1.52085 -1.02676 0
M  V30 1971 H 179.296 -1.52736 -3.6536 0
M  V30 1972 H 180.47 -4.01973 -2.25287 0
M  V30 1973 H 178.785 -3.55245 -2.17232 0
M  V30 1974 H 181.382 -2.47844 -4.7379 0
M  V30 1975 H 181.725 -0.904281 -4.0636 0
M  V30 1976 H 182.258 -2.36595 -3.19793 0
M  V30 1977 H 178.997 -5.28566 -3.87683 0
M  V30 1978 H 178.517 -3.76667 -4.66779 0
M  V30 1979 H 180.196 -4.34812 -4.79111 0
M  V30 1980 N 180.328 1.1314 -1.09713 0
M  V30 1981 C 181.574 1.84757 -0.836224 0
M  V30 1982 C 181.907 1.8347 0.636598 0
M  V30 1983 O 181.182 1.27491 1.46889 0
M  V30 1984 C 181.465 3.32782 -1.37578 0
M  V30 1985 C 181.318 3.42567 -2.91493 0
M  V30 1986 C 182.637 4.28307 -1.01198 0
M  V30 1987 H 179.756 0.67082 -0.305236 0
M  V30 1988 H 182.398 1.3278 -1.35903 0
M  V30 1989 H 180.548 3.77177 -0.931097 0
M  V30 1990 H 182.22 3.06862 -3.44432 0
M  V30 1991 H 180.463 2.83349 -3.28475 0
M  V30 1992 H 181.134 4.46674 -3.24324 0
M  V30 1993 H 183.61 3.91999 -1.39556 0
M  V30 1994 H 182.486 5.30307 -1.41653 0
M  V30 1995 H 182.747 4.42029 0.0794833 0
M  V30 1996 N 181.806 0.884767 1.30421 0
M  V30 1997 C 183.031 0.517288 2.00845 0
M  V30 1998 C 183.456 -0.886779 1.65885 0
M  V30 1999 O 182.814 -1.58768 0.875354 0
M  V30 2000 C 182.862 0.698994 3.5376 0
M  V30 2001 O 181.966 -0.255208 4.1161 0
M  V30 2002 H 181.307 0.203872 0.631927 0
M  V30 2003 H 183.837 1.19225 1.66272 0
M  V30 2004 H 183.847 0.597912 4.03595 0
M  V30 2005 H 182.522 1.72271 3.78544 0
M  V30 2006 H 181.099 -0.10784 3.72744 0
M  V30 2007 N 183.284 -1.43765 0.645699 0
M  V30 2008 C 184.194 -2.34544 -0.0512957 0
M  V30 2009 C 185.21 -1.53455 -0.82022 0
M  V30 2010 O 186.386 -1.86133 -0.769176 0
M  V30 2011 C 183.451 -3.31636 -1.01087 0
M  V30 2012 C 182.512 -4.2863 -0.239712 0
M  V30 2013 C 181.745 -5.21084 -1.15358 0
M  V30 2014 O 181.968 -5.1779 -2.39269 0
M  V30 2015 O 180.902 -5.98593 -0.630038 0
M  V30 2016 H 184.728 -2.95624 0.695718 0
M  V30 2017 H 182.313 -1.43781 0.405882 0
M  V30 2018 H 184.195 -3.9136 -1.56254 0
M  V30 2019 H 182.87 -2.73069 -1.73824 0
M  V30 2020 H 181.777 -3.72408 0.355356 0
M  V30 2021 H 183.11 -4.90157 0.447936 0
M  V30 2022 N 184.763 -0.387143 -1.52771 0
M  V30 2023 C 185.693 0.440551 -2.29306 0
M  V30 2024 C 186.674 1.06535 -1.32606 0
M  V30 2025 O 187.859 1.07853 -1.61497 0
M  V30 2026 C 184.989 1.56919 -3.09829 0
M  V30 2027 C 183.943 1.07054 -4.14395 0
M  V30 2028 C 183.269 2.29109 -4.83129 0
M  V30 2029 C 184.569 0.140015 -5.22112 0
M  V30 2030 H 186.263 -0.198026 -2.98744 0
M  V30 2031 H 183.809 -0.09668 -1.43675 0
M  V30 2032 H 185.762 2.15503 -3.62128 0
M  V30 2033 H 184.486 2.23532 -2.3812 0
M  V30 2034 H 183.145 0.507247 -3.63074 0
M  V30 2035 H 182.793 2.94227 -4.0797 0
M  V30 2036 H 182.493 1.96406 -5.53804 0
M  V30 2037 H 184.017 2.88339 -5.38231 0
M  V30 2038 H 185.431 0.633978 -5.69784 0
M  V30 2039 H 183.828 -0.0971485 -6.00021 0
M  V30 2040 H 184.898 -0.811711 -4.78058 0
M  V30 2041 N 186.241 1.57166 -0.116904 0
M  V30 2042 C 187.173 2.12271 0.864507 0
M  V30 2043 C 188.186 1.06494 1.23138 0
M  V30 2044 O 189.375 1.33873 1.18069 0
M  V30 2045 C 186.475 2.60564 2.16702 0
M  V30 2046 C 185.648 3.90416 1.97216 0
M  V30 2047 C 184.707 4.24329 3.11178 0
M  V30 2048 O 183.733 4.93182 2.84184 0
M  V30 2049 N 184.935 3.8148 4.37554 0
M  V30 2050 H 187.7 2.97102 0.393726 0
M  V30 2051 H 185.261 1.61759 0.0675805 0
M  V30 2052 H 187.253 2.80282 2.91932 0
M  V30 2053 H 185.823 1.80623 2.55135 0
M  V30 2054 H 185.043 3.79627 1.06192 0
M  V30 2055 H 186.331 4.75327 1.81499 0
M  V30 2056 H 185.729 3.25943 4.62361 0
M  V30 2057 H 184.286 4.06311 5.09661 0
M  V30 2058 N 187.719 -0.156864 1.56817 0
M  V30 2059 C 188.944 -0.890331 1.87318 0
M  V30 2060 C 189.369 -1.74394 0.704855 0
M  V30 2061 O 188.727 -1.77972 -0.345786 0
M  V30 2062 C 188.775 -1.73102 3.16336 0
M  V30 2063 O 187.879 -2.83422 2.99576 0
M  V30 2064 H 187.22 -0.24857 0.615718 0
M  V30 2065 H 189.75 -0.150649 2.04045 0
M  V30 2066 H 189.76 -2.12803 3.48107 0
M  V30 2067 H 188.435 -1.10412 4.00976 0
M  V30 2068 H 187.012 -2.47199 2.7919 0
M  V30 2069 N 189.197 -1.51736 -0.425897 0
M  V30 2070 C 190.445 -1.64644 -1.17204 0
M  V30 2071 C 190.766 -0.370486 -1.91448 0
M  V30 2072 O 190.036 0.614088 -1.86026 0
M  V30 2073 H 188.616 -0.606819 -0.435638 0
M  V30 2074 H 191.278 -1.88713 -0.487177 0
M  V30 2075 H 190.374 -2.47958 -1.89534 0
M  V30 2076 N 190.675 0.682077 -1.42076 0
M  V30 2077 C 191.622 1.79578 -1.44984 0
M  V30 2078 C 192.592 1.6332 -0.302614 0
M  V30 2079 O 193.777 1.83978 -0.505633 0
M  V30 2080 C 190.917 3.1756 -1.35091 0
M  V30 2081 C 190.03 3.45156 -2.59791 0
M  V30 2082 C 189.165 4.72826 -2.42093 0
M  V30 2083 C 188.204 4.93433 -3.62202 0
M  V30 2084 N 187.341 6.12338 -3.43491 0
M  V30 2085 H 192.181 1.76427 -2.40161 0
M  V30 2086 H 189.718 0.861376 -1.19242 0
M  V30 2087 H 191.676 3.97287 -1.27354 0
M  V30 2088 H 190.306 3.19854 -0.435133 0
M  V30 2089 H 189.358 2.59736 -2.77923 0
M  V30 2090 H 190.67 3.5628 -3.49094 0
M  V30 2091 H 189.824 5.60631 -2.319 0
M  V30 2092 H 188.563 4.63973 -1.50268 0
M  V30 2093 H 187.568 4.04073 -3.72834 0
M  V30 2094 H 188.793 5.04136 -4.54998 0
M  V30 2095 H 186.739 6.04672 -2.54377 0
M  V30 2096 H 186.656 6.2429 -4.26377 0
M  V30 2097 H 187.924 7.02841 -3.37097 0
M  V30 2098 N 192.153 1.28127 0.917671 0
M  V30 2099 C 193.399 1.16232 1.66918 0
M  V30 2100 C 193.754 -0.28701 1.90247 0
M  V30 2101 O 193.047 -1.20586 1.48895 0
M  V30 2102 C 193.241 1.89018 3.03327 0
M  V30 2103 C 193.07 3.4088 2.9331 0
M  V30 2104 C 191.84 4.10214 2.95047 0
M  V30 2105 C 194.038 4.36689 2.71675 0
M  V30 2106 N 192.02 5.48571 2.75577 0
M  V30 2107 C 193.391 5.62382 2.6101 0
M  V30 2108 C 195.446 4.26661 2.56641 0
M  V30 2109 C 194.149 6.79189 2.36843 0
M  V30 2110 C 196.175 5.432 2.33853 0
M  V30 2111 C 195.537 6.67855 2.23939 0
M  V30 2112 H 191.636 0.48024 0.617166 0
M  V30 2113 H 194.22 1.61727 1.08409 0
M  V30 2114 H 192.391 1.45963 3.59929 0
M  V30 2115 H 194.123 1.69541 3.67475 0
M  V30 2116 H 190.878 3.61762 3.05655 0
M  V30 2117 H 191.302 6.21287 2.68945 0
M  V30 2118 H 195.944 3.30998 2.63059 0
M  V30 2119 H 193.662 7.74926 2.29164 0
M  V30 2120 H 197.248 5.37328 2.23091 0
M  V30 2121 H 196.128 7.56511 2.06546 0
M  V30 2122 N 193.631 -1.12557 1.10312 0
M  V30 2123 C 194.879 -1.83675 0.843091 0
M  V30 2124 C 195.2 -1.84435 -0.633131 0
M  V30 2125 O 194.47 -1.30657 -1.45964 0
M  V30 2126 H 193.05 -0.680138 0.308904 0
M  V30 2127 H 195.712 -1.36301 1.39313 0
M  V30 2128 H 194.808 -2.87908 1.2048 0
M  V30 2129 N 195.109 -0.891671 -1.2995 0
M  V30 2130 C 196.072 -0.36828 -2.26222 0
M  V30 2131 C 197.072 0.493014 -1.53056 0
M  V30 2132 O 198.262 0.299213 -1.71611 0
M  V30 2133 C 195.394 0.47442 -3.37583 0
M  V30 2134 H 196.587 -1.21844 -2.74033 0
M  V30 2135 H 194.14 -0.669107 -1.41254 0
M  V30 2136 H 194.875 1.34489 -2.95099 0
M  V30 2137 H 194.66 -0.142615 -3.91841 0
M  V30 2138 H 196.15 0.83218 -4.09224 0
M  V30 2139 N 196.587 1.43421 -0.653314 0
M  V30 2140 C 197.534 2.30768 0.0382271 0
M  V30 2141 C 198.504 1.44755 0.814576 0
M  V30 2142 O 199.689 1.73624 0.791162 0
M  V30 2143 C 196.829 3.30336 0.998599 0
M  V30 2144 C 195.942 4.31448 0.218342 0
M  V30 2145 C 195.077 5.18098 1.17252 0
M  V30 2146 C 194.116 6.10902 0.382702 0
M  V30 2147 N 193.253 6.90176 1.28848 0
M  V30 2148 H 198.093 2.89357 -0.712511 0
M  V30 2149 H 195.63 1.42548 -0.363128 0
M  V30 2150 H 197.588 3.86572 1.56901 0
M  V30 2151 H 196.218 2.73397 1.71621 0
M  V30 2152 H 195.27 3.77506 -0.46836 0
M  V30 2153 H 196.582 4.97227 -0.395812 0
M  V30 2154 H 195.736 5.7896 1.81356 0
M  V30 2155 H 194.475 4.52444 1.82058 0
M  V30 2156 H 193.48 5.49128 -0.27169 0
M  V30 2157 H 194.705 6.78598 -0.260957 0
M  V30 2158 H 192.651 6.27171 1.92334 0
M  V30 2159 H 192.568 7.52478 0.728887 0
M  V30 2160 H 193.836 7.55543 1.91766 0
M  V30 2161 N 198.065 0.39524 1.52563 0
M  V30 2162 C 199.314 -0.186321 2.00838 0
M  V30 2163 C 199.627 -1.47402 1.28577 0
M  V30 2164 O 200.833 -2.13599 1.67593 0
M  V30 2165 C 199.289 -0.382595 3.57861 0
M  V30 2166 C 198.897 0.892202 4.39026 0
M  V30 2167 C 200.641 -0.9202 4.14406 0
M  V30 2168 C 198.548 0.66388 5.87662 0
M  V30 2169 H 197.478 -0.0734041 0.750418 0
M  V30 2170 H 200.129 0.518552 1.76021 0
M  V30 2171 H 198.511 -1.14946 3.7895 0
M  V30 2172 H 199.685 1.66414 4.29701 0
M  V30 2173 H 198 1.35519 3.9373 0
M  V30 2174 H 200.597 -1.10683 5.23119 0
M  V30 2175 H 200.94 -1.89096 3.70875 0
M  V30 2176 H 201.473 -0.212751 3.97231 0
M  V30 2177 H 198.212 1.6058 6.35527 0
M  V30 2178 H 197.732 -0.0690193 5.9976 0
M  V30 2179 H 199.411 0.300699 6.46301 0
M  V30 2180 N 199.544 -1.57102 0.125237 0
M  V30 2181 C 200.79 -1.95697 -0.532035 0
M  V30 2182 C 201.123 -1.009 -1.6593 0
M  V30 2183 O 200.398 -0.047347 -1.94442 0
M  V30 2184 C 200.681 -3.44181 -1.05884 0
M  V30 2185 C 200.534 -4.49752 0.0654392 0
M  V30 2186 C 201.853 -3.94655 -1.9477 0
M  V30 2187 H 198.972 -0.711571 -0.191925 0
M  V30 2188 H 201.614 -1.88923 0.20206 0
M  V30 2189 H 199.764 -3.50085 -1.68442 0
M  V30 2190 H 201.436 -4.55943 0.700982 0
M  V30 2191 H 199.679 -4.27653 0.727709 0
M  V30 2192 H 200.35 -5.50924 -0.344505 0
M  V30 2193 H 202.826 -3.91094 -1.42074 0
M  V30 2194 H 201.702 -4.99057 -2.28546 0
M  V30 2195 H 201.963 -3.35718 -2.87656 0
M  V30 2196 N 201.022 0.148545 -1.56898 0
M  V30 2197 C 201.955 1.21293 -1.93296 0
M  V30 2198 C 202.933 1.41637 -0.798599 0
M  V30 2199 O 204.117 1.56275 -1.05406 0
M  V30 2200 C 201.244 2.5721 -2.20365 0
M  V30 2201 C 200.29 2.53469 -3.4301 0
M  V30 2202 S 201.123 2.00315 -4.96623 0
M  V30 2203 C 202.279 3.37964 -5.26812 0
M  V30 2204 H 202.512 0.902393 -2.83274 0
M  V30 2205 H 200.045 0.354094 -1.50285 0
M  V30 2206 H 202.003 3.35427 -2.36641 0
M  V30 2207 H 200.664 2.85454 -1.31054 0
M  V30 2208 H 199.857 3.53518 -3.59223 0
M  V30 2209 H 199.459 1.83359 -3.25968 0
M  V30 2210 H 201.751 4.34066 -5.20185 0
M  V30 2211 H 202.694 3.26606 -6.28279 0
M  V30 2212 H 203.102 3.35028 -4.54331 0
M  V30 2213 N 202.5 1.5196 0.417844 0
M  V30 2214 C 203.916 1.40569 0.755816 0
M  V30 2215 C 204.116 0.503316 1.95113 0
M  V30 2216 O 203.172 -0.0341925 2.52477 0
M  V30 2217 C 204.485 2.82947 1.01791 0
M  V30 2218 C 206.033 2.92231 1.12116 0
M  V30 2219 C 206.508 4.35559 1.41608 0
M  V30 2220 N 207.999 4.38753 1.48491 0
M  V30 2221 C 208.734 5.46705 1.7292 0
M  V30 2222 N 208.23 6.64788 1.95011 0
M  V30 2223 N 210.023 5.34209 1.74863 0
M  V30 2224 H 202.174 2.09168 -0.369098 0
M  V30 2225 H 204.437 0.942409 -0.102809 0
M  V30 2226 H 204.143 3.5106 0.212081 0
M  V30 2227 H 204.017 3.23462 1.94042 0
M  V30 2228 H 206.404 2.24304 1.9176 0
M  V30 2229 H 206.485 2.55185 0.177225 0
M  V30 2230 H 206.129 5.04042 0.624848 0
M  V30 2231 H 206.059 4.70133 2.37239 0
M  V30 2232 H 208.55 3.5363 1.33244 0
M  V30 2233 H 208.863 7.42845 2.13076 0
M  V30 2234 H 207.208 6.67869 1.92293 0
M  V30 2235 H 210.399 4.40937 1.57137 0
M  V30 2236 H 210.572 6.18415 1.93563 0
M  V30 2237 N 203.978 -0.674533 1.42435 0
M  V30 2238 C 204.888 -1.81751 1.48337 0
M  V30 2239 C 205.904 -1.69975 0.372099 0
M  V30 2240 O 207.08 -1.91521 0.62304 0
M  V30 2241 C 204.145 -3.17895 1.38361 0
M  V30 2242 C 203.206 -3.41625 2.59982 0
M  V30 2243 C 202.439 -4.71274 2.50473 0
M  V30 2244 O 202.662 -5.49197 1.54075 0
M  V30 2245 O 201.596 -4.96254 3.4061 0
M  V30 2246 H 205.422 -1.79728 2.44809 0
M  V30 2247 H 203.007 -0.830312 1.24202 0
M  V30 2248 H 204.889 -3.99136 1.35161 0
M  V30 2249 H 203.564 -3.20555 0.450144 0
M  V30 2250 H 202.471 -2.60231 2.68757 0
M  V30 2251 H 203.804 -3.43796 3.52229 0
M  V30 2252 N 205.456 -1.28612 -0.910864 0
M  V30 2253 C 206.733 -1.06632 -1.63979 0
M  V30 2254 C 207.113 0.393351 -2.07403 0
M  V30 2255 O 206.461 1.37999 -1.82122 0
M  V30 2256 C 206.671 -2.0436 -2.8291 0
M  V30 2257 C 208.019 -2.34666 -3.5386 0
M  V30 2258 O 209.043 -2.02467 -2.93062 0
M  V30 2259 O 207.902 -2.89631 -4.63439 0
M  V30 2260 H 204.996 -0.407737 -0.7195 0
M  V30 2261 H 207.542 -1.39942 -0.959914 0
M  V30 2262 H 206.314 -3.02727 -2.47936 0
M  V30 2263 H 205.937 -1.71714 -3.58609 0
M  V30 2264 N 206.934 1.1197 -1.10907 0
M  V30 2265 C 208.35 1.35591 -0.841852 0
M  V30 2266 C 208.55 1.94233 0.536246 0
M  V30 2267 O 207.606 2.1717 1.28816 0
M  V30 2268 C 208.919 2.29284 -1.94549 0
M  V30 2269 C 210.467 2.42862 -1.97451 0
M  V30 2270 C 210.942 3.39873 -3.07002 0
M  V30 2271 N 212.433 3.47433 -3.06341 0
M  V30 2272 C 213.168 4.22421 -3.87748 0
M  V30 2273 N 212.664 5.00432 -4.79103 0
M  V30 2274 N 214.457 4.17876 -3.75946 0
M  V30 2275 H 206.608 0.722664 -1.99728 0
M  V30 2276 H 208.871 0.380635 -0.868229 0
M  V30 2277 H 208.577 1.93378 -2.93765 0
M  V30 2278 H 208.451 3.29452 -1.83688 0
M  V30 2279 H 210.838 2.78046 -0.988645 0
M  V30 2280 H 210.919 1.42566 -2.12388 0
M  V30 2281 H 210.563 3.05417 -4.05811 0
M  V30 2282 H 210.493 4.40011 -2.89306 0
M  V30 2283 H 212.984 2.91784 -2.40147 0
M  V30 2284 H 213.297 5.55002 -5.37766 0
M  V30 2285 H 211.642 4.99612 -4.83128 0
M  V30 2286 H 214.833 3.56016 -3.03924 0
M  V30 2287 H 215.006 4.76061 -4.39624 0
M  V30 2288 N 208.412 0.89855 1.29475 0
M  V30 2289 C 209.637 0.538561 2.00285 0
M  V30 2290 C 210.062 -0.869135 1.66816 0
M  V30 2291 O 209.42 -1.57831 0.892145 0
M  V30 2292 C 209.468 0.736475 3.52999 0
M  V30 2293 O 208.572 -0.211537 4.11857 0
M  V30 2294 H 207.913 0.210563 0.62973 0
M  V30 2295 H 210.443 1.20982 1.64998 0
M  V30 2296 H 210.453 0.640685 4.02938 0
M  V30 2297 H 209.128 1.76276 3.76696 0
M  V30 2298 H 207.705 -0.0682991 3.72837 0
M  V30 2299 N 209.89 -1.43072 0.660911 0
M  V30 2300 C 211.136 -2.0202 0.177708 0
M  V30 2301 C 211.469 -1.52066 -1.20787 0
M  V30 2302 O 210.744 -0.716987 -1.80802 0
M  V30 2303 C 211.027 -3.59561 0.197019 0
M  V30 2304 C 210.88 -4.19727 1.61706 0
M  V30 2305 C 212.199 -4.37664 -0.462396 0
M  V30 2306 H 209.318 -0.734034 0.0660494 0
M  V30 2307 H 211.96 -1.70272 0.843058 0
M  V30 2308 H 210.11 -3.86739 -0.369527 0
M  V30 2309 H 211.782 -4.03553 2.23479 0
M  V30 2310 H 210.025 -3.76084 2.16201 0
M  V30 2311 H 210.696 -5.28834 1.58237 0
M  V30 2312 H 213.172 -4.16095 0.0197215 0
M  V30 2313 H 212.048 -5.47305 -0.418188 0
M  V30 2314 H 212.309 -4.14493 -1.53778 0
M  V30 2315 N 211.368 -0.403325 -1.52352 0
M  V30 2316 C 212.784 -0.0539281 -1.59509 0
M  V30 2317 C 212.984 1.43307 -1.41652 0
M  V30 2318 O 212.04 2.19924 -1.24056 0
M  V30 2319 C 213.353 -0.543654 -2.95745 0
M  V30 2320 C 214.901 -0.501125 -3.08962 0
M  V30 2321 C 215.376 -0.967267 -4.47669 0
M  V30 2322 N 216.867 -0.923849 -4.53893 0
M  V30 2323 C 217.602 -1.25578 -5.5948 0
M  V30 2324 N 217.098 -1.65889 -6.72646 0
M  V30 2325 N 218.891 -1.17613 -5.49658 0
M  V30 2326 H 211.042 -1.37123 -1.62206 0
M  V30 2327 H 213.305 -0.56294 -0.76276 0
M  V30 2328 H 213.011 -1.58275 -3.14073 0
M  V30 2329 H 212.885 0.0498042 -3.77167 0
M  V30 2330 H 215.272 0.528909 -2.90321 0
M  V30 2331 H 215.353 -1.13056 -2.2946 0
M  V30 2332 H 214.997 -1.9956 -4.67053 0
M  V30 2333 H 214.927 -0.314698 -5.25659 0
M  V30 2334 H 217.418 -0.627403 -3.72655 0
M  V30 2335 H 217.731 -1.89543 -7.49195 0
M  V30 2336 H 216.076 -1.69787 -6.73942 0
M  V30 2337 H 219.267 -0.860115 -4.6013 0
M  V30 2338 H 219.44 -1.43812 -6.3184 0
M  V30 2339 N 212.846 1.57033 -0.133567 0
M  V30 2340 C 213.776 2.1909 0.807567 0
M  V30 2341 C 214.757 1.13517 1.26681 0
M  V30 2342 O 215.942 1.41809 1.32679 0
M  V30 2343 C 213.072 2.80188 2.05212 0
M  V30 2344 C 212.026 3.91471 1.73015 0
M  V30 2345 C 211.352 4.39443 3.04622 0
M  V30 2346 C 212.652 5.12886 0.987168 0
M  V30 2347 H 214.346 2.97988 0.290403 0
M  V30 2348 H 211.892 1.43335 0.138239 0
M  V30 2349 H 213.845 3.22264 2.71521 0
M  V30 2350 H 212.569 1.98601 2.59278 0
M  V30 2351 H 211.228 3.49993 1.0909 0
M  V30 2352 H 210.876 3.54695 3.56651 0
M  V30 2353 H 210.576 5.14495 2.83847 0
M  V30 2354 H 212.1 4.8418 3.72024 0
M  V30 2355 H 213.514 5.51891 1.55208 0
M  V30 2356 H 211.911 5.93615 0.87985 0
M  V30 2357 H 212.981 4.84894 -0.0235286 0
M  V30 2358 N 214.325 -0.140222 1.56975 0
M  V30 2359 C 215.55 -0.870414 1.88251 0
M  V30 2360 C 215.975 -1.73637 0.723312 0
M  V30 2361 O 215.333 -1.78329 -0.32689 0
M  V30 2362 C 215.381 -1.69737 3.18154 0
M  V30 2363 O 214.485 -2.80229 3.02565 0
M  V30 2364 H 213.826 -0.242025 0.61832 0
M  V30 2365 H 216.356 -0.128999 2.04193 0
M  V30 2366 H 216.366 -2.09099 3.50345 0
M  V30 2367 H 215.041 -1.06152 4.02125 0
M  V30 2368 H 213.618 -2.44224 2.81796 0
M  V30 2369 N 215.803 -1.52179 -0.40978 0
M  V30 2370 C 217.052 -1.65434 -1.15388 0
M  V30 2371 C 217.365 -0.390056 -1.91671 0
M  V30 2372 O 218.571 -0.402399 -2.68501 0
M  V30 2373 C 217.027 -2.92279 -2.10003 0
M  V30 2374 C 216.635 -4.25813 -1.39239 0
M  V30 2375 C 218.379 -3.14897 -2.84675 0
M  V30 2376 C 216.286 -5.43782 -2.32498 0
M  V30 2377 H 215.216 -0.616267 -0.434432 0
M  V30 2378 H 217.867 -1.78666 -0.418401 0
M  V30 2379 H 216.249 -2.72744 -2.871 0
M  V30 2380 H 217.423 -4.55828 -0.675099 0
M  V30 2381 H 215.738 -4.09292 -0.766097 0
M  V30 2382 H 218.335 -4.0021 -3.54593 0
M  V30 2383 H 218.678 -2.29103 -3.47588 0
M  V30 2384 H 219.211 -3.34901 -2.14677 0
M  V30 2385 H 215.95 -6.3192 -1.74233 0
M  V30 2386 H 215.47 -5.18106 -3.02201 0
M  V30 2387 H 217.149 -5.76834 -2.93038 0
M  V30 2388 N 217.281 0.66697 -1.42791 0
M  V30 2389 C 218.213 1.7925 -1.42836 0
M  V30 2390 C 219.226 1.59496 -0.326333 0
M  V30 2391 O 220.415 1.6847 -0.589916 0
M  V30 2392 C 217.515 3.16476 -1.21229 0
M  V30 2393 C 216.688 3.63011 -2.44013 0
M  V30 2394 C 215.747 4.78993 -2.17834 0
M  V30 2395 O 214.773 4.89137 -2.91091 0
M  V30 2396 N 215.975 5.68248 -1.18635 0
M  V30 2397 H 218.74 1.79695 -2.39854 0
M  V30 2398 H 216.301 0.850338 -1.37771 0
M  V30 2399 H 218.293 3.91734 -1.01621 0
M  V30 2400 H 216.863 3.10884 -0.32706 0
M  V30 2401 H 216.083 2.78346 -2.79137 0
M  V30 2402 H 217.371 3.90845 -3.25757 0
M  V30 2403 H 216.769 5.62712 -0.580615 0
M  V30 2404 H 215.326 6.43285 -1.05013 0
M  V30 2405 N 218.759 1.29093 0.90403 0
M  V30 2406 C 219.984 1.19809 1.69294 0
M  V30 2407 C 220.409 -0.238481 1.86582 0
M  V30 2408 O 219.767 -1.1723 1.383 0
M  V30 2409 C 219.815 1.91202 3.05736 0
M  V30 2410 O 218.919 1.22611 3.93752 0
M  V30 2411 H 218.26 0.415385 0.518027 0
M  V30 2412 H 220.79 1.70586 1.12967 0
M  V30 2413 H 220.8 1.99487 3.55906 0
M  V30 2414 H 219.475 2.95692 2.92471 0
M  V30 2415 H 218.052 1.22554 3.52186 0
M  V30 2416 N 220.237 -1.11381 1.11499 0
M  V30 2417 C 221.462 -1.87475 0.887019 0
M  V30 2418 C 221.887 -1.79639 -0.557796 0
M  V30 2419 O 221.245 -1.15924 -1.39396 0
M  V30 2420 C 221.293 -3.34213 1.35403 0
M  V30 2421 O 220.397 -4.0903 0.526146 0
M  V30 2422 H 219.738 -0.582099 0.319463 0
M  V30 2423 H 222.268 -1.40785 1.48461 0
M  V30 2424 H 222.278 -3.8506 1.34881 0
M  V30 2425 H 220.953 -3.39232 2.40612 0
M  V30 2426 H 219.53 -3.68082 0.597522 0
M  V30 2427 N 221.715 -0.905404 -1.28997 0
M  V30 2428 C 223.126 -0.581953 -1.77398 0
M  V30 2429 C 223.477 0.902552 -1.74208 0
M  V30 2430 O 222.602 1.70584 -1.33154 0
M  V30 2431 C 223.197 -1.04961 -3.22131 0
M  V30 2432 C 221.756 -0.777229 -3.68288 0
M  V30 2433 C 220.903 -1.22109 -2.48967 0
M  V30 2434 H 223.854 -1.08754 -1.15578 0
M  V30 2435 H 223.875 -0.387387 -3.78523 0
M  V30 2436 H 223.387 -2.13008 -3.24421 0
M  V30 2437 H 221.488 0.290383 -3.71467 0
M  V30 2438 H 221.601 -1.37911 -4.58822 0
M  V30 2439 H 219.965 -0.639971 -2.46529 0
M  V30 2440 H 220.748 -2.30972 -2.53982 0
M  V30 2441 N 223.193 1.4272 -0.668489 0
M  V30 2442 C 224.14 2.30796 0.0137489 0
M  V30 2443 C 225.11 1.4561 0.799177 0
M  V30 2444 O 226.295 1.74453 0.772702 0
M  V30 2445 C 223.435 3.31377 0.963507 0
M  V30 2446 C 222.548 4.31655 0.172569 0
M  V30 2447 C 221.683 5.19312 1.1175 0
M  V30 2448 C 220.722 6.11274 0.317886 0
M  V30 2449 N 219.859 6.91504 1.2152 0
M  V30 2450 H 224.699 2.88585 -0.743161 0
M  V30 2451 H 222.236 1.42154 -0.378226 0
M  V30 2452 H 224.194 3.88214 1.52792 0
M  V30 2453 H 222.824 2.75202 1.68712 0
M  V30 2454 H 221.876 3.76988 -0.508374 0
M  V30 2455 H 223.188 4.96779 -0.448527 0
M  V30 2456 H 222.342 5.80851 1.75206 0
M  V30 2457 H 221.081 4.5435 1.77249 0
M  V30 2458 H 220.086 5.48809 -0.329918 0
M  V30 2459 H 221.311 6.78283 -0.332917 0
M  V30 2460 H 219.257 6.29176 1.85671 0
M  V30 2461 H 219.174 7.53209 0.649036 0
M  V30 2462 H 220.442 7.57535 1.83742 0
M  V30 2463 N 224.671 0.411399 1.52136 0
M  V30 2464 C 225.911 -0.163143 2.03748 0
M  V30 2465 C 226.275 -1.42187 1.29022 0
M  V30 2466 O 227.476 -2.075 1.70872 0
M  V30 2467 C 225.747 -0.402651 3.55125 0
M  V30 2468 S 227.306 -0.944315 4.28519 0
M  V30 2469 H 224.124 -0.0439833 0.709638 0
M  V30 2470 H 226.726 0.56484 1.87163 0
M  V30 2471 H 225.43 0.520212 4.0709 0
M  V30 2472 H 224.961 -1.15844 3.75957 0
M  V30 2473 H 226.976 -2.22463 4.43536 0
M  V30 2474 N 226.149 -1.5696 0.141893 0
M  V30 2475 C 227.398 -1.95135 -0.510427 0
M  V30 2476 C 227.711 -1.02896 -1.66348 0
M  V30 2477 O 228.917 -1.30629 -2.38009 0
M  V30 2478 C 227.373 -3.46876 -0.959427 0
M  V30 2479 C 226.981 -4.47691 0.166419 0
M  V30 2480 C 228.725 -3.93927 -1.58183 0
M  V30 2481 C 226.632 -5.90636 -0.300565 0
M  V30 2482 H 225.562 -0.728494 -0.194454 0
M  V30 2483 H 228.213 -1.8211 0.22542 0
M  V30 2484 H 226.595 -3.55215 -1.75038 0
M  V30 2485 H 227.769 -4.51043 0.94325 0
M  V30 2486 H 226.084 -4.10527 0.696905 0
M  V30 2487 H 228.681 -4.98158 -1.94275 0
M  V30 2488 H 229.024 -3.3519 -2.46888 0
M  V30 2489 H 229.557 -3.88484 -0.855863 0
M  V30 2490 H 226.296 -6.5318 0.550989 0
M  V30 2491 H 225.816 -5.90655 -1.04338 0
M  V30 2492 H 227.495 -6.42588 -0.754265 0
M  V30 2493 N 227.627 0.131896 -1.57047 0
M  V30 2494 C 228.873 0.843179 -1.84441 0
M  V30 2495 C 229.206 1.80129 -0.725749 0
M  V30 2496 O 228.481 1.92624 0.269469 0
M  V30 2497 C 228.764 1.60442 -3.22382 0
M  V30 2498 C 228.617 0.666782 -4.4483 0
M  V30 2499 C 229.936 2.56354 -3.5773 0
M  V30 2500 H 227.055 0.305081 -0.670891 0
M  V30 2501 H 229.697 0.107839 -1.89694 0
M  V30 2502 H 227.847 2.23128 -3.18035 0
M  V30 2503 H 229.519 0.0497646 -4.61273 0
M  V30 2504 H 227.762 -0.022609 -4.33794 0
M  V30 2505 H 228.433 1.23579 -5.37989 0
M  V30 2506 H 230.909 2.0378 -3.62785 0
M  V30 2507 H 229.785 3.06657 -4.5525 0
M  V30 2508 H 230.046 3.38419 -2.84473 0
M  V30 2509 N 229.106 1.52395 0.401703 0
M  V30 2510 C 230.354 1.66488 1.14569 0
M  V30 2511 C 230.675 0.400897 1.90835 0
M  V30 2512 O 229.945 -0.584415 1.8698 0
M  V30 2513 H 228.525 0.613672 0.425929 0
M  V30 2514 H 231.187 1.89464 0.457093 0
M  V30 2515 H 230.283 2.50942 1.85566 0
M  V30 2516 N 230.584 -0.659388 1.43143 0
M  V30 2517 C 231.531 -1.77249 1.47822 0
M  V30 2518 C 232.501 -1.62818 0.328558 0
M  V30 2519 O 233.686 -1.83151 0.534838 0
M  V30 2520 C 230.826 -3.15371 1.40126 0
M  V30 2521 C 229.939 -3.4098 2.65249 0
M  V30 2522 C 229.074 -4.68915 2.49584 0
M  V30 2523 C 228.113 -4.87608 3.70006 0
M  V30 2524 N 227.25 -6.06796 3.53189 0
M  V30 2525 H 232.09 -1.72584 2.42938 0
M  V30 2526 H 229.627 -0.842297 1.20598 0
M  V30 2527 H 231.585 -3.9521 1.33659 0
M  V30 2528 H 230.215 -3.19121 0.485964 0
M  V30 2529 H 229.267 -2.55282 2.8202 0
M  V30 2530 H 230.579 -3.50681 3.54717 0
M  V30 2531 H 229.733 -5.56871 2.4079 0
M  V30 2532 H 228.472 -4.61524 1.5763 0
M  V30 2533 H 227.477 -3.9809 3.79215 0
M  V30 2534 H 228.702 -4.96834 4.62961 0
M  V30 2535 H 226.648 -6.00549 2.63965 0
M  V30 2536 H 226.565 -6.17428 4.36255 0
M  V30 2537 H 227.833 -6.9739 3.48236 0
M  V30 2538 N 232.062 -1.29571 -0.897171 0
M  V30 2539 C 233.309 -1.17689 -1.6479 0
M  V30 2540 C 233.637 0.27107 -1.92602 0
M  V30 2541 O 232.892 1.21193 -1.53658 0
M  V30 2542 C 233.191 -1.9382 -3.00281 0
M  V30 2543 C 232.857 -3.43522 -2.92068 0
M  V30 2544 C 231.519 -3.84348 -2.89535 0
M  V30 2545 C 233.871 -4.38906 -2.81089 0
M  V30 2546 C 231.199 -5.18869 -2.73846 0
M  V30 2547 C 233.551 -5.73521 -2.66939 0
M  V30 2548 C 232.215 -6.13601 -2.62774 0
M  V30 2549 H 231.485 -0.430654 -0.603008 0
M  V30 2550 H 234.132 -1.60536 -1.04404 0
M  V30 2551 H 232.437 -1.4357 -3.64547 0
M  V30 2552 H 234.134 -1.82028 -3.57305 0
M  V30 2553 H 230.724 -3.11072 -2.94842 0
M  V30 2554 H 234.908 -4.08315 -2.82121 0
M  V30 2555 H 230.164 -5.4903 -2.69027 0
M  V30 2556 H 234.338 -6.47078 -2.57416 0
M  V30 2557 H 231.965 -7.17786 -2.50375 0
M  V30 2558 N 233.54 1.10788 -1.12088 0
M  V30 2559 C 234.956 1.34691 -0.856186 0
M  V30 2560 C 235.156 1.94791 0.515615 0
M  V30 2561 O 234.212 2.18524 1.26505 0
M  V30 2562 C 235.525 2.27208 -1.9697 0
M  V30 2563 C 237.073 2.40755 -2.00016 0
M  V30 2564 C 237.548 3.36598 -3.1059 0
M  V30 2565 N 239.039 3.44164 -3.10008 0
M  V30 2566 C 239.774 4.18284 -3.92206 0
M  V30 2567 N 239.27 4.95322 -4.84384 0
M  V30 2568 N 241.063 4.13865 -3.80357 0
M  V30 2569 H 233.214 0.70144 -2.00483 0
M  V30 2570 H 235.477 0.371405 -0.872217 0
M  V30 2571 H 235.183 1.90251 -2.958 0
M  V30 2572 H 235.057 3.27485 -1.87172 0
M  V30 2573 H 237.444 2.76982 -1.01808 0
M  V30 2574 H 237.525 1.40305 -2.13888 0
M  V30 2575 H 237.169 3.01096 -4.09028 0
M  V30 2576 H 237.099 4.36918 -2.93956 0
M  V30 2577 H 239.59 2.8922 -2.43228 0
M  V30 2578 H 239.903 5.49267 -5.43623 0
M  V30 2579 H 238.248 4.94459 -4.884 0
M  V30 2580 H 241.439 3.52773 -3.07683 0
M  V30 2581 H 241.612 4.71372 -4.44649 0
M  V30 2582 N 235.018 0.912232 1.28515 0
M  V30 2583 C 235.951 0.343928 2.25593 0
M  V30 2584 C 236.929 -0.550994 1.5298 0
M  V30 2585 O 238.113 -0.494991 1.81885 0
M  V30 2586 C 235.24 -0.508525 3.34861 0
M  V30 2587 C 234.286 0.320808 4.25292 0
M  V30 2588 S 235.119 1.72658 5.06902 0
M  V30 2589 C 236.275 0.881394 6.19663 0
M  V30 2590 H 236.508 1.16674 2.73449 0
M  V30 2591 H 234.041 0.713384 1.36931 0
M  V30 2592 H 235.999 -0.994539 3.9827 0
M  V30 2593 H 234.66 -1.30571 2.85675 0
M  V30 2594 H 233.853 -0.330941 5.02912 0
M  V30 2595 H 233.455 0.74042 3.66598 0
M  V30 2596 H 235.747 0.110359 6.7741 0
M  V30 2597 H 236.69 1.63009 6.89082 0
M  V30 2598 H 237.098 0.430239 5.62858 0
M  V30 2599 N 236.496 -1.42363 0.676048 0
M  V30 2600 C 237.726 -2.05561 0.206967 0
M  V30 2601 C 238.134 -1.50887 -1.14148 0
M  V30 2602 O 237.477 -0.643933 -1.72044 0
M  V30 2603 C 237.539 -3.5944 0.0659508 0
M  V30 2604 C 237.203 -4.36812 1.34331 0
M  V30 2605 C 238.2 -4.67383 2.27704 0
M  V30 2606 C 235.885 -4.76429 1.59125 0
M  V30 2607 C 237.879 -5.36509 3.44147 0
M  V30 2608 C 235.566 -5.45294 2.75857 0
M  V30 2609 C 236.564 -5.75259 3.68193 0
M  V30 2610 O 236.252 -6.42712 4.82883 0
M  V30 2611 H 235.984 -0.668872 0.0979084 0
M  V30 2612 H 238.538 -1.83467 0.923531 0
M  V30 2613 H 236.768 -3.80197 -0.706204 0
M  V30 2614 H 238.457 -4.0427 -0.363418 0
M  V30 2615 H 239.223 -4.37275 2.09799 0
M  V30 2616 H 235.102 -4.52498 0.881258 0
M  V30 2617 H 238.646 -5.59814 4.16238 0
M  V30 2618 H 234.543 -5.7482 2.93688 0
M  V30 2619 H 235.311 -6.61204 4.82444 0
M  V30 2620 N 237.974 -0.419461 -1.51915 0
M  V30 2621 C 239.22 0.153166 -2.02221 0
M  V30 2622 C 239.553 1.43907 -1.30401 0
M  V30 2623 O 238.828 1.90055 -0.413438 0
M  V30 2624 C 239.111 0.390291 -3.57979 0
M  V30 2625 C 238.964 -0.913014 -4.40436 0
M  V30 2626 C 240.283 1.16794 -4.2432 0
M  V30 2627 H 237.402 0.0541924 -0.735005 0
M  V30 2628 H 240.044 -0.554955 -1.81715 0
M  V30 2629 H 238.194 0.993491 -3.75582 0
M  V30 2630 H 239.866 -1.54882 -4.34522 0
M  V30 2631 H 238.109 -1.52168 -4.06236 0
M  V30 2632 H 238.78 -0.701361 -5.47526 0
M  V30 2633 H 241.256 0.657161 -4.10878 0
M  V30 2634 H 240.132 1.3026 -5.3322 0
M  V30 2635 H 240.393 2.19132 -3.83971 0
M  V30 2636 N 239.452 1.56882 -0.150215 0
M  V30 2637 C 240.415 2.1573 0.774157 0
M  V30 2638 C 241.415 1.0999 1.17298 0
M  V30 2639 O 242.605 1.35613 1.09338 0
M  V30 2640 C 239.737 2.72302 2.05096 0
M  V30 2641 H 240.93 2.98752 0.262201 0
M  V30 2642 H 238.483 1.55985 0.099248 0
M  V30 2643 H 239.218 1.92956 2.6065 0
M  V30 2644 H 239.003 3.49665 1.77416 0
M  V30 2645 H 240.493 3.17632 2.71109 0
M  V30 2646 N 240.93 -0.123565 1.57115 0
M  V30 2647 C 242.176 -0.833386 1.84885 0
M  V30 2648 C 242.509 -1.79742 0.735292 0
M  V30 2649 O 241.784 -1.92764 -0.25925 0
M  V30 2650 C 242.067 -1.5873 3.23228 0
M  V30 2651 C 241.92 -0.643183 4.45178 0
M  V30 2652 C 243.239 -2.54453 3.59085 0
M  V30 2653 H 240.358 -0.301518 0.6725 0
M  V30 2654 H 243 -0.097778 1.89748 0
M  V30 2655 H 241.15 -2.21438 3.19214 0
M  V30 2656 H 242.822 -0.0253015 4.61293 0
M  V30 2657 H 241.065 0.0456139 4.33776 0
M  V30 2658 H 241.736 -1.20724 5.38637 0
M  V30 2659 H 244.212 -2.01853 3.63861 0
M  V30 2660 H 243.088 -3.04238 4.5687 0
M  V30 2661 H 243.349 -3.36906 2.86264 0
M  V30 2662 N 242.408 -1.52605 -0.393616 0
M  V30 2663 C 243.654 -1.68624 -1.13743 0
M  V30 2664 C 244.009 -0.418687 -1.87789 0
M  V30 2665 O 243.302 0.58747 -1.82371 0
M  V30 2666 C 243.496 -2.85721 -2.14705 0
M  V30 2667 C 243.325 -4.23742 -1.50575 0
M  V30 2668 C 242.095 -4.89033 -1.2718 0
M  V30 2669 C 244.293 -5.05293 -0.958311 0
M  V30 2670 N 242.275 -6.11048 -0.591058 0
M  V30 2671 C 243.646 -6.18673 -0.405367 0
M  V30 2672 C 245.701 -4.90517 -0.854274 0
M  V30 2673 C 244.404 -7.18895 0.241434 0
M  V30 2674 C 246.43 -5.90986 -0.221301 0
M  V30 2675 C 245.792 -7.03669 0.320894 0
M  V30 2676 H 241.891 -0.670556 -0.402342 0
M  V30 2677 H 244.475 -1.89946 -0.427607 0
M  V30 2678 H 242.646 -2.65987 -2.83029 0
M  V30 2679 H 244.378 -2.90699 -2.8156 0
M  V30 2680 H 241.133 -4.47672 -1.54554 0
M  V30 2681 H 241.557 -6.76474 -0.266862 0
M  V30 2682 H 246.199 -4.03612 -1.25926 0
M  V30 2683 H 243.917 -8.05413 0.658448 0
M  V30 2684 H 247.503 -5.81626 -0.142111 0
M  V30 2685 H 246.383 -7.80078 0.802956 0
M  V30 2686 N 243.887 0.651787 -1.4349 0
M  V30 2687 C 245.115 1.43937 -1.48626 0
M  V30 2688 C 245.53 1.8851 -0.104587 0
M  V30 2689 O 244.887 1.5958 0.885464 0
M  V30 2690 C 244.938 2.6734 -2.43334 0
M  V30 2691 O 244.659 2.24631 -3.76128 0
M  V30 2692 C 246.16 3.60683 -2.57726 0
M  V30 2693 H 243.38 0.44213 -0.504739 0
M  V30 2694 H 245.924 0.798944 -1.88248 0
M  V30 2695 H 244.079 3.2752 -2.06904 0
M  V30 2696 H 244.493 3.04485 -4.2707 0
M  V30 2697 H 245.967 4.43933 -3.28067 0
M  V30 2698 H 246.444 4.08126 -1.62265 0
M  V30 2699 H 247.05 3.06384 -2.94973 0
M  V30 2700 N 245.365 1.30045 0.890287 0
M  V30 2701 C 246.776 1.16738 1.45702 0
M  V30 2702 C 247.127 -0.233939 1.948 0
M  V30 2703 O 246.252 -1.13021 1.84541 0
M  V30 2704 C 246.847 2.11313 2.64825 0
M  V30 2705 C 245.406 2.02001 3.17604 0
M  V30 2706 C 244.553 2.01699 1.90296 0
M  V30 2707 H 247.504 1.42392 0.700726 0
M  V30 2708 H 247.525 1.69086 3.40867 0
M  V30 2709 H 247.037 3.13294 2.2906 0
M  V30 2710 H 245.138 1.03142 3.5804 0
M  V30 2711 H 245.251 2.90128 3.81264 0
M  V30 2712 H 243.615 1.46427 2.08402 0
M  V30 2713 H 244.398 3.05402 1.56795 0
M  V30 2714 N 246.843 -1.10192 1.12674 0
M  V30 2715 C 248.073 -1.85713 0.905213 0
M  V30 2716 C 248.481 -1.81056 -0.549108 0
M  V30 2717 O 247.824 -1.19927 -1.39151 0
M  V30 2718 C 247.886 -3.34972 1.30516 0
M  V30 2719 C 247.55 -3.63385 2.77129 0
M  V30 2720 C 248.547 -3.59772 3.75313 0
M  V30 2721 C 246.232 -3.91981 3.14096 0
M  V30 2722 C 248.226 -3.84354 5.08479 0
M  V30 2723 C 245.913 -4.16218 4.47443 0
M  V30 2724 C 246.911 -4.12395 5.44444 0
M  V30 2725 O 246.599 -4.36014 6.75387 0
M  V30 2726 H 246.331 -0.593719 0.323223 0
M  V30 2727 H 248.885 -1.40198 1.50112 0
M  V30 2728 H 247.115 -3.81156 0.652463 0
M  V30 2729 H 248.804 -3.91886 1.05736 0
M  V30 2730 H 249.57 -3.37716 3.48099 0
M  V30 2731 H 245.449 -3.94085 2.39202 0
M  V30 2732 H 248.993 -3.81285 5.84181 0
M  V30 2733 H 244.89 -4.37754 4.74386 0
M  V30 2734 H 245.658 -4.53516 6.8137 0
M  V30 2735 N 248.321 -0.919034 -1.28029 0
M  V30 2736 C 249.569 -0.553838 -1.94363 0
M  V30 2737 C 249.89 0.906357 -1.72656 0
M  V30 2738 O 249.16 1.64143 -1.0693 0
M  V30 2739 H 247.74 -0.201834 -0.719216 0
M  V30 2740 H 250.402 -1.16954 -1.55909 0
M  V30 2741 H 249.498 -0.752758 -3.02886 0
M  V30 2742 N 249.799 1.42003 -0.683588 0
M  V30 2743 C 251.045 2.01712 -0.209825 0
M  V30 2744 C 251.378 1.53968 1.18353 0
M  V30 2745 O 250.653 0.745661 1.79639 0
M  V30 2746 C 250.936 3.59202 -0.254197 0
M  V30 2747 C 250.789 4.17102 -1.68363 0
M  V30 2748 C 252.108 4.38344 0.392709 0
M  V30 2749 H 249.227 0.732891 -0.0777189 0
M  V30 2750 H 251.869 1.68909 -0.87004 0
M  V30 2751 H 250.019 3.87278 0.307954 0
M  V30 2752 H 251.691 3.99946 -2.29871 0
M  V30 2753 H 249.934 3.72597 -2.22157 0
M  V30 2754 H 250.605 5.26249 -1.6663 0
M  V30 2755 H 253.081 4.16011 -0.0859162 0
M  V30 2756 H 251.957 5.47901 0.331063 0
M  V30 2757 H 252.218 4.16887 1.47164 0
M  V30 2758 N 251.277 0.427512 1.51691 0
M  V30 2759 C 252.207 -0.3796 2.30394 0
M  V30 2760 C 253.188 -1.02982 1.35384 0
M  V30 2761 O 254.373 -1.03534 1.643 0
M  V30 2762 C 251.503 -1.48649 3.1388 0
M  V30 2763 C 250.457 -0.960294 4.17088 0
M  V30 2764 C 249.783 -2.16219 4.89033 0
M  V30 2765 C 251.083 -0.00153679 5.223 0
M  V30 2766 H 252.777 0.277164 2.98114 0
M  V30 2767 H 250.323 0.134739 1.43368 0
M  V30 2768 H 252.276 -2.05826 3.67714 0
M  V30 2769 H 251 -2.1714 2.43962 0
M  V30 2770 H 249.659 -0.410806 3.64291 0
M  V30 2771 H 249.307 -2.83307 4.15628 0
M  V30 2772 H 249.007 -1.81654 5.58816 0
M  V30 2773 H 250.531 -2.73968 5.45687 0
M  V30 2774 H 251.945 -0.482687 5.71264 0
M  V30 2775 H 250.342 0.256199 5.99553 0
M  V30 2776 H 251.412 0.938174 4.75738 0
M  V30 2777 N 252.755 -1.56801 0.158532 0
M  V30 2778 C 254.171 -1.5837 -0.197774 0
M  V30 2779 C 254.371 -1.17334 -1.63814 0
M  V30 2780 O 253.427 -0.878988 -2.36707 0
M  V30 2781 C 254.74 -3.00615 0.0714459 0
M  V30 2782 C 256.288 -3.12999 0.00864533 0
M  V30 2783 C 256.763 -4.57313 0.250685 0
M  V30 2784 N 258.254 -4.62777 0.198014 0
M  V30 2785 C 258.989 -5.72271 0.359642 0
M  V30 2786 N 258.485 -6.90371 0.579625 0
M  V30 2787 N 260.278 -5.61318 0.296438 0
M  V30 2788 H 252.429 -1.81765 1.09887 0
M  V30 2789 H 254.692 -0.841849 0.435884 0
M  V30 2790 H 254.398 -3.35068 1.06874 0
M  V30 2791 H 254.272 -3.71683 -0.642757 0
M  V30 2792 H 256.659 -2.7838 -0.979217 0
M  V30 2793 H 256.74 -2.44393 0.755359 0
M  V30 2794 H 256.384 -4.92639 1.2357 0
M  V30 2795 H 256.314 -5.24061 -0.516489 0
M  V30 2796 H 258.805 -3.77885 0.0331115 0
M  V30 2797 H 259.118 -7.69689 0.69275 0
M  V30 2798 H 257.463 -6.92264 0.616087 0
M  V30 2799 H 260.654 -4.67932 0.125258 0
M  V30 2800 H 260.827 -6.46599 0.425831 0
M  V30 2801 N 254.233 0.115231 -1.57178 0
M  V30 2802 C 255.461 0.836437 -1.89239 0
M  V30 2803 C 255.876 1.73256 -0.750175 0
M  V30 2804 O 255.233 1.80357 0.278832 0
M  V30 2805 C 255.284 1.66671 -3.20785 0
M  V30 2806 O 255.005 0.806652 -4.3061 0
M  V30 2807 C 256.506 2.49274 -3.66575 0
M  V30 2808 H 253.726 0.240253 -0.626514 0
M  V30 2809 H 256.27 0.0984932 -2.04263 0
M  V30 2810 H 254.425 2.35737 -3.0742 0
M  V30 2811 H 254.839 1.37969 -5.06028 0
M  V30 2812 H 256.313 3.03055 -4.6137 0
M  V30 2813 H 256.79 3.26807 -2.93417 0
M  V30 2814 H 257.396 1.85443 -3.82741 0
M  V30 2815 N 255.711 1.52812 0.385517 0
M  V30 2816 C 256.936 1.72207 1.15583 0
M  V30 2817 C 257.361 0.441034 1.82857 0
M  V30 2818 O 256.719 -0.603465 1.70962 0
M  V30 2819 C 256.767 2.87476 2.17692 0
M  V30 2820 O 255.871 2.54693 3.24354 0
M  V30 2821 H 255.212 0.572526 0.336319 0
M  V30 2822 H 257.742 1.99618 0.448744 0
M  V30 2823 H 257.752 3.13072 2.6163 0
M  V30 2824 H 256.427 3.80408 1.68115 0
M  V30 2825 H 255.004 2.3985 2.85529 0
M  V30 2826 N 257.189 -0.644168 1.43834 0
M  V30 2827 C 258.605 -0.960875 1.27434 0
M  V30 2828 C 258.805 -2.00499 0.200618 0
M  V30 2829 O 257.861 -2.49018 -0.417906 0
M  V30 2830 C 259.174 -1.43653 2.64167 0
M  V30 2831 C 260.722 -1.55271 2.71772 0
M  V30 2832 C 261.197 -2.06224 4.08944 0
M  V30 2833 N 262.688 -2.13513 4.11055 0
M  V30 2834 C 263.423 -2.54081 5.14033 0
M  V30 2835 N 262.919 -2.9388 6.27381 0
M  V30 2836 N 264.712 -2.54101 5.01387 0
M  V30 2837 H 256.863 0.0465779 2.12349 0
M  V30 2838 H 259.126 -0.0417638 0.94708 0
M  V30 2839 H 258.832 -0.743706 3.43747 0
M  V30 2840 H 258.706 -2.40993 2.90176 0
M  V30 2841 H 261.093 -2.23653 1.92519 0
M  V30 2842 H 261.174 -0.563395 2.49519 0
M  V30 2843 H 260.818 -1.38441 4.88668 0
M  V30 2844 H 260.748 -3.06003 4.28567 0
M  V30 2845 H 263.239 -1.85493 3.29242 0
M  V30 2846 H 263.552 -3.2361 7.01781 0
M  V30 2847 H 261.897 -2.91663 6.30839 0
M  V30 2848 H 265.088 -2.22391 4.11898 0
M  V30 2849 H 265.261 -2.85394 5.81768 0
M  V30 2850 N 258.668 -1.30515 -0.883378 0
M  V30 2851 C 259.616 -1.16941 -2.01066 0
M  V30 2852 C 260.61 -0.0809148 -1.69207 0
M  V30 2853 O 261.816 -0.241877 -1.78367 0
M  V30 2854 H 258.191 -0.361705 -0.659298 0
M  V30 2855 H 260.162 -2.12344 -2.09649 0
M  V30 2856 C 258.911 -0.879694 -3.36388 0
M  V30 2857 H 258.234 -1.70936 -3.61415 0
M  V30 2858 H 259.674 -0.82483 -4.159 0
M  V30 2859 C 258.133 0.417409 -3.34304 0
M  V30 2860 O 258.663 1.43843 -3.75063 0
M  V30 2861 N 256.869 0.429141 -2.87414 0
M  V30 2862 H 256.416 -0.402222 -2.5444 0
M  V30 2863 H 256.374 1.29696 -2.86403 0
M  V30 2864 N 260.146 1.09593 -1.13257 0
M  V30 2865 C 261.557 1.63229 -0.906274 0
M  V30 2866 C 261.908 1.8811 0.557578 0
M  V30 2867 O 261.033 1.62953 1.42391 0
M  V30 2868 C 261.628 2.96535 -1.63867 0
M  V30 2869 C 260.187 3.47003 -1.45828 0
M  V30 2870 C 259.334 2.2145 -1.66898 0
M  V30 2871 H 262.285 0.92978 -1.28611 0
M  V30 2872 H 262.306 3.64411 -1.09476 0
M  V30 2873 H 261.818 2.78394 -2.70404 0
M  V30 2874 H 259.919 3.70272 -0.415848 0
M  V30 2875 H 260.032 4.24551 -2.2202 0
M  V30 2876 H 258.396 2.30022 -1.09371 0
M  V30 2877 H 259.179 2.0583 -2.74752 0
M  V30 2878 N 261.624 0.925811 1.2754 0
M  V30 2879 C 262.534 0.428993 2.30644 0
M  V30 2880 C 263.55 -0.489387 1.66976 0
M  V30 2881 O 264.726 -0.372653 1.97922 0
M  V30 2882 C 261.791 -0.311967 3.45294 0
M  V30 2883 C 260.852 0.641098 4.24486 0
M  V30 2884 C 260.085 -0.0645955 5.33661 0
M  V30 2885 O 260.308 -1.28429 5.55754 0
M  V30 2886 O 259.242 0.606265 5.98839 0
M  V30 2887 H 263.068 1.28504 2.75173 0
M  V30 2888 H 260.653 0.691086 1.32455 0
M  V30 2889 H 262.535 -0.729972 4.15029 0
M  V30 2890 H 261.21 -1.14365 3.02824 0
M  V30 2891 H 260.117 1.10874 3.57292 0
M  V30 2892 H 261.45 1.43995 4.70666 0
M  V30 2893 N 263.102 -1.41638 0.69111 0
M  V30 2894 C 264.33 -2.05628 0.22909 0
M  V30 2895 C 264.745 -1.51992 -1.11999 0
M  V30 2896 O 264.102 -0.666322 -1.69901 0
M  V30 2897 C 264.153 -3.61084 0.173283 0
M  V30 2898 O 263.874 -4.12735 1.46907 0
M  V30 2899 C 265.375 -4.42213 -0.310266 0
M  V30 2900 H 262.595 -0.662327 0.107534 0
M  V30 2901 H 265.139 -1.81489 0.942438 0
M  V30 2902 H 263.294 -3.84278 -0.490858 0
M  V30 2903 H 263.708 -5.06743 1.35322 0
M  V30 2904 H 265.182 -5.51194 -0.298196 0
M  V30 2905 H 265.659 -4.1799 -1.34838 0
M  V30 2906 H 266.265 -4.24074 0.322716 0
M  V30 2907 N 264.58 -0.43555 -1.51462 0
M  V30 2908 C 265.857 0.191364 -1.94662 0
M  V30 2909 C 266.237 1.60254 -1.37411 0
M  V30 2910 O 265.585 2.2152 -0.560458 0
M  V30 2911 C 265.795 0.17091 -3.48581 0
M  V30 2912 C 267.143 0.377357 -4.2292 0
M  V30 2913 O 268.167 0.249104 -3.55328 0
M  V30 2914 O 267.026 0.63247 -5.42828 0
M  V30 2915 H 264.12 0.130932 -0.816569 0
M  V30 2916 H 266.666 -0.4934 -1.62369 0
M  V30 2917 H 265.438 -0.815738 -3.82703 0
M  V30 2918 H 265.061 0.898659 -3.87311 0
M  V30 2919 N 266.058 1.56714 -0.166846 0
M  V30 2920 C 267.286 2.0112 0.485644 0
M  V30 2921 C 267.701 1.04705 1.57106 0
M  V30 2922 O 267.058 0.0471923 1.82439 0
M  V30 2923 C 267.109 3.45361 1.06808 0
M  V30 2924 O 266.83 4.38092 0.0259995 0
M  V30 2925 C 268.331 4.05145 1.79924 0
M  V30 2926 H 265.551 0.65931 0.124704 0
M  V30 2927 H 268.095 2.02746 -0.267262 0
M  V30 2928 H 266.25 3.44524 1.7715 0
M  V30 2929 H 266.664 5.22519 0.455398 0
M  V30 2930 H 268.138 5.08009 2.15942 0
M  V30 2931 H 268.615 3.46982 2.69258 0
M  V30 2932 H 269.221 4.09672 1.14234 0
M  V30 2933 N 267.536 -0.106894 1.57237 0
M  V30 2934 C 268.766 -0.825191 1.89405 0
M  V30 2935 C 269.174 -1.73374 0.757496 0
M  V30 2936 O 268.517 -1.81552 -0.280115 0
M  V30 2937 C 268.579 -1.70102 3.1671 0
M  V30 2938 C 268.243 -0.965523 4.46684 0
M  V30 2939 C 269.24 -0.300741 5.19029 0
M  V30 2940 C 266.925 -0.943105 4.93367 0
M  V30 2941 C 268.919 0.376622 6.36286 0
M  V30 2942 C 266.606 -0.261949 6.10538 0
M  V30 2943 C 267.604 0.396748 6.81847 0
M  V30 2944 O 267.292 1.06701 7.96787 0
M  V30 2945 H 267.024 -0.241852 0.631255 0
M  V30 2946 H 269.578 -0.0921491 2.05193 0
M  V30 2947 H 267.808 -2.47601 2.97036 0
M  V30 2948 H 269.497 -2.29483 3.34802 0
M  V30 2949 H 270.263 -0.309599 4.84011 0
M  V30 2950 H 266.142 -1.44524 4.3776 0
M  V30 2951 H 269.686 0.891334 6.91882 0
M  V30 2952 H 265.583 -0.250896 6.45012 0
M  V30 2953 H 266.351 0.972707 8.127 0
M  V30 2954 N 269.014 -1.53014 -0.377408 0
M  V30 2955 C 270.263 -1.67845 -1.11853 0
M  V30 2956 C 270.576 -0.430625 -1.90801 0
M  V30 2957 O 271.782 -0.459261 -2.67587 0
M  V30 2958 C 270.238 -2.96668 -2.03756 0
M  V30 2959 C 269.846 -4.28671 -1.30175 0
M  V30 2960 C 271.59 -3.20865 -2.77932 0
M  V30 2961 C 269.497 -5.48591 -2.20911 0
M  V30 2962 H 268.427 -0.625343 -0.421263 0
M  V30 2963 H 271.078 -1.79514 -0.380409 0
M  V30 2964 H 269.46 -2.78773 -2.8125 0
M  V30 2965 H 270.634 -4.57157 -0.578259 0
M  V30 2966 H 268.949 -4.10825 -0.679108 0
M  V30 2967 H 271.546 -4.07642 -3.46024 0
M  V30 2968 H 271.889 -2.36424 -3.4265 0
M  V30 2969 H 272.422 -3.39379 -2.07525 0
M  V30 2970 H 269.161 -6.35474 -1.6079 0
M  V30 2971 H 268.681 -5.244 -2.91144 0
M  V30 2972 H 270.36 -5.8292 -2.80736 0
M  V30 2973 N 270.492 0.636531 -1.44174 0
M  V30 2974 C 271.422 1.76003 -1.53444 0
M  V30 2975 C 272.403 1.65619 -0.387841 0
M  V30 2976 O 273.588 1.84461 -0.607257 0
M  V30 2977 C 270.718 3.14511 -1.4731 0
M  V30 2978 C 269.672 3.39677 -2.60391 0
M  V30 2979 C 268.998 4.78159 -2.39308 0
M  V30 2980 C 270.298 3.32772 -4.02567 0
M  V30 2981 H 271.992 1.68501 -2.47483 0
M  V30 2982 H 269.538 0.809237 -1.19111 0
M  V30 2983 H 271.491 3.92878 -1.52397 0
M  V30 2984 H 270.215 3.22783 -0.49785 0
M  V30 2985 H 268.874 2.63688 -2.54684 0
M  V30 2986 H 268.522 4.83128 -1.39988 0
M  V30 2987 H 268.222 4.95956 -3.15122 0
M  V30 2988 H 269.746 5.58762 -2.46205 0
M  V30 2989 H 271.16 4.01051 -4.09672 0
M  V30 2990 H 269.557 3.62104 -4.7854 0
M  V30 2991 H 270.627 2.30669 -4.2652 0
M  V30 2992 N 271.97 1.30982 0.876444 0
M  V30 2993 C 273.217 1.20296 1.62896 0
M  V30 2994 C 273.545 -0.240395 1.93009 0
M  V30 2995 O 272.8 -1.18733 1.55567 0
M  V30 2996 C 273.099 1.98572 2.9716 0
M  V30 2997 C 272.765 3.48125 2.86566 0
M  V30 2998 C 271.427 3.88905 2.83383 0
M  V30 2999 C 273.779 4.43322 2.74071 0
M  V30 3000 C 271.107 5.2316 2.65556 0
M  V30 3001 C 273.459 5.77695 2.57781 0
M  V30 3002 C 272.123 6.17704 2.52979 0
M  V30 3003 H 271.393 0.440193 0.59608 0
M  V30 3004 H 274.04 1.62177 1.01837 0
M  V30 3005 H 272.345 1.49352 3.62217 0
M  V30 3006 H 274.042 1.8769 3.54364 0
M  V30 3007 H 270.632 3.15723 2.89856 0
M  V30 3008 H 274.816 4.12752 2.75589 0
M  V30 3009 H 270.072 5.53241 2.60259 0
M  V30 3010 H 274.246 6.51091 2.47089 0
M  V30 3011 H 271.873 7.21678 2.38924 0
M  V30 3012 N 273.449 -1.08991 1.13837 0
M  V30 3013 C 274.397 -2.17841 0.815347 0
M  V30 3014 C 275.391 -1.68164 -0.204233 0
M  V30 3015 O 276.597 -1.79897 -0.0609304 0
M  V30 3016 H 272.972 -0.710654 0.245915 0
M  V30 3017 H 274.943 -2.42315 1.74143 0
M  V30 3018 C 273.692 -3.46381 0.302614 0
M  V30 3019 H 273.015 -3.84979 1.0785 0
M  V30 3020 H 274.455 -4.23844 0.115074 0
M  V30 3021 C 272.914 -3.22556 -0.972591 0
M  V30 3022 O 273.444 -3.45599 -2.04754 0
M  V30 3023 N 271.65 -2.76134 -0.905455 0
M  V30 3024 H 271.197 -2.57582 -0.0305421 0
M  V30 3025 H 271.155 -2.60571 -1.75926 0
M  V30 3026 N 274.927 -0.932562 -1.27047 0
M  V30 3027 C 276.338 -0.619451 -1.76124 0
M  V30 3028 C 276.689 0.865397 -1.76083 0
M  V30 3029 O 275.814 1.67722 -1.36742 0
M  V30 3030 C 276.409 -1.11771 -3.19832 0
M  V30 3031 C 274.968 -0.855174 -3.66557 0
M  V30 3032 C 274.115 -1.27362 -2.46321 0
M  V30 3033 H 277.066 -1.11181 -1.13245 0
M  V30 3034 H 277.087 -0.46759 -3.77616 0
M  V30 3035 H 276.599 -2.19842 -3.1983 0
M  V30 3036 H 274.7 0.211524 -3.71999 0
M  V30 3037 H 274.813 -1.47613 -4.55793 0
M  V30 3038 H 273.177 -0.692119 -2.45116 0
M  V30 3039 H 273.96 -2.36307 -2.49025 0
M  V30 3040 N 276.405 1.4127 -0.698611 0
M  V30 3041 C 277.651 2.01979 -0.239972 0
M  V30 3042 C 278.006 1.54353 1.14861 0
M  V30 3043 O 277.299 0.746218 1.76471 0
M  V30 3044 C 277.493 3.56592 -0.240192 0
M  V30 3045 C 277.322 4.19226 -1.62726 0
M  V30 3046 C 276.092 4.53389 -2.23084 0
M  V30 3047 C 278.29 4.45228 -2.57443 0
M  V30 3048 N 276.272 5.01327 -3.54323 0
M  V30 3049 C 277.643 4.94973 -3.73365 0
M  V30 3050 C 279.698 4.27243 -2.55671 0
M  V30 3051 C 278.401 5.28624 -4.878 0
M  V30 3052 C 280.427 4.61985 -3.69221 0
M  V30 3053 C 279.789 5.11904 -4.83873 0
M  V30 3054 H 275.888 0.770561 -0.133269 0
M  V30 3055 H 278.472 1.71767 -0.916748 0
M  V30 3056 H 276.643 3.86271 0.406082 0
M  V30 3057 H 278.375 4.04025 0.23356 0
M  V30 3058 H 275.13 4.39946 -1.75341 0
M  V30 3059 H 275.554 5.29697 -4.21604 0
M  V30 3060 H 280.196 3.87884 -1.68243 0
M  V30 3061 H 277.914 5.66905 -5.75885 0
M  V30 3062 H 281.5 4.49725 -3.69105 0
M  V30 3063 H 280.38 5.38282 -5.70282 0
M  V30 3064 N 277.883 0.443576 1.51229 0
M  V30 3065 C 279.123 -0.119889 2.04048 0
M  V30 3066 C 279.487 -1.39418 1.32009 0
M  V30 3067 O 280.688 -2.03829 1.75235 0
M  V30 3068 C 278.959 -0.327233 3.55899 0
M  V30 3069 S 280.518 -0.853208 4.30425 0
M  V30 3070 H 277.336 -0.028921 0.710412 0
M  V30 3071 H 279.938 0.604413 1.85922 0
M  V30 3072 H 278.642 0.606445 4.05895 0
M  V30 3073 H 278.173 -1.07844 3.7833 0
M  V30 3074 H 280.188 -2.13005 4.48155 0
M  V30 3075 N 279.361 -1.56624 0.175154 0
M  V30 3076 C 280.271 -2.21741 -0.766042 0
M  V30 3077 C 281.287 -1.21023 -1.25018 0
M  V30 3078 O 282.463 -1.53697 -1.3015 0
M  V30 3079 C 279.528 -2.84839 -1.97655 0
M  V30 3080 C 278.589 -4.00769 -1.53892 0
M  V30 3081 C 277.822 -4.60849 -2.69173 0
M  V30 3082 O 278.045 -4.19823 -3.86141 0
M  V30 3083 O 276.979 -5.50655 -2.43028 0
M  V30 3084 H 280.805 -3.02738 -0.241585 0
M  V30 3085 H 278.39 -1.49305 -0.053222 0
M  V30 3086 H 280.272 -3.24834 -2.68442 0
M  V30 3087 H 278.947 -2.06836 -2.48999 0
M  V30 3088 H 277.854 -3.65436 -0.80044 0
M  V30 3089 H 279.187 -4.80376 -1.07236 0
M  V30 3090 N 280.839 0.0985539 -1.57292 0
M  V30 3091 C 282.116 0.834155 -1.76921 0
M  V30 3092 C 282.496 1.97101 -0.755928 0
M  V30 3093 O 281.844 2.27474 0.216245 0
M  V30 3094 C 282.054 1.33194 -3.22584 0
M  V30 3095 C 283.402 1.77611 -3.85668 0
M  V30 3096 O 284.426 1.42825 -3.26312 0
M  V30 3097 O 283.285 2.4192 -4.90038 0
M  V30 3098 H 280.379 0.397628 -0.725135 0
M  V30 3099 H 282.925 0.0807044 -1.69508 0
M  V30 3100 H 281.697 0.517248 -3.87866 0
M  V30 3101 H 281.32 2.1475 -3.34616 0
M  V30 3102 N 282.317 1.53212 0.369288 0
M  V30 3103 C 283.594 1.59815 1.12776 0
M  V30 3104 C 283.974 0.403402 2.0721 0
M  V30 3105 O 283.322 -0.606667 2.20299 0
M  V30 3106 C 283.532 2.94664 1.87013 0
M  V30 3107 C 284.88 3.49109 2.41677 0
M  V30 3108 O 285.904 2.96669 1.97144 0
M  V30 3109 O 284.763 4.40775 3.23079 0
M  V30 3110 H 281.857 0.645376 0.517125 0
M  V30 3111 H 284.403 1.65553 0.37285 0
M  V30 3112 H 283.175 3.73061 1.18071 0
M  V30 3113 H 282.798 2.92401 2.69421 0
M  V30 3114 N 283.795 -0.628877 1.44509 0
M  V30 3115 C 284.758 -1.72263 1.51188 0
M  V30 3116 C 285.758 -1.55907 0.39367 0
M  V30 3117 O 286.948 -1.61361 0.656377 0
M  V30 3118 C 284.08 -3.11365 1.38798 0
M  V30 3119 H 285.273 -1.67714 2.4862 0
M  V30 3120 H 282.826 -0.842737 1.31634 0
M  V30 3121 H 283.561 -3.21507 0.424693 0
M  V30 3122 H 283.346 -3.24644 2.19884 0
M  V30 3123 H 284.836 -3.91075 1.46458 0
M  V30 3124 N 285.273 -1.31445 -0.869486 0
M  V30 3125 C 286.519 -1.21337 -1.62496 0
M  V30 3126 C 286.852 0.227872 -1.92858 0
M  V30 3127 O 286.127 1.16094 -1.56053 0
M  V30 3128 C 286.41 -2.05814 -2.95487 0
M  V30 3129 C 286.263 -3.5824 -2.72 0
M  V30 3130 C 287.582 -1.9079 -3.96594 0
M  V30 3131 H 284.701 -0.442135 -0.589649 0
M  V30 3132 H 287.343 -1.6124 -1.00507 0
M  V30 3133 H 285.493 -1.71913 -3.48394 0
M  V30 3134 H 287.165 -4.0228 -2.25762 0
M  V30 3135 H 285.408 -3.81647 -2.06224 0
M  V30 3136 H 286.079 -4.12657 -3.66631 0
M  V30 3137 H 288.555 -2.20459 -3.52898 0
M  V30 3138 H 287.431 -2.52199 -4.87531 0
M  V30 3139 H 287.692 -0.871341 -4.33428 0
M  V30 3140 N 286.751 1.08385 -1.14413 0
M  V30 3141 C 287.981 1.8425 -0.934644 0
M  V30 3142 C 288.389 1.81907 0.520234 0
M  V30 3143 O 287.732 1.22126 1.37226 0
M  V30 3144 C 287.794 3.32853 -1.35828 0
M  V30 3145 C 287.458 3.5893 -2.82875 0
M  V30 3146 C 288.455 3.53756 -3.80989 0
M  V30 3147 C 286.14 3.86934 -3.20293 0
M  V30 3148 C 288.134 3.76216 -5.14529 0
M  V30 3149 C 285.821 4.09047 -4.54008 0
M  V30 3150 C 286.819 4.03682 -5.50936 0
M  V30 3151 O 286.507 4.25214 -6.82238 0
M  V30 3152 H 286.239 0.588502 -0.332628 0
M  V30 3153 H 288.793 1.37792 -1.52324 0
M  V30 3154 H 287.023 3.8007 -0.713019 0
M  V30 3155 H 288.712 3.90154 -1.11957 0
M  V30 3156 H 289.478 3.32135 -3.53428 0
M  V30 3157 H 285.357 3.9023 -2.45442 0
M  V30 3158 H 288.901 3.71943 -5.90173 0
M  V30 3159 H 284.798 4.30151 -4.8129 0
M  V30 3160 H 285.566 4.42619 -6.88499 0
M  V30 3161 N 288.23 0.939286 1.26551 0
M  V30 3162 C 289.16 0.465044 2.28822 0
M  V30 3163 C 290.141 -0.480692 1.63167 0
M  V30 3164 O 291.326 -0.382955 1.90387 0
M  V30 3165 C 288.456 -0.27234 3.46231 0
M  V30 3166 C 287.41 0.58666 4.2396 0
M  V30 3167 C 286.736 -0.280573 5.33963 0
M  V30 3168 C 288.036 1.85704 4.88171 0
M  V30 3169 H 289.73 1.31979 2.68741 0
M  V30 3170 H 287.276 0.636061 1.29191 0
M  V30 3171 H 289.229 -0.615133 4.16886 0
M  V30 3172 H 287.953 -1.16121 3.0526 0
M  V30 3173 H 286.612 0.91232 3.55067 0
M  V30 3174 H 286.26 -1.16874 4.89234 0
M  V30 3175 H 285.96 0.29076 5.8688 0
M  V30 3176 H 287.484 -0.618678 6.07458 0
M  V30 3177 H 288.898 1.58161 5.51052 0
M  V30 3178 H 287.295 2.37279 5.51197 0
M  V30 3179 H 288.365 2.56957 4.11219 0
M  V30 3180 N 289.708 -1.40897 0.706093 0
M  V30 3181 C 290.985 -1.94868 0.169099 0
M  V30 3182 C 291.365 -1.64485 -1.32318 0
M  V30 3183 O 290.713 -0.95744 -2.07474 0
M  V30 3184 C 290.923 -3.45798 0.471654 0
M  V30 3185 C 292.271 -4.22663 0.405127 0
M  V30 3186 O 293.295 -3.53865 0.407168 0
M  V30 3187 O 292.154 -5.45216 0.374383 0
M  V30 3188 H 289.248 -0.82673 0.0211352 0
M  V30 3189 H 291.794 -1.50558 0.782976 0
M  V30 3190 H 290.566 -3.61235 1.50416 0
M  V30 3191 H 290.189 -3.97225 -0.172666 0
M  V30 3192 N 291.186 -0.45159 -1.50991 0
M  V30 3193 C 292.134 0.366864 -2.29689 0
M  V30 3194 C 293.128 1.00809 -1.36139 0
M  V30 3195 O 294.334 0.941427 -1.53418 0
M  V30 3196 H 290.709 0.137133 -0.739391 0
M  V30 3197 H 292.68 -0.317538 -2.96706 0
M  V30 3198 C 291.429 1.44751 -3.16137 0
M  V30 3199 H 290.752 0.963473 -3.88017 0
M  V30 3200 H 292.192 1.99315 -3.74232 0
M  V30 3201 C 290.651 2.43869 -2.32442 0
M  V30 3202 O 291.181 3.4872 -1.99392 0
M  V30 3203 N 289.387 2.15105 -1.95392 0
M  V30 3204 H 288.934 1.29866 -2.22469 0
M  V30 3205 H 288.892 2.81661 -1.39693 0
M  V30 3206 N 292.664 1.56529 -0.183458 0
M  V30 3207 C 293.574 2.22144 0.754272 0
M  V30 3208 C 294.59 1.21684 1.24374 0
M  V30 3209 O 295.766 1.54385 1.29333 0
M  V30 3210 C 292.831 2.85884 1.96141 0
M  V30 3211 C 291.892 4.01579 1.51765 0
M  V30 3212 C 291.125 4.6227 2.66725 0
M  V30 3213 O 291.348 4.21865 3.83909 0
M  V30 3214 O 290.282 5.51936 2.40104 0
M  V30 3215 H 294.108 3.02861 0.225527 0
M  V30 3216 H 291.693 1.49331 0.0453032 0
M  V30 3217 H 293.575 3.26253 2.66715 0
M  V30 3218 H 292.25 2.08154 2.47899 0
M  V30 3219 H 291.157 3.65856 0.781049 0
M  V30 3220 H 292.49 4.80938 1.04686 0
M  V30 3221 N 294.142 -0.090211 1.57342 0
M  V30 3222 C 295.089 -1.10909 2.02405 0
M  V30 3223 C 296.059 -1.39523 0.901252 0
M  V30 3224 O 297.244 -1.50903 1.1676 0
M  V30 3225 C 294.384 -2.42277 2.45755 0
M  V30 3226 C 293.497 -2.20352 3.71576 0
M  V30 3227 C 292.632 -3.45154 4.03785 0
M  V30 3228 C 291.671 -3.18512 5.22701 0
M  V30 3229 N 290.808 -4.35593 5.50639 0
M  V30 3230 H 295.648 -0.71782 2.89225 0
M  V30 3231 H 293.185 -0.342901 1.43048 0
M  V30 3232 H 295.143 -3.18951 2.68935 0
M  V30 3233 H 293.773 -2.79242 1.61938 0
M  V30 3234 H 292.825 -1.34458 3.55844 0
M  V30 3235 H 294.137 -1.96661 4.58395 0
M  V30 3236 H 293.291 -4.30233 4.27767 0
M  V30 3237 H 292.03 -3.71904 3.15498 0
M  V30 3238 H 291.035 -2.31827 4.98534 0
M  V30 3239 H 292.26 -2.93103 6.12591 0
M  V30 3240 H 290.206 -4.6241 4.6531 0
M  V30 3241 H 290.123 -4.1511 6.31838 0
M  V30 3242 H 291.391 -5.21723 5.7916 0
M  V30 3243 N 295.62 -1.53406 -0.361157 0
M  V30 3244 C 296.53 -1.83122 -1.4664 0
M  V30 3245 C 297.546 -0.719943 -1.58407 0
M  V30 3246 O 298.722 -1.01046 -1.74218 0
M  V30 3247 C 295.787 -2.01891 -2.81853 0
M  V30 3248 C 294.848 -3.25784 -2.79577 0
M  V30 3249 C 294.081 -3.43648 -4.0834 0
M  V30 3250 O 294.304 -2.65714 -5.0473 0
M  V30 3251 O 293.238 -4.37018 -4.13883 0
M  V30 3252 H 297.064 -2.7703 -1.24451 0
M  V30 3253 H 294.649 -1.38841 -0.551678 0
M  V30 3254 H 296.531 -2.15782 -3.61962 0
M  V30 3255 H 295.206 -1.11173 -3.0401 0
M  V30 3256 H 294.113 -3.17312 -1.98151 0
M  V30 3257 H 295.446 -4.16439 -2.62373 0
M  V30 3258 N 297.098 0.621204 -1.44841 0
M  V30 3259 C 298.514 0.94048 -1.28946 0
M  V30 3260 C 298.714 2.00154 -0.23249 0
M  V30 3261 O 297.77 2.49651 0.378237 0
M  V30 3262 C 299.083 1.39433 -2.66419 0
M  V30 3263 C 300.631 1.50927 -2.74208 0
M  V30 3264 C 301.106 1.99692 -4.12174 0
M  V30 3265 N 302.597 2.06947 -4.144 0
M  V30 3266 C 303.332 2.45871 -5.1801 0
M  V30 3267 N 302.828 2.83862 -6.31977 0
M  V30 3268 N 304.621 2.46092 -5.05366 0
M  V30 3269 H 296.772 -0.0803548 -2.12248 0
M  V30 3270 H 299.035 0.0266913 -0.947624 0
M  V30 3271 H 298.741 0.688925 -3.44887 0
M  V30 3272 H 298.615 2.36347 -2.93973 0
M  V30 3273 H 301.002 2.20561 -1.96053 0
M  V30 3274 H 301.083 0.523627 -2.50383 0
M  V30 3275 H 300.727 1.30649 -4.90809 0
M  V30 3276 H 300.657 2.99146 -4.33381 0
M  V30 3277 H 303.148 1.80232 -3.32152 0
M  V30 3278 H 303.461 3.12405 -7.0684 0
M  V30 3279 H 301.806 2.8159 -6.35399 0
M  V30 3280 H 304.997 2.1581 -4.15384 0
M  V30 3281 H 305.17 2.76102 -5.86235 0
M  V30 3282 N 298.576 1.31904 0.862503 0
M  V30 3283 C 299.486 1.22161 2.00285 0
M  V30 3284 C 300.502 0.136785 1.73462 0
M  V30 3285 O 301.678 0.355994 1.98229 0
M  V30 3286 C 298.743 0.937093 3.33796 0
M  V30 3287 C 297.804 2.10957 3.73893 0
M  V30 3288 C 297.037 1.83853 5.01033 0
M  V30 3289 O 297.26 0.777274 5.65079 0
M  V30 3290 O 296.194 2.69741 5.38074 0
M  V30 3291 H 300.02 2.18008 2.11439 0
M  V30 3292 H 297.605 1.11716 0.991957 0
M  V30 3293 H 299.487 0.794583 4.13841 0
M  V30 3294 H 298.162 0.00871894 3.23699 0
M  V30 3295 H 297.069 2.30752 2.94456 0
M  V30 3296 H 298.402 3.02046 3.88625 0
M  V30 3297 N 300.054 -1.07777 1.14986 0
M  V30 3298 C 300.964 -2.18404 0.856546 0
M  V30 3299 C 301.98 -1.73211 -0.165485 0
M  V30 3300 O 303.156 -2.01399 0.00755219 0
M  V30 3301 C 300.221 -3.44977 0.34526 0
M  V30 3302 C 299.282 -4.0476 1.43065 0
M  V30 3303 C 298.515 -5.25291 0.943663 0
M  V30 3304 O 298.738 -5.70004 -0.212426 0
M  V30 3305 O 297.672 -5.76638 1.72547 0
M  V30 3306 H 301.498 -2.45978 1.78125 0
M  V30 3307 H 299.083 -1.17033 0.928631 0
M  V30 3308 H 300.965 -4.21348 0.0663671 0
M  V30 3309 H 299.64 -3.18965 -0.551631 0
M  V30 3310 H 298.547 -3.29949 1.76309 0
M  V30 3311 H 299.88 -4.35035 2.30229 0
M  V30 3312 N 301.532 -0.945985 -1.26051 0
M  V30 3313 C 302.762 -0.612136 -1.97323 0
M  V30 3314 C 303.17 0.818171 -1.70595 0
M  V30 3315 O 302.513 1.55777 -0.973613 0
M  V30 3316 C 302.575 -0.780347 -3.50929 0
M  V30 3317 C 302.239 -2.18619 -4.01317 0
M  V30 3318 C 303.236 -3.16209 -4.12683 0
M  V30 3319 C 300.921 -2.50805 -4.35203 0
M  V30 3320 C 302.915 -4.44085 -4.57238 0
M  V30 3321 C 300.602 -3.78912 -4.79446 0
M  V30 3322 C 301.6 -4.75365 -4.90425 0
M  V30 3323 O 301.288 -6.01191 -5.3369 0
M  V30 3324 H 301.02 -0.229134 -0.635982 0
M  V30 3325 H 303.574 -1.27036 -1.61404 0
M  V30 3326 H 301.804 -0.0649864 -3.86645 0
M  V30 3327 H 303.493 -0.448842 -4.03411 0
M  V30 3328 H 304.259 -2.92668 -3.86744 0
M  V30 3329 H 300.138 -1.76463 -4.2589 0
M  V30 3330 H 303.682 -5.19373 -4.65723 0
M  V30 3331 H 299.579 -4.02265 -5.0483 0
M  V30 3332 H 300.347 -6.04442 -5.51899 0
M  V30 3333 N 303.011 1.40521 -0.713556 0
M  V30 3334 C 304.257 2.01221 -0.252564 0
M  V30 3335 C 304.59 1.56444 1.1506 0
M  V30 3336 O 303.865 0.783597 1.78017 0
M  V30 3337 C 304.148 3.58582 -0.330332 0
M  V30 3338 C 304.001 4.13437 -1.77173 0
M  V30 3339 C 305.32 4.39079 0.299641 0
M  V30 3340 H 302.439 0.731077 -0.0932471 0
M  V30 3341 H 305.081 1.67026 -0.905673 0
M  V30 3342 H 303.231 3.87844 0.225737 0
M  V30 3343 H 304.903 3.9498 -2.38303 0
M  V30 3344 H 303.146 3.67801 -2.3001 0
M  V30 3345 H 303.817 5.22597 -1.77755 0
M  V30 3346 H 306.293 4.15735 -0.174139 0
M  V30 3347 H 305.169 5.4848 0.214771 0
M  V30 3348 H 305.43 4.19915 1.38288 0
M  V30 3349 N 304.489 0.459591 1.5075 0
M  V30 3350 C 305.419 -0.330644 2.31147 0
M  V30 3351 C 306.4 -1.00087 1.37538 0
M  V30 3352 O 307.585 -1.00025 1.66459 0
M  V30 3353 C 304.715 -1.41958 3.16962 0
M  V30 3354 C 303.669 -0.871608 4.19031 0
M  V30 3355 C 302.995 -2.05797 4.9351 0
M  V30 3356 C 304.295 0.109251 5.22186 0
M  V30 3357 H 305.989 0.340336 2.97459 0
M  V30 3358 H 303.535 0.165119 1.4305 0
M  V30 3359 H 305.488 -1.9798 3.71997 0
M  V30 3360 H 304.212 -2.11917 2.48513 0
M  V30 3361 H 302.871 -0.333442 3.6508 0
M  V30 3362 H 302.519 -2.74427 4.21544 0
M  V30 3363 H 302.219 -1.6976 5.62544 0
M  V30 3364 H 303.743 -2.62331 5.51375 0
M  V30 3365 H 305.157 -0.361405 5.7216 0
M  V30 3366 H 303.554 0.383316 5.98875 0
M  V30 3367 H 304.624 1.03887 4.73641 0
M  V30 3368 N 305.967 -1.56429 0.191757 0
M  V30 3369 C 306.915 -2.20273 -0.747174 0
M  V30 3370 C 307.909 -1.17288 -1.22229 0
M  V30 3371 O 309.115 -1.35441 -1.18557 0
M  V30 3372 H 305.49 -0.705885 -0.259289 0
M  V30 3373 H 307.461 -2.97826 -0.184963 0
M  V30 3374 C 306.21 -2.87356 -1.95759 0
M  V30 3375 H 305.533 -3.66341 -1.60106 0
M  V30 3376 H 306.973 -3.3547 -2.59299 0
M  V30 3377 C 305.432 -1.88213 -2.79423 0
M  V30 3378 O 305.962 -1.38033 -3.7724 0
M  V30 3379 N 304.168 -1.56516 -2.44849 0
M  V30 3380 H 303.715 -1.97516 -1.65364 0
M  V30 3381 H 303.673 -0.904369 -3.01112 0
M  V30 3382 N 307.445 0.0818655 -1.57387 0
M  V30 3383 C 308.722 0.815343 -1.77796 0
M  V30 3384 C 309.102 1.96289 -0.77679 0
M  V30 3385 O 308.45 2.27691 0.192106 0
M  V30 3386 C 308.66 1.29765 -3.23978 0
M  V30 3387 C 310.008 1.7351 -3.8753 0
M  V30 3388 O 311.032 1.39356 -3.27808 0
M  V30 3389 O 309.891 2.36708 -4.92576 0
M  V30 3390 H 306.985 0.389914 -0.729312 0
M  V30 3391 H 309.531 0.0627213 -1.69584 0
M  V30 3392 H 308.303 0.47608 -3.88393 0
M  V30 3393 H 307.926 2.11189 -3.36875 0
M  V30 3394 N 308.923 1.53595 0.353017 0
M  V30 3395 C 310.172 1.69603 1.09168 0
M  V30 3396 C 310.485 0.460925 1.90092 0
M  V30 3397 O 311.691 0.501774 2.66823 0
M  V30 3398 C 310.147 2.99872 1.9901 0
M  V30 3399 C 309.755 4.30687 1.23339 0
M  V30 3400 C 311.499 3.25246 2.72792 0
M  V30 3401 C 309.406 5.52036 2.12156 0
M  V30 3402 H 308.336 0.631966 0.411261 0
M  V30 3403 H 310.987 1.80096 0.351802 0
M  V30 3404 H 309.369 2.83212 2.7678 0
M  V30 3405 H 310.543 4.58019 0.505456 0
M  V30 3406 H 308.858 4.11853 0.613663 0
M  V30 3407 H 311.455 4.13095 3.39495 0
M  V30 3408 H 311.798 2.41846 3.38846 0
M  V30 3409 H 312.331 3.42638 2.021 0
M  V30 3410 H 309.07 6.37951 1.50659 0
M  V30 3411 H 308.59 5.28966 2.82764 0
M  V30 3412 H 310.269 5.87313 2.71427 0
M  V30 3413 N 310.401 -0.613514 1.45168 0
M  V30 3414 C 311.649 -1.36997 1.48581 0
M  V30 3415 C 311.97 -1.94589 0.126545 0
M  V30 3416 O 311.24 -1.76816 -0.843372 0
M  V30 3417 H 309.82 -0.508558 0.547154 0
M  V30 3418 H 312.482 -0.720853 1.81079 0
M  V30 3419 H 311.578 -2.1924 2.22127 0
M  V30 3420 N 311.879 -1.3236 -0.855495 0
M  V30 3421 C 313.125 -1.23054 -1.612 0
M  V30 3422 C 313.458 0.207404 -1.93089 0
M  V30 3423 O 312.733 1.14432 -1.57275 0
M  V30 3424 C 313.016 -2.08937 -2.93287 0
M  V30 3425 C 312.869 -3.61105 -2.68185 0
M  V30 3426 C 314.188 -1.94986 -3.94549 0
M  V30 3427 H 311.307 -0.448364 -0.584926 0
M  V30 3428 H 313.949 -1.62297 -0.987917 0
M  V30 3429 H 312.099 -1.75599 -3.46551 0
M  V30 3430 H 313.771 -4.04652 -2.21483 0
M  V30 3431 H 312.014 -3.83813 -2.02164 0
M  V30 3432 H 312.685 -4.16522 -3.62234 0
M  V30 3433 H 315.161 -2.24189 -3.5054 0
M  V30 3434 H 314.037 -2.57356 -4.84829 0
M  V30 3435 H 314.298 -0.917263 -4.3248 0
M  V30 3436 N 313.357 1.07166 -1.15556 0
M  V30 3437 C 314.606 1.79181 -0.926132 0
M  V30 3438 C 314.919 1.87768 0.547967 0
M  V30 3439 O 316.125 2.56323 0.895036 0
M  V30 3440 C 314.581 3.22 -1.60761 0
M  V30 3441 C 314.189 3.21607 -3.11886 0
M  V30 3442 C 315.933 3.9861 -1.4598 0
M  V30 3443 C 313.84 4.59092 -3.72812 0
M  V30 3444 H 312.77 0.67154 -0.342856 0
M  V30 3445 H 315.421 1.2027 -1.3859 0
M  V30 3446 H 313.803 3.81115 -1.07553 0
M  V30 3447 H 314.977 2.72127 -3.71865 0
M  V30 3448 H 313.292 2.58495 -3.2645 0
M  V30 3449 H 315.889 5.00225 -1.88888 0
M  V30 3450 H 316.232 4.143 -0.407541 0
M  V30 3451 H 316.765 3.45996 -1.96295 0
M  V30 3452 H 313.504 4.48606 -4.77946 0
M  V30 3453 H 313.024 5.08803 -3.17616 0
M  V30 3454 H 314.703 5.28059 -3.73848 0
M  V30 3455 N 314.835 0.952656 1.25548 0
M  V30 3456 C 316.082 0.606373 1.93208 0
M  V30 3457 C 316.41 -0.85631 1.74636 0
M  V30 3458 O 315.665 -1.62951 1.08376 0
M  V30 3459 C 315.964 0.908818 3.45652 0
M  V30 3460 C 315.63 2.35722 3.84378 0
M  V30 3461 C 314.292 2.75312 3.9466 0
M  V30 3462 C 316.644 3.29793 4.03591 0
M  V30 3463 C 313.972 4.08047 4.21562 0
M  V30 3464 C 316.324 4.62138 4.31985 0
M  V30 3465 C 314.988 5.01528 4.40484 0
M  V30 3466 H 314.258 0.221888 0.706998 0
M  V30 3467 H 316.905 1.20132 1.49133 0
M  V30 3468 H 315.21 0.231456 3.91116 0
M  V30 3469 H 316.907 0.619498 3.96186 0
M  V30 3470 H 313.497 2.04017 3.76928 0
M  V30 3471 H 317.681 3.00397 3.95064 0
M  V30 3472 H 312.937 4.38212 4.26357 0
M  V30 3473 H 317.111 5.35012 4.45797 0
M  V30 3474 H 314.738 6.04406 4.61083 0
M  V30 3475 N 316.313 -1.40141 0.720998 0
M  V30 3476 C 317.543 -2.04798 0.27226 0
M  V30 3477 C 317.951 -1.54442 -1.09289 0
M  V30 3478 O 317.294 -0.698342 -1.69908 0
M  V30 3479 C 317.356 -3.59048 0.18027 0
M  V30 3480 C 317.02 -4.32317 1.48159 0
M  V30 3481 C 318.017 -4.59902 2.42458 0
M  V30 3482 C 315.702 -4.71125 1.74202 0
M  V30 3483 C 317.696 -5.25288 3.61042 0
M  V30 3484 C 315.383 -5.36242 2.93066 0
M  V30 3485 C 316.381 -5.63254 3.86308 0
M  V30 3486 O 316.069 -6.27024 5.03086 0
M  V30 3487 H 315.801 -0.665419 0.119139 0
M  V30 3488 H 318.355 -1.80436 0.981432 0
M  V30 3489 H 316.585 -3.82251 -0.58489 0
M  V30 3490 H 318.274 -4.05221 -0.234618 0
M  V30 3491 H 319.04 -4.30379 2.23604 0
M  V30 3492 H 314.919 -4.49466 1.02477 0
M  V30 3493 H 318.463 -5.46289 4.33837 0
M  V30 3494 H 314.36 -5.65185 3.11826 0
M  V30 3495 H 315.128 -6.4552 5.03235 0
M  V30 3496 N 317.792 -0.46758 -1.50504 0
M  V30 3497 C 319.04 0.0884469 -2.01906 0
M  V30 3498 C 319.361 1.40532 -1.35188 0
M  V30 3499 O 318.631 1.89515 -0.496079 0
M  V30 3500 H 317.211 0.0356765 -0.746148 0
M  V30 3501 H 319.873 -0.6172 -1.84869 0
M  V30 3502 H 318.969 0.2425 -3.11156 0
M  V30 3503 N 319.27 1.56325 -0.20005 0
M  V30 3504 C 320.18 2.22931 0.730668 0
M  V30 3505 C 321.196 1.22997 1.23076 0
M  V30 3506 O 322.372 1.55748 1.27689 0
M  V30 3507 C 319.437 2.87948 1.93098 0
M  V30 3508 C 318.498 4.03166 1.47497 0
M  V30 3509 C 317.731 4.65073 2.61807 0
M  V30 3510 O 317.954 4.25913 3.79413 0
M  V30 3511 O 316.888 5.54452 2.34237 0
M  V30 3512 H 320.714 3.03084 0.193391 0
M  V30 3513 H 318.299 1.49371 0.0294621 0
M  V30 3514 H 320.181 3.29063 2.6324 0
M  V30 3515 H 318.856 2.10771 2.45677 0
M  V30 3516 H 317.763 3.66664 0.742201 0
M  V30 3517 H 319.096 4.82022 0.995796 0
M  V30 3518 N 320.748 -0.0735177 1.57428 0
M  V30 3519 C 321.994 -0.774145 1.87443 0
M  V30 3520 C 322.327 -1.77311 0.792103 0
M  V30 3521 O 321.602 -1.93492 -0.197793 0
M  V30 3522 C 321.885 -1.48367 3.28115 0
M  V30 3523 C 321.738 -0.501227 4.46999 0
M  V30 3524 C 323.057 -2.429 3.66998 0
M  V30 3525 H 320.176 -0.279971 0.681752 0
M  V30 3526 H 322.818 -0.0373616 1.89963 0
M  V30 3527 H 320.968 -2.11171 3.26097 0
M  V30 3528 H 322.64 0.121468 4.6114 0
M  V30 3529 H 320.883 0.183593 4.33411 0
M  V30 3530 H 321.554 -1.03526 5.42205 0
M  V30 3531 H 324.03 -1.90175 3.70098 0
M  V30 3532 H 322.906 -2.89549 4.66318 0
M  V30 3533 H 323.167 -3.27628 2.96837 0
M  V30 3534 N 322.226 -1.5378 -0.344866 0
M  V30 3535 C 323.174 -1.82373 -1.4437 0
M  V30 3536 C 324.168 -0.694128 -1.54526 0
M  V30 3537 O 325.374 -0.877442 -1.57165 0
M  V30 3538 H 321.749 -0.577765 -0.481344 0
M  V30 3539 H 323.72 -2.74306 -1.17468 0
M  V30 3540 C 322.469 -2.04898 -2.80913 0
M  V30 3541 H 321.792 -2.9127 -2.73865 0
M  V30 3542 H 323.232 -2.28871 -3.56923 0
M  V30 3543 C 321.691 -0.834116 -3.26411 0
M  V30 3544 O 322.221 -0.0328885 -4.01687 0
M  V30 3545 N 320.427 -0.65171 -2.83198 0
M  V30 3546 H 319.974 -1.30489 -2.22104 0
M  V30 3547 H 319.932 0.159686 -3.13994 0
M  V30 3548 N 323.704 0.605807 -1.45491 0
M  V30 3549 C 324.981 1.36522 -1.40075 0
M  V30 3550 C 325.361 2.10976 -0.0722744 0
M  V30 3551 O 324.709 2.08007 0.945808 0
M  V30 3552 C 324.919 2.31056 -2.61561 0
M  V30 3553 C 326.267 2.93608 -3.06724 0
M  V30 3554 O 327.291 2.41376 -2.61946 0
M  V30 3555 O 326.15 3.88421 -3.84437 0
M  V30 3556 H 323.244 0.612248 -0.555951 0
M  V30 3557 H 325.79 0.628747 -1.57623 0
M  V30 3558 H 324.562 1.75311 -3.49831 0
M  V30 3559 H 324.185 3.12081 -2.46356 0
M  V30 3560 N 325.182 1.32811 0.848464 0
M  V30 3561 C 326.431 1.23075 1.59798 0
M  V30 3562 C 326.744 -0.204419 1.94529 0
M  V30 3563 O 327.95 -0.423701 2.68173 0
M  V30 3564 C 326.406 2.15594 2.88179 0
M  V30 3565 C 326.014 3.64228 2.60849 0
M  V30 3566 C 327.758 2.14709 3.66197 0
M  V30 3567 C 325.665 4.48689 3.85269 0
M  V30 3568 H 324.595 0.457091 0.599653 0
M  V30 3569 H 327.246 1.57813 0.936342 0
M  V30 3570 H 325.628 1.73778 3.55833 0
M  V30 3571 H 326.802 4.14424 2.01467 0
M  V30 3572 H 325.117 3.67306 1.96151 0
M  V30 3573 H 327.714 2.75046 4.58534 0
M  V30 3574 H 328.057 1.13966 4.00397 0
M  V30 3575 H 328.59 2.54837 3.05455 0
M  V30 3576 H 325.329 5.5027 3.56207 0
M  V30 3577 H 324.849 4.03241 4.44024 0
M  V30 3578 H 326.528 4.62006 4.52946 0
M  V30 3579 N 326.66 -1.06551 1.16123 0
M  V30 3580 C 327.607 -2.13961 0.865414 0
M  V30 3581 C 328.577 -1.65066 -0.185055 0
M  V30 3582 O 329.762 -1.90732 -0.05083 0
M  V30 3583 C 326.902 -3.43113 0.369776 0
M  V30 3584 C 326.015 -4.05756 1.48276 0
M  V30 3585 C 325.15 -5.22773 0.942414 0
M  V30 3586 C 324.189 -5.77395 2.03179 0
M  V30 3587 N 323.326 -6.85731 1.50721 0
M  V30 3588 H 328.166 -2.38605 1.78527 0
M  V30 3589 H 325.703 -1.17072 0.890646 0
M  V30 3590 H 327.661 -4.17151 0.0640643 0
M  V30 3591 H 326.291 -3.18695 -0.513143 0
M  V30 3592 H 325.343 -3.29292 1.9045 0
M  V30 3593 H 326.655 -4.42351 2.30493 0
M  V30 3594 H 325.809 -6.03827 0.589729 0
M  V30 3595 H 324.548 -4.87618 0.0895191 0
M  V30 3596 H 323.553 -4.94981 2.3932 0
M  V30 3597 H 324.778 -6.14603 2.8886 0
M  V30 3598 H 322.724 -6.52499 0.676811 0
M  V30 3599 H 322.641 -7.21254 2.26557 0
M  V30 3600 H 323.909 -7.7047 1.18303 0
M  V30 3601 N 328.138 -0.959301 -1.25041 0
M  V30 3602 C 329.366 -0.633949 -1.96948 0
M  V30 3603 C 329.781 0.794916 -1.7125 0
M  V30 3604 O 329.138 1.53231 -0.991287 0
M  V30 3605 C 329.189 -0.888805 -3.50403 0
M  V30 3606 O 328.91 -2.26149 -3.75218 0
M  V30 3607 C 330.411 -0.576482 -4.39536 0
M  V30 3608 H 327.631 -0.237263 -0.627652 0
M  V30 3609 H 330.175 -1.28495 -1.59089 0
M  V30 3610 H 328.33 -0.284145 -3.86357 0
M  V30 3611 H 328.744 -2.33514 -4.6965 0
M  V30 3612 H 330.218 -0.805314 -5.46094 0
M  V30 3613 H 330.695 0.489075 -4.36468 0
M  V30 3614 H 331.301 -1.16067 -4.09156 0
M  V30 3615 N 329.616 1.39756 -0.72842 0
M  V30 3616 C 331.032 1.5442 -0.403308 0
M  V30 3617 C 331.232 1.69694 1.08656 0
M  V30 3618 O 330.288 1.69373 1.87267 0
M  V30 3619 C 331.601 2.76555 -1.18058 0
M  V30 3620 C 333.149 2.90384 -1.16815 0
M  V30 3621 C 333.624 4.15449 -1.92785 0
M  V30 3622 N 335.115 4.22475 -1.89918 0
M  V30 3623 C 335.85 5.1818 -2.45514 0
M  V30 3624 N 335.346 6.19714 -3.09719 0
M  V30 3625 N 337.139 5.1035 -2.35584 0
M  V30 3626 H 329.29 1.28089 -1.69431 0
M  V30 3627 H 331.553 0.620327 -0.716867 0
M  V30 3628 H 331.259 2.7159 -2.23455 0
M  V30 3629 H 331.133 3.69033 -0.780662 0
M  V30 3630 H 333.52 2.94846 -0.12234 0
M  V30 3631 H 333.601 1.98988 -1.6074 0
M  V30 3632 H 333.245 4.11749 -2.97364 0
M  V30 3633 H 333.175 5.05877 -1.46272 0
M  V30 3634 H 335.666 3.49743 -1.43138 0
M  V30 3635 H 335.979 6.8919 -3.49625 0
M  V30 3636 H 334.324 6.20121 -3.13807 0
M  V30 3637 H 337.515 4.2996 -1.85072 0
M  V30 3638 H 337.688 5.84761 -2.79211 0
M  V30 3639 N 331.094 0.475555 1.50254 0
M  V30 3640 C 332.319 -0.0777042 2.07254 0
M  V30 3641 C 332.744 -1.3235 1.3366 0
M  V30 3642 O 332.102 -1.77152 0.385597 0
M  V30 3643 C 332.15 -0.340169 3.58992 0
M  V30 3644 O 331.254 -1.41982 3.87188 0
M  V30 3645 H 330.595 0.0149556 0.663832 0
M  V30 3646 H 333.125 0.667878 1.93392 0
M  V30 3647 H 333.135 -0.579332 4.03866 0
M  V30 3648 H 331.81 0.570167 4.11973 0
M  V30 3649 H 330.387 -1.16762 3.54148 0
M  V30 3650 N 332.573 -1.56217 0.208337 0
M  V30 3651 C 333.819 -1.98998 -0.42086 0
M  V30 3652 C 334.174 -1.09331 -1.58317 0
M  V30 3653 O 333.467 -0.140466 -1.91084 0
M  V30 3654 C 333.661 -3.45441 -0.916797 0
M  V30 3655 C 333.49 -4.49273 0.195925 0
M  V30 3656 C 332.26 -5.00998 0.657956 0
M  V30 3657 C 334.458 -5.04294 1.00956 0
M  V30 3658 N 332.44 -5.88514 1.74712 0
M  V30 3659 C 333.811 -5.88607 1.94785 0
M  V30 3660 C 335.866 -4.86692 1.05049 0
M  V30 3661 C 334.569 -6.572 2.9237 0
M  V30 3662 C 336.595 -5.56034 2.01446 0
M  V30 3663 C 335.957 -6.40105 2.94016 0
M  V30 3664 H 332.056 -0.772574 -0.121048 0
M  V30 3665 H 334.64 -1.92101 0.317075 0
M  V30 3666 H 332.811 -3.52812 -1.62413 0
M  V30 3667 H 334.543 -3.75164 -1.51771 0
M  V30 3668 H 331.298 -4.72945 0.248912 0
M  V30 3669 H 331.722 -6.36975 2.2933 0
M  V30 3670 H 336.364 -4.21359 0.348759 0
M  V30 3671 H 334.082 -7.21723 3.63512 0
M  V30 3672 H 337.668 -5.44385 2.0527 0
M  V30 3673 H 336.548 -6.92816 3.6739 0
M  V30 3674 N 334.051 0.0651679 -1.57465 0
M  V30 3675 C 335.276 0.779605 -1.9219 0
M  V30 3676 C 335.701 1.69988 -0.805333 0
M  V30 3677 O 335.059 1.79685 0.241435 0
M  V30 3678 C 335.107 1.54364 -3.2589 0
M  V30 3679 O 334.211 2.65474 -3.1559 0
M  V30 3680 H 333.552 0.212249 -0.629163 0
M  V30 3681 H 336.082 0.0314294 -2.04576 0
M  V30 3682 H 336.092 1.92146 -3.59922 0
M  V30 3683 H 334.767 0.868457 -4.06732 0
M  V30 3684 H 333.344 2.30501 -2.93128 0
M  V30 3685 N 335.529 1.53961 0.336706 0
M  V30 3686 C 336.759 1.75229 1.09446 0
M  V30 3687 C 337.167 0.494602 1.82621 0
M  V30 3688 O 336.51 -0.543764 1.75468 0
M  V30 3689 C 336.572 2.88288 2.1478 0
M  V30 3690 C 336.236 4.27656 1.6112 0
M  V30 3691 C 337.233 5.08981 1.0599 0
M  V30 3692 C 334.918 4.74161 1.6576 0
M  V30 3693 C 336.912 6.34916 0.562129 0
M  V30 3694 C 334.599 6.00067 1.15595 0
M  V30 3695 C 335.597 6.80278 0.609147 0
M  V30 3696 O 335.285 8.03818 0.114999 0
M  V30 3697 H 335.017 0.588881 0.331956 0
M  V30 3698 H 337.571 2.01614 0.392566 0
M  V30 3699 H 335.801 2.57443 2.88548 0
M  V30 3700 H 337.49 2.97461 2.76174 0
M  V30 3701 H 338.256 4.74213 1.01722 0
M  V30 3702 H 334.135 4.11781 2.07261 0
M  V30 3703 H 337.679 6.9747 0.134668 0
M  V30 3704 H 333.576 6.3433 1.19566 0
M  V30 3705 H 334.344 8.18172 0.231651 0
M  V30 3706 N 337.007 -0.598083 1.45811 0
M  V30 3707 C 338.255 -1.35413 1.50026 0
M  V30 3708 C 338.576 -1.94444 0.147177 0
M  V30 3709 O 337.846 -1.77701 -0.824571 0
M  V30 3710 H 336.426 -0.502727 0.552517 0
M  V30 3711 H 339.088 -0.701606 1.81834 0
M  V30 3712 H 338.184 -2.16871 2.2444 0
M  V30 3713 N 338.485 -1.33259 -0.841409 0
M  V30 3714 C 339.417 -1.19136 -1.95804 0
M  V30 3715 C 340.43 -0.122965 -1.62335 0
M  V30 3716 O 341.619 -0.373154 -1.74556 0
M  V30 3717 C 338.719 -0.804268 -3.29218 0
M  V30 3718 C 337.892 -1.96376 -3.90839 0
M  V30 3719 C 336.951 -1.55806 -5.02604 0
M  V30 3720 O 335.977 -2.27203 -5.21888 0
M  V30 3721 N 337.179 -0.461609 -5.78662 0
M  V30 3722 H 339.944 -2.15326 -2.08458 0
M  V30 3723 H 337.505 -1.25971 -1.017 0
M  V30 3724 H 339.497 -0.51501 -4.0141 0
M  V30 3725 H 338.067 0.0668809 -3.12528 0
M  V30 3726 H 337.287 -2.41879 -3.11269 0
M  V30 3727 H 338.575 -2.73966 -4.28742 0
M  V30 3728 H 337.973 0.132343 -5.65545 0
M  V30 3729 H 336.53 -0.232013 -6.51387 0
M  V30 3730 N 339.963 1.05934 -1.16686 0
M  V30 3731 C 341.21 1.788 -0.950622 0
M  V30 3732 C 341.538 1.87384 0.521305 0
M  V30 3733 O 340.793 1.36438 1.40297 0
M  V30 3734 C 341.092 3.23105 -1.52767 0
M  V30 3735 C 340.758 3.34594 -3.02254 0
M  V30 3736 C 339.42 3.37437 -3.43059 0
M  V30 3737 C 341.772 3.36219 -3.98254 0
M  V30 3738 C 339.1 3.39525 -4.78477 0
M  V30 3739 C 341.452 3.39845 -5.33562 0
M  V30 3740 C 340.116 3.40971 -5.73842 0
M  V30 3741 H 339.386 0.654275 -0.347857 0
M  V30 3742 H 342.033 1.24555 -1.45459 0
M  V30 3743 H 340.338 3.80227 -0.94524 0
M  V30 3744 H 342.035 3.7809 -1.336 0
M  V30 3745 H 338.625 3.3309 -2.6972 0
M  V30 3746 H 342.809 3.33231 -3.67792 0
M  V30 3747 H 338.065 3.38703 -5.09009 0
M  V30 3748 H 342.239 3.4005 -6.07733 0
M  V30 3749 H 339.866 3.42342 -6.78753 0
M  V30 3750 N 341.441 0.965919 1.2453 0
M  V30 3751 C 342.351 0.502154 2.29163 0
M  V30 3752 C 343.367 -0.436017 1.68448 0
M  V30 3753 O 344.543 -0.309497 1.99008 0
M  V30 3754 C 341.608 -0.201956 3.46111 0
M  V30 3755 C 340.669 0.775821 4.22232 0
M  V30 3756 C 339.902 0.105217 5.33596 0
M  V30 3757 O 340.125 -1.10683 5.59558 0
M  V30 3758 O 339.059 0.796475 5.96607 0
M  V30 3759 H 342.885 1.37194 2.70946 0
M  V30 3760 H 340.47 0.732875 1.30189 0
M  V30 3761 H 342.352 -0.597564 4.17142 0
M  V30 3762 H 341.027 -1.04673 3.06309 0
M  V30 3763 H 339.934 1.22185 3.53584 0
M  V30 3764 H 341.267 1.58896 4.65846 0
M  V30 3765 N 342.919 -1.39368 0.735821 0
M  V30 3766 C 344.196 -1.94465 0.210395 0
M  V30 3767 C 344.576 -1.67254 -1.28799 0
M  V30 3768 O 343.924 -1.00123 -2.05396 0
M  V30 3769 C 344.134 -3.4472 0.544897 0
M  V30 3770 C 345.482 -4.21708 0.494689 0
M  V30 3771 O 346.506 -3.52922 0.482136 0
M  V30 3772 O 345.365 -5.44299 0.489947 0
M  V30 3773 H 342.459 -0.826096 0.0386666 0
M  V30 3774 H 345.005 -1.48863 0.814735 0
M  V30 3775 H 343.777 -3.57963 1.58045 0
M  V30 3776 H 343.4 -3.97502 -0.08837 0
M  V30 3777 N 344.397 -0.483516 -1.5 0
M  V30 3778 C 345.645 0.067027 -2.01989 0
M  V30 3779 C 345.966 1.3909 -1.36671 0
M  V30 3780 O 345.236 1.88978 -0.516152 0
M  V30 3781 H 343.816 0.0277606 -0.746484 0
M  V30 3782 H 346.478 -0.636773 -1.84204 0
M  V30 3783 H 345.574 0.209484 -3.11396 0
M  V30 3784 N 345.875 1.56104 -0.216619 0
M  V30 3785 C 347.124 1.97348 0.416744 0
M  V30 3786 C 347.437 1.10715 1.6125 0
M  V30 3787 O 348.643 1.41836 2.31506 0
M  V30 3788 C 347.099 3.51059 0.792835 0
M  V30 3789 C 346.707 4.46387 -0.379828 0
M  V30 3790 C 348.451 4.01026 1.39208 0
M  V30 3791 C 346.358 5.91397 0.0184223 0
M  V30 3792 H 345.288 0.736942 0.159475 0
M  V30 3793 H 347.939 1.80827 -0.31205 0
M  V30 3794 H 346.321 3.63162 1.57891 0
M  V30 3795 H 347.495 4.46029 -1.15737 0
M  V30 3796 H 345.81 4.06734 -0.891979 0
M  V30 3797 H 348.407 5.0686 1.70286 0
M  V30 3798 H 348.75 3.46587 2.30614 0
M  V30 3799 H 349.283 3.92125 0.669537 0
M  V30 3800 H 346.022 6.49807 -0.862002 0
M  V30 3801 H 345.542 5.94961 0.760384 0
M  V30 3802 H 347.221 6.45455 0.446818 0
M  V30 3803 N 347.353 -0.0568162 1.57498 0
M  V30 3804 C 348.283 -1.06593 2.0775 0
M  V30 3805 C 349.264 -1.39448 0.974082 0
M  V30 3806 O 350.449 -1.48815 1.24771 0
M  V30 3807 C 347.579 -2.37509 2.5339 0
M  V30 3808 C 346.533 -2.1897 3.67745 0
M  V30 3809 C 345.859 -3.55402 3.99492 0
M  V30 3810 C 347.159 -1.59859 4.97235 0
M  V30 3811 H 348.853 -0.647706 2.9231 0
M  V30 3812 H 346.399 -0.310116 1.40621 0
M  V30 3813 H 348.352 -3.08409 2.87162 0
M  V30 3814 H 347.076 -2.8134 1.65878 0
M  V30 3815 H 345.735 -1.50508 3.3428 0
M  V30 3816 H 345.383 -3.9683 3.09088 0
M  V30 3817 H 345.083 -3.43831 4.76502 0
M  V30 3818 H 346.607 -4.27708 4.35773 0
M  V30 3819 H 348.021 -2.20642 5.29141 0
M  V30 3820 H 346.418 -1.58942 5.78669 0
M  V30 3821 H 347.488 -0.561506 4.81638 0
M  V30 3822 N 348.832 -1.54138 -0.328536 0
M  V30 3823 C 350.109 -1.62749 -1.08499 0
M  V30 3824 C 350.489 -0.458198 -2.06067 0
M  V30 3825 O 349.837 0.548046 -2.2183 0
M  V30 3826 C 350.047 -2.99519 -1.79135 0
M  V30 3827 C 351.395 -3.55394 -2.32337 0
M  V30 3828 O 352.419 -3.01792 -1.89209 0
M  V30 3829 O 351.278 -4.49186 -3.11279 0
M  V30 3830 H 348.372 -0.65886 -0.499832 0
M  V30 3831 H 350.918 -1.66484 -0.328826 0
M  V30 3832 H 349.69 -3.76061 -1.08139 0
M  V30 3833 H 349.313 -2.99441 -2.61574 0
M  V30 3834 N 350.31 0.590341 -1.46126 0
M  V30 3835 C 351.538 1.37504 -1.54597 0
M  V30 3836 C 351.953 1.87897 -0.184447 0
M  V30 3837 O 351.31 1.63192 0.816984 0
M  V30 3838 C 351.361 2.56779 -2.54454 0
M  V30 3839 O 351.082 2.08476 -3.85317 0
M  V30 3840 C 352.583 3.49427 -2.72792 0
M  V30 3841 H 349.803 0.420325 -0.523037 0
M  V30 3842 H 352.347 0.718383 -1.91467 0
M  V30 3843 H 350.502 3.1845 -2.20609 0
M  V30 3844 H 350.916 2.86097 -4.396 0
M  V30 3845 H 352.39 4.29619 -3.466 0
M  V30 3846 H 352.867 4.00876 -1.79429 0
M  V30 3847 H 353.473 2.93598 -3.07702 0
M  V30 3848 N 351.788 1.33704 0.83433 0
M  V30 3849 C 353.028 1.26754 1.60352 0
M  V30 3850 C 353.392 -0.163182 1.91305 0
M  V30 3851 O 354.593 -0.3567 2.66423 0
M  V30 3852 C 352.864 2.12262 2.8754 0
M  V30 3853 S 354.423 2.22549 3.78176 0
M  V30 3854 H 351.241 0.450879 0.549753 0
M  V30 3855 H 353.843 1.68788 0.986444 0
M  V30 3856 H 352.547 3.15238 2.62779 0
M  V30 3857 H 352.078 1.71082 3.54252 0
M  V30 3858 H 354.093 1.3899 4.76336 0
M  V30 3859 N 353.266 -1.05314 1.17247 0
M  V30 3860 C 354.196 -2.1498 0.911362 0
M  V30 3861 C 355.177 -1.69471 -0.146169 0
M  V30 3862 O 356.362 -1.942 0.003812 0
M  V30 3863 C 353.492 -3.4472 0.422528 0
M  V30 3864 C 352.446 -4.03789 1.4191 0
M  V30 3865 C 351.772 -5.28858 0.788274 0
M  V30 3866 C 353.072 -4.41418 2.7919 0
M  V30 3867 H 354.766 -2.3708 1.82848 0
M  V30 3868 H 352.312 -1.13938 0.880569 0
M  V30 3869 H 354.265 -4.20787 0.227289 0
M  V30 3870 H 352.989 -3.22269 -0.530123 0
M  V30 3871 H 351.648 -3.2979 1.60106 0
M  V30 3872 H 351.296 -5.02709 -0.171173 0
M  V30 3873 H 350.996 -5.69338 1.45353 0
M  V30 3874 H 352.52 -6.07612 0.603282 0
M  V30 3875 H 353.934 -5.08524 2.64719 0
M  V30 3876 H 352.331 -4.92913 3.42282 0
M  V30 3877 H 353.401 -3.51819 3.33693 0
M  V30 3878 N 354.744 -0.972509 -1.24016 0
M  V30 3879 C 355.974 -0.653853 -1.9598 0
M  V30 3880 C 356.382 0.781801 -1.72292 0
M  V30 3881 O 355.725 1.53677 -1.00644 0
M  V30 3882 C 355.787 -0.854608 -3.49194 0
M  V30 3883 C 355.451 -2.27082 -3.96589 0
M  V30 3884 C 356.448 -3.24892 -4.05883 0
M  V30 3885 C 354.133 -2.5998 -4.29786 0
M  V30 3886 C 356.127 -4.53684 -4.47716 0
M  V30 3887 C 353.814 -3.88997 -4.71301 0
M  V30 3888 C 354.812 -4.85661 -4.80232 0
M  V30 3889 O 354.5 -6.12376 -5.20818 0
M  V30 3890 H 354.232 -0.242572 -0.630979 0
M  V30 3891 H 356.786 -1.30431 -1.58673 0
M  V30 3892 H 355.016 -0.146985 -3.86421 0
M  V30 3893 H 356.705 -0.534311 -4.02368 0
M  V30 3894 H 357.471 -3.00805 -3.80449 0
M  V30 3895 H 353.35 -1.85457 -4.22051 0
M  V30 3896 H 356.894 -5.29135 -4.54601 0
M  V30 3897 H 352.791 -4.12882 -4.96184 0
M  V30 3898 H 353.559 -6.16013 -5.38953 0
M  V30 3899 N 356.222 1.38976 -0.743202 0
M  V30 3900 C 357.468 2.0064 -0.295189 0
M  V30 3901 C 357.801 1.5885 1.11716 0
M  V30 3902 O 357.076 0.821181 1.76315 0
M  V30 3903 C 357.359 3.578 -0.406318 0
M  V30 3904 C 357.212 4.09586 -1.85903 0
M  V30 3905 C 358.531 4.39616 0.206439 0
M  V30 3906 H 355.65 0.728935 -0.108733 0
M  V30 3907 H 358.292 1.65067 -0.940897 0
M  V30 3908 H 356.442 3.88235 0.143419 0
M  V30 3909 H 358.114 3.89837 -2.46627 0
M  V30 3910 H 356.357 3.6284 -2.3776 0
M  V30 3911 H 357.028 5.18708 -1.888 0
M  V30 3912 H 359.504 4.15273 -0.262283 0
M  V30 3913 H 358.38 5.48812 0.0983819 0
M  V30 3914 H 358.641 4.22754 1.2935 0
M  V30 3915 N 357.7 0.491464 1.49741 0
M  V30 3916 C 358.633 -0.338464 2.25676 0
M  V30 3917 C 359.611 -0.978676 1.29849 0
M  V30 3918 O 360.795 -1.01064 1.59117 0
M  V30 3919 C 357.922 -1.47588 3.04853 0
M  V30 3920 C 356.968 -0.951 4.15762 0
M  V30 3921 S 357.801 0.150626 5.35288 0
M  V30 3922 C 358.957 -0.990178 6.18018 0
M  V30 3923 H 359.19 0.306068 2.9572 0
M  V30 3924 H 356.723 0.276622 1.51902 0
M  V30 3925 H 358.681 -2.12764 3.51058 0
M  V30 3926 H 357.342 -2.09199 2.34296 0
M  V30 3927 H 356.535 -1.80311 4.70642 0
M  V30 3928 H 356.137 -0.376607 3.72099 0
M  V30 3929 H 358.429 -1.89748 6.50386 0
M  V30 3930 H 359.372 -0.480205 7.0647 0
M  V30 3931 H 359.78 -1.25321 5.50413 0
M  V30 3932 N 359.178 -1.55987 0.224894 0
M  V30 3933 C 360.455 -1.90232 -0.455083 0
M  V30 3934 C 360.835 -1.14269 -1.77499 0
M  V30 3935 O 360.183 -0.253079 -2.27094 0
M  V30 3936 C 360.393 -3.42993 -0.644758 0
M  V30 3937 C 361.741 -4.13821 -0.950669 0
M  V30 3938 O 362.765 -3.4861 -0.731423 0
M  V30 3939 O 361.624 -5.29128 -1.36695 0
M  V30 3940 H 358.718 -0.79108 -0.241084 0
M  V30 3941 H 361.264 -1.67581 0.267327 0
M  V30 3942 H 360.036 -3.90252 0.28613 0
M  V30 3943 H 359.659 -3.71434 -1.41853 0
M  V30 3944 N 360.656 0.0484629 -1.57525 0
M  V30 3945 C 362.072 0.40375 -1.54409 0
M  V30 3946 C 362.272 1.77786 -0.948384 0
M  V30 3947 O 361.328 2.46189 -0.560983 0
M  V30 3948 C 362.641 0.323394 -2.98956 0
M  V30 3949 C 364.189 0.401892 -3.10409 0
M  V30 3950 C 364.664 0.351195 -4.56652 0
M  V30 3951 N 366.155 0.410576 -4.61377 0
M  V30 3952 C 366.89 0.393933 -5.72045 0
M  V30 3953 N 366.386 0.330724 -6.9201 0
M  V30 3954 N 368.179 0.442227 -5.60358 0
M  V30 3955 H 360.33 -0.851016 -1.94606 0
M  V30 3956 H 362.593 -0.321721 -0.89174 0
M  V30 3957 H 362.299 -0.62011 -3.4619 0
M  V30 3958 H 362.173 1.12463 -3.60044 0
M  V30 3959 H 364.56 1.33582 -2.63134 0
M  V30 3960 H 364.641 -0.428342 -2.52188 0
M  V30 3961 H 364.285 -0.578987 -5.04589 0
M  V30 3962 H 364.215 1.19928 -5.12762 0
M  V30 3963 H 366.706 0.462729 -3.75056 0
M  V30 3964 H 367.019 0.322592 -7.72126 0
M  V30 3965 H 365.364 0.29706 -6.94365 0
M  V30 3966 H 368.555 0.489464 -4.65534 0
M  V30 3967 H 368.728 0.425788 -6.466 0
M  V30 3968 N 362.134 1.5431 0.320358 0
M  V30 3969 C 363.097 1.83195 1.3774 0
M  V30 3970 C 364.097 0.703906 1.44575 0
M  V30 3971 O 365.287 0.972214 1.44546 0
M  V30 3972 C 362.419 1.99487 2.76438 0
M  V30 3973 H 363.612 2.77642 1.1338 0
M  V30 3974 H 361.165 1.46076 0.556012 0
M  V30 3975 H 361.9 1.07262 3.06048 0
M  V30 3976 H 361.685 2.81575 2.7287 0
M  V30 3977 H 363.175 2.23271 3.52902 0
M  V30 3978 N 363.613 -0.582584 1.46437 0
M  V30 3979 C 364.545 -1.70618 1.53043 0
M  V30 3980 C 365.558 -1.57322 0.418769 0
M  V30 3981 O 366.747 -1.64744 0.687136 0
M  V30 3982 C 363.847 -3.08869 1.39474 0
M  V30 3983 C 363.02 -3.48166 2.64762 0
M  V30 3984 C 362.079 -4.65478 2.4539 0
M  V30 3985 O 361.105 -4.71333 3.19114 0
M  V30 3986 N 362.307 -5.60365 1.51564 0
M  V30 3987 H 365.072 -1.65405 2.49923 0
M  V30 3988 H 362.633 -0.768567 1.42494 0
M  V30 3989 H 364.625 -3.85143 1.24287 0
M  V30 3990 H 363.195 -3.08449 0.507758 0
M  V30 3991 H 362.415 -2.61598 2.9489 0
M  V30 3992 H 363.703 -3.71188 3.4799 0
M  V30 3993 H 363.101 -5.5837 0.907705 0
M  V30 3994 H 361.658 -6.36068 1.4234 0
M  V30 3995 N 365.091 -1.34144 -0.827227 0
M  V30 3996 C 366.024 -1.19707 -1.94282 0
M  V30 3997 C 367.002 -0.0897256 -1.62352 0
M  V30 3998 O 368.186 -0.254095 -1.8678 0
M  V30 3999 C 365.313 -0.838646 -3.28153 0
M  V30 4000 C 364.359 -1.95514 -3.79047 0
M  V30 4001 S 365.192 -3.56793 -3.99323 0
M  V30 4002 C 366.348 -3.22983 -5.36127 0
M  V30 4003 H 366.581 -2.1414 -2.06231 0
M  V30 4004 H 364.114 -1.19121 -0.982321 0
M  V30 4005 H 366.072 -0.638637 -4.05502 0
M  V30 4006 H 364.733 0.0872776 -3.13979 0
M  V30 4007 H 363.926 -1.658 -4.75948 0
M  V30 4008 H 363.528 -2.11241 -3.08631 0
M  V30 4009 H 365.82 -2.74531 -6.19386 0
M  V30 4010 H 366.763 -4.19008 -5.70822 0
M  V30 4011 H 367.171 -2.59276 -5.01434 0
M  V30 4012 N 366.569 1.04691 -1.17803 0
M  V30 4013 C 367.846 1.7472 -0.879328 0
M  V30 4014 C 368.226 2.01812 0.619271 0
M  V30 4015 O 367.574 1.65824 1.57209 0
M  V30 4016 C 367.784 3.03686 -1.71976 0
M  V30 4017 C 369.132 3.77542 -1.94286 0
M  V30 4018 O 370.156 3.13569 -1.68976 0
M  V30 4019 O 369.015 4.92506 -2.36855 0
M  V30 4020 H 366.109 0.760011 -0.326056 0
M  V30 4021 H 368.655 1.10813 -1.28525 0
M  V30 4022 H 367.427 2.79754 -2.73594 0
M  V30 4023 H 367.05 3.75332 -1.31194 0
M  V30 4024 N 368.047 0.979072 1.23499 0
M  V30 4025 C 368.977 0.537606 2.27227 0
M  V30 4026 C 369.958 -0.428539 1.64613 0
M  V30 4027 O 371.143 -0.322191 1.91509 0
M  V30 4028 C 368.273 -0.162052 3.46922 0
M  V30 4029 C 367.227 0.721242 4.21879 0
M  V30 4030 C 366.553 -0.110555 5.34586 0
M  V30 4031 C 367.853 2.01141 4.82016 0
M  V30 4032 H 369.547 1.40462 2.64406 0
M  V30 4033 H 367.093 0.67684 1.27102 0
M  V30 4034 H 369.046 -0.482192 4.18632 0
M  V30 4035 H 367.77 -1.06351 3.08799 0
M  V30 4036 H 366.429 1.02482 3.51984 0
M  V30 4037 H 366.077 -1.0125 4.92704 0
M  V30 4038 H 365.777 0.477325 5.85658 0
M  V30 4039 H 367.301 -0.425107 6.09118 0
M  V30 4040 H 368.715 1.75612 5.45741 0
M  V30 4041 H 367.112 2.54695 5.43369 0
M  V30 4042 H 368.182 2.69909 4.02836 0
M  V30 4043 N 369.525 -1.3858 0.750561 0
M  V30 4044 C 370.75 -2.04997 0.314812 0
M  V30 4045 C 371.175 -1.56235 -1.04749 0
M  V30 4046 O 370.533 -0.712981 -1.66692 0
M  V30 4047 C 370.581 -3.58961 0.343415 0
M  V30 4048 O 369.685 -4.07025 -0.663628 0
M  V30 4049 H 369.026 -0.649081 0.139962 0
M  V30 4050 H 371.556 -1.77313 1.02084 0
M  V30 4051 H 371.566 -4.07542 0.193233 0
M  V30 4052 H 370.241 -3.93811 1.33738 0
M  V30 4053 H 368.818 -3.6982 -0.478307 0
M  V30 4054 N 371.003 -0.499398 -1.49478 0
M  V30 4055 C 372.251 0.0455996 -2.02049 0
M  V30 4056 C 372.572 1.37633 -1.38138 0
M  V30 4057 O 371.842 1.8842 -0.536166 0
M  V30 4058 H 370.422 0.0198416 -0.746736 0
M  V30 4059 H 373.084 -0.656274 -1.83519 0
M  V30 4060 H 372.18 0.176445 -3.11601 0
M  V30 4061 N 372.481 1.55866 -0.233164 0
M  V30 4062 C 373.897 1.59133 0.121988 0
M  V30 4063 C 374.097 1.25016 1.58029 0
M  V30 4064 O 373.153 0.990922 2.32243 0
M  V30 4065 C 374.466 2.99932 -0.214792 0
M  V30 4066 C 376.014 3.12601 -0.157971 0
M  V30 4067 C 376.489 4.55597 -0.46859 0
M  V30 4068 N 377.98 4.61305 -0.418585 0
M  V30 4069 C 378.715 5.69903 -0.63227 0
M  V30 4070 N 378.211 6.86819 -0.90835 0
M  V30 4071 N 380.004 5.59264 -0.563913 0
M  V30 4072 H 372.155 1.76315 -1.18434 0
M  V30 4073 H 374.418 0.820093 -0.475553 0
M  V30 4074 H 374.124 3.29588 -1.22739 0
M  V30 4075 H 373.998 3.74327 0.464691 0
M  V30 4076 H 376.385 2.82735 0.845283 0
M  V30 4077 H 376.466 2.40511 -0.871102 0
M  V30 4078 H 376.11 4.86182 -1.46934 0
M  V30 4079 H 376.04 5.25928 0.265865 0
M  V30 4080 H 378.531 3.77297 -0.213368 0
M  V30 4081 H 378.844 7.65507 -1.05919 0
M  V30 4082 H 377.189 6.88536 -0.945673 0
M  V30 4083 H 380.38 4.66802 -0.348372 0
M  V30 4084 H 380.553 6.43831 -0.733847 0
M  V30 4085 N 373.959 -0.0401083 1.57549 0
M  V30 4086 C 375.207 -0.731677 1.8839 0
M  V30 4087 C 375.528 -1.76481 0.829425 0
M  V30 4088 O 374.798 -1.95411 -0.1383 0
M  V30 4089 H 373.378 -0.273225 0.695239 0
M  V30 4090 H 376.04 -0.00867725 1.94898 0
M  V30 4091 H 375.136 -1.22816 2.86919 0
M  V30 4092 N 375.437 -1.54477 -0.31217 0
M  V30 4093 C 376.385 -1.85395 -1.40469 0
M  V30 4094 C 377.379 -0.726749 -1.53019 0
M  V30 4095 O 378.585 -0.910582 -1.55269 0
M  V30 4096 H 374.96 -0.587845 -0.46898 0
M  V30 4097 H 376.931 -2.76736 -1.11623 0
M  V30 4098 C 375.68 -2.10811 -2.76503 0
M  V30 4099 H 375.003 -2.97014 -2.67625 0
M  V30 4100 H 376.443 -2.3639 -3.51988 0
M  V30 4101 C 374.902 -0.903165 -3.24568 0
M  V30 4102 O 375.432 -0.118085 -4.01526 0
M  V30 4103 N 373.638 -0.711634 -2.81752 0
M  V30 4104 H 373.185 -1.35171 -2.19286 0
M  V30 4105 H 373.143 0.0930473 -3.14262 0
M  V30 4106 N 376.915 0.57481 -1.46744 0
M  V30 4107 C 378.326 1.15695 -1.46532 0
M  V30 4108 C 378.677 1.95068 -0.210425 0
M  V30 4109 O 377.802 2.05241 0.685944 0
M  V30 4110 C 378.397 2.1048 -2.65487 0
M  V30 4111 C 376.956 2.64002 -2.68291 0
M  V30 4112 C 376.103 1.40026 -2.39349 0
M  V30 4113 H 379.054 0.362325 -1.54509 0
M  V30 4114 H 379.075 2.94074 -2.41455 0
M  V30 4115 H 378.587 1.52683 -3.56805 0
M  V30 4116 H 376.688 3.25646 -1.81067 0
M  V30 4117 H 376.801 3.06197 -3.68483 0
M  V30 4118 H 375.165 1.70106 -1.89568 0
M  V30 4119 H 375.948 0.840485 -3.32852 0
M  V30 4120 N 378.394 1.34581 0.820102 0
M  V30 4121 C 379.643 1.26437 1.57151 0
M  V30 4122 C 379.956 -0.163111 1.94919 0
M  V30 4123 O 381.162 -0.366722 2.69012 0
M  V30 4124 C 379.618 2.21658 2.83541 0
M  V30 4125 C 379.226 3.69679 2.53065 0
M  V30 4126 C 380.97 2.22428 3.61561 0
M  V30 4127 C 378.877 4.56761 3.75664 0
M  V30 4128 H 377.807 0.469707 0.589823 0
M  V30 4129 H 380.458 1.59763 0.902656 0
M  V30 4130 H 378.84 1.81287 3.52067 0
M  V30 4131 H 380.014 4.18605 1.92631 0
M  V30 4132 H 378.329 3.71384 1.88316 0
M  V30 4133 H 380.926 2.8471 4.52597 0
M  V30 4134 H 381.269 1.22434 3.97889 0
M  V30 4135 H 381.802 2.61259 2.99981 0
M  V30 4136 H 378.541 5.57702 3.44454 0
M  V30 4137 H 378.061 4.12568 4.35371 0
M  V30 4138 H 379.74 4.71509 4.43044 0
M  V30 4139 N 379.872 -1.04064 1.18357 0
M  V30 4140 C 380.819 -2.12077 0.910603 0
M  V30 4141 C 381.789 -1.65421 -0.15 0
M  V30 4142 O 382.974 -1.90797 -0.0103614 0
M  V30 4143 C 380.114 -3.42252 0.442472 0
M  V30 4144 C 379.227 -4.0252 1.5685 0
M  V30 4145 C 378.362 -5.20657 1.05309 0
M  V30 4146 C 377.401 -5.72955 2.1538 0
M  V30 4147 N 376.538 -6.8238 1.65233 0
M  V30 4148 H 381.378 -2.34764 1.83548 0
M  V30 4149 H 378.915 -1.15157 0.915279 0
M  V30 4150 H 380.873 -4.16921 0.152534 0
M  V30 4151 H 379.503 -3.19712 -0.445428 0
M  V30 4152 H 378.555 -3.25178 1.97391 0
M  V30 4153 H 379.867 -4.37362 2.39824 0
M  V30 4154 H 379.021 -6.0244 0.717677 0
M  V30 4155 H 377.76 -4.87318 0.19293 0
M  V30 4156 H 376.765 -4.89793 2.49766 0
M  V30 4157 H 377.99 -6.08337 3.01832 0
M  V30 4158 H 375.936 -6.50917 0.815064 0
M  V30 4159 H 375.853 -7.16286 2.41805 0
M  V30 4160 H 377.121 -7.67788 1.34619 0
M  V30 4161 N 381.35 -0.985608 -1.22978 0
M  V30 4162 C 382.596 -0.65836 -1.91816 0
M  V30 4163 C 382.929 0.806692 -1.76653 0
M  V30 4164 O 382.204 1.58252 -1.13078 0
M  V30 4165 C 382.487 -1.056 -3.44268 0
M  V30 4166 C 382.34 -2.57906 -3.68516 0
M  V30 4167 C 383.659 -0.603781 -4.35939 0
M  V30 4168 H 380.778 -0.24065 -0.696604 0
M  V30 4169 H 383.42 -1.22783 -1.44998 0
M  V30 4170 H 381.57 -0.571445 -3.84274 0
M  V30 4171 H 383.242 -3.13976 -3.3796 0
M  V30 4172 H 381.485 -3.00305 -3.13048 0
M  V30 4173 H 382.156 -2.80779 -4.75255 0
M  V30 4174 H 384.632 -1.01987 -4.03408 0
M  V30 4175 H 383.508 -0.910383 -5.41298 0
M  V30 4176 H 383.769 0.495761 -4.39312 0
M  V30 4177 N 382.828 1.3818 -0.7579 0
M  V30 4178 C 384.053 2.04827 -0.325679 0
M  V30 4179 C 384.478 1.56788 1.03919 0
M  V30 4180 O 383.836 0.721811 1.66312 0
M  V30 4181 C 383.884 3.58774 -0.362447 0
M  V30 4182 O 382.988 4.07372 0.642033 0
M  V30 4183 H 382.329 0.64833 -0.143402 0
M  V30 4184 H 384.859 1.7677 -1.03023 0
M  V30 4185 H 384.869 4.07434 -0.214844 0
M  V30 4186 H 383.544 3.93096 -1.35824 0
M  V30 4187 H 382.121 3.70068 0.458688 0
M  V30 4188 N 384.306 0.507319 1.49211 0
M  V30 4189 C 385.722 0.163682 1.58758 0
M  V30 4190 C 385.922 -1.33208 1.51188 0
M  V30 4191 O 384.978 -2.10855 1.38911 0
M  V30 4192 C 386.291 0.746095 2.91297 0
M  V30 4193 C 387.839 0.712773 3.04776 0
M  V30 4194 C 388.314 1.27336 4.39943 0
M  V30 4195 N 389.805 1.23433 4.46451 0
M  V30 4196 C 390.54 1.63821 5.495 0
M  V30 4197 N 390.036 2.11832 6.5962 0
M  V30 4198 N 391.829 1.55198 5.4025 0
M  V30 4199 H 383.98 1.47972 1.52375 0
M  V30 4200 H 386.243 0.614147 0.722168 0
M  V30 4201 H 385.949 1.79534 3.02424 0
M  V30 4202 H 385.823 0.210137 3.76614 0
M  V30 4203 H 388.21 -0.327656 2.93275 0
M  V30 4204 H 388.291 1.28595 2.21127 0
M  V30 4205 H 387.935 2.3126 4.52196 0
M  V30 4206 H 387.865 0.676066 5.22242 0
M  V30 4207 H 390.356 0.882627 3.67448 0
M  V30 4208 H 390.669 2.40703 7.34358 0
M  V30 4209 H 389.014 2.1581 6.60644 0
M  V30 4210 H 392.205 1.17505 4.53112 0
M  V30 4211 H 392.378 1.86997 6.20432 0
M  V30 4212 N 385.784 -1.5574 0.241426 0
M  V30 4213 C 387.03 -1.99104 -0.385406 0
M  V30 4214 C 387.363 -1.1293 -1.57988 0
M  V30 4215 O 386.638 -0.191449 -1.93555 0
M  V30 4216 C 386.921 -3.51087 -0.800616 0
M  V30 4217 C 386.774 -4.48028 0.398874 0
M  V30 4218 C 388.093 -4.08015 -1.64959 0
M  V30 4219 H 385.212 -0.723848 -0.138614 0
M  V30 4220 H 387.854 -1.86903 0.341642 0
M  V30 4221 H 386.004 -3.61615 -1.4201 0
M  V30 4222 H 387.676 -4.49487 1.03726 0
M  V30 4223 H 385.919 -4.21077 1.04293 0
M  V30 4224 H 386.59 -5.51962 0.0651056 0
M  V30 4225 H 389.066 -4.00555 -1.12672 0
M  V30 4226 H 387.942 -5.14635 -1.90898 0
M  V30 4227 H 388.203 -3.56131 -2.61961 0
M  V30 4228 N 387.262 0.0317525 -1.57568 0
M  V30 4229 C 388.51 0.721676 -1.88776 0
M  V30 4230 C 388.831 1.76039 -0.838772 0
M  V30 4231 O 388.101 1.95482 0.127935 0
M  V30 4232 H 386.681 0.269534 -0.696678 0
M  V30 4233 H 389.343 -0.00165879 -1.949 0
M  V30 4234 H 388.439 1.21293 -2.87566 0
M  V30 4235 N 388.74 1.54641 0.303973 0
M  V30 4236 C 389.965 1.78092 1.06292 0
M  V30 4237 C 390.39 0.537342 1.80262 0
M  V30 4238 O 389.748 -0.511993 1.7392 0
M  V30 4239 C 389.796 2.98612 2.02147 0
M  V30 4240 O 388.9 2.71528 3.10397 0
M  V30 4241 H 388.241 0.589548 0.305497 0
M  V30 4242 H 390.771 2.01716 0.3423 0
M  V30 4243 H 390.781 3.265 2.44667 0
M  V30 4244 H 389.456 3.88785 1.47714 0
M  V30 4245 H 388.033 2.54648 2.72413 0
M  V30 4246 N 390.218 -0.567019 1.47046 0
M  V30 4247 C 391.181 -1.65696 1.58359 0
M  V30 4248 C 392.181 -1.54097 0.459441 0
M  V30 4249 O 393.371 -1.58432 0.724225 0
M  V30 4250 C 390.503 -3.05197 1.51879 0
M  V30 4251 H 391.696 -1.57019 2.5551 0
M  V30 4252 H 389.249 -0.786148 1.3509 0
M  V30 4253 H 389.984 -3.19417 0.560673 0
M  V30 4254 H 389.769 -3.15025 2.33455 0
M  V30 4255 H 391.259 -3.84511 1.62913 0
M  V30 4256 N 391.696 -1.35014 -0.812953 0
M  V30 4257 C 392.629 -1.21761 -1.93001 0
M  V30 4258 C 393.607 -0.10694 -1.62248 0
M  V30 4259 O 394.791 -0.273891 -1.865 0
M  V30 4260 C 391.918 -0.873404 -3.27245 0
M  V30 4261 C 390.964 -1.99523 -3.76952 0
M  V30 4262 S 391.797 -3.61009 -3.95516 0
M  V30 4263 C 392.953 -3.28651 -5.32672 0
M  V30 4264 H 393.186 -2.16315 -2.03948 0
M  V30 4265 H 390.719 -1.20156 -0.969631 0
M  V30 4266 H 392.677 -0.68161 -4.04802 0
M  V30 4267 H 391.338 0.053971 -3.14054 0
M  V30 4268 H 390.531 -1.70838 -4.74163 0
M  V30 4269 H 390.133 -2.14503 -3.06373 0
M  V30 4270 H 392.425 -2.81085 -6.1644 0
M  V30 4271 H 393.368 -4.25039 -5.66346 0
M  V30 4272 H 393.776 -2.6458 -4.98656 0
M  V30 4273 N 393.175 1.03435 -1.18907 0
M  V30 4274 C 394.421 1.77005 -0.989798 0
M  V30 4275 C 394.754 1.88205 0.478816 0
M  V30 4276 O 394.029 1.39481 1.35556 0
M  V30 4277 C 394.312 3.19925 -1.65287 0
M  V30 4278 C 394.165 3.1663 -3.19477 0
M  V30 4279 C 395.484 4.18189 -1.37134 0
M  V30 4280 H 392.603 0.642538 -0.360991 0
M  V30 4281 H 395.245 1.20784 -1.46667 0
M  V30 4282 H 393.395 3.67929 -1.24741 0
M  V30 4283 H 395.067 2.76567 -3.692 0
M  V30 4284 H 393.31 2.54491 -3.51307 0
M  V30 4285 H 393.981 4.1758 -3.61013 0
M  V30 4286 H 396.457 3.78761 -1.72276 0
M  V30 4287 H 395.333 5.16394 -1.86087 0
M  V30 4288 H 395.594 4.41112 -0.295424 0
M  V30 4289 N 394.653 0.992116 1.22453 0
M  V30 4290 C 395.601 0.534644 2.26372 0
M  V30 4291 C 396.595 -0.414293 1.64256 0
M  V30 4292 O 397.801 -0.286899 1.77699 0
M  V30 4293 H 394.176 0.154502 0.735957 0
M  V30 4294 H 396.147 1.42256 2.62309 0
M  V30 4295 C 394.896 -0.135815 3.47435 0
M  V30 4296 H 394.219 0.585311 3.95492 0
M  V30 4297 H 395.659 -0.419374 4.21921 0
M  V30 4298 C 394.118 -1.37089 3.07747 0
M  V30 4299 O 394.648 -2.46629 3.17076 0
M  V30 4300 N 392.854 -1.24585 2.62539 0
M  V30 4301 H 392.401 -0.354542 2.55149 0
M  V30 4302 H 392.359 -2.07327 2.36353 0
M  V30 4303 N 396.131 -1.37776 0.765217 0
M  V30 4304 C 397.094 -2.28686 0.153416 0
M  V30 4305 C 398.094 -1.47727 -0.635081 0
M  V30 4306 O 399.284 -1.68027 -0.459632 0
M  V30 4307 C 396.416 -3.31608 -0.790495 0
M  V30 4308 H 397.609 -2.84297 0.954723 0
M  V30 4309 H 395.162 -1.46932 0.53299 0
M  V30 4310 H 395.897 -2.81109 -1.61705 0
M  V30 4311 H 395.682 -3.9144 -0.227348 0
M  V30 4312 H 397.172 -3.99559 -1.21419 0
M  V30 4313 N 397.609 -0.515225 -1.4894 0
M  V30 4314 C 398.556 0.255567 -2.29381 0
M  V30 4315 C 399.526 0.947387 -1.36432 0
M  V30 4316 O 400.711 0.951288 -1.65394 0
M  V30 4317 C 397.851 1.30551 -3.19453 0
M  V30 4318 C 396.964 0.624029 -4.27469 0
M  V30 4319 C 396.099 1.65563 -5.0474 0
M  V30 4320 C 395.138 0.956802 -6.04576 0
M  V30 4321 N 394.275 1.93326 -6.74959 0
M  V30 4322 H 399.115 -0.436607 -2.94784 0
M  V30 4323 H 396.652 -0.227154 -1.45336 0
M  V30 4324 H 398.61 1.92639 -3.70062 0
M  V30 4325 H 397.24 1.96626 -2.56004 0
M  V30 4326 H 396.292 -0.110459 -3.8024 0
M  V30 4327 H 397.604 0.0746092 -4.98744 0
M  V30 4328 H 396.758 2.35119 -5.59289 0
M  V30 4329 H 395.497 2.23893 -4.3327 0
M  V30 4330 H 394.502 0.247097 -5.49244 0
M  V30 4331 H 395.727 0.379814 -6.78037 0
M  V30 4332 H 393.673 2.50591 -6.06251 0
M  V30 4333 H 393.59 1.43489 -7.42258 0
M  V30 4334 H 394.858 2.62126 -7.34105 0
M  V30 4335 N 399.087 1.5561 -0.249682 0
M  V30 4336 C 400.364 1.90932 0.424761 0
M  V30 4337 C 400.744 1.17078 1.75658 0
M  V30 4338 O 400.092 0.289176 2.26663 0
M  V30 4339 C 400.302 3.43975 0.590109 0
M  V30 4340 C 401.65 4.15281 0.884714 0
M  V30 4341 O 402.674 3.49729 0.67587 0
M  V30 4342 O 401.533 5.31236 1.28259 0
M  V30 4343 H 398.627 0.794815 0.228468 0
M  V30 4344 H 401.173 1.67135 -0.293954 0
M  V30 4345 H 399.945 3.89748 -0.34818 0
M  V30 4346 H 399.568 3.73644 1.35926 0
M  V30 4347 N 400.565 -0.0233959 1.57583 0
M  V30 4348 C 401.842 -0.748794 1.807 0
M  V30 4349 C 402.222 -1.9327 0.849106 0
M  V30 4350 O 401.57 -2.28247 -0.107468 0
M  V30 4351 C 401.78 -1.17651 3.28571 0
M  V30 4352 C 403.128 -1.59008 3.93702 0
M  V30 4353 O 404.152 -1.27094 3.32755 0
M  V30 4354 O 403.011 -2.18264 5.01022 0
M  V30 4355 H 400.105 -0.362578 0.743281 0
M  V30 4356 H 402.651 0.000261958 1.697 0
M  V30 4357 H 401.423 -0.331603 3.89892 0
M  V30 4358 H 401.046 -1.98541 3.44481 0
M  V30 4359 N 402.043 -1.548 -0.295768 0
M  V30 4360 C 402.953 -1.89177 -1.38742 0
M  V30 4361 C 403.969 -0.786481 -1.55211 0
M  V30 4362 O 405.145 -1.08344 -1.69775 0
M  V30 4363 C 402.21 -2.13663 -2.73036 0
M  V30 4364 C 401.271 -3.37349 -2.65508 0
M  V30 4365 C 400.504 -3.60658 -3.93398 0
M  V30 4366 O 400.727 -2.86882 -4.93006 0
M  V30 4367 O 399.661 -4.54179 -3.94975 0
M  V30 4368 H 403.487 -2.82059 -1.12589 0
M  V30 4369 H 401.072 -1.41056 -0.492295 0
M  V30 4370 H 402.954 -2.3094 -3.52484 0
M  V30 4371 H 401.629 -1.23967 -2.99022 0
M  V30 4372 H 400.536 -3.25431 -1.84514 0
M  V30 4373 H 401.869 -4.27192 -2.44474 0
M  V30 4374 N 403.521 0.559213 -1.47345 0
M  V30 4375 C 404.769 1.31388 -1.53563 0
M  V30 4376 C 405.09 1.93985 -0.198678 0
M  V30 4377 O 404.36 1.79825 0.777167 0
M  V30 4378 H 402.94 0.487901 -0.565652 0
M  V30 4379 H 405.602 0.65315 -1.8363 0
M  V30 4380 H 404.698 2.10844 -2.30111 0
M  V30 4381 N 404.999 1.35443 0.805782 0
M  V30 4382 C 406.245 1.28952 1.56522 0
M  V30 4383 C 406.578 -0.135597 1.93726 0
M  V30 4384 O 405.853 -1.08516 1.61414 0
M  V30 4385 C 406.136 2.19678 2.85331 0
M  V30 4386 C 405.989 3.7081 2.54598 0
M  V30 4387 C 407.308 2.09495 3.8704 0
M  V30 4388 H 404.427 0.469764 0.567883 0
M  V30 4389 H 407.069 1.65851 0.927001 0
M  V30 4390 H 405.219 1.8834 3.39795 0
M  V30 4391 H 406.891 4.12593 2.06312 0
M  V30 4392 H 405.134 3.91051 1.8778 0
M  V30 4393 H 405.805 4.29679 3.46525 0
M  V30 4394 H 408.281 2.37045 3.41978 0
M  V30 4395 H 407.157 2.75173 4.74943 0
M  V30 4396 H 407.418 1.07714 4.28777 0
M  V30 4397 N 406.477 -1.02803 1.19454 0
M  V30 4398 C 407.407 -2.12999 0.956758 0
M  V30 4399 C 408.388 -1.69743 -0.110188 0
M  V30 4400 O 409.573 -1.94148 0.0450038 0
M  V30 4401 C 406.703 -3.43746 0.495553 0
M  V30 4402 C 405.657 -4.00688 1.50443 0
M  V30 4403 C 404.983 -5.27067 0.900275 0
M  V30 4404 C 406.283 -4.35397 2.8849 0
M  V30 4405 H 407.977 -2.33148 1.87836 0
M  V30 4406 H 405.523 -1.12045 0.904539 0
M  V30 4407 H 407.476 -4.2021 0.316493 0
M  V30 4408 H 406.2 -3.23321 -0.461646 0
M  V30 4409 H 404.859 -3.2632 1.67065 0
M  V30 4410 H 404.507 -5.02959 -0.064503 0
M  V30 4411 H 404.207 -5.66127 1.57397 0
M  V30 4412 H 405.731 -6.06196 0.73203 0
M  V30 4413 H 407.145 -5.02795 2.75446 0
M  V30 4414 H 405.542 -4.85541 3.52661 0
M  V30 4415 H 406.612 -3.44662 3.41081 0
M  V30 4416 N 407.956 -0.998596 -1.21925 0
M  V30 4417 C 409.202 -0.678667 -1.91107 0
M  V30 4418 C 409.535 0.78791 -1.77498 0
M  V30 4419 O 408.81 1.57043 -1.1475 0
M  V30 4420 C 409.093 -1.09245 -3.43129 0
M  V30 4421 C 408.946 -2.61801 -3.6576 0
M  V30 4422 C 410.265 -0.649984 -4.35274 0
M  V30 4423 H 407.384 -0.248025 -0.694012 0
M  V30 4424 H 410.026 -1.24314 -1.43688 0
M  V30 4425 H 408.176 -0.612171 -3.83647 0
M  V30 4426 H 409.848 -3.17543 -3.34611 0
M  V30 4427 H 408.091 -3.03609 -3.09845 0
M  V30 4428 H 408.762 -2.85804 -4.7225 0
M  V30 4429 H 411.238 -1.0626 -4.02303 0
M  V30 4430 H 410.114 -0.967743 -5.40302 0
M  V30 4431 H 410.375 0.449139 -4.39813 0
M  V30 4432 N 409.434 1.37368 -0.772513 0
M  V30 4433 C 410.682 1.99279 -0.336516 0
M  V30 4434 C 411.003 1.6163 1.09091 0
M  V30 4435 O 410.273 0.882109 1.74916 0
M  V30 4436 H 408.853 0.737063 -0.121435 0
M  V30 4437 H 411.515 1.67836 -0.990809 0
M  V30 4438 H 410.611 3.09332 -0.414763 0
M  V30 4439 N 410.912 0.523116 1.48665 0
M  V30 4440 C 412.137 -0.0117284 2.07397 0
M  V30 4441 C 412.562 -1.28031 1.37803 0
M  V30 4442 O 411.92 -1.75836 0.441762 0
M  V30 4443 C 411.968 -0.225786 3.59892 0
M  V30 4444 O 411.072 -1.29592 3.91509 0
M  V30 4445 H 410.413 0.0360673 0.66302 0
M  V30 4446 H 412.943 0.729066 1.9117 0
M  V30 4447 H 412.953 -0.450552 4.05505 0
M  V30 4448 H 411.628 0.700944 4.09951 0
M  V30 4449 H 410.205 -1.05436 3.57684 0
M  V30 4450 N 412.39 -1.55475 0.257931 0
M  V30 4451 C 413.636 -2.00237 -0.357338 0
M  V30 4452 C 413.991 -1.14313 -1.54759 0
M  V30 4453 O 413.284 -0.201187 -1.90541 0
M  V30 4454 C 413.478 -3.48183 -0.806433 0
M  V30 4455 C 413.307 -4.48422 0.338758 0
M  V30 4456 C 412.077 -4.98651 0.817011 0
M  V30 4457 C 414.275 -5.00827 1.16949 0
M  V30 4458 N 412.257 -5.82658 1.93346 0
M  V30 4459 C 413.628 -5.82113 2.13413 0
M  V30 4460 C 415.683 -4.83104 1.2048 0
M  V30 4461 C 414.386 -6.47566 3.13131 0
M  V30 4462 C 416.412 -5.49343 2.19034 0
M  V30 4463 C 415.774 -6.30427 3.14232 0
M  V30 4464 H 411.873 -0.776034 -0.0964083 0
M  V30 4465 H 414.457 -1.90995 0.37803 0
M  V30 4466 H 412.628 -3.57801 -1.51107 0
M  V30 4467 H 414.36 -3.79802 -1.39758 0
M  V30 4468 H 411.115 -4.71914 0.39925 0
M  V30 4469 H 411.539 -6.29356 2.49478 0
M  V30 4470 H 416.181 -4.20036 0.482634 0
M  V30 4471 H 413.899 -7.09793 3.8629 0
M  V30 4472 H 417.485 -5.37579 2.22485 0
M  V30 4473 H 416.365 -6.80777 3.89246 0
M  V30 4474 N 413.868 0.0150385 -1.57593 0
M  V30 4475 C 415.145 0.7392 -1.81094 0
M  V30 4476 C 415.525 1.92817 -0.859344 0
M  V30 4477 O 414.873 2.28301 0.095362 0
M  V30 4478 C 415.083 1.15907 -3.29191 0
M  V30 4479 C 416.431 1.56918 -3.9454 0
M  V30 4480 O 417.455 1.25328 -3.33424 0
M  V30 4481 O 416.314 2.15604 -5.02173 0
M  V30 4482 H 413.408 0.358631 -0.745193 0
M  V30 4483 H 415.954 -0.00926156 -1.69697 0
M  V30 4484 H 414.726 0.310921 -3.90063 0
M  V30 4485 H 414.349 1.96711 -3.45529 0
M  V30 4486 N 415.346 1.54954 0.287554 0
M  V30 4487 C 416.294 1.87606 1.37502 0
M  V30 4488 C 417.288 0.751001 1.51843 0
M  V30 4489 O 418.494 0.935169 1.53801 0
M  V30 4490 H 414.869 0.595231 0.459569 0
M  V30 4491 H 416.84 2.78477 1.07206 0
M  V30 4492 C 415.589 2.15183 2.73115 0
M  V30 4493 H 414.912 3.01234 2.62866 0
M  V30 4494 H 416.352 2.4196 3.48183 0
M  V30 4495 C 414.811 0.954686 3.2309 0
M  V30 4496 O 415.341 0.181949 4.01288 0
M  V30 4497 N 413.547 0.756368 2.80584 0
M  V30 4498 H 413.094 1.38643 2.17108 0
M  V30 4499 H 413.052 -0.0430391 3.14371 0
M  V30 4500 N 416.824 -0.551391 1.4764 0
M  V30 4501 C 418.073 -1.30467 1.53822 0
M  V30 4502 C 418.386 -1.94495 0.207661 0
M  V30 4503 O 419.592 -2.71099 0.147533 0
M  V30 4504 C 418.048 -2.36616 2.71184 0
M  V30 4505 C 417.656 -1.78754 4.10793 0
M  V30 4506 C 419.4 -3.13088 2.86663 0
M  V30 4507 C 417.307 -2.82717 5.19447 0
M  V30 4508 H 416.237 -0.490584 0.572576 0
M  V30 4509 H 418.888 -0.58494 1.73927 0
M  V30 4510 H 417.27 -3.11529 2.4447 0
M  V30 4511 H 418.444 -1.10173 4.47435 0
M  V30 4512 H 416.759 -1.14846 4.00249 0
M  V30 4513 H 419.356 -3.90736 3.65007 0
M  V30 4514 H 419.699 -3.67635 1.95321 0
M  V30 4515 H 420.232 -2.45288 3.13175 0
M  V30 4516 H 416.971 -2.33018 6.12685 0
M  V30 4517 H 416.491 -3.4969 4.87316 0
M  V30 4518 H 418.17 -3.46102 5.46646 0
M  V30 4519 N 418.302 -1.35869 -0.798587 0
M  V30 4520 C 419.532 -1.32529 -1.58491 0
M  V30 4521 C 419.94 0.0975405 -1.88948 0
M  V30 4522 O 419.283 1.06224 -1.49874 0
M  V30 4523 C 419.345 -2.07247 -2.9375 0
M  V30 4524 C 419.009 -3.56391 -2.86068 0
M  V30 4525 C 420.006 -4.50824 -2.58947 0
M  V30 4526 C 417.691 -3.9915 -3.04933 0
M  V30 4527 C 419.685 -5.85993 -2.5078 0
M  V30 4528 C 417.372 -5.34413 -2.96389 0
M  V30 4529 C 418.37 -6.27646 -2.69349 0
M  V30 4530 O 418.058 -7.60426 -2.60782 0
M  V30 4531 H 417.79 -0.456529 -0.498556 0
M  V30 4532 H 420.344 -1.79425 -0.999799 0
M  V30 4533 H 418.574 -1.55001 -3.54276 0
M  V30 4534 H 420.263 -1.96883 -3.54954 0
M  V30 4535 H 421.029 -4.19104 -2.44084 0
M  V30 4536 H 416.908 -3.26961 -3.24989 0
M  V30 4537 H 420.452 -6.58735 -2.29595 0
M  V30 4538 H 416.349 -5.65743 -3.10813 0
M  V30 4539 H 417.117 -7.70444 -2.76331 0
M  V30 4540 N 419.78 1.02168 -1.19998 0
M  V30 4541 C 420.743 2.08765 -0.94604 0
M  V30 4542 C 421.743 1.60618 0.0763846 0
M  V30 4543 O 422.933 1.73472 -0.159135 0
M  V30 4544 C 420.065 3.38262 -0.423255 0
M  V30 4545 H 421.258 2.32726 -1.89153 0
M  V30 4546 H 418.811 1.1889 -1.01464 0
M  V30 4547 H 419.546 3.19974 0.527938 0
M  V30 4548 H 419.331 3.74532 -1.16053 0
M  V30 4549 H 420.821 4.16759 -0.264911 0
M  V30 4550 N 421.258 1.00505 1.21394 0
M  V30 4551 C 422.488 0.705584 1.94178 0
M  V30 4552 C 422.896 -0.735846 1.74304 0
M  V30 4553 O 422.239 -1.50954 1.04683 0
M  V30 4554 C 422.301 0.94689 3.46806 0
M  V30 4555 C 421.965 2.37517 3.90429 0
M  V30 4556 C 422.962 3.35539 3.97127 0
M  V30 4557 C 420.647 2.71284 4.22742 0
M  V30 4558 C 422.641 4.65395 4.3553 0
M  V30 4559 C 420.328 4.01356 4.60822 0
M  V30 4560 C 421.326 4.98223 4.67186 0
M  V30 4561 O 421.014 6.25969 5.04399 0
M  V30 4562 H 420.746 0.259216 0.624326 0
M  V30 4563 H 423.3 1.34592 1.55159 0
M  V30 4564 H 421.53 0.249386 3.85895 0
M  V30 4565 H 423.219 0.640804 4.0081 0
M  V30 4566 H 423.985 3.10786 3.7234 0
M  V30 4567 H 419.864 1.96581 4.16985 0
M  V30 4568 H 423.408 5.41002 4.40412 0
M  V30 4569 H 419.305 4.25893 4.85063 0
M  V30 4570 H 420.073 6.30085 5.22431 0
M  V30 4571 N 422.737 -1.36956 0.779787 0
M  V30 4572 C 423.985 -1.99097 0.347079 0
M  V30 4573 C 424.306 -1.62206 -1.08232 0
M  V30 4574 O 423.576 -0.891373 -1.74446 0
M  V30 4575 H 422.156 -0.736409 0.125342 0
M  V30 4576 H 424.818 -1.67308 0.999696 0
M  V30 4577 H 423.914 -3.09107 0.431162 0
M  V30 4578 N 424.215 -0.530993 -1.48385 0
M  V30 4579 C 425.461 0.00274135 -2.028 0
M  V30 4580 C 425.794 1.33838 -1.40716 0
M  V30 4581 O 425.069 1.86465 -0.553277 0
M  V30 4582 C 425.352 0.123676 -3.59888 0
M  V30 4583 C 425.205 -1.2372 -4.3245 0
M  V30 4584 C 426.524 0.849967 -4.31814 0
M  V30 4585 H 423.643 -0.000477758 -0.737 0
M  V30 4586 H 426.285 -0.688217 -1.77098 0
M  V30 4587 H 424.435 0.712157 -3.81917 0
M  V30 4588 H 426.107 -1.86687 -4.21836 0
M  V30 4589 H 424.35 -1.81882 -3.93829 0
M  V30 4590 H 425.021 -1.10557 -5.40815 0
M  V30 4591 H 427.497 0.350572 -4.14621 0
M  V30 4592 H 426.373 0.903486 -5.41413 0
M  V30 4593 H 426.634 1.90047 -3.99167 0
M  V30 4594 N 425.693 1.55336 -0.266172 0
M  V30 4595 C 427.104 1.85236 0.233315 0
M  V30 4596 C 427.455 1.18816 1.56132 0
M  V30 4597 O 426.58 0.473307 2.11161 0
M  V30 4598 C 427.175 3.36059 0.430113 0
M  V30 4599 C 425.734 3.66116 0.873842 0
M  V30 4600 C 424.881 2.77274 -0.0380016 0
M  V30 4601 H 427.832 1.51004 -0.488214 0
M  V30 4602 H 427.853 3.58681 1.26998 0
M  V30 4603 H 427.365 3.84373 -0.536588 0
M  V30 4604 H 425.466 3.23295 1.85233 0
M  V30 4605 H 425.579 4.73699 0.717358 0
M  V30 4606 H 423.943 2.50198 0.476759 0
M  V30 4607 H 424.726 3.284 -1.00042 0
M  V30 4608 N 427.171 -0.0066808 1.57599 0
M  V30 4609 C 428.582 -0.550379 1.78403 0
M  V30 4610 C 428.933 -1.74339 0.900014 0
M  V30 4611 O 428.058 -2.16166 0.100713 0
M  V30 4612 C 428.653 -1.00523 3.23544 0
M  V30 4613 C 427.212 -1.49428 3.45468 0
M  V30 4614 C 426.359 -0.442444 2.73748 0
M  V30 4615 H 429.31 0.219508 1.57175 0
M  V30 4616 H 429.331 -1.87157 3.31289 0
M  V30 4617 H 428.843 -0.136735 3.87859 0
M  V30 4618 H 426.944 -2.3839 2.86358 0
M  V30 4619 H 427.057 -1.52635 4.54136 0
M  V30 4620 H 425.421 -0.902578 2.38171 0
M  V30 4621 H 426.204 0.416973 3.40758 0
M  V30 4622 N 428.649 -1.55105 -0.279332 0
M  V30 4623 C 429.874 -1.7976 -1.03446 0
M  V30 4624 C 430.299 -0.565952 -1.79384 0
M  V30 4625 O 429.657 0.484259 -1.74713 0
M  V30 4626 C 429.705 -3.0179 -1.97371 0
M  V30 4627 O 428.809 -2.76432 -3.06038 0
M  V30 4628 H 428.15 -0.594334 -0.29608 0
M  V30 4629 H 430.68 -2.02235 -0.310165 0
M  V30 4630 H 430.69 -3.30351 -2.39441 0
M  V30 4631 H 429.365 -3.91085 -1.4151 0
M  V30 4632 H 427.942 -2.58949 -2.68328 0
M  V30 4633 N 430.127 0.543554 -1.4793 0
M  V30 4634 C 431.09 1.63156 -1.60975 0
M  V30 4635 C 432.09 1.53346 -0.483899 0
M  V30 4636 O 433.28 1.5726 -0.749339 0
M  V30 4637 C 430.412 3.02743 -1.56716 0
M  V30 4638 H 431.605 1.52934 -2.57975 0
M  V30 4639 H 429.158 0.764557 -1.36324 0
M  V30 4640 H 429.893 3.18484 -0.611418 0
M  V30 4641 H 429.678 3.11272 -2.38438 0
M  V30 4642 H 431.168 3.81871 -1.6901 0
M  V30 4643 N 431.605 1.3629 0.791371 0
M  V30 4644 C 432.851 1.31613 1.5508 0
M  V30 4645 C 433.206 -0.104372 1.92117 0
M  V30 4646 O 432.499 -1.05845 1.5971 0
M  V30 4647 C 432.693 2.17068 2.8393 0
M  V30 4648 C 432.522 3.67285 2.59484 0
M  V30 4649 C 431.292 4.36469 2.54604 0
M  V30 4650 C 433.49 4.60595 2.28816 0
M  V30 4651 N 431.472 5.7234 2.22036 0
M  V30 4652 C 432.843 5.847 2.06218 0
M  V30 4653 C 434.898 4.4918 2.14806 0
M  V30 4654 C 433.601 6.98671 1.71028 0
M  V30 4655 C 435.627 5.63017 1.81014 0
M  V30 4656 C 434.989 6.86159 1.59263 0
M  V30 4657 H 431.088 0.536878 0.568582 0
M  V30 4658 H 433.672 1.71323 0.925007 0
M  V30 4659 H 431.843 1.79605 3.44378 0
M  V30 4660 H 433.575 2.03795 3.49642 0
M  V30 4661 H 430.33 3.89249 2.69782 0
M  V30 4662 H 430.754 6.44093 2.08503 0
M  V30 4663 H 435.396 3.54564 2.30313 0
M  V30 4664 H 433.114 7.9324 1.54259 0
M  V30 4665 H 436.7 5.56146 1.70861 0
M  V30 4666 H 435.58 7.72753 1.335 0
M  V30 4667 N 433.083 -1.0153 1.20538 0
M  V30 4668 C 434.311 -1.78746 1.04199 0
M  V30 4669 C 434.726 -1.84323 -0.408733 0
M  V30 4670 O 434.083 -1.29714 -1.28377 0
M  V30 4671 C 434.134 -3.23152 1.62035 0
M  V30 4672 O 433.855 -3.17918 3.0143 0
M  V30 4673 C 435.356 -4.16911 1.50666 0
M  V30 4674 H 432.576 -0.56208 0.366479 0
M  V30 4675 H 435.12 -1.27794 1.59653 0
M  V30 4676 H 433.275 -3.71248 1.10697 0
M  V30 4677 H 433.689 -4.08567 3.28897 0
M  V30 4678 H 435.163 -5.16072 1.95892 0
M  V30 4679 H 435.64 -4.36791 0.459363 0
M  V30 4680 H 436.246 -3.74698 2.01201 0
M  V30 4681 N 434.561 -1.01147 -1.20859 0
M  V30 4682 C 435.809 -0.696486 -1.89719 0
M  V30 4683 C 436.13 0.775788 -1.78904 0
M  V30 4684 O 435.4 1.55759 -1.18811 0
M  V30 4685 H 433.98 -0.254628 -0.702263 0
M  V30 4686 H 436.642 -1.28197 -1.46804 0
M  V30 4687 H 435.738 -0.975357 -2.96468 0
M  V30 4688 N 436.039 1.36541 -0.78704 0
M  V30 4689 C 437.264 2.0409 -0.369053 0
M  V30 4690 C 437.689 1.58957 1.00569 0
M  V30 4691 O 437.047 0.756926 1.64743 0
M  V30 4692 C 437.095 3.57924 -0.438466 0
M  V30 4693 O 436.199 4.08642 0.555479 0
M  V30 4694 H 435.54 0.645142 -0.157122 0
M  V30 4695 H 438.07 1.74545 -1.06749 0
M  V30 4696 H 438.08 4.06887 -0.301218 0
M  V30 4697 H 436.755 3.90127 -1.44132 0
M  V30 4698 H 435.332 3.70958 0.380088 0
M  V30 4699 N 437.518 0.538854 1.48102 0
M  V30 4700 C 438.764 0.00801365 2.02798 0
M  V30 4701 C 439.097 -1.3309 1.41424 0
M  V30 4702 O 438.372 -1.86169 0.563158 0
M  V30 4703 C 438.655 -0.104589 3.59948 0
M  V30 4704 C 438.508 1.26012 4.31788 0
M  V30 4705 C 439.827 -0.827055 4.32259 0
M  V30 4706 H 436.946 0.00438624 0.736987 0
M  V30 4707 H 439.588 0.6976 1.7673 0
M  V30 4708 H 437.738 -0.691893 3.82289 0
M  V30 4709 H 439.41 1.88922 4.2084 0
M  V30 4710 H 437.653 1.83968 3.92859 0
M  V30 4711 H 438.324 1.13424 5.40221 0
M  V30 4712 H 440.8 -0.328578 4.14801 0
M  V30 4713 H 439.676 -0.87476 5.41885 0
M  V30 4714 H 439.937 -1.87927 4.0017 0
M  V30 4715 N 438.996 -1.55193 0.274407 0
M  V30 4716 C 440.273 -1.91584 -0.394331 0
M  V30 4717 C 440.653 -1.19858 -1.73774 0
M  V30 4718 O 440.001 -0.3252 -2.26174 0
M  V30 4719 C 440.211 -3.4487 -0.535311 0
M  V30 4720 C 441.559 -4.16636 -0.818534 0
M  V30 4721 O 442.583 -3.5076 -0.620146 0
M  V30 4722 O 441.442 -5.33209 -1.19792 0
M  V30 4723 H 438.536 -0.798349 -0.215794 0
M  V30 4724 H 441.082 -1.66646 0.320507 0
M  V30 4725 H 439.854 -3.89145 0.410141 0
M  V30 4726 H 439.477 -3.75759 -1.29964 0
M  V30 4727 N 440.474 -0.00167713 -1.576 0
M  V30 4728 C 441.723 0.682021 -1.89819 0
M  V30 4729 C 442.036 1.74844 -0.876871 0
M  V30 4730 O 443.242 2.48688 -1.08934 0
M  V30 4731 C 441.698 1.26425 -3.36964 0
M  V30 4732 C 441.306 0.232568 -4.47396 0
M  V30 4733 C 443.05 1.92604 -3.78291 0
M  V30 4734 C 440.957 0.824882 -5.85619 0
M  V30 4735 H 439.887 0.258499 -0.708304 0
M  V30 4736 H 442.538 -0.0624957 -1.83394 0
M  V30 4737 H 440.92 2.05949 -3.38232 0
M  V30 4738 H 442.094 -0.5382 -4.57646 0
M  V30 4739 H 440.409 -0.32888 -4.15099 0
M  V30 4740 H 443.006 2.37827 -4.78897 0
M  V30 4741 H 443.349 2.75732 -3.11894 0
M  V30 4742 H 443.882 1.19812 -3.79328 0
M  V30 4743 H 440.621 0.0323542 -6.55492 0
M  V30 4744 H 440.141 1.56477 -5.79029 0
M  V30 4745 H 441.82 1.32301 -6.33329 0
M  V30 4746 N 441.952 1.55251 0.271103 0
M  V30 4747 C 442.882 1.9127 1.33933 0
M  V30 4748 C 443.863 0.77478 1.5143 0
M  V30 4749 O 445.048 1.03307 1.64442 0
M  V30 4750 C 442.178 2.18627 2.69851 0
M  V30 4751 C 441.132 3.34442 2.67081 0
M  V30 4752 C 440.458 3.47284 4.06569 0
M  V30 4753 C 441.758 4.70784 2.26185 0
M  V30 4754 H 443.452 2.80744 1.04035 0
M  V30 4755 H 440.998 1.35077 0.499017 0
M  V30 4756 H 442.951 2.42413 3.44694 0
M  V30 4757 H 441.675 1.25955 3.01335 0
M  V30 4758 H 440.334 3.10627 1.94695 0
M  V30 4759 H 439.982 2.52074 4.35279 0
M  V30 4760 H 439.682 4.25152 4.0561 0
M  V30 4761 H 441.206 3.73363 4.83148 0
M  V30 4762 H 442.62 4.94102 2.90751 0
M  V30 4763 H 441.017 5.51582 2.36384 0
M  V30 4764 H 442.087 4.69478 1.21319 0
M  V30 4765 N 443.43 -0.535701 1.48216 0
M  V30 4766 C 444.36 -1.65014 1.65204 0
M  V30 4767 C 445.341 -1.62554 0.501011 0
M  V30 4768 O 446.526 -1.7984 0.732886 0
M  V30 4769 C 443.656 -3.03616 1.68626 0
M  V30 4770 C 442.61 -3.20932 2.83172 0
M  V30 4771 C 441.936 -4.60537 2.71679 0
M  V30 4772 C 443.236 -3.04249 4.24535 0
M  V30 4773 H 444.93 -1.51053 2.58502 0
M  V30 4774 H 442.476 -0.725262 1.24402 0
M  V30 4775 H 444.429 -3.81446 1.79099 0
M  V30 4776 H 443.153 -3.18587 0.719026 0
M  V30 4777 H 441.812 -2.45517 2.72244 0
M  V30 4778 H 441.46 -4.72336 1.72937 0
M  V30 4779 H 441.16 -4.73069 3.48538 0
M  V30 4780 H 442.684 -5.40475 2.84112 0
M  V30 4781 H 444.098 -3.71877 4.36326 0
M  V30 4782 H 442.495 -3.28278 5.02348 0
M  V30 4783 H 443.565 -2.00739 4.41397 0
M  V30 4784 N 444.908 -1.36708 -0.784132 0
M  V30 4785 C 445.818 -1.3363 -1.92822 0
M  V30 4786 C 446.834 -0.237686 -1.72369 0
M  V30 4787 O 448.01 -0.470962 -1.95816 0
M  V30 4788 C 445.075 -1.13011 -3.27764 0
M  V30 4789 C 444.136 -2.32397 -3.60957 0
M  V30 4790 C 443.369 -2.12752 -4.89461 0
M  V30 4791 O 443.592 -1.10541 -5.59586 0
M  V30 4792 O 442.526 -3.00653 -5.21432 0
M  V30 4793 H 446.352 -2.29964 -1.98369 0
M  V30 4794 H 443.937 -1.1731 -0.925136 0
M  V30 4795 H 445.819 -1.03451 -4.08504 0
M  V30 4796 H 444.494 -0.19743 -3.23097 0
M  V30 4797 H 443.401 -2.47527 -2.80502 0
M  V30 4798 H 444.734 -3.2419 -3.70354 0
M  V30 4799 N 446.386 1.0089 -1.21074 0
M  V30 4800 C 447.616 1.77933 -1.04993 0
M  V30 4801 C 448.024 1.84847 0.403495 0
M  V30 4802 O 447.367 1.30606 1.29181 0
M  V30 4803 C 447.429 3.23541 -1.56722 0
M  V30 4804 C 447.093 3.40214 -3.05129 0
M  V30 4805 C 448.09 3.2881 -4.02716 0
M  V30 4806 C 445.775 3.65781 -3.44252 0
M  V30 4807 C 447.769 3.42732 -5.37414 0
M  V30 4808 C 445.456 3.79346 -4.79103 0
M  V30 4809 C 446.454 3.67827 -5.75493 0
M  V30 4810 O 446.142 3.80965 -7.07899 0
M  V30 4811 H 445.874 0.566157 -0.369381 0
M  V30 4812 H 448.428 1.27826 -1.60779 0
M  V30 4813 H 446.658 3.74766 -0.953285 0
M  V30 4814 H 448.347 3.82245 -1.36543 0
M  V30 4815 H 449.113 3.08986 -3.73835 0
M  V30 4816 H 444.992 3.73831 -2.69762 0
M  V30 4817 H 448.536 3.33658 -6.12632 0
M  V30 4818 H 444.433 3.98672 -5.07672 0
M  V30 4819 H 445.201 3.97937 -7.15254 0
M  V30 4820 N 447.864 1.01787 1.20321 0
M  V30 4821 C 449.28 0.732951 1.41774 0
M  V30 4822 C 449.48 -0.686883 1.89431 0
M  V30 4823 O 448.536 -1.45446 2.06402 0
M  V30 4824 C 449.849 1.75973 2.43832 0
M  V30 4825 C 451.397 1.77802 2.57596 0
M  V30 4826 C 451.872 2.7941 3.62897 0
M  V30 4827 N 453.363 2.78157 3.70382 0
M  V30 4828 C 454.098 3.53434 4.51521 0
M  V30 4829 N 453.594 4.38392 5.36455 0
M  V30 4830 N 455.387 3.42026 4.46066 0
M  V30 4831 H 447.538 1.93447 0.877035 0
M  V30 4832 H 449.801 0.835712 0.447536 0
M  V30 4833 H 449.507 2.77699 2.15815 0
M  V30 4834 H 449.381 1.57292 3.4284 0
M  V30 4835 H 451.768 0.767602 2.84942 0
M  V30 4836 H 451.849 2.00557 1.58779 0
M  V30 4837 H 451.493 3.80616 3.36295 0
M  V30 4838 H 451.423 2.53916 4.61339 0
M  V30 4839 H 453.914 2.16531 3.09714 0
M  V30 4840 H 454.227 4.92596 5.95457 0
M  V30 4841 H 452.572 4.4247 5.35953 0
M  V30 4842 H 455.763 2.75075 3.78749 0
M  V30 4843 H 455.936 4.00946 5.09064 0
M  V30 4844 N 449.342 -1.36122 0.79427 0
M  V30 4845 C 450.567 -2.03891 0.379871 0
M  V30 4846 C 450.992 -1.59488 -0.997251 0
M  V30 4847 O 450.35 -0.765652 -1.64339 0
M  V30 4848 C 450.398 -3.57687 0.457442 0
M  V30 4849 O 449.502 -4.08931 -0.5338 0
M  V30 4850 H 448.843 -0.6443 0.160541 0
M  V30 4851 H 451.373 -1.73976 1.07673 0
M  V30 4852 H 451.383 -4.06721 0.322792 0
M  V30 4853 H 450.058 -3.89357 1.46199 0
M  V30 4854 H 448.635 -3.71154 -0.360409 0
M  V30 4855 N 450.82 -0.546701 -1.47814 0
M  V30 4856 C 452.045 -0.021268 -2.07389 0
M  V30 4857 C 452.47 1.25822 -1.39822 0
M  V30 4858 O 451.828 1.75111 -0.46968 0
M  V30 4859 C 451.876 0.168502 -3.60206 0
M  V30 4860 O 450.98 1.23347 -3.93522 0
M  V30 4861 H 450.321 -0.0466108 -0.662362 0
M  V30 4862 H 452.851 -0.759387 -1.89985 0
M  V30 4863 H 452.861 0.385982 -4.0617 0
M  V30 4864 H 451.536 -0.766075 -4.08784 0
M  V30 4865 H 450.113 0.997319 -3.59316 0
M  V30 4866 N 452.299 1.55045 -0.282633 0
M  V30 4867 C 453.209 2.26491 0.61147 0
M  V30 4868 C 454.225 1.29348 1.16384 0
M  V30 4869 O 455.401 1.62298 1.19253 0
M  V30 4870 C 452.466 2.97779 1.77563 0
M  V30 4871 C 451.527 4.10418 1.25919 0
M  V30 4872 C 450.76 4.78297 2.36786 0
M  V30 4873 O 450.983 4.45426 3.56303 0
M  V30 4874 O 449.917 5.66089 2.04517 0
M  V30 4875 H 453.743 3.03683 0.0324615 0
M  V30 4876 H 451.328 1.49317 -0.0497576 0
M  V30 4877 H 453.21 3.42554 2.45427 0
M  V30 4878 H 451.885 2.23498 2.34159 0
M  V30 4879 H 450.792 3.70082 0.546797 0
M  V30 4880 H 452.125 4.86622 0.738887 0
M  V30 4881 N 453.777 0.010035 1.57597 0
M  V30 4882 C 454.725 -0.996272 2.10184 0
M  V30 4883 C 455.719 -1.34942 1.02406 0
M  V30 4884 O 456.925 -1.33389 1.20861 0
M  V30 4885 H 453.3 -0.338982 0.671264 0
M  V30 4886 H 455.271 -0.527272 2.93705 0
M  V30 4887 C 454.02 -2.27599 2.62857 0
M  V30 4888 H 453.343 -2.01295 3.45428 0
M  V30 4889 H 454.783 -2.96265 3.0332 0
M  V30 4890 C 453.242 -2.99269 1.54725 0
M  V30 4891 O 453.772 -3.90644 0.93597 0
M  V30 4892 N 451.978 -2.61269 1.27228 0
M  V30 4893 H 451.525 -1.87043 1.77123 0
M  V30 4894 H 451.483 -3.09534 0.550999 0
M  V30 4895 N 455.255 -1.55392 -0.262866 0
M  V30 4896 C 456.666 -1.67079 -0.833158 0
M  V30 4897 C 457.017 -0.604539 -1.86654 0
M  V30 4898 O 456.142 0.252138 -2.14926 0
M  V30 4899 C 456.737 -3.02891 -1.51797 0
M  V30 4900 C 455.296 -3.16571 -2.03617 0
M  V30 4901 C 454.443 -2.62909 -0.881701 0
M  V30 4902 H 457.394 -1.58652 -0.0389986 0
M  V30 4903 H 457.415 -2.96445 -2.38538 0
M  V30 4904 H 456.927 -3.80473 -0.765619 0
M  V30 4905 H 455.028 -2.43782 -2.81782 0
M  V30 4906 H 455.141 -4.23271 -2.24452 0
M  V30 4907 H 453.505 -2.20324 -1.27786 0
M  V30 4908 H 454.288 -3.43003 -0.14269 0
M  V30 4909 N 456.733 0.527833 -1.48498 0
M  V30 4910 C 457.979 1.28545 -1.56857 0
M  V30 4911 C 458.312 1.92678 -0.242651 0
M  V30 4912 O 457.587 1.79394 0.751545 0
M  V30 4913 C 457.87 2.37314 -2.70839 0
M  V30 4914 C 457.723 1.77858 -4.13142 0
M  V30 4915 C 459.042 3.39068 -2.80573 0
M  V30 4916 H 456.161 0.466006 -0.570971 0
M  V30 4917 H 458.803 0.587784 -1.8068 0
M  V30 4918 H 456.953 2.96821 -2.50658 0
M  V30 4919 H 458.625 1.22385 -4.44769 0
M  V30 4920 H 456.868 1.08383 -4.20042 0
M  V30 4921 H 457.539 2.56624 -4.88721 0
M  V30 4922 H 460.015 2.89518 -2.98862 0
M  V30 4923 H 458.891 4.12566 -3.6205 0
M  V30 4924 H 459.152 3.9975 -1.88818 0
M  V30 4925 N 458.211 1.37122 0.776871 0
M  V30 4926 C 459.627 1.1781 1.07671 0
M  V30 4927 C 459.827 0.0107454 2.01497 0
M  V30 4928 O 458.883 -0.650756 2.4397 0
M  V30 4929 C 460.196 2.49451 1.67913 0
M  V30 4930 C 461.744 2.55927 1.80195 0
M  V30 4931 C 462.219 3.87686 2.43851 0
M  V30 4932 N 463.71 3.891 2.51307 0
M  V30 4933 C 464.445 4.87797 3.014 0
M  V30 4934 N 463.941 5.96888 3.51705 0
M  V30 4935 N 465.734 4.75205 3.00227 0
M  V30 4936 H 457.885 2.11843 0.153778 0
M  V30 4937 H 460.148 0.938927 0.130844 0
M  V30 4938 H 459.854 3.35207 1.06439 0
M  V30 4939 H 459.728 2.66169 2.67271 0
M  V30 4940 H 462.115 1.70582 2.40803 0
M  V30 4941 H 462.196 2.43097 0.796069 0
M  V30 4942 H 461.84 4.73444 1.83884 0
M  V30 4943 H 461.77 3.97817 3.45035 0
M  V30 4944 H 464.261 3.10293 2.157 0
M  V30 4945 H 464.574 6.68155 3.88316 0
M  V30 4946 H 462.919 6.0054 3.49824 0
M  V30 4947 H 466.11 3.89103 2.60224 0
M  V30 4948 H 466.283 5.52279 3.38957 0
M  V30 4949 N 459.689 -1.00246 1.21608 0
M  V30 4950 C 460.919 -1.77373 1.05935 0
M  V30 4951 C 461.327 -1.85059 -0.393686 0
M  V30 4952 O 460.67 -1.31289 -1.28487 0
M  V30 4953 C 460.732 -3.22705 1.58435 0
M  V30 4954 C 460.396 -3.38591 3.06929 0
M  V30 4955 C 461.393 -3.2667 4.04454 0
M  V30 4956 C 459.078 -3.6395 3.46187 0
M  V30 4957 C 461.072 -3.39877 5.39224 0
M  V30 4958 C 458.759 -3.768 4.81108 0
M  V30 4959 C 459.757 -3.6477 5.77436 0
M  V30 4960 O 459.445 -3.77206 7.09909 0
M  V30 4961 H 459.177 -0.56419 0.372378 0
M  V30 4962 H 461.731 -1.26971 1.61454 0
M  V30 4963 H 459.961 -3.74255 0.973147 0
M  V30 4964 H 461.65 -3.81515 1.38568 0
M  V30 4965 H 462.416 -3.06999 3.75468 0
M  V30 4966 H 458.295 -3.72395 2.71741 0
M  V30 4967 H 461.839 -3.30404 6.14393 0
M  V30 4968 H 457.736 -3.95975 5.09779 0
M  V30 4969 H 458.504 -3.94138 7.17355 0
M  V30 4970 N 461.167 -1.02423 -1.1978 0
M  V30 4971 C 462.415 -0.716569 -1.8897 0
M  V30 4972 C 462.736 0.756769 -1.79716 0
M  V30 4973 O 462.006 1.5449 -1.20456 0
M  V30 4974 H 460.586 -0.262062 -0.699523 0
M  V30 4975 H 463.248 -1.29747 -1.45436 0
M  V30 4976 H 462.344 -1.00675 -2.95417 0
M  V30 4977 N 462.645 1.35699 -0.801477 0
M  V30 4978 C 463.577 2.28598 -0.166028 0
M  V30 4979 C 464.59 1.50044 0.631721 0
M  V30 4980 O 465.779 1.72339 0.464921 0
M  V30 4981 C 462.879 3.29625 0.787451 0
M  V30 4982 C 462.052 4.37384 0.037171 0
M  V30 4983 C 461.111 5.183 0.908375 0
M  V30 4984 O 460.137 5.68053 0.361189 0
M  V30 4985 N 461.339 5.35912 2.23112 0
M  V30 4986 H 464.104 2.83771 -0.964071 0
M  V30 4987 H 461.665 1.47994 -0.656469 0
M  V30 4988 H 463.657 3.80648 1.37439 0
M  V30 4989 H 462.227 2.75004 1.48632 0
M  V30 4990 H 461.447 3.87364 -0.730935 0
M  V30 4991 H 462.735 5.0653 -0.480109 0
M  V30 4992 H 462.133 4.97125 2.69968 0
M  V30 4993 H 460.69 5.90133 2.76741 0
M  V30 4994 N 464.123 0.554532 1.47522 0
M  V30 4995 C 465.363 0.0317994 2.04375 0
M  V30 4996 C 465.727 -1.29242 1.41988 0
M  V30 4997 O 466.928 -1.90269 1.89872 0
M  V30 4998 C 465.199 -0.0623344 3.57346 0
M  V30 4999 S 466.758 -0.531578 4.35568 0
M  V30 5000 H 463.576 0.0238553 0.7106 0
M  V30 5001 H 466.178 0.74066 1.80927 0
M  V30 5002 H 464.882 0.905857 4.00278 0
M  V30 5003 H 464.413 -0.794831 3.85287 0
M  V30 5004 H 466.428 -1.79175 4.62721 0
M  V30 5005 N 465.601 -1.54893 0.290851 0
M  V30 5006 C 466.847 -2.00949 -0.314784 0
M  V30 5007 C 467.202 -1.1757 -1.52299 0
M  V30 5008 O 466.495 -0.241558 -1.90071 0
M  V30 5009 C 466.689 -3.49815 -0.732397 0
M  V30 5010 C 466.518 -4.47603 0.433799 0
M  V30 5011 C 465.288 -4.96806 0.922599 0
M  V30 5012 C 467.486 -4.98233 1.27546 0
M  V30 5013 N 465.468 -5.78426 2.05662 0
M  V30 5014 C 466.839 -5.77455 2.25712 0
M  V30 5015 C 468.894 -4.80439 1.307 0
M  V30 5016 C 467.597 -6.40778 3.26796 0
M  V30 5017 C 469.623 -5.44574 2.30637 0
M  V30 5018 C 468.985 -6.23619 3.27533 0
M  V30 5019 H 465.084 -0.777905 -0.0799257 0
M  V30 5020 H 467.668 -1.9015 0.418458 0
M  V30 5021 H 465.839 -3.60925 -1.43483 0
M  V30 5022 H 467.571 -3.82681 -1.31671 0
M  V30 5023 H 464.326 -4.70961 0.49926 0
M  V30 5024 H 464.75 -6.23923 2.62772 0
M  V30 5025 H 469.392 -4.18918 0.571622 0
M  V30 5026 H 467.11 -7.01439 4.01258 0
M  V30 5027 H 470.696 -5.32739 2.33838 0
M  V30 5028 H 469.576 -6.72367 4.03599 0
M  V30 5029 N 467.08 -0.0183926 -1.57589 0
M  V30 5030 C 468.326 0.663543 -1.91638 0
M  V30 5031 C 468.659 1.72392 -0.894134 0
M  V30 5032 O 467.934 1.94316 0.0846449 0
M  V30 5033 C 468.217 1.28984 -3.36207 0
M  V30 5034 C 468.07 0.239761 -4.49161 0
M  V30 5035 C 469.389 2.2109 -3.80536 0
M  V30 5036 H 466.508 0.239746 -0.696915 0
M  V30 5037 H 469.15 -0.073456 -1.89858 0
M  V30 5038 H 467.3 1.91799 -3.37854 0
M  V30 5039 H 468.972 -0.390119 -4.59647 0
M  V30 5040 H 467.215 -0.435972 -4.31604 0
M  V30 5041 H 467.886 0.717383 -5.47319 0
M  V30 5042 H 470.362 1.68273 -3.80557 0
M  V30 5043 H 469.238 2.61869 -4.82406 0
M  V30 5044 H 469.499 3.09764 -3.15434 0
M  V30 5045 N 468.558 1.5553 0.254621 0
M  V30 5046 C 469.805 1.77 0.983736 0
M  V30 5047 C 470.133 0.58133 1.85609 0
M  V30 5048 O 469.388 -0.435621 1.9079 0
M  V30 5049 C 469.687 3.03891 1.88109 0
M  V30 5050 C 469.353 4.35597 1.16472 0
M  V30 5051 C 468.015 4.7139 0.966714 0
M  V30 5052 C 470.367 5.1705 0.656387 0
M  V30 5053 C 467.695 5.86176 0.247942 0
M  V30 5054 C 470.047 6.32581 -0.0488807 0
M  V30 5055 C 468.711 6.67 -0.258438 0
M  V30 5056 H 467.981 0.647688 0.359974 0
M  V30 5057 H 470.628 1.89802 0.254463 0
M  V30 5058 H 468.933 2.86068 2.67717 0
M  V30 5059 H 470.63 3.17701 2.44677 0
M  V30 5060 H 467.22 4.07475 1.32899 0
M  V30 5061 H 471.404 4.8986 0.796933 0
M  V30 5062 H 466.66 6.11354 0.075035 0
M  V30 5063 H 470.834 6.94942 -0.450444 0
M  V30 5064 H 468.461 7.55793 -0.817358 0
M  V30 5065 N 470.036 -0.519951 1.48776 0
M  V30 5066 C 470.999 -1.60574 1.6355 0
M  V30 5067 C 471.999 -1.52557 0.508234 0
M  V30 5068 O 473.189 -1.56047 0.774262 0
M  V30 5069 C 470.321 -3.00211 1.61512 0
M  V30 5070 H 471.514 -1.4881 2.60376 0
M  V30 5071 H 469.067 -0.742772 1.37523 0
M  V30 5072 H 469.802 -3.17471 0.662009 0
M  V30 5073 H 469.587 -3.07439 2.43359 0
M  V30 5074 H 471.077 -3.79134 1.75064 0
M  V30 5075 N 471.514 -1.37532 -0.769588 0
M  V30 5076 C 472.762 -1.32597 -1.5252 0
M  V30 5077 C 473.083 0.0884294 -1.94799 0
M  V30 5078 O 472.353 1.03289 -1.66458 0
M  V30 5079 H 470.933 -0.487846 -0.565699 0
M  V30 5080 H 473.595 -1.72044 -0.915806 0
M  V30 5081 H 472.691 -1.96643 -2.42359 0
M  V30 5082 N 472.992 0.995999 -1.22138 0
M  V30 5083 C 474.238 1.73767 -1.04561 0
M  V30 5084 C 474.571 1.89633 0.418698 0
M  V30 5085 O 473.846 1.43723 1.3105 0
M  V30 5086 C 474.129 3.14505 -1.75382 0
M  V30 5087 C 473.982 3.06306 -3.29388 0
M  V30 5088 C 475.301 4.13615 -1.50369 0
M  V30 5089 H 472.42 0.630728 -0.38125 0
M  V30 5090 H 475.062 1.16057 -1.50435 0
M  V30 5091 H 473.212 3.63775 -1.36383 0
M  V30 5092 H 474.884 2.64681 -3.77812 0
M  V30 5093 H 473.127 2.43186 -3.59226 0
M  V30 5094 H 473.798 4.05884 -3.74116 0
M  V30 5095 H 476.274 3.73089 -1.84239 0
M  V30 5096 H 475.15 5.10212 -2.02421 0
M  V30 5097 H 475.411 4.39949 -0.435611 0
M  V30 5098 N 474.47 1.03057 1.19235 0
M  V30 5099 C 475.717 0.728019 1.88961 0
M  V30 5100 C 476.045 -0.743515 1.79728 0
M  V30 5101 O 475.3 -1.55729 1.1852 0
M  V30 5102 C 475.599 1.1268 3.39172 0
M  V30 5103 C 475.265 2.5969 3.68608 0
M  V30 5104 C 473.927 2.99854 3.76352 0
M  V30 5105 C 476.279 3.54793 3.81801 0
M  V30 5106 C 473.607 4.34031 3.94758 0
M  V30 5107 C 475.959 4.88675 4.0172 0
M  V30 5108 C 474.623 5.28526 4.07697 0
M  V30 5109 H 473.893 0.266401 0.691456 0
M  V30 5110 H 476.54 1.29373 1.41191 0
M  V30 5111 H 474.845 0.479722 3.88852 0
M  V30 5112 H 476.542 0.870203 3.91444 0
M  V30 5113 H 473.132 2.27575 3.63191 0
M  V30 5114 H 477.316 3.24914 3.7516 0
M  V30 5115 H 472.572 4.6444 3.97625 0
M  V30 5116 H 476.746 5.6228 4.1087 0
M  V30 5117 H 474.373 6.32506 4.21712 0
M  V30 5118 N 475.948 -1.35272 0.808662 0
M  V30 5119 C 476.896 -2.31663 0.208606 0
M  V30 5120 C 477.89 -1.56731 -0.642778 0
M  V30 5121 O 479.096 -1.71843 -0.53571 0
M  V30 5122 H 475.471 -0.750421 0.0486993 0
M  V30 5123 H 477.442 -2.79814 1.03666 0
M  V30 5124 C 476.191 -3.42008 -0.626573 0
M  V30 5125 H 475.514 -3.99795 0.0192103 0
M  V30 5126 H 476.954 -4.11727 -1.01278 0
M  V30 5127 C 475.413 -2.85226 -1.79298 0
M  V30 5128 O 475.943 -2.78945 -2.89055 0
M  V30 5129 N 474.149 -2.42245 -1.60516 0
M  V30 5130 H 473.696 -2.47554 -0.712375 0
M  V30 5131 H 473.654 -2.04603 -2.38715 0
M  V30 5132 N 477.426 -0.562348 -1.47226 0
M  V30 5133 C 478.654 -0.0452275 -2.06851 0
M  V30 5134 C 479.069 1.25078 -1.41424 0
M  V30 5135 O 478.426 1.75156 -0.512513 0
M  V30 5136 C 478.477 0.148674 -3.61194 0
M  V30 5137 O 478.198 -1.09602 -4.24169 0
M  V30 5138 C 479.699 0.702488 -4.37699 0
M  V30 5139 H 476.919 -0.0481775 -0.669268 0
M  V30 5140 H 479.463 -0.777223 -1.89155 0
M  V30 5141 H 477.618 0.830817 -3.78386 0
M  V30 5142 H 478.032 -0.896982 -5.16773 0
M  V30 5143 H 479.506 0.78743 -5.46355 0
M  V30 5144 H 479.983 1.71493 -4.04335 0
M  V30 5145 H 480.589 0.0558772 -4.25263 0
M  V30 5146 N 478.904 1.54736 -0.299062 0
M  V30 5147 C 480.151 2.00101 0.310784 0
M  V30 5148 C 480.479 1.18746 1.54045 0
M  V30 5149 O 479.734 0.251198 1.94081 0
M  V30 5150 C 480.033 3.50199 0.713835 0
M  V30 5151 C 479.699 4.48997 -0.413873 0
M  V30 5152 C 478.361 4.7573 -0.723462 0
M  V30 5153 C 480.713 5.07839 -1.17257 0
M  V30 5154 C 478.041 5.5857 -1.79491 0
M  V30 5155 C 480.393 5.91844 -2.23392 0
M  V30 5156 C 479.057 6.16889 -2.54959 0
M  V30 5157 H 478.327 0.732221 0.113724 0
M  V30 5158 H 480.974 1.86888 -0.417756 0
M  V30 5159 H 479.279 3.61012 1.52243 0
M  V30 5160 H 480.976 3.82723 1.19684 0
M  V30 5161 H 477.566 4.28292 -0.162476 0
M  V30 5162 H 481.75 4.87188 -0.946651 0
M  V30 5163 H 477.006 5.76213 -2.04423 0
M  V30 5164 H 481.18 6.36465 -2.8264 0
M  V30 5165 H 478.807 6.80869 -3.38114 0
M  V30 5166 N 480.382 0.0267497 1.57577 0
M  V30 5167 C 481.312 -0.954308 2.13108 0
M  V30 5168 C 482.293 -1.34088 1.04663 0
M  V30 5169 O 483.478 -1.41992 1.32484 0
M  V30 5170 C 480.608 -2.23744 2.65624 0
M  V30 5171 C 479.562 -1.99168 3.78835 0
M  V30 5172 C 478.888 -3.33726 4.17769 0
M  V30 5173 C 480.188 -1.33277 5.0501 0
M  V30 5174 H 481.882 -0.491848 2.95332 0
M  V30 5175 H 479.428 -0.23514 1.42067 0
M  V30 5176 H 481.381 -2.92754 3.03106 0
M  V30 5177 H 480.105 -2.72151 1.80558 0
M  V30 5178 H 478.764 -1.32577 3.41788 0
M  V30 5179 H 478.412 -3.79888 3.29688 0
M  V30 5180 H 478.112 -3.18089 4.94058 0
M  V30 5181 H 479.636 -4.04008 4.57832 0
M  V30 5182 H 481.05 -1.92283 5.40093 0
M  V30 5183 H 479.447 -1.28045 5.8628 0
M  V30 5184 H 480.517 -0.305411 4.83937 0
M  V30 5185 N 481.861 -1.55662 -0.24637 0
M  V30 5186 C 483.277 -1.48098 -0.594907 0
M  V30 5187 C 483.477 -0.717044 -1.8831 0
M  V30 5188 O 482.533 -0.246618 -2.51293 0
M  V30 5189 C 483.846 -2.92507 -0.697146 0
M  V30 5190 C 485.394 -3.02881 -0.789436 0
M  V30 5191 C 485.869 -4.48598 -0.923232 0
M  V30 5192 N 487.36 -4.52538 -0.988088 0
M  V30 5193 C 488.095 -5.62536 -1.11089 0
M  V30 5194 N 487.591 -6.82342 -1.19919 0
M  V30 5195 N 489.384 -5.50334 -1.14408 0
M  V30 5196 H 481.535 -2.0377 0.599278 0
M  V30 5197 H 483.798 -0.925145 0.20691 0
M  V30 5198 H 483.504 -3.51242 0.179396 0
M  V30 5199 H 483.378 -3.43024 -1.5689 0
M  V30 5200 H 485.765 -2.44226 -1.65643 0
M  V30 5201 H 485.846 -2.55574 0.107482 0
M  V30 5202 H 485.49 -5.07864 -0.0607927 0
M  V30 5203 H 485.42 -4.93587 -1.8352 0
M  V30 5204 H 487.911 -3.66248 -0.931167 0
M  V30 5205 H 488.224 -7.61924 -1.29197 0
M  V30 5206 H 486.569 -6.85102 -1.16876 0
M  V30 5207 H 489.76 -4.5567 -1.07158 0
M  V30 5208 H 489.933 -6.36096 -1.23634 0
M  V30 5209 N 483.339 0.512053 -1.4905 0
M  V30 5210 C 484.579 1.27715 -1.59588 0
M  V30 5211 C 484.943 1.90071 -0.271502 0
M  V30 5212 O 486.144 2.67616 -0.251987 0
M  V30 5213 C 484.415 2.32399 -2.71524 0
M  V30 5214 S 485.974 3.18396 -3.01943 0
M  V30 5215 H 482.792 0.43419 -0.563027 0
M  V30 5216 H 485.394 0.581315 -1.86657 0
M  V30 5217 H 484.098 1.85101 -3.66287 0
M  V30 5218 H 483.629 3.06667 -2.46412 0
M  V30 5219 H 485.644 4.32842 -2.42616 0
M  V30 5220 N 484.817 1.37938 0.762283 0
M  V30 5221 C 485.747 1.37176 1.88958 0
M  V30 5222 C 486.728 0.238945 1.68413 0
M  V30 5223 O 487.913 0.440726 1.89133 0
M  V30 5224 C 485.043 1.18742 3.2637 0
M  V30 5225 C 483.997 2.29136 3.61498 0
M  V30 5226 C 483.323 1.95816 4.97554 0
M  V30 5227 C 484.623 3.71363 3.6727 0
M  V30 5228 H 486.317 2.31509 1.89853 0
M  V30 5229 H 483.863 1.11438 0.912005 0
M  V30 5230 H 485.816 1.16837 4.04879 0
M  V30 5231 H 484.54 0.208683 3.25933 0
M  V30 5232 H 483.199 2.30213 2.85303 0
M  V30 5233 H 482.847 0.964475 4.93667 0
M  V30 5234 H 482.547 2.69745 5.22026 0
M  V30 5235 H 484.071 1.95513 5.78452 0
M  V30 5236 H 485.485 3.72364 4.35911 0
M  V30 5237 H 483.882 4.44425 4.03245 0
M  V30 5238 H 484.952 4.04305 2.67704 0
M  V30 5239 N 486.295 -0.989507 1.22664 0
M  V30 5240 C 487.543 -1.72612 1.05117 0
M  V30 5241 C 487.864 -1.90552 -0.414131 0
M  V30 5242 O 487.134 -1.4676 -1.29762 0
M  V30 5243 H 485.714 -0.639555 0.385977 0
M  V30 5244 H 488.376 -1.19158 1.54232 0
M  V30 5245 H 487.472 -2.71926 1.53175 0
M  V30 5246 N 487.773 -1.03688 -1.18687 0
M  V30 5247 C 489.022 -0.733235 -1.879 0
M  V30 5248 C 489.335 0.741745 -1.8099 0
M  V30 5249 O 490.541 1.15875 -2.4553 0
M  V30 5250 C 488.997 -1.26127 -3.37076 0
M  V30 5251 C 488.605 -2.76461 -3.52524 0
M  V30 5252 C 490.349 -1.03398 -4.11715 0
M  V30 5253 C 488.256 -3.22642 -4.95637 0
M  V30 5254 H 487.186 -0.270584 -0.703776 0
M  V30 5255 H 489.837 -1.25222 -1.34133 0
M  V30 5256 H 488.219 -0.670165 -3.90288 0
M  V30 5257 H 489.393 -3.41296 -3.09602 0
M  V30 5258 H 487.708 -2.97559 -2.91286 0
M  V30 5259 H 490.305 -1.3542 -5.17267 0
M  V30 5260 H 490.648 0.0289246 -4.1629 0
M  V30 5261 H 491.181 -1.5895 -3.64664 0
M  V30 5262 H 487.92 -4.28296 -4.96228 0
M  V30 5263 H 487.44 -2.62539 -5.39289 0
M  V30 5264 H 489.119 -3.16444 -5.64333 0
M  V30 5265 N 489.251 1.34841 -0.815825 0
M  V30 5266 C 490.662 1.80937 -0.46029 0
M  V30 5267 C 491.013 1.67685 1.01863 0
M  V30 5268 O 490.138 1.21277 1.79223 0
M  V30 5269 C 490.733 3.28509 -0.828708 0
M  V30 5270 C 489.292 3.72712 -0.525644 0
M  V30 5271 C 488.439 2.56676 -1.04941 0
M  V30 5272 H 491.39 1.22688 -1.00664 0
M  V30 5273 H 491.411 3.80279 -0.129757 0
M  V30 5274 H 490.923 3.38122 -1.90513 0
M  V30 5275 H 489.024 3.68642 0.541666 0
M  V30 5276 H 489.137 4.67119 -1.06474 0
M  V30 5277 H 487.501 2.50302 -0.471286 0
M  V30 5278 H 488.284 2.69063 -2.13214 0
M  V30 5279 N 490.729 0.570148 1.46925 0
M  V30 5280 C 491.692 -0.159933 2.28641 0
M  V30 5281 C 492.692 -0.830638 1.37685 0
M  V30 5282 O 493.882 -0.684516 1.60187 0
M  V30 5283 C 491.014 -1.2354 3.17727 0
M  V30 5284 H 492.207 0.558035 2.94662 0
M  V30 5285 H 489.76 0.327603 1.52828 0
M  V30 5286 H 490.495 -1.98535 2.56426 0
M  V30 5287 H 490.28 -0.759125 3.84681 0
M  V30 5288 H 491.77 -1.74782 3.79264 0
M  V30 5289 N 492.207 -1.54576 0.307264 0
M  V30 5290 C 493.623 -1.59534 -0.0459251 0
M  V30 5291 C 493.823 -1.32414 -1.51884 0
M  V30 5292 O 492.879 -1.1006 -2.27251 0
M  V30 5293 C 494.192 -2.98566 0.357649 0
M  V30 5294 C 495.74 -3.11491 0.306937 0
M  V30 5295 C 496.215 -4.52842 0.685427 0
M  V30 5296 N 497.706 -4.58782 0.638203 0
M  V30 5297 C 498.441 -5.66238 0.903458 0
M  V30 5298 N 497.937 -6.81703 1.23501 0
M  V30 5299 N 499.73 -5.55937 0.830102 0
M  V30 5300 H 491.881 -1.70464 1.26712 0
M  V30 5301 H 494.144 -0.79647 0.514139 0
M  V30 5302 H 493.85 -3.23356 1.38325 0
M  V30 5303 H 493.724 -3.76117 -0.285565 0
M  V30 5304 H 496.111 -2.86446 -0.709424 0
M  V30 5305 H 496.192 -2.36081 0.984861 0
M  V30 5306 H 495.836 -4.78618 1.69963 0
M  V30 5307 H 495.766 -5.26598 -0.0146346 0
M  V30 5308 H 498.257 -3.75849 0.393138 0
M  V30 5309 H 498.57 -7.59582 1.42322 0
M  V30 5310 H 496.915 -6.8324 1.27311 0
M  V30 5311 H 500.106 -4.64608 0.570693 0
M  V30 5312 H 500.279 -6.39597 1.04019 0
M  V30 5313 N 493.685 -0.035106 -1.57561 0
M  V30 5314 C 494.934 0.641604 -1.91223 0
M  V30 5315 C 495.247 1.72944 -0.913761 0
M  V30 5316 O 496.453 2.46321 -1.14185 0
M  V30 5317 C 494.909 1.19249 -3.3957 0
M  V30 5318 C 494.517 0.137616 -4.47789 0
M  V30 5319 C 496.261 1.84537 -3.82291 0
M  V30 5320 C 494.168 0.700478 -5.87237 0
M  V30 5321 H 493.098 0.243417 -0.713627 0
M  V30 5322 H 495.749 -0.101382 -1.8322 0
M  V30 5323 H 494.131 1.98728 -3.42525 0
M  V30 5324 H 495.305 -0.635153 -4.56402 0
M  V30 5325 H 493.62 -0.416855 -4.14308 0
M  V30 5326 H 496.217 2.27616 -4.83834 0
M  V30 5327 H 496.56 2.69054 -3.17672 0
M  V30 5328 H 497.093 1.11739 -3.81784 0
M  V30 5329 H 493.832 -0.106693 -6.55413 0
M  V30 5330 H 493.352 1.4416 -5.82218 0
M  V30 5331 H 495.031 1.18837 -6.35993 0
M  V30 5332 N 495.163 1.55791 0.238111 0
M  V30 5333 C 496.409 1.78297 0.966337 0
M  V30 5334 C 496.742 0.601903 1.84637 0
M  V30 5335 O 496.017 -0.399499 1.90353 0
M  V30 5336 C 496.3 3.10758 1.81939 0
M  V30 5337 C 496.153 4.39283 0.966958 0
M  V30 5338 C 497.472 3.39519 2.80027 0
M  V30 5339 H 494.591 0.648654 0.349882 0
M  V30 5340 H 497.233 1.88525 0.236253 0
M  V30 5341 H 495.383 3.02168 2.44185 0
M  V30 5342 H 497.055 4.59873 0.362514 0
M  V30 5343 H 495.298 4.32948 0.271669 0
M  V30 5344 H 495.969 5.28368 1.59784 0
M  V30 5345 H 498.445 3.48128 2.27917 0
M  V30 5346 H 497.321 4.33402 3.36829 0
M  V30 5347 H 497.582 2.60864 3.56934 0
M  V30 5348 N 496.642 -0.504142 1.49319 0
M  V30 5349 C 497.87 -1.28256 1.62351 0
M  V30 5350 C 498.285 -1.86502 0.293682 0
M  V30 5351 O 497.642 -1.67678 -0.720449 0
M  V30 5352 C 497.693 -2.41507 2.68992 0
M  V30 5353 O 497.414 -1.85656 3.96817 0
M  V30 5354 C 498.915 -3.32929 2.927 0
M  V30 5355 H 496.135 -0.389115 0.546654 0
M  V30 5356 H 498.679 -0.605531 1.95329 0
M  V30 5357 H 496.834 -3.05046 2.38801 0
M  V30 5358 H 497.248 -2.59981 4.55533 0
M  V30 5359 H 498.722 -4.0868 3.71058 0
M  V30 5360 H 499.199 -3.89733 2.02496 0
M  V30 5361 H 499.805 -2.75158 3.24296 0
M  V30 5362 N 498.12 -1.38341 -0.754957 0
M  V30 5363 C 499.068 -1.35573 -1.89005 0
M  V30 5364 C 500.062 -0.241824 -1.67665 0
M  V30 5365 O 501.268 -0.410785 -1.7525 0
M  V30 5366 H 497.643 -0.422898 -0.621821 0
M  V30 5367 H 499.614 -2.31359 -1.88455 0
M  V30 5368 C 498.363 -1.19631 -3.26471 0
M  V30 5369 H 497.686 -2.04605 -3.43477 0
M  V30 5370 H 499.126 -1.21748 -4.06144 0
M  V30 5371 C 497.585 0.0968705 -3.36761 0
M  V30 5372 O 498.115 1.07439 -3.87066 0
M  V30 5373 N 496.321 0.153242 -2.90196 0
M  V30 5374 H 495.868 -0.642908 -2.49448 0
M  V30 5375 H 495.826 1.01807 -2.9746 0
M  V30 5376 N 499.598 0.982988 -1.23187 0
M  V30 5377 C 500.828 1.75666 -1.08743 0
M  V30 5378 C 501.236 1.85662 0.364195 0
M  V30 5379 O 500.579 1.33317 1.26382 0
M  V30 5380 C 500.641 3.20144 -1.63549 0
M  V30 5381 C 500.305 3.33665 -3.12277 0
M  V30 5382 C 501.302 3.20194 -4.096 0
M  V30 5383 C 498.987 3.58397 -3.51933 0
M  V30 5384 C 500.981 3.31256 -5.44563 0
M  V30 5385 C 498.668 3.69098 -4.87042 0
M  V30 5386 C 499.666 3.55537 -5.83166 0
M  V30 5387 O 499.354 3.65864 -7.1582 0
M  V30 5388 H 499.086 0.558194 -0.381307 0
M  V30 5389 H 501.64 1.24387 -1.63454 0
M  V30 5390 H 499.87 3.72659 -1.03256 0
M  V30 5391 H 501.559 3.79262 -1.4462 0
M  V30 5392 H 502.325 3.00987 -3.80305 0
M  V30 5393 H 498.204 3.68025 -2.77631 0
M  V30 5394 H 501.748 3.20588 -6.19572 0
M  V30 5395 H 497.645 3.87814 -5.16014 0
M  V30 5396 H 498.413 3.82675 -7.23534 0
M  V30 5397 N 501.076 1.04316 1.18135 0
M  V30 5398 C 502.323 0.74802 1.88178 0
M  V30 5399 C 502.651 -0.72441 1.80506 0
M  V30 5400 O 501.906 -1.54463 1.20165 0
M  V30 5401 C 502.205 1.16271 3.37958 0
M  V30 5402 C 501.871 2.63585 3.65833 0
M  V30 5403 C 500.533 3.03829 3.73151 0
M  V30 5404 C 502.885 3.58822 3.78016 0
M  V30 5405 C 500.213 4.38194 3.90132 0
M  V30 5406 C 502.565 4.92909 3.96514 0
M  V30 5407 C 501.229 5.3282 4.02068 0
M  V30 5408 H 500.499 0.27372 0.688592 0
M  V30 5409 H 503.146 1.30863 1.39811 0
M  V30 5410 H 501.451 0.520938 3.88321 0
M  V30 5411 H 503.148 0.911672 3.90499 0
M  V30 5412 H 499.738 2.31414 3.60757 0
M  V30 5413 H 503.922 3.28875 3.71692 0
M  V30 5414 H 499.178 4.68631 3.92677 0
M  V30 5415 H 503.352 5.66606 4.04883 0
M  V30 5416 H 500.979 6.36943 4.14979 0
M  V30 5417 N 502.554 -1.34406 0.822964 0
M  V30 5418 C 503.779 -2.0304 0.423034 0
M  V30 5419 C 504.204 -1.61568 -0.963196 0
M  V30 5420 O 503.562 -0.800339 -1.62678 0
M  V30 5421 C 503.61 -3.56636 0.53321 0
M  V30 5422 O 502.714 -4.09971 -0.446939 0
M  V30 5423 H 502.055 -0.64075 0.174171 0
M  V30 5424 H 504.585 -1.71653 1.11339 0
M  V30 5425 H 504.595 -4.05945 0.408991 0
M  V30 5426 H 503.27 -3.86168 1.54425 0
M  V30 5427 H 501.847 -3.71835 -0.281601 0
M  V30 5428 N 504.032 -0.577932 -1.46621 0
M  V30 5429 C 504.995 0.147805 -2.28723 0
M  V30 5430 C 505.995 0.823325 -1.38123 0
M  V30 5431 O 507.185 0.676011 -1.60548 0
M  V30 5432 C 504.317 1.21853 -3.18378 0
M  V30 5433 H 505.51 -0.573654 -2.94362 0
M  V30 5434 H 503.063 -0.335703 -1.52652 0
M  V30 5435 H 503.798 1.97173 -2.57475 0
M  V30 5436 H 503.583 0.738714 -3.85078 0
M  V30 5437 H 505.073 1.72768 -3.80186 0
M  V30 5438 N 505.51 1.54411 -0.315457 0
M  V30 5439 C 506.46 2.20772 0.569549 0
M  V30 5440 C 507.444 1.18551 1.08787 0
M  V30 5441 O 508.636 1.44213 1.02624 0
M  V30 5442 C 505.765 2.96293 1.73394 0
M  V30 5443 C 504.851 4.05844 1.2309 0
M  V30 5444 N 505.242 5.03822 0.446927 0
M  V30 5445 C 503.54 4.19648 1.51035 0
M  V30 5446 C 504.241 5.8143 0.17725 0
M  V30 5447 N 503.217 5.38245 0.761118 0
M  V30 5448 H 507.019 2.93877 -0.0368076 0
M  V30 5449 H 504.533 1.61949 -0.120915 0
M  V30 5450 H 506.53 3.42313 2.37965 0
M  V30 5451 H 505.19 2.24708 2.34386 0
M  V30 5452 H 506.201 5.17821 0.0905027 0
M  V30 5453 H 502.878 3.59274 2.1267 0
M  V30 5454 H 504.268 6.70369 -0.45335 0
M  V30 5455 N 506.988 0.0434614 1.5754 0
M  V30 5456 C 508.265 -0.671479 1.83713 0
M  V30 5457 C 508.645 -1.89495 0.930315 0
M  V30 5458 O 507.993 -2.28498 -0.0105639 0
M  V30 5459 C 508.203 -1.0361 3.33266 0
M  V30 5460 C 509.551 -1.42167 4.00092 0
M  V30 5461 O 510.575 -1.12866 3.37846 0
M  V30 5462 O 509.434 -1.96817 5.09829 0
M  V30 5463 H 506.528 -0.330726 0.75799 0
M  V30 5464 H 509.074 0.0722373 1.69546 0
M  V30 5465 H 507.846 -0.165938 3.90948 0
M  V30 5466 H 507.469 -1.83751 3.52592 0
M  V30 5467 N 508.466 -1.55915 -0.229846 0
M  V30 5468 C 509.414 -1.9258 -1.30444 0
M  V30 5469 C 510.408 -0.806839 -1.48951 0
M  V30 5470 O 511.614 -0.991606 -1.50224 0
M  V30 5471 H 507.989 -0.611878 -0.437161 0
M  V30 5472 H 509.96 -2.82264 -0.96797 0
M  V30 5473 C 508.709 -2.25171 -2.6494 0
M  V30 5474 H 508.032 -3.10782 -2.51504 0
M  V30 5475 H 509.472 -2.54716 -3.38963 0
M  V30 5476 C 507.931 -1.07394 -3.19324 0
M  V30 5477 O 508.461 -0.330759 -4.00336 0
M  V30 5478 N 506.667 -0.859984 -2.77584 0
M  V30 5479 H 506.214 -1.46605 -2.11813 0
M  V30 5480 H 506.172 -0.0736671 -3.14314 0
M  V30 5481 N 509.944 0.496216 -1.49584 0
M  V30 5482 C 511.221 1.25755 -1.49816 0
M  V30 5483 C 511.601 2.09859 -0.228572 0
M  V30 5484 O 510.949 2.14449 0.788908 0
M  V30 5485 C 511.159 2.11017 -2.7798 0
M  V30 5486 C 512.507 2.70047 -3.27658 0
M  V30 5487 O 513.531 2.21281 -2.79129 0
M  V30 5488 O 512.39 3.58834 -4.1219 0
M  V30 5489 H 509.484 0.569322 -0.599834 0
M  V30 5490 H 512.03 0.510094 -1.61852 0
M  V30 5491 H 510.802 1.48879 -3.61871 0
M  V30 5492 H 510.425 2.92947 -2.68827 0
M  V30 5493 N 511.423 1.38739 0.74761 0
M  V30 5494 C 512.386 1.36241 1.84312 0
M  V30 5495 C 513.386 0.261811 1.58654 0
M  V30 5496 O 514.576 0.519031 1.66288 0
M  V30 5497 C 511.708 1.12253 3.21888 0
M  V30 5498 H 512.901 2.33712 1.87933 0
M  V30 5499 H 510.454 1.2412 0.949946 0
M  V30 5500 H 511.189 0.154133 3.23934 0
M  V30 5501 H 510.974 1.91943 3.41907 0
M  V30 5502 H 512.464 1.13215 4.0196 0
M  V30 5503 N 512.901 -0.976442 1.23707 0
M  V30 5504 C 513.849 -2.09078 1.01927 0
M  V30 5505 C 514.843 -1.69345 -0.0430193 0
M  V30 5506 O 516.049 -1.79659 0.110814 0
M  V30 5507 H 512.424 -0.68398 0.312531 0
M  V30 5508 H 514.395 -2.24614 1.96447 0
M  V30 5509 C 513.144 -3.41919 0.631385 0
M  V30 5510 H 512.467 -3.72946 1.44053 0
M  V30 5511 H 513.907 -4.20817 0.518532 0
M  V30 5512 C 512.366 -3.30357 -0.660723 0
M  V30 5513 O 512.896 -3.63542 -1.70881 0
M  V30 5514 N 511.102 -2.83507 -0.638139 0
M  V30 5515 H 510.649 -2.567 0.215108 0
M  V30 5516 H 510.607 -2.76153 -1.50289 0
M  V30 5517 N 514.379 -1.04941 -1.1758 0
M  V30 5518 C 515.309 -0.669172 -2.23706 0
M  V30 5519 C 516.29 0.331835 -1.66832 0
M  V30 5520 O 517.475 0.209988 -1.93061 0
M  V30 5521 C 514.605 -0.0404889 -3.47276 0
M  V30 5522 C 513.559 -0.965983 -4.16957 0
M  V30 5523 C 512.885 -0.201312 -5.34321 0
M  V30 5524 C 514.185 -2.28902 -4.69469 0
M  V30 5525 H 515.879 -1.55639 -2.55767 0
M  V30 5526 H 513.425 -0.749793 -1.22939 0
M  V30 5527 H 515.378 0.237298 -4.20731 0
M  V30 5528 H 514.102 0.881658 -3.14475 0
M  V30 5529 H 512.761 -1.22829 -3.45411 0
M  V30 5530 H 512.409 0.723519 -4.97769 0
M  V30 5531 H 512.109 -0.817968 -5.81879 0
M  V30 5532 H 513.633 0.0692499 -6.10561 0
M  V30 5533 H 515.047 -2.07132 -5.34574 0
M  V30 5534 H 513.444 -2.85942 -5.27596 0
M  V30 5535 H 514.514 -2.92937 -3.86414 0
M  V30 5536 N 515.857 1.33968 -0.830081 0
M  V30 5537 C 516.789 2.28194 -0.21448 0
M  V30 5538 C 517.802 1.5135 0.599752 0
M  V30 5539 O 518.991 1.73286 0.42826 0
M  V30 5540 C 516.091 3.31221 0.717356 0
M  V30 5541 C 515.264 4.37365 -0.055613 0
M  V30 5542 C 514.323 5.2011 0.798231 0
M  V30 5543 O 513.349 5.68691 0.240616 0
M  V30 5544 N 514.551 5.40523 2.11695 0
M  V30 5545 H 517.316 2.81662 -1.02405 0
M  V30 5546 H 514.877 1.46568 -0.687713 0
M  V30 5547 H 516.869 3.83477 1.29334 0
M  V30 5548 H 515.439 2.78095 1.42765 0
M  V30 5549 H 514.659 3.85727 -0.812936 0
M  V30 5550 H 515.947 5.05397 -0.587444 0
M  V30 5551 H 515.345 5.0274 2.59363 0
M  V30 5552 H 513.902 5.95871 2.64162 0
M  V30 5553 N 517.335 0.585699 1.46312 0
M  V30 5554 C 518.268 -0.194257 2.27372 0
M  V30 5555 C 519.246 -0.894116 1.3581 0
M  V30 5556 O 520.43 -0.907402 1.65222 0
M  V30 5557 C 517.557 -1.27901 3.13622 0
M  V30 5558 C 516.603 -0.684666 4.20969 0
M  V30 5559 S 517.436 0.490745 5.33247 0
M  V30 5560 C 518.592 -0.595137 6.23064 0
M  V30 5561 H 518.825 0.493515 2.93175 0
M  V30 5562 H 516.358 0.372666 1.49835 0
M  V30 5563 H 518.316 -1.90008 3.63878 0
M  V30 5564 H 516.977 -1.93875 2.47126 0
M  V30 5565 H 516.17 -1.50015 4.81156 0
M  V30 5566 H 515.772 -0.139204 3.73741 0
M  V30 5567 H 518.064 -1.48002 6.61137 0
M  V30 5568 H 519.007 -0.0299446 7.08094 0
M  V30 5569 H 519.415 -0.900627 5.57269 0
M  V30 5570 N 518.813 -1.54241 0.323641 0
M  V30 5571 C 520.09 -1.92741 -0.333181 0
M  V30 5572 C 520.47 -1.25326 -1.69872 0
M  V30 5573 O 519.818 -0.396991 -2.25025 0
M  V30 5574 C 520.028 -3.46399 -0.425322 0
M  V30 5575 C 521.376 -4.19029 -0.68557 0
M  V30 5576 O 522.4 -3.52555 -0.50824 0
M  V30 5577 O 521.259 -5.36751 -1.02767 0
M  V30 5578 H 518.353 -0.804811 -0.190286 0
M  V30 5579 H 520.899 -1.65542 0.373361 0
M  V30 5580 H 519.671 -3.87643 0.533737 0
M  V30 5581 H 519.294 -3.79704 -1.17944 0
M  V30 5582 N 520.291 -0.0518155 -1.57515 0
M  V30 5583 C 521.54 0.621286 -1.91893 0
M  V30 5584 C 521.853 1.71966 -0.932052 0
M  V30 5585 O 523.059 2.45096 -1.16791 0
M  V30 5586 C 521.515 1.15641 -3.40816 0
M  V30 5587 C 521.123 0.0901146 -4.47909 0
M  V30 5588 C 522.867 1.80472 -3.84227 0
M  V30 5589 C 520.774 0.638154 -5.87947 0
M  V30 5590 H 519.704 0.235835 -0.716169 0
M  V30 5591 H 522.355 -0.120809 -1.83102 0
M  V30 5592 H 520.737 1.95084 -3.44613 0
M  V30 5593 H 521.911 -0.683525 -4.55702 0
M  V30 5594 H 520.226 -0.460774 -4.13843 0
M  V30 5595 H 522.823 2.22471 -4.86221 0
M  V30 5596 H 523.166 2.65669 -3.20508 0
M  V30 5597 H 523.699 1.07683 -3.82948 0
M  V30 5598 H 520.438 -0.176202 -6.55263 0
M  V30 5599 H 519.958 1.37976 -5.83714 0
M  V30 5600 H 521.637 1.12085 -6.37217 0
M  V30 5601 N 521.769 1.56035 0.221574 0
M  V30 5602 C 523.016 1.79047 0.94597 0
M  V30 5603 C 523.344 0.62057 1.84334 0
M  V30 5604 O 522.599 -0.395053 1.91671 0
M  V30 5605 C 522.898 3.07813 1.8162 0
M  V30 5606 C 522.564 4.3797 1.07206 0
M  V30 5607 C 521.226 4.73334 0.866508 0
M  V30 5608 C 523.578 5.18326 0.546565 0
M  V30 5609 C 520.906 5.8657 0.123549 0
M  V30 5610 C 523.258 6.32335 -0.18305 0
M  V30 5611 C 521.922 6.66301 -0.399861 0
M  V30 5612 H 521.192 0.655178 0.346155 0
M  V30 5613 H 523.839 1.90299 0.214146 0
M  V30 5614 H 522.144 2.91682 2.61589 0
M  V30 5615 H 523.841 3.2282 2.37884 0
M  V30 5616 H 520.431 4.10202 1.24226 0
M  V30 5617 H 524.615 4.9144 0.692847 0
M  V30 5618 H 519.871 6.11376 -0.0546591 0
M  V30 5619 H 524.045 6.9383 -0.59775 0
M  V30 5620 H 521.672 7.53889 -0.977489 0
M  V30 5621 N 523.247 -0.488276 1.49845 0
M  V30 5622 C 524.177 -1.59675 1.70371 0
M  V30 5623 C 525.158 -1.60878 0.552473 0
M  V30 5624 O 526.343 -1.77417 0.78973 0
M  V30 5625 C 523.473 -2.98098 1.782 0
M  V30 5626 C 522.427 -3.11761 2.93239 0
M  V30 5627 C 521.753 -4.51661 2.86193 0
M  V30 5628 C 523.053 -2.90589 4.33999 0
M  V30 5629 H 524.747 -1.42752 2.63177 0
M  V30 5630 H 522.293 -0.685317 1.26647 0
M  V30 5631 H 524.246 -3.75555 1.91144 0
M  V30 5632 H 522.97 -3.16138 0.820018 0
M  V30 5633 H 521.629 -2.36732 2.79917 0
M  V30 5634 H 521.277 -4.66595 1.87877 0
M  V30 5635 H 520.977 -4.61742 3.63412 0
M  V30 5636 H 522.501 -5.31162 3.01163 0
M  V30 5637 H 523.915 -3.57807 4.47936 0
M  V30 5638 H 522.312 -3.1213 5.12538 0
M  V30 5639 H 523.382 -1.86595 4.4756 0
M  V30 5640 N 524.725 -1.39134 -0.740242 0
M  V30 5641 C 525.635 -1.39697 -1.88473 0
M  V30 5642 C 526.651 -0.292403 -1.71526 0
M  V30 5643 O 527.827 -0.533021 -1.94219 0
M  V30 5644 C 524.892 -1.23382 -3.24003 0
M  V30 5645 C 523.953 -2.43763 -3.53381 0
M  V30 5646 C 523.186 -2.28216 -4.82445 0
M  V30 5647 O 523.409 -1.28288 -5.55786 0
M  V30 5648 O 522.343 -3.1709 -5.11603 0
M  V30 5649 H 526.169 -2.36159 -1.90952 0
M  V30 5650 H 523.754 -1.20194 -0.887346 0
M  V30 5651 H 525.636 -1.16395 -4.05006 0
M  V30 5652 H 524.311 -0.300121 -3.22306 0
M  V30 5653 H 523.218 -2.56325 -2.72485 0
M  V30 5654 H 524.551 -3.35808 -3.59852 0
M  V30 5655 N 526.204 0.969867 -1.24223 0
M  V30 5656 C 527.114 2.09806 -1.0497 0
M  V30 5657 C 528.13 1.73998 0.00886455 0
M  V30 5658 O 529.306 2.00513 -0.188848 0
M  V30 5659 C 526.371 3.40467 -0.654452 0
M  V30 5660 C 525.432 3.90236 -1.78926 0
M  V30 5661 C 524.665 5.14662 -1.41277 0
M  V30 5662 O 524.888 5.69602 -0.301632 0
M  V30 5663 O 523.822 5.58761 -2.23763 0
M  V30 5664 H 527.648 2.28942 -1.99548 0
M  V30 5665 H 525.233 1.08197 -1.03023 0
M  V30 5666 H 527.115 4.19039 -0.445452 0
M  V30 5667 H 525.79 3.22636 0.262216 0
M  V30 5668 H 524.697 3.12735 -2.05299 0
M  V30 5669 H 526.03 4.1254 -2.68462 0
M  V30 5670 N 527.682 1.05563 1.17022 0
M  V30 5671 C 528.959 0.68165 1.83338 0
M  V30 5672 C 529.339 -0.837665 1.93769 0
M  V30 5673 O 528.687 -1.74507 1.47511 0
M  V30 5674 C 528.897 1.375 3.20772 0
M  V30 5675 C 530.245 1.51545 3.96635 0
M  V30 5676 O 531.269 1.33431 3.30264 0
M  V30 5677 O 530.128 1.812 5.15586 0
M  V30 5678 H 527.222 0.240412 0.791285 0
M  V30 5679 H 529.768 1.15545 1.24288 0
M  V30 5680 H 528.54 2.41135 3.08171 0
M  V30 5681 H 528.163 0.890798 3.87493 0
M  V30 5682 N 529.16 -1.33526 0.837174 0
M  V30 5683 C 530.408 -1.97446 0.431211 0
M  V30 5684 C 530.729 -1.6665 -1.01255 0
M  V30 5685 O 529.999 -0.964559 -1.70508 0
M  V30 5686 H 528.579 -0.73043 0.156463 0
M  V30 5687 H 531.241 -1.62918 1.06976 0
M  V30 5688 H 530.337 -3.07001 0.561877 0
M  V30 5689 N 530.638 -0.59345 -1.46 0
M  V30 5690 C 531.586 0.146268 -2.3214 0
M  V30 5691 C 532.58 0.873743 -1.45128 0
M  V30 5692 O 533.786 0.790912 -1.61693 0
M  V30 5693 H 530.161 0.0660349 -0.749095 0
M  V30 5694 H 532.132 -0.598895 -2.92328 0
M  V30 5695 C 530.881 1.1396 -3.28494 0
M  V30 5696 H 530.204 0.589252 -3.95434 0
M  V30 5697 H 531.644 1.62738 -3.91526 0
M  V30 5698 C 530.103 2.20604 -2.54628 0
M  V30 5699 O 530.633 3.28128 -2.31722 0
M  V30 5700 N 528.839 1.95502 -2.15005 0
M  V30 5701 H 528.386 1.0807 -2.33834 0
M  V30 5702 H 528.344 2.67064 -1.65904 0
M  V30 5703 N 532.116 1.54067 -0.331816 0
M  V30 5704 C 533.362 2.01012 0.268667 0
M  V30 5705 C 533.695 1.2195 1.51136 0
M  V30 5706 O 532.97 0.303972 1.9211 0
M  V30 5707 C 533.253 3.55158 0.59456 0
M  V30 5708 C 533.106 4.4494 -0.659409 0
M  V30 5709 C 534.425 4.16939 1.4089 0
M  V30 5710 H 531.544 0.730698 0.0961756 0
M  V30 5711 H 534.186 1.84593 -0.450031 0
M  V30 5712 H 532.336 3.6928 1.20685 0
M  V30 5713 H 534.008 4.42675 -1.29756 0
M  V30 5714 H 532.251 4.1428 -1.28665 0
M  V30 5715 H 532.922 5.50643 -0.386804 0
M  V30 5716 H 535.398 4.06443 0.891272 0
M  V30 5717 H 534.274 5.24889 1.60569 0
M  V30 5718 H 534.535 3.70798 2.40752 0
M  V30 5719 N 533.594 0.0601682 1.57485 0
M  V30 5720 C 534.542 -0.928899 2.13247 0
M  V30 5721 C 535.536 -1.31616 1.06647 0
M  V30 5722 O 536.742 -1.29476 1.25043 0
M  V30 5723 H 533.117 -0.317455 0.681708 0
M  V30 5724 H 535.088 -0.433566 2.95233 0
M  V30 5725 C 533.837 -2.19121 2.69965 0
M  V30 5726 H 533.16 -1.90204 3.51657 0
M  V30 5727 H 534.6 -2.86465 3.12592 0
M  V30 5728 C 533.059 -2.94195 1.64168 0
M  V30 5729 O 533.589 -3.87468 1.05978 0
M  V30 5730 N 531.795 -2.57089 1.35476 0
M  V30 5731 H 531.342 -1.81314 1.82984 0
M  V30 5732 H 531.3 -3.07624 0.649196 0
M  V30 5733 N 535.072 -1.5615 -0.213296 0
M  V30 5734 C 536.297 -1.83986 -0.957282 0
M  V30 5735 C 536.722 -0.641526 -1.76822 0
M  V30 5736 O 536.08 0.409722 -1.7661 0
M  V30 5737 C 536.128 -3.09889 -1.84393 0
M  V30 5738 O 535.232 -2.89163 -2.94038 0
M  V30 5739 H 534.573 -0.606357 -0.270605 0
M  V30 5740 H 537.103 -2.03369 -0.224111 0
M  V30 5741 H 537.113 -3.40209 -2.25215 0
M  V30 5742 H 535.788 -3.96735 -1.24795 0
M  V30 5743 H 534.365 -2.70097 -2.57103 0
M  V30 5744 N 536.55 0.480323 -1.50102 0
M  V30 5745 C 537.497 1.57946 -1.6829 0
M  V30 5746 C 538.467 1.57611 -0.524223 0
M  V30 5747 O 539.652 1.75282 -0.753709 0
M  V30 5748 C 536.792 2.95978 -1.77457 0
M  V30 5749 C 535.905 3.06173 -3.04766 0
M  V30 5750 C 535.04 4.35063 -3.04784 0
M  V30 5751 C 534.079 4.38966 -4.26586 0
M  V30 5752 N 533.216 5.59314 -4.24396 0
M  V30 5753 H 538.056 1.41743 -2.62131 0
M  V30 5754 H 535.593 0.689304 -1.2995 0
M  V30 5755 H 537.551 3.76011 -1.80752 0
M  V30 5756 H 536.181 3.10837 -0.870637 0
M  V30 5757 H 535.233 2.19071 -3.10986 0
M  V30 5758 H 536.545 3.04916 -3.9475 0
M  V30 5759 H 535.699 5.23436 -3.06757 0
M  V30 5760 H 534.438 4.38915 -2.12614 0
M  V30 5761 H 533.443 3.48992 -4.24835 0
M  V30 5762 H 534.668 4.36813 -5.19972 0
M  V30 5763 H 532.614 5.63969 -3.35074 0
M  V30 5764 H 532.531 5.5976 -5.08138 0
M  V30 5765 H 533.799 6.49837 -4.30502 0
M  V30 5766 N 538.028 1.39524 0.732853 0
M  V30 5767 C 538.958 1.41153 1.86005 0
M  V30 5768 C 539.939 0.274614 1.67869 0
M  V30 5769 O 541.124 0.480745 1.88155 0
M  V30 5770 C 538.254 1.25638 3.23778 0
M  V30 5771 C 537.208 2.36752 3.56556 0
M  V30 5772 C 536.534 2.06326 4.93289 0
M  V30 5773 C 537.834 3.79069 3.5931 0
M  V30 5774 H 539.528 2.35484 1.84899 0
M  V30 5775 H 537.074 1.13348 0.888162 0
M  V30 5776 H 539.027 1.25398 4.0231 0
M  V30 5777 H 537.751 0.277772 3.25417 0
M  V30 5778 H 536.41 2.36213 2.80355 0
M  V30 5779 H 536.058 1.06897 4.9151 0
M  V30 5780 H 535.758 2.80757 5.16187 0
M  V30 5781 H 537.282 2.07739 5.74175 0
M  V30 5782 H 538.696 3.81526 4.27914 0
M  V30 5783 H 537.093 4.52878 3.93728 0
M  V30 5784 H 538.163 4.09893 2.59068 0
M  V30 5785 N 539.506 -0.963266 1.24736 0
M  V30 5786 C 540.734 -1.74166 1.11686 0
M  V30 5787 C 541.149 -1.8589 -0.330187 0
M  V30 5788 O 540.506 -1.35042 -1.2276 0
M  V30 5789 C 540.557 -3.15989 1.75595 0
M  V30 5790 O 540.278 -3.04847 3.14642 0
M  V30 5791 C 541.779 -4.10145 1.68213 0
M  V30 5792 H 538.999 -0.546031 0.389989 0
M  V30 5793 H 541.543 -1.20907 1.64929 0
M  V30 5794 H 539.698 -3.66219 1.26343 0
M  V30 5795 H 540.112 -3.9425 3.4593 0
M  V30 5796 H 541.586 -5.07299 2.17604 0
M  V30 5797 H 542.063 -4.3445 0.644208 0
M  V30 5798 H 542.669 -3.65827 2.16912 0
M  V30 5799 N 540.985 -1.06182 -1.16461 0
M  V30 5800 C 541.932 -0.671613 -2.20812 0
M  V30 5801 C 542.902 0.331186 -1.62765 0
M  V30 5802 O 544.087 0.22033 -1.89524 0
M  V30 5803 C 541.227 -0.063029 -3.45042 0
M  V30 5804 C 540.34 -1.11587 -4.1734 0
M  V30 5805 C 539.475 -0.473546 -5.29085 0
M  V30 5806 C 538.514 -1.51 -5.93182 0
M  V30 5807 N 537.651 -0.891118 -6.96422 0
M  V30 5808 H 542.491 -1.56589 -2.53542 0
M  V30 5809 H 540.028 -0.782951 -1.24532 0
M  V30 5810 H 541.986 0.307344 -4.16066 0
M  V30 5811 H 540.616 0.794663 -3.12866 0
M  V30 5812 H 539.668 -1.60396 -3.44931 0
M  V30 5813 H 540.98 -1.90221 -4.61104 0
M  V30 5814 H 540.134 -0.0501432 -6.06679 0
M  V30 5815 H 538.873 0.344687 -4.8648 0
M  V30 5816 H 537.878 -1.94331 -5.14311 0
M  V30 5817 H 539.103 -2.33031 -6.37866 0
M  V30 5818 H 537.049 -0.0935753 -6.55933 0
M  V30 5819 H 536.966 -1.61486 -7.38551 0
M  V30 5820 H 538.234 -0.492822 -7.77941 0
M  V30 5821 N 542.463 1.3308 -0.844243 0
M  V30 5822 C 543.74 1.92178 -0.364261 0
M  V30 5823 C 544.12 1.76961 1.15101 0
M  V30 5824 O 543.468 1.16128 1.9679 0
M  V30 5825 C 543.678 3.393 -0.817106 0
M  V30 5826 C 545.026 4.16444 -0.828236 0
M  V30 5827 O 546.05 3.47975 -0.761062 0
M  V30 5828 O 544.909 5.38685 -0.920926 0
M  V30 5829 H 542.003 0.820411 -0.10419 0
M  V30 5830 H 544.549 1.41918 -0.930453 0
M  V30 5831 H 543.321 3.44272 -1.85991 0
M  V30 5832 H 542.944 3.96947 -0.227785 0
M  V30 5833 N 543.941 0.601185 1.45683 0
M  V30 5834 C 545.166 0.0982245 2.07167 0
M  V30 5835 C 545.591 -1.20546 1.44396 0
M  V30 5836 O 544.949 -1.73247 0.534347 0
M  V30 5837 C 544.997 -0.0346976 3.60583 0
M  V30 5838 O 544.101 -1.08657 3.97828 0
M  V30 5839 H 543.442 0.0711618 0.660176 0
M  V30 5840 H 545.972 0.829376 1.87036 0
M  V30 5841 H 545.982 -0.234969 4.07323 0
M  V30 5842 H 544.657 0.917265 4.05659 0
M  V30 5843 H 543.234 -0.863275 3.6277 0
M  V30 5844 N 545.419 -1.53889 0.339982 0
M  V30 5845 C 546.665 -2.01152 -0.258003 0
M  V30 5846 C 546.998 -1.22749 -1.50487 0
M  V30 5847 O 546.273 -0.314156 -1.91946 0
M  V30 5848 C 546.556 -3.55468 -0.575717 0
M  V30 5849 C 546.409 -4.44584 0.682996 0
M  V30 5850 C 547.728 -4.1768 -1.38677 0
M  V30 5851 H 544.847 -0.731198 -0.0922992 0
M  V30 5852 H 547.489 -1.84352 0.459814 0
M  V30 5853 H 545.639 -3.69914 -1.18725 0
M  V30 5854 H 547.311 -4.41981 1.32102 0
M  V30 5855 H 545.554 -4.13592 1.3086 0
M  V30 5856 H 546.225 -5.5043 0.416001 0
M  V30 5857 H 548.701 -4.0691 -0.869705 0
M  V30 5858 H 547.577 -5.25734 -1.57783 0
M  V30 5859 H 547.838 -3.72069 -2.38782 0
M  V30 5860 N 546.897 -0.0685191 -1.57451 0
M  V30 5861 C 548.143 0.596247 -1.94465 0
M  V30 5862 C 548.498 1.67417 -0.948117 0
M  V30 5863 O 547.791 1.91576 0.0301056 0
M  V30 5864 C 547.985 1.22051 -3.35914 0
M  V30 5865 C 547.814 0.204586 -4.49234 0
M  V30 5866 C 546.584 -0.20959 -5.04865 0
M  V30 5867 C 548.782 -0.556872 -5.11276 0
M  V30 5868 N 546.764 -1.21656 -6.01725 0
M  V30 5869 C 548.135 -1.41642 -6.03604 0
M  V30 5870 C 550.19 -0.613297 -4.94108 0
M  V30 5871 C 548.893 -2.32737 -6.80607 0
M  V30 5872 C 550.919 -1.51174 -5.71752 0
M  V30 5873 C 550.281 -2.35898 -6.63726 0
M  V30 5874 H 546.38 0.189307 -0.75874 0
M  V30 5875 H 548.964 -0.144899 -1.9416 0
M  V30 5876 H 547.135 1.9316 -3.36963 0
M  V30 5877 H 548.867 1.84548 -3.60172 0
M  V30 5878 H 545.622 0.172871 -4.73284 0
M  V30 5879 H 546.046 -1.71746 -6.54853 0
M  V30 5880 H 550.688 0.0275228 -4.22791 0
M  V30 5881 H 548.406 -2.97856 -7.51204 0
M  V30 5882 H 551.992 -1.5602 -5.6049 0
M  V30 5883 H 550.872 -3.04291 -7.22756 0
M  V30 5884 N 548.375 1.56261 0.205012 0
M  V30 5885 C 549.323 1.94631 1.27364 0
M  V30 5886 C 550.317 0.830434 1.47649 0
M  V30 5887 O 551.523 1.01538 1.48627 0
M  V30 5888 H 547.898 0.618755 0.427371 0
M  V30 5889 H 549.869 2.83768 0.922941 0
M  V30 5890 C 548.618 2.29358 2.61324 0
M  V30 5891 H 547.941 3.14744 2.46528 0
M  V30 5892 H 549.381 2.60076 3.34868 0
M  V30 5893 C 547.84 1.12461 3.17575 0
M  V30 5894 O 548.37 0.394407 3.99759 0
M  V30 5895 N 546.576 0.904036 2.7618 0
M  V30 5896 H 546.123 1.49956 2.09454 0
M  V30 5897 H 546.081 0.123662 3.14157 0
M  V30 5898 N 549.853 -0.472356 1.50355 0
M  V30 5899 C 551.083 -1.24603 1.64796 0
M  V30 5900 C 551.491 -1.86297 0.330156 0
M  V30 5901 O 550.834 -1.69934 -0.697728 0
M  V30 5902 C 550.896 -2.39578 2.68035 0
M  V30 5903 C 550.56 -1.98531 4.11624 0
M  V30 5904 C 551.557 -1.50856 4.97532 0
M  V30 5905 C 549.242 -2.0729 4.57532 0
M  V30 5906 C 551.236 -1.12481 6.27397 0
M  V30 5907 C 548.923 -1.68527 5.87403 0
M  V30 5908 C 549.921 -1.212 6.7216 0
M  V30 5909 O 549.609 -0.829728 7.99607 0
M  V30 5910 H 549.341 -0.383035 0.55701 0
M  V30 5911 H 551.895 -0.570392 1.97321 0
M  V30 5912 H 550.125 -3.10309 2.30749 0
M  V30 5913 H 551.814 -3.01544 2.71709 0
M  V30 5914 H 552.58 -1.43511 4.63281 0
M  V30 5915 H 548.459 -2.43076 3.91708 0
M  V30 5916 H 552.003 -0.754698 6.93506 0
M  V30 5917 H 547.9 -1.7553 6.21176 0
M  V30 5918 H 548.668 -0.958689 8.12866 0
M  V30 5919 N 551.331 -1.39911 -0.725443 0
M  V30 5920 C 552.281 -1.35878 -1.83088 0
M  V30 5921 C 553.265 -0.237989 -1.5913 0
M  V30 5922 O 554.457 -0.476302 -1.70471 0
M  V30 5923 C 551.586 -1.21403 -3.21117 0
M  V30 5924 C 550.672 -2.38223 -3.50871 0
M  V30 5925 N 551.063 -3.63703 -3.51502 0
M  V30 5926 C 549.361 -2.31388 -3.81281 0
M  V30 5927 C 550.062 -4.4101 -3.79322 0
M  V30 5928 N 549.038 -3.7072 -3.97577 0
M  V30 5929 H 552.84 -2.3085 -1.81895 0
M  V30 5930 H 550.354 -1.33543 -0.924125 0
M  V30 5931 H 552.351 -1.16597 -4.00263 0
M  V30 5932 H 551.011 -0.273902 -3.23543 0
M  V30 5933 H 552.022 -3.96998 -3.32586 0
M  V30 5934 H 548.699 -1.45689 -3.91256 0
M  V30 5935 H 550.089 -5.49819 -3.86198 0
M  V30 5936 N 552.809 0.956637 -1.25245 0
M  V30 5937 C 554.049 1.71585 -1.11076 0
M  V30 5938 C 554.413 1.88916 0.34277 0
M  V30 5939 O 555.614 2.61875 0.606227 0
M  V30 5940 C 553.885 3.06267 -1.84215 0
M  V30 5941 S 555.444 3.97469 -1.85914 0
M  V30 5942 H 552.262 0.589803 -0.397055 0
M  V30 5943 H 554.864 1.14114 -1.58739 0
M  V30 5944 H 553.568 2.91322 -2.89067 0
M  V30 5945 H 553.099 3.688 -1.36931 0
M  V30 5946 H 555.114 4.87316 -0.93474 0
M  V30 5947 N 554.287 1.06798 1.15896 0
M  V30 5948 C 555.533 0.798757 1.8706 0
M  V30 5949 C 555.888 -0.667739 1.80441 0
M  V30 5950 O 555.181 -1.48334 1.21274 0
M  V30 5951 C 555.375 1.23414 3.35416 0
M  V30 5952 C 555.204 2.74142 3.56478 0
M  V30 5953 C 553.974 3.41675 3.72272 0
M  V30 5954 C 556.172 3.72348 3.5477 0
M  V30 5955 N 554.154 4.81101 3.81333 0
M  V30 5956 C 555.525 4.97585 3.69877 0
M  V30 5957 C 557.58 3.65585 3.38011 0
M  V30 5958 C 556.283 6.16866 3.69959 0
M  V30 5959 C 558.309 4.84323 3.39389 0
M  V30 5960 C 557.671 6.08391 3.5502 0
M  V30 5961 H 553.77 0.344761 0.7019 0
M  V30 5962 H 556.354 1.36314 1.3902 0
M  V30 5963 H 554.525 0.697522 3.82085 0
M  V30 5964 H 556.257 0.91304 3.94266 0
M  V30 5965 H 553.012 2.92078 3.7281 0
M  V30 5966 H 553.436 5.53647 3.8962 0
M  V30 5967 H 558.078 2.70615 3.2485 0
M  V30 5968 H 555.796 7.12164 3.819 0
M  V30 5969 H 559.382 4.80762 3.27658 0
M  V30 5970 H 558.262 6.98731 3.56012 0
M  V30 5971 N 555.766 -1.3263 0.851289 0
M  V30 5972 C 556.714 -2.30882 0.282202 0
M  V30 5973 C 557.708 -1.58697 -0.592589 0
M  V30 5974 O 558.914 -1.73461 -0.480768 0
M  V30 5975 H 555.289 -0.748492 0.0725487 0
M  V30 5976 H 557.26 -2.76374 1.12516 0
M  V30 5977 C 556.009 -3.43828 -0.517449 0
M  V30 5978 H 555.332 -3.99532 0.146392 0
M  V30 5979 H 556.772 -4.1474 -0.88128 0
M  V30 5980 C 555.231 -2.90786 -1.70133 0
M  V30 5981 O 555.761 -2.88 -2.80034 0
M  V30 5982 N 553.967 -2.4723 -1.52728 0
M  V30 5983 H 553.514 -2.49695 -0.633257 0
M  V30 5984 H 553.472 -2.12094 -2.32085 0
M  V30 5985 N 557.244 -0.608902 -1.45362 0
M  V30 5986 C 558.154 0.110969 -2.34337 0
M  V30 5987 C 559.17 0.859007 -1.51318 0
M  V30 5988 O 560.346 0.816296 -1.84116 0
M  V30 5989 C 557.411 1.09494 -3.28956 0
M  V30 5990 C 556.472 0.348718 -4.27881 0
M  V30 5991 C 555.705 1.28582 -5.17979 0
M  V30 5992 O 555.928 2.52369 -5.11533 0
M  V30 5993 O 554.862 0.782172 -5.96796 0
M  V30 5994 H 558.688 -0.620258 -2.97299 0
M  V30 5995 H 556.273 -0.36916 -1.44767 0
M  V30 5996 H 558.155 1.66163 -3.87257 0
M  V30 5997 H 556.83 1.80717 -2.68557 0
M  V30 5998 H 555.737 -0.260465 -3.73192 0
M  V30 5999 H 557.07 -0.323049 -4.91139 0
M  V30 6000 N 558.722 1.53707 -0.348139 0
M  V30 6001 C 559.685 2.23812 0.494058 0
M  V30 6002 C 560.685 1.23989 1.02388 0
M  V30 6003 O 561.875 1.48395 0.912396 0
M  V30 6004 C 559.007 2.96133 1.68872 0
M  V30 6005 H 560.2 2.99663 -0.119141 0
M  V30 6006 H 557.753 1.55983 -0.0995539 0
M  V30 6007 H 558.488 2.24481 2.34049 0
M  V30 6008 H 558.273 3.69357 1.31596 0
M  V30 6009 H 559.763 3.49475 2.28597 0
M  V30 6010 N 560.2 0.0768682 1.57412 0
M  V30 6011 C 561.446 -0.585926 1.94778 0
M  V30 6012 C 561.801 -1.66912 0.956982 0
M  V30 6013 O 561.094 -1.9159 -0.0199454 0
M  V30 6014 C 561.288 -1.20268 3.36557 0
M  V30 6015 C 561.117 -0.18076 4.49337 0
M  V30 6016 C 559.887 0.236362 5.04747 0
M  V30 6017 C 562.085 0.583978 5.10974 0
M  V30 6018 N 560.067 1.24846 6.01071 0
M  V30 6019 C 561.438 1.44841 6.02844 0
M  V30 6020 C 563.493 0.639492 4.93776 0
M  V30 6021 C 562.196 2.36343 6.79363 0
M  V30 6022 C 564.222 1.54204 5.70942 0
M  V30 6023 C 563.584 2.39414 6.62465 0
M  V30 6024 H 559.683 -0.185281 0.759734 0
M  V30 6025 H 562.267 0.155193 1.9408 0
M  V30 6026 H 560.438 -1.9137 3.37982 0
M  V30 6027 H 562.17 -1.82636 3.61146 0
M  V30 6028 H 558.925 -0.14777 4.73369 0
M  V30 6029 H 559.349 1.75217 6.53933 0
M  V30 6030 H 563.991 -0.00510074 4.228 0
M  V30 6031 H 561.709 3.01836 7.49614 0
M  V30 6032 H 565.295 1.5899 5.59655 0
M  V30 6033 H 564.175 3.0812 7.21132 0
M  V30 6034 N 561.678 -1.56367 -0.196722 0
M  V30 6035 C 562.611 -1.89475 -1.2718 0
M  V30 6036 C 563.589 -0.754667 -1.44026 0
M  V30 6037 O 564.773 -1.00551 -1.59442 0
M  V30 6038 C 561.9 -2.12352 -2.63864 0
M  V30 6039 C 560.946 -3.35053 -2.63897 0
M  V30 6040 S 561.779 -4.90228 -2.15492 0
M  V30 6041 C 562.935 -5.16171 -3.54004 0
M  V30 6042 H 563.168 -2.80365 -0.989075 0
M  V30 6043 H 560.701 -1.49125 -0.40014 0
M  V30 6044 H 562.659 -2.26214 -3.42545 0
M  V30 6045 H 561.32 -1.22214 -2.89349 0
M  V30 6046 H 560.513 -3.48182 -3.64397 0
M  V30 6047 H 560.115 -3.20176 -1.93296 0
M  V30 6048 H 562.407 -5.06591 -4.49857 0
M  V30 6049 H 563.35 -6.17938 -3.45771 0
M  V30 6050 H 563.758 -4.43814 -3.48841 0
M  V30 6051 N 563.156 0.464375 -1.50603 0
M  V30 6052 C 564.384 1.23907 -1.65695 0
M  V30 6053 C 564.799 1.85658 -0.343027 0
M  V30 6054 O 564.156 1.69529 0.675739 0
M  V30 6055 C 564.207 2.3429 -2.75301 0
M  V30 6056 O 563.928 1.7507 -4.01599 0
M  V30 6057 C 565.429 3.25051 -3.01424 0
M  V30 6058 H 562.649 0.374485 -0.556778 0
M  V30 6059 H 565.193 0.55353 -1.96866 0
M  V30 6060 H 563.348 2.98607 -2.46804 0
M  V30 6061 H 563.762 2.47812 -4.62266 0
M  V30 6062 H 565.236 3.98699 -3.81763 0
M  V30 6063 H 565.713 3.84227 -2.12758 0
M  V30 6064 H 566.319 2.66463 -3.31477 0
M  V30 6065 N 564.634 1.40294 0.718013 0
M  V30 6066 C 566.05 1.2227 1.02577 0
M  V30 6067 C 566.25 0.0961976 2.0127 0
M  V30 6068 O 565.306 -0.546695 2.46511 0
M  V30 6069 C 566.619 2.56348 1.57182 0
M  V30 6070 C 568.167 2.6334 1.69178 0
M  V30 6071 C 568.642 3.9768 2.27188 0
M  V30 6072 N 570.133 3.99409 2.34578 0
M  V30 6073 C 570.868 5.00141 2.8044 0
M  V30 6074 N 570.364 6.11268 3.26073 0
M  V30 6075 N 572.157 4.87511 2.79802 0
M  V30 6076 H 564.308 2.12304 0.0637899 0
M  V30 6077 H 566.571 0.943632 0.0909036 0
M  V30 6078 H 566.277 3.3942 0.921262 0
M  V30 6079 H 566.151 2.77266 2.55741 0
M  V30 6080 H 568.538 1.80641 2.33351 0
M  V30 6081 H 568.619 2.46255 0.692247 0
M  V30 6082 H 568.263 4.80817 1.63638 0
M  V30 6083 H 568.193 4.12093 3.27852 0
M  V30 6084 H 570.684 3.19162 2.02346 0
M  V30 6085 H 570.997 6.84023 3.59628 0
M  V30 6086 H 569.342 6.14837 3.24038 0
M  V30 6087 H 572.533 3.9979 2.43487 0
M  V30 6088 H 572.706 5.66158 3.15228 0
M  V30 6089 N 566.112 -0.949982 1.2575 0
M  V30 6090 C 567.523 -1.50989 1.09815 0
M  V30 6091 C 567.874 -1.93497 -0.324556 0
M  V30 6092 O 566.999 -1.79068 -1.21506 0
M  V30 6093 C 567.594 -2.74394 1.98729 0
M  V30 6094 C 566.153 -3.26682 1.86965 0
M  V30 6095 C 565.3 -1.99498 1.92603 0
M  V30 6096 H 568.251 -0.766387 1.38968 0
M  V30 6097 H 568.272 -3.48383 1.53001 0
M  V30 6098 H 567.784 -2.43425 3.02268 0
M  V30 6099 H 565.885 -3.62461 0.863279 0
M  V30 6100 H 565.998 -3.94383 2.72027 0
M  V30 6101 H 564.362 -2.15005 1.36546 0
M  V30 6102 H 565.145 -1.70871 2.97755 0
M  V30 6103 N 567.59 -1.07411 -1.15328 0
M  V30 6104 C 568.867 -0.710732 -1.82231 0
M  V30 6105 C 569.247 0.806732 -1.95077 0
M  V30 6106 O 568.595 1.72139 -1.50268 0
M  V30 6107 C 568.805 -1.42586 -3.18544 0
M  V30 6108 C 570.153 -1.57836 -3.94174 0
M  V30 6109 O 571.177 -1.38669 -3.281 0
M  V30 6110 O 570.036 -1.8938 -5.12638 0
M  V30 6111 H 567.13 -0.25297 -0.78736 0
M  V30 6112 H 569.676 -1.17508 -1.22434 0
M  V30 6113 H 568.448 -2.46008 -3.04296 0
M  V30 6114 H 568.071 -0.952332 -3.86026 0
M  V30 6115 N 569.068 1.32177 -0.85831 0
M  V30 6116 C 569.998 2.31282 -0.321041 0
M  V30 6117 C 570.979 1.59841 0.581786 0
M  V30 6118 O 572.164 1.87619 0.501262 0
M  V30 6119 C 569.294 3.4385 0.48832 0
M  V30 6120 C 568.248 4.26799 -0.320391 0
M  V30 6121 C 567.574 5.31164 0.613934 0
M  V30 6122 C 568.874 4.98829 -1.54813 0
M  V30 6123 H 570.568 2.76469 -1.14915 0
M  V30 6124 H 568.114 1.32916 -0.554028 0
M  V30 6125 H 570.067 4.12224 0.874626 0
M  V30 6126 H 568.791 2.97401 1.34983 0
M  V30 6127 H 567.45 3.60077 -0.688497 0
M  V30 6128 H 567.098 4.80967 1.47239 0
M  V30 6129 H 566.798 5.8755 0.0768097 0
M  V30 6130 H 568.322 6.024 0.997336 0
M  V30 6131 H 569.736 5.59864 -1.23392 0
M  V30 6132 H 568.133 5.64957 -2.02346 0
M  V30 6133 H 569.203 4.26483 -2.30739 0
M  V30 6134 N 570.547 0.616602 1.45037 0
M  V30 6135 C 571.958 0.199359 1.85633 0
M  V30 6136 C 572.309 -1.24588 1.51566 0
M  V30 6137 O 571.434 -1.94594 0.94668 0
M  V30 6138 C 572.029 0.355033 3.36935 0
M  V30 6139 C 570.588 -0.00758748 3.76399 0
M  V30 6140 C 569.735 0.675256 2.68953 0
M  V30 6141 H 572.686 0.822708 1.3571 0
M  V30 6142 H 572.707 -0.410201 3.78282 0
M  V30 6143 H 572.219 1.40699 3.61698 0
M  V30 6144 H 570.32 -1.05837 3.57252 0
M  V30 6145 H 570.433 0.392346 4.77491 0
M  V30 6146 H 568.797 0.111992 2.54454 0
M  V30 6147 H 569.58 1.72952 2.96551 0
M  V30 6148 N 572.025 -1.5352 0.356285 0
M  V30 6149 C 573.271 -2.01414 -0.236653 0
M  V30 6150 C 573.604 -1.24339 -1.49176 0
M  V30 6151 O 572.879 -0.334496 -1.91602 0
M  V30 6152 C 573.162 -3.56059 -0.537982 0
M  V30 6153 C 573.015 -4.43835 0.730112 0
M  V30 6154 C 574.334 -4.19127 -1.34239 0
M  V30 6155 H 571.453 -0.732135 -0.0845386 0
M  V30 6156 H 574.095 -1.83854 0.479341 0
M  V30 6157 H 572.245 -3.71153 -1.14795 0
M  V30 6158 H 573.917 -4.40555 1.36782 0
M  V30 6159 H 572.16 -4.1218 1.3524 0
M  V30 6160 H 572.831 -5.49958 0.474358 0
M  V30 6161 H 575.307 -4.07809 -0.826498 0
M  V30 6162 H 574.183 -5.27378 -1.52198 0
M  V30 6163 H 574.444 -3.74581 -2.34822 0
M  V30 6164 N 573.503 -0.0852151 -1.57369 0
M  V30 6165 C 574.751 0.579658 -1.93609 0
M  V30 6166 C 575.072 1.69332 -0.967043 0
M  V30 6167 O 574.342 1.95892 -0.0174215 0
M  V30 6168 H 572.922 0.217113 -0.714752 0
M  V30 6169 H 575.584 -0.146226 -1.94351 0
M  V30 6170 H 574.68 0.996276 -2.95771 0
M  V30 6171 N 574.981 1.5647 0.188427 0
M  V30 6172 C 576.228 1.81013 0.907779 0
M  V30 6173 C 576.556 0.65953 1.82977 0
M  V30 6174 O 575.811 -0.354308 1.92466 0
M  V30 6175 C 576.11 3.11596 1.7505 0
M  V30 6176 C 575.776 4.40145 0.978922 0
M  V30 6177 C 574.438 4.75066 0.765912 0
M  V30 6178 C 576.79 5.19369 0.436498 0
M  V30 6179 C 574.118 5.867 -0.00089868 0
M  V30 6180 C 576.47 6.31805 -0.317136 0
M  V30 6181 C 575.134 6.65303 -0.541103 0
M  V30 6182 H 574.404 0.662373 0.33218 0
M  V30 6183 H 577.051 1.9071 0.173732 0
M  V30 6184 H 575.356 2.97165 2.55343 0
M  V30 6185 H 577.053 3.27793 2.30983 0
M  V30 6186 H 573.643 4.12745 1.15497 0
M  V30 6187 H 577.827 4.92799 0.588449 0
M  V30 6188 H 573.083 6.11122 -0.184329 0
M  V30 6189 H 577.257 6.92406 -0.744788 0
M  V30 6190 H 574.884 7.51646 -1.13718 0
M  V30 6191 N 576.459 -0.456382 1.50847 0
M  V30 6192 C 577.707 -1.20497 1.62249 0
M  V30 6193 C 578.028 -1.92156 0.331839 0
M  V30 6194 O 577.298 -1.84751 -0.651443 0
M  V30 6195 H 575.878 -0.447775 0.597918 0
M  V30 6196 H 578.54 -0.525099 1.87693 0
M  V30 6197 H 577.636 -1.94492 2.44089 0
M  V30 6198 N 577.937 -1.40673 -0.710563 0
M  V30 6199 C 579.185 -1.38947 -1.46759 0
M  V30 6200 C 579.506 0.00572879 -1.94999 0
M  V30 6201 O 578.776 0.961358 -1.70689 0
M  V30 6202 H 577.356 -0.5114 -0.544499 0
M  V30 6203 H 580.018 -1.75773 -0.842012 0
M  V30 6204 H 579.114 -2.06745 -2.33801 0
M  V30 6205 N 579.415 0.9433 -1.26252 0
M  V30 6206 C 580.661 1.69226 -1.12846 0
M  V30 6207 C 581.016 1.8963 0.325282 0
M  V30 6208 O 580.309 1.46435 1.23561 0
M  V30 6209 C 580.503 3.07073 -1.82868 0
M  V30 6210 C 580.332 3.00118 -3.34902 0
M  V30 6211 C 579.102 3.03251 -4.04186 0
M  V30 6212 C 581.3 2.80418 -4.31127 0
M  V30 6213 N 579.282 2.86573 -5.42908 0
M  V30 6214 C 580.653 2.72287 -5.5701 0
M  V30 6215 C 582.708 2.65185 -4.21404 0
M  V30 6216 C 581.411 2.50479 -6.74279 0
M  V30 6217 C 583.437 2.4475 -5.38378 0
M  V30 6218 C 582.799 2.37349 -6.63208 0
M  V30 6219 H 578.898 0.626716 -0.467708 0
M  V30 6220 H 581.482 1.11645 -1.5951 0
M  V30 6221 H 579.653 3.62797 -1.38682 0
M  V30 6222 H 581.385 3.70816 -1.62103 0
M  V30 6223 H 578.14 3.12882 -3.55531 0
M  V30 6224 H 578.564 2.81408 -6.15742 0
M  V30 6225 H 583.206 2.69675 -3.25631 0
M  V30 6226 H 580.924 2.4473 -7.70151 0
M  V30 6227 H 584.51 2.33872 -5.32724 0
M  V30 6228 H 583.39 2.21746 -7.52196 0
M  V30 6229 N 580.893 1.08022 1.14757 0
M  V30 6230 C 581.825 0.664566 2.19354 0
M  V30 6231 C 582.838 -0.286374 1.60261 0
M  V30 6232 O 584.027 -0.0746362 1.78344 0
M  V30 6233 C 581.127 -0.0434634 3.38872 0
M  V30 6234 C 580.3 0.925381 4.27499 0
M  V30 6235 C 579.359 0.253398 5.2559 0
M  V30 6236 O 578.385 0.896581 5.62094 0
M  V30 6237 N 579.587 -0.998263 5.71852 0
M  V30 6238 H 582.352 1.56438 2.55631 0
M  V30 6239 H 579.913 0.965788 1.29939 0
M  V30 6240 H 581.905 -0.503857 4.01551 0
M  V30 6241 H 580.475 -0.845321 3.00954 0
M  V30 6242 H 579.695 1.56472 3.61815 0
M  V30 6243 H 580.983 1.58203 4.8358 0
M  V30 6244 H 580.381 -1.54063 5.44317 0
M  V30 6245 H 578.938 -1.40222 6.36538 0
M  V30 6246 N 582.371 -1.3172 0.865308 0
M  V30 6247 C 583.334 -2.26918 0.322627 0
M  V30 6248 C 584.334 -1.52031 -0.523751 0
M  V30 6249 O 585.524 -1.70973 -0.333727 0
M  V30 6250 C 582.656 -3.36558 -0.542338 0
M  V30 6251 H 583.849 -2.76432 1.16298 0
M  V30 6252 H 581.402 -1.42573 0.640512 0
M  V30 6253 H 582.137 -2.92329 -1.40407 0
M  V30 6254 H 581.922 -3.92048 0.0636395 0
M  V30 6255 H 583.412 -4.07465 -0.91446 0
M  V30 6256 N 583.85 -0.624285 -1.44708 0
M  V30 6257 C 585.096 -0.126237 -2.02407 0
M  V30 6258 C 585.428 1.24618 -1.48943 0
M  V30 6259 O 584.704 1.82569 -0.670742 0
M  V30 6260 C 584.986 -0.105449 -3.59946 0
M  V30 6261 C 584.84 -1.50972 -4.23707 0
M  V30 6262 C 586.159 0.573629 -4.36346 0
M  V30 6263 H 583.278 -0.0473472 -0.735478 0
M  V30 6264 H 585.92 -0.799452 -1.72362 0
M  V30 6265 H 584.07 0.46783 -3.85673 0
M  V30 6266 H 585.742 -2.13136 -4.0911 0
M  V30 6267 H 583.985 -2.0656 -3.81465 0
M  V30 6268 H 584.656 -1.44727 -5.32689 0
M  V30 6269 H 587.132 0.0861787 -4.16011 0
M  V30 6270 H 586.008 0.557338 -5.46063 0
M  V30 6271 H 586.269 1.64276 -4.10446 0
M  V30 6272 N 585.328 1.53329 -0.364422 0
M  V30 6273 C 586.605 1.93557 0.281962 0
M  V30 6274 C 586.985 1.29786 1.6649 0
M  V30 6275 O 586.333 0.456512 2.23893 0
M  V30 6276 C 586.543 3.47405 0.333331 0
M  V30 6277 C 587.891 4.20699 0.574231 0
M  V30 6278 O 588.915 3.53779 0.414588 0
M  V30 6279 O 587.774 5.39287 0.885002 0
M  V30 6280 H 584.868 0.809573 0.168881 0
M  V30 6281 H 587.414 1.64494 -0.417121 0
M  V30 6282 H 586.186 3.86091 -0.636326 0
M  V30 6283 H 585.809 3.82697 1.07836 0
M  V30 6284 N 586.806 0.0935595 1.57322 0
M  V30 6285 C 588.031 -0.582324 1.99057 0
M  V30 6286 C 588.456 -1.61025 0.972242 0
M  V30 6287 O 587.814 -1.81202 -0.0594622 0
M  V30 6288 C 587.862 -1.20799 3.39765 0
M  V30 6289 O 586.966 -2.32382 3.40694 0
M  V30 6290 H 586.307 -0.147884 0.647323 0
M  V30 6291 H 588.837 0.174516 2.03854 0
M  V30 6292 H 588.847 -1.54966 3.77425 0
M  V30 6293 H 587.522 -0.454914 4.13405 0
M  V30 6294 H 586.099 -1.99845 3.14827 0
M  V30 6295 N 588.284 -1.56567 -0.180126 0
M  V30 6296 C 589.512 -1.85618 -0.913972 0
M  V30 6297 C 589.927 -0.677892 -1.7621 0
M  V30 6298 O 589.284 0.353171 -1.7905 0
M  V30 6299 C 589.335 -3.13619 -1.79793 0
M  V30 6300 O 589.056 -4.26906 -0.98402 0
M  V30 6301 C 590.557 -3.55954 -2.64219 0
M  V30 6302 H 587.777 -0.616043 -0.265954 0
M  V30 6303 H 590.321 -2.03681 -0.182872 0
M  V30 6304 H 588.476 -2.97409 -2.48247 0
M  V30 6305 H 588.89 -4.9989 -1.58776 0
M  V30 6306 H 590.364 -4.48444 -3.21873 0
M  V30 6307 H 590.841 -2.79653 -3.38661 0
M  V30 6308 H 591.447 -3.74746 -2.01111 0
M  V30 6309 N 589.762 0.448376 -1.51087 0
M  V30 6310 C 591.173 1.0286 -1.5581 0
M  V30 6311 C 591.524 1.92583 -0.374989 0
M  V30 6312 O 590.649 2.10316 0.509533 0
M  V30 6313 C 591.244 1.87223 -2.8237 0
M  V30 6314 C 589.803 2.40314 -2.897 0
M  V30 6315 C 588.95 1.19238 -2.50355 0
M  V30 6316 H 591.901 0.230075 -1.57023 0
M  V30 6317 H 591.922 2.72553 -2.6551 0
M  V30 6318 H 591.434 1.21894 -3.68461 0
M  V30 6319 H 589.535 3.09129 -2.08014 0
M  V30 6320 H 589.648 2.73866 -3.93108 0
M  V30 6321 H 588.012 1.53428 -2.03303 0
M  V30 6322 H 588.795 0.555367 -3.38778 0
M  V30 6323 N 591.24 1.41047 0.703093 0
M  V30 6324 C 592.172 1.38228 1.82827 0
M  V30 6325 C 593.185 0.285637 1.60275 0
M  V30 6326 O 594.374 0.54685 1.69917 0
M  V30 6327 C 591.474 1.13136 3.19458 0
M  V30 6328 C 590.647 2.34695 3.69103 0
M  V30 6329 C 589.706 2.05574 4.84382 0
M  V30 6330 O 588.732 2.78549 4.96386 0
M  V30 6331 N 589.934 1.04135 5.71083 0
M  V30 6332 H 592.699 2.35203 1.85741 0
M  V30 6333 H 590.26 1.35562 0.885125 0
M  V30 6334 H 592.252 0.916183 3.94193 0
M  V30 6335 H 590.822 0.247836 3.11616 0
M  V30 6336 H 590.042 2.71963 2.85359 0
M  V30 6337 H 591.33 3.15705 3.99009 0
M  V30 6338 H 590.728 0.43722 5.64008 0
M  V30 6339 H 589.285 0.886078 6.45749 0
M  V30 6340 N 592.718 -0.936591 1.26751 0
M  V30 6341 C 593.628 -2.06949 1.10496 0
M  V30 6342 C 594.644 -1.7396 0.037271 0
M  V30 6343 O 595.82 -1.99941 0.241944 0
M  V30 6344 C 592.885 -3.38612 0.744491 0
M  V30 6345 C 591.946 -3.85355 1.89209 0
M  V30 6346 C 591.179 -5.10735 1.54873 0
M  V30 6347 O 591.402 -5.68602 0.452546 0
M  V30 6348 O 590.336 -5.52632 2.38499 0
M  V30 6349 H 594.162 -2.23571 2.05547 0
M  V30 6350 H 591.747 -1.05428 1.05855 0
M  V30 6351 H 593.629 -4.17711 0.556396 0
M  V30 6352 H 592.304 -3.23218 -0.176582 0
M  V30 6353 H 591.211 -3.07182 2.13518 0
M  V30 6354 H 592.544 -4.05277 2.79305 0
M  V30 6355 N 594.196 -1.08629 -1.14182 0
M  V30 6356 C 595.144 -0.71284 -2.21408 0
M  V30 6357 C 596.138 0.282457 -1.67029 0
M  V30 6358 O 597.344 0.144783 -1.79417 0
M  V30 6359 H 593.719 -0.212497 -0.721352 0
M  V30 6360 H 595.69 -1.6265 -2.50175 0
M  V30 6361 C 594.439 -0.140704 -3.47415 0
M  V30 6362 H 593.762 -0.897739 -3.8959 0
M  V30 6363 H 595.202 0.0827677 -4.23919 0
M  V30 6364 C 593.661 1.122 -3.17668 0
M  V30 6365 O 594.191 2.20652 -3.35672 0
M  V30 6366 N 592.397 1.03328 -2.71609 0
M  V30 6367 H 591.944 0.150666 -2.57159 0
M  V30 6368 H 591.902 1.8789 -2.52081 0
M  V30 6369 N 595.674 1.31259 -0.872281 0
M  V30 6370 C 596.899 2.0133 -0.498099 0
M  V30 6371 C 597.324 1.65031 0.902568 0
M  V30 6372 O 596.682 0.860164 1.59596 0
M  V30 6373 C 596.73 3.54411 -0.665205 0
M  V30 6374 O 595.834 4.11347 0.294473 0
M  V30 6375 H 595.175 0.633844 -0.197832 0
M  V30 6376 H 597.705 1.67402 -1.17633 0
M  V30 6377 H 597.715 4.04147 -0.559373 0
M  V30 6378 H 596.39 3.80171 -1.68651 0
M  V30 6379 H 594.967 3.72624 0.143403 0
M  V30 6380 N 597.152 0.631951 1.44375 0
M  V30 6381 C 598.429 0.067646 1.95483 0
M  V30 6382 C 598.809 -1.40683 1.57389 0
M  V30 6383 O 598.157 -2.12167 0.848375 0
M  V30 6384 C 598.367 0.291392 3.47781 0
M  V30 6385 C 599.715 0.185028 4.24197 0
M  V30 6386 O 600.739 0.222803 3.55503 0
M  V30 6387 O 599.598 0.0906642 5.46425 0
M  V30 6388 H 596.692 -0.0218379 0.826712 0
M  V30 6389 H 599.238 0.703711 1.54421 0
M  V30 6390 H 598.01 1.31449 3.68561 0
M  V30 6391 H 597.633 -0.378772 3.95792 0
M  V30 6392 N 598.631 -1.53133 0.372548 0
M  V30 6393 C 599.879 -2.00958 -0.214534 0
M  V30 6394 C 600.2 -1.26135 -1.48711 0
M  V30 6395 O 599.47 -0.376597 -1.92246 0
M  V30 6396 H 598.05 -0.742456 -0.0822664 0
M  V30 6397 H 600.712 -1.88367 0.500385 0
M  V30 6398 H 599.808 -3.09031 -0.436605 0
M  V30 6399 N 600.109 -0.101901 -1.5727 0
M  V30 6400 C 601.042 0.891377 -2.10071 0
M  V30 6401 C 602.02 1.27197 -1.01291 0
M  V30 6402 O 603.204 1.37602 -1.28833 0
M  V30 6403 C 600.331 2.19049 -2.58331 0
M  V30 6404 C 599.377 1.95925 -3.78834 0
M  V30 6405 S 600.21 1.19106 -5.22086 0
M  V30 6406 C 601.366 2.50234 -5.73702 0
M  V30 6407 H 601.599 0.442212 -2.93993 0
M  V30 6408 H 599.132 0.111529 -1.53997 0
M  V30 6409 H 601.09 2.937 -2.86793 0
M  V30 6410 H 599.751 2.61086 -1.74622 0
M  V30 6411 H 598.944 2.92143 -4.10693 0
M  V30 6412 H 598.546 1.29401 -3.50901 0
M  V30 6413 H 600.838 3.46173 -5.82384 0
M  V30 6414 H 601.781 2.22944 -6.72088 0
M  V30 6415 H 602.189 2.58818 -5.01671 0
M  V30 6416 N 601.587 1.56661 0.17182 0
M  V30 6417 C 602.817 1.85831 0.902804 0
M  V30 6418 C 603.225 0.685157 1.76358 0
M  V30 6419 O 602.568 -0.354947 1.80238 0
M  V30 6420 C 602.63 3.09406 1.83053 0
M  V30 6421 C 602.294 4.4231 1.1494 0
M  V30 6422 C 603.291 5.17342 0.515104 0
M  V30 6423 C 600.976 4.89045 1.14631 0
M  V30 6424 C 602.97 6.37299 -0.113194 0
M  V30 6425 C 600.657 6.08933 0.514184 0
M  V30 6426 C 601.655 6.82904 -0.114463 0
M  V30 6427 O 601.343 8.00518 -0.736622 0
M  V30 6428 H 601.075 0.620715 0.267748 0
M  V30 6429 H 603.629 2.04637 0.176918 0
M  V30 6430 H 601.859 2.86544 2.59672 0
M  V30 6431 H 603.548 3.25027 2.4313 0
M  V30 6432 H 604.314 4.82317 0.509474 0
M  V30 6433 H 600.193 4.31409 1.62502 0
M  V30 6434 H 603.737 6.94976 -0.604477 0
M  V30 6435 H 599.634 6.43423 0.517395 0
M  V30 6436 H 600.402 8.16027 -0.635822 0
M  V30 6437 N 603.065 -0.440357 1.51323 0
M  V30 6438 C 604.481 -0.7766 1.39431 0
M  V30 6439 C 604.681 -1.95838 0.474296 0
M  V30 6440 O 603.737 -2.52398 -0.0716692 0
M  V30 6441 C 605.05 -1.05981 2.81405 0
M  V30 6442 C 606.598 -1.16442 2.90534 0
M  V30 6443 C 607.073 -1.48058 4.33408 0
M  V30 6444 N 608.564 -1.54988 4.36501 0
M  V30 6445 C 609.299 -1.81017 5.44078 0
M  V30 6446 N 608.795 -2.04858 6.61819 0
M  V30 6447 N 610.588 -1.82774 5.31554 0
M  V30 6448 H 602.739 0.338006 2.09693 0
M  V30 6449 H 605.002 0.0888072 0.943831 0
M  V30 6450 H 604.708 -0.264173 3.50706 0
M  V30 6451 H 604.582 -1.98822 3.20546 0
M  V30 6452 H 606.969 -1.95068 2.21432 0
M  V30 6453 H 607.05 -0.215088 2.54894 0
M  V30 6454 H 606.694 -0.699605 5.03059 0
M  V30 6455 H 606.624 -2.44192 4.66559 0
M  V30 6456 H 609.115 -1.38479 3.51613 0
M  V30 6457 H 609.428 -2.2408 7.396 0
M  V30 6458 H 607.773 -2.02187 6.6494 0
M  V30 6459 H 610.964 -1.63665 4.38556 0
M  V30 6460 H 611.137 -2.02722 6.15474 0
M  V30 6461 N 604.543 -1.41418 -0.695603 0
M  V30 6462 C 605.783 -1.42241 -1.46788 0
M  V30 6463 C 606.147 -0.0300827 -1.91976 0
M  V30 6464 O 607.348 0.0868914 -2.6866 0
M  V30 6465 C 605.619 -2.4011 -2.6473 0
M  V30 6466 S 607.178 -2.59462 -3.53871 0
M  V30 6467 H 603.996 -0.503893 -0.50161 0
M  V30 6468 H 606.598 -1.77855 -0.811654 0
M  V30 6469 H 605.302 -3.40073 -2.29736 0
M  V30 6470 H 604.833 -2.05849 -3.35246 0
M  V30 6471 H 606.848 -1.862 -4.59939 0
M  V30 6472 N 606.021 0.929856 -1.27246 0
M  V30 6473 C 607.269 1.674 -1.13233 0
M  V30 6474 C 607.59 1.92311 0.322744 0
M  V30 6475 O 606.86 1.52784 1.22612 0
M  V30 6476 H 605.44 0.620411 -0.416052 0
M  V30 6477 H 608.102 1.11663 -1.59741 0
M  V30 6478 H 607.198 2.64308 -1.65975 0
M  V30 6479 N 607.499 1.09233 1.13605 0
M  V30 6480 C 608.91 0.846839 1.6639 0
M  V30 6481 C 609.261 -0.625031 1.85978 0
M  V30 6482 O 608.386 -1.48173 1.57714 0
M  V30 6483 C 608.981 1.5307 3.0225 0
M  V30 6484 C 607.54 1.33223 3.52035 0
M  V30 6485 C 606.687 1.58806 2.27323 0
M  V30 6486 H 609.638 1.25175 0.975541 0
M  V30 6487 H 609.659 0.96267 3.68121 0
M  V30 6488 H 609.171 2.60192 2.87961 0
M  V30 6489 H 607.272 0.282091 3.71531 0
M  V30 6490 H 607.385 2.0657 4.32279 0
M  V30 6491 H 605.749 1.01007 2.33815 0
M  V30 6492 H 606.532 2.67153 2.15602 0
M  V30 6493 N 608.977 -1.30795 0.87923 0
M  V30 6494 C 609.94 -2.26563 0.346676 0
M  V30 6495 C 610.94 -1.52578 -0.507597 0
M  V30 6496 O 612.13 -1.71318 -0.315575 0
M  V30 6497 C 609.262 -3.37115 -0.506611 0
M  V30 6498 H 610.455 -2.75183 1.19223 0
M  V30 6499 H 608.008 -1.41886 0.655598 0
M  V30 6500 H 608.743 -2.93802 -1.37299 0
M  V30 6501 H 608.528 -3.91959 0.105218 0
M  V30 6502 H 610.018 -4.08412 -0.871192 0
M  V30 6503 N 610.455 -0.639598 -1.44038 0
M  V30 6504 C 611.68 -0.153117 -2.06834 0
M  V30 6505 C 612.105 1.16676 -1.47541 0
M  V30 6506 O 611.463 1.71769 -0.580093 0
M  V30 6507 C 611.511 -0.0609169 -3.60549 0
M  V30 6508 O 610.615 0.98071 -4.00569 0
M  V30 6509 H 609.956 -0.0886402 -0.658057 0
M  V30 6510 H 612.486 -0.878674 -1.84771 0
M  V30 6511 H 612.496 0.126892 -4.07803 0
M  V30 6512 H 611.171 -1.0245 -4.03084 0
M  V30 6513 H 609.748 0.766789 -3.64931 0
M  V30 6514 N 611.933 1.52934 -0.380664 0
M  V30 6515 C 613.179 2.01765 0.20458 0
M  V30 6516 C 613.512 1.26696 1.47179 0
M  V30 6517 O 612.787 0.364936 1.91046 0
M  V30 6518 C 613.07 3.56869 0.481269 0
M  V30 6519 C 612.923 4.42617 -0.800629 0
M  V30 6520 C 614.242 4.2121 1.27554 0
M  V30 6521 H 611.361 0.733388 0.0728803 0
M  V30 6522 H 614.003 1.83068 -0.50853 0
M  V30 6523 H 612.153 3.72932 1.08875 0
M  V30 6524 H 613.825 4.38323 -1.43773 0
M  V30 6525 H 612.068 4.09977 -1.4178 0
M  V30 6526 H 612.739 5.49134 -0.561791 0
M  V30 6527 H 615.215 4.09072 0.761514 0
M  V30 6528 H 614.091 5.29732 1.43788 0
M  V30 6529 H 614.352 3.78269 2.28833 0
M  V30 6530 N 613.412 0.11024 1.57214 0
M  V30 6531 C 614.344 -0.873497 2.11902 0
M  V30 6532 C 615.357 -1.23588 1.05971 0
M  V30 6533 O 616.546 -1.18636 1.33371 0
M  V30 6534 C 613.646 -2.17805 2.59643 0
M  V30 6535 C 612.819 -1.98869 3.89576 0
M  V30 6536 C 611.878 -3.12974 4.23006 0
M  V30 6537 O 610.904 -2.86272 4.91973 0
M  V30 6538 N 612.106 -4.39167 3.79622 0
M  V30 6539 H 614.871 -0.406317 2.96933 0
M  V30 6540 H 612.432 -0.074437 1.61729 0
M  V30 6541 H 614.424 -2.93117 2.79042 0
M  V30 6542 H 612.994 -2.55899 1.7954 0
M  V30 6543 H 612.214 -1.078 3.79174 0
M  V30 6544 H 613.502 -1.83512 4.74553 0
M  V30 6545 H 612.9 -4.63739 3.2398 0
M  V30 6546 H 611.457 -5.11379 4.04147 0
M  V30 6547 N 614.89 -1.56749 -0.16351 0
M  V30 6548 C 615.853 -1.96121 -1.18613 0
M  V30 6549 C 616.853 -0.845765 -1.36761 0
M  V30 6550 O 618.043 -1.11268 -1.34033 0
M  V30 6551 C 615.175 -2.26282 -2.54969 0
M  V30 6552 H 616.368 -2.87639 -0.848764 0
M  V30 6553 H 613.921 -1.50928 -0.406251 0
M  V30 6554 H 614.656 -1.37504 -2.93706 0
M  V30 6555 H 614.441 -3.07595 -2.43162 0
M  V30 6556 H 615.931 -2.57638 -3.28653 0
M  V30 6557 N 616.368 0.432326 -1.51554 0
M  V30 6558 C 617.617 1.17831 -1.63703 0
M  V30 6559 C 617.93 1.92229 -0.36156 0
M  V30 6560 O 619.136 2.69069 -0.362495 0
M  V30 6561 C 617.592 2.14318 -2.89129 0
M  V30 6562 C 617.2 1.45544 -4.23699 0
M  V30 6563 C 618.944 2.89319 -3.10636 0
M  V30 6564 C 616.851 2.40545 -5.4027 0
M  V30 6565 H 615.781 0.443533 -0.60975 0
M  V30 6566 H 618.432 0.444878 -1.78026 0
M  V30 6567 H 616.814 2.91117 -2.68452 0
M  V30 6568 H 617.988 0.742693 -4.54775 0
M  V30 6569 H 616.303 0.826772 -4.0811 0
M  V30 6570 H 618.9 3.60495 -3.94902 0
M  V30 6571 H 619.243 3.50951 -2.23918 0
M  V30 6572 H 619.776 2.19625 -3.31677 0
M  V30 6573 H 616.515 1.83594 -6.29264 0
M  V30 6574 H 616.035 3.09859 -5.13563 0
M  V30 6575 H 617.714 3.01569 -5.72421 0
M  V30 6576 N 617.846 1.41785 0.688094 0
M  V30 6577 C 618.793 1.44221 1.80191 0
M  V30 6578 C 619.763 0.295688 1.63447 0
M  V30 6579 O 620.948 0.49783 1.84191 0
M  V30 6580 C 618.088 1.33743 3.1813 0
M  V30 6581 C 617.201 2.58325 3.46254 0
M  V30 6582 C 616.336 2.40086 4.73848 0
M  V30 6583 C 615.375 3.60107 4.94964 0
M  V30 6584 N 614.512 3.40892 6.13789 0
M  V30 6585 H 619.352 2.39411 1.77444 0
M  V30 6586 H 616.889 1.18876 0.866423 0
M  V30 6587 H 618.847 1.25669 3.97823 0
M  V30 6588 H 617.477 0.42157 3.20035 0
M  V30 6589 H 616.529 2.7682 2.60912 0
M  V30 6590 H 617.841 3.4758 3.57756 0
M  V30 6591 H 616.995 2.29522 5.61609 0
M  V30 6592 H 615.734 1.483 4.64606 0
M  V30 6593 H 614.739 3.71118 4.05649 0
M  V30 6594 H 615.964 4.52857 5.06061 0
M  V30 6595 H 613.91 2.51812 6.05745 0
M  V30 6596 H 613.827 4.23727 6.26092 0
M  V30 6597 H 615.095 3.34114 7.04264 0
M  V30 6598 N 619.324 -0.923095 1.27737 0
M  V30 6599 C 620.274 -2.01061 1.0751 0
M  V30 6600 C 621.258 -1.609 0.00165451 0
M  V30 6601 O 622.45 -1.75618 0.220724 0
M  V30 6602 C 619.579 -3.35467 0.729162 0
M  V30 6603 C 618.665 -3.82059 1.84098 0
M  V30 6604 N 619.056 -4.01115 3.08124 0
M  V30 6605 C 617.354 -4.11135 1.7287 0
M  V30 6606 C 618.055 -4.39989 3.80506 0
M  V30 6607 N 617.031 -4.47721 3.08297 0
M  V30 6608 H 620.833 -2.13832 2.01626 0
M  V30 6609 H 618.347 -1.11027 1.18519 0
M  V30 6610 H 620.344 -4.13049 0.565355 0
M  V30 6611 H 619.004 -3.24056 -0.204334 0
M  V30 6612 H 620.015 -3.87294 3.43836 0
M  V30 6613 H 616.692 -4.08412 0.866352 0
M  V30 6614 H 618.082 -4.62773 4.87125 0
M  V30 6615 N 620.802 -1.09834 -1.13024 0
M  V30 6616 C 622.05 -0.835297 -1.8403 0
M  V30 6617 C 622.371 0.640944 -1.84165 0
M  V30 6618 O 621.641 1.46517 -1.30037 0
M  V30 6619 H 620.221 -0.306018 -0.681441 0
M  V30 6620 H 622.883 -1.38734 -1.36891 0
M  V30 6621 H 621.979 -1.19258 -2.88416 0
M  V30 6622 N 622.28 1.30327 -0.886154 0
M  V30 6623 C 623.23 2.25668 -0.325248 0
M  V30 6624 C 624.214 1.51318 0.546972 0
M  V30 6625 O 625.406 1.72623 0.391203 0
M  V30 6626 C 622.535 3.40229 0.458167 0
M  V30 6627 C 621.621 4.21933 -0.428208 0
M  V30 6628 N 622.012 4.82129 -1.52921 0
M  V30 6629 C 620.31 4.45439 -0.223535 0
M  V30 6630 C 621.011 5.43351 -2.07714 0
M  V30 6631 N 619.987 5.26002 -1.37195 0
M  V30 6632 H 623.789 2.69759 -1.1665 0
M  V30 6633 H 621.303 1.4478 -0.735691 0
M  V30 6634 H 623.3 4.07579 0.876648 0
M  V30 6635 H 621.96 2.97678 1.29684 0
M  V30 6636 H 622.971 4.81312 -1.91205 0
M  V30 6637 H 619.648 4.13481 0.577875 0
M  V30 6638 H 621.038 6.01118 -3.00178 0
M  V30 6639 N 623.758 0.647228 1.43697 0
M  V30 6640 C 625.004 0.158422 2.0218 0
M  V30 6641 C 625.337 -1.22233 1.50907 0
M  V30 6642 O 624.612 -1.81478 0.699702 0
M  V30 6643 C 624.895 0.1627 3.59732 0
M  V30 6644 C 624.748 1.57694 4.21251 0
M  V30 6645 C 626.067 -0.504138 4.37203 0
M  V30 6646 H 623.186 0.059042 0.734631 0
M  V30 6647 H 625.828 0.826772 1.71069 0
M  V30 6648 H 623.978 -0.406414 3.86368 0
M  V30 6649 H 625.65 2.19618 4.05667 0
M  V30 6650 H 623.893 2.12603 3.7813 0
M  V30 6651 H 624.564 1.53183 5.3032 0
M  V30 6652 H 627.04 -0.0199841 4.16095 0
M  V30 6653 H 625.916 -0.470394 5.46881 0
M  V30 6654 H 626.177 -1.57726 4.13007 0
M  V30 6655 N 625.236 -1.5273 0.388769 0
M  V30 6656 C 626.476 -2.03483 -0.193372 0
M  V30 6657 C 626.84 -1.26897 -1.44087 0
M  V30 6658 O 628.041 -1.67773 -2.10014 0
M  V30 6659 C 626.312 -3.54488 -0.455325 0
M  V30 6660 S 627.871 -4.27069 -1.00783 0
M  V30 6661 H 624.689 -0.708907 -0.0545131 0
M  V30 6662 H 627.291 -1.8798 0.536993 0
M  V30 6663 H 625.995 -4.07817 0.459722 0
M  V30 6664 H 625.526 -3.74196 -1.21413 0
M  V30 6665 H 627.541 -4.40185 -2.29023 0
M  V30 6666 N 626.714 -0.118576 -1.57153 0
M  V30 6667 C 627.961 0.539526 -1.9518 0
M  V30 6668 C 628.289 1.66714 -1.00184 0
M  V30 6669 O 627.544 1.95683 -0.0256482 0
M  V30 6670 C 627.843 1.11303 -3.39627 0
M  V30 6671 C 627.509 0.106809 -4.50773 0
M  V30 6672 C 626.171 -0.169876 -4.809 0
M  V30 6673 C 628.523 -0.57895 -5.17975 0
M  V30 6674 C 625.851 -1.13861 -5.75545 0
M  V30 6675 C 628.203 -1.53631 -6.13661 0
M  V30 6676 C 626.867 -1.82099 -6.42181 0
M  V30 6677 H 626.137 0.197427 -0.714215 0
M  V30 6678 H 628.784 -0.199391 -1.90459 0
M  V30 6679 H 627.089 1.92869 -3.4104 0
M  V30 6680 H 628.786 1.63032 -3.66363 0
M  V30 6681 H 625.376 0.332645 -4.27307 0
M  V30 6682 H 629.56 -0.378359 -4.94856 0
M  V30 6683 H 624.816 -1.36592 -5.95947 0
M  V30 6684 H 628.99 -2.07337 -6.64819 0
M  V30 6685 H 626.617 -2.57319 -7.15326 0
M  V30 6686 N 628.193 1.56834 0.155195 0
M  V30 6687 C 629.125 1.94235 1.21677 0
M  V30 6688 C 630.138 0.83724 1.39621 0
M  V30 6689 O 631.327 1.11567 1.39338 0
M  V30 6690 C 628.427 2.19402 2.58294 0
M  V30 6691 C 627.6 3.50671 2.61436 0
M  V30 6692 C 626.659 3.64475 3.79532 0
M  V30 6693 O 625.685 4.36945 3.64784 0
M  V30 6694 N 626.887 3.00526 4.96653 0
M  V30 6695 H 629.652 2.85901 0.898932 0
M  V30 6696 H 627.213 1.58185 0.34483 0
M  V30 6697 H 629.205 2.25886 3.35794 0
M  V30 6698 H 627.775 1.34042 2.82403 0
M  V30 6699 H 626.995 3.55702 1.69912 0
M  V30 6700 H 628.283 4.3702 2.60559 0
M  V30 6701 H 627.681 2.41549 5.11538 0
M  V30 6702 H 626.238 3.12583 5.71958 0
M  V30 6703 N 629.671 -0.424282 1.51781 0
M  V30 6704 C 630.918 -1.1726 1.65095 0
M  V30 6705 C 631.246 -1.90881 0.373477 0
M  V30 6706 O 630.501 -1.84835 -0.642997 0
M  V30 6707 C 630.8 -2.20418 2.81337 0
M  V30 6708 C 630.466 -1.63715 4.20129 0
M  V30 6709 C 629.128 -1.47975 4.57883 0
M  V30 6710 C 631.48 -1.22157 5.06682 0
M  V30 6711 C 628.808 -0.891703 5.79884 0
M  V30 6712 C 631.16 -0.647767 6.29275 0
M  V30 6713 C 629.824 -0.477371 6.65791 0
M  V30 6714 H 629.094 -0.429085 0.604125 0
M  V30 6715 H 631.741 -0.461852 1.85847 0
M  V30 6716 H 630.046 -2.97581 2.54859 0
M  V30 6717 H 631.743 -2.78163 2.88836 0
M  V30 6718 H 628.333 -1.76946 3.90369 0
M  V30 6719 H 632.517 -1.33133 4.7811 0
M  V30 6720 H 627.773 -0.747563 6.06813 0
M  V30 6721 H 631.947 -0.317291 6.95677 0
M  V30 6722 H 629.574 -0.0195936 7.60197 0
M  V30 6723 N 631.149 -1.42148 -0.680565 0
M  V30 6724 C 632.426 -1.32795 -1.43614 0
M  V30 6725 C 632.806 0.037415 -2.11067 0
M  V30 6726 O 632.154 1.05258 -2.02813 0
M  V30 6727 C 632.364 -2.49206 -2.44331 0
M  V30 6728 C 633.712 -2.91059 -3.09144 0
M  V30 6729 O 634.736 -2.49054 -2.54657 0
M  V30 6730 O 633.595 -3.63741 -4.07866 0
M  V30 6731 H 630.689 -0.523397 -0.640301 0
M  V30 6732 H 633.235 -1.54144 -0.709775 0
M  V30 6733 H 632.007 -3.40252 -1.93247 0
M  V30 6734 H 631.63 -2.29813 -3.24456 0
M  V30 6735 N 632.627 0.916307 -1.28225 0
M  V30 6736 C 633.59 1.99996 -1.11957 0
M  V30 6737 C 634.59 1.60688 -0.0600152 0
M  V30 6738 O 635.78 1.71499 -0.30558 0
M  V30 6739 C 632.912 3.33458 -0.708411 0
M  V30 6740 H 634.105 2.15858 -2.08196 0
M  V30 6741 H 631.658 1.09863 -1.11175 0
M  V30 6742 H 632.393 3.23297 0.254859 0
M  V30 6743 H 632.178 3.63349 -1.47377 0
M  V30 6744 H 633.668 4.13014 -0.617164 0
M  V30 6745 N 634.105 1.10431 1.1244 0
M  V30 6746 C 635.516 0.864439 1.65482 0
M  V30 6747 C 635.867 -0.60527 1.8663 0
M  V30 6748 O 634.992 -1.46492 1.59276 0
M  V30 6749 C 635.587 1.56267 3.0061 0
M  V30 6750 C 634.146 1.3695 3.50602 0
M  V30 6751 C 633.293 1.61209 2.25626 0
M  V30 6752 H 636.244 1.26203 0.962209 0
M  V30 6753 H 636.265 1.00166 3.67079 0
M  V30 6754 H 635.777 2.63231 2.85186 0
M  V30 6755 H 633.878 0.321481 3.71211 0
M  V30 6756 H 633.991 2.11143 4.30064 0
M  V30 6757 H 632.355 1.03482 2.32731 0
M  V30 6758 H 633.138 2.69425 2.12756 0
M  V30 6759 N 635.583 -1.29855 0.893053 0
M  V30 6760 C 636.83 -1.95826 0.515585 0
M  V30 6761 C 637.158 -1.70451 -0.936842 0
M  V30 6762 O 636.413 -1.00657 -1.67829 0
M  V30 6763 C 636.712 -3.49515 0.746588 0
M  V30 6764 C 636.378 -3.94955 2.17535 0
M  V30 6765 C 635.04 -4.07073 2.56603 0
M  V30 6766 C 637.392 -4.18536 3.10607 0
M  V30 6767 C 634.72 -4.40138 3.87938 0
M  V30 6768 C 637.072 -4.53073 4.41484 0
M  V30 6769 C 635.736 -4.634 4.80434 0
M  V30 6770 H 635.006 -0.71658 0.188666 0
M  V30 6771 H 637.653 -1.54574 1.13045 0
M  V30 6772 H 635.958 -3.9177 0.0487551 0
M  V30 6773 H 637.655 -3.98644 0.434009 0
M  V30 6774 H 634.245 -3.86035 1.86212 0
M  V30 6775 H 638.429 -4.08646 2.81641 0
M  V30 6776 H 633.685 -4.46335 4.17846 0
M  V30 6777 H 637.859 -4.70269 5.13634 0
M  V30 6778 H 635.486 -4.88775 5.82239 0
M  V30 6779 N 637.061 -0.65484 -1.43351 0
M  V30 6780 C 638.307 -0.169142 -2.02093 0
M  V30 6781 C 638.64 1.21431 -1.51553 0
M  V30 6782 O 637.915 1.81105 -0.709317 0
M  V30 6783 C 638.198 -0.181775 -3.59641 0
M  V30 6784 C 638.051 -1.59926 -4.20409 0
M  V30 6785 C 639.37 0.480945 -4.37464 0
M  V30 6786 H 636.489 -0.0629371 -0.734308 0
M  V30 6787 H 639.131 -0.835833 -1.70628 0
M  V30 6788 H 637.281 0.385918 -3.86578 0
M  V30 6789 H 638.953 -2.21766 -4.04497 0
M  V30 6790 H 637.196 -2.14605 -3.76998 0
M  V30 6791 H 637.867 -1.55994 -5.295 0
M  V30 6792 H 640.343 -0.00208273 -4.161 0
M  V30 6793 H 639.219 0.441384 -5.47122 0
M  V30 6794 H 639.48 1.55533 -4.13838 0
M  V30 6795 N 638.539 1.52521 -0.396863 0
M  V30 6796 C 639.786 2.01672 0.182898 0
M  V30 6797 C 640.114 1.28302 1.46181 0
M  V30 6798 O 639.369 0.374118 1.92091 0
M  V30 6799 C 639.668 3.5403 0.489677 0
M  V30 6800 C 639.334 4.45456 -0.698581 0
M  V30 6801 C 637.996 4.70166 -1.02454 0
M  V30 6802 C 640.348 4.99354 -1.49316 0
M  V30 6803 C 637.676 5.46024 -2.1465 0
M  V30 6804 C 640.028 5.76439 -2.60579 0
M  V30 6805 C 638.692 5.99426 -2.93675 0
M  V30 6806 H 637.962 0.737971 0.066927 0
M  V30 6807 H 640.609 1.83853 -0.535764 0
M  V30 6808 H 638.914 3.69963 1.28976 0
M  V30 6809 H 640.611 3.8956 0.951018 0
M  V30 6810 H 637.201 4.26392 -0.434525 0
M  V30 6811 H 641.385 4.80182 -1.25457 0
M  V30 6812 H 636.641 5.62046 -2.40654 0
M  V30 6813 H 640.815 6.17202 -3.22544 0
M  V30 6814 H 638.442 6.57988 -3.80731 0
M  V30 6815 N 640.017 0.126909 1.57088 0
M  V30 6816 C 640.98 -0.806097 2.14557 0
M  V30 6817 C 641.98 -1.18918 1.08236 0
M  V30 6818 O 643.17 -1.11339 1.33975 0
M  V30 6819 C 640.302 -2.09116 2.69227 0
M  V30 6820 H 641.495 -0.306522 2.98329 0
M  V30 6821 H 639.048 -0.122393 1.5582 0
M  V30 6822 H 639.783 -2.63486 1.89065 0
M  V30 6823 H 639.568 -1.82588 3.46993 0
M  V30 6824 H 641.058 -2.75794 3.13572 0
M  V30 6825 N 641.495 -1.56914 -0.146875 0
M  V30 6826 C 642.405 -2.0154 -1.20079 0
M  V30 6827 C 643.421 -0.930838 -1.47008 0
M  V30 6828 O 644.597 -1.24032 -1.58676 0
M  V30 6829 C 641.662 -2.38715 -2.51428 0
M  V30 6830 C 640.723 -3.6112 -2.32145 0
M  V30 6831 C 639.956 -3.96512 -3.57231 0
M  V30 6832 O 640.179 -3.32566 -4.63418 0
M  V30 6833 O 639.113 -4.89758 -3.49887 0
M  V30 6834 H 642.939 -2.91506 -0.851924 0
M  V30 6835 H 640.524 -1.45106 -0.355607 0
M  V30 6836 H 642.406 -2.63485 -3.28867 0
M  V30 6837 H 641.081 -1.51903 -2.85845 0
M  V30 6838 H 639.988 -3.41536 -1.52656 0
M  V30 6839 H 641.321 -4.48549 -2.02644 0
M  V30 6840 N 642.974 0.416227 -1.52004 0
M  V30 6841 C 644.22 1.16555 -1.6596 0
M  V30 6842 C 644.553 1.90347 -0.384906 0
M  V30 6843 O 643.828 1.84474 0.616405 0
M  V30 6844 C 644.111 2.1657 -2.87696 0
M  V30 6845 C 643.964 1.46722 -4.25197 0
M  V30 6846 C 645.283 3.17321 -3.04951 0
M  V30 6847 H 642.402 0.422369 -0.603965 0
M  V30 6848 H 645.044 0.452141 -1.84542 0
M  V30 6849 H 643.194 2.77411 -2.71985 0
M  V30 6850 H 644.866 0.89056 -4.52622 0
M  V30 6851 H 643.109 0.769263 -4.26925 0
M  V30 6852 H 643.78 2.19665 -5.0641 0
M  V30 6853 H 646.256 2.66552 -3.19514 0
M  V30 6854 H 645.132 3.84573 -3.91656 0
M  V30 6855 H 645.393 3.84643 -2.17951 0
M  V30 6856 N 644.452 1.42507 0.673017 0
M  V30 6857 C 645.4 1.46362 1.80779 0
M  V30 6858 C 646.394 0.339166 1.6597 0
M  V30 6859 O 647.6 0.512262 1.72557 0
M  V30 6860 H 643.975 0.458433 0.596107 0
M  V30 6861 H 645.946 2.41953 1.74646 0
M  V30 6862 C 644.695 1.38462 3.18941 0
M  V30 6863 H 644.018 2.24283 3.30964 0
M  V30 6864 H 645.458 1.45221 3.98355 0
M  V30 6865 C 643.917 0.0996354 3.36753 0
M  V30 6866 O 644.447 -0.846894 3.92671 0
M  V30 6867 N 642.653 0.016211 2.90595 0
M  V30 6868 H 642.2 0.78725 2.45276 0
M  V30 6869 H 642.158 -0.84291 3.0289 0
M  V30 6870 N 645.93 -0.909495 1.28709 0
M  V30 6871 C 647.155 -1.69801 1.1909 0
M  V30 6872 C 647.58 -1.86479 -0.246388 0
M  V30 6873 O 646.938 -1.37802 -1.17815 0
M  V30 6874 C 646.986 -3.06543 1.89904 0
M  V30 6875 O 646.09 -3.94268 1.2094 0
M  V30 6876 H 645.431 -0.519783 0.413185 0
M  V30 6877 H 647.961 -1.13689 1.70106 0
M  V30 6878 H 647.971 -3.56748 1.97977 0
M  V30 6879 H 646.646 -2.93722 2.94449 0
M  V30 6880 H 645.223 -3.52702 1.2106 0
M  V30 6881 N 647.408 -1.11026 -1.11852 0
M  V30 6882 C 648.685 -0.768347 -1.79877 0
M  V30 6883 C 649.065 0.744261 -1.97545 0
M  V30 6884 O 648.413 1.67271 -1.55669 0
M  V30 6885 C 648.623 -1.52648 -3.13846 0
M  V30 6886 C 649.971 -1.70297 -3.88953 0
M  V30 6887 O 650.995 -1.49037 -3.23522 0
M  V30 6888 O 649.854 -2.05593 -5.06353 0
M  V30 6889 H 646.948 -0.277891 -0.778913 0
M  V30 6890 H 649.494 -1.21343 -1.18633 0
M  V30 6891 H 648.266 -2.55564 -2.96315 0
M  V30 6892 H 647.889 -1.07466 -3.82801 0
M  V30 6893 N 648.886 1.2938 -0.899927 0
M  V30 6894 C 649.816 2.30144 -0.39446 0
M  V30 6895 C 650.797 1.61611 0.530639 0
M  V30 6896 O 651.982 1.89119 0.441319 0
M  V30 6897 C 649.112 3.45229 0.37868 0
M  V30 6898 C 648.066 4.25564 -0.456012 0
M  V30 6899 C 647.392 5.32848 0.444637 0
M  V30 6900 C 648.692 4.93651 -1.70605 0
M  V30 6901 H 650.386 2.72673 -1.23653 0
M  V30 6902 H 647.932 1.31086 -0.596034 0
M  V30 6903 H 649.885 4.14797 0.743037 0
M  V30 6904 H 648.609 3.01545 1.25453 0
M  V30 6905 H 647.268 3.57704 -0.802704 0
M  V30 6906 H 646.916 4.85408 1.31863 0
M  V30 6907 H 646.616 5.87497 -0.110154 0
M  V30 6908 H 648.14 6.05268 0.805182 0
M  V30 6909 H 649.554 5.55655 -1.41141 0
M  V30 6910 H 647.951 5.58233 -2.20217 0
M  V30 6911 H 649.021 4.18926 -2.4419 0
M  V30 6912 N 650.364 0.662433 1.43002 0
M  V30 6913 C 651.613 0.176873 2.00923 0
M  V30 6914 C 651.926 -1.21954 1.52927 0
M  V30 6915 O 653.132 -1.80081 2.03182 0
M  V30 6916 C 651.588 0.265379 3.5892 0
M  V30 6917 C 651.196 1.66507 4.15908 0
M  V30 6918 C 652.94 -0.162103 4.2419 0
M  V30 6919 C 650.847 1.707 5.66229 0
M  V30 6920 H 649.777 0.0623627 0.751417 0
M  V30 6921 H 652.428 0.825813 1.63868 0
M  V30 6922 H 650.81 -0.451235 3.93421 0
M  V30 6923 H 651.984 2.40777 3.92891 0
M  V30 6924 H 650.299 2.03932 3.63044 0
M  V30 6925 H 652.896 -0.150745 5.34487 0
M  V30 6926 H 653.239 -1.19519 3.98774 0
M  V30 6927 H 653.772 0.503075 3.94606 0
M  V30 6928 H 650.511 2.7195 5.96426 0
M  V30 6929 H 650.031 1.00768 5.91275 0
M  V30 6930 H 651.71 1.45487 6.3043 0
M  V30 6931 N 651.842 -1.52309 0.404946 0
M  V30 6932 C 653.072 -2.05886 -0.171569 0
M  V30 6933 C 653.48 -1.27527 -1.39762 0
M  V30 6934 O 652.823 -0.319215 -1.80905 0
M  V30 6935 C 652.885 -3.54609 -0.590983 0
M  V30 6936 C 652.549 -4.53989 0.523757 0
M  V30 6937 C 653.546 -5.01084 1.38604 0
M  V30 6938 C 651.231 -4.97465 0.695255 0
M  V30 6939 C 653.225 -5.90295 2.4048 0
M  V30 6940 C 650.912 -5.86473 1.71733 0
M  V30 6941 C 651.91 -6.32782 2.57051 0
M  V30 6942 O 651.598 -7.20029 3.57509 0
M  V30 6943 H 651.33 -0.675508 -0.0257763 0
M  V30 6944 H 653.884 -1.97238 0.573278 0
M  V30 6945 H 652.114 -3.60929 -1.38805 0
M  V30 6946 H 653.803 -3.90853 -1.09494 0
M  V30 6947 H 654.569 -4.68214 1.26492 0
M  V30 6948 H 650.448 -4.60982 0.0408447 0
M  V30 6949 H 653.992 -6.26363 3.07108 0
M  V30 6950 H 649.889 -6.18756 1.83877 0
M  V30 6951 H 650.657 -7.3813 3.53703 0
M  V30 6952 N 653.32 -0.135238 -1.57019 0
M  V30 6953 C 654.569 0.518694 -1.94917 0
M  V30 6954 C 654.882 1.66783 -1.0219 0
M  V30 6955 O 656.088 2.38561 -1.29619 0
M  V30 6956 C 654.544 0.974123 -3.46466 0
M  V30 6957 C 654.152 -0.147439 -4.47757 0
M  V30 6958 C 655.896 1.59851 -3.93253 0
M  V30 6959 C 653.803 0.325599 -5.90503 0
M  V30 6960 H 652.733 0.19754 -0.727663 0
M  V30 6961 H 655.384 -0.217698 -1.82204 0
M  V30 6962 H 653.766 1.76542 -3.5447 0
M  V30 6963 H 654.94 -0.924122 -4.51438 0
M  V30 6964 H 653.255 -0.679496 -4.10818 0
M  V30 6965 H 655.852 1.96385 -4.9733 0
M  V30 6966 H 656.195 2.48306 -3.3414 0
M  V30 6967 H 656.728 0.872323 -3.88118 0
M  V30 6968 H 653.467 -0.523295 -6.53408 0
M  V30 6969 H 652.987 1.06841 -5.90208 0
M  V30 6970 H 654.666 0.781498 -6.42263 0
M  V30 6971 N 654.798 1.5699 0.138552 0
M  V30 6972 C 656.026 1.87976 0.864437 0
M  V30 6973 C 656.441 0.724372 1.74351 0
M  V30 6974 O 655.798 -0.305575 1.79924 0
M  V30 6975 C 655.849 3.18276 1.71414 0
M  V30 6976 O 655.57 4.29365 0.870487 0
M  V30 6977 C 657.071 3.62834 2.54688 0
M  V30 6978 H 654.291 0.622878 0.249528 0
M  V30 6979 H 656.835 2.04094 0.128805 0
M  V30 6980 H 654.99 3.03886 2.40274 0
M  V30 6981 H 655.404 5.03924 1.45466 0
M  V30 6982 H 656.878 4.5682 3.0987 0
M  V30 6983 H 657.355 2.88533 3.31127 0
M  V30 6984 H 657.961 3.79946 1.91105 0
M  V30 6985 N 656.276 -0.40816 1.52223 0
M  V30 6986 C 657.239 -1.48 1.7501 0
M  V30 6987 C 658.239 -1.48367 0.619996 0
M  V30 6988 O 659.429 -1.49874 0.887881 0
M  V30 6989 C 656.561 -2.87403 1.83336 0
M  V30 6990 H 657.754 -1.29086 2.70697 0
M  V30 6991 H 655.307 -0.638715 1.42654 0
M  V30 6992 H 656.042 -3.11686 0.895677 0
M  V30 6993 H 655.827 -2.8854 2.65494 0
M  V30 6994 H 657.317 -3.65103 2.02705 0
M  V30 6995 N 657.755 -1.42862 -0.66545 0
M  V30 6996 C 658.702 -1.4707 -1.77874 0
M  V30 6997 C 659.672 -0.321654 -1.62956 0
M  V30 6998 O 660.857 -0.52707 -1.83376 0
M  V30 6999 C 657.997 -1.38788 -3.15962 0
M  V30 7000 C 657.11 -2.63801 -3.42101 0
M  V30 7001 C 656.245 -2.47594 -4.69969 0
M  V30 7002 C 655.284 -3.67936 -4.89172 0
M  V30 7003 N 654.421 -3.50614 -6.08288 0
M  V30 7004 H 659.261 -2.42204 -1.73613 0
M  V30 7005 H 656.798 -1.20239 -0.847401 0
M  V30 7006 H 658.756 -1.31982 -3.95773 0
M  V30 7007 H 657.386 -0.472431 -3.19324 0
M  V30 7008 H 656.438 -2.80935 -2.56475 0
M  V30 7009 H 657.75 -3.53228 -3.52181 0
M  V30 7010 H 656.904 -2.38427 -5.57886 0
M  V30 7011 H 655.643 -1.55672 -4.62188 0
M  V30 7012 H 654.648 -3.77525 -3.99694 0
M  V30 7013 H 655.873 -4.60851 -4.98792 0
M  V30 7014 H 653.819 -2.61417 -6.01662 0
M  V30 7015 H 653.736 -4.33634 -6.19272 0
M  V30 7016 H 655.004 -3.45276 -6.98859 0
M  V30 7017 N 659.233 0.902656 -1.29189 0
M  V30 7018 C 660.18 2.00643 -1.14066 0
M  V30 7019 C 661.15 1.66064 -0.0347756 0
M  V30 7020 O 662.335 1.8973 -0.201752 0
M  V30 7021 C 659.475 3.35214 -0.820104 0
M  V30 7022 C 658.588 3.82594 -2.00614 0
M  V30 7023 C 657.723 5.05727 -1.62522 0
M  V30 7024 C 656.762 5.45469 -2.77724 0
M  V30 7025 N 655.899 6.59789 -2.40048 0
M  V30 7026 H 660.739 2.1291 -2.08502 0
M  V30 7027 H 658.276 1.04271 -1.03759 0
M  V30 7028 H 660.234 4.12643 -0.614949 0
M  V30 7029 H 658.864 3.22682 0.0873452 0
M  V30 7030 H 657.916 3.01226 -2.32308 0
M  V30 7031 H 659.228 4.07999 -2.86946 0
M  V30 7032 H 658.382 5.90732 -1.38277 0
M  V30 7033 H 657.121 4.82155 -0.733333 0
M  V30 7034 H 656.126 4.59 -3.02653 0
M  V30 7035 H 657.351 5.71024 -3.67572 0
M  V30 7036 H 655.297 6.37826 -1.53343 0
M  V30 7037 H 655.214 6.84975 -3.19914 0
M  V30 7038 H 656.482 7.4807 -2.19116 0
M  V30 7039 N 660.711 1.11618 1.11262 0
M  V30 7040 C 661.988 0.777876 1.79467 0
M  V30 7041 C 662.368 -0.733774 1.97937 0
M  V30 7042 O 661.716 -1.66443 1.56554 0
M  V30 7043 C 661.926 1.5431 3.13032 0
M  V30 7044 C 663.274 1.72357 3.88044 0
M  V30 7045 O 664.298 1.5075 3.22727 0
M  V30 7046 O 663.157 2.08276 5.05256 0
M  V30 7047 H 660.251 0.282018 0.777428 0
M  V30 7048 H 662.797 1.21971 1.17988 0
M  V30 7049 H 661.569 2.57132 2.94956 0
M  V30 7050 H 661.192 1.09495 3.82226 0
M  V30 7051 N 662.189 -1.289 0.906776 0
M  V30 7052 C 663.437 -1.94883 0.535266 0
M  V30 7053 C 663.758 -1.71784 -0.922791 0
M  V30 7054 O 663.028 -1.05359 -1.65156 0
M  V30 7055 H 661.608 -0.721109 0.194962 0
M  V30 7056 H 664.27 -1.57018 1.15461 0
M  V30 7057 H 663.366 -3.03591 0.723821 0
M  V30 7058 N 663.667 -0.670007 -1.42649 0
M  V30 7059 C 664.895 -0.19854 -2.05945 0
M  V30 7060 C 665.31 1.14243 -1.50313 0
M  V30 7061 O 664.667 1.70872 -0.641027 0
M  V30 7062 C 664.718 -0.11966 -3.61302 0
M  V30 7063 O 664.439 -1.40764 -4.1487 0
M  V30 7064 C 665.94 0.375878 -4.41704 0
M  V30 7065 H 663.16 -0.0976894 -0.663851 0
M  V30 7066 H 665.704 -0.915392 -1.82868 0
M  V30 7067 H 663.859 0.547851 -3.83507 0
M  V30 7068 H 664.273 -1.27784 -5.08696 0
M  V30 7069 H 665.747 0.379988 -5.50691 0
M  V30 7070 H 666.224 1.41028 -4.15942 0
M  V30 7071 H 666.83 -0.259727 -4.24506 0
M  V30 7072 N 665.145 1.52092 -0.413018 0
M  V30 7073 C 666.095 2.23947 0.427993 0
M  V30 7074 C 667.079 1.25229 1.01027 0
M  V30 7075 O 668.271 1.50448 0.932444 0
M  V30 7076 C 665.4 3.0672 1.542 0
M  V30 7077 C 664.486 4.12851 0.970307 0
M  V30 7078 N 664.877 5.05644 0.125611 0
M  V30 7079 C 663.175 4.28404 1.24042 0
M  V30 7080 C 663.876 5.8138 -0.192876 0
M  V30 7081 N 662.852 5.41996 0.417273 0
M  V30 7082 H 666.654 2.93048 -0.223628 0
M  V30 7083 H 664.168 1.60852 -0.223664 0
M  V30 7084 H 666.165 3.56754 2.15714 0
M  V30 7085 H 664.825 2.39159 2.19621 0
M  V30 7086 H 665.836 5.17348 -0.238995 0
M  V30 7087 H 662.513 3.72071 1.89391 0
M  V30 7088 H 663.903 6.66129 -0.878762 0
M  V30 7089 N 666.623 0.143563 1.56945 0
M  V30 7090 C 667.869 -0.50916 1.96304 0
M  V30 7091 C 668.202 -1.64741 1.0283 0
M  V30 7092 O 667.477 -1.94374 0.0700361 0
M  V30 7093 C 667.76 -1.0186 3.45393 0
M  V30 7094 C 667.613 0.117923 4.49645 0
M  V30 7095 C 668.932 -1.90151 3.96901 0
M  V30 7096 H 666.051 -0.183608 0.713763 0
M  V30 7097 H 668.693 0.224095 1.88674 0
M  V30 7098 H 666.843 -1.64345 3.52027 0
M  V30 7099 H 668.515 0.754145 4.55094 0
M  V30 7100 H 666.758 0.777568 4.26774 0
M  V30 7101 H 667.429 -0.280187 5.51288 0
M  V30 7102 H 669.905 -1.375 3.92725 0
M  V30 7103 H 668.781 -2.22707 5.0169 0
M  V30 7104 H 669.042 -2.83718 3.39052 0
M  V30 7105 N 668.101 -1.57061 -0.130224 0
M  V30 7106 C 669.347 -1.8453 -0.841216 0
M  V30 7107 C 669.68 -0.727666 -1.80052 0
M  V30 7108 O 668.955 0.267419 -1.92653 0
M  V30 7109 C 669.238 -3.22553 -1.60099 0
M  V30 7110 C 669.091 -4.44901 -0.662048 0
M  V30 7111 C 670.41 -3.58003 -2.55973 0
M  V30 7112 H 667.529 -0.671215 -0.304366 0
M  V30 7113 H 670.171 -1.89705 -0.105821 0
M  V30 7114 H 668.321 -3.18272 -2.22789 0
M  V30 7115 H 669.993 -4.61278 -0.0448559 0
M  V30 7116 H 668.236 -4.33791 0.0272253 0
M  V30 7117 H 668.907 -5.3812 -1.23006 0
M  V30 7118 H 671.383 -3.63002 -2.03393 0
M  V30 7119 H 670.259 -4.55576 -3.06172 0
M  V30 7120 H 670.52 -2.84833 -3.38116 0
M  V30 7121 N 669.579 0.400081 -1.52437 0
M  V30 7122 C 670.489 1.51253 -1.79331 0
M  V30 7123 C 671.505 1.60188 -0.679396 0
M  V30 7124 O 672.681 1.76733 -0.965791 0
M  V30 7125 C 669.746 2.869 -1.94652 0
M  V30 7126 C 668.807 2.87777 -3.18564 0
M  V30 7127 C 668.04 4.16954 -3.33145 0
M  V30 7128 O 668.263 5.11329 -2.52783 0
M  V30 7129 O 667.197 4.2487 -4.26343 0
M  V30 7130 H 671.023 1.31461 -2.73773 0
M  V30 7131 H 668.608 0.586834 -1.37392 0
M  V30 7132 H 670.49 3.67336 -2.065 0
M  V30 7133 H 669.165 3.06741 -1.034 0
M  V30 7134 H 668.072 2.06162 -3.12167 0
M  V30 7135 H 669.405 2.72886 -4.09627 0
M  V30 7136 N 671.057 1.43213 0.657864 0
M  V30 7137 C 672.005 1.48271 1.79216 0
M  V30 7138 C 672.999 0.35675 1.65601 0
M  V30 7139 O 674.205 0.530535 1.72004 0
M  V30 7140 H 670.58 0.464729 0.591211 0
M  V30 7141 H 672.551 2.43792 1.7207 0
M  V30 7142 C 671.3 1.41837 3.17455 0
M  V30 7143 H 670.623 2.27781 3.28567 0
M  V30 7144 H 672.063 1.49438 3.96793 0
M  V30 7145 C 670.522 0.135347 3.36628 0
M  V30 7146 O 671.052 -0.805199 3.93547 0
M  V30 7147 N 669.258 0.0470316 2.90562 0
M  V30 7148 H 668.805 0.813221 2.44427 0
M  V30 7149 H 668.763 -0.810737 3.03767 0
M  V30 7150 N 672.536 -0.895792 1.29666 0
M  V30 7151 C 673.782 -1.64908 1.18039 0
M  V30 7152 C 674.115 -1.9236 -0.266682 0
M  V30 7153 O 673.39 -1.53682 -1.19214 0
M  V30 7154 C 673.673 -2.99574 1.99819 0
M  V30 7155 C 673.526 -2.79163 3.52687 0
M  V30 7156 C 674.845 -4.00358 1.82761 0
M  V30 7157 H 671.964 -0.598437 0.430165 0
M  V30 7158 H 674.606 -1.03736 1.59182 0
M  V30 7159 H 672.756 -3.51786 1.64859 0
M  V30 7160 H 674.428 -2.33821 3.9765 0
M  V30 7161 H 672.671 -2.13871 3.77414 0
M  V30 7162 H 673.342 -3.74871 4.05186 0
M  V30 7163 H 675.818 -3.57268 2.13304 0
M  V30 7164 H 674.694 -4.92514 2.42325 0
M  V30 7165 H 674.955 -4.35096 0.783839 0
M  V30 7166 N 674.014 -1.12206 -1.10668 0
M  V30 7167 C 675.291 -0.787382 -1.79052 0
M  V30 7168 C 675.671 0.723267 -1.98323 0
M  V30 7169 O 675.019 1.6561 -1.57434 0
M  V30 7170 C 675.229 -1.55968 -3.1221 0
M  V30 7171 C 676.577 -1.74413 -3.87125 0
M  V30 7172 O 677.601 -1.5246 -3.21923 0
M  V30 7173 O 676.46 -2.10952 -5.04144 0
M  V30 7174 H 673.554 -0.286137 -0.775922 0
M  V30 7175 H 676.1 -1.22595 -1.1734 0
M  V30 7176 H 674.872 -2.58692 -2.93588 0
M  V30 7177 H 674.495 -1.1152 -3.8164 0
M  V30 7178 N 675.492 1.28418 -0.913599 0
M  V30 7179 C 676.455 2.25564 -0.406624 0
M  V30 7180 C 677.455 1.5387 0.466965 0
M  V30 7181 O 678.645 1.72094 0.270042 0
M  V30 7182 C 675.777 3.38339 0.417053 0
M  V30 7183 H 676.97 2.71926 -1.26477 0
M  V30 7184 H 674.523 1.40098 -0.692986 0
M  V30 7185 H 675.258 2.97339 1.29461 0
M  V30 7186 H 675.043 3.91542 -0.209102 0
M  V30 7187 H 676.533 4.10578 0.762602 0
M  V30 7188 N 676.97 0.677563 1.42291 0
M  V30 7189 C 678.198 0.209459 2.05837 0
M  V30 7190 C 678.613 -1.13444 1.50917 0
M  V30 7191 O 677.97 -1.70529 0.65008 0
M  V30 7192 C 678.021 0.138819 3.61233 0
M  V30 7193 O 677.742 1.42962 4.14118 0
M  V30 7194 C 679.243 -0.352449 4.41897 0
M  V30 7195 H 676.463 0.101209 0.663323 0
M  V30 7196 H 679.007 0.925077 1.8238 0
M  V30 7197 H 677.162 -0.527505 3.83792 0
M  V30 7198 H 677.576 1.3048 5.08011 0
M  V30 7199 H 679.05 -0.350778 5.50884 0
M  V30 7200 H 679.527 -1.3882 4.16684 0
M  V30 7201 H 680.133 0.282236 4.24362 0
M  V30 7202 N 678.448 -1.51871 0.421078 0
M  V30 7203 C 679.398 -2.24171 -0.416111 0
M  V30 7204 C 680.382 -1.25763 -1.00362 0
M  V30 7205 O 681.574 -1.5094 -0.924452 0
M  V30 7206 C 678.703 -3.07533 -1.52571 0
M  V30 7207 C 677.789 -4.1336 -0.948399 0
M  V30 7208 N 678.18 -5.05704 -0.0987933 0
M  V30 7209 C 676.478 -4.29055 -1.21768 0
M  V30 7210 C 677.179 -5.8127 0.223705 0
M  V30 7211 N 676.155 -5.4221 -0.388524 0
M  V30 7212 H 679.957 -2.92925 0.239166 0
M  V30 7213 H 677.471 -1.60732 0.232191 0
M  V30 7214 H 679.468 -3.57893 -2.13819 0
M  V30 7215 H 678.128 -2.4032 -2.18349 0
M  V30 7216 H 679.139 -5.17214 0.266428 0
M  V30 7217 H 675.816 -3.73071 -1.87416 0
M  V30 7218 H 677.206 -6.65653 0.914076 0
M  V30 7219 N 679.926 -0.151884 -1.56866 0
M  V30 7220 C 681.175 0.497992 -1.95456 0
M  V30 7221 C 681.488 1.6569 -1.03953 0
M  V30 7222 O 682.694 2.37173 -1.32142 0
M  V30 7223 C 681.15 0.93732 -3.4748 0
M  V30 7224 C 680.758 -0.194921 -4.47576 0
M  V30 7225 C 682.502 1.55671 -3.94926 0
M  V30 7226 C 680.409 0.26295 -5.90815 0
M  V30 7227 H 679.339 0.189811 -0.729717 0
M  V30 7228 H 681.99 -0.237011 -1.81963 0
M  V30 7229 H 680.372 1.72773 -3.56322 0
M  V30 7230 H 681.546 -0.971951 -4.50433 0
M  V30 7231 H 679.861 -0.72303 -4.10075 0
M  V30 7232 H 682.458 1.91099 -4.99385 0
M  V30 7233 H 682.801 2.44748 -3.36755 0
M  V30 7234 H 683.334 0.831109 -3.89021 0
M  V30 7235 H 680.073 -0.592568 -6.52816 0
M  V30 7236 H 679.593 1.00575 -5.91308 0
M  V30 7237 H 681.272 0.713333 -6.43056 0
M  V30 7238 N 681.404 1.57128 0.121893 0
M  V30 7239 C 682.652 1.84335 0.828548 0
M  V30 7240 C 682.973 0.736632 1.80551 0
M  V30 7241 O 682.243 -0.23962 1.94429 0
M  V30 7242 H 680.823 0.680108 0.30897 0
M  V30 7243 H 683.485 1.9459 0.109906 0
M  V30 7244 H 682.581 2.80152 1.37554 0
M  V30 7245 N 682.882 -0.391992 1.52647 0
M  V30 7246 C 683.829 -1.47866 1.77213 0
M  V30 7247 C 684.799 -1.54286 0.615223 0
M  V30 7248 O 685.984 -1.7059 0.854622 0
M  V30 7249 C 683.124 -2.85129 1.94411 0
M  V30 7250 C 682.237 -2.87883 3.22098 0
M  V30 7251 C 681.372 -4.16553 3.29631 0
M  V30 7252 C 680.411 -4.13348 4.51453 0
M  V30 7253 N 679.548 -5.33619 4.56284 0
M  V30 7254 H 684.388 -1.26219 2.6995 0
M  V30 7255 H 681.925 -0.612367 1.33748 0
M  V30 7256 H 683.883 -3.64833 2.02367 0
M  V30 7257 H 682.513 -3.05232 1.05038 0
M  V30 7258 H 681.565 -2.00567 3.23229 0
M  V30 7259 H 682.877 -2.81382 4.11856 0
M  V30 7260 H 682.031 -5.0466 3.36753 0
M  V30 7261 H 680.77 -4.25773 2.37842 0
M  V30 7262 H 679.775 -3.23629 4.44459 0
M  V30 7263 H 681 -4.05754 5.44555 0
M  V30 7264 H 678.946 -5.43474 3.67385 0
M  V30 7265 H 678.863 -5.29182 5.3991 0
M  V30 7266 H 680.131 -6.23632 4.67657 0
M  V30 7267 N 684.36 -1.4356 -0.65026 0
M  V30 7268 C 685.29 -1.51758 -1.77459 0
M  V30 7269 C 686.271 -0.372019 -1.65982 0
M  V30 7270 O 687.456 -0.589627 -1.85033 0
M  V30 7271 C 684.586 -1.44302 -3.15902 0
M  V30 7272 C 683.54 -2.57138 -3.42146 0
M  V30 7273 C 682.866 -2.34735 -4.8042 0
M  V30 7274 C 684.166 -3.99373 -3.36598 0
M  V30 7275 H 685.86 -2.45863 -1.70855 0
M  V30 7276 H 683.406 -1.18333 -0.820566 0
M  V30 7277 H 685.359 -1.48641 -3.94314 0
M  V30 7278 H 684.083 -0.467026 -3.23244 0
M  V30 7279 H 682.742 -2.52157 -2.66106 0
M  V30 7280 H 682.39 -1.35372 -4.84441 0
M  V30 7281 H 682.09 -3.10375 -4.9894 0
M  V30 7282 H 683.614 -2.40862 -5.61086 0
M  V30 7283 H 685.028 -4.05826 -4.04942 0
M  V30 7284 H 683.425 -4.75063 -3.66654 0
M  V30 7285 H 684.495 -4.243 -2.34729 0
M  V30 7286 N 685.838 0.888903 -1.30139 0
M  V30 7287 C 687.087 1.63507 -1.18103 0
M  V30 7288 C 687.4 1.93808 0.264141 0
M  V30 7289 O 688.606 2.66744 0.505966 0
M  V30 7290 C 687.062 2.94673 -2.0663 0
M  V30 7291 C 686.67 2.71926 -3.56034 0
M  V30 7292 C 688.414 3.72626 -2.03346 0
M  V30 7293 C 686.321 3.98884 -4.3663 0
M  V30 7294 H 685.251 0.613426 -0.438435 0
M  V30 7295 H 687.902 0.984427 -1.54859 0
M  V30 7296 H 686.284 3.61009 -1.62754 0
M  V30 7297 H 687.458 2.14116 -4.08033 0
M  V30 7298 H 685.773 2.07353 -3.61101 0
M  V30 7299 H 688.37 4.66775 -2.60816 0
M  V30 7300 H 688.713 4.03712 -1.016 0
M  V30 7301 H 689.246 3.13147 -2.45324 0
M  V30 7302 H 685.985 3.72959 -5.39056 0
M  V30 7303 H 685.505 4.56214 -3.89396 0
M  V30 7304 H 687.184 4.66938 -4.47859 0
M  V30 7305 N 687.317 1.12792 1.10072 0
M  V30 7306 C 688.563 0.886857 1.82381 0
M  V30 7307 C 688.896 -0.58576 1.85155 0
M  V30 7308 O 688.171 -1.43317 1.31493 0
M  V30 7309 C 688.454 1.46703 3.28862 0
M  V30 7310 C 688.307 3.00829 3.34398 0
M  V30 7311 C 689.626 1.12971 4.25353 0
M  V30 7312 H 686.745 0.32362 0.662148 0
M  V30 7313 H 689.387 1.39513 1.28982 0
M  V30 7314 H 687.537 1.03476 3.74466 0
M  V30 7315 H 689.209 3.52764 2.97247 0
M  V30 7316 H 687.452 3.36164 2.74183 0
M  V30 7317 H 688.123 3.36519 4.3756 0
M  V30 7318 H 690.599 1.50313 3.88001 0
M  V30 7319 H 689.475 1.56223 5.26199 0
M  V30 7320 H 689.736 0.0424452 4.4208 0
M  V30 7321 N 688.795 -1.27931 0.920396 0
M  V30 7322 C 690.023 -1.98805 0.573087 0
M  V30 7323 C 690.438 -1.68724 -0.847201 0
M  V30 7324 O 689.795 -0.943699 -1.56207 0
M  V30 7325 C 689.846 -3.52971 0.780633 0
M  V30 7326 O 689.567 -3.81994 2.14504 0
M  V30 7327 C 691.068 -4.411 0.44105 0
M  V30 7328 H 688.288 -0.634651 0.21785 0
M  V30 7329 H 690.832 -1.62965 1.23542 0
M  V30 7330 H 688.987 -3.87048 0.165204 0
M  V30 7331 H 689.401 -4.76609 2.18962 0
M  V30 7332 H 690.875 -5.48312 0.637006 0
M  V30 7333 H 691.352 -4.34758 -0.62306 0
M  V30 7334 H 691.958 -4.12532 1.0343 0
M  V30 7335 N 690.273 -0.685099 -1.4193 0
M  V30 7336 C 691.22 -0.0131869 -2.30796 0
M  V30 7337 C 692.19 0.782129 -1.46533 0
M  V30 7338 O 693.375 0.75229 -1.75343 0
M  V30 7339 C 690.515 0.924768 -3.32479 0
M  V30 7340 C 689.628 0.122181 -4.31827 0
M  V30 7341 C 688.763 1.05682 -5.20581 0
M  V30 7342 C 687.802 0.246526 -6.11603 0
M  V30 7343 N 686.939 1.13442 -6.92875 0
M  V30 7344 H 691.779 -0.776789 -2.87698 0
M  V30 7345 H 689.316 -0.394791 -1.41703 0
M  V30 7346 H 691.274 1.48251 -3.89971 0
M  V30 7347 H 689.904 1.65488 -2.77152 0
M  V30 7348 H 688.956 -0.552335 -3.76369 0
M  V30 7349 H 690.268 -0.506473 -4.96222 0
M  V30 7350 H 689.422 1.68415 -5.82856 0
M  V30 7351 H 688.161 1.71935 -4.56388 0
M  V30 7352 H 687.166 -0.393944 -5.48387 0
M  V30 7353 H 688.391 -0.412053 -6.77849 0
M  V30 7354 H 686.337 1.78316 -6.313 0
M  V30 7355 H 686.254 0.561089 -7.53915 0
M  V30 7356 H 687.522 1.74889 -7.59628 0
M  V30 7357 N 691.751 1.51645 -0.429126 0
M  V30 7358 C 692.683 2.25279 0.422124 0
M  V30 7359 C 693.696 1.28986 0.993299 0
M  V30 7360 O 694.885 1.54797 0.888836 0
M  V30 7361 C 691.985 2.98666 1.60162 0
M  V30 7362 C 691.158 4.2199 1.15078 0
M  V30 7363 C 690.217 4.78028 2.19946 0
M  V30 7364 O 689.243 5.40084 1.79716 0
M  V30 7365 N 690.445 4.61342 3.5234 0
M  V30 7366 H 693.21 2.98971 -0.208931 0
M  V30 7367 H 690.771 1.59838 -0.257568 0
M  V30 7368 H 692.763 3.33044 2.29922 0
M  V30 7369 H 691.333 2.28036 2.13818 0
M  V30 7370 H 690.553 3.932 0.280552 0
M  V30 7371 H 691.841 5.02037 0.826831 0
M  V30 7372 H 691.239 4.11894 3.87763 0
M  V30 7373 H 689.796 5.00104 4.18019 0
M  V30 7374 N 693.229 0.160201 1.56784 0
M  V30 7375 C 694.478 -0.487619 1.95717 0
M  V30 7376 C 694.791 -1.65136 1.0483 0
M  V30 7377 O 695.997 -2.36468 1.33398 0
M  V30 7378 C 694.453 -0.91888 3.47972 0
M  V30 7379 C 694.061 0.218655 4.47466 0
M  V30 7380 C 695.805 -1.53575 3.95746 0
M  V30 7381 C 693.712 -0.231614 5.90946 0
M  V30 7382 H 692.642 -0.185939 0.730714 0
M  V30 7383 H 695.293 0.246657 1.81835 0
M  V30 7384 H 693.675 -1.70881 3.57234 0
M  V30 7385 H 694.849 0.995825 4.49911 0
M  V30 7386 H 693.164 0.744767 4.09685 0
M  V30 7387 H 695.761 -1.88448 5.00391 0
M  V30 7388 H 696.104 -2.42959 3.38048 0
M  V30 7389 H 696.637 -0.810467 3.89456 0
M  V30 7390 H 693.376 0.62718 6.52493 0
M  V30 7391 H 692.896 -0.974379 5.91833 0
M  V30 7392 H 694.575 -0.67922 6.43425 0
M  V30 7393 N 694.707 -1.5719 -0.113559 0
M  V30 7394 C 695.955 -1.84772 -0.818761 0
M  V30 7395 C 696.276 -0.746196 -1.80158 0
M  V30 7396 O 695.546 0.229305 -1.94553 0
M  V30 7397 H 694.126 -0.681737 -0.305359 0
M  V30 7398 H 696.788 -1.94645 -0.0995845 0
M  V30 7399 H 695.884 -2.80878 -1.36067 0
M  V30 7400 N 696.185 0.383891 -1.52853 0
M  V30 7401 C 697.433 1.12619 -1.67814 0
M  V30 7402 C 697.754 1.90354 -0.423141 0
M  V30 7403 O 697.024 1.87649 0.562554 0
M  V30 7404 H 695.604 0.418738 -0.618601 0
M  V30 7405 H 698.266 0.43495 -1.89985 0
M  V30 7406 H 697.362 1.82624 -2.5309 0
M  V30 7407 N 697.663 1.43903 0.642637 0
M  V30 7408 C 698.94 1.36556 1.40043 0
M  V30 7409 C 699.32 0.0185588 2.11092 0
M  V30 7410 O 698.668 -0.998438 2.05532 0
M  V30 7411 C 698.878 2.55596 2.37638 0
M  V30 7412 C 700.226 2.99153 3.01318 0
M  V30 7413 O 701.25 2.55719 2.47965 0
M  V30 7414 O 700.109 3.74427 3.98078 0
M  V30 7415 H 697.203 0.540189 0.626198 0
M  V30 7416 H 699.749 1.55971 0.668657 0
M  V30 7417 H 698.521 3.45256 1.84158 0
M  V30 7418 H 698.144 2.38334 3.18249 0
M  V30 7419 N 699.141 -0.881989 1.30609 0
M  V30 7420 C 700.389 -1.63082 1.19368 0
M  V30 7421 C 700.71 -1.93376 -0.251147 0
M  V30 7422 O 699.98 -1.5723 -1.16857 0
M  V30 7423 H 698.56 -0.604542 0.438791 0
M  V30 7424 H 701.222 -1.05658 1.63776 0
M  V30 7425 H 700.318 -2.57966 1.7567 0
M  V30 7426 N 700.619 -1.13374 -1.09472 0
M  V30 7427 C 701.552 -0.754354 -2.15371 0
M  V30 7428 C 702.53 0.259205 -1.60521 0
M  V30 7429 O 703.714 0.150819 -1.87896 0
M  V30 7430 C 700.841 -0.118197 -3.38494 0
M  V30 7431 C 699.887 -1.10017 -4.12066 0
M  V30 7432 S 700.72 -2.63242 -4.6633 0
M  V30 7433 C 701.876 -2.00984 -5.92753 0
M  V30 7434 H 702.109 -1.65135 -2.4722 0
M  V30 7435 H 699.642 -0.953838 -1.21414 0
M  V30 7436 H 701.6 0.242447 -4.09783 0
M  V30 7437 H 700.261 0.756065 -3.04865 0
M  V30 7438 H 699.454 -0.60287 -5.00381 0
M  V30 7439 H 699.056 -1.40426 -3.46636 0
M  V30 7440 H 701.348 -1.35863 -6.63738 0
M  V30 7441 H 702.291 -2.8738 -6.47162 0
M  V30 7442 H 702.699 -1.46161 -5.4525 0
M  V30 7443 N 702.098 1.27442 -0.927168 0
M  V30 7444 C 703.031 2.25177 -0.370232 0
M  V30 7445 C 704.009 1.53612 0.533103 0
M  V30 7446 O 705.193 1.8245 0.47373 0
M  V30 7447 C 702.32 3.35431 0.469411 0
M  V30 7448 C 701.366 4.24888 -0.370419 0
M  V30 7449 S 702.199 5.04852 -1.78562 0
M  V30 7450 C 703.355 6.18592 -0.953651 0
M  V30 7451 H 703.588 2.72069 -1.19858 0
M  V30 7452 H 701.121 1.36089 -0.729316 0
M  V30 7453 H 703.079 3.99404 0.947992 0
M  V30 7454 H 701.74 2.87179 1.27228 0
M  V30 7455 H 700.933 5.03264 0.272226 0
M  V30 7456 H 700.535 3.65709 -0.783153 0
M  V30 7457 H 702.827 6.77235 -0.189408 0
M  V30 7458 H 703.77 6.87132 -1.7104 0
M  V30 7459 H 704.178 5.62318 -0.495897 0
M  V30 7460 N 703.576 0.692616 1.41565 0
M  V30 7461 C 704.853 0.150496 1.9502 0
M  V30 7462 C 705.233 -1.33881 1.63215 0
M  V30 7463 O 704.581 -2.08378 0.937598 0
M  V30 7464 C 704.791 0.438636 3.46233 0
M  V30 7465 C 706.139 0.364777 4.2303 0
M  V30 7466 O 707.163 0.373383 3.54238 0
M  V30 7467 O 706.022 0.32234 5.45549 0
M  V30 7468 H 703.116 0.0132454 0.826894 0
M  V30 7469 H 705.662 0.768574 1.51298 0
M  V30 7470 H 704.434 1.46962 3.62654 0
M  V30 7471 H 704.057 -0.210562 3.97042 0
M  V30 7472 N 705.054 -1.51416 0.437162 0
M  V30 7473 C 706.303 -2.01275 -0.130865 0
M  V30 7474 C 706.616 -1.32593 -1.438 0
M  V30 7475 O 707.822 -1.7342 -2.08897 0
M  V30 7476 C 706.278 -3.5878 -0.283763 0
M  V30 7477 C 705.886 -4.36399 1.01293 0
M  V30 7478 C 707.63 -4.16786 -0.805569 0
M  V30 7479 C 705.537 -5.85608 0.825687 0
M  V30 7480 H 704.467 -0.752157 -0.0526818 0
M  V30 7481 H 707.118 -1.74524 0.566896 0
M  V30 7482 H 705.5 -3.81976 -1.04452 0
M  V30 7483 H 706.674 -4.24948 1.78201 0
M  V30 7484 H 704.989 -3.89843 1.46326 0
M  V30 7485 H 707.586 -5.25972 -0.962146 0
M  V30 7486 H 707.929 -3.75949 -1.78796 0
M  V30 7487 H 708.462 -3.97666 -0.103125 0
M  V30 7488 H 705.201 -6.30857 1.78045 0
M  V30 7489 H 704.721 -5.99723 0.0964029 0
M  V30 7490 H 706.4 -6.45226 0.478815 0
M  V30 7491 N 706.532 -0.168513 -1.56696 0
M  V30 7492 C 707.76 0.483503 -2.01171 0
M  V30 7493 C 708.175 1.56994 -1.04872 0
M  V30 7494 O 707.532 1.82434 -0.0491337 0
M  V30 7495 C 707.583 1.0644 -3.45475 0
M  V30 7496 O 707.304 0.0213375 -4.38095 0
M  V30 7497 C 708.805 1.79493 -4.05336 0
M  V30 7498 H 706.025 0.124002 -0.659443 0
M  V30 7499 H 708.569 -0.269419 -2.02717 0
M  V30 7500 H 706.724 1.76784 -3.44712 0
M  V30 7501 H 707.138 0.449837 -5.22567 0
M  V30 7502 H 708.612 2.15401 -5.08238 0
M  V30 7503 H 709.089 2.68889 -3.47269 0
M  V30 7504 H 709.695 1.13798 -4.09793 0
M  V30 7505 N 708.01 1.57248 0.105221 0
M  V30 7506 C 709.287 1.76566 0.841647 0
M  V30 7507 C 709.667 0.747566 1.9742 0
M  V30 7508 O 709.015 -0.225886 2.27381 0
M  V30 7509 C 709.225 3.22016 1.3456 0
M  V30 7510 C 710.573 3.84911 1.79244 0
M  V30 7511 O 711.597 3.25703 1.44207 0
M  V30 7512 O 710.456 4.89008 2.43995 0
M  V30 7513 H 707.55 0.723443 0.400698 0
M  V30 7514 H 710.096 1.69472 0.0878893 0
M  V30 7515 H 708.868 3.87644 0.533685 0
M  V30 7516 H 708.491 3.33703 2.16167 0
M  V30 7517 N 709.488 -0.375779 1.53054 0
M  V30 7518 C 710.716 -1.14036 1.72637 0
M  V30 7519 C 711.131 -1.83342 0.450687 0
M  V30 7520 O 710.488 -1.7318 -0.575749 0
M  V30 7521 C 710.539 -2.17841 2.88492 0
M  V30 7522 O 710.26 -1.51358 4.11123 0
M  V30 7523 C 711.761 -3.06924 3.19863 0
M  V30 7524 H 708.981 -0.341386 0.577665 0
M  V30 7525 H 711.525 -0.437809 1.99759 0
M  V30 7526 H 709.68 -2.8371 2.63794 0
M  V30 7527 H 710.094 -2.20439 4.75928 0
M  V30 7528 H 711.568 -3.75763 4.04359 0
M  V30 7529 H 712.045 -3.71169 2.34798 0
M  V30 7530 H 712.651 -2.46684 3.46449 0
M  V30 7531 N 710.966 -1.44241 -0.634997 0
M  V30 7532 C 712.196 -1.50078 -1.41987 0
M  V30 7533 C 712.604 -0.123072 -1.88799 0
M  V30 7534 O 711.947 0.880552 -1.6122 0
M  V30 7535 C 712.009 -2.40033 -2.67628 0
M  V30 7536 C 711.673 -3.87268 -2.42637 0
M  V30 7537 C 712.67 -4.77902 -2.04708 0
M  V30 7538 C 710.355 -4.31933 -2.56396 0
M  V30 7539 C 712.349 -6.11202 -1.80862 0
M  V30 7540 C 710.036 -5.65281 -2.32164 0
M  V30 7541 C 711.034 -6.54734 -1.94455 0
M  V30 7542 O 710.722 -7.85613 -1.7049 0
M  V30 7543 H 710.454 -0.51146 -0.442023 0
M  V30 7544 H 713.008 -1.89843 -0.784138 0
M  V30 7545 H 711.238 -1.95188 -3.33824 0
M  V30 7546 H 712.927 -2.36863 -3.29622 0
M  V30 7547 H 713.693 -4.44668 -1.93638 0
M  V30 7548 H 709.572 -3.62569 -2.84719 0
M  V30 7549 H 713.116 -6.80983 -1.51353 0
M  V30 7550 H 709.013 -5.98078 -2.42843 0
M  V30 7551 H 709.781 -7.97373 -1.84767 0
M  V30 7552 N 712.444 0.87505 -1.31075 0
M  V30 7553 C 713.391 1.98178 -1.18296 0
M  V30 7554 C 714.361 1.65952 -0.0699923 0
M  V30 7555 O 715.546 1.8926 -0.241951 0
M  V30 7556 C 712.686 3.33399 -0.891024 0
M  V30 7557 C 711.799 3.78253 -2.08684 0
M  V30 7558 C 710.934 5.02166 -1.73212 0
M  V30 7559 C 709.973 5.39455 -2.89231 0
M  V30 7560 N 709.11 6.54549 -2.53989 0
M  V30 7561 H 713.95 2.0844 -2.12971 0
M  V30 7562 H 711.487 1.02047 -1.05948 0
M  V30 7563 H 713.445 4.11246 -0.702338 0
M  V30 7564 H 712.075 3.22794 0.0188799 0
M  V30 7565 H 711.127 2.9623 -2.38646 0
M  V30 7566 H 712.439 4.01821 -2.95536 0
M  V30 7567 H 711.593 5.87666 -1.50777 0
M  V30 7568 H 710.332 4.80491 -0.83544 0
M  V30 7569 H 709.337 4.52477 -3.12321 0
M  V30 7570 H 710.562 5.63098 -3.79601 0
M  V30 7571 H 708.508 6.3443 -1.66838 0
M  V30 7572 H 708.425 6.78035 -3.34372 0
M  V30 7573 H 709.693 7.43254 -2.34934 0
M  V30 7574 N 713.922 1.13953 1.08869 0
M  V30 7575 C 715.169 0.90481 1.81161 0
M  V30 7576 C 715.497 -0.568824 1.85996 0
M  V30 7577 O 714.752 -1.43723 1.32823 0
M  V30 7578 C 715.051 1.44495 3.26888 0
M  V30 7579 C 714.717 2.93641 3.42178 0
M  V30 7580 C 713.379 3.34361 3.46059 0
M  V30 7581 C 715.731 3.89568 3.46246 0
M  V30 7582 C 713.059 4.69681 3.51592 0
M  V30 7583 C 715.411 5.2474 3.53314 0
M  V30 7584 C 714.075 5.64979 3.55465 0
M  V30 7585 H 713.345 0.331094 0.662916 0
M  V30 7586 H 715.992 1.42242 1.28217 0
M  V30 7587 H 714.297 0.848169 3.82509 0
M  V30 7588 H 715.994 1.23934 3.81368 0
M  V30 7589 H 712.584 2.61156 3.39846 0
M  V30 7590 H 716.768 3.59192 3.42483 0
M  V30 7591 H 712.024 5.00224 3.51547 0
M  V30 7592 H 716.198 5.98882 3.55406 0
M  V30 7593 H 713.825 6.69821 3.59505 0
M  V30 7594 N 715.4 -1.26948 0.933913 0
M  V30 7595 C 716.332 -2.25768 0.395137 0
M  V30 7596 C 717.345 -1.55637 -0.477585 0
M  V30 7597 O 718.534 -1.76142 -0.289204 0
M  V30 7598 C 715.634 -3.35874 -0.451882 0
M  V30 7599 C 714.807 -4.3554 0.40299 0
M  V30 7600 C 713.866 -5.24809 -0.3824 0
M  V30 7601 O 712.892 -5.68805 0.212057 0
M  V30 7602 N 714.094 -5.55636 -1.68072 0
M  V30 7603 H 716.859 -2.72634 1.24463 0
M  V30 7604 H 714.42 -1.40639 0.802008 0
M  V30 7605 H 716.412 -3.92542 -0.984516 0
M  V30 7606 H 714.982 -2.8856 -1.20215 0
M  V30 7607 H 714.202 -3.78047 1.11688 0
M  V30 7608 H 715.49 -4.99131 0.987201 0
M  V30 7609 H 714.888 -5.2176 -2.18592 0
M  V30 7610 H 713.445 -6.14978 -2.15975 0
M  V30 7611 N 716.879 -0.700114 -1.41195 0
M  V30 7612 C 717.789 -0.0382854 -2.34569 0
M  V30 7613 C 718.805 0.761036 -1.56474 0
M  V30 7614 O 719.981 0.697553 -1.88934 0
M  V30 7615 C 717.046 0.883522 -3.35253 0
M  V30 7616 C 716.107 0.0758957 -4.29233 0
M  V30 7617 C 715.34 0.9538 -5.25108 0
M  V30 7618 O 715.563 2.19326 -5.26547 0
M  V30 7619 O 714.497 0.401049 -6.00562 0
M  V30 7620 H 718.323 -0.808073 -2.92752 0
M  V30 7621 H 715.908 -0.460479 -1.42127 0
M  V30 7622 H 717.79 1.41199 -3.9704 0
M  V30 7623 H 716.465 1.63272 -2.79506 0
M  V30 7624 H 715.372 -0.497274 -3.7078 0
M  V30 7625 H 716.705 -0.634741 -4.8809 0
M  V30 7626 N 718.357 1.51182 -0.445186 0
M  V30 7627 C 719.605 2.01753 0.11841 0
M  V30 7628 C 719.926 1.33087 1.42523 0
M  V30 7629 O 719.196 0.467891 1.9023 0
M  V30 7630 H 717.776 0.745536 0.0467492 0
M  V30 7631 H 720.438 1.85765 -0.589688 0
M  V30 7632 H 719.534 3.10762 0.288665 0
M  V30 7633 N 719.835 0.176821 1.56605 0
M  V30 7634 C 720.767 -0.782836 2.15417 0
M  V30 7635 C 721.78 -1.18982 1.11117 0
M  V30 7636 O 722.969 -1.12872 1.38283 0
M  V30 7637 C 720.069 -2.06596 2.68647 0
M  V30 7638 C 719.242 -1.82167 3.9766 0
M  V30 7639 C 718.301 -2.94751 4.35899 0
M  V30 7640 O 717.327 -2.65148 5.03672 0
M  V30 7641 N 718.529 -4.2267 3.97907 0
M  V30 7642 H 721.294 -0.280012 2.98389 0
M  V30 7643 H 718.855 -0.00577529 1.61899 0
M  V30 7644 H 720.847 -2.81018 2.91223 0
M  V30 7645 H 719.417 -2.48054 1.90232 0
M  V30 7646 H 718.637 -0.916208 3.83405 0
M  V30 7647 H 719.925 -1.6322 4.81909 0
M  V30 7648 H 719.323 -4.4958 3.43357 0
M  V30 7649 H 717.88 -4.93778 4.25472 0
M  V30 7650 N 721.313 -1.57302 -0.09688 0
M  V30 7651 C 722.223 -2.05258 -1.13606 0
M  V30 7652 C 723.239 -0.977137 -1.43972 0
M  V30 7653 O 724.415 -1.29018 -1.54649 0
M  V30 7654 C 721.48 -2.46593 -2.43706 0
M  V30 7655 C 720.541 -3.68322 -2.20538 0
M  V30 7656 C 719.774 -4.07676 -3.44435 0
M  V30 7657 O 719.997 -3.47141 -4.52603 0
M  V30 7658 O 718.931 -5.00641 -3.34129 0
M  V30 7659 H 722.757 -2.94069 -0.758752 0
M  V30 7660 H 720.342 -1.46164 -0.309263 0
M  V30 7661 H 722.224 -2.73814 -3.20318 0
M  V30 7662 H 720.899 -1.6092 -2.80867 0
M  V30 7663 H 719.806 -3.4622 -1.41713 0
M  V30 7664 H 721.139 -4.54769 -1.88271 0
M  V30 7665 N 722.791 0.367657 -1.53252 0
M  V30 7666 C 723.701 1.47415 -1.82499 0
M  V30 7667 C 724.717 1.58711 -0.713222 0
M  V30 7668 O 725.893 1.74644 -1.00306 0
M  V30 7669 C 722.958 2.82706 -2.00694 0
M  V30 7670 C 722.019 2.80955 -3.24596 0
M  V30 7671 C 721.252 4.09793 -3.41914 0
M  V30 7672 O 721.475 5.05852 -2.63572 0
M  V30 7673 O 720.409 4.15731 -4.3526 0
M  V30 7674 H 724.235 1.25624 -2.765 0
M  V30 7675 H 721.82 0.557559 -1.38606 0
M  V30 7676 H 723.702 3.62873 -2.14246 0
M  V30 7677 H 722.377 3.04479 -1.09883 0
M  V30 7678 H 721.284 1.99494 -3.16469 0
M  V30 7679 H 722.617 2.64136 -4.15323 0
M  V30 7680 N 724.269 1.44576 0.627338 0
M  V30 7681 C 725.179 1.54232 1.76776 0
M  V30 7682 C 726.195 0.427782 1.6866 0
M  V30 7683 O 727.371 0.685671 1.89369 0
M  V30 7684 C 724.436 1.48738 3.13174 0
M  V30 7685 C 723.497 2.71074 3.32893 0
M  V30 7686 C 722.73 2.65832 4.62784 0
M  V30 7687 O 722.953 1.72048 5.43834 0
M  V30 7688 O 721.887 3.56742 4.84787 0
M  V30 7689 H 725.713 2.50586 1.71582 0
M  V30 7690 H 723.298 1.26865 0.789028 0
M  V30 7691 H 725.18 1.48211 3.94476 0
M  V30 7692 H 723.855 0.555292 3.18902 0
M  V30 7693 H 722.762 2.77168 2.51254 0
M  V30 7694 H 724.095 3.63342 3.32029 0
M  V30 7695 N 725.747 -0.868086 1.31537 0
M  V30 7696 C 727.163 -1.15414 1.10235 0
M  V30 7697 C 727.363 -2.01106 -0.125947 0
M  V30 7698 O 726.419 -2.38994 -0.814734 0
M  V30 7699 C 727.732 -1.84445 2.37488 0
M  V30 7700 C 729.28 -1.97139 2.43116 0
M  V30 7701 C 729.755 -2.69585 3.70254 0
M  V30 7702 N 731.246 -2.77119 3.71159 0
M  V30 7703 C 731.981 -3.33791 4.6623 0
M  V30 7704 N 731.477 -3.9138 5.71659 0
M  V30 7705 N 733.27 -3.31767 4.53747 0
M  V30 7706 H 725.421 -0.297109 2.10312 0
M  V30 7707 H 727.684 -0.194227 0.92789 0
M  V30 7708 H 727.39 -1.2893 3.27215 0
M  V30 7709 H 727.264 -2.84709 2.47428 0
M  V30 7710 H 729.651 -2.51818 1.53856 0
M  V30 7711 H 729.732 -0.95912 2.37138 0
M  V30 7712 H 729.376 -2.15572 4.59881 0
M  V30 7713 H 729.306 -3.71223 3.73499 0
M  V30 7714 H 731.797 -2.3625 2.94948 0
M  V30 7715 H 732.11 -4.3274 6.40278 0
M  V30 7716 H 730.455 -3.8975 5.7543 0
M  V30 7717 H 733.646 -2.86016 3.70557 0
M  V30 7718 H 733.819 -3.75636 5.28017 0
M  V30 7719 N 727.225 -1.14528 -1.08264 0
M  V30 7720 C 728.155 -0.856356 -2.1723 0
M  V30 7721 C 729.136 0.189251 -1.69044 0
M  V30 7722 O 730.321 0.0456119 -1.94146 0
M  V30 7723 C 727.451 -0.334662 -3.45684 0
M  V30 7724 C 726.405 -1.31588 -4.0727 0
M  V30 7725 C 725.731 -0.653428 -5.30692 0
M  V30 7726 C 727.031 -2.67866 -4.48381 0
M  V30 7727 H 728.725 -1.76755 -2.41657 0
M  V30 7728 H 726.271 -0.851287 -1.16143 0
M  V30 7729 H 728.224 -0.120128 -4.21229 0
M  V30 7730 H 726.948 0.611967 -3.20815 0
M  V30 7731 H 725.607 -1.51661 -3.33758 0
M  V30 7732 H 725.255 0.299054 -5.0211 0
M  V30 7733 H 724.955 -1.30817 -5.72853 0
M  V30 7734 H 726.479 -0.448453 -6.08951 0
M  V30 7735 H 727.893 -2.51692 -5.15096 0
M  V30 7736 H 726.29 -3.29627 -5.01464 0
M  V30 7737 H 727.36 -3.24632 -3.60198 0
M  V30 7738 N 728.703 1.26451 -0.940633 0
M  V30 7739 C 729.666 2.24651 -0.454378 0
M  V30 7740 C 730.666 1.54826 0.434222 0
M  V30 7741 O 731.856 1.72628 0.233477 0
M  V30 7742 C 728.988 3.39148 0.345192 0
M  V30 7743 H 730.181 2.69182 -1.32217 0
M  V30 7744 H 727.734 1.38596 -0.722547 0
M  V30 7745 H 728.469 3.00018 1.23125 0
M  V30 7746 H 728.254 3.9101 -0.292107 0
M  V30 7747 H 729.744 4.12103 0.675341 0
M  V30 7748 N 730.181 0.707592 1.40822 0
M  V30 7749 C 731.111 0.0644925 2.33411 0
M  V30 7750 C 732.092 -0.754205 1.52466 0
M  V30 7751 O 733.277 -0.704749 1.80961 0
M  V30 7752 C 730.407 -0.863865 3.36385 0
M  V30 7753 C 729.361 -0.15138 4.27732 0
M  V30 7754 C 728.687 -1.19491 5.21177 0
M  V30 7755 C 729.987 0.989607 5.12839 0
M  V30 7756 H 731.681 0.837829 2.87438 0
M  V30 7757 H 729.227 0.404346 1.38207 0
M  V30 7758 H 731.18 -1.32309 4.0009 0
M  V30 7759 H 729.904 -1.66901 2.80734 0
M  V30 7760 H 728.563 0.287937 3.65467 0
M  V30 7761 H 728.211 -1.9929 4.61836 0
M  V30 7762 H 727.911 -0.723123 5.83134 0
M  V30 7763 H 729.435 -1.6544 5.8776 0
M  V30 7764 H 730.849 0.610114 5.70044 0
M  V30 7765 H 729.246 1.38926 5.83798 0
M  V30 7766 H 730.316 1.82389 4.49291 0
M  V30 7767 N 731.66 -1.50943 0.453197 0
M  V30 7768 C 732.57 -2.31884 -0.355963 0
M  V30 7769 C 733.586 -1.41481 -1.01287 0
M  V30 7770 O 734.762 -1.74546 -1.00477 0
M  V30 7771 C 731.827 -3.15668 -1.43369 0
M  V30 7772 C 730.888 -4.2187 -0.795253 0
M  V30 7773 C 730.121 -5.0165 -1.82162 0
M  V30 7774 O 730.344 -4.82266 -3.04592 0
M  V30 7775 O 729.278 -5.85311 -1.40336 0
M  V30 7776 H 733.104 -3.02162 0.305248 0
M  V30 7777 H 730.689 -1.47839 0.215398 0
M  V30 7778 H 732.571 -3.67709 -2.05836 0
M  V30 7779 H 731.246 -2.48137 -2.07869 0
M  V30 7780 H 730.153 -3.73867 -0.132106 0
M  V30 7781 H 731.486 -4.9182 -0.193484 0
M  V30 7782 N 733.138 -0.185124 -1.56509 0
M  V30 7783 C 734.366 0.462139 -2.01673 0
M  V30 7784 C 734.781 1.55873 -1.06532 0
M  V30 7785 O 734.138 1.82371 -0.0684805 0
M  V30 7786 C 734.189 1.0277 -3.46584 0
M  V30 7787 O 733.91 -0.0251296 -4.38093 0
M  V30 7788 C 735.411 1.75183 -4.07217 0
M  V30 7789 H 732.631 0.117001 -0.660721 0
M  V30 7790 H 735.175 -0.290905 -2.0242 0
M  V30 7791 H 733.33 1.73118 -3.46568 0
M  V30 7792 H 733.744 0.394387 -5.23015 0
M  V30 7793 H 735.218 2.09999 -5.10494 0
M  V30 7794 H 735.695 2.6519 -3.50101 0
M  V30 7795 H 736.301 1.09445 -4.10977 0
M  V30 7796 N 734.616 1.57351 0.0885366 0
M  V30 7797 C 735.579 2.01557 1.09121 0
M  V30 7798 C 736.579 0.910052 1.3257 0
M  V30 7799 O 737.769 1.17537 1.28572 0
M  V30 7800 C 734.901 2.38189 2.43883 0
M  V30 7801 H 736.094 2.91361 0.710562 0
M  V30 7802 H 733.647 1.52694 0.333779 0
M  V30 7803 H 734.382 1.5136 2.86811 0
M  V30 7804 H 734.167 3.18846 2.28209 0
M  V30 7805 H 735.657 2.73025 3.15986 0
M  V30 7806 N 736.094 -0.359525 1.53444 0
M  V30 7807 C 737.024 -1.44662 1.8329 0
M  V30 7808 C 738.005 -1.55617 0.68683 0
M  V30 7809 O 739.19 -1.70086 0.93725 0
M  V30 7810 C 736.32 -2.81923 2.02822 0
M  V30 7811 C 735.274 -2.85787 3.18606 0
M  V30 7812 C 734.6 -4.25781 3.23442 0
M  V30 7813 C 735.9 -2.52762 4.57065 0
M  V30 7814 H 737.594 -1.19934 2.74329 0
M  V30 7815 H 735.14 -0.575517 1.31999 0
M  V30 7816 H 737.093 -3.58005 2.22285 0
M  V30 7817 H 735.817 -3.08051 1.085 0
M  V30 7818 H 734.476 -2.12157 2.98973 0
M  V30 7819 H 734.124 -4.48994 2.26745 0
M  V30 7820 H 733.824 -4.29281 4.01238 0
M  V30 7821 H 735.348 -5.03727 3.45096 0
M  V30 7822 H 736.762 -3.18557 4.76649 0
M  V30 7823 H 735.159 -2.67569 5.37147 0
M  V30 7824 H 736.229 -1.47993 4.61764 0
M  V30 7825 N 737.572 -1.44907 -0.619662 0
M  V30 7826 C 738.505 -1.47133 -1.74434 0
M  V30 7827 C 739.483 -0.328933 -1.59238 0
M  V30 7828 O 740.667 -0.527632 -1.80965 0
M  V30 7829 C 737.794 -1.31491 -3.12134 0
M  V30 7830 C 736.84 -2.49441 -3.4595 0
M  V30 7831 S 737.673 -4.11945 -3.42142 0
M  V30 7832 C 738.829 -3.98747 -4.82443 0
M  V30 7833 H 739.062 -2.42295 -1.7228 0
M  V30 7834 H 736.595 -1.32343 -0.795276 0
M  V30 7835 H 738.553 -1.23153 -3.91591 0
M  V30 7836 H 737.214 -0.378203 -3.11815 0
M  V30 7837 H 736.407 -2.3439 -4.46181 0
M  V30 7838 H 736.009 -2.54577 -2.73982 0
M  V30 7839 H 738.301 -3.63145 -5.71954 0
M  V30 7840 H 739.244 -4.98848 -5.0255 0
M  V30 7841 H 739.652 -3.30608 -4.57557 0
M  V30 7842 N 739.05 0.861098 -1.31996 0
M  V30 7843 C 740.28 1.64501 -1.24992 0
M  V30 7844 C 740.688 1.88288 0.185576 0
M  V30 7845 O 740.031 1.44756 1.131 0
M  V30 7846 C 740.093 3.03098 -1.93319 0
M  V30 7847 C 739.757 3.02381 -3.42658 0
M  V30 7848 C 740.754 2.79696 -4.38254 0
M  V30 7849 C 738.439 3.23221 -3.84491 0
M  V30 7850 C 740.433 2.77843 -5.73657 0
M  V30 7851 C 738.12 3.20996 -5.20005 0
M  V30 7852 C 739.118 2.98335 -6.14398 0
M  V30 7853 O 738.806 2.95971 -7.47433 0
M  V30 7854 H 738.538 0.519309 -0.432775 0
M  V30 7855 H 741.092 1.08241 -1.74565 0
M  V30 7856 H 739.322 3.61121 -1.38306 0
M  V30 7857 H 741.011 3.63751 -1.8011 0
M  V30 7858 H 741.777 2.63368 -4.07262 0
M  V30 7859 H 737.656 3.39887 -3.11445 0
M  V30 7860 H 741.2 2.60074 -6.47308 0
M  V30 7861 H 737.097 3.36865 -5.50629 0
M  V30 7862 H 737.865 3.1197 -7.56714 0
M  V30 7863 N 740.528 1.15101 1.07655 0
M  V30 7864 C 741.776 0.922149 1.79836 0
M  V30 7865 C 742.097 -0.552346 1.87014 0
M  V30 7866 O 741.367 -1.40145 1.3688 0
M  V30 7867 H 739.947 0.338182 0.666064 0
M  V30 7868 H 742.609 1.45107 1.30115 0
M  V30 7869 H 741.705 1.32883 2.82398 0
M  V30 7870 N 742.006 -1.2595 0.947325 0
M  V30 7871 C 742.969 -2.24407 0.466285 0
M  V30 7872 C 743.969 -1.55054 -0.426005 0
M  V30 7873 O 745.159 -1.7275 -0.224319 0
M  V30 7874 C 742.291 -3.39326 -0.327201 0
M  V30 7875 H 743.484 -2.68477 1.33642 0
M  V30 7876 H 741.037 -1.38211 0.729887 0
M  V30 7877 H 741.772 -3.00667 -1.21532 0
M  V30 7878 H 741.557 -3.9085 0.312839 0
M  V30 7879 H 743.047 -4.12455 -0.653477 0
M  V30 7880 N 743.484 -0.715051 -1.40445 0
M  V30 7881 C 744.431 -0.0621393 -2.30716 0
M  V30 7882 C 745.401 0.750871 -1.48159 0
M  V30 7883 O 746.586 0.714928 -1.76899 0
M  V30 7884 C 743.726 0.854036 -3.34365 0
M  V30 7885 C 742.839 0.0305565 -4.31989 0
M  V30 7886 C 741.974 0.946162 -5.22706 0
M  V30 7887 C 741.013 0.116741 -6.11989 0
M  V30 7888 N 740.15 0.987194 -6.95125 0
M  V30 7889 H 744.99 -0.83764 -2.85985 0
M  V30 7890 H 742.527 -0.424759 -1.40834 0
M  V30 7891 H 744.485 1.39946 -3.93028 0
M  V30 7892 H 743.115 1.59572 -2.806 0
M  V30 7893 H 742.167 -0.632044 -3.75112 0
M  V30 7894 H 743.479 -0.611615 -4.95036 0
M  V30 7895 H 742.633 1.56014 -5.86297 0
M  V30 7896 H 741.372 1.62216 -4.59932 0
M  V30 7897 H 740.377 -0.510176 -5.47428 0
M  V30 7898 H 741.602 -0.555742 -6.76822 0
M  V30 7899 H 739.548 1.64885 -6.3494 0
M  V30 7900 H 739.465 0.401046 -7.54936 0
M  V30 7901 H 740.733 1.58737 -7.63166 0
M  V30 7902 N 744.962 1.50701 -0.461195 0
M  V30 7903 C 745.909 2.2831 0.338094 0
M  V30 7904 C 746.879 1.32928 0.995957 0
M  V30 7905 O 748.064 1.61857 1.0103 0
M  V30 7906 C 745.204 3.14539 1.41983 0
M  V30 7907 C 744.317 4.24942 0.77773 0
M  V30 7908 C 743.452 4.98443 1.83652 0
M  V30 7909 C 742.491 6.00733 1.17413 0
M  V30 7910 N 741.628 6.6755 2.17533 0
M  V30 7911 H 746.468 2.96167 -0.330051 0
M  V30 7912 H 744.005 1.4606 -0.174611 0
M  V30 7913 H 745.963 3.62877 2.05855 0
M  V30 7914 H 744.593 2.48749 2.05727 0
M  V30 7915 H 743.645 3.80391 0.0266924 0
M  V30 7916 H 744.957 4.98151 0.254362 0
M  V30 7917 H 744.111 5.50449 2.55129 0
M  V30 7918 H 742.85 4.24917 2.39367 0
M  V30 7919 H 741.855 5.47997 0.444944 0
M  V30 7920 H 743.08 6.76227 0.624006 0
M  V30 7921 H 741.026 5.96823 2.72284 0
M  V30 7922 H 740.943 7.36603 1.70154 0
M  V30 7923 H 742.211 7.24178 2.88421 0
M  V30 7924 N 746.441 0.193421 1.56409 0
M  V30 7925 C 747.852 -0.319471 1.83946 0
M  V30 7926 C 748.203 -1.61505 1.11403 0
M  V30 7927 O 747.328 -2.13139 0.374289 0
M  V30 7928 C 747.923 -0.586411 3.33686 0
M  V30 7929 C 746.482 -1.04368 3.61641 0
M  V30 7930 C 745.629 -0.0913834 2.77149 0
M  V30 7931 H 748.58 0.417242 1.53117 0
M  V30 7932 H 748.601 -1.43591 3.52366 0
M  V30 7933 H 748.113 0.356701 3.86457 0
M  V30 7934 H 746.214 -2.00113 3.14302 0
M  V30 7935 H 746.327 -0.937549 4.69837 0
M  V30 7936 H 744.691 -0.592954 2.47702 0
M  V30 7937 H 745.474 0.846142 3.32709 0
M  V30 7938 N 747.919 -1.57396 -0.0801906 0
M  V30 7939 C 748.849 -2.06145 -1.09665 0
M  V30 7940 C 749.83 -0.953273 -1.40878 0
M  V30 7941 O 751.015 -1.22548 -1.50651 0
M  V30 7942 C 748.145 -2.49836 -2.41245 0
M  V30 7943 C 747.099 -3.64454 -2.24405 0
M  V30 7944 C 746.425 -3.94172 -3.61293 0
M  V30 7945 C 747.725 -4.94807 -1.67223 0
M  V30 7946 H 749.419 -2.91316 -0.691028 0
M  V30 7947 H 746.965 -1.40145 -0.330957 0
M  V30 7948 H 748.918 -2.82552 -3.12638 0
M  V30 7949 H 747.642 -1.61683 -2.83771 0
M  V30 7950 H 746.301 -3.32008 -1.55454 0
M  V30 7951 H 745.949 -3.03163 -4.01374 0
M  V30 7952 H 745.649 -4.71345 -3.50867 0
M  V30 7953 H 747.173 -4.29376 -4.3413 0
M  V30 7954 H 748.587 -5.25807 -2.28472 0
M  V30 7955 H 746.984 -5.76245 -1.67515 0
M  V30 7956 H 748.054 -4.80751 -0.632944 0
M  V30 7957 N 749.397 0.351382 -1.53633 0
M  V30 7958 C 750.345 1.45142 -1.8176 0
M  V30 7959 C 751.339 1.54819 -0.687571 0
M  V30 7960 O 752.545 1.57536 -0.870772 0
M  V30 7961 H 748.92 0.483789 -0.575719 0
M  V30 7962 H 750.891 1.1863 -2.73806 0
M  V30 7963 C 749.64 2.81779 -2.03706 0
M  V30 7964 H 748.963 2.75097 -2.90107 0
M  V30 7965 H 750.403 3.5789 -2.27356 0
M  V30 7966 C 748.862 3.26762 -0.820271 0
M  V30 7967 O 749.392 4.01697 -0.0158603 0
M  V30 7968 N 747.598 2.83472 -0.639699 0
M  V30 7969 H 747.145 2.22655 -1.29547 0
M  V30 7970 H 747.103 3.13924 0.172995 0
M  V30 7971 N 750.875 1.45233 0.611969 0
M  V30 7972 C 752.103 1.52539 1.39784 0
M  V30 7973 C 752.518 0.156533 1.8815 0
M  V30 7974 O 751.875 -0.84112 1.61961 0
M  V30 7975 C 751.926 2.50614 2.60528 0
M  V30 7976 O 751.647 3.8218 2.14173 0
M  V30 7977 C 753.148 2.67574 3.53439 0
M  V30 7978 H 750.368 0.51674 0.428043 0
M  V30 7979 H 752.912 1.90379 0.746727 0
M  V30 7980 H 751.067 2.15858 3.2169 0
M  V30 7981 H 751.481 4.35305 2.92592 0
M  V30 7982 H 752.955 3.40184 4.34717 0
M  V30 7983 H 753.432 1.73458 4.03496 0
M  V30 7984 H 754.038 3.0331 2.98133 0
M  V30 7985 N 752.353 -0.854086 1.3245 0
M  V30 7986 C 753.263 -1.99503 1.23434 0
M  V30 7987 C 754.279 -1.73371 0.147828 0
M  V30 7988 O 755.455 -1.97998 0.368609 0
M  V30 7989 C 752.52 -3.33192 0.958328 0
M  V30 7990 C 751.581 -3.72542 2.13333 0
M  V30 7991 C 750.814 -4.99852 1.8704 0
M  V30 7992 O 751.037 -5.64573 0.813239 0
M  V30 7993 O 749.971 -5.36345 2.73161 0
M  V30 7994 H 753.797 -2.10046 2.1935 0
M  V30 7995 H 751.382 -0.984823 1.12346 0
M  V30 7996 H 753.264 -4.13327 0.820918 0
M  V30 7997 H 751.939 -3.23687 0.0293299 0
M  V30 7998 H 750.846 -2.92981 2.32622 0
M  V30 7999 H 752.179 -3.86694 3.04514 0
M  V30 8000 N 753.831 -1.1567 -1.07043 0
M  V30 8001 C 755.079 -0.931673 -1.79344 0
M  V30 8002 C 755.4 0.542421 -1.87304 0
M  V30 8003 O 754.67 1.39418 -1.37621 0
M  V30 8004 H 753.25 -0.34171 -0.664262 0
M  V30 8005 H 755.912 -1.45795 -1.29344 0
M  V30 8006 H 755.008 -1.34379 -2.81689 0
M  V30 8007 N 755.309 1.25446 -0.953992 0
M  V30 8008 C 756.555 1.9343 -0.60933 0
M  V30 8009 C 756.888 1.74542 0.851388 0
M  V30 8010 O 756.163 1.09014 1.61078 0
M  V30 8011 C 756.446 3.46844 -0.968041 0
M  V30 8012 C 756.299 3.74961 -2.48444 0
M  V30 8013 C 757.618 4.37334 -0.492641 0
M  V30 8014 H 754.737 0.702502 -0.222844 0
M  V30 8015 H 757.379 1.48076 -1.19053 0
M  V30 8016 H 755.529 3.85604 -0.473465 0
M  V30 8017 H 757.201 3.45841 -3.05273 0
M  V30 8018 H 755.444 3.20589 -2.92241 0
M  V30 8019 H 756.115 4.82246 -2.68594 0
M  V30 8020 H 758.591 4.05873 -0.916878 0
M  V30 8021 H 757.467 5.43439 -0.772331 0
M  V30 8022 H 757.728 4.37908 0.607403 0
M  V30 8023 N 756.787 0.722489 1.40064 0
M  V30 8024 C 757.72 0.0233443 2.28188 0
M  V30 8025 C 758.698 -0.7606 1.43714 0
M  V30 8026 O 759.882 -0.745791 1.73119 0
M  V30 8027 C 757.009 -0.974264 3.24385 0
M  V30 8028 C 756.055 -0.280307 4.25578 0
M  V30 8029 S 756.888 0.996769 5.26141 0
M  V30 8030 C 758.044 0.00143923 6.259 0
M  V30 8031 H 758.277 0.770705 2.87137 0
M  V30 8032 H 755.81 0.513783 1.45601 0
M  V30 8033 H 757.768 -1.5446 3.80332 0
M  V30 8034 H 756.429 -1.69438 2.6448 0
M  V30 8035 H 755.622 -1.03471 4.93264 0
M  V30 8036 H 755.224 0.217657 3.73366 0
M  V30 8037 H 757.516 -0.843126 6.72233 0
M  V30 8038 H 758.459 0.645104 7.05155 0
M  V30 8039 H 758.867 -0.365371 5.63316 0
M  V30 8040 N 758.265 -1.50454 0.469181 0
M  V30 8041 C 759.212 -2.28486 -0.325982 0
M  V30 8042 C 760.182 -1.33455 -0.988893 0
M  V30 8043 O 761.367 -1.6239 -1.0017 0
M  V30 8044 C 758.507 -3.15288 -1.40313 0
M  V30 8045 C 757.62 -4.25348 -0.755183 0
M  V30 8046 C 756.755 -4.9941 -1.81006 0
M  V30 8047 C 755.794 -6.01348 -1.14226 0
M  V30 8048 N 754.931 -6.68695 -2.1399 0
M  V30 8049 H 759.771 -2.95987 0.345753 0
M  V30 8050 H 757.308 -1.45965 0.182355 0
M  V30 8051 H 759.266 -3.63964 -2.03927 0
M  V30 8052 H 757.896 -2.49837 -2.04405 0
M  V30 8053 H 756.948 -3.80399 -0.00651901 0
M  V30 8054 H 758.26 -4.98279 -0.227941 0
M  V30 8055 H 757.414 -5.51794 -2.52206 0
M  V30 8056 H 756.153 -4.26181 -2.3711 0
M  V30 8057 H 755.158 -5.48225 -0.415876 0
M  V30 8058 H 756.383 -6.76548 -0.588135 0
M  V30 8059 H 754.329 -5.98258 -2.69115 0
M  V30 8060 H 754.246 -7.37495 -1.66246 0
M  V30 8061 H 755.514 -7.25697 -2.84576 0
M  V30 8062 N 759.743 -0.201713 -1.56304 0
M  V30 8063 C 760.968 0.443815 -2.02596 0
M  V30 8064 C 761.393 1.53945 -1.08086 0
M  V30 8065 O 760.751 1.81182 -0.0655056 0
M  V30 8066 C 760.799 0.971066 -3.47279 0
M  V30 8067 O 759.903 2.0836 -3.55893 0
M  V30 8068 H 759.244 0.10294 -0.655972 0
M  V30 8069 H 761.774 -0.314533 -2.02168 0
M  V30 8070 H 761.784 1.28598 -3.87204 0
M  V30 8071 H 760.459 0.169048 -4.15556 0
M  V30 8072 H 759.036 1.77683 -3.27846 0
M  V30 8073 N 761.222 1.57436 0.0718424 0
M  V30 8074 C 762.638 1.53792 0.426628 0
M  V30 8075 C 762.838 0.921887 1.79174 0
M  V30 8076 O 761.894 0.524374 2.46995 0
M  V30 8077 C 763.207 2.98443 0.367739 0
M  V30 8078 C 764.755 3.09778 0.447928 0
M  V30 8079 C 765.23 4.5608 0.418946 0
M  V30 8080 N 766.721 4.60716 0.479022 0
M  V30 8081 C 767.456 5.71397 0.47881 0
M  V30 8082 N 766.952 6.91443 0.433417 0
M  V30 8083 N 768.745 5.59639 0.525364 0
M  V30 8084 H 760.896 1.95848 -0.822033 0
M  V30 8085 H 763.159 0.896418 -0.308447 0
M  V30 8086 H 762.865 3.47072 -0.56865 0
M  V30 8087 H 762.739 3.58335 1.17795 0
M  V30 8088 H 765.126 2.61122 1.37474 0
M  V30 8089 H 765.207 2.52796 -0.390857 0
M  V30 8090 H 764.851 5.05393 -0.504016 0
M  V30 8091 H 764.781 5.10925 1.27526 0
M  V30 8092 H 767.272 3.74328 0.518355 0
M  V30 8093 H 767.585 7.71562 0.43718 0
M  V30 8094 H 765.93 6.93847 0.400106 0
M  V30 8095 H 769.121 4.64756 0.558519 0
M  V30 8096 H 769.294 6.45896 0.52173 0
M  V30 8097 N 762.7 -0.34323 1.53817 0
M  V30 8098 C 763.925 -1.1079 1.75329 0
M  V30 8099 C 764.35 -1.81571 0.491293 0
M  V30 8100 O 763.708 -1.72561 -0.556089 0
M  V30 8101 C 763.756 -2.09681 2.9337 0
M  V30 8102 O 762.86 -3.17207 2.63541 0
M  V30 8103 H 762.201 -0.320402 0.581583 0
M  V30 8104 H 764.731 -0.393525 2.0078 0
M  V30 8105 H 764.741 -2.52897 3.20168 0
M  V30 8106 H 763.416 -1.5756 3.84899 0
M  V30 8107 H 761.993 -2.78806 2.47632 0
M  V30 8108 N 764.178 -1.45556 -0.604258 0
M  V30 8109 C 765.126 -1.5482 -1.7359 0
M  V30 8110 C 766.12 -0.417966 -1.64163 0
M  V30 8111 O 767.326 -0.594007 -1.69916 0
M  V30 8112 H 763.701 -0.486352 -0.573556 0
M  V30 8113 H 765.672 -2.5001 -1.62903 0
M  V30 8114 C 764.421 -1.53521 -3.11972 0
M  V30 8115 H 763.744 -2.39818 -3.19886 0
M  V30 8116 H 765.184 -1.64061 -3.90973 0
M  V30 8117 C 763.643 -0.260191 -3.35894 0
M  V30 8118 O 764.173 0.658582 -3.96265 0
M  V30 8119 N 762.379 -0.154839 -2.90187 0
M  V30 8120 H 761.926 -0.903378 -2.4124 0
M  V30 8121 H 761.884 0.697437 -3.06567 0
M  V30 8122 N 765.656 0.84705 -1.32902 0
M  V30 8123 C 766.902 1.60414 -1.24078 0
M  V30 8124 C 767.235 1.93217 0.195105 0
M  V30 8125 O 766.51 1.58001 1.13428 0
M  V30 8126 C 766.793 2.91951 -2.108 0
M  V30 8127 C 766.646 2.6588 -3.62805 0
M  V30 8128 C 767.965 3.93299 -1.97494 0
M  V30 8129 H 765.084 0.58206 -0.452079 0
M  V30 8130 H 767.726 0.977562 -1.62922 0
M  V30 8131 H 765.876 3.45425 -1.77802 0
M  V30 8132 H 767.548 2.18902 -4.06054 0
M  V30 8133 H 765.791 1.99716 -3.85092 0
M  V30 8134 H 766.462 3.59574 -4.1882 0
M  V30 8135 H 768.938 3.49105 -2.26417 0
M  V30 8136 H 767.814 4.8318 -2.60438 0
M  V30 8137 H 768.075 4.31887 -0.944782 0
M  V30 8138 N 767.134 1.16236 1.06428 0
M  V30 8139 C 768.411 0.853294 1.76006 0
M  V30 8140 C 768.791 -0.649162 2.00871 0
M  V30 8141 O 768.139 -1.59653 1.63472 0
M  V30 8142 C 768.349 1.67448 3.06206 0
M  V30 8143 C 769.697 1.8866 3.80385 0
M  V30 8144 O 770.721 1.64303 3.16043 0
M  V30 8145 O 769.58 2.29518 4.95968 0
M  V30 8146 H 766.674 0.314737 0.764767 0
M  V30 8147 H 769.22 1.26865 1.12709 0
M  V30 8148 H 767.992 2.69411 2.83784 0
M  V30 8149 H 767.615 1.25608 3.77238 0
M  V30 8150 N 768.612 -1.24939 0.960631 0
M  V30 8151 C 769.545 -2.24116 0.429804 0
M  V30 8152 C 770.523 -1.54972 -0.492188 0
M  V30 8153 O 771.707 -1.83642 -0.42519 0
M  V30 8154 C 768.834 -3.36558 -0.380312 0
M  V30 8155 C 767.88 -4.23757 0.482941 0
M  V30 8156 S 768.713 -4.9994 1.91885 0
M  V30 8157 C 769.869 -6.15846 1.11732 0
M  V30 8158 H 770.102 -2.68795 1.27029 0
M  V30 8159 H 767.635 -1.34108 0.765141 0
M  V30 8160 H 769.593 -4.01777 -0.841764 0
M  V30 8161 H 768.254 -2.90451 -1.19569 0
M  V30 8162 H 767.447 -5.03809 -0.138699 0
M  V30 8163 H 767.049 -3.63504 0.879839 0
M  V30 8164 H 769.341 -6.76495 0.368898 0
M  V30 8165 H 770.284 -6.82356 1.89198 0
M  V30 8166 H 770.692 -5.60805 0.644812 0
M  V30 8167 N 770.09 -0.729906 -1.39679 0
M  V30 8168 C 771.367 -0.202149 -1.94553 0
M  V30 8169 C 771.747 1.29507 -1.66707 0
M  V30 8170 O 771.095 2.05819 -0.992517 0
M  V30 8171 C 771.305 -0.530279 -3.44948 0
M  V30 8172 C 772.653 -0.476808 -4.21914 0
M  V30 8173 O 773.677 -0.467171 -3.53123 0
M  V30 8174 O 772.536 -0.466869 -5.44502 0
M  V30 8175 H 769.63 -0.0351644 -0.826252 0
M  V30 8176 H 772.176 -0.808417 -1.49207 0
M  V30 8177 H 770.948 -1.56526 -3.5863 0
M  V30 8178 H 770.571 0.10522 -3.97461 0
M  V30 8179 N 771.568 1.50203 -0.477153 0
M  V30 8180 C 772.815 2.02358 0.0757385 0
M  V30 8181 C 773.143 1.3587 1.39174 0
M  V30 8182 O 772.398 0.475415 1.89838 0
M  V30 8183 C 772.697 3.56127 0.301325 0
M  V30 8184 C 772.363 4.41126 -0.933725 0
M  V30 8185 C 771.025 4.64075 -1.27233 0
M  V30 8186 C 773.377 4.90737 -1.75576 0
M  V30 8187 C 770.705 5.33878 -2.43292 0
M  V30 8188 C 773.057 5.61816 -2.90768 0
M  V30 8189 C 771.721 5.83016 -3.25036 0
M  V30 8190 H 770.991 0.740482 0.0277147 0
M  V30 8191 H 773.638 1.80754 -0.632467 0
M  V30 8192 H 771.943 3.76279 1.09183 0
M  V30 8193 H 773.64 3.94053 0.743184 0
M  V30 8194 H 770.23 4.23489 -0.659935 0
M  V30 8195 H 774.414 4.72856 -1.50734 0
M  V30 8196 H 769.67 5.48499 -2.70109 0
M  V30 8197 H 773.844 5.99237 -3.54807 0
M  V30 8198 H 771.471 6.36881 -4.15074 0
M  V30 8199 N 773.046 0.209999 1.56195 0
M  V30 8200 C 773.956 -0.716459 2.23392 0
M  V30 8201 C 774.972 -1.22291 1.23778 0
M  V30 8202 O 776.148 -1.26694 1.56558 0
M  V30 8203 C 773.213 -1.91261 2.89172 0
M  V30 8204 C 772.274 -1.44927 4.04097 0
M  V30 8205 C 771.507 -2.5884 4.66731 0
M  V30 8206 O 771.73 -3.76693 4.2832 0
M  V30 8207 O 770.664 -2.30701 5.55932 0
M  V30 8208 H 774.49 -0.174089 3.03201 0
M  V30 8209 H 772.075 -0.0199505 1.49387 0
M  V30 8210 H 773.957 -2.6114 3.30733 0
M  V30 8211 H 772.632 -2.4433 2.12331 0
M  V30 8212 H 771.539 -0.718839 3.67129 0
M  V30 8213 H 772.872 -0.965084 4.82646 0
M  V30 8214 N 774.524 -1.57472 -0.0634922 0
M  V30 8215 C 775.77 -1.87932 -0.762194 0
M  V30 8216 C 776.103 -0.803377 -1.76804 0
M  V30 8217 O 775.378 0.185468 -1.93614 0
M  V30 8218 C 775.661 -3.29053 -1.46275 0
M  V30 8219 C 775.514 -4.47309 -0.472755 0
M  V30 8220 C 776.833 -3.68537 -2.40558 0
M  V30 8221 H 773.952 -0.683521 -0.275624 0
M  V30 8222 H 776.594 -1.89983 -0.0252651 0
M  V30 8223 H 774.744 -3.27435 -2.0909 0
M  V30 8224 H 776.416 -4.61053 0.150828 0
M  V30 8225 H 774.659 -4.33286 0.211187 0
M  V30 8226 H 775.33 -5.42853 -1.00072 0
M  V30 8227 H 777.806 -3.71302 -1.87814 0
M  V30 8228 H 776.682 -4.68152 -2.86574 0
M  V30 8229 H 776.943 -2.98917 -3.25731 0
M  V30 8230 N 776.003 0.335068 -1.53997 0
M  V30 8231 C 776.913 1.43511 -1.85585 0
M  V30 8232 C 777.929 1.57162 -0.746726 0
M  V30 8233 O 779.105 1.72477 -1.03988 0
M  V30 8234 C 776.17 2.78386 -2.06646 0
M  V30 8235 C 775.231 2.74007 -3.30483 0
M  V30 8236 C 774.464 4.02449 -3.50529 0
M  V30 8237 O 774.687 5.00147 -2.74242 0
M  V30 8238 O 773.621 4.06405 -4.4398 0
M  V30 8239 H 777.447 1.19731 -2.79102 0
M  V30 8240 H 775.032 0.528033 -1.39758 0
M  V30 8241 H 776.914 3.58247 -2.21894 0
M  V30 8242 H 775.589 3.0208 -1.16317 0
M  V30 8243 H 774.496 1.92736 -3.2063 0
M  V30 8244 H 775.829 2.55267 -4.20832 0
M  V30 8245 N 777.481 1.45874 0.596531 0
M  V30 8246 C 778.429 1.55739 1.72766 0
M  V30 8247 C 779.423 0.426666 1.63939 0
M  V30 8248 O 780.629 0.60301 1.69599 0
M  V30 8249 H 777.004 0.489386 0.570968 0
M  V30 8250 H 778.975 2.50871 1.61575 0
M  V30 8251 C 777.724 1.55174 3.11153 0
M  V30 8252 H 777.047 2.41511 3.1861 0
M  V30 8253 H 778.487 1.66133 3.90097 0
M  V30 8254 C 776.946 0.278001 3.35751 0
M  V30 8255 O 777.476 -0.637557 3.96608 0
M  V30 8256 N 775.682 0.170227 2.90101 0
M  V30 8257 H 775.229 0.916159 2.40758 0
M  V30 8258 H 775.187 -0.68117 3.06932 0
M  V30 8259 N 778.959 -0.83999 1.33349 0
M  V30 8260 C 779.922 -1.93128 1.23426 0
M  V30 8261 C 780.922 -1.60065 0.153599 0
M  V30 8262 O 782.112 -1.69425 0.405049 0
M  V30 8263 C 779.244 -3.28761 0.901622 0
M  V30 8264 H 780.437 -2.03352 2.20427 0
M  V30 8265 H 777.99 -1.03194 1.17391 0
M  V30 8266 H 778.725 -3.24233 -0.0659337 0
M  V30 8267 H 778.51 -3.54138 1.68311 0
M  V30 8268 H 780 -4.08714 0.856913 0
M  V30 8269 N 780.437 -1.16799 -1.0581 0
M  V30 8270 C 781.683 -0.953935 -1.78963 0
M  V30 8271 C 782.016 0.516638 -1.87202 0
M  V30 8272 O 781.291 1.38338 -1.36721 0
M  V30 8273 C 781.574 -1.58808 -3.23191 0
M  V30 8274 C 781.427 -3.13032 -3.23003 0
M  V30 8275 C 782.746 -1.2868 -4.20867 0
M  V30 8276 H 779.865 -0.347972 -0.64968 0
M  V30 8277 H 782.507 -1.44204 -1.23715 0
M  V30 8278 H 780.657 -1.17303 -3.70368 0
M  V30 8279 H 782.329 -3.63553 -2.83949 0
M  V30 8280 H 780.572 -3.46108 -2.61518 0
M  V30 8281 H 781.243 -3.52527 -4.24769 0
M  V30 8282 H 783.719 -1.6461 -3.82155 0
M  V30 8283 H 782.595 -1.75645 -5.20038 0
M  V30 8284 H 782.856 -0.206491 -4.41618 0
M  V30 8285 N 781.915 1.24427 -0.967243 0
M  V30 8286 C 782.845 2.2773 -0.515899 0
M  V30 8287 C 783.826 1.64197 0.444227 0
M  V30 8288 O 785.011 1.91193 0.340451 0
M  V30 8289 C 782.141 3.46751 0.195149 0
M  V30 8290 C 781.095 4.22548 -0.680953 0
M  V30 8291 C 780.421 5.34456 0.161561 0
M  V30 8292 C 781.721 4.83914 -1.96532 0
M  V30 8293 H 783.415 2.65735 -1.37933 0
M  V30 8294 H 780.961 1.27742 -0.664681 0
M  V30 8295 H 782.914 4.18153 0.522117 0
M  V30 8296 H 781.638 3.07771 1.09292 0
M  V30 8297 H 780.297 3.52946 -0.991186 0
M  V30 8298 H 779.945 4.91716 1.05947 0
M  V30 8299 H 779.645 5.86087 -0.421418 0
M  V30 8300 H 781.169 6.08685 0.483211 0
M  V30 8301 H 782.583 5.47392 -1.70396 0
M  V30 8302 H 780.98 5.45775 -2.49499 0
M  V30 8303 H 782.05 4.05393 -2.66053 0
M  V30 8304 N 783.393 0.737304 1.3929 0
M  V30 8305 C 784.641 0.285691 2.00071 0
M  V30 8306 C 784.962 -1.13169 1.58801 0
M  V30 8307 O 784.232 -1.77104 0.837308 0
M  V30 8308 H 782.812 0.102638 0.739915 0
M  V30 8309 H 785.474 0.947775 1.70303 0
M  V30 8310 H 784.57 0.335906 3.10287 0
M  V30 8311 N 784.871 -1.49948 0.485112 0
M  V30 8312 C 785.818 -2.28819 -0.301729 0
M  V30 8313 C 786.788 -1.34496 -0.974683 0
M  V30 8314 O 787.973 -1.63444 -0.984418 0
M  V30 8315 C 785.113 -3.16758 -1.36961 0
M  V30 8316 C 784.226 -4.26125 -0.710027 0
M  V30 8317 C 783.361 -5.01302 -1.75699 0
M  V30 8318 C 782.4 -6.02525 -1.07841 0
M  V30 8319 N 781.537 -6.70927 -2.06886 0
M  V30 8320 H 786.377 -2.95604 0.377127 0
M  V30 8321 H 783.914 -1.45764 0.197826 0
M  V30 8322 H 785.872 -3.66106 -2.00056 0
M  V30 8323 H 784.502 -2.51991 -2.01744 0
M  V30 8324 H 783.554 -3.80385 0.0338278 0
M  V30 8325 H 784.866 -4.98493 -0.175079 0
M  V30 8326 H 784.02 -5.54438 -2.46339 0
M  V30 8327 H 782.759 -4.28672 -2.32577 0
M  V30 8328 H 781.764 -5.48635 -0.357706 0
M  V30 8329 H 782.989 -6.77134 -0.516345 0
M  V30 8330 H 780.935 -6.01079 -2.62755 0
M  V30 8331 H 780.852 -7.39216 -1.58414 0
M  V30 8332 H 782.12 -7.28675 -2.76863 0
M  V30 8333 N 786.349 -0.21828 -1.56081 0
M  V30 8334 C 787.626 0.463143 -1.90038 0
M  V30 8335 C 788.006 1.77982 -1.13515 0
M  V30 8336 O 787.354 2.27199 -0.24345 0
M  V30 8337 C 787.564 0.659292 -3.42716 0
M  V30 8338 C 788.912 0.968203 -4.13414 0
M  V30 8339 O 789.936 0.746195 -3.48296 0
M  V30 8340 O 788.795 1.38936 -5.28544 0
M  V30 8341 H 785.889 0.244435 -0.790051 0
M  V30 8342 H 788.435 -0.260221 -1.67693 0
M  V30 8343 H 787.207 -0.269584 -3.9037 0
M  V30 8344 H 786.83 1.43426 -3.7083 0
M  V30 8345 N 787.827 1.57504 0.0551401 0
M  V30 8346 C 789.074 1.88055 0.751104 0
M  V30 8347 C 789.402 0.812231 1.76729 0
M  V30 8348 O 788.657 -0.189918 1.94776 0
M  V30 8349 C 788.956 3.25311 1.48013 0
M  V30 8350 C 788.622 4.46858 0.602375 0
M  V30 8351 C 787.284 4.79847 0.360536 0
M  V30 8352 C 789.636 5.212 -0.00524047 0
M  V30 8353 C 786.964 5.84582 -0.498127 0
M  V30 8354 C 789.316 6.26844 -0.851453 0
M  V30 8355 C 787.98 6.58324 -1.103 0
M  V30 8356 H 787.25 0.688142 0.274848 0
M  V30 8357 H 789.897 1.91497 0.0114795 0
M  V30 8358 H 788.202 3.17737 2.29239 0
M  V30 8359 H 789.899 3.46189 2.02371 0
M  V30 8360 H 786.489 4.21049 0.801007 0
M  V30 8361 H 790.673 4.96013 0.168682 0
M  V30 8362 H 785.929 6.07361 -0.701594 0
M  V30 8363 H 790.103 6.83603 -1.32893 0
M  V30 8364 H 787.73 7.39304 -1.77011 0
M  V30 8365 N 789.305 -0.326896 1.54172 0
M  V30 8366 C 790.252 -1.40216 1.83325 0
M  V30 8367 C 791.222 -1.51538 0.680107 0
M  V30 8368 O 792.407 -1.66811 0.926206 0
M  V30 8369 C 789.547 -2.76626 2.0633 0
M  V30 8370 C 788.66 -2.73963 3.34019 0
M  V30 8371 C 787.795 -4.02198 3.47002 0
M  V30 8372 C 786.834 -3.93828 4.68578 0
M  V30 8373 N 785.971 -5.13787 4.78506 0
M  V30 8374 H 790.811 -1.14656 2.7506 0
M  V30 8375 H 788.348 -0.555089 1.36225 0
M  V30 8376 H 790.306 -3.55922 2.17659 0
M  V30 8377 H 788.936 -3.00503 1.1789 0
M  V30 8378 H 787.988 -1.86677 3.31445 0
M  V30 8379 H 789.3 -2.6366 4.2342 0
M  V30 8380 H 788.454 -4.89923 3.57855 0
M  V30 8381 H 787.193 -4.15302 2.55687 0
M  V30 8382 H 786.198 -3.04487 4.57786 0
M  V30 8383 H 787.423 -3.82292 5.61275 0
M  V30 8384 H 785.369 -5.27403 3.90105 0
M  V30 8385 H 785.286 -5.05807 5.61868 0
M  V30 8386 H 786.554 -6.03236 4.93686 0
M  V30 8387 N 790.784 -1.46188 -0.588786 0
M  V30 8388 C 791.714 -1.59148 -1.70863 0
M  V30 8389 C 792.695 -0.442083 -1.64255 0
M  V30 8390 O 793.88 -0.667575 -1.82365 0
M  V30 8391 C 791.01 -1.5757 -3.09498 0
M  V30 8392 C 789.964 -2.71418 -3.30932 0
M  V30 8393 C 789.29 -2.549 -4.70032 0
M  V30 8394 C 790.59 -4.1329 -3.19356 0
M  V30 8395 H 792.284 -2.52889 -1.60274 0
M  V30 8396 H 789.83 -1.21707 -0.769638 0
M  V30 8397 H 791.783 -1.65231 -3.87655 0
M  V30 8398 H 790.507 -0.603705 -3.20972 0
M  V30 8399 H 789.166 -2.63216 -2.55172 0
M  V30 8400 H 788.814 -1.55797 -4.78264 0
M  V30 8401 H 788.514 -3.31257 -4.85327 0
M  V30 8402 H 790.038 -2.64443 -5.50366 0
M  V30 8403 H 791.452 -4.22636 -3.87365 0
M  V30 8404 H 789.849 -4.90187 -3.46175 0
M  V30 8405 H 790.919 -4.33874 -2.16522 0
M  V30 8406 N 792.262 0.832906 -1.33792 0
M  V30 8407 C 793.487 1.62568 -1.28788 0
M  V30 8408 C 793.912 1.87599 0.137246 0
M  V30 8409 O 793.27 1.44436 1.0958 0
M  V30 8410 C 793.318 2.9495 -2.07453 0
M  V30 8411 O 792.422 3.86546 -1.43722 0
M  V30 8412 H 791.763 0.494809 -0.442787 0
M  V30 8413 H 794.293 1.03578 -1.76445 0
M  V30 8414 H 794.303 3.44599 -2.1844 0
M  V30 8415 H 792.978 2.76055 -3.11073 0
M  V30 8416 H 791.555 3.45044 -1.41417 0
M  V30 8417 N 793.74 1.17359 1.05189 0
M  V30 8418 C 794.989 0.956412 1.77583 0
M  V30 8419 C 795.302 -0.516018 1.88671 0
M  V30 8420 O 796.508 -0.851401 2.57805 0
M  V30 8421 C 794.964 1.66203 3.19225 0
M  V30 8422 C 794.572 3.17299 3.16267 0
M  V30 8423 C 796.316 1.52725 3.96075 0
M  V30 8424 C 794.223 3.8055 4.52698 0
M  V30 8425 H 793.153 0.354204 0.665624 0
M  V30 8426 H 795.804 1.40612 1.17901 0
M  V30 8427 H 794.186 1.14006 3.79234 0
M  V30 8428 H 795.36 3.76431 2.65776 0
M  V30 8429 H 793.675 3.3079 2.52917 0
M  V30 8430 H 796.272 1.97351 4.96947 0
M  V30 8431 H 796.615 0.477803 4.13549 0
M  V30 8432 H 797.148 2.02139 3.42614 0
M  V30 8433 H 793.887 4.85492 4.4043 0
M  V30 8434 H 793.407 3.26206 5.03339 0
M  V30 8435 H 795.086 3.82757 5.21638 0
M  V30 8436 N 795.218 -1.23913 0.973828 0
M  V30 8437 C 796.446 -1.96195 0.656891 0
M  V30 8438 C 796.861 -1.72166 -0.774876 0
M  V30 8439 O 796.218 -1.0091 -1.52064 0
M  V30 8440 C 796.269 -3.49342 0.929638 0
M  V30 8441 O 795.99 -3.72553 2.30512 0
M  V30 8442 C 797.491 -4.38833 0.627739 0
M  V30 8443 H 794.711 -0.624841 0.244572 0
M  V30 8444 H 797.255 -1.57579 1.30343 0
M  V30 8445 H 795.41 -3.85999 0.329216 0
M  V30 8446 H 795.824 -4.66893 2.3898 0
M  V30 8447 H 797.298 -5.45117 0.868991 0
M  V30 8448 H 797.775 -4.37009 -0.438104 0
M  V30 8449 H 798.381 -4.07773 1.20834 0
M  V30 8450 N 796.696 -0.74468 -1.38897 0
M  V30 8451 C 797.943 -0.296884 -2.00312 0
M  V30 8452 C 798.271 1.11878 -1.59102 0
M  V30 8453 O 797.526 1.7789 -0.815702 0
M  V30 8454 C 797.825 -0.357302 -3.55609 0
M  V30 8455 C 797.491 -1.72736 -4.16501 0
M  V30 8456 C 796.153 -2.10232 -4.32846 0
M  V30 8457 C 798.505 -2.62647 -4.50184 0
M  V30 8458 C 795.833 -3.3713 -4.80167 0
M  V30 8459 C 798.185 -3.88926 -4.98918 0
M  V30 8460 C 796.849 -4.26503 -5.1347 0
M  V30 8461 H 796.119 -0.108638 -0.732993 0
M  V30 8462 H 798.766 -0.953419 -1.66079 0
M  V30 8463 H 797.071 0.382805 -3.89925 0
M  V30 8464 H 798.768 0.0074596 -4.00999 0
M  V30 8465 H 795.358 -1.42585 -4.04187 0
M  V30 8466 H 799.542 -2.34945 -4.37166 0
M  V30 8467 H 794.798 -3.66174 -4.89619 0
M  V30 8468 H 798.972 -4.58745 -5.23952 0
M  V30 8469 H 796.599 -5.24896 -5.49898 0
M  V30 8470 N 798.174 1.49689 -0.493057 0
M  V30 8471 C 799.59 1.58907 -0.148526 0
M  V30 8472 C 799.79 1.4991 1.34645 0
M  V30 8473 O 798.846 1.36893 2.12171 0
M  V30 8474 C 800.159 2.91996 -0.718265 0
M  V30 8475 C 801.707 3.05443 -0.683658 0
M  V30 8476 C 802.182 4.41138 -1.23132 0
M  V30 8477 N 803.673 4.47608 -1.19167 0
M  V30 8478 C 804.408 5.51038 -1.5857 0
M  V30 8479 N 803.904 6.61612 -2.05528 0
M  V30 8480 N 805.697 5.41706 -1.50036 0
M  V30 8481 H 797.848 1.5378 -1.46511 0
M  V30 8482 H 800.111 0.727996 -0.607228 0
M  V30 8483 H 799.817 3.04123 -1.7664 0
M  V30 8484 H 799.691 3.76798 -0.17419 0
M  V30 8485 H 802.078 2.92949 0.355626 0
M  V30 8486 H 802.159 2.22344 -1.26479 0
M  V30 8487 H 801.803 4.54382 -2.26935 0
M  V30 8488 H 801.733 5.22864 -0.626201 0
M  V30 8489 H 804.224 3.68274 -0.847524 0
M  V30 8490 H 804.537 7.36622 -2.33685 0
M  V30 8491 H 802.882 6.62674 -2.09497 0
M  V30 8492 H 806.073 4.54212 -1.13176 0
M  V30 8493 H 806.246 6.22188 -1.81068 0
M  V30 8494 N 799.652 0.226554 1.55963 0
M  V30 8495 C 800.6 -0.697922 2.21882 0
M  V30 8496 C 801.594 -1.19586 1.19981 0
M  V30 8497 O 802.8 -1.15511 1.38048 0
M  V30 8498 H 799.175 -0.243501 0.711485 0
M  V30 8499 H 801.146 -0.118576 2.98164 0
M  V30 8500 C 799.895 -1.89309 2.91646 0
M  V30 8501 H 799.218 -1.51906 3.69817 0
M  V30 8502 H 800.658 -2.51762 3.41162 0
M  V30 8503 C 799.117 -2.75162 1.94391 0
M  V30 8504 O 799.647 -3.74071 1.46402 0
M  V30 8505 N 797.853 -2.41302 1.61932 0
M  V30 8506 H 797.4 -1.60923 2.01151 0
M  V30 8507 H 797.358 -2.99023 0.971219 0
M  V30 8508 N 801.13 -1.57531 -0.0467866 0
M  V30 8509 C 802.078 -2.06455 -1.0714 0
M  V30 8510 C 803.072 -0.974744 -1.38546 0
M  V30 8511 O 804.278 -1.15974 -1.37659 0
M  V30 8512 H 800.653 -0.658607 -0.362962 0
M  V30 8513 H 802.624 -2.91613 -0.632813 0
M  V30 8514 C 801.373 -2.54481 -2.36927 0
M  V30 8515 H 800.696 -3.37946 -2.13617 0
M  V30 8516 H 802.136 -2.92442 -3.07007 0
M  V30 8517 C 800.595 -1.43836 -3.04652 0
M  V30 8518 O 801.125 -0.794531 -3.93764 0
M  V30 8519 N 799.331 -1.17727 -2.65686 0
M  V30 8520 H 798.878 -1.70265 -1.93307 0
M  V30 8521 H 798.836 -0.439051 -3.11319 0
M  V30 8522 N 802.608 0.318715 -1.54344 0
M  V30 8523 C 803.833 1.07987 -1.77069 0
M  V30 8524 C 804.258 1.80766 -0.520117 0
M  V30 8525 O 803.616 1.73424 0.528566 0
M  V30 8526 C 803.664 2.04987 -2.96669 0
M  V30 8527 O 802.768 3.12974 -2.68554 0
M  V30 8528 H 802.109 0.311109 -0.586606 0
M  V30 8529 H 804.639 0.361533 -2.0138 0
M  V30 8530 H 804.649 2.47771 -3.2415 0
M  V30 8531 H 803.324 1.51417 -3.87357 0
M  V30 8532 H 801.901 2.74831 -2.52037 0
M  V30 8533 N 804.086 1.46499 0.581025 0
M  V30 8534 C 805.036 1.53606 1.68491 0
M  V30 8535 C 806.02 0.396853 1.55929 0
M  V30 8536 O 807.212 0.645366 1.64815 0
M  V30 8537 C 804.341 1.53089 3.07276 0
M  V30 8538 C 803.427 2.72309 3.25128 0
M  V30 8539 N 803.818 3.97216 3.13134 0
M  V30 8540 C 802.116 2.68568 3.56072 0
M  V30 8541 C 802.817 4.7693 3.33036 0
M  V30 8542 N 801.793 4.08833 3.58269 0
M  V30 8543 H 805.595 2.47976 1.5775 0
M  V30 8544 H 803.109 1.42161 0.785104 0
M  V30 8545 H 805.106 1.56268 3.86505 0
M  V30 8546 H 803.766 0.597969 3.19146 0
M  V30 8547 H 804.777 4.28439 2.90964 0
M  V30 8548 H 801.454 1.84307 3.74616 0
M  V30 8549 H 802.844 5.85879 3.28932 0
M  V30 8550 N 805.565 -0.825799 1.34232 0
M  V30 8551 C 806.513 -1.95792 1.25572 0
M  V30 8552 C 807.507 -1.68695 0.154404 0
M  V30 8553 O 808.713 -1.77147 0.319196 0
M  V30 8554 H 805.088 -0.642949 0.390027 0
M  V30 8555 H 807.059 -2.00219 2.21258 0
M  V30 8556 C 805.808 -3.32245 1.02511 0
M  V30 8557 H 805.131 -3.53642 1.86487 0
M  V30 8558 H 806.571 -4.1192 1.00487 0
M  V30 8559 C 805.03 -3.35803 -0.27167 0
M  V30 8560 O 805.56 -3.80962 -1.274 0
M  V30 8561 N 803.766 -2.89008 -0.303778 0
M  V30 8562 H 803.313 -2.52451 0.512464 0
M  V30 8563 H 803.271 -2.9177 -1.17121 0
M  V30 8564 N 807.043 -1.17915 -1.04565 0
M  V30 8565 C 808.459 -0.927761 -1.29864 0
M  V30 8566 C 808.659 0.409536 -1.97294 0
M  V30 8567 O 807.715 1.14505 -2.25044 0
M  V30 8568 C 809.028 -2.08967 -2.16225 0
M  V30 8569 C 810.576 -2.12741 -2.29587 0
M  V30 8570 C 811.051 -3.28335 -3.19312 0
M  V30 8571 N 812.542 -3.28164 -3.26898 0
M  V30 8572 C 813.277 -4.14249 -3.96466 0
M  V30 8573 N 812.773 -5.10457 -4.68407 0
M  V30 8574 N 814.566 -4.02179 -3.92694 0
M  V30 8575 H 806.717 -2.03983 -0.592011 0
M  V30 8576 H 808.98 -0.891023 -0.323701 0
M  V30 8577 H 808.686 -3.05654 -1.73979 0
M  V30 8578 H 808.56 -2.04606 -3.16885 0
M  V30 8579 H 810.947 -1.16636 -2.71072 0
M  V30 8580 H 811.028 -2.21162 -1.28535 0
M  V30 8581 H 810.672 -4.2471 -2.78539 0
M  V30 8582 H 810.602 -3.17151 -4.20384 0
M  V30 8583 H 813.093 -2.58511 -2.75646 0
M  V30 8584 H 813.406 -5.72526 -5.1907 0
M  V30 8585 H 811.751 -5.14422 -4.67328 0
M  V30 8586 H 814.942 -3.26308 -3.3562 0
M  V30 8587 H 815.115 -4.69486 -4.4664 0
M  V30 8588 N 808.521 1.23394 -0.980386 0
M  V30 8589 C 809.751 1.9556 -0.666319 0
M  V30 8590 C 810.159 1.72786 0.770815 0
M  V30 8591 O 809.502 1.0162 1.53033 0
M  V30 8592 C 809.564 3.48643 -0.876825 0
M  V30 8593 C 809.228 3.95135 -2.29602 0
M  V30 8594 C 810.225 4.03806 -3.2747 0
M  V30 8595 C 807.91 4.28122 -2.62711 0
M  V30 8596 C 809.904 4.44818 -4.56526 0
M  V30 8597 C 807.591 4.68814 -3.9199 0
M  V30 8598 C 808.589 4.77129 -4.88709 0
M  V30 8599 O 808.277 5.16908 -6.15679 0
M  V30 8600 H 808.009 0.629422 -0.246585 0
M  V30 8601 H 810.563 1.57839 -1.31438 0
M  V30 8602 H 808.793 3.86319 -0.171587 0
M  V30 8603 H 810.482 4.0202 -0.55992 0
M  V30 8604 H 811.248 3.78526 -3.03222 0
M  V30 8605 H 807.127 4.20861 -1.8814 0
M  V30 8606 H 810.671 4.51223 -5.32018 0
M  V30 8607 H 806.568 4.93545 -4.16033 0
M  V30 8608 H 807.336 5.3502 -6.19432 0
M  V30 8609 N 809.999 0.752036 1.385 0
M  V30 8610 C 811.227 0.318274 2.04437 0
M  V30 8611 C 811.642 -1.05285 1.56718 0
M  V30 8612 O 810.999 -1.66844 0.73956 0
M  V30 8613 C 811.05 0.330106 3.5999 0
M  V30 8614 O 810.771 1.64712 4.05957 0
M  V30 8615 C 812.272 -0.117713 4.43144 0
M  V30 8616 H 809.492 0.136228 0.657026 0
M  V30 8617 H 812.036 1.02045 1.7722 0
M  V30 8618 H 810.191 -0.323323 3.86048 0
M  V30 8619 H 810.605 1.57225 5.0038 0
M  V30 8620 H 812.079 -0.0582735 5.51969 0
M  V30 8621 H 812.556 -1.16538 4.23457 0
M  V30 8622 H 813.162 0.506784 4.2227 0
M  V30 8623 N 811.477 -1.49425 0.500989 0
M  V30 8624 C 812.726 -2.01649 -0.04538 0
M  V30 8625 C 813.039 -1.38572 -1.38047 0
M  V30 8626 O 814.245 -1.82124 -2.01353 0
M  V30 8627 C 812.701 -3.5966 -0.131337 0
M  V30 8628 C 812.309 -4.3171 1.19711 0
M  V30 8629 C 814.053 -4.19828 -0.628071 0
M  V30 8630 C 811.96 -5.81579 1.07332 0
M  V30 8631 H 810.89 -0.753715 -0.0207329 0
M  V30 8632 H 813.541 -1.71962 0.640407 0
M  V30 8633 H 811.923 -3.86063 -0.881574 0
M  V30 8634 H 813.097 -4.17008 1.96064 0
M  V30 8635 H 811.412 -3.83286 1.62729 0
M  V30 8636 H 814.009 -5.2958 -0.738198 0
M  V30 8637 H 814.352 -3.83194 -1.6269 0
M  V30 8638 H 814.885 -3.97746 0.0656314 0
M  V30 8639 H 811.624 -6.22738 2.04642 0
M  V30 8640 H 811.144 -5.98774 0.350679 0
M  V30 8641 H 812.823 -6.42614 0.752047 0
M  V30 8642 N 812.955 -0.234822 -1.55841 0
M  V30 8643 C 814.183 0.397745 -2.03041 0
M  V30 8644 C 814.598 1.52405 -1.11437 0
M  V30 8645 O 813.955 1.82061 -0.126466 0
M  V30 8646 C 814.006 0.916919 -3.49678 0
M  V30 8647 O 813.727 -0.164493 -4.37791 0
M  V30 8648 C 815.228 1.62139 -4.12584 0
M  V30 8649 H 812.448 0.0959214 -0.664108 0
M  V30 8650 H 814.992 -0.355156 -2.01392 0
M  V30 8651 H 813.147 1.62004 -3.519 0
M  V30 8652 H 813.561 0.227794 -5.24005 0
M  V30 8653 H 815.035 1.93651 -5.16917 0
M  V30 8654 H 815.512 2.53918 -3.58361 0
M  V30 8655 H 816.118 0.963145 -4.14251 0
M  V30 8656 N 814.433 1.57553 0.0384317 0
M  V30 8657 C 815.396 2.04927 1.02653 0
M  V30 8658 C 816.396 0.951768 1.29607 0
M  V30 8659 O 817.586 1.21568 1.24768 0
M  V30 8660 C 814.718 2.45828 2.36181 0
M  V30 8661 H 815.911 2.93474 0.617508 0
M  V30 8662 H 813.464 1.53679 0.285031 0
M  V30 8663 H 814.199 1.60408 2.8185 0
M  V30 8664 H 813.984 3.25945 2.1795 0
M  V30 8665 H 815.474 2.82939 3.0714 0
M  V30 8666 N 815.911 -0.310526 1.54511 0
M  V30 8667 C 817.141 -1.06456 1.77061 0
M  V30 8668 C 817.549 -1.81755 0.525528 0
M  V30 8669 O 816.892 -1.76365 -0.513904 0
M  V30 8670 C 816.954 -2.09856 2.91892 0
M  V30 8671 C 816.618 -1.53838 4.30329 0
M  V30 8672 C 817.615 -0.973358 5.10707 0
M  V30 8673 C 815.3 -1.57688 4.76906 0
M  V30 8674 C 817.294 -0.454283 6.35779 0
M  V30 8675 C 814.981 -1.05393 6.01943 0
M  V30 8676 C 815.979 -0.493595 6.81214 0
M  V30 8677 O 815.667 0.0214506 8.03897 0
M  V30 8678 H 815.399 -0.321913 0.594431 0
M  V30 8679 H 817.953 -0.358289 2.02251 0
M  V30 8680 H 816.183 -2.84137 2.62304 0
M  V30 8681 H 817.872 -2.71085 3.02106 0
M  V30 8682 H 818.638 -0.936588 4.75871 0
M  V30 8683 H 814.517 -2.00242 4.1524 0
M  V30 8684 H 818.061 -0.0162657 6.97598 0
M  V30 8685 H 813.958 -1.08782 6.36268 0
M  V30 8686 H 814.726 -0.0927478 8.18447 0
M  V30 8687 N 817.389 -1.46805 -0.573248 0
M  V30 8688 C 818.319 -1.60951 -1.69165 0
M  V30 8689 C 819.3 -0.45948 -1.63777 0
M  V30 8690 O 820.485 -0.68688 -1.81647 0
M  V30 8691 C 817.615 -1.60844 -3.07809 0
M  V30 8692 C 816.569 -2.74913 -3.28035 0
M  V30 8693 C 815.895 -2.59871 -4.67302 0
M  V30 8694 C 817.195 -4.16654 -3.14955 0
M  V30 8695 H 818.889 -2.54574 -1.57582 0
M  V30 8696 H 816.435 -1.22516 -0.756686 0
M  V30 8697 H 818.388 -1.69334 -3.85881 0
M  V30 8698 H 817.112 -0.637714 -3.20314 0
M  V30 8699 H 815.771 -2.65908 -2.52366 0
M  V30 8700 H 815.419 -1.60861 -4.76585 0
M  V30 8701 H 815.119 -3.36386 -4.81786 0
M  V30 8702 H 816.643 -2.70265 -5.4753 0
M  V30 8703 H 818.057 -4.26721 -3.82861 0
M  V30 8704 H 816.454 -4.93831 -3.40956 0
M  V30 8705 H 817.524 -4.36146 -2.11908 0
M  V30 8706 N 818.867 0.818669 -1.34668 0
M  V30 8707 C 820.092 1.61193 -1.30505 0
M  V30 8708 C 820.517 1.87734 0.117341 0
M  V30 8709 O 819.875 1.45591 1.08042 0
M  V30 8710 C 819.923 2.92733 -2.1057 0
M  V30 8711 O 819.027 3.85 -1.47813 0
M  V30 8712 H 818.368 0.490085 -0.44801 0
M  V30 8713 H 820.898 1.01701 -1.77534 0
M  V30 8714 H 820.908 3.42262 -2.22082 0
M  V30 8715 H 819.583 2.7274 -3.13984 0
M  V30 8716 H 818.16 3.43525 -1.45069 0
M  V30 8717 N 820.346 1.18468 1.03938 0
M  V30 8718 C 821.309 0.914944 2.10146 0
M  V30 8719 C 822.309 -0.10022 1.60487 0
M  V30 8720 O 823.499 0.133365 1.73689 0
M  V30 8721 C 820.631 0.372993 3.38853 0
M  V30 8722 H 821.824 1.85677 2.35508 0
M  V30 8723 H 819.377 0.996876 1.20383 0
M  V30 8724 H 820.112 -0.57538 3.19155 0
M  V30 8725 H 819.897 1.1048 3.76213 0
M  V30 8726 H 821.387 0.203014 4.17106 0
M  V30 8727 N 821.824 -1.22873 0.986916 0
M  V30 8728 C 822.772 -2.26597 0.525043 0
M  V30 8729 C 823.766 -1.64079 -0.421252 0
M  V30 8730 O 824.972 -1.77576 -0.294429 0
M  V30 8731 H 821.347 -0.736606 0.151381 0
M  V30 8732 H 823.318 -2.62909 1.41142 0
M  V30 8733 C 822.067 -3.47374 -0.150542 0
M  V30 8734 H 821.39 -3.95737 0.568541 0
M  V30 8735 H 822.83 -4.21739 -0.437256 0
M  V30 8736 C 821.289 -3.07163 -1.38392 0
M  V30 8737 O 821.819 -3.16028 -2.47971 0
M  V30 8738 N 820.025 -2.62009 -1.25697 0
M  V30 8739 H 819.572 -2.54996 -0.365355 0
M  V30 8740 H 819.53 -2.35472 -2.08327 0
M  V30 8741 N 823.302 -0.75937 -1.38099 0
M  V30 8742 C 824.551 -0.314864 -1.99227 0
M  V30 8743 C 824.864 1.1113 -1.60964 0
M  V30 8744 O 826.07 1.65657 -2.15105 0
M  V30 8745 C 824.526 -0.512001 -3.56239 0
M  V30 8746 C 824.134 -1.94762 -4.0345 0
M  V30 8747 C 825.878 -0.130497 -4.24299 0
M  V30 8748 C 823.785 -2.09301 -5.53125 0
M  V30 8749 H 822.715 -0.113978 -0.745335 0
M  V30 8750 H 825.366 -0.936736 -1.57789 0
M  V30 8751 H 823.748 0.179144 -3.95595 0
M  V30 8752 H 824.922 -2.67271 -3.75371 0
M  V30 8753 H 823.237 -2.28457 -3.48133 0
M  V30 8754 H 825.834 -0.21781 -5.34256 0
M  V30 8755 H 826.177 0.917644 -4.0606 0
M  V30 8756 H 826.71 -0.773716 -3.90203 0
M  V30 8757 H 823.449 -3.1239 -5.76275 0
M  V30 8758 H 822.969 -1.41261 -5.82928 0
M  V30 8759 H 824.648 -1.88571 -6.1891 0
M  V30 8760 N 824.78 1.49157 -0.508906 0
M  V30 8761 C 826.008 2.06879 0.0293734 0
M  V30 8762 C 826.423 1.36823 1.30095 0
M  V30 8763 O 825.78 0.449034 1.7689 0
M  V30 8764 C 825.831 3.60423 0.278791 0
M  V30 8765 O 825.552 4.27844 -0.942389 0
M  V30 8766 C 827.053 4.34881 0.859825 0
M  V30 8767 H 824.273 0.67057 -0.0240184 0
M  V30 8768 H 826.817 1.91834 -0.708526 0
M  V30 8769 H 824.972 3.75145 0.966689 0
M  V30 8770 H 825.386 5.19671 -0.710097 0
M  V30 8771 H 826.86 5.43161 0.983884 0
M  V30 8772 H 827.337 3.9789 1.85958 0
M  V30 8773 H 827.943 4.24785 0.209152 0
M  V30 8774 N 826.258 0.243083 1.55714 0
M  V30 8775 C 827.505 -0.38272 1.9885 0
M  V30 8776 C 827.833 -1.58225 1.13115 0
M  V30 8777 O 827.088 -1.94861 0.181067 0
M  V30 8778 C 827.387 -0.839621 3.47398 0
M  V30 8779 C 827.053 0.251737 4.50197 0
M  V30 8780 C 825.715 0.551487 4.78029 0
M  V30 8781 C 828.067 0.988728 5.11736 0
M  V30 8782 C 825.395 1.59237 5.64677 0
M  V30 8783 C 827.747 2.0191 5.99512 0
M  V30 8784 C 826.411 2.32554 6.2568 0
M  V30 8785 H 825.681 -0.140047 0.727645 0
M  V30 8786 H 828.328 0.35011 1.88272 0
M  V30 8787 H 826.633 -1.65159 3.55288 0
M  V30 8788 H 828.33 -1.33404 3.78159 0
M  V30 8789 H 824.92 0.00796741 4.28599 0
M  V30 8790 H 829.104 0.7704 4.90284 0
M  V30 8791 H 824.36 1.83517 5.83208 0
M  V30 8792 H 828.534 2.59511 6.46241 0
M  V30 8793 H 826.161 3.13349 6.92616 0
M  V30 8794 N 827.736 -1.57571 -0.0300757 0
M  V30 8795 C 828.966 -1.93204 -0.731828 0
M  V30 8796 C 829.374 -0.841156 -1.69473 0
M  V30 8797 O 828.717 0.191231 -1.82702 0
M  V30 8798 C 828.779 -3.2463 -1.54453 0
M  V30 8799 C 828.443 -4.50862 -0.746507 0
M  V30 8800 C 829.44 -5.19879 -0.0472309 0
M  V30 8801 C 827.125 -4.9738 -0.701347 0
M  V30 8802 C 829.119 -6.33692 0.686518 0
M  V30 8803 C 826.806 -6.11089 0.036148 0
M  V30 8804 C 827.804 -6.791 0.728841 0
M  V30 8805 O 827.492 -7.90635 1.45436 0
M  V30 8806 H 827.224 -0.6423 -0.210775 0
M  V30 8807 H 829.778 -2.05398 0.00804194 0
M  V30 8808 H 828.008 -3.0876 -2.32818 0
M  V30 8809 H 829.697 -3.45597 -2.1288 0
M  V30 8810 H 830.463 -4.84945 -0.0731582 0
M  V30 8811 H 826.342 -4.44288 -1.23001 0
M  V30 8812 H 829.886 -6.86711 1.22773 0
M  V30 8813 H 825.783 -6.45468 0.064002 0
M  V30 8814 H 826.551 -8.06988 1.36794 0
M  V30 8815 N 829.214 0.302327 -1.54673 0
M  V30 8816 C 830.442 1.05669 -1.77881 0
M  V30 8817 C 830.857 1.80983 -0.537648 0
M  V30 8818 O 830.214 1.7573 0.492467 0
M  V30 8819 C 830.265 2.03828 -2.98557 0
M  V30 8820 O 829.986 1.3157 -4.17877 0
M  V30 8821 C 831.487 2.91314 -3.34143 0
M  V30 8822 H 828.707 0.313436 -0.593295 0
M  V30 8823 H 831.251 0.342003 -2.0162 0
M  V30 8824 H 829.406 2.70801 -2.7703 0
M  V30 8825 H 829.82 1.97481 -4.85903 0
M  V30 8826 H 831.294 3.56042 -4.21827 0
M  V30 8827 H 831.771 3.59544 -2.52239 0
M  V30 8828 H 832.377 2.29874 -3.57824 0
M  V30 8829 N 830.692 1.47107 0.565454 0
M  V30 8830 C 831.94 1.53005 1.32038 0
M  V30 8831 C 832.261 0.190453 1.94068 0
M  V30 8832 O 831.531 -0.784783 1.79494 0
M  V30 8833 H 830.111 0.563578 0.490294 0
M  V30 8834 H 832.773 1.83351 0.660928 0
M  V30 8835 H 831.869 2.29215 2.11818 0
M  V30 8836 N 832.17 -0.811516 1.35101 0
M  V30 8837 C 833.416 -1.57068 1.28287 0
M  V30 8838 C 833.749 -1.93667 -0.143808 0
M  V30 8839 O 833.024 -1.60953 -1.09199 0
M  V30 8840 C 833.307 -2.86259 2.18466 0
M  V30 8841 C 833.16 -2.56168 3.69727 0
M  V30 8842 C 834.479 -3.87924 2.07852 0
M  V30 8843 H 831.598 -0.569869 0.467353 0
M  V30 8844 H 834.24 -0.934023 1.65457 0
M  V30 8845 H 832.39 -3.4059 1.86898 0
M  V30 8846 H 834.062 -2.08059 4.11715 0
M  V30 8847 H 832.305 -1.89436 3.90252 0
M  V30 8848 H 832.976 -3.48344 4.28206 0
M  V30 8849 H 835.452 -3.4298 2.35593 0
M  V30 8850 H 834.328 -4.76106 2.73157 0
M  V30 8851 H 834.589 -4.2923 1.05896 0
M  V30 8852 N 833.648 -1.19017 -1.03309 0
M  V30 8853 C 835.059 -0.993206 -1.5809 0
M  V30 8854 C 835.41 0.45505 -1.9085 0
M  V30 8855 O 834.535 1.33372 -1.70414 0
M  V30 8856 C 835.13 -1.79661 -2.87241 0
M  V30 8857 C 833.689 -1.64377 -3.38611 0
M  V30 8858 C 832.836 -1.78628 -2.12102 0
M  V30 8859 H 835.787 -1.3345 -0.858879 0
M  V30 8860 H 835.808 -1.29019 -3.57958 0
M  V30 8861 H 835.32 -2.85061 -2.63366 0
M  V30 8862 H 833.421 -0.615447 -3.67482 0
M  V30 8863 H 833.534 -2.44651 -4.11926 0
M  V30 8864 H 831.898 -1.21648 -2.23772 0
M  V30 8865 H 832.681 -2.8548 -1.90673 0
M  V30 8866 N 835.127 1.22348 -0.993418 0
M  V30 8867 C 836.074 2.24294 -0.544118 0
M  V30 8868 C 837.044 1.60602 0.42381 0
M  V30 8869 O 838.229 1.87952 0.328453 0
M  V30 8870 C 835.369 3.44837 0.134578 0
M  V30 8871 C 834.482 4.23043 -0.875151 0
M  V30 8872 C 833.617 5.30928 -0.169919 0
M  V30 8873 C 832.656 6.00853 -1.16798 0
M  V30 8874 N 831.793 7.00381 -0.491021 0
M  V30 8875 H 836.633 2.6209 -1.4182 0
M  V30 8876 H 834.17 1.2881 -0.710384 0
M  V30 8877 H 836.128 4.13625 0.544998 0
M  V30 8878 H 834.758 3.07804 0.972446 0
M  V30 8879 H 833.81 3.53546 -1.40389 0
M  V30 8880 H 835.122 4.71237 -1.63516 0
M  V30 8881 H 834.276 6.05972 0.297205 0
M  V30 8882 H 833.015 4.8371 0.622586 0
M  V30 8883 H 832.02 5.24591 -1.64573 0
M  V30 8884 H 833.245 6.50159 -1.96137 0
M  V30 8885 H 831.191 6.55393 0.282037 0
M  V30 8886 H 831.108 7.46584 -1.18947 0
M  V30 8887 H 832.376 7.79486 -0.0467169 0
M  V30 8888 N 836.605 0.766683 1.37694 0
M  V30 8889 C 837.568 0.155849 2.2867 0
M  V30 8890 C 838.568 -0.633509 1.47795 0
M  V30 8891 O 839.758 -0.457844 1.68076 0
M  V30 8892 C 836.89 -0.786965 3.31692 0
M  V30 8893 H 838.083 0.957748 2.84196 0
M  V30 8894 H 835.636 0.534554 1.46875 0
M  V30 8895 H 836.371 -1.61406 2.8128 0
M  V30 8896 H 836.156 -0.223182 3.91464 0
M  V30 8897 H 837.646 -1.20994 3.99688 0
M  V30 8898 N 838.083 -1.48885 0.516809 0
M  V30 8899 C 838.993 -2.33185 -0.257293 0
M  V30 8900 C 840.009 -1.4565 -0.951952 0
M  V30 8901 O 841.185 -1.78651 -0.929834 0
M  V30 8902 C 838.25 -3.21465 -1.29851 0
M  V30 8903 C 837.311 -4.24863 -0.615608 0
M  V30 8904 C 836.544 -5.08925 -1.60722 0
M  V30 8905 O 836.767 -4.9475 -2.83863 0
M  V30 8906 O 835.701 -5.90737 -1.15384 0
M  V30 8907 H 839.527 -3.00596 0.433131 0
M  V30 8908 H 837.112 -1.46792 0.277908 0
M  V30 8909 H 838.994 -3.76108 -1.90055 0
M  V30 8910 H 837.669 -2.5673 -1.97158 0
M  V30 8911 H 836.576 -3.74091 0.0265829 0
M  V30 8912 H 837.909 -4.92198 0.0152871 0
M  V30 8913 N 839.561 -0.251338 -1.55583 0
M  V30 8914 C 840.808 0.372169 -1.99051 0
M  V30 8915 C 841.136 1.57623 -1.13953 0
M  V30 8916 O 840.391 1.94762 -0.191398 0
M  V30 8917 C 840.69 0.821186 -3.47838 0
M  V30 8918 C 840.356 -0.275608 -4.50057 0
M  V30 8919 C 839.018 -0.57683 -4.7773 0
M  V30 8920 C 841.37 -1.01585 -5.11204 0
M  V30 8921 C 838.698 -1.62229 -5.63825 0
M  V30 8922 C 841.05 -2.05087 -5.98433 0
M  V30 8923 C 839.714 -2.35869 -6.24437 0
M  V30 8924 H 838.984 0.136186 -0.728378 0
M  V30 8925 H 841.631 -0.360089 -1.88084 0
M  V30 8926 H 839.936 1.63272 -3.56159 0
M  V30 8927 H 841.633 1.31396 -3.78861 0
M  V30 8928 H 838.223 -0.030697 -4.28589 0
M  V30 8929 H 842.407 -0.79639 -4.89869 0
M  V30 8930 H 837.663 -1.86607 -5.82226 0
M  V30 8931 H 841.837 -2.62934 -6.44855 0
M  V30 8932 H 839.464 -3.17017 -6.90944 0
M  V30 8933 N 841.039 1.57585 0.0217189 0
M  V30 8934 C 841.986 2.07036 1.02004 0
M  V30 8935 C 842.956 0.96106 1.35473 0
M  V30 8936 O 844.141 1.23211 1.45684 0
M  V30 8937 C 841.281 2.56056 2.31364 0
M  V30 8938 C 840.394 3.80805 2.03989 0
M  V30 8939 C 839.529 4.18409 3.27272 0
M  V30 8940 C 838.568 5.36055 2.95486 0
M  V30 8941 N 837.705 5.69056 4.11242 0
M  V30 8942 H 842.545 2.92073 0.591396 0
M  V30 8943 H 840.082 1.44403 0.280384 0
M  V30 8944 H 842.04 2.82548 3.06957 0
M  V30 8945 H 840.67 1.73925 2.71937 0
M  V30 8946 H 839.722 3.61354 1.1886 0
M  V30 8947 H 841.034 4.66512 1.76546 0
M  V30 8948 H 840.188 4.46068 4.11228 0
M  V30 8949 H 838.927 3.31369 3.57835 0
M  V30 8950 H 837.932 5.08142 2.09933 0
M  V30 8951 H 839.157 6.24755 2.66193 0
M  V30 8952 H 837.103 4.84974 4.41742 0
M  V30 8953 H 837.02 6.49288 3.87247 0
M  V30 8954 H 838.288 6.01295 4.96049 0
M  V30 8955 N 842.517 -0.29412 1.54831 0
M  V30 8956 C 843.464 -1.36296 1.86258 0
M  V30 8957 C 844.434 -1.50061 0.712097 0
M  V30 8958 O 845.619 -1.64809 0.961381 0
M  V30 8959 C 842.759 -2.72187 2.12151 0
M  V30 8960 C 841.872 -2.66816 3.39755 0
M  V30 8961 C 841.007 -3.94747 3.55455 0
M  V30 8962 C 840.046 -3.838 4.76827 0
M  V30 8963 N 839.183 -5.03521 4.89296 0
M  V30 8964 H 844.023 -1.08796 2.7743 0
M  V30 8965 H 841.56 -0.526069 1.37371 0
M  V30 8966 H 843.518 -3.51225 2.25159 0
M  V30 8967 H 842.148 -2.97934 1.24237 0
M  V30 8968 H 841.2 -1.79605 3.3533 0
M  V30 8969 H 842.512 -2.5462 4.28917 0
M  V30 8970 H 841.666 -4.82223 3.68166 0
M  V30 8971 H 840.405 -4.09785 2.64438 0
M  V30 8972 H 839.41 -2.94708 4.64141 0
M  V30 8973 H 840.635 -3.70301 5.69258 0
M  V30 8974 H 838.581 -5.1901 4.01204 0
M  V30 8975 H 838.498 -4.93775 5.72471 0
M  V30 8976 H 839.766 -5.92629 5.06371 0
M  V30 8977 N 843.995 -1.47404 -0.557645 0
M  V30 8978 C 844.905 -1.62491 -1.69216 0
M  V30 8979 C 845.921 -0.507764 -1.66426 0
M  V30 8980 O 847.097 -0.775241 -1.85882 0
M  V30 8981 C 844.162 -1.63511 -3.05721 0
M  V30 8982 C 843.223 -2.86648 -3.1958 0
M  V30 8983 C 842.456 -2.87609 -4.49574 0
M  V30 8984 O 842.679 -1.97799 -5.35006 0
M  V30 8985 O 841.613 -3.79465 -4.67215 0
M  V30 8986 H 845.439 -2.58487 -1.59431 0
M  V30 8987 H 843.024 -1.30485 -0.7276 0
M  V30 8988 H 844.906 -1.66863 -3.86956 0
M  V30 8989 H 843.581 -0.706812 -3.15889 0
M  V30 8990 H 842.488 -2.8884 -2.37744 0
M  V30 8991 H 843.821 -3.7877 -3.14316 0
M  V30 8992 N 845.473 0.80434 -1.35529 0
M  V30 8993 C 846.701 1.59283 -1.32048 0
M  V30 8994 C 847.116 1.88527 0.101556 0
M  V30 8995 O 846.473 1.48975 1.05417 0
M  V30 8996 C 846.524 2.92276 -2.12737 0
M  V30 8997 O 846.245 2.64299 -3.49396 0
M  V30 8998 C 847.746 3.86631 -2.16867 0
M  V30 8999 H 844.966 0.494523 -0.453528 0
M  V30 9000 H 847.51 0.999415 -1.78415 0
M  V30 9001 H 845.665 3.48125 -1.69964 0
M  V30 9002 H 846.079 3.4923 -3.91329 0
M  V30 9003 H 847.553 4.77053 -2.77712 0
M  V30 9004 H 848.03 4.23384 -1.16803 0
M  V30 9005 H 848.636 3.36717 -2.59811 0
M  V30 9006 N 846.951 1.19563 1.02676 0
M  V30 9007 C 848.198 0.999568 1.7611 0
M  V30 9008 C 848.526 -0.469432 1.8875 0
M  V30 9009 O 847.781 -1.36481 1.40255 0
M  V30 9010 C 848.08 1.61619 3.18769 0
M  V30 9011 C 847.746 3.11366 3.26132 0
M  V30 9012 C 846.408 3.52234 3.27848 0
M  V30 9013 C 848.76 4.07374 3.25109 0
M  V30 9014 C 846.088 4.87658 3.26201 0
M  V30 9015 C 848.44 5.42731 3.25002 0
M  V30 9016 C 847.104 5.83027 3.25017 0
M  V30 9017 H 846.374 0.365768 0.644434 0
M  V30 9018 H 849.021 1.48838 1.20497 0
M  V30 9019 H 847.326 1.04974 3.77476 0
M  V30 9020 H 849.023 1.43975 3.74262 0
M  V30 9021 H 845.613 2.78804 3.25525 0
M  V30 9022 H 849.797 3.76842 3.22961 0
M  V30 9023 H 845.053 5.18156 3.24537 0
M  V30 9024 H 849.227 6.16879 3.23161 0
M  V30 9025 H 846.854 6.87936 3.23494 0
M  V30 9026 N 848.429 -1.21819 0.999893 0
M  V30 9027 C 849.706 -1.86318 0.595384 0
M  V30 9028 C 850.086 -1.8965 -0.927143 0
M  V30 9029 O 849.434 -1.3921 -1.81199 0
M  V30 9030 C 849.644 -3.26837 1.22387 0
M  V30 9031 C 850.992 -4.03272 1.32878 0
M  V30 9032 O 852.016 -3.36129 1.1788 0
M  V30 9033 O 850.875 -5.23477 1.56952 0
M  V30 9034 H 847.969 -0.801638 0.203238 0
M  V30 9035 H 850.515 -1.29542 1.09622 0
M  V30 9036 H 849.287 -3.19084 2.26497 0
M  V30 9037 H 848.91 -3.91226 0.709069 0
M  V30 9038 N 849.908 -0.773975 -1.37286 0
M  V30 9039 C 851.154 -0.339809 -1.99933 0
M  V30 9040 C 851.487 1.0815 -1.61299 0
M  V30 9041 O 850.762 1.74442 -0.860252 0
M  V30 9042 C 851.045 -0.485919 -3.56806 0
M  V30 9043 C 850.898 -1.9498 -4.05343 0
M  V30 9044 C 852.217 0.108461 -4.39966 0
M  V30 9045 H 849.336 -0.124944 -0.726332 0
M  V30 9046 H 851.978 -0.977433 -1.6293 0
M  V30 9047 H 850.128 0.0569023 -3.88458 0
M  V30 9048 H 851.8 -2.5525 -3.84246 0
M  V30 9049 H 850.043 -2.45784 -3.57453 0
M  V30 9050 H 850.714 -2.00308 -5.14374 0
M  V30 9051 H 853.19 -0.354722 -4.14585 0
M  V30 9052 H 852.066 -0.0238926 -5.48895 0
M  V30 9053 H 852.327 1.19901 -4.25531 0
M  V30 9054 N 851.386 1.48609 -0.524698 0
M  V30 9055 C 852.614 2.06899 0.00742946 0
M  V30 9056 C 853.029 1.38196 1.28637 0
M  V30 9057 O 852.386 0.467771 1.76403 0
M  V30 9058 C 852.437 3.60699 0.240548 0
M  V30 9059 O 852.158 4.26821 -0.987715 0
M  V30 9060 C 853.659 4.35769 0.813652 0
M  V30 9061 H 850.879 0.670278 -0.0311294 0
M  V30 9062 H 853.423 1.91071 -0.728832 0
M  V30 9063 H 851.578 3.76149 0.926845 0
M  V30 9064 H 851.992 5.18889 -0.765175 0
M  V30 9065 H 853.466 5.44174 0.926219 0
M  V30 9066 H 853.943 3.9984 1.81728 0
M  V30 9067 H 854.549 4.24983 0.164086 0
M  V30 9068 N 852.864 0.259585 1.55447 0
M  V30 9069 C 853.794 -0.62852 2.24882 0
M  V30 9070 C 854.775 -1.17128 1.23349 0
M  V30 9071 O 855.96 -1.20829 1.52033 0
M  V30 9072 C 853.09 -1.81983 2.95803 0
M  V30 9073 C 852.044 -1.40929 4.04132 0
M  V30 9074 C 851.37 -2.68246 4.62545 0
M  V30 9075 C 852.67 -0.570956 5.1917 0
M  V30 9076 H 854.364 -0.0495021 2.99359 0
M  V30 9077 H 851.91 -0.0223688 1.43983 0
M  V30 9078 H 853.863 -2.44689 3.43082 0
M  V30 9079 H 852.587 -2.42444 2.18835 0
M  V30 9080 H 851.246 -0.805519 3.57641 0
M  V30 9081 H 850.894 -3.26931 3.82263 0
M  V30 9082 H 850.594 -2.41495 5.35681 0
M  V30 9083 H 852.118 -3.31827 5.12565 0
M  V30 9084 H 853.532 -1.10262 5.62597 0
M  V30 9085 H 851.929 -0.398979 5.98772 0
M  V30 9086 H 852.999 0.413918 4.8313 0
M  V30 9087 N 854.342 -1.57594 -0.0133615 0
M  V30 9088 C 855.252 -2.10991 -1.02566 0
M  V30 9089 C 856.268 -1.05208 -1.3859 0
M  V30 9090 O 857.444 -1.37034 -1.47593 0
M  V30 9091 C 854.509 -2.59165 -2.30292 0
M  V30 9092 C 853.57 -3.79495 -2.00704 0
M  V30 9093 C 852.803 -4.25361 -3.22341 0
M  V30 9094 O 853.026 -3.70645 -4.33565 0
M  V30 9095 O 851.96 -5.17649 -3.07121 0
M  V30 9096 H 855.786 -2.97678 -0.601806 0
M  V30 9097 H 853.371 -1.47598 -0.23135 0
M  V30 9098 H 855.253 -2.90409 -3.05354 0
M  V30 9099 H 853.928 -1.75582 -2.71942 0
M  V30 9100 H 852.835 -3.53245 -1.23161 0
M  V30 9101 H 854.168 -4.64109 -1.639 0
M  V30 9102 N 855.82 0.285905 -1.54985 0
M  V30 9103 C 857.231 0.857869 -1.65824 0
M  V30 9104 C 857.582 1.87531 -0.576763 0
M  V30 9105 O 856.707 2.14528 0.284016 0
M  V30 9106 C 857.302 1.56277 -3.00604 0
M  V30 9107 C 855.861 2.08294 -3.13513 0
M  V30 9108 C 855.008 0.920633 -2.61571 0
M  V30 9109 H 857.959 0.0625463 -1.58577 0
M  V30 9110 H 857.98 2.42912 -2.92872 0
M  V30 9111 H 857.492 0.822017 -3.79295 0
M  V30 9112 H 855.593 2.8537 -2.39572 0
M  V30 9113 H 855.706 2.3071 -4.19892 0
M  V30 9114 H 854.07 1.31043 -2.18403 0
M  V30 9115 H 854.853 0.193594 -3.42754 0
M  V30 9116 N 857.298 1.47698 0.54982 0
M  V30 9117 C 858.228 1.63622 1.66583 0
M  V30 9118 C 859.209 0.485477 1.63025 0
M  V30 9119 O 860.394 0.715692 1.80531 0
M  V30 9120 C 857.524 1.65721 3.05211 0
M  V30 9121 C 856.478 2.80097 3.2362 0
M  V30 9122 C 855.804 2.67272 4.63109 0
M  V30 9123 C 857.104 4.21612 3.08286 0
M  V30 9124 H 858.798 2.57049 1.53512 0
M  V30 9125 H 856.344 1.23705 0.737099 0
M  V30 9126 H 858.297 1.75451 3.83138 0
M  V30 9127 H 857.021 0.688593 3.19258 0
M  V30 9128 H 855.68 2.69889 2.48104 0
M  V30 9129 H 855.328 1.68422 4.73965 0
M  V30 9130 H 855.028 3.44008 4.76374 0
M  V30 9131 H 856.552 2.78942 5.43161 0
M  V30 9132 H 857.966 4.32758 3.76024 0
M  V30 9133 H 856.363 4.99193 3.33057 0
M  V30 9134 H 857.433 4.39462 2.04942 0
M  V30 9135 N 858.776 -0.797141 1.35954 0
M  V30 9136 C 860.001 -1.59097 1.33053 0
M  V30 9137 C 860.426 -1.87897 -0.0874592 0
M  V30 9138 O 859.784 -1.47291 -1.05712 0
M  V30 9139 C 859.832 -2.89346 2.152 0
M  V30 9140 O 858.936 -3.826 1.5392 0
M  V30 9141 H 858.277 -0.482895 0.45575 0
M  V30 9142 H 860.807 -0.988633 1.79129 0
M  V30 9143 H 860.817 -3.38686 2.27499 0
M  V30 9144 H 859.492 -2.6771 3.18283 0
M  V30 9145 H 858.069 -3.41174 1.50516 0
M  V30 9146 N 860.254 -1.20106 -1.0204 0
M  V30 9147 C 861.501 -1.00889 -1.75578 0
M  V30 9148 C 861.829 0.459415 -1.88996 0
M  V30 9149 O 861.084 1.35735 -1.40977 0
M  V30 9150 C 861.383 -1.63308 -3.17908 0
M  V30 9151 C 861.049 -3.13091 -3.24476 0
M  V30 9152 C 859.711 -3.53968 -3.25976 0
M  V30 9153 C 862.063 -4.09093 -3.22944 0
M  V30 9154 C 859.391 -4.89381 -3.2361 0
M  V30 9155 C 861.743 -5.44447 -3.22119 0
M  V30 9156 C 860.407 -5.84742 -3.2192 0
M  V30 9157 H 859.677 -0.36918 -0.642485 0
M  V30 9158 H 862.324 -1.49475 -1.19706 0
M  V30 9159 H 860.629 -1.06974 -3.76914 0
M  V30 9160 H 862.326 -1.45958 -3.73493 0
M  V30 9161 H 858.916 -2.80526 -3.24042 0
M  V30 9162 H 863.1 -3.78549 -3.20958 0
M  V30 9163 H 858.356 -5.1987 -3.21785 0
M  V30 9164 H 862.53 -6.18584 -3.19885 0
M  V30 9165 H 860.157 -6.89642 -3.19841 0
M  V30 9166 N 861.732 1.21287 -1.00634 0
M  V30 9167 C 862.679 2.23705 -0.567876 0
M  V30 9168 C 863.649 1.61043 0.406753 0
M  V30 9169 O 864.834 1.88289 0.308499 0
M  V30 9170 C 861.974 3.44961 0.097996 0
M  V30 9171 C 861.087 4.22091 -0.919972 0
M  V30 9172 C 860.222 5.30718 -0.226222 0
M  V30 9173 C 859.261 5.99581 -1.23165 0
M  V30 9174 N 858.398 6.99821 -0.565278 0
M  V30 9175 H 863.238 2.60571 -1.44592 0
M  V30 9176 H 860.775 1.28049 -0.724006 0
M  V30 9177 H 862.733 4.1418 0.501097 0
M  V30 9178 H 861.363 3.08818 0.939744 0
M  V30 9179 H 860.415 3.52038 -1.44131 0
M  V30 9180 H 861.727 4.69476 -1.68505 0
M  V30 9181 H 860.881 6.06253 0.232917 0
M  V30 9182 H 859.62 4.84343 0.571247 0
M  V30 9183 H 858.625 5.22816 -1.70128 0
M  V30 9184 H 859.85 6.48042 -2.03022 0
M  V30 9185 H 857.796 6.55656 0.212508 0
M  V30 9186 H 857.713 7.4528 -1.26858 0
M  V30 9187 H 858.981 7.79393 -0.129389 0
M  V30 9188 N 863.21 0.781244 1.36873 0
M  V30 9189 C 864.157 0.172146 2.30157 0
M  V30 9190 C 865.127 -0.679328 1.51573 0
M  V30 9191 O 866.312 -0.629713 1.80109 0
M  V30 9192 C 863.452 -0.693534 3.38059 0
M  V30 9193 C 862.565 0.175586 4.31643 0
M  V30 9194 C 861.7 -0.695695 5.26625 0
M  V30 9195 C 860.739 0.17538 6.11849 0
M  V30 9196 N 859.876 -0.654416 6.99043 0
M  V30 9197 H 864.716 0.973133 2.81663 0
M  V30 9198 H 862.253 0.491469 1.38647 0
M  V30 9199 H 864.211 -1.21035 3.99257 0
M  V30 9200 H 862.841 -1.46003 2.87894 0
M  V30 9201 H 861.893 0.810295 3.7167 0
M  V30 9202 H 863.205 0.847107 4.91554 0
M  V30 9203 H 862.359 -1.27863 5.93073 0
M  V30 9204 H 861.098 -1.40087 4.67148 0
M  V30 9205 H 860.103 0.77078 5.4437 0
M  V30 9206 H 861.328 0.87803 6.734 0
M  V30 9207 H 859.274 -1.34403 6.42084 0
M  V30 9208 H 859.191 -0.0403998 7.55989 0
M  V30 9209 H 860.459 -1.22144 7.69871 0
M  V30 9210 N 864.689 -1.48329 0.532571 0
M  V30 9211 C 865.599 -2.33445 -0.232546 0
M  V30 9212 C 866.615 -1.46651 -0.93645 0
M  V30 9213 O 867.791 -1.79627 -0.910834 0
M  V30 9214 C 864.856 -3.22824 -1.26434 0
M  V30 9215 C 863.917 -4.25492 -0.570511 0
M  V30 9216 C 863.15 -5.10601 -1.55315 0
M  V30 9217 O 863.373 -4.97733 -2.78599 0
M  V30 9218 O 862.307 -5.91927 -1.09112 0
M  V30 9219 H 866.133 -3.00119 0.464988 0
M  V30 9220 H 863.718 -1.46489 0.293462 0
M  V30 9221 H 865.6 -3.78103 -1.86055 0
M  V30 9222 H 864.275 -2.58807 -1.94424 0
M  V30 9223 H 863.182 -3.74041 0.0662587 0
M  V30 9224 H 864.515 -4.92154 0.0674904 0
M  V30 9225 N 866.167 -0.267825 -1.55308 0
M  V30 9226 C 867.13 0.60965 -2.20943 0
M  V30 9227 C 868.13 1.0869 -1.18504 0
M  V30 9228 O 869.32 0.988248 -1.43455 0
M  V30 9229 C 866.452 1.84027 -2.86961 0
M  V30 9230 H 867.645 0.0366806 -2.99878 0
M  V30 9231 H 865.198 -0.0183941 -1.56289 0
M  V30 9232 H 865.933 2.45394 -2.1202 0
M  V30 9233 H 865.718 1.50605 -3.62023 0
M  V30 9234 H 867.208 2.46442 -3.37129 0
M  V30 9235 N 867.645 1.57599 0.00500368 0
M  V30 9236 C 868.891 1.90631 0.691919 0
M  V30 9237 C 869.224 0.868443 1.737 0
M  V30 9238 O 868.499 -0.113482 1.94169 0
M  V30 9239 C 868.782 3.34255 1.33961 0
M  V30 9240 C 868.635 4.48755 0.306413 0
M  V30 9241 C 869.954 3.77211 2.26715 0
M  V30 9242 H 867.073 0.693279 0.250066 0
M  V30 9243 H 869.715 1.89946 -0.0452634 0
M  V30 9244 H 867.865 3.3497 1.96793 0
M  V30 9245 H 869.537 4.60176 -0.321841 0
M  V30 9246 H 867.78 4.32203 -0.371852 0
M  V30 9247 H 868.451 5.46193 0.798554 0
M  V30 9248 H 870.927 3.78017 1.73904 0
M  V30 9249 H 869.803 4.78466 2.69002 0
M  V30 9250 H 870.064 3.10801 3.14413 0
M  V30 9251 N 869.123 -0.277682 1.55134 0
M  V30 9252 C 870.053 -1.34742 1.90701 0
M  V30 9253 C 871.034 -1.51757 0.768354 0
M  V30 9254 O 872.219 -1.64879 1.02609 0
M  V30 9255 C 869.349 -2.70775 2.17481 0
M  V30 9256 C 868.303 -2.68497 3.33307 0
M  V30 9257 C 867.629 -4.08037 3.45557 0
M  V30 9258 C 868.929 -2.28178 4.69821 0
M  V30 9259 H 870.623 -1.05224 2.803 0
M  V30 9260 H 868.169 -0.504738 1.34864 0
M  V30 9261 H 870.122 -3.45719 2.40949 0
M  V30 9262 H 868.846 -3.01867 1.24676 0
M  V30 9263 H 867.505 -1.9601 3.09799 0
M  V30 9264 H 867.153 -4.36344 2.50226 0
M  V30 9265 H 866.853 -4.07409 4.23429 0
M  V30 9266 H 868.377 -4.84726 3.71312 0
M  V30 9267 H 869.791 -2.92843 4.92865 0
M  V30 9268 H 868.188 -2.3872 5.50575 0
M  V30 9269 H 869.258 -1.23308 4.6896 0
M  V30 9270 N 870.601 -1.47988 -0.541979 0
M  V30 9271 C 871.85 -1.5465 -1.29485 0
M  V30 9272 C 872.163 -0.220041 -1.94358 0
M  V30 9273 O 873.369 -0.164792 -2.70999 0
M  V30 9274 C 871.825 -2.72685 -2.34885 0
M  V30 9275 C 871.433 -4.11923 -1.76134 0
M  V30 9276 C 873.177 -2.88651 -3.11257 0
M  V30 9277 C 871.084 -5.21237 -2.79404 0
M  V30 9278 H 870.014 -0.575688 -0.486928 0
M  V30 9279 H 872.665 -1.74296 -0.573853 0
M  V30 9280 H 871.047 -2.46448 -3.09966 0
M  V30 9281 H 872.221 -4.48128 -1.07322 0
M  V30 9282 H 870.536 -4.00972 -1.12295 0
M  V30 9283 H 873.133 -3.67487 -3.88404 0
M  V30 9284 H 873.476 -1.97658 -3.66384 0
M  V30 9285 H 874.009 -3.14731 -2.43288 0
M  V30 9286 H 870.748 -6.14156 -2.29113 0
M  V30 9287 H 870.268 -4.89533 -3.4658 0
M  V30 9288 H 871.947 -5.48839 -3.42615 0
M  V30 9289 N 872.079 0.78992 -1.36375 0
M  V30 9290 C 873.011 1.91113 -1.26524 0
M  V30 9291 C 874.024 1.61747 -0.184851 0
M  V30 9292 O 875.213 1.73004 -0.439524 0
M  V30 9293 C 872.313 3.25908 -0.92937 0
M  V30 9294 C 871.486 3.83057 -2.11154 0
M  V30 9295 C 870.545 4.96289 -1.74881 0
M  V30 9296 O 869.571 5.12834 -2.46962 0
M  V30 9297 N 870.773 5.76478 -0.682193 0
M  V30 9298 H 873.538 2.00085 -2.23128 0
M  V30 9299 H 871.099 0.968165 -1.29762 0
M  V30 9300 H 873.091 3.99151 -0.667884 0
M  V30 9301 H 871.661 3.12556 -0.0524843 0
M  V30 9302 H 870.881 3.01808 -2.53586 0
M  V30 9303 H 872.169 4.1797 -2.90135 0
M  V30 9304 H 871.567 5.65638 -0.0836661 0
M  V30 9305 H 870.124 6.50026 -0.480529 0
M  V30 9306 N 873.557 1.20646 1.01402 0
M  V30 9307 C 874.52 0.959314 2.08158 0
M  V30 9308 C 875.52 -0.0661558 1.60664 0
M  V30 9309 O 876.71 0.170177 1.73367 0
M  V30 9310 C 873.842 0.444785 3.37986 0
M  V30 9311 H 875.035 1.90631 2.31517 0
M  V30 9312 H 872.588 1.02219 1.18241 0
M  V30 9313 H 873.323 -0.507553 3.20304 0
M  V30 9314 H 873.108 1.18435 3.73785 0
M  V30 9315 H 874.598 0.291443 4.16582 0
M  V30 9316 N 875.035 -1.20752 1.01276 0
M  V30 9317 C 876.283 -1.89645 0.698505 0
M  V30 9318 C 876.604 -1.78986 -0.773883 0
M  V30 9319 O 875.874 -1.18977 -1.55632 0
M  V30 9320 H 874.454 -0.701992 0.255375 0
M  V30 9321 H 877.116 -1.46668 1.28353 0
M  V30 9322 H 876.212 -2.96364 0.978512 0
M  V30 9323 N 876.513 -0.788492 -1.36457 0
M  V30 9324 C 877.423 -0.187385 -2.3385 0
M  V30 9325 C 878.439 0.659984 -1.60998 0
M  V30 9326 O 879.615 0.575986 -1.92988 0
M  V30 9327 C 876.68 0.668525 -3.40194 0
M  V30 9328 C 875.741 -0.197234 -4.28847 0
M  V30 9329 C 874.974 0.61792 -5.30111 0
M  V30 9330 O 875.197 1.85396 -5.3943 0
M  V30 9331 O 874.131 0.0183016 -6.01897 0
M  V30 9332 H 877.957 -0.992617 -2.87021 0
M  V30 9333 H 875.542 -0.549934 -1.3891 0
M  V30 9334 H 877.424 1.15663 -4.05216 0
M  V30 9335 H 876.099 1.45166 -2.89324 0
M  V30 9336 H 875.006 -0.73207 -3.66867 0
M  V30 9337 H 876.339 -0.943863 -4.83065 0
M  V30 9338 N 877.991 1.48044 -0.54043 0
M  V30 9339 C 879.221 2.06595 -0.0144943 0
M  V30 9340 C 879.629 1.39593 1.27713 0
M  V30 9341 O 878.972 0.480794 1.77297 0
M  V30 9342 C 879.034 3.5849 0.269316 0
M  V30 9343 C 878.698 4.47429 -0.930372 0
M  V30 9344 C 879.695 4.8657 -1.83155 0
M  V30 9345 C 877.38 4.89185 -1.14032 0
M  V30 9346 C 879.374 5.66246 -2.92649 0
M  V30 9347 C 877.061 5.6863 -2.23838 0
M  V30 9348 C 878.059 6.07069 -3.12979 0
M  V30 9349 O 877.747 6.84917 -4.20884 0
M  V30 9350 H 877.479 0.675086 -0.0351467 0
M  V30 9351 H 880.033 1.91275 -0.74853 0
M  V30 9352 H 878.263 3.71961 1.05745 0
M  V30 9353 H 879.952 3.99124 0.738595 0
M  V30 9354 H 880.718 4.54924 -1.68134 0
M  V30 9355 H 876.597 4.58742 -0.455717 0
M  V30 9356 H 880.141 5.96169 -3.62254 0
M  V30 9357 H 876.038 5.99688 -2.38839 0
M  V30 9358 H 876.806 7.03287 -4.18723 0
M  V30 9359 N 879.47 0.276058 1.55163 0
M  V30 9360 C 880.403 -0.652386 2.18676 0
M  V30 9361 C 881.381 -1.15151 1.148 0
M  V30 9362 O 882.565 -1.22431 1.43328 0
M  V30 9363 C 879.692 -1.88982 2.81076 0
M  V30 9364 C 878.738 -1.52609 3.98262 0
M  V30 9365 S 879.571 -0.603445 5.32089 0
M  V30 9366 C 880.727 -1.84923 5.97958 0
M  V30 9367 H 880.96 -0.112733 2.97086 0
M  V30 9368 H 878.493 0.0603118 1.54282 0
M  V30 9369 H 880.451 -2.60007 3.17658 0
M  V30 9370 H 879.112 -2.40061 2.02557 0
M  V30 9371 H 878.305 -2.44689 4.40617 0
M  V30 9372 H 877.907 -0.89601 3.63108 0
M  V30 9373 H 880.199 -2.79303 6.17249 0
M  V30 9374 H 881.142 -1.46868 6.92702 0
M  V30 9375 H 881.55 -2.0146 5.27327 0
M  V30 9376 N 880.948 -1.576 0.00335426 0
M  V30 9377 C 882.196 -1.90336 -0.679446 0
M  V30 9378 C 882.517 -0.877777 -1.74127 0
M  V30 9379 O 881.787 0.0843585 -1.95718 0
M  V30 9380 H 880.367 -0.702509 -0.253948 0
M  V30 9381 H 883.029 -1.94848 0.0450731 0
M  V30 9382 H 882.125 -2.90197 -1.14857 0
M  V30 9383 N 882.426 0.269451 -1.5528 0
M  V30 9384 C 883.358 1.35553 -1.84819 0
M  V30 9385 C 884.371 1.45369 -0.732914 0
M  V30 9386 O 885.56 1.47122 -1.0108 0
M  V30 9387 C 882.66 2.73645 -1.9993 0
M  V30 9388 C 881.833 2.86376 -3.30617 0
M  V30 9389 C 880.892 4.05165 -3.35749 0
M  V30 9390 O 879.918 3.95756 -4.09104 0
M  V30 9391 N 881.12 5.17297 -2.63408 0
M  V30 9392 H 883.885 1.10557 -2.78563 0
M  V30 9393 H 881.446 0.459566 -1.5524 0
M  V30 9394 H 883.438 3.51411 -2.00729 0
M  V30 9395 H 882.008 2.91448 -1.13035 0
M  V30 9396 H 881.228 1.95465 -3.42326 0
M  V30 9397 H 882.516 2.91815 -4.16799 0
M  V30 9398 H 881.914 5.2783 -2.03501 0
M  V30 9399 H 880.471 5.93281 -2.69927 0
M  V30 9400 N 883.904 1.48273 0.534124 0
M  V30 9401 C 884.834 1.6538 1.64839 0
M  V30 9402 C 885.815 0.502741 1.62501 0
M  V30 9403 O 887 0.734799 1.79762 0
M  V30 9404 C 884.13 1.68949 3.03436 0
M  V30 9405 C 883.084 2.83513 3.20631 0
M  V30 9406 C 882.41 2.72169 4.60248 0
M  V30 9407 C 883.71 4.24858 3.03797 0
M  V30 9408 H 885.404 2.58663 1.50777 0
M  V30 9409 H 882.95 1.24479 0.723937 0
M  V30 9410 H 884.903 1.79505 3.81256 0
M  V30 9411 H 883.627 0.722415 3.1851 0
M  V30 9412 H 882.286 2.72505 2.45227 0
M  V30 9413 H 881.934 1.7344 4.72152 0
M  V30 9414 H 881.634 3.49042 4.72698 0
M  V30 9415 H 883.158 2.84687 5.40172 0
M  V30 9416 H 884.572 4.36721 3.71413 0
M  V30 9417 H 882.969 5.02697 3.27743 0
M  V30 9418 H 884.039 4.41611 2.0027 0
M  V30 9419 N 885.382 -0.782676 1.36792 0
M  V30 9420 C 886.312 -1.90973 1.34356 0
M  V30 9421 C 887.293 -1.6875 0.213917 0
M  V30 9422 O 888.478 -1.89766 0.412601 0
M  V30 9423 C 885.608 -3.28097 1.13884 0
M  V30 9424 C 884.562 -3.6486 2.23744 0
M  V30 9425 C 883.888 -5.00406 1.88408 0
M  V30 9426 C 885.188 -3.72742 3.6587 0
M  V30 9427 H 886.882 -1.93268 2.28665 0
M  V30 9428 H 884.428 -0.928447 1.10072 0
M  V30 9429 H 886.381 -4.06569 1.10813 0
M  V30 9430 H 885.105 -3.26206 0.160275 0
M  V30 9431 H 883.764 -2.88689 2.25952 0
M  V30 9432 H 883.412 -4.95044 0.891083 0
M  V30 9433 H 883.112 -5.25973 2.61966 0
M  V30 9434 H 884.636 -5.81291 1.86905 0
M  V30 9435 H 886.05 -4.4139 3.65852 0
M  V30 9436 H 884.447 -4.09798 4.38389 0
M  V30 9437 H 885.517 -2.73676 4.00287 0
M  V30 9438 N 886.86 -1.21182 -1.00761 0
M  V30 9439 C 887.77 -0.984691 -2.12934 0
M  V30 9440 C 888.786 0.0623657 -1.73888 0
M  V30 9441 O 889.962 -0.1271 -2.00999 0
M  V30 9442 C 887.027 -0.549447 -3.42319 0
M  V30 9443 C 886.088 -1.66841 -3.95553 0
M  V30 9444 C 885.321 -1.25384 -5.18763 0
M  V30 9445 O 885.544 -0.126333 -5.7026 0
M  V30 9446 O 884.478 -2.06475 -5.65377 0
M  V30 9447 H 888.304 -1.92413 -2.3497 0
M  V30 9448 H 885.889 -0.99647 -1.11314 0
M  V30 9449 H 887.771 -0.316384 -4.20211 0
M  V30 9450 H 886.446 0.361304 -3.21677 0
M  V30 9451 H 885.353 -1.95585 -3.189 0
M  V30 9452 H 886.686 -2.55649 -4.206 0
M  V30 9453 N 888.338 1.20213 -1.01915 0
M  V30 9454 C 889.27 2.2251 -0.549725 0
M  V30 9455 C 890.283 1.58558 0.369235 0
M  V30 9456 O 891.472 1.77715 0.167176 0
M  V30 9457 C 888.572 3.38189 0.219432 0
M  V30 9458 C 887.745 4.31729 -0.702066 0
M  V30 9459 C 886.804 5.26196 0.0199624 0
M  V30 9460 O 885.83 5.65993 -0.60339 0
M  V30 9461 N 887.032 5.65895 1.29397 0
M  V30 9462 H 889.797 2.63412 -1.42948 0
M  V30 9463 H 887.358 1.3478 -0.896987 0
M  V30 9464 H 889.35 3.98392 0.711763 0
M  V30 9465 H 887.92 2.96156 1.00051 0
M  V30 9466 H 887.14 3.69455 -1.37466 0
M  V30 9467 H 888.428 4.91145 -1.3287 0
M  V30 9468 H 887.826 5.35579 1.8213 0
M  V30 9469 H 886.383 6.28395 1.73098 0
M  V30 9470 N 889.816 0.795718 1.36037 0
M  V30 9471 C 890.779 0.204318 2.28287 0
M  V30 9472 C 891.779 -0.602017 1.49105 0
M  V30 9473 O 892.969 -0.422089 1.69009 0
M  V30 9474 C 890.101 -0.716431 3.33287 0
M  V30 9475 H 891.294 1.01781 2.821 0
M  V30 9476 H 888.847 0.565588 1.45708 0
M  V30 9477 H 889.582 -1.55403 2.84641 0
M  V30 9478 H 889.367 -0.140096 3.9185 0
M  V30 9479 H 890.857 -1.12488 4.02164 0
M  V30 9480 N 891.294 -1.47756 0.548274 0
M  V30 9481 C 892.519 -2.07387 0.023475 0
M  V30 9482 C 892.944 -1.39956 -1.25674 0
M  V30 9483 O 892.302 -0.471543 -1.7506 0
M  V30 9484 C 892.35 -3.60224 -0.164669 0
M  V30 9485 O 891.454 -3.93653 -1.22928 0
M  V30 9486 H 890.795 -0.662312 0.0473156 0
M  V30 9487 H 893.325 -1.89905 0.761409 0
M  V30 9488 H 893.335 -4.06211 -0.38166 0
M  V30 9489 H 892.01 -4.08702 0.770425 0
M  V30 9490 H 890.587 -3.59422 -0.993495 0
M  V30 9491 N 892.772 -0.284283 -1.55015 0
M  V30 9492 C 893.702 0.592663 -2.25853 0
M  V30 9493 C 894.683 1.15151 -1.25197 0
M  V30 9494 O 895.868 1.18395 -1.53936 0
M  V30 9495 C 892.998 1.77254 -2.98661 0
M  V30 9496 C 891.952 1.34482 -4.06323 0
M  V30 9497 C 891.278 2.60853 -4.66754 0
M  V30 9498 C 892.578 0.488288 -5.20013 0
M  V30 9499 H 894.272 0.00187041 -2.994 0
M  V30 9500 H 891.818 -0.000540402 -1.44 0
M  V30 9501 H 893.771 2.39199 -3.46932 0
M  V30 9502 H 892.495 2.38931 -2.22664 0
M  V30 9503 H 891.154 0.748519 -3.58877 0
M  V30 9504 H 890.802 3.20808 -3.87416 0
M  V30 9505 H 890.502 2.32942 -5.39455 0
M  V30 9506 H 892.026 3.23631 -5.1778 0
M  V30 9507 H 893.44 1.01298 -5.6428 0
M  V30 9508 H 891.837 0.303669 -5.99331 0
M  V30 9509 H 892.907 -0.490727 -4.8241 0
M  V30 9510 N 894.251 1.57596 -0.0117121 0
M  V30 9511 C 895.201 2.05641 0.98467 0
M  V30 9512 C 896.185 0.953422 1.2961 0
M  V30 9513 O 897.377 1.21712 1.28512 0
M  V30 9514 C 894.506 2.57285 2.27286 0
M  V30 9515 C 893.592 3.74483 1.99057 0
M  V30 9516 N 893.983 4.85741 1.41029 0
M  V30 9517 C 892.281 3.82637 2.2914 0
M  V30 9518 C 892.982 5.67094 1.29536 0
M  V30 9519 N 891.958 5.13459 1.78497 0
M  V30 9520 H 895.76 2.89069 0.530702 0
M  V30 9521 H 893.274 1.6124 0.193717 0
M  V30 9522 H 895.271 2.89988 2.99521 0
M  V30 9523 H 893.931 1.75281 2.73325 0
M  V30 9524 H 894.942 5.06352 1.08756 0
M  V30 9525 H 891.619 3.11509 2.77972 0
M  V30 9526 H 893.009 6.66525 0.848144 0
M  V30 9527 N 895.729 -0.261212 1.5542 0
M  V30 9528 C 896.976 -0.99123 1.76581 0
M  V30 9529 C 897.304 -1.85854 0.573457 0
M  V30 9530 O 896.559 -1.90604 -0.443705 0
M  V30 9531 C 896.858 -1.89395 3.03091 0
M  V30 9532 C 896.524 -1.18318 4.351 0
M  V30 9533 C 895.186 -0.986688 4.70975 0
M  V30 9534 C 897.538 -0.678299 5.16767 0
M  V30 9535 C 894.866 -0.272788 5.86065 0
M  V30 9536 C 897.218 0.0220646 6.32596 0
M  V30 9537 C 895.882 0.230161 6.67103 0
M  V30 9538 H 895.152 -0.362717 0.646156 0
M  V30 9539 H 897.799 -0.262506 1.89692 0
M  V30 9540 H 896.104 -2.68927 2.8493 0
M  V30 9541 H 897.801 -2.46022 3.16661 0
M  V30 9542 H 894.391 -1.34625 4.06908 0
M  V30 9543 H 898.575 -0.817691 4.89518 0
M  V30 9544 H 893.831 -0.10095 6.11317 0
M  V30 9545 H 898.005 0.420981 6.95126 0
M  V30 9546 H 895.632 0.785312 7.56133 0
M  V30 9547 N 897.207 -1.48554 -0.526253 0
M  V30 9548 C 898.454 -1.56761 -1.28188 0
M  V30 9549 C 898.782 -0.24315 -1.92974 0
M  V30 9550 O 898.037 0.766883 -1.80048 0
M  V30 9551 C 898.336 -2.65739 -2.38993 0
M  V30 9552 C 898.002 -4.08057 -1.91834 0
M  V30 9553 C 896.664 -4.46792 -1.78691 0
M  V30 9554 C 899.016 -4.9723 -1.56242 0
M  V30 9555 C 896.344 -5.72501 -1.28296 0
M  V30 9556 C 898.696 -6.23432 -1.07309 0
M  V30 9557 C 897.36 -6.6102 -0.927853 0
M  V30 9558 H 896.63 -0.573631 -0.469072 0
M  V30 9559 H 899.277 -1.82287 -0.586842 0
M  V30 9560 H 897.582 -2.34088 -3.14181 0
M  V30 9561 H 899.279 -2.69304 -2.97113 0
M  V30 9562 H 895.869 -3.77469 -2.03016 0
M  V30 9563 H 900.053 -4.67979 -1.65255 0
M  V30 9564 H 895.309 -6.00345 -1.15742 0
M  V30 9565 H 899.483 -6.91923 -0.788412 0
M  V30 9566 H 897.11 -7.58314 -0.535162 0
M  V30 9567 N 898.685 0.775411 -1.37205 0
M  V30 9568 C 899.931 1.53611 -1.32407 0
M  V30 9569 C 900.264 1.9398 0.0924103 0
M  V30 9570 O 899.539 1.63791 1.04893 0
M  V30 9571 C 899.822 2.80367 -2.25979 0
M  V30 9572 C 899.675 2.46275 -3.76389 0
M  V30 9573 C 900.994 3.82277 -2.18064 0
M  V30 9574 H 898.113 0.557278 -0.482297 0
M  V30 9575 H 900.755 0.889826 -1.67875 0
M  V30 9576 H 898.905 3.35515 -1.95862 0
M  V30 9577 H 900.577 1.9707 -4.17087 0
M  V30 9578 H 898.82 1.79023 -3.95137 0
M  V30 9579 H 899.491 3.36868 -4.37291 0
M  V30 9580 H 901.967 3.36613 -2.44604 0
M  V30 9581 H 900.843 4.68696 -2.85684 0
M  V30 9582 H 901.104 4.26272 -1.17239 0
M  V30 9583 N 900.163 1.21714 1.00117 0
M  V30 9584 C 901.391 1.06278 1.77518 0
M  V30 9585 C 901.806 -0.387193 1.84787 0
M  V30 9586 O 901.163 -1.26854 1.31203 0
M  V30 9587 C 901.214 1.65795 3.21239 0
M  V30 9588 O 900.935 3.05119 3.14378 0
M  V30 9589 C 902.436 1.55521 4.15124 0
M  V30 9590 H 899.656 0.373013 0.557765 0
M  V30 9591 H 902.2 1.61133 1.25922 0
M  V30 9592 H 900.355 1.15022 3.69931 0
M  V30 9593 H 900.769 3.33643 4.04701 0
M  V30 9594 H 902.243 2.01902 5.13751 0
M  V30 9595 H 902.72 0.510307 4.36225 0
M  V30 9596 H 903.326 2.0556 3.72324 0
M  V30 9597 N 901.641 -1.19671 1.02551 0
M  V30 9598 C 902.604 -2.20987 0.608055 0
M  V30 9599 C 903.604 -1.5745 -0.326534 0
M  V30 9600 O 904.794 -1.73827 -0.114003 0
M  V30 9601 C 901.926 -3.4072 -0.11074 0
M  V30 9602 H 903.119 -2.59434 1.50446 0
M  V30 9603 H 900.672 -1.3329 0.816307 0
M  V30 9604 H 901.407 -3.07787 -1.02165 0
M  V30 9605 H 901.192 -3.88069 0.560772 0
M  V30 9606 H 902.682 -4.15776 -0.389848 0
M  V30 9607 N 903.119 -0.802921 -1.35613 0
M  V30 9608 C 904.535 -0.486214 -1.52014 0
M  V30 9609 C 904.735 0.993219 -1.75321 0
M  V30 9610 O 903.791 1.77835 -1.79251 0
M  V30 9611 C 905.104 -1.32839 -2.69767 0
M  V30 9612 C 906.652 -1.32346 -2.83643 0
M  V30 9613 C 907.127 -2.14967 -4.04417 0
M  V30 9614 N 908.618 -2.12484 -4.11588 0
M  V30 9615 C 909.353 -2.73173 -5.04147 0
M  V30 9616 N 908.849 -3.42774 -6.02061 0
M  V30 9617 N 910.642 -2.62834 -4.96865 0
M  V30 9618 H 902.793 -1.76109 -1.18741 0
M  V30 9619 H 905.056 -0.74936 -0.580658 0
M  V30 9620 H 904.762 -2.37813 -2.5911 0
M  V30 9621 H 904.636 -0.979058 -3.64272 0
M  V30 9622 H 907.023 -0.281586 -2.93753 0
M  V30 9623 H 907.104 -1.71264 -1.90006 0
M  V30 9624 H 906.748 -3.19193 -3.95068 0
M  V30 9625 H 906.678 -1.73411 -4.97228 0
M  V30 9626 H 909.169 -1.61839 -3.41492 0
M  V30 9627 H 909.482 -3.86378 -6.69277 0
M  V30 9628 H 907.827 -3.46878 -6.02246 0
M  V30 9629 H 911.018 -2.08049 -4.19325 0
M  V30 9630 H 911.191 -3.10421 -5.68808 0
M  V30 9631 N 904.597 1.47463 -0.556102 0
M  V30 9632 C 905.846 2.01678 -0.029492 0
M  V30 9633 C 906.159 1.436 1.32809 0
M  V30 9634 O 907.365 1.89472 1.94455 0
M  V30 9635 C 905.821 3.599 -0.00223937 0
M  V30 9636 C 905.429 4.26969 -1.35651 0
M  V30 9637 C 907.173 4.2187 0.471822 0
M  V30 9638 C 905.08 5.77194 -1.28843 0
M  V30 9639 H 904.01 0.753965 -0.00725504 0
M  V30 9640 H 906.661 1.69467 -0.703789 0
M  V30 9641 H 905.043 3.89068 0.737682 0
M  V30 9642 H 906.217 4.09444 -2.11406 0
M  V30 9643 H 904.532 3.76983 -1.76842 0
M  V30 9644 H 907.129 5.31955 0.541139 0
M  V30 9645 H 907.472 3.88968 1.48356 0
M  V30 9646 H 908.005 3.97228 -0.213207 0
M  V30 9647 H 904.744 6.14713 -2.27613 0
M  V30 9648 H 904.264 5.9706 -0.572668 0
M  V30 9649 H 905.943 6.3938 -0.990031 0
M  V30 9650 N 906.075 0.2925 1.54862 0
M  V30 9651 C 907.023 -0.603186 2.24643 0
M  V30 9652 C 908.017 -1.1439 1.24946 0
M  V30 9653 O 909.223 -1.09552 1.42823 0
M  V30 9654 H 905.598 -0.213105 0.721173 0
M  V30 9655 H 907.569 0.00799278 2.98399 0
M  V30 9656 C 906.318 -1.76769 2.99413 0
M  V30 9657 H 905.641 -1.36084 3.75927 0
M  V30 9658 H 907.081 -2.37066 3.51533 0
M  V30 9659 C 905.54 -2.66669 2.05886 0
M  V30 9660 O 906.07 -3.67525 1.62136 0
M  V30 9661 N 904.276 -2.34216 1.7202 0
M  V30 9662 H 903.823 -1.52246 2.07795 0
M  V30 9663 H 903.781 -2.94635 1.09717 0
M  V30 9664 N 907.553 -1.57587 0.0200696 0
M  V30 9665 C 908.463 -2.13119 -0.980676 0
M  V30 9666 C 909.479 -1.08124 -1.36328 0
M  V30 9667 O 910.655 -1.40134 -1.44653 0
M  V30 9668 C 907.72 -2.63991 -2.24743 0
M  V30 9669 C 906.781 -3.83667 -1.9261 0
M  V30 9670 C 906.014 -4.32103 -3.13246 0
M  V30 9671 O 906.237 -3.79758 -4.25606 0
M  V30 9672 O 905.171 -5.24047 -2.96072 0
M  V30 9673 H 908.997 -2.98887 -0.538528 0
M  V30 9674 H 906.582 -1.48055 -0.19999 0
M  V30 9675 H 908.464 -2.9682 -2.99125 0
M  V30 9676 H 907.139 -1.81311 -2.68157 0
M  V30 9677 H 906.046 -3.55778 -1.15641 0
M  V30 9678 H 907.379 -4.67482 -1.54019 0
M  V30 9679 N 909.032 0.252966 -1.55557 0
M  V30 9680 C 910.26 0.999565 -1.81153 0
M  V30 9681 C 910.675 1.79181 -0.594955 0
M  V30 9682 O 910.032 1.77208 0.436311 0
M  V30 9683 C 910.083 1.94227 -3.04891 0
M  V30 9684 O 909.804 1.18209 -4.21851 0
M  V30 9685 C 911.305 2.80536 -3.43241 0
M  V30 9686 H 908.525 0.294402 -0.602966 0
M  V30 9687 H 911.069 0.277686 -2.02606 0
M  V30 9688 H 909.224 2.6185 -2.85505 0
M  V30 9689 H 909.638 1.81922 -4.9194 0
M  V30 9690 H 911.112 3.42442 -4.32941 0
M  V30 9691 H 911.589 3.51337 -2.6355 0
M  V30 9692 H 912.195 2.18373 -3.64956 0
M  V30 9693 N 910.51 1.48831 0.518367 0
M  V30 9694 C 911.926 1.35209 0.847979 0
M  V30 9695 C 912.126 0.371927 1.98038 0
M  V30 9696 O 911.182 -0.202681 2.51685 0
M  V30 9697 C 912.495 2.7552 1.20455 0
M  V30 9698 C 914.043 2.84094 1.31377 0
M  V30 9699 C 914.518 4.25132 1.70372 0
M  V30 9700 N 916.009 4.27861 1.77453 0
M  V30 9701 C 916.744 5.3394 2.09035 0
M  V30 9702 N 916.24 6.50285 2.3896 0
M  V30 9703 N 918.033 5.21343 2.10139 0
M  V30 9704 H 910.184 2.11166 -0.228624 0
M  V30 9705 H 912.447 0.94717 -0.0396599 0
M  V30 9706 H 912.153 3.48861 0.445991 0
M  V30 9707 H 912.027 3.09785 2.15204 0
M  V30 9708 H 914.414 2.11001 2.06307 0
M  V30 9709 H 914.495 2.53433 0.347203 0
M  V30 9710 H 914.139 4.98745 0.959975 0
M  V30 9711 H 914.069 4.53245 2.68098 0
M  V30 9712 H 916.56 3.43945 1.56557 0
M  V30 9713 H 916.873 7.26961 2.62196 0
M  V30 9714 H 915.218 6.5354 2.36454 0
M  V30 9715 H 918.409 4.29462 1.86225 0
M  V30 9716 H 918.582 6.04112 2.34419 0
M  V30 9717 N 911.988 -0.768124 1.37614 0
M  V30 9718 C 913.265 -1.51637 1.23554 0
M  V30 9719 C 913.645 -2.1042 -0.169331 0
M  V30 9720 O 912.993 -1.95834 -1.17735 0
M  V30 9721 C 913.203 -2.59436 2.33439 0
M  V30 9722 C 914.551 -3.2674 2.71157 0
M  V30 9723 O 915.575 -2.69733 2.32642 0
M  V30 9724 O 914.434 -4.29814 3.37524 0
M  V30 9725 H 911.528 -0.671778 0.482332 0
M  V30 9726 H 914.074 -0.804779 1.49403 0
M  V30 9727 H 912.846 -2.14146 3.27502 0
M  V30 9728 H 912.469 -3.38192 2.09073 0
M  V30 9729 N 913.466 -1.22244 -0.994698 0
M  V30 9730 C 914.712 -1.04746 -1.73655 0
M  V30 9731 C 915.045 0.41668 -1.89677 0
M  V30 9732 O 914.32 1.30897 -1.43862 0
M  V30 9733 C 914.603 -1.75716 -3.14318 0
M  V30 9734 C 914.456 -3.29714 -3.05955 0
M  V30 9735 C 915.775 -1.50809 -4.13455 0
M  V30 9736 H 912.894 -0.381921 -0.630322 0
M  V30 9737 H 915.536 -1.50559 -1.15897 0
M  V30 9738 H 913.686 -1.3677 -3.63629 0
M  V30 9739 H 915.358 -3.78093 -2.64279 0
M  V30 9740 H 913.601 -3.59484 -2.42804 0
M  V30 9741 H 914.272 -3.74547 -4.05485 0
M  V30 9742 H 916.748 -1.84636 -3.72892 0
M  V30 9743 H 915.624 -2.02964 -5.09997 0
M  V30 9744 H 915.885 -0.440292 -4.39902 0
M  V30 9745 N 914.944 1.19125 -1.03184 0
M  V30 9746 C 915.874 2.24675 -0.635889 0
M  V30 9747 C 916.855 1.66321 0.356565 0
M  V30 9748 O 918.04 1.92728 0.238625 0
M  V30 9749 C 915.17 3.47298 0.011069 0
M  V30 9750 C 914.124 4.18345 -0.903979 0
M  V30 9751 C 913.45 5.34561 -0.12197 0
M  V30 9752 C 914.75 4.72816 -2.21907 0
M  V30 9753 H 916.444 2.5805 -1.51825 0
M  V30 9754 H 913.99 1.24039 -0.73146 0
M  V30 9755 H 915.943 4.20333 0.299729 0
M  V30 9756 H 914.667 3.13131 0.928245 0
M  V30 9757 H 913.326 3.47196 -1.17688 0
M  V30 9758 H 912.974 4.9664 0.797334 0
M  V30 9759 H 912.674 5.83029 -0.731498 0
M  V30 9760 H 914.198 6.10391 0.159881 0
M  V30 9761 H 915.612 5.3759 -1.99173 0
M  V30 9762 H 914.009 5.31782 -2.78078 0
M  V30 9763 H 915.079 3.9072 -2.87168 0
M  V30 9764 N 916.422 0.810101 1.35185 0
M  V30 9765 C 917.385 0.22852 2.28058 0
M  V30 9766 C 918.385 -0.586168 1.49735 0
M  V30 9767 O 919.575 -0.40414 1.69447 0
M  V30 9768 C 916.707 -0.681041 3.34028 0
M  V30 9769 H 917.9 1.04768 2.81005 0
M  V30 9770 H 915.453 0.58101 1.451 0
M  V30 9771 H 916.188 -1.52375 2.86273 0
M  V30 9772 H 915.973 -0.0985276 3.91976 0
M  V30 9773 H 917.463 -1.08217 4.03335 0
M  V30 9774 N 917.9 -1.47166 0.563914 0
M  V30 9775 C 918.847 -2.30097 -0.180013 0
M  V30 9776 C 919.817 -1.39473 -0.902019 0
M  V30 9777 O 921.002 -1.68432 -0.896396 0
M  V30 9778 C 918.142 -3.23573 -1.19978 0
M  V30 9779 C 917.255 -4.2929 -0.483149 0
M  V30 9780 C 916.39 -5.0991 -1.48879 0
M  V30 9781 C 915.429 -6.07395 -0.757513 0
M  V30 9782 N 914.566 -6.8095 -1.71031 0
M  V30 9783 H 919.406 -2.93189 0.53329 0
M  V30 9784 H 916.943 -1.4451 0.274814 0
M  V30 9785 H 918.901 -3.76196 -1.80368 0
M  V30 9786 H 917.531 -2.6233 -1.88103 0
M  V30 9787 H 916.583 -3.79671 0.235414 0
M  V30 9788 H 917.895 -4.9872 0.0894075 0
M  V30 9789 H 917.049 -5.66717 -2.16603 0
M  V30 9790 H 915.788 -4.40397 -2.09527 0
M  V30 9791 H 914.793 -5.4976 -0.0663841 0
M  V30 9792 H 916.018 -6.78919 -0.156685 0
M  V30 9793 H 913.964 -6.14162 -2.30524 0
M  V30 9794 H 913.881 -7.46574 -1.19007 0
M  V30 9795 H 915.149 -7.42326 -2.37849 0
M  V30 9796 N 919.378 -0.300708 -1.54705 0
M  V30 9797 C 920.31 0.609179 -2.20956 0
M  V30 9798 C 921.323 1.09776 -1.20221 0
M  V30 9799 O 922.512 1.01527 -1.46815 0
M  V30 9800 C 919.612 1.84595 -2.84214 0
M  V30 9801 C 918.785 1.49991 -4.10879 0
M  V30 9802 C 917.844 2.5918 -4.57943 0
M  V30 9803 O 916.87 2.24285 -5.23149 0
M  V30 9804 N 918.072 3.89714 -4.30236 0
M  V30 9805 H 920.837 0.0420111 -2.99671 0
M  V30 9806 H 918.398 -0.122896 -1.61433 0
M  V30 9807 H 920.39 2.56988 -3.12633 0
M  V30 9808 H 918.96 2.32152 -2.09342 0
M  V30 9809 H 918.18 0.608637 -3.89473 0
M  V30 9810 H 919.468 1.24409 -4.93356 0
M  V30 9811 H 918.866 4.20874 -3.77997 0
M  V30 9812 H 917.423 4.58406 -4.63365 0
M  V30 9813 N 920.856 1.57574 -0.0284266 0
M  V30 9814 C 921.803 2.10176 0.953658 0
M  V30 9815 C 922.773 1.00367 1.32347 0
M  V30 9816 O 923.958 1.27783 1.4169 0
M  V30 9817 C 921.098 2.63287 2.231 0
M  V30 9818 C 920.211 3.87102 1.91771 0
M  V30 9819 C 919.346 4.28609 3.13795 0
M  V30 9820 C 918.385 5.45184 2.78282 0
M  V30 9821 N 917.522 5.81851 3.92929 0
M  V30 9822 H 922.362 2.93806 0.498176 0
M  V30 9823 H 919.899 1.45222 0.234302 0
M  V30 9824 H 921.857 2.9217 2.97813 0
M  V30 9825 H 920.487 1.82489 2.66266 0
M  V30 9826 H 919.539 3.64952 1.07303 0
M  V30 9827 H 920.851 4.71892 1.61615 0
M  V30 9828 H 920.005 4.58925 3.96829 0
M  V30 9829 H 918.744 3.42585 3.47112 0
M  V30 9830 H 917.749 5.14563 1.93661 0
M  V30 9831 H 918.974 6.32907 2.46182 0
M  V30 9832 H 916.92 4.98782 4.2609 0
M  V30 9833 H 916.837 6.6128 3.66395 0
M  V30 9834 H 918.105 6.16772 4.76669 0
M  V30 9835 N 922.334 -0.244713 1.55689 0
M  V30 9836 C 923.559 -0.994157 1.8202 0
M  V30 9837 C 923.984 -1.78079 0.60577 0
M  V30 9838 O 923.342 -1.75748 -0.445221 0
M  V30 9839 C 923.39 -1.90599 3.06111 0
M  V30 9840 O 922.494 -2.99804 2.8318 0
M  V30 9841 H 921.835 -0.282767 0.600782 0
M  V30 9842 H 924.365 -0.26504 2.02876 0
M  V30 9843 H 924.375 -2.32023 3.35603 0
M  V30 9844 H 923.05 -1.32763 3.9414 0
M  V30 9845 H 921.627 -2.62493 2.64862 0
M  V30 9846 N 923.813 -1.49104 -0.510467 0
M  V30 9847 C 925.041 -1.61806 -1.28944 0
M  V30 9848 C 925.456 -0.285774 -1.86625 0
M  V30 9849 O 924.813 0.727551 -1.67371 0
M  V30 9850 C 924.864 -2.67966 -2.42645 0
M  V30 9851 O 924.585 -3.96026 -1.87337 0
M  V30 9852 C 926.086 -2.91286 -3.34166 0
M  V30 9853 H 923.306 -0.544999 -0.391429 0
M  V30 9854 H 925.85 -1.95071 -0.613805 0
M  V30 9855 H 924.005 -2.37505 -3.06056 0
M  V30 9856 H 924.419 -4.54427 -2.61909 0
M  V30 9857 H 925.893 -3.69323 -4.1025 0
M  V30 9858 H 926.37 -2.00842 -3.90588 0
M  V30 9859 H 926.976 -3.23127 -2.76531 0
M  V30 9860 N 925.291 0.760815 -1.38019 0
M  V30 9861 C 926.537 1.52198 -1.34028 0
M  V30 9862 C 926.87 1.94067 0.0718309 0
M  V30 9863 O 926.145 1.64895 1.0315 0
M  V30 9864 C 926.428 2.77954 -2.2894 0
M  V30 9865 C 926.281 2.42269 -3.7898 0
M  V30 9866 C 927.6 3.79943 -2.22107 0
M  V30 9867 H 924.719 0.552131 -0.488181 0
M  V30 9868 H 927.361 0.871971 -1.6881 0
M  V30 9869 H 925.511 3.33419 -1.9941 0
M  V30 9870 H 927.183 1.92635 -4.19153 0
M  V30 9871 H 925.426 1.74822 -3.97014 0
M  V30 9872 H 926.097 3.32211 -4.4084 0
M  V30 9873 H 928.573 3.34 -2.4816 0
M  V30 9874 H 927.449 4.6564 -2.90639 0
M  V30 9875 H 927.71 4.25004 -1.21753 0
M  V30 9876 N 926.769 1.22769 0.988202 0
M  V30 9877 C 927.699 1.02627 2.09738 0
M  V30 9878 C 928.68 -0.0543211 1.70013 0
M  V30 9879 O 929.865 0.108811 1.93895 0
M  V30 9880 C 926.995 0.608302 3.41931 0
M  V30 9881 C 925.949 1.63536 3.95525 0
M  V30 9882 C 925.275 1.07308 5.23822 0
M  V30 9883 C 926.575 3.02649 4.25677 0
M  V30 9884 H 928.269 1.954 2.26847 0
M  V30 9885 H 925.815 0.940888 1.09011 0
M  V30 9886 H 927.768 0.454478 4.18942 0
M  V30 9887 H 926.492 -0.355095 3.24664 0
M  V30 9888 H 925.151 1.77704 3.20651 0
M  V30 9889 H 924.799 0.100894 5.02899 0
M  V30 9890 H 924.499 1.75925 5.60646 0
M  V30 9891 H 926.023 0.930938 6.03462 0
M  V30 9892 H 927.437 2.91828 4.93467 0
M  V30 9893 H 925.834 3.68434 4.73684 0
M  V30 9894 H 926.904 3.52228 3.33262 0
M  V30 9895 N 928.247 -1.18576 1.03814 0
M  V30 9896 C 929.475 -1.92437 0.759966 0
M  V30 9897 C 929.89 -1.76031 -0.682526 0
M  V30 9898 O 929.247 -1.08829 -1.46501 0
M  V30 9899 C 929.298 -3.43923 1.11351 0
M  V30 9900 O 929.019 -3.5981 2.49937 0
M  V30 9901 C 930.52 -4.34888 0.859472 0
M  V30 9902 H 927.74 -0.610998 0.277349 0
M  V30 9903 H 930.284 -1.50448 1.38512 0
M  V30 9904 H 928.439 -3.83711 0.533362 0
M  V30 9905 H 928.853 -4.53569 2.63393 0
M  V30 9906 H 930.327 -5.39744 1.15672 0
M  V30 9907 H 930.804 -4.38717 -0.205839 0
M  V30 9908 H 931.41 -4.00795 1.42279 0
M  V30 9909 N 929.725 -0.817259 -1.34754 0
M  V30 9910 C 930.974 -0.39908 -1.97713 0
M  V30 9911 C 931.287 1.04203 -1.65533 0
M  V30 9912 O 932.493 1.56384 -2.21937 0
M  V30 9913 C 930.949 -0.662634 -3.53747 0
M  V30 9914 C 930.557 -2.11699 -3.94826 0
M  V30 9915 C 932.301 -0.31034 -4.23364 0
M  V30 9916 C 930.208 -2.32573 -5.4375 0
M  V30 9917 H 929.138 -0.145488 -0.739831 0
M  V30 9918 H 931.789 -1.00282 -1.53674 0
M  V30 9919 H 930.171 0.0111972 -3.95998 0
M  V30 9920 H 931.345 -2.82951 -3.63697 0
M  V30 9921 H 929.66 -2.43017 -3.3813 0
M  V30 9922 H 932.257 -0.44421 -5.32852 0
M  V30 9923 H 932.6 0.744594 -4.09587 0
M  V30 9924 H 933.133 -0.938518 -3.8657 0
M  V30 9925 H 929.872 -3.36551 -5.62507 0
M  V30 9926 H 929.392 -1.65858 -5.76412 0
M  V30 9927 H 931.071 -2.14651 -6.10356 0
M  V30 9928 N 931.203 1.46865 -0.571711 0
M  V30 9929 C 932.614 1.86158 -0.142181 0
M  V30 9930 C 932.965 1.47663 1.2919 0
M  V30 9931 O 932.09 0.886393 1.97413 0
M  V30 9932 C 932.685 3.37867 -0.251256 0
M  V30 9933 C 931.244 3.76198 0.123329 0
M  V30 9934 C 930.391 2.70902 -0.592232 0
M  V30 9935 H 933.342 1.38176 -0.780587 0
M  V30 9936 H 933.363 3.76842 0.526331 0
M  V30 9937 H 932.875 3.65853 -1.2951 0
M  V30 9938 H 930.976 3.53829 1.16773 0
M  V30 9939 H 931.089 4.78471 -0.24533 0
M  V30 9940 H 929.453 2.54678 -0.0336927 0
M  V30 9941 H 930.236 3.01729 -1.63751 0
M  V30 9942 N 932.681 0.308908 1.54543 0
M  V30 9943 C 933.591 -0.572939 2.27496 0
M  V30 9944 C 934.607 -1.14171 1.31305 0
M  V30 9945 O 935.783 -1.16481 1.64299 0
M  V30 9946 C 932.848 -1.72483 3.0075 0
M  V30 9947 C 931.909 -1.18934 4.12496 0
M  V30 9948 C 931.142 -2.28634 4.82247 0
M  V30 9949 O 931.365 -3.48691 4.5141 0
M  V30 9950 O 930.299 -1.94879 5.69478 0
M  V30 9951 H 934.125 0.0190877 3.03694 0
M  V30 9952 H 931.71 0.0750943 1.49211 0
M  V30 9953 H 933.592 -2.39578 3.46671 0
M  V30 9954 H 932.267 -2.30332 2.2744 0
M  V30 9955 H 931.174 -0.483904 3.70957 0
M  V30 9956 H 932.507 -0.656185 4.87806 0
M  V30 9957 N 934.159 -1.57557 0.0367827 0
M  V30 9958 C 935.408 -1.91291 -0.639569 0
M  V30 9959 C 935.721 -0.915601 -1.72847 0
M  V30 9960 O 936.927 -1.14447 -2.46199 0
M  V30 9961 C 935.383 -3.39697 -1.18888 0
M  V30 9962 C 934.991 -4.47803 -0.132851 0
M  V30 9963 C 936.735 -3.82487 -1.8413 0
M  V30 9964 C 934.642 -5.87311 -0.694229 0
M  V30 9965 H 933.572 -0.713886 -0.242658 0
M  V30 9966 H 936.223 -1.83209 0.103332 0
M  V30 9967 H 934.605 -3.42736 -1.98363 0
M  V30 9968 H 935.779 -4.56334 0.640009 0
M  V30 9969 H 934.094 -4.14264 0.421264 0
M  V30 9970 H 936.691 -4.84076 -2.27101 0
M  V30 9971 H 937.034 -3.17959 -2.68716 0
M  V30 9972 H 937.567 -3.81903 -1.11332 0
M  V30 9973 H 934.306 -6.55401 0.113667 0
M  V30 9974 H 933.826 -5.82371 -1.4354 0
M  V30 9975 H 935.505 -6.36119 -1.1816 0
M  V30 9976 N 935.637 0.236453 -1.55816 0
M  V30 9977 C 936.886 0.960981 -1.77336 0
M  V30 9978 C 937.199 1.86085 -0.602641 0
M  V30 9979 O 938.405 2.62291 -0.701106 0
M  V30 9980 C 936.861 1.75884 -3.13995 0
M  V30 9981 C 936.469 0.905849 -4.38746 0
M  V30 9982 C 938.213 2.47548 -3.44848 0
M  V30 9983 C 936.12 1.7002 -5.66434 0
M  V30 9984 H 935.05 0.362547 -0.661117 0
M  V30 9985 H 937.701 0.215303 -1.82233 0
M  V30 9986 H 936.083 2.54687 -3.03234 0
M  V30 9987 H 937.257 0.159415 -4.60524 0
M  V30 9988 H 935.572 0.30205 -4.15303 0
M  V30 9989 H 938.169 3.07452 -4.37467 0
M  V30 9990 H 938.512 3.19689 -2.66655 0
M  V30 9991 H 939.045 1.75747 -3.56872 0
M  V30 9992 H 935.784 1.02234 -6.47479 0
M  V30 9993 H 935.304 2.42164 -5.48741 0
M  V30 9994 H 936.983 2.26469 -6.0607 0
M  V30 9995 N 937.115 1.49373 0.502552 0
M  V30 9996 C 938.364 1.58028 1.25339 0
M  V30 9997 C 938.677 0.271494 1.93707 0
M  V30 9998 O 939.883 0.236584 2.70467 0
M  V30 9999 C 938.339 2.78817 2.27572 0
M  V30 10000 C 937.947 4.16448 1.65151 0
M  V30 10001 C 939.691 2.96802 3.03494 0
M  V30 10002 C 937.598 5.28461 2.65486 0
M  V30 10003 H 936.528 0.588396 0.471494 0
M  V30 10004 H 939.179 1.75756 0.52744 0
M  V30 10005 H 937.561 2.5458 3.03323 0
M  V30 10006 H 938.735 4.50816 0.954029 0
M  V30 10007 H 937.05 4.03809 1.01625 0
M  V30 10008 H 939.647 3.77656 3.78524 0
M  V30 10009 H 939.99 2.07303 3.61014 0
M  V30 10010 H 940.523 3.21071 2.34858 0
M  V30 10011 H 937.262 6.20015 2.12749 0
M  V30 10012 H 936.782 4.9855 3.33479 0
M  V30 10013 H 938.461 5.5773 3.27943 0
M  V30 10014 N 938.594 -0.753485 1.38421 0
M  V30 10015 C 939.541 -1.86723 1.35659 0
M  V30 10016 C 940.511 -1.64648 0.219121 0
M  V30 10017 O 941.696 -1.86313 0.411366 0
M  V30 10018 C 938.836 -3.24023 1.18758 0
M  V30 10019 C 937.949 -3.57928 2.41892 0
M  V30 10020 C 937.084 -4.84532 2.17721 0
M  V30 10021 C 936.123 -5.11224 3.36626 0
M  V30 10022 N 935.26 -6.29023 3.11889 0
M  V30 10023 H 940.1 -1.88419 2.30873 0
M  V30 10024 H 937.637 -0.920934 1.14705 0
M  V30 10025 H 939.595 -4.03252 1.06974 0
M  V30 10026 H 938.225 -3.21654 0.27182 0
M  V30 10027 H 937.277 -2.73541 2.64347 0
M  V30 10028 H 938.589 -3.73581 3.30513 0
M  V30 10029 H 937.743 -5.71704 2.03074 0
M  V30 10030 H 936.482 -4.71018 1.26465 0
M  V30 10031 H 935.487 -4.2252 3.51791 0
M  V30 10032 H 936.712 -5.26635 4.28757 0
M  V30 10033 H 934.658 -6.16832 2.2328 0
M  V30 10034 H 934.575 -6.45177 3.9406 0
M  V30 10035 H 935.843 -7.19083 3.00898 0
M  V30 10036 N 940.072 -1.23292 -0.981677 0
M  V30 10037 C 941.318 -1.06582 -1.72535 0
M  V30 10038 C 941.651 0.396538 -1.90108 0
M  V30 10039 O 940.926 1.29363 -1.45243 0
M  V30 10040 C 941.209 -1.7904 -3.12437 0
M  V30 10041 C 941.062 -3.32941 -3.02441 0
M  V30 10042 C 942.381 -1.55185 -4.11832 0
M  V30 10043 H 939.5 -0.388585 -0.626236 0
M  V30 10044 H 942.142 -1.51779 -1.14293 0
M  V30 10045 H 940.292 -1.40619 -3.62158 0
M  V30 10046 H 941.964 -3.80875 -2.60254 0
M  V30 10047 H 940.207 -3.62039 -2.38977 0
M  V30 10048 H 940.878 -3.78827 -4.0149 0
M  V30 10049 H 943.354 -1.88581 -3.70913 0
M  V30 10050 H 942.23 -2.08362 -5.07815 0
M  V30 10051 H 942.491 -0.486925 -4.3941 0
M  V30 10052 N 941.55 1.18024 -1.04442 0
M  V30 10053 C 942.966 1.40107 -0.76435 0
M  V30 10054 C 943.166 1.90914 0.644516 0
M  V30 10055 O 942.222 2.0959 1.40813 0
M  V30 10056 C 943.535 2.39851 -1.81361 0
M  V30 10057 C 945.083 2.53571 -1.83496 0
M  V30 10058 C 945.558 3.56583 -2.87424 0
M  V30 10059 N 947.049 3.64094 -2.86339 0
M  V30 10060 C 947.784 4.43537 -3.63405 0
M  V30 10061 N 947.28 5.26557 -4.50233 0
M  V30 10062 N 949.073 4.38336 -3.51877 0
M  V30 10063 H 941.224 0.833726 -1.95353 0
M  V30 10064 H 943.487 0.42881 -0.845474 0
M  V30 10065 H 943.193 2.09576 -2.82438 0
M  V30 10066 H 943.067 3.39251 -1.6489 0
M  V30 10067 H 945.454 2.83161 -0.830883 0
M  V30 10068 H 945.535 1.54272 -2.04044 0
M  V30 10069 H 945.179 3.27733 -3.88012 0
M  V30 10070 H 945.109 4.55569 -2.6413 0
M  V30 10071 H 947.6 3.04814 -2.23376 0
M  V30 10072 H 947.913 5.84336 -5.05738 0
M  V30 10073 H 946.258 5.25964 -4.54298 0
M  V30 10074 H 949.449 3.72528 -2.83444 0
M  V30 10075 H 949.622 5.00007 -4.12186 0
M  V30 10076 N 943.028 0.824394 1.34319 0
M  V30 10077 C 944.276 0.41235 1.97849 0
M  V30 10078 C 944.597 -1.02841 1.65677 0
M  V30 10079 O 943.867 -1.71421 0.948245 0
M  V30 10080 H 942.447 0.149486 0.73189 0
M  V30 10081 H 945.109 1.05416 1.63931 0
M  V30 10082 H 944.205 0.532557 3.07523 0
M  V30 10083 N 944.506 -1.46559 0.579492 0
M  V30 10084 C 945.734 -2.06784 0.0693648 0
M  V30 10085 C 946.149 -1.42875 -1.23419 0
M  V30 10086 O 945.506 -0.532919 -1.74546 0
M  V30 10087 C 945.557 -3.61343 -0.106511 0
M  V30 10088 O 945.278 -4.22861 1.14545 0
M  V30 10089 C 946.779 -4.38489 -0.651359 0
M  V30 10090 H 943.999 -0.66866 0.0559848 0
M  V30 10091 H 946.543 -1.88235 0.799245 0
M  V30 10092 H 944.698 -3.7933 -0.786601 0
M  V30 10093 H 945.112 -5.15691 0.95723 0
M  V30 10094 H 946.586 -5.47237 -0.723615 0
M  V30 10095 H 947.063 -4.06309 -1.66763 0
M  V30 10096 H 947.669 -4.253 -0.0062433 0
M  V30 10097 N 945.984 -0.3171 -1.54377 0
M  V30 10098 C 946.916 0.58571 -2.2159 0
M  V30 10099 C 947.929 1.08495 -1.21378 0
M  V30 10100 O 949.118 0.999638 -1.47883 0
M  V30 10101 C 946.218 1.8157 -2.86156 0
M  V30 10102 C 945.391 1.45625 -4.12447 0
M  V30 10103 C 944.45 2.54308 -4.60667 0
M  V30 10104 O 943.476 2.18724 -5.25498 0
M  V30 10105 N 944.678 3.85129 -4.34345 0
M  V30 10106 H 947.443 0.0102247 -2.99698 0
M  V30 10107 H 945.004 -0.140011 -1.61293 0
M  V30 10108 H 946.996 2.53657 -3.15341 0
M  V30 10109 H 945.566 2.29919 -2.11793 0
M  V30 10110 H 944.786 0.567294 -3.90097 0
M  V30 10111 H 946.074 1.19169 -4.94648 0
M  V30 10112 H 945.472 4.16841 -3.8244 0
M  V30 10113 H 944.029 4.53466 -4.68201 0
M  V30 10114 N 947.462 1.57535 -0.0451378 0
M  V30 10115 C 948.708 1.92736 0.630921 0
M  V30 10116 C 949.041 0.923265 1.70849 0
M  V30 10117 O 948.316 -0.0516512 1.94431 0
M  V30 10118 C 948.599 3.38348 1.23259 0
M  V30 10119 C 948.452 4.49503 0.16349 0
M  V30 10120 C 949.771 3.84233 2.14599 0
M  V30 10121 H 946.89 0.700884 0.227883 0
M  V30 10122 H 949.532 1.89706 -0.10567 0
M  V30 10123 H 947.682 3.41061 1.86037 0
M  V30 10124 H 949.354 4.58919 -0.46808 0
M  V30 10125 H 947.597 4.30802 -0.509166 0
M  V30 10126 H 948.268 5.48457 0.624382 0
M  V30 10127 H 950.744 3.83358 1.6179 0
M  V30 10128 H 949.62 4.86781 2.53644 0
M  V30 10129 H 949.881 3.20646 3.04366 0
M  V30 10130 N 948.94 -0.228186 1.55939 0
M  V30 10131 C 950.186 -0.954964 1.78909 0
M  V30 10132 C 950.519 -1.8425 0.613648 0
M  V30 10133 O 949.794 -1.90604 -0.38737 0
M  V30 10134 C 950.077 -1.79957 3.1191 0
M  V30 10135 C 949.93 -0.938968 4.3989 0
M  V30 10136 C 951.249 -2.77859 3.41295 0
M  V30 10137 H 948.368 -0.345745 0.650868 0
M  V30 10138 H 951.01 -0.224244 1.88672 0
M  V30 10139 H 949.16 -2.42256 3.03717 0
M  V30 10140 H 950.832 -0.333225 4.60095 0
M  V30 10141 H 949.075 -0.244096 4.33113 0
M  V30 10142 H 949.746 -1.56416 5.29375 0
M  V30 10143 H 952.222 -2.25695 3.49572 0
M  V30 10144 H 951.098 -3.34062 4.35538 0
M  V30 10145 H 951.359 -3.55266 2.63132 0
M  V30 10146 N 950.418 -1.49637 -0.494624 0
M  V30 10147 C 951.666 -1.5913 -1.24587 0
M  V30 10148 C 951.987 -0.282828 -1.92938 0
M  V30 10149 O 951.257 0.69825 -1.83034 0
M  V30 10150 H 949.837 -0.586329 -0.462847 0
M  V30 10151 H 952.499 -1.86296 -0.572696 0
M  V30 10152 H 951.595 -2.3906 -2.00641 0
M  V30 10153 N 951.896 0.746133 -1.38819 0
M  V30 10154 C 953.121 1.54049 -1.38866 0
M  V30 10155 C 953.546 1.88092 0.0176624 0
M  V30 10156 O 952.904 1.51113 1.00173 0
M  V30 10157 C 952.952 2.8116 -2.25791 0
M  V30 10158 O 952.056 3.76623 -1.68014 0
M  V30 10159 H 951.397 0.465648 -0.473359 0
M  V30 10160 H 953.927 0.921469 -1.82675 0
M  V30 10161 H 953.937 3.30009 -2.39913 0
M  V30 10162 H 952.612 2.55713 -3.27999 0
M  V30 10163 H 951.189 3.35352 -1.63074 0
M  V30 10164 N 953.375 1.23811 0.975125 0
M  V30 10165 C 954.652 0.9815 1.69192 0
M  V30 10166 C 955.032 -0.498373 2.05133 0
M  V30 10167 O 954.38 -1.47087 1.74864 0
M  V30 10168 C 954.59 1.89701 2.92941 0
M  V30 10169 C 955.938 2.16357 3.65342 0
M  V30 10170 O 956.962 1.87293 3.02985 0
M  V30 10171 O 955.821 2.65675 4.77576 0
M  V30 10172 H 952.915 0.370599 0.739314 0
M  V30 10173 H 955.461 1.34876 1.02988 0
M  V30 10174 H 954.233 2.89719 2.63018 0
M  V30 10175 H 953.856 1.53244 3.66881 0
M  V30 10176 N 954.853 -1.17469 1.05066 0
M  V30 10177 C 955.786 -2.2031 0.594863 0
M  V30 10178 C 956.764 -1.58196 -0.375878 0
M  V30 10179 O 957.948 -1.8629 -0.287798 0
M  V30 10180 C 955.075 -3.38452 -0.129614 0
M  V30 10181 C 954.121 -4.19007 0.795943 0
M  V30 10182 S 954.954 -4.8433 2.28441 0
M  V30 10183 C 956.11 -6.05862 1.57107 0
M  V30 10184 H 956.343 -2.58632 1.46618 0
M  V30 10185 H 953.876 -1.28063 0.862511 0
M  V30 10186 H 955.834 -4.06914 -0.541416 0
M  V30 10187 H 954.495 -2.98521 -0.976948 0
M  V30 10188 H 953.688 -5.0345 0.235396 0
M  V30 10189 H 953.29 -3.55976 1.14705 0
M  V30 10190 H 955.582 -6.71895 0.86969 0
M  V30 10191 H 956.525 -6.66442 2.39292 0
M  V30 10192 H 956.933 -5.54477 1.05903 0
M  V30 10193 N 956.331 -0.831506 -1.3388 0
M  V30 10194 C 957.559 -0.436925 -2.02234 0
M  V30 10195 C 957.974 0.959689 -1.6259 0
M  V30 10196 O 957.331 1.62248 -0.835576 0
M  V30 10197 C 957.382 -0.539429 -3.57453 0
M  V30 10198 O 957.103 -1.88101 -3.95664 0
M  V30 10199 C 958.604 -0.140852 -4.43076 0
M  V30 10200 H 955.824 -0.174302 -0.647966 0
M  V30 10201 H 958.368 -1.12204 -1.70969 0
M  V30 10202 H 956.523 0.0976959 -3.87277 0
M  V30 10203 H 956.937 -1.86131 -4.90363 0
M  V30 10204 H 958.411 -0.26364 -5.5137 0
M  V30 10205 H 958.888 0.916505 -4.29531 0
M  V30 10206 H 959.494 -0.752117 -4.18597 0
M  V30 10207 N 957.809 1.4625 -0.587256 0
M  V30 10208 C 959.055 2.02662 -0.0746851 0
M  V30 10209 C 959.388 1.45723 1.28368 0
M  V30 10210 O 958.663 0.624062 1.84216 0
M  V30 10211 C 958.946 3.60097 -0.0138109 0
M  V30 10212 C 958.799 4.27412 -1.4014 0
M  V30 10213 C 960.118 4.34744 0.684491 0
M  V30 10214 H 957.237 0.736444 -0.0286144 0
M  V30 10215 H 959.879 1.74341 -0.755328 0
M  V30 10216 H 958.029 3.84357 0.56583 0
M  V30 10217 H 959.701 4.14401 -2.02656 0
M  V30 10218 H 957.944 3.86598 -1.96785 0
M  V30 10219 H 958.615 5.362 -1.31124 0
M  V30 10220 H 961.091 4.15657 0.192023 0
M  V30 10221 H 959.967 5.44468 0.696127 0
M  V30 10222 H 960.228 4.06132 1.74669 0
M  V30 10223 N 959.287 0.325282 1.54207 0
M  V30 10224 C 960.515 -0.27869 2.05014 0
M  V30 10225 C 960.93 -1.45649 1.20133 0
M  V30 10226 O 960.287 -1.81014 0.232398 0
M  V30 10227 C 960.338 -0.711486 3.54429 0
M  V30 10228 O 960.059 0.419458 4.36087 0
M  V30 10229 C 961.56 -1.37809 4.21336 0
M  V30 10230 H 958.78 -0.0570388 0.668571 0
M  V30 10231 H 961.324 0.47197 1.98979 0
M  V30 10232 H 959.479 -1.41212 3.60746 0
M  V30 10233 H 959.893 0.0781037 5.24442 0
M  V30 10234 H 961.367 -1.63184 5.27328 0
M  V30 10235 H 961.844 -2.32593 3.72555 0
M  V30 10236 H 962.45 -0.719987 4.19161 0
M  V30 10237 N 960.765 -1.57509 0.0534917 0
M  V30 10238 C 962.011 -1.93068 -0.62069 0
M  V30 10239 C 962.344 -0.932313 -1.70357 0
M  V30 10240 O 961.619 0.0413393 -1.94456 0
M  V30 10241 C 961.902 -3.38997 -1.21463 0
M  V30 10242 C 961.755 -4.49583 -0.13965 0
M  V30 10243 C 963.074 -3.85366 -2.12558 0
M  V30 10244 H 960.193 -0.702083 -0.224163 0
M  V30 10245 H 962.835 -1.89647 0.115729 0
M  V30 10246 H 960.985 -3.42043 -1.84226 0
M  V30 10247 H 962.657 -4.58664 0.492411 0
M  V30 10248 H 960.9 -4.30525 0.532006 0
M  V30 10249 H 961.571 -5.48781 -0.595287 0
M  V30 10250 H 964.047 -3.8421 -1.59755 0
M  V30 10251 H 962.923 -4.8812 -2.51058 0
M  V30 10252 H 963.184 -3.22256 -3.02661 0
M  V30 10253 N 962.243 0.219913 -1.56058 0
M  V30 10254 C 963.153 1.29349 -1.95719 0
M  V30 10255 C 964.169 1.5119 -0.861248 0
M  V30 10256 O 965.345 1.64289 -1.16495 0
M  V30 10257 C 962.41 2.6229 -2.26726 0
M  V30 10258 C 961.471 2.48738 -3.49897 0
M  V30 10259 C 960.704 3.75339 -3.79416 0
M  V30 10260 O 960.927 4.78427 -3.10586 0
M  V30 10261 O 959.861 3.72352 -4.72903 0
M  V30 10262 H 963.687 0.986979 -2.87215 0
M  V30 10263 H 961.272 0.42291 -1.43289 0
M  V30 10264 H 963.154 3.408 -2.47857 0
M  V30 10265 H 961.829 2.92619 -1.38404 0
M  V30 10266 H 960.736 1.68422 -3.34043 0
M  V30 10267 H 962.069 2.23347 -4.38608 0
M  V30 10268 N 963.721 1.49897 0.486681 0
M  V30 10269 C 964.968 1.60105 1.23986 0
M  V30 10270 C 965.296 0.294228 1.92262 0
M  V30 10271 O 964.551 -0.718876 1.82018 0
M  V30 10272 C 964.85 2.71982 2.31863 0
M  V30 10273 C 964.516 4.13 1.80948 0
M  V30 10274 C 963.178 4.51373 1.66782 0
M  V30 10275 C 965.53 5.01198 1.43004 0
M  V30 10276 C 962.858 5.75701 1.13072 0
M  V30 10277 C 965.21 6.26058 0.90742 0
M  V30 10278 C 963.874 6.63247 0.752269 0
M  V30 10279 H 963.144 0.585866 0.453698 0
M  V30 10280 H 965.791 1.83778 0.538305 0
M  V30 10281 H 964.096 2.42336 3.07865 0
M  V30 10282 H 965.793 2.77087 2.89869 0
M  V30 10283 H 962.383 3.82718 1.92937 0
M  V30 10284 H 966.567 4.72196 1.52789 0
M  V30 10285 H 961.823 6.03202 0.997842 0
M  V30 10286 H 965.997 6.9377 0.604684 0
M  V30 10287 H 963.624 7.59466 0.33392 0
M  V30 10288 N 965.199 -0.738761 1.39212 0
M  V30 10289 C 966.427 -1.52801 1.39497 0
M  V30 10290 C 966.842 -1.88797 -0.0114917 0
M  V30 10291 O 966.199 -1.53835 -0.981887 0
M  V30 10292 C 966.25 -2.81793 2.2644 0
M  V30 10293 O 965.971 -2.47328 3.61608 0
M  V30 10294 C 967.472 -3.75844 2.35067 0
M  V30 10295 H 964.692 -0.472322 0.476606 0
M  V30 10296 H 967.236 -0.913153 1.8298 0
M  V30 10297 H 965.391 -3.3962 1.8638 0
M  V30 10298 H 965.805 -3.30162 4.07545 0
M  V30 10299 H 967.279 -4.6326 3.00157 0
M  V30 10300 H 967.756 -4.17329 1.3687 0
M  V30 10301 H 968.362 -3.23937 2.75581 0
M  V30 10302 N 966.677 -1.24326 -0.968545 0
M  V30 10303 C 967.625 -1.03256 -2.08425 0
M  V30 10304 C 968.619 0.0322356 -1.69369 0
M  V30 10305 O 969.825 -0.122251 -1.79584 0
M  V30 10306 H 966.2 -0.31688 -0.681976 0
M  V30 10307 H 968.171 -1.97873 -2.23358 0
M  V30 10308 C 966.92 -0.653144 -3.4151 0
M  V30 10309 H 966.243 -1.46424 -3.72021 0
M  V30 10310 H 967.683 -0.545316 -4.20479 0
M  V30 10311 C 966.142 0.639674 -3.30771 0
M  V30 10312 O 966.672 1.68563 -3.64622 0
M  V30 10313 N 964.878 0.620074 -2.83907 0
M  V30 10314 H 964.425 -0.231449 -2.56558 0
M  V30 10315 H 964.383 1.48528 -2.77104 0
M  V30 10316 N 968.156 1.1691 -1.05688 0
M  V30 10317 C 969.567 1.68915 -0.795273 0
M  V30 10318 C 969.918 1.83968 0.681925 0
M  V30 10319 O 969.043 1.53083 1.52953 0
M  V30 10320 C 969.638 3.06814 -1.43703 0
M  V30 10321 C 968.197 3.55965 -1.22335 0
M  V30 10322 C 967.344 2.32099 -1.51741 0
M  V30 10323 H 970.295 1.01357 -1.22116 0
M  V30 10324 H 970.316 3.70907 -0.849016 0
M  V30 10325 H 969.828 2.95826 -2.51214 0
M  V30 10326 H 967.929 3.72222 -0.16771 0
M  V30 10327 H 968.042 4.38427 -1.9318 0
M  V30 10328 H 966.406 2.36811 -0.937696 0
M  V30 10329 H 967.189 2.23715 -2.60397 0
M  V30 10330 N 969.634 0.838594 1.33437 0
M  V30 10331 C 970.564 0.286672 2.31734 0
M  V30 10332 C 971.545 -0.605451 1.5896 0
M  V30 10333 O 972.73 -0.529059 1.86854 0
M  V30 10334 C 969.86 -0.539311 3.43087 0
M  V30 10335 C 968.814 0.256997 4.27228 0
M  V30 10336 C 968.14 -0.692718 5.30194 0
M  V30 10337 C 969.44 1.47391 5.01072 0
M  V30 10338 H 971.134 1.10798 2.78144 0
M  V30 10339 H 968.68 0.534235 1.33723 0
M  V30 10340 H 970.633 -0.935724 4.1088 0
M  V30 10341 H 969.357 -1.39383 2.95364 0
M  V30 10342 H 968.016 0.634967 3.61059 0
M  V30 10343 H 967.664 -1.54363 4.78729 0
M  V30 10344 H 967.364 -0.164023 5.87371 0
M  V30 10345 H 968.888 -1.08665 6.00853 0
M  V30 10346 H 970.302 1.15067 5.61634 0
M  V30 10347 H 968.699 1.93937 5.67898 0
M  V30 10348 H 969.769 2.24382 4.29861 0
M  V30 10349 N 971.112 -1.45937 0.595003 0
M  V30 10350 C 972.059 -2.30427 -0.131165 0
M  V30 10351 C 973.029 -1.41355 -0.872232 0
M  V30 10352 O 974.214 -1.70296 -0.860467 0
M  V30 10353 C 971.354 -3.26045 -1.13087 0
M  V30 10354 C 970.467 -4.30218 -0.391982 0
M  V30 10355 C 969.602 -5.12953 -1.3803 0
M  V30 10356 C 968.641 -6.08865 -0.628505 0
M  V30 10357 N 967.778 -6.84425 -1.56548 0
M  V30 10358 H 972.618 -2.91992 0.595359 0
M  V30 10359 H 970.155 -1.43895 0.305405 0
M  V30 10360 H 972.113 -3.79937 -1.72348 0
M  V30 10361 H 970.743 -2.66261 -1.82496 0
M  V30 10362 H 969.795 -3.79086 0.315895 0
M  V30 10363 H 971.107 -4.98418 0.195173 0
M  V30 10364 H 970.261 -5.71184 -2.04534 0
M  V30 10365 H 969 -4.44743 -2.00138 0
M  V30 10366 H 968.005 -5.49777 0.0502431 0
M  V30 10367 H 969.23 -6.79099 -0.012641 0
M  V30 10368 H 967.176 -6.18913 -2.17444 0
M  V30 10369 H 967.093 -7.48931 -1.03145 0
M  V30 10370 H 968.361 -7.47204 -2.22049 0
M  V30 10371 N 972.59 -0.333456 -1.54032 0
M  V30 10372 C 973.5 0.536674 -2.28379 0
M  V30 10373 C 974.516 1.12068 -1.33104 0
M  V30 10374 O 975.692 1.13853 -1.66131 0
M  V30 10375 C 972.757 1.67677 -3.03456 0
M  V30 10376 C 971.818 1.12357 -4.14336 0
M  V30 10377 C 971.051 2.20933 -4.85823 0
M  V30 10378 O 971.274 3.41466 -4.569 0
M  V30 10379 O 970.208 1.85795 -5.72507 0
M  V30 10380 H 974.034 -0.0674003 -3.03625 0
M  V30 10381 H 971.619 -0.098823 -1.49073 0
M  V30 10382 H 973.501 2.34032 -3.50438 0
M  V30 10383 H 972.176 2.26684 -2.31076 0
M  V30 10384 H 971.083 0.424827 -3.7168 0
M  V30 10385 H 972.416 0.578497 -4.88789 0
M  V30 10386 N 974.068 1.57479 -0.061844 0
M  V30 10387 C 975.296 1.97429 0.618837 0
M  V30 10388 C 975.711 0.939826 1.63746 0
M  V30 10389 O 975.068 -0.0747173 1.82347 0
M  V30 10390 C 975.119 3.3746 1.29628 0
M  V30 10391 O 974.84 4.36941 0.318431 0
M  V30 10392 C 976.341 3.92228 2.06572 0
M  V30 10393 H 973.561 0.649513 0.168444 0
M  V30 10394 H 976.105 2.04078 -0.131303 0
M  V30 10395 H 974.26 3.31928 1.99757 0
M  V30 10396 H 974.674 5.18313 0.803239 0
M  V30 10397 H 976.148 4.92458 2.49377 0
M  V30 10398 H 976.625 3.28231 2.91824 0
M  V30 10399 H 977.231 4.01131 1.4133 0
M  V30 10400 N 975.546 -0.211634 1.56173 0
M  V30 10401 C 976.476 -1.26533 1.96244 0
M  V30 10402 C 977.457 -1.48362 0.832028 0
M  V30 10403 O 978.642 -1.60378 1.0951 0
M  V30 10404 C 975.772 -2.61307 2.2877 0
M  V30 10405 C 974.726 -2.54119 3.44395 0
M  V30 10406 C 974.052 -3.93014 3.62552 0
M  V30 10407 C 975.352 -2.08046 4.79076 0
M  V30 10408 H 977.046 -0.932407 2.84511 0
M  V30 10409 H 974.592 -0.447084 1.36884 0
M  V30 10410 H 976.545 -3.35188 2.55396 0
M  V30 10411 H 975.269 -2.96307 1.37367 0
M  V30 10412 H 973.928 -1.82694 3.17834 0
M  V30 10413 H 973.576 -4.25338 2.68508 0
M  V30 10414 H 973.276 -3.89083 4.40327 0
M  V30 10415 H 974.8 -4.68542 3.91537 0
M  V30 10416 H 976.214 -2.71676 5.04842 0
M  V30 10417 H 974.611 -2.15154 5.60204 0
M  V30 10418 H 975.681 -1.03306 4.73768 0
M  V30 10419 N 977.024 -1.50153 -0.478725 0
M  V30 10420 C 978.44 -1.3741 -0.811833 0
M  V30 10421 C 978.64 -0.424303 -1.96982 0
M  V30 10422 O 977.696 0.13588 -2.52134 0
M  V30 10423 C 979.009 -2.78616 -1.13108 0
M  V30 10424 C 980.557 -2.87477 -1.23798 0
M  V30 10425 C 981.032 -4.295 -1.5904 0
M  V30 10426 N 982.523 -4.32415 -1.66047 0
M  V30 10427 C 983.258 -5.39295 -1.94805 0
M  V30 10428 N 982.754 -6.56392 -2.21635 0
M  V30 10429 N 984.547 -5.26731 -1.96243 0
M  V30 10430 H 976.698 -2.10486 0.284531 0
M  V30 10431 H 978.961 -0.945786 0.0647585 0
M  V30 10432 H 978.667 -3.49921 -0.35334 0
M  V30 10433 H 978.541 -3.15382 -2.06915 0
M  V30 10434 H 980.928 -2.16396 -2.00641 0
M  V30 10435 H 981.009 -2.54264 -0.279888 0
M  V30 10436 H 980.653 -5.01115 -0.827404 0
M  V30 10437 H 980.583 -4.60194 -2.55987 0
M  V30 10438 H 983.074 -3.47975 -1.47383 0
M  V30 10439 H 983.387 -7.33658 -2.4283 0
M  V30 10440 H 981.732 -6.59579 -2.19043 0
M  V30 10441 H 984.923 -4.34249 -1.74773 0
M  V30 10442 H 985.096 -6.10115 -2.1832 0
M  V30 10443 N 978.502 0.731368 -1.39602 0
M  V30 10444 C 979.45 1.86676 -1.38761 0
M  V30 10445 C 980.444 1.6723 -0.270247 0
M  V30 10446 O 981.65 1.74528 -0.440471 0
M  V30 10447 H 978.025 0.614553 -0.433391 0
M  V30 10448 H 979.996 1.84501 -2.34525 0
M  V30 10449 C 978.745 3.24394 -1.25155 0
M  V30 10450 H 978.068 3.39955 -2.10406 0
M  V30 10451 H 979.508 4.04019 -1.28625 0
M  V30 10452 C 977.967 3.36877 0.0396976 0
M  V30 10453 O 978.497 3.88833 1.00854 0
M  V30 10454 N 976.703 2.90414 0.103965 0
M  V30 10455 H 976.25 2.48321 -0.685155 0
M  V30 10456 H 976.208 2.99146 0.967435 0
M  V30 10457 N 979.98 1.24838 0.961938 0
M  V30 10458 C 981.226 1.09313 1.70817 0
M  V30 10459 C 981.559 -0.366244 1.90715 0
M  V30 10460 O 980.834 -1.27036 1.47282 0
M  V30 10461 C 981.117 1.83988 3.09549 0
M  V30 10462 C 980.97 3.3771 2.97106 0
M  V30 10463 C 982.289 1.61718 4.09311 0
M  V30 10464 H 979.408 0.398498 0.619974 0
M  V30 10465 H 982.05 1.53579 1.11864 0
M  V30 10466 H 980.2 1.46363 3.59875 0
M  V30 10467 H 981.872 3.84967 2.54161 0
M  V30 10468 H 980.115 3.65795 2.33187 0
M  V30 10469 H 980.786 3.85166 3.95412 0
M  V30 10470 H 983.262 1.94458 3.67866 0
M  V30 10471 H 982.138 2.16415 5.04436 0
M  V30 10472 H 982.399 0.55677 4.3858 0
M  V30 10473 N 981.458 -1.16348 1.06306 0
M  V30 10474 C 982.704 -1.87397 0.79082 0
M  V30 10475 C 983.059 -1.80156 -0.675382 0
M  V30 10476 O 982.352 -1.20644 -1.48847 0
M  V30 10477 C 982.546 -3.35936 1.21991 0
M  V30 10478 C 982.375 -3.57637 2.72628 0
M  V30 10479 C 981.145 -3.73717 3.40094 0
M  V30 10480 C 983.343 -3.56345 3.70841 0
M  V30 10481 N 981.325 -3.83369 4.7948 0
M  V30 10482 C 982.696 -3.71983 4.96013 0
M  V30 10483 C 984.751 -3.39558 3.64149 0
M  V30 10484 C 983.454 -3.7257 6.15292 0
M  V30 10485 C 985.48 -3.41439 4.8288 0
M  V30 10486 C 984.842 -3.57596 6.06881 0
M  V30 10487 H 980.941 -0.703355 0.341782 0
M  V30 10488 H 983.525 -1.39597 1.35723 0
M  V30 10489 H 981.696 -3.82378 0.681319 0
M  V30 10490 H 983.428 -3.94649 0.896319 0
M  V30 10491 H 980.183 -3.74045 2.90495 0
M  V30 10492 H 980.607 -3.91964 5.5199 0
M  V30 10493 H 985.249 -3.25994 2.69235 0
M  V30 10494 H 982.967 -3.84916 7.10539 0
M  V30 10495 H 986.553 -3.29693 4.79368 0
M  V30 10496 H 985.433 -3.58971 6.97216 0
M  V30 10497 N 982.937 -0.845659 -1.3299 0
M  V30 10498 C 984.183 -0.445311 -1.9785 0
M  V30 10499 C 984.516 0.994476 -1.66805 0
M  V30 10500 O 983.791 1.69636 -0.95151 0
M  V30 10501 C 984.074 -0.674371 -3.53729 0
M  V30 10502 C 983.927 -2.16192 -3.94437 0
M  V30 10503 C 985.246 -0.124908 -4.39923 0
M  V30 10504 H 982.365 -0.163269 -0.718688 0
M  V30 10505 H 985.007 -1.06242 -1.5752 0
M  V30 10506 H 983.157 -0.149091 -3.88214 0
M  V30 10507 H 984.829 -2.75259 -3.70176 0
M  V30 10508 H 983.072 -2.64386 -3.43922 0
M  V30 10509 H 983.743 -2.27292 -5.03033 0
M  V30 10510 H 986.219 -0.573986 -4.12122 0
M  V30 10511 H 985.095 -0.314816 -5.47996 0
M  V30 10512 H 985.356 0.971758 -4.31288 0
M  V30 10513 N 984.415 1.45619 -0.602734 0
M  V30 10514 C 985.365 2.27568 0.140264 0
M  V30 10515 C 986.349 1.3704 0.84314 0
M  V30 10516 O 987.541 1.61067 0.733931 0
M  V30 10517 C 984.67 3.23812 1.14019 0
M  V30 10518 C 983.756 4.21828 0.438406 0
M  V30 10519 N 984.147 5.03148 -0.517245 0
M  V30 10520 C 982.445 4.40684 0.686588 0
M  V30 10521 C 983.146 5.74229 -0.929291 0
M  V30 10522 N 982.122 5.42909 -0.274086 0
M  V30 10523 H 985.924 2.87839 -0.5938 0
M  V30 10524 H 983.438 1.56712 -0.426033 0
M  V30 10525 H 985.435 3.8125 1.68684 0
M  V30 10526 H 984.095 2.65102 1.87486 0
M  V30 10527 H 985.106 5.1013 -0.893758 0
M  V30 10528 H 981.783 3.93102 1.4063 0
M  V30 10529 H 983.173 6.49586 -1.7172 0
M  V30 10530 N 985.893 0.34162 1.53853 0
M  V30 10531 C 986.823 -0.508431 2.27897 0
M  V30 10532 C 987.804 -1.10425 1.29384 0
M  V30 10533 O 988.989 -1.126 1.58224 0
M  V30 10534 C 986.119 -1.66048 3.05034 0
M  V30 10535 C 985.073 -1.19309 4.11035 0
M  V30 10536 C 984.399 -2.4335 4.76114 0
M  V30 10537 C 985.699 -0.294952 5.21467 0
M  V30 10538 H 987.393 0.109251 2.99201 0
M  V30 10539 H 984.939 0.0539847 1.43899 0
M  V30 10540 H 986.892 -2.26158 3.5557 0
M  V30 10541 H 985.616 -2.30503 2.31379 0
M  V30 10542 H 984.275 -0.614809 3.61408 0
M  V30 10543 H 983.923 -3.06208 3.99056 0
M  V30 10544 H 983.623 -2.1276 5.47729 0
M  V30 10545 H 985.147 -3.0419 5.29434 0
M  V30 10546 H 986.561 -0.80285 5.67651 0
M  V30 10547 H 984.958 -0.0810221 6.00045 0
M  V30 10548 H 986.028 0.669433 4.80257 0
M  V30 10549 N 987.371 -1.57444 0.0701946 0
M  V30 10550 C 988.648 -1.84826 -0.6402 0
M  V30 10551 C 989.028 -0.962344 -1.87889 0
M  V30 10552 O 988.376 -0.0282209 -2.28483 0
M  V30 10553 C 988.586 -3.34976 -0.979382 0
M  V30 10554 C 989.934 -4.02448 -1.35355 0
M  V30 10555 O 990.958 -3.39713 -1.07116 0
M  V30 10556 O 989.817 -5.13096 -1.88136 0
M  V30 10557 H 986.911 -0.763494 -0.317813 0
M  V30 10558 H 989.457 -1.69399 0.101004 0
M  V30 10559 H 988.229 -3.91173 -0.0995576 0
M  V30 10560 H 987.852 -3.5566 -1.7774 0
M  V30 10561 N 988.849 0.203349 -1.56283 0
M  V30 10562 C 990.097 0.923183 -1.79782 0
M  V30 10563 C 990.418 1.84134 -0.64185 0
M  V30 10564 O 989.688 1.92922 0.340292 0
M  V30 10565 H 988.268 0.343881 -0.66314 0
M  V30 10566 H 990.93 0.210837 -1.93756 0
M  V30 10567 H 990.026 1.51921 -2.72629 0
M  V30 10568 N 990.327 1.50405 0.470755 0
M  V30 10569 C 991.738 1.54266 1.05162 0
M  V30 10570 C 992.089 0.346359 1.93119 0
M  V30 10571 O 991.214 -0.540699 2.09536 0
M  V30 10572 C 991.809 2.7956 1.91394 0
M  V30 10573 C 990.368 2.86101 2.44588 0
M  V30 10574 C 989.515 2.48557 1.22941 0
M  V30 10575 H 992.466 1.56665 0.253359 0
M  V30 10576 H 992.487 2.61434 2.76464 0
M  V30 10577 H 991.999 3.66611 1.27351 0
M  V30 10578 H 990.1 2.03403 3.12183 0
M  V30 10579 H 990.213 3.88999 2.79672 0
M  V30 10580 H 988.577 2.01003 1.56429 0
M  V30 10581 H 989.36 3.37916 0.605598 0
M  V30 10582 N 991.805 -0.723954 1.39988 0
M  V30 10583 C 993.053 -1.48078 1.3754 0
M  V30 10584 C 993.374 -1.94985 -0.0243358 0
M  V30 10585 O 992.644 -1.69764 -0.977602 0
M  V30 10586 H 991.224 -0.549354 0.506181 0
M  V30 10587 H 993.886 -0.858746 1.74962 0
M  V30 10588 H 992.982 -2.35763 2.04505 0
M  V30 10589 N 993.283 -1.25346 -0.955304 0
M  V30 10590 C 994.529 -1.10218 -1.70235 0
M  V30 10591 C 994.862 0.356124 -1.90907 0
M  V30 10592 O 994.137 1.26253 -1.47954 0
M  V30 10593 C 994.42 -1.85627 -3.08569 0
M  V30 10594 C 994.273 -3.39281 -2.95311 0
M  V30 10595 C 995.592 -1.63886 -4.08448 0
M  V30 10596 H 992.711 -0.401781 -0.617852 0
M  V30 10597 H 995.353 -1.5417 -1.11048 0
M  V30 10598 H 993.503 -1.48269 -3.59094 0
M  V30 10599 H 995.175 -3.8631 -2.52116 0
M  V30 10600 H 993.418 -3.67027 -2.31244 0
M  V30 10601 H 994.089 -3.87258 -3.93364 0
M  V30 10602 H 996.565 -1.96406 -3.6683 0
M  V30 10603 H 995.441 -2.19087 -5.03281 0
M  V30 10604 H 995.702 -0.580021 -4.38279 0
M  V30 10605 N 994.761 1.15782 -1.06922 0
M  V30 10606 C 995.989 1.90355 -0.81072 0
M  V30 10607 C 996.404 1.77779 0.635614 0
M  V30 10608 O 995.761 1.12675 1.43564 0
M  V30 10609 C 995.812 3.4085 -1.2043 0
M  V30 10610 O 995.533 3.53057 -2.59388 0
M  V30 10611 C 997.034 4.32457 -0.974473 0
M  V30 10612 H 994.254 0.60343 -0.293451 0
M  V30 10613 H 996.798 1.46723 -1.42452 0
M  V30 10614 H 994.953 3.82162 -0.634909 0
M  V30 10615 H 995.367 4.46426 -2.75326 0
M  V30 10616 H 996.841 5.36488 -1.29942 0
M  V30 10617 H 997.318 4.39109 0.0894481 0
M  V30 10618 H 997.924 3.96882 -1.52856 0
M  V30 10619 N 996.239 0.8527 1.3254 0
M  V30 10620 C 997.655 0.542298 1.50104 0
M  V30 10621 C 997.855 -0.927465 1.78886 0
M  V30 10622 O 996.911 -1.7106 1.85728 0
M  V30 10623 C 998.224 1.4276 2.64651 0
M  V30 10624 C 999.772 1.42782 2.78536 0
M  V30 10625 C 1000.25 2.29828 3.9616 0
M  V30 10626 N 1001.74 2.27613 4.03418 0
M  V30 10627 C 1002.47 2.91696 4.93661 0
M  V30 10628 N 1001.97 3.64883 5.88925 0
M  V30 10629 N 1003.76 2.81094 4.86768 0
M  V30 10630 H 995.913 1.80395 1.12123 0
M  V30 10631 H 998.176 0.770394 0.552446 0
M  V30 10632 H 997.882 2.47266 2.50105 0
M  V30 10633 H 997.756 1.11358 3.60388 0
M  V30 10634 H 1000.14 0.390417 2.92506 0
M  V30 10635 H 1000.22 1.78198 1.83519 0
M  V30 10636 H 999.868 3.33635 3.82949 0
M  V30 10637 H 999.798 1.91746 4.9045 0
M  V30 10638 H 1002.29 1.74402 3.3525 0
M  V30 10639 H 1002.6 4.10952 6.54476 0
M  V30 10640 H 1000.95 3.68991 5.88957 0
M  V30 10641 H 1004.14 2.23469 4.11314 0
M  V30 10642 H 1004.31 3.31318 5.56895 0
M  V30 10643 N 997.718 -1.45297 0.610449 0
M  V30 10644 C 999.129 -1.85715 0.191488 0
M  V30 10645 C 999.48 -1.51036 -1.25229 0
M  V30 10646 O 998.605 -0.938422 -1.94994 0
M  V30 10647 C 999.2 -3.37082 0.340747 0
M  V30 10648 C 997.759 -3.76393 -0.0235433 0
M  V30 10649 C 996.906 -2.69237 0.663849 0
M  V30 10650 H 999.857 -1.36058 0.816948 0
M  V30 10651 H 999.878 -3.78105 -0.426233 0
M  V30 10652 H 999.39 -3.62291 1.39164 0
M  V30 10653 H 997.491 -3.56801 -1.07351 0
M  V30 10654 H 997.604 -4.77653 0.372102 0
M  V30 10655 H 995.968 -2.54499 0.101204 0
M  V30 10656 H 996.751 -2.97281 1.71694 0
M  V30 10657 N 999.196 -0.349774 -1.5367 0
M  V30 10658 C 1000.13 0.547309 -2.2154 0
M  V30 10659 C 1001.11 1.09543 -1.20163 0
M  V30 10660 O 1002.29 1.15453 -1.49006 0
M  V30 10661 C 999.418 1.75356 -2.89772 0
M  V30 10662 C 998.464 1.33433 -4.0509 0
M  V30 10663 S 999.297 0.348891 -5.34362 0
M  V30 10664 C 1000.45 1.56183 -6.061 0
M  V30 10665 H 1000.69 -0.0291392 -2.97286 0
M  V30 10666 H 998.219 -0.133853 -1.53819 0
M  V30 10667 H 1000.18 2.44555 -3.29701 0
M  V30 10668 H 998.838 2.30123 -2.1378 0
M  V30 10669 H 998.031 2.23388 -4.5179 0
M  V30 10670 H 997.633 0.721746 -3.6697 0
M  V30 10671 H 999.925 2.49535 -6.29872 0
M  V30 10672 H 1000.87 1.13651 -6.9892 0
M  V30 10673 H 1001.28 1.76071 -5.36339 0
M  V30 10674 N 1000.67 1.57404 -0.0785433 0
M  V30 10675 C 1001.62 2.13104 0.88631 0
M  V30 10676 C 1002.59 1.04527 1.29086 0
M  V30 10677 O 1003.78 1.32226 1.37553 0
M  V30 10678 C 1000.92 2.70252 2.14611 0
M  V30 10679 C 1000.03 3.93007 1.79358 0
M  V30 10680 C 999.164 4.38376 3 0
M  V30 10681 C 998.203 5.53761 2.60796 0
M  V30 10682 N 997.34 5.94058 3.74219 0
M  V30 10683 H 1002.18 2.95243 0.404452 0
M  V30 10684 H 999.717 1.45894 0.187982 0
M  V30 10685 H 1001.67 3.01497 2.88367 0
M  V30 10686 H 1000.3 1.90868 2.60326 0
M  V30 10687 H 999.357 3.68181 0.956384 0
M  V30 10688 H 1000.67 4.76795 1.4652 0
M  V30 10689 H 999.823 4.71317 3.82027 0
M  V30 10690 H 998.562 3.53455 3.36037 0
M  V30 10691 H 997.567 5.20464 1.77192 0
M  V30 10692 H 998.792 6.40419 2.25922 0
M  V30 10693 H 996.738 5.12085 4.10005 0
M  V30 10694 H 996.655 6.72602 3.45171 0
M  V30 10695 H 997.923 6.31624 4.56805 0
M  V30 10696 N 1002.15 -0.195058 1.56388 0
M  V30 10697 C 1003.1 -1.24175 1.94549 0
M  V30 10698 C 1004.07 -1.45229 0.806089 0
M  V30 10699 O 1005.25 -1.58362 1.06425 0
M  V30 10700 C 1002.39 -2.58145 2.29031 0
M  V30 10701 C 1001.51 -2.44669 3.56035 0
M  V30 10702 C 1000.64 -3.71342 3.7984 0
M  V30 10703 C 999.681 -3.52699 5.0027 0
M  V30 10704 N 998.818 -4.71385 5.20328 0
M  V30 10705 H 1003.66 -0.909319 2.83788 0
M  V30 10706 H 1001.19 -0.437641 1.40439 0
M  V30 10707 H 1003.15 -3.36195 2.4704 0
M  V30 10708 H 1001.78 -2.8943 1.42933 0
M  V30 10709 H 1000.83 -1.57916 3.46073 0
M  V30 10710 H 1002.15 -2.26827 4.44242 0
M  V30 10711 H 1001.3 -4.57832 3.98088 0
M  V30 10712 H 1000.04 -3.92138 2.89964 0
M  V30 10713 H 999.045 -2.64594 4.81944 0
M  V30 10714 H 1000.27 -3.33349 5.91655 0
M  V30 10715 H 998.216 -4.92444 4.33399 0
M  V30 10716 H 998.133 -4.56368 6.02714 0
M  V30 10717 H 999.401 -5.59226 5.43035 0
M  V30 10718 N 1003.63 -1.50653 -0.462772 0
M  V30 10719 C 1004.56 -1.64773 -1.57877 0
M  V30 10720 C 1005.54 -0.495664 -1.54861 0
M  V30 10721 O 1006.72 -0.716248 -1.74362 0
M  V30 10722 C 1003.85 -1.63796 -2.9646 0
M  V30 10723 C 1002.9 -2.84663 -3.17599 0
M  V30 10724 S 1003.73 -4.45852 -2.96608 0
M  V30 10725 C 1004.89 -4.47581 -4.37518 0
M  V30 10726 H 1005.12 -2.59172 -1.45661 0
M  V30 10727 H 1002.65 -1.40019 -0.650699 0
M  V30 10728 H 1004.61 -1.63918 -3.76353 0
M  V30 10729 H 1003.27 -0.706185 -3.06059 0
M  V30 10730 H 1002.46 -2.80308 -4.1886 0
M  V30 10731 H 1002.07 -2.82152 -2.45492 0
M  V30 10732 H 1004.36 -4.21656 -5.30295 0
M  V30 10733 H 1005.3 -5.49248 -4.46914 0
M  V30 10734 H 1005.71 -3.7719 -4.19985 0
M  V30 10735 N 1005.11 0.71652 -1.4037 0
M  V30 10736 C 1006.36 1.47638 -1.38597 0
M  V30 10737 C 1006.68 1.94496 0.0120141 0
M  V30 10738 O 1005.94 1.68437 0.996373 0
M  V30 10739 C 1006.24 2.71777 -2.32103 0
M  V30 10740 C 1005.9 2.43689 -3.79376 0
M  V30 10741 C 1004.57 2.35739 -4.195 0
M  V30 10742 C 1006.92 2.20099 -4.72447 0
M  V30 10743 C 1004.25 2.02265 -5.50732 0
M  V30 10744 C 1006.6 1.88138 -6.03976 0
M  V30 10745 C 1005.26 1.78669 -6.43143 0
M  V30 10746 H 1004.53 0.540246 -0.507163 0
M  V30 10747 H 1007.18 0.820822 -1.73017 0
M  V30 10748 H 1005.48 3.42166 -1.90865 0
M  V30 10749 H 1007.18 3.29864 -2.28015 0
M  V30 10750 H 1003.77 2.50763 -3.47585 0
M  V30 10751 H 1007.95 2.25198 -4.42266 0
M  V30 10752 H 1003.21 1.93471 -5.79982 0
M  V30 10753 H 1007.38 1.68898 -6.75608 0
M  V30 10754 H 1005.01 1.52498 -7.44747 0
M  V30 10755 N 1006.59 1.25851 0.948643 0
M  V30 10756 C 1008 1.02802 1.22081 0
M  V30 10757 C 1008.2 -0.251461 1.99925 0
M  V30 10758 O 1007.26 -0.962592 2.33432 0
M  V30 10759 C 1008.57 2.25489 1.98936 0
M  V30 10760 C 1010.12 2.30312 2.11956 0
M  V30 10761 C 1010.59 3.52671 2.92211 0
M  V30 10762 N 1012.09 3.53103 2.99787 0
M  V30 10763 C 1012.82 4.44445 3.62294 0
M  V30 10764 N 1012.32 5.46065 4.26362 0
M  V30 10765 N 1014.11 4.32113 3.59493 0
M  V30 10766 H 1006.26 2.08042 0.428044 0
M  V30 10767 H 1008.52 0.913928 0.251872 0
M  V30 10768 H 1008.23 3.18513 1.4914 0
M  V30 10769 H 1008.1 2.2914 2.99624 0
M  V30 10770 H 1010.49 1.37808 2.60946 0
M  V30 10771 H 1010.57 2.30676 1.10554 0
M  V30 10772 H 1010.22 4.45501 2.43909 0
M  V30 10773 H 1010.15 3.49554 3.93853 0
M  V30 10774 H 1012.64 2.79597 2.54232 0
M  V30 10775 H 1012.95 6.11964 4.71932 0
M  V30 10776 H 1011.29 5.49931 4.24972 0
M  V30 10777 H 1014.49 3.51946 3.08629 0
M  V30 10778 H 1014.66 5.03493 4.0792 0
M  V30 10779 N 1008.06 -1.15214 1.07534 0
M  V30 10780 C 1008.97 -2.23636 0.708818 0
M  V30 10781 C 1009.99 -1.7172 -0.280759 0
M  V30 10782 O 1011.17 -2.01 -0.126927 0
M  V30 10783 C 1008.23 -3.46512 0.114167 0
M  V30 10784 C 1007.29 -4.13409 1.15722 0
M  V30 10785 C 1006.53 -5.30419 0.59085 0
M  V30 10786 O 1006.75 -5.67314 -0.592512 0
M  V30 10787 O 1005.68 -5.86871 1.33663 0
M  V30 10788 H 1009.51 -2.57322 1.61305 0
M  V30 10789 H 1007.09 -1.22972 0.848422 0
M  V30 10790 H 1008.98 -4.20851 -0.215091 0
M  V30 10791 H 1007.65 -3.1457 -0.763356 0
M  V30 10792 H 1006.56 -3.40984 1.53886 0
M  V30 10793 H 1007.89 -4.49435 2.00671 0
M  V30 10794 N 1009.54 -0.859717 -1.32086 0
M  V30 10795 C 1010.79 -0.461779 -1.96343 0
M  V30 10796 C 1011.1 0.988837 -1.68764 0
M  V30 10797 O 1012.31 1.49244 -2.268 0
M  V30 10798 C 1010.77 -0.77484 -3.5146 0
M  V30 10799 C 1010.37 -2.24153 -3.87891 0
M  V30 10800 C 1012.12 -0.444873 -4.22162 0
M  V30 10801 C 1010.03 -2.49754 -5.36075 0
M  V30 10802 H 1008.96 -0.168951 -0.734828 0
M  V30 10803 H 1011.61 -1.0512 -1.50406 0
M  V30 10804 H 1009.99 -0.114792 -3.95834 0
M  V30 10805 H 1011.16 -2.94378 -3.54511 0
M  V30 10806 H 1009.48 -2.53651 -3.30227 0
M  V30 10807 H 1012.07 -0.613508 -5.31169 0
M  V30 10808 H 1012.42 0.61391 -4.11749 0
M  V30 10809 H 1012.95 -1.06103 -3.83389 0
M  V30 10810 H 1009.69 -3.54276 -5.51515 0
M  V30 10811 H 1009.21 -1.84112 -5.70844 0
M  V30 10812 H 1010.89 -2.3396 -6.03218 0
M  V30 10813 N 1011.02 1.44971 -0.618145 0
M  V30 10814 C 1012.44 1.57077 -0.282666 0
M  V30 10815 C 1012.64 1.60782 1.21456 0
M  V30 10816 O 1011.69 1.54382 1.99806 0
M  V30 10817 C 1013.01 2.84858 -0.963148 0
M  V30 10818 C 1014.55 2.9855 -0.940062 0
M  V30 10819 C 1015.03 4.29115 -1.60076 0
M  V30 10820 N 1016.52 4.35899 -1.56674 0
M  V30 10821 C 1017.25 5.35617 -2.04701 0
M  V30 10822 N 1016.75 6.41813 -2.6086 0
M  V30 10823 N 1018.54 5.27042 -1.95406 0
M  V30 10824 H 1010.69 1.4081 -1.59017 0
M  V30 10825 H 1012.96 0.673914 -0.666741 0
M  V30 10826 H 1012.66 2.88059 -2.0178 0
M  V30 10827 H 1012.54 3.73966 -0.492901 0
M  V30 10828 H 1014.92 2.94909 0.10607 0
M  V30 10829 H 1015.01 2.10825 -1.44868 0
M  V30 10830 H 1014.65 4.33514 -2.64627 0
M  V30 10831 H 1014.58 5.15675 -1.06708 0
M  V30 10832 H 1017.07 3.59766 -1.15659 0
M  V30 10833 H 1017.38 7.14166 -2.95273 0
M  V30 10834 H 1015.73 6.42534 -2.64905 0
M  V30 10835 H 1018.92 4.42987 -1.51263 0
M  V30 10836 H 1019.09 6.04604 -2.33147 0
M  V30 10837 N 1012.5 0.357919 1.53482 0
M  V30 10838 C 1013.91 -0.122938 1.86295 0
M  V30 10839 C 1014.26 -1.48803 1.27875 0
M  V30 10840 O 1013.39 -2.07978 0.597828 0
M  V30 10841 C 1013.98 -0.229853 3.38019 0
M  V30 10842 C 1012.54 -0.654955 3.70658 0
M  V30 10843 C 1011.69 0.202539 2.76559 0
M  V30 10844 H 1014.64 0.576997 1.47839 0
M  V30 10845 H 1014.66 -1.05481 3.65587 0
M  V30 10846 H 1014.17 0.763825 3.80509 0
M  V30 10847 H 1012.27 -1.65714 3.33721 0
M  V30 10848 H 1012.38 -0.43488 4.77122 0
M  V30 10849 H 1010.75 -0.327388 2.52587 0
M  V30 10850 H 1011.53 1.19361 3.21882 0
M  V30 10851 N 1013.98 -1.5736 0.0868897 0
M  V30 10852 C 1014.92 -2.14793 -0.892571 0
M  V30 10853 C 1015.92 -1.08866 -1.29787 0
M  V30 10854 O 1017.12 -1.27223 -1.27335 0
M  V30 10855 H 1013.5 -0.686998 -0.305838 0
M  V30 10856 H 1015.47 -2.95927 -0.383393 0
M  V30 10857 C 1014.22 -2.73646 -2.14507 0
M  V30 10858 H 1013.54 -3.54835 -1.84207 0
M  V30 10859 H 1014.98 -3.17409 -2.81118 0
M  V30 10860 C 1013.44 -1.69138 -2.91366 0
M  V30 10861 O 1013.97 -1.12539 -3.85614 0
M  V30 10862 N 1012.18 -1.3982 -2.54752 0
M  V30 10863 H 1011.72 -1.86035 -1.78182 0
M  V30 10864 H 1011.68 -0.701316 -3.06478 0
M  V30 10865 N 1015.45 0.186762 -1.56489 0
M  V30 10866 C 1016.68 0.925916 -1.85584 0
M  V30 10867 C 1017.1 1.75708 -0.671446 0
M  V30 10868 O 1016.46 1.7728 0.379687 0
M  V30 10869 C 1016.51 1.79107 -3.12975 0
M  V30 10870 O 1015.61 2.89088 -2.94112 0
M  V30 10871 H 1014.96 0.260275 -0.610863 0
M  V30 10872 H 1017.49 0.189561 -2.0372 0
M  V30 10873 H 1017.5 2.19408 -3.43983 0
M  V30 10874 H 1016.17 1.18044 -3.98796 0
M  V30 10875 H 1014.75 2.52482 -2.74422 0
M  V30 10876 N 1016.93 1.50896 0.454776 0
M  V30 10877 C 1018.16 1.6648 1.22849 0
M  V30 10878 C 1018.58 0.354841 1.85435 0
M  V30 10879 O 1017.93 -0.664931 1.69956 0
M  V30 10880 C 1017.98 2.76787 2.32532 0
M  V30 10881 O 1017.7 4.02706 1.72509 0
M  V30 10882 C 1019.21 3.03488 3.23125 0
M  V30 10883 H 1016.43 0.559152 0.370932 0
M  V30 10884 H 1018.97 1.97215 0.540983 0
M  V30 10885 H 1017.12 2.48701 2.9703 0
M  V30 10886 H 1017.54 4.63834 2.44863 0
M  V30 10887 H 1019.01 3.84294 3.9626 0
M  V30 10888 H 1019.49 2.152 3.82865 0
M  V30 10889 H 1020.1 3.33167 2.64347 0
M  V30 10890 N 1018.41 -0.709066 1.40748 0
M  V30 10891 C 1019.66 -1.47119 1.39585 0
M  V30 10892 C 1019.99 -1.942 0.000245323 0
M  V30 10893 O 1019.26 -1.68609 -0.969593 0
M  V30 10894 C 1019.55 -2.69266 2.39099 0
M  V30 10895 C 1019.4 -2.28037 3.8771 0
M  V30 10896 C 1020.72 -3.71438 2.36055 0
M  V30 10897 H 1017.84 -0.533632 0.508336 0
M  V30 10898 H 1020.48 -0.808718 1.7193 0
M  V30 10899 H 1018.63 -3.25788 2.11647 0
M  V30 10900 H 1020.3 -1.76946 4.26014 0
M  V30 10901 H 1018.55 -1.59966 4.03229 0
M  V30 10902 H 1019.22 -3.15621 4.52866 0
M  V30 10903 H 1021.69 -3.24559 2.60385 0
M  V30 10904 H 1020.57 -4.54532 3.07721 0
M  V30 10905 H 1020.83 -4.20193 1.37443 0
M  V30 10906 N 1019.89 -1.26353 -0.941956 0
M  V30 10907 C 1020.82 -1.03634 -2.04432 0
M  V30 10908 C 1021.83 0.00295864 -1.628 0
M  V30 10909 O 1023.02 -0.237029 -1.76919 0
M  V30 10910 C 1020.12 -0.547231 -3.34453 0
M  V30 10911 C 1019.3 -1.65559 -4.04857 0
M  V30 10912 C 1018.36 -1.16466 -5.13149 0
M  V30 10913 O 1017.38 -1.86158 -5.37898 0
M  V30 10914 N 1018.58 -0.0126703 -5.80499 0
M  V30 10915 H 1021.35 -1.98558 -2.24488 0
M  V30 10916 H 1018.91 -1.17728 -1.11138 0
M  V30 10917 H 1020.9 -0.203004 -4.04191 0
M  V30 10918 H 1019.47 0.308401 -3.11075 0
M  V30 10919 H 1018.69 -2.17079 -3.29044 0
M  V30 10920 H 1019.98 -2.39985 -4.48647 0
M  V30 10921 H 1019.38 0.569358 -5.62828 0
M  V30 10922 H 1017.93 0.272486 -6.5123 0
M  V30 10923 N 1021.37 1.14642 -1.08144 0
M  V30 10924 C 1022.61 1.86115 -0.820533 0
M  V30 10925 C 1022.97 1.81208 0.646635 0
M  V30 10926 O 1022.26 1.22997 1.46909 0
M  V30 10927 C 1022.46 3.33953 -1.2732 0
M  V30 10928 C 1022.28 3.53254 -2.78283 0
M  V30 10929 C 1021.05 3.68259 -3.45996 0
M  V30 10930 C 1023.25 3.504 -3.76463 0
M  V30 10931 N 1021.23 3.75692 -4.85519 0
M  V30 10932 C 1022.61 3.64045 -5.01868 0
M  V30 10933 C 1024.66 3.33722 -3.69505 0
M  V30 10934 C 1023.36 3.62734 -6.21141 0
M  V30 10935 C 1025.39 3.33713 -4.88251 0
M  V30 10936 C 1024.75 3.47896 -6.12493 0
M  V30 10937 H 1020.85 0.697829 -0.352929 0
M  V30 10938 H 1023.43 1.3742 -1.37927 0
M  V30 10939 H 1021.61 3.81245 -0.742066 0
M  V30 10940 H 1023.34 3.93174 -0.958991 0
M  V30 10941 H 1020.09 3.69376 -2.96409 0
M  V30 10942 H 1020.52 3.83133 -5.58156 0
M  V30 10943 H 1025.16 3.2167 -2.74387 0
M  V30 10944 H 1022.88 3.73563 -7.16573 0
M  V30 10945 H 1026.46 3.22025 -4.84553 0
M  V30 10946 H 1025.34 3.47833 -7.02838 0
M  V30 10947 N 1022.85 0.866709 1.31628 0
M  V30 10948 C 1023.76 0.323408 2.3236 0
M  V30 10949 C 1024.77 -0.564995 1.64572 0
M  V30 10950 O 1025.95 -0.462489 1.96018 0
M  V30 10951 C 1023.01 -0.469045 3.43513 0
M  V30 10952 C 1022.07 0.446928 4.26967 0
M  V30 10953 C 1021.31 -0.307799 5.32812 0
M  V30 10954 O 1021.53 -1.5363 5.49321 0
M  V30 10955 O 1020.46 0.332653 6.0098 0
M  V30 10956 H 1024.29 1.15827 2.80745 0
M  V30 10957 H 1021.87 0.629987 1.35468 0
M  V30 10958 H 1023.76 -0.918405 4.1127 0
M  V30 10959 H 1022.43 -1.28051 2.97296 0
M  V30 10960 H 1021.34 0.944719 3.61975 0
M  V30 10961 H 1022.67 1.2239 4.76741 0
M  V30 10962 N 1024.32 -1.44642 0.625825 0
M  V30 10963 C 1025.23 -2.34451 -0.0836134 0
M  V30 10964 C 1026.25 -1.5231 -0.841289 0
M  V30 10965 O 1027.43 -1.85056 -0.794754 0
M  V30 10966 C 1024.49 -3.30211 -1.05648 0
M  V30 10967 C 1023.55 -4.28259 -0.298759 0
M  V30 10968 C 1022.78 -5.19444 -1.22528 0
M  V30 10969 O 1023.01 -5.14444 -2.46382 0
M  V30 10970 O 1021.94 -5.97668 -0.71247 0
M  V30 10971 H 1025.77 -2.96555 0.654912 0
M  V30 10972 H 1023.35 -1.44327 0.386029 0
M  V30 10973 H 1025.23 -3.8917 -1.61632 0
M  V30 10974 H 1023.91 -2.70648 -1.77571 0
M  V30 10975 H 1022.82 -3.72863 0.304001 0
M  V30 10976 H 1024.15 -4.90728 0.380345 0
M  V30 10977 N 1025.8 -0.366053 -1.5329 0
M  V30 10978 C 1027.05 0.223824 -2.01561 0
M  V30 10979 C 1027.38 1.48382 -1.25286 0
M  V30 10980 O 1026.66 1.91385 -0.34669 0
M  V30 10981 C 1026.94 0.5153 -3.56394 0
M  V30 10982 C 1026.79 -0.758357 -4.43361 0
M  V30 10983 C 1028.11 1.31568 -4.19974 0
M  V30 10984 H 1025.23 0.0798751 -0.732659 0
M  V30 10985 H 1027.87 -0.491038 -1.83545 0
M  V30 10986 H 1026.02 1.12429 -3.71876 0
M  V30 10987 H 1027.69 -1.39584 -4.39675 0
M  V30 10988 H 1025.94 -1.37862 -4.11311 0
M  V30 10989 H 1026.61 -0.509366 -5.49645 0
M  V30 10990 H 1029.08 0.800514 -4.08327 0
M  V30 10991 H 1027.96 1.48837 -5.28336 0
M  V30 10992 H 1028.22 2.32432 -3.76069 0
M  V30 10993 N 1027.28 1.57312 -0.0952337 0
M  V30 10994 C 1028.52 1.96239 0.571813 0
M  V30 10995 C 1028.88 0.97602 1.65342 0
M  V30 10996 O 1030.08 1.25379 2.37768 0
M  V30 10997 C 1028.36 3.39644 1.1125 0
M  V30 10998 S 1029.91 4.00568 1.7914 0
M  V30 10999 H 1026.73 0.686081 0.186585 0
M  V30 11000 H 1029.33 1.94718 -0.174669 0
M  V30 11001 H 1028.04 4.09199 0.313796 0
M  V30 11002 H 1027.57 3.44762 1.89481 0
M  V30 11003 H 1029.58 3.89383 3.07563 0
M  V30 11004 N 1028.76 -0.17846 1.56586 0
M  V30 11005 C 1030.17 -0.529957 1.50544 0
M  V30 11006 C 1030.37 -1.85015 0.798237 0
M  V30 11007 O 1029.43 -2.49983 0.355639 0
M  V30 11008 C 1030.74 -0.569314 2.95261 0
M  V30 11009 C 1032.29 -0.657008 3.06027 0
M  V30 11010 C 1032.77 -0.727323 4.52188 0
M  V30 11011 N 1034.26 -0.790406 4.56406 0
M  V30 11012 C 1034.99 -0.865265 5.66834 0
M  V30 11013 N 1034.49 -0.901398 6.86911 0
M  V30 11014 N 1036.28 -0.903736 5.54787 0
M  V30 11015 H 1028.43 0.687304 2.00972 0
M  V30 11016 H 1030.69 0.246936 0.915274 0
M  V30 11017 H 1030.4 0.331934 3.5013 0
M  V30 11018 H 1030.27 -1.41828 3.4952 0
M  V30 11019 H 1032.66 -1.54868 2.51197 0
M  V30 11020 H 1032.74 0.218495 2.54865 0
M  V30 11021 H 1032.39 0.160067 5.07648 0
M  V30 11022 H 1032.32 -1.61887 5.01099 0
M  V30 11023 H 1034.81 -0.771054 3.6995 0
M  V30 11024 H 1035.12 -0.959494 7.6682 0
M  V30 11025 H 1033.47 -0.869795 6.89536 0
M  V30 11026 H 1036.66 -0.872459 4.59898 0
M  V30 11027 H 1036.83 -0.958615 6.4087 0
M  V30 11028 N 1030.24 -1.51135 -0.446768 0
M  V30 11029 C 1031.65 -1.55919 -1.02694 0
M  V30 11030 C 1032 -0.377038 -1.92543 0
M  V30 11031 O 1031.12 0.507295 -2.1037 0
M  V30 11032 C 1031.72 -2.8257 -1.86922 0
M  V30 11033 C 1030.28 -2.89956 -2.40005 0
M  V30 11034 C 1029.42 -2.50482 -1.18971 0
M  V30 11035 H 1032.37 -1.57048 -0.228403 0
M  V30 11036 H 1032.4 -2.65799 -2.7227 0
M  V30 11037 H 1031.91 -3.6859 -1.21502 0
M  V30 11038 H 1030.01 -2.08343 -3.08907 0
M  V30 11039 H 1030.12 -3.93399 -2.73448 0
M  V30 11040 H 1028.49 -2.03466 -1.53211 0
M  V30 11041 H 1029.27 -3.38837 -0.551762 0
M  V30 11042 N 1031.71 0.701592 -1.41122 0
M  V30 11043 C 1032.96 1.46245 -1.41364 0
M  V30 11044 C 1033.31 1.9239 -0.0200662 0
M  V30 11045 O 1032.61 1.6622 0.952971 0
M  V30 11046 C 1032.8 2.693 -2.34973 0
M  V30 11047 C 1032.63 2.35193 -3.83294 0
M  V30 11048 C 1031.4 2.2585 -4.52018 0
M  V30 11049 C 1033.6 1.98555 -4.74426 0
M  V30 11050 N 1031.58 1.84565 -5.85499 0
M  V30 11051 C 1032.95 1.67981 -5.9681 0
M  V30 11052 C 1035.01 1.85313 -4.62129 0
M  V30 11053 C 1033.71 1.25496 -7.08268 0
M  V30 11054 C 1035.74 1.44232 -5.73543 0
M  V30 11055 C 1035.1 1.14564 -6.95021 0
M  V30 11056 H 1031.2 0.532679 -0.572518 0
M  V30 11057 H 1033.78 0.812296 -1.76946 0
M  V30 11058 H 1031.95 3.32045 -2.01496 0
M  V30 11059 H 1033.68 3.35734 -2.25976 0
M  V30 11060 H 1030.44 2.4405 -4.05878 0
M  V30 11061 H 1030.86 1.66421 -6.56226 0
M  V30 11062 H 1035.5 2.06905 -3.68714 0
M  V30 11063 H 1033.22 1.02647 -8.01554 0
M  V30 11064 H 1036.81 1.34544 -5.66029 0
M  V30 11065 H 1035.69 0.832556 -7.79768 0
M  V30 11066 N 1033.19 1.2685 0.935242 0
M  V30 11067 C 1034.44 1.12912 1.6846 0
M  V30 11068 C 1034.77 -0.325708 1.91449 0
M  V30 11069 O 1034.05 -1.23884 1.49944 0
M  V30 11070 C 1034.33 1.90513 3.05576 0
M  V30 11071 C 1034.18 3.43936 2.89876 0
M  V30 11072 C 1035.5 1.70363 4.05789 0
M  V30 11073 H 1032.62 0.411559 0.611382 0
M  V30 11074 H 1035.26 1.55917 1.08582 0
M  V30 11075 H 1033.41 1.53963 3.5669 0
M  V30 11076 H 1035.08 3.90272 2.45939 0
M  V30 11077 H 1033.33 3.70659 2.25376 0
M  V30 11078 H 1034 3.93467 3.87153 0
M  V30 11079 H 1036.47 2.02217 3.63659 0
M  V30 11080 H 1035.35 2.27066 4.99732 0
M  V30 11081 H 1035.61 0.649674 4.373 0
M  V30 11082 N 1034.67 -1.14067 1.0875 0
M  V30 11083 C 1035.9 -1.89582 0.841038 0
M  V30 11084 C 1036.32 -1.78226 -0.601436 0
M  V30 11085 O 1035.68 -1.12491 -1.42181 0
M  V30 11086 C 1035.73 -3.37415 1.27213 0
M  V30 11087 O 1034.83 -4.10191 0.426246 0
M  V30 11088 H 1034.17 -0.589716 0.305173 0
M  V30 11089 H 1036.7 -1.44364 1.44984 0
M  V30 11090 H 1036.71 -3.88234 1.25451 0
M  V30 11091 H 1035.39 -3.44999 2.32268 0
M  V30 11092 H 1033.96 -3.69429 0.507585 0
M  V30 11093 N 1036.15 -0.873678 -1.31166 0
M  V30 11094 C 1037.4 -0.485497 -1.96182 0
M  V30 11095 C 1037.72 0.96621 -1.69379 0
M  V30 11096 O 1036.99 1.67783 -1.01121 0
M  V30 11097 H 1035.57 -0.176547 -0.725838 0
M  V30 11098 H 1038.23 -1.11428 -1.59906 0
M  V30 11099 H 1037.33 -0.646325 -3.05334 0
M  V30 11100 N 1037.63 1.44308 -0.633487 0
M  V30 11101 C 1038.58 2.27814 0.0919619 0
M  V30 11102 C 1039.56 1.38798 0.813882 0
M  V30 11103 O 1040.75 1.62587 0.699601 0
M  V30 11104 C 1037.88 3.26158 1.07125 0
M  V30 11105 C 1036.97 4.22663 0.348831 0
M  V30 11106 N 1037.36 5.01938 -0.623854 0
M  V30 11107 C 1035.66 4.42041 0.592958 0
M  V30 11108 C 1036.36 5.72129 -1.05088 0
M  V30 11109 N 1035.33 5.42205 -0.389183 0
M  V30 11110 H 1039.14 2.86515 -0.654721 0
M  V30 11111 H 1036.65 1.55773 -0.459178 0
M  V30 11112 H 1038.65 3.84742 1.60559 0
M  V30 11113 H 1037.31 2.69019 1.81821 0
M  V30 11114 H 1038.32 5.08119 -1.00176 0
M  V30 11115 H 1034.99 3.95997 1.32261 0
M  V30 11116 H 1036.38 6.45797 -1.85461 0
M  V30 11117 N 1039.1 0.374177 1.53094 0
M  V30 11118 C 1040.52 0.0234783 1.59583 0
M  V30 11119 C 1040.72 -1.45984 1.38892 0
M  V30 11120 O 1039.78 -2.22251 1.19836 0
M  V30 11121 C 1041.09 0.487117 2.96728 0
M  V30 11122 C 1042.64 0.442073 3.09862 0
M  V30 11123 C 1043.11 0.881659 4.49434 0
M  V30 11124 N 1044.6 0.837062 4.55574 0
M  V30 11125 C 1045.34 1.14878 5.61774 0
M  V30 11126 N 1044.83 1.53022 6.75689 0
M  V30 11127 N 1046.63 1.07102 5.51802 0
M  V30 11128 H 1038.78 1.34003 1.64794 0
M  V30 11129 H 1041.04 0.548281 0.773364 0
M  V30 11130 H 1040.75 1.52252 3.17037 0
M  V30 11131 H 1040.62 -0.121772 3.77003 0
M  V30 11132 H 1043.01 -0.584216 2.89259 0
M  V30 11133 H 1043.09 1.08657 2.31576 0
M  V30 11134 H 1042.73 1.90611 4.70776 0
M  V30 11135 H 1042.66 0.214326 5.26164 0
M  V30 11136 H 1045.15 0.556173 3.73785 0
M  V30 11137 H 1045.47 1.75211 7.52676 0
M  V30 11138 H 1043.81 1.56895 6.77059 0
M  V30 11139 H 1047 0.772149 4.61688 0
M  V30 11140 H 1047.18 1.31728 6.3447 0
M  V30 11141 N 1040.58 -1.57259 0.103575 0
M  V30 11142 C 1041.53 -2.14487 -0.852295 0
M  V30 11143 C 1042.5 -1.06567 -1.27407 0
M  V30 11144 O 1043.68 -1.34398 -1.35432 0
M  V30 11145 C 1040.82 -2.73632 -2.10284 0
M  V30 11146 C 1039.94 -3.95811 -1.73083 0
M  V30 11147 C 1039.07 -4.43093 -2.92988 0
M  V30 11148 C 1038.11 -5.5784 -2.51953 0
M  V30 11149 N 1037.25 -5.99936 -3.64721 0
M  V30 11150 H 1042.09 -2.95849 -0.35743 0
M  V30 11151 H 1039.63 -1.46175 -0.164748 0
M  V30 11152 H 1041.58 -3.06046 -2.83534 0
M  V30 11153 H 1040.21 -1.94985 -2.57256 0
M  V30 11154 H 1039.27 -3.69656 -0.897688 0
M  V30 11155 H 1040.58 -4.79066 -1.38916 0
M  V30 11156 H 1039.73 -4.77335 -3.74481 0
M  V30 11157 H 1038.47 -3.58756 -3.30372 0
M  V30 11158 H 1037.48 -5.23217 -1.6889 0
M  V30 11159 H 1038.7 -6.43932 -2.15705 0
M  V30 11160 H 1036.65 -5.18543 -4.01807 0
M  V30 11161 H 1036.56 -6.78008 -3.34427 0
M  V30 11162 H 1037.83 -6.38812 -4.46699 0
M  V30 11163 N 1042.06 0.170153 -1.56679 0
M  V30 11164 C 1042.99 1.21285 -1.9953 0
M  V30 11165 C 1043.97 1.46104 -0.871071 0
M  V30 11166 O 1045.16 1.57419 -1.13724 0
M  V30 11167 C 1042.29 2.5515 -2.35618 0
M  V30 11168 C 1041.24 2.44898 -3.51011 0
M  V30 11169 C 1040.57 3.83263 -3.72845 0
M  V30 11170 C 1041.87 1.95271 -4.84424 0
M  V30 11171 H 1043.56 0.856646 -2.86883 0
M  V30 11172 H 1041.11 0.410634 -1.38021 0
M  V30 11173 H 1043.06 3.28299 -2.64193 0
M  V30 11174 H 1041.78 2.92561 -1.45175 0
M  V30 11175 H 1040.44 1.74203 -3.22566 0
M  V30 11176 H 1040.09 4.18069 -2.79691 0
M  V30 11177 H 1039.79 3.77272 -4.50488 0
M  V30 11178 H 1041.31 4.57996 -4.03822 0
M  V30 11179 H 1042.73 2.58195 -5.11867 0
M  V30 11180 H 1041.13 2.00225 -5.65712 0
M  V30 11181 H 1042.2 0.90709 -4.7634 0
M  V30 11182 N 1043.54 1.5137 0.438746 0
M  V30 11183 C 1044.79 1.63202 1.18524 0
M  V30 11184 C 1045.1 0.353408 1.92381 0
M  V30 11185 O 1046.31 0.351086 2.6922 0
M  V30 11186 C 1044.76 2.88218 2.15542 0
M  V30 11187 C 1044.37 4.23078 1.47339 0
M  V30 11188 C 1046.11 3.09407 2.90633 0
M  V30 11189 C 1044.02 5.39246 2.42833 0
M  V30 11190 H 1042.95 0.607864 0.446114 0
M  V30 11191 H 1045.6 1.77835 0.452421 0
M  V30 11192 H 1043.98 2.67216 2.92253 0
M  V30 11193 H 1045.16 4.54457 0.761964 0
M  V30 11194 H 1043.47 4.07755 0.844065 0
M  V30 11195 H 1046.07 3.9337 3.62165 0
M  V30 11196 H 1046.41 2.22428 3.51897 0
M  V30 11197 H 1046.95 3.30743 2.21029 0
M  V30 11198 H 1043.69 6.2848 1.8626 0
M  V30 11199 H 1043.21 5.12245 3.12034 0
M  V30 11200 H 1044.88 5.71137 3.03992 0
M  V30 11201 N 1045.02 -0.694098 1.41492 0
M  V30 11202 C 1045.98 -1.78976 1.43179 0
M  V30 11203 C 1046.98 -1.57539 0.322191 0
M  V30 11204 O 1048.17 -1.64185 0.582138 0
M  V30 11205 C 1045.3 -3.17368 1.2446 0
M  V30 11206 H 1046.49 -1.78874 2.40716 0
M  V30 11207 H 1044.05 -0.901867 1.27656 0
M  V30 11208 H 1044.78 -3.23109 0.277691 0
M  V30 11209 H 1044.57 -3.3433 2.04856 0
M  V30 11210 H 1046.06 -3.97345 1.28479 0
M  V30 11211 N 1046.49 -1.27344 -0.928501 0
M  V30 11212 C 1047.72 -1.16557 -1.7155 0
M  V30 11213 C 1048.14 0.274044 -1.86093 0
M  V30 11214 O 1047.5 1.19847 -1.36038 0
M  V30 11215 C 1047.55 -1.85332 -3.09329 0
M  V30 11216 O 1046.65 -1.15074 -3.9602 0
M  V30 11217 H 1046 -0.405423 -0.525859 0
M  V30 11218 H 1048.53 -1.68399 -1.16202 0
M  V30 11219 H 1048.54 -1.92659 -3.59648 0
M  V30 11220 H 1047.21 -2.90056 -2.98061 0
M  V30 11221 H 1045.79 -1.1581 -3.54461 0
M  V30 11222 N 1047.97 1.13488 -1.09353 0
M  V30 11223 C 1048.91 2.17951 -0.67622 0
M  V30 11224 C 1049.88 1.59482 0.316906 0
M  V30 11225 O 1051.07 1.8723 0.218459 0
M  V30 11226 C 1048.19 3.387 0.00391024 0
M  V30 11227 C 1047.24 4.15764 -0.950906 0
M  V30 11228 S 1048.07 4.75517 -2.46259 0
M  V30 11229 C 1049.23 5.99613 -1.79485 0
M  V30 11230 H 1049.46 2.53012 -1.56115 0
M  V30 11231 H 1047 1.24773 -0.909447 0
M  V30 11232 H 1048.95 4.08643 0.39002 0
M  V30 11233 H 1047.61 3.01941 0.86548 0
M  V30 11234 H 1046.81 5.02229 -0.422086 0
M  V30 11235 H 1046.41 3.51473 -1.27838 0
M  V30 11236 H 1048.7 6.68204 -1.11846 0
M  V30 11237 H 1049.64 6.57102 -2.63862 0
M  V30 11238 H 1050.05 5.50165 -1.26409 0
M  V30 11239 N 1049.45 0.880621 1.30701 0
M  V30 11240 C 1050.68 0.510909 2.01009 0
M  V30 11241 C 1051.1 -0.892041 1.65603 0
M  V30 11242 O 1050.46 -1.59045 0.870309 0
M  V30 11243 C 1050.51 0.687759 3.53981 0
M  V30 11244 O 1049.61 -0.268275 4.11526 0
M  V30 11245 H 1048.95 0.201864 0.632572 0
M  V30 11246 H 1051.48 1.18697 1.6665 0
M  V30 11247 H 1051.49 0.585095 4.03783 0
M  V30 11248 H 1050.17 1.71068 3.79089 0
M  V30 11249 H 1048.74 -0.119673 3.72708 0
M  V30 11250 N 1050.93 -1.4397 0.641131 0
M  V30 11251 C 1052.15 -2.06818 0.155318 0
M  V30 11252 C 1052.58 -1.47665 -1.16519 0
M  V30 11253 O 1051.94 -0.58192 -1.71707 0
M  V30 11254 C 1051.99 -3.60542 0.0647537 0
M  V30 11255 O 1051.09 -4.00674 -0.976447 0
M  V30 11256 H 1050.43 -0.657962 0.0893404 0
M  V30 11257 H 1052.96 -1.84678 0.88064 0
M  V30 11258 H 1052.97 -4.07816 -0.122552 0
M  V30 11259 H 1051.65 -4.02975 1.02878 0
M  V30 11260 H 1050.22 -3.65013 -0.762905 0
M  V30 11261 N 1052.41 -0.382291 -1.52893 0
M  V30 11262 C 1053.68 0.259354 -1.93873 0
M  V30 11263 C 1054.06 1.64964 -1.3172 0
M  V30 11264 O 1053.41 2.23345 -0.482611 0
M  V30 11265 C 1053.62 0.292765 -3.4777 0
M  V30 11266 C 1054.97 0.525095 -4.21341 0
M  V30 11267 O 1055.99 0.373272 -3.54239 0
M  V30 11268 O 1054.85 0.822004 -5.40283 0
M  V30 11269 H 1051.95 0.159422 -0.811489 0
M  V30 11270 H 1054.49 -0.436289 -1.63996 0
M  V30 11271 H 1053.27 -0.681341 -3.85323 0
M  V30 11272 H 1052.89 1.03362 -3.8393 0
M  V30 11273 N 1053.89 1.57202 -0.111913 0
M  V30 11274 C 1055.11 1.99723 0.559054 0
M  V30 11275 C 1055.54 0.990968 1.59879 0
M  V30 11276 O 1054.89 -0.038311 1.8126 0
M  V30 11277 C 1054.94 3.41151 1.16826 0
M  V30 11278 O 1054.05 3.43383 2.2839 0
M  V30 11279 H 1053.39 0.649004 0.140319 0
M  V30 11280 H 1055.92 2.03637 -0.198295 0
M  V30 11281 H 1055.93 3.79208 1.50551 0
M  V30 11282 H 1054.6 4.13907 0.406637 0
M  V30 11283 H 1053.18 3.17138 1.96158 0
M  V30 11284 N 1055.36 -0.161842 1.56767 0
M  V30 11285 C 1056.29 -1.20226 2.0017 0
M  V30 11286 C 1057.27 -1.4564 0.878807 0
M  V30 11287 O 1058.46 -1.56813 1.14557 0
M  V30 11288 C 1055.59 -2.53897 2.36968 0
M  V30 11289 C 1054.54 -2.43033 3.52305 0
M  V30 11290 C 1053.87 -3.81281 3.74872 0
M  V30 11291 C 1055.17 -1.927 4.85453 0
M  V30 11292 H 1056.86 -0.84142 2.87333 0
M  V30 11293 H 1054.41 -0.403309 1.38237 0
M  V30 11294 H 1056.36 -3.26893 2.6593 0
M  V30 11295 H 1055.09 -2.91787 1.46724 0
M  V30 11296 H 1053.75 -1.7249 3.23485 0
M  V30 11297 H 1053.39 -4.1658 2.81904 0
M  V30 11298 H 1053.09 -3.74877 4.52483 0
M  V30 11299 H 1054.62 -4.55848 4.06245 0
M  V30 11300 H 1056.03 -2.55477 5.13229 0
M  V30 11301 H 1054.43 -1.97222 5.66766 0
M  V30 11302 H 1055.5 -0.881816 4.76814 0
M  V30 11303 N 1056.84 -1.516 -0.430713 0
M  V30 11304 C 1058.26 -1.39923 -0.767706 0
M  V30 11305 C 1058.46 -0.486756 -1.95532 0
M  V30 11306 O 1057.51 0.0555965 -2.52439 0
M  V30 11307 C 1058.83 -2.82074 -1.04187 0
M  V30 11308 C 1060.37 -2.9127 -1.1459 0
M  V30 11309 C 1060.85 -4.34342 -1.45295 0
M  V30 11310 N 1062.34 -4.37479 -1.52206 0
M  V30 11311 C 1063.08 -5.45219 -1.77549 0
M  V30 11312 N 1062.57 -6.6311 -2.0064 0
M  V30 11313 N 1064.36 -5.32707 -1.79386 0
M  V30 11314 H 1056.52 -2.09474 0.351351 0
M  V30 11315 H 1058.78 -0.943247 0.0948151 0
M  V30 11316 H 1058.48 -3.50868 -0.241837 0
M  V30 11317 H 1058.36 -3.21805 -1.96777 0
M  V30 11318 H 1060.75 -2.2267 -1.93655 0
M  V30 11319 H 1060.83 -2.55026 -0.198854 0
M  V30 11320 H 1060.47 -5.03494 -0.667559 0
M  V30 11321 H 1060.4 -4.68105 -2.41217 0
M  V30 11322 H 1062.89 -3.52488 -1.36237 0
M  V30 11323 H 1063.2 -7.41012 -2.19366 0
M  V30 11324 H 1061.55 -6.66214 -1.97948 0
M  V30 11325 H 1064.74 -4.39589 -1.60869 0
M  V30 11326 H 1064.91 -6.16752 -1.98799 0
M  V30 11327 N 1058.32 0.686584 -1.41858 0
M  V30 11328 C 1059.27 1.79271 -1.40875 0
M  V30 11329 C 1060.25 1.58413 -0.281782 0
M  V30 11330 O 1061.45 1.69093 -0.523132 0
M  V30 11331 C 1058.57 3.17647 -1.30213 0
M  V30 11332 C 1057.66 3.44168 -2.47808 0
M  V30 11333 N 1058.05 3.41339 -3.73258 0
M  V30 11334 C 1056.35 3.74755 -2.41815 0
M  V30 11335 C 1057.05 3.67016 -4.51303 0
M  V30 11336 N 1056.03 3.87203 -3.81543 0
M  V30 11337 H 1059.83 1.75459 -2.35778 0
M  V30 11338 H 1057.34 0.886946 -1.36041 0
M  V30 11339 H 1059.34 3.96896 -1.2759 0
M  V30 11340 H 1058 3.22664 -0.363021 0
M  V30 11341 H 1059.01 3.21511 -4.06018 0
M  V30 11342 H 1055.69 3.87089 -1.56423 0
M  V30 11343 H 1057.08 3.70888 -5.6026 0
M  V30 11344 N 1059.8 1.27835 0.921735 0
M  V30 11345 C 1061.04 1.14692 1.67253 0
M  V30 11346 C 1061.38 -0.305384 1.91784 0
M  V30 11347 O 1060.65 -1.22286 1.51249 0
M  V30 11348 C 1060.93 1.93743 3.03539 0
M  V30 11349 C 1060.79 3.46991 2.86212 0
M  V30 11350 C 1062.11 1.74658 4.03959 0
M  V30 11351 H 1059.23 0.418021 0.606983 0
M  V30 11352 H 1061.87 1.5706 1.06922 0
M  V30 11353 H 1060.02 1.57738 3.55037 0
M  V30 11354 H 1061.69 3.92858 2.41785 0
M  V30 11355 H 1059.93 3.73029 2.21432 0
M  V30 11356 H 1060.6 3.97551 3.82958 0
M  V30 11357 H 1063.08 2.06063 3.61493 0
M  V30 11358 H 1061.96 2.32353 4.97296 0
M  V30 11359 H 1062.22 0.696019 4.36587 0
M  V30 11360 N 1061.28 -1.12907 1.09954 0
M  V30 11361 C 1062.51 -1.87866 0.859656 0
M  V30 11362 C 1062.91 -1.79664 -0.593096 0
M  V30 11363 O 1062.26 -1.16499 -1.42034 0
M  V30 11364 C 1062.32 -3.38055 1.22308 0
M  V30 11365 C 1061.98 -3.70035 2.68185 0
M  V30 11366 C 1062.98 -3.68817 3.66428 0
M  V30 11367 C 1060.66 -3.99523 3.04444 0
M  V30 11368 C 1062.66 -3.96639 4.98955 0
M  V30 11369 C 1060.35 -4.27006 4.37161 0
M  V30 11370 C 1061.34 -4.25549 5.34225 0
M  V30 11371 O 1061.03 -4.52354 6.64553 0
M  V30 11372 H 1060.76 -0.601425 0.308649 0
M  V30 11373 H 1063.32 -1.43817 1.46649 0
M  V30 11374 H 1061.55 -3.82634 0.559322 0
M  V30 11375 H 1063.24 -3.94348 0.961479 0
M  V30 11376 H 1064 -3.46104 3.3976 0
M  V30 11377 H 1059.88 -3.99801 2.29521 0
M  V30 11378 H 1063.43 -3.95418 5.74709 0
M  V30 11379 H 1059.32 -4.49192 4.6357 0
M  V30 11380 H 1060.09 -4.69997 6.70108 0
M  V30 11381 N 1062.75 -0.88754 -1.30232 0
M  V30 11382 C 1064 -0.506277 -1.95656 0
M  V30 11383 C 1064.32 0.948191 -1.70395 0
M  V30 11384 O 1063.59 1.66701 -1.02895 0
M  V30 11385 H 1062.17 -0.184235 -0.723924 0
M  V30 11386 H 1064.83 -1.13118 -1.58715 0
M  V30 11387 H 1063.93 -0.678673 -3.04632 0
M  V30 11388 N 1064.23 1.43628 -0.648757 0
M  V30 11389 C 1065.14 2.34554 0.0463037 0
M  V30 11390 C 1066.16 1.53629 0.816952 0
M  V30 11391 O 1067.33 1.86297 0.765212 0
M  V30 11392 C 1064.4 3.3185 1.00381 0
M  V30 11393 C 1063.46 4.2868 0.230589 0
M  V30 11394 C 1062.69 5.21328 1.14249 0
M  V30 11395 O 1062.92 5.18298 2.38166 0
M  V30 11396 O 1061.85 5.98726 0.617296 0
M  V30 11397 H 1065.68 2.95475 -0.702008 0
M  V30 11398 H 1063.26 1.43694 -0.408942 0
M  V30 11399 H 1065.14 3.91692 1.5542 0
M  V30 11400 H 1063.82 2.73439 1.73243 0
M  V30 11401 H 1062.73 3.72332 -0.363282 0
M  V30 11402 H 1064.06 4.90061 -0.458368 0
M  V30 11403 N 1065.71 0.390394 1.52688 0
M  V30 11404 C 1066.64 -0.43567 2.294 0
M  V30 11405 C 1067.62 -1.06253 1.32832 0
M  V30 11406 O 1068.81 -1.07509 1.61726 0
M  V30 11407 C 1065.94 -1.56259 3.10162 0
M  V30 11408 C 1064.89 -1.06172 4.14622 0
M  V30 11409 C 1064.22 -2.2808 4.83615 0
M  V30 11410 C 1065.52 -0.128902 5.22141 0
M  V30 11411 H 1067.21 0.204384 2.98702 0
M  V30 11412 H 1064.76 0.0997377 1.43654 0
M  V30 11413 H 1066.71 -2.14732 3.62585 0
M  V30 11414 H 1065.43 -2.23025 2.38595 0
M  V30 11415 H 1064.09 -0.499518 3.63181 0
M  V30 11416 H 1063.74 -2.93358 4.08595 0
M  V30 11417 H 1063.44 -1.95227 5.5422 0
M  V30 11418 H 1064.96 -2.87193 5.38844 0
M  V30 11419 H 1066.38 -0.621849 5.69917 0
M  V30 11420 H 1064.78 0.109919 5.99999 0
M  V30 11421 H 1065.85 0.821884 4.77884 0
M  V30 11422 N 1067.19 -1.57141 0.120249 0
M  V30 11423 C 1068.47 -1.8677 -0.581075 0
M  V30 11424 C 1068.85 -1.02163 -1.84732 0
M  V30 11425 O 1068.19 -0.100897 -2.28277 0
M  V30 11426 C 1068.4 -3.37923 -0.872316 0
M  V30 11427 C 1069.75 -4.0655 -1.22483 0
M  V30 11428 O 1070.78 -3.42948 -0.962539 0
M  V30 11429 O 1069.63 -5.18821 -1.71717 0
M  V30 11430 H 1066.73 -0.773219 -0.293362 0
M  V30 11431 H 1069.27 -1.68992 0.154846 0
M  V30 11432 H 1068.05 -3.91292 0.0249416 0
M  V30 11433 H 1067.67 -3.61135 -1.66335 0
M  V30 11434 N 1068.67 0.153526 -1.5685 0
M  V30 11435 C 1069.91 0.868517 -1.83261 0
M  V30 11436 C 1070.25 1.81112 -0.700857 0
M  V30 11437 O 1069.52 1.92235 0.295989 0
M  V30 11438 C 1069.8 1.6487 -3.2014 0
M  V30 11439 C 1069.66 0.728021 -4.43869 0
M  V30 11440 C 1070.98 2.61259 -3.54163 0
M  V30 11441 H 1068.09 0.314297 -0.666623 0
M  V30 11442 H 1070.74 0.133971 -1.89527 0
M  V30 11443 H 1068.89 2.2749 -3.1493 0
M  V30 11444 H 1070.56 0.113328 -4.61161 0
M  V30 11445 H 1068.8 0.0371744 -4.33784 0
M  V30 11446 H 1069.47 1.30981 -5.36235 0
M  V30 11447 H 1071.95 2.0876 -3.59942 0
M  V30 11448 H 1070.82 3.12902 -4.50981 0
M  V30 11449 H 1071.09 3.42307 -2.79782 0
M  V30 11450 N 1070.14 1.51827 0.422667 0
M  V30 11451 C 1071.08 1.70409 1.53275 0
M  V30 11452 C 1072.09 0.584584 1.51942 0
M  V30 11453 O 1073.28 0.859349 1.56453 0
M  V30 11454 C 1070.38 1.717 2.92185 0
M  V30 11455 C 1069.55 3.00472 3.17861 0
M  V30 11456 C 1068.61 2.93755 4.36571 0
M  V30 11457 O 1067.64 3.67682 4.3451 0
M  V30 11458 N 1068.84 2.10612 5.40946 0
M  V30 11459 H 1071.6 2.66176 1.37734 0
M  V30 11460 H 1069.16 1.49895 0.611799 0
M  V30 11461 H 1071.16 1.64756 3.69645 0
M  V30 11462 H 1069.73 0.834655 3.01251 0
M  V30 11463 H 1068.95 3.21171 2.28567 0
M  V30 11464 H 1070.23 3.85684 3.31851 0
M  V30 11465 H 1069.63 1.49954 5.45463 0
M  V30 11466 H 1068.19 2.09535 6.17202 0
M  V30 11467 N 1071.62 -0.679052 1.4222 0
M  V30 11468 C 1072.87 -1.43485 1.41757 0
M  V30 11469 C 1073.18 -1.95567 0.0358698 0
M  V30 11470 O 1074.39 -2.71346 -0.0913713 0
M  V30 11471 C 1072.85 -2.59541 2.49332 0
M  V30 11472 C 1072.45 -2.14176 3.93488 0
M  V30 11473 C 1074.2 -3.37078 2.58029 0
M  V30 11474 C 1072.11 -3.27289 4.92581 0
M  V30 11475 H 1071.04 -0.539022 0.52723 0
M  V30 11476 H 1073.69 -0.735581 1.68111 0
M  V30 11477 H 1072.07 -3.31815 2.16135 0
M  V30 11478 H 1073.24 -1.49082 4.36017 0
M  V30 11479 H 1071.56 -1.49589 3.88603 0
M  V30 11480 H 1074.15 -4.21312 3.29242 0
M  V30 11481 H 1074.5 -3.83383 1.62245 0
M  V30 11482 H 1075.03 -2.7187 2.90399 0
M  V30 11483 H 1071.77 -2.8598 5.89827 0
M  V30 11484 H 1071.29 -3.91178 4.54687 0
M  V30 11485 H 1072.97 -3.9282 5.14103 0
M  V30 11486 N 1073.1 -1.28322 -0.914942 0
M  V30 11487 C 1074.03 -1.07947 -2.02188 0
M  V30 11488 C 1075.05 -0.0315743 -1.62769 0
M  V30 11489 O 1076.23 -0.274503 -1.76377 0
M  V30 11490 C 1073.33 -0.61805 -3.33217 0
M  V30 11491 C 1072.51 -1.74109 -4.01254 0
M  V30 11492 C 1071.57 -1.27325 -5.10563 0
M  V30 11493 O 1070.59 -1.97526 -5.33828 0
M  V30 11494 N 1071.79 -0.1358 -5.80341 0
M  V30 11495 H 1074.56 -2.03275 -2.20225 0
M  V30 11496 H 1072.12 -1.20059 -1.08616 0
M  V30 11497 H 1074.11 -0.288693 -4.03669 0
M  V30 11498 H 1072.68 0.242348 -3.11659 0
M  V30 11499 H 1071.9 -2.2401 -3.24366 0
M  V30 11500 H 1073.19 -2.49448 -4.43456 0
M  V30 11501 H 1072.59 0.449846 -5.63909 0
M  V30 11502 H 1071.15 0.134289 -6.51662 0
M  V30 11503 N 1074.58 1.12322 -1.10551 0
M  V30 11504 C 1075.99 1.35858 -0.837543 0
M  V30 11505 C 1076.19 1.94062 0.54241 0
M  V30 11506 O 1075.25 2.1676 1.29505 0
M  V30 11507 C 1076.56 2.299 -1.9382 0
M  V30 11508 C 1078.11 2.43488 -1.96679 0
M  V30 11509 C 1078.59 3.40846 -3.05922 0
M  V30 11510 N 1080.08 3.48404 -3.05236 0
M  V30 11511 C 1080.81 4.2365 -3.86405 0
M  V30 11512 N 1080.31 5.01951 -4.77512 0
M  V30 11513 N 1082.1 4.19068 -3.74618 0
M  V30 11514 H 1074.25 0.729002 -1.99498 0
M  V30 11515 H 1076.52 0.38339 -0.867016 0
M  V30 11516 H 1076.22 1.94309 -2.9315 0
M  V30 11517 H 1076.1 3.30033 -1.82641 0
M  V30 11518 H 1078.48 2.78359 -0.979813 0
M  V30 11519 H 1078.56 1.43239 -2.11934 0
M  V30 11520 H 1078.21 3.06704 -4.04839 0
M  V30 11521 H 1078.14 4.40927 -2.87907 0
M  V30 11522 H 1080.63 2.92545 -2.39219 0
M  V30 11523 H 1080.94 5.56707 -5.36002 0
M  V30 11524 H 1079.29 5.01143 -4.8154 0
M  V30 11525 H 1082.48 3.5698 -3.02792 0
M  V30 11526 H 1082.65 4.77455 -4.38111 0
M  V30 11527 N 1076.06 0.894434 1.2976 0
M  V30 11528 C 1077.47 0.589778 1.48303 0
M  V30 11529 C 1077.67 -0.870085 1.81746 0
M  V30 11530 O 1076.73 -1.65065 1.91076 0
M  V30 11531 C 1078.04 1.51107 2.59975 0
M  V30 11532 C 1079.59 1.51571 2.73853 0
M  V30 11533 C 1080.06 2.42316 3.88648 0
M  V30 11534 N 1081.56 2.40333 3.95973 0
M  V30 11535 C 1082.29 3.07254 4.84131 0
M  V30 11536 N 1081.79 3.83435 5.77018 0
M  V30 11537 N 1083.58 2.96438 4.77578 0
M  V30 11538 H 1075.73 1.83871 1.06327 0
M  V30 11539 H 1077.99 0.78758 0.527657 0
M  V30 11540 H 1077.7 2.55097 2.42112 0
M  V30 11541 H 1077.57 1.22767 3.56662 0
M  V30 11542 H 1079.96 0.483277 2.91116 0
M  V30 11543 H 1080.04 1.83946 1.77757 0
M  V30 11544 H 1079.69 3.4565 3.72141 0
M  V30 11545 H 1079.62 2.07252 4.84101 0
M  V30 11546 H 1082.11 1.84979 3.29532 0
M  V30 11547 H 1082.42 4.31565 6.4107 0
M  V30 11548 H 1080.76 3.87542 5.7692 0
M  V30 11549 H 1083.96 2.36442 4.03996 0
M  V30 11550 H 1084.13 3.48867 5.46073 0
M  V30 11551 N 1077.53 -1.43282 0.656365 0
M  V30 11552 C 1078.95 -1.85012 0.250475 0
M  V30 11553 C 1079.3 -1.54944 -1.20361 0
M  V30 11554 O 1078.42 -0.999983 -1.9191 0
M  V30 11555 C 1079.02 -3.35827 0.447815 0
M  V30 11556 C 1077.58 -3.76277 0.0962151 0
M  V30 11557 C 1076.72 -2.66988 0.749168 0
M  V30 11558 H 1079.67 -1.3339 0.85982 0
M  V30 11559 H 1079.69 -3.7927 -0.305726 0
M  V30 11560 H 1079.21 -3.5768 1.5062 0
M  V30 11561 H 1077.31 -3.60035 -0.959449 0
M  V30 11562 H 1077.42 -4.76227 0.523875 0
M  V30 11563 H 1075.78 -2.54048 0.18212 0
M  V30 11564 H 1076.57 -2.91669 1.81064 0
M  V30 11565 N 1079.01 -0.398486 -1.52479 0
M  V30 11566 C 1080.24 0.183059 -2.06591 0
M  V30 11567 C 1080.66 1.3898 -1.26753 0
M  V30 11568 O 1080.02 1.78885 -0.294959 0
M  V30 11569 C 1080.07 0.522392 -3.56796 0
M  V30 11570 O 1079.17 1.61499 -3.79462 0
M  V30 11571 H 1078.51 0.0188411 -0.663733 0
M  V30 11572 H 1081.04 -0.56861 -1.9654 0
M  V30 11573 H 1081.05 0.784078 -4.00395 0
M  V30 11574 H 1079.73 -0.359807 -4.14341 0
M  V30 11575 H 1078.31 1.3463 -3.47749 0
M  V30 11576 N 1080.49 1.57075 -0.12858 0
M  V30 11577 C 1081.42 2.11553 0.855593 0
M  V30 11578 C 1082.4 1.03435 1.25459 0
M  V30 11579 O 1083.59 1.3115 1.35395 0
M  V30 11580 C 1080.71 2.62012 2.14633 0
M  V30 11581 C 1079.76 3.82105 1.89467 0
M  V30 11582 S 1080.59 5.24033 1.10228 0
M  V30 11583 C 1081.75 5.77867 2.4046 0
M  V30 11584 H 1081.98 2.94701 0.392248 0
M  V30 11585 H 1079.51 1.54164 0.0853746 0
M  V30 11586 H 1081.47 2.91737 2.8879 0
M  V30 11587 H 1080.13 1.79029 2.58084 0
M  V30 11588 H 1079.33 4.15592 2.8513 0
M  V30 11589 H 1078.93 3.53047 1.23427 0
M  V30 11590 H 1081.22 5.88175 3.36238 0
M  V30 11591 H 1082.16 6.75775 2.11504 0
M  V30 11592 H 1082.57 5.05991 2.50266 0
M  V30 11593 O 1082.01 -0.0105399 1.61497 0
M  V30 11594 H 1082.7 -0.628636 1.83215 0
M  V30 END ATOM
M  V30 BEGIN BOND
M  V30 END BOND
M  V30 END CTAB
M  END
$$$$
