drugbank_drug|DB09105  Asfotase Alfa Sequence
 OpenBabel12092119133D

  0  0  0     0  0            999 V3000
M  V30 BEGIN CTAB
M  V30 COUNTS 11164 11303 0 0 0
M  V30 BEGIN ATOM
M  V30 1 H -0.908 1.98254 -0.117106 0
M  V30 2 N 0 1.576 0 0
M  V30 3 C 0.93 2.11458 0.990341 0
M  V30 4 C 1.911 1.02372 1.35845 0
M  V30 5 O 3.096 1.30055 1.4422 0
M  V30 6 C 0.226 2.61788 2.2822 0
M  V30 7 C -0.82 3.754 2.0557 0
M  V30 8 C -1.494 4.12045 3.40769 0
M  V30 9 C -0.194 5.02675 1.41829 0
M  V30 10 H 1.5 2.94455 0.541905 0
M  V30 11 H -0.954 1.41648 0.259219 0
M  V30 12 H 0.999 2.98093 2.97856 0
M  V30 13 H -0.277 1.75913 2.75177 0
M  V30 14 H -1.618 3.39488 1.38359 0
M  V30 15 H -1.97 3.23193 3.85429 0
M  V30 16 H -2.27 4.88587 3.26429 0
M  V30 17 H -0.746 4.50909 4.1172 0
M  V30 18 H 0.668 5.36751 2.01422 0
M  V30 19 H -0.935 5.84022 1.37978 0
M  V30 20 H 0.135 4.83349 0.387506 0
M  V30 21 N 1.4781 -0.272755 1.55222 0
M  V30 22 C 2.7241 -1.00581 1.761 0
M  V30 23 C 3.0571 -1.85932 0.560625 0
M  V30 24 O 2.3321 -1.89416 -0.441801 0
M  V30 25 C 2.6151 -1.88816 3.06628 0
M  V30 26 C 2.4681 -1.06457 4.37021 0
M  V30 27 C 3.7871 -2.8752 3.33197 0
M  V30 28 H 0.9061 -0.364244 0.640699 0
M  V30 29 H 3.5481 -0.278189 1.87952 0
M  V30 30 H 1.6981 -2.50856 2.96654 0
M  V30 31 H 3.3701 -0.464863 4.58952 0
M  V30 32 H 1.6131 -0.368043 4.32236 0
M  V30 33 H 2.2841 -1.71514 5.24678 0
M  V30 34 H 4.7601 -2.35615 3.42965 0
M  V30 35 H 3.6361 -3.46399 4.25792 0
M  V30 36 H 3.8971 -3.62657 2.52849 0
M  V30 37 N 2.9562 -1.48159 -0.537278 0
M  V30 38 C 4.3672 -1.49429 -1.11928 0
M  V30 39 C 4.7182 -0.26 -1.9447 0
M  V30 40 O 3.8432 0.633489 -2.0692 0
M  V30 41 C 4.4382 -2.70758 -2.03656 0
M  V30 42 C 2.9972 -2.74923 -2.57088 0
M  V30 43 C 2.1442 -2.42835 -1.3389 0
M  V30 44 H 5.0952 -1.55381 -0.322886 0
M  V30 45 H 5.1162 -2.48861 -2.87834 0
M  V30 46 H 4.6282 -3.60575 -1.43553 0
M  V30 47 H 2.7292 -1.89296 -3.20933 0
M  V30 48 H 2.8422 -3.76157 -2.9672 0
M  V30 49 H 1.2062 -1.93836 -1.65226 0
M  V30 50 H 1.9892 -3.34884 -0.755504 0
M  V30 51 N 4.4343 0.785586 -1.36625 0
M  V30 52 C 5.3443 1.92964 -1.33425 0
M  V30 53 C 6.3603 1.72394 -0.235851 0
M  V30 54 O 7.5363 1.95866 -0.468878 0
M  V30 55 C 4.6013 3.27884 -1.12662 0
M  V30 56 C 3.6623 3.61204 -2.32013 0
M  V30 57 C 2.8953 4.89687 -2.12231 0
M  V30 58 O 3.1183 5.59704 -1.09945 0
M  V30 59 O 2.0523 5.21752 -3.00098 0
M  V30 60 H 5.8783 1.98613 -2.29753 0
M  V30 61 H 3.4633 0.926384 -1.17211 0
M  V30 62 H 5.3453 4.08614 -1.03016 0
M  V30 63 H 4.0203 3.23118 -0.193991 0
M  V30 64 H 2.9273 2.80765 -2.47228 0
M  V30 65 H 4.2603 3.70698 -3.23796 0
M  V30 66 N 5.9124 1.20967 1.01018 0
M  V30 67 C 6.8594 0.964281 2.09691 0
M  V30 68 C 7.8294 -0.107853 1.65749 0
M  V30 69 O 9.0144 0.0381987 1.90762 0
M  V30 70 C 6.1544 0.52943 3.41015 0
M  V30 71 C 5.2674 1.67043 3.98398 0
M  V30 72 C 4.4024 1.18525 5.17808 0
M  V30 73 C 3.4414 2.29892 5.67288 0
M  V30 74 N 2.5784 1.82546 6.77954 0
M  V30 75 H 7.4184 1.89463 2.30017 0
M  V30 76 H 4.9554 0.944289 1.1279 0
M  V30 77 H 6.9134 0.258588 4.16398 0
M  V30 78 H 5.5434 -0.363919 3.20742 0
M  V30 79 H 4.5954 2.05603 3.20049 0
M  V30 80 H 5.9074 2.50877 4.31117 0
M  V30 81 H 5.0614 0.870762 6.00419 0
M  V30 82 H 3.8004 0.316887 4.86669 0
M  V30 83 H 2.8054 2.6215 4.83278 0
M  V30 84 H 4.0304 3.17216 6.00459 0
M  V30 85 H 1.9764 0.980454 6.48632 0
M  V30 86 H 1.8934 2.59956 7.09901 0
M  V30 87 H 3.1614 1.54115 7.64113 0
M  V30 88 N 7.3905 -1.2043 1.01659 0
M  V30 89 C 8.3005 -2.2689 0.596484 0
M  V30 90 C 9.3165 -1.70107 -0.36599 0
M  V30 91 O 10.4925 -2.00117 -0.226942 0
M  V30 92 C 7.5575 -3.4665 -0.0586659 0
M  V30 93 C 6.6185 -4.18662 0.949751 0
M  V30 94 C 5.8515 -5.32705 0.32577 0
M  V30 95 O 6.0745 -5.63656 -0.874509 0
M  V30 96 O 5.0085 -5.92803 1.04249 0
M  V30 97 H 8.8345 -2.65041 1.4828 0
M  V30 98 H 6.4195 -1.27048 0.786082 0
M  V30 99 H 8.3015 -4.19256 -0.424564 0
M  V30 100 H 6.9765 -3.10375 -0.91918 0
M  V30 101 H 5.8835 -3.48229 1.36702 0
M  V30 102 H 7.2165 -4.58878 1.78023 0
M  V30 103 N 8.8686 -0.792821 -1.36206 0
M  V30 104 C 9.8156 -0.191653 -2.30003 0
M  V30 105 C 10.7856 0.666453 -1.52143 0
M  V30 106 O 11.9706 0.61442 -1.80636 0
M  V30 107 C 9.1106 0.664848 -3.38635 0
M  V30 108 C 8.2236 -0.212175 -4.31479 0
M  V30 109 C 7.3586 0.651022 -5.27196 0
M  V30 110 C 6.3976 -0.227247 -6.11678 0
M  V30 111 N 5.5346 0.595127 -6.99573 0
M  V30 112 H 10.3746 -0.996978 -2.80828 0
M  V30 113 H 7.9116 -0.503206 -1.38225 0
M  V30 114 H 9.8696 1.17645 -4.00269 0
M  V30 115 H 8.4996 1.43557 -2.89122 0
M  V30 116 H 7.5516 -0.841777 -3.70969 0
M  V30 117 H 8.8636 -0.888751 -4.90818 0
M  V30 118 H 8.0176 1.2283 -5.94136 0
M  V30 119 H 6.7566 1.36121 -4.68319 0
M  V30 120 H 5.7616 -0.816904 -5.43697 0
M  V30 121 H 6.9866 -0.93509 -6.72631 0
M  V30 122 H 4.9326 1.28955 -6.432 0
M  V30 123 H 4.8496 -0.0236952 -7.55996 0
M  V30 124 H 6.1176 1.15613 -7.70879 0
M  V30 125 N 10.3467 1.47872 -0.545128 0
M  V30 126 C 11.6237 1.9554 0.0485222 0
M  V30 127 C 12.0037 1.4876 1.49779 0
M  V30 128 O 11.3517 0.720925 2.16829 0
M  V30 129 C 11.5617 3.48898 -0.084417 0
M  V30 130 C 12.9097 4.24547 0.0671239 0
M  V30 131 O 13.9337 3.56198 -0.0113649 0
M  V30 132 O 12.7927 5.45999 0.233882 0
M  V30 133 H 9.8867 0.823957 0.0708773 0
M  V30 134 H 12.4327 1.58327 -0.610798 0
M  V30 135 H 11.2047 3.75714 -1.09337 0
M  V30 136 H 10.8277 3.92845 0.613066 0
M  V30 137 N 11.8248 0.280983 1.55075 0
M  V30 138 C 13.2358 -0.215629 1.85451 0
M  V30 139 C 13.5868 -1.54991 1.203 0
M  V30 140 O 12.7118 -2.10699 0.493435 0
M  V30 141 C 13.3068 -0.398026 3.36454 0
M  V30 142 C 11.8658 -0.838866 3.66933 0
M  V30 143 C 11.0128 0.064458 2.77225 0
M  V30 144 H 13.9638 0.502601 1.50531 0
M  V30 145 H 13.9848 -1.23569 3.59876 0
M  V30 146 H 13.4968 0.573241 3.83843 0
M  V30 147 H 11.5978 -1.8214 3.25048 0
M  V30 148 H 11.7108 -0.672123 4.74362 0
M  V30 149 H 10.0748 -0.452863 2.50642 0
M  V30 150 H 10.8578 1.03172 3.2743 0
M  V30 151 N 13.3029 -1.57598 0.00835791 0
M  V30 152 C 14.2499 -2.08945 -0.980346 0
M  V30 153 C 15.2199 -0.986738 -1.33614 0
M  V30 154 O 16.4049 -1.25968 -1.43306 0
M  V30 155 C 13.5449 -2.60425 -2.26435 0
M  V30 156 C 12.6579 -3.84628 -1.96685 0
M  V30 157 C 11.7929 -4.24579 -3.19228 0
M  V30 158 C 10.8319 -5.41596 -2.85202 0
M  V30 159 N 9.9689 -5.768 -4.00307 0
M  V30 160 H 14.8089 -2.93148 -0.535551 0
M  V30 161 H 12.3459 -1.44912 -0.252776 0
M  V30 162 H 14.3039 -2.88354 -3.01509 0
M  V30 163 H 12.9339 -1.79083 -2.68568 0
M  V30 164 H 11.9859 -3.63556 -1.11942 0
M  V30 165 H 13.2979 -4.69796 -1.67611 0
M  V30 166 H 12.4519 -4.53834 -4.02641 0
M  V30 167 H 11.1909 -3.38137 -3.51447 0
M  V30 168 H 10.1959 -5.12056 -2.00198 0
M  V30 169 H 11.4209 -6.29721 -2.54222 0
M  V30 170 H 9.3669 -4.93316 -4.32407 0
M  V30 171 H 9.2839 -6.5656 -3.74786 0
M  V30 172 H 10.5519 -6.10652 -4.84484 0
M  V30 173 N 14.781 0.264519 -1.55364 0
M  V30 174 C 16.011 1.01153 -1.80143 0
M  V30 175 C 16.419 1.80115 -0.579253 0
M  V30 176 O 15.762 1.77813 0.46132 0
M  V30 177 C 15.824 2.01098 -2.97993 0
M  V30 178 C 15.488 1.40995 -4.34706 0
M  V30 179 C 16.485 0.821316 -5.13372 0
M  V30 180 C 14.17 1.43461 -4.81378 0
M  V30 181 C 16.164 0.265339 -6.36847 0
M  V30 182 C 13.851 0.874771 -6.04807 0
M  V30 183 C 14.849 0.291146 -6.82379 0
M  V30 184 O 14.537 -0.260093 -8.03479 0
M  V30 185 H 14.269 0.304125 -0.603725 0
M  V30 186 H 16.823 0.298089 -2.03225 0
M  V30 187 H 15.053 2.76224 -2.70623 0
M  V30 188 H 16.742 2.61997 -3.1002 0
M  V30 189 H 17.508 0.794903 -4.78442 0
M  V30 190 H 13.387 1.87826 -4.21002 0
M  V30 191 H 16.931 -0.190837 -6.97339 0
M  V30 192 H 12.828 0.898452 -6.39217 0
M  V30 193 H 13.596 -0.150265 -8.18362 0
M  V30 194 N 16.2591 1.48442 0.529413 0
M  V30 195 C 17.5051 1.57699 1.28463 0
M  V30 196 C 17.8601 0.247913 1.90796 0
M  V30 197 O 17.1531 -0.749279 1.76342 0
M  V30 198 C 17.3471 2.6523 2.39558 0
M  V30 199 C 17.1761 4.08464 1.88114 0
M  V30 200 C 15.9461 4.75596 1.70693 0
M  V30 201 C 18.1441 4.94613 1.40935 0
M  V30 202 N 16.1261 6.03245 1.13881 0
M  V30 203 C 17.4971 6.12511 0.960734 0
M  V30 204 C 19.5521 4.80833 1.29243 0
M  V30 205 C 18.2551 7.18149 0.406792 0
M  V30 206 C 20.2811 5.86593 0.752487 0
M  V30 207 C 19.6431 7.037 0.313946 0
M  V30 208 H 15.7421 0.631608 0.46108 0
M  V30 209 H 18.3261 1.85325 0.596886 0
M  V30 210 H 16.4971 2.39425 3.05827 0
M  V30 211 H 18.2291 2.64169 3.06589 0
M  V30 212 H 14.9841 4.31938 1.94232 0
M  V30 213 H 15.4081 6.71324 0.874831 0
M  V30 214 H 20.0501 3.90635 1.61754 0
M  V30 215 H 17.7681 8.0807 0.0693671 0
M  V30 216 H 21.3541 5.77985 0.665192 0
M  V30 217 H 20.2341 7.8414 -0.0973632 0
M  V30 218 N 17.7372 -0.778329 1.37039 0
M  V30 219 C 19.1532 -1.07796 1.17695 0
M  V30 220 C 19.3532 -2.01498 0.00860115 0
M  V30 221 O 18.4092 -2.43901 -0.653352 0
M  V30 222 C 19.7222 -1.68178 2.49272 0
M  V30 223 C 21.2702 -1.80467 2.55735 0
M  V30 224 C 21.7452 -2.44263 3.87427 0
M  V30 225 N 23.2362 -2.51721 3.88833 0
M  V30 226 C 23.9712 -3.01919 4.87476 0
M  V30 227 N 23.4672 -3.5234 5.96513 0
M  V30 228 N 25.2602 -3.00733 4.74885 0
M  V30 229 H 17.4112 -0.156032 2.11826 0
M  V30 230 H 19.6742 -0.131844 0.938787 0
M  V30 231 H 19.3802 -1.06796 3.35093 0
M  V30 232 H 19.2542 -2.67554 2.65885 0
M  V30 233 H 21.6412 -2.40984 1.70325 0
M  V30 234 H 21.7222 -0.798656 2.43013 0
M  V30 235 H 21.3662 -1.84388 4.73248 0
M  V30 236 H 21.2962 -3.45458 3.9745 0
M  V30 237 H 23.7872 -2.1603 3.10063 0
M  V30 238 H 24.1002 -3.89027 6.67741 0
M  V30 239 H 22.4452 -3.50462 6.00168 0
M  V30 240 H 25.6362 -2.60638 3.88826 0
M  V30 241 H 25.8092 -3.39545 5.51918 0
M  V30 242 N 19.2153 -1.21501 -1.00376 0
M  V30 243 C 20.4923 -0.941745 -1.71437 0
M  V30 244 C 20.8723 0.546114 -2.03914 0
M  V30 245 O 20.2203 1.51128 -1.71384 0
M  V30 246 C 20.4303 -1.82812 -2.97289 0
M  V30 247 C 21.7783 -2.07771 -3.70292 0
M  V30 248 O 22.8023 -1.80171 -3.07273 0
M  V30 249 O 21.6613 -2.54456 -4.83647 0
M  V30 250 H 18.7553 -0.353243 -0.747762 0
M  V30 251 H 21.3013 -1.32436 -1.06108 0
M  V30 252 H 20.0733 -2.83501 -2.69709 0
M  V30 253 H 19.6963 -1.4464 -3.70358 0
M  V30 254 N 20.6934 1.19889 -1.02296 0
M  V30 255 C 21.6254 2.22334 -0.556787 0
M  V30 256 C 22.6384 1.58674 0.364199 0
M  V30 257 O 23.8274 1.77768 0.161533 0
M  V30 258 C 20.9274 3.38257 0.208694 0
M  V30 259 C 20.1004 4.31504 -0.71577 0
M  V30 260 C 19.1594 5.262 0.00325597 0
M  V30 261 O 18.1854 5.65798 -0.621357 0
M  V30 262 N 19.3874 5.66303 1.27599 0
M  V30 263 H 22.1524 2.62957 -1.43784 0
M  V30 264 H 19.7134 1.34495 -0.901261 0
M  V30 265 H 21.7054 3.98616 0.699111 0
M  V30 266 H 20.2754 2.96472 0.991102 0
M  V30 267 H 19.4954 3.69016 -1.38638 0
M  V30 268 H 20.7834 4.9072 -1.34428 0
M  V30 269 H 20.1814 5.36155 1.80429 0
M  V30 270 H 18.7384 6.28942 1.71102 0
M  V30 271 N 22.1715 0.800033 1.35784 0
M  V30 272 C 23.1345 0.211565 2.28221 0
M  V30 273 C 24.1345 -0.59728 1.49296 0
M  V30 274 O 25.3245 -0.416721 1.69142 0
M  V30 275 C 22.4565 -0.705846 3.33513 0
M  V30 276 H 23.6495 1.02677 2.81776 0
M  V30 277 H 21.2025 0.570211 1.45528 0
M  V30 278 H 21.9375 -1.54498 2.85133 0
M  V30 279 H 21.7225 -0.127655 3.91892 0
M  V30 280 H 23.2125 -1.11211 4.02519 0
M  V30 281 N 23.6496 -1.47581 0.552962 0
M  V30 282 C 24.5816 -2.27997 -0.234533 0
M  V30 283 C 25.5946 -1.36753 -0.883321 0
M  V30 284 O 26.7836 -1.61612 -0.757889 0
M  V30 285 C 23.8836 -3.10879 -1.34935 0
M  V30 286 C 23.0566 -4.30056 -0.798158 0
M  V30 287 C 22.1156 -4.94567 -1.79694 0
M  V30 288 O 21.1416 -5.53087 -1.34474 0
M  V30 289 N 22.3436 -4.88878 -3.13015 0
M  V30 290 H 25.1086 -2.96222 0.455255 0
M  V30 291 H 22.6696 -1.57163 0.388761 0
M  V30 292 H 24.6616 -3.50903 -2.01616 0
M  V30 293 H 23.2316 -2.44924 -1.94244 0
M  V30 294 H 22.4516 -3.94174 0.0453079 0
M  V30 295 H 23.7396 -5.07152 -0.409173 0
M  V30 296 H 23.1376 -4.42526 -3.52402 0
M  V30 297 H 21.6946 -5.32934 -3.75266 0
M  V30 298 N 25.1277 -0.289203 -1.54924 0
M  V30 299 C 26.0377 0.601863 -2.26748 0
M  V30 300 C 27.0537 1.15834 -1.2984 0
M  V30 301 O 28.2297 1.18564 -1.62802 0
M  V30 302 C 25.2947 1.76299 -2.98529 0
M  V30 303 C 24.3557 1.24178 -4.10948 0
M  V30 304 C 23.5887 2.34757 -4.79296 0
M  V30 305 O 23.8117 3.54411 -4.46933 0
M  V30 306 O 22.7457 2.02115 -5.66951 0
M  V30 307 H 26.5717 0.0195879 -3.03694 0
M  V30 308 H 24.1567 -0.0560868 -1.49295 0
M  V30 309 H 26.0387 2.43973 -3.43592 0
M  V30 310 H 24.7137 2.33209 -2.24488 0
M  V30 311 H 23.6207 0.531104 -3.70311 0
M  V30 312 H 24.9537 0.718252 -4.86931 0
M  V30 313 N 26.6058 1.57591 -0.0167156 0
M  V30 314 C 27.8338 1.95575 0.675128 0
M  V30 315 C 28.2488 0.892542 1.6637 0
M  V30 316 O 27.6058 -0.126912 1.82058 0
M  V30 317 C 27.6568 3.33608 1.39239 0
M  V30 318 O 27.3778 4.3585 0.443444 0
M  V30 319 C 28.8788 3.86151 2.17721 0
M  V30 320 H 26.0988 0.644423 0.186978 0
M  V30 321 H 28.6428 2.0437 -0.0728 0
M  V30 322 H 26.7978 3.2607 2.09182 0
M  V30 323 H 27.2118 5.158 0.951358 0
M  V30 324 H 28.6858 4.85114 2.63379 0
M  V30 325 H 29.1628 3.19738 3.01105 0
M  V30 326 H 29.7688 3.96918 1.52761 0
M  V30 327 N 28.0839 -0.256276 1.55502 0
M  V30 328 C 29.0139 -1.32102 1.92539 0
M  V30 329 C 29.9949 -1.50684 0.789194 0
M  V30 330 O 31.1799 -1.63449 1.04872 0
M  V30 331 C 28.3099 -2.67752 2.21192 0
M  V30 332 C 27.2639 -2.63878 3.36975 0
M  V30 333 C 26.5899 -4.03236 3.51147 0
M  V30 334 C 27.8899 -2.21682 4.72921 0
M  V30 335 H 29.5839 -1.01351 2.81724 0
M  V30 336 H 27.1299 -0.486105 1.35547 0
M  V30 337 H 29.0829 -3.42365 2.45691 0
M  V30 338 H 27.8069 -3.0012 1.28824 0
M  V30 339 H 26.4659 -1.91722 3.12471 0
M  V30 340 H 26.1139 -4.32854 2.56216 0
M  V30 341 H 25.8139 -4.01535 4.29003 0
M  V30 342 H 27.3379 -4.79563 3.77957 0
M  V30 343 H 28.7519 -2.86023 4.96854 0
M  V30 344 H 27.1489 -2.3111 5.53812 0
M  V30 345 H 28.2189 -1.16833 4.70615 0
M  V30 346 N 29.562 -1.4872 -0.521534 0
M  V30 347 C 30.509 -1.63871 -1.62527 0
M  V30 348 C 31.479 -0.480559 -1.58996 0
M  V30 349 O 32.664 -0.705085 -1.77294 0
M  V30 350 C 29.804 -1.69227 -3.00759 0
M  V30 351 C 28.917 -2.96207 -3.14461 0
M  V30 352 C 28.052 -2.92671 -4.43303 0
M  V30 353 C 27.091 -4.14318 -4.50563 0
M  V30 354 N 26.228 -4.0881 -5.70805 0
M  V30 355 H 31.068 -2.58123 -1.48918 0
M  V30 356 H 28.605 -1.28 -0.724878 0
M  V30 357 H 30.563 -1.70314 -3.80853 0
M  V30 358 H 29.193 -0.784586 -3.1312 0
M  V30 359 H 28.245 -3.04826 -2.27564 0
M  V30 360 H 29.557 -3.86192 -3.15686 0
M  V30 361 H 28.711 -2.92206 -5.31696 0
M  V30 362 H 27.45 -2.00429 -4.44612 0
M  V30 363 H 26.455 -4.15049 -3.60575 0
M  V30 364 H 27.68 -5.07729 -4.50986 0
M  V30 365 H 25.626 -3.19394 -5.72995 0
M  V30 366 H 25.543 -4.92509 -5.7356 0
M  V30 367 H 26.811 -4.12418 -6.61462 0
M  V30 368 N 31.0401 0.771051 -1.3745 0
M  V30 369 C 32.2701 1.55789 -1.35696 0
M  V30 370 C 32.6781 1.89107 0.0594523 0
M  V30 371 O 32.0211 1.51984 1.03183 0
M  V30 372 C 32.0831 2.89515 -2.13123 0
M  V30 373 C 31.7471 2.78829 -3.62082 0
M  V30 374 C 32.7441 2.49812 -4.5595 0
M  V30 375 C 30.4291 2.9683 -4.05213 0
M  V30 376 C 32.4231 2.38923 -5.90927 0
M  V30 377 C 30.1101 2.85562 -5.40276 0
M  V30 378 C 31.1081 2.56649 -6.32946 0
M  V30 379 O 30.7961 2.45408 -7.65526 0
M  V30 380 H 30.5281 0.489257 -0.466481 0
M  V30 381 H 33.0821 0.963446 -1.81403 0
M  V30 382 H 31.3121 3.51081 -1.62107 0
M  V30 383 H 33.0011 3.50915 -2.03994 0
M  V30 384 H 33.7671 2.3559 -4.23937 0
M  V30 385 H 29.6461 3.18335 -3.33442 0
M  V30 386 H 33.1901 2.16277 -6.63227 0
M  V30 387 H 29.0871 2.99351 -5.71891 0
M  V30 388 H 29.8551 2.60753 -7.75855 0
M  V30 389 N 32.5182 1.22032 0.997298 0
M  V30 390 C 33.4812 0.987909 2.06816 0
M  V30 391 C 34.4812 -0.0440084 1.6074 0
M  V30 392 O 35.6712 0.194053 1.73116 0
M  V30 393 C 32.8032 0.49132 3.37341 0
M  V30 394 H 33.9962 1.93803 2.28868 0
M  V30 395 H 31.5492 1.03838 1.16822 0
M  V30 396 H 32.2842 -0.463364 3.20973 0
M  V30 397 H 32.0692 1.23575 3.72118 0
M  V30 398 H 33.5592 0.348824 4.16141 0
M  V30 399 N 33.9963 -1.19345 1.0293 0
M  V30 400 C 34.9263 -2.2481 0.631105 0
M  V30 401 C 35.9073 -1.66245 -0.360104 0
M  V30 402 O 37.0923 -1.92677 -0.242726 0
M  V30 403 C 34.2223 -3.47295 -0.0184607 0
M  V30 404 C 33.1763 -4.18536 0.895073 0
M  V30 405 C 32.5023 -5.34586 0.110592 0
M  V30 406 C 33.8023 -4.73287 2.209 0
M  V30 407 H 35.4963 -2.58372 1.51275 0
M  V30 408 H 33.0423 -1.24194 0.728818 0
M  V30 409 H 34.9953 -4.20268 -0.308675 0
M  V30 410 H 33.7193 -3.12933 -0.934907 0
M  V30 411 H 32.3783 -3.47446 1.16949 0
M  V30 412 H 32.0263 -4.96469 -0.807902 0
M  V30 413 H 31.7263 -5.83183 0.719087 0
M  V30 414 H 33.2503 -6.10355 -0.172871 0
M  V30 415 H 34.6643 -5.38013 1.98028 0
M  V30 416 H 33.0613 -5.32373 2.76946 0
M  V30 417 H 34.1313 -3.91331 2.86336 0
M  V30 418 N 35.4744 -0.807222 -1.35358 0
M  V30 419 C 36.3844 -0.219594 -2.3357 0
M  V30 420 C 37.4004 0.637734 -1.61892 0
M  V30 421 O 38.5764 0.549336 -1.93763 0
M  V30 422 C 35.6414 0.62158 -3.41083 0
M  V30 423 C 34.7024 -0.256315 -4.28534 0
M  V30 424 C 33.9354 0.544807 -5.30912 0
M  V30 425 O 34.1584 1.77944 -5.41934 0
M  V30 426 O 33.0924 -0.0646478 -6.01865 0
M  V30 427 H 36.9184 -1.03208 -2.85625 0
M  V30 428 H 34.5034 -0.569025 -1.38139 0
M  V30 429 H 36.3854 1.10067 -4.06772 0
M  V30 430 H 35.0604 1.41165 -2.91297 0
M  V30 431 H 33.9674 -0.782559 -3.65823 0
M  V30 432 H 35.3004 -1.01034 -4.81719 0
M  V30 433 N 36.9525 1.47285 -0.560781 0
M  V30 434 C 37.8825 2.32857 0.173105 0
M  V30 435 C 38.8635 1.44009 0.905281 0
M  V30 436 O 40.0485 1.7286 0.885046 0
M  V30 437 C 37.1785 3.25861 1.20133 0
M  V30 438 C 36.1325 4.23978 0.585388 0
M  V30 439 C 35.4585 5.06332 1.7185 0
M  V30 440 C 36.7585 5.20242 -0.463178 0
M  V30 441 H 38.4525 2.94466 -0.541307 0
M  V30 442 H 35.9985 1.41601 -0.261764 0
M  V30 443 H 37.9515 3.84569 1.72293 0
M  V30 444 H 36.6755 2.62315 1.94573 0
M  V30 445 H 35.3345 3.66501 0.085054 0
M  V30 446 H 34.9825 4.39186 2.45203 0
M  V30 447 H 34.6825 5.72762 1.31213 0
M  V30 448 H 36.2065 5.67899 2.24329 0
M  V30 449 H 37.6205 5.73293 -0.027502 0
M  V30 450 H 36.0175 5.94896 -0.788627 0
M  V30 451 H 37.0875 4.65504 -1.35773 0
M  V30 452 N 38.4306 0.297415 1.54768 0
M  V30 453 C 39.3626 -0.613881 2.20826 0
M  V30 454 C 40.3756 -1.10032 1.19987 0
M  V30 455 O 41.5646 -1.01839 1.46598 0
M  V30 456 C 38.6646 -1.852 2.83821 0
M  V30 457 C 37.8376 -1.50865 4.10559 0
M  V30 458 C 36.8966 -2.60154 4.57391 0
M  V30 459 O 35.9226 -2.25398 5.2267 0
M  V30 460 N 37.1246 -3.90629 4.29406 0
M  V30 461 H 39.8896 -0.048389 2.99661 0
M  V30 462 H 37.4506 0.11946 1.61459 0
M  V30 463 H 39.4426 -2.57652 3.12086 0
M  V30 464 H 38.0126 -2.32597 2.08847 0
M  V30 465 H 37.2326 -0.616925 3.89343 0
M  V30 466 H 38.5206 -1.25458 4.9309 0
M  V30 467 H 37.9186 -4.21677 3.77101 0
M  V30 468 H 36.4756 -4.59391 4.62388 0
M  V30 469 N 39.9087 -1.5758 0.0250728 0
M  V30 470 C 40.8557 -2.09973 -0.958129 0
M  V30 471 C 41.8257 -1.00085 -1.3256 0
M  V30 472 O 43.0107 -1.27481 -1.41962 0
M  V30 473 C 40.1507 -2.62812 -2.2366 0
M  V30 474 C 39.2637 -3.86693 -1.92594 0
M  V30 475 C 38.3987 -4.27941 -3.14707 0
M  V30 476 C 37.4377 -5.44591 -2.79442 0
M  V30 477 N 36.5747 -5.81014 -3.94167 0
M  V30 478 H 41.4147 -2.937 -0.504428 0
M  V30 479 H 38.9517 -1.45172 -0.237392 0
M  V30 480 H 40.9097 -2.91536 -2.98434 0
M  V30 481 H 39.5397 -1.81922 -2.66654 0
M  V30 482 H 38.5917 -3.64723 -1.0808 0
M  V30 483 H 39.9037 -4.71547 -1.62619 0
M  V30 484 H 39.0577 -4.58079 -3.97804 0
M  V30 485 H 37.7967 -3.41845 -3.4784 0
M  V30 486 H 36.8017 -5.1415 -1.94755 0
M  V30 487 H 38.0267 -6.32382 -2.47528 0
M  V30 488 H 35.9727 -4.97874 -4.2715 0
M  V30 489 H 35.8897 -6.60498 -3.67801 0
M  V30 490 H 37.1577 -6.15756 -4.7798 0
M  V30 491 N 41.3868 0.248026 -1.55636 0
M  V30 492 C 42.3168 1.31079 -1.93237 0
M  V30 493 C 43.2978 1.50264 -0.797174 0
M  V30 494 O 44.4828 1.62891 -1.05737 0
M  V30 495 C 41.6128 2.66575 -2.22609 0
M  V30 496 C 40.5668 2.62087 -3.3837 0
M  V30 497 C 39.8928 4.01369 -3.53281 0
M  V30 498 C 41.1928 2.19171 -4.7409 0
M  V30 499 H 42.8868 0.998556 -2.82257 0
M  V30 500 H 40.4328 0.47891 -1.35803 0
M  V30 501 H 42.3858 3.41057 -2.47503 0
M  V30 502 H 41.1098 2.99432 -1.30414 0
M  V30 503 H 39.7688 1.90063 -3.13483 0
M  V30 504 H 39.4168 4.31489 -2.58508 0
M  V30 505 H 39.1168 3.99254 -4.31127 0
M  V30 506 H 40.6408 4.77552 -3.80495 0
M  V30 507 H 42.0548 2.83384 -4.98363 0
M  V30 508 H 40.4518 2.2817 -5.5503 0
M  V30 509 H 41.5218 1.14336 -4.71227 0
M  V30 510 N 42.8649 1.48995 0.513639 0
M  V30 511 C 43.8129 1.65199 1.63744 0
M  V30 512 C 44.8069 0.51809 1.61283 0
M  V30 513 O 46.0129 0.697335 1.65943 0
M  V30 514 H 42.3879 0.52069 0.542574 0
M  V30 515 H 44.3589 2.59552 1.47226 0
M  V30 516 C 43.1079 1.72409 3.01945 0
M  V30 517 H 42.4309 2.59029 3.04539 0
M  V30 518 H 43.8709 1.87785 3.80148 0
M  V30 519 C 42.3299 0.46618 3.33659 0
M  V30 520 O 42.8599 -0.413744 3.99564 0
M  V30 521 N 41.0659 0.332931 2.88687 0
M  V30 522 H 40.6129 1.04996 2.35231 0
M  V30 523 H 40.5709 -0.507665 3.10274 0
M  V30 524 N 44.343 -0.763751 1.37857 0
M  V30 525 C 45.571 -1.55293 1.36718 0
M  V30 526 C 45.986 -1.88745 -0.0455434 0
M  V30 527 O 45.343 -1.52039 -1.00947 0
M  V30 528 C 45.394 -2.85831 2.2132 0
M  V30 529 O 45.115 -2.5381 3.57089 0
M  V30 530 C 46.616 -3.80023 2.28249 0
M  V30 531 H 43.836 -0.480841 0.468009 0
M  V30 532 H 46.38 -0.946009 1.81303 0
M  V30 533 H 44.535 -3.42926 1.80223 0
M  V30 534 H 44.949 -3.37459 4.01524 0
M  V30 535 H 46.423 -4.68599 2.91752 0
M  V30 536 H 46.9 -4.1973 1.2932 0
M  V30 537 H 47.506 -3.28855 2.69693 0
M  V30 538 N 45.8211 -1.22559 -0.990812 0
M  V30 539 C 46.7691 -0.994798 -2.10253 0
M  V30 540 C 47.7631 0.0627798 -1.69284 0
M  V30 541 O 48.9691 -0.0898392 -1.79776 0
M  V30 542 H 45.3441 -0.304527 -0.687581 0
M  V30 543 H 47.3151 -1.93812 -2.26891 0
M  V30 544 C 46.0641 -0.591439 -3.42633 0
M  V30 545 H 45.3871 -1.3969 -3.74602 0
M  V30 546 H 46.8271 -0.469385 -4.21394 0
M  V30 547 C 45.2861 0.699232 -3.29564 0
M  V30 548 O 45.8161 1.75112 -3.61523 0
M  V30 549 N 44.0221 0.671182 -2.82743 0
M  V30 550 H 43.5691 -0.185136 -2.56934 0
M  V30 551 H 43.5271 1.53502 -2.7438 0
M  V30 552 N 47.2992 1.18797 -1.03562 0
M  V30 553 C 48.5452 1.8893 -0.737113 0
M  V30 554 C 48.8782 1.79837 0.732956 0
M  V30 555 O 48.1532 1.19525 1.5344 0
M  V30 556 C 48.4362 3.39607 -1.19745 0
M  V30 557 C 48.2892 3.57537 -2.72924 0
M  V30 558 C 49.6082 4.33069 -0.783526 0
M  V30 559 H 46.7272 0.686057 -0.269249 0
M  V30 560 H 49.3692 1.39797 -1.28673 0
M  V30 561 H 47.5192 3.81583 -0.729855 0
M  V30 562 H 49.1912 3.24688 -3.27682 0
M  V30 563 H 47.4342 3.00363 -3.12993 0
M  V30 564 H 48.1052 4.63238 -3.00191 0
M  V30 565 H 50.5812 3.98846 -1.18581 0
M  V30 566 H 49.4572 5.3707 -1.13343 0
M  V30 567 H 49.7182 4.40986 0.313681 0
M  V30 568 N 48.7773 0.814389 1.34928 0
M  V30 569 C 49.7403 0.235759 2.27984 0
M  V30 570 C 50.7403 -0.581412 1.49921 0
M  V30 571 O 51.9303 -0.398758 1.69575 0
M  V30 572 C 49.0623 -0.670433 3.34242 0
M  V30 573 H 50.2553 1.05659 2.80671 0
M  V30 574 H 47.8083 0.585614 1.44915 0
M  V30 575 H 48.5433 -1.51466 2.86755 0
M  V30 576 H 48.3283 -0.0860822 3.92005 0
M  V30 577 H 49.8183 -1.06935 4.03676 0
M  V30 578 N 50.2554 -1.46986 0.568584 0
M  V30 579 C 51.2024 -2.30153 -0.172707 0
M  V30 580 C 52.1724 -1.39759 -0.897586 0
M  V30 581 O 53.3574 -1.68716 -0.891044 0
M  V30 582 C 50.4974 -3.23952 -1.1895 0
M  V30 583 C 49.6104 -4.29441 -0.469517 0
M  V30 584 C 48.7454 -5.1038 -1.47259 0
M  V30 585 C 47.7844 -6.07632 -0.738225 0
M  V30 586 N 46.9214 -6.8149 -1.68868 0
M  V30 587 H 51.7614 -2.93019 0.542596 0
M  V30 588 H 49.2984 -1.44422 0.279401 0
M  V30 589 H 51.2564 -3.76767 -1.79173 0
M  V30 590 H 49.8864 -2.62926 -1.87269 0
M  V30 591 H 48.9384 -3.79594 0.247467 0
M  V30 592 H 50.2504 -4.98689 0.105241 0
M  V30 593 H 49.4044 -5.67402 -2.14803 0
M  V30 594 H 48.1434 -4.4106 -2.08128 0
M  V30 595 H 47.1484 -5.49778 -0.0489293 0
M  V30 596 H 48.3734 -6.78966 -0.135129 0
M  V30 597 H 46.3194 -6.14891 -2.28573 0
M  V30 598 H 46.2364 -7.46948 -1.16636 0
M  V30 599 H 47.5044 -7.43078 -2.3549 0
M  V30 600 N 51.7335 -0.305618 -1.54608 0
M  V30 601 C 52.6815 0.584119 -2.25146 0
M  V30 602 C 53.6755 1.13326 -1.25911 0
M  V30 603 O 54.8815 1.08337 -1.43747 0
M  V30 604 H 51.2565 0.206983 -0.722954 0
M  V30 605 H 53.2275 -0.033291 -2.98381 0
M  V30 606 C 51.9765 1.74225 -3.009 0
M  V30 607 H 51.2995 1.32892 -3.77067 0
M  V30 608 H 52.7395 2.34077 -3.53531 0
M  V30 609 C 51.1985 2.64914 -2.0814 0
M  V30 610 O 51.7285 3.66137 -1.65246 0
M  V30 611 N 49.9345 2.3275 -1.74 0
M  V30 612 H 49.4815 1.50479 -2.09078 0
M  V30 613 H 49.4395 2.93694 -1.12211 0
M  V30 614 N 53.2116 1.57565 -0.0334293 0
M  V30 615 C 54.4576 1.92262 0.645226 0
M  V30 616 C 54.7906 0.910543 1.71531 0
M  V30 617 O 54.0656 -0.066099 1.94388 0
M  V30 618 C 54.3486 3.37422 1.2577 0
M  V30 619 C 54.2016 4.49369 0.196891 0
M  V30 620 C 55.5206 3.82628 2.17449 0
M  V30 621 H 52.6396 0.699171 0.233085 0
M  V30 622 H 55.2816 1.89779 -0.0915694 0
M  V30 623 H 53.4316 3.39669 1.88566 0
M  V30 624 H 55.1036 4.59254 -0.433962 0
M  V30 625 H 53.3466 4.31168 -0.477137 0
M  V30 626 H 54.0176 5.47978 0.665124 0
M  V30 627 H 56.4936 3.82145 1.64634 0
M  V30 628 H 55.3696 4.84883 2.57254 0
M  V30 629 H 55.6306 3.18376 3.0674 0
M  V30 630 N 54.6897 -0.239769 1.55765 0
M  V30 631 C 55.9387 -0.964754 1.77131 0
M  V30 632 C 56.2517 -1.86213 0.59868 0
M  V30 633 O 57.4577 -2.6244 0.695522 0
M  V30 634 C 55.9137 -1.76552 3.1362 0
M  V30 635 C 55.5217 -0.915185 4.38553 0
M  V30 636 C 57.2657 -2.48281 3.44321 0
M  V30 637 C 55.1727 -1.71225 5.66071 0
M  V30 638 H 54.1027 -0.363953 0.660344 0
M  V30 639 H 56.7537 -0.219181 1.82186 0
M  V30 640 H 55.1357 -2.55331 3.02691 0
M  V30 641 H 56.3097 -0.169217 4.60489 0
M  V30 642 H 54.6247 -0.310889 4.15238 0
M  V30 643 H 57.2217 -3.08382 4.36812 0
M  V30 644 H 57.5647 -3.20256 2.65973 0
M  V30 645 H 58.0977 -1.76507 3.56497 0
M  V30 646 H 54.8367 -1.03612 6.4726 0
M  V30 647 H 54.3567 -2.43331 5.48224 0
M  V30 648 H 56.0357 -2.27758 6.05587 0
M  V30 649 N 56.1678 -1.49265 -0.50573 0
M  V30 650 C 57.1008 -1.60183 -1.62532 0
M  V30 651 C 58.0788 -0.451107 -1.56217 0
M  V30 652 O 59.2628 -0.666016 -1.76342 0
M  V30 653 C 56.3898 -1.55238 -3.01029 0
M  V30 654 C 55.4358 -2.7545 -3.25621 0
M  V30 655 S 56.2688 -4.37174 -3.09256 0
M  V30 656 C 57.4248 -4.34866 -4.50158 0
M  V30 657 H 57.6578 -2.54894 -1.53025 0
M  V30 658 H 55.1908 -1.38098 -0.690535 0
M  V30 659 H 57.1488 -1.53071 -3.80893 0
M  V30 660 H 55.8098 -0.618238 -3.07956 0
M  V30 661 H 55.0028 -2.68197 -4.26716 0
M  V30 662 H 54.6048 -2.75005 -2.53472 0
M  V30 663 H 56.8968 -4.06295 -5.42154 0
M  V30 664 H 57.8398 -5.36223 -4.62462 0
M  V30 665 H 58.2478 -3.65007 -4.30616 0
M  V30 666 N 57.6459 0.756429 -1.3826 0
M  V30 667 C 58.8929 1.51547 -1.34312 0
M  V30 668 C 59.2209 1.94382 0.0677144 0
M  V30 669 O 58.4759 1.65514 1.04421 0
M  V30 670 C 58.7749 2.78313 -2.24224 0
M  V30 671 C 58.4409 2.54455 -3.72241 0
M  V30 672 C 57.1029 2.47657 -4.12576 0
M  V30 673 C 59.4549 2.3354 -4.65949 0
M  V30 674 C 56.7829 2.17956 -5.44713 0
M  V30 675 C 59.1349 2.05359 -5.9834 0
M  V30 676 C 57.7989 1.97016 -6.37762 0
M  V30 677 H 57.0689 0.55455 -0.491482 0
M  V30 678 H 59.7159 0.870039 -1.70595 0
M  V30 679 H 58.0209 3.47492 -1.80987 0
M  V30 680 H 59.7179 3.36259 -2.18474 0
M  V30 681 H 56.3079 2.60616 -3.40261 0
M  V30 682 H 60.4919 2.37772 -4.35635 0
M  V30 683 H 55.7479 2.10003 -5.74203 0
M  V30 684 H 59.9219 1.88179 -6.70494 0
M  V30 685 H 57.5489 1.73766 -7.40074 0
M  V30 686 N 59.124 1.23083 0.984299 0
M  V30 687 C 60.054 1.03292 2.09411 0
M  V30 688 C 61.035 -0.048923 1.7003 0
M  V30 689 O 62.22 0.114967 1.93859 0
M  V30 690 C 59.35 0.619155 3.41736 0
M  V30 691 C 58.304 1.64791 3.95004 0
M  V30 692 C 57.63 1.0897 5.23478 0
M  V30 693 C 58.93 3.03999 4.24714 0
M  V30 694 H 60.624 1.96119 2.26225 0
M  V30 695 H 58.17 0.944344 1.08711 0
M  V30 696 H 60.123 0.467777 4.18796 0
M  V30 697 H 58.847 -0.344786 3.24775 0
M  V30 698 H 57.506 1.78721 3.20085 0
M  V30 699 H 57.154 0.11686 5.02864 0
M  V30 700 H 56.854 1.77704 5.60085 0
M  V30 701 H 58.378 0.950093 6.03163 0
M  V30 702 H 59.792 2.93393 4.92538 0
M  V30 703 H 58.189 3.69936 4.72512 0
M  V30 704 H 59.259 3.53285 3.32142 0
M  V30 705 N 60.6021 -1.18246 1.0419 0
M  V30 706 C 61.8501 -1.87886 0.744543 0
M  V30 707 C 62.1711 -1.8082 -0.730006 0
M  V30 708 O 61.4411 -1.22736 -1.52685 0
M  V30 709 H 60.0211 -0.695556 0.272417 0
M  V30 710 H 62.6831 -1.43494 1.31892 0
M  V30 711 H 61.7791 -2.9389 1.05049 0
M  V30 712 N 62.0802 -0.821533 -1.34494 0
M  V30 713 C 63.3572 -0.33159 -1.92769 0
M  V30 714 C 63.7372 1.18088 -1.74981 0
M  V30 715 O 63.0852 1.98733 -1.12772 0
M  V30 716 C 63.2952 -0.759398 -3.40638 0
M  V30 717 C 64.6432 -0.757433 -4.1779 0
M  V30 718 O 65.6672 -0.70189 -3.49216 0
M  V30 719 O 64.5262 -0.829361 -5.4017 0
M  V30 720 H 61.6202 -0.0902502 -0.822061 0
M  V30 721 H 64.1662 -0.906231 -1.43477 0
M  V30 722 H 62.9382 -1.8012 -3.47379 0
M  V30 723 H 62.5612 -0.160378 -3.97276 0
M  V30 724 N 63.5583 1.46682 -0.576371 0
M  V30 725 C 64.8063 2.02013 -0.0594163 0
M  V30 726 C 65.1273 1.45101 1.30271 0
M  V30 727 O 64.3973 0.633317 1.8538 0
M  V30 728 H 62.9773 0.746759 -0.0189745 0
M  V30 729 H 65.6393 1.79862 -0.750717 0
M  V30 730 H 64.7353 3.12097 0.014345 0
M  V30 731 N 65.0364 0.313813 1.54444 0
M  V30 732 C 65.9694 -0.598866 2.20202 0
M  V30 733 C 66.9474 -1.12318 1.17573 0
M  V30 734 O 68.1314 -1.18899 1.46271 0
M  V30 735 C 65.2584 -1.82071 2.85601 0
M  V30 736 C 64.3044 -1.42851 4.01865 0
M  V30 737 S 65.1374 -0.473512 5.33402 0
M  V30 738 C 66.2934 -1.70286 6.0229 0
M  V30 739 H 66.5264 -0.0402532 2.97273 0
M  V30 740 H 64.0594 0.0979165 1.54089 0
M  V30 741 H 66.0174 -2.52184 3.23904 0
M  V30 742 H 64.6784 -2.3505 2.08351 0
M  V30 743 H 63.8714 -2.33871 4.46453 0
M  V30 744 H 63.4734 -0.807198 3.65185 0
M  V30 745 H 65.7654 -2.64168 6.23876 0
M  V30 746 H 66.7084 -1.29932 6.96077 0
M  V30 747 H 67.1164 -1.88541 5.32083 0
M  V30 748 N 66.5145 -1.57545 0.0417849 0
M  V30 749 C 67.7625 -1.91937 -0.632829 0
M  V30 750 C 68.0835 -0.919978 -1.71934 0
M  V30 751 O 67.3535 0.0366064 -1.95866 0
M  V30 752 H 65.9335 -0.708493 -0.236742 0
M  V30 753 H 68.5955 -1.9468 0.0925745 0
M  V30 754 H 67.6915 -2.92912 -1.07746 0
M  V30 755 N 67.9926 0.231505 -1.5589 0
M  V30 756 C 69.2386 0.95877 -1.78705 0
M  V30 757 C 69.5716 1.8438 -0.609725 0
M  V30 758 O 68.8466 1.90521 0.391426 0
M  V30 759 C 69.1296 1.8062 -3.11526 0
M  V30 760 C 68.9826 0.948328 -4.39689 0
M  V30 761 C 70.3016 2.78585 -3.40703 0
M  V30 762 H 67.4206 0.347129 -0.650131 0
M  V30 763 H 70.0626 0.228259 -1.88624 0
M  V30 764 H 68.2126 2.42902 -3.03201 0
M  V30 765 H 69.8846 0.343016 -4.60023 0
M  V30 766 H 68.1276 0.253314 -4.3306 0
M  V30 767 H 68.7986 1.57543 -5.29041 0
M  V30 768 H 71.2746 2.26439 -3.49091 0
M  V30 769 H 70.1506 3.34988 -4.34826 0
M  V30 770 H 70.4116 3.55825 -2.62375 0
M  V30 771 N 69.4707 1.49531 0.497807 0
M  V30 772 C 70.6957 1.63159 1.28039 0
M  V30 773 C 71.1207 0.30418 1.85624 0
M  V30 774 O 70.4787 -0.728618 1.66015 0
M  V30 775 C 70.5267 2.70537 2.38416 0
M  V30 776 O 69.6307 2.29931 3.42353 0
M  V30 777 H 68.9717 0.546001 0.377861 0
M  V30 778 H 71.5017 1.9574 0.59558 0
M  V30 779 H 71.5117 2.92802 2.84132 0
M  V30 780 H 70.1867 3.6689 1.95869 0
M  V30 781 H 68.7637 2.18009 3.02533 0
M  V30 782 N 70.9488 -0.749086 1.3866 0
M  V30 783 C 72.1768 -1.53834 1.38358 0
M  V30 784 C 72.5918 -1.88783 -0.0255219 0
M  V30 785 O 71.9488 -1.53101 -0.993292 0
M  V30 786 C 71.9998 -2.83468 2.2434 0
M  V30 787 O 71.7208 -2.50008 3.5976 0
M  V30 788 C 73.2218 -3.7758 2.32267 0
M  V30 789 H 70.4418 -0.47585 0.473083 0
M  V30 790 H 72.9858 -0.926726 1.82297 0
M  V30 791 H 71.1408 -3.40995 1.83851 0
M  V30 792 H 71.5548 -3.33182 4.05081 0
M  V30 793 H 73.0288 -4.65478 2.96706 0
M  V30 794 H 73.5058 -4.18334 1.33765 0
M  V30 795 H 74.1118 -3.25976 2.73166 0
M  V30 796 N 72.4269 -1.23603 -0.977757 0
M  V30 797 C 73.6729 -1.07129 -1.72195 0
M  V30 798 C 74.0059 0.390501 -1.90233 0
M  V30 799 O 73.2809 1.28902 -1.45653 0
M  V30 800 C 73.5639 -1.80031 -3.11867 0
M  V30 801 C 73.4169 -3.33899 -3.01383 0
M  V30 802 C 74.7359 -1.56492 -4.11337 0
M  V30 803 H 71.8549 -0.390571 -0.624999 0
M  V30 804 H 74.4969 -1.52142 -1.13811 0
M  V30 805 H 72.6469 -1.41768 -3.6171 0
M  V30 806 H 74.3189 -3.81699 -2.59043 0
M  V30 807 H 72.5619 -3.62796 -2.37827 0
M  V30 808 H 73.2329 -3.801 -4.00285 0
M  V30 809 H 75.7089 -1.89757 -3.70313 0
M  V30 810 H 74.5849 -2.09973 -5.07151 0
M  V30 811 H 74.8459 -0.500874 -4.39254 0
M  V30 812 N 73.905 1.17692 -1.04816 0
M  V30 813 C 75.133 1.91786 -0.776254 0
M  V30 814 C 75.548 1.76604 0.667577 0
M  V30 815 O 74.905 1.10067 1.45573 0
M  V30 816 C 74.956 3.42967 -1.14263 0
M  V30 817 O 74.677 3.57678 -2.52978 0
M  V30 818 C 76.178 4.34144 -0.896311 0
M  V30 819 H 73.398 0.608624 -0.282519 0
M  V30 820 H 75.942 1.49268 -1.39783 0
M  V30 821 H 74.097 3.83245 -0.565874 0
M  V30 822 H 74.511 4.51319 -2.67229 0
M  V30 823 H 75.985 5.38744 -1.20244 0
M  V30 824 H 76.462 4.38876 0.168636 0
M  V30 825 H 77.068 3.99574 -1.45672 0
M  V30 826 N 75.3831 0.828654 1.34056 0
M  V30 827 C 76.3461 0.259927 2.27721 0
M  V30 828 C 77.3461 -0.565478 1.50529 0
M  V30 829 O 78.5361 -0.38075 1.69988 0
M  V30 830 C 75.6681 -0.634944 3.34935 0
M  V30 831 H 76.8611 1.0863 2.79534 0
M  V30 832 H 74.4141 0.600951 1.44285 0
M  V30 833 H 75.1491 -1.48416 2.88346 0
M  V30 834 H 74.9341 -0.0444999 3.92075 0
M  V30 835 H 76.4241 -1.02648 4.04788 0
M  V30 836 N 76.8612 -1.46375 0.584142 0
M  V30 837 C 77.8242 -2.28784 -0.138108 0
M  V30 838 C 78.8242 -1.38471 -0.817462 0
M  V30 839 O 80.0142 -1.60833 -0.669199 0
M  V30 840 C 77.1462 -3.18892 -1.20503 0
M  V30 841 H 78.3392 -2.94117 0.586127 0
M  V30 842 H 75.8922 -1.52509 0.342171 0
M  V30 843 H 76.6272 -2.58309 -1.96079 0
M  V30 844 H 76.4122 -3.85388 -0.722384 0
M  V30 845 H 77.9022 -3.80914 -1.71155 0
M  V30 846 N 78.3393 -0.321999 -1.54275 0
M  V30 847 C 79.7553 0.0306999 -1.5957 0
M  V30 848 C 79.9553 1.50614 -1.33857 0
M  V30 849 O 79.0113 2.2619 -1.12223 0
M  V30 850 C 80.3243 -0.386122 -2.98211 0
M  V30 851 C 81.8723 -0.336647 -3.11184 0
M  V30 852 C 82.3473 -0.728607 -4.52167 0
M  V30 853 N 83.8383 -0.681952 -4.58152 0
M  V30 854 C 84.5733 -0.957449 -5.6535 0
M  V30 855 N 84.0693 -1.3 -6.80494 0
M  V30 856 N 85.8623 -0.883113 -5.55119 0
M  V30 857 H 78.0133 -1.28332 -1.69247 0
M  V30 858 H 80.2763 -0.521716 -0.791528 0
M  V30 859 H 79.9823 -1.41404 -3.22022 0
M  V30 860 H 79.8563 0.249662 -3.76373 0
M  V30 861 H 82.2433 0.682058 -2.8711 0
M  V30 862 H 82.3243 -1.00734 -2.3513 0
M  V30 863 H 81.9683 -1.74522 -4.76974 0
M  V30 864 H 81.8983 -0.0356152 -5.26588 0
M  V30 865 H 84.3893 -0.428985 -3.75457 0
M  V30 866 H 84.7023 -1.49563 -7.58189 0
M  V30 867 H 83.0473 -1.33824 -6.81994 0
M  V30 868 H 86.2383 -0.615001 -4.64042 0
M  V30 869 H 86.4113 -1.10118 -6.38575 0
M  V30 870 N 79.8174 1.5752 -0.0501392 0
M  V30 871 C 81.0664 1.91827 0.623328 0
M  V30 872 C 81.3794 0.930222 1.72065 0
M  V30 873 O 82.5854 1.1653 2.4522 0
M  V30 874 C 81.0414 3.40692 1.16003 0
M  V30 875 C 80.6494 4.479 0.0948811 0
M  V30 876 C 82.3934 3.84034 1.80881 0
M  V30 877 C 80.3004 5.87879 0.644411 0
M  V30 878 H 79.2304 0.715918 0.236596 0
M  V30 879 H 81.8814 1.83115 -0.118861 0
M  V30 880 H 80.2634 3.44405 1.9545 0
M  V30 881 H 81.4374 4.55775 -0.678675 0
M  V30 882 H 79.7524 4.13892 -0.45637 0
M  V30 883 H 82.3494 4.85984 2.22988 0
M  V30 884 H 82.6924 3.20225 2.6601 0
M  V30 885 H 83.2254 3.82833 1.0809 0
M  V30 886 H 79.9644 6.55282 -0.169229 0
M  V30 887 H 79.4844 5.83567 1.38598 0
M  V30 888 H 81.1634 6.37098 1.12763 0
M  V30 889 N 81.2955 -0.223234 1.56011 0
M  V30 890 C 82.2255 -1.27988 1.95298 0
M  V30 891 C 83.2065 -1.48976 0.820979 0
M  V30 892 O 84.3915 -1.61188 1.08315 0
M  V30 893 C 81.5215 -2.63 2.26822 0
M  V30 894 C 80.4755 -2.56671 3.42497 0
M  V30 895 C 79.8015 -3.95697 3.59622 0
M  V30 896 C 81.1015 -2.11601 4.77517 0
M  V30 897 H 82.7955 -0.953525 2.8381 0
M  V30 898 H 80.3415 -0.457244 1.36548 0
M  V30 899 H 82.2945 -3.37077 2.52898 0
M  V30 900 H 81.0185 -2.9732 1.35161 0
M  V30 901 H 79.6775 -1.85051 3.16467 0
M  V30 902 H 79.3255 -4.27322 2.6534 0
M  V30 903 H 79.0255 -3.92345 4.37424 0
M  V30 904 H 80.5495 -4.71438 3.88044 0
M  V30 905 H 81.9635 -2.7542 5.02809 0
M  V30 906 H 80.3605 -2.19311 5.5859 0
M  V30 907 H 81.4305 -1.06824 4.72987 0
M  V30 908 N 82.7736 -1.49793 -0.48987 0
M  V30 909 C 83.7206 -1.67281 -1.59014 0
M  V30 910 C 84.6906 -0.514177 -1.57941 0
M  V30 911 O 85.8756 -0.742533 -1.75759 0
M  V30 912 C 83.0156 -1.75569 -2.97102 0
M  V30 913 C 82.1286 -3.0281 -3.08107 0
M  V30 914 C 81.2636 -3.02008 -4.36995 0
M  V30 915 C 80.3026 -4.23782 -4.41673 0
M  V30 916 N 79.4396 -4.20826 -5.62005 0
M  V30 917 H 84.2796 -2.61224 -1.43409 0
M  V30 918 H 81.8166 -1.29508 -0.697565 0
M  V30 919 H 83.7746 -1.78354 -3.77155 0
M  V30 920 H 82.4046 -0.850827 -3.11385 0
M  V30 921 H 81.4566 -3.09584 -2.21047 0
M  V30 922 H 82.7686 -3.92801 -3.07423 0
M  V30 923 H 81.9226 -3.03418 -5.25378 0
M  V30 924 H 80.6616 -2.09815 -4.4026 0
M  V30 925 H 79.6666 -4.22604 -3.5169 0
M  V30 926 H 80.8916 -5.17181 -4.40115 0
M  V30 927 H 78.8376 -3.31476 -5.66091 0
M  V30 928 H 78.7546 -5.04564 -5.62984 0
M  V30 929 H 80.0226 -4.26355 -6.52565 0
M  V30 930 N 84.2517 0.741722 -1.39055 0
M  V30 931 C 85.4997 1.49818 -1.35643 0
M  V30 932 C 85.8207 1.94938 0.0491642 0
M  V30 933 O 85.0907 1.68505 0.999141 0
M  V30 934 H 83.6707 0.555755 -0.499144 0
M  V30 935 H 86.3327 0.880957 -1.73854 0
M  V30 936 H 85.4287 2.38348 -2.01486 0
M  V30 937 N 85.7298 1.2412 0.971189 0
M  V30 938 C 86.6618 0.988349 2.06795 0
M  V30 939 C 87.6748 -0.0409541 1.62748 0
M  V30 940 O 88.8638 0.195673 1.77424 0
M  V30 941 C 85.9638 0.469023 3.35639 0
M  V30 942 C 85.1368 1.56065 4.08611 0
M  V30 943 C 84.1958 1.04458 5.15728 0
M  V30 944 O 83.2218 1.73553 5.42096 0
M  V30 945 N 84.4238 -0.122817 5.8037 0
M  V30 946 H 87.1888 1.93265 2.29061 0
M  V30 947 H 84.7498 1.15102 1.13856 0
M  V30 948 H 86.7418 0.108613 4.04554 0
M  V30 949 H 85.3118 -0.380919 3.1027 0
M  V30 950 H 84.5318 2.09341 3.34021 0
M  V30 951 H 85.8198 2.29449 4.54126 0
M  V30 952 H 85.2178 -0.700563 5.61345 0
M  V30 953 H 83.7748 -0.424404 6.50417 0
M  V30 954 N 87.2079 -1.17134 1.05439 0
M  V30 955 C 88.1379 -2.2342 0.678649 0
M  V30 956 C 89.1189 -1.66971 -0.32476 0
M  V30 957 O 90.3039 -1.93149 -0.201802 0
M  V30 958 C 87.4339 -3.47256 0.0552099 0
M  V30 959 C 86.3879 -4.16543 0.98365 0
M  V30 960 C 85.7139 -5.34231 0.223961 0
M  V30 961 C 87.0139 -4.68495 2.3089 0
M  V30 962 H 88.7079 -2.55105 1.56722 0
M  V30 963 H 86.2539 -1.2262 0.754998 0
M  V30 964 H 88.2069 -4.20828 -0.21946 0
M  V30 965 H 86.9309 -3.14846 -0.868319 0
M  V30 966 H 85.5899 -3.44887 1.24293 0
M  V30 967 H 85.2379 -4.98071 -0.702412 0
M  V30 968 H 84.9379 -5.81527 0.842627 0
M  V30 969 H 86.4619 -6.10585 -0.0433671 0
M  V30 970 H 87.8759 -5.33691 2.09396 0
M  V30 971 H 86.2729 -5.26379 2.88176 0
M  V30 972 H 87.3429 -3.85169 2.94572 0
M  V30 973 N 88.686 -0.835752 -1.33615 0
M  V30 974 C 89.636 -0.238856 -2.26745 0
M  V30 975 C 90.62 0.604343 -1.49119 0
M  V30 976 O 91.812 0.456822 -1.71003 0
M  V30 977 C 88.941 0.587725 -3.38232 0
M  V30 978 C 88.027 -0.266811 -4.2326 0
M  V30 979 N 88.418 -1.34403 -4.87616 0
M  V30 980 C 86.716 -0.0533131 -4.45968 0
M  V30 981 C 87.417 -1.86819 -5.50884 0
M  V30 982 N 86.393 -1.17013 -5.30857 0
M  V30 983 H 90.195 -1.06266 -2.74016 0
M  V30 984 H 87.709 -0.679881 -1.47483 0
M  V30 985 H 89.706 1.03161 -4.03935 0
M  V30 986 H 88.366 1.40954 -2.9251 0
M  V30 987 H 89.377 -1.7269 -4.88261 0
M  V30 988 H 86.054 0.735312 -4.10974 0
M  V30 989 H 87.444 -2.7701 -6.1214 0
M  V30 990 N 90.1641 1.46063 -0.591896 0
M  V30 991 C 91.1141 2.27458 0.157172 0
M  V30 992 C 92.0981 1.3641 0.853301 0
M  V30 993 O 93.2901 1.60517 0.74588 0
M  V30 994 C 90.4191 3.22956 1.16423 0
M  V30 995 C 89.5051 4.2149 0.469742 0
M  V30 996 N 89.8961 5.03519 -0.479839 0
M  V30 997 C 88.1941 4.40161 0.719319 0
M  V30 998 C 88.8951 5.74904 -0.886591 0
M  V30 999 N 87.8711 5.43097 -0.233731 0
M  V30 1000 H 91.6731 2.88272 -0.572392 0
M  V30 1001 H 89.1871 1.57024 -0.414375 0
M  V30 1002 H 91.1841 3.79986 1.71513 0
M  V30 1003 H 89.8441 2.63701 1.89451 0
M  V30 1004 H 90.8551 5.1078 -0.855823 0
M  V30 1005 H 87.5321 3.92046 1.43548 0
M  V30 1006 H 88.9221 6.50844 -1.66888 0
M  V30 1007 N 91.6422 0.330177 1.54103 0
M  V30 1008 C 92.5902 -0.548226 2.26047 0
M  V30 1009 C 93.5842 -1.11309 1.27698 0
M  V30 1010 O 94.7902 -1.06036 1.45452 0
M  V30 1011 H 91.1652 -0.195456 0.726155 0
M  V30 1012 H 93.1362 0.0807567 2.98291 0
M  V30 1013 C 91.8852 -1.69415 3.03634 0
M  V30 1014 H 91.2082 -1.26876 3.79134 0
M  V30 1015 H 92.6482 -2.28423 3.5721 0
M  V30 1016 C 91.1072 -2.61569 2.12328 0
M  V30 1017 O 91.6372 -3.63462 1.7105 0
M  V30 1018 N 89.8432 -2.29952 1.77681 0
M  V30 1019 H 89.3902 -1.47134 2.11446 0
M  V30 1020 H 89.3482 -2.91871 1.16869 0
M  V30 1021 N 93.1203 -1.57491 0.0584922 0
M  V30 1022 C 94.5313 -1.80526 -0.476138 0
M  V30 1023 C 94.8823 -0.971334 -1.70469 0
M  V30 1024 O 94.0073 -0.190012 -2.15564 0
M  V30 1025 C 94.6023 -3.27424 -0.870587 0
M  V30 1026 C 93.1613 -3.51351 -1.35015 0
M  V30 1027 C 92.3083 -2.75343 -0.32887 0
M  V30 1028 H 95.2593 -1.56133 0.284312 0
M  V30 1029 H 95.2803 -3.38745 -1.73299 0
M  V30 1030 H 94.7923 -3.88093 0.0237627 0
M  V30 1031 H 92.8933 -2.95971 -2.26345 0
M  V30 1032 H 93.0063 -4.60059 -1.33726 0
M  V30 1033 H 91.3703 -2.417 -0.803321 0
M  V30 1034 H 92.1533 -3.38743 0.557521 0
M  V30 1035 N 94.5984 0.214957 -1.56127 0
M  V30 1036 C 95.8464 0.936518 -1.79091 0
M  V30 1037 C 96.1674 1.84606 -0.628148 0
M  V30 1038 O 95.4374 1.92664 0.35462 0
M  V30 1039 H 94.0174 0.3488 -0.660566 0
M  V30 1040 H 96.6794 0.22523 -1.93594 0
M  V30 1041 H 95.7754 1.53943 -2.71492 0
M  V30 1042 N 96.0765 1.50051 0.48192 0
M  V30 1043 C 96.9865 1.7089 1.60728 0
M  V30 1044 C 98.0025 0.591788 1.63627 0
M  V30 1045 O 99.1785 0.868817 1.81696 0
M  V30 1046 C 96.2435 1.78855 2.97005 0
M  V30 1047 C 95.3045 3.02537 3.04581 0
M  V30 1048 C 94.5375 3.10112 4.34357 0
M  V30 1049 O 94.7605 2.24765 5.24249 0
M  V30 1050 O 93.6945 4.02747 4.47301 0
M  V30 1051 H 97.5205 2.66264 1.46072 0
M  V30 1052 H 95.1055 1.34018 0.660264 0
M  V30 1053 H 96.9875 1.86336 3.77964 0
M  V30 1054 H 95.6625 0.866628 3.11883 0
M  V30 1055 H 94.5695 3.00563 2.22739 0
M  V30 1056 H 95.9025 3.94272 2.94636 0
M  V30 1057 N 97.5546 -0.734337 1.39446 0
M  V30 1058 C 98.4646 -1.87879 1.40495 0
M  V30 1059 C 99.4806 -1.714 0.299672 0
M  V30 1060 O 100.657 -1.93991 0.541249 0
M  V30 1061 C 97.7216 -3.23477 1.24754 0
M  V30 1062 C 96.7826 -3.52344 2.45259 0
M  V30 1063 C 96.0156 -4.81473 2.30259 0
M  V30 1064 O 96.2386 -5.55237 1.30643 0
M  V30 1065 O 95.1726 -5.10254 3.19256 0
M  V30 1066 H 98.9986 -1.89949 2.36966 0
M  V30 1067 H 96.5836 -0.882243 1.20569 0
M  V30 1068 H 98.4656 -4.04509 1.18111 0
M  V30 1069 H 97.1406 -3.22176 0.313781 0
M  V30 1070 H 96.0476 -2.71396 2.57478 0
M  V30 1071 H 97.3806 -3.58426 3.37331 0
M  V30 1072 N 99.0327 -1.24633 -0.964593 0
M  V30 1073 C 100.261 -1.11501 -1.74285 0
M  V30 1074 C 100.676 0.332165 -1.85855 0
M  V30 1075 O 100.033 1.22903 -1.34911 0
M  V30 1076 C 100.084 -1.75258 -3.16175 0
M  V30 1077 O 99.8047 -3.14318 -3.05182 0
M  V30 1078 C 101.306 -1.67776 -4.10324 0
M  V30 1079 H 98.5257 -0.389407 -0.546446 0
M  V30 1080 H 101.07 -1.64801 -1.21083 0
M  V30 1081 H 99.2247 -1.25954 -3.66353 0
M  V30 1082 H 99.6387 -3.4551 -3.94618 0
M  V30 1083 H 101.113 -2.17064 -5.0753 0
M  V30 1084 H 101.59 -0.639584 -4.34518 0
M  V30 1085 H 102.196 -2.16522 -3.66058 0
M  V30 1086 N 100.511 1.16574 -1.06058 0
M  V30 1087 C 101.927 1.3904 -0.783585 0
M  V30 1088 C 102.127 1.91784 0.618145 0
M  V30 1089 O 101.183 2.11511 1.37911 0
M  V30 1090 C 102.496 2.37329 -1.84649 0
M  V30 1091 C 104.044 2.51018 -1.86973 0
M  V30 1092 C 104.519 3.52588 -2.92311 0
M  V30 1093 N 106.01 3.60113 -2.91329 0
M  V30 1094 C 106.745 4.38486 -3.69482 0
M  V30 1095 N 106.241 5.20302 -4.57447 0
M  V30 1096 N 108.034 4.33446 -3.57885 0
M  V30 1097 H 100.185 0.806725 -1.96483 0
M  V30 1098 H 102.448 0.417117 -0.851303 0
M  V30 1099 H 102.154 2.05663 -2.85299 0
M  V30 1100 H 102.028 3.36946 -1.6955 0
M  V30 1101 H 104.415 2.81989 -0.869827 0
M  V30 1102 H 104.496 1.51445 -2.0615 0
M  V30 1103 H 104.14 3.22354 -3.92492 0
M  V30 1104 H 104.07 4.51886 -2.70383 0
M  V30 1105 H 106.561 3.01707 -2.27555 0
M  V30 1106 H 106.874 5.77311 -5.13743 0
M  V30 1107 H 105.219 5.19653 -4.61503 0
M  V30 1108 H 108.41 3.68586 -2.88551 0
M  V30 1109 H 108.583 4.94279 -4.19037 0
M  V30 1110 N 101.989 0.842826 1.3317 0
M  V30 1111 C 102.919 0.294028 2.31641 0
M  V30 1112 C 103.9 -0.600401 1.59151 0
M  V30 1113 O 105.085 -0.523124 1.87022 0
M  V30 1114 C 102.215 -0.528416 3.43257 0
M  V30 1115 C 101.169 0.27056 4.27144 0
M  V30 1116 C 100.495 -0.675881 5.30411 0
M  V30 1117 C 101.795 1.48981 5.00602 0
M  V30 1118 H 103.489 1.11681 2.77791 0
M  V30 1119 H 101.035 0.538478 1.33553 0
M  V30 1120 H 102.988 -0.922674 4.11175 0
M  V30 1121 H 101.712 -1.38445 2.95805 0
M  V30 1122 H 100.371 0.646427 3.60856 0
M  V30 1123 H 100.019 -1.52842 4.79216 0
M  V30 1124 H 99.7189 -0.145374 5.8742 0
M  V30 1125 H 101.243 -1.06757 6.01195 0
M  V30 1126 H 102.657 1.16849 5.61266 0
M  V30 1127 H 101.054 1.95739 5.6728 0
M  V30 1128 H 102.124 2.25746 4.29147 0
M  V30 1129 N 103.467 -1.45747 0.599634 0
M  V30 1130 C 104.377 -2.34262 -0.125888 0
M  V30 1131 C 105.393 -1.50768 -0.868625 0
M  V30 1132 O 106.569 -1.83592 -0.828003 0
M  V30 1133 C 103.634 -3.28252 -1.11587 0
M  V30 1134 C 102.695 -4.27651 -0.375956 0
M  V30 1135 C 101.928 -5.1715 -1.31877 0
M  V30 1136 O 102.151 -5.09916 -2.55621 0
M  V30 1137 O 101.085 -5.96286 -0.820157 0
M  V30 1138 H 104.911 -2.97688 0.601315 0
M  V30 1139 H 102.496 -1.44999 0.359934 0
M  V30 1140 H 104.378 -3.86191 -1.68626 0
M  V30 1141 H 103.053 -2.67401 -1.82424 0
M  V30 1142 H 101.96 -3.7335 0.236698 0
M  V30 1143 H 103.293 -4.91334 0.29177 0
M  V30 1144 N 104.945 -0.338344 -1.53925 0
M  V30 1145 C 105.878 0.563758 -2.21127 0
M  V30 1146 C 106.856 1.10433 -1.19345 0
M  V30 1147 O 108.04 1.16557 -1.48144 0
M  V30 1148 C 105.167 1.77505 -2.88461 0
M  V30 1149 C 104.213 1.3644 -4.04087 0
M  V30 1150 S 105.046 0.388593 -5.34088 0
M  V30 1151 C 106.202 1.60683 -6.04923 0
M  V30 1152 H 106.435 -0.00704546 -2.97299 0
M  V30 1153 H 103.968 -0.122418 -1.53914 0
M  V30 1154 H 105.926 2.46999 -3.27875 0
M  V30 1155 H 104.587 2.31706 -2.12064 0
M  V30 1156 H 103.78 2.26739 -4.50117 0
M  V30 1157 H 103.382 0.748998 -3.66423 0
M  V30 1158 H 105.674 2.54209 -6.28 0
M  V30 1159 H 106.617 1.18842 -6.98056 0
M  V30 1160 H 107.025 1.80052 -5.35015 0
M  V30 1161 N 106.423 1.57458 -0.0668435 0
M  V30 1162 C 107.7 1.8469 0.644132 0
M  V30 1163 C 108.08 0.958343 1.88093 0
M  V30 1164 O 107.428 0.0233579 2.28488 0
M  V30 1165 C 107.638 3.34767 0.986509 0
M  V30 1166 C 108.986 4.02159 1.36212 0
M  V30 1167 O 110.01 3.39484 1.07839 0
M  V30 1168 O 108.869 5.12694 1.89227 0
M  V30 1169 H 105.963 0.762816 0.319437 0
M  V30 1170 H 108.509 1.6942 -0.0973986 0
M  V30 1171 H 107.281 3.91151 0.107883 0
M  V30 1172 H 106.904 3.55281 1.78497 0
M  V30 1173 N 107.901 -0.206675 1.56239 0
M  V30 1174 C 108.848 -1.25617 1.93621 0
M  V30 1175 C 109.818 -1.45824 0.795274 0
M  V30 1176 O 111.003 -1.59148 1.05245 0
M  V30 1177 C 108.143 -2.59839 2.27107 0
M  V30 1178 C 107.256 -2.47308 3.54207 0
M  V30 1179 C 106.391 -3.74155 3.7707 0
M  V30 1180 C 105.43 -3.56407 4.97635 0
M  V30 1181 N 104.567 -4.75238 5.1681 0
M  V30 1182 H 109.407 -0.930383 2.83104 0
M  V30 1183 H 106.944 -0.448065 1.4011 0
M  V30 1184 H 108.902 -3.38021 2.44535 0
M  V30 1185 H 107.532 -2.90485 1.40778 0
M  V30 1186 H 106.584 -1.60483 3.4489 0
M  V30 1187 H 107.896 -2.30122 4.42544 0
M  V30 1188 H 107.05 -4.60778 3.94675 0
M  V30 1189 H 105.789 -3.94282 2.87042 0
M  V30 1190 H 104.794 -2.68168 4.79964 0
M  V30 1191 H 106.019 -3.37736 5.89161 0
M  V30 1192 H 103.965 -4.95651 4.29728 0
M  V30 1193 H 103.882 -4.60835 5.99306 0
M  V30 1194 H 105.15 -5.63246 5.38864 0
M  V30 1195 N 109.379 -1.50304 -0.473955 0
M  V30 1196 C 110.626 -1.6115 -1.22625 0
M  V30 1197 C 110.954 -0.310517 -1.92005 0
M  V30 1198 O 110.209 0.703419 -1.82621 0
M  V30 1199 C 110.508 -2.73938 -2.29549 0
M  V30 1200 C 110.174 -4.14519 -1.7744 0
M  V30 1201 C 108.836 -4.5277 -1.62949 0
M  V30 1202 C 111.188 -5.02392 -1.3875 0
M  V30 1203 C 108.516 -5.76639 -1.08187 0
M  V30 1204 C 110.868 -6.26805 -0.854309 0
M  V30 1205 C 109.532 -6.63861 -0.696011 0
M  V30 1206 H 108.802 -0.589691 -0.448715 0
M  V30 1207 H 111.449 -1.84228 -0.522705 0
M  V30 1208 H 109.754 -2.44937 -3.05799 0
M  V30 1209 H 111.451 -2.79534 -2.87509 0
M  V30 1210 H 108.041 -3.8434 -1.89685 0
M  V30 1211 H 112.225 -4.73474 -1.4878 0
M  V30 1212 H 107.481 -6.04027 -0.946666 0
M  V30 1213 H 111.655 -6.94258 -0.545843 0
M  V30 1214 H 109.282 -7.59722 -0.26952 0
M  V30 1215 N 110.857 0.726932 -1.39834 0
M  V30 1216 C 112.268 1.30558 -1.3346 0
M  V30 1217 C 112.619 1.962 -0.00273003 0
M  V30 1218 O 111.744 1.96826 0.899371 0
M  V30 1219 C 112.339 2.37404 -2.41713 0
M  V30 1220 C 110.898 2.90921 -2.38835 0
M  V30 1221 C 110.045 1.64578 -2.2318 0
M  V30 1222 H 112.996 0.523862 -1.49804 0
M  V30 1223 H 113.017 3.17984 -2.08966 0
M  V30 1224 H 112.529 1.89599 -3.38635 0
M  V30 1225 H 110.63 3.42985 -1.45575 0
M  V30 1226 H 110.743 3.43487 -3.33997 0
M  V30 1227 H 109.107 1.89219 -1.70494 0
M  V30 1228 H 109.89 1.18814 -3.22084 0
M  V30 1229 N 112.336 1.25143 0.95797 0
M  V30 1230 C 113.583 1.09692 1.70217 0
M  V30 1231 C 113.911 -0.362654 1.91089 0
M  V30 1232 O 113.166 -1.28386 1.47701 0
M  V30 1233 C 113.465 1.79272 3.09187 0
M  V30 1234 C 113.131 3.29196 3.08125 0
M  V30 1235 C 111.793 3.70096 3.07543 0
M  V30 1236 C 114.145 4.24995 3.0171 0
M  V30 1237 C 111.473 5.05213 2.9829 0
M  V30 1238 C 113.825 5.60132 2.93999 0
M  V30 1239 C 112.489 6.00365 2.9175 0
M  V30 1240 H 111.759 0.401393 0.622868 0
M  V30 1241 H 114.406 1.55372 1.11945 0
M  V30 1242 H 112.711 1.26014 3.70982 0
M  V30 1243 H 114.408 1.64773 3.65583 0
M  V30 1244 H 110.998 2.96651 3.09348 0
M  V30 1245 H 115.182 3.9439 3.01281 0
M  V30 1246 H 110.438 5.35569 2.94916 0
M  V30 1247 H 114.612 6.3406 2.87996 0
M  V30 1248 H 112.239 7.05023 2.84336 0
M  V30 1249 N 113.814 -1.1601 1.06675 0
M  V30 1250 C 115.06 -1.86909 0.786945 0
M  V30 1251 C 115.393 -1.81717 -0.685018 0
M  V30 1252 O 114.668 -1.23551 -1.50218 0
M  V30 1253 C 114.951 -3.36313 1.28707 0
M  V30 1254 C 114.804 -3.50175 2.82308 0
M  V30 1255 C 116.123 -4.3084 0.898071 0
M  V30 1256 H 113.242 -0.678677 0.287343 0
M  V30 1257 H 115.884 -1.36336 1.32334 0
M  V30 1258 H 114.034 -3.79513 0.830768 0
M  V30 1259 H 115.706 -3.15886 3.36175 0
M  V30 1260 H 113.949 -2.91959 3.20847 0
M  V30 1261 H 114.62 -4.55116 3.12368 0
M  V30 1262 H 117.096 -3.95561 1.29114 0
M  V30 1263 H 115.972 -5.33876 1.27543 0
M  V30 1264 H 116.233 -4.41662 -0.196651 0
M  V30 1265 N 115.292 -0.849877 -1.32721 0
M  V30 1266 C 116.255 -0.296122 -2.27279 0
M  V30 1267 C 117.255 0.541458 -1.5141 0
M  V30 1268 O 118.445 0.353658 -1.70572 0
M  V30 1269 C 115.577 0.581579 -3.35902 0
M  V30 1270 H 116.77 -1.13064 -2.77771 0
M  V30 1271 H 114.323 -0.62383 -1.43311 0
M  V30 1272 H 115.058 1.43809 -2.9067 0
M  V30 1273 H 114.843 -0.0178814 -3.92096 0
M  V30 1274 H 116.333 0.961951 -4.0637 0
M  V30 1275 N 116.77 1.45427 -0.607355 0
M  V30 1276 C 117.7 2.3329 0.0989352 0
M  V30 1277 C 118.681 1.46816 0.859007 0
M  V30 1278 O 119.866 1.75588 0.829604 0
M  V30 1279 C 116.996 3.29518 1.09705 0
M  V30 1280 C 115.95 4.25626 0.450206 0
M  V30 1281 C 115.276 5.11542 1.55655 0
M  V30 1282 C 116.576 5.18505 -0.628455 0
M  V30 1283 H 118.27 2.92595 -0.634716 0
M  V30 1284 H 115.816 1.40696 -0.306681 0
M  V30 1285 H 117.769 3.89855 1.59971 0
M  V30 1286 H 116.493 2.68372 1.86129 0
M  V30 1287 H 115.152 3.66586 -0.0315886 0
M  V30 1288 H 114.8 4.46765 2.31107 0
M  V30 1289 H 114.5 5.76647 1.12925 0
M  V30 1290 H 116.024 5.74748 2.06148 0
M  V30 1291 H 117.438 5.72916 -0.209877 0
M  V30 1292 H 115.835 5.92085 -0.977489 0
M  V30 1293 H 116.905 4.60948 -1.50514 0
M  V30 1294 N 118.248 0.346503 1.53744 0
M  V30 1295 C 119.473 -0.253074 2.0585 0
M  V30 1296 C 119.898 -1.43202 1.21962 0
M  V30 1297 O 119.256 -1.79783 0.234073 0
M  V30 1298 C 119.304 -0.643193 3.54817 0
M  V30 1299 O 118.408 -1.74286 3.73762 0
M  V30 1300 H 117.749 -0.0413583 0.662711 0
M  V30 1301 H 120.279 0.501574 1.98357 0
M  V30 1302 H 120.289 -0.919526 3.97503 0
M  V30 1303 H 118.964 0.218966 4.15323 0
M  V30 1304 H 117.541 -1.46356 3.42979 0
M  V30 1305 N 119.726 -1.57421 0.075193 0
M  V30 1306 C 120.673 -2.12915 -0.890843 0
M  V30 1307 C 121.643 -1.04252 -1.29309 0
M  V30 1308 O 122.828 -1.31933 -1.37834 0
M  V30 1309 C 119.968 -2.69795 -2.15186 0
M  V30 1310 C 119.081 -3.92624 -1.80194 0
M  V30 1311 C 118.216 -4.37736 -3.00933 0
M  V30 1312 C 117.255 -5.53205 -2.61974 0
M  V30 1313 N 116.392 -5.9326 -3.75483 0
M  V30 1314 H 121.232 -2.95156 -0.410735 0
M  V30 1315 H 118.769 -1.45854 -0.191086 0
M  V30 1316 H 120.727 -3.00883 -2.89008 0
M  V30 1317 H 119.357 -1.90313 -2.60731 0
M  V30 1318 H 118.409 -3.67977 -0.964218 0
M  V30 1319 H 119.721 -4.76482 -1.47534 0
M  V30 1320 H 118.875 -4.70503 -3.8303 0
M  V30 1321 H 117.614 -3.52739 -3.36789 0
M  V30 1322 H 116.619 -5.20086 -1.783 0
M  V30 1323 H 117.844 -6.39936 -2.27284 0
M  V30 1324 H 115.79 -5.11212 -4.11094 0
M  V30 1325 H 115.707 -6.71865 -3.46602 0
M  V30 1326 H 116.975 -6.30651 -4.58148 0
M  V30 1327 N 121.204 0.198386 -1.56346 0
M  V30 1328 C 122.432 0.935572 -1.84539 0
M  V30 1329 C 122.847 1.76989 -0.657281 0
M  V30 1330 O 122.204 1.78626 0.374043 0
M  V30 1331 C 122.255 1.8344 -3.11499 0
M  V30 1332 O 121.976 1.03377 -4.25728 0
M  V30 1333 C 123.477 2.68355 -3.52846 0
M  V30 1334 H 120.697 0.273126 -0.612897 0
M  V30 1335 H 123.241 0.20663 -2.03453 0
M  V30 1336 H 121.396 2.51701 -2.94492 0
M  V30 1337 H 121.81 1.64599 -4.98003 0
M  V30 1338 H 123.284 3.27085 -4.44657 0
M  V30 1339 H 123.761 3.41901 -2.75681 0
M  V30 1340 H 124.367 2.05471 -3.72373 0
M  V30 1341 N 122.682 1.50554 0.465978 0
M  V30 1342 C 123.912 1.65323 1.23903 0
M  V30 1343 C 124.32 0.338051 1.86155 0
M  V30 1344 O 123.663 -0.690518 1.70228 0
M  V30 1345 C 123.725 2.69048 2.3844 0
M  V30 1346 C 123.389 4.12462 1.96784 0
M  V30 1347 C 124.386 4.98168 1.48745 0
M  V30 1348 C 122.071 4.58407 2.05349 0
M  V30 1349 C 124.065 6.27868 1.0982 0
M  V30 1350 C 121.752 5.88112 1.66035 0
M  V30 1351 C 122.75 6.72668 1.18349 0
M  V30 1352 O 122.438 7.99951 0.795825 0
M  V30 1353 H 122.17 0.558629 0.38067 0
M  V30 1354 H 124.724 1.97561 0.562022 0
M  V30 1355 H 122.954 2.32062 3.09328 0
M  V30 1356 H 124.643 2.72985 3.0039 0
M  V30 1357 H 125.409 4.63885 1.41546 0
M  V30 1358 H 121.288 3.92735 2.41414 0
M  V30 1359 H 124.832 6.93819 0.725293 0
M  V30 1360 H 120.729 6.21914 1.72895 0
M  V30 1361 H 121.497 8.13265 0.924222 0
M  V30 1362 N 124.16 -0.719506 1.40217 0
M  V30 1363 C 125.108 -1.85493 1.40339 0
M  V30 1364 C 126.102 -1.66995 0.284415 0
M  V30 1365 O 127.308 -1.74148 0.455252 0
M  V30 1366 H 123.683 -0.610857 0.438586 0
M  V30 1367 H 125.654 -1.82506 2.36081 0
M  V30 1368 C 124.403 -3.23321 1.27901 0
M  V30 1369 H 123.726 -3.38159 2.1328 0
M  V30 1370 H 125.166 -4.02914 1.32045 0
M  V30 1371 C 123.625 -3.36898 -0.0111355 0
M  V30 1372 O 124.155 -3.89674 -0.975538 0
M  V30 1373 N 122.361 -2.90492 -0.0793393 0
M  V30 1374 H 121.908 -2.47731 0.706183 0
M  V30 1375 H 121.866 -2.99955 -0.942038 0
M  V30 1376 N 125.638 -1.25649 -0.95132 0
M  V30 1377 C 126.866 -1.13343 -1.73092 0
M  V30 1378 C 127.281 0.312434 -1.86197 0
M  V30 1379 O 126.638 1.21465 -1.36207 0
M  V30 1380 C 126.689 -1.78602 -3.14299 0
M  V30 1381 O 126.41 -3.17537 -3.01831 0
M  V30 1382 C 127.911 -1.72119 -4.08522 0
M  V30 1383 H 125.131 -0.395181 -0.542285 0
M  V30 1384 H 127.675 -1.66076 -1.19328 0
M  V30 1385 H 125.83 -1.29832 -3.64996 0
M  V30 1386 H 126.244 -3.49676 -3.90931 0
M  V30 1387 H 127.718 -2.22435 -5.052 0
M  V30 1388 H 128.195 -0.685635 -4.33815 0
M  V30 1389 H 128.801 -2.20393 -3.63741 0
M  V30 1390 N 127.117 1.15442 -1.07289 0
M  V30 1391 C 128.065 2.22225 -0.686952 0
M  V30 1392 C 129.059 1.66688 0.30193 0
M  V30 1393 O 130.265 1.79236 0.165712 0
M  V30 1394 H 126.64 0.723783 -0.204064 0
M  V30 1395 H 128.611 2.52056 -1.5972 0
M  V30 1396 C 127.36 3.47556 -0.100149 0
M  V30 1397 H 126.683 3.90612 -0.852211 0
M  V30 1398 H 128.123 4.23794 0.132235 0
M  V30 1399 C 126.582 3.16337 1.159 0
M  V30 1400 O 127.112 3.33074 2.24555 0
M  V30 1401 N 125.318 2.70385 1.06491 0
M  V30 1402 H 124.865 2.56966 0.180668 0
M  V30 1403 H 124.823 2.49871 1.90819 0
M  V30 1404 N 128.595 0.856903 1.32268 0
M  V30 1405 C 129.558 0.308171 2.27119 0
M  V30 1406 C 130.558 -0.533421 1.51695 0
M  V30 1407 O 131.748 -0.344607 1.70757 0
M  V30 1408 C 128.88 -0.563757 3.36206 0
M  V30 1409 H 130.073 1.14535 2.77167 0
M  V30 1410 H 127.626 0.631421 1.42978 0
M  V30 1411 H 128.361 -1.42266 2.91429 0
M  V30 1412 H 128.146 0.0386749 3.92081 0
M  V30 1413 H 129.636 -0.940386 4.06874 0
M  V30 1414 N 130.073 -1.45103 0.615059 0
M  V30 1415 C 131.005 -2.28786 -0.13762 0
M  V30 1416 C 132.018 -1.40376 -0.824525 0
M  V30 1417 O 133.207 -1.64681 -0.688662 0
M  V30 1418 C 130.307 -3.16322 -1.21628 0
M  V30 1419 C 129.48 -4.33054 -0.615039 0
M  V30 1420 C 128.539 -5.01743 -1.58556 0
M  V30 1421 O 127.565 -5.58293 -1.10895 0
M  V30 1422 N 128.767 -5.01714 -2.91998 0
M  V30 1423 H 131.532 -2.94025 0.580483 0
M  V30 1424 H 129.093 -1.55373 0.45507 0
M  V30 1425 H 131.085 -3.59139 -1.86552 0
M  V30 1426 H 129.655 -2.52943 -1.83681 0
M  V30 1427 H 128.875 -3.93627 0.21245 0
M  V30 1428 H 130.163 -5.08431 -0.193704 0
M  V30 1429 H 129.561 -4.57075 -3.33316 0
M  V30 1430 H 128.118 -5.48371 -3.52325 0
M  V30 1431 N 131.551 -0.354651 -1.53558 0
M  V30 1432 C 132.797 0.238797 -2.01389 0
M  V30 1433 C 133.13 1.49309 -1.2418 0
M  V30 1434 O 132.405 1.91638 -0.332457 0
M  V30 1435 C 132.688 0.541771 -3.56001 0
M  V30 1436 C 132.541 -0.725388 -4.43912 0
M  V30 1437 C 133.86 1.34685 -4.18984 0
M  V30 1438 H 130.979 0.0853177 -0.732045 0
M  V30 1439 H 133.621 -0.477384 -1.83905 0
M  V30 1440 H 131.771 1.15189 -3.71031 0
M  V30 1441 H 133.443 -1.36313 -4.407 0
M  V30 1442 H 131.686 -1.34801 -4.12324 0
M  V30 1443 H 132.357 -0.468505 -5.50008 0
M  V30 1444 H 134.833 0.830837 -4.07721 0
M  V30 1445 H 133.709 1.52759 -5.27215 0
M  V30 1446 H 133.97 2.35221 -3.74331 0
M  V30 1447 N 133.029 1.57378 -0.0835403 0
M  V30 1448 C 134.44 1.81261 0.447358 0
M  V30 1449 C 134.791 0.998331 1.68902 0
M  V30 1450 O 133.916 0.224282 2.15235 0
M  V30 1451 C 134.511 3.28767 0.818386 0
M  V30 1452 C 133.07 3.53455 1.29409 0
M  V30 1453 C 132.217 2.75831 0.285024 0
M  V30 1454 H 135.168 1.5566 -0.309115 0
M  V30 1455 H 135.189 3.41459 1.67887 0
M  V30 1456 H 134.701 3.88006 -0.0855019 0
M  V30 1457 H 132.802 2.99534 2.21608 0
M  V30 1458 H 132.915 4.62128 1.2639 0
M  V30 1459 H 131.279 2.42947 0.764767 0
M  V30 1460 H 132.062 3.37813 -0.611341 0
M  V30 1461 N 134.507 -0.190092 1.56449 0
M  V30 1462 C 135.784 -0.935886 1.71757 0
M  V30 1463 C 136.164 -2.01173 0.639726 0
M  V30 1464 O 135.512 -2.25827 -0.348502 0
M  V30 1465 C 135.722 -1.51775 3.1427 0
M  V30 1466 C 137.07 -1.99794 3.74656 0
M  V30 1467 O 138.094 -1.61607 3.1743 0
M  V30 1468 O 136.953 -2.70079 4.751 0
M  V30 1469 H 134.047 -0.439229 0.700719 0
M  V30 1470 H 136.593 -0.179395 1.68749 0
M  V30 1471 H 135.365 -0.742505 3.84191 0
M  V30 1472 H 134.988 -2.33894 3.21527 0
M  V30 1473 N 135.985 -1.50799 -0.457987 0
M  V30 1474 C 137.21 -1.66496 -1.23668 0
M  V30 1475 C 137.635 -0.353288 -1.84752 0
M  V30 1476 O 136.993 0.684346 -1.67888 0
M  V30 1477 C 137.041 -2.76763 -2.3116 0
M  V30 1478 O 136.145 -2.38928 -3.36136 0
M  V30 1479 H 135.486 -0.555828 -0.363252 0
M  V30 1480 H 138.016 -1.9725 -0.543474 0
M  V30 1481 H 138.026 -3.00232 -2.76269 0
M  V30 1482 H 136.701 -3.71954 -1.86073 0
M  V30 1483 H 135.278 -2.25953 -2.96647 0
M  V30 1484 N 137.463 0.71206 -1.40597 0
M  V30 1485 C 138.426 1.80785 -1.40888 0
M  V30 1486 C 139.426 1.57937 -0.302103 0
M  V30 1487 O 140.616 1.64913 -0.561182 0
M  V30 1488 C 137.748 3.18927 -1.20409 0
M  V30 1489 H 138.941 1.81924 -2.38419 0
M  V30 1490 H 136.494 0.91805 -1.26497 0
M  V30 1491 H 137.229 3.23436 -0.236522 0
M  V30 1492 H 137.014 3.36911 -2.00582 0
M  V30 1493 H 138.504 3.98949 -1.23408 0
M  V30 1494 N 138.941 1.26152 0.944643 0
M  V30 1495 C 140.189 1.11271 1.6871 0
M  V30 1496 C 140.51 -0.345166 1.91921 0
M  V30 1497 O 139.78 -1.24387 1.51343 0
M  V30 1498 H 138.36 0.408783 0.625224 0
M  V30 1499 H 141.022 1.58427 1.1352 0
M  V30 1500 H 140.118 1.62879 2.66227 0
M  V30 1501 N 140.419 -1.14872 1.07899 0
M  V30 1502 C 141.647 -1.89661 0.82683 0
M  V30 1503 C 142.062 -1.78312 -0.620519 0
M  V30 1504 O 141.419 -1.13888 -1.42604 0
M  V30 1505 C 141.47 -3.39817 1.23316 0
M  V30 1506 O 141.191 -3.50845 2.62372 0
M  V30 1507 C 142.692 -4.31615 1.0111 0
M  V30 1508 H 139.912 -0.60092 0.298557 0
M  V30 1509 H 142.456 -1.4551 1.43691 0
M  V30 1510 H 140.611 -3.8161 0.667286 0
M  V30 1511 H 141.025 -4.44076 2.79101 0
M  V30 1512 H 142.499 -5.35367 1.34486 0
M  V30 1513 H 142.976 -4.39169 -0.0522168 0
M  V30 1514 H 143.582 -3.95572 1.56215 0
M  V30 1515 N 141.898 -0.863906 -1.31812 0
M  V30 1516 C 142.861 -0.320212 -2.26952 0
M  V30 1517 C 143.861 0.525369 -1.51975 0
M  V30 1518 O 145.051 0.335547 -1.70938 0
M  V30 1519 C 142.183 0.545919 -3.365 0
M  V30 1520 H 143.376 -1.16004 -2.76556 0
M  V30 1521 H 140.929 -0.638995 -1.42641 0
M  V30 1522 H 141.664 1.40718 -2.92179 0
M  V30 1523 H 141.449 -0.0594674 -3.92055 0
M  V30 1524 H 142.939 0.918796 -4.07367 0
M  V30 1525 N 143.376 1.44774 -0.622745 0
M  V30 1526 C 144.604 2.06487 -0.130722 0
M  V30 1527 C 145.019 1.46476 1.19123 0
M  V30 1528 O 144.376 0.584502 1.72887 0
M  V30 1529 C 144.427 3.615 -0.000807207 0
M  V30 1530 O 144.148 4.19274 -1.27048 0
M  V30 1531 C 145.649 4.40229 0.520898 0
M  V30 1532 H 142.869 0.666704 -0.0758106 0
M  V30 1533 H 145.413 1.85779 -0.854774 0
M  V30 1534 H 143.568 3.81498 0.673643 0
M  V30 1535 H 143.982 5.12622 -1.1099 0
M  V30 1536 H 145.456 5.49144 0.560838 0
M  V30 1537 H 145.933 4.1108 1.54627 0
M  V30 1538 H 146.539 4.25131 -0.120018 0
M  V30 1539 N 144.854 0.36279 1.53368 0
M  V30 1540 C 145.817 -0.472679 2.24273 0
M  V30 1541 C 146.817 -1.012 1.24961 0
M  V30 1542 O 148.007 -0.898194 1.49259 0
M  V30 1543 C 145.139 -1.66039 2.97731 0
M  V30 1544 H 146.332 0.14773 2.99536 0
M  V30 1545 H 143.885 0.114434 1.55881 0
M  V30 1546 H 144.62 -2.31896 2.26704 0
M  V30 1547 H 144.405 -1.28066 3.70596 0
M  V30 1548 H 145.895 -2.25252 3.51641 0
M  V30 1549 N 146.332 -1.57332 0.0918853 0
M  V30 1550 C 147.562 -1.98286 -0.580205 0
M  V30 1551 C 147.97 -0.969713 -1.6246 0
M  V30 1552 O 147.313 0.0493501 -1.83634 0
M  V30 1553 C 147.375 -3.35603 -1.28882 0
M  V30 1554 C 147.039 -4.55285 -0.395559 0
M  V30 1555 C 148.036 -5.18687 0.355002 0
M  V30 1556 C 145.721 -5.01314 -0.314556 0
M  V30 1557 C 147.715 -6.26484 1.17458 0
M  V30 1558 C 145.402 -6.08979 0.508677 0
M  V30 1559 C 146.4 -6.71429 1.2519 0
M  V30 1560 O 146.088 -7.77018 2.06151 0
M  V30 1561 H 145.82 -0.656678 -0.160466 0
M  V30 1562 H 148.374 -2.04721 0.16688 0
M  V30 1563 H 146.604 -3.25842 -2.08241 0
M  V30 1564 H 148.293 -3.61026 -1.85512 0
M  V30 1565 H 149.059 -4.84058 0.302134 0
M  V30 1566 H 144.938 -4.5247 -0.882697 0
M  V30 1567 H 148.482 -6.75159 1.75518 0
M  V30 1568 H 144.379 -6.4304 0.563037 0
M  V30 1569 H 145.147 -7.93991 1.98799 0
M  V30 1570 N 147.81 0.181792 -1.56548 0
M  V30 1571 C 148.74 1.22765 -1.98623 0
M  V30 1572 C 149.721 1.46747 -0.860189 0
M  V30 1573 O 150.906 1.58259 -1.12551 0
M  V30 1574 C 148.036 2.56894 -2.33715 0
M  V30 1575 C 146.99 2.475 -3.49182 0
M  V30 1576 C 146.316 3.86023 -3.69986 0
M  V30 1577 C 147.616 1.98866 -4.82959 0
M  V30 1578 H 149.31 0.877942 -2.86239 0
M  V30 1579 H 146.856 0.42088 -1.37712 0
M  V30 1580 H 148.809 3.30253 -2.61746 0
M  V30 1581 H 147.533 2.93632 -1.42997 0
M  V30 1582 H 146.192 1.76596 -3.21262 0
M  V30 1583 H 145.84 4.20136 -2.76576 0
M  V30 1584 H 145.54 3.80609 -4.47672 0
M  V30 1585 H 147.064 4.60984 -4.00407 0
M  V30 1586 H 148.478 2.61992 -5.09934 0
M  V30 1587 H 146.875 2.04424 -5.64208 0
M  V30 1588 H 147.945 0.942465 -4.75653 0
M  V30 1589 N 149.288 1.51039 0.449983 0
M  V30 1590 C 150.528 1.64732 1.21007 0
M  V30 1591 C 150.892 0.349865 1.88785 0
M  V30 1592 O 152.093 0.362431 2.66345 0
M  V30 1593 C 150.364 2.80902 2.20973 0
M  V30 1594 S 151.923 3.14851 3.05638 0
M  V30 1595 H 148.741 0.5805 0.410538 0
M  V30 1596 H 151.343 1.88901 0.503634 0
M  V30 1597 H 150.047 3.73627 1.69796 0
M  V30 1598 H 149.578 2.58882 2.96215 0
M  V30 1599 H 151.593 2.60306 4.22439 0
M  V30 1600 N 150.766 -0.704594 1.40972 0
M  V30 1601 C 152.014 -1.46169 1.39568 0
M  V30 1602 C 152.335 -1.95 0.00253745 0
M  V30 1603 O 151.605 -1.71095 -0.954114 0
M  V30 1604 H 150.185 -0.542326 0.513704 0
M  V30 1605 H 152.847 -0.834553 1.76128 0
M  V30 1606 H 151.943 -2.32922 2.07735 0
M  V30 1607 N 152.244 -1.26651 -0.937939 0
M  V30 1608 C 153.49 -1.12553 -1.687 0
M  V30 1609 C 153.823 0.329782 -1.91379 0
M  V30 1610 O 153.098 1.24202 -1.4968 0
M  V30 1611 C 153.381 -1.89862 -3.05981 0
M  V30 1612 C 153.234 -3.43318 -2.90607 0
M  V30 1613 C 154.553 -1.69499 -4.0615 0
M  V30 1614 H 151.672 -0.410257 -0.612257 0
M  V30 1615 H 154.314 -1.55685 -1.08913 0
M  V30 1616 H 152.464 -1.53204 -3.57017 0
M  V30 1617 H 154.136 -3.89747 -2.46769 0
M  V30 1618 H 152.379 -3.70179 -2.26164 0
M  V30 1619 H 153.05 -3.92642 -3.8799 0
M  V30 1620 H 155.526 -2.01442 -3.64088 0
M  V30 1621 H 154.402 -2.26002 -5.00214 0
M  V30 1622 H 154.663 -0.640365 -4.37438 0
M  V30 1623 N 153.722 1.14298 -1.08507 0
M  V30 1624 C 154.669 2.19414 -0.715965 0
M  V30 1625 C 155.639 1.63399 0.298326 0
M  V30 1626 O 156.824 1.89929 0.182101 0
M  V30 1627 C 153.964 3.44845 -0.132534 0
M  V30 1628 C 153.077 4.15007 -1.19973 0
M  V30 1629 C 152.212 5.28024 -0.580048 0
M  V30 1630 C 151.251 5.9002 -1.62921 0
M  V30 1631 N 150.388 6.94485 -1.03125 0
M  V30 1632 H 155.228 2.50336 -1.61666 0
M  V30 1633 H 152.765 1.2293 -0.807882 0
M  V30 1634 H 154.723 4.16601 0.223454 0
M  V30 1635 H 153.353 3.14403 0.731467 0
M  V30 1636 H 152.405 3.41629 -1.67313 0
M  V30 1637 H 153.717 4.57178 -1.99473 0
M  V30 1638 H 152.871 6.06455 -0.172364 0
M  V30 1639 H 151.61 4.87076 0.246603 0
M  V30 1640 H 150.615 5.10291 -2.04654 0
M  V30 1641 H 151.84 6.33042 -2.45835 0
M  V30 1642 H 149.786 6.55612 -0.225711 0
M  V30 1643 H 149.703 7.35148 -1.76334 0
M  V30 1644 H 150.971 7.7679 -0.649458 0
M  V30 1645 N 155.201 0.870884 1.31352 0
M  V30 1646 C 156.164 0.332243 2.26779 0
M  V30 1647 C 157.164 -0.517302 1.52252 0
M  V30 1648 O 158.354 -0.326477 1.71113 0
M  V30 1649 C 155.486 -0.528066 3.36785 0
M  V30 1650 H 156.679 1.17469 2.75937 0
M  V30 1651 H 154.232 0.64655 1.423 0
M  V30 1652 H 154.967 -1.39167 2.92922 0
M  V30 1653 H 154.752 0.0802582 3.92018 0
M  V30 1654 H 156.242 -0.897179 4.07849 0
M  V30 1655 N 156.679 -1.44442 0.630414 0
M  V30 1656 C 157.627 -2.32437 -0.0871428 0
M  V30 1657 C 158.621 -1.47304 -0.836525 0
M  V30 1658 O 159.827 -1.63653 -0.749506 0
M  V30 1659 H 156.202 -0.750533 -0.0469495 0
M  V30 1660 H 158.173 -2.90709 0.673096 0
M  V30 1661 C 156.922 -3.31288 -1.05563 0
M  V30 1662 H 156.245 -3.96805 -0.488426 0
M  V30 1663 H 157.685 -3.9554 -1.52721 0
M  V30 1664 C 156.144 -2.6016 -2.14052 0
M  V30 1665 O 156.674 -2.39997 -3.22124 0
M  V30 1666 N 154.88 -2.19911 -1.89967 0
M  V30 1667 H 154.427 -2.36509 -1.02085 0
M  V30 1668 H 154.385 -1.72646 -2.62756 0
M  V30 1669 N 158.157 -0.370918 -1.53173 0
M  V30 1670 C 159.067 0.480823 -2.2962 0
M  V30 1671 C 160.083 1.08789 -1.35798 0
M  V30 1672 O 161.259 1.09768 -1.68858 0
M  V30 1673 C 158.324 1.60227 -3.07454 0
M  V30 1674 C 157.385 1.0222 -4.16953 0
M  V30 1675 C 156.618 2.0902 -4.91066 0
M  V30 1676 O 156.841 3.30222 -4.65091 0
M  V30 1677 O 155.775 1.71778 -5.76867 0
M  V30 1678 H 159.601 -0.141421 -3.03371 0
M  V30 1679 H 157.186 -0.135146 -1.48787 0
M  V30 1680 H 159.068 2.25417 -3.56041 0
M  V30 1681 H 157.743 2.20982 -2.36535 0
M  V30 1682 H 156.65 0.334064 -3.72605 0
M  V30 1683 H 157.983 0.459131 -4.90054 0
M  V30 1684 N 159.635 1.57281 -0.100228 0
M  V30 1685 C 160.883 1.94153 0.561157 0
M  V30 1686 C 161.204 0.983157 1.68401 0
M  V30 1687 O 160.474 0.0361132 1.95867 0
M  V30 1688 H 159.054 0.716791 0.210283 0
M  V30 1689 H 161.716 1.94202 -0.164765 0
M  V30 1690 H 160.812 2.96709 0.968008 0
M  V30 1691 N 161.113 -0.173488 1.56642 0
M  V30 1692 C 162.341 -0.906095 1.86004 0
M  V30 1693 C 162.756 -1.75921 0.685355 0
M  V30 1694 O 162.113 -1.79198 -0.345578 0
M  V30 1695 C 162.164 -1.78462 3.14378 0
M  V30 1696 O 161.885 -0.965914 4.27319 0
M  V30 1697 C 163.386 -2.62707 3.57071 0
M  V30 1698 H 160.606 -0.263341 0.617165 0
M  V30 1699 H 163.15 -0.174236 2.03756 0
M  V30 1700 H 161.305 -2.46984 2.98459 0
M  V30 1701 H 161.719 -1.56655 5.00559 0
M  V30 1702 H 163.193 -3.19969 4.49804 0
M  V30 1703 H 163.67 -3.37472 2.81086 0
M  V30 1704 H 164.276 -1.99521 3.75595 0
M  V30 1705 N 162.591 -1.51276 -0.441967 0
M  V30 1706 C 163.837 -1.63958 -1.19355 0
M  V30 1707 C 164.17 -0.352543 -1.90973 0
M  V30 1708 O 163.445 0.647627 -1.83401 0
M  V30 1709 C 163.728 -2.83979 -2.21422 0
M  V30 1710 C 163.581 -4.22646 -1.53918 0
M  V30 1711 C 164.9 -2.99521 -3.22451 0
M  V30 1712 H 162.019 -0.596709 -0.432559 0
M  V30 1713 H 164.661 -1.83748 -0.483398 0
M  V30 1714 H 162.811 -2.67237 -2.81987 0
M  V30 1715 H 164.483 -4.51045 -0.967256 0
M  V30 1716 H 162.726 -4.25558 -0.841615 0
M  V30 1717 H 163.397 -5.02609 -2.28229 0
M  V30 1718 H 165.873 -3.14944 -2.71937 0
M  V30 1719 H 164.749 -3.85072 -3.91166 0
M  V30 1720 H 165.01 -2.11391 -3.88287 0
M  V30 1721 N 164.069 0.697108 -1.41344 0
M  V30 1722 C 165.317 1.45426 -1.40341 0
M  V30 1723 C 165.638 1.94996 -0.0128787 0
M  V30 1724 O 164.908 1.71599 0.945027 0
M  V30 1725 H 163.488 0.539594 -0.516573 0
M  V30 1726 H 166.15 0.825201 -1.76569 0
M  V30 1727 H 165.246 2.31817 -2.08967 0
M  V30 1728 N 165.547 1.27147 0.931209 0
M  V30 1729 C 166.793 1.13446 1.68101 0
M  V30 1730 C 167.126 -0.319628 1.91552 0
M  V30 1731 O 166.401 -1.23407 1.50336 0
M  V30 1732 C 166.684 1.91482 3.0497 0
M  V30 1733 C 166.537 3.44855 2.88782 0
M  V30 1734 C 167.856 1.71651 4.05246 0
M  V30 1735 H 164.975 0.413498 0.610072 0
M  V30 1736 H 167.617 1.56261 1.08086 0
M  V30 1737 H 165.767 1.55095 3.56199 0
M  V30 1738 H 167.439 3.9105 2.44698 0
M  V30 1739 H 165.682 3.71373 2.24198 0
M  V30 1740 H 166.353 3.94694 3.85902 0
M  V30 1741 H 168.829 2.0337 3.63015 0
M  V30 1742 H 167.705 2.28651 4.99009 0
M  V30 1743 H 167.966 0.663555 4.37092 0
M  V30 1744 N 167.025 -1.13721 1.09112 0
M  V30 1745 C 168.25 -1.89314 0.847053 0
M  V30 1746 C 168.675 -1.78416 -0.595774 0
M  V30 1747 O 168.033 -1.12942 -1.41823 0
M  V30 1748 C 168.081 -3.3701 1.28284 0
M  V30 1749 O 167.185 -4.10054 0.439267 0
M  V30 1750 H 166.526 -0.588745 0.307044 0
M  V30 1751 H 169.056 -1.43902 1.45442 0
M  V30 1752 H 169.066 -3.87834 1.26683 0
M  V30 1753 H 167.741 -3.4426 2.33363 0
M  V30 1754 H 166.318 -3.69266 0.519312 0
M  V30 1755 N 168.503 -0.877838 -1.30888 0
M  V30 1756 C 169.466 -0.344265 -2.266 0
M  V30 1757 C 170.466 0.50922 -1.52524 0
M  V30 1758 O 171.656 0.317398 -1.71284 0
M  V30 1759 C 168.788 0.510198 -3.37061 0
M  V30 1760 H 169.981 -1.1893 -2.7531 0
M  V30 1761 H 167.534 -0.654088 -1.41956 0
M  V30 1762 H 168.269 1.37612 -2.93655 0
M  V30 1763 H 168.054 -0.101047 -3.9197 0
M  V30 1764 H 169.544 0.875537 -4.08319 0
M  V30 1765 N 169.982 1.44106 -0.638065 0
M  V30 1766 C 170.945 2.29138 0.0531013 0
M  V30 1767 C 171.945 1.41409 0.765506 0
M  V30 1768 O 173.135 1.63206 0.609046 0
M  V30 1769 C 170.267 3.23144 1.08584 0
M  V30 1770 H 171.46 2.91739 -0.694883 0
M  V30 1771 H 169.013 1.51134 -0.398538 0
M  V30 1772 H 169.748 2.65408 1.86357 0
M  V30 1773 H 169.533 3.87804 0.578852 0
M  V30 1774 H 171.023 3.87004 1.56899 0
M  V30 1775 N 171.46 0.379036 1.52974 0
M  V30 1776 C 172.688 -0.20679 2.05864 0
M  V30 1777 C 173.103 -1.41356 1.25155 0
M  V30 1778 O 172.46 -1.8009 0.295588 0
M  V30 1779 C 172.511 -0.587045 3.56702 0
M  V30 1780 O 172.232 0.571776 4.34353 0
M  V30 1781 C 173.733 -1.22983 4.25899 0
M  V30 1782 H 170.953 -0.0336123 0.670158 0
M  V30 1783 H 173.497 0.541298 1.97206 0
M  V30 1784 H 171.652 -1.28504 3.65466 0
M  V30 1785 H 172.066 0.261544 5.23847 0
M  V30 1786 H 173.54 -1.44635 5.32715 0
M  V30 1787 H 174.017 -2.19416 3.80465 0
M  V30 1788 H 174.623 -0.572892 4.21424 0
M  V30 1789 N 172.938 -1.57226 0.108567 0
M  V30 1790 C 173.848 -2.18292 -0.859401 0
M  V30 1791 C 174.864 -1.15612 -1.30038 0
M  V30 1792 O 176.04 -1.48039 -1.36552 0
M  V30 1793 C 173.105 -2.762 -2.09558 0
M  V30 1794 C 172.166 -3.93881 -1.70752 0
M  V30 1795 C 171.399 -4.49018 -2.88477 0
M  V30 1796 O 171.622 -4.03068 -4.036 0
M  V30 1797 O 170.556 -5.39852 -2.66164 0
M  V30 1798 H 174.382 -3.01441 -0.369769 0
M  V30 1799 H 171.967 -1.48945 -0.1165 0
M  V30 1800 H 173.849 -3.13156 -2.81978 0
M  V30 1801 H 172.524 -1.96089 -2.57548 0
M  V30 1802 H 171.431 -3.61713 -0.954714 0
M  V30 1803 H 172.764 -4.75396 -1.27513 0
M  V30 1804 N 174.416 0.165178 -1.56732 0
M  V30 1805 C 175.832 0.517174 -1.50988 0
M  V30 1806 C 176.032 1.84331 -0.813894 0
M  V30 1807 O 175.088 2.49672 -0.37682 0
M  V30 1808 C 176.401 0.544261 -2.95733 0
M  V30 1809 C 177.949 0.631039 -3.06573 0
M  V30 1810 C 178.424 0.68896 -4.52788 0
M  V30 1811 N 179.915 0.751683 -4.5706 0
M  V30 1812 C 180.65 0.817177 -5.67547 0
M  V30 1813 N 180.146 0.843129 -6.8765 0
M  V30 1814 N 181.939 0.856668 -5.55534 0
M  V30 1815 H 174.09 -0.704318 -2.00382 0
M  V30 1816 H 176.353 -0.254687 -0.913148 0
M  V30 1817 H 176.059 -0.361607 -3.49836 0
M  V30 1818 H 175.933 1.3886 -3.5071 0
M  V30 1819 H 178.32 1.52733 -2.52501 0
M  V30 1820 H 178.401 -0.240095 -2.54671 0
M  V30 1821 H 178.045 -0.2031 -5.07494 0
M  V30 1822 H 177.975 1.57633 -5.02454 0
M  V30 1823 H 180.466 0.739661 -3.70591 0
M  V30 1824 H 180.779 0.894448 -7.67606 0
M  V30 1825 H 179.124 0.811304 -6.90248 0
M  V30 1826 H 182.315 0.833437 -4.60621 0
M  V30 1827 H 182.488 0.904247 -6.4166 0
M  V30 1828 N 175.894 1.51508 0.433938 0
M  V30 1829 C 177.119 1.68443 1.21003 0
M  V30 1830 C 177.544 0.382636 1.84167 0
M  V30 1831 O 176.902 -0.65755 1.68956 0
M  V30 1832 C 176.95 2.80405 2.26727 0
M  V30 1833 O 176.054 2.44245 3.32292 0
M  V30 1834 H 175.395 0.561536 0.354363 0
M  V30 1835 H 177.925 1.9809 0.512024 0
M  V30 1836 H 177.935 3.0459 2.71457 0
M  V30 1837 H 176.61 3.74867 1.80132 0
M  V30 1838 H 175.187 2.30644 2.93015 0
M  V30 1839 N 177.372 -0.689602 1.41712 0
M  V30 1840 C 178.788 -1.00093 1.24312 0
M  V30 1841 C 178.988 -2.01036 0.136729 0
M  V30 1842 O 178.044 -2.47562 -0.496918 0
M  V30 1843 C 179.357 -1.51985 2.59463 0
M  V30 1844 C 180.905 -1.63838 2.66695 0
M  V30 1845 C 181.38 -2.1913 4.02177 0
M  V30 1846 N 182.871 -2.26483 4.04054 0
M  V30 1847 C 183.606 -2.70306 5.0569 0
M  V30 1848 N 183.102 -3.13691 6.17713 0
M  V30 1849 N 184.895 -2.69923 4.9305 0
M  V30 1850 H 177.046 -0.0210029 2.1239 0
M  V30 1851 H 179.309 -0.0718733 0.945272 0
M  V30 1852 H 179.015 -0.85269 3.41207 0
M  V30 1853 H 178.889 -2.50103 2.82362 0
M  V30 1854 H 181.276 -2.29664 1.85306 0
M  V30 1855 H 181.357 -0.642492 2.476 0
M  V30 1856 H 181.001 -1.53918 4.84016 0
M  V30 1857 H 180.931 -3.19482 4.18615 0
M  V30 1858 H 183.422 -1.95874 3.23174 0
M  V30 1859 H 183.735 -3.45773 6.9113 0
M  V30 1860 H 182.08 -3.11585 6.21241 0
M  V30 1861 H 185.271 -2.35382 4.04614 0
M  V30 1862 H 185.444 -3.03758 5.72394 0
M  V30 1863 N 178.85 -1.27639 -0.924453 0
M  V30 1864 C 180.09 -1.15407 -1.68703 0
M  V30 1865 C 180.454 0.294581 -1.89727 0
M  V30 1866 O 181.655 0.539385 -2.63333 0
M  V30 1867 C 179.926 -1.9195 -3.0148 0
M  V30 1868 S 181.485 -1.95969 -3.92609 0
M  V30 1869 H 178.303 -0.411937 -0.579507 0
M  V30 1870 H 180.905 -1.61592 -1.10038 0
M  V30 1871 H 179.609 -2.96387 -2.83871 0
M  V30 1872 H 179.14 -1.46272 -3.65196 0
M  V30 1873 H 181.155 -1.05846 -4.84779 0
M  V30 1874 N 180.328 1.1314 -1.09713 0
M  V30 1875 C 181.276 2.20717 -0.733934 0
M  V30 1876 C 182.27 1.6729 0.266506 0
M  V30 1877 O 183.476 1.79547 0.127656 0
M  V30 1878 H 179.851 0.719292 -0.21937 0
M  V30 1879 H 181.822 2.48611 -1.6503 0
M  V30 1880 C 180.571 3.47265 -0.173849 0
M  V30 1881 H 179.894 3.88716 -0.934873 0
M  V30 1882 H 181.334 4.23979 0.0423126 0
M  V30 1883 C 179.793 3.18724 1.09164 0
M  V30 1884 O 180.323 3.37762 2.17439 0
M  V30 1885 N 178.529 2.72583 1.00732 0
M  V30 1886 H 178.076 2.57291 0.126121 0
M  V30 1887 H 178.034 2.53862 1.85476 0
M  V30 1888 N 181.806 0.884767 1.30421 0
M  V30 1889 C 183.034 0.518044 2.0031 0
M  V30 1890 C 183.449 -0.893408 1.66324 0
M  V30 1891 O 182.806 -1.5875 0.900262 0
M  V30 1892 C 182.857 0.682997 3.54989 0
M  V30 1893 O 182.578 2.03888 3.87764 0
M  V30 1894 C 184.079 0.31924 4.42149 0
M  V30 1895 H 181.299 0.200265 0.640418 0
M  V30 1896 H 183.843 1.19001 1.6631 0
M  V30 1897 H 181.998 0.0584052 3.87356 0
M  V30 1898 H 182.412 2.05735 4.82466 0
M  V30 1899 H 183.886 0.485555 5.4986 0
M  V30 1900 H 184.363 -0.742717 4.32875 0
M  V30 1901 H 184.969 0.920147 4.15227 0
M  V30 1902 N 183.284 -1.43765 0.645699 0
M  V30 1903 C 184.512 -2.06253 0.163556 0
M  V30 1904 C 184.927 -1.48352 -1.16778 0
M  V30 1905 O 184.284 -0.611932 -1.71935 0
M  V30 1906 C 184.335 -3.61453 0.0583186 0
M  V30 1907 O 184.056 -4.172 1.33702 0
M  V30 1908 C 185.557 -4.41002 -0.450795 0
M  V30 1909 H 182.777 -0.665413 0.0864077 0
M  V30 1910 H 185.321 -1.84396 0.884222 0
M  V30 1911 H 183.476 -3.82522 -0.612865 0
M  V30 1912 H 183.89 -5.10791 1.19131 0
M  V30 1913 H 185.364 -5.49966 -0.473403 0
M  V30 1914 H 185.841 -4.13488 -1.48068 0
M  V30 1915 H 186.447 -4.24886 0.187637 0
M  V30 1916 N 184.763 -0.387143 -1.52771 0
M  V30 1917 C 185.695 0.484089 -2.2403 0
M  V30 1918 C 186.708 1.02849 -1.26198 0
M  V30 1919 O 187.897 0.931186 -1.52286 0
M  V30 1920 C 184.997 1.68337 -2.94136 0
M  V30 1921 C 184.17 1.26672 -4.18656 0
M  V30 1922 C 183.229 2.33045 -4.7178 0
M  V30 1923 O 182.255 1.94541 -5.34923 0
M  V30 1924 N 183.457 3.64929 -4.5145 0
M  V30 1925 H 186.222 -0.126404 -2.99433 0
M  V30 1926 H 183.783 -0.213392 -1.60488 0
M  V30 1927 H 185.775 2.39019 -3.26577 0
M  V30 1928 H 184.345 2.20025 -2.22053 0
M  V30 1929 H 183.565 0.388878 -3.92277 0
M  V30 1930 H 184.853 0.964964 -4.99566 0
M  V30 1931 H 184.251 3.98974 -4.01044 0
M  V30 1932 H 182.808 4.31651 -4.88386 0
M  V30 1933 N 186.241 1.57166 -0.116904 0
M  V30 1934 C 187.489 1.94737 0.540533 0
M  V30 1935 C 187.81 1.00096 1.67349 0
M  V30 1936 O 187.08 0.0568854 1.95817 0
M  V30 1937 H 185.66 0.718981 0.202669 0
M  V30 1938 H 188.322 1.94017 -0.185353 0
M  V30 1939 H 187.418 2.97719 0.936483 0
M  V30 1940 N 187.719 -0.156864 1.56817 0
M  V30 1941 C 188.667 -1.21319 1.98455 0
M  V30 1942 C 189.661 -1.45025 0.875444 0
M  V30 1943 O 190.867 -1.45435 1.0606 0
M  V30 1944 H 187.242 -0.408142 0.631605 0
M  V30 1945 H 189.213 -0.835244 2.86472 0
M  V30 1946 C 187.962 -2.54148 2.37285 0
M  V30 1947 H 187.285 -2.36733 3.22176 0
M  V30 1948 H 188.725 -3.26712 2.70251 0
M  V30 1949 C 187.184 -3.13967 1.22173 0
M  V30 1950 O 187.714 -3.98357 0.517149 0
M  V30 1951 N 185.92 -2.7327 0.988536 0
M  V30 1952 H 185.467 -2.04744 1.56326 0
M  V30 1953 H 185.425 -3.13628 0.220209 0
M  V30 1954 N 189.197 -1.51736 -0.425897 0
M  V30 1955 C 190.107 -1.76738 -1.54275 0
M  V30 1956 C 191.123 -0.65211 -1.61318 0
M  V30 1957 O 192.299 -0.935654 -1.78346 0
M  V30 1958 C 189.364 -1.89755 -2.90162 0
M  V30 1959 C 188.425 -3.13633 -2.93143 0
M  V30 1960 C 187.658 -3.2602 -4.22548 0
M  V30 1961 O 187.881 -2.44067 -5.15546 0
M  V30 1962 O 186.815 -4.19071 -4.32046 0
M  V30 1963 H 190.641 -2.71502 -1.36089 0
M  V30 1964 H 188.226 -1.36376 -0.610069 0
M  V30 1965 H 190.108 -2.00236 -3.70788 0
M  V30 1966 H 188.783 -0.981785 -3.08452 0
M  V30 1967 H 187.69 -3.08622 -2.11431 0
M  V30 1968 H 189.023 -4.04936 -2.798 0
M  V30 1969 N 190.675 0.682077 -1.42076 0
M  V30 1970 C 191.921 1.44428 -1.42367 0
M  V30 1971 C 192.254 1.94164 -0.0373056 0
M  V30 1972 O 191.529 1.70429 0.937239 0
M  V30 1973 C 191.812 2.64654 -2.44194 0
M  V30 1974 C 191.665 2.20596 -3.91991 0
M  V30 1975 C 192.984 3.66865 -2.431 0
M  V30 1976 H 190.103 0.523834 -0.518428 0
M  V30 1977 H 192.745 0.77576 -1.73442 0
M  V30 1978 H 190.895 3.2169 -2.17826 0
M  V30 1979 H 192.567 1.68783 -4.29313 0
M  V30 1980 H 190.81 1.52242 -4.06208 0
M  V30 1981 H 191.481 3.06921 -4.58807 0
M  V30 1982 H 193.957 3.19531 -2.66532 0
M  V30 1983 H 192.833 4.48577 -3.16339 0
M  V30 1984 H 193.094 4.17493 -1.45437 0
M  V30 1985 N 192.153 1.28127 0.917671 0
M  V30 1986 C 193.381 1.17892 1.70026 0
M  V30 1987 C 193.796 -0.262958 1.8696 0
M  V30 1988 O 193.153 -1.17811 1.3938 0
M  V30 1989 C 193.204 1.86872 3.09453 0
M  V30 1990 O 192.925 3.25428 2.93306 0
M  V30 1991 C 194.426 1.8289 4.03815 0
M  V30 1992 H 191.646 0.40942 0.531617 0
M  V30 1993 H 194.19 1.69181 1.14883 0
M  V30 1994 H 192.345 1.39464 3.61426 0
M  V30 1995 H 192.759 3.59918 3.81523 0
M  V30 1996 H 194.233 2.35751 4.99125 0
M  V30 1997 H 194.71 0.800412 4.31845 0
M  V30 1998 H 195.316 2.29959 3.57769 0
M  V30 1999 N 193.631 -1.12557 1.10312 0
M  V30 2000 C 194.856 -1.88405 0.867085 0
M  V30 2001 C 195.281 -1.79038 -0.576817 0
M  V30 2002 O 194.639 -1.14439 -1.40618 0
M  V30 2003 C 194.687 -3.3563 1.31851 0
M  V30 2004 O 193.791 -4.09565 0.482734 0
M  V30 2005 H 193.132 -0.585455 0.313271 0
M  V30 2006 H 195.662 -1.42352 1.4696 0
M  V30 2007 H 195.672 -3.86469 1.3079 0
M  V30 2008 H 194.347 -3.41765 2.37001 0
M  V30 2009 H 192.924 -3.68695 0.558448 0
M  V30 2010 N 195.109 -0.891671 -1.2995 0
M  V30 2011 C 196.358 -0.509521 -1.95158 0
M  V30 2012 C 196.671 0.947388 -1.71125 0
M  V30 2013 O 197.877 1.43669 -2.30372 0
M  V30 2014 C 196.333 -0.860315 -3.49466 0
M  V30 2015 C 195.941 -2.33545 -3.8231 0
M  V30 2016 C 197.685 -0.547687 -4.20952 0
M  V30 2017 C 195.592 -2.62752 -5.29826 0
M  V30 2018 H 194.522 -0.18682 -0.730489 0
M  V30 2019 H 197.173 -1.08756 -1.47798 0
M  V30 2020 H 195.555 -0.211285 -3.95436 0
M  V30 2021 H 196.729 -3.02936 -3.47227 0
M  V30 2022 H 195.044 -2.61629 -3.23944 0
M  V30 2023 H 197.641 -0.742854 -5.29515 0
M  V30 2024 H 197.984 0.51332 -4.13123 0
M  V30 2025 H 198.517 -1.1542 -3.80688 0
M  V30 2026 H 195.256 -3.6762 -5.42712 0
M  V30 2027 H 194.776 -1.97977 -5.66185 0
M  V30 2028 H 196.455 -2.48601 -5.97333 0
M  V30 2029 N 196.587 1.43421 -0.653314 0
M  V30 2030 C 197.517 2.33487 0.0246656 0
M  V30 2031 C 198.498 1.49475 0.811863 0
M  V30 2032 O 199.683 1.78139 0.773322 0
M  V30 2033 C 196.813 3.32841 0.99166 0
M  V30 2034 C 195.767 4.26842 0.314568 0
M  V30 2035 C 195.093 5.16236 1.39302 0
M  V30 2036 C 196.393 5.16243 -0.793095 0
M  V30 2037 H 198.087 2.90427 -0.727481 0
M  V30 2038 H 195.633 1.39649 -0.351287 0
M  V30 2039 H 197.586 3.94747 1.47487 0
M  V30 2040 H 196.31 2.74158 1.77497 0
M  V30 2041 H 194.969 3.663 -0.148199 0
M  V30 2042 H 194.617 4.53891 2.16776 0
M  V30 2043 H 194.317 5.79948 0.945223 0
M  V30 2044 H 195.841 5.81015 1.87759 0
M  V30 2045 H 197.255 5.71958 -0.392039 0
M  V30 2046 H 195.652 5.88676 -1.16536 0
M  V30 2047 H 196.722 4.55927 -1.65103 0
M  V30 2048 N 198.065 0.39524 1.52563 0
M  V30 2049 C 199.481 0.0454682 1.59535 0
M  V30 2050 C 199.681 -1.44056 1.4089 0
M  V30 2051 O 198.737 -2.20579 1.22888 0
M  V30 2052 C 200.05 0.527963 2.96029 0
M  V30 2053 C 201.598 0.484733 3.09224 0
M  V30 2054 C 202.073 0.943512 4.48176 0
M  V30 2055 N 203.564 0.899765 4.54377 0
M  V30 2056 C 204.299 1.22609 5.60138 0
M  V30 2057 N 203.795 1.62319 6.73516 0
M  V30 2058 N 205.588 1.14696 5.50274 0
M  V30 2059 H 197.739 1.36261 1.62931 0
M  V30 2060 H 200.002 0.558887 0.765735 0
M  V30 2061 H 199.708 1.56607 3.14908 0
M  V30 2062 H 199.582 -0.0698056 3.77135 0
M  V30 2063 H 201.969 -0.544298 2.90037 0
M  V30 2064 H 202.05 1.11838 2.30056 0
M  V30 2065 H 201.694 1.9708 4.68104 0
M  V30 2066 H 201.624 0.286817 5.25818 0
M  V30 2067 H 204.115 0.607632 3.72983 0
M  V30 2068 H 204.428 1.85567 7.5019 0
M  V30 2069 H 202.773 1.66211 6.74833 0
M  V30 2070 H 205.964 0.835701 4.6058 0
M  V30 2071 H 206.137 1.40459 6.32594 0
M  V30 2072 N 199.544 -1.57102 0.125237 0
M  V30 2073 C 200.79 -1.96488 -0.525753 0
M  V30 2074 C 201.145 -1.00786 -1.6389 0
M  V30 2075 O 200.438 -0.038979 -1.9156 0
M  V30 2076 C 200.632 -3.40096 -1.09862 0
M  V30 2077 C 200.461 -4.4968 -0.0425004 0
M  V30 2078 C 199.231 -5.03781 0.391463 0
M  V30 2079 C 201.429 -5.08936 0.740829 0
M  V30 2080 N 199.411 -5.96948 1.4327 0
M  V30 2081 C 200.782 -5.98105 1.6331 0
M  V30 2082 C 202.837 -4.91576 0.791029 0
M  V30 2083 C 201.54 -6.71774 2.57122 0
M  V30 2084 C 203.566 -5.6593 1.71688 0
M  V30 2085 C 202.928 -6.5479 2.59672 0
M  V30 2086 H 199.027 -0.765072 -0.161831 0
M  V30 2087 H 201.611 -1.93511 0.214801 0
M  V30 2088 H 199.782 -3.43707 -1.80887 0
M  V30 2089 H 201.514 -3.66591 -1.71444 0
M  V30 2090 H 198.269 -4.736 -0.00213584 0
M  V30 2091 H 198.693 -6.48236 1.95243 0
M  V30 2092 H 203.335 -4.22615 0.124915 0
M  V30 2093 H 201.053 -7.39977 3.24744 0
M  V30 2094 H 204.639 -5.54501 1.76125 0
M  V30 2095 H 203.519 -7.11316 3.30149 0
M  V30 2096 N 201.022 0.148545 -1.56898 0
M  V30 2097 C 201.985 1.16736 -1.97244 0
M  V30 2098 C 202.985 1.35947 -0.858777 0
M  V30 2099 O 204.175 1.32966 -1.12542 0
M  V30 2100 C 201.307 2.52798 -2.28705 0
M  V30 2101 H 202.5 0.821279 -2.88435 0
M  V30 2102 H 200.053 0.391831 -1.51309 0
M  V30 2103 H 200.788 2.92381 -1.403 0
M  V30 2104 H 200.573 2.40216 -3.09901 0
M  V30 2105 H 202.063 3.26179 -2.60762 0
M  V30 2106 N 202.5 1.5196 0.417844 0
M  V30 2107 C 203.447 1.74678 1.50852 0
M  V30 2108 C 204.417 0.588947 1.55308 0
M  V30 2109 O 205.602 0.825544 1.72016 0
M  V30 2110 C 202.742 1.89544 2.88387 0
M  V30 2111 C 201.855 3.17166 2.93309 0
M  V30 2112 C 200.99 3.22513 4.22088 0
M  V30 2113 C 200.029 4.44372 4.20951 0
M  V30 2114 N 199.166 4.47161 5.41287 0
M  V30 2115 H 204.006 2.67768 1.30783 0
M  V30 2116 H 201.543 1.32689 0.63498 0
M  V30 2117 H 203.501 1.96146 3.68216 0
M  V30 2118 H 202.131 0.998424 3.06971 0
M  V30 2119 H 201.183 3.19778 2.06024 0
M  V30 2120 H 202.495 4.07021 2.88332 0
M  V30 2121 H 201.649 3.28139 5.10303 0
M  V30 2122 H 200.388 2.30581 4.29748 0
M  V30 2123 H 199.393 4.38902 3.31127 0
M  V30 2124 H 200.618 5.3759 4.14938 0
M  V30 2125 H 198.564 3.58108 5.49632 0
M  V30 2126 H 198.481 5.3085 5.3827 0
M  V30 2127 H 199.749 4.57005 6.3148 0
M  V30 2128 N 203.978 -0.674533 1.42435 0
M  V30 2129 C 205.255 -1.4305 1.33402 0
M  V30 2130 C 205.635 -2.11081 -0.0284674 0
M  V30 2131 O 204.983 -2.03257 -1.04397 0
M  V30 2132 C 205.193 -2.43272 2.50239 0
M  V30 2133 C 206.541 -3.07907 2.92367 0
M  V30 2134 O 207.565 -2.53599 2.50132 0
M  V30 2135 O 206.424 -4.0632 3.65467 0
M  V30 2136 H 203.518 -0.638076 0.526106 0
M  V30 2137 H 206.064 -0.703235 1.54443 0
M  V30 2138 H 204.836 -1.91803 3.41068 0
M  V30 2139 H 204.459 -3.23479 2.31186 0
M  V30 2140 N 205.456 -1.28612 -0.910864 0
M  V30 2141 C 206.419 -1.12803 -1.9952 0
M  V30 2142 C 207.419 -0.0668264 -1.60661 0
M  V30 2143 O 208.609 -0.312847 -1.71368 0
M  V30 2144 C 205.741 -0.72254 -3.33155 0
M  V30 2145 H 206.934 -2.09109 -2.14973 0
M  V30 2146 H 204.487 -1.11639 -1.09391 0
M  V30 2147 H 205.222 0.241152 -3.23402 0
M  V30 2148 H 205.007 -1.48916 -3.62721 0
M  V30 2149 H 206.497 -0.634666 -4.12749 0
M  V30 2150 N 206.934 1.1197 -1.10907 0
M  V30 2151 C 208.182 1.83225 -0.852819 0
M  V30 2152 C 208.503 1.84769 0.623341 0
M  V30 2153 O 207.773 1.3143 1.45269 0
M  V30 2154 H 206.353 0.67849 -0.312507 0
M  V30 2155 H 209.015 1.3556 -1.40033 0
M  V30 2156 H 208.111 2.87265 -1.22005 0
M  V30 2157 N 208.412 0.89855 1.29475 0
M  V30 2158 C 209.359 0.373819 2.27753 0
M  V30 2159 C 210.329 -0.543444 1.56958 0
M  V30 2160 O 211.514 -0.468934 1.84948 0
M  V30 2161 C 208.654 -0.393648 3.42848 0
M  V30 2162 C 207.767 0.554379 4.28428 0
M  V30 2163 C 206.902 -0.230026 5.30702 0
M  V30 2164 C 205.941 0.712599 6.07938 0
M  V30 2165 N 205.078 -0.0373283 7.0209 0
M  V30 2166 H 209.918 1.21699 2.72017 0
M  V30 2167 H 207.455 0.611456 1.33789 0
M  V30 2168 H 209.413 -0.85466 4.08352 0
M  V30 2169 H 208.043 -1.20128 2.99615 0
M  V30 2170 H 207.095 1.13391 3.63107 0
M  V30 2171 H 208.407 1.27597 4.82204 0
M  V30 2172 H 207.561 -0.752288 6.02018 0
M  V30 2173 H 206.3 -0.984758 4.77654 0
M  V30 2174 H 205.305 1.24637 5.35486 0
M  V30 2175 H 206.53 1.46664 6.63074 0
M  V30 2176 H 204.476 -0.774348 6.51414 0
M  V30 2177 H 204.393 0.624374 7.53417 0
M  V30 2178 H 205.661 -0.539891 7.77628 0
M  V30 2179 N 209.89 -1.43072 0.660911 0
M  V30 2180 C 211.115 -2.06584 0.183805 0
M  V30 2181 C 211.54 -1.49257 -1.14472 0
M  V30 2182 O 210.898 -0.605528 -1.70889 0
M  V30 2183 C 210.946 -3.60418 0.114434 0
M  V30 2184 O 210.05 -4.01981 -0.921137 0
M  V30 2185 H 209.391 -0.656669 0.0983994 0
M  V30 2186 H 211.921 -1.83447 0.906006 0
M  V30 2187 H 211.931 -4.07946 -0.0663394 0
M  V30 2188 H 210.606 -4.01519 1.08422 0
M  V30 2189 H 209.183 -3.66029 -0.71253 0
M  V30 2190 N 211.368 -0.403325 -1.52352 0
M  V30 2191 C 212.614 0.174605 -2.02047 0
M  V30 2192 C 212.947 1.45282 -1.28867 0
M  V30 2193 O 212.222 1.90483 -0.393257 0
M  V30 2194 C 212.505 0.428238 -3.57545 0
M  V30 2195 C 212.358 -0.866248 -4.4138 0
M  V30 2196 C 213.677 1.21287 -4.23057 0
M  V30 2197 H 210.796 0.0619851 -0.734389 0
M  V30 2198 H 213.438 -0.53565 -1.82293 0
M  V30 2199 H 211.588 1.03327 -3.74507 0
M  V30 2200 H 213.26 -1.50265 -4.3614 0
M  V30 2201 H 211.503 -1.47851 -4.07827 0
M  V30 2202 H 212.174 -0.643249 -5.48239 0
M  V30 2203 H 214.65 0.700703 -4.10158 0
M  V30 2204 H 213.526 1.35909 -5.31808 0
M  V30 2205 H 213.787 2.23193 -3.81625 0
M  V30 2206 N 212.846 1.57033 -0.133567 0
M  V30 2207 C 214.094 1.953 0.519848 0
M  V30 2208 C 214.415 1.01866 1.66278 0
M  V30 2209 O 213.685 0.0776513 1.95746 0
M  V30 2210 H 212.265 0.721091 0.195032 0
M  V30 2211 H 214.927 1.93809 -0.205921 0
M  V30 2212 H 214.023 2.98695 0.904854 0
M  V30 2213 N 214.325 -0.140222 1.56975 0
M  V30 2214 C 215.574 -0.850152 1.82908 0
M  V30 2215 C 215.887 -1.82028 0.715892 0
M  V30 2216 O 217.093 -2.57485 0.861016 0
M  V30 2217 C 215.549 -1.5625 3.24213 0
M  V30 2218 C 215.157 -0.63443 4.43485 0
M  V30 2219 C 216.901 -2.25881 3.59413 0
M  V30 2220 C 214.808 -1.34879 5.75814 0
M  V30 2221 H 213.738 -0.321221 0.682153 0
M  V30 2222 H 216.389 -0.102874 1.83211 0
M  V30 2223 H 214.771 -2.35565 3.18316 0
M  V30 2224 H 215.945 0.12398 4.60633 0
M  V30 2225 H 214.26 -0.0461836 4.16374 0
M  V30 2226 H 216.857 -2.79978 4.5554 0
M  V30 2227 H 217.2 -3.02693 2.85802 0
M  V30 2228 H 217.733 -1.53477 3.67001 0
M  V30 2229 H 214.472 -0.622385 6.52539 0
M  V30 2230 H 213.992 -2.07974 5.6259 0
M  V30 2231 H 215.671 -1.88784 6.18845 0
M  V30 2232 N 215.803 -1.52179 -0.40978 0
M  V30 2233 C 217.049 -1.66453 -1.15851 0
M  V30 2234 C 217.382 -0.392972 -1.90182 0
M  V30 2235 O 216.657 0.608579 -1.84734 0
M  V30 2236 C 216.94 -2.88612 -2.15349 0
M  V30 2237 C 216.793 -4.25815 -1.44918 0
M  V30 2238 C 218.112 -3.06294 -3.16026 0
M  V30 2239 H 215.231 -0.60575 -0.419805 0
M  V30 2240 H 217.873 -1.84732 -0.444314 0
M  V30 2241 H 216.023 -2.73158 -2.76255 0
M  V30 2242 H 217.695 -4.52995 -0.871365 0
M  V30 2243 H 215.938 -4.27247 -0.751159 0
M  V30 2244 H 216.609 -5.07337 -2.17516 0
M  V30 2245 H 219.085 -3.20641 -2.65195 0
M  V30 2246 H 217.961 -3.93283 -3.8291 0
M  V30 2247 H 218.222 -2.19579 -3.83715 0
M  V30 2248 N 217.281 0.66697 -1.42791 0
M  V30 2249 C 218.509 1.45505 -1.47091 0
M  V30 2250 C 218.924 1.8861 -0.0845873 0
M  V30 2251 O 218.281 1.58632 0.90234 0
M  V30 2252 C 218.332 2.69906 -2.40485 0
M  V30 2253 O 218.053 2.28608 -3.73725 0
M  V30 2254 C 219.554 3.63396 -2.53886 0
M  V30 2255 H 216.774 0.447459 -0.500022 0
M  V30 2256 H 219.318 0.818866 -1.8739 0
M  V30 2257 H 217.473 3.29696 -2.03419 0
M  V30 2258 H 217.887 3.08997 -4.23817 0
M  V30 2259 H 219.361 4.47387 -3.2334 0
M  V30 2260 H 219.838 4.09824 -1.57927 0
M  V30 2261 H 220.444 3.09495 -2.91706 0
M  V30 2262 N 218.759 1.29093 0.90403 0
M  V30 2263 C 219.987 1.19689 1.68766 0
M  V30 2264 C 220.402 -0.243113 1.87228 0
M  V30 2265 O 219.759 -1.16326 1.40621 0
M  V30 2266 C 219.81 1.90144 3.07453 0
M  V30 2267 O 219.531 3.2852 2.89838 0
M  V30 2268 C 221.032 1.87162 4.01852 0
M  V30 2269 H 218.252 0.415035 0.527244 0
M  V30 2270 H 220.796 1.7039 1.13082 0
M  V30 2271 H 218.951 1.43289 3.59926 0
M  V30 2272 H 219.365 3.63944 3.77684 0
M  V30 2273 H 220.839 2.41032 4.96596 0
M  V30 2274 H 221.316 0.84617 4.30972 0
M  V30 2275 H 221.922 2.33741 3.5531 0
M  V30 2276 N 220.237 -1.11381 1.11499 0
M  V30 2277 C 221.465 -1.86934 0.88675 0
M  V30 2278 C 221.88 -1.80195 -0.563476 0
M  V30 2279 O 221.237 -1.18367 -1.38908 0
M  V30 2280 C 221.288 -3.35722 1.34064 0
M  V30 2281 O 221.009 -3.4232 2.73401 0
M  V30 2282 C 222.51 -4.2818 1.14791 0
M  V30 2283 H 219.73 -0.591117 0.317523 0
M  V30 2284 H 222.274 -1.40865 1.48248 0
M  V30 2285 H 220.429 -3.79294 0.788355 0
M  V30 2286 H 220.843 -4.34971 2.93087 0
M  V30 2287 H 222.317 -5.30817 1.5145 0
M  V30 2288 H 222.794 -4.39113 0.0875279 0
M  V30 2289 H 223.4 -3.90402 1.68721 0
M  V30 2290 N 221.715 -0.905404 -1.28997 0
M  V30 2291 C 223.131 -0.60233 -1.47798 0
M  V30 2292 C 223.331 0.854645 -1.82478 0
M  V30 2293 O 222.387 1.63439 -1.92468 0
M  V30 2294 C 223.7 -1.53306 -2.58685 0
M  V30 2295 C 225.248 -1.53887 -2.72558 0
M  V30 2296 C 225.723 -2.45602 -3.86579 0
M  V30 2297 N 227.214 -2.43681 -3.93921 0
M  V30 2298 C 227.949 -3.11347 -4.81509 0
M  V30 2299 N 227.445 -3.88313 -5.73746 0
M  V30 2300 N 229.238 -3.00476 -4.75048 0
M  V30 2301 H 221.389 -1.84765 -1.04764 0
M  V30 2302 H 223.652 -0.792025 -0.520961 0
M  V30 2303 H 223.358 -2.57141 -2.39941 0
M  V30 2304 H 223.232 -1.25787 -3.55609 0
M  V30 2305 H 225.619 -0.507941 -2.90696 0
M  V30 2306 H 225.7 -1.85447 -1.76191 0
M  V30 2307 H 225.344 -3.48792 -3.69197 0
M  V30 2308 H 225.274 -2.11349 -4.82327 0
M  V30 2309 H 227.765 -1.87767 -3.27951 0
M  V30 2310 H 228.078 -4.36985 -6.37389 0
M  V30 2311 H 226.423 -3.92419 -5.73614 0
M  V30 2312 H 229.614 -2.39858 -4.01977 0
M  V30 2313 H 229.787 -3.53485 -5.43095 0
M  V30 2314 N 223.193 1.4272 -0.668489 0
M  V30 2315 C 224.439 2.01923 -0.188419 0
M  V30 2316 C 224.772 1.52704 1.19979 0
M  V30 2317 O 224.047 0.726566 1.8042 0
M  V30 2318 C 224.33 3.59451 -0.216085 0
M  V30 2319 C 224.183 4.18864 -1.6393 0
M  V30 2320 C 225.502 4.37903 0.439179 0
M  V30 2321 H 222.621 0.733674 -0.0699412 0
M  V30 2322 H 225.263 1.69822 -0.852076 0
M  V30 2323 H 223.413 3.86929 0.349012 0
M  V30 2324 H 225.085 4.02362 -2.25616 0
M  V30 2325 H 223.328 3.74933 -2.18193 0
M  V30 2326 H 223.999 5.27987 -1.61039 0
M  V30 2327 H 226.475 4.16079 -0.0417878 0
M  V30 2328 H 225.351 5.47519 0.389157 0
M  V30 2329 H 225.612 4.15303 1.51577 0
M  V30 2330 N 224.671 0.411399 1.52136 0
M  V30 2331 C 225.619 -0.427633 2.28635 0
M  V30 2332 C 226.613 -1.04383 1.33419 0
M  V30 2333 O 227.819 -0.981772 1.50868 0
M  V30 2334 H 224.194 -0.156689 0.735495 0
M  V30 2335 H 226.165 0.238761 2.97443 0
M  V30 2336 C 224.914 -1.53082 3.12188 0
M  V30 2337 H 224.237 -1.06601 3.85326 0
M  V30 2338 H 225.677 -2.09167 3.68816 0
M  V30 2339 C 224.136 -2.49946 2.25895 0
M  V30 2340 O 224.666 -3.53884 1.90076 0
M  V30 2341 N 222.872 -2.2021 1.8962 0
M  V30 2342 H 222.419 -1.35719 2.18948 0
M  V30 2343 H 222.377 -2.85266 1.32176 0
M  V30 2344 N 226.149 -1.5696 0.141893 0
M  V30 2345 C 227.099 -2.13074 -0.811383 0
M  V30 2346 C 228.083 -1.05726 -1.21288 0
M  V30 2347 O 229.275 -1.31914 -1.18015 0
M  V30 2348 C 226.404 -2.75186 -2.0525 0
M  V30 2349 C 225.49 -3.8965 -1.67432 0
M  V30 2350 N 225.881 -4.95733 -1.0041 0
M  V30 2351 C 224.179 -4.00262 -1.96739 0
M  V30 2352 C 224.88 -5.75858 -0.822345 0
M  V30 2353 N 223.856 -5.26452 -1.3546 0
M  V30 2354 H 227.658 -2.92465 -0.290031 0
M  V30 2355 H 225.172 -1.6229 -0.0598218 0
M  V30 2356 H 227.169 -3.13745 -2.74535 0
M  V30 2357 H 225.829 -1.97266 -2.57907 0
M  V30 2358 H 226.84 -5.13607 -0.665441 0
M  V30 2359 H 223.517 -3.33412 -2.51282 0
M  V30 2360 H 224.907 -6.71254 -0.294496 0
M  V30 2361 N 227.627 0.131896 -1.57047 0
M  V30 2362 C 228.59 1.14638 -1.98471 0
M  V30 2363 C 229.59 1.35029 -0.873148 0
M  V30 2364 O 230.78 1.31764 -1.13946 0
M  V30 2365 C 227.912 2.50358 -2.31373 0
M  V30 2366 H 229.105 0.79064 -2.8929 0
M  V30 2367 H 226.658 0.375761 -1.51716 0
M  V30 2368 H 227.393 2.90876 -1.43393 0
M  V30 2369 H 227.178 2.36915 -3.12432 0
M  V30 2370 H 228.668 3.23395 -2.64207 0
M  V30 2371 N 229.106 1.52395 0.401703 0
M  V30 2372 C 230.334 1.70676 1.16949 0
M  V30 2373 C 230.749 0.419503 1.8408 0
M  V30 2374 O 230.106 -0.605061 1.72178 0
M  V30 2375 C 230.157 2.84753 2.22706 0
M  V30 2376 O 229.878 4.08495 1.58314 0
M  V30 2377 C 231.379 3.14608 3.12309 0
M  V30 2378 H 228.599 0.571787 0.351142 0
M  V30 2379 H 231.143 1.98987 0.471652 0
M  V30 2380 H 229.298 2.58941 2.88147 0
M  V30 2381 H 229.712 4.72117 2.28485 0
M  V30 2382 H 231.186 3.97923 3.82572 0
M  V30 2383 H 231.663 2.28464 3.75101 0
M  V30 2384 H 232.269 3.42212 2.52529 0
M  V30 2385 N 230.584 -0.659388 1.43143 0
M  V30 2386 C 231.995 -1.24041 1.39537 0
M  V30 2387 C 232.346 -1.95963 0.0963364 0
M  V30 2388 O 231.471 -2.00892 -0.804438 0
M  V30 2389 C 232.066 -2.25601 2.52764 0
M  V30 2390 C 230.625 -2.79195 2.52443 0
M  V30 2391 C 229.772 -1.53743 2.30778 0
M  V30 2392 H 232.723 -0.451792 1.52133 0
M  V30 2393 H 232.744 -3.07651 2.23899 0
M  V30 2394 H 232.256 -1.73226 3.47296 0
M  V30 2395 H 230.357 -3.35649 1.61773 0
M  V30 2396 H 230.47 -3.2716 3.50004 0
M  V30 2397 H 228.834 -1.80869 1.79328 0
M  V30 2398 H 229.617 -1.03312 3.27386 0
M  V30 2399 N 232.062 -1.29571 -0.897171 0
M  V30 2400 C 233.287 -1.20705 -1.68656 0
M  V30 2401 C 233.712 0.228582 -1.86706 0
M  V30 2402 O 233.07 1.16494 -1.3892 0
M  V30 2403 C 233.118 -1.9282 -3.04717 0
M  V30 2404 O 232.222 -1.24697 -3.93096 0
M  V30 2405 H 231.563 -0.418126 -0.515816 0
M  V30 2406 H 234.093 -1.71183 -1.12061 0
M  V30 2407 H 234.103 -2.01372 -3.54843 0
M  V30 2408 H 232.778 -2.97239 -2.90899 0
M  V30 2409 H 231.355 -1.2442 -3.51531 0
M  V30 2410 N 233.54 1.10788 -1.12088 0
M  V30 2411 C 234.503 2.15207 -0.788577 0
M  V30 2412 C 235.503 1.59609 0.195317 0
M  V30 2413 O 236.693 1.74174 -0.0300193 0
M  V30 2414 C 233.825 3.4047 -0.171174 0
M  V30 2415 H 235.018 2.46116 -1.71368 0
M  V30 2416 H 232.571 1.26089 -0.923652 0
M  V30 2417 H 233.306 3.15176 0.763832 0
M  V30 2418 H 233.091 3.82109 -0.879514 0
M  V30 2419 H 234.581 4.17576 0.04496 0
M  V30 2420 N 235.018 0.912232 1.28515 0
M  V30 2421 C 235.981 0.404223 2.25607 0
M  V30 2422 C 236.981 -0.468602 1.53821 0
M  V30 2423 O 238.171 -0.271873 1.72065 0
M  V30 2424 C 235.303 -0.420653 3.38295 0
M  V30 2425 H 236.496 1.26188 2.7206 0
M  V30 2426 H 234.049 0.691495 1.40171 0
M  V30 2427 H 234.784 -1.29777 2.97201 0
M  V30 2428 H 234.569 0.204935 3.91564 0
M  V30 2429 H 236.059 -0.766971 4.10496 0
M  V30 2430 N 236.496 -1.42363 0.676048 0
M  V30 2431 C 237.726 -2.05561 0.206967 0
M  V30 2432 C 238.134 -1.50887 -1.14148 0
M  V30 2433 O 237.477 -0.643933 -1.72044 0
M  V30 2434 C 237.539 -3.5944 0.0659508 0
M  V30 2435 C 237.203 -4.36812 1.34331 0
M  V30 2436 C 238.2 -4.67383 2.27704 0
M  V30 2437 C 235.885 -4.76429 1.59125 0
M  V30 2438 C 237.879 -5.36509 3.44147 0
M  V30 2439 C 235.566 -5.45294 2.75857 0
M  V30 2440 C 236.564 -5.75259 3.68193 0
M  V30 2441 O 236.252 -6.42712 4.82883 0
M  V30 2442 H 235.984 -0.668872 0.0979084 0
M  V30 2443 H 238.538 -1.83467 0.923531 0
M  V30 2444 H 236.768 -3.80197 -0.706204 0
M  V30 2445 H 238.457 -4.0427 -0.363418 0
M  V30 2446 H 239.223 -4.37275 2.09799 0
M  V30 2447 H 235.102 -4.52498 0.881258 0
M  V30 2448 H 238.646 -5.59814 4.16238 0
M  V30 2449 H 234.543 -5.7482 2.93688 0
M  V30 2450 H 235.311 -6.61204 4.82444 0
M  V30 2451 N 237.974 -0.419461 -1.51915 0
M  V30 2452 C 238.937 0.389116 -2.25873 0
M  V30 2453 C 239.937 0.964924 -1.28631 0
M  V30 2454 O 241.127 0.842179 -1.52489 0
M  V30 2455 C 238.259 1.54874 -3.03689 0
M  V30 2456 H 239.452 -0.258799 -2.98781 0
M  V30 2457 H 237.005 -0.172209 -1.55348 0
M  V30 2458 H 237.74 2.23323 -2.35154 0
M  V30 2459 H 237.525 1.14223 -3.75094 0
M  V30 2460 H 239.015 2.12046 -3.59759 0
M  V30 2461 N 239.452 1.56882 -0.150215 0
M  V30 2462 C 240.402 2.13501 0.800071 0
M  V30 2463 C 241.386 1.06368 1.20726 0
M  V30 2464 O 242.578 1.32538 1.17314 0
M  V30 2465 C 239.707 2.76271 2.03787 0
M  V30 2466 C 238.793 3.90533 1.65364 0
M  V30 2467 N 239.184 4.96259 0.977794 0
M  V30 2468 C 237.482 4.013 1.94613 0
M  V30 2469 C 238.183 5.76286 0.791794 0
M  V30 2470 N 237.159 5.27163 1.32666 0
M  V30 2471 H 240.961 2.92615 0.274517 0
M  V30 2472 H 238.475 1.62319 0.0512144 0
M  V30 2473 H 240.472 3.15197 2.72867 0
M  V30 2474 H 239.132 1.98631 2.56857 0
M  V30 2475 H 240.143 5.13953 0.638193 0
M  V30 2476 H 236.82 3.3474 2.4951 0
M  V30 2477 H 238.21 6.71401 0.258894 0
M  V30 2478 N 240.93 -0.123565 1.57115 0
M  V30 2479 C 242.155 -0.850398 1.89164 0
M  V30 2480 C 242.58 -1.7286 0.741688 0
M  V30 2481 O 241.938 -1.78665 -0.307958 0
M  V30 2482 C 241.986 -1.66353 3.19936 0
M  V30 2483 O 241.09 -2.77004 3.0552 0
M  V30 2484 H 240.431 -0.235454 0.620852 0
M  V30 2485 H 242.961 -0.107335 2.04318 0
M  V30 2486 H 242.971 -2.05372 3.52543 0
M  V30 2487 H 241.646 -1.01881 4.03228 0
M  V30 2488 H 240.223 -2.41221 2.84371 0
M  V30 2489 N 242.408 -1.52605 -0.393616 0
M  V30 2490 C 243.371 -1.76415 -1.46323 0
M  V30 2491 C 244.371 -0.634126 -1.47768 0
M  V30 2492 O 245.561 -0.902142 -1.4902 0
M  V30 2493 C 242.693 -1.8607 -2.85641 0
M  V30 2494 H 243.886 -2.71916 -1.26498 0
M  V30 2495 H 241.439 -1.43257 -0.625073 0
M  V30 2496 H 242.174 -0.925378 -3.10817 0
M  V30 2497 H 241.959 -2.68235 -2.85993 0
M  V30 2498 H 243.449 -2.06179 -3.63153 0
M  V30 2499 N 243.887 0.651787 -1.4349 0
M  V30 2500 C 245.164 1.40909 -1.35661 0
M  V30 2501 C 245.544 2.11099 -0.00511733 0
M  V30 2502 O 244.892 2.04892 1.0115 0
M  V30 2503 C 245.102 2.3926 -2.54078 0
M  V30 2504 C 246.45 3.03217 -2.97228 0
M  V30 2505 O 247.474 2.49588 -2.54135 0
M  V30 2506 O 246.333 4.00455 -3.71885 0
M  V30 2507 H 243.427 0.629625 -0.536191 0
M  V30 2508 H 245.973 0.678575 -1.55542 0
M  V30 2509 H 244.745 1.86352 -3.44076 0
M  V30 2510 H 244.368 3.1976 -2.36303 0
M  V30 2511 N 245.365 1.30045 0.890287 0
M  V30 2512 C 246.781 1.08261 1.17268 0
M  V30 2513 C 246.981 -0.160063 2.00863 0
M  V30 2514 O 246.037 -0.855181 2.37577 0
M  V30 2515 C 247.35 2.34323 1.8845 0
M  V30 2516 C 248.898 2.39735 2.01237 0
M  V30 2517 C 249.373 3.65625 2.7583 0
M  V30 2518 N 250.864 3.66402 2.83379 0
M  V30 2519 C 251.599 4.60498 3.41657 0
M  V30 2520 N 251.095 5.64933 4.01026 0
M  V30 2521 N 252.888 4.48051 3.39421 0
M  V30 2522 H 245.039 2.09777 0.332762 0
M  V30 2523 H 247.302 0.92446 0.209948 0
M  V30 2524 H 247.008 3.2498 1.34465 0
M  V30 2525 H 246.882 2.4256 2.88867 0
M  V30 2526 H 249.269 1.4956 2.54393 0
M  V30 2527 H 249.35 2.35476 0.999232 0
M  V30 2528 H 248.994 4.56156 2.23347 0
M  V30 2529 H 248.924 3.67144 3.77509 0
M  V30 2530 H 251.415 2.90896 2.41222 0
M  V30 2531 H 251.728 6.32841 4.43545 0
M  V30 2532 H 250.073 5.68732 3.99461 0
M  V30 2533 H 253.264 3.65649 2.92264 0
M  V30 2534 H 253.437 5.21565 3.84544 0
M  V30 2535 N 246.843 -1.10192 1.12674 0
M  V30 2536 C 248.12 -1.78717 0.794965 0
M  V30 2537 C 248.5 -1.98628 -0.714853 0
M  V30 2538 O 247.848 -1.58135 -1.64941 0
M  V30 2539 C 248.058 -3.11546 1.5729 0
M  V30 2540 C 249.406 -3.86382 1.76052 0
M  V30 2541 O 250.43 -3.21274 1.53823 0
M  V30 2542 O 249.289 -5.03246 2.13087 0
M  V30 2543 H 246.383 -0.774702 0.289423 0
M  V30 2544 H 248.929 -1.16819 1.23091 0
M  V30 2545 H 247.701 -2.92489 2.59935 0
M  V30 2546 H 247.324 -3.81164 1.13137 0
M  V30 2547 N 248.321 -0.919034 -1.28029 0
M  V30 2548 C 249.567 -0.565221 -1.95389 0
M  V30 2549 C 249.922 0.882325 -1.70976 0
M  V30 2550 O 249.215 1.61988 -1.02325 0
M  V30 2551 C 249.409 -0.816855 -3.4794 0
M  V30 2552 C 249.238 -2.28731 -3.87185 0
M  V30 2553 C 248.008 -2.93841 -4.11079 0
M  V30 2554 C 250.206 -3.26415 -3.97439 0
M  V30 2555 N 248.188 -4.31129 -4.37037 0
M  V30 2556 C 249.559 -4.48884 -4.27672 0
M  V30 2557 C 251.614 -3.21742 -3.79982 0
M  V30 2558 C 250.317 -5.67268 -4.42266 0
M  V30 2559 C 252.343 -4.39431 -3.95796 0
M  V30 2560 C 251.705 -5.60675 -4.26407 0
M  V30 2561 H 247.804 -0.256797 -0.738633 0
M  V30 2562 H 250.388 -1.18386 -1.54573 0
M  V30 2563 H 248.559 -0.227445 -3.87733 0
M  V30 2564 H 250.291 -0.426542 -4.02446 0
M  V30 2565 H 247.046 -2.44547 -4.05578 0
M  V30 2566 H 247.47 -5.02127 -4.5409 0
M  V30 2567 H 252.112 -2.29079 -3.55363 0
M  V30 2568 H 249.83 -6.60406 -4.65714 0
M  V30 2569 H 253.416 -4.37323 -3.83719 0
M  V30 2570 H 252.296 -6.50223 -4.38383 0
M  V30 2571 N 249.799 1.42003 -0.683588 0
M  V30 2572 C 251.029 2.05448 -0.217866 0
M  V30 2573 C 251.437 1.51491 1.13346 0
M  V30 2574 O 250.78 0.653048 1.717 0
M  V30 2575 C 250.842 3.59399 -0.0850118 0
M  V30 2576 C 250.506 4.36093 -1.36645 0
M  V30 2577 C 251.503 4.66169 -2.30179 0
M  V30 2578 C 249.188 4.75578 -1.61649 0
M  V30 2579 C 251.182 5.34676 -3.46988 0
M  V30 2580 C 248.869 5.43824 -2.78745 0
M  V30 2581 C 249.867 5.73299 -3.71238 0
M  V30 2582 O 249.555 6.40142 -4.86285 0
M  V30 2583 H 249.287 0.668344 -0.101454 0
M  V30 2584 H 251.841 1.82974 -0.933248 0
M  V30 2585 H 250.071 3.80566 0.686031 0
M  V30 2586 H 251.76 4.04457 0.341973 0
M  V30 2587 H 252.526 4.36156 -2.12115 0
M  V30 2588 H 248.405 4.52025 -0.905243 0
M  V30 2589 H 251.949 5.57599 -4.19201 0
M  V30 2590 H 247.846 5.73254 -2.96732 0
M  V30 2591 H 248.614 6.58636 -4.85944 0
M  V30 2592 N 251.277 0.427512 1.51691 0
M  V30 2593 C 252.502 -0.143601 2.06902 0
M  V30 2594 C 252.927 -1.36536 1.29382 0
M  V30 2595 O 252.285 -1.78289 0.329043 0
M  V30 2596 C 252.333 -0.454207 3.57728 0
M  V30 2597 O 251.437 -1.54228 3.82475 0
M  V30 2598 H 250.778 -0.00617128 0.663971 0
M  V30 2599 H 253.308 0.606014 1.95419 0
M  V30 2600 H 253.318 -0.707525 4.01818 0
M  V30 2601 H 251.993 0.438812 4.13579 0
M  V30 2602 H 250.57 -1.2797 3.50254 0
M  V30 2603 N 252.755 -1.56801 0.158532 0
M  V30 2604 C 254.032 -1.88131 -0.535357 0
M  V30 2605 C 254.412 -1.06638 -1.82186 0
M  V30 2606 O 253.76 -0.156533 -2.27963 0
M  V30 2607 C 253.97 -3.39949 -0.789653 0
M  V30 2608 C 255.318 -4.09416 -1.12533 0
M  V30 2609 O 256.342 -3.45194 -0.878622 0
M  V30 2610 O 255.201 -5.22855 -1.59014 0
M  V30 2611 H 252.295 -0.780143 -0.27442 0
M  V30 2612 H 254.841 -1.68564 0.19601 0
M  V30 2613 H 253.613 -3.91115 0.120353 0
M  V30 2614 H 253.236 -3.65084 -1.57479 0
M  V30 2615 N 254.233 0.115231 -1.57178 0
M  V30 2616 C 255.181 1.16014 -2.01602 0
M  V30 2617 C 256.175 1.42653 -0.913587 0
M  V30 2618 O 257.381 1.42571 -1.09879 0
M  V30 2619 H 253.756 0.391252 -0.642204 0
M  V30 2620 H 255.727 0.758998 -2.88586 0
M  V30 2621 C 254.476 2.47767 -2.4394 0
M  V30 2622 H 253.799 2.28108 -3.28339 0
M  V30 2623 H 255.239 3.19432 -2.78818 0
M  V30 2624 C 253.698 3.10617 -1.30455 0
M  V30 2625 O 254.228 3.96846 -0.622585 0
M  V30 2626 N 252.434 2.70553 -1.06064 0
M  V30 2627 H 251.981 2.00527 -1.61699 0
M  V30 2628 H 251.939 3.12934 -0.303284 0
M  V30 2629 N 255.711 1.52812 0.385517 0
M  V30 2630 C 256.621 1.80766 1.49535 0
M  V30 2631 C 257.637 0.694651 1.59532 0
M  V30 2632 O 258.813 0.982611 1.75803 0
M  V30 2633 C 255.878 1.97381 2.85029 0
M  V30 2634 C 254.939 3.21295 2.84724 0
M  V30 2635 C 254.172 3.37108 4.13756 0
M  V30 2636 O 254.395 2.5765 5.08893 0
M  V30 2637 O 253.329 4.30378 4.20783 0
M  V30 2638 H 257.155 2.75015 1.28842 0
M  V30 2639 H 254.74 1.37946 0.573697 0
M  V30 2640 H 256.622 2.09996 3.65349 0
M  V30 2641 H 255.297 1.06322 3.05741 0
M  V30 2642 H 254.204 3.1412 2.03174 0
M  V30 2643 H 255.537 4.12212 2.68965 0
M  V30 2644 N 257.189 -0.644168 1.43834 0
M  V30 2645 C 258.122 -1.76906 1.44151 0
M  V30 2646 C 259.1 -1.59774 0.301857 0
M  V30 2647 O 260.284 -1.81834 0.496841 0
M  V30 2648 C 257.411 -3.14321 1.26174 0
M  V30 2649 C 256.457 -3.50134 2.43533 0
M  V30 2650 S 257.29 -3.49085 4.06079 0
M  V30 2651 C 258.446 -4.89142 3.90501 0
M  V30 2652 H 258.679 -1.76368 2.39336 0
M  V30 2653 H 256.212 -0.817624 1.30974 0
M  V30 2654 H 258.17 -3.93625 1.16489 0
M  V30 2655 H 256.831 -3.12412 0.325224 0
M  V30 2656 H 256.024 -4.50095 2.26783 0
M  V30 2657 H 255.626 -2.78264 2.4989 0
M  V30 2658 H 257.918 -5.78036 3.53385 0
M  V30 2659 H 258.861 -5.10945 4.90246 0
M  V30 2660 H 259.269 -4.63102 3.22795 0
M  V30 2661 N 258.668 -1.30515 -0.883378 0
M  V30 2662 C 260.079 -1.17509 -1.45081 0
M  V30 2663 C 260.43 0.223605 -1.94922 0
M  V30 2664 O 259.555 1.12041 -1.85137 0
M  V30 2665 C 260.15 -2.12715 -2.63701 0
M  V30 2666 C 258.709 -2.03682 -3.16529 0
M  V30 2667 C 257.856 -2.02706 -1.89224 0
M  V30 2668 H 260.807 -1.42762 -0.693165 0
M  V30 2669 H 260.828 -1.70891 -3.39965 0
M  V30 2670 H 260.34 -3.14505 -2.27395 0
M  V30 2671 H 258.441 -1.05039 -3.57488 0
M  V30 2672 H 258.554 -2.92146 -3.7972 0
M  V30 2673 H 256.918 -1.4753 -2.07622 0
M  V30 2674 H 257.701 -3.06229 -1.55174 0
M  V30 2675 N 260.146 1.09593 -1.13257 0
M  V30 2676 C 261.557 1.63229 -0.906274 0
M  V30 2677 C 261.908 1.8811 0.557578 0
M  V30 2678 O 261.033 1.62953 1.42391 0
M  V30 2679 C 261.628 2.96535 -1.63867 0
M  V30 2680 C 260.187 3.47003 -1.45828 0
M  V30 2681 C 259.334 2.2145 -1.66898 0
M  V30 2682 H 262.285 0.92978 -1.28611 0
M  V30 2683 H 262.306 3.64411 -1.09476 0
M  V30 2684 H 261.818 2.78394 -2.70404 0
M  V30 2685 H 259.919 3.70272 -0.415848 0
M  V30 2686 H 260.032 4.24551 -2.2202 0
M  V30 2687 H 258.396 2.30022 -1.09371 0
M  V30 2688 H 259.179 2.0583 -2.74752 0
M  V30 2689 N 261.624 0.925811 1.2754 0
M  V30 2690 C 262.534 0.428993 2.30644 0
M  V30 2691 C 263.55 -0.489387 1.66976 0
M  V30 2692 O 264.726 -0.372653 1.97922 0
M  V30 2693 C 261.791 -0.311967 3.45294 0
M  V30 2694 C 260.852 0.641098 4.24486 0
M  V30 2695 C 260.085 -0.0645955 5.33661 0
M  V30 2696 O 260.308 -1.28429 5.55754 0
M  V30 2697 O 259.242 0.606265 5.98839 0
M  V30 2698 H 263.068 1.28504 2.75173 0
M  V30 2699 H 260.653 0.691086 1.32455 0
M  V30 2700 H 262.535 -0.729972 4.15029 0
M  V30 2701 H 261.21 -1.14365 3.02824 0
M  V30 2702 H 260.117 1.10874 3.57292 0
M  V30 2703 H 261.45 1.43995 4.70666 0
M  V30 2704 N 263.102 -1.41638 0.69111 0
M  V30 2705 C 264.065 -2.29178 0.0319786 0
M  V30 2706 C 265.065 -1.44153 -0.712496 0
M  V30 2707 O 266.255 -1.65354 -0.548053 0
M  V30 2708 C 263.387 -3.26952 -0.965161 0
M  V30 2709 H 264.58 -2.88959 0.802681 0
M  V30 2710 H 262.133 -1.4955 0.454356 0
M  V30 2711 H 262.868 -2.72142 -1.76378 0
M  V30 2712 H 262.653 -3.89685 -0.434522 0
M  V30 2713 H 264.143 -3.92561 -1.42428 0
M  V30 2714 N 264.58 -0.43555 -1.51462 0
M  V30 2715 C 265.51 0.367376 -2.30592 0
M  V30 2716 C 266.491 1.02263 -1.35928 0
M  V30 2717 O 267.676 1.02661 -1.64847 0
M  V30 2718 C 264.806 1.46983 -3.14664 0
M  V30 2719 C 263.76 0.938161 -4.17591 0
M  V30 2720 C 263.086 2.13622 -4.90173 0
M  V30 2721 C 264.386 -0.0261621 -5.22293 0
M  V30 2722 H 266.08 -0.292969 -2.97963 0
M  V30 2723 H 263.626 -0.14234 -1.43295 0
M  V30 2724 H 265.579 2.03873 -3.688 0
M  V30 2725 H 264.303 2.15843 -2.4511 0
M  V30 2726 H 262.962 0.391481 -3.64504 0
M  V30 2727 H 262.61 2.81098 -4.17124 0
M  V30 2728 H 262.31 1.78688 -5.59772 0
M  V30 2729 H 263.834 2.7107 -5.47132 0
M  V30 2730 H 265.248 0.452384 -5.71512 0
M  V30 2731 H 263.645 -0.287992 -5.99409 0
M  V30 2732 H 264.715 -0.963391 -4.75233 0
M  V30 2733 N 266.058 1.56714 -0.166846 0
M  V30 2734 C 267.283 2.01557 0.488833 0
M  V30 2735 C 267.708 1.0463 1.56314 0
M  V30 2736 O 267.066 0.0251304 1.81283 0
M  V30 2737 C 267.114 3.4503 1.04818 0
M  V30 2738 O 266.218 3.51163 2.16236 0
M  V30 2739 H 265.559 0.653516 0.117526 0
M  V30 2740 H 268.089 2.02818 -0.269421 0
M  V30 2741 H 268.099 3.84243 1.37191 0
M  V30 2742 H 266.774 4.15077 0.261572 0
M  V30 2743 H 265.351 3.23807 1.84942 0
M  V30 2744 N 267.536 -0.106894 1.57237 0
M  V30 2745 C 268.468 -1.15646 1.97885 0
M  V30 2746 C 269.481 -1.36981 0.879779 0
M  V30 2747 O 270.67 -1.35841 1.15799 0
M  V30 2748 C 267.77 -2.51425 2.27241 0
M  V30 2749 C 266.943 -2.50529 3.58545 0
M  V30 2750 C 266.002 -3.68145 3.75973 0
M  V30 2751 O 265.028 -3.51176 4.47956 0
M  V30 2752 N 266.23 -4.87177 3.15656 0
M  V30 2753 H 268.995 -0.81059 2.8853 0
M  V30 2754 H 266.556 -0.296024 1.59171 0
M  V30 2755 H 268.548 -3.28689 2.36105 0
M  V30 2756 H 267.118 -2.78147 1.42663 0
M  V30 2757 H 266.338 -1.58894 3.60758 0
M  V30 2758 H 267.626 -2.46997 4.44826 0
M  V30 2759 H 267.024 -5.03868 2.57165 0
M  V30 2760 H 265.581 -5.62075 3.30023 0
M  V30 2761 N 269.014 -1.53014 -0.377408 0
M  V30 2762 C 270.262 -1.6829 -1.11906 0
M  V30 2763 C 270.583 -0.431206 -1.90173 0
M  V30 2764 O 269.853 0.554595 -1.87886 0
M  V30 2765 H 268.433 -0.620371 -0.416112 0
M  V30 2766 H 271.095 -1.90167 -0.426893 0
M  V30 2767 H 270.191 -2.53862 -1.8155 0
M  V30 2768 N 270.492 0.636531 -1.44174 0
M  V30 2769 C 271.732 1.40781 -1.48189 0
M  V30 2770 C 272.096 1.91688 -0.10944 0
M  V30 2771 O 273.297 2.68789 -0.0242741 0
M  V30 2772 C 271.568 2.54575 -2.50851 0
M  V30 2773 S 273.127 3.4284 -2.73873 0
M  V30 2774 H 269.945 0.480345 -0.524204 0
M  V30 2775 H 272.547 0.737416 -1.81059 0
M  V30 2776 H 271.251 2.15478 -3.49281 0
M  V30 2777 H 270.782 3.26447 -2.19536 0
M  V30 2778 H 272.797 4.51846 -2.05059 0
M  V30 2779 N 271.97 1.30982 0.876444 0
M  V30 2780 C 272.917 1.18085 1.98304 0
M  V30 2781 C 273.887 0.0682263 1.6596 0
M  V30 2782 O 275.072 0.239937 1.89285 0
M  V30 2783 C 272.212 0.887475 3.33493 0
M  V30 2784 C 271.325 2.08281 3.78475 0
M  V30 2785 C 270.46 1.72678 5.0235 0
M  V30 2786 C 269.499 2.88657 5.39762 0
M  V30 2787 N 268.636 2.53292 6.54819 0
M  V30 2788 H 273.476 2.1275 2.08666 0
M  V30 2789 H 271.013 1.05839 1.02159 0
M  V30 2790 H 272.971 0.697961 4.1132 0
M  V30 2791 H 271.601 -0.022315 3.22792 0
M  V30 2792 H 270.653 2.3833 2.96484 0
M  V30 2793 H 271.965 2.95108 4.02135 0
M  V30 2794 H 271.119 1.50151 5.87826 0
M  V30 2795 H 269.858 0.830327 4.8058 0
M  V30 2796 H 268.863 3.1184 4.52809 0
M  V30 2797 H 270.088 3.79002 5.63502 0
M  V30 2798 H 268.034 1.66163 6.34607 0
M  V30 2799 H 267.951 3.3365 6.7839 0
M  V30 2800 H 269.219 2.34143 7.43503 0
M  V30 2801 N 273.449 -1.08991 1.13837 0
M  V30 2802 C 274.726 -1.77863 0.813876 0
M  V30 2803 C 275.106 -1.99375 -0.693746 0
M  V30 2804 O 274.454 -1.59875 -1.63255 0
M  V30 2805 C 274.664 -3.0986 1.60586 0
M  V30 2806 C 276.012 -3.84493 1.8014 0
M  V30 2807 O 277.036 -3.19624 1.57222 0
M  V30 2808 O 275.895 -5.00957 2.18413 0
M  V30 2809 H 272.989 -0.771589 0.297624 0
M  V30 2810 H 275.535 -1.15507 1.24323 0
M  V30 2811 H 274.307 -2.89715 2.63022 0
M  V30 2812 H 273.93 -3.79942 1.17173 0
M  V30 2813 N 274.927 -0.932562 -1.27047 0
M  V30 2814 C 276.176 -0.571351 -1.93439 0
M  V30 2815 C 276.489 0.892467 -1.74053 0
M  V30 2816 O 277.695 1.36267 -2.34826 0
M  V30 2817 C 276.151 -0.97106 -3.46552 0
M  V30 2818 C 275.759 -2.4559 -3.74686 0
M  V30 2819 C 277.503 -0.681333 -4.18997 0
M  V30 2820 C 275.41 -2.79475 -5.21198 0
M  V30 2821 H 274.34 -0.209966 -0.724176 0
M  V30 2822 H 276.991 -1.13403 -1.44263 0
M  V30 2823 H 275.373 -0.336983 -3.94564 0
M  V30 2824 H 276.547 -3.13829 -3.37414 0
M  V30 2825 H 274.862 -2.71802 -3.15456 0
M  V30 2826 H 277.459 -0.910939 -5.26883 0
M  V30 2827 H 277.802 0.381628 -4.14547 0
M  V30 2828 H 278.335 -1.27473 -3.76823 0
M  V30 2829 H 275.074 -3.847 -5.30741 0
M  V30 2830 H 274.594 -2.1589 -5.596 0
M  V30 2831 H 276.273 -2.67478 -5.89122 0
M  V30 2832 N 276.405 1.4127 -0.698611 0
M  V30 2833 C 277.368 2.29158 -0.044132 0
M  V30 2834 C 278.368 1.44529 0.704841 0
M  V30 2835 O 279.558 1.65643 0.539276 0
M  V30 2836 C 276.69 3.27459 0.947809 0
M  V30 2837 H 277.883 2.88529 -0.817994 0
M  V30 2838 H 275.436 1.49307 -0.46228 0
M  V30 2839 H 276.171 2.73073 1.74933 0
M  V30 2840 H 275.956 3.8991 0.41385 0
M  V30 2841 H 277.446 3.93311 1.40344 0
M  V30 2842 N 277.883 0.443576 1.51229 0
M  V30 2843 C 279.113 -0.119117 2.06256 0
M  V30 2844 C 279.521 -1.36471 1.31043 0
M  V30 2845 O 278.864 -1.80034 0.365151 0
M  V30 2846 C 278.926 -0.500546 3.55998 0
M  V30 2847 C 278.59 0.639125 4.52509 0
M  V30 2848 C 279.587 1.51311 4.97394 0
M  V30 2849 C 277.272 0.821632 4.95535 0
M  V30 2850 C 279.266 2.55425 5.83984 0
M  V30 2851 C 276.953 1.86603 5.81913 0
M  V30 2852 C 277.951 2.73072 6.26036 0
M  V30 2853 O 277.639 3.75718 7.10698 0
M  V30 2854 H 277.371 -0.00857665 0.675946 0
M  V30 2855 H 279.925 0.623288 1.95715 0
M  V30 2856 H 278.155 -1.29575 3.64345 0
M  V30 2857 H 279.844 -0.995116 3.93513 0
M  V30 2858 H 280.61 1.38367 4.64844 0
M  V30 2859 H 276.489 0.158149 4.60729 0
M  V30 2860 H 280.033 3.22949 6.18344 0
M  V30 2861 H 275.93 1.99564 6.13876 0
M  V30 2862 H 276.698 3.72374 7.2889 0
M  V30 2863 N 279.361 -1.56624 0.175154 0
M  V30 2864 C 280.293 -2.15333 -0.785128 0
M  V30 2865 C 281.306 -1.1099 -1.19101 0
M  V30 2866 O 282.495 -1.38162 -1.13019 0
M  V30 2867 C 279.595 -2.68427 -2.06882 0
M  V30 2868 C 278.768 -3.97466 -1.8259 0
M  V30 2869 C 277.827 -4.35585 -2.95215 0
M  V30 2870 O 276.853 -5.03389 -2.65684 0
M  V30 2871 N 278.055 -3.97457 -4.23094 0
M  V30 2872 H 280.82 -2.98359 -0.283187 0
M  V30 2873 H 278.381 -1.61898 -0.00749817 0
M  V30 2874 H 280.373 -2.90924 -2.81328 0
M  V30 2875 H 278.943 -1.89968 -2.48256 0
M  V30 2876 H 278.163 -3.83307 -0.920287 0
M  V30 2877 H 279.451 -4.81736 -1.63733 0
M  V30 2878 H 278.849 -3.42878 -4.49945 0
M  V30 2879 H 277.406 -4.24947 -4.9423 0
M  V30 2880 N 280.839 0.0985539 -1.57292 0
M  V30 2881 C 281.769 1.12064 -2.04851 0
M  V30 2882 C 282.75 1.41981 -0.936767 0
M  V30 2883 O 283.935 1.52071 -1.20781 0
M  V30 2884 C 281.065 2.44144 -2.47004 0
M  V30 2885 C 280.019 2.28643 -3.6181 0
M  V30 2886 C 279.345 3.65869 -3.89929 0
M  V30 2887 C 280.645 1.72986 -4.92822 0
M  V30 2888 H 282.339 0.724979 -2.9049 0
M  V30 2889 H 279.885 0.34729 -1.39749 0
M  V30 2890 H 281.838 3.15914 -2.78884 0
M  V30 2891 H 280.562 2.85639 -1.5836 0
M  V30 2892 H 279.221 1.59318 -3.30172 0
M  V30 2893 H 278.869 4.04885 -2.98458 0
M  V30 2894 H 278.569 3.56344 -4.67218 0
M  V30 2895 H 280.093 4.39112 -4.2428 0
M  V30 2896 H 281.507 2.34593 -5.23105 0
M  V30 2897 H 279.904 1.74229 -5.74251 0
M  V30 2898 H 280.974 0.689007 -4.7998 0
M  V30 2899 N 282.317 1.53212 0.369288 0
M  V30 2900 C 283.25 1.74166 1.4745 0
M  V30 2901 C 284.228 0.589923 1.51521 0
M  V30 2902 O 285.412 0.822078 1.69629 0
M  V30 2903 C 282.539 1.81711 2.8583 0
M  V30 2904 C 281.585 3.03649 2.99499 0
M  V30 2905 S 282.418 4.63242 2.6864 0
M  V30 2906 C 283.574 4.7363 4.09177 0
M  V30 2907 H 283.807 2.67636 1.29454 0
M  V30 2908 H 281.34 1.43754 0.563396 0
M  V30 2909 H 283.298 1.86743 3.65564 0
M  V30 2910 H 281.959 0.89299 3.01139 0
M  V30 2911 H 281.152 3.05526 4.00836 0
M  V30 2912 H 280.754 2.9671 2.27683 0
M  V30 2913 H 283.046 4.53456 5.03372 0
M  V30 2914 H 283.989 5.75682 4.12306 0
M  V30 2915 H 284.397 4.02295 3.96004 0
M  V30 2916 N 283.795 -0.628877 1.44509 0
M  V30 2917 C 284.745 -1.7345 1.47983 0
M  V30 2918 C 285.729 -1.5715 0.345373 0
M  V30 2919 O 286.921 -1.66848 0.590829 0
M  V30 2920 C 284.05 -3.12143 1.42904 0
M  V30 2921 C 283.136 -3.33906 2.61472 0
M  V30 2922 N 283.527 -3.26024 3.86706 0
M  V30 2923 C 281.825 -3.64709 2.56716 0
M  V30 2924 C 282.526 -3.48536 4.65722 0
M  V30 2925 N 281.502 -3.71517 3.96832 0
M  V30 2926 H 285.304 -1.65818 2.42655 0
M  V30 2927 H 282.818 -0.831419 1.39503 0
M  V30 2928 H 284.815 -3.91433 1.43476 0
M  V30 2929 H 283.475 -3.2094 0.492717 0
M  V30 2930 H 284.486 -3.04893 4.18641 0
M  V30 2931 H 281.163 -3.80473 1.71891 0
M  V30 2932 H 282.553 -3.48016 5.74747 0
M  V30 2933 N 285.273 -1.31445 -0.869486 0
M  V30 2934 C 286.221 -1.19067 -1.99814 0
M  V30 2935 C 287.215 -0.0988569 -1.69111 0
M  V30 2936 O 288.421 -0.260781 -1.78101 0
M  V30 2937 H 284.796 -0.368677 -0.655425 0
M  V30 2938 H 286.767 -2.14555 -2.07385 0
M  V30 2939 C 285.516 -0.915323 -3.35436 0
M  V30 2940 H 284.839 -1.74759 -3.59582 0
M  V30 2941 H 286.279 -0.868895 -4.15001 0
M  V30 2942 C 284.738 0.381928 -3.34728 0
M  V30 2943 O 285.268 1.39857 -3.76567 0
M  V30 2944 N 283.474 0.398633 -2.87853 0
M  V30 2945 H 283.021 -0.429186 -2.54 0
M  V30 2946 H 282.979 1.26651 -2.87762 0
M  V30 2947 N 286.751 1.08385 -1.14413 0
M  V30 2948 C 288 1.80153 -0.907076 0
M  V30 2949 C 288.313 1.87176 0.567851 0
M  V30 2950 O 289.519 2.55359 0.922172 0
M  V30 2951 C 287.975 3.23687 -1.57336 0
M  V30 2952 C 287.583 3.24897 -3.08457 0
M  V30 2953 C 289.327 4.00136 -1.41744 0
M  V30 2954 C 287.234 4.6302 -3.67921 0
M  V30 2955 H 286.164 0.675139 -0.335714 0
M  V30 2956 H 288.815 1.21733 -1.37307 0
M  V30 2957 H 287.197 3.82234 -1.03505 0
M  V30 2958 H 288.371 2.76055 -3.68958 0
M  V30 2959 H 286.686 2.61943 -3.2369 0
M  V30 2960 H 289.283 5.02201 -1.83572 0
M  V30 2961 H 289.626 4.14709 -0.363576 0
M  V30 2962 H 290.159 3.48058 -1.92614 0
M  V30 2963 H 286.898 4.5365 -4.73161 0
M  V30 2964 H 286.418 5.12143 -3.12201 0
M  V30 2965 H 288.097 5.31994 -3.68227 0
M  V30 2966 N 288.23 0.939286 1.26551 0
M  V30 2967 C 289.646 0.641304 1.46149 0
M  V30 2968 C 289.846 -0.805964 1.84679 0
M  V30 2969 O 288.902 -1.58278 1.96734 0
M  V30 2970 C 290.215 1.6011 2.54529 0
M  V30 2971 C 291.763 1.6106 2.68382 0
M  V30 2972 C 292.238 2.55765 3.79932 0
M  V30 2973 N 293.729 2.5404 3.87322 0
M  V30 2974 C 294.464 3.24004 4.73085 0
M  V30 2975 N 293.96 4.03388 5.63249 0
M  V30 2976 N 295.753 3.12965 4.66914 0
M  V30 2977 H 287.904 1.87478 0.998285 0
M  V30 2978 H 290.167 0.805559 0.499779 0
M  V30 2979 H 289.873 2.63412 2.33039 0
M  V30 2980 H 289.747 1.35171 3.52149 0
M  V30 2981 H 292.134 0.584835 2.89247 0
M  V30 2982 H 292.215 1.90053 1.71212 0
M  V30 2983 H 291.859 3.58458 3.5982 0
M  V30 2984 H 291.789 2.24063 4.76554 0
M  V30 2985 H 294.28 1.96396 3.22858 0
M  V30 2986 H 294.593 4.5373 6.25579 0
M  V30 2987 H 292.938 4.07489 5.63008 0
M  V30 2988 H 296.129 2.50432 3.95476 0
M  V30 2989 H 296.302 3.67759 5.33533 0
M  V30 2990 N 289.708 -1.40897 0.706093 0
M  V30 2991 C 290.985 -1.94868 0.169099 0
M  V30 2992 C 291.365 -1.64485 -1.32318 0
M  V30 2993 O 290.713 -0.95744 -2.07474 0
M  V30 2994 C 290.923 -3.45798 0.471654 0
M  V30 2995 C 292.271 -4.22663 0.405127 0
M  V30 2996 O 293.295 -3.53865 0.407168 0
M  V30 2997 O 292.154 -5.45216 0.374383 0
M  V30 2998 H 289.248 -0.82673 0.0211352 0
M  V30 2999 H 291.794 -1.50558 0.782976 0
M  V30 3000 H 290.566 -3.61235 1.50416 0
M  V30 3001 H 290.189 -3.97225 -0.172666 0
M  V30 3002 N 291.186 -0.45159 -1.50991 0
M  V30 3003 C 292.435 0.111653 -2.01391 0
M  V30 3004 C 292.748 1.42529 -1.33959 0
M  V30 3005 O 293.954 2.07232 -1.75405 0
M  V30 3006 C 292.41 0.249514 -3.59034 0
M  V30 3007 C 292.018 -1.05453 -4.35412 0
M  V30 3008 C 293.762 0.765762 -4.17536 0
M  V30 3009 C 291.669 -0.881529 -5.84793 0
M  V30 3010 H 290.599 0.0455022 -0.752626 0
M  V30 3011 H 293.25 -0.583524 -1.73975 0
M  V30 3012 H 291.632 1.00803 -3.82955 0
M  V30 3013 H 292.806 -1.82248 -4.23229 0
M  V30 3014 H 291.121 -1.50039 -3.88429 0
M  V30 3015 H 293.718 0.911913 -5.26866 0
M  V30 3016 H 294.061 1.75201 -3.77638 0
M  V30 3017 H 294.594 0.0651744 -3.97747 0
M  V30 3018 H 291.333 -1.84057 -6.29129 0
M  V30 3019 H 290.853 -0.153625 -5.99603 0
M  V30 3020 H 292.532 -0.540363 -6.4474 0
M  V30 3021 N 292.664 1.56529 -0.183458 0
M  V30 3022 C 293.941 1.88959 0.50536 0
M  V30 3023 C 294.321 1.09523 1.80466 0
M  V30 3024 O 293.669 0.19278 2.27685 0
M  V30 3025 C 293.879 3.41162 0.73547 0
M  V30 3026 C 295.227 4.11155 1.06005 0
M  V30 3027 O 296.251 3.46548 0.823594 0
M  V30 3028 O 295.11 5.25318 1.50675 0
M  V30 3029 H 292.204 0.78441 0.261973 0
M  V30 3030 H 294.75 1.68231 -0.222802 0
M  V30 3031 H 293.522 3.90874 -0.182561 0
M  V30 3032 H 293.145 3.67543 1.51651 0
M  V30 3033 N 294.142 -0.090211 1.57342 0
M  V30 3034 C 295.388 -0.793982 1.86611 0
M  V30 3035 C 295.721 -1.78142 0.773252 0
M  V30 3036 O 294.996 -1.93271 -0.218304 0
M  V30 3037 C 295.279 -1.51839 3.26523 0
M  V30 3038 C 295.132 -0.548609 4.46442 0
M  V30 3039 C 296.451 -2.46779 3.64401 0
M  V30 3040 H 293.57 -0.287186 0.678744 0
M  V30 3041 H 296.212 -0.0575076 1.89913 0
M  V30 3042 H 294.362 -2.14617 3.23839 0
M  V30 3043 H 296.034 0.0725513 4.61243 0
M  V30 3044 H 294.277 0.137614 4.33582 0
M  V30 3045 H 294.948 -1.09271 5.41076 0
M  V30 3046 H 297.424 -1.94089 3.68061 0
M  V30 3047 H 296.3 -2.94479 4.63221 0
M  V30 3048 H 296.561 -3.30758 2.93346 0
M  V30 3049 N 295.62 -1.53406 -0.361157 0
M  V30 3050 C 296.869 -1.69022 -1.10066 0
M  V30 3051 C 297.182 -0.450838 -1.90333 0
M  V30 3052 O 298.388 -0.487617 -2.67085 0
M  V30 3053 C 296.844 -2.98812 -2.00598 0
M  V30 3054 C 296.452 -4.30027 -1.25621 0
M  V30 3055 C 298.196 -3.23795 -2.74513 0
M  V30 3056 C 296.103 -5.50903 -2.1508 0
M  V30 3057 H 295.033 -0.629776 -0.414606 0
M  V30 3058 H 297.684 -1.79907 -0.361348 0
M  V30 3059 H 296.066 -2.8174 -2.78278 0
M  V30 3060 H 297.24 -4.57745 -0.529739 0
M  V30 3061 H 295.555 -4.11522 -0.635496 0
M  V30 3062 H 298.152 -4.11289 -3.41681 0
M  V30 3063 H 298.495 -2.40045 -3.40123 0
M  V30 3064 H 299.028 -3.41561 -2.03914 0
M  V30 3065 H 295.767 -6.37143 -1.54041 0
M  V30 3066 H 295.287 -5.27459 -2.85565 0
M  V30 3067 H 296.966 -5.85865 -2.74538 0
M  V30 3068 N 297.098 0.621204 -1.44841 0
M  V30 3069 C 298.031 1.7459 -1.46947 0
M  V30 3070 C 299.009 1.59273 -0.327238 0
M  V30 3071 O 300.193 1.81021 -0.525706 0
M  V30 3072 C 297.32 3.12274 -1.31159 0
M  V30 3073 C 296.366 3.46216 -2.49072 0
M  V30 3074 S 297.199 3.4258 -4.11581 0
M  V30 3075 C 298.355 4.82867 -3.98233 0
M  V30 3076 H 298.588 1.72538 -2.42111 0
M  V30 3077 H 296.121 0.796683 -1.32259 0
M  V30 3078 H 298.079 3.91722 -1.22737 0
M  V30 3079 H 296.74 3.11855 -0.374885 0
M  V30 3080 H 295.933 4.4643 -2.33915 0
M  V30 3081 H 295.535 2.74253 -2.54286 0
M  V30 3082 H 297.827 5.7234 -3.62537 0
M  V30 3083 H 298.77 5.0308 -4.98313 0
M  V30 3084 H 299.178 4.57908 -3.30121 0
M  V30 3085 N 298.576 1.31904 0.862503 0
M  V30 3086 C 299.824 1.21776 1.61292 0
M  V30 3087 C 300.145 -0.222413 1.93727 0
M  V30 3088 O 299.415 -1.1451 1.58947 0
M  V30 3089 H 297.995 0.447717 0.597962 0
M  V30 3090 H 300.657 1.65326 1.03215 0
M  V30 3091 H 299.753 1.7948 2.5533 0
M  V30 3092 N 300.054 -1.07777 1.14986 0
M  V30 3093 C 301.302 -1.79934 0.920235 0
M  V30 3094 C 301.623 -1.86955 -0.554336 0
M  V30 3095 O 300.893 -1.36731 -1.40291 0
M  V30 3096 H 299.473 -0.666424 0.337473 0
M  V30 3097 H 302.135 -1.3027 1.44968 0
M  V30 3098 H 301.231 -2.82539 1.32583 0
M  V30 3099 N 301.532 -0.945985 -1.26051 0
M  V30 3100 C 302.78 -0.594941 -1.93145 0
M  V30 3101 C 303.101 0.86953 -1.7454 0
M  V30 3102 O 302.371 1.61838 -1.10387 0
M  V30 3103 H 300.951 -0.217044 -0.714773 0
M  V30 3104 H 303.613 -1.20235 -1.53393 0
M  V30 3105 H 302.709 -0.816835 -3.01221 0
M  V30 3106 N 303.011 1.40521 -0.713556 0
M  V30 3107 C 304.427 1.54839 -0.386907 0
M  V30 3108 C 304.627 1.68532 1.1045 0
M  V30 3109 O 303.683 1.67377 1.89053 0
M  V30 3110 C 304.996 2.77792 -1.15118 0
M  V30 3111 C 306.544 2.91607 -1.13729 0
M  V30 3112 C 307.019 4.1747 -1.88368 0
M  V30 3113 N 308.51 4.24466 -1.85427 0
M  V30 3114 C 309.245 5.20755 -2.40004 0
M  V30 3115 N 308.741 6.22965 -3.03129 0
M  V30 3116 N 310.534 5.1282 -2.30158 0
M  V30 3117 H 302.685 1.29879 -1.68063 0
M  V30 3118 H 304.948 0.627896 -0.710247 0
M  V30 3119 H 304.654 2.73944 -2.20561 0
M  V30 3120 H 304.528 3.6984 -0.741477 0
M  V30 3121 H 306.915 2.94959 -0.0910608 0
M  V30 3122 H 306.996 2.00682 -1.5862 0
M  V30 3123 H 306.64 4.1488 -2.9298 0
M  V30 3124 H 306.57 5.074 -1.40898 0
M  V30 3125 H 309.061 3.51241 -1.3942 0
M  V30 3126 H 309.374 6.92859 -3.42295 0
M  V30 3127 H 307.719 6.23415 -3.07212 0
M  V30 3128 H 310.91 4.31899 -1.80501 0
M  V30 3129 H 311.083 5.87689 -2.72993 0
M  V30 3130 N 304.489 0.459591 1.5075 0
M  V30 3131 C 305.436 -0.340524 2.28274 0
M  V30 3132 C 306.406 -0.997371 1.32822 0
M  V30 3133 O 307.591 -1.01202 1.61749 0
M  V30 3134 C 304.731 -1.42317 3.14388 0
M  V30 3135 C 303.844 -0.782251 4.24859 0
M  V30 3136 C 302.979 -1.84182 4.98247 0
M  V30 3137 C 302.018 -1.18053 6.00608 0
M  V30 3138 N 301.155 -2.18244 6.67319 0
M  V30 3139 H 305.995 0.326899 2.96202 0
M  V30 3140 H 303.532 0.173057 1.46078 0
M  V30 3141 H 305.49 -2.06241 3.62658 0
M  V30 3142 H 304.12 -2.05992 2.4853 0
M  V30 3143 H 303.172 -0.0307404 3.80388 0
M  V30 3144 H 304.484 -0.259663 4.98124 0
M  V30 3145 H 303.638 -2.55714 5.50177 0
M  V30 3146 H 302.377 -2.39819 4.24662 0
M  V30 3147 H 301.382 -0.450776 5.47949 0
M  V30 3148 H 302.607 -0.631202 6.7616 0
M  V30 3149 H 300.553 -2.72919 5.96533 0
M  V30 3150 H 300.47 -1.70938 7.36421 0
M  V30 3151 H 301.738 -2.89191 7.23871 0
M  V30 3152 N 305.967 -1.56429 0.191757 0
M  V30 3153 C 307.197 -2.01574 -0.452928 0
M  V30 3154 C 307.605 -1.07107 -1.55964 0
M  V30 3155 O 306.948 -0.067534 -1.83576 0
M  V30 3156 C 307.01 -3.43121 -1.07278 0
M  V30 3157 C 306.674 -4.56879 -0.105214 0
M  V30 3158 C 307.671 -5.15379 0.684149 0
M  V30 3159 C 305.356 -5.023 0.00489824 0
M  V30 3160 C 307.35 -6.17746 1.57062 0
M  V30 3161 C 305.037 -6.04511 0.894935 0
M  V30 3162 C 306.035 -6.62108 1.67637 0
M  V30 3163 O 305.723 -7.62335 2.55149 0
M  V30 3164 H 305.455 -0.665554 -0.118379 0
M  V30 3165 H 308.009 -2.03245 0.296737 0
M  V30 3166 H 306.239 -3.38425 -1.87097 0
M  V30 3167 H 307.928 -3.72093 -1.62177 0
M  V30 3168 H 308.694 -4.81157 0.609365 0
M  V30 3169 H 304.573 -4.57168 -0.593156 0
M  V30 3170 H 308.117 -6.6263 2.181 0
M  V30 3171 H 304.014 -6.38157 0.970847 0
M  V30 3172 H 304.782 -7.79741 2.48892 0
M  V30 3173 N 307.445 0.0818655 -1.57387 0
M  V30 3174 C 308.378 1.12986 -1.98266 0
M  V30 3175 C 309.356 1.38123 -0.857954 0
M  V30 3176 O 310.54 1.51663 -1.1194 0
M  V30 3177 C 307.667 2.47632 -2.31076 0
M  V30 3178 C 306.713 2.38693 -3.53452 0
M  V30 3179 S 307.546 1.79071 -5.04672 0
M  V30 3180 C 308.702 3.15316 -5.40673 0
M  V30 3181 H 308.935 0.781435 -2.86846 0
M  V30 3182 H 306.468 0.290034 -1.51651 0
M  V30 3183 H 308.426 3.25089 -2.50654 0
M  V30 3184 H 307.087 2.79638 -1.43043 0
M  V30 3185 H 306.28 3.37964 -3.73893 0
M  V30 3186 H 305.882 1.69369 -3.33452 0
M  V30 3187 H 308.174 4.11613 -5.38127 0
M  V30 3188 H 309.117 2.99664 -6.41566 0
M  V30 3189 H 309.525 3.15457 -4.68132 0
M  V30 3190 N 308.923 1.53595 0.353017 0
M  V30 3191 C 310.153 1.74058 1.11299 0
M  V30 3192 C 310.561 0.475205 1.83135 0
M  V30 3193 O 309.904 -0.562344 1.74881 0
M  V30 3194 C 309.966 2.85994 2.17825 0
M  V30 3195 C 309.63 4.25923 1.65647 0
M  V30 3196 C 310.627 5.07829 1.11383 0
M  V30 3197 C 308.312 4.72377 1.7078 0
M  V30 3198 C 310.306 6.34285 0.629439 0
M  V30 3199 C 307.993 5.98808 1.21953 0
M  V30 3200 C 308.991 6.79594 0.681265 0
M  V30 3201 O 308.679 8.03651 0.200248 0
M  V30 3202 H 308.411 0.585327 0.338183 0
M  V30 3203 H 310.965 2.01186 0.413927 0
M  V30 3204 H 309.195 2.54368 2.91262 0
M  V30 3205 H 310.884 2.94515 2.79313 0
M  V30 3206 H 311.65 4.73107 1.06746 0
M  V30 3207 H 307.529 4.0956 2.11617 0
M  V30 3208 H 311.073 6.97288 0.208636 0
M  V30 3209 H 306.97 6.33026 1.26287 0
M  V30 3210 H 307.738 8.1788 0.318416 0
M  V30 3211 N 310.401 -0.613514 1.45168 0
M  V30 3212 C 311.812 -1.19539 1.43413 0
M  V30 3213 C 312.163 -1.95558 0.158632 0
M  V30 3214 O 311.288 -2.0335 -0.740119 0
M  V30 3215 C 311.883 -2.17445 2.59813 0
M  V30 3216 C 310.442 -2.71022 2.61197 0
M  V30 3217 C 309.589 -1.46323 2.35552 0
M  V30 3218 H 312.54 -0.403163 1.53494 0
M  V30 3219 H 312.561 -3.00373 2.33574 0
M  V30 3220 H 312.073 -1.62089 3.52631 0
M  V30 3221 H 310.174 -3.30332 1.7237 0
M  V30 3222 H 310.287 -3.15859 3.60236 0
M  V30 3223 H 308.651 -1.75072 1.84992 0
M  V30 3224 H 309.434 -0.92844 3.30507 0
M  V30 3225 N 311.879 -1.3236 -0.855495 0
M  V30 3226 C 312.826 -1.21225 -1.964 0
M  V30 3227 C 313.796 -0.0946204 -1.6583 0
M  V30 3228 O 314.981 -0.27002 -1.8888 0
M  V30 3229 C 312.121 -0.940419 -3.32039 0
M  V30 3230 C 311.234 -2.14276 -3.75113 0
M  V30 3231 C 310.369 -1.80648 -4.9954 0
M  V30 3232 C 309.408 -2.97208 -5.35102 0
M  V30 3233 N 308.545 -2.63678 -6.50706 0
M  V30 3234 H 313.385 -2.16042 -2.05255 0
M  V30 3235 H 310.922 -1.07451 -1.00463 0
M  V30 3236 H 312.88 -0.763311 -4.10158 0
M  V30 3237 H 311.51 -0.0290413 -3.22787 0
M  V30 3238 H 310.562 -2.43017 -2.92655 0
M  V30 3239 H 311.874 -3.01468 -3.97389 0
M  V30 3240 H 311.028 -1.59484 -5.85363 0
M  V30 3241 H 309.767 -0.906678 -4.79198 0
M  V30 3242 H 308.772 -3.19004 -4.47791 0
M  V30 3243 H 309.997 -3.87918 -5.57401 0
M  V30 3244 H 307.943 -1.76238 -6.31883 0
M  V30 3245 H 307.86 -3.444 -6.72997 0
M  V30 3246 H 309.128 -2.45942 -7.39684 0
M  V30 3247 N 313.357 1.07166 -1.15556 0
M  V30 3248 C 314.305 2.16517 -0.8499 0
M  V30 3249 C 315.299 1.68468 0.177454 0
M  V30 3250 O 316.505 1.79971 0.0323026 0
M  V30 3251 H 312.88 0.706652 -0.25719 0
M  V30 3252 H 314.851 2.39514 -1.77976 0
M  V30 3253 C 313.6 3.45855 -0.357682 0
M  V30 3254 H 312.923 3.83214 -1.13961 0
M  V30 3255 H 314.363 4.23607 -0.182489 0
M  V30 3256 C 312.822 3.24062 0.921152 0
M  V30 3257 O 313.352 3.48813 1.9923 0
M  V30 3258 N 311.558 2.77539 0.86141 0
M  V30 3259 H 311.105 2.57598 -0.0104408 0
M  V30 3260 H 311.063 2.63337 1.71758 0
M  V30 3261 N 314.835 0.952656 1.25548 0
M  V30 3262 C 315.782 0.47008 2.25962 0
M  V30 3263 C 316.752 -0.476384 1.59122 0
M  V30 3264 O 317.937 -0.39007 1.8677 0
M  V30 3265 C 315.077 -0.247881 3.44209 0
M  V30 3266 C 314.19 0.735591 4.25691 0
M  V30 3267 C 313.325 -0.0047306 5.312 0
M  V30 3268 C 312.364 0.969805 6.04368 0
M  V30 3269 N 311.501 0.260486 7.01617 0
M  V30 3270 H 316.341 1.33126 2.66611 0
M  V30 3271 H 313.878 0.66765 1.31076 0
M  V30 3272 H 315.836 -0.680695 4.1161 0
M  V30 3273 H 314.466 -1.07312 3.0444 0
M  V30 3274 H 313.518 1.28689 3.57971 0
M  V30 3275 H 314.83 1.47934 4.76358 0
M  V30 3276 H 313.984 -0.496275 6.04667 0
M  V30 3277 H 312.723 -0.781282 4.81401 0
M  V30 3278 H 311.728 1.47237 5.29718 0
M  V30 3279 H 312.953 1.74655 6.56256 0
M  V30 3280 H 310.899 -0.497364 6.54112 0
M  V30 3281 H 310.816 0.943362 7.50091 0
M  V30 3282 H 312.084 -0.209587 7.79218 0
M  V30 3283 N 316.313 -1.40141 0.720998 0
M  V30 3284 C 317.541 -2.05096 0.272656 0
M  V30 3285 C 317.956 -1.54334 -1.0875 0
M  V30 3286 O 317.313 -0.702211 -1.6845 0
M  V30 3287 C 317.364 -3.60636 0.249835 0
M  V30 3288 O 317.085 -4.09526 1.55629 0
M  V30 3289 C 318.586 -4.42772 -0.216396 0
M  V30 3290 H 315.806 -0.659897 0.121558 0
M  V30 3291 H 318.35 -1.79449 0.980723 0
M  V30 3292 H 316.505 -3.85232 -0.409237 0
M  V30 3293 H 316.919 -5.03758 1.4604 0
M  V30 3294 H 318.393 -5.51702 -0.181212 0
M  V30 3295 H 318.87 -4.20756 -1.25941 0
M  V30 3296 H 319.476 -4.23294 0.412596 0
M  V30 3297 N 317.792 -0.46758 -1.50504 0
M  V30 3298 C 319.069 0.15003 -1.95024 0
M  V30 3299 C 319.449 1.57304 -1.40779 0
M  V30 3300 O 318.797 2.20281 -0.607319 0
M  V30 3301 C 319.007 0.0969324 -3.48865 0
M  V30 3302 C 320.355 0.287565 -4.23625 0
M  V30 3303 O 321.379 0.173678 -3.55776 0
M  V30 3304 O 320.238 0.517186 -5.44047 0
M  V30 3305 H 317.332 0.113582 -0.819163 0
M  V30 3306 H 319.878 -0.52773 -1.61286 0
M  V30 3307 H 318.65 -0.896732 -3.80886 0
M  V30 3308 H 318.273 0.816303 -3.8913 0
M  V30 3309 N 319.27 1.56325 -0.20005 0
M  V30 3310 C 320.516 1.98012 0.438059 0
M  V30 3311 C 320.849 1.08702 1.60927 0
M  V30 3312 O 320.124 0.140064 1.93995 0
M  V30 3313 C 320.407 3.48841 0.893419 0
M  V30 3314 C 320.26 4.48928 -0.279947 0
M  V30 3315 C 321.579 4.03498 1.75719 0
M  V30 3316 H 318.698 0.719918 0.157757 0
M  V30 3317 H 321.34 1.87743 -0.291968 0
M  V30 3318 H 319.49 3.57723 1.51547 0
M  V30 3319 H 321.162 4.52079 -0.91772 0
M  V30 3320 H 319.405 4.23694 -0.930919 0
M  V30 3321 H 320.076 5.5194 0.0812601 0
M  V30 3322 H 322.552 3.97427 1.23253 0
M  V30 3323 H 321.428 5.09393 2.04476 0
M  V30 3324 H 321.689 3.4906 2.71311 0
M  V30 3325 N 320.748 -0.0735177 1.57428 0
M  V30 3326 C 321.658 -1.10547 2.06922 0
M  V30 3327 C 322.674 -1.42506 0.998402 0
M  V30 3328 O 323.85 -1.52717 1.31299 0
M  V30 3329 C 320.915 -2.40019 2.50184 0
M  V30 3330 C 319.976 -2.15046 3.71556 0
M  V30 3331 C 319.209 -3.38345 4.12745 0
M  V30 3332 O 319.432 -4.47399 3.53822 0
M  V30 3333 O 318.366 -3.2666 5.05546 0
M  V30 3334 H 322.192 -0.715013 2.95163 0
M  V30 3335 H 319.777 -0.287531 1.46607 0
M  V30 3336 H 321.659 -3.16218 2.78539 0
M  V30 3337 H 320.334 -2.78447 1.65072 0
M  V30 3338 H 319.241 -1.36558 3.48285 0
M  V30 3339 H 320.574 -1.81499 4.57514 0
M  V30 3340 N 322.226 -1.5378 -0.344866 0
M  V30 3341 C 323.456 -1.74646 -1.10374 0
M  V30 3342 C 323.864 -0.48491 -1.8288 0
M  V30 3343 O 323.207 0.553062 -1.75177 0
M  V30 3344 C 323.269 -2.87145 -2.16306 0
M  V30 3345 C 322.933 -4.26795 -1.63386 0
M  V30 3346 C 323.93 -5.08412 -1.08688 0
M  V30 3347 C 321.615 -4.73276 -1.68272 0
M  V30 3348 C 323.609 -6.34609 -0.595792 0
M  V30 3349 C 321.296 -5.99446 -1.18776 0
M  V30 3350 C 322.294 -6.79946 -0.645215 0
M  V30 3351 O 321.982 -8.03745 -0.157626 0
M  V30 3352 H 321.714 -0.587112 -0.335075 0
M  V30 3353 H 324.268 -2.01403 -0.403252 0
M  V30 3354 H 322.498 -2.55909 -2.89909 0
M  V30 3355 H 324.187 -2.95992 -2.77747 0
M  V30 3356 H 324.953 -4.73666 -1.04236 0
M  V30 3357 H 320.832 -4.10677 -2.09442 0
M  V30 3358 H 324.376 -6.97389 -0.171654 0
M  V30 3359 H 320.273 -6.33687 -1.22928 0
M  V30 3360 H 321.041 -8.18038 -0.275037 0
M  V30 3361 N 323.704 0.605807 -1.45491 0
M  V30 3362 C 324.614 1.74466 -1.56839 0
M  V30 3363 C 325.63 1.68006 -0.452772 0
M  V30 3364 O 326.806 1.8833 -0.713708 0
M  V30 3365 C 323.871 3.10931 -1.53371 0
M  V30 3366 C 322.932 3.28832 -2.75986 0
M  V30 3367 C 322.165 4.58787 -2.72673 0
M  V30 3368 O 322.388 5.4122 -1.80102 0
M  V30 3369 O 321.322 4.79438 -3.63899 0
M  V30 3370 H 325.148 1.67843 -2.53106 0
M  V30 3371 H 322.733 0.770108 -1.28022 0
M  V30 3372 H 324.615 3.92233 -1.54051 0
M  V30 3373 H 323.29 3.18042 -0.602572 0
M  V30 3374 H 322.197 2.47112 -2.80867 0
M  V30 3375 H 323.53 3.26599 -3.68231 0
M  V30 3376 N 325.182 1.32811 0.848464 0
M  V30 3377 C 326.407 1.26882 1.6406 0
M  V30 3378 C 326.832 -0.15913 1.87426 0
M  V30 3379 O 326.19 -1.11258 1.43148 0
M  V30 3380 C 326.238 2.03997 2.97351 0
M  V30 3381 O 325.342 1.39201 3.88197 0
M  V30 3382 H 324.683 0.436982 0.499943 0
M  V30 3383 H 327.213 1.75224 1.0563 0
M  V30 3384 H 327.223 2.14403 3.47124 0
M  V30 3385 H 325.898 3.0783 2.79666 0
M  V30 3386 H 324.475 1.37381 3.46671 0
M  V30 3387 N 326.66 -1.06551 1.16123 0
M  V30 3388 C 327.937 -1.76097 0.85142 0
M  V30 3389 C 328.317 -2.00802 -0.6513 0
M  V30 3390 O 327.665 -1.63302 -1.59827 0
M  V30 3391 C 327.875 -3.06384 1.67122 0
M  V30 3392 C 329.223 -3.80585 1.88255 0
M  V30 3393 O 330.247 -3.16218 1.63966 0
M  V30 3394 O 329.106 -4.96212 2.2899 0
M  V30 3395 H 326.2 -0.765102 0.313923 0
M  V30 3396 H 328.746 -1.12844 1.26745 0
M  V30 3397 H 327.518 -2.84071 2.69108 0
M  V30 3398 H 327.141 -3.77371 1.25206 0
M  V30 3399 N 328.138 -0.959301 -1.25041 0
M  V30 3400 C 329.048 -0.489994 -2.29426 0
M  V30 3401 C 330.064 0.444944 -1.68215 0
M  V30 3402 O 331.24 0.320046 -1.98841 0
M  V30 3403 C 328.305 0.220309 -3.45999 0
M  V30 3404 C 327.366 -0.753418 -4.22637 0
M  V30 3405 C 326.599 -0.076918 -5.33645 0
M  V30 3406 O 326.822 1.13649 -5.58963 0
M  V30 3407 O 325.756 -0.764824 -5.97021 0
M  V30 3408 H 329.582 -1.35755 -2.71669 0
M  V30 3409 H 327.167 -0.725961 -1.30576 0
M  V30 3410 H 329.049 0.619677 -4.16819 0
M  V30 3411 H 327.724 1.06296 -3.0575 0
M  V30 3412 H 326.631 -1.20308 -3.54227 0
M  V30 3413 H 327.964 -1.56423 -4.66683 0
M  V30 3414 N 329.616 1.39756 -0.72842 0
M  V30 3415 C 330.563 2.30647 -0.0841519 0
M  V30 3416 C 331.533 1.48869 0.7367 0
M  V30 3417 O 332.718 1.77574 0.698015 0
M  V30 3418 C 329.858 3.35165 0.822091 0
M  V30 3419 C 328.971 4.31999 -0.0106663 0
M  V30 3420 C 328.106 5.23585 0.896241 0
M  V30 3421 C 327.145 6.12072 0.0583381 0
M  V30 3422 N 326.282 6.96035 0.920818 0
M  V30 3423 H 331.122 2.85173 -0.864891 0
M  V30 3424 H 328.659 1.40422 -0.438179 0
M  V30 3425 H 330.617 3.94345 1.36189 0
M  V30 3426 H 329.247 2.8211 1.56888 0
M  V30 3427 H 328.299 3.74492 -0.66781 0
M  V30 3428 H 329.611 4.9443 -0.658825 0
M  V30 3429 H 328.765 5.87759 1.50412 0
M  V30 3430 H 327.504 4.61459 1.57819 0
M  V30 3431 H 326.509 5.46916 -0.562389 0
M  V30 3432 H 327.734 6.76261 -0.6203 0
M  V30 3433 H 325.68 6.36485 1.58818 0
M  V30 3434 H 325.597 7.55284 0.32899 0
M  V30 3435 H 326.865 7.64646 1.51447 0
M  V30 3436 N 331.094 0.475555 1.50254 0
M  V30 3437 C 332.057 -0.305016 2.27161 0
M  V30 3438 C 333.057 -0.916519 1.32123 0
M  V30 3439 O 334.247 -0.785003 1.5551 0
M  V30 3440 C 331.379 -1.43496 3.09227 0
M  V30 3441 H 332.572 0.369511 2.97615 0
M  V30 3442 H 330.125 0.229747 1.54602 0
M  V30 3443 H 330.86 -2.14441 2.43281 0
M  V30 3444 H 330.645 -1.00223 3.79075 0
M  V30 3445 H 332.135 -1.98548 3.67381 0
M  V30 3446 N 332.573 -1.56217 0.208337 0
M  V30 3447 C 333.989 -1.58919 -0.14729 0
M  V30 3448 C 334.189 -1.22486 -1.59998 0
M  V30 3449 O 333.245 -0.953849 -2.3379 0
M  V30 3450 C 334.558 -3.00236 0.167048 0
M  V30 3451 C 336.106 -3.12813 0.108219 0
M  V30 3452 C 336.581 -4.56284 0.396049 0
M  V30 3453 N 338.072 -4.61912 0.345142 0
M  V30 3454 C 338.807 -5.70837 0.541523 0
M  V30 3455 N 338.303 -6.88178 0.798968 0
M  V30 3456 N 340.096 -5.60091 0.474867 0
M  V30 3457 H 332.247 -1.78177 1.15614 0
M  V30 3458 H 334.51 -0.827555 0.462446 0
M  V30 3459 H 334.216 -3.31499 1.1748 0
M  V30 3460 H 334.09 -3.7354 -0.524184 0
M  V30 3461 H 336.477 -2.81354 -0.890157 0
M  V30 3462 H 336.558 -2.41866 0.832729 0
M  V30 3463 H 336.202 -4.88458 1.3918 0
M  V30 3464 H 336.132 -5.25439 -0.349502 0
M  V30 3465 H 338.623 -3.77589 0.153316 0
M  V30 3466 H 338.936 -7.67095 0.93727 0
M  V30 3467 H 337.281 -6.89953 0.836013 0
M  V30 3468 H 340.472 -4.67297 0.274064 0
M  V30 3469 H 340.645 -6.44917 0.631326 0
M  V30 3470 N 334.051 0.0651679 -1.57465 0
M  V30 3471 C 335.299 0.761555 -1.87202 0
M  V30 3472 C 335.62 1.77778 -0.801243 0
M  V30 3473 O 334.89 1.95166 0.16937 0
M  V30 3474 H 333.47 0.284251 -0.690804 0
M  V30 3475 H 336.132 0.0396827 -1.9486 0
M  V30 3476 H 335.228 1.27365 -2.84929 0
M  V30 3477 N 335.529 1.53961 0.336706 0
M  V30 3478 C 336.757 1.75483 1.09605 0
M  V30 3479 C 337.172 0.4972 1.82136 0
M  V30 3480 O 336.529 -0.53149 1.74589 0
M  V30 3481 C 336.58 2.93943 2.10428 0
M  V30 3482 O 336.301 4.14842 1.40846 0
M  V30 3483 C 337.802 3.27571 2.98684 0
M  V30 3484 H 335.022 0.586166 0.326574 0
M  V30 3485 H 337.566 2.00808 0.38683 0
M  V30 3486 H 335.721 2.70929 2.76905 0
M  V30 3487 H 336.135 4.81383 2.08255 0
M  V30 3488 H 337.609 4.13791 3.6535 0
M  V30 3489 H 338.086 2.44168 3.65074 0
M  V30 3490 H 338.692 3.52615 2.37787 0
M  V30 3491 N 337.007 -0.598083 1.45811 0
M  V30 3492 C 338.423 -0.919847 1.30426 0
M  V30 3493 C 338.623 -1.99759 0.264303 0
M  V30 3494 O 337.679 -2.50221 -0.338472 0
M  V30 3495 C 338.992 -1.35176 2.68603 0
M  V30 3496 C 340.54 -1.46546 2.76574 0
M  V30 3497 C 341.015 -1.9311 4.15298 0
M  V30 3498 N 342.506 -2.00328 4.1764 0
M  V30 3499 C 343.241 -2.37599 5.21856 0
M  V30 3500 N 342.737 -2.73771 6.36413 0
M  V30 3501 N 344.53 -2.38021 5.09218 0
M  V30 3502 H 336.681 0.114111 2.12093 0
M  V30 3503 H 338.944 -0.0116121 0.947929 0
M  V30 3504 H 338.65 -0.633969 3.45939 0
M  V30 3505 H 338.524 -2.3164 2.97696 0
M  V30 3506 H 340.911 -2.17415 1.99537 0
M  V30 3507 H 340.992 -0.483727 2.51185 0
M  V30 3508 H 340.636 -1.22824 4.92825 0
M  V30 3509 H 340.566 -2.92213 4.38086 0
M  V30 3510 H 343.057 -1.74925 3.34977 0
M  V30 3511 H 343.37 -3.0112 7.11721 0
M  V30 3512 H 341.715 -2.71445 6.39799 0
M  V30 3513 H 344.906 -2.09174 4.18765 0
M  V30 3514 H 345.079 -2.66741 5.90554 0
M  V30 3515 N 338.485 -1.33259 -0.841409 0
M  V30 3516 C 339.415 -1.25926 -1.96634 0
M  V30 3517 C 340.396 -0.140349 -1.6952 0
M  V30 3518 O 341.581 -0.329707 -1.91381 0
M  V30 3519 C 338.711 -0.99512 -3.32738 0
M  V30 3520 C 337.665 -2.0767 -3.74242 0
M  V30 3521 C 336.991 -1.66474 -5.08125 0
M  V30 3522 C 338.291 -3.49318 -3.88297 0
M  V30 3523 H 339.985 -2.20046 -2.03027 0
M  V30 3524 H 337.531 -1.05931 -0.975425 0
M  V30 3525 H 339.484 -0.930323 -4.11002 0
M  V30 3526 H 338.208 -0.0183004 -3.26595 0
M  V30 3527 H 336.867 -2.13187 -2.98239 0
M  V30 3528 H 336.515 -0.675012 -4.9845 0
M  V30 3529 H 336.215 -2.3885 -5.36865 0
M  V30 3530 H 337.739 -1.61455 -5.88867 0
M  V30 3531 H 339.153 -3.46316 -4.56879 0
M  V30 3532 H 337.55 -4.20158 -4.28471 0
M  V30 3533 H 338.62 -3.8801 -2.9082 0
M  V30 3534 N 339.963 1.05934 -1.16686 0
M  V30 3535 C 341.24 1.75643 -0.860747 0
M  V30 3536 C 341.62 2.01144 0.640641 0
M  V30 3537 O 340.968 1.64147 1.58959 0
M  V30 3538 C 341.178 3.05493 -1.68745 0
M  V30 3539 C 342.526 3.79581 -1.90271 0
M  V30 3540 O 343.55 3.15344 -1.65641 0
M  V30 3541 O 342.409 4.9499 -2.31618 0
M  V30 3542 H 339.503 0.763426 -0.317977 0
M  V30 3543 H 342.049 1.1217 -1.27342 0
M  V30 3544 H 340.821 2.8264 -2.70611 0
M  V30 3545 H 340.444 3.76702 -1.27206 0
M  V30 3546 N 341.441 0.965919 1.2453 0
M  V30 3547 C 342.689 0.625593 1.92174 0
M  V30 3548 C 343.01 -0.841652 1.75901 0
M  V30 3549 O 342.28 -1.60061 1.12948 0
M  V30 3550 H 340.86 0.228388 0.71123 0
M  V30 3551 H 343.522 1.2266 1.51461 0
M  V30 3552 H 342.618 0.864653 2.99884 0
M  V30 3553 N 342.919 -1.39368 0.735821 0
M  V30 3554 C 343.849 -2.33234 0.111506 0
M  V30 3555 C 344.83 -1.53954 -0.723334 0
M  V30 3556 O 346.015 -1.82344 -0.668147 0
M  V30 3557 C 343.145 -3.38057 -0.795917 0
M  V30 3558 C 342.099 -4.2795 -0.065172 0
M  V30 3559 C 341.425 -5.23479 -1.08967 0
M  V30 3560 C 342.725 -5.10741 1.09273 0
M  V30 3561 H 344.419 -2.85692 0.895571 0
M  V30 3562 H 341.965 -1.37364 0.432109 0
M  V30 3563 H 343.918 -4.02675 -1.24221 0
M  V30 3564 H 342.642 -2.8404 -1.61211 0
M  V30 3565 H 341.301 -3.64813 0.361511 0
M  V30 3566 H 340.949 -4.65758 -1.89944 0
M  V30 3567 H 340.649 -5.84472 -0.605489 0
M  V30 3568 H 342.173 -5.90974 -1.53565 0
M  V30 3569 H 343.587 -5.68699 0.724841 0
M  V30 3570 H 341.984 -5.8088 1.50659 0
M  V30 3571 H 343.054 -4.45525 1.91404 0
M  V30 3572 N 344.397 -0.483516 -1.5 0
M  V30 3573 C 345.674 0.129337 -1.95172 0
M  V30 3574 C 346.054 1.55802 -1.4244 0
M  V30 3575 O 345.402 2.19625 -0.630649 0
M  V30 3576 C 345.612 0.0599251 -3.48949 0
M  V30 3577 C 346.96 0.242617 -4.23906 0
M  V30 3578 O 347.984 0.135933 -3.55941 0
M  V30 3579 O 346.843 0.459454 -5.44565 0
M  V30 3580 H 343.937 0.104887 -0.820322 0
M  V30 3581 H 346.483 -0.544807 -1.60717 0
M  V30 3582 H 345.255 -0.937079 -3.79914 0
M  V30 3583 H 344.878 0.774984 -3.89974 0
M  V30 3584 N 345.875 1.56104 -0.216619 0
M  V30 3585 C 346.805 2.23063 0.690296 0
M  V30 3586 C 347.786 1.20072 1.20485 0
M  V30 3587 O 348.971 1.48643 1.24976 0
M  V30 3588 C 346.101 2.90672 1.90072 0
M  V30 3589 C 345.055 4.00092 1.5202 0
M  V30 3590 C 344.381 4.54972 2.80899 0
M  V30 3591 C 345.681 5.17398 0.71391 0
M  V30 3592 H 347.375 2.99109 0.132038 0
M  V30 3593 H 344.921 1.43866 0.0620664 0
M  V30 3594 H 346.874 3.36204 2.54057 0
M  V30 3595 H 345.598 2.12066 2.48386 0
M  V30 3596 H 344.257 3.55283 0.903839 0
M  V30 3597 H 343.905 3.73102 3.37348 0
M  V30 3598 H 343.605 5.28817 2.56176 0
M  V30 3599 H 345.129 5.0322 3.45836 0
M  V30 3600 H 346.543 5.59342 1.25735 0
M  V30 3601 H 344.94 5.97444 0.563951 0
M  V30 3602 H 346.01 4.84088 -0.280527 0
M  V30 3603 N 347.353 -0.0568162 1.57498 0
M  V30 3604 C 348.599 -0.75422 1.88253 0
M  V30 3605 C 348.932 -1.76461 0.810865 0
M  V30 3606 O 348.207 -1.93691 -0.177259 0
M  V30 3607 C 348.49 -1.44878 3.2967 0
M  V30 3608 C 348.343 -0.453789 4.47505 0
M  V30 3609 C 349.662 -2.38994 3.69554 0
M  V30 3610 H 346.781 -0.272724 0.684683 0
M  V30 3611 H 349.423 -0.0172113 1.89992 0
M  V30 3612 H 347.573 -2.077 3.28318 0
M  V30 3613 H 349.245 0.170371 4.60985 0
M  V30 3614 H 347.488 0.229552 4.33192 0
M  V30 3615 H 348.159 -0.977699 5.43273 0
M  V30 3616 H 350.635 -1.86239 3.72095 0
M  V30 3617 H 349.511 -2.84587 4.69363 0
M  V30 3618 H 349.772 -3.24461 3.00296 0
M  V30 3619 N 348.832 -1.54138 -0.328536 0
M  V30 3620 C 350.109 -1.62749 -1.08499 0
M  V30 3621 C 350.489 -0.458198 -2.06067 0
M  V30 3622 O 349.837 0.548046 -2.2183 0
M  V30 3623 C 350.047 -2.99519 -1.79135 0
M  V30 3624 C 351.395 -3.55394 -2.32337 0
M  V30 3625 O 352.419 -3.01792 -1.89209 0
M  V30 3626 O 351.278 -4.49186 -3.11279 0
M  V30 3627 H 348.372 -0.65886 -0.499832 0
M  V30 3628 H 350.918 -1.66484 -0.328826 0
M  V30 3629 H 349.69 -3.76061 -1.08139 0
M  V30 3630 H 349.313 -2.99441 -2.61574 0
M  V30 3631 N 350.31 0.590341 -1.46126 0
M  V30 3632 C 351.538 1.37504 -1.54597 0
M  V30 3633 C 351.953 1.87897 -0.184447 0
M  V30 3634 O 351.31 1.63192 0.816984 0
M  V30 3635 C 351.361 2.56779 -2.54454 0
M  V30 3636 O 351.082 2.08476 -3.85317 0
M  V30 3637 C 352.583 3.49427 -2.72792 0
M  V30 3638 H 349.803 0.420325 -0.523037 0
M  V30 3639 H 352.347 0.718383 -1.91467 0
M  V30 3640 H 350.502 3.1845 -2.20609 0
M  V30 3641 H 350.916 2.86097 -4.396 0
M  V30 3642 H 352.39 4.29619 -3.466 0
M  V30 3643 H 352.867 4.00876 -1.79429 0
M  V30 3644 H 353.473 2.93598 -3.07702 0
M  V30 3645 N 351.788 1.33704 0.83433 0
M  V30 3646 C 353.034 1.26612 1.59188 0
M  V30 3647 C 353.389 -0.165439 1.91687 0
M  V30 3648 O 352.682 -1.10873 1.56262 0
M  V30 3649 C 352.876 2.07926 2.90692 0
M  V30 3650 C 352.705 3.58844 2.71038 0
M  V30 3651 C 351.475 4.28148 2.68361 0
M  V30 3652 C 353.673 4.53082 2.43353 0
M  V30 3653 N 351.655 5.64987 2.40132 0
M  V30 3654 C 353.026 5.77843 2.24716 0
M  V30 3655 C 355.081 4.42119 2.28987 0
M  V30 3656 C 353.784 6.92877 1.9317 0
M  V30 3657 C 355.81 5.56973 1.98835 0
M  V30 3658 C 355.172 6.80745 1.81012 0
M  V30 3659 H 351.271 0.518517 0.585375 0
M  V30 3660 H 353.855 1.68294 0.979044 0
M  V30 3661 H 352.026 1.68558 3.49918 0
M  V30 3662 H 353.758 1.92568 3.55949 0
M  V30 3663 H 350.513 3.80469 2.82029 0
M  V30 3664 H 350.937 6.37133 2.28889 0
M  V30 3665 H 355.579 3.47058 2.41477 0
M  V30 3666 H 353.297 7.87931 1.79418 0
M  V30 3667 H 356.883 5.50428 1.88468 0
M  V30 3668 H 355.763 7.68115 1.58017 0
M  V30 3669 N 353.266 -1.05314 1.17247 0
M  V30 3670 C 354.213 -2.13031 0.888058 0
M  V30 3671 C 355.183 -1.65253 -0.167537 0
M  V30 3672 O 356.368 -1.90775 -0.0305974 0
M  V30 3673 C 353.508 -3.42702 0.406147 0
M  V30 3674 C 352.621 -4.04161 1.52572 0
M  V30 3675 C 351.756 -5.21744 0.997808 0
M  V30 3676 C 350.795 -5.75207 2.09291 0
M  V30 3677 N 349.932 -6.84094 1.57986 0
M  V30 3678 H 354.772 -2.36698 1.81048 0
M  V30 3679 H 352.309 -1.16121 0.903013 0
M  V30 3680 H 354.267 -4.17059 0.108305 0
M  V30 3681 H 352.897 -3.19222 -0.479313 0
M  V30 3682 H 351.949 -3.27253 1.93931 0
M  V30 3683 H 353.261 -4.39881 2.35172 0
M  V30 3684 H 352.415 -6.03168 0.653739 0
M  V30 3685 H 351.154 -4.87495 0.141232 0
M  V30 3686 H 350.159 -4.92414 2.44557 0
M  V30 3687 H 351.384 -6.11505 2.95362 0
M  V30 3688 H 349.33 -6.51745 0.74598 0
M  V30 3689 H 349.247 -7.18811 2.34195 0
M  V30 3690 H 350.515 -7.69172 1.26468 0
M  V30 3691 N 354.744 -0.972509 -1.24016 0
M  V30 3692 C 355.969 -0.654417 -1.96805 0
M  V30 3693 C 356.394 0.770398 -1.716 0
M  V30 3694 O 355.752 1.52361 -0.982647 0
M  V30 3695 C 355.8 -0.941031 -3.48105 0
M  V30 3696 O 354.904 -0.0289472 -4.1239 0
M  V30 3697 H 354.245 -0.24692 -0.616382 0
M  V30 3698 H 356.775 -1.30396 -1.57664 0
M  V30 3699 H 356.785 -0.87452 -3.98517 0
M  V30 3700 H 355.46 -1.97939 -3.65777 0
M  V30 3701 H 354.037 -0.149192 -3.72601 0
M  V30 3702 N 356.222 1.38976 -0.743202 0
M  V30 3703 C 357.469 2.00343 -0.294752 0
M  V30 3704 C 357.797 1.58983 1.12047 0
M  V30 3705 O 357.052 0.813809 1.77977 0
M  V30 3706 C 357.351 3.55647 -0.353517 0
M  V30 3707 C 357.017 4.16685 -1.72292 0
M  V30 3708 C 355.679 4.3307 -2.09771 0
M  V30 3709 C 358.031 4.50464 -2.62168 0
M  V30 3710 C 355.359 4.80526 -3.36618 0
M  V30 3711 C 357.711 4.99332 -3.88395 0
M  V30 3712 C 356.375 5.13924 -4.25956 0
M  V30 3713 H 355.645 0.733108 -0.107857 0
M  V30 3714 H 358.292 1.6618 -0.951651 0
M  V30 3715 H 356.597 3.89884 0.386954 0
M  V30 3716 H 358.294 4.00998 0.0117269 0
M  V30 3717 H 354.884 4.04339 -1.42155 0
M  V30 3718 H 359.068 4.37416 -2.3448 0
M  V30 3719 H 354.324 4.90008 -3.65653 0
M  V30 3720 H 358.498 5.2444 -4.58187 0
M  V30 3721 H 356.125 5.50457 -5.2431 0
M  V30 3722 N 357.7 0.491464 1.49741 0
M  V30 3723 C 358.647 -0.292027 2.28945 0
M  V30 3724 C 359.617 -0.968973 1.34908 0
M  V30 3725 O 360.802 -0.97748 1.6386 0
M  V30 3726 C 357.942 -1.35617 3.17336 0
M  V30 3727 C 357.055 -0.691957 4.26422 0
M  V30 3728 C 356.19 -1.73572 5.02042 0
M  V30 3729 C 355.229 -1.05286 6.02977 0
M  V30 3730 N 354.366 -2.0404 6.71798 0
M  V30 3731 H 359.206 0.389654 2.95442 0
M  V30 3732 H 356.743 0.204003 1.45679 0
M  V30 3733 H 358.701 -1.98502 3.66951 0
M  V30 3734 H 357.331 -2.00674 2.52844 0
M  V30 3735 H 356.383 0.0499523 3.80367 0
M  V30 3736 H 357.695 -0.153946 4.98562 0
M  V30 3737 H 356.849 -2.43987 5.55478 0
M  V30 3738 H 355.588 -2.30757 4.29654 0
M  V30 3739 H 354.593 -0.334446 5.48782 0
M  V30 3740 H 355.818 -0.487636 6.77347 0
M  V30 3741 H 353.764 -2.60205 6.02187 0
M  V30 3742 H 353.681 -1.55279 7.39881 0
M  V30 3743 H 354.949 -2.73772 7.29842 0
M  V30 3744 N 359.178 -1.55987 0.224894 0
M  V30 3745 C 360.589 -1.84553 -0.282345 0
M  V30 3746 C 360.94 -1.14634 -1.59227 0
M  V30 3747 O 360.065 -0.417155 -2.12341 0
M  V30 3748 C 360.66 -3.348 -0.519062 0
M  V30 3749 C 359.219 -3.63671 -0.970604 0
M  V30 3750 C 358.366 -2.77277 -0.0355261 0
M  V30 3751 H 361.317 -1.52245 0.448006 0
M  V30 3752 H 361.338 -3.55187 -1.36463 0
M  V30 3753 H 360.85 -3.8566 0.43449 0
M  V30 3754 H 358.951 -3.1827 -1.9374 0
M  V30 3755 H 359.064 -4.71631 -0.842698 0
M  V30 3756 H 357.428 -2.48846 -0.542927 0
M  V30 3757 H 358.211 -3.30937 0.913003 0
M  V30 3758 N 360.656 0.0484629 -1.57525 0
M  V30 3759 C 362.072 0.40375 -1.54409 0
M  V30 3760 C 362.272 1.77786 -0.948384 0
M  V30 3761 O 361.328 2.46189 -0.560983 0
M  V30 3762 C 362.641 0.323394 -2.98956 0
M  V30 3763 C 364.189 0.401892 -3.10409 0
M  V30 3764 C 364.664 0.351195 -4.56652 0
M  V30 3765 N 366.155 0.410576 -4.61377 0
M  V30 3766 C 366.89 0.393933 -5.72045 0
M  V30 3767 N 366.386 0.330724 -6.9201 0
M  V30 3768 N 368.179 0.442227 -5.60358 0
M  V30 3769 H 360.33 -0.851016 -1.94606 0
M  V30 3770 H 362.593 -0.321721 -0.89174 0
M  V30 3771 H 362.299 -0.62011 -3.4619 0
M  V30 3772 H 362.173 1.12463 -3.60044 0
M  V30 3773 H 364.56 1.33582 -2.63134 0
M  V30 3774 H 364.641 -0.428342 -2.52188 0
M  V30 3775 H 364.285 -0.578987 -5.04589 0
M  V30 3776 H 364.215 1.19928 -5.12762 0
M  V30 3777 H 366.706 0.462729 -3.75056 0
M  V30 3778 H 367.019 0.322592 -7.72126 0
M  V30 3779 H 365.364 0.29706 -6.94365 0
M  V30 3780 H 368.555 0.489464 -4.65534 0
M  V30 3781 H 368.728 0.425788 -6.466 0
M  V30 3782 N 362.134 1.5431 0.320358 0
M  V30 3783 C 363.364 1.7638 1.07582 0
M  V30 3784 C 363.772 0.513944 1.82086 0
M  V30 3785 O 363.115 -0.525123 1.76035 0
M  V30 3786 C 363.177 2.9055 2.1171 0
M  V30 3787 C 362.841 4.2934 1.56575 0
M  V30 3788 C 363.838 5.10077 1.00586 0
M  V30 3789 C 361.523 4.75893 1.60722 0
M  V30 3790 C 363.517 6.35477 0.494756 0
M  V30 3791 C 361.204 6.0126 1.09224 0
M  V30 3792 C 362.202 6.80886 0.53696 0
M  V30 3793 O 361.89 8.03894 0.0297371 0
M  V30 3794 H 361.622 0.592369 0.325692 0
M  V30 3795 H 364.176 2.02019 0.37116 0
M  V30 3796 H 362.406 2.60489 2.85801 0
M  V30 3797 H 364.095 3.00373 2.73003 0
M  V30 3798 H 364.861 4.75265 0.966869 0
M  V30 3799 H 360.74 4.13957 2.02882 0
M  V30 3800 H 364.284 6.97574 0.0606842 0
M  V30 3801 H 360.181 6.35562 1.12831 0
M  V30 3802 H 360.949 8.18372 0.14486 0
M  V30 3803 N 363.613 -0.582584 1.46437 0
M  V30 3804 C 364.56 -1.69164 1.5701 0
M  V30 3805 C 365.53 -1.60847 0.414403 0
M  V30 3806 O 366.715 -1.80058 0.631171 0
M  V30 3807 C 363.855 -3.075 1.56646 0
M  V30 3808 C 362.968 -3.2644 2.82951 0
M  V30 3809 C 362.103 -4.55026 2.7409 0
M  V30 3810 C 361.142 -4.6731 3.95333 0
M  V30 3811 N 360.279 -5.87221 3.84858 0
M  V30 3812 H 365.119 -1.59464 2.51744 0
M  V30 3813 H 362.656 -0.777186 1.24893 0
M  V30 3814 H 364.614 -3.8757 1.5442 0
M  V30 3815 H 363.244 -3.16096 0.654439 0
M  V30 3816 H 362.296 -2.39974 2.95155 0
M  V30 3817 H 363.608 -3.31385 3.72808 0
M  V30 3818 H 362.762 -5.43324 2.6997 0
M  V30 3819 H 361.501 -4.52519 1.81873 0
M  V30 3820 H 360.506 -3.77429 3.99784 0
M  V30 3821 H 361.731 -4.71595 4.88646 0
M  V30 3822 H 359.677 -5.85712 2.95427 0
M  V30 3823 H 359.594 -5.93435 4.6837 0
M  V30 3824 H 360.862 -6.7795 3.84713 0
M  V30 3825 N 365.091 -1.34144 -0.827227 0
M  V30 3826 C 366.041 -1.21923 -1.92663 0
M  V30 3827 C 367.025 -0.119294 -1.60457 0
M  V30 3828 O 368.217 -0.348539 -1.73534 0
M  V30 3829 C 365.346 -0.972492 -3.29238 0
M  V30 3830 C 364.432 -2.1154 -3.67576 0
M  V30 3831 N 364.823 -3.36627 -3.77512 0
M  V30 3832 C 363.121 -2.02468 -3.97395 0
M  V30 3833 C 363.822 -4.11658 -4.1099 0
M  V30 3834 N 362.798 -3.40207 -4.23981 0
M  V30 3835 H 366.6 -2.16721 -1.98517 0
M  V30 3836 H 364.114 -1.2632 -1.02064 0
M  V30 3837 H 366.111 -0.865847 -4.0781 0
M  V30 3838 H 364.771 -0.0331509 -3.24683 0
M  V30 3839 H 365.782 -3.71234 -3.61118 0
M  V30 3840 H 362.459 -1.16265 -4.00985 0
M  V30 3841 H 363.849 -5.19657 -4.25918 0
M  V30 3842 N 366.569 1.04691 -1.17803 0
M  V30 3843 C 367.794 1.81984 -0.994813 0
M  V30 3844 C 368.219 1.82586 0.452112 0
M  V30 3845 O 367.577 1.23854 1.324 0
M  V30 3846 C 367.625 3.2575 -1.54659 0
M  V30 3847 O 366.729 4.05267 -0.763728 0
M  V30 3848 H 366.07 0.562483 -0.352857 0
M  V30 3849 H 368.6 1.3189 -1.56417 0
M  V30 3850 H 368.61 3.76541 -1.57102 0
M  V30 3851 H 367.285 3.24627 -2.59981 0
M  V30 3852 H 365.862 3.63972 -0.811108 0
M  V30 3853 N 368.047 0.979072 1.23499 0
M  V30 3854 C 368.997 0.489378 2.22686 0
M  V30 3855 C 369.981 -0.434871 1.54912 0
M  V30 3856 O 371.173 -0.263941 1.75021 0
M  V30 3857 C 368.302 -0.208178 3.42668 0
M  V30 3858 C 367.388 0.735563 4.17672 0
M  V30 3859 N 367.779 1.87763 4.69658 0
M  V30 3860 C 366.077 0.548625 4.42613 0
M  V30 3861 C 366.778 2.46886 5.26709 0
M  V30 3862 N 365.754 1.75287 5.14563 0
M  V30 3863 H 369.556 1.36062 2.60508 0
M  V30 3864 H 367.07 0.83958 1.39014 0
M  V30 3865 H 369.067 -0.576295 4.12898 0
M  V30 3866 H 367.727 -1.07572 3.06363 0
M  V30 3867 H 368.738 2.25885 4.66043 0
M  V30 3868 H 365.415 -0.274006 4.166 0
M  V30 3869 H 366.805 3.43326 5.77561 0
M  V30 3870 N 369.525 -1.3858 0.750561 0
M  V30 3871 C 370.772 -2.00184 0.305373 0
M  V30 3872 C 371.1 -1.59575 -1.11203 0
M  V30 3873 O 370.355 -0.823236 -1.77542 0
M  V30 3874 C 370.654 -3.55455 0.372373 0
M  V30 3875 C 370.32 -4.15765 1.745 0
M  V30 3876 C 368.982 -4.31951 2.12065 0
M  V30 3877 C 371.334 -4.49067 2.64553 0
M  V30 3878 C 368.662 -4.78734 3.39162 0
M  V30 3879 C 371.014 -4.97265 3.91038 0
M  V30 3880 C 369.678 -5.11658 4.28676 0
M  V30 3881 H 368.948 -0.732526 0.111744 0
M  V30 3882 H 371.595 -1.65673 0.960451 0
M  V30 3883 H 369.9 -3.90084 -0.366272 0
M  V30 3884 H 371.597 -4.00999 0.00953918 0
M  V30 3885 H 368.187 -4.03579 1.44297 0
M  V30 3886 H 372.371 -4.36166 2.36796 0
M  V30 3887 H 367.627 -4.88062 3.68246 0
M  V30 3888 H 371.801 -5.22003 4.60962 0
M  V30 3889 H 369.428 -5.47668 5.27222 0
M  V30 3890 N 371.003 -0.499398 -1.49478 0
M  V30 3891 C 372.252 0.0475259 -2.01644 0
M  V30 3892 C 372.565 1.38195 -1.38425 0
M  V30 3893 O 373.771 2.01547 -1.8191 0
M  V30 3894 C 372.227 0.135164 -3.59646 0
M  V30 3895 C 371.835 -1.19252 -4.31837 0
M  V30 3896 C 373.579 0.632538 -4.19761 0
M  V30 3897 C 371.486 -1.06713 -5.81693 0
M  V30 3898 H 370.416 0.0215349 -0.753692 0
M  V30 3899 H 373.067 -0.638577 -1.7203 0
M  V30 3900 H 371.449 0.885681 -3.85969 0
M  V30 3901 H 372.623 -1.9562 -4.17216 0
M  V30 3902 H 370.938 -1.62321 -3.83459 0
M  V30 3903 H 373.535 0.743833 -5.29501 0
M  V30 3904 H 373.878 1.63098 -3.83021 0
M  V30 3905 H 374.411 -0.0613987 -3.97753 0
M  V30 3906 H 371.15 -2.03979 -6.22955 0
M  V30 3907 H 370.67 -0.344307 -5.98811 0
M  V30 3908 H 372.349 -0.745208 -6.42694 0
M  V30 3909 N 372.481 1.55866 -0.233164 0
M  V30 3910 C 373.727 1.99643 0.389148 0
M  V30 3911 C 374.082 1.11836 1.56558 0
M  V30 3912 O 373.375 0.170848 1.90837 0
M  V30 3913 C 373.569 3.46856 0.861724 0
M  V30 3914 C 373.398 4.48904 -0.267376 0
M  V30 3915 C 372.168 4.99888 -0.737577 0
M  V30 3916 C 374.366 5.02624 -1.08966 0
M  V30 3917 N 372.348 5.8566 -1.84052 0
M  V30 3918 C 373.719 5.85434 -2.04125 0
M  V30 3919 C 375.774 4.84959 -1.12779 0
M  V30 3920 C 374.477 6.52466 -3.02789 0
M  V30 3921 C 376.503 5.52759 -2.10266 0
M  V30 3922 C 375.865 6.35346 -3.04162 0
M  V30 3923 H 371.964 0.774402 0.108742 0
M  V30 3924 H 374.548 1.91572 -0.347596 0
M  V30 3925 H 372.719 3.55352 1.5678 0
M  V30 3926 H 374.451 3.77531 1.45783 0
M  V30 3927 H 371.206 4.7249 -0.324122 0
M  V30 3928 H 371.63 6.33246 -2.39434 0
M  V30 3929 H 376.272 4.20751 -0.415749 0
M  V30 3930 H 373.99 7.15849 -3.74948 0
M  V30 3931 H 377.576 5.41051 -2.13905 0
M  V30 3932 H 376.456 6.86883 -3.78366 0
M  V30 3933 N 373.959 -0.0401083 1.57549 0
M  V30 3934 C 374.907 -1.06264 2.06908 0
M  V30 3935 C 375.901 -1.38132 0.980608 0
M  V30 3936 O 377.107 -1.37167 1.16556 0
M  V30 3937 H 373.482 -0.360166 0.660139 0
M  V30 3938 H 375.453 -0.620445 2.91878 0
M  V30 3939 C 374.202 -2.35846 2.55483 0
M  V30 3940 H 373.525 -2.12183 3.38849 0
M  V30 3941 H 374.965 -3.05765 2.93741 0
M  V30 3942 C 373.424 -3.0404 1.45126 0
M  V30 3943 O 373.954 -3.93424 0.811216 0
M  V30 3944 N 372.16 -2.65184 1.18852 0
M  V30 3945 H 371.707 -1.92584 1.71083 0
M  V30 3946 H 371.665 -3.1113 0.452244 0
M  V30 3947 N 375.437 -1.54477 -0.31217 0
M  V30 3948 C 376.853 -1.45442 -0.657185 0
M  V30 3949 C 377.053 -0.63653 -1.91182 0
M  V30 3950 O 376.109 -0.139815 -2.52113 0
M  V30 3951 C 377.422 -2.89287 -0.82058 0
M  V30 3952 C 378.97 -2.9926 -0.917188 0
M  V30 3953 C 379.445 -4.44279 -1.11267 0
M  V30 3954 N 380.936 -4.4794 -1.17914 0
M  V30 3955 C 381.671 -5.57318 -1.34848 0
M  V30 3956 N 381.167 -6.76642 -1.48752 0
M  V30 3957 N 382.96 -5.44986 -1.37647 0
M  V30 3958 H 375.111 -2.06129 0.512313 0
M  V30 3959 H 377.374 -0.933088 0.167485 0
M  V30 3960 H 377.08 -3.51687 0.0302604 0
M  V30 3961 H 376.954 -3.36061 -1.71298 0
M  V30 3962 H 379.341 -2.36981 -1.75852 0
M  V30 3963 H 379.422 -2.558 -0.00101257 0
M  V30 3964 H 379.066 -5.07149 -0.27614 0
M  V30 3965 H 378.996 -4.85359 -2.04289 0
M  V30 3966 H 381.487 -3.61969 -1.08567 0
M  V30 3967 H 381.8 -7.55758 -1.61397 0
M  V30 3968 H 380.145 -6.79529 -1.45828 0
M  V30 3969 H 383.336 -4.50715 -1.26388 0
M  V30 3970 H 383.509 -6.3028 -1.50501 0
M  V30 3971 N 376.915 0.57481 -1.46744 0
M  V30 3972 C 378.143 1.35856 -1.56047 0
M  V30 3973 C 378.558 1.87691 -0.204365 0
M  V30 3974 O 377.915 1.64049 0.79963 0
M  V30 3975 C 377.966 2.54066 -2.57163 0
M  V30 3976 O 377.687 2.04377 -3.87507 0
M  V30 3977 C 379.188 3.46514 -2.76483 0
M  V30 3978 H 376.408 0.414754 -0.527466 0
M  V30 3979 H 378.952 0.698035 -1.92218 0
M  V30 3980 H 377.107 3.16092 -2.23974 0
M  V30 3981 H 377.521 2.81419 -4.4261 0
M  V30 3982 H 378.995 4.25919 -3.51137 0
M  V30 3983 H 379.472 3.98951 -1.83671 0
M  V30 3984 H 380.078 2.90318 -3.10799 0
M  V30 3985 N 378.394 1.34581 0.820102 0
M  V30 3986 C 379.304 1.28471 1.96297 0
M  V30 3987 C 380.32 0.191902 1.72939 0
M  V30 3988 O 381.496 0.418879 1.96996 0
M  V30 3989 C 378.561 1.04281 3.30645 0
M  V30 3990 C 377.622 2.22745 3.66992 0
M  V30 3991 C 376.855 1.997 4.9493 0
M  V30 3992 O 377.078 0.956656 5.6232 0
M  V30 3993 O 376.012 2.86723 5.2922 0
M  V30 3994 H 379.838 2.24624 2.04396 0
M  V30 3995 H 377.423 1.14816 0.955913 0
M  V30 3996 H 379.305 0.925841 4.11104 0
M  V30 3997 H 377.98 0.111697 3.23507 0
M  V30 3998 H 376.887 2.40003 2.86966 0
M  V30 3999 H 378.22 3.14257 3.78819 0
M  V30 4000 N 379.872 -1.04064 1.18357 0
M  V30 4001 C 380.802 -2.14001 0.934113 0
M  V30 4002 C 381.783 -1.69616 -0.128186 0
M  V30 4003 O 382.968 -1.94185 0.0244093 0
M  V30 4004 C 380.098 -3.44253 0.459066 0
M  V30 4005 C 379.052 -4.02261 1.46185 0
M  V30 4006 C 378.378 -5.27992 0.844322 0
M  V30 4007 C 379.678 -4.38432 2.83856 0
M  V30 4008 H 381.372 -2.35127 1.85352 0
M  V30 4009 H 378.918 -1.12998 0.892604 0
M  V30 4010 H 380.871 -4.20522 0.271907 0
M  V30 4011 H 379.595 -3.22813 -0.495912 0
M  V30 4012 H 378.254 -3.28074 1.63595 0
M  V30 4013 H 377.902 -5.02862 -0.117845 0
M  V30 4014 H 377.602 -5.67765 1.51384 0
M  V30 4015 H 379.126 -6.06938 0.667693 0
M  V30 4016 H 380.54 -5.05688 2.70098 0
M  V30 4017 H 378.937 -4.89254 3.47491 0
M  V30 4018 H 380.007 -3.4826 3.37406 0
M  V30 4019 N 381.35 -0.985608 -1.22978 0
M  V30 4020 C 382.28 -0.549649 -2.26939 0
M  V30 4021 C 383.261 0.419803 -1.64838 0
M  V30 4022 O 384.446 0.31203 -1.91677 0
M  V30 4023 C 381.576 0.143652 -3.47003 0
M  V30 4024 C 380.53 -0.743606 -4.21491 0
M  V30 4025 C 379.856 0.0822027 -5.34637 0
M  V30 4026 C 381.156 -2.03694 -4.80943 0
M  V30 4027 H 382.85 -1.41862 -2.63658 0
M  V30 4028 H 380.396 -0.683571 -1.26741 0
M  V30 4029 H 382.349 0.459985 -4.18882 0
M  V30 4030 H 381.073 1.04711 -3.09359 0
M  V30 4031 H 379.732 -1.04347 -3.51436 0
M  V30 4032 H 379.38 0.986359 -4.93234 0
M  V30 4033 H 379.08 -0.508377 -5.85397 0
M  V30 4034 H 380.604 0.392797 -6.09335 0
M  V30 4035 H 382.018 -1.78504 -5.44802 0
M  V30 4036 H 380.415 -2.57573 -5.42011 0
M  V30 4037 H 381.485 -2.72042 -4.01399 0
M  V30 4038 N 382.828 1.3818 -0.7579 0
M  V30 4039 C 384.056 2.04301 -0.326937 0
M  V30 4040 C 384.471 1.57163 1.0462 0
M  V30 4041 O 383.828 0.746626 1.66529 0
M  V30 4042 C 383.879 3.59846 -0.345363 0
M  V30 4043 O 383.6 4.05256 -1.66432 0
M  V30 4044 C 385.101 4.4319 0.098927 0
M  V30 4045 H 382.321 0.656443 -0.139012 0
M  V30 4046 H 384.865 1.76786 -1.02796 0
M  V30 4047 H 383.02 3.86182 0.306955 0
M  V30 4048 H 383.434 4.99709 -1.59345 0
M  V30 4049 H 384.908 5.51989 0.0348745 0
M  V30 4050 H 385.385 4.23947 1.14741 0
M  V30 4051 H 385.991 4.22051 -0.52468 0
M  V30 4052 N 384.306 0.507319 1.49211 0
M  V30 4053 C 385.236 -0.256939 2.32082 0
M  V30 4054 C 386.217 -0.956609 1.40652 0
M  V30 4055 O 387.402 -0.946788 1.69557 0
M  V30 4056 C 384.532 -1.31802 3.21318 0
M  V30 4057 C 383.486 -0.737855 4.21592 0
M  V30 4058 C 382.812 -1.89992 4.99807 0
M  V30 4059 C 384.112 0.275325 5.21574 0
M  V30 4060 H 385.806 0.434798 2.96226 0
M  V30 4061 H 383.352 0.210546 1.42452 0
M  V30 4062 H 385.305 -1.86045 3.78107 0
M  V30 4063 H 384.029 -2.03903 2.5513 0
M  V30 4064 H 382.688 -0.217126 3.65956 0
M  V30 4065 H 382.336 -2.60877 4.30061 0
M  V30 4066 H 382.036 -1.51777 5.6766 0
M  V30 4067 H 383.56 -2.44657 5.59442 0
M  V30 4068 H 384.974 -0.179193 5.7302 0
M  V30 4069 H 383.371 0.573649 5.97352 0
M  V30 4070 H 384.441 1.18903 4.70096 0
M  V30 4071 N 385.784 -1.5574 0.241426 0
M  V30 4072 C 387.061 -1.90704 -0.434881 0
M  V30 4073 C 387.441 -1.16145 -1.76277 0
M  V30 4074 O 386.789 -0.277152 -2.26813 0
M  V30 4075 C 386.999 -3.43657 -0.608343 0
M  V30 4076 C 388.347 -4.14806 -0.906725 0
M  V30 4077 O 389.371 -3.49366 -0.694408 0
M  V30 4078 O 388.23 -5.30548 -1.31075 0
M  V30 4079 H 385.324 -0.793592 -0.23268 0
M  V30 4080 H 387.87 -1.67288 0.285086 0
M  V30 4081 H 386.642 -3.89927 0.327505 0
M  V30 4082 H 386.265 -3.72918 -1.37906 0
M  V30 4083 N 387.262 0.0317525 -1.57568 0
M  V30 4084 C 388.673 0.578692 -1.77505 0
M  V30 4085 C 389.024 1.75749 -0.872164 0
M  V30 4086 O 388.149 2.16298 -0.0663106 0
M  V30 4087 C 388.744 1.05658 -3.21904 0
M  V30 4088 C 387.303 1.54906 -3.43047 0
M  V30 4089 C 386.45 0.485939 -2.73009 0
M  V30 4090 H 389.401 -0.194475 -1.57504 0
M  V30 4091 H 389.422 1.92404 -3.28269 0
M  V30 4092 H 388.934 0.198422 -3.87592 0
M  V30 4093 H 387.035 2.42915 -2.82529 0
M  V30 4094 H 387.148 1.59841 -4.5165 0
M  V30 4095 H 385.512 0.940354 -2.36705 0
M  V30 4096 H 386.295 -0.362709 -3.41379 0
M  V30 4097 N 388.74 1.54641 0.303973 0
M  V30 4098 C 389.69 1.8177 1.37636 0
M  V30 4099 C 390.674 0.674697 1.46071 0
M  V30 4100 O 391.866 0.935251 1.50273 0
M  V30 4101 C 388.995 2.06584 2.74186 0
M  V30 4102 C 388.081 3.2706 2.69986 0
M  V30 4103 N 388.472 4.47682 2.35402 0
M  V30 4104 C 386.77 3.29028 3.01092 0
M  V30 4105 C 387.471 5.29689 2.40426 0
M  V30 4106 N 386.447 4.67339 2.7766 0
M  V30 4107 H 390.249 2.72596 1.09857 0
M  V30 4108 H 387.763 1.541 0.51254 0
M  V30 4109 H 389.76 2.24166 3.51504 0
M  V30 4110 H 388.42 1.17024 3.02879 0
M  V30 4111 H 389.431 4.74336 2.07908 0
M  V30 4112 H 386.108 2.49565 3.34699 0
M  V30 4113 H 387.498 6.3606 2.16512 0
M  V30 4114 N 390.218 -0.567019 1.47046 0
M  V30 4115 C 391.166 -1.69593 1.59188 0
M  V30 4116 C 392.16 -1.63046 0.459609 0
M  V30 4117 O 393.366 -1.6835 0.637058 0
M  V30 4118 H 389.741 -0.560993 0.500791 0
M  V30 4119 H 391.712 -1.56488 2.54075 0
M  V30 4120 C 390.461 -3.07964 1.61411 0
M  V30 4121 H 389.784 -3.13679 2.47881 0
M  V30 4122 H 391.224 -3.86671 1.73958 0
M  V30 4123 C 389.683 -3.35123 0.34559 0
M  V30 4124 O 390.213 -3.97812 -0.557521 0
M  V30 4125 N 388.419 -2.89699 0.22864 0
M  V30 4126 H 387.966 -2.38863 0.964479 0
M  V30 4127 H 387.924 -3.08242 -0.619192 0
M  V30 4128 N 391.696 -1.35014 -0.812953 0
M  V30 4129 C 392.942 -1.2812 -1.57204 0
M  V30 4130 C 393.275 0.145869 -1.93651 0
M  V30 4131 O 392.55 1.0937 -1.60836 0
M  V30 4132 C 392.833 -2.18162 -2.86492 0
M  V30 4133 C 392.686 -3.69454 -2.56561 0
M  V30 4134 C 394.005 -2.07439 -3.88145 0
M  V30 4135 H 391.124 -0.466746 -0.570366 0
M  V30 4136 H 393.766 -1.65357 -0.935783 0
M  V30 4137 H 391.916 -1.86535 -3.40789 0
M  V30 4138 H 393.588 -4.11493 -2.08497 0
M  V30 4139 H 391.831 -3.9005 -1.89851 0
M  V30 4140 H 392.502 -4.27835 -3.48799 0
M  V30 4141 H 394.978 -2.35228 -3.4323 0
M  V30 4142 H 393.854 -2.7265 -4.76396 0
M  V30 4143 H 394.115 -1.05439 -4.29343 0
M  V30 4144 N 393.175 1.03435 -1.18907 0
M  V30 4145 C 394.452 1.73778 -0.89781 0
M  V30 4146 C 394.832 2.02458 0.597832 0
M  V30 4147 O 394.18 1.67482 1.55441 0
M  V30 4148 C 394.39 3.01845 -1.75187 0
M  V30 4149 C 395.738 3.7546 -1.9828 0
M  V30 4150 O 396.762 3.11759 -1.72293 0
M  V30 4151 O 395.621 4.89966 -2.42065 0
M  V30 4152 H 392.715 0.75651 -0.334098 0
M  V30 4153 H 395.261 1.09444 -1.29693 0
M  V30 4154 H 394.033 2.76836 -2.76545 0
M  V30 4155 H 393.656 3.73919 -1.35167 0
M  V30 4156 N 394.653 0.992116 1.22453 0
M  V30 4157 C 395.883 0.684949 1.94915 0
M  V30 4158 C 396.291 -0.754292 1.73514 0
M  V30 4159 O 395.634 -1.52056 1.03076 0
M  V30 4160 C 395.696 0.910054 3.47791 0
M  V30 4161 C 395.36 2.33363 3.92926 0
M  V30 4162 C 396.357 3.31308 4.00663 0
M  V30 4163 C 394.042 2.66785 4.25595 0
M  V30 4164 C 396.036 4.6075 4.40441 0
M  V30 4165 C 393.723 3.96446 4.65053 0
M  V30 4166 C 394.721 4.9324 4.72444 0
M  V30 4167 O 394.409 6.20584 5.1101 0
M  V30 4168 H 394.141 0.25258 0.62704 0
M  V30 4169 H 396.695 1.32939 1.56577 0
M  V30 4170 H 394.925 0.208443 3.86138 0
M  V30 4171 H 396.614 0.598257 4.01467 0
M  V30 4172 H 397.38 3.0682 3.75615 0
M  V30 4173 H 393.259 1.92148 4.19047 0
M  V30 4174 H 396.803 5.363 4.46126 0
M  V30 4175 H 392.7 4.20724 4.89552 0
M  V30 4176 H 393.468 6.24509 5.29085 0
M  V30 4177 N 396.131 -1.37776 0.765217 0
M  V30 4178 C 397.061 -2.32945 0.160953 0
M  V30 4179 C 398.042 -1.55454 -0.690516 0
M  V30 4180 O 399.227 -1.83721 -0.629318 0
M  V30 4181 C 396.357 -3.39669 -0.724031 0
M  V30 4182 C 395.311 -4.27992 0.0256173 0
M  V30 4183 C 394.637 -5.25673 -0.978383 0
M  V30 4184 C 395.937 -5.08309 1.20082 0
M  V30 4185 H 397.631 -2.83728 0.955969 0
M  V30 4186 H 395.177 -1.36416 0.461149 0
M  V30 4187 H 397.13 -4.05219 -1.15652 0
M  V30 4188 H 395.854 -2.87396 -1.5515 0
M  V30 4189 H 394.513 -3.63964 0.438812 0
M  V30 4190 H 394.161 -4.69682 -1.80022 0
M  V30 4191 H 393.861 -5.85625 -0.481378 0
M  V30 4192 H 395.385 -5.94098 -1.40995 0
M  V30 4193 H 396.799 -5.67034 0.845307 0
M  V30 4194 H 395.196 -5.77554 1.62947 0
M  V30 4195 H 396.266 -4.41365 2.00811 0
M  V30 4196 N 397.609 -0.515225 -1.4894 0
M  V30 4197 C 398.539 0.244628 -2.32215 0
M  V30 4198 C 399.52 0.949136 -1.41157 0
M  V30 4199 O 400.705 0.937783 -1.70057 0
M  V30 4200 C 397.835 1.30096 -3.22013 0
M  V30 4201 C 396.789 0.715486 -4.21977 0
M  V30 4202 C 396.115 1.87339 -5.00808 0
M  V30 4203 C 397.415 -0.302982 -5.2142 0
M  V30 4204 H 399.109 -0.450501 -2.95991 0
M  V30 4205 H 396.655 -0.218098 -1.42339 0
M  V30 4206 H 398.608 1.84037 -3.79089 0
M  V30 4207 H 397.332 2.02547 -2.56207 0
M  V30 4208 H 395.991 0.197715 -3.66066 0
M  V30 4209 H 395.639 2.58592 -4.31438 0
M  V30 4210 H 395.339 1.48764 -5.68457 0
M  V30 4211 H 396.863 2.41686 -5.60732 0
M  V30 4212 H 398.277 0.148802 -5.73107 0
M  V30 4213 H 396.674 -0.60532 -5.97039 0
M  V30 4214 H 397.744 -1.21395 -4.69459 0
M  V30 4215 N 399.087 1.5561 -0.249682 0
M  V30 4216 C 400.335 1.98618 0.373548 0
M  V30 4217 C 400.656 1.13919 1.58264 0
M  V30 4218 O 399.926 0.222637 1.94631 0
M  V30 4219 H 398.506 0.733571 0.141006 0
M  V30 4220 H 401.168 1.91748 -0.349117 0
M  V30 4221 H 400.264 3.04584 0.680796 0
M  V30 4222 N 400.565 -0.0233959 1.57583 0
M  V30 4223 C 401.495 -1.02162 2.09965 0
M  V30 4224 C 402.476 -1.3735 1.00344 0
M  V30 4225 O 403.661 -1.46135 1.27899 0
M  V30 4226 C 400.791 -2.32081 2.58371 0
M  V30 4227 C 399.745 -2.1112 3.72307 0
M  V30 4228 C 399.071 -3.46848 4.06941 0
M  V30 4229 C 400.371 -1.49276 5.00514 0
M  V30 4230 H 402.065 -0.585557 2.93618 0
M  V30 4231 H 399.611 -0.280218 1.41247 0
M  V30 4232 H 401.564 -3.02249 2.93639 0
M  V30 4233 H 400.288 -2.77758 1.71808 0
M  V30 4234 H 398.947 -1.43384 3.37397 0
M  V30 4235 H 398.595 -3.90184 3.17436 0
M  V30 4236 H 398.295 -3.33646 4.83688 0
M  V30 4237 H 399.819 -4.18369 4.44747 0
M  V30 4238 H 401.233 -2.09368 5.33702 0
M  V30 4239 H 399.63 -1.46632 5.8191 0
M  V30 4240 H 400.7 -0.459217 4.82721 0
M  V30 4241 N 402.043 -1.548 -0.295768 0
M  V30 4242 C 403.29 -1.74329 -1.03032 0
M  V30 4243 C 403.618 -0.531915 -1.87085 0
M  V30 4244 O 402.873 0.486052 -1.89568 0
M  V30 4245 C 403.172 -2.98797 -1.961 0
M  V30 4246 C 402.838 -4.32356 -1.2798 0
M  V30 4247 C 401.5 -4.68661 -1.09135 0
M  V30 4248 C 403.852 -5.15128 -0.793243 0
M  V30 4249 C 401.18 -5.85312 -0.403269 0
M  V30 4250 C 403.532 -6.32488 -0.118854 0
M  V30 4251 C 402.196 -6.6745 0.0815043 0
M  V30 4252 H 401.466 -0.637916 -0.37702 0
M  V30 4253 H 404.113 -1.8906 -0.304696 0
M  V30 4254 H 402.418 -2.78869 -2.75207 0
M  V30 4255 H 404.115 -3.11102 -2.53015 0
M  V30 4256 H 400.705 -4.03808 -1.43655 0
M  V30 4257 H 404.889 -4.87575 -0.92653 0
M  V30 4258 H 400.145 -6.1094 -0.237098 0
M  V30 4259 H 404.319 -6.95892 0.266035 0
M  V30 4260 H 401.946 -7.57695 0.616685 0
M  V30 4261 N 403.521 0.559213 -1.47345 0
M  V30 4262 C 404.431 1.69388 -1.62311 0
M  V30 4263 C 405.447 1.6648 -0.505993 0
M  V30 4264 O 406.623 1.85964 -0.773262 0
M  V30 4265 C 403.688 3.05894 -1.63185 0
M  V30 4266 C 402.749 3.19885 -2.86307 0
M  V30 4267 C 401.982 4.49879 -2.87131 0
M  V30 4268 O 402.205 5.35217 -1.97229 0
M  V30 4269 O 401.139 4.67618 -3.78968 0
M  V30 4270 H 404.965 1.59706 -2.58317 0
M  V30 4271 H 402.55 0.728989 -1.30407 0
M  V30 4272 H 404.432 3.87133 -1.66451 0
M  V30 4273 H 403.107 3.15964 -0.70345 0
M  V30 4274 H 402.014 2.38052 -2.88587 0
M  V30 4275 H 403.347 3.14718 -3.78435 0
M  V30 4276 N 404.999 1.35443 0.805782 0
M  V30 4277 C 406.41 1.25768 1.37983 0
M  V30 4278 C 406.761 -0.10958 1.95894 0
M  V30 4279 O 405.886 -1.01056 1.91355 0
M  V30 4280 C 406.481 2.27727 2.5085 0
M  V30 4281 C 405.04 2.2179 3.04115 0
M  V30 4282 C 404.187 2.13393 1.77084 0
M  V30 4283 H 407.138 1.4656 0.608752 0
M  V30 4284 H 407.159 1.90422 3.29424 0
M  V30 4285 H 406.671 3.27227 2.08671 0
M  V30 4286 H 404.772 1.25703 3.50756 0
M  V30 4287 H 404.885 3.13788 3.62042 0
M  V30 4288 H 403.249 1.59384 1.98668 0
M  V30 4289 H 404.032 3.14755 1.37056 0
M  V30 4290 N 406.477 -1.02803 1.19454 0
M  V30 4291 C 407.725 -1.75869 0.995722 0
M  V30 4292 C 408.046 -1.89138 -0.474543 0
M  V30 4293 O 407.316 -1.42558 -1.34366 0
M  V30 4294 H 405.896 -0.651511 0.365435 0
M  V30 4295 H 408.558 -1.24004 1.50363 0
M  V30 4296 H 407.654 -2.76661 1.44447 0
M  V30 4297 N 407.956 -0.998596 -1.21925 0
M  V30 4298 C 409.233 -0.593401 -1.86382 0
M  V30 4299 C 409.613 0.92916 -1.89552 0
M  V30 4300 O 408.961 1.81347 -1.39017 0
M  V30 4301 C 409.171 -1.22039 -3.26967 0
M  V30 4302 C 410.519 -1.32449 -4.03413 0
M  V30 4303 O 411.543 -1.17522 -3.36254 0
M  V30 4304 O 410.402 -1.56395 -5.23644 0
M  V30 4305 H 407.496 -0.202385 -0.801854 0
M  V30 4306 H 410.042 -1.09484 -1.29659 0
M  V30 4307 H 408.814 -2.26158 -3.19325 0
M  V30 4308 H 408.437 -0.704906 -3.91301 0
M  V30 4309 N 409.434 1.37368 -0.772513 0
M  V30 4310 C 410.367 2.27956 -0.105593 0
M  V30 4311 C 411.345 1.46362 0.708295 0
M  V30 4312 O 412.529 1.75695 0.682895 0
M  V30 4313 C 409.656 3.27687 0.856686 0
M  V30 4314 C 408.702 4.26312 0.1267 0
M  V30 4315 S 409.535 5.22206 -1.1858 0
M  V30 4316 C 410.691 6.25488 -0.227081 0
M  V30 4317 H 410.924 2.84171 -0.87372 0
M  V30 4318 H 408.457 1.43654 -0.565939 0
M  V30 4319 H 410.415 3.85653 1.40648 0
M  V30 4320 H 409.076 2.70417 1.59793 0
M  V30 4321 H 408.269 4.96674 0.856212 0
M  V30 4322 H 407.871 3.72339 -0.352117 0
M  V30 4323 H 410.163 6.74836 0.600231 0
M  V30 4324 H 411.106 7.02371 -0.898899 0
M  V30 4325 H 411.514 5.64267 0.162053 0
M  V30 4326 N 410.912 0.523116 1.48665 0
M  V30 4327 C 411.844 -0.280421 2.27478 0
M  V30 4328 C 412.857 -0.910694 1.34945 0
M  V30 4329 O 414.046 -0.790295 1.60052 0
M  V30 4330 C 411.146 -1.41171 3.08097 0
M  V30 4331 C 410.319 -0.884642 4.28361 0
M  V30 4332 C 409.378 -1.89622 4.90846 0
M  V30 4333 O 408.404 -1.4559 5.50265 0
M  V30 4334 N 409.606 -3.22801 4.82472 0
M  V30 4335 H 412.371 0.395481 2.97079 0
M  V30 4336 H 409.932 0.357018 1.57915 0
M  V30 4337 H 411.924 -2.08645 3.4677 0
M  V30 4338 H 410.494 -1.99139 2.40961 0
M  V30 4339 H 409.714 -0.0341177 3.94185 0
M  V30 4340 H 411.002 -0.511268 5.06225 0
M  V30 4341 H 410.4 -3.61246 4.35336 0
M  V30 4342 H 408.957 -3.85927 5.25265 0
M  V30 4343 N 412.39 -1.55475 0.257931 0
M  V30 4344 C 413.62 -2.03314 -0.367026 0
M  V30 4345 C 414.028 -1.13625 -1.51281 0
M  V30 4346 O 413.371 -0.145334 -1.83124 0
M  V30 4347 C 413.433 -3.47362 -0.926284 0
M  V30 4348 C 413.097 -4.56914 0.0886584 0
M  V30 4349 C 414.094 -5.12013 0.902123 0
M  V30 4350 C 411.779 -5.01827 0.217936 0
M  V30 4351 C 413.773 -6.10529 1.83122 0
M  V30 4352 C 411.46 -6.00172 1.15052 0
M  V30 4353 C 412.458 -6.54402 1.95568 0
M  V30 4354 O 412.146 -7.50827 2.87253 0
M  V30 4355 H 411.878 -0.669976 -0.0900443 0
M  V30 4356 H 414.432 -2.01804 0.382673 0
M  V30 4357 H 412.662 -3.46056 -1.72575 0
M  V30 4358 H 414.351 -3.78637 -1.46249 0
M  V30 4359 H 415.117 -4.78139 0.812891 0
M  V30 4360 H 410.996 -4.59272 -0.398721 0
M  V30 4361 H 414.54 -6.52783 2.46008 0
M  V30 4362 H 410.437 -6.33465 1.24064 0
M  V30 4363 H 411.205 -7.68483 2.81739 0
M  V30 4364 N 413.868 0.0150385 -1.57593 0
M  V30 4365 C 414.778 1.02791 -2.10882 0
M  V30 4366 C 415.794 1.38702 -1.0506 0
M  V30 4367 O 416.97 1.47739 -1.36877 0
M  V30 4368 C 414.035 2.30568 -2.58919 0
M  V30 4369 C 413.096 2.01108 -3.79281 0
M  V30 4370 C 412.329 3.22794 -4.25018 0
M  V30 4371 O 412.552 4.33959 -3.70183 0
M  V30 4372 O 411.486 3.07672 -5.17322 0
M  V30 4373 H 415.312 0.604973 -2.97613 0
M  V30 4374 H 412.897 0.23292 -1.47573 0
M  V30 4375 H 414.779 3.05662 -2.90084 0
M  V30 4376 H 413.454 2.72129 -1.75293 0
M  V30 4377 H 412.361 1.23537 -3.53114 0
M  V30 4378 H 413.694 1.64394 -4.63935 0
M  V30 4379 N 415.346 1.54954 0.287554 0
M  V30 4380 C 416.276 1.89839 1.35954 0
M  V30 4381 C 417.257 0.758675 1.52244 0
M  V30 4382 O 418.442 1.01557 1.65529 0
M  V30 4383 C 415.572 2.15753 2.72154 0
M  V30 4384 C 414.526 3.3159 2.70614 0
M  V30 4385 C 413.852 3.42952 4.10229 0
M  V30 4386 C 415.152 4.68359 2.31165 0
M  V30 4387 H 416.846 2.79625 1.07007 0
M  V30 4388 H 414.392 1.3454 0.513316 0
M  V30 4389 H 416.345 2.38743 3.47246 0
M  V30 4390 H 415.069 1.22752 3.02654 0
M  V30 4391 H 413.728 3.08545 1.97979 0
M  V30 4392 H 413.376 2.47443 4.37928 0
M  V30 4393 H 413.076 4.20826 4.10097 0
M  V30 4394 H 414.6 3.68218 4.87081 0
M  V30 4395 H 416.014 4.9099 2.95976 0
M  V30 4396 H 414.411 5.49044 2.42221 0
M  V30 4397 H 415.481 4.68165 1.26291 0
M  V30 4398 N 416.824 -0.551391 1.4764 0
M  V30 4399 C 417.772 -1.67896 1.60978 0
M  V30 4400 C 418.766 -1.62549 0.476877 0
M  V30 4401 O 419.972 -1.67664 0.654878 0
M  V30 4402 H 416.347 -0.555649 0.506713 0
M  V30 4403 H 418.318 -1.53784 2.55721 0
M  V30 4404 C 417.067 -3.06234 1.64669 0
M  V30 4405 H 416.39 -3.11033 2.51194 0
M  V30 4406 H 417.83 -3.84804 1.7805 0
M  V30 4407 C 416.289 -3.34737 0.381115 0
M  V30 4408 O 416.819 -3.98381 -0.515297 0
M  V30 4409 N 415.025 -2.8944 0.259354 0
M  V30 4410 H 414.572 -2.37827 0.98976 0
M  V30 4411 H 414.53 -3.08882 -0.586464 0
M  V30 4412 N 418.302 -1.35869 -0.798587 0
M  V30 4413 C 419.718 -1.16082 -1.09532 0
M  V30 4414 C 419.918 0.0213124 -2.01489 0
M  V30 4415 O 418.974 0.689488 -2.42904 0
M  V30 4416 C 420.287 -2.46748 -1.7186 0
M  V30 4417 C 421.835 -2.53028 -1.84244 0
M  V30 4418 C 422.31 -3.83758 -2.49988 0
M  V30 4419 N 423.801 -3.85053 -2.57465 0
M  V30 4420 C 424.536 -4.8294 -3.09122 0
M  V30 4421 N 424.032 -5.91217 -3.61157 0
M  V30 4422 N 425.825 -4.70369 -3.0775 0
M  V30 4423 H 417.976 -2.11571 -0.187461 0
M  V30 4424 H 420.239 -0.936726 -0.145765 0
M  V30 4425 H 419.945 -3.33471 -1.11759 0
M  V30 4426 H 419.819 -2.61883 -2.71472 0
M  V30 4427 H 422.206 -1.66729 -2.43486 0
M  V30 4428 H 422.287 -2.418 -0.834643 0
M  V30 4429 H 421.931 -4.70459 -1.91393 0
M  V30 4430 H 421.861 -3.92278 -3.5132 0
M  V30 4431 H 424.352 -3.06822 -2.20609 0
M  V30 4432 H 424.665 -6.61892 -3.98896 0
M  V30 4433 H 423.01 -5.94899 -3.59333 0
M  V30 4434 H 426.201 -3.84914 -2.66381 0
M  V30 4435 H 426.374 -5.46816 -3.47701 0
M  V30 4436 N 419.78 1.02168 -1.19998 0
M  V30 4437 C 420.728 2.12717 -0.940967 0
M  V30 4438 C 421.722 1.69069 0.105841 0
M  V30 4439 O 422.928 1.79946 -0.0440583 0
M  V30 4440 H 419.303 0.695108 -0.28693 0
M  V30 4441 H 421.274 2.3175 -1.87975 0
M  V30 4442 C 420.023 3.44027 -0.504049 0
M  V30 4443 H 419.346 3.78036 -1.30112 0
M  V30 4444 H 420.786 4.22452 -0.361991 0
M  V30 4445 C 419.245 3.27678 0.782878 0
M  V30 4446 O 419.775 3.56949 1.84256 0
M  V30 4447 N 417.981 2.80943 0.742921 0
M  V30 4448 H 417.528 2.57322 -0.119687 0
M  V30 4449 H 417.486 2.70385 1.60435 0
M  V30 4450 N 421.258 1.00505 1.21394 0
M  V30 4451 C 422.206 0.558623 2.25792 0
M  V30 4452 C 423.2 -0.396848 1.64686 0
M  V30 4453 O 424.406 -0.268035 1.77993 0
M  V30 4454 H 420.781 0.1623 0.734277 0
M  V30 4455 H 422.752 1.4503 2.60785 0
M  V30 4456 C 421.501 -0.0989574 3.47559 0
M  V30 4457 H 420.824 0.627225 3.94849 0
M  V30 4458 H 422.264 -0.3746 4.22342 0
M  V30 4459 C 420.723 -1.33817 3.09184 0
M  V30 4460 O 421.253 -2.43252 3.19674 0
M  V30 4461 N 419.459 -1.21793 2.63846 0
M  V30 4462 H 419.006 -0.32746 2.5551 0
M  V30 4463 H 418.964 -2.04809 2.38539 0
M  V30 4464 N 422.737 -1.36956 0.779787 0
M  V30 4465 C 423.983 -1.99787 0.348281 0
M  V30 4466 C 424.316 -1.61756 -1.07465 0
M  V30 4467 O 423.591 -0.867639 -1.74075 0
M  V30 4468 C 423.874 -3.56597 0.50104 0
M  V30 4469 C 423.727 -4.04513 1.96697 0
M  V30 4470 C 425.046 -4.40008 -0.0898097 0
M  V30 4471 H 422.165 -0.725796 0.128022 0
M  V30 4472 H 424.807 -1.62514 0.984331 0
M  V30 4473 H 422.957 -3.88479 -0.0404347 0
M  V30 4474 H 424.629 -3.83161 2.56876 0
M  V30 4475 H 422.872 -3.56408 2.47297 0
M  V30 4476 H 423.543 -5.1352 2.02486 0
M  V30 4477 H 426.019 -4.14431 0.372293 0
M  V30 4478 H 424.895 -5.4888 0.0471605 0
M  V30 4479 H 425.156 -4.26035 -1.18096 0
M  V30 4480 N 424.215 -0.530993 -1.48385 0
M  V30 4481 C 425.443 -0.00134122 -2.069 0
M  V30 4482 C 425.858 1.2805 -1.3874 0
M  V30 4483 O 425.215 1.76204 -0.475244 0
M  V30 4484 C 425.266 0.225256 -3.60798 0
M  V30 4485 O 424.987 -1.0058 -4.26398 0
M  V30 4486 C 426.488 0.795172 -4.3611 0
M  V30 4487 H 423.708 -0.0339704 -0.67014 0
M  V30 4488 H 426.252 -0.736926 -1.90761 0
M  V30 4489 H 424.407 0.910891 -3.76539 0
M  V30 4490 H 424.821 -0.787165 -5.1856 0
M  V30 4491 H 426.295 0.903143 -5.44562 0
M  V30 4492 H 426.772 1.80031 -4.00606 0
M  V30 4493 H 427.378 0.146069 -4.25049 0
M  V30 4494 N 425.693 1.55336 -0.266172 0
M  V30 4495 C 426.97 1.91372 0.404486 0
M  V30 4496 C 427.35 1.18935 1.74407 0
M  V30 4497 O 426.698 0.3132 2.26343 0
M  V30 4498 C 426.908 3.44581 0.553593 0
M  V30 4499 C 428.256 4.16196 0.840618 0
M  V30 4500 O 429.28 3.50426 0.638739 0
M  V30 4501 O 428.139 5.32567 1.22618 0
M  V30 4502 H 425.233 0.797194 0.220025 0
M  V30 4503 H 427.779 1.66813 -0.311664 0
M  V30 4504 H 426.551 3.89357 -0.389498 0
M  V30 4505 H 426.174 3.75065 1.31955 0
M  V30 4506 N 427.171 -0.0066808 1.57599 0
M  V30 4507 C 428.582 -0.550379 1.78403 0
M  V30 4508 C 428.933 -1.74339 0.900014 0
M  V30 4509 O 428.058 -2.16166 0.100713 0
M  V30 4510 C 428.653 -1.00523 3.23544 0
M  V30 4511 C 427.212 -1.49428 3.45468 0
M  V30 4512 C 426.359 -0.442444 2.73748 0
M  V30 4513 H 429.31 0.219508 1.57175 0
M  V30 4514 H 429.331 -1.87157 3.31289 0
M  V30 4515 H 428.843 -0.136735 3.87859 0
M  V30 4516 H 426.944 -2.3839 2.86358 0
M  V30 4517 H 427.057 -1.52635 4.54136 0
M  V30 4518 H 425.421 -0.902578 2.38171 0
M  V30 4519 H 426.204 0.416973 3.40758 0
M  V30 4520 N 428.649 -1.55105 -0.279332 0
M  V30 4521 C 429.874 -1.7976 -1.03446 0
M  V30 4522 C 430.299 -0.565952 -1.79384 0
M  V30 4523 O 429.657 0.484259 -1.74713 0
M  V30 4524 C 429.705 -3.0179 -1.97371 0
M  V30 4525 O 428.809 -2.76432 -3.06038 0
M  V30 4526 H 428.15 -0.594334 -0.29608 0
M  V30 4527 H 430.68 -2.02235 -0.310165 0
M  V30 4528 H 430.69 -3.30351 -2.39441 0
M  V30 4529 H 429.365 -3.91085 -1.4151 0
M  V30 4530 H 427.942 -2.58949 -2.68328 0
M  V30 4531 N 430.127 0.543554 -1.4793 0
M  V30 4532 C 431.057 1.65888 -1.64327 0
M  V30 4533 C 432.038 1.62818 -0.492383 0
M  V30 4534 O 433.223 1.80226 -0.723338 0
M  V30 4535 C 430.353 3.04506 -1.67013 0
M  V30 4536 C 429.307 3.2243 -2.81466 0
M  V30 4537 C 428.633 4.61972 -2.69233 0
M  V30 4538 C 429.933 3.06496 -4.22915 0
M  V30 4539 H 431.627 1.52421 -2.57698 0
M  V30 4540 H 429.173 0.731849 -1.24016 0
M  V30 4541 H 431.126 3.82391 -1.77074 0
M  V30 4542 H 429.85 3.18964 -0.70212 0
M  V30 4543 H 428.509 2.46957 -2.70938 0
M  V30 4544 H 428.157 4.73247 -1.7043 0
M  V30 4545 H 427.857 4.74911 -3.46025 0
M  V30 4546 H 429.381 5.41974 -2.81242 0
M  V30 4547 H 430.795 3.74186 -4.34348 0
M  V30 4548 H 429.192 3.30938 -5.006 0
M  V30 4549 H 430.262 2.03077 -4.40327 0
M  V30 4550 N 431.605 1.3629 0.791371 0
M  V30 4551 C 432.83 1.33726 1.58531 0
M  V30 4552 C 433.255 -0.0794933 1.87932 0
M  V30 4553 O 432.613 -1.05087 1.47738 0
M  V30 4554 C 432.661 2.16425 2.88431 0
M  V30 4555 O 431.765 1.5554 3.81944 0
M  V30 4556 H 431.106 0.457793 0.480959 0
M  V30 4557 H 433.636 1.79547 0.981031 0
M  V30 4558 H 433.646 2.28933 3.37718 0
M  V30 4559 H 432.321 3.19415 2.66359 0
M  V30 4560 H 430.898 1.51961 3.40532 0
M  V30 4561 N 433.083 -1.0153 1.20538 0
M  V30 4562 C 433.993 -2.13557 0.971113 0
M  V30 4563 C 435.009 -1.73845 -0.0734366 0
M  V30 4564 O 436.185 -2.01075 0.114299 0
M  V30 4565 C 433.25 -3.42661 0.527639 0
M  V30 4566 C 432.311 -3.96608 1.64319 0
M  V30 4567 C 431.544 -5.1955 1.22078 0
M  V30 4568 O 431.767 -5.70329 0.0900198 0
M  V30 4569 O 430.701 -5.66681 2.02871 0
M  V30 4570 H 434.527 -2.3619 1.90913 0
M  V30 4571 H 432.112 -1.11946 0.989362 0
M  V30 4572 H 433.994 -4.20404 0.289621 0
M  V30 4573 H 432.669 -3.21441 -0.381779 0
M  V30 4574 H 431.576 -3.20139 1.93551 0
M  V30 4575 H 432.909 -4.22219 2.52966 0
M  V30 4576 N 434.561 -1.01147 -1.20859 0
M  V30 4577 C 435.494 -0.522108 -2.22147 0
M  V30 4578 C 436.472 0.427686 -1.56874 0
M  V30 4579 O 437.656 0.34889 -1.85243 0
M  V30 4580 C 434.783 0.240819 -3.37843 0
M  V30 4581 C 433.829 -0.657752 -4.21398 0
M  V30 4582 S 434.662 -2.12393 -4.91578 0
M  V30 4583 C 435.818 -1.37102 -6.10699 0
M  V30 4584 H 436.051 -1.38035 -2.63313 0
M  V30 4585 H 433.584 -0.819941 -1.30829 0
M  V30 4586 H 435.542 0.674908 -4.04914 0
M  V30 4587 H 434.203 1.07457 -2.95147 0
M  V30 4588 H 433.396 -0.0697456 -5.03952 0
M  V30 4589 H 432.998 -1.0294 -3.59555 0
M  V30 4590 H 435.29 -0.648315 -6.74391 0
M  V30 4591 H 436.233 -2.17252 -6.73949 0
M  V30 4592 H 436.641 -0.876154 -5.57659 0
M  V30 4593 N 436.039 1.36541 -0.78704 0
M  V30 4594 C 437.285 1.99599 -0.358872 0
M  V30 4595 C 437.618 1.62323 1.06606 0
M  V30 4596 O 436.893 0.876858 1.73613 0
M  V30 4597 C 437.176 3.56327 -0.519944 0
M  V30 4598 C 437.029 4.03464 -1.98839 0
M  V30 4599 C 438.348 4.4005 0.0664737 0
M  V30 4600 H 435.467 0.725107 -0.131869 0
M  V30 4601 H 438.109 1.6199 -0.992936 0
M  V30 4602 H 436.259 3.88495 0.0198321 0
M  V30 4603 H 437.931 3.81793 -2.58905 0
M  V30 4604 H 436.174 3.55092 -2.49183 0
M  V30 4605 H 436.845 5.12439 -2.05207 0
M  V30 4606 H 439.321 4.14228 -0.394267 0
M  V30 4607 H 438.197 5.48847 -0.0762682 0
M  V30 4608 H 438.458 4.26655 1.15835 0
M  V30 4609 N 437.518 0.538854 1.48102 0
M  V30 4610 C 438.764 0.00801365 2.02798 0
M  V30 4611 C 439.097 -1.3309 1.41424 0
M  V30 4612 O 438.372 -1.86169 0.563158 0
M  V30 4613 C 438.655 -0.104589 3.59948 0
M  V30 4614 C 438.508 1.26012 4.31788 0
M  V30 4615 C 439.827 -0.827055 4.32259 0
M  V30 4616 H 436.946 0.00438624 0.736987 0
M  V30 4617 H 439.588 0.6976 1.7673 0
M  V30 4618 H 437.738 -0.691893 3.82289 0
M  V30 4619 H 439.41 1.88922 4.2084 0
M  V30 4620 H 437.653 1.83968 3.92859 0
M  V30 4621 H 438.324 1.13424 5.40221 0
M  V30 4622 H 440.8 -0.328578 4.14801 0
M  V30 4623 H 439.676 -0.87476 5.41885 0
M  V30 4624 H 439.937 -1.87927 4.0017 0
M  V30 4625 N 438.996 -1.55193 0.274407 0
M  V30 4626 C 440.242 -1.99877 -0.343086 0
M  V30 4627 C 440.575 -1.16256 -1.55558 0
M  V30 4628 O 439.85 -0.232462 -1.93106 0
M  V30 4629 C 440.133 -3.52706 -0.725965 0
M  V30 4630 C 439.986 -4.47081 0.493818 0
M  V30 4631 C 441.305 -4.11422 -1.56268 0
M  V30 4632 H 438.424 -0.726625 -0.123229 0
M  V30 4633 H 441.066 -1.86136 0.38121 0
M  V30 4634 H 439.216 -3.64546 -1.34307 0
M  V30 4635 H 440.888 -4.47186 1.13237 0
M  V30 4636 H 439.131 -4.1877 1.13201 0
M  V30 4637 H 439.802 -5.51699 0.18217 0
M  V30 4638 H 442.278 -4.02855 -1.04151 0
M  V30 4639 H 441.154 -5.18568 -1.79939 0
M  V30 4640 H 441.415 -3.61607 -2.54348 0
M  V30 4641 N 440.474 -0.00167713 -1.576 0
M  V30 4642 C 441.437 0.974046 -2.07473 0
M  V30 4643 C 442.437 1.27143 -0.984444 0
M  V30 4644 O 443.627 1.21633 -1.24703 0
M  V30 4645 C 440.759 2.29849 -2.51759 0
M  V30 4646 H 441.952 0.54262 -2.9495 0
M  V30 4647 H 439.505 0.245829 -1.54355 0
M  V30 4648 H 440.24 2.77677 -1.67529 0
M  V30 4649 H 440.025 2.09584 -3.31386 0
M  V30 4650 H 441.515 2.9984 -2.90664 0
M  V30 4651 N 441.952 1.55251 0.271103 0
M  V30 4652 C 443.201 1.75151 1.00025 0
M  V30 4653 C 443.514 0.561041 1.87381 0
M  V30 4654 O 444.72 0.642506 2.63788 0
M  V30 4655 C 443.176 3.09999 1.82835 0
M  V30 4656 C 442.784 4.3662 1.00336 0
M  V30 4657 C 444.528 3.39249 2.55168 0
M  V30 4658 C 442.435 5.62506 1.82595 0
M  V30 4659 H 441.365 0.652877 0.377183 0
M  V30 4660 H 444.016 1.81708 0.255843 0
M  V30 4661 H 442.398 2.97485 2.61378 0
M  V30 4662 H 443.572 4.60055 0.261959 0
M  V30 4663 H 441.887 4.14527 0.394486 0
M  V30 4664 H 444.484 4.3051 3.1712 0
M  V30 4665 H 444.827 2.59467 3.2555 0
M  V30 4666 H 445.36 3.52869 1.83653 0
M  V30 4667 H 442.099 6.45041 1.16631 0
M  V30 4668 H 441.619 5.43211 2.54327 0
M  V30 4669 H 443.298 6.00875 2.39913 0
M  V30 4670 N 443.43 -0.535701 1.48216 0
M  V30 4671 C 444.362 -1.65662 1.58394 0
M  V30 4672 C 445.375 -1.5591 0.468607 0
M  V30 4673 O 446.564 -1.62475 0.7392 0
M  V30 4674 C 443.664 -3.04276 1.4923 0
M  V30 4675 C 442.837 -3.39567 2.75705 0
M  V30 4676 C 441.896 -4.57436 2.60075 0
M  V30 4677 O 440.922 -4.60942 3.33948 0
M  V30 4678 N 442.124 -5.55259 1.69315 0
M  V30 4679 H 444.889 -1.5737 2.55058 0
M  V30 4680 H 442.45 -0.722845 1.44867 0
M  V30 4681 H 444.442 -3.80994 1.36477 0
M  V30 4682 H 443.012 -3.06677 0.605632 0
M  V30 4683 H 442.232 -2.52083 3.03064 0
M  V30 4684 H 443.52 -3.59929 3.59623 0
M  V30 4685 H 442.918 -5.552 1.08489 0
M  V30 4686 H 441.475 -6.31218 1.62504 0
M  V30 4687 N 444.908 -1.36708 -0.784132 0
M  V30 4688 C 446.157 -1.30559 -1.53744 0
M  V30 4689 C 446.47 0.111374 -1.95283 0
M  V30 4690 O 447.676 0.29527 -2.6989 0
M  V30 4691 C 446.132 -2.29098 -2.77565 0
M  V30 4692 C 445.74 -3.76258 -2.43174 0
M  V30 4693 C 447.484 -2.31936 -3.55536 0
M  V30 4694 C 445.391 -4.6656 -3.63422 0
M  V30 4695 H 444.321 -0.48518 -0.577162 0
M  V30 4696 H 446.972 -1.62101 -0.859981 0
M  V30 4697 H 445.354 -1.90557 -3.47137 0
M  V30 4698 H 446.528 -4.23565 -1.81465 0
M  V30 4699 H 444.843 -3.76246 -1.78403 0
M  V30 4700 H 447.44 -2.9661 -4.44889 0
M  V30 4701 H 447.783 -1.3294 -3.94503 0
M  V30 4702 H 448.316 -2.6912 -2.92949 0
M  V30 4703 H 445.055 -5.66638 -3.29547 0
M  V30 4704 H 444.575 -4.23966 -4.24279 0
M  V30 4705 H 446.254 -4.8309 -4.30387 0
M  V30 4706 N 446.386 1.0089 -1.21074 0
M  V30 4707 C 447.316 2.1145 -0.990523 0
M  V30 4708 C 448.297 1.69897 0.0831699 0
M  V30 4709 O 449.482 1.94052 -0.0758853 0
M  V30 4710 C 446.612 3.42914 -0.550177 0
M  V30 4711 C 445.566 3.98244 -1.56799 0
M  V30 4712 C 444.892 5.25568 -0.984013 0
M  V30 4713 C 446.192 4.30752 -2.95381 0
M  V30 4714 H 447.886 2.3013 -1.91521 0
M  V30 4715 H 445.432 1.10592 -0.92225 0
M  V30 4716 H 447.385 4.19653 -0.383305 0
M  V30 4717 H 446.109 3.24014 0.41015 0
M  V30 4718 H 444.768 3.23621 -1.72236 0
M  V30 4719 H 444.416 5.02998 -0.0155216 0
M  V30 4720 H 444.116 5.63551 -1.66384 0
M  V30 4721 H 445.64 6.04955 -0.828378 0
M  V30 4722 H 447.054 4.98349 -2.8341 0
M  V30 4723 H 445.451 4.79869 -3.60341 0
M  V30 4724 H 446.521 3.39192 -3.46521 0
M  V30 4725 N 447.864 1.01787 1.20321 0
M  V30 4726 C 449.28 0.732951 1.41774 0
M  V30 4727 C 449.48 -0.686883 1.89431 0
M  V30 4728 O 448.536 -1.45446 2.06402 0
M  V30 4729 C 449.849 1.75973 2.43832 0
M  V30 4730 C 451.397 1.77802 2.57596 0
M  V30 4731 C 451.872 2.7941 3.62897 0
M  V30 4732 N 453.363 2.78157 3.70382 0
M  V30 4733 C 454.098 3.53434 4.51521 0
M  V30 4734 N 453.594 4.38392 5.36455 0
M  V30 4735 N 455.387 3.42026 4.46066 0
M  V30 4736 H 447.538 1.93447 0.877035 0
M  V30 4737 H 449.801 0.835712 0.447536 0
M  V30 4738 H 449.507 2.77699 2.15815 0
M  V30 4739 H 449.381 1.57292 3.4284 0
M  V30 4740 H 451.768 0.767602 2.84942 0
M  V30 4741 H 451.849 2.00557 1.58779 0
M  V30 4742 H 451.493 3.80616 3.36295 0
M  V30 4743 H 451.423 2.53916 4.61339 0
M  V30 4744 H 453.914 2.16531 3.09714 0
M  V30 4745 H 454.227 4.92596 5.95457 0
M  V30 4746 H 452.572 4.4247 5.35953 0
M  V30 4747 H 455.763 2.75075 3.78749 0
M  V30 4748 H 455.936 4.00946 5.09064 0
M  V30 4749 N 449.342 -1.36122 0.79427 0
M  V30 4750 C 450.289 -2.29982 0.194101 0
M  V30 4751 C 451.259 -1.52214 -0.664833 0
M  V30 4752 O 452.444 -1.80702 -0.612498 0
M  V30 4753 C 449.584 -3.38706 -0.661244 0
M  V30 4754 C 448.697 -4.31456 0.216766 0
M  V30 4755 C 447.832 -5.27265 -0.645411 0
M  V30 4756 C 446.871 -6.11653 0.233756 0
M  V30 4757 N 446.008 -6.99636 -0.587682 0
M  V30 4758 H 450.848 -2.80722 0.999965 0
M  V30 4759 H 448.385 -1.38172 0.504677 0
M  V30 4760 H 450.343 -4.00394 -1.17219 0
M  V30 4761 H 448.973 -2.89274 -1.43249 0
M  V30 4762 H 448.025 -3.7088 0.845724 0
M  V30 4763 H 449.337 -4.90724 0.893973 0
M  V30 4764 H 448.491 -5.94266 -1.22198 0
M  V30 4765 H 447.23 -4.68463 -1.35623 0
M  V30 4766 H 446.235 -5.4361 0.82269 0
M  V30 4767 H 447.46 -6.72531 0.942247 0
M  V30 4768 H 445.406 -6.43337 -1.2827 0
M  V30 4769 H 445.323 -7.55993 0.0317402 0
M  V30 4770 H 446.591 -7.71001 -1.14792 0
M  V30 4771 N 450.82 -0.546701 -1.47814 0
M  V30 4772 C 451.768 0.220048 -2.31557 0
M  V30 4773 C 452.762 0.919472 -1.42275 0
M  V30 4774 O 453.968 0.841953 -1.59095 0
M  V30 4775 H 450.343 0.0898334 -0.746615 0
M  V30 4776 H 452.314 -0.505589 -2.94086 0
M  V30 4777 C 451.063 1.24353 -3.24702 0
M  V30 4778 H 450.386 0.714758 -3.93359 0
M  V30 4779 H 451.826 1.75112 -3.8615 0
M  V30 4780 C 450.285 2.28593 -2.47481 0
M  V30 4781 O 450.815 3.35334 -2.21165 0
M  V30 4782 N 449.021 2.02244 -2.08676 0
M  V30 4783 H 448.568 1.15455 -2.30278 0
M  V30 4784 H 448.526 2.72207 -1.57323 0
M  V30 4785 N 452.299 1.55045 -0.282633 0
M  V30 4786 C 453.71 1.85473 0.213655 0
M  V30 4787 C 454.061 1.20465 1.54863 0
M  V30 4788 O 453.186 0.495676 2.10647 0
M  V30 4789 C 453.781 3.36496 0.394445 0
M  V30 4790 C 452.34 3.67022 0.834961 0
M  V30 4791 C 451.487 2.77218 -0.0674081 0
M  V30 4792 H 454.438 1.50478 -0.504202 0
M  V30 4793 H 454.459 3.60007 1.23186 0
M  V30 4794 H 453.971 3.83782 -0.577326 0
M  V30 4795 H 452.072 3.25241 1.81794 0
M  V30 4796 H 452.185 4.74433 0.667075 0
M  V30 4797 H 450.549 2.5069 0.450196 0
M  V30 4798 H 451.332 3.2732 -1.0352 0
M  V30 4799 N 453.777 0.010035 1.57597 0
M  V30 4800 C 454.724 -0.978122 2.09049 0
M  V30 4801 C 455.694 -1.33509 0.988159 0
M  V30 4802 O 456.879 -1.43172 1.26121 0
M  V30 4803 C 454.019 -2.26158 2.60666 0
M  V30 4804 C 453.132 -1.96275 3.84838 0
M  V30 4805 C 452.267 -3.18776 4.24918 0
M  V30 4806 C 451.306 -2.84625 5.41899 0
M  V30 4807 N 450.443 -3.99693 5.77226 0
M  V30 4808 H 455.283 -0.532431 2.93205 0
M  V30 4809 H 452.82 -0.251234 1.44939 0
M  V30 4810 H 454.778 -3.01202 2.88675 0
M  V30 4811 H 453.408 -2.68378 1.79369 0
M  V30 4812 H 452.46 -1.11555 3.63675 0
M  V30 4813 H 453.772 -1.67111 4.69974 0
M  V30 4814 H 452.926 -4.02157 4.54262 0
M  V30 4815 H 451.665 -3.51087 3.38511 0
M  V30 4816 H 450.67 -1.99653 5.12268 0
M  V30 4817 H 451.895 -2.53551 6.29991 0
M  V30 4818 H 449.841 -4.31882 4.93776 0
M  V30 4819 H 449.758 -3.74087 6.56959 0
M  V30 4820 H 451.026 -4.83834 6.11167 0
M  V30 4821 N 455.255 -1.55392 -0.262866 0
M  V30 4822 C 456.503 -1.76127 -0.991147 0
M  V30 4823 C 456.824 -0.571083 -1.8645 0
M  V30 4824 O 456.094 0.413698 -1.91482 0
M  V30 4825 H 454.674 -0.649528 -0.368948 0
M  V30 4826 H 457.336 -1.9281 -0.284655 0
M  V30 4827 H 456.432 -2.6663 -1.62219 0
M  V30 4828 N 456.733 0.527833 -1.48498 0
M  V30 4829 C 457.98 1.28354 -1.56625 0
M  V30 4830 C 458.308 1.93 -0.241096 0
M  V30 4831 O 457.563 1.79967 0.768798 0
M  V30 4832 C 457.862 2.39275 -2.65485 0
M  V30 4833 C 457.528 1.92268 -4.07853 0
M  V30 4834 C 456.19 1.79166 -4.46602 0
M  V30 4835 C 458.542 1.56771 -4.97064 0
M  V30 4836 C 455.87 1.28905 -5.72364 0
M  V30 4837 C 458.222 1.07972 -6.23318 0
M  V30 4838 C 456.886 0.934887 -6.60921 0
M  V30 4839 H 456.156 0.469682 -0.573131 0
M  V30 4840 H 458.803 0.588781 -1.82224 0
M  V30 4841 H 457.108 3.1443 -2.33754 0
M  V30 4842 H 458.805 2.974 -2.68988 0
M  V30 4843 H 455.395 2.03417 -3.77252 0
M  V30 4844 H 459.579 1.65753 -4.67803 0
M  V30 4845 H 454.835 1.16381 -6.00221 0
M  V30 4846 H 459.009 0.795775 -6.91838 0
M  V30 4847 H 456.636 0.543231 -7.58257 0
M  V30 4848 N 458.211 1.37122 0.776871 0
M  V30 4849 C 459.458 1.32047 1.53524 0
M  V30 4850 C 459.786 -0.0965631 1.9426 0
M  V30 4851 O 459.041 -1.06866 1.63945 0
M  V30 4852 C 459.34 2.20068 2.81611 0
M  V30 4853 C 459.006 3.68423 2.59953 0
M  V30 4854 C 457.668 4.08854 2.53755 0
M  V30 4855 C 460.02 4.62431 2.40431 0
M  V30 4856 C 457.348 5.41417 2.26018 0
M  V30 4857 C 459.7 5.95225 2.14219 0
M  V30 4858 C 458.364 6.34767 2.06462 0
M  V30 4859 H 457.634 0.483196 0.561785 0
M  V30 4860 H 460.281 1.69284 0.895268 0
M  V30 4861 H 458.586 1.75809 3.50141 0
M  V30 4862 H 460.283 2.13458 3.39465 0
M  V30 4863 H 456.873 3.36354 2.65638 0
M  V30 4864 H 461.057 4.32057 2.44213 0
M  V30 4865 H 456.313 5.71022 2.18504 0
M  V30 4866 H 460.487 6.67626 1.98112 0
M  V30 4867 H 458.114 7.37413 1.84733 0
M  V30 4868 N 459.689 -1.00246 1.21608 0
M  V30 4869 C 460.619 -2.10921 1.00172 0
M  V30 4870 C 461.6 -1.69938 -0.0741587 0
M  V30 4871 O 462.785 -1.94009 0.0861753 0
M  V30 4872 C 459.915 -3.42618 0.568355 0
M  V30 4873 C 458.869 -3.97407 1.58909 0
M  V30 4874 C 458.195 -5.25038 1.01187 0
M  V30 4875 C 459.495 -4.2918 2.97661 0
M  V30 4876 H 461.189 -2.29112 1.92739 0
M  V30 4877 H 458.735 -1.10101 0.928102 0
M  V30 4878 H 460.688 -4.19444 0.405555 0
M  V30 4879 H 459.412 -3.24227 -0.392961 0
M  V30 4880 H 458.071 -3.22703 1.73949 0
M  V30 4881 H 457.719 -5.02982 0.0421965 0
M  V30 4882 H 457.419 -5.62661 1.6937 0
M  V30 4883 H 458.943 -6.04507 0.860448 0
M  V30 4884 H 460.357 -4.96839 2.86049 0
M  V30 4885 H 458.754 -4.77952 3.6288 0
M  V30 4886 H 459.824 -3.3735 3.48315 0
M  V30 4887 N 461.167 -1.02423 -1.1978 0
M  V30 4888 C 462.097 -0.62157 -2.25075 0
M  V30 4889 C 463.078 0.367148 -1.6609 0
M  V30 4890 O 464.263 0.250892 -1.92573 0
M  V30 4891 C 461.393 0.0331826 -3.47284 0
M  V30 4892 C 460.347 -0.877323 -4.18912 0
M  V30 4893 C 459.673 -0.0879296 -5.34628 0
M  V30 4894 C 460.973 -2.18892 -4.74219 0
M  V30 4895 H 462.667 -1.50179 -2.59011 0
M  V30 4896 H 460.213 -0.723547 -1.24502 0
M  V30 4897 H 462.166 0.326488 -4.20133 0
M  V30 4898 H 460.89 0.948164 -3.12534 0
M  V30 4899 H 459.549 -1.15475 -3.47938 0
M  V30 4900 H 459.197 0.828941 -4.96123 0
M  V30 4901 H 458.897 -0.694359 -5.83483 0
M  V30 4902 H 460.421 0.198743 -6.10276 0
M  V30 4903 H 461.835 -1.95746 -5.38847 0
M  V30 4904 H 460.232 -2.74686 -5.33542 0
M  V30 4905 H 461.302 -2.84674 -3.92541 0
M  V30 4906 N 462.645 1.35699 -0.801477 0
M  V30 4907 C 463.891 1.99208 -0.380022 0
M  V30 4908 C 464.224 1.63445 1.04878 0
M  V30 4909 O 463.499 0.895223 1.72673 0
M  V30 4910 C 463.782 3.55755 -0.557708 0
M  V30 4911 C 463.635 4.01332 -2.03107 0
M  V30 4912 C 464.954 4.40096 0.0197968 0
M  V30 4913 H 462.073 0.723667 -0.139552 0
M  V30 4914 H 464.715 1.60928 -1.01006 0
M  V30 4915 H 462.865 3.88494 -0.0213741 0
M  V30 4916 H 464.537 3.79026 -2.62939 0
M  V30 4917 H 462.78 3.52429 -2.52936 0
M  V30 4918 H 463.451 5.10234 -2.1063 0
M  V30 4919 H 465.927 4.13786 -0.438179 0
M  V30 4920 H 464.803 5.48735 -0.134477 0
M  V30 4921 H 465.064 4.2786 1.11303 0
M  V30 4922 N 464.123 0.554532 1.47522 0
M  V30 4923 C 465.033 -0.197865 2.33764 0
M  V30 4924 C 466.049 -0.914576 1.48025 0
M  V30 4925 O 467.225 -0.884067 1.80959 0
M  V30 4926 C 464.29 -1.21628 3.24665 0
M  V30 4927 C 463.351 -0.507283 4.26292 0
M  V30 4928 C 462.584 -1.47718 5.1285 0
M  V30 4929 O 462.807 -2.7118 5.01814 0
M  V30 4930 O 461.741 -1.00313 5.93482 0
M  V30 4931 H 465.567 0.50949 2.99396 0
M  V30 4932 H 463.152 0.315176 1.46038 0
M  V30 4933 H 465.034 -1.80421 3.80823 0
M  V30 4934 H 463.709 -1.9056 2.61665 0
M  V30 4935 H 462.616 0.121778 3.73902 0
M  V30 4936 H 463.949 0.140544 4.91999 0
M  V30 4937 N 465.601 -1.54893 0.290851 0
M  V30 4938 C 466.849 -1.99538 -0.320756 0
M  V30 4939 C 467.17 -1.18075 -1.55188 0
M  V30 4940 O 466.44 -0.274162 -1.93972 0
M  V30 4941 H 465.02 -0.737052 -0.121507 0
M  V30 4942 H 467.682 -1.90755 0.399832 0
M  V30 4943 H 466.778 -3.06282 -0.599802 0
M  V30 4944 N 467.08 -0.0183926 -1.57589 0
M  V30 4945 C 468.328 0.661253 -1.90976 0
M  V30 4946 C 468.649 1.73281 -0.894353 0
M  V30 4947 O 467.919 1.9579 0.0656788 0
M  V30 4948 H 466.499 0.247233 -0.704901 0
M  V30 4949 H 469.161 -0.0636639 -1.94796 0
M  V30 4950 H 468.257 1.12083 -2.9128 0
M  V30 4951 N 468.558 1.5553 0.254621 0
M  V30 4952 C 469.974 1.4778 0.602753 0
M  V30 4953 C 470.174 0.707047 1.88688 0
M  V30 4954 O 469.23 0.233288 2.5142 0
M  V30 4955 C 470.543 2.92133 0.712648 0
M  V30 4956 C 472.091 3.02458 0.805488 0
M  V30 4957 C 472.566 4.48102 0.947009 0
M  V30 4958 N 474.057 4.52008 1.01207 0
M  V30 4959 C 474.792 5.61939 1.1407 0
M  V30 4960 N 474.288 6.81697 1.23536 0
M  V30 4961 N 476.081 5.49719 1.17325 0
M  V30 4962 H 468.232 2.04085 -0.588463 0
M  V30 4963 H 470.495 0.926229 -0.202001 0
M  V30 4964 H 470.201 3.51332 -0.160766 0
M  V30 4965 H 470.075 3.42187 1.58707 0
M  V30 4966 H 472.462 2.43344 1.66936 0
M  V30 4967 H 472.543 2.55627 -0.0939266 0
M  V30 4968 H 472.187 5.07824 0.087725 0
M  V30 4969 H 472.117 4.92607 1.86135 0
M  V30 4970 H 474.608 3.65749 0.950577 0
M  V30 4971 H 474.921 7.61228 1.33236 0
M  V30 4972 H 473.266 6.84473 1.20508 0
M  V30 4973 H 476.457 4.55095 1.09573 0
M  V30 4974 H 476.63 6.35432 1.27005 0
M  V30 4975 N 470.036 -0.519951 1.48776 0
M  V30 4976 C 471.285 -1.27175 1.56555 0
M  V30 4977 C 471.598 -1.9401 0.248869 0
M  V30 4978 O 472.804 -2.70725 0.205004 0
M  V30 4979 C 471.26 -2.30811 2.76142 0
M  V30 4980 C 470.868 -1.7 4.14493 0
M  V30 4981 C 472.612 -3.06937 2.9324 0
M  V30 4982 C 470.519 -2.71635 5.25327 0
M  V30 4983 H 469.449 -0.478329 0.582853 0
M  V30 4984 H 472.1 -0.547916 1.75129 0
M  V30 4985 H 470.482 -3.06274 2.51023 0
M  V30 4986 H 471.656 -1.00658 4.49672 0
M  V30 4987 H 469.971 -1.06331 4.02595 0
M  V30 4988 H 472.568 -3.82905 3.73213 0
M  V30 4989 H 472.911 -3.63409 2.03075 0
M  V30 4990 H 473.444 -2.38589 3.18308 0
M  V30 4991 H 470.183 -2.1997 6.1749 0
M  V30 4992 H 469.703 -3.39275 4.94624 0
M  V30 4993 H 471.382 -3.34429 5.53865 0
M  V30 4994 N 471.514 -1.37532 -0.769588 0
M  V30 4995 C 472.791 -1.23392 -1.51768 0
M  V30 4996 C 473.171 0.17157 -2.10402 0
M  V30 4997 O 472.519 1.17943 -1.95708 0
M  V30 4998 C 472.729 -2.33163 -2.59685 0
M  V30 4999 C 474.077 -2.70809 -3.27028 0
M  V30 5000 O 475.101 -2.32355 -2.69981 0
M  V30 5001 O 473.96 -3.37066 -4.30173 0
M  V30 5002 H 471.054 -0.481617 -0.67229 0
M  V30 5003 H 473.6 -1.49318 -0.806368 0
M  V30 5004 H 472.372 -3.27273 -2.14494 0
M  V30 5005 H 471.995 -2.08713 -3.38415 0
M  V30 5006 N 472.992 0.995999 -1.22138 0
M  V30 5007 C 473.942 2.06988 -0.956042 0
M  V30 5008 C 474.926 1.60636 0.0921576 0
M  V30 5009 O 476.118 1.76607 -0.117958 0
M  V30 5010 C 473.247 3.39148 -0.532335 0
M  V30 5011 C 472.333 3.92142 -1.61509 0
M  V30 5012 N 472.724 4.18397 -2.84214 0
M  V30 5013 C 471.022 4.20514 -1.48606 0
M  V30 5014 C 471.723 4.61425 -3.54206 0
M  V30 5015 N 470.699 4.64934 -2.81669 0
M  V30 5016 H 474.501 2.25223 -1.88816 0
M  V30 5017 H 472.015 1.17748 -1.11845 0
M  V30 5018 H 474.012 4.15642 -0.323574 0
M  V30 5019 H 472.672 3.22314 0.392921 0
M  V30 5020 H 473.683 4.06682 -3.20671 0
M  V30 5021 H 470.36 4.12769 -0.626762 0
M  V30 5022 H 471.75 4.90387 -4.59315 0
M  V30 5023 N 474.47 1.03057 1.19235 0
M  V30 5024 C 475.718 0.726581 1.88587 0
M  V30 5025 C 476.039 -0.747227 1.80115 0
M  V30 5026 O 475.309 -1.53849 1.21274 0
M  V30 5027 H 473.889 0.265768 0.698124 0
M  V30 5028 H 476.551 1.30516 1.44746 0
M  V30 5029 H 475.647 1.0224 2.94879 0
M  V30 5030 N 475.948 -1.35272 0.808662 0
M  V30 5031 C 476.898 -2.27181 0.193124 0
M  V30 5032 C 477.882 -1.47871 -0.634265 0
M  V30 5033 O 479.074 -1.70048 -0.491182 0
M  V30 5034 C 476.203 -3.36979 -0.655751 0
M  V30 5035 C 475.289 -4.23712 0.181481 0
M  V30 5036 N 475.68 -4.90225 1.24551 0
M  V30 5037 C 473.978 -4.45985 -0.0365493 0
M  V30 5038 C 474.679 -5.54537 1.75682 0
M  V30 5039 N 473.655 -5.33107 1.06294 0
M  V30 5040 H 477.457 -2.76101 1.00724 0
M  V30 5041 H 474.971 -1.48823 0.650029 0
M  V30 5042 H 476.968 -4.01774 -1.11279 0
M  V30 5043 H 475.628 -2.89611 -1.46819 0
M  V30 5044 H 476.639 -4.91641 1.62818 0
M  V30 5045 H 473.316 -4.09409 -0.817964 0
M  V30 5046 H 474.706 -6.17597 2.64621 0
M  V30 5047 N 477.426 -0.562348 -1.47226 0
M  V30 5048 C 478.376 0.202967 -2.27095 0
M  V30 5049 C 479.36 0.880611 -1.34663 0
M  V30 5050 O 480.552 0.778069 -1.58981 0
M  V30 5051 C 477.681 1.22906 -3.20545 0
M  V30 5052 C 476.767 0.554566 -4.20459 0
M  V30 5053 N 477.158 -0.378295 -5.04383 0
M  V30 5054 C 475.456 0.807854 -4.38623 0
M  V30 5055 C 476.157 -0.770583 -5.76573 0
M  V30 5056 N 475.133 -0.124263 -5.43458 0
M  V30 5057 H 478.935 -0.514196 -2.89367 0
M  V30 5058 H 476.449 -0.382655 -1.57827 0
M  V30 5059 H 478.446 1.79134 -3.76453 0
M  V30 5060 H 477.106 1.94726 -2.59831 0
M  V30 5061 H 478.117 -0.75274 -5.124 0
M  V30 5062 H 474.794 1.51418 -3.89075 0
M  V30 5063 H 476.184 -1.53742 -6.54074 0
M  V30 5064 N 478.904 1.54736 -0.299062 0
M  V30 5065 C 479.814 2.27127 0.587413 0
M  V30 5066 C 480.83 1.30575 1.15005 0
M  V30 5067 O 482.006 1.63554 1.17525 0
M  V30 5068 C 479.071 2.99645 1.74395 0
M  V30 5069 C 478.132 4.11731 1.21559 0
M  V30 5070 C 477.365 4.80781 2.317 0
M  V30 5071 O 477.588 4.4918 3.51558 0
M  V30 5072 O 476.522 5.68226 1.98501 0
M  V30 5073 H 480.348 3.037 0.000250109 0
M  V30 5074 H 477.933 1.49256 -0.0655919 0
M  V30 5075 H 479.815 3.45138 2.4178 0
M  V30 5076 H 478.49 2.25969 2.31775 0
M  V30 5077 H 477.397 3.70641 0.507514 0
M  V30 5078 H 478.73 4.87379 0.687233 0
M  V30 5079 N 480.382 0.0267497 1.57577 0
M  V30 5080 C 481.63 -0.651116 1.91324 0
M  V30 5081 C 481.951 -1.72804 0.90353 0
M  V30 5082 O 481.221 -1.95822 -0.0552946 0
M  V30 5083 H 479.801 -0.243491 0.706202 0
M  V30 5084 H 482.463 0.0739935 1.94759 0
M  V30 5085 H 481.559 -1.10536 2.9187 0
M  V30 5086 N 481.861 -1.55662 -0.24637 0
M  V30 5087 C 482.808 -1.90361 -1.30504 0
M  V30 5088 C 483.778 -0.757905 -1.47801 0
M  V30 5089 O 484.963 -1.01161 -1.61775 0
M  V30 5090 C 482.103 -2.2042 -2.65535 0
M  V30 5091 C 481.216 -3.47799 -2.56242 0
M  V30 5092 C 480.351 -3.67426 -3.8363 0
M  V30 5093 C 479.39 -4.88403 -3.68956 0
M  V30 5094 N 478.527 -5.04548 -4.88237 0
M  V30 5095 H 483.367 -2.80645 -1.00213 0
M  V30 5096 H 480.904 -1.38924 -0.483577 0
M  V30 5097 H 482.862 -2.35853 -3.44135 0
M  V30 5098 H 481.492 -1.3334 -2.93973 0
M  V30 5099 H 480.544 -3.40694 -1.69208 0
M  V30 5100 H 481.856 -4.36544 -2.4131 0
M  V30 5101 H 481.01 -3.82821 -4.70673 0
M  V30 5102 H 479.749 -2.76914 -4.01459 0
M  V30 5103 H 478.754 -4.72984 -2.80296 0
M  V30 5104 H 479.979 -5.80375 -3.52621 0
M  V30 5105 H 477.925 -4.16974 -5.06427 0
M  V30 5106 H 477.842 -5.87384 -4.75937 0
M  V30 5107 H 479.11 -5.24355 -5.76777 0
M  V30 5108 N 483.339 0.512053 -1.4905 0
M  V30 5109 C 484.302 1.59704 -1.64399 0
M  V30 5110 C 485.302 1.52285 -0.516317 0
M  V30 5111 O 486.492 1.55635 -0.782527 0
M  V30 5112 C 483.624 2.9935 -1.63102 0
M  V30 5113 H 484.817 1.47428 -2.61161 0
M  V30 5114 H 482.37 0.735469 -1.37915 0
M  V30 5115 H 483.105 3.17116 -0.678836 0
M  V30 5116 H 482.89 3.06144 -2.44986 0
M  V30 5117 H 484.38 3.782 -1.77072 0
M  V30 5118 N 484.817 1.37938 0.762283 0
M  V30 5119 C 485.764 1.34467 1.87583 0
M  V30 5120 C 486.734 0.208633 1.64785 0
M  V30 5121 O 487.919 0.399494 1.86571 0
M  V30 5122 C 485.059 1.16692 3.24772 0
M  V30 5123 C 484.172 2.39608 3.59461 0
M  V30 5124 C 483.307 2.14631 4.85908 0
M  V30 5125 C 482.346 3.33364 5.13357 0
M  V30 5126 N 481.483 3.07877 6.30996 0
M  V30 5127 H 486.323 2.29669 1.89885 0
M  V30 5128 H 483.86 1.14116 0.928219 0
M  V30 5129 H 485.818 1.04405 4.03925 0
M  V30 5130 H 484.448 0.251333 3.2182 0
M  V30 5131 H 483.5 2.626 2.75219 0
M  V30 5132 H 484.812 3.28128 3.75678 0
M  V30 5133 H 483.966 1.99429 5.72986 0
M  V30 5134 H 482.705 1.23463 4.71814 0
M  V30 5135 H 481.71 3.49094 4.24751 0
M  V30 5136 H 482.935 4.25395 5.29354 0
M  V30 5137 H 480.881 2.19348 6.18241 0
M  V30 5138 H 480.798 3.89944 6.47673 0
M  V30 5139 H 482.066 2.96313 7.20985 0
M  V30 5140 N 486.295 -0.989507 1.22664 0
M  V30 5141 C 487.227 -2.0824 0.957542 0
M  V30 5142 C 488.24 -1.6267 -0.0651098 0
M  V30 5143 O 489.429 -1.77695 0.169312 0
M  V30 5144 C 486.529 -3.36298 0.419145 0
M  V30 5145 C 485.702 -4.10882 1.49982 0
M  V30 5146 C 484.761 -5.17221 0.967904 0
M  V30 5147 O 483.787 -5.44613 1.65487 0
M  V30 5148 N 484.989 -5.80124 -0.20896 0
M  V30 5149 H 487.754 -2.31904 1.89843 0
M  V30 5150 H 485.315 -1.15552 1.13399 0
M  V30 5151 H 487.307 -4.04671 0.0485451 0
M  V30 5152 H 485.877 -3.09671 -0.426937 0
M  V30 5153 H 485.097 -3.37092 2.04359 0
M  V30 5154 H 486.385 -4.57482 2.22682 0
M  V30 5155 H 485.783 -5.60244 -0.783818 0
M  V30 5156 H 484.34 -6.49715 -0.520913 0
M  V30 5157 N 487.773 -1.03688 -1.18687 0
M  V30 5158 C 488.736 -0.629115 -2.20397 0
M  V30 5159 C 489.736 0.311495 -1.57754 0
M  V30 5160 O 490.926 0.0974107 -1.73927 0
M  V30 5161 C 488.058 0.0782231 -3.4081 0
M  V30 5162 H 489.251 -1.52915 -2.57987 0
M  V30 5163 H 486.804 -0.828988 -1.32505 0
M  V30 5164 H 487.539 0.992233 -3.08748 0
M  V30 5165 H 487.324 -0.597776 -3.87517 0
M  V30 5166 H 488.814 0.350156 -4.16129 0
M  V30 5167 N 489.251 1.34841 -0.815825 0
M  V30 5168 C 490.181 2.32187 -0.247298 0
M  V30 5169 C 491.162 1.5791 0.632344 0
M  V30 5170 O 492.347 1.8593 0.560698 0
M  V30 5171 C 489.477 3.42122 0.597466 0
M  V30 5172 C 488.431 4.27602 -0.184446 0
M  V30 5173 C 487.757 5.28942 0.782609 0
M  V30 5174 C 489.057 5.03502 -1.38865 0
M  V30 5175 H 490.751 2.79985 -1.06061 0
M  V30 5176 H 488.297 1.34611 -0.511461 0
M  V30 5177 H 490.25 4.09232 1.00533 0
M  V30 5178 H 488.974 2.92956 1.44376 0
M  V30 5179 H 487.633 3.62085 -0.573592 0
M  V30 5180 H 487.281 4.7604 1.62466 0
M  V30 5181 H 486.981 5.87008 0.263695 0
M  V30 5182 H 488.505 5.98922 1.18848 0
M  V30 5183 H 489.919 5.63506 -1.05518 0
M  V30 5184 H 488.316 5.71108 -1.8427 0
M  V30 5185 H 489.386 4.33608 -2.17054 0
M  V30 5186 N 490.729 0.570148 1.46925 0
M  V30 5187 C 491.679 -0.190921 2.27199 0
M  V30 5188 C 492.663 -0.873457 1.35128 0
M  V30 5189 O 493.855 -0.769627 1.59392 0
M  V30 5190 C 490.984 -1.21204 3.21192 0
M  V30 5191 C 490.07 -0.532261 4.20747 0
M  V30 5192 N 490.461 0.405038 5.04176 0
M  V30 5193 C 488.759 -0.784582 4.39045 0
M  V30 5194 C 489.46 0.801149 5.76157 0
M  V30 5195 N 488.436 0.153082 5.43384 0
M  V30 5196 H 492.238 0.529535 2.8909 0
M  V30 5197 H 489.752 0.391019 1.57622 0
M  V30 5198 H 491.749 -1.77135 3.77398 0
M  V30 5199 H 490.409 -1.93345 2.6086 0
M  V30 5200 H 491.42 0.779903 5.11994 0
M  V30 5201 H 488.097 -1.49352 3.89872 0
M  V30 5202 H 489.487 1.57208 6.5325 0
M  V30 5203 N 492.207 -1.54576 0.307264 0
M  V30 5204 C 493.117 -2.27435 -0.57536 0
M  V30 5205 C 494.133 -1.31183 -1.14311 0
M  V30 5206 O 495.309 -1.64175 -1.16656 0
M  V30 5207 C 492.374 -3.00566 -1.72803 0
M  V30 5208 C 491.435 -4.12369 -1.19373 0
M  V30 5209 C 490.668 -4.82003 -2.29147 0
M  V30 5210 O 490.891 -4.51038 -3.49171 0
M  V30 5211 O 489.825 -5.69271 -1.95485 0
M  V30 5212 H 493.651 -3.03696 0.0158558 0
M  V30 5213 H 491.236 -1.49219 0.0735064 0
M  V30 5214 H 493.118 -3.46416 -2.39946 0
M  V30 5215 H 491.793 -2.27195 -2.30574 0
M  V30 5216 H 490.7 -3.70905 -0.487851 0
M  V30 5217 H 492.033 -4.87736 -0.661376 0
M  V30 5218 N 493.685 -0.035106 -1.57561 0
M  V30 5219 C 494.648 0.929819 -2.09492 0
M  V30 5220 C 495.648 1.25026 -1.01119 0
M  V30 5221 O 496.838 1.18961 -1.27255 0
M  V30 5222 C 493.97 2.24457 -2.56577 0
M  V30 5223 H 495.163 0.479935 -2.96035 0
M  V30 5224 H 492.716 0.213033 -1.54841 0
M  V30 5225 H 493.451 2.74061 -1.73382 0
M  V30 5226 H 493.236 2.02508 -3.35757 0
M  V30 5227 H 494.726 2.93607 -2.96959 0
M  V30 5228 N 495.163 1.55791 0.238111 0
M  V30 5229 C 496.409 1.78297 0.966337 0
M  V30 5230 C 496.742 0.601903 1.84637 0
M  V30 5231 O 496.017 -0.399499 1.90353 0
M  V30 5232 C 496.3 3.10758 1.81939 0
M  V30 5233 C 496.153 4.39283 0.966958 0
M  V30 5234 C 497.472 3.39519 2.80027 0
M  V30 5235 H 494.591 0.648654 0.349882 0
M  V30 5236 H 497.233 1.88525 0.236253 0
M  V30 5237 H 495.383 3.02168 2.44185 0
M  V30 5238 H 497.055 4.59873 0.362514 0
M  V30 5239 H 495.298 4.32948 0.271669 0
M  V30 5240 H 495.969 5.28368 1.59784 0
M  V30 5241 H 498.445 3.48128 2.27917 0
M  V30 5242 H 497.321 4.33402 3.36829 0
M  V30 5243 H 497.582 2.60864 3.56934 0
M  V30 5244 N 496.642 -0.504142 1.49319 0
M  V30 5245 C 497.552 -1.63248 1.68486 0
M  V30 5246 C 498.568 -1.64488 0.567432 0
M  V30 5247 O 499.744 -1.82966 0.841749 0
M  V30 5248 C 496.809 -2.99627 1.74426 0
M  V30 5249 C 495.87 -3.09039 2.97982 0
M  V30 5250 C 495.103 -4.38913 3.0363 0
M  V30 5251 O 495.326 -5.27528 2.16958 0
M  V30 5252 O 494.26 -4.53231 3.96062 0
M  V30 5253 H 498.086 -1.50008 2.64067 0
M  V30 5254 H 495.671 -0.680086 1.33023 0
M  V30 5255 H 497.553 -3.80689 1.80705 0
M  V30 5256 H 496.228 -3.13136 0.820233 0
M  V30 5257 H 495.135 -2.27177 2.97223 0
M  V30 5258 H 496.468 -3.00456 3.89855 0
M  V30 5259 N 498.12 -1.38341 -0.754957 0
M  V30 5260 C 499.053 -1.29837 -1.87663 0
M  V30 5261 C 500.031 -0.175659 -1.61648 0
M  V30 5262 O 501.215 -0.352745 -1.8517 0
M  V30 5263 C 498.342 -1.01141 -3.23246 0
M  V30 5264 C 497.388 -2.15331 -3.6815 0
M  V30 5265 S 498.221 -3.77459 -3.79849 0
M  V30 5266 C 499.377 -3.50948 -5.18253 0
M  V30 5267 H 499.61 -2.24771 -1.9459 0
M  V30 5268 H 497.143 -1.24161 -0.917796 0
M  V30 5269 H 499.101 -0.852687 -4.01546 0
M  V30 5270 H 497.762 -0.0792784 -3.14 0
M  V30 5271 H 496.955 -1.90795 -4.6649 0
M  V30 5272 H 496.557 -2.27304 -2.97 0
M  V30 5273 H 498.849 -3.06977 -6.03963 0
M  V30 5274 H 499.792 -4.48677 -5.47809 0
M  V30 5275 H 500.2 -2.85492 -4.86985 0
M  V30 5276 N 499.598 0.982988 -1.23187 0
M  V30 5277 C 500.875 1.69814 -0.970707 0
M  V30 5278 C 501.255 2.04811 0.511424 0
M  V30 5279 O 500.603 1.73924 1.48198 0
M  V30 5280 C 500.813 2.94143 -1.87831 0
M  V30 5281 C 502.161 3.66712 -2.14026 0
M  V30 5282 O 503.185 3.04171 -1.8536 0
M  V30 5283 O 502.044 4.79258 -2.62629 0
M  V30 5284 H 499.138 0.741659 -0.365884 0
M  V30 5285 H 501.684 1.03844 -1.34218 0
M  V30 5286 H 500.456 2.64858 -2.88038 0
M  V30 5287 H 500.079 3.6785 -1.50905 0
M  V30 5288 N 501.076 1.04316 1.18135 0
M  V30 5289 C 502.492 0.762858 1.40188 0
M  V30 5290 C 502.692 -0.646547 1.90846 0
M  V30 5291 O 501.748 -1.41036 2.0944 0
M  V30 5292 C 503.061 1.81106 2.40044 0
M  V30 5293 C 504.609 1.83226 2.53766 0
M  V30 5294 C 505.084 2.87044 3.56889 0
M  V30 5295 N 506.575 2.85951 3.64398 0
M  V30 5296 C 507.31 3.62932 4.43923 0
M  V30 5297 N 506.806 4.49672 5.27036 0
M  V30 5298 N 508.599 3.51411 4.38711 0
M  V30 5299 H 500.75 1.95264 0.835805 0
M  V30 5300 H 503.013 0.845017 0.429709 0
M  V30 5301 H 502.719 2.82214 2.09876 0
M  V30 5302 H 502.593 1.64529 3.39426 0
M  V30 5303 H 504.98 0.827869 2.8325 0
M  V30 5304 H 505.061 2.03879 1.54489 0
M  V30 5305 H 504.705 3.87663 3.28145 0
M  V30 5306 H 504.635 2.63645 4.5585 0
M  V30 5307 H 507.126 2.23051 3.05052 0
M  V30 5308 H 507.439 5.05116 5.84874 0
M  V30 5309 H 505.784 4.53738 5.26447 0
M  V30 5310 H 508.975 2.83047 3.72829 0
M  V30 5311 H 509.148 4.11654 5.00445 0
M  V30 5312 N 502.554 -1.34406 0.822964 0
M  V30 5313 C 503.517 -2.2783 0.250271 0
M  V30 5314 C 504.517 -1.50288 -0.571854 0
M  V30 5315 O 505.707 -1.69825 -0.387952 0
M  V30 5316 C 502.839 -3.34663 -0.649137 0
M  V30 5317 H 504.032 -2.79992 1.07444 0
M  V30 5318 H 501.585 -1.44539 0.594829 0
M  V30 5319 H 502.32 -2.87714 -1.49637 0
M  V30 5320 H 502.105 -3.92052 -0.0611199 0
M  V30 5321 H 503.595 -4.04349 -1.04363 0
M  V30 5322 N 504.032 -0.577932 -1.46621 0
M  V30 5323 C 505.281 -0.0594281 -2.01612 0
M  V30 5324 C 505.594 1.30663 -1.45556 0
M  V30 5325 O 506.8 1.91621 -1.92337 0
M  V30 5326 C 505.256 -0.0556666 -3.59857 0
M  V30 5327 C 504.864 -1.41975 -4.24908 0
M  V30 5328 C 506.608 0.409143 -4.22524 0
M  V30 5329 C 504.515 -1.37397 -5.75218 0
M  V30 5330 H 503.445 -0.0184469 -0.753774 0
M  V30 5331 H 506.096 -0.728869 -1.68404 0
M  V30 5332 H 504.478 0.679843 -3.90121 0
M  V30 5333 H 505.652 -2.17461 -4.0626 0
M  V30 5334 H 503.967 -1.82419 -3.74316 0
M  V30 5335 H 506.564 0.46211 -5.32699 0
M  V30 5336 H 506.907 1.42565 -3.91128 0
M  V30 5337 H 507.44 -0.272152 -3.96868 0
M  V30 5338 H 504.179 -2.36714 -6.11267 0
M  V30 5339 H 503.699 -0.661239 -5.96144 0
M  V30 5340 H 505.378 -1.08484 -6.3784 0
M  V30 5341 N 505.51 1.54411 -0.315457 0
M  V30 5342 C 506.758 2.00023 0.288971 0
M  V30 5343 C 507.079 1.20529 1.5329 0
M  V30 5344 O 506.349 0.304986 1.93511 0
M  V30 5345 H 504.929 0.738891 0.109766 0
M  V30 5346 H 507.591 1.90094 -0.430129 0
M  V30 5347 H 506.687 3.07198 0.550999 0
M  V30 5348 N 506.988 0.0434614 1.5754 0
M  V30 5349 C 507.92 -0.962586 2.08007 0
M  V30 5350 C 508.933 -1.27972 1.00634 0
M  V30 5351 O 510.122 -1.24186 1.28219 0
M  V30 5352 C 507.222 -2.28621 2.50171 0
M  V30 5353 C 506.395 -2.15214 3.80791 0
M  V30 5354 C 505.454 -3.30633 4.09351 0
M  V30 5355 O 504.48 -3.0688 4.79388 0
M  V30 5356 N 505.682 -4.54873 3.60654 0
M  V30 5357 H 508.447 -0.531891 2.94942 0
M  V30 5358 H 506.008 -0.142965 1.61268 0
M  V30 5359 H 508 -3.04689 2.66359 0
M  V30 5360 H 506.57 -2.63283 1.68525 0
M  V30 5361 H 505.79 -1.23785 3.74261 0
M  V30 5362 H 507.078 -2.03475 4.66343 0
M  V30 5363 H 506.476 -4.77063 3.04019 0
M  V30 5364 H 505.033 -5.2806 3.82094 0
M  V30 5365 N 508.466 -1.55915 -0.229846 0
M  V30 5366 C 509.429 -1.90914 -1.26824 0
M  V30 5367 C 510.429 -0.786999 -1.40225 0
M  V30 5368 O 511.619 -1.05484 -1.38632 0
M  V30 5369 C 508.751 -2.15264 -2.64337 0
M  V30 5370 H 509.944 -2.8378 -0.969998 0
M  V30 5371 H 507.497 -1.49069 -0.4699 0
M  V30 5372 H 508.232 -1.24923 -2.99274 0
M  V30 5373 H 508.017 -2.97005 -2.55989 0
M  V30 5374 H 509.507 -2.43467 -3.39284 0
M  V30 5375 N 509.944 0.496216 -1.49584 0
M  V30 5376 C 511.192 1.24756 -1.58998 0
M  V30 5377 C 511.513 1.92968 -0.280775 0
M  V30 5378 O 510.783 1.82959 0.700198 0
M  V30 5379 H 509.363 0.463471 -0.585836 0
M  V30 5380 H 512.025 0.574678 -1.86235 0
M  V30 5381 H 511.121 2.00895 -2.38847 0
M  V30 5382 N 511.423 1.38739 0.74761 0
M  V30 5383 C 512.648 1.38702 1.54197 0
M  V30 5384 C 513.073 -0.019664 1.8809 0
M  V30 5385 O 512.431 -1.00333 1.51006 0
M  V30 5386 C 512.479 2.25492 2.814 0
M  V30 5387 O 511.583 1.67613 3.76802 0
M  V30 5388 H 510.924 0.472863 0.466151 0
M  V30 5389 H 513.454 1.82577 0.923413 0
M  V30 5390 H 513.464 2.39561 3.30264 0
M  V30 5391 H 512.139 3.27727 2.56062 0
M  V30 5392 H 510.716 1.62718 3.35526 0
M  V30 5393 N 512.901 -0.976442 1.23707 0
M  V30 5394 C 513.831 -2.08749 1.04624 0
M  V30 5395 C 514.812 -1.70057 -0.0380956 0
M  V30 5396 O 515.997 -1.93782 0.127308 0
M  V30 5397 C 513.127 -3.41335 0.640902 0
M  V30 5398 C 512.081 -3.93947 1.67302 0
M  V30 5399 C 511.407 -5.22774 1.12301 0
M  V30 5400 C 512.707 -4.22769 3.06697 0
M  V30 5401 H 514.401 -2.24972 1.97555 0
M  V30 5402 H 511.947 -1.08108 0.951247 0
M  V30 5403 H 513.9 -4.18489 0.494434 0
M  V30 5404 H 512.624 -3.24988 -0.324099 0
M  V30 5405 H 511.283 -3.18941 1.80755 0
M  V30 5406 H 510.931 -5.0278 0.148877 0
M  V30 5407 H 510.631 -5.58942 1.81267 0
M  V30 5408 H 512.155 -6.02546 0.988479 0
M  V30 5409 H 513.569 -4.90659 2.96524 0
M  V30 5410 H 511.966 -4.70147 3.72937 0
M  V30 5411 H 513.036 -3.29885 3.55392 0
M  V30 5412 N 514.379 -1.04941 -1.1758 0
M  V30 5413 C 515.607 -0.778294 -1.91703 0
M  V30 5414 C 516.022 0.665697 -1.76675 0
M  V30 5415 O 515.379 1.45456 -1.10222 0
M  V30 5416 C 515.43 -1.14628 -3.42845 0
M  V30 5417 O 515.151 -2.53359 -3.57409 0
M  V30 5418 C 516.652 -0.900931 -4.34049 0
M  V30 5419 H 513.872 -0.283167 -0.608323 0
M  V30 5420 H 516.416 -1.39942 -1.49119 0
M  V30 5421 H 514.571 -0.569953 -3.83184 0
M  V30 5422 H 514.985 -2.67709 -4.51035 0
M  V30 5423 H 516.459 -1.20817 -5.38616 0
M  V30 5424 H 516.936 0.163966 -4.38894 0
M  V30 5425 H 517.542 -1.46097 -3.99419 0
M  V30 5426 N 515.857 1.33968 -0.830081 0
M  V30 5427 C 517.082 2.02813 -0.433796 0
M  V30 5428 C 517.507 1.62076 0.954614 0
M  V30 5429 O 516.865 0.808955 1.62252 0
M  V30 5430 C 516.913 3.56348 -0.552115 0
M  V30 5431 O 516.017 4.10202 0.425191 0
M  V30 5432 H 515.358 0.639817 -0.177567 0
M  V30 5433 H 517.888 1.7106 -1.12248 0
M  V30 5434 H 517.898 4.05722 -0.430513 0
M  V30 5435 H 516.573 3.85344 -1.56471 0
M  V30 5436 H 515.15 3.71979 0.261878 0
M  V30 5437 N 517.335 0.585699 1.46312 0
M  V30 5438 C 518.56 0.0762461 2.0726 0
M  V30 5439 C 518.985 -1.22071 1.43109 0
M  V30 5440 O 518.343 -1.73804 0.515942 0
M  V30 5441 C 518.391 -0.0729404 3.60526 0
M  V30 5442 O 517.495 -1.1287 3.96654 0
M  V30 5443 H 516.836 0.0641558 0.660893 0
M  V30 5444 H 519.366 0.809492 1.87905 0
M  V30 5445 H 519.376 -0.278158 4.07051 0
M  V30 5446 H 518.051 0.874188 4.06609 0
M  V30 5447 H 516.628 -0.901703 3.61834 0
M  V30 5448 N 518.813 -1.54241 0.323641 0
M  V30 5449 C 519.723 -2.28033 -0.551205 0
M  V30 5450 C 520.739 -1.32388 -1.12913 0
M  V30 5451 O 521.915 -1.65403 -1.14908 0
M  V30 5452 C 518.98 -3.02382 -1.69606 0
M  V30 5453 C 518.041 -4.13612 -1.14993 0
M  V30 5454 C 517.274 -4.84407 -2.24022 0
M  V30 5455 O 517.497 -4.54716 -3.44368 0
M  V30 5456 O 516.431 -5.71312 -1.89436 0
M  V30 5457 H 520.257 -3.03662 0.048066 0
M  V30 5458 H 517.842 -1.49133 0.0893289 0
M  V30 5459 H 519.724 -3.48941 -2.36259 0
M  V30 5460 H 518.399 -2.29628 -2.28151 0
M  V30 5461 H 517.306 -3.71402 -0.448484 0
M  V30 5462 H 518.639 -4.8841 -0.609608 0
M  V30 5463 N 520.291 -0.0518155 -1.57515 0
M  V30 5464 C 521.568 0.661727 -1.84067 0
M  V30 5465 C 521.948 1.88999 -0.940351 0
M  V30 5466 O 521.296 2.285 -0.00155404 0
M  V30 5467 C 521.506 1.01841 -3.3381 0
M  V30 5468 C 522.854 1.40043 -4.00841 0
M  V30 5469 O 523.878 1.11073 -3.38439 0
M  V30 5470 O 522.737 1.94111 -5.10865 0
M  V30 5471 H 519.831 0.326702 -0.759733 0
M  V30 5472 H 522.377 -0.0812277 -1.69505 0
M  V30 5473 H 521.149 0.145202 -3.91031 0
M  V30 5474 H 520.772 1.81879 -3.53562 0
M  V30 5475 N 521.769 1.56035 0.221574 0
M  V30 5476 C 522.997 1.8313 0.962864 0
M  V30 5477 C 523.412 0.630934 1.77946 0
M  V30 5478 O 522.769 -0.400519 1.78051 0
M  V30 5479 C 522.82 3.08742 1.88045 0
M  V30 5480 O 522.541 4.24147 1.09686 0
M  V30 5481 C 524.042 3.48824 2.73563 0
M  V30 5482 H 521.262 0.608775 0.282194 0
M  V30 5483 H 523.806 2.03124 0.23681 0
M  V30 5484 H 521.961 2.90723 2.56045 0
M  V30 5485 H 522.375 4.95505 1.71974 0
M  V30 5486 H 523.849 4.39752 3.3365 0
M  V30 5487 H 524.326 2.70575 3.45956 0
M  V30 5488 H 524.932 3.69282 2.10976 0
M  V30 5489 N 523.247 -0.488276 1.49845 0
M  V30 5490 C 524.177 -1.59675 1.70371 0
M  V30 5491 C 525.158 -1.60878 0.552473 0
M  V30 5492 O 526.343 -1.77417 0.78973 0
M  V30 5493 C 523.473 -2.98098 1.782 0
M  V30 5494 C 522.427 -3.11761 2.93239 0
M  V30 5495 C 521.753 -4.51661 2.86193 0
M  V30 5496 C 523.053 -2.90589 4.33999 0
M  V30 5497 H 524.747 -1.42752 2.63177 0
M  V30 5498 H 522.293 -0.685317 1.26647 0
M  V30 5499 H 524.246 -3.75555 1.91144 0
M  V30 5500 H 522.97 -3.16138 0.820018 0
M  V30 5501 H 521.629 -2.36732 2.79917 0
M  V30 5502 H 521.277 -4.66595 1.87877 0
M  V30 5503 H 520.977 -4.61742 3.63412 0
M  V30 5504 H 522.501 -5.31162 3.01163 0
M  V30 5505 H 523.915 -3.57807 4.47936 0
M  V30 5506 H 522.312 -3.1213 5.12538 0
M  V30 5507 H 523.382 -1.86595 4.4756 0
M  V30 5508 N 524.725 -1.39134 -0.740242 0
M  V30 5509 C 525.953 -1.39334 -1.5295 0
M  V30 5510 C 526.368 0.0135008 -1.88795 0
M  V30 5511 O 525.725 0.983524 -1.5373 0
M  V30 5512 C 525.776 -2.2614 -2.82034 0
M  V30 5513 O 525.497 -3.61345 -2.47712 0
M  V30 5514 C 526.998 -2.34666 -3.76094 0
M  V30 5515 H 524.218 -0.476103 -0.472828 0
M  V30 5516 H 526.762 -1.82883 -0.9151 0
M  V30 5517 H 524.917 -1.86018 -3.39818 0
M  V30 5518 H 525.331 -4.07194 -3.30595 0
M  V30 5519 H 526.805 -2.99663 -4.63579 0
M  V30 5520 H 527.282 -1.36426 -4.17474 0
M  V30 5521 H 527.888 -2.75236 -3.2423 0
M  V30 5522 N 526.204 0.969867 -1.24223 0
M  V30 5523 C 527.45 1.7151 -1.08223 0
M  V30 5524 C 527.783 1.90478 0.37838 0
M  V30 5525 O 527.058 1.4647 1.27971 0
M  V30 5526 C 527.341 3.10714 -1.82013 0
M  V30 5527 C 527.194 2.9925 -3.35811 0
M  V30 5528 C 528.513 4.10332 -1.59108 0
M  V30 5529 H 525.632 0.622499 -0.394543 0
M  V30 5530 H 528.274 1.1284 -1.52863 0
M  V30 5531 H 526.424 3.608 -1.44068 0
M  V30 5532 H 528.096 2.56608 -3.83341 0
M  V30 5533 H 526.339 2.35512 -3.64303 0
M  V30 5534 H 527.01 3.97857 -3.82641 0
M  V30 5535 H 529.486 3.69097 -1.92111 0
M  V30 5536 H 528.362 5.05804 -2.13198 0
M  V30 5537 H 528.623 4.38926 -0.528832 0
M  V30 5538 N 527.682 1.05563 1.17022 0
M  V30 5539 C 528.928 0.769074 1.87652 0
M  V30 5540 C 529.261 -0.702326 1.81055 0
M  V30 5541 O 528.536 -1.5139 1.22112 0
M  V30 5542 C 528.819 1.25492 3.37526 0
M  V30 5543 C 528.672 2.78953 3.52853 0
M  V30 5544 C 529.991 0.856919 4.31677 0
M  V30 5545 H 527.11 0.280854 0.681388 0
M  V30 5546 H 529.752 1.31027 1.37593 0
M  V30 5547 H 527.902 0.794516 3.80289 0
M  V30 5548 H 529.574 3.33146 3.19079 0
M  V30 5549 H 527.817 3.18046 2.95007 0
M  V30 5550 H 528.488 3.08011 4.58076 0
M  V30 5551 H 530.964 1.25334 3.96775 0
M  V30 5552 H 529.84 1.22443 5.35069 0
M  V30 5553 H 530.101 -0.238787 4.41455 0
M  V30 5554 N 529.16 -1.33526 0.837174 0
M  V30 5555 C 530.388 -2.02047 0.445494 0
M  V30 5556 C 530.803 -1.62995 -0.952788 0
M  V30 5557 O 530.16 -0.842447 -1.61892 0
M  V30 5558 C 530.211 -3.57221 0.554577 0
M  V30 5559 O 529.932 -3.94863 1.89776 0
M  V30 5560 C 531.433 -4.43012 0.159634 0
M  V30 5561 H 528.653 -0.647221 0.177048 0
M  V30 5562 H 531.197 -1.70492 1.12928 0
M  V30 5563 H 529.352 -3.87315 -0.0812781 0
M  V30 5564 H 529.766 -4.89569 1.88208 0
M  V30 5565 H 531.24 -5.51253 0.28701 0
M  V30 5566 H 531.717 -4.29916 -0.898289 0
M  V30 5567 H 532.323 -4.18274 0.769855 0
M  V30 5568 N 530.638 -0.59345 -1.46 0
M  V30 5569 C 531.601 0.123538 -2.28867 0
M  V30 5570 C 532.601 0.808628 -1.38989 0
M  V30 5571 O 533.791 0.658945 -1.61256 0
M  V30 5572 C 530.923 1.1847 -3.19653 0
M  V30 5573 H 532.116 -0.604843 -2.93737 0
M  V30 5574 H 529.669 -0.351875 -1.52288 0
M  V30 5575 H 530.404 1.94431 -2.59552 0
M  V30 5576 H 530.189 0.69783 -3.8584 0
M  V30 5577 H 531.679 1.68726 -3.81997 0
M  V30 5578 N 532.116 1.54067 -0.331816 0
M  V30 5579 C 533.393 1.92915 0.322955 0
M  V30 5580 C 533.773 1.26225 1.69205 0
M  V30 5581 O 533.121 0.408919 2.24811 0
M  V30 5582 C 533.331 3.46619 0.406946 0
M  V30 5583 C 534.679 4.19386 0.663339 0
M  V30 5584 O 535.703 3.5282 0.489536 0
M  V30 5585 O 534.562 5.37288 0.999193 0
M  V30 5586 H 531.656 0.805808 0.186016 0
M  V30 5587 H 534.202 1.65342 -0.382135 0
M  V30 5588 H 532.974 3.87354 -0.554287 0
M  V30 5589 H 532.597 3.80324 1.15929 0
M  V30 5590 N 533.594 0.0601682 1.57485 0
M  V30 5591 C 534.544 -0.920969 2.08572 0
M  V30 5592 C 535.528 -1.26617 0.992827 0
M  V30 5593 O 536.72 -1.24708 1.25606 0
M  V30 5594 C 533.849 -2.19267 2.64153 0
M  V30 5595 C 532.935 -1.87447 3.80427 0
M  V30 5596 N 533.326 -1.26025 4.89848 0
M  V30 5597 C 531.624 -2.17265 3.89502 0
M  V30 5598 C 532.325 -1.12036 5.70809 0
M  V30 5599 N 531.301 -1.62624 5.18705 0
M  V30 5600 H 535.103 -0.441561 2.90564 0
M  V30 5601 H 532.617 -0.144043 1.6176 0
M  V30 5602 H 534.614 -2.90462 2.99061 0
M  V30 5603 H 533.274 -2.67806 1.83603 0
M  V30 5604 H 534.285 -0.931336 5.09457 0
M  V30 5605 H 530.962 -2.68262 3.19909 0
M  V30 5606 H 532.352 -0.642783 6.68818 0
M  V30 5607 N 535.072 -1.5615 -0.213296 0
M  V30 5608 C 536.297 -1.83986 -0.957282 0
M  V30 5609 C 536.722 -0.641526 -1.76822 0
M  V30 5610 O 536.08 0.409722 -1.7661 0
M  V30 5611 C 536.128 -3.09889 -1.84393 0
M  V30 5612 O 535.232 -2.89163 -2.94038 0
M  V30 5613 H 534.573 -0.606357 -0.270605 0
M  V30 5614 H 537.103 -2.03369 -0.224111 0
M  V30 5615 H 537.113 -3.40209 -2.25215 0
M  V30 5616 H 535.788 -3.96735 -1.24795 0
M  V30 5617 H 534.365 -2.70097 -2.57103 0
M  V30 5618 N 536.55 0.480323 -1.50102 0
M  V30 5619 C 537.5 1.57685 -1.6468 0
M  V30 5620 C 538.484 1.52878 -0.5017 0
M  V30 5621 O 539.676 1.60058 -0.755668 0
M  V30 5622 C 536.805 2.96185 -1.73578 0
M  V30 5623 C 535.891 3.0591 -2.93734 0
M  V30 5624 N 536.282 2.85471 -4.1754 0
M  V30 5625 C 534.58 3.37036 -2.92101 0
M  V30 5626 C 535.281 2.99921 -4.9842 0
M  V30 5627 N 534.257 3.29715 -4.32191 0
M  V30 5628 H 538.059 1.40568 -2.58104 0
M  V30 5629 H 535.573 0.686874 -1.47159 0
M  V30 5630 H 537.57 3.75015 -1.82124 0
M  V30 5631 H 536.23 3.14356 -0.813057 0
M  V30 5632 H 537.241 2.61235 -4.47188 0
M  V30 5633 H 533.918 3.61253 -2.09291 0
M  V30 5634 H 535.308 2.88436 -6.06839 0
M  V30 5635 N 538.028 1.39524 0.732853 0
M  V30 5636 C 539.274 1.37068 1.49467 0
M  V30 5637 C 539.607 -0.0327166 1.94172 0
M  V30 5638 O 538.882 -0.998071 1.66939 0
M  V30 5639 C 539.165 2.34494 2.73285 0
M  V30 5640 C 539.018 3.83784 2.34585 0
M  V30 5641 C 540.337 2.29717 3.75391 0
M  V30 5642 H 537.456 0.499206 0.542183 0
M  V30 5643 H 540.098 1.70532 0.837783 0
M  V30 5644 H 538.248 2.06087 3.29333 0
M  V30 5645 H 539.92 4.22949 1.84151 0
M  V30 5646 H 538.163 4.00455 1.66787 0
M  V30 5647 H 538.834 4.47444 3.23262 0
M  V30 5648 H 541.31 2.54839 3.28932 0
M  V30 5649 H 540.186 2.99962 4.59689 0
M  V30 5650 H 540.447 1.30291 4.22465 0
M  V30 5651 N 539.506 -0.963266 1.24736 0
M  V30 5652 C 540.753 -1.7068 1.0897 0
M  V30 5653 C 541.081 -1.90934 -0.370751 0
M  V30 5654 O 540.336 -1.47155 -1.29011 0
M  V30 5655 C 540.635 -3.09944 1.7796 0
M  V30 5656 C 540.301 -3.09518 3.27887 0
M  V30 5657 C 538.963 -3.09109 3.68789 0
M  V30 5658 C 541.315 -3.03509 4.23712 0
M  V30 5659 C 538.643 -3.00429 5.03944 0
M  V30 5660 C 540.995 -2.96371 5.5888 0
M  V30 5661 C 539.659 -2.94293 5.99123 0
M  V30 5662 H 538.929 -0.624564 0.398749 0
M  V30 5663 H 541.576 -1.12603 1.54896 0
M  V30 5664 H 539.881 -3.71513 1.2444 0
M  V30 5665 H 541.578 -3.66278 1.63222 0
M  V30 5666 H 538.168 -3.10603 2.95337 0
M  V30 5667 H 542.352 -3.0295 3.93109 0
M  V30 5668 H 537.608 -2.97183 5.34314 0
M  V30 5669 H 541.782 -2.90681 6.32833 0
M  V30 5670 H 539.409 -2.87322 7.03811 0
M  V30 5671 N 540.985 -1.06182 -1.16461 0
M  V30 5672 C 542.213 -0.798583 -1.90867 0
M  V30 5673 C 542.628 0.646921 -1.77371 0
M  V30 5674 O 541.985 1.44279 -1.11758 0
M  V30 5675 C 542.036 -1.18258 -3.4161 0
M  V30 5676 O 541.757 -2.57135 -3.54701 0
M  V30 5677 C 543.258 -0.946917 -4.33069 0
M  V30 5678 H 540.478 -0.289603 -0.605286 0
M  V30 5679 H 543.022 -1.41515 -1.47627 0
M  V30 5680 H 541.177 -0.610562 -3.82558 0
M  V30 5681 H 541.591 -2.72477 -4.4817 0
M  V30 5682 H 543.065 -1.26523 -5.37304 0
M  V30 5683 H 543.542 0.117406 -4.39043 0
M  V30 5684 H 544.148 -1.50326 -3.97847 0
M  V30 5685 N 542.463 1.3308 -0.844243 0
M  V30 5686 C 543.71 1.97605 -0.44255 0
M  V30 5687 C 544.038 1.66856 0.999458 0
M  V30 5688 O 543.293 0.943586 1.7145 0
M  V30 5689 C 543.592 3.52045 -0.616354 0
M  V30 5690 C 543.258 4.02757 -2.02726 0
M  V30 5691 C 541.92 4.16316 -2.41317 0
M  V30 5692 C 544.272 4.29776 -2.9486 0
M  V30 5693 C 541.6 4.54232 -3.71335 0
M  V30 5694 C 543.952 4.69146 -4.24364 0
M  V30 5695 C 542.616 4.80911 -4.62904 0
M  V30 5696 H 541.886 0.723088 -0.161941 0
M  V30 5697 H 544.533 1.58663 -1.0723 0
M  V30 5698 H 542.838 3.91681 0.0966812 0
M  V30 5699 H 544.535 3.99981 -0.285756 0
M  V30 5700 H 541.125 3.9268 -1.71756 0
M  V30 5701 H 545.309 4.18818 -2.6628 0
M  V30 5702 H 540.565 4.61535 -4.00993 0
M  V30 5703 H 544.739 4.89008 -4.95827 0
M  V30 5704 H 542.366 5.10048 -5.63698 0
M  V30 5705 N 543.941 0.601185 1.45683 0
M  V30 5706 C 545.189 0.0936957 2.01883 0
M  V30 5707 C 545.51 -1.2779 1.47291 0
M  V30 5708 O 544.78 -1.84279 0.664691 0
M  V30 5709 H 543.36 0.0316466 0.746329 0
M  V30 5710 H 546.022 0.781137 1.78562 0
M  V30 5711 H 545.118 0.0386297 3.12076 0
M  V30 5712 N 545.419 -1.53889 0.339982 0
M  V30 5713 C 546.667 -2.00458 -0.257112 0
M  V30 5714 C 546.988 -1.22953 -1.51353 0
M  V30 5715 O 546.258 -0.335734 -1.93002 0
M  V30 5716 H 544.838 -0.740544 -0.0979965 0
M  V30 5717 H 547.5 -1.89386 0.460317 0
M  V30 5718 H 546.596 -3.08035 -0.502057 0
M  V30 5719 N 546.897 -0.0685191 -1.57451 0
M  V30 5720 C 548.127 0.609577 -1.97402 0
M  V30 5721 C 548.535 1.63882 -0.945489 0
M  V30 5722 O 547.878 1.8354 0.0766052 0
M  V30 5723 C 547.94 1.3385 -3.33653 0
M  V30 5724 C 547.604 0.463103 -4.54648 0
M  V30 5725 C 548.601 -0.277964 -5.19156 0
M  V30 5726 C 546.286 0.388941 -5.00792 0
M  V30 5727 C 548.28 -1.08145 -6.28159 0
M  V30 5728 C 545.967 -0.418217 -6.09667 0
M  V30 5729 C 546.965 -1.15208 -6.73213 0
M  V30 5730 O 546.653 -1.94594 -7.79993 0
M  V30 5731 H 546.385 0.170197 -0.654224 0
M  V30 5732 H 548.939 -0.13647 -2.04946 0
M  V30 5733 H 547.169 2.13055 -3.22714 0
M  V30 5734 H 548.858 1.90851 -3.58233 0
M  V30 5735 H 549.624 -0.230241 -4.84453 0
M  V30 5736 H 545.503 0.949769 -4.5111 0
M  V30 5737 H 549.047 -1.65476 -6.7769 0
M  V30 5738 H 544.944 -0.467515 -6.43805 0
M  V30 5739 H 545.712 -1.8699 -7.96854 0
M  V30 5740 N 548.375 1.56261 0.205012 0
M  V30 5741 C 549.603 1.84141 0.943386 0
M  V30 5742 C 550.018 0.649772 1.77266 0
M  V30 5743 O 549.375 -0.381612 1.78466 0
M  V30 5744 C 549.426 3.10719 1.84759 0
M  V30 5745 O 549.147 4.25286 1.05181 0
M  V30 5746 C 550.648 3.51706 2.69848 0
M  V30 5747 H 547.868 0.611734 0.275721 0
M  V30 5748 H 550.412 2.03364 0.215253 0
M  V30 5749 H 548.567 2.93422 2.52947 0
M  V30 5750 H 548.981 4.97301 1.66709 0
M  V30 5751 H 550.455 4.43266 3.28967 0
M  V30 5752 H 550.932 2.7423 3.43067 0
M  V30 5753 H 551.538 3.71499 2.07047 0
M  V30 5754 N 549.853 -0.472356 1.50355 0
M  V30 5755 C 551.264 -1.05326 1.54154 0
M  V30 5756 C 551.615 -1.93155 0.344303 0
M  V30 5757 O 550.74 -2.09479 -0.542928 0
M  V30 5758 C 551.335 -1.91691 2.79356 0
M  V30 5759 C 549.894 -2.44892 2.8584 0
M  V30 5760 C 549.041 -1.23205 2.48426 0
M  V30 5761 H 551.992 -0.255027 1.56637 0
M  V30 5762 H 552.013 -2.76742 2.6114 0
M  V30 5763 H 551.525 -1.27741 3.66475 0
M  V30 5764 H 549.626 -3.12399 2.0307 0
M  V30 5765 H 549.739 -2.80086 3.88701 0
M  V30 5766 H 548.103 -1.56643 2.00836 0
M  V30 5767 H 548.886 -0.609194 3.37852 0
M  V30 5768 N 551.331 -1.39911 -0.725443 0
M  V30 5769 C 552.747 -1.21725 -1.03224 0
M  V30 5770 C 552.947 -0.0855224 -2.01318 0
M  V30 5771 O 552.003 0.55976 -2.46217 0
M  V30 5772 C 553.316 -2.55511 -1.58539 0
M  V30 5773 C 554.864 -2.62439 -1.70572 0
M  V30 5774 C 555.339 -3.9647 -2.29294 0
M  V30 5775 N 556.83 -3.98159 -2.36692 0
M  V30 5776 C 557.565 -4.98647 -2.83088 0
M  V30 5777 N 557.061 -6.0953 -3.2931 0
M  V30 5778 N 558.854 -4.8602 -2.82384 0
M  V30 5779 H 551.005 -2.12267 -0.075048 0
M  V30 5780 H 553.268 -0.943136 -0.0959066 0
M  V30 5781 H 552.974 -3.38926 -0.939249 0
M  V30 5782 H 552.848 -2.75905 -2.57208 0
M  V30 5783 H 555.235 -1.79401 -2.34306 0
M  V30 5784 H 555.316 -2.45885 -0.705297 0
M  V30 5785 H 554.96 -4.79942 -1.66186 0
M  V30 5786 H 554.89 -4.10349 -3.30032 0
M  V30 5787 H 557.381 -3.18085 -2.04035 0
M  V30 5788 H 557.694 -6.82106 -3.6325 0
M  V30 5789 H 556.039 -6.1311 -3.27294 0
M  V30 5790 H 559.23 -3.98493 -2.45603 0
M  V30 5791 H 559.403 -5.64478 -3.18226 0
M  V30 5792 N 552.809 0.956637 -1.25245 0
M  V30 5793 C 554.057 1.69764 -1.09657 0
M  V30 5794 C 554.378 1.91583 0.363464 0
M  V30 5795 O 553.648 1.50149 1.25825 0
M  V30 5796 H 552.228 0.629097 -0.402798 0
M  V30 5797 H 554.89 1.15026 -1.57337 0
M  V30 5798 H 553.986 2.67769 -1.60331 0
M  V30 5799 N 554.287 1.06798 1.15896 0
M  V30 5800 C 555.235 0.677525 2.22514 0
M  V30 5801 C 556.229 -0.308994 1.66558 0
M  V30 5802 O 557.435 -0.173308 1.79164 0
M  V30 5803 H 553.81 0.200994 0.724642 0
M  V30 5804 H 555.781 1.5865 2.52731 0
M  V30 5805 C 554.53 0.0854153 3.47595 0
M  V30 5806 H 553.853 0.835645 3.90969 0
M  V30 5807 H 555.293 -0.150199 4.23734 0
M  V30 5808 C 553.752 -1.1724 3.15843 0
M  V30 5809 O 554.282 -2.25965 3.32119 0
M  V30 5810 N 552.488 -1.07636 2.69931 0
M  V30 5811 H 552.035 -0.191559 2.56887 0
M  V30 5812 H 551.993 -1.91876 2.4906 0
M  V30 5813 N 555.766 -1.3263 0.851289 0
M  V30 5814 C 556.991 -2.02097 0.466006 0
M  V30 5815 C 557.416 -1.63574 -0.928709 0
M  V30 5816 O 556.774 -0.834665 -1.60944 0
M  V30 5817 C 556.822 -3.55425 0.608737 0
M  V30 5818 O 555.926 -4.10827 -0.359878 0
M  V30 5819 H 555.267 -0.636911 0.187724 0
M  V30 5820 H 557.797 -1.69253 1.14955 0
M  V30 5821 H 557.807 -4.04986 0.495006 0
M  V30 5822 H 556.482 -3.82806 1.62581 0
M  V30 5823 H 555.059 -3.72349 -0.202666 0
M  V30 5824 N 557.244 -0.608902 -1.45362 0
M  V30 5825 C 558.493 -0.10218 -2.01441 0
M  V30 5826 C 558.806 1.27546 -1.48295 0
M  V30 5827 O 560.012 1.87498 -1.96359 0
M  V30 5828 C 558.468 -0.131985 -3.59658 0
M  V30 5829 C 558.076 -1.50956 -4.21801 0
M  V30 5830 C 559.82 0.319427 -4.23296 0
M  V30 5831 C 557.727 -1.49568 -5.72174 0
M  V30 5832 H 556.657 -0.0344314 -0.753213 0
M  V30 5833 H 559.308 -0.764426 -1.6682 0
M  V30 5834 H 557.69 0.596939 -3.91475 0
M  V30 5835 H 558.864 -2.26029 -4.01556 0
M  V30 5836 H 557.179 -1.90318 -3.70362 0
M  V30 5837 H 559.776 0.349013 -5.3356 0
M  V30 5838 H 560.119 1.34237 -3.94064 0
M  V30 5839 H 560.652 -0.356273 -3.96201 0
M  V30 5840 H 557.391 -2.49626 -6.06108 0
M  V30 5841 H 556.911 -0.787542 -5.94607 0
M  V30 5842 H 558.59 -1.21989 -6.35396 0
M  V30 5843 N 558.722 1.53707 -0.348139 0
M  V30 5844 C 559.969 2.00988 0.246966 0
M  V30 5845 C 560.297 1.23586 1.50189 0
M  V30 5846 O 559.552 0.312817 1.93184 0
M  V30 5847 C 559.851 3.52292 0.602061 0
M  V30 5848 C 559.517 4.47453 -0.556509 0
M  V30 5849 C 558.179 4.73188 -0.874446 0
M  V30 5850 C 560.531 5.03851 -1.33354 0
M  V30 5851 C 557.859 5.52577 -1.9717 0
M  V30 5852 C 560.211 5.84437 -2.42108 0
M  V30 5853 C 558.875 6.08465 -2.74456 0
M  V30 5854 H 558.145 0.735469 0.0903712 0
M  V30 5855 H 560.792 1.85464 -0.477001 0
M  V30 5856 H 559.097 3.65672 1.40681 0
M  V30 5857 H 560.794 3.86337 1.07447 0
M  V30 5858 H 557.384 4.27558 -0.298652 0
M  V30 5859 H 561.568 4.8393 -1.10117 0
M  V30 5860 H 556.824 5.69418 -2.22651 0
M  V30 5861 H 560.998 6.27151 -3.02745 0
M  V30 5862 H 558.625 6.69768 -3.59604 0
M  V30 5863 N 560.2 0.0768682 1.57412 0
M  V30 5864 C 561.448 -0.589918 1.93299 0
M  V30 5865 C 561.769 -1.69842 0.958049 0
M  V30 5866 O 561.039 -1.95899 0.00703261 0
M  V30 5867 H 559.619 -0.220901 0.713591 0
M  V30 5868 H 562.281 0.135917 1.94425 0
M  V30 5869 H 561.377 -1.01195 2.95239 0
M  V30 5870 N 561.678 -1.56367 -0.196722 0
M  V30 5871 C 562.608 -1.97442 -1.24655 0
M  V30 5872 C 563.589 -0.846147 -1.47561 0
M  V30 5873 O 564.774 -1.11035 -1.59326 0
M  V30 5874 C 561.904 -2.31253 -2.59112 0
M  V30 5875 C 560.858 -3.46804 -2.50821 0
M  V30 5876 C 560.184 -3.66286 -3.89536 0
M  V30 5877 C 561.484 -4.8104 -2.03465 0
M  V30 5878 H 563.178 -2.85388 -0.905216 0
M  V30 5879 H 560.724 -1.37304 -0.434002 0
M  V30 5880 H 562.677 -2.58583 -3.32736 0
M  V30 5881 H 561.401 -1.40188 -2.94983 0
M  V30 5882 H 560.06 -3.19563 -1.79653 0
M  V30 5883 H 559.708 -2.72555 -4.22756 0
M  V30 5884 H 559.408 -4.4402 -3.84864 0
M  V30 5885 H 560.932 -3.9599 -4.64784 0
M  V30 5886 H 562.346 -5.07411 -2.66846 0
M  V30 5887 H 560.743 -5.62232 -2.09798 0
M  V30 5888 H 561.813 -4.74732 -0.98781 0
M  V30 5889 N 563.156 0.464375 -1.50603 0
M  V30 5890 C 564.119 1.54393 -1.69397 0
M  V30 5891 C 565.119 1.50566 -0.564504 0
M  V30 5892 O 566.309 1.53066 -0.831645 0
M  V30 5893 C 563.441 2.9401 -1.72543 0
M  V30 5894 H 564.634 1.39044 -2.65719 0
M  V30 5895 H 562.187 0.69122 -1.40185 0
M  V30 5896 H 562.922 3.14795 -0.77938 0
M  V30 5897 H 562.707 2.98195 -2.54602 0
M  V30 5898 H 564.197 3.72375 -1.89015 0
M  V30 5899 N 564.634 1.40294 0.718013 0
M  V30 5900 C 566.045 1.34289 1.29705 0
M  V30 5901 C 566.396 0.0152228 1.96194 0
M  V30 5902 O 565.521 -0.88682 1.97394 0
M  V30 5903 C 566.116 2.43219 2.3586 0
M  V30 5904 C 564.675 2.40682 2.89394 0
M  V30 5905 C 563.822 2.24223 1.63154 0
M  V30 5906 H 566.773 1.50135 0.514312 0
M  V30 5907 H 566.794 2.10986 3.16647 0
M  V30 5908 H 566.306 3.39836 1.87439 0
M  V30 5909 H 564.407 1.47756 3.42051 0
M  V30 5910 H 564.52 3.36177 3.41353 0
M  V30 5911 H 562.884 1.71696 1.88129 0
M  V30 5912 H 563.667 3.22834 1.16761 0
M  V30 5913 N 566.112 -0.949982 1.2575 0
M  V30 5914 C 567.045 -2.047 1.00862 0
M  V30 5915 C 568.023 -1.62475 -0.0636982 0
M  V30 5916 O 569.207 -1.88343 0.0769153 0
M  V30 5917 C 566.334 -3.34597 0.525613 0
M  V30 5918 C 565.38 -3.95788 1.58916 0
M  V30 5919 S 566.213 -4.31175 3.17567 0
M  V30 5920 C 567.369 -5.64183 2.71013 0
M  V30 5921 H 567.602 -2.25497 1.93749 0
M  V30 5922 H 565.135 -1.09022 1.09332 0
M  V30 5923 H 567.093 -4.09716 0.25359 0
M  V30 5924 H 565.754 -3.11758 -0.382828 0
M  V30 5925 H 564.947 -4.89457 1.20201 0
M  V30 5926 H 564.549 -3.27168 1.81211 0
M  V30 5927 H 566.841 -6.42504 2.14928 0
M  V30 5928 H 567.784 -6.07774 3.6334 0
M  V30 5929 H 568.192 -5.2364 2.1086 0
M  V30 5930 N 567.59 -1.07411 -1.15328 0
M  V30 5931 C 568.52 -0.716472 -2.22236 0
M  V30 5932 C 569.501 0.296373 -1.67498 0
M  V30 5933 O 570.686 0.168989 -1.93463 0
M  V30 5934 C 567.816 -0.114142 -3.47112 0
M  V30 5935 C 566.77 -1.05421 -4.14814 0
M  V30 5936 C 566.096 -0.314604 -5.33774 0
M  V30 5937 C 567.396 -2.38808 -4.64508 0
M  V30 5938 H 569.09 -1.61029 -2.52408 0
M  V30 5939 H 566.636 -0.775702 -1.21321 0
M  V30 5940 H 568.589 0.148001 -4.2114 0
M  V30 5941 H 567.313 0.814755 -3.16274 0
M  V30 5942 H 565.972 -1.30128 -3.42728 0
M  V30 5943 H 565.62 0.617772 -4.99192 0
M  V30 5944 H 565.32 -0.941209 -5.80013 0
M  V30 5945 H 566.844 -0.0602747 -6.1057 0
M  V30 5946 H 568.258 -2.18424 -5.3006 0
M  V30 5947 H 566.655 -2.97069 -5.21412 0
M  V30 5948 H 567.725 -3.01067 -3.80114 0
M  V30 5949 N 569.068 1.32177 -0.85831 0
M  V30 5950 C 570.293 2.01847 -0.476718 0
M  V30 5951 C 570.718 1.64065 0.920021 0
M  V30 5952 O 570.076 0.843189 1.60499 0
M  V30 5953 C 570.124 3.55097 -0.627578 0
M  V30 5954 O 569.228 4.11012 0.338086 0
M  V30 5955 H 568.569 0.635907 -0.191099 0
M  V30 5956 H 571.099 1.68641 -1.15851 0
M  V30 5957 H 571.109 4.04718 -0.516476 0
M  V30 5958 H 569.784 3.81938 -1.64609 0
M  V30 5959 H 568.361 3.72451 0.182917 0
M  V30 5960 N 570.547 0.616602 1.45037 0
M  V30 5961 C 571.824 0.0469086 1.95544 0
M  V30 5962 C 572.204 -1.42345 1.55888 0
M  V30 5963 O 571.552 -2.13055 0.825824 0
M  V30 5964 C 571.762 0.254489 3.48071 0
M  V30 5965 C 573.11 0.140025 4.24369 0
M  V30 5966 O 574.134 0.185084 3.55719 0
M  V30 5967 O 572.993 0.0327034 5.4649 0
M  V30 5968 H 570.087 -0.0306051 0.826433 0
M  V30 5969 H 572.633 0.687293 1.55159 0
M  V30 5970 H 571.405 1.27532 3.69934 0
M  V30 5971 H 571.028 -0.42073 3.95368 0
M  V30 5972 N 572.025 -1.5352 0.356285 0
M  V30 5973 C 573.253 -2.05534 -0.237328 0
M  V30 5974 C 573.668 -1.23043 -1.43199 0
M  V30 5975 O 573.025 -0.268821 -1.80509 0
M  V30 5976 C 573.076 -3.55791 -0.639933 0
M  V30 5977 O 572.797 -4.35154 0.507233 0
M  V30 5978 C 574.298 -4.24027 -1.29292 0
M  V30 5979 H 571.518 -0.669585 -0.0435572 0
M  V30 5980 H 574.062 -1.97988 0.511963 0
M  V30 5981 H 572.217 -3.63518 -1.33915 0
M  V30 5982 H 572.631 -5.24178 0.18375 0
M  V30 5983 H 574.105 -5.30509 -1.52527 0
M  V30 5984 H 574.582 -3.77166 -2.25039 0
M  V30 5985 H 575.188 -4.20527 -0.63539 0
M  V30 5986 N 573.503 -0.0852151 -1.57369 0
M  V30 5987 C 574.78 0.622534 -1.85429 0
M  V30 5988 C 575.16 1.86962 -0.980229 0
M  V30 5989 O 574.508 2.28445 -0.0500219 0
M  V30 5990 C 574.718 0.947374 -3.35896 0
M  V30 5991 C 576.066 1.31509 -4.03721 0
M  V30 5992 O 577.09 1.03869 -3.40719 0
M  V30 5993 O 575.949 1.83231 -5.14868 0
M  V30 5994 H 573.043 0.310513 -0.766492 0
M  V30 5995 H 575.589 -0.117164 -1.69295 0
M  V30 5996 H 574.361 0.0622264 -3.91251 0
M  V30 5997 H 573.984 1.74338 -3.5734 0
M  V30 5998 N 574.981 1.5647 0.188427 0
M  V30 5999 C 575.928 1.95073 1.23349 0
M  V30 6000 C 576.898 0.812238 1.44886 0
M  V30 6001 O 578.083 1.07095 1.57909 0
M  V30 6002 C 575.223 2.30124 2.57171 0
M  V30 6003 C 574.336 3.57069 2.43157 0
M  V30 6004 C 573.471 3.81411 3.69729 0
M  V30 6005 C 572.51 5.0176 3.50575 0
M  V30 6006 N 571.647 5.22321 4.69175 0
M  V30 6007 H 576.487 2.84171 0.89728 0
M  V30 6008 H 574.024 1.40623 0.431683 0
M  V30 6009 H 575.982 2.48463 3.35145 0
M  V30 6010 H 574.612 1.44159 2.88822 0
M  V30 6011 H 573.664 3.4674 1.56447 0
M  V30 6012 H 574.976 4.452 2.24942 0
M  V30 6013 H 574.13 4.00026 4.56141 0
M  V30 6014 H 572.869 2.91624 3.90905 0
M  V30 6015 H 571.874 4.83061 2.62549 0
M  V30 6016 H 573.099 5.93063 3.30837 0
M  V30 6017 H 571.045 4.35483 4.90602 0
M  V30 6018 H 570.962 6.04643 4.53809 0
M  V30 6019 H 572.23 5.45401 5.56919 0
M  V30 6020 N 576.459 -0.456382 1.50847 0
M  V30 6021 C 577.406 -1.55249 1.70782 0
M  V30 6022 C 578.376 -1.56757 0.549231 0
M  V30 6023 O 579.561 -1.74061 0.7815 0
M  V30 6024 C 576.701 -2.93118 1.82143 0
M  V30 6025 C 575.814 -3.01285 3.09598 0
M  V30 6026 C 574.949 -4.30159 3.11667 0
M  V30 6027 C 573.988 -4.32124 4.33515 0
M  V30 6028 N 573.125 -5.52492 4.3324 0
M  V30 6029 H 577.965 -1.37555 2.64353 0
M  V30 6030 H 575.502 -0.668543 1.3103 0
M  V30 6031 H 577.46 -3.73088 1.86711 0
M  V30 6032 H 576.09 -3.09413 0.919978 0
M  V30 6033 H 575.142 -2.14096 3.14431 0
M  V30 6034 H 576.454 -2.98597 3.99551 0
M  V30 6035 H 575.608 -5.18489 3.15046 0
M  V30 6036 H 574.347 -4.35477 2.1957 0
M  V30 6037 H 573.352 -3.42189 4.30333 0
M  V30 6038 H 574.577 -4.28485 5.26856 0
M  V30 6039 H 572.523 -5.58567 3.44004 0
M  V30 6040 H 572.44 -5.51605 5.16979 0
M  V30 6041 H 573.708 -6.42906 4.40786 0
M  V30 6042 N 577.937 -1.40673 -0.710563 0
M  V30 6043 C 579.348 -1.34975 -1.28991 0
M  V30 6044 C 579.699 -0.0256272 -1.96183 0
M  V30 6045 O 578.824 0.876339 -1.97862 0
M  V30 6046 C 579.419 -2.44467 -2.34567 0
M  V30 6047 C 577.978 -2.42213 -2.88114 0
M  V30 6048 C 577.125 -2.25085 -1.61963 0
M  V30 6049 H 580.076 -1.50406 -0.506343 0
M  V30 6050 H 580.097 -2.12663 -3.15523 0
M  V30 6051 H 579.609 -3.40825 -1.85634 0
M  V30 6052 H 577.71 -1.49568 -3.41263 0
M  V30 6053 H 577.823 -3.37983 -3.39565 0
M  V30 6054 H 576.187 -1.72691 -1.87216 0
M  V30 6055 H 576.97 -3.23449 -1.15047 0
M  V30 6056 N 579.415 0.9433 -1.26252 0
M  V30 6057 C 580.662 1.68925 -1.11672 0
M  V30 6058 C 580.99 1.91499 0.340329 0
M  V30 6059 O 580.245 1.49189 1.26653 0
M  V30 6060 C 580.544 3.07073 -1.82868 0
M  V30 6061 C 580.21 3.04262 -3.32769 0
M  V30 6062 C 578.872 3.03203 -3.7366 0
M  V30 6063 C 581.224 2.96729 -4.28487 0
M  V30 6064 C 578.552 2.92373 -5.0866 0
M  V30 6065 C 580.904 2.87442 -5.63525 0
M  V30 6066 C 579.568 2.84724 -6.03729 0
M  V30 6067 H 578.838 0.618141 -0.408635 0
M  V30 6068 H 581.485 1.10124 -1.56668 0
M  V30 6069 H 579.79 3.69486 -1.30335 0
M  V30 6070 H 581.487 3.63635 -1.69029 0
M  V30 6071 H 578.077 3.05865 -3.00241 0
M  V30 6072 H 582.261 2.96658 -3.97879 0
M  V30 6073 H 577.517 2.88645 -5.38975 0
M  V30 6074 H 581.691 2.80576 -6.37377 0
M  V30 6075 H 579.318 2.76089 -7.08293 0
M  V30 6076 N 580.893 1.08022 1.14757 0
M  V30 6077 C 582.121 0.828847 1.89572 0
M  V30 6078 C 582.536 -0.618621 1.78377 0
M  V30 6079 O 581.893 -1.42482 1.1404 0
M  V30 6080 C 581.944 1.23677 3.39685 0
M  V30 6081 O 581.665 2.62746 3.50566 0
M  V30 6082 C 583.166 1.01569 4.31507 0
M  V30 6083 H 580.386 0.299196 0.600602 0
M  V30 6084 H 582.93 1.43846 1.45357 0
M  V30 6085 H 581.085 0.671347 3.81539 0
M  V30 6086 H 581.499 2.79573 4.43778 0
M  V30 6087 H 582.973 1.35055 5.35223 0
M  V30 6088 H 583.45 -0.0475433 4.39174 0
M  V30 6089 H 584.056 1.56636 3.95405 0
M  V30 6090 N 582.371 -1.3172 0.865308 0
M  V30 6091 C 583.334 -2.26918 0.322627 0
M  V30 6092 C 584.334 -1.52031 -0.523751 0
M  V30 6093 O 585.524 -1.70973 -0.333727 0
M  V30 6094 C 582.656 -3.36558 -0.542338 0
M  V30 6095 H 583.849 -2.76432 1.16298 0
M  V30 6096 H 581.402 -1.42573 0.640512 0
M  V30 6097 H 582.137 -2.92329 -1.40407 0
M  V30 6098 H 581.922 -3.92048 0.0636395 0
M  V30 6099 H 583.412 -4.07465 -0.91446 0
M  V30 6100 N 583.85 -0.624285 -1.44708 0
M  V30 6101 C 585.099 -0.123539 -2.01321 0
M  V30 6102 C 585.412 1.25966 -1.49639 0
M  V30 6103 O 586.618 1.85405 -1.98336 0
M  V30 6104 C 585.074 -0.170124 -3.59498 0
M  V30 6105 C 584.682 -1.55421 -4.20176 0
M  V30 6106 C 586.426 0.274513 -4.23611 0
M  V30 6107 C 584.332 -1.55628 -5.70556 0
M  V30 6108 H 583.263 -0.0424183 -0.752806 0
M  V30 6109 H 585.913 -0.782076 -1.65999 0
M  V30 6110 H 584.296 0.555385 -3.92086 0
M  V30 6111 H 585.47 -2.30276 -3.99136 0
M  V30 6112 H 583.784 -1.94235 -3.68323 0
M  V30 6113 H 586.382 0.292402 -5.339 0
M  V30 6114 H 586.725 1.3005 -3.95465 0
M  V30 6115 H 587.258 -0.398275 -3.95801 0
M  V30 6116 H 583.997 -2.56041 -6.03426 0
M  V30 6117 H 583.517 -0.850563 -5.93739 0
M  V30 6118 H 585.196 -1.28721 -6.34066 0
M  V30 6119 N 585.328 1.53329 -0.364422 0
M  V30 6120 C 586.258 2.28627 0.474543 0
M  V30 6121 C 587.239 1.31009 1.08492 0
M  V30 6122 O 588.424 1.59878 1.10239 0
M  V30 6123 C 585.554 3.07465 1.61501 0
M  V30 6124 C 584.508 4.1276 1.13194 0
M  V30 6125 C 583.834 4.79674 2.36255 0
M  V30 6126 C 585.134 5.21847 0.217507 0
M  V30 6127 H 586.828 2.99005 -0.153656 0
M  V30 6128 H 584.374 1.43803 -0.0753406 0
M  V30 6129 H 586.327 3.58889 2.20855 0
M  V30 6130 H 585.051 2.34775 2.27042 0
M  V30 6131 H 583.71 3.62281 0.56109 0
M  V30 6132 H 583.358 4.03557 3.00251 0
M  V30 6133 H 583.058 5.50827 2.04606 0
M  V30 6134 H 584.582 5.33892 2.96297 0
M  V30 6135 H 585.996 5.6878 0.718493 0
M  V30 6136 H 584.393 6.00099 -0.00806408 0
M  V30 6137 H 585.463 4.7921 -0.740653 0
M  V30 6138 N 586.806 0.0935595 1.57322 0
M  V30 6139 C 588.036 -0.578095 1.98347 0
M  V30 6140 C 588.444 -1.62357 0.971441 0
M  V30 6141 O 587.787 -1.83639 -0.0473959 0
M  V30 6142 C 587.849 -1.28525 3.3574 0
M  V30 6143 C 587.513 -0.390714 4.55327 0
M  V30 6144 C 588.51 0.360522 5.18648 0
M  V30 6145 C 586.195 -0.309221 5.01347 0
M  V30 6146 C 588.189 1.18125 6.26359 0
M  V30 6147 C 585.876 0.515157 6.08925 0
M  V30 6148 C 586.874 1.25904 6.71295 0
M  V30 6149 O 586.562 2.06978 7.76798 0
M  V30 6150 H 586.294 -0.159767 0.656849 0
M  V30 6151 H 588.848 0.169058 2.04703 0
M  V30 6152 H 587.078 -2.07894 3.26063 0
M  V30 6153 H 588.767 -1.85128 3.61223 0
M  V30 6154 H 589.533 0.307285 4.84026 0
M  V30 6155 H 585.412 -0.877881 4.52564 0
M  V30 6156 H 588.956 1.76236 6.74971 0
M  V30 6157 H 584.853 0.56988 6.42979 0
M  V30 6158 H 585.621 1.99644 7.93779 0
M  V30 6159 N 588.284 -1.56567 -0.180126 0
M  V30 6160 C 589.532 -1.81133 -0.896392 0
M  V30 6161 C 589.853 -0.669114 -1.83161 0
M  V30 6162 O 589.123 0.311616 -1.93406 0
M  V30 6163 H 587.703 -0.668172 -0.333999 0
M  V30 6164 H 590.365 -1.94048 -0.182051 0
M  V30 6165 H 589.461 -2.74854 -1.47857 0
M  V30 6166 N 589.762 0.448376 -1.51087 0
M  V30 6167 C 590.71 1.56407 -1.72161 0
M  V30 6168 C 591.704 1.58878 -0.587721 0
M  V30 6169 O 592.91 1.62755 -0.768822 0
M  V30 6170 H 589.285 0.519423 -0.543786 0
M  V30 6171 H 591.256 1.35803 -2.65707 0
M  V30 6172 C 590.005 2.94163 -1.85373 0
M  V30 6173 H 589.328 2.9299 -2.72024 0
M  V30 6174 H 590.768 3.71625 -2.04135 0
M  V30 6175 C 589.227 3.31317 -0.610803 0
M  V30 6176 O 589.757 4.00985 0.239636 0
M  V30 6177 N 587.963 2.86966 -0.458127 0
M  V30 6178 H 587.51 2.30443 -1.15124 0
M  V30 6179 H 587.468 3.12188 0.372289 0
M  V30 6180 N 591.24 1.41047 0.703093 0
M  V30 6181 C 592.488 1.39723 1.4602 0
M  V30 6182 C 592.809 0.00461257 1.94999 0
M  V30 6183 O 592.079 -0.952292 1.71196 0
M  V30 6184 H 590.659 0.514281 0.541779 0
M  V30 6185 H 593.321 1.76217 0.832678 0
M  V30 6186 H 592.417 2.07982 2.32701 0
M  V30 6187 N 592.718 -0.936591 1.26751 0
M  V30 6188 C 594.129 -1.49816 1.1141 0
M  V30 6189 C 594.48 -1.9383 -0.304015 0
M  V30 6190 O 593.605 -1.80346 -1.196 0
M  V30 6191 C 594.2 -2.72271 2.01629 0
M  V30 6192 C 592.759 -3.2468 1.9042 0
M  V30 6193 C 591.906 -1.97444 1.94708 0
M  V30 6194 H 594.857 -0.751604 1.39773 0
M  V30 6195 H 594.878 -3.46741 1.56688 0
M  V30 6196 H 594.39 -2.40205 3.04833 0
M  V30 6197 H 592.491 -3.61525 0.901674 0
M  V30 6198 H 592.604 -3.91476 2.76195 0
M  V30 6199 H 590.968 -2.13545 1.38818 0
M  V30 6200 H 591.751 -1.67703 2.9955 0
M  V30 6201 N 594.196 -1.08629 -1.14182 0
M  V30 6202 C 595.444 -0.815731 -1.84906 0
M  V30 6203 C 595.765 0.660441 -1.83475 0
M  V30 6204 O 595.035 1.47888 -1.28476 0
M  V30 6205 H 593.615 -0.298773 -0.684648 0
M  V30 6206 H 596.277 -1.37274 -1.38354 0
M  V30 6207 H 595.373 -1.16193 -2.89665 0
M  V30 6208 N 595.674 1.31259 -0.872281 0
M  V30 6209 C 596.904 2.00504 -0.498183 0
M  V30 6210 C 597.312 1.65632 0.914479 0
M  V30 6211 O 596.655 0.882849 1.61095 0
M  V30 6212 C 596.717 3.5482 -0.578194 0
M  V30 6213 C 596.381 4.13172 -1.95289 0
M  V30 6214 C 597.378 4.30107 -2.92069 0
M  V30 6215 C 595.063 4.48846 -2.25483 0
M  V30 6216 C 597.057 4.81908 -4.17185 0
M  V30 6217 C 594.744 5.00349 -3.50847 0
M  V30 6218 C 595.742 5.16831 -4.46514 0
M  V30 6219 O 595.43 5.67228 -5.69656 0
M  V30 6220 H 595.162 0.648055 -0.192354 0
M  V30 6221 H 597.716 1.6841 -1.17589 0
M  V30 6222 H 595.946 3.86383 0.156438 0
M  V30 6223 H 597.635 4.05318 -0.217192 0
M  V30 6224 H 598.401 4.02862 -2.7005 0
M  V30 6225 H 594.28 4.35292 -1.51795 0
M  V30 6226 H 597.824 4.94688 -4.91863 0
M  V30 6227 H 593.721 5.27028 -3.72708 0
M  V30 6228 H 594.489 5.85592 -5.7186 0
M  V30 6229 N 597.152 0.631951 1.44375 0
M  V30 6230 C 598.099 -0.0724807 2.30686 0
M  V30 6231 C 599.069 -0.835975 1.43529 0
M  V30 6232 O 600.254 -0.816849 1.7243 0
M  V30 6233 C 597.394 -1.04753 3.28817 0
M  V30 6234 C 596.507 -0.282367 4.31076 0
M  V30 6235 C 595.642 -1.2493 5.163 0
M  V30 6236 C 594.681 -0.473349 6.10267 0
M  V30 6237 N 593.818 -1.39079 6.88187 0
M  V30 6238 H 598.658 0.669477 2.90383 0
M  V30 6239 H 596.195 0.341927 1.43071 0
M  V30 6240 H 598.153 -1.62623 3.842 0
M  V30 6241 H 596.783 -1.75661 2.70819 0
M  V30 6242 H 595.835 0.412268 3.78159 0
M  V30 6243 H 597.147 0.321955 4.9776 0
M  V30 6244 H 596.301 -1.89931 5.76204 0
M  V30 6245 H 595.04 -1.88755 4.49692 0
M  V30 6246 H 594.045 0.190142 5.49471 0
M  V30 6247 H 595.27 0.16019 6.78911 0
M  V30 6248 H 593.216 -2.01623 6.24247 0
M  V30 6249 H 593.133 -0.840513 7.51313 0
M  V30 6250 H 594.401 -2.02961 7.52613 0
M  V30 6251 N 598.631 -1.53133 0.372548 0
M  V30 6252 C 599.877 -2.01654 -0.215277 0
M  V30 6253 C 600.21 -1.25914 -1.47849 0
M  V30 6254 O 599.485 -0.3548 -1.91237 0
M  V30 6255 C 599.768 -3.56609 -0.500187 0
M  V30 6256 C 599.621 -4.43036 0.777145 0
M  V30 6257 C 600.94 -4.20528 -1.29786 0
M  V30 6258 H 598.059 -0.732991 -0.0767686 0
M  V30 6259 H 600.701 -1.83335 0.498814 0
M  V30 6260 H 598.851 -3.7235 -1.10852 0
M  V30 6261 H 600.523 -4.39079 1.41447 0
M  V30 6262 H 598.766 -4.10723 1.39604 0
M  V30 6263 H 599.437 -5.49424 0.532662 0
M  V30 6264 H 601.913 -4.08663 -0.783198 0
M  V30 6265 H 600.789 -5.28962 -1.46596 0
M  V30 6266 H 601.05 -3.77051 -2.30836 0
M  V30 6267 N 600.109 -0.101901 -1.5727 0
M  V30 6268 C 601.355 0.561027 -1.94885 0
M  V30 6269 C 601.688 1.6741 -0.984258 0
M  V30 6270 O 600.963 1.94491 -0.0184767 0
M  V30 6271 C 601.246 1.10982 -3.42571 0
M  V30 6272 C 601.099 0.00133418 -4.498 0
M  V30 6273 C 602.418 2.00608 -3.9172 0
M  V30 6274 H 599.537 0.202467 -0.708644 0
M  V30 6275 H 602.179 -0.173992 -1.89202 0
M  V30 6276 H 600.329 1.73621 -3.47546 0
M  V30 6277 H 602.001 -0.63322 -4.56933 0
M  V30 6278 H 600.244 -0.664143 -4.28686 0
M  V30 6279 H 600.915 0.426253 -5.50352 0
M  V30 6280 H 603.391 1.47864 -3.88941 0
M  V30 6281 H 602.267 2.3593 -4.95609 0
M  V30 6282 H 602.528 2.92608 -3.3141 0
M  V30 6283 N 601.587 1.56661 0.17182 0
M  V30 6284 C 602.835 1.81606 0.886774 0
M  V30 6285 C 603.156 0.678818 1.82803 0
M  V30 6286 O 602.426 -0.301354 1.93568 0
M  V30 6287 H 601.006 0.669934 0.330451 0
M  V30 6288 H 603.668 1.94142 0.171757 0
M  V30 6289 H 602.764 2.75634 1.46398 0
M  V30 6290 N 603.065 -0.440357 1.51323 0
M  V30 6291 C 604.313 -1.18769 1.63518 0
M  V30 6292 C 604.634 -1.91793 0.352201 0
M  V30 6293 O 603.904 -1.85432 -0.631811 0
M  V30 6294 H 602.484 -0.441408 0.602634 0
M  V30 6295 H 605.146 -0.505162 1.8824 0
M  V30 6296 H 604.242 -1.91892 2.46138 0
M  V30 6297 N 604.543 -1.41418 -0.695603 0
M  V30 6298 C 605.453 -1.45622 -1.83933 0
M  V30 6299 C 606.469 -0.346825 -1.70508 0
M  V30 6300 O 607.645 -0.59454 -1.92424 0
M  V30 6301 C 604.71 -1.33627 -3.19914 0
M  V30 6302 C 603.771 -2.54882 -3.45447 0
M  V30 6303 C 603.004 -2.43449 -4.7494 0
M  V30 6304 O 603.227 -1.45905 -5.51424 0
M  V30 6305 O 602.161 -3.33206 -5.01256 0
M  V30 6306 H 605.987 -2.42114 -1.83342 0
M  V30 6307 H 603.572 -1.22956 -0.848658 0
M  V30 6308 H 605.454 -1.29221 -4.01098 0
M  V30 6309 H 604.129 -0.402508 -3.21188 0
M  V30 6310 H 603.036 -2.64865 -2.64192 0
M  V30 6311 H 604.369 -3.47087 -3.48987 0
M  V30 6312 N 606.021 0.929856 -1.27246 0
M  V30 6313 C 607.437 1.20542 -1.04603 0
M  V30 6314 C 607.637 2.00276 0.221754 0
M  V30 6315 O 606.693 2.34835 0.927833 0
M  V30 6316 C 608.006 1.95566 -2.28417 0
M  V30 6317 C 609.554 2.08513 -2.33433 0
M  V30 6318 C 610.029 2.86943 -3.5697 0
M  V30 6319 N 611.52 2.94512 -3.57515 0
M  V30 6320 C 612.255 3.55656 -4.49774 0
M  V30 6321 N 611.751 4.18209 -5.52334 0
M  V30 6322 N 613.544 3.53038 -4.37402 0
M  V30 6323 H 605.695 0.397113 -2.08655 0
M  V30 6324 H 607.958 0.238277 -0.917566 0
M  V30 6325 H 607.664 1.44395 -3.20691 0
M  V30 6326 H 607.538 2.9619 -2.33563 0
M  V30 6327 H 609.925 2.58872 -1.41666 0
M  V30 6328 H 610.006 1.07117 -2.32292 0
M  V30 6329 H 609.65 2.37268 -4.49072 0
M  V30 6330 H 609.58 3.8862 -3.55362 0
M  V30 6331 H 612.071 2.50053 -2.83341 0
M  V30 6332 H 612.384 4.62796 -6.18902 0
M  V30 6333 H 610.729 4.16761 -5.56179 0
M  V30 6334 H 613.92 3.0337 -3.56489 0
M  V30 6335 H 614.093 4.004 -5.09493 0
M  V30 6336 N 607.499 1.09233 1.13605 0
M  V30 6337 C 608.409 0.741939 2.22559 0
M  V30 6338 C 609.425 -0.255236 1.72118 0
M  V30 6339 O 610.601 -0.0970747 2.01166 0
M  V30 6340 C 607.666 0.165595 3.46304 0
M  V30 6341 C 606.727 1.21846 4.11645 0
M  V30 6342 C 605.96 0.669526 5.29484 0
M  V30 6343 O 606.183 -0.508228 5.68131 0
M  V30 6344 O 605.117 1.42361 5.84822 0
M  V30 6345 H 608.943 1.65107 2.54899 0
M  V30 6346 H 606.528 0.866584 1.21699 0
M  V30 6347 H 608.41 -0.152592 4.21124 0
M  V30 6348 H 607.085 -0.716573 3.15669 0
M  V30 6349 H 605.992 1.58931 3.38662 0
M  V30 6350 H 607.325 2.07321 4.46407 0
M  V30 6351 N 608.977 -1.30795 0.87923 0
M  V30 6352 C 609.925 -2.30231 0.331112 0
M  V30 6353 C 610.919 -1.59918 -0.558794 0
M  V30 6354 O 612.125 -1.74441 -0.443866 0
M  V30 6355 H 608.5 -0.746785 0.088409 0
M  V30 6356 H 610.471 -2.73925 1.18353 0
M  V30 6357 C 609.22 -3.44848 -0.444401 0
M  V30 6358 H 608.543 -3.99131 0.231106 0
M  V30 6359 H 609.983 -4.16516 -0.793109 0
M  V30 6360 C 608.442 -2.94329 -1.63926 0
M  V30 6361 O 608.972 -2.93875 -2.73862 0
M  V30 6362 N 607.178 -2.50413 -1.4745 0
M  V30 6363 H 606.725 -2.50982 -0.58015 0
M  V30 6364 H 606.683 -2.16969 -2.27534 0
M  V30 6365 N 610.455 -0.639598 -1.44038 0
M  V30 6366 C 611.701 -0.147698 -2.02261 0
M  V30 6367 C 612.034 1.23031 -1.50256 0
M  V30 6368 O 611.309 1.81847 -0.690068 0
M  V30 6369 C 611.592 -0.14362 -3.59813 0
M  V30 6370 C 611.445 -1.55458 -4.22082 0
M  V30 6371 C 612.764 0.527317 -4.36929 0
M  V30 6372 H 609.883 -0.0551453 -0.734934 0
M  V30 6373 H 612.525 -0.817688 -1.71505 0
M  V30 6374 H 610.675 0.426898 -3.86147 0
M  V30 6375 H 612.347 -2.17464 -4.06826 0
M  V30 6376 H 610.59 -2.10594 -3.79253 0
M  V30 6377 H 611.261 -1.50369 -5.31124 0
M  V30 6378 H 613.737 0.0420504 -4.16079 0
M  V30 6379 H 612.613 0.499389 -5.46624 0
M  V30 6380 H 612.874 1.59914 -4.12165 0
M  V30 6381 N 611.933 1.52934 -0.380664 0
M  V30 6382 C 613.158 2.06363 0.207157 0
M  V30 6383 C 613.583 1.25122 1.4045 0
M  V30 6384 O 612.941 0.274062 1.79217 0
M  V30 6385 C 612.989 3.56162 0.563996 0
M  V30 6386 O 612.093 3.77552 1.65917 0
M  V30 6387 H 611.434 0.663468 0.0265859 0
M  V30 6388 H 613.964 1.9719 -0.545635 0
M  V30 6389 H 613.974 3.99453 0.830752 0
M  V30 6390 H 612.649 4.14732 -0.311427 0
M  V30 6391 H 611.226 3.46154 1.3868 0
M  V30 6392 N 613.412 0.11024 1.57214 0
M  V30 6393 C 614.345 -0.880224 2.1054 0
M  V30 6394 C 615.323 -1.26658 1.01964 0
M  V30 6395 O 616.507 -1.36917 1.29561 0
M  V30 6396 C 613.634 -2.17676 2.59489 0
M  V30 6397 C 612.68 -1.93914 3.79868 0
M  V30 6398 S 613.513 -1.16336 5.2271 0
M  V30 6399 C 614.669 -2.47188 5.75021 0
M  V30 6400 H 614.902 -0.426614 2.94223 0
M  V30 6401 H 612.435 -0.10336 1.54054 0
M  V30 6402 H 614.393 -2.92175 2.88347 0
M  V30 6403 H 613.054 -2.60156 1.76005 0
M  V30 6404 H 612.247 -2.8996 4.12236 0
M  V30 6405 H 611.849 -1.27539 3.51582 0
M  V30 6406 H 614.141 -3.43079 5.84211 0
M  V30 6407 H 615.084 -2.19377 6.7326 0
M  V30 6408 H 615.492 -2.56154 5.03036 0
M  V30 6409 N 614.89 -1.56749 -0.16351 0
M  V30 6410 C 616.136 -1.82704 -0.880168 0
M  V30 6411 C 616.469 -0.689311 -1.81555 0
M  V30 6412 O 615.744 0.308224 -1.92042 0
M  V30 6413 C 616.027 -3.19084 -1.66905 0
M  V30 6414 C 615.88 -4.43397 -0.756269 0
M  V30 6415 C 617.199 -3.52493 -2.63509 0
M  V30 6416 H 614.318 -0.664608 -0.318535 0
M  V30 6417 H 616.96 -1.89438 -0.146036 0
M  V30 6418 H 615.11 -3.13475 -2.2949 0
M  V30 6419 H 616.782 -4.61079 -0.14269 0
M  V30 6420 H 615.025 -4.33752 -0.0647944 0
M  V30 6421 H 615.696 -5.3539 -1.34393 0
M  V30 6422 H 618.172 -3.58606 -2.11047 0
M  V30 6423 H 617.048 -4.48979 -3.15767 0
M  V30 6424 H 617.309 -2.77597 -3.44082 0
M  V30 6425 N 616.368 0.432326 -1.51554 0
M  V30 6426 C 617.645 1.19288 -1.55015 0
M  V30 6427 C 618.025 2.08701 -0.317375 0
M  V30 6428 O 617.373 2.17602 0.697243 0
M  V30 6429 C 617.583 1.99037 -2.86679 0
M  V30 6430 C 618.931 2.55907 -3.38817 0
M  V30 6431 O 619.955 2.09243 -2.88263 0
M  V30 6432 O 618.814 3.41029 -4.27038 0
M  V30 6433 H 615.908 0.543369 -0.623441 0
M  V30 6434 H 618.454 0.440988 -1.6387 0
M  V30 6435 H 617.226 1.33397 -3.6786 0
M  V30 6436 H 616.849 2.81281 -2.8101 0
M  V30 6437 N 617.846 1.41785 0.688094 0
M  V30 6438 C 619.076 1.44705 1.47459 0
M  V30 6439 C 619.484 0.052916 1.89126 0
M  V30 6440 O 618.827 -0.939781 1.57841 0
M  V30 6441 C 618.889 2.29935 2.76352 0
M  V30 6442 C 618.553 3.77996 2.56843 0
M  V30 6443 C 619.55 4.69976 2.22304 0
M  V30 6444 C 617.235 4.2212 2.7225 0
M  V30 6445 C 619.229 6.04068 2.03421 0
M  V30 6446 C 616.916 5.56275 2.52985 0
M  V30 6447 C 617.914 6.47065 2.18621 0
M  V30 6448 O 617.602 7.78744 1.9953 0
M  V30 6449 H 617.334 0.494703 0.460701 0
M  V30 6450 H 619.888 1.86802 0.854057 0
M  V30 6451 H 618.118 1.82664 3.40839 0
M  V30 6452 H 619.807 2.24467 3.38186 0
M  V30 6453 H 620.573 4.37175 2.10008 0
M  V30 6454 H 616.452 3.51752 2.97979 0
M  V30 6455 H 619.996 6.74897 1.76523 0
M  V30 6456 H 615.893 5.88653 2.64873 0
M  V30 6457 H 616.661 7.89966 2.14234 0
M  V30 6458 N 619.324 -0.923095 1.27737 0
M  V30 6459 C 620.287 -2.00587 1.10894 0
M  V30 6460 C 621.287 -1.60718 0.0514927 0
M  V30 6461 O 622.477 -1.71658 0.296481 0
M  V30 6462 C 619.609 -3.33829 0.690717 0
M  V30 6463 H 620.802 -2.16959 2.07048 0
M  V30 6464 H 618.355 -1.10451 1.1059 0
M  V30 6465 H 619.09 -3.23157 -0.272 0
M  V30 6466 H 618.875 -3.64125 1.45448 0
M  V30 6467 H 620.365 -4.13336 0.595252 0
M  V30 6468 N 620.802 -1.09834 -1.13024 0
M  V30 6469 C 621.752 -0.710899 -2.16634 0
M  V30 6470 C 622.736 0.276836 -1.58501 0
M  V30 6471 O 623.928 0.0865457 -1.76788 0
M  V30 6472 C 621.057 -0.137574 -3.43024 0
M  V30 6473 C 620.143 -1.15198 -4.08155 0
M  V30 6474 N 620.534 -2.34054 -4.48388 0
M  V30 6475 C 618.832 -0.991074 -4.34849 0
M  V30 6476 C 619.533 -2.98616 -4.99203 0
M  V30 6477 N 618.509 -2.26159 -4.94321 0
M  V30 6478 H 622.311 -1.61576 -2.455 0
M  V30 6479 H 619.825 -0.975158 -1.29863 0
M  V30 6480 H 621.822 0.158031 -4.166 0
M  V30 6481 H 620.482 0.762088 -3.1563 0
M  V30 6482 H 621.493 -2.7162 -4.40957 0
M  V30 6483 H 618.17 -0.146448 -4.17243 0
M  V30 6484 H 619.56 -3.99683 -5.40096 0
M  V30 6485 N 622.28 1.30327 -0.886154 0
M  V30 6486 C 623.228 2.30052 -0.343317 0
M  V30 6487 C 624.222 1.60212 0.550305 0
M  V30 6488 O 625.428 1.74674 0.434609 0
M  V30 6489 H 621.803 0.746306 -0.0923681 0
M  V30 6490 H 623.774 2.73294 -1.19804 0
M  V30 6491 C 622.523 3.45079 0.426107 0
M  V30 6492 H 621.846 3.99003 -0.25227 0
M  V30 6493 H 623.286 4.16931 0.771009 0
M  V30 6494 C 621.745 2.95195 1.62363 0
M  V30 6495 O 622.275 2.95323 2.723 0
M  V30 6496 N 620.481 2.51192 1.4612 0
M  V30 6497 H 620.028 2.51286 0.566832 0
M  V30 6498 H 619.986 2.18173 2.2638 0
M  V30 6499 N 623.758 0.647228 1.43697 0
M  V30 6500 C 624.706 -0.0600105 2.32523 0
M  V30 6501 C 625.7 -0.819277 1.48271 0
M  V30 6502 O 626.906 -0.730356 1.64517 0
M  V30 6503 H 623.281 -0.0381872 0.75103 0
M  V30 6504 H 625.252 0.706978 2.89904 0
M  V30 6505 C 624.001 -1.0169 3.32497 0
M  V30 6506 H 623.324 -0.442083 3.97348 0
M  V30 6507 H 624.764 -1.48095 3.97296 0
M  V30 6508 C 623.223 -2.11002 2.6264 0
M  V30 6509 O 623.753 -3.19302 2.4374 0
M  V30 6510 N 621.959 -1.87388 2.22113 0
M  V30 6511 H 621.506 -0.993174 2.37684 0
M  V30 6512 H 621.464 -2.60723 1.75701 0
M  V30 6513 N 625.236 -1.5273 0.388769 0
M  V30 6514 C 626.466 -2.05693 -0.193397 0
M  V30 6515 C 626.874 -1.26038 -1.41107 0
M  V30 6516 O 626.217 -0.30001 -1.81234 0
M  V30 6517 C 626.279 -3.53962 -0.628561 0
M  V30 6518 C 625.943 -4.54519 0.475576 0
M  V30 6519 C 626.94 -5.02526 1.33281 0
M  V30 6520 C 624.625 -4.98174 0.642453 0
M  V30 6521 C 626.619 -5.92812 2.34205 0
M  V30 6522 C 624.306 -5.88262 1.65503 0
M  V30 6523 C 625.304 -6.35473 2.50325 0
M  V30 6524 O 624.992 -7.23781 3.49852 0
M  V30 6525 H 624.724 -0.675197 -0.0329395 0
M  V30 6526 H 627.278 -1.97835 0.552326 0
M  V30 6527 H 625.508 -3.59437 -1.42625 0
M  V30 6528 H 627.197 -3.89669 -1.13633 0
M  V30 6529 H 627.963 -4.6953 1.21519 0
M  V30 6530 H 623.842 -4.60999 -0.00805093 0
M  V30 6531 H 627.386 -6.29585 3.00447 0
M  V30 6532 H 623.283 -6.20672 1.77304 0
M  V30 6533 H 624.051 -7.4184 3.45855 0
M  V30 6534 N 626.714 -0.118576 -1.57153 0
M  V30 6535 C 627.646 0.862247 -2.12363 0
M  V30 6536 C 628.659 1.23025 -1.06625 0
M  V30 6537 O 629.848 1.17927 -1.33998 0
M  V30 6538 C 626.948 2.16425 -2.60794 0
M  V30 6539 C 626.121 1.96801 -3.90626 0
M  V30 6540 C 625.18 3.10726 -4.2466 0
M  V30 6541 O 624.206 2.83659 -4.93484 0
M  V30 6542 N 625.408 4.37147 -3.81946 0
M  V30 6543 H 628.173 0.390564 -2.97144 0
M  V30 6544 H 625.734 0.0658591 -1.61766 0
M  V30 6545 H 627.726 2.91633 -2.80593 0
M  V30 6546 H 626.296 2.54943 -1.80895 0
M  V30 6547 H 625.516 1.05787 -3.7974 0
M  V30 6548 H 626.804 1.80993 -4.7552 0
M  V30 6549 H 626.202 4.62014 -3.26435 0
M  V30 6550 H 624.759 5.09229 -4.06853 0
M  V30 6551 N 628.193 1.56834 0.155195 0
M  V30 6552 C 629.156 1.96748 1.17571 0
M  V30 6553 C 630.156 0.853006 1.3631 0
M  V30 6554 O 631.346 1.11978 1.33441 0
M  V30 6555 C 628.478 2.27631 2.53765 0
M  V30 6556 H 629.671 2.88085 0.833498 0
M  V30 6557 H 627.224 1.51141 0.398242 0
M  V30 6558 H 627.959 1.39059 2.92973 0
M  V30 6559 H 627.744 3.0888 2.41527 0
M  V30 6560 H 629.234 2.59377 3.27282 0
M  V30 6561 N 629.671 -0.424282 1.51781 0
M  V30 6562 C 630.603 -1.53457 1.70246 0
M  V30 6563 C 631.616 -1.52004 0.582967 0
M  V30 6564 O 632.805 -1.56544 0.857683 0
M  V30 6565 C 629.905 -2.92368 1.71389 0
M  V30 6566 C 629.078 -3.1818 3.00133 0
M  V30 6567 C 628.137 -4.36884 2.9329 0
M  V30 6568 O 627.163 -4.34901 3.67219 0
M  V30 6569 N 628.365 -5.4117 2.10036 0
M  V30 6570 H 631.13 -1.38017 2.66029 0
M  V30 6571 H 628.691 -0.613394 1.4983 0
M  V30 6572 H 630.683 -3.6982 1.64362 0
M  V30 6573 H 629.253 -3.0134 0.831449 0
M  V30 6574 H 628.473 -2.28908 3.20928 0
M  V30 6575 H 629.761 -3.32261 3.85331 0
M  V30 6576 H 629.159 -5.45623 1.49373 0
M  V30 6577 H 627.716 -6.17425 2.08878 0
M  V30 6578 N 631.149 -1.42148 -0.680565 0
M  V30 6579 C 632.374 -1.45901 -1.47403 0
M  V30 6580 C 632.799 -0.0700985 -1.87969 0
M  V30 6581 O 632.157 0.930145 -1.55621 0
M  V30 6582 C 632.205 -2.38661 -2.70321 0
M  V30 6583 O 631.309 -1.85399 -3.68376 0
M  V30 6584 H 630.65 -0.494565 -0.443059 0
M  V30 6585 H 633.18 -1.86774 -0.835251 0
M  V30 6586 H 633.19 -2.55046 -3.18458 0
M  V30 6587 H 631.865 -3.39571 -2.40134 0
M  V30 6588 H 630.442 -1.78541 -3.2738 0
M  V30 6589 N 632.627 0.916307 -1.28225 0
M  V30 6590 C 633.59 1.99996 -1.11957 0
M  V30 6591 C 634.59 1.60688 -0.0600152 0
M  V30 6592 O 635.78 1.71499 -0.30558 0
M  V30 6593 C 632.912 3.33458 -0.708411 0
M  V30 6594 H 634.105 2.15858 -2.08196 0
M  V30 6595 H 631.658 1.09863 -1.11175 0
M  V30 6596 H 632.393 3.23297 0.254859 0
M  V30 6597 H 632.178 3.63349 -1.47377 0
M  V30 6598 H 633.668 4.13014 -0.617164 0
M  V30 6599 N 634.105 1.10431 1.1244 0
M  V30 6600 C 635.351 0.847972 1.84221 0
M  V30 6601 C 635.684 -0.624903 1.83871 0
M  V30 6602 O 634.959 -1.46074 1.28423 0
M  V30 6603 C 635.242 1.39695 3.319 0
M  V30 6604 C 635.095 2.93668 3.40704 0
M  V30 6605 C 636.414 1.03924 4.27654 0
M  V30 6606 H 633.533 0.309502 0.668863 0
M  V30 6607 H 636.175 1.36745 1.31912 0
M  V30 6608 H 634.325 0.955095 3.76577 0
M  V30 6609 H 635.997 3.46379 3.04662 0
M  V30 6610 H 634.24 3.30272 2.81252 0
M  V30 6611 H 634.911 3.27162 4.446 0
M  V30 6612 H 637.387 1.42049 3.91102 0
M  V30 6613 H 636.263 1.45027 5.29394 0
M  V30 6614 H 636.524 -0.051336 4.4207 0
M  V30 6615 N 635.583 -1.29855 0.893053 0
M  V30 6616 C 636.994 -1.77946 0.564998 0
M  V30 6617 C 637.345 -1.73339 -0.919134 0
M  V30 6618 O 636.47 -1.3152 -1.71847 0
M  V30 6619 C 637.065 -3.23118 1.01883 0
M  V30 6620 C 635.624 -3.69013 0.742051 0
M  V30 6621 C 634.771 -2.50121 1.19727 0
M  V30 6622 H 637.722 -1.16611 1.07646 0
M  V30 6623 H 637.743 -3.78875 0.351249 0
M  V30 6624 H 637.255 -3.26439 2.09903 0
M  V30 6625 H 635.356 -3.71173 -0.325816 0
M  V30 6626 H 635.469 -4.60117 1.33527 0
M  V30 6627 H 633.833 -2.47128 0.616418 0
M  V30 6628 H 634.616 -2.56174 2.28538 0
M  V30 6629 N 637.061 -0.65484 -1.43351 0
M  V30 6630 C 637.991 0.0221809 -2.33489 0
M  V30 6631 C 638.972 0.810272 -1.49561 0
M  V30 6632 O 640.157 0.771426 -1.78221 0
M  V30 6633 C 637.287 0.988117 -3.32947 0
M  V30 6634 C 636.241 0.310026 -4.26876 0
M  V30 6635 C 635.567 1.38752 -5.16384 0
M  V30 6636 C 636.867 -0.798589 -5.16159 0
M  V30 6637 H 638.561 -0.730571 -2.9035 0
M  V30 6638 H 636.107 -0.352773 -1.39612 0
M  V30 6639 H 638.06 1.47067 -3.94904 0
M  V30 6640 H 636.784 1.77205 -2.74346 0
M  V30 6641 H 635.443 -0.152097 -3.66284 0
M  V30 6642 H 635.091 2.16293 -4.54121 0
M  V30 6643 H 634.791 0.939051 -5.80048 0
M  V30 6644 H 636.315 1.87141 -5.81215 0
M  V30 6645 H 637.729 -0.398126 -5.71916 0
M  V30 6646 H 636.126 -1.17163 -5.88552 0
M  V30 6647 H 637.196 -1.65588 -4.55751 0
M  V30 6648 N 638.539 1.52521 -0.396863 0
M  V30 6649 C 639.955 1.5953 -0.0471659 0
M  V30 6650 C 640.155 1.41044 1.43906 0
M  V30 6651 O 639.211 1.23122 2.20448 0
M  V30 6652 C 640.524 2.95972 -0.531113 0
M  V30 6653 C 642.072 3.09172 -0.488024 0
M  V30 6654 C 642.547 4.48075 -0.948281 0
M  V30 6655 N 644.038 4.54281 -0.9046 0
M  V30 6656 C 644.773 5.60007 -1.23205 0
M  V30 6657 N 644.269 6.73343 -1.63036 0
M  V30 6658 N 646.062 5.50151 -1.15282 0
M  V30 6659 H 638.213 1.62786 -1.36435 0
M  V30 6660 H 640.476 0.76514 -0.559701 0
M  V30 6661 H 640.182 3.14741 -1.56942 0
M  V30 6662 H 640.056 3.77143 0.0657922 0
M  V30 6663 H 642.443 2.90095 0.541211 0
M  V30 6664 H 642.524 2.29937 -1.12083 0
M  V30 6665 H 642.168 4.67894 -1.97578 0
M  V30 6666 H 642.098 5.25788 -0.292412 0
M  V30 6667 H 644.589 3.72918 -0.6116 0
M  V30 6668 H 644.902 7.49992 -1.86365 0
M  V30 6669 H 643.247 6.74655 -1.66929 0
M  V30 6670 H 646.438 4.6049 -0.840602 0
M  V30 6671 H 646.611 6.32444 -1.41133 0
M  V30 6672 N 640.017 0.126909 1.57088 0
M  V30 6673 C 640.967 -0.831678 2.1229 0
M  V30 6674 C 641.951 -1.22292 1.04564 0
M  V30 6675 O 643.143 -1.19269 1.30782 0
M  V30 6676 C 640.272 -2.07866 2.73215 0
M  V30 6677 C 639.358 -1.71143 3.88035 0
M  V30 6678 N 639.749 -1.05136 4.94753 0
M  V30 6679 C 638.047 -2.00549 3.98367 0
M  V30 6680 C 638.748 -0.877257 5.75047 0
M  V30 6681 N 637.724 -1.40477 5.25135 0
M  V30 6682 H 641.526 -0.317926 2.92175 0
M  V30 6683 H 639.04 -0.0753052 1.62225 0
M  V30 6684 H 641.037 -2.77516 3.11111 0
M  V30 6685 H 639.697 -2.59778 1.94796 0
M  V30 6686 H 640.708 -0.71442 5.12949 0
M  V30 6687 H 637.385 -2.54452 3.30999 0
M  V30 6688 H 638.775 -0.358536 6.70943 0
M  V30 6689 N 641.495 -1.56914 -0.146875 0
M  V30 6690 C 642.405 -2.0154 -1.20079 0
M  V30 6691 C 643.421 -0.930838 -1.47008 0
M  V30 6692 O 644.597 -1.24032 -1.58676 0
M  V30 6693 C 641.662 -2.38715 -2.51428 0
M  V30 6694 C 640.723 -3.6112 -2.32145 0
M  V30 6695 C 639.956 -3.96512 -3.57231 0
M  V30 6696 O 640.179 -3.32566 -4.63418 0
M  V30 6697 O 639.113 -4.89758 -3.49887 0
M  V30 6698 H 642.939 -2.91506 -0.851924 0
M  V30 6699 H 640.524 -1.45106 -0.355607 0
M  V30 6700 H 642.406 -2.63485 -3.28867 0
M  V30 6701 H 641.081 -1.51903 -2.85845 0
M  V30 6702 H 639.988 -3.41536 -1.52656 0
M  V30 6703 H 641.321 -4.48549 -2.02644 0
M  V30 6704 N 642.974 0.416227 -1.52004 0
M  V30 6705 C 644.202 1.18573 -1.69553 0
M  V30 6706 C 644.617 1.84472 -0.401919 0
M  V30 6707 O 643.974 1.71593 0.621463 0
M  V30 6708 C 644.025 2.25413 -2.82615 0
M  V30 6709 O 643.746 1.62205 -4.06966 0
M  V30 6710 C 645.247 3.15297 -3.11613 0
M  V30 6711 H 642.467 0.356582 -0.56841 0
M  V30 6712 H 645.011 0.490618 -1.98528 0
M  V30 6713 H 643.166 2.90604 -2.56179 0
M  V30 6714 H 643.58 2.3298 -4.69916 0
M  V30 6715 H 645.054 3.86351 -3.94255 0
M  V30 6716 H 645.531 3.77264 -2.24874 0
M  V30 6717 H 646.137 2.55783 -3.39787 0
M  V30 6718 N 644.452 1.42507 0.673017 0
M  V30 6719 C 645.402 1.4258 1.77919 0
M  V30 6720 C 646.386 0.296885 1.58137 0
M  V30 6721 O 647.578 0.539243 1.68586 0
M  V30 6722 C 644.707 1.33238 3.1639 0
M  V30 6723 C 643.793 2.51081 3.41788 0
M  V30 6724 N 644.184 3.76498 3.37761 0
M  V30 6725 C 642.482 2.4538 3.72431 0
M  V30 6726 C 643.183 4.54784 3.62693 0
M  V30 6727 N 642.159 3.8522 3.83544 0
M  V30 6728 H 645.961 2.37442 1.73201 0
M  V30 6729 H 643.475 1.36881 0.873924 0
M  V30 6730 H 645.472 1.31372 3.9566 0
M  V30 6731 H 644.132 0.393794 3.22303 0
M  V30 6732 H 645.143 4.09068 3.17622 0
M  V30 6733 H 641.82 1.60109 3.85579 0
M  V30 6734 H 643.21 5.63774 3.65525 0
M  V30 6735 N 645.93 -0.909495 1.28709 0
M  V30 6736 C 647.178 -1.65577 1.15882 0
M  V30 6737 C 647.499 -1.928 -0.292108 0
M  V30 6738 O 646.769 -1.54716 -1.20166 0
M  V30 6739 H 645.349 -0.613714 0.425869 0
M  V30 6740 H 648.011 -1.09108 1.61498 0
M  V30 6741 H 647.107 -2.61634 1.70159 0
M  V30 6742 N 647.408 -1.11026 -1.11852 0
M  V30 6743 C 648.656 -0.854769 -1.83134 0
M  V30 6744 C 648.977 0.621375 -1.84835 0
M  V30 6745 O 648.247 1.45129 -1.31584 0
M  V30 6746 H 646.827 -0.313229 -0.678157 0
M  V30 6747 H 649.489 -1.40178 -1.35411 0
M  V30 6748 H 648.585 -1.22311 -2.87135 0
M  V30 6749 N 648.886 1.2938 -0.899927 0
M  V30 6750 C 649.796 2.31462 -0.382437 0
M  V30 6751 C 650.812 1.65956 0.522929 0
M  V30 6752 O 651.988 1.97131 0.412454 0
M  V30 6753 C 649.053 3.44595 0.381472 0
M  V30 6754 C 648.114 4.25692 -0.555444 0
M  V30 6755 C 647.347 5.33422 0.172102 0
M  V30 6756 O 647.57 5.53053 1.396 0
M  V30 6757 O 646.504 5.99939 -0.485491 0
M  V30 6758 H 650.33 2.77706 -1.22934 0
M  V30 6759 H 647.915 1.33821 -0.664259 0
M  V30 6760 H 649.797 4.13474 0.813442 0
M  V30 6761 H 648.472 3.00458 1.20443 0
M  V30 6762 H 647.379 3.59453 -1.03653 0
M  V30 6763 H 648.712 4.73471 -1.34483 0
M  V30 6764 N 650.364 0.662433 1.43002 0
M  V30 6765 C 651.641 0.109096 1.95296 0
M  V30 6766 C 652.021 -1.37313 1.60338 0
M  V30 6767 O 651.369 -2.1032 0.893187 0
M  V30 6768 C 651.579 0.365096 3.47085 0
M  V30 6769 C 652.927 0.274964 4.23709 0
M  V30 6770 O 653.951 0.29816 3.5495 0
M  V30 6771 O 652.81 0.206549 5.4611 0
M  V30 6772 H 649.904 -0.00429724 0.826989 0
M  V30 6773 H 652.45 0.736308 1.52894 0
M  V30 6774 H 651.222 1.39237 3.65689 0
M  V30 6775 H 650.845 -0.294733 3.96506 0
M  V30 6776 N 651.842 -1.52309 0.404946 0
M  V30 6777 C 653.088 -2.02065 -0.172455 0
M  V30 6778 C 653.421 -1.29022 -1.45145 0
M  V30 6779 O 652.696 -0.395284 -1.90441 0
M  V30 6780 C 652.979 -3.5759 -0.424433 0
M  V30 6781 C 652.832 -4.41287 0.870945 0
M  V30 6782 C 654.151 -4.23186 -1.20837 0
M  V30 6783 H 651.27 -0.734454 -0.0612035 0
M  V30 6784 H 653.912 -1.82236 0.53759 0
M  V30 6785 H 652.062 -3.74617 -1.02929 0
M  V30 6786 H 653.734 -4.3598 1.50729 0
M  V30 6787 H 651.977 -4.07669 1.48284 0
M  V30 6788 H 652.648 -5.48171 0.649083 0
M  V30 6789 H 655.124 -4.10232 -0.696338 0
M  V30 6790 H 654 -5.31953 -1.35343 0
M  V30 6791 H 654.261 -3.81862 -2.22786 0
M  V30 6792 N 653.32 -0.135238 -1.57019 0
M  V30 6793 C 654.283 0.794707 -2.14981 0
M  V30 6794 C 655.283 1.18342 -1.08866 0
M  V30 6795 O 656.473 1.10627 -1.34563 0
M  V30 6796 C 653.605 2.07685 -2.70333 0
M  V30 6797 H 654.798 0.290696 -2.98488 0
M  V30 6798 H 652.351 0.114128 -1.55883 0
M  V30 6799 H 653.086 2.6248 -1.9046 0
M  V30 6800 H 652.871 1.80745 -3.47957 0
M  V30 6801 H 654.361 2.74127 -3.1503 0
M  V30 6802 N 654.798 1.5699 0.138552 0
M  V30 6803 C 656.044 1.84081 0.85099 0
M  V30 6804 C 656.377 0.718107 1.80435 0
M  V30 6805 O 655.652 -0.277633 1.92508 0
M  V30 6806 C 655.935 3.21699 1.61808 0
M  V30 6807 C 655.788 4.44544 0.685633 0
M  V30 6808 C 657.107 3.5664 2.57868 0
M  V30 6809 H 654.226 0.669592 0.307922 0
M  V30 6810 H 656.868 1.89646 0.11588 0
M  V30 6811 H 655.018 3.17086 2.24474 0
M  V30 6812 H 656.69 4.61248 0.0693179 0
M  V30 6813 H 654.933 4.338 -0.00421993 0
M  V30 6814 H 655.604 5.3746 1.25858 0
M  V30 6815 H 658.08 3.61918 2.05316 0
M  V30 6816 H 656.956 4.53946 3.08584 0
M  V30 6817 H 657.217 2.83036 3.39622 0
M  V30 6818 N 656.276 -0.40816 1.52223 0
M  V30 6819 C 657.523 -1.15502 1.66329 0
M  V30 6820 C 657.851 -1.90474 0.393701 0
M  V30 6821 O 657.106 -1.85507 -0.623356 0
M  V30 6822 C 657.405 -2.17422 2.83659 0
M  V30 6823 C 657.071 -1.5925 4.21841 0
M  V30 6824 C 655.733 -1.4311 4.59427 0
M  V30 6825 C 658.085 -1.16776 5.0795 0
M  V30 6826 C 655.413 -0.830148 5.80797 0
M  V30 6827 C 657.765 -0.580988 6.29926 0
M  V30 6828 C 656.429 -0.406729 6.6626 0
M  V30 6829 H 655.699 -0.422653 0.608642 0
M  V30 6830 H 658.346 -0.442114 1.86327 0
M  V30 6831 H 656.651 -2.94861 2.58001 0
M  V30 6832 H 658.348 -2.75084 2.9177 0
M  V30 6833 H 654.938 -1.72796 3.92224 0
M  V30 6834 H 659.122 -1.28055 4.79495 0
M  V30 6835 H 654.378 -0.68316 6.07571 0
M  V30 6836 H 658.552 -0.243488 6.95974 0
M  V30 6837 H 656.179 0.0610366 7.60175 0
M  V30 6838 N 657.755 -1.42862 -0.66545 0
M  V30 6839 C 658.98 -1.47456 -1.45848 0
M  V30 6840 C 659.405 -0.0900312 -1.87884 0
M  V30 6841 O 658.763 0.913587 -1.56599 0
M  V30 6842 C 658.811 -2.41514 -2.67774 0
M  V30 6843 O 657.915 -1.89296 -3.66389 0
M  V30 6844 H 657.256 -0.499236 -0.437789 0
M  V30 6845 H 659.786 -1.8765 -0.815394 0
M  V30 6846 H 659.796 -2.58409 -3.15735 0
M  V30 6847 H 658.471 -3.42099 -2.36519 0
M  V30 6848 H 657.048 -1.82003 -3.25468 0
M  V30 6849 N 659.233 0.902656 -1.29189 0
M  V30 6850 C 660.18 2.00643 -1.14066 0
M  V30 6851 C 661.15 1.66064 -0.0347756 0
M  V30 6852 O 662.335 1.8973 -0.201752 0
M  V30 6853 C 659.475 3.35214 -0.820104 0
M  V30 6854 C 658.588 3.82594 -2.00614 0
M  V30 6855 C 657.723 5.05727 -1.62522 0
M  V30 6856 C 656.762 5.45469 -2.77724 0
M  V30 6857 N 655.899 6.59789 -2.40048 0
M  V30 6858 H 660.739 2.1291 -2.08502 0
M  V30 6859 H 658.276 1.04271 -1.03759 0
M  V30 6860 H 660.234 4.12643 -0.614949 0
M  V30 6861 H 658.864 3.22682 0.0873452 0
M  V30 6862 H 657.916 3.01226 -2.32308 0
M  V30 6863 H 659.228 4.07999 -2.86946 0
M  V30 6864 H 658.382 5.90732 -1.38277 0
M  V30 6865 H 657.121 4.82155 -0.733333 0
M  V30 6866 H 656.126 4.59 -3.02653 0
M  V30 6867 H 657.351 5.71024 -3.67572 0
M  V30 6868 H 655.297 6.37826 -1.53343 0
M  V30 6869 H 655.214 6.84975 -3.19914 0
M  V30 6870 H 656.482 7.4807 -2.19116 0
M  V30 6871 N 660.711 1.11618 1.11262 0
M  V30 6872 C 661.959 0.864469 1.82678 0
M  V30 6873 C 662.28 -0.611564 1.85162 0
M  V30 6874 O 661.55 -1.44429 1.32352 0
M  V30 6875 H 660.13 0.316821 0.676486 0
M  V30 6876 H 662.792 1.40894 1.34666 0
M  V30 6877 H 661.888 1.23832 2.86482 0
M  V30 6878 N 662.189 -1.289 0.906776 0
M  V30 6879 C 663.6 -1.77336 0.58384 0
M  V30 6880 C 663.951 -1.74304 -0.900697 0
M  V30 6881 O 663.076 -1.33335 -1.70443 0
M  V30 6882 C 663.671 -3.22019 1.05304 0
M  V30 6883 C 662.23 -3.68205 0.781148 0
M  V30 6884 C 661.377 -2.48837 1.22373 0
M  V30 6885 H 664.328 -1.15462 1.08877 0
M  V30 6886 H 664.349 -3.78481 0.391414 0
M  V30 6887 H 663.861 -3.24194 2.13353 0
M  V30 6888 H 661.962 -3.71497 -0.28643 0
M  V30 6889 H 662.075 -4.58675 1.384 0
M  V30 6890 H 660.439 -2.46461 0.642594 0
M  V30 6891 H 661.222 -2.53736 2.31242 0
M  V30 6892 N 663.667 -0.670007 -1.42649 0
M  V30 6893 C 664.6 0.0613623 -2.28117 0
M  V30 6894 C 665.578 0.813414 -1.40792 0
M  V30 6895 O 666.762 0.809529 -1.70232 0
M  V30 6896 C 663.889 1.09399 -3.20546 0
M  V30 6897 C 662.935 0.438064 -4.24244 0
M  V30 6898 S 663.768 -0.800808 -5.29478 0
M  V30 6899 C 664.924 0.23086 -6.25474 0
M  V30 6900 H 665.157 -0.663606 -2.89799 0
M  V30 6901 H 662.69 -0.45939 -1.47407 0
M  V30 6902 H 664.648 1.68469 -3.74337 0
M  V30 6903 H 663.309 1.79137 -2.58009 0
M  V30 6904 H 662.502 1.21707 -4.89084 0
M  V30 6905 H 662.104 -0.0789346 -3.73917 0
M  V30 6906 H 664.396 1.09204 -6.68641 0
M  V30 6907 H 665.339 -0.382945 -7.07064 0
M  V30 6908 H 665.747 0.574191 -5.61572 0
M  V30 6909 N 665.145 1.52092 -0.413018 0
M  V30 6910 C 666.108 2.25706 0.398687 0
M  V30 6911 C 667.108 1.28221 0.970368 0
M  V30 6912 O 668.298 1.52131 0.848635 0
M  V30 6913 C 665.43 3.03029 1.5616 0
M  V30 6914 H 666.623 2.98888 -0.246131 0
M  V30 6915 H 664.176 1.5542 -0.165622 0
M  V30 6916 H 664.911 2.34205 2.24317 0
M  V30 6917 H 664.696 3.74606 1.15812 0
M  V30 6918 H 666.186 3.58857 2.13569 0
M  V30 6919 N 666.623 0.143563 1.56945 0
M  V30 6920 C 667.573 -0.809115 2.1316 0
M  V30 6921 C 668.557 -1.21176 1.05855 0
M  V30 6922 O 669.749 -1.17875 1.3204 0
M  V30 6923 C 666.878 -2.04957 2.75405 0
M  V30 6924 C 665.964 -1.67018 3.89828 0
M  V30 6925 N 666.355 -0.998822 4.9584 0
M  V30 6926 C 664.653 -1.96313 4.00471 0
M  V30 6927 C 665.354 -0.816217 5.75945 0
M  V30 6928 N 664.33 -1.349 5.26596 0
M  V30 6929 H 668.132 -0.286919 2.92496 0
M  V30 6930 H 665.646 -0.0580948 1.62296 0
M  V30 6931 H 667.643 -2.74201 3.14037 0
M  V30 6932 H 666.303 -2.57697 1.97541 0
M  V30 6933 H 667.314 -0.659975 5.13678 0
M  V30 6934 H 663.991 -2.50927 3.33679 0
M  V30 6935 H 665.381 -0.287353 6.71285 0
M  V30 6936 N 668.101 -1.57061 -0.130224 0
M  V30 6937 C 669.031 -2.02552 -1.16168 0
M  V30 6938 C 670.012 -0.907971 -1.4384 0
M  V30 6939 O 671.197 -1.17693 -1.54473 0
M  V30 6940 C 668.327 -2.42035 -2.49071 0
M  V30 6941 C 667.281 -3.5713 -2.35886 0
M  V30 6942 C 666.607 -3.82478 -3.7365 0
M  V30 6943 C 667.907 -4.89236 -1.8288 0
M  V30 6944 H 669.601 -2.8897 -0.783359 0
M  V30 6945 H 667.147 -1.39021 -0.375376 0
M  V30 6946 H 669.1 -2.72462 -3.21469 0
M  V30 6947 H 667.824 -1.52573 -2.88771 0
M  V30 6948 H 666.483 -3.26895 -1.65938 0
M  V30 6949 H 666.131 -2.9024 -4.10816 0
M  V30 6950 H 665.831 -4.59944 -3.65685 0
M  V30 6951 H 667.355 -4.15347 -4.47571 0
M  V30 6952 H 668.769 -5.18272 -2.45085 0
M  V30 6953 H 667.166 -5.70624 -1.85763 0
M  V30 6954 H 668.236 -4.78494 -0.785571 0
M  V30 6955 N 669.579 0.400081 -1.52437 0
M  V30 6956 C 670.509 1.4947 -1.7939 0
M  V30 6957 C 671.49 1.57383 -0.645329 0
M  V30 6958 O 672.675 1.72511 -0.891826 0
M  V30 6959 C 669.805 2.87201 -1.95276 0
M  V30 6960 C 668.759 2.94134 -3.10917 0
M  V30 6961 C 668.085 4.34207 -3.1204 0
M  V30 6962 C 669.385 2.64791 -4.50203 0
M  V30 6963 H 671.079 1.27165 -2.71052 0
M  V30 6964 H 668.625 0.610312 -1.30427 0
M  V30 6965 H 670.578 3.63772 -2.12715 0
M  V30 6966 H 669.302 3.10819 -1.00294 0
M  V30 6967 H 667.961 2.20009 -2.93243 0
M  V30 6968 H 667.609 4.54848 -2.14761 0
M  V30 6969 H 667.309 4.39768 -3.89715 0
M  V30 6970 H 668.833 5.127 -3.31619 0
M  V30 6971 H 670.247 3.31083 -4.68035 0
M  V30 6972 H 668.644 2.81717 -5.29864 0
M  V30 6973 H 669.714 1.60184 -4.57678 0
M  V30 6974 N 671.057 1.43213 0.657864 0
M  V30 6975 C 672.007 1.44459 1.76396 0
M  V30 6976 C 672.991 0.313641 1.57814 0
M  V30 6977 O 674.183 0.557094 1.68004 0
M  V30 6978 C 671.312 1.36586 3.14959 0
M  V30 6979 C 670.398 2.54692 3.39106 0
M  V30 6980 N 670.789 3.80059 3.33749 0
M  V30 6981 C 669.087 2.49316 3.69807 0
M  V30 6982 C 669.788 4.58606 3.57849 0
M  V30 6983 N 668.764 3.89267 3.79437 0
M  V30 6984 H 672.566 2.39265 1.70673 0
M  V30 6985 H 670.08 1.378 0.859357 0
M  V30 6986 H 672.077 1.35561 3.94245 0
M  V30 6987 H 670.737 0.427956 3.21867 0
M  V30 6988 H 671.748 4.12414 3.13266 0
M  V30 6989 H 668.425 1.6419 3.83859 0
M  V30 6990 H 669.815 5.67619 3.59525 0
M  V30 6991 N 672.536 -0.895792 1.29666 0
M  V30 6992 C 673.784 -1.64339 1.17631 0
M  V30 6993 C 674.105 -1.93099 -0.271643 0
M  V30 6994 O 673.375 -1.55981 -1.18518 0
M  V30 6995 H 671.955 -0.609162 0.432354 0
M  V30 6996 H 674.617 -1.07389 1.62646 0
M  V30 6997 H 673.713 -2.59815 1.72924 0
M  V30 6998 N 674.014 -1.12206 -1.10668 0
M  V30 6999 C 675.26 -0.877172 -1.82848 0
M  V30 7000 C 675.593 0.595571 -1.84842 0
M  V30 7001 O 674.868 1.44013 -1.30731 0
M  V30 7002 C 675.151 -1.44957 -3.29635 0
M  V30 7003 C 675.004 -2.99051 -3.35989 0
M  V30 7004 C 676.323 -1.10714 -4.25946 0
M  V30 7005 H 673.442 -0.320103 -0.663854 0
M  V30 7006 H 676.084 -1.38827 -1.2972 0
M  V30 7007 H 674.234 -1.01488 -3.7501 0
M  V30 7008 H 675.906 -3.51182 -2.99113 0
M  V30 7009 H 674.149 -3.34705 -2.75962 0
M  V30 7010 H 674.82 -3.34194 -4.39339 0
M  V30 7011 H 677.296 -1.48254 -3.88793 0
M  V30 7012 H 676.172 -1.5343 -5.2702 0
M  V30 7013 H 676.433 -0.019 -4.42096 0
M  V30 7014 N 675.492 1.28418 -0.913599 0
M  V30 7015 C 676.442 2.24928 -0.373042 0
M  V30 7016 C 677.426 1.52444 0.514753 0
M  V30 7017 O 678.618 1.73414 0.3545 0
M  V30 7018 C 675.747 3.41124 0.385896 0
M  V30 7019 C 674.833 4.20929 -0.51761 0
M  V30 7020 N 675.224 4.78777 -1.63113 0
M  V30 7021 C 673.522 4.44865 -0.317969 0
M  V30 7022 C 674.223 5.38822 -2.19193 0
M  V30 7023 N 673.199 5.22974 -1.48321 0
M  V30 7024 H 677.001 2.67224 -1.22346 0
M  V30 7025 H 674.515 1.43187 -0.766236 0
M  V30 7026 H 676.512 4.09347 0.789997 0
M  V30 7027 H 675.172 3.00362 1.23341 0
M  V30 7028 H 676.183 4.77148 -2.01372 0
M  V30 7029 H 672.86 4.14614 0.49004 0
M  V30 7030 H 674.25 5.94615 -3.12861 0
M  V30 7031 N 676.97 0.677563 1.42291 0
M  V30 7032 C 677.88 0.000962654 2.346 0
M  V30 7033 C 678.896 -0.785833 1.55244 0
M  V30 7034 O 680.072 -0.727523 1.87801 0
M  V30 7035 C 677.137 -0.936746 3.33805 0
M  V30 7036 C 676.198 -0.144173 4.29058 0
M  V30 7037 C 675.431 -1.03722 5.23524 0
M  V30 7038 O 675.654 -2.27675 5.22992 0
M  V30 7039 O 674.588 -0.496542 5.99848 0
M  V30 7040 H 678.414 0.761397 2.94001 0
M  V30 7041 H 675.999 0.43781 1.42841 0
M  V30 7042 H 677.881 -1.47497 3.94744 0
M  V30 7043 H 676.556 -1.67698 2.76874 0
M  V30 7044 H 675.463 0.438224 3.71524 0
M  V30 7045 H 676.796 0.55701 4.89038 0
M  V30 7046 N 678.448 -1.51871 0.421078 0
M  V30 7047 C 679.38 -2.25052 -0.434065 0
M  V30 7048 C 680.393 -1.28458 -1.00013 0
M  V30 7049 O 681.582 -1.54323 -0.897033 0
M  V30 7050 C 678.682 -2.97813 -1.61743 0
M  V30 7051 C 677.855 -4.21374 -1.17315 0
M  V30 7052 C 676.914 -4.76854 -2.22478 0
M  V30 7053 O 675.94 -5.39123 -1.82577 0
M  V30 7054 N 677.142 -4.59467 -3.54782 0
M  V30 7055 H 679.907 -2.99077 0.193073 0
M  V30 7056 H 677.468 -1.59972 0.249088 0
M  V30 7057 H 679.46 -3.3182 -2.31685 0
M  V30 7058 H 678.03 -2.26899 -2.15024 0
M  V30 7059 H 677.25 -3.93046 -0.3014 0
M  V30 7060 H 678.538 -5.01591 -0.853444 0
M  V30 7061 H 677.936 -4.09832 -3.89941 0
M  V30 7062 H 676.493 -4.9788 -4.20665 0
M  V30 7063 N 679.926 -0.151884 -1.56866 0
M  V30 7064 C 680.874 0.80299 -2.183 0
M  V30 7065 C 681.868 1.25174 -1.14139 0
M  V30 7066 O 683.074 1.21966 -1.3238 0
M  V30 7067 H 679.449 0.277169 -0.699057 0
M  V30 7068 H 681.42 0.260699 -2.97259 0
M  V30 7069 C 680.169 2.03009 -2.82281 0
M  V30 7070 H 679.492 1.69377 -3.62148 0
M  V30 7071 H 680.932 2.67753 -3.28762 0
M  V30 7072 C 679.391 2.84123 -1.81041 0
M  V30 7073 O 679.921 3.8063 -1.28388 0
M  V30 7074 N 678.127 2.48753 -1.50234 0
M  V30 7075 H 677.674 1.70337 -1.93244 0
M  V30 7076 H 677.632 3.03316 -0.827445 0
M  V30 7077 N 681.404 1.57128 0.121893 0
M  V30 7078 C 682.634 1.88609 0.843227 0
M  V30 7079 C 683.042 0.740917 1.74089 0
M  V30 7080 O 682.385 -0.297426 1.81276 0
M  V30 7081 C 682.447 3.15073 1.73117 0
M  V30 7082 C 682.111 4.45742 1.0081 0
M  V30 7083 C 683.108 5.18719 0.350255 0
M  V30 7084 C 680.793 4.92444 0.99014 0
M  V30 7085 C 682.787 6.36617 -0.315889 0
M  V30 7086 C 680.474 6.10261 0.320196 0
M  V30 7087 C 681.472 6.82194 -0.331666 0
M  V30 7088 O 681.16 7.97769 -0.990927 0
M  V30 7089 H 680.892 0.628919 0.247865 0
M  V30 7090 H 683.446 2.05096 0.111725 0
M  V30 7091 H 681.676 2.9466 2.50424 0
M  V30 7092 H 683.365 3.32597 2.32667 0
M  V30 7093 H 684.131 4.83693 0.35577 0
M  V30 7094 H 680.01 4.36361 1.48695 0
M  V30 7095 H 683.554 6.92701 -0.825272 0
M  V30 7096 H 679.451 6.44743 0.312433 0
M  V30 7097 H 680.219 8.13591 -0.895113 0
M  V30 7098 N 682.882 -0.391992 1.52647 0
M  V30 7099 C 684.128 -1.139 1.67793 0
M  V30 7100 C 684.461 -1.89711 0.41514 0
M  V30 7101 O 683.736 -1.85431 -0.586979 0
M  V30 7102 C 684.019 -2.11966 2.91105 0
M  V30 7103 C 683.872 -1.39939 4.27478 0
M  V30 7104 C 685.191 -3.1243 3.09961 0
M  V30 7105 H 682.31 -0.412707 0.610608 0
M  V30 7106 H 684.952 -0.422725 1.85238 0
M  V30 7107 H 683.102 -2.73048 2.76364 0
M  V30 7108 H 684.774 -0.818439 4.53982 0
M  V30 7109 H 683.017 -0.701246 4.28095 0
M  V30 7110 H 683.688 -2.1158 5.09841 0
M  V30 7111 H 686.164 -2.61435 3.23714 0
M  V30 7112 H 685.04 -3.78294 3.97725 0
M  V30 7113 H 685.301 -3.81127 2.24042 0
M  V30 7114 N 684.36 -1.4356 -0.65026 0
M  V30 7115 C 685.771 -1.40324 -1.2315 0
M  V30 7116 C 686.122 -0.108812 -1.95898 0
M  V30 7117 O 685.247 0.79163 -2.01401 0
M  V30 7118 C 685.842 -2.54195 -2.23987 0
M  V30 7119 C 684.401 -2.54215 -2.77582 0
M  V30 7120 C 683.548 -2.31752 -1.5227 0
M  V30 7121 H 686.499 -1.52418 -0.442095 0
M  V30 7122 H 686.52 -2.25854 -3.0622 0
M  V30 7123 H 686.032 -3.48392 -1.71011 0
M  V30 7124 H 684.133 -1.63907 -3.34612 0
M  V30 7125 H 684.246 -3.52081 -3.24925 0
M  V30 7126 H 682.61 -1.80476 -1.79723 0
M  V30 7127 H 683.393 -3.28037 -1.01225 0
M  V30 7128 N 685.838 0.888903 -1.30139 0
M  V30 7129 C 686.788 1.9814 -1.12803 0
M  V30 7130 C 687.772 1.60839 -0.0443137 0
M  V30 7131 O 688.964 1.74971 -0.267208 0
M  V30 7132 C 686.093 3.33416 -0.817849 0
M  V30 7133 C 685.179 3.77043 -1.94163 0
M  V30 7134 N 685.57 3.92805 -3.18651 0
M  V30 7135 C 683.868 4.06407 -1.8371 0
M  V30 7136 C 684.569 4.29746 -3.92038 0
M  V30 7137 N 683.545 4.3939 -3.20059 0
M  V30 7138 H 687.347 2.08411 -2.07225 0
M  V30 7139 H 684.861 1.07845 -1.21421 0
M  V30 7140 H 686.858 4.11405 -0.674668 0
M  V30 7141 H 685.518 3.24484 0.118344 0
M  V30 7142 H 686.529 3.78042 -3.53984 0
M  V30 7143 H 683.206 4.05972 -0.974331 0
M  V30 7144 H 684.596 4.49695 -4.99223 0
M  V30 7145 N 687.317 1.12792 1.10072 0
M  V30 7146 C 688.563 0.886857 1.82381 0
M  V30 7147 C 688.896 -0.58576 1.85155 0
M  V30 7148 O 688.171 -1.43317 1.31493 0
M  V30 7149 C 688.454 1.46703 3.28862 0
M  V30 7150 C 688.307 3.00829 3.34398 0
M  V30 7151 C 689.626 1.12971 4.25353 0
M  V30 7152 H 686.745 0.32362 0.662148 0
M  V30 7153 H 689.387 1.39513 1.28982 0
M  V30 7154 H 687.537 1.03476 3.74466 0
M  V30 7155 H 689.209 3.52764 2.97247 0
M  V30 7156 H 687.452 3.36164 2.74183 0
M  V30 7157 H 688.123 3.36519 4.3756 0
M  V30 7158 H 690.599 1.50313 3.88001 0
M  V30 7159 H 689.475 1.56223 5.26199 0
M  V30 7160 H 689.736 0.0424452 4.4208 0
M  V30 7161 N 688.795 -1.27931 0.920396 0
M  V30 7162 C 689.728 -2.2537 0.358285 0
M  V30 7163 C 690.706 -1.53328 -0.541242 0
M  V30 7164 O 691.89 -1.82196 -0.483399 0
M  V30 7165 C 689.017 -3.35178 -0.487193 0
M  V30 7166 C 688.063 -4.25079 0.347881 0
M  V30 7167 S 688.896 -5.05792 1.75883 0
M  V30 7168 C 690.052 -6.19089 0.920832 0
M  V30 7169 H 690.285 -2.72701 1.18413 0
M  V30 7170 H 687.818 -1.36474 0.722088 0
M  V30 7171 H 689.776 -3.98895 -0.96916 0
M  V30 7172 H 688.437 -2.865 -1.28749 0
M  V30 7173 H 687.63 -5.03113 -0.298912 0
M  V30 7174 H 687.232 -3.66119 0.763748 0
M  V30 7175 H 689.524 -6.77326 0.15349 0
M  V30 7176 H 690.467 -6.8803 1.67394 0
M  V30 7177 H 690.875 -5.62573 0.466069 0
M  V30 7178 N 690.273 -0.685099 -1.4193 0
M  V30 7179 C 691.236 -0.0222632 -2.29189 0
M  V30 7180 C 692.236 0.7186 -1.4385 0
M  V30 7181 O 693.426 0.555058 -1.6512 0
M  V30 7182 C 690.558 0.979013 -3.2654 0
M  V30 7183 H 691.751 -0.790424 -2.89296 0
M  V30 7184 H 689.304 -0.448012 -1.49742 0
M  V30 7185 H 690.039 1.77531 -2.71392 0
M  V30 7186 H 689.824 0.451037 -3.89497 0
M  V30 7187 H 691.314 1.44091 -3.91954 0
M  V30 7188 N 691.751 1.51645 -0.429126 0
M  V30 7189 C 692.981 2.06133 0.138793 0
M  V30 7190 C 693.389 1.29735 1.37716 0
M  V30 7191 O 692.732 0.347955 1.80375 0
M  V30 7192 C 692.794 3.55504 0.534493 0
M  V30 7193 C 692.458 4.53098 -0.595917 0
M  V30 7194 C 693.455 4.98815 -1.46558 0
M  V30 7195 C 691.14 4.96296 -0.774309 0
M  V30 7196 C 693.134 5.86394 -2.4984 0
M  V30 7197 C 690.821 5.83667 -1.81042 0
M  V30 7198 C 691.819 6.28613 -2.67086 0
M  V30 7199 O 691.507 7.14251 -3.68919 0
M  V30 7200 H 691.239 0.675833 0.0150263 0
M  V30 7201 H 693.793 1.96301 -0.604584 0
M  V30 7202 H 692.023 3.63092 1.33045 0
M  V30 7203 H 693.712 3.92545 1.03262 0
M  V30 7204 H 694.478 4.66143 -1.33925 0
M  V30 7205 H 690.357 4.60859 -0.114178 0
M  V30 7206 H 693.901 6.21398 -3.17034 0
M  V30 7207 H 689.798 6.15753 -1.93698 0
M  V30 7208 H 690.566 7.3241 -3.65402 0
M  V30 7209 N 693.229 0.160201 1.56784 0
M  V30 7210 C 694.192 -0.760405 2.16219 0
M  V30 7211 C 695.192 -1.16595 1.10735 0
M  V30 7212 O 696.382 -1.08472 1.36306 0
M  V30 7213 C 693.514 -2.03358 2.73603 0
M  V30 7214 H 694.707 -0.243173 2.98912 0
M  V30 7215 H 692.26 -0.0893139 1.56045 0
M  V30 7216 H 692.995 -2.59416 1.94612 0
M  V30 7217 H 692.78 -1.75186 3.50788 0
M  V30 7218 H 694.27 -2.69081 3.19351 0
M  V30 7219 N 694.707 -1.5719 -0.113559 0
M  V30 7220 C 695.67 -1.99796 -1.12314 0
M  V30 7221 C 696.67 -0.888847 -1.34001 0
M  V30 7222 O 697.86 -1.15476 -1.30426 0
M  V30 7223 C 694.992 -2.34279 -2.47641 0
M  V30 7224 H 696.185 -2.90193 -0.756825 0
M  V30 7225 H 693.738 -1.52144 -0.358029 0
M  V30 7226 H 694.473 -1.46778 -2.89183 0
M  V30 7227 H 694.258 -3.15175 -2.33253 0
M  V30 7228 H 695.748 -2.67963 -3.2029 0
M  V30 7229 N 696.185 0.383891 -1.52853 0
M  V30 7230 C 697.425 1.13731 -1.69837 0
M  V30 7231 C 697.789 1.87086 -0.431611 0
M  V30 7232 O 698.99 2.64518 -0.477886 0
M  V30 7233 C 697.261 2.08551 -2.90243 0
M  V30 7234 S 698.82 2.9166 -3.27841 0
M  V30 7235 H 695.638 0.384911 -0.5978 0
M  V30 7236 H 698.24 0.42103 -1.90913 0
M  V30 7237 H 696.944 1.53392 -3.80656 0
M  V30 7238 H 696.475 2.8468 -2.71516 0
M  V30 7239 H 698.49 4.10723 -2.78426 0
M  V30 7240 N 697.663 1.43903 0.642637 0
M  V30 7241 C 698.912 1.45362 1.39831 0
M  V30 7242 C 699.225 0.0856289 1.95412 0
M  V30 7243 O 700.431 -0.0222856 2.71491 0
M  V30 7244 C 698.887 2.55857 2.53111 0
M  V30 7245 C 698.495 3.98811 2.04092 0
M  V30 7246 C 700.239 2.66524 3.30402 0
M  V30 7247 C 698.146 5.00751 3.14647 0
M  V30 7248 H 697.076 0.540777 0.52543 0
M  V30 7249 H 699.727 1.69929 0.692559 0
M  V30 7250 H 698.109 2.2451 3.26207 0
M  V30 7251 H 699.283 4.3967 1.37938 0
M  V30 7252 H 697.598 3.92284 1.39651 0
M  V30 7253 H 700.195 3.39858 4.12796 0
M  V30 7254 H 700.538 1.71949 3.79129 0
M  V30 7255 H 701.071 2.97224 2.64392 0
M  V30 7256 H 697.81 5.96914 2.70876 0
M  V30 7257 H 697.33 4.64495 3.79479 0
M  V30 7258 H 699.009 5.23933 3.79609 0
M  V30 7259 N 699.141 -0.881989 1.30609 0
M  V30 7260 C 700.389 -1.63082 1.19368 0
M  V30 7261 C 700.71 -1.93376 -0.251147 0
M  V30 7262 O 699.98 -1.5723 -1.16857 0
M  V30 7263 H 698.56 -0.604542 0.438791 0
M  V30 7264 H 701.222 -1.05658 1.63776 0
M  V30 7265 H 700.318 -2.57966 1.7567 0
M  V30 7266 N 700.619 -1.13374 -1.09472 0
M  V30 7267 C 701.582 -0.813639 -2.14272 0
M  V30 7268 C 702.582 0.176677 -1.59826 0
M  V30 7269 O 703.772 -0.0503441 -1.74127 0
M  V30 7270 C 700.904 -0.210897 -3.40247 0
M  V30 7271 H 702.097 -1.74229 -2.44099 0
M  V30 7272 H 699.65 -0.938304 -1.25002 0
M  V30 7273 H 700.385 0.726998 -3.16046 0
M  V30 7274 H 700.17 -0.924048 -3.81056 0
M  V30 7275 H 701.66 -0.00377603 -4.176 0
M  V30 7276 N 702.098 1.27442 -0.927168 0
M  V30 7277 C 703.046 2.28844 -0.416333 0
M  V30 7278 C 704.04 1.61882 0.499057 0
M  V30 7279 O 705.246 1.75969 0.378817 0
M  V30 7280 H 701.621 0.742989 -0.116065 0
M  V30 7281 H 703.592 2.69344 -1.28438 0
M  V30 7282 C 702.341 3.4626 0.316107 0
M  V30 7283 H 701.664 3.97999 -0.379082 0
M  V30 7284 H 703.104 4.19173 0.637975 0
M  V30 7285 C 701.563 3.00211 1.5289 0
M  V30 7286 O 702.093 3.03837 2.62766 0
M  V30 7287 N 700.299 2.55713 1.38054 0
M  V30 7288 H 699.846 2.52962 0.4866 0
M  V30 7289 H 699.804 2.25264 2.19325 0
M  V30 7290 N 703.576 0.692616 1.41565 0
M  V30 7291 C 704.506 0.0397325 2.33466 0
M  V30 7292 C 705.487 -0.770334 1.51657 0
M  V30 7293 O 706.672 -0.723903 1.80203 0
M  V30 7294 C 703.802 -0.899495 3.3545 0
M  V30 7295 C 702.756 -0.196738 4.27548 0
M  V30 7296 C 702.082 -1.25012 5.19881 0
M  V30 7297 C 703.382 0.935158 5.1386 0
M  V30 7298 H 705.076 0.807296 2.88311 0
M  V30 7299 H 702.622 0.389665 1.38628 0
M  V30 7300 H 704.575 -1.36545 3.98665 0
M  V30 7301 H 703.299 -1.69869 2.78948 0
M  V30 7302 H 701.958 0.249158 3.65752 0
M  V30 7303 H 701.606 -2.04177 4.59696 0
M  V30 7304 H 701.306 -0.784931 5.82334 0
M  V30 7305 H 702.83 -1.71665 5.85972 0
M  V30 7306 H 704.244 0.549619 5.70659 0
M  V30 7307 H 702.641 1.32726 5.85238 0
M  V30 7308 H 703.711 1.77613 4.512 0
M  V30 7309 N 705.054 -1.51416 0.437162 0
M  V30 7310 C 706.302 -2.01687 -0.129108 0
M  V30 7311 C 706.623 -1.32329 -1.43227 0
M  V30 7312 O 705.893 -0.457796 -1.90476 0
M  V30 7313 H 704.473 -0.745277 -0.0507023 0
M  V30 7314 H 707.135 -1.86075 0.579828 0
M  V30 7315 H 706.231 -3.10605 -0.305141 0
M  V30 7316 N 706.532 -0.168513 -1.56696 0
M  V30 7317 C 707.482 0.7751 -2.14421 0
M  V30 7318 C 708.466 1.19476 -1.07769 0
M  V30 7319 O 709.658 1.15759 -1.33898 0
M  V30 7320 C 706.787 2.00549 -2.7863 0
M  V30 7321 C 705.873 1.60795 -3.92436 0
M  V30 7322 N 706.264 0.919812 -4.97366 0
M  V30 7323 C 704.562 1.89917 -4.03544 0
M  V30 7324 C 705.263 0.724485 -5.77171 0
M  V30 7325 N 704.239 1.26505 -5.28675 0
M  V30 7326 H 708.041 0.240349 -2.92916 0
M  V30 7327 H 705.555 0.0322675 -1.62368 0
M  V30 7328 H 707.552 2.6917 -3.1836 0
M  V30 7329 H 706.212 2.54522 -2.01615 0
M  V30 7330 H 707.223 0.578169 -5.14663 0
M  V30 7331 H 703.9 2.45587 -3.37629 0
M  V30 7332 H 705.29 0.180521 -6.71657 0
M  V30 7333 N 708.01 1.57248 0.105221 0
M  V30 7334 C 709.25 1.87393 0.816283 0
M  V30 7335 C 709.614 0.758249 1.76393 0
M  V30 7336 O 710.815 0.941835 2.5176 0
M  V30 7337 C 709.086 3.22775 1.53463 0
M  V30 7338 S 710.645 3.74588 2.28537 0
M  V30 7339 H 707.463 0.656847 0.272164 0
M  V30 7340 H 710.065 1.9536 0.073909 0
M  V30 7341 H 708.769 4.01905 0.830674 0
M  V30 7342 H 708.3 3.17921 2.3171 0
M  V30 7343 H 710.315 3.47193 3.54502 0
M  V30 7344 N 709.488 -0.375779 1.53054 0
M  V30 7345 C 710.451 -1.44254 1.7811 0
M  V30 7346 C 711.451 -1.47018 0.651328 0
M  V30 7347 O 712.641 -1.47957 0.919472 0
M  V30 7348 C 709.773 -2.8345 1.89391 0
M  V30 7349 H 710.966 -1.23316 2.73374 0
M  V30 7350 H 708.519 -0.608312 1.43977 0
M  V30 7351 H 709.254 -3.09716 0.961589 0
M  V30 7352 H 709.039 -2.82844 2.71555 0
M  V30 7353 H 710.529 -3.60722 2.10404 0
M  V30 7354 N 710.966 -1.44241 -0.634997 0
M  V30 7355 C 712.377 -1.41622 -1.21655 0
M  V30 7356 C 712.728 -0.129584 -1.95772 0
M  V30 7357 O 711.853 0.770225 -2.02229 0
M  V30 7358 C 712.448 -2.56557 -2.21278 0
M  V30 7359 C 711.007 -2.57145 -2.7487 0
M  V30 7360 C 710.154 -2.33354 -1.49804 0
M  V30 7361 H 713.105 -1.52878 -0.425905 0
M  V30 7362 H 713.126 -2.29089 -3.03807 0
M  V30 7363 H 712.638 -3.50186 -1.67306 0
M  V30 7364 H 710.739 -1.67447 -3.32855 0
M  V30 7365 H 710.852 -3.55507 -3.21172 0
M  V30 7366 H 709.216 -1.82372 -1.77799 0
M  V30 7367 H 709.999 -3.29092 -0.977402 0
M  V30 7368 N 712.444 0.87505 -1.31075 0
M  V30 7369 C 713.407 1.96333 -1.18263 0
M  V30 7370 C 714.407 1.60416 -0.111106 0
M  V30 7371 O 715.597 1.7044 -0.359987 0
M  V30 7372 C 712.729 3.31036 -0.81414 0
M  V30 7373 H 713.922 2.09125 -2.14958 0
M  V30 7374 H 711.475 1.06271 -1.14614 0
M  V30 7375 H 712.21 3.23944 0.151875 0
M  V30 7376 H 711.995 3.58476 -1.58862 0
M  V30 7377 H 713.485 4.10842 -0.748249 0
M  V30 7378 N 713.922 1.13953 1.08869 0
M  V30 7379 C 715.147 0.928559 1.85452 0
M  V30 7380 C 715.572 -0.517642 1.80837 0
M  V30 7381 O 714.93 -1.36779 1.19001 0
M  V30 7382 C 714.978 1.42814 3.31114 0
M  V30 7383 O 714.082 0.617129 4.07756 0
M  V30 7384 H 713.423 0.33235 0.574839 0
M  V30 7385 H 715.953 1.5156 1.37443 0
M  V30 7386 H 715.963 1.43425 3.8196 0
M  V30 7387 H 714.638 2.48109 3.33788 0
M  V30 7388 H 713.215 0.679365 3.66659 0
M  V30 7389 N 715.4 -1.26948 0.933913 0
M  V30 7390 C 716.625 -1.98724 0.593589 0
M  V30 7391 C 717.05 -1.6915 -0.822801 0
M  V30 7392 O 716.408 -0.93533 -1.5531 0
M  V30 7393 C 716.456 -3.50834 0.833542 0
M  V30 7394 O 715.56 -4.12284 -0.0978788 0
M  V30 7395 H 714.901 -0.623683 0.227849 0
M  V30 7396 H 717.431 -1.61599 1.25486 0
M  V30 7397 H 717.441 -4.01018 0.75156 0
M  V30 7398 H 716.116 -3.71691 1.86597 0
M  V30 7399 H 714.693 -3.72884 0.0345443 0
M  V30 7400 N 716.879 -0.700114 -1.41195 0
M  V30 7401 C 717.809 -0.0521132 -2.33442 0
M  V30 7402 C 718.79 0.76228 -1.52063 0
M  V30 7403 O 719.975 0.714336 -1.80585 0
M  V30 7404 C 717.105 0.881693 -3.35922 0
M  V30 7405 C 716.059 0.174062 -4.27646 0
M  V30 7406 C 715.385 1.22254 -5.20536 0
M  V30 7407 C 716.685 -0.962396 -5.13357 0
M  V30 7408 H 718.379 -0.822574 -2.87879 0
M  V30 7409 H 715.925 -0.397011 -1.38419 0
M  V30 7410 H 717.878 1.34429 -3.99383 0
M  V30 7411 H 716.602 1.68387 -2.79845 0
M  V30 7412 H 715.261 -0.268551 -3.65615 0
M  V30 7413 H 714.909 2.01736 -4.60773 0
M  V30 7414 H 714.609 0.754038 -5.82742 0
M  V30 7415 H 716.133 1.68555 -5.86874 0
M  V30 7416 H 717.547 -0.579875 -5.7036 0
M  V30 7417 H 715.944 -1.35828 -5.84526 0
M  V30 7418 H 717.014 -1.80003 -4.50252 0
M  V30 7419 N 718.357 1.51182 -0.445186 0
M  V30 7420 C 719.304 2.27939 0.362291 0
M  V30 7421 C 720.274 1.31864 1.01 0
M  V30 7422 O 721.459 1.60776 1.02741 0
M  V30 7423 C 718.599 3.13016 1.45311 0
M  V30 7424 C 717.712 4.24093 0.822757 0
M  V30 7425 C 716.847 4.96467 1.88928 0
M  V30 7426 C 715.886 5.99454 1.23778 0
M  V30 7427 N 715.023 6.65206 2.24602 0
M  V30 7428 H 719.863 2.965 -0.29862 0
M  V30 7429 H 717.4 1.46237 -0.15911 0
M  V30 7430 H 719.358 3.60673 2.09692 0
M  V30 7431 H 717.988 2.46553 2.08354 0
M  V30 7432 H 717.04 3.80341 0.0670364 0
M  V30 7433 H 718.352 4.97853 0.307184 0
M  V30 7434 H 717.506 5.47712 2.60953 0
M  V30 7435 H 716.245 4.22355 2.4386 0
M  V30 7436 H 715.25 5.47494 0.503042 0
M  V30 7437 H 716.475 6.75527 0.695694 0
M  V30 7438 H 714.421 5.93901 2.78599 0
M  V30 7439 H 714.338 7.34756 1.77958 0
M  V30 7440 H 715.606 7.21078 2.96085 0
M  V30 7441 N 719.835 0.176821 1.56605 0
M  V30 7442 C 721.112 -0.513365 1.88743 0
M  V30 7443 C 721.492 -1.80929 1.08757 0
M  V30 7444 O 720.84 -2.27765 0.183127 0
M  V30 7445 C 721.05 -0.749925 3.40848 0
M  V30 7446 C 722.398 -1.07747 4.10701 0
M  V30 7447 O 723.422 -0.838277 3.46196 0
M  V30 7448 O 722.281 -1.52901 5.24675 0
M  V30 7449 H 719.375 -0.265296 0.783292 0
M  V30 7450 H 721.921 0.215669 1.68324 0
M  V30 7451 H 720.693 0.16599 3.90948 0
M  V30 7452 H 720.316 -1.53208 3.66897 0
M  V30 7453 N 721.313 -1.57302 -0.09688 0
M  V30 7454 C 722.26 -2.01933 -1.11766 0
M  V30 7455 C 723.23 -0.895329 -1.39904 0
M  V30 7456 O 724.415 -1.16119 -1.51397 0
M  V30 7457 C 721.555 -2.44726 -2.43317 0
M  V30 7458 C 720.668 -3.70639 -2.21925 0
M  V30 7459 C 719.803 -4.02318 -3.46862 0
M  V30 7460 C 718.842 -5.21346 -3.20725 0
M  V30 7461 N 717.979 -5.48787 -4.37924 0
M  V30 7462 H 722.819 -2.88919 -0.730075 0
M  V30 7463 H 720.356 -1.42901 -0.348962 0
M  V30 7464 H 722.314 -2.6758 -3.20088 0
M  V30 7465 H 720.944 -1.60753 -2.79926 0
M  V30 7466 H 719.996 -3.55271 -1.35965 0
M  V30 7467 H 721.308 -4.57557 -1.98603 0
M  V30 7468 H 720.462 -4.25939 -4.32042 0
M  V30 7469 H 719.201 -3.13918 -3.73238 0
M  V30 7470 H 718.206 -4.97547 -2.33938 0
M  V30 7471 H 719.431 -6.11343 -2.95697 0
M  V30 7472 H 717.377 -4.63346 -4.64378 0
M  V30 7473 H 717.294 -6.30073 -4.17785 0
M  V30 7474 H 718.562 -5.76943 -5.24173 0
M  V30 7475 N 722.791 0.367657 -1.53252 0
M  V30 7476 C 724.019 1.13119 -1.73239 0
M  V30 7477 C 724.434 1.831 -0.460404 0
M  V30 7478 O 723.791 1.73483 0.566557 0
M  V30 7479 C 723.842 2.16308 -2.89643 0
M  V30 7480 O 723.563 1.49175 -4.1192 0
M  V30 7481 C 725.064 3.05224 -3.21486 0
M  V30 7482 H 722.284 0.338318 -0.579467 0
M  V30 7483 H 724.828 0.42721 -1.99988 0
M  V30 7484 H 722.983 2.82307 -2.65295 0
M  V30 7485 H 723.397 2.17912 -4.7709 0
M  V30 7486 H 724.871 3.73613 -4.06346 0
M  V30 7487 H 725.348 3.69919 -2.36763 0
M  V30 7488 H 725.954 2.44843 -3.47753 0
M  V30 7489 N 724.269 1.44576 0.627338 0
M  V30 7490 C 725.219 1.48168 1.73293 0
M  V30 7491 C 726.203 0.347045 1.57113 0
M  V30 7492 O 727.395 0.592605 1.66785 0
M  V30 7493 C 724.524 1.43236 3.11991 0
M  V30 7494 C 723.61 2.61828 3.33627 0
M  V30 7495 N 724.001 3.87053 3.25612 0
M  V30 7496 C 722.299 2.57104 3.64436 0
M  V30 7497 C 723 4.66093 3.48041 0
M  V30 7498 N 721.976 3.97228 3.71095 0
M  V30 7499 H 725.778 2.42832 1.6556 0
M  V30 7500 H 723.292 1.39592 0.829934 0
M  V30 7501 H 725.289 1.43893 3.91281 0
M  V30 7502 H 723.949 0.496133 3.20887 0
M  V30 7503 H 724.96 4.18966 3.04447 0
M  V30 7504 H 721.637 1.72295 3.8029 0
M  V30 7505 H 723.027 5.75117 3.47404 0
M  V30 7506 N 725.747 -0.868086 1.31537 0
M  V30 7507 C 726.975 -1.65402 1.24298 0
M  V30 7508 C 727.39 -1.87827 -0.191389 0
M  V30 7509 O 726.747 -1.43776 -1.12404 0
M  V30 7510 C 726.798 -3.02093 1.9855 0
M  V30 7511 O 726.519 -2.80668 3.36388 0
M  V30 7512 C 728.02 -3.96538 1.98173 0
M  V30 7513 H 725.24 -0.515598 0.429417 0
M  V30 7514 H 727.784 -1.0834 1.73444 0
M  V30 7515 H 725.939 -3.55838 1.53161 0
M  V30 7516 H 726.353 -3.67504 3.74221 0
M  V30 7517 H 727.827 -4.8976 2.54635 0
M  V30 7518 H 728.304 -4.28474 0.964697 0
M  V30 7519 H 728.91 -3.48729 2.4345 0
M  V30 7520 N 727.225 -1.14528 -1.08264 0
M  V30 7521 C 728.465 -0.924808 -1.82282 0
M  V30 7522 C 728.829 0.538881 -1.84283 0
M  V30 7523 O 730.03 0.877355 -2.54079 0
M  V30 7524 C 728.301 -1.51102 -3.23887 0
M  V30 7525 S 729.86 -1.43232 -4.14765 0
M  V30 7526 H 726.678 -0.333052 -0.62817 0
M  V30 7527 H 729.28 -1.45905 -1.30123 0
M  V30 7528 H 727.984 -2.56942 -3.20014 0
M  V30 7529 H 727.515 -0.975234 -3.8112 0
M  V30 7530 H 729.53 -0.418843 -4.94429 0
M  V30 7531 N 728.703 1.26451 -0.940633 0
M  V30 7532 C 730.114 1.75726 -0.630653 0
M  V30 7533 C 730.465 1.76631 0.854167 0
M  V30 7534 O 729.59 1.37807 1.66848 0
M  V30 7535 C 730.185 3.19114 -1.13805 0
M  V30 7536 C 728.744 3.66005 -0.878497 0
M  V30 7537 C 727.891 2.45505 -1.28928 0
M  V30 7538 H 730.842 1.12535 -1.119 0
M  V30 7539 H 730.863 3.77311 -0.491625 0
M  V30 7540 H 730.375 3.18424 -2.21874 0
M  V30 7541 H 728.476 3.72126 0.187833 0
M  V30 7542 H 728.589 4.54844 -1.50512 0
M  V30 7543 H 726.953 2.4467 -0.707713 0
M  V30 7544 H 727.736 2.47516 -2.37888 0
M  V30 7545 N 730.181 0.707592 1.40822 0
M  V30 7546 C 731.592 0.317011 1.83989 0
M  V30 7547 C 731.943 -1.14697 1.59182 0
M  V30 7548 O 731.068 -1.8818 1.06852 0
M  V30 7549 C 731.663 0.568593 3.33995 0
M  V30 7550 C 730.222 0.231804 3.75686 0
M  V30 7551 C 729.369 0.844933 2.64114 0
M  V30 7552 H 732.32 0.907349 1.30203 0
M  V30 7553 H 732.341 -0.168798 3.80125 0
M  V30 7554 H 731.853 1.63417 3.52018 0
M  V30 7555 H 729.954 -0.82903 3.6326 0
M  V30 7556 H 730.067 0.695219 4.74029 0
M  V30 7557 H 728.431 0.273588 2.53226 0
M  V30 7558 H 729.214 1.91462 2.84951 0
M  V30 7559 N 731.66 -1.50943 0.453197 0
M  V30 7560 C 732.9 -2.0412 -0.106894 0
M  V30 7561 C 733.264 -1.32895 -1.38575 0
M  V30 7562 O 734.465 -1.76529 -2.02709 0
M  V30 7563 C 732.736 -3.561 -0.304565 0
M  V30 7564 S 734.295 -4.3096 -0.825784 0
M  V30 7565 H 731.113 -0.710581 -0.0243969 0
M  V30 7566 H 733.715 -1.85534 0.616239 0
M  V30 7567 H 732.419 -4.055 0.632277 0
M  V30 7568 H 731.95 -3.79009 -1.05433 0
M  V30 7569 H 733.965 -4.49503 -2.10147 0
M  V30 7570 N 733.138 -0.185124 -1.56509 0
M  V30 7571 C 734.549 0.329221 -1.83774 0
M  V30 7572 C 734.9 1.62093 -1.10545 0
M  V30 7573 O 734.025 2.13334 -0.36298 0
M  V30 7574 C 734.62 0.604099 -3.33371 0
M  V30 7575 C 733.179 1.06284 -3.61083 0
M  V30 7576 C 732.326 0.10608 -2.77097 0
M  V30 7577 H 735.277 -0.409116 -1.53336 0
M  V30 7578 H 735.298 1.45458 -3.51599 0
M  V30 7579 H 734.81 -0.336201 -3.86641 0
M  V30 7580 H 732.911 2.01777 -3.13236 0
M  V30 7581 H 733.024 0.962453 -4.69333 0
M  V30 7582 H 731.388 0.606082 -2.47384 0
M  V30 7583 H 732.171 -0.828486 -3.33153 0
M  V30 7584 N 734.616 1.57351 0.0885366 0
M  V30 7585 C 735.579 2.01557 1.09121 0
M  V30 7586 C 736.579 0.910052 1.3257 0
M  V30 7587 O 737.769 1.17537 1.28572 0
M  V30 7588 C 734.901 2.38189 2.43883 0
M  V30 7589 H 736.094 2.91361 0.710562 0
M  V30 7590 H 733.647 1.52694 0.333779 0
M  V30 7591 H 734.382 1.5136 2.86811 0
M  V30 7592 H 734.167 3.18846 2.28209 0
M  V30 7593 H 735.657 2.73025 3.15986 0
M  V30 7594 N 736.094 -0.359525 1.53444 0
M  V30 7595 C 737.505 -0.936009 1.61542 0
M  V30 7596 C 737.856 -1.90069 0.486633 0
M  V30 7597 O 736.981 -2.12929 -0.386047 0
M  V30 7598 C 737.576 -1.70441 2.92806 0
M  V30 7599 C 736.135 -2.23015 3.03218 0
M  V30 7600 C 735.282 -1.04438 2.56881 0
M  V30 7601 H 738.233 -0.138134 1.58098 0
M  V30 7602 H 738.254 -2.56609 2.80948 0
M  V30 7603 H 737.766 -1.00205 3.74941 0
M  V30 7604 H 735.867 -2.96475 2.25684 0
M  V30 7605 H 735.98 -2.50481 4.08407 0
M  V30 7606 H 734.344 -1.41314 2.11902 0
M  V30 7607 H 735.127 -0.356905 3.4144 0
M  V30 7608 N 737.572 -1.44907 -0.619662 0
M  V30 7609 C 738.482 -1.55168 -1.75955 0
M  V30 7610 C 739.498 -0.43672 -1.6843 0
M  V30 7611 O 740.674 -0.695704 -1.89002 0
M  V30 7612 C 737.739 -1.50397 -3.12381 0
M  V30 7613 C 736.8 -2.72835 -3.31451 0
M  V30 7614 C 736.033 -2.68283 -4.61368 0
M  V30 7615 O 736.256 -1.74929 -5.42914 0
M  V30 7616 O 735.19 -3.59308 -4.82889 0
M  V30 7617 H 739.016 -2.51493 -1.7025 0
M  V30 7618 H 736.601 -1.27282 -0.782289 0
M  V30 7619 H 738.483 -1.50301 -3.93685 0
M  V30 7620 H 737.158 -0.572197 -3.18603 0
M  V30 7621 H 736.065 -2.78496 -2.49781 0
M  V30 7622 H 737.398 -3.65098 -3.30098 0
M  V30 7623 N 739.05 0.861098 -1.31996 0
M  V30 7624 C 739.98 1.98482 -1.22993 0
M  V30 7625 C 740.961 1.6971 -0.115168 0
M  V30 7626 O 742.146 1.91849 -0.30126 0
M  V30 7627 C 739.276 3.34179 -0.945615 0
M  V30 7628 C 738.23 3.77284 -2.02091 0
M  V30 7629 C 737.556 5.1054 -1.58912 0
M  V30 7630 C 738.856 3.93439 -3.43515 0
M  V30 7631 H 740.55 2.06271 -2.17008 0
M  V30 7632 H 738.096 0.991043 -1.04472 0
M  V30 7633 H 740.049 4.12338 -0.869206 0
M  V30 7634 H 738.773 3.26586 0.0301849 0
M  V30 7635 H 737.432 3.01371 -2.08737 0
M  V30 7636 H 737.08 4.99397 -0.600942 0
M  V30 7637 H 736.78 5.40352 -2.30854 0
M  V30 7638 H 738.304 5.91199 -1.52696 0
M  V30 7639 H 739.718 4.6197 -3.39495 0
M  V30 7640 H 738.115 4.34661 -4.13751 0
M  V30 7641 H 739.185 2.96548 -3.8365 0
M  V30 7642 N 740.528 1.15101 1.07655 0
M  V30 7643 C 741.458 0.867864 2.16773 0
M  V30 7644 C 742.439 -0.180283 1.69142 0
M  V30 7645 O 743.624 -0.0353152 1.94168 0
M  V30 7646 C 740.754 0.35299 3.45501 0
M  V30 7647 C 739.708 1.33746 4.06566 0
M  V30 7648 C 739.034 0.681562 5.30338 0
M  V30 7649 C 740.334 2.7024 4.46954 0
M  V30 7650 H 742.028 1.78034 2.40716 0
M  V30 7651 H 739.574 0.857435 1.15689 0
M  V30 7652 H 741.527 0.142465 4.21159 0
M  V30 7653 H 740.251 -0.594945 3.21135 0
M  V30 7654 H 738.91 1.53429 3.32949 0
M  V30 7655 H 738.558 -0.272422 5.02262 0
M  V30 7656 H 738.258 1.33853 5.72151 0
M  V30 7657 H 739.782 0.48074 6.08705 0
M  V30 7658 H 741.196 2.5442 5.13754 0
M  V30 7659 H 739.593 3.32282 4.99709 0
M  V30 7660 H 740.663 3.26537 3.58471 0
M  V30 7661 N 742.006 -1.2595 0.947325 0
M  V30 7662 C 743.254 -1.93081 0.596996 0
M  V30 7663 C 743.575 -1.74632 -0.867672 0
M  V30 7664 O 742.845 -1.1056 -1.6172 0
M  V30 7665 H 741.425 -0.714542 0.217805 0
M  V30 7666 H 744.087 -1.53265 1.20398 0
M  V30 7667 H 743.183 -3.01134 0.82004 0
M  V30 7668 N 743.484 -0.715051 -1.40445 0
M  V30 7669 C 744.732 -0.253826 -2.005 0
M  V30 7670 C 745.053 1.15681 -1.5698 0
M  V30 7671 O 744.323 1.78414 -0.809027 0
M  V30 7672 H 742.903 -0.0908537 -0.741454 0
M  V30 7673 H 745.565 -0.920561 -1.7179 0
M  V30 7674 H 744.661 -0.286499 -3.10782 0
M  V30 7675 N 744.962 1.50701 -0.461195 0
M  V30 7676 C 746.373 1.867 -0.00370227 0
M  V30 7677 C 746.724 1.37673 1.39787 0
M  V30 7678 O 745.849 0.737515 2.03445 0
M  V30 7679 C 746.444 3.388 5.75786e-05 0
M  V30 7680 C 745.003 3.74247 0.402044 0
M  V30 7681 C 744.15 2.74549 -0.389652 0
M  V30 7682 H 747.101 1.43585 -0.675942 0
M  V30 7683 H 747.122 3.719 0.804414 0
M  V30 7684 H 746.634 3.74452 -1.02015 0
M  V30 7685 H 744.735 3.44192 1.42697 0
M  V30 7686 H 744.848 4.78973 0.110265 0
M  V30 7687 H 743.212 2.54226 0.155314 0
M  V30 7688 H 743.995 3.13044 -1.40919 0
M  V30 7689 N 746.441 0.193421 1.56409 0
M  V30 7690 C 747.666 -0.454552 2.02358 0
M  V30 7691 C 748.091 -1.54516 1.07268 0
M  V30 7692 O 747.449 -1.81214 0.0558962 0
M  V30 7693 C 747.497 -0.989469 3.46759 0
M  V30 7694 O 746.601 -2.10244 3.54783 0
M  V30 7695 H 745.942 -0.106417 0.655417 0
M  V30 7696 H 748.472 0.303807 2.02332 0
M  V30 7697 H 748.482 -1.30649 3.86516 0
M  V30 7698 H 747.157 -0.191083 4.15461 0
M  V30 7699 H 745.734 -1.79419 3.26899 0
M  V30 7700 N 747.919 -1.57396 -0.0801906 0
M  V30 7701 C 749.165 -1.87113 -0.782083 0
M  V30 7702 C 749.498 -0.78458 -1.77646 0
M  V30 7703 O 748.773 0.205993 -1.93406 0
M  V30 7704 C 749.056 -3.27483 -1.49756 0
M  V30 7705 C 748.909 -4.46782 -0.520171 0
M  V30 7706 C 750.228 -3.65965 -2.44454 0
M  V30 7707 H 747.347 -0.680559 -0.282858 0
M  V30 7708 H 749.989 -1.89946 -0.0454139 0
M  V30 7709 H 748.139 -3.25199 -2.12551 0
M  V30 7710 H 749.811 -4.61187 0.101919 0
M  V30 7711 H 748.054 -4.33485 0.165219 0
M  V30 7712 H 748.725 -5.41761 -1.05824 0
M  V30 7713 H 751.201 -3.69289 -1.91742 0
M  V30 7714 H 750.077 -4.65086 -2.91524 0
M  V30 7715 H 750.338 -2.95446 -3.28883 0
M  V30 7716 N 749.397 0.351382 -1.53633 0
M  V30 7717 C 750.644 1.0925 -1.70502 0
M  V30 7718 C 750.972 1.88881 -0.464123 0
M  V30 7719 O 750.227 1.87693 0.554077 0
M  V30 7720 C 750.526 2.06744 -2.91533 0
M  V30 7721 C 750.192 1.43484 -4.27461 0
M  V30 7722 C 748.854 1.2596 -4.64422 0
M  V30 7723 C 751.206 0.978436 -5.11934 0
M  V30 7724 C 748.534 0.614017 -5.83478 0
M  V30 7725 C 750.886 0.346795 -6.31649 0
M  V30 7726 C 749.55 0.15917 -6.6731 0
M  V30 7727 H 748.82 0.399773 -0.623909 0
M  V30 7728 H 751.467 0.372656 -1.87839 0
M  V30 7729 H 749.772 2.85082 -2.68767 0
M  V30 7730 H 751.469 2.64066 -3.01778 0
M  V30 7731 H 748.059 1.5812 -3.98367 0
M  V30 7732 H 752.243 1.1017 -4.83918 0
M  V30 7733 H 747.499 0.457194 -6.09688 0
M  V30 7734 H 751.673 -0.0149864 -6.96398 0
M  V30 7735 H 749.3 -0.343129 -7.59425 0
M  V30 7736 N 750.875 1.45233 0.611969 0
M  V30 7737 C 751.805 1.5641 1.73373 0
M  V30 7738 C 752.786 0.415896 1.64937 0
M  V30 7739 O 753.971 0.638478 1.83404 0
M  V30 7740 C 751.101 1.52627 3.11965 0
M  V30 7741 C 750.055 2.66119 3.35208 0
M  V30 7742 C 749.381 2.4739 4.74028 0
M  V30 7743 C 750.681 4.08157 3.25891 0
M  V30 7744 H 752.375 2.50307 1.64277 0
M  V30 7745 H 749.921 1.20467 0.788904 0
M  V30 7746 H 751.874 1.59043 3.90235 0
M  V30 7747 H 750.598 0.552564 3.21892 0
M  V30 7748 H 749.257 2.59123 2.59327 0
M  V30 7749 H 748.905 1.48168 4.80682 0
M  V30 7750 H 748.605 3.23494 4.90536 0
M  V30 7751 H 750.129 2.55653 5.54503 0
M  V30 7752 H 751.543 4.1642 3.9404 0
M  V30 7753 H 749.94 4.84617 3.5393 0
M  V30 7754 H 751.01 4.30374 2.23397 0
M  V30 7755 N 752.353 -0.854086 1.3245 0
M  V30 7756 C 753.6 -1.60831 1.23043 0
M  V30 7757 C 753.928 -1.93389 -0.2076 0
M  V30 7758 O 753.183 -1.5756 -1.16075 0
M  V30 7759 C 753.482 -2.93746 2.03587 0
M  V30 7760 C 753.148 -2.80615 3.52939 0
M  V30 7761 C 751.81 -2.76742 3.93659 0
M  V30 7762 C 754.162 -2.66507 4.4791 0
M  V30 7763 C 751.49 -2.56638 5.27592 0
M  V30 7764 C 753.842 -2.47939 5.81987 0
M  V30 7765 C 752.506 -2.42458 6.21909 0
M  V30 7766 H 751.776 -0.588523 0.450247 0
M  V30 7767 H 754.423 -0.990699 1.63882 0
M  V30 7768 H 752.728 -3.5963 1.55478 0
M  V30 7769 H 754.425 -3.51127 1.93677 0
M  V30 7770 H 751.015 -2.84456 3.20598 0
M  V30 7771 H 755.199 -2.68544 4.1737 0
M  V30 7772 H 750.455 -2.50831 5.57579 0
M  V30 7773 H 754.629 -2.36002 6.55192 0
M  V30 7774 H 752.256 -2.2664 7.2563 0
M  V30 7775 N 753.831 -1.1567 -1.07043 0
M  V30 7776 C 755.242 -0.942408 -1.61169 0
M  V30 7777 C 755.593 0.515537 -1.89306 0
M  V30 7778 O 754.718 1.38726 -1.66084 0
M  V30 7779 C 755.313 -1.70431 -2.92812 0
M  V30 7780 C 753.872 -1.53521 -3.43669 0
M  V30 7781 C 753.019 -1.7179 -2.17678 0
M  V30 7782 H 755.97 -1.3065 -0.9009 0
M  V30 7783 H 755.991 -1.17566 -3.61882 0
M  V30 7784 H 755.503 -2.76538 -2.72302 0
M  V30 7785 H 753.604 -0.498224 -3.69254 0
M  V30 7786 H 753.717 -2.31422 -4.19501 0
M  V30 7787 H 752.081 -1.14468 -2.27529 0
M  V30 7788 H 752.864 -2.79269 -1.99659 0
M  V30 7789 N 755.309 1.25446 -0.953992 0
M  V30 7790 C 756.72 1.75047 -0.649255 0
M  V30 7791 C 757.071 1.77527 0.835385 0
M  V30 7792 O 756.196 1.39569 1.65377 0
M  V30 7793 C 756.791 3.17889 -1.17183 0
M  V30 7794 C 755.35 3.65052 -0.917267 0
M  V30 7795 C 754.497 2.44124 -1.31525 0
M  V30 7796 H 757.448 1.11342 -1.13087 0
M  V30 7797 H 757.469 3.76768 -0.531616 0
M  V30 7798 H 756.981 3.16052 -2.25239 0
M  V30 7799 H 755.082 3.72305 0.148354 0
M  V30 7800 H 755.195 4.53222 -1.55328 0
M  V30 7801 H 753.559 2.43906 -0.733624 0
M  V30 7802 H 754.342 2.44979 -2.405 0
M  V30 7803 N 756.787 0.722489 1.40064 0
M  V30 7804 C 757.734 0.0743738 2.3068 0
M  V30 7805 C 758.704 -0.743004 1.48555 0
M  V30 7806 O 759.889 -0.705536 1.77276 0
M  V30 7807 C 757.029 -0.836292 3.34814 0
M  V30 7808 C 756.142 -0.00764663 4.31999 0
M  V30 7809 C 755.277 -0.918428 5.232 0
M  V30 7810 C 754.316 -0.0842838 6.12042 0
M  V30 7811 N 753.453 -0.950316 6.95639 0
M  V30 7812 H 758.293 0.852794 2.85537 0
M  V30 7813 H 755.83 0.432222 1.40607 0
M  V30 7814 H 757.788 -1.3786 3.93765 0
M  V30 7815 H 756.418 -1.58082 2.81443 0
M  V30 7816 H 755.47 0.651928 3.74772 0
M  V30 7817 H 756.782 0.63786 4.94705 0
M  V30 7818 H 755.936 -1.52902 5.87116 0
M  V30 7819 H 754.675 -1.59774 4.60786 0
M  V30 7820 H 753.68 0.5392 5.4715 0
M  V30 7821 H 754.905 0.591628 6.76518 0
M  V30 7822 H 752.851 -1.61515 6.35806 0
M  V30 7823 H 752.768 -0.361004 7.55138 0
M  V30 7824 H 754.036 -1.54687 7.63997 0
M  V30 7825 N 758.265 -1.50454 0.469181 0
M  V30 7826 C 759.676 -1.86695 0.0136034 0
M  V30 7827 C 760.027 -1.38413 -1.39055 0
M  V30 7828 O 759.152 -0.748294 -2.03051 0
M  V30 7829 C 759.747 -3.38795 0.0179098 0
M  V30 7830 C 758.306 -3.74455 -0.382191 0
M  V30 7831 C 757.453 -2.74338 0.404207 0
M  V30 7832 H 760.404 -1.43225 0.683547 0
M  V30 7833 H 760.425 -3.72321 -0.78468 0
M  V30 7834 H 759.937 -3.73906 1.04 0
M  V30 7835 H 758.038 -3.44944 -1.4087 0
M  V30 7836 H 758.151 -4.79025 -0.084862 0
M  V30 7837 H 756.515 -2.54305 -0.141829 0
M  V30 7838 H 757.298 -3.12293 1.42577 0
M  V30 7839 N 759.743 -0.201713 -1.56304 0
M  V30 7840 C 760.69 0.716499 -2.19397 0
M  V30 7841 C 761.66 1.20494 -1.14326 0
M  V30 7842 O 762.845 1.26763 -1.42604 0
M  V30 7843 C 759.985 1.92762 -2.86246 0
M  V30 7844 C 759.098 1.47993 -4.0586 0
M  V30 7845 C 758.233 2.64706 -4.60547 0
M  V30 7846 C 757.272 2.16576 -5.72504 0
M  V30 7847 N 756.409 3.26491 -6.21569 0
M  V30 7848 H 761.249 0.171724 -2.97505 0
M  V30 7849 H 758.786 0.073016 -1.46919 0
M  V30 7850 H 760.744 2.6384 -3.23178 0
M  V30 7851 H 759.374 2.44559 -2.10691 0
M  V30 7852 H 758.426 0.66477 -3.74546 0
M  V30 7853 H 759.738 1.08686 -4.86815 0
M  V30 7854 H 758.892 3.43898 -4.99819 0
M  V30 7855 H 757.631 3.0729 -3.78713 0
M  V30 7856 H 756.636 1.3584 -5.32755 0
M  V30 7857 H 757.861 1.75015 -6.56161 0
M  V30 7858 H 755.807 3.68594 -5.42655 0
M  V30 7859 H 755.724 2.91374 -6.97594 0
M  V30 7860 H 756.992 4.05877 -6.65495 0
M  V30 7861 N 761.222 1.57436 0.0718424 0
M  V30 7862 C 762.499 1.78312 0.804006 0
M  V30 7863 C 762.879 0.789273 1.9579 0
M  V30 7864 O 762.227 -0.177605 2.27809 0
M  V30 7865 C 762.437 3.24798 1.277 0
M  V30 7866 C 763.785 3.88627 1.71039 0
M  V30 7867 O 764.809 3.28689 1.37266 0
M  V30 7868 O 763.668 4.94073 2.33567 0
M  V30 7869 H 760.762 0.73178 0.385262 0
M  V30 7870 H 763.308 1.69621 0.0519219 0
M  V30 7871 H 762.08 3.88688 0.45134 0
M  V30 7872 H 761.703 3.38213 2.0904 0
M  V30 7873 N 762.7 -0.34323 1.53817 0
M  V30 7874 C 763.928 -1.10348 1.75017 0
M  V30 7875 C 764.343 -1.82345 0.489475 0
M  V30 7876 O 763.7 -1.74362 -0.538886 0
M  V30 7877 C 763.751 -2.11672 2.93048 0
M  V30 7878 O 763.472 -1.42603 4.14241 0
M  V30 7879 C 764.973 -3.0007 3.26301 0
M  V30 7880 H 762.193 -0.329056 0.584776 0
M  V30 7881 H 764.737 -0.395339 2.00642 0
M  V30 7882 H 762.892 -2.78051 2.69753 0
M  V30 7883 H 763.306 -2.10294 4.80496 0
M  V30 7884 H 764.78 -3.67101 4.12239 0
M  V30 7885 H 765.257 -3.66105 2.42618 0
M  V30 7886 H 765.863 -2.3928 3.51604 0
M  V30 7887 N 764.178 -1.45556 -0.604258 0
M  V30 7888 C 765.108 -1.57327 -1.72541 0
M  V30 7889 C 766.089 -0.424637 -1.64714 0
M  V30 7890 O 767.274 -0.648196 -1.83063 0
M  V30 7891 C 764.404 -1.54279 -3.11152 0
M  V30 7892 C 763.358 -2.67893 -3.33792 0
M  V30 7893 C 762.684 -2.499 -4.72709 0
M  V30 7894 C 763.984 -4.0988 -3.23722 0
M  V30 7895 H 765.678 -2.51175 -1.62947 0
M  V30 7896 H 763.224 -1.20884 -0.782504 0
M  V30 7897 H 765.177 -1.6111 -3.89386 0
M  V30 7898 H 763.901 -0.569627 -3.21594 0
M  V30 7899 H 762.56 -2.60495 -2.57949 0
M  V30 7900 H 762.208 -1.50715 -4.79889 0
M  V30 7901 H 761.908 -3.26091 -4.88813 0
M  V30 7902 H 763.432 -2.5859 -5.5314 0
M  V30 7903 H 764.846 -4.18503 -3.91826 0
M  V30 7904 H 763.243 -4.86487 -3.51355 0
M  V30 7905 H 764.313 -4.31553 -2.21111 0
M  V30 7906 N 765.656 0.84705 -1.32902 0
M  V30 7907 C 766.589 1.96038 -1.1681 0
M  V30 7908 C 767.567 1.62468 -0.0656144 0
M  V30 7909 O 768.751 1.87136 -0.226339 0
M  V30 7910 C 765.878 3.29362 -0.789839 0
M  V30 7911 C 764.924 3.81908 -1.89865 0
M  V30 7912 S 765.757 4.04576 -3.50826 0
M  V30 7913 C 766.913 5.40863 -3.14989 0
M  V30 7914 H 767.146 2.09387 -2.11055 0
M  V30 7915 H 764.679 0.999896 -1.1765 0
M  V30 7916 H 766.637 4.06405 -0.578369 0
M  V30 7917 H 765.298 3.13815 0.133878 0
M  V30 7918 H 764.491 4.78357 -1.58716 0
M  V30 7919 H 764.093 3.11733 -2.06636 0
M  V30 7920 H 766.385 6.23393 -2.65306 0
M  V30 7921 H 767.328 5.7698 -4.10488 0
M  V30 7922 H 767.736 5.05228 -2.51804 0
M  V30 7923 N 767.134 1.16236 1.06428 0
M  V30 7924 C 768.383 0.937523 1.78587 0
M  V30 7925 C 768.696 -0.536 1.88113 0
M  V30 7926 O 769.902 -0.878697 2.56887 0
M  V30 7927 C 768.358 1.62808 3.2097 0
M  V30 7928 C 767.966 3.13927 3.19615 0
M  V30 7929 C 769.71 1.48515 3.97673 0
M  V30 7930 C 767.617 3.75727 4.56709 0
M  V30 7931 H 766.547 0.347125 0.669343 0
M  V30 7932 H 769.198 1.39353 1.19385 0
M  V30 7933 H 767.58 1.09977 3.80422 0
M  V30 7934 H 768.754 3.7359 2.69753 0
M  V30 7935 H 767.069 3.28089 2.56411 0
M  V30 7936 H 769.666 1.92069 4.99013 0
M  V30 7937 H 770.009 0.433913 4.14032 0
M  V30 7938 H 770.542 1.98494 3.44739 0
M  V30 7939 H 767.281 4.80793 4.45554 0
M  V30 7940 H 766.801 3.20849 5.0677 0
M  V30 7941 H 768.48 3.77203 5.25668 0
M  V30 7942 N 768.612 -1.24939 0.960631 0
M  V30 7943 C 769.837 -1.9742 0.635608 0
M  V30 7944 C 770.262 -1.70857 -0.786737 0
M  V30 7945 O 769.62 -0.968063 -1.53291 0
M  V30 7946 C 769.668 -3.48987 0.907771 0
M  V30 7947 O 768.772 -4.12399 -0.0104053 0
M  V30 7948 H 768.113 -0.61871 0.241027 0
M  V30 7949 H 770.643 -1.58901 1.28886 0
M  V30 7950 H 770.653 -3.99334 0.836453 0
M  V30 7951 H 769.328 -3.6765 1.94439 0
M  V30 7952 H 767.905 -3.72727 0.113631 0
M  V30 7953 N 770.09 -0.729906 -1.39679 0
M  V30 7954 C 771.506 -0.404951 -1.54377 0
M  V30 7955 C 771.706 1.08476 -1.6981 0
M  V30 7956 O 770.762 1.87087 -1.69572 0
M  V30 7957 C 772.075 -1.18352 -2.76429 0
M  V30 7958 C 773.623 -1.17124 -2.9026 0
M  V30 7959 C 774.098 -1.93227 -4.15244 0
M  V30 7960 N 775.589 -1.90368 -4.22273 0
M  V30 7961 C 776.324 -2.46065 -5.17918 0
M  V30 7962 N 775.82 -3.10378 -6.19385 0
M  V30 7963 N 777.613 -2.36127 -5.10099 0
M  V30 7964 H 769.764 -1.69567 -1.27909 0
M  V30 7965 H 772.027 -0.717527 -0.619564 0
M  V30 7966 H 771.733 -2.23743 -2.71352 0
M  V30 7967 H 771.607 -0.784589 -3.6895 0
M  V30 7968 H 773.994 -0.125478 -2.94833 0
M  V30 7969 H 774.075 -1.60951 -1.98817 0
M  V30 7970 H 773.719 -2.97802 -4.11432 0
M  V30 7971 H 773.649 -1.4681 -5.05722 0
M  V30 7972 H 776.14 -1.4351 -3.4959 0
M  V30 7973 H 776.453 -3.50358 -6.88817 0
M  V30 7974 H 774.798 -3.14467 -6.19787 0
M  V30 7975 H 777.989 -1.85529 -4.29763 0
M  V30 7976 H 778.162 -2.79833 -5.84463 0
M  V30 7977 N 771.568 1.50203 -0.477153 0
M  V30 7978 C 772.796 2.0677 0.0732489 0
M  V30 7979 C 773.211 1.34033 1.32968 0
M  V30 7980 O 772.568 0.411412 1.77802 0
M  V30 7981 C 772.619 3.59751 0.35518 0
M  V30 7982 O 772.34 4.29747 -0.851425 0
M  V30 7983 C 773.841 4.3296 0.951877 0
M  V30 7984 H 771.061 0.670929 -0.00978923 0
M  V30 7985 H 773.605 1.93293 -0.667676 0
M  V30 7986 H 771.76 3.7301 1.04605 0
M  V30 7987 H 772.174 5.2106 -0.599708 0
M  V30 7988 H 773.648 5.40952 1.09888 0
M  V30 7989 H 774.125 3.93856 1.94356 0
M  V30 7990 H 774.731 4.24246 0.299208 0
M  V30 7991 N 773.046 0.209999 1.56195 0
M  V30 7992 C 774.457 -0.299943 1.84275 0
M  V30 7993 C 774.808 -1.60314 1.1311 0
M  V30 7994 O 773.933 -2.1273 0.396874 0
M  V30 7995 C 774.528 -0.550986 3.3429 0
M  V30 7996 C 773.087 -1.00526 3.62728 0
M  V30 7997 C 772.234 -0.0619828 2.77231 0
M  V30 7998 H 775.185 0.433458 1.52666 0
M  V30 7999 H 775.206 -1.39846 3.53869 0
M  V30 8000 H 774.718 0.397669 3.86057 0
M  V30 8001 H 772.819 -1.96768 3.16407 0
M  V30 8002 H 772.932 -0.887664 4.70805 0
M  V30 8003 H 771.296 -0.566648 2.48317 0
M  V30 8004 H 772.079 0.881383 3.31793 0
M  V30 8005 N 774.524 -1.57472 -0.0634922 0
M  V30 8006 C 775.434 -2.07621 -1.09227 0
M  V30 8007 C 776.45 -1.00746 -1.41867 0
M  V30 8008 O 777.626 -1.32269 -1.51878 0
M  V30 8009 C 774.691 -2.51707 -2.38421 0
M  V30 8010 C 773.752 -3.72917 -2.12676 0
M  V30 8011 C 772.985 -4.14891 -3.3571 0
M  V30 8012 O 773.208 -3.56663 -4.45137 0
M  V30 8013 O 772.142 -5.07616 -3.23434 0
M  V30 8014 H 775.968 -2.95612 -0.696205 0
M  V30 8015 H 773.553 -1.46787 -0.27819 0
M  V30 8016 H 775.435 -2.80547 -3.14438 0
M  V30 8017 H 774.11 -1.66842 -2.77391 0
M  V30 8018 H 773.017 -3.49148 -1.34337 0
M  V30 8019 H 774.35 -4.5866 -1.78583 0
M  V30 8020 N 776.003 0.335068 -1.53997 0
M  V30 8021 C 777.249 1.07594 -1.71905 0
M  V30 8022 C 777.582 1.88039 -0.485264 0
M  V30 8023 O 776.857 1.87482 0.517752 0
M  V30 8024 C 777.14 2.01016 -2.98772 0
M  V30 8025 C 776.993 1.23977 -4.32377 0
M  V30 8026 C 778.312 3.0071 -3.21343 0
M  V30 8027 H 775.431 0.38976 -0.625505 0
M  V30 8028 H 778.073 0.353684 -1.86679 0
M  V30 8029 H 776.223 2.62603 -2.86307 0
M  V30 8030 H 777.895 0.649383 -4.56706 0
M  V30 8031 H 776.138 0.541878 -4.30402 0
M  V30 8032 H 776.809 1.92512 -5.17342 0
M  V30 8033 H 779.285 2.4924 -3.33194 0
M  V30 8034 H 778.161 3.63272 -4.11491 0
M  V30 8035 H 778.422 3.72549 -2.38033 0
M  V30 8036 N 777.481 1.45874 0.596531 0
M  V30 8037 C 778.709 1.54013 1.38158 0
M  V30 8038 C 779.124 0.17648 1.87973 0
M  V30 8039 O 778.481 -0.823895 1.62844 0
M  V30 8040 C 778.532 2.53363 2.57855 0
M  V30 8041 O 778.253 3.8443 2.10108 0
M  V30 8042 C 779.754 2.71308 3.50581 0
M  V30 8043 H 776.974 0.521251 0.422538 0
M  V30 8044 H 779.518 1.9116 0.726493 0
M  V30 8045 H 777.673 2.19257 3.19382 0
M  V30 8046 H 778.087 4.38384 2.87958 0
M  V30 8047 H 779.561 3.44776 4.31084 0
M  V30 8048 H 780.038 1.77728 4.01633 0
M  V30 8049 H 780.644 3.06455 2.94899 0
M  V30 8050 N 778.959 -0.83999 1.33349 0
M  V30 8051 C 780.199 -1.60888 1.26073 0
M  V30 8052 C 780.563 -1.91234 -0.17129 0
M  V30 8053 O 781.764 -2.66269 -0.36799 0
M  V30 8054 C 780.035 -2.88438 2.11042 0
M  V30 8055 S 781.594 -3.79116 2.20944 0
M  V30 8056 H 778.412 -0.55166 0.448545 0
M  V30 8057 H 781.014 -0.99359 1.68369 0
M  V30 8058 H 779.718 -2.64113 3.14121 0
M  V30 8059 H 779.249 -3.54974 1.69579 0
M  V30 8060 H 781.264 -4.76921 1.36969 0
M  V30 8061 N 780.437 -1.16799 -1.0581 0
M  V30 8062 C 781.683 -0.953935 -1.78963 0
M  V30 8063 C 782.016 0.516638 -1.87202 0
M  V30 8064 O 781.291 1.38338 -1.36721 0
M  V30 8065 C 781.574 -1.58808 -3.23191 0
M  V30 8066 C 781.427 -3.13032 -3.23003 0
M  V30 8067 C 782.746 -1.2868 -4.20867 0
M  V30 8068 H 779.865 -0.347972 -0.64968 0
M  V30 8069 H 782.507 -1.44204 -1.23715 0
M  V30 8070 H 780.657 -1.17303 -3.70368 0
M  V30 8071 H 782.329 -3.63553 -2.83949 0
M  V30 8072 H 780.572 -3.46108 -2.61518 0
M  V30 8073 H 781.243 -3.52527 -4.24769 0
M  V30 8074 H 783.719 -1.6461 -3.82155 0
M  V30 8075 H 782.595 -1.75645 -5.20038 0
M  V30 8076 H 782.856 -0.206491 -4.41618 0
M  V30 8077 N 781.915 1.24427 -0.967243 0
M  V30 8078 C 783.161 1.92772 -0.629812 0
M  V30 8079 C 783.494 1.75436 0.832827 0
M  V30 8080 O 782.769 1.10716 1.59913 0
M  V30 8081 C 783.052 3.45798 -1.00477 0
M  V30 8082 C 782.905 3.72304 -2.52407 0
M  V30 8083 C 784.224 4.36787 -0.538999 0
M  V30 8084 H 781.343 0.700099 -0.230282 0
M  V30 8085 H 783.985 1.46805 -1.20616 0
M  V30 8086 H 782.135 3.8508 -0.514336 0
M  V30 8087 H 783.807 3.42584 -3.08924 0
M  V30 8088 H 782.05 3.17472 -2.95625 0
M  V30 8089 H 782.721 4.7937 -2.73693 0
M  V30 8090 H 785.197 4.04877 -0.959874 0
M  V30 8091 H 784.073 5.4259 -0.829926 0
M  V30 8092 H 784.334 4.38527 0.560923 0
M  V30 8093 N 783.393 0.737304 1.3929 0
M  V30 8094 C 784.639 0.286681 2.00763 0
M  V30 8095 C 784.972 -1.12388 1.58375 0
M  V30 8096 O 784.247 -1.76661 0.813699 0
M  V30 8097 C 784.53 0.391147 3.57969 0
M  V30 8098 C 784.383 1.84165 4.1037 0
M  V30 8099 C 785.702 -0.225072 4.39524 0
M  V30 8100 H 782.821 0.105642 0.729389 0
M  V30 8101 H 785.463 0.933892 1.65464 0
M  V30 8102 H 783.613 -0.159875 3.88171 0
M  V30 8103 H 785.285 2.44972 3.90879 0
M  V30 8104 H 783.528 2.3622 3.63844 0
M  V30 8105 H 784.199 1.866 5.19504 0
M  V30 8106 H 786.675 0.244677 4.1538 0
M  V30 8107 H 785.551 -0.121646 5.48765 0
M  V30 8108 H 785.812 -1.31141 4.22202 0
M  V30 8109 N 784.871 -1.49948 0.485112 0
M  V30 8110 C 786.148 -1.95186 -0.12726 0
M  V30 8111 C 786.528 -1.42605 -1.5565 0
M  V30 8112 O 785.876 -0.632986 -2.19558 0
M  V30 8113 C 786.086 -3.48955 -0.0562117 0
M  V30 8114 C 787.434 -4.23932 -0.238106 0
M  V30 8115 O 788.458 -3.55955 -0.132145 0
M  V30 8116 O 787.317 -5.44614 -0.453658 0
M  V30 8117 H 784.411 -0.820433 -0.104014 0
M  V30 8118 H 786.957 -1.60659 0.546517 0
M  V30 8119 H 785.729 -3.79814 0.941122 0
M  V30 8120 H 785.352 -3.90056 -0.770834 0
M  V30 8121 N 786.349 -0.21828 -1.56081 0
M  V30 8122 C 787.595 0.414921 -1.9851 0
M  V30 8123 C 787.928 1.59648 -1.10573 0
M  V30 8124 O 787.203 1.93818 -0.162695 0
M  V30 8125 C 787.486 0.852647 -3.4986 0
M  V30 8126 C 787.339 -0.33232 -4.48571 0
M  V30 8127 C 788.658 1.70998 -4.05521 0
M  V30 8128 H 785.777 0.149344 -0.72171 0
M  V30 8129 H 788.419 -0.313858 -1.8739 0
M  V30 8130 H 786.569 1.47362 -3.59467 0
M  V30 8131 H 788.241 -0.970418 -4.50977 0
M  V30 8132 H 786.484 -0.980302 -4.22578 0
M  V30 8133 H 787.155 0.0168407 -5.51997 0
M  V30 8134 H 789.631 1.18606 -3.98838 0
M  V30 8135 H 788.507 1.98517 -5.11744 0
M  V30 8136 H 788.768 2.67219 -3.52202 0
M  V30 8137 N 787.827 1.57504 0.0551401 0
M  V30 8138 C 789.052 1.92682 0.767352 0
M  V30 8139 C 789.477 0.81614 1.69472 0
M  V30 8140 O 788.835 -0.229989 1.79835 0
M  V30 8141 C 788.883 3.26866 1.52286 0
M  V30 8142 O 787.987 3.17274 2.63459 0
M  V30 8143 H 787.328 0.630502 0.208238 0
M  V30 8144 H 789.858 2.04592 0.0184026 0
M  V30 8145 H 789.868 3.61138 1.8985 0
M  V30 8146 H 788.543 4.07276 0.842541 0
M  V30 8147 H 787.12 2.94589 2.2863 0
M  V30 8148 N 789.305 -0.326896 1.54172 0
M  V30 8149 C 790.255 -1.40319 1.79707 0
M  V30 8150 C 791.239 -1.47056 0.652938 0
M  V30 8151 O 792.431 -1.51645 0.91284 0
M  V30 8152 C 789.56 -2.77222 2.02491 0
M  V30 8153 C 788.646 -2.74811 3.23016 0
M  V30 8154 N 789.037 -2.42022 4.44138 0
M  V30 8155 C 787.335 -3.05943 3.24522 0
M  V30 8156 C 788.036 -2.48263 5.26061 0
M  V30 8157 N 787.012 -2.84567 4.63166 0
M  V30 8158 H 790.814 -1.13892 2.70935 0
M  V30 8159 H 788.328 -0.53536 1.53322 0
M  V30 8160 H 790.325 -3.54793 2.18923 0
M  V30 8161 H 788.985 -3.04582 1.12515 0
M  V30 8162 H 789.996 -2.14926 4.71197 0
M  V30 8163 H 786.673 -3.38367 2.44569 0
M  V30 8164 H 788.063 -2.2593 6.32776 0
M  V30 8165 N 790.784 -1.46188 -0.588786 0
M  V30 8166 C 791.694 -1.58865 -1.72624 0
M  V30 8167 C 792.71 -0.472348 -1.67466 0
M  V30 8168 O 793.886 -0.735638 -1.87484 0
M  V30 8169 C 790.951 -1.56989 -3.0912 0
M  V30 8170 C 790.012 -2.79804 -3.25589 0
M  V30 8171 C 789.245 -2.78009 -4.55573 0
M  V30 8172 O 789.468 -1.86406 -5.39082 0
M  V30 8173 O 788.402 -3.6947 -4.75159 0
M  V30 8174 H 792.228 -2.55047 -1.64878 0
M  V30 8175 H 789.813 -1.28912 -0.755115 0
M  V30 8176 H 791.695 -1.58618 -3.90408 0
M  V30 8177 H 790.37 -0.639648 -3.17317 0
M  V30 8178 H 789.277 -2.83732 -2.43818 0
M  V30 8179 H 790.61 -3.72017 -3.22279 0
M  V30 8180 N 792.262 0.832906 -1.33792 0
M  V30 8181 C 793.539 1.57359 -1.16178 0
M  V30 8182 C 793.919 2.09372 0.269532 0
M  V30 8183 O 793.267 1.89993 1.26944 0
M  V30 8184 C 793.477 2.70279 -2.20795 0
M  V30 8185 C 794.825 3.39305 -2.55259 0
M  V30 8186 O 795.849 2.80526 -2.19508 0
M  V30 8187 O 794.708 4.45428 -3.16632 0
M  V30 8188 H 791.802 0.694025 -0.449731 0
M  V30 8189 H 794.348 0.875144 -1.45394 0
M  V30 8190 H 793.12 2.29527 -3.16911 0
M  V30 8191 H 792.743 3.47782 -1.927 0
M  V30 8192 N 793.74 1.17359 1.05189 0
M  V30 8193 C 795.151 0.96793 1.5965 0
M  V30 8194 C 795.502 -0.485355 1.90102 0
M  V30 8195 O 794.627 -1.36066 1.6827 0
M  V30 8196 C 795.222 1.75068 2.90063 0
M  V30 8197 C 793.781 1.58969 3.41183 0
M  V30 8198 C 792.928 1.75231 2.14917 0
M  V30 8199 H 795.879 1.32067 0.880001 0
M  V30 8200 H 795.9 1.23308 3.59966 0
M  V30 8201 H 795.412 2.80835 2.67868 0
M  V30 8202 H 793.513 0.556906 3.68415 0
M  V30 8203 H 793.626 2.38067 4.15766 0
M  V30 8204 H 791.99 1.18073 2.25679 0
M  V30 8205 H 792.773 2.8241 1.95191 0
M  V30 8206 N 795.218 -1.23913 0.973828 0
M  V30 8207 C 796.128 -2.28838 0.516735 0
M  V30 8208 C 797.144 -1.68723 -0.425282 0
M  V30 8209 O 798.32 -1.99201 -0.296819 0
M  V30 8210 C 795.385 -3.46233 -0.179914 0
M  V30 8211 C 794.446 -4.21729 0.80269 0
M  V30 8212 C 793.679 -5.33518 0.139191 0
M  V30 8213 O 793.902 -5.60252 -1.07118 0
M  V30 8214 O 792.836 -5.96088 0.834447 0
M  V30 8215 H 796.662 -2.70067 1.38916 0
M  V30 8216 H 794.247 -1.2972 0.74115 0
M  V30 8217 H 796.129 -4.17514 -0.570991 0
M  V30 8218 H 794.804 -3.06969 -1.02721 0
M  V30 8219 H 793.711 -3.52799 1.24434 0
M  V30 8220 H 795.044 -4.64825 1.61859 0
M  V30 8221 N 796.696 -0.74468 -1.38897 0
M  V30 8222 C 797.942 -0.297324 -2.00609 0
M  V30 8223 C 798.275 1.11547 -1.58968 0
M  V30 8224 O 797.55 1.76227 -0.823057 0
M  V30 8225 C 797.833 -0.410125 -3.57757 0
M  V30 8226 C 797.686 -1.86338 -4.09387 0
M  V30 8227 C 799.005 0.20176 -4.39637 0
M  V30 8228 H 796.124 -0.109509 -0.728819 0
M  V30 8229 H 798.766 -0.942653 -1.64967 0
M  V30 8230 H 796.916 0.139287 -3.8825 0
M  V30 8231 H 798.588 -2.47042 -3.89574 0
M  V30 8232 H 796.831 -2.38146 -3.62586 0
M  V30 8233 H 797.502 -1.89352 -5.18507 0
M  V30 8234 H 799.978 -0.266703 -4.15244 0
M  V30 8235 H 798.854 0.0925415 -5.48822 0
M  V30 8236 H 799.115 1.289 -4.22891 0
M  V30 8237 N 798.174 1.49689 -0.493057 0
M  V30 8238 C 799.121 2.28976 0.28959 0
M  V30 8239 C 800.091 1.35011 0.967536 0
M  V30 8240 O 801.276 1.63964 0.975736 0
M  V30 8241 C 798.416 3.1748 1.35279 0
M  V30 8242 C 797.529 4.26496 0.687418 0
M  V30 8243 C 796.664 5.02226 1.73038 0
M  V30 8244 C 795.703 6.03089 1.04645 0
M  V30 8245 N 794.84 6.72014 2.03325 0
M  V30 8246 H 799.68 2.954 -0.392798 0
M  V30 8247 H 797.217 1.45657 -0.205554 0
M  V30 8248 H 799.175 3.67162 1.98111 0
M  V30 8249 H 797.805 2.53057 2.00405 0
M  V30 8250 H 796.857 3.80362 -0.0540001 0
M  V30 8251 H 798.169 4.98578 0.14864 0
M  V30 8252 H 797.323 5.55737 2.43395 0
M  V30 8253 H 796.062 4.29899 2.303 0
M  V30 8254 H 795.067 5.48817 0.328606 0
M  V30 8255 H 796.292 6.77398 0.480428 0
M  V30 8256 H 794.238 6.02464 2.59564 0
M  V30 8257 H 794.155 7.40046 1.54492 0
M  V30 8258 H 795.423 7.30133 2.72995 0
M  V30 8259 N 799.652 0.226554 1.55963 0
M  V30 8260 C 800.899 -0.403789 1.98433 0
M  V30 8261 C 801.227 -1.59416 1.1143 0
M  V30 8262 O 800.482 -1.95042 0.160389 0
M  V30 8263 C 800.781 -0.87642 3.46488 0
M  V30 8264 C 800.447 0.203973 4.50438 0
M  V30 8265 C 799.109 0.500754 4.78587 0
M  V30 8266 C 801.461 0.934396 5.12756 0
M  V30 8267 C 798.789 1.53239 5.66334 0
M  V30 8268 C 801.141 1.9554 6.0162 0
M  V30 8269 C 799.805 2.25905 6.28111 0
M  V30 8270 H 799.075 -0.147757 0.726119 0
M  V30 8271 H 801.722 0.330121 1.88633 0
M  V30 8272 H 800.027 -1.68918 3.53517 0
M  V30 8273 H 801.724 -1.37407 3.76723 0
M  V30 8274 H 798.314 -0.0374917 4.28584 0
M  V30 8275 H 802.498 0.718355 4.91074 0
M  V30 8276 H 797.754 1.77321 5.85122 0
M  V30 8277 H 801.928 2.52642 6.48957 0
M  V30 8278 H 799.555 3.05985 6.959 0
M  V30 8279 N 801.13 -1.57531 -0.0467866 0
M  V30 8280 C 802.078 -2.06455 -1.0714 0
M  V30 8281 C 803.072 -0.974744 -1.38546 0
M  V30 8282 O 804.278 -1.15974 -1.37659 0
M  V30 8283 H 800.653 -0.658607 -0.362962 0
M  V30 8284 H 802.624 -2.91613 -0.632813 0
M  V30 8285 C 801.373 -2.54481 -2.36927 0
M  V30 8286 H 800.696 -3.37946 -2.13617 0
M  V30 8287 H 802.136 -2.92442 -3.07007 0
M  V30 8288 C 800.595 -1.43836 -3.04652 0
M  V30 8289 O 801.125 -0.794531 -3.93764 0
M  V30 8290 N 799.331 -1.17727 -2.65686 0
M  V30 8291 H 798.878 -1.70265 -1.93307 0
M  V30 8292 H 798.836 -0.439051 -3.11319 0
M  V30 8293 N 802.608 0.318715 -1.54344 0
M  V30 8294 C 803.854 1.05383 -1.73971 0
M  V30 8295 C 804.209 1.85524 -0.509781 0
M  V30 8296 O 803.502 1.8502 0.49782 0
M  V30 8297 C 803.696 2.00514 -2.95853 0
M  V30 8298 C 803.525 1.29728 -4.30582 0
M  V30 8299 C 802.295 1.03177 -4.94654 0
M  V30 8300 C 804.493 0.710718 -5.09366 0
M  V30 8301 N 802.475 0.29232 -6.13204 0
M  V30 8302 C 803.846 0.103132 -6.19914 0
M  V30 8303 C 805.901 0.614011 -4.94099 0
M  V30 8304 C 804.604 -0.591782 -7.16862 0
M  V30 8305 C 806.63 -0.0672115 -5.91362 0
M  V30 8306 C 805.992 -0.663721 -7.01266 0
M  V30 8307 H 802.091 0.369157 -0.689382 0
M  V30 8308 H 804.675 0.334453 -1.91806 0
M  V30 8309 H 802.846 2.69719 -2.79475 0
M  V30 8310 H 804.578 2.67046 -3.04086 0
M  V30 8311 H 801.333 1.32536 -4.54677 0
M  V30 8312 H 801.757 -0.0634005 -6.7697 0
M  V30 8313 H 806.399 1.06091 -4.09273 0
M  V30 8314 H 804.117 -1.0505 -8.01243 0
M  V30 8315 H 807.703 -0.141742 -5.81627 0
M  V30 8316 H 806.583 -1.18248 -7.75234 0
M  V30 8317 N 804.086 1.46499 0.581025 0
M  V30 8318 C 805.316 1.55244 1.36319 0
M  V30 8319 C 805.724 0.193059 1.88212 0
M  V30 8320 O 805.067 -0.820109 1.64377 0
M  V30 8321 C 805.129 2.498 2.58535 0
M  V30 8322 C 804.793 3.96007 2.28096 0
M  V30 8323 C 805.79 4.85171 1.8683 0
M  V30 8324 C 803.475 4.41152 2.40189 0
M  V30 8325 C 805.469 6.17493 1.58053 0
M  V30 8326 C 803.156 5.73508 2.11024 0
M  V30 8327 C 804.154 6.615 1.70021 0
M  V30 8328 O 803.842 7.914 1.41215 0
M  V30 8329 H 803.574 0.527513 0.422736 0
M  V30 8330 H 806.128 1.92623 0.713139 0
M  V30 8331 H 804.358 2.07443 3.2635 0
M  V30 8332 H 806.047 2.48934 3.20604 0
M  V30 8333 H 806.813 4.51548 1.77001 0
M  V30 8334 H 802.692 3.72886 2.71066 0
M  V30 8335 H 806.236 6.86131 1.25974 0
M  V30 8336 H 802.133 6.06679 2.20478 0
M  V30 8337 H 802.901 8.03681 1.55046 0
M  V30 8338 N 805.565 -0.825799 1.34232 0
M  V30 8339 C 806.811 -1.58419 1.26614 0
M  V30 8340 C 807.144 -1.93503 -0.164341 0
M  V30 8341 O 806.419 -1.59785 -1.109 0
M  V30 8342 C 806.702 -2.8856 2.15418 0
M  V30 8343 C 806.555 -2.60075 3.66989 0
M  V30 8344 C 807.874 -3.90107 2.03726 0
M  V30 8345 H 804.993 -0.574794 0.461282 0
M  V30 8346 H 807.635 -0.951519 1.64457 0
M  V30 8347 H 805.785 -3.42553 1.83275 0
M  V30 8348 H 807.457 -2.12414 4.09485 0
M  V30 8349 H 805.7 -1.93565 3.88221 0
M  V30 8350 H 806.371 -3.52866 4.24488 0
M  V30 8351 H 808.847 -3.45459 2.31942 0
M  V30 8352 H 807.723 -4.78976 2.68092 0
M  V30 8353 H 807.984 -4.30329 1.01337 0
M  V30 8354 N 807.043 -1.17915 -1.04565 0
M  V30 8355 C 808.32 -0.881187 -1.74627 0
M  V30 8356 C 808.7 0.617123 -2.01878 0
M  V30 8357 O 808.048 1.57032 -1.65991 0
M  V30 8358 C 808.258 -1.72299 -3.03503 0
M  V30 8359 C 809.606 -1.94688 -3.77335 0
M  V30 8360 O 810.63 -1.6931 -3.13389 0
M  V30 8361 O 809.489 -2.37379 -4.92253 0
M  V30 8362 H 806.583 -0.326864 -0.759664 0
M  V30 8363 H 809.129 -1.28642 -1.10676 0
M  V30 8364 H 807.901 -2.73891 -2.79462 0
M  V30 8365 H 807.524 -1.31593 -3.75192 0
M  V30 8366 N 808.521 1.23394 -0.980386 0
M  V30 8367 C 809.769 1.91431 -0.647978 0
M  V30 8368 C 810.09 1.76871 0.821066 0
M  V30 8369 O 809.36 1.14808 1.58732 0
M  V30 8370 H 807.94 0.708516 -0.236673 0
M  V30 8371 H 810.602 1.50019 -1.2442 0
M  V30 8372 H 809.698 2.98854 -0.899592 0
M  V30 8373 N 809.999 0.752036 1.385 0
M  V30 8374 C 811.245 0.307958 2.00448 0
M  V30 8375 C 811.578 -1.10702 1.59558 0
M  V30 8376 O 810.853 -1.75788 0.832391 0
M  V30 8377 C 811.136 0.429092 3.57534 0
M  V30 8378 C 810.989 1.88507 4.08393 0
M  V30 8379 C 812.308 -0.178442 4.39738 0
M  V30 8380 H 809.427 0.113373 0.728228 0
M  V30 8381 H 812.069 0.951389 1.64465 0
M  V30 8382 H 810.219 -0.118695 3.88319 0
M  V30 8383 H 811.891 2.49104 3.88259 0
M  V30 8384 H 810.134 2.40066 3.61318 0
M  V30 8385 H 810.805 1.92099 5.17496 0
M  V30 8386 H 813.281 0.28872 4.15097 0
M  V30 8387 H 812.157 -0.0634349 5.48863 0
M  V30 8388 H 812.418 -1.26655 4.23569 0
M  V30 8389 N 811.477 -1.49425 0.500989 0
M  V30 8390 C 812.387 -2.32899 -0.282011 0
M  V30 8391 C 813.403 -1.44632 -0.967346 0
M  V30 8392 O 814.579 -1.77654 -0.94873 0
M  V30 8393 C 811.644 -3.20069 -1.33253 0
M  V30 8394 C 810.705 -4.24186 -0.660636 0
M  V30 8395 C 809.938 -5.07191 -1.6611 0
M  V30 8396 O 810.161 -4.91712 -2.89094 0
M  V30 8397 O 809.095 -5.8948 -1.21643 0
M  V30 8398 H 812.921 -3.01038 0.401224 0
M  V30 8399 H 810.506 -1.47079 0.262323 0
M  V30 8400 H 812.388 -3.74071 -1.94033 0
M  V30 8401 H 811.063 -2.54625 -1.9987 0
M  V30 8402 H 809.97 -3.74098 -0.0130959 0
M  V30 8403 H 811.303 -4.92186 -0.0369179 0
M  V30 8404 N 812.955 -0.234822 -1.55841 0
M  V30 8405 C 814.201 0.393843 -1.98939 0
M  V30 8406 C 814.534 1.58466 -1.1226 0
M  V30 8407 O 813.809 1.93635 -0.183242 0
M  V30 8408 C 814.092 0.815492 -3.50745 0
M  V30 8409 C 813.945 -0.379878 -4.48193 0
M  V30 8410 C 815.264 1.66687 -4.07312 0
M  V30 8411 H 812.383 0.141681 -0.723253 0
M  V30 8412 H 815.025 -0.333716 -1.87046 0
M  V30 8413 H 813.175 1.43541 -3.6101 0
M  V30 8414 H 814.847 -1.0182 -4.49923 0
M  V30 8415 H 813.09 -1.02507 -4.21515 0
M  V30 8416 H 813.761 -0.0417069 -5.51984 0
M  V30 8417 H 816.237 1.14369 -4.00074 0
M  V30 8418 H 815.113 1.93078 -5.13821 0
M  V30 8419 H 815.374 2.63468 -3.55017 0
M  V30 8420 N 814.433 1.57553 0.0384317 0
M  V30 8421 C 815.383 2.02404 1.0496 0
M  V30 8422 C 816.367 0.911705 1.32577 0
M  V30 8423 O 817.559 1.17561 1.32319 0
M  V30 8424 C 814.688 2.49924 2.35357 0
M  V30 8425 C 813.774 3.6796 2.1087 0
M  V30 8426 N 814.165 4.81009 1.56411 0
M  V30 8427 C 812.463 3.75153 2.41197 0
M  V30 8428 C 813.164 5.62686 1.47512 0
M  V30 8429 N 812.14 5.0752 1.94742 0
M  V30 8430 H 815.942 2.87234 0.622399 0
M  V30 8431 H 813.456 1.60543 0.244916 0
M  V30 8432 H 815.453 2.80312 3.08595 0
M  V30 8433 H 814.113 1.66496 2.78763 0
M  V30 8434 H 815.124 5.02636 1.2481 0
M  V30 8435 H 811.801 3.02507 2.87742 0
M  V30 8436 H 813.191 6.6349 1.05976 0
M  V30 8437 N 815.911 -0.310526 1.54511 0
M  V30 8438 C 816.859 -1.40272 1.85544 0
M  V30 8439 C 817.853 -1.52941 0.728377 0
M  V30 8440 O 819.059 -1.55172 0.912234 0
M  V30 8441 H 815.434 -0.468355 0.588343 0
M  V30 8442 H 817.405 -1.11329 2.76855 0
M  V30 8443 C 816.154 -2.76279 2.11105 0
M  V30 8444 H 815.477 -2.67308 2.97298 0
M  V30 8445 H 816.917 -3.51736 2.36765 0
M  V30 8446 C 815.376 -3.24472 0.906618 0
M  V30 8447 O 815.906 -4.01514 0.122358 0
M  V30 8448 N 814.112 -2.81676 0.714632 0
M  V30 8449 H 813.659 -2.19143 1.35404 0
M  V30 8450 H 813.617 -3.14272 -0.089703 0
M  V30 8451 N 817.389 -1.46805 -0.573248 0
M  V30 8452 C 818.352 -1.57655 -1.66366 0
M  V30 8453 C 819.352 -0.452905 -1.5429 0
M  V30 8454 O 820.542 -0.717502 -1.58737 0
M  V30 8455 C 817.674 -1.50584 -3.05839 0
M  V30 8456 H 818.867 -2.54842 -1.581 0
M  V30 8457 H 816.42 -1.34756 -0.791868 0
M  V30 8458 H 817.155 -0.547127 -3.19651 0
M  V30 8459 H 816.94 -2.32118 -3.16012 0
M  V30 8460 H 818.43 -1.61282 -3.85199 0
M  V30 8461 N 818.867 0.818669 -1.34668 0
M  V30 8462 C 819.814 1.92983 -1.26595 0
M  V30 8463 C 820.784 1.65506 -0.140315 0
M  V30 8464 O 821.969 1.88063 -0.322005 0
M  V30 8465 C 819.109 3.2932 -1.03163 0
M  V30 8466 C 818.222 3.69061 -2.24539 0
M  V30 8467 C 817.357 4.94368 -1.94355 0
M  V30 8468 C 816.396 5.26702 -3.11851 0
M  V30 8469 N 815.533 6.43187 -2.81522 0
M  V30 8470 H 820.373 1.99219 -2.2162 0
M  V30 8471 H 817.91 0.974612 -1.1018 0
M  V30 8472 H 819.868 4.07897 -0.87613 0
M  V30 8473 H 818.498 3.22584 -0.118045 0
M  V30 8474 H 817.55 2.85842 -2.50995 0
M  V30 8475 H 818.862 3.88924 -3.12313 0
M  V30 8476 H 818.016 5.80742 -1.75566 0
M  V30 8477 H 816.755 4.76515 -1.03848 0
M  V30 8478 H 815.76 4.38823 -3.31231 0
M  V30 8479 H 816.985 5.46492 -4.03142 0
M  V30 8480 H 814.931 6.26783 -1.93596 0
M  V30 8481 H 814.848 6.63243 -3.62829 0
M  V30 8482 H 816.116 7.32621 -2.66247 0
M  V30 8483 N 820.346 1.18468 1.03938 0
M  V30 8484 C 821.574 1.00576 1.80809 0
M  V30 8485 C 821.989 -0.445786 1.83462 0
M  V30 8486 O 821.346 -1.30964 1.27101 0
M  V30 8487 C 821.397 1.55491 3.26351 0
M  V30 8488 O 821.118 2.94963 3.23926 0
M  V30 8489 C 822.619 1.42236 4.19862 0
M  V30 8490 H 819.839 0.35508 0.56935 0
M  V30 8491 H 822.383 1.57046 1.30984 0
M  V30 8492 H 820.538 1.03195 3.73403 0
M  V30 8493 H 820.952 3.20598 4.15111 0
M  V30 8494 H 822.426 1.85455 5.19914 0
M  V30 8495 H 822.903 0.371267 4.37628 0
M  V30 8496 H 823.509 1.9361 3.78675 0
M  V30 8497 N 821.824 -1.22873 0.986916 0
M  V30 8498 C 822.771 -2.2458 0.532215 0
M  V30 8499 C 823.741 -1.60375 -0.432322 0
M  V30 8500 O 824.926 -1.87775 -0.338416 0
M  V30 8501 C 822.066 -3.44761 -0.152864 0
M  V30 8502 C 821.179 -4.23501 0.852704 0
M  V30 8503 C 820.314 -5.31011 0.14176 0
M  V30 8504 C 819.353 -6.01464 1.1361 0
M  V30 8505 N 818.49 -7.00631 0.453871 0
M  V30 8506 H 823.33 -2.62838 1.40428 0
M  V30 8507 H 820.867 -1.29185 0.703543 0
M  V30 8508 H 822.825 -4.1333 -0.566926 0
M  V30 8509 H 821.455 -3.07284 -0.988756 0
M  V30 8510 H 820.507 -3.54286 1.38512 0
M  V30 8511 H 821.819 -4.72097 1.61014 0
M  V30 8512 H 820.973 -6.05805 -0.329337 0
M  V30 8513 H 819.712 -4.83373 -0.648229 0
M  V30 8514 H 818.717 -5.25456 1.61789 0
M  V30 8515 H 819.942 -6.5119 1.92686 0
M  V30 8516 H 817.888 -6.55235 -0.316791 0
M  V30 8517 H 817.805 -7.47204 1.14986 0
M  V30 8518 H 819.073 -7.795 0.00537823 0
M  V30 8519 N 823.302 -0.75937 -1.38099 0
M  V30 8520 C 824.713 -0.385078 -1.82686 0
M  V30 8521 C 825.064 1.0871 -1.6333 0
M  V30 8522 O 824.189 1.84084 -1.13762 0
M  V30 8523 C 824.784 -0.692161 -3.31654 0
M  V30 8524 C 823.343 -0.371077 -3.74566 0
M  V30 8525 C 822.49 -0.942375 -2.60796 0
M  V30 8526 H 825.441 -0.955048 -1.26746 0
M  V30 8527 H 825.462 0.0276001 -3.8049 0
M  V30 8528 H 824.974 -1.76369 -3.4571 0
M  V30 8529 H 823.075 0.693637 -3.66087 0
M  V30 8530 H 823.188 -0.870672 -4.71122 0
M  V30 8531 H 821.552 -0.367383 -2.52036 0
M  V30 8532 H 822.335 -2.01905 -2.77649 0
M  V30 8533 N 824.78 1.49157 -0.508906 0
M  V30 8534 C 826.196 1.58741 -0.165372 0
M  V30 8535 C 826.396 1.5133 1.33047 0
M  V30 8536 O 825.452 1.39135 2.10707 0
M  V30 8537 C 826.765 2.91217 -0.749194 0
M  V30 8538 C 828.313 3.047 -0.716015 0
M  V30 8539 C 828.788 4.39807 -1.27804 0
M  V30 8540 N 830.279 4.46319 -1.23908 0
M  V30 8541 C 831.014 5.49325 -1.64406 0
M  V30 8542 N 830.51 6.59395 -2.12534 0
M  V30 8543 N 832.303 5.40084 -1.55773 0
M  V30 8544 H 824.454 1.52217 -1.48134 0
M  V30 8545 H 826.717 0.721514 -0.614915 0
M  V30 8546 H 826.423 3.02233 -1.79856 0
M  V30 8547 H 826.297 3.76592 -0.214144 0
M  V30 8548 H 828.684 2.9331 0.324535 0
M  V30 8549 H 828.765 2.2099 -1.2883 0
M  V30 8550 H 828.409 4.5195 -2.31741 0
M  V30 8551 H 828.339 5.2217 -0.681623 0
M  V30 8552 H 830.83 3.67354 -0.886537 0
M  V30 8553 H 831.143 7.34102 -2.41485 0
M  V30 8554 H 829.488 6.60414 -2.16513 0
M  V30 8555 H 832.679 4.52986 -1.17987 0
M  V30 8556 H 832.852 6.20233 -1.87657 0
M  V30 8557 N 826.258 0.243083 1.55714 0
M  V30 8558 C 827.168 -0.668913 2.24862 0
M  V30 8559 C 828.184 -1.19638 1.26344 0
M  V30 8560 O 829.36 -1.23345 1.5921 0
M  V30 8561 C 826.425 -1.85084 2.93163 0
M  V30 8562 C 825.486 -1.36323 4.07081 0
M  V30 8563 C 824.719 -2.48882 4.72116 0
M  V30 8564 O 824.942 -3.67523 4.36214 0
M  V30 8565 O 823.876 -2.18857 5.60701 0
M  V30 8566 H 827.702 -0.109737 3.03502 0
M  V30 8567 H 825.287 0.0117411 1.49395 0
M  V30 8568 H 827.169 -2.54065 3.36197 0
M  V30 8569 H 825.844 -2.39771 2.17466 0
M  V30 8570 H 824.751 -0.640804 3.68571 0
M  V30 8571 H 826.084 -0.86249 4.84584 0
M  V30 8572 N 827.736 -1.57571 -0.0300757 0
M  V30 8573 C 828.646 -2.09892 -1.04798 0
M  V30 8574 C 829.662 -1.03732 -1.39698 0
M  V30 8575 O 830.838 -1.35461 -1.49038 0
M  V30 8576 C 827.903 -2.56707 -2.33028 0
M  V30 8577 C 826.964 -3.77345 -2.04718 0
M  V30 8578 C 826.197 -4.21918 -3.26834 0
M  V30 8579 O 826.42 -3.66025 -4.37472 0
M  V30 8580 O 825.354 -5.14362 -3.12594 0
M  V30 8581 H 829.18 -2.97023 -0.633344 0
M  V30 8582 H 826.765 -1.47344 -0.246991 0
M  V30 8583 H 828.647 -2.87154 -3.08417 0
M  V30 8584 H 827.322 -1.72688 -2.73789 0
M  V30 8585 H 826.229 -3.51919 -1.26901 0
M  V30 8586 H 827.562 -4.62345 -1.68813 0
M  V30 8587 N 829.214 0.302327 -1.54673 0
M  V30 8588 C 830.146 1.39443 -1.81902 0
M  V30 8589 C 831.159 1.46891 -0.701914 0
M  V30 8590 O 832.348 1.49233 -0.979369 0
M  V30 8591 C 829.448 2.77824 -1.9408 0
M  V30 8592 C 828.621 2.93324 -3.24468 0
M  V30 8593 C 827.68 4.12196 -3.27079 0
M  V30 8594 O 826.706 4.04344 -4.00617 0
M  V30 8595 N 827.908 5.22768 -2.52376 0
M  V30 8596 H 830.673 1.1644 -2.76155 0
M  V30 8597 H 828.234 0.492392 -1.54231 0
M  V30 8598 H 830.226 3.5559 -1.9323 0
M  V30 8599 H 828.796 2.9378 -1.06828 0
M  V30 8600 H 828.016 2.02682 -3.38103 0
M  V30 8601 H 829.304 3.0059 -4.10516 0
M  V30 8602 H 828.702 5.32027 -1.92259 0
M  V30 8603 H 827.259 5.98874 -2.57281 0
M  V30 8604 N 830.692 1.47107 0.565454 0
M  V30 8605 C 831.922 1.56681 1.34664 0
M  V30 8606 C 832.33 0.213011 1.87997 0
M  V30 8607 O 831.673 -0.802629 1.65238 0
M  V30 8608 C 831.735 2.52528 2.55871 0
M  V30 8609 C 831.399 3.98403 2.23883 0
M  V30 8610 C 832.396 4.87125 1.81673 0
M  V30 8611 C 830.081 4.43674 2.35496 0
M  V30 8612 C 832.075 6.19135 1.51494 0
M  V30 8613 C 829.762 5.75714 2.0493 0
M  V30 8614 C 830.76 6.63266 1.62996 0
M  V30 8615 O 830.448 7.92853 1.32813 0
M  V30 8616 H 830.18 0.531967 0.417117 0
M  V30 8617 H 832.734 1.93368 0.692669 0
M  V30 8618 H 830.964 2.10893 3.24131 0
M  V30 8619 H 832.653 2.5232 3.17945 0
M  V30 8620 H 833.419 4.534 1.72201 0
M  V30 8621 H 829.298 3.7574 2.67096 0
M  V30 8622 H 832.842 6.87429 1.1869 0
M  V30 8623 H 828.739 6.08983 2.14031 0
M  V30 8624 H 829.507 8.0528 1.46513 0
M  V30 8625 N 832.17 -0.811516 1.35101 0
M  V30 8626 C 833.118 -1.94449 1.27642 0
M  V30 8627 C 834.112 -1.68522 0.172287 0
M  V30 8628 O 835.318 -1.76799 0.337967 0
M  V30 8629 H 831.693 -0.638776 0.396824 0
M  V30 8630 H 833.664 -1.97861 2.23369 0
M  V30 8631 C 832.413 -3.31139 1.06029 0
M  V30 8632 H 831.736 -3.51644 1.90227 0
M  V30 8633 H 833.176 -4.10831 1.0485 0
M  V30 8634 C 831.635 -3.36072 -0.236039 0
M  V30 8635 O 832.165 -3.82292 -1.23353 0
M  V30 8636 N 830.371 -2.89314 -0.273107 0
M  V30 8637 H 829.918 -2.51893 0.539211 0
M  V30 8638 H 829.876 -2.92996 -1.1402 0
M  V30 8639 N 833.648 -1.19017 -1.03309 0
M  V30 8640 C 834.873 -1.01598 -1.80811 0
M  V30 8641 C 835.298 0.430773 -1.83101 0
M  V30 8642 O 834.656 1.30946 -1.25391 0
M  V30 8643 C 834.704 -1.5845 -3.23923 0
M  V30 8644 O 833.808 -0.810972 -4.04348 0
M  V30 8645 H 833.149 -0.359398 -0.558327 0
M  V30 8646 H 835.679 -1.57945 -1.30055 0
M  V30 8647 H 835.689 -1.61486 -3.74682 0
M  V30 8648 H 834.364 -2.63752 -3.21571 0
M  V30 8649 H 832.941 -0.85353 -3.63 0
M  V30 8650 N 835.127 1.22348 -0.993418 0
M  V30 8651 C 836.355 1.95125 -0.688021 0
M  V30 8652 C 836.77 1.73377 0.747388 0
M  V30 8653 O 836.127 1.03317 1.50439 0
M  V30 8654 C 836.178 3.47819 -0.985097 0
M  V30 8655 O 835.899 3.68838 -2.3641 0
M  V30 8656 C 837.4 4.37779 -0.697474 0
M  V30 8657 H 834.62 0.62087 -0.254481 0
M  V30 8658 H 837.164 1.55485 -1.32833 0
M  V30 8659 H 835.319 3.85426 -0.390583 0
M  V30 8660 H 835.733 4.63032 -2.46377 0
M  V30 8661 H 837.207 5.43666 -0.955604 0
M  V30 8662 H 837.684 4.37651 0.368524 0
M  V30 8663 H 838.29 4.05799 -1.27306 0
M  V30 8664 N 836.605 0.766683 1.37694 0
M  V30 8665 C 837.835 0.339446 2.03792 0
M  V30 8666 C 838.243 -1.04153 1.57952 0
M  V30 8667 O 837.586 -1.67521 0.753826 0
M  V30 8668 C 837.648 0.29822 3.58261 0
M  V30 8669 C 837.312 1.62293 4.27212 0
M  V30 8670 C 838.309 2.57447 4.51682 0
M  V30 8671 C 835.994 1.89597 4.65143 0
M  V30 8672 C 837.988 3.78117 5.13134 0
M  V30 8673 C 835.675 3.10538 5.26317 0
M  V30 8674 C 836.673 4.04617 5.50249 0
M  V30 8675 O 836.361 5.23429 6.10145 0
M  V30 8676 H 836.093 0.140952 0.661142 0
M  V30 8677 H 838.647 1.04022 1.77111 0
M  V30 8678 H 836.877 -0.458897 3.83967 0
M  V30 8679 H 838.566 -0.101263 4.05774 0
M  V30 8680 H 839.332 2.37633 4.22795 0
M  V30 8681 H 835.211 1.17199 4.45854 0
M  V30 8682 H 838.755 4.51563 5.3173 0
M  V30 8683 H 834.652 3.3024 5.54628 0
M  V30 8684 H 835.42 5.24187 6.28626 0
M  V30 8685 N 838.083 -1.48885 0.516809 0
M  V30 8686 C 839.499 -1.58651 0.173788 0
M  V30 8687 C 839.699 -1.52033 -1.32243 0
M  V30 8688 O 838.755 -1.40251 -2.09967 0
M  V30 8689 C 840.068 -2.90816 0.764628 0
M  V30 8690 C 841.616 -3.04316 0.732164 0
M  V30 8691 C 842.091 -4.39123 1.30135 0
M  V30 8692 N 843.582 -4.45656 1.26273 0
M  V30 8693 C 844.317 -5.48446 1.67317 0
M  V30 8694 N 843.813 -6.58258 2.16028 0
M  V30 8695 N 845.606 -5.39251 1.58635 0
M  V30 8696 H 837.757 -1.5143 1.48939 0
M  V30 8697 H 840.02 -0.718243 0.618733 0
M  V30 8698 H 839.726 -3.01275 1.81456 0
M  V30 8699 H 839.6 -3.76473 0.234113 0
M  V30 8700 H 841.987 -2.93478 -0.308975 0
M  V30 8701 H 842.068 -2.20303 1.3 0
M  V30 8702 H 841.712 -4.50714 2.34135 0
M  V30 8703 H 841.642 -5.21801 0.709305 0
M  V30 8704 H 844.133 -3.66879 0.906006 0
M  V30 8705 H 844.446 -7.32811 2.45374 0
M  V30 8706 H 842.791 -6.59257 2.20013 0
M  V30 8707 H 845.982 -4.52354 1.20387 0
M  V30 8708 H 846.155 -6.19229 1.90944 0
M  V30 8709 N 839.561 -0.251338 -1.55583 0
M  V30 8710 C 840.807 0.37272 -1.99346 0
M  V30 8711 C 841.14 1.57266 -1.13934 0
M  V30 8712 O 840.415 1.9343 -0.20377 0
M  V30 8713 C 840.698 0.778245 -3.5159 0
M  V30 8714 C 840.551 -0.427394 -4.47765 0
M  V30 8715 C 841.87 1.62358 -4.09057 0
M  V30 8716 H 838.989 0.134002 -0.724715 0
M  V30 8717 H 841.631 -0.353536 -1.86682 0
M  V30 8718 H 839.781 1.39704 -3.62512 0
M  V30 8719 H 841.453 -1.06586 -4.48818 0
M  V30 8720 H 839.696 -1.06972 -4.20404 0
M  V30 8721 H 840.367 -0.10025 -5.51909 0
M  V30 8722 H 842.843 1.1012 -4.01264 0
M  V30 8723 H 841.719 1.87617 -5.1584 0
M  V30 8724 H 841.98 2.59688 -3.57791 0
M  V30 8725 N 841.039 1.57585 0.0217189 0
M  V30 8726 C 842.285 1.89887 0.712099 0
M  V30 8727 C 842.618 0.849971 1.74611 0
M  V30 8728 O 841.893 -0.13407 1.94037 0
M  V30 8729 C 842.176 3.32815 1.37499 0
M  V30 8730 C 842.029 4.48405 0.353993 0
M  V30 8731 C 843.348 3.74786 2.30703 0
M  V30 8732 H 840.467 0.690588 0.257405 0
M  V30 8733 H 843.109 1.89983 -0.0251145 0
M  V30 8734 H 841.259 3.32863 2.00335 0
M  V30 8735 H 842.931 4.60491 -0.273015 0
M  V30 8736 H 841.174 4.32573 -0.32599 0
M  V30 8737 H 841.845 5.45316 0.85644 0
M  V30 8738 H 844.321 3.76151 1.77904 0
M  V30 8739 H 843.197 4.75585 2.74061 0
M  V30 8740 H 843.458 3.07449 3.17691 0
M  V30 8741 N 842.517 -0.29412 1.54831 0
M  V30 8742 C 843.742 -1.05156 1.78765 0
M  V30 8743 C 844.167 -1.79916 0.548809 0
M  V30 8744 O 843.525 -1.74243 -0.500909 0
M  V30 8745 C 843.573 -2.00242 2.99893 0
M  V30 8746 O 842.677 -3.08662 2.73499 0
M  V30 8747 H 842.018 -0.301737 0.591482 0
M  V30 8748 H 844.548 -0.329449 2.0193 0
M  V30 8749 H 844.558 -2.42583 3.28051 0
M  V30 8750 H 843.233 -1.45235 3.89717 0
M  V30 8751 H 841.81 -2.70786 2.56377 0
M  V30 8752 N 843.995 -1.47404 -0.557645 0
M  V30 8753 C 845.241 -1.54235 -1.31679 0
M  V30 8754 C 845.574 -0.203782 -1.93128 0
M  V30 8755 O 844.849 0.787536 -1.77843 0
M  V30 8756 C 845.132 -2.66003 -2.42723 0
M  V30 8757 C 844.985 -4.09475 -1.86145 0
M  V30 8758 C 846.304 -2.73685 -3.44652 0
M  V30 8759 H 843.423 -0.561466 -0.477415 0
M  V30 8760 H 846.065 -1.79459 -0.624067 0
M  V30 8761 H 844.215 -2.44627 -3.01811 0
M  V30 8762 H 845.887 -4.42213 -1.31321 0
M  V30 8763 H 844.13 -4.17774 -1.16823 0
M  V30 8764 H 844.801 -4.83451 -2.66418 0
M  V30 8765 H 847.277 -2.92968 -2.95481 0
M  V30 8766 H 846.153 -3.53665 -4.19777 0
M  V30 8767 H 846.414 -1.80726 -4.03473 0
M  V30 8768 N 845.473 0.80434 -1.35529 0
M  V30 8769 C 846.403 1.93086 -1.31301 0
M  V30 8770 C 847.384 1.69068 -0.187044 0
M  V30 8771 O 848.569 1.90399 -0.382359 0
M  V30 8772 C 845.699 3.29867 -1.0865 0
M  V30 8773 C 844.653 3.68373 -2.17911 0
M  V30 8774 C 843.979 5.0334 -1.80423 0
M  V30 8775 C 845.279 3.78516 -3.59893 0
M  V30 8776 H 846.973 1.96882 -2.25561 0
M  V30 8777 H 844.519 0.945841 -1.08581 0
M  V30 8778 H 846.472 4.08281 -1.04331 0
M  V30 8779 H 845.196 3.2642 -0.108359 0
M  V30 8780 H 843.855 2.92247 -2.21331 0
M  V30 8781 H 843.503 4.96399 -0.812213 0
M  V30 8782 H 843.203 5.30074 -2.53565 0
M  V30 8783 H 844.727 5.84191 -1.77633 0
M  V30 8784 H 846.141 4.47155 -3.58783 0
M  V30 8785 H 844.538 4.16721 -4.31814 0
M  V30 8786 H 845.608 2.8001 -3.95882 0
M  V30 8787 N 846.951 1.19563 1.02676 0
M  V30 8788 C 848.179 1.02488 1.79732 0
M  V30 8789 C 848.594 -0.426302 1.83924 0
M  V30 8790 O 847.951 -1.29609 1.28483 0
M  V30 8791 C 848.002 1.58944 3.24683 0
M  V30 8792 O 847.723 2.98382 3.2078 0
M  V30 8793 C 849.224 1.46681 4.1833 0
M  V30 8794 H 846.444 0.361098 0.565552 0
M  V30 8795 H 848.988 1.58426 1.29311 0
M  V30 8796 H 847.143 1.0715 3.72287 0
M  V30 8797 H 847.557 3.24983 4.11687 0
M  V30 8798 H 849.031 1.90959 5.17918 0
M  V30 8799 H 849.508 0.417663 4.3721 0
M  V30 8800 H 850.114 1.97616 3.76601 0
M  V30 8801 N 848.429 -1.21819 0.999893 0
M  V30 8802 C 849.675 -1.91035 0.680701 0
M  V30 8803 C 850.008 -1.77582 -0.786021 0
M  V30 8804 O 849.283 -1.14917 -1.56921 0
M  V30 8805 C 849.566 -3.43013 1.0961 0
M  V30 8806 C 849.419 -3.65481 2.6219 0
M  V30 8807 C 850.738 -4.35204 0.654616 0
M  V30 8808 H 847.857 -0.693748 0.248763 0
M  V30 8809 H 850.499 -1.43555 1.24466 0
M  V30 8810 H 848.649 -3.83581 0.616253 0
M  V30 8811 H 850.321 -3.34273 3.17899 0
M  V30 8812 H 848.564 -3.09522 3.03938 0
M  V30 8813 H 849.235 -4.71945 2.86307 0
M  V30 8814 H 851.711 -4.0219 1.06688 0
M  V30 8815 H 850.587 -5.40198 0.973492 0
M  V30 8816 H 850.848 -4.3986 -0.444458 0
M  V30 8817 N 849.908 -0.773975 -1.37286 0
M  V30 8818 C 850.838 -0.175782 -2.32837 0
M  V30 8819 C 851.819 0.680603 -1.5589 0
M  V30 8820 O 853.004 0.617607 -1.84117 0
M  V30 8821 C 850.134 0.702388 -3.40123 0
M  V30 8822 C 849.088 -0.0528687 -4.27967 0
M  V30 8823 C 848.414 0.944891 -5.26285 0
M  V30 8824 C 849.714 -1.23316 -5.07534 0
M  V30 8825 H 851.408 -0.974016 -2.83114 0
M  V30 8826 H 848.954 -0.469826 -1.3612 0
M  V30 8827 H 850.907 1.13069 -4.05947 0
M  V30 8828 H 849.631 1.53316 -2.88378 0
M  V30 8829 H 848.29 -0.461978 -3.63678 0
M  V30 8830 H 847.938 1.77028 -4.70819 0
M  V30 8831 H 847.638 0.444079 -5.8592 0
M  V30 8832 H 849.162 1.37209 -5.94984 0
M  V30 8833 H 850.576 -0.881395 -5.66484 0
M  V30 8834 H 848.973 -1.66621 -5.76504 0
M  V30 8835 H 850.043 -2.03617 -4.40077 0
M  V30 8836 N 851.386 1.48609 -0.524698 0
M  V30 8837 C 852.336 2.26505 0.260696 0
M  V30 8838 C 853.32 1.32378 0.914597 0
M  V30 8839 O 854.512 1.5695 0.818277 0
M  V30 8840 C 851.641 3.17313 1.31024 0
M  V30 8841 C 850.727 4.18911 0.661391 0
M  V30 8842 N 851.118 5.05183 -0.24981 0
M  V30 8843 C 849.416 4.36425 0.91922 0
M  V30 8844 C 850.117 5.78348 -0.623598 0
M  V30 8845 N 849.093 5.43598 0.0140839 0
M  V30 8846 H 852.895 2.90582 -0.440388 0
M  V30 8847 H 850.409 1.5875 -0.342364 0
M  V30 8848 H 852.406 3.71772 1.88656 0
M  V30 8849 H 851.066 2.54791 2.01275 0
M  V30 8850 H 852.077 5.1415 -0.622093 0
M  V30 8851 H 848.754 3.85095 1.6127 0
M  V30 8852 H 850.144 6.57775 -1.37046 0
M  V30 8853 N 852.864 0.259585 1.55447 0
M  V30 8854 C 853.796 -0.667548 2.19263 0
M  V30 8855 C 854.809 -1.12925 1.17268 0
M  V30 8856 O 855.998 -1.05384 1.44071 0
M  V30 8857 C 853.098 -1.92066 2.7922 0
M  V30 8858 C 852.271 -1.60832 4.06758 0
M  V30 8859 C 851.33 -2.71231 4.50911 0
M  V30 8860 O 850.356 -2.38077 5.17019 0
M  V30 8861 N 851.558 -4.00984 4.19752 0
M  V30 8862 H 854.323 -0.121449 2.99454 0
M  V30 8863 H 851.884 0.0800519 1.61702 0
M  V30 8864 H 853.876 -2.65186 3.0571 0
M  V30 8865 H 852.446 -2.37621 2.03113 0
M  V30 8866 H 851.666 -0.711685 3.87722 0
M  V30 8867 H 852.954 -1.37445 4.89884 0
M  V30 8868 H 852.352 -4.30748 3.66706 0
M  V30 8869 H 850.909 -4.7053 4.51048 0
M  V30 8870 N 854.342 -1.57594 -0.0133615 0
M  V30 8871 C 855.619 -1.81173 -0.737273 0
M  V30 8872 C 855.999 -0.861395 -1.92726 0
M  V30 8873 O 855.347 0.0929324 -2.28311 0
M  V30 8874 C 855.557 -3.29314 -1.15557 0
M  V30 8875 C 856.905 -3.94707 -1.56498 0
M  V30 8876 O 857.929 -3.33557 -1.24973 0
M  V30 8877 O 856.788 -5.02402 -2.15069 0
M  V30 8878 H 853.882 -0.745575 -0.357837 0
M  V30 8879 H 856.428 -1.69696 0.0110674 0
M  V30 8880 H 855.2 -3.90096 -0.30677 0
M  V30 8881 H 854.823 -3.45739 -1.96343 0
M  V30 8882 N 855.82 0.285905 -1.54985 0
M  V30 8883 C 857.066 1.01669 -1.76168 0
M  V30 8884 C 857.421 1.84401 -0.549019 0
M  V30 8885 O 856.714 1.86034 0.458463 0
M  V30 8886 C 856.908 1.94193 -3.0004 0
M  V30 8887 C 856.737 1.20565 -4.33237 0
M  V30 8888 C 855.507 0.92661 -4.96731 0
M  V30 8889 C 857.705 0.602514 -5.10759 0
M  V30 8890 N 855.687 0.162185 -6.13686 0
M  V30 8891 C 857.058 -0.0283843 -6.19994 0
M  V30 8892 C 859.113 0.509067 -4.95291 0
M  V30 8893 C 857.816 -0.743706 -7.15445 0
M  V30 8894 C 859.842 -0.192633 -5.91086 0
M  V30 8895 C 859.204 -0.812321 -6.997 0
M  V30 8896 H 855.303 0.354451 -0.697057 0
M  V30 8897 H 857.887 0.293693 -1.92472 0
M  V30 8898 H 856.058 2.6373 -2.85133 0
M  V30 8899 H 857.79 2.60536 -3.09682 0
M  V30 8900 H 854.545 1.22861 -4.57386 0
M  V30 8901 H 854.969 -0.206982 -6.76684 0
M  V30 8902 H 859.611 0.973856 -4.11432 0
M  V30 8903 H 857.329 -1.22022 -7.98834 0
M  V30 8904 H 860.915 -0.265082 -5.81196 0
M  V30 8905 H 859.795 -1.34665 -7.72551 0
M  V30 8906 N 857.298 1.47698 0.54982 0
M  V30 8907 C 858.228 1.63622 1.66583 0
M  V30 8908 C 859.209 0.485477 1.63025 0
M  V30 8909 O 860.394 0.715692 1.80531 0
M  V30 8910 C 857.524 1.65721 3.05211 0
M  V30 8911 C 856.478 2.80097 3.2362 0
M  V30 8912 C 855.804 2.67272 4.63109 0
M  V30 8913 C 857.104 4.21612 3.08286 0
M  V30 8914 H 858.798 2.57049 1.53512 0
M  V30 8915 H 856.344 1.23705 0.737099 0
M  V30 8916 H 858.297 1.75451 3.83138 0
M  V30 8917 H 857.021 0.688593 3.19258 0
M  V30 8918 H 855.68 2.69889 2.48104 0
M  V30 8919 H 855.328 1.68422 4.73965 0
M  V30 8920 H 855.028 3.44008 4.76374 0
M  V30 8921 H 856.552 2.78942 5.43161 0
M  V30 8922 H 857.966 4.32758 3.76024 0
M  V30 8923 H 856.363 4.99193 3.33057 0
M  V30 8924 H 857.433 4.39462 2.04942 0
M  V30 8925 N 858.776 -0.797141 1.35954 0
M  V30 8926 C 859.724 -1.93084 1.29697 0
M  V30 8927 C 860.718 -1.68329 0.190152 0
M  V30 8928 O 861.924 -1.7643 0.3567 0
M  V30 8929 H 858.299 -0.634531 0.403577 0
M  V30 8930 H 860.27 -1.95481 2.25455 0
M  V30 8931 C 859.019 -3.29996 1.09536 0
M  V30 8932 H 858.342 -3.49607 1.93946 0
M  V30 8933 H 859.782 -4.09696 1.09202 0
M  V30 8934 C 858.241 -3.36304 -0.200381 0
M  V30 8935 O 858.771 -3.83579 -1.19291 0
M  V30 8936 N 856.977 -2.89587 -0.242406 0
M  V30 8937 H 856.524 -2.51307 0.565897 0
M  V30 8938 H 856.482 -2.94189 -1.10906 0
M  V30 8939 N 860.254 -1.20106 -1.0204 0
M  V30 8940 C 861.502 -1.0069 -1.75231 0
M  V30 8941 C 861.823 0.462491 -1.89436 0
M  V30 8942 O 861.093 1.33455 -1.4341 0
M  V30 8943 H 859.673 -0.369576 -0.649171 0
M  V30 8944 H 862.335 -1.51149 -1.23044 0
M  V30 8945 H 861.431 -1.46205 -2.75736 0
M  V30 8946 N 861.732 1.21287 -1.00634 0
M  V30 8947 C 862.679 2.23705 -0.567876 0
M  V30 8948 C 863.649 1.61043 0.406753 0
M  V30 8949 O 864.834 1.88289 0.308499 0
M  V30 8950 C 861.974 3.44961 0.097996 0
M  V30 8951 C 861.087 4.22091 -0.919972 0
M  V30 8952 C 860.222 5.30718 -0.226222 0
M  V30 8953 C 859.261 5.99581 -1.23165 0
M  V30 8954 N 858.398 6.99821 -0.565278 0
M  V30 8955 H 863.238 2.60571 -1.44592 0
M  V30 8956 H 860.775 1.28049 -0.724006 0
M  V30 8957 H 862.733 4.1418 0.501097 0
M  V30 8958 H 861.363 3.08818 0.939744 0
M  V30 8959 H 860.415 3.52038 -1.44131 0
M  V30 8960 H 861.727 4.69476 -1.68505 0
M  V30 8961 H 860.881 6.06253 0.232917 0
M  V30 8962 H 859.62 4.84343 0.571247 0
M  V30 8963 H 858.625 5.22816 -1.70128 0
M  V30 8964 H 859.85 6.48042 -2.03022 0
M  V30 8965 H 857.796 6.55656 0.212508 0
M  V30 8966 H 857.713 7.4528 -1.26858 0
M  V30 8967 H 858.981 7.79393 -0.129389 0
M  V30 8968 N 863.21 0.781244 1.36873 0
M  V30 8969 C 864.12 0.174981 2.33947 0
M  V30 8970 C 865.136 -0.668512 1.60645 0
M  V30 8971 O 866.312 -0.586213 1.9268 0
M  V30 8972 C 863.377 -0.686557 3.39834 0
M  V30 8973 C 862.438 0.174489 4.28945 0
M  V30 8974 C 861.671 -0.646024 5.29776 0
M  V30 8975 O 861.894 -1.88254 5.38439 0
M  V30 8976 O 860.828 -0.0502214 6.01879 0
M  V30 8977 H 864.654 0.977382 2.87543 0
M  V30 8978 H 862.239 0.542559 1.392 0
M  V30 8979 H 864.121 -1.1781 4.04597 0
M  V30 8980 H 862.796 -1.46699 2.8855 0
M  V30 8981 H 861.703 0.712604 3.6725 0
M  V30 8982 H 863.036 0.918232 4.83559 0
M  V30 8983 N 864.689 -1.48329 0.532571 0
M  V30 8984 C 865.919 -2.066 0.00353785 0
M  V30 8985 C 866.327 -1.38913 -1.28451 0
M  V30 8986 O 865.67 -0.471385 -1.77549 0
M  V30 8987 C 865.732 -3.58342 -0.288324 0
M  V30 8988 C 865.396 -4.47917 0.906631 0
M  V30 8989 C 866.393 -4.87534 1.80572 0
M  V30 8990 C 864.078 -4.89783 1.11436 0
M  V30 8991 C 866.072 -5.6779 2.89642 0
M  V30 8992 C 863.759 -5.69809 2.20819 0
M  V30 8993 C 864.757 -6.08721 3.09755 0
M  V30 8994 O 864.445 -6.8714 4.17246 0
M  V30 8995 H 864.177 -0.675263 0.0315661 0
M  V30 8996 H 866.731 -1.91669 0.738375 0
M  V30 8997 H 864.961 -3.71395 -1.07717 0
M  V30 8998 H 866.65 -3.98726 -0.759752 0
M  V30 8999 H 867.416 -4.5581 1.65719 0
M  V30 9000 H 863.295 -4.58977 0.431382 0
M  V30 9001 H 866.839 -5.98082 3.59087 0
M  V30 9002 H 862.736 -6.00947 2.35655 0
M  V30 9003 H 863.504 -7.05498 4.14988 0
M  V30 9004 N 866.167 -0.267825 -1.55308 0
M  V30 9005 C 867.114 0.6228 -2.22238 0
M  V30 9006 C 868.084 1.15536 -1.19334 0
M  V30 9007 O 869.269 1.206 -1.47852 0
M  V30 9008 C 866.409 1.80447 -2.94164 0
M  V30 9009 C 865.522 1.30646 -4.11771 0
M  V30 9010 C 864.657 2.44935 -4.7136 0
M  V30 9011 C 863.696 1.92099 -5.81175 0
M  V30 9012 N 862.833 2.99834 -6.34857 0
M  V30 9013 H 867.673 0.0453874 -2.97965 0
M  V30 9014 H 865.21 0.0106371 -1.47096 0
M  V30 9015 H 867.168 2.49896 -3.34078 0
M  V30 9016 H 865.798 2.35403 -2.20874 0
M  V30 9017 H 864.85 0.505314 -3.77029 0
M  V30 9018 H 866.162 0.879409 -4.90987 0
M  V30 9019 H 865.316 3.2239 -5.13955 0
M  V30 9020 H 864.055 2.90951 -3.91406 0
M  V30 9021 H 863.06 1.13122 -5.38037 0
M  V30 9022 H 864.285 1.47027 -6.62993 0
M  V30 9023 H 862.231 3.45246 -5.578 0
M  V30 9024 H 862.148 2.61524 -7.09324 0
M  V30 9025 H 863.416 3.77286 -6.82111 0
M  V30 9026 N 867.645 1.57599 0.00500368 0
M  V30 9027 C 868.885 1.92205 0.695456 0
M  V30 9028 C 869.249 0.868894 1.71214 0
M  V30 9029 O 870.45 1.10004 2.4526 0
M  V30 9030 C 868.721 3.31882 1.32625 0
M  V30 9031 S 870.28 3.88364 2.04252 0
M  V30 9032 H 867.098 0.672826 0.22984 0
M  V30 9033 H 869.7 1.95435 -0.0504824 0
M  V30 9034 H 868.404 4.06375 0.573396 0
M  V30 9035 H 867.935 3.32013 2.11023 0
M  V30 9036 H 869.95 3.69035 3.31704 0
M  V30 9037 N 869.123 -0.277682 1.55134 0
M  V30 9038 C 870.07 -1.34313 1.87693 0
M  V30 9039 C 871.04 -1.49298 0.727973 0
M  V30 9040 O 872.225 -1.6378 0.978807 0
M  V30 9041 C 869.365 -2.69922 2.15026 0
M  V30 9042 C 868.478 -2.63197 3.42565 0
M  V30 9043 C 867.613 -3.90955 3.59622 0
M  V30 9044 C 866.652 -3.78722 4.8087 0
M  V30 9045 N 865.789 -4.98303 4.94609 0
M  V30 9046 H 870.629 -1.05847 2.78569 0
M  V30 9047 H 868.166 -0.511469 1.37922 0
M  V30 9048 H 870.124 -3.48817 2.28872 0
M  V30 9049 H 868.754 -2.966 1.2739 0
M  V30 9050 H 867.806 -1.76038 3.37216 0
M  V30 9051 H 869.118 -2.50056 4.31594 0
M  V30 9052 H 868.272 -4.78291 3.7326 0
M  V30 9053 H 867.011 -4.06957 2.6877 0
M  V30 9054 H 866.016 -2.89769 4.67241 0
M  V30 9055 H 867.241 -3.64242 5.73153 0
M  V30 9056 H 865.187 -5.14725 4.06687 0
M  V30 9057 H 865.104 -4.87675 5.77676 0
M  V30 9058 H 866.372 -5.87225 5.12628 0
M  V30 9059 N 870.601 -1.47988 -0.541979 0
M  V30 9060 C 871.847 -1.55623 -1.30036 0
M  V30 9061 C 872.18 -0.224254 -1.92901 0
M  V30 9062 O 871.455 0.768629 -1.78668 0
M  V30 9063 C 871.738 -2.68562 -2.39888 0
M  V30 9064 C 871.591 -4.11426 -1.81792 0
M  V30 9065 C 872.91 -2.77325 -3.41729 0
M  V30 9066 H 870.029 -0.566498 -0.471433 0
M  V30 9067 H 872.671 -1.8011 -0.604998 0
M  V30 9068 H 870.821 -2.47814 -2.992 0
M  V30 9069 H 872.493 -4.43581 -1.26624 0
M  V30 9070 H 870.736 -4.18989 -1.12386 0
M  V30 9071 H 871.407 -4.8625 -2.61276 0
M  V30 9072 H 873.883 -2.96085 -2.92357 0
M  V30 9073 H 872.759 -3.58097 -4.16002 0
M  V30 9074 H 873.02 -1.84995 -4.01534 0
M  V30 9075 N 872.079 0.78992 -1.36375 0
M  V30 9076 C 873.304 1.58389 -1.33895 0
M  V30 9077 C 873.729 1.8794 0.0774934 0
M  V30 9078 O 873.087 1.4785 1.0493 0
M  V30 9079 C 873.135 2.88201 -2.16732 0
M  V30 9080 O 872.239 3.81778 -1.55946 0
M  V30 9081 H 871.58 0.480471 -0.458305 0
M  V30 9082 H 874.11 0.979119 -1.79651 0
M  V30 9083 H 874.12 3.37475 -2.29292 0
M  V30 9084 H 872.795 2.66019 -3.19698 0
M  V30 9085 H 871.372 3.40371 -1.52323 0
M  V30 9086 N 873.557 1.20646 1.01402 0
M  V30 9087 C 874.505 0.954493 2.12114 0
M  V30 9088 C 875.499 -0.0950737 1.69133 0
M  V30 9089 O 876.705 0.0555153 1.79914 0
M  V30 9090 H 873.08 0.29135 0.693267 0
M  V30 9091 H 875.051 1.89447 2.30548 0
M  V30 9092 C 873.8 0.525944 3.43699 0
M  V30 9093 H 873.123 1.32516 3.772 0
M  V30 9094 H 874.563 0.388883 4.22213 0
M  V30 9095 C 873.022 -0.761997 3.28169 0
M  V30 9096 O 873.552 -1.81979 3.58115 0
M  V30 9097 N 871.758 -0.725017 2.8141 0
M  V30 9098 H 871.305 0.13607 2.5724 0
M  V30 9099 H 871.263 -1.5871 2.71401 0
M  V30 9100 N 875.035 -1.20752 1.01276 0
M  V30 9101 C 875.982 -2.234 0.579732 0
M  V30 9102 C 876.952 -1.61256 -0.398206 0
M  V30 9103 O 878.137 -1.8845 -0.29851 0
M  V30 9104 C 875.277 -3.45008 -0.0797006 0
M  V30 9105 C 874.39 -4.21597 0.942343 0
M  V30 9106 C 873.525 -5.30591 0.254364 0
M  V30 9107 C 872.564 -5.98919 1.26343 0
M  V30 9108 N 871.701 -6.99511 0.602384 0
M  V30 9109 H 876.541 -2.59801 1.45971 0
M  V30 9110 H 874.078 -1.27663 0.730787 0
M  V30 9111 H 876.036 -4.1444 -0.479125 0
M  V30 9112 H 874.666 -3.09312 -0.923354 0
M  V30 9113 H 873.718 -3.51268 1.45996 0
M  V30 9114 H 875.03 -4.68576 1.70992 0
M  V30 9115 H 874.184 -6.06368 -0.200763 0
M  V30 9116 H 872.923 -4.84639 -0.545553 0
M  V30 9117 H 871.928 -5.21906 1.72898 0
M  V30 9118 H 873.153 -6.46957 2.06456 0
M  V30 9119 H 871.099 -6.55759 -0.177734 0
M  V30 9120 H 871.016 -7.44597 1.30809 0
M  V30 9121 H 872.284 -7.79313 0.17072 0
M  V30 9122 N 876.513 -0.788492 -1.36457 0
M  V30 9123 C 877.476 -0.192209 -2.28393 0
M  V30 9124 C 878.476 0.609916 -1.48784 0
M  V30 9125 O 879.666 0.431046 -1.68783 0
M  V30 9126 C 876.798 0.734096 -3.32902 0
M  V30 9127 H 877.991 -1.00284 -2.82636 0
M  V30 9128 H 875.544 -0.557852 -1.46006 0
M  V30 9129 H 876.279 1.5691 -2.83813 0
M  V30 9130 H 876.064 0.160875 -3.9177 0
M  V30 9131 H 877.554 1.1462 -4.01562 0
M  V30 9132 N 877.991 1.48044 -0.54043 0
M  V30 9133 C 878.921 2.32597 0.205178 0
M  V30 9134 C 879.902 1.42748 0.925041 0
M  V30 9135 O 881.087 1.71624 0.908784 0
M  V30 9136 C 878.217 3.24175 1.24612 0
M  V30 9137 C 877.171 4.23131 0.64376 0
M  V30 9138 C 876.497 5.03915 1.78812 0
M  V30 9139 C 877.797 5.20831 -0.39144 0
M  V30 9140 H 879.491 2.95184 -0.500676 0
M  V30 9141 H 877.037 1.41948 -0.242225 0
M  V30 9142 H 878.99 3.82158 1.77576 0
M  V30 9143 H 877.714 2.59608 1.98169 0
M  V30 9144 H 876.373 3.66349 0.135554 0
M  V30 9145 H 876.021 4.35765 2.51232 0
M  V30 9146 H 875.721 5.709 1.39094 0
M  V30 9147 H 877.245 5.64753 2.32134 0
M  V30 9148 H 878.659 5.73277 0.0515064 0
M  V30 9149 H 877.056 5.95926 -0.706569 0
M  V30 9150 H 878.126 4.6733 -1.29345 0
M  V30 9151 N 879.47 0.276058 1.55163 0
M  V30 9152 C 880.881 -0.221516 1.85381 0
M  V30 9153 C 881.232 -1.55372 1.19808 0
M  V30 9154 O 880.357 -2.10855 0.486742 0
M  V30 9155 C 880.952 -0.408706 3.36326 0
M  V30 9156 C 879.511 -0.850512 3.66665 0
M  V30 9157 C 878.658 0.055656 2.77244 0
M  V30 9158 H 881.609 0.497819 1.5069 0
M  V30 9159 H 881.63 -1.24711 3.59482 0
M  V30 9160 H 881.142 0.561052 3.84023 0
M  V30 9161 H 879.243 -1.83171 3.24468 0
M  V30 9162 H 879.356 -0.687181 4.74146 0
M  V30 9163 H 877.72 -0.460819 2.50497 0
M  V30 9164 H 878.503 1.02131 3.27756 0
M  V30 9165 N 880.948 -1.576 0.00335426 0
M  V30 9166 C 881.911 -2.07576 -0.971838 0
M  V30 9167 C 882.911 -0.985796 -1.27038 0
M  V30 9168 O 884.101 -1.24833 -1.21501 0
M  V30 9169 C 881.233 -2.52003 -2.29581 0
M  V30 9170 H 882.426 -2.95008 -0.539481 0
M  V30 9171 H 879.979 -1.54381 -0.244186 0
M  V30 9172 H 880.714 -1.67825 -2.77498 0
M  V30 9173 H 880.499 -3.31609 -2.09231 0
M  V30 9174 H 881.989 -2.90983 -2.99531 0
M  V30 9175 N 882.426 0.269451 -1.5528 0
M  V30 9176 C 883.837 0.840233 -1.66724 0
M  V30 9177 C 884.188 1.86909 -0.596621 0
M  V30 9178 O 883.313 2.14817 0.261246 0
M  V30 9179 C 883.908 1.5308 -3.02245 0
M  V30 9180 C 882.467 2.04957 -3.15705 0
M  V30 9181 C 881.614 0.892838 -2.62533 0
M  V30 9182 H 884.565 0.0457236 -1.58634 0
M  V30 9183 H 884.586 2.39792 -2.95432 0
M  V30 9184 H 884.098 0.781741 -3.80145 0
M  V30 9185 H 882.199 2.82813 -2.42585 0
M  V30 9186 H 882.312 2.26244 -4.22316 0
M  V30 9187 H 880.676 1.28719 -2.19781 0
M  V30 9188 H 881.459 0.157229 -3.4294 0
M  V30 9189 N 883.904 1.48273 0.534124 0
M  V30 9190 C 885.153 1.55334 1.28663 0
M  V30 9191 C 885.466 0.230345 1.94239 0
M  V30 9192 O 886.672 0.179161 2.70908 0
M  V30 9193 C 885.128 2.73927 2.33435 0
M  V30 9194 C 884.736 4.12852 1.73947 0
M  V30 9195 C 886.48 2.90298 3.09722 0
M  V30 9196 C 884.387 5.22711 2.76636 0
M  V30 9197 H 883.317 0.578262 0.483869 0
M  V30 9198 H 885.968 1.74598 0.564602 0
M  V30 9199 H 884.35 2.48089 3.08655 0
M  V30 9200 H 885.524 4.48691 1.04944 0
M  V30 9201 H 883.839 4.01562 1.10167 0
M  V30 9202 H 886.436 3.69542 3.86449 0
M  V30 9203 H 886.779 1.99598 3.6533 0
M  V30 9204 H 887.312 3.16017 2.41616 0
M  V30 9205 H 884.051 6.15362 2.25852 0
M  V30 9206 H 883.571 4.91364 3.43979 0
M  V30 9207 H 885.25 5.50648 3.39699 0
M  V30 9208 N 885.382 -0.782676 1.36792 0
M  V30 9209 C 886.292 -1.92679 1.33835 0
M  V30 9210 C 887.308 -1.72344 0.23952 0
M  V30 9211 O 888.484 -1.95766 0.473045 0
M  V30 9212 C 885.549 -3.27644 1.1336 0
M  V30 9213 C 884.61 -3.6071 2.32781 0
M  V30 9214 C 883.843 -4.89234 2.13273 0
M  V30 9215 O 884.066 -5.59468 1.11136 0
M  V30 9216 O 883 -5.21112 3.01208 0
M  V30 9217 H 886.826 -1.98124 2.30175 0
M  V30 9218 H 884.411 -0.923887 1.17408 0
M  V30 9219 H 886.293 -4.08394 1.03886 0
M  V30 9220 H 884.968 -3.23076 0.200868 0
M  V30 9221 H 883.875 -2.80238 2.47825 0
M  V30 9222 H 885.208 -3.70008 3.24584 0
M  V30 9223 N 886.86 -1.21182 -1.00761 0
M  V30 9224 C 887.807 -0.968741 -2.09485 0
M  V30 9225 C 888.777 0.104325 -1.65772 0
M  V30 9226 O 889.962 -0.0422587 -1.90753 0
M  V30 9227 C 887.102 -0.536686 -3.40901 0
M  V30 9228 C 886.215 -1.6789 -3.98041 0
M  V30 9229 C 885.35 -1.19627 -5.17555 0
M  V30 9230 C 884.389 -2.31099 -5.66798 0
M  V30 9231 N 883.526 -1.83988 -6.77564 0
M  V30 9232 H 888.366 -1.89952 -2.29613 0
M  V30 9233 H 885.903 -0.946688 -1.12589 0
M  V30 9234 H 887.861 -0.26745 -4.16342 0
M  V30 9235 H 886.491 0.357092 -3.20819 0
M  V30 9236 H 885.543 -2.06284 -3.19611 0
M  V30 9237 H 886.855 -2.51794 -4.30582 0
M  V30 9238 H 886.009 -0.883539 -6.00232 0
M  V30 9239 H 884.748 -0.327244 -4.86601 0
M  V30 9240 H 883.753 -2.63178 -4.82719 0
M  V30 9241 H 884.978 -3.18493 -5.99782 0
M  V30 9242 H 882.924 -0.994257 -6.48422 0
M  V30 9243 H 882.841 -2.61466 -7.09346 0
M  V30 9244 H 884.109 -1.55741 -7.63783 0
M  V30 9245 N 888.338 1.20213 -1.01915 0
M  V30 9246 C 889.566 1.93622 -0.729255 0
M  V30 9247 C 889.981 1.74923 0.710444 0
M  V30 9248 O 889.338 1.06484 1.48214 0
M  V30 9249 C 889.389 3.45651 -1.05865 0
M  V30 9250 O 889.11 3.63741 -2.44181 0
M  V30 9251 C 890.611 4.36201 -0.790176 0
M  V30 9252 H 887.831 0.615333 -0.267594 0
M  V30 9253 H 890.375 1.52633 -1.36101 0
M  V30 9254 H 888.53 3.84511 -0.47225 0
M  V30 9255 H 888.944 4.57702 -2.56143 0
M  V30 9256 H 890.418 5.41516 -1.07071 0
M  V30 9257 H 890.895 4.38334 0.275609 0
M  V30 9258 H 891.501 4.03008 -1.35885 0
M  V30 9259 N 889.816 0.795718 1.36037 0
M  V30 9260 C 891.065 0.367575 1.98322 0
M  V30 9261 C 891.378 -1.06823 1.63854 0
M  V30 9262 O 892.584 -1.59895 2.19421 0
M  V30 9263 C 891.04 0.606272 3.54757 0
M  V30 9264 C 890.648 2.0539 3.98144 0
M  V30 9265 C 892.392 0.242947 4.23804 0
M  V30 9266 C 890.299 2.23893 5.47381 0
M  V30 9267 H 889.229 0.133699 0.742052 0
M  V30 9268 H 891.88 0.978242 1.5525 0
M  V30 9269 H 890.262 -0.0741957 3.9593 0
M  V30 9270 H 891.436 2.77129 3.68152 0
M  V30 9271 H 889.751 2.37607 3.41953 0
M  V30 9272 H 892.348 0.359382 5.33491 0
M  V30 9273 H 892.691 -0.809661 4.08351 0
M  V30 9274 H 893.224 0.876899 3.88015 0
M  V30 9275 H 889.963 3.27559 5.6779 0
M  V30 9276 H 889.483 1.56666 5.78978 0
M  V30 9277 H 891.162 2.04914 6.13693 0
M  V30 9278 N 891.294 -1.47756 0.548274 0
M  V30 9279 C 892.519 -2.07387 0.023475 0
M  V30 9280 C 892.944 -1.39956 -1.25674 0
M  V30 9281 O 892.302 -0.471543 -1.7506 0
M  V30 9282 C 892.35 -3.60224 -0.164669 0
M  V30 9283 O 891.454 -3.93653 -1.22928 0
M  V30 9284 H 890.795 -0.662312 0.0473156 0
M  V30 9285 H 893.325 -1.89905 0.761409 0
M  V30 9286 H 893.335 -4.06211 -0.38166 0
M  V30 9287 H 892.01 -4.08702 0.770425 0
M  V30 9288 H 890.587 -3.59422 -0.993495 0
M  V30 9289 N 892.772 -0.284283 -1.55015 0
M  V30 9290 C 893.719 0.599194 -2.22886 0
M  V30 9291 C 894.689 1.14264 -1.20553 0
M  V30 9292 O 895.874 1.19025 -1.49123 0
M  V30 9293 C 893.014 1.77317 -2.96062 0
M  V30 9294 C 892.127 1.26271 -4.13134 0
M  V30 9295 C 891.262 2.39922 -4.73931 0
M  V30 9296 C 890.301 1.85925 -5.8318 0
M  V30 9297 N 889.438 2.93084 -6.38002 0
M  V30 9298 H 894.278 0.0137816 -2.97997 0
M  V30 9299 H 891.815 -0.00496503 -1.47099 0
M  V30 9300 H 893.773 2.46339 -3.36709 0
M  V30 9301 H 892.403 2.33047 -2.23358 0
M  V30 9302 H 891.455 0.465296 -3.77544 0
M  V30 9303 H 892.767 0.827284 -4.91892 0
M  V30 9304 H 891.921 3.1692 -5.17346 0
M  V30 9305 H 890.66 2.86784 -3.9447 0
M  V30 9306 H 889.665 1.07409 -5.39206 0
M  V30 9307 H 890.89 1.39987 -6.64515 0
M  V30 9308 H 888.836 3.3931 -5.61431 0
M  V30 9309 H 888.753 2.53986 -7.12058 0
M  V30 9310 H 890.021 3.7003 -6.86075 0
M  V30 9311 N 894.251 1.57596 -0.0117121 0
M  V30 9312 C 895.214 2.08089 0.960816 0
M  V30 9313 C 896.214 0.992519 1.26514 0
M  V30 9314 O 897.404 1.25475 1.20837 0
M  V30 9315 C 894.536 2.53217 2.28241 0
M  V30 9316 H 895.729 2.9529 0.523829 0
M  V30 9317 H 893.282 1.54508 0.235995 0
M  V30 9318 H 894.017 1.69294 2.76604 0
M  V30 9319 H 893.802 3.32714 2.0747 0
M  V30 9320 H 895.292 2.92568 2.97983 0
M  V30 9321 N 895.729 -0.261212 1.5542 0
M  V30 9322 C 896.676 -1.32315 1.89107 0
M  V30 9323 C 897.646 -1.48517 0.743767 0
M  V30 9324 O 898.831 -1.62733 0.996123 0
M  V30 9325 C 895.971 -2.67626 2.17877 0
M  V30 9326 C 895.084 -2.59549 3.45338 0
M  V30 9327 C 894.219 -3.87118 3.63748 0
M  V30 9328 C 893.258 -3.736 4.8486 0
M  V30 9329 N 892.395 -4.93029 4.99867 0
M  V30 9330 H 897.235 -1.02886 2.79675 0
M  V30 9331 H 894.772 -0.496812 1.38456 0
M  V30 9332 H 896.73 -3.4637 2.32559 0
M  V30 9333 H 895.36 -2.95232 1.30529 0
M  V30 9334 H 894.412 -1.72452 3.39064 0
M  V30 9335 H 895.724 -2.45465 4.34222 0
M  V30 9336 H 894.878 -4.74305 3.78312 0
M  V30 9337 H 893.617 -4.04084 2.73071 0
M  V30 9338 H 892.622 -2.84797 4.70288 0
M  V30 9339 H 893.847 -3.58143 5.76984 0
M  V30 9340 H 891.793 -5.10383 4.12123 0
M  V30 9341 H 891.71 -4.81521 5.82815 0
M  V30 9342 H 892.978 -5.81754 5.18828 0
M  V30 9343 N 897.207 -1.48554 -0.526253 0
M  V30 9344 C 898.455 -1.56452 -1.27935 0
M  V30 9345 C 898.776 -0.24184 -1.93495 0
M  V30 9346 O 898.046 0.736917 -1.81511 0
M  V30 9347 H 896.626 -0.576379 -0.47518 0
M  V30 9348 H 899.288 -1.85039 -0.612083 0
M  V30 9349 H 898.384 -2.34751 -2.05666 0
M  V30 9350 N 898.685 0.775411 -1.37205 0
M  V30 9351 C 899.617 1.89761 -1.28544 0
M  V30 9352 C 900.63 1.61542 -0.201996 0
M  V30 9353 O 901.819 1.72528 -0.457848 0
M  V30 9354 C 898.919 3.24904 -0.963885 0
M  V30 9355 C 898.092 3.80796 -2.15205 0
M  V30 9356 C 897.151 4.94407 -1.80135 0
M  V30 9357 O 896.177 5.10185 -2.52388 0
M  V30 9358 N 897.379 5.75722 -0.743298 0
M  V30 9359 H 900.144 1.97708 -2.25237 0
M  V30 9360 H 897.705 0.954348 -1.30782 0
M  V30 9361 H 899.697 3.9842 -0.710182 0
M  V30 9362 H 898.267 3.12483 -0.085632 0
M  V30 9363 H 897.487 2.99101 -2.56773 0
M  V30 9364 H 898.775 4.1487 -2.94552 0
M  V30 9365 H 898.173 5.65518 -0.143655 0
M  V30 9366 H 896.73 6.4948 -0.549446 0
M  V30 9367 N 900.163 1.21714 1.00117 0
M  V30 9368 C 901.574 1.03477 1.55401 0
M  V30 9369 C 901.925 -0.40429 1.91989 0
M  V30 9370 O 901.05 -1.28807 1.7389 0
M  V30 9371 C 901.645 1.87213 2.82377 0
M  V30 9372 C 900.204 1.73297 3.34133 0
M  V30 9373 C 899.351 1.84189 2.07291 0
M  V30 9374 H 902.302 1.3568 0.823195 0
M  V30 9375 H 902.323 1.38465 3.54412 0
M  V30 9376 H 901.835 2.91944 2.55715 0
M  V30 9377 H 899.936 0.712662 3.65721 0
M  V30 9378 H 900.049 2.55486 4.05294 0
M  V30 9379 H 898.413 1.27538 2.20468 0
M  V30 9380 H 899.196 2.90435 1.83037 0
M  V30 9381 N 901.641 -1.19671 1.02551 0
M  V30 9382 C 903.057 -1.41305 0.741963 0
M  V30 9383 C 903.257 -1.89865 -0.674807 0
M  V30 9384 O 902.313 -2.07323 -1.44129 0
M  V30 9385 C 903.626 -2.42706 1.77522 0
M  V30 9386 C 905.174 -2.56458 1.79438 0
M  V30 9387 C 905.649 -3.61111 2.81715 0
M  V30 9388 N 907.14 -3.68603 2.8051 0
M  V30 9389 C 907.875 -4.49262 3.56302 0
M  V30 9390 N 907.371 -5.33653 4.41799 0
M  V30 9391 N 909.164 -4.43879 3.44859 0
M  V30 9392 H 901.315 -0.8647 1.94002 0
M  V30 9393 H 903.578 -0.442206 0.838545 0
M  V30 9394 H 903.284 -2.14042 2.79068 0
M  V30 9395 H 903.158 -3.41831 1.59472 0
M  V30 9396 H 905.545 -2.84447 0.78573 0
M  V30 9397 H 905.626 -1.57499 2.01563 0
M  V30 9398 H 905.27 -3.33864 3.82749 0
M  V30 9399 H 905.2 -4.59713 2.56849 0
M  V30 9400 H 907.691 -3.08329 2.18498 0
M  V30 9401 H 908.004 -5.92308 4.96378 0
M  V30 9402 H 906.349 -5.33125 4.45873 0
M  V30 9403 H 909.54 -3.7699 2.77482 0
M  V30 9404 H 909.713 -5.06501 4.04179 0
M  V30 9405 N 903.119 -0.802921 -1.35613 0
M  V30 9406 C 904.029 -0.212177 -2.33639 0
M  V30 9407 C 905.045 0.642871 -1.61689 0
M  V30 9408 O 906.221 0.555485 -1.93588 0
M  V30 9409 C 903.286 0.632406 -3.40883 0
M  V30 9410 C 902.347 -0.242708 -4.28613 0
M  V30 9411 C 901.58 0.56166 -5.30736 0
M  V30 9412 O 901.803 1.79664 -5.41366 0
M  V30 9413 O 900.737 -0.0455387 -6.01883 0
M  V30 9414 H 904.563 -1.023 -2.85952 0
M  V30 9415 H 902.148 -0.564636 -1.38319 0
M  V30 9416 H 904.03 1.11358 -4.0642 0
M  V30 9417 H 902.705 1.42089 -2.90848 0
M  V30 9418 H 901.612 -0.77094 -3.6607 0
M  V30 9419 H 902.945 -0.995046 -4.82037 0
M  V30 9420 N 904.597 1.47463 -0.556102 0
M  V30 9421 C 906.008 1.86298 -0.122429 0
M  V30 9422 C 906.359 1.46285 1.30749 0
M  V30 9423 O 905.484 0.865405 1.98342 0
M  V30 9424 C 906.079 3.38115 -0.215407 0
M  V30 9425 C 904.638 3.76046 0.163223 0
M  V30 9426 C 903.785 2.71515 -0.563466 0
M  V30 9427 H 906.736 1.38996 -0.765888 0
M  V30 9428 H 906.757 3.76263 0.566271 0
M  V30 9429 H 906.269 3.67207 -1.25622 0
M  V30 9430 H 904.37 3.5257 1.20519 0
M  V30 9431 H 904.483 4.78705 -0.194568 0
M  V30 9432 H 902.847 2.54699 -0.00667879 0
M  V30 9433 H 903.63 3.03449 -1.60542 0
M  V30 9434 N 906.075 0.2925 1.54862 0
M  V30 9435 C 907.007 -0.620889 2.2063 0
M  V30 9436 C 908.02 -1.10412 1.19637 0
M  V30 9437 O 909.209 -1.02304 1.46274 0
M  V30 9438 C 906.309 -1.861 2.83232 0
M  V30 9439 C 905.482 -1.52168 4.10078 0
M  V30 9440 C 904.541 -2.61605 4.56562 0
M  V30 9441 O 903.567 -2.27056 5.21952 0
M  V30 9442 N 904.769 -3.9199 4.28163 0
M  V30 9443 H 907.534 -0.0579028 2.99644 0
M  V30 9444 H 905.095 0.114333 1.61496 0
M  V30 9445 H 907.087 -2.58642 3.11266 0
M  V30 9446 H 905.657 -2.33259 2.08108 0
M  V30 9447 H 904.877 -0.629283 3.89145 0
M  V30 9448 H 906.165 -1.27023 4.92689 0
M  V30 9449 H 905.563 -4.22872 3.7576 0
M  V30 9450 H 904.12 -4.60857 4.60928 0
M  V30 9451 N 907.553 -1.57587 0.0200696 0
M  V30 9452 C 908.799 -1.91708 -0.661503 0
M  V30 9453 C 909.132 -0.895968 -1.72296 0
M  V30 9454 O 908.407 0.082577 -1.94325 0
M  V30 9455 C 908.69 -3.36344 -1.28627 0
M  V30 9456 C 908.543 -4.49186 -0.234982 0
M  V30 9457 C 909.862 -3.80771 -2.20685 0
M  V30 9458 H 906.981 -0.69717 -0.239005 0
M  V30 9459 H 909.623 -1.8985 0.0754764 0
M  V30 9460 H 907.773 -3.38058 -1.91439 0
M  V30 9461 H 909.445 -4.59606 0.395011 0
M  V30 9462 H 907.688 -4.31557 0.440565 0
M  V30 9463 H 908.359 -5.47395 -0.711558 0
M  V30 9464 H 910.835 -3.80735 -1.67868 0
M  V30 9465 H 909.711 -4.82685 -2.61356 0
M  V30 9466 H 909.972 -3.15764 -3.09428 0
M  V30 9467 N 909.032 0.252966 -1.55557 0
M  V30 9468 C 910.262 0.998115 -1.8089 0
M  V30 9469 C 910.67 1.79679 -0.592623 0
M  V30 9470 O 910.013 1.78151 0.448093 0
M  V30 9471 C 910.075 1.98878 -2.99479 0
M  V30 9472 C 909.739 1.37761 -4.35742 0
M  V30 9473 C 910.736 0.783142 -5.13968 0
M  V30 9474 C 908.421 1.39879 -4.8243 0
M  V30 9475 C 910.415 0.218004 -6.37027 0
M  V30 9476 C 908.102 0.829801 -6.0544 0
M  V30 9477 C 909.1 0.240426 -6.82577 0
M  V30 9478 O 908.788 -0.319797 -8.03264 0
M  V30 9479 H 908.52 0.29963 -0.605969 0
M  V30 9480 H 911.074 0.282978 -2.03441 0
M  V30 9481 H 909.304 2.74206 -2.72669 0
M  V30 9482 H 910.993 2.59686 -3.11959 0
M  V30 9483 H 911.759 0.759326 -4.79019 0
M  V30 9484 H 907.638 1.84692 -4.22386 0
M  V30 9485 H 911.182 -0.242654 -6.97178 0
M  V30 9486 H 907.079 0.850924 -6.39867 0
M  V30 9487 H 907.847 -0.211078 -8.18228 0
M  V30 9488 N 910.51 1.48831 0.518367 0
M  V30 9489 C 911.738 1.6112 1.298 0
M  V30 9490 C 912.153 0.275872 1.86774 0
M  V30 9491 O 911.51 -0.736416 1.66983 0
M  V30 9492 C 911.561 2.66675 2.44063 0
M  V30 9493 O 911.282 3.95027 1.89434 0
M  V30 9494 C 912.783 2.8951 3.35706 0
M  V30 9495 H 910.003 0.542916 0.394314 0
M  V30 9496 H 912.547 1.94743 0.624142 0
M  V30 9497 H 910.702 2.35879 3.07311 0
M  V30 9498 H 911.116 4.53031 2.64316 0
M  V30 9499 H 912.59 3.67142 4.12202 0
M  V30 9500 H 913.067 1.98768 3.91648 0
M  V30 9501 H 913.673 3.21656 2.7824 0
M  V30 9502 N 911.988 -0.768124 1.37614 0
M  V30 9503 C 912.918 -1.89537 1.36374 0
M  V30 9504 C 913.899 -1.68513 0.231803 0
M  V30 9505 O 915.084 -1.89318 0.432705 0
M  V30 9506 C 912.214 -3.26871 1.17358 0
M  V30 9507 C 911.168 -3.62466 2.27602 0
M  V30 9508 C 910.494 -4.9838 1.93705 0
M  V30 9509 C 911.794 -3.68841 3.69802 0
M  V30 9510 H 913.488 -1.90832 2.30702 0
M  V30 9511 H 911.034 -0.91672 1.11051 0
M  V30 9512 H 912.987 -4.05371 1.15119 0
M  V30 9513 H 911.711 -3.26018 0.194865 0
M  V30 9514 H 910.37 -2.86276 2.29002 0
M  V30 9515 H 910.018 -4.94071 0.943539 0
M  V30 9516 H 909.718 -5.23165 2.6753 0
M  V30 9517 H 911.242 -5.79276 1.93059 0
M  V30 9518 H 912.656 -4.37485 3.70513 0
M  V30 9519 H 911.053 -4.05126 4.42711 0
M  V30 9520 H 912.123 -2.69415 4.03167 0
M  V30 9521 N 913.466 -1.22244 -0.994698 0
M  V30 9522 C 914.877 -1.043 -1.5485 0
M  V30 9523 C 915.228 0.394102 -1.92201 0
M  V30 9524 O 914.353 1.27883 -1.74571 0
M  V30 9525 C 914.948 -1.88708 -2.8138 0
M  V30 9526 C 913.507 -1.75067 -3.3321 0
M  V30 9527 C 912.654 -1.85286 -2.06312 0
M  V30 9528 H 915.605 -1.36115 -0.815988 0
M  V30 9529 H 915.626 -1.40342 -3.53673 0
M  V30 9530 H 915.138 -2.93296 -2.54164 0
M  V30 9531 H 913.239 -0.732047 -3.65338 0
M  V30 9532 H 913.352 -2.57632 -4.03934 0
M  V30 9533 H 911.716 -1.28706 -2.19788 0
M  V30 9534 H 912.499 -2.91401 -1.81494 0
M  V30 9535 N 914.944 1.19125 -1.03184 0
M  V30 9536 C 916.355 1.70564 -0.759264 0
M  V30 9537 C 916.706 1.8248 0.720794 0
M  V30 9538 O 915.831 1.49804 1.56166 0
M  V30 9539 C 916.426 3.09793 -1.37163 0
M  V30 9540 C 914.985 3.5848 -1.14757 0
M  V30 9541 C 914.132 2.35265 -1.46784 0
M  V30 9542 H 917.083 1.03925 -1.19939 0
M  V30 9543 H 917.104 3.72624 -0.77015 0
M  V30 9544 H 916.616 3.01088 -2.44882 0
M  V30 9545 H 914.717 3.72494 -0.0887182 0
M  V30 9546 H 914.83 4.42426 -1.83836 0
M  V30 9547 H 913.194 2.38747 -0.887254 0
M  V30 9548 H 913.977 2.29188 -2.55593 0
M  V30 9549 N 916.422 0.810101 1.35185 0
M  V30 9550 C 917.647 0.40364 2.03434 0
M  V30 9551 C 918.072 -0.97857 1.60641 0
M  V30 9552 O 917.43 -1.63435 0.784779 0
M  V30 9553 C 917.478 0.499154 3.57129 0
M  V30 9554 O 916.582 -0.486039 4.09526 0
M  V30 9555 H 915.923 0.168049 0.642383 0
M  V30 9556 H 918.453 1.09696 1.72708 0
M  V30 9557 H 918.463 0.370236 4.06317 0
M  V30 9558 H 917.138 1.50733 3.87624 0
M  V30 9559 H 915.715 -0.31707 3.7155 0
M  V30 9560 N 917.9 -1.47166 0.563914 0
M  V30 9561 C 919.316 -1.58018 0.224173 0
M  V30 9562 C 919.516 -1.56163 -1.27339 0
M  V30 9563 O 918.572 -1.4686 -2.05398 0
M  V30 9564 C 919.885 -2.88236 0.856762 0
M  V30 9565 C 921.433 -3.01833 0.82861 0
M  V30 9566 C 921.908 -4.34761 1.44039 0
M  V30 9567 N 923.399 -4.41413 1.40388 0
M  V30 9568 C 924.134 -5.42845 1.84681 0
M  V30 9569 N 923.63 -6.51052 2.3686 0
M  V30 9570 N 925.423 -5.33931 1.75711 0
M  V30 9571 H 917.574 -1.46615 1.53681 0
M  V30 9572 H 919.837 -0.698195 0.64127 0
M  V30 9573 H 919.543 -2.95349 1.90949 0
M  V30 9574 H 919.417 -3.75537 0.353766 0
M  V30 9575 H 921.804 -2.94312 -0.215451 0
M  V30 9576 H 921.885 -2.16056 1.36943 0
M  V30 9577 H 921.529 -4.43037 2.48355 0
M  V30 9578 H 921.459 -5.1928 0.874953 0
M  V30 9579 H 923.95 -3.63811 1.02227 0
M  V30 9580 H 924.263 -7.24633 2.68564 0
M  V30 9581 H 922.608 -6.51924 2.40875 0
M  V30 9582 H 925.799 -4.48295 1.34718 0
M  V30 9583 H 925.972 -6.12841 2.10547 0
M  V30 9584 N 919.378 -0.300708 -1.54705 0
M  V30 9585 C 920.288 0.584996 -2.27189 0
M  V30 9586 C 921.304 1.14866 -1.30697 0
M  V30 9587 O 922.48 1.17351 -1.63679 0
M  V30 9588 C 919.545 1.74076 -2.99831 0
M  V30 9589 C 918.606 1.2112 -4.1186 0
M  V30 9590 C 917.839 2.31188 -4.81028 0
M  V30 9591 O 918.062 3.5108 -4.49554 0
M  V30 9592 O 916.996 1.97897 -5.68437 0
M  V30 9593 H 920.822 -0.00298177 -3.037 0
M  V30 9594 H 918.407 -0.0671802 -1.49249 0
M  V30 9595 H 920.289 2.41413 -3.45395 0
M  V30 9596 H 918.964 2.31535 -2.26215 0
M  V30 9597 H 917.871 0.50357 -3.70695 0
M  V30 9598 H 919.204 0.682046 -4.87452 0
M  V30 9599 N 920.856 1.57574 -0.0284266 0
M  V30 9600 C 921.766 2.13637 0.96936 0
M  V30 9601 C 922.782 1.08845 1.35752 0
M  V30 9602 O 923.958 1.40899 1.43908 0
M  V30 9603 C 921.023 2.65179 2.2334 0
M  V30 9604 C 920.084 3.84683 1.90572 0
M  V30 9605 C 919.317 4.33758 3.1095 0
M  V30 9606 O 919.54 3.82009 4.23586 0
M  V30 9607 O 918.474 5.2561 2.93288 0
M  V30 9608 H 922.3 2.99169 0.52267 0
M  V30 9609 H 919.885 1.48159 0.192135 0
M  V30 9610 H 921.767 2.98402 2.97547 0
M  V30 9611 H 920.442 1.82731 2.67191 0
M  V30 9612 H 919.349 3.56386 1.13753 0
M  V30 9613 H 920.682 4.68292 1.51538 0
M  V30 9614 N 922.334 -0.244713 1.55689 0
M  V30 9615 C 923.267 -1.32946 1.85474 0
M  V30 9616 C 924.245 -1.46279 0.710021 0
M  V30 9617 O 925.429 -1.62459 0.956004 0
M  V30 9618 C 922.556 -2.7027 2.04137 0
M  V30 9619 C 921.602 -2.74075 3.2678 0
M  V30 9620 S 922.435 -2.30465 4.8337 0
M  V30 9621 C 923.591 -3.69709 5.05041 0
M  V30 9622 H 923.824 -1.07482 2.77191 0
M  V30 9623 H 921.357 -0.445807 1.47824 0
M  V30 9624 H 923.315 -3.4934 2.15574 0
M  V30 9625 H 921.976 -2.9297 1.13259 0
M  V30 9626 H 921.169 -3.74932 3.36812 0
M  V30 9627 H 920.771 -2.03051 3.1408 0
M  V30 9628 H 923.063 -4.65222 4.92518 0
M  V30 9629 H 924.006 -3.6461 6.07014 0
M  V30 9630 H 924.414 -3.62323 4.32877 0
M  V30 9631 N 923.813 -1.49104 -0.510467 0
M  V30 9632 C 925.041 -1.61806 -1.28944 0
M  V30 9633 C 925.456 -0.285774 -1.86625 0
M  V30 9634 O 924.813 0.727551 -1.67371 0
M  V30 9635 C 924.864 -2.67966 -2.42645 0
M  V30 9636 O 924.585 -3.96026 -1.87337 0
M  V30 9637 C 926.086 -2.91286 -3.34166 0
M  V30 9638 H 923.306 -0.544999 -0.391429 0
M  V30 9639 H 925.85 -1.95071 -0.613805 0
M  V30 9640 H 924.005 -2.37505 -3.06056 0
M  V30 9641 H 924.419 -4.54427 -2.61909 0
M  V30 9642 H 925.893 -3.69323 -4.1025 0
M  V30 9643 H 926.37 -2.00842 -3.90588 0
M  V30 9644 H 926.976 -3.23127 -2.76531 0
M  V30 9645 N 925.291 0.760815 -1.38019 0
M  V30 9646 C 926.238 1.8744 -1.34666 0
M  V30 9647 C 927.208 1.64762 -0.210386 0
M  V30 9648 O 928.393 1.86528 -0.401479 0
M  V30 9649 C 925.533 3.24648 -1.17037 0
M  V30 9650 C 924.646 3.59206 -2.3999 0
M  V30 9651 C 923.781 4.8568 -2.15148 0
M  V30 9652 C 922.82 5.13002 -3.3391 0
M  V30 9653 N 921.957 6.30668 -3.08549 0
M  V30 9654 H 926.797 1.8964 -2.29871 0
M  V30 9655 H 924.334 0.927004 -1.14215 0
M  V30 9656 H 926.292 4.03814 -1.04834 0
M  V30 9657 H 924.922 3.21793 -0.254758 0
M  V30 9658 H 923.974 2.74939 -2.62893 0
M  V30 9659 H 925.286 3.75328 -3.28527 0
M  V30 9660 H 924.44 5.72773 -2.00039 0
M  V30 9661 H 923.179 4.71682 -1.23965 0
M  V30 9662 H 922.184 4.2438 -3.49545 0
M  V30 9663 H 923.409 5.28901 -4.25958 0
M  V30 9664 H 921.355 6.18008 -2.20006 0
M  V30 9665 H 921.272 6.47257 -3.90633 0
M  V30 9666 H 922.54 7.20669 -2.9708 0
M  V30 9667 N 926.769 1.22769 0.988202 0
M  V30 9668 C 927.717 0.999271 2.10041 0
M  V30 9669 C 928.711 -0.0591767 1.69297 0
M  V30 9670 O 929.917 0.0936653 1.79756 0
M  V30 9671 H 926.292 0.30599 0.686931 0
M  V30 9672 H 928.263 1.94294 2.26478 0
M  V30 9673 C 927.012 0.59873 3.42506 0
M  V30 9674 H 926.335 1.40487 3.74304 0
M  V30 9675 H 927.775 0.478353 4.21293 0
M  V30 9676 C 926.234 -0.692216 3.29712 0
M  V30 9677 O 926.764 -1.74342 3.61895 0
M  V30 9678 N 924.97 -0.665163 2.82885 0
M  V30 9679 H 924.517 0.190604 2.56894 0
M  V30 9680 H 924.475 -1.52917 2.74706 0
M  V30 9681 N 928.247 -1.18576 1.03814 0
M  V30 9682 C 929.179 -2.21607 0.585055 0
M  V30 9683 C 930.192 -1.59125 -0.343963 0
M  V30 9684 O 931.381 -1.77959 -0.138882 0
M  V30 9685 C 928.481 -3.38495 -0.165602 0
M  V30 9686 C 927.654 -4.30557 0.770662 0
M  V30 9687 C 926.713 -5.26161 0.0637534 0
M  V30 9688 O 925.739 -5.64961 0.693359 0
M  V30 9689 N 926.941 -5.67882 -1.20377 0
M  V30 9690 H 929.706 -2.61104 1.47121 0
M  V30 9691 H 927.267 -1.33336 0.918316 0
M  V30 9692 H 929.259 -3.99474 -0.648292 0
M  V30 9693 H 927.829 -2.97711 -0.953268 0
M  V30 9694 H 927.049 -3.67221 1.43326 0
M  V30 9695 H 928.337 -4.88969 1.40667 0
M  V30 9696 H 927.735 -5.38409 -1.73586 0
M  V30 9697 H 926.292 -6.31069 -1.63079 0
M  V30 9698 N 929.725 -0.817259 -1.34754 0
M  V30 9699 C 930.971 -0.403244 -1.98751 0
M  V30 9700 C 931.304 1.02963 -1.64658 0
M  V30 9701 O 930.579 1.71617 -0.915314 0
M  V30 9702 C 930.862 -0.599188 -3.5508 0
M  V30 9703 C 930.715 -2.07777 -3.98934 0
M  V30 9704 C 932.034 -0.0315656 -4.40089 0
M  V30 9705 H 929.153 -0.147988 -0.721989 0
M  V30 9706 H 931.795 -1.02877 -1.59738 0
M  V30 9707 H 929.945 -0.0667116 -3.88443 0
M  V30 9708 H 931.617 -2.67345 -3.75931 0
M  V30 9709 H 929.86 -2.57031 -3.49453 0
M  V30 9710 H 930.531 -2.16571 -5.07741 0
M  V30 9711 H 933.007 -0.48644 -4.13247 0
M  V30 9712 H 931.883 -0.198507 -5.48541 0
M  V30 9713 H 932.144 1.06302 -4.2913 0
M  V30 9714 N 931.203 1.46865 -0.571711 0
M  V30 9715 C 932.428 2.07323 -0.0564655 0
M  V30 9716 C 932.853 1.41938 1.23431 0
M  V30 9717 O 932.211 0.499334 1.74288 0
M  V30 9718 C 932.259 3.6044 0.107339 0
M  V30 9719 O 931.363 3.95558 1.1665 0
M  V30 9720 H 930.704 0.661475 -0.0578465 0
M  V30 9721 H 933.234 1.88669 -0.791524 0
M  V30 9722 H 933.244 4.06767 0.316987 0
M  V30 9723 H 931.919 4.07425 -0.835348 0
M  V30 9724 H 930.496 3.60957 0.936189 0
M  V30 9725 N 932.681 0.308908 1.54543 0
M  V30 9726 C 933.611 -0.556657 2.26768 0
M  V30 9727 C 934.592 -1.13145 1.27013 0
M  V30 9728 O 935.777 -1.15931 1.558 0
M  V30 9729 C 932.907 -1.72481 3.01443 0
M  V30 9730 C 931.861 -1.28001 4.08411 0
M  V30 9731 C 931.187 -2.53395 4.70845 0
M  V30 9732 C 932.487 -0.405497 5.20724 0
M  V30 9733 H 934.181 0.0457618 2.99365 0
M  V30 9734 H 931.727 0.0234495 1.43981 0
M  V30 9735 H 933.68 -2.3365 3.50693 0
M  V30 9736 H 932.404 -2.35359 2.26437 0
M  V30 9737 H 931.063 -0.69133 3.60022 0
M  V30 9738 H 930.711 -3.14604 3.92471 0
M  V30 9739 H 930.411 -2.2433 5.43093 0
M  V30 9740 H 931.935 -3.15352 5.22863 0
M  V30 9741 H 933.349 -0.923076 5.6582 0
M  V30 9742 H 931.746 -0.208282 5.99738 0
M  V30 9743 H 932.816 0.567412 4.81569 0
M  V30 9744 N 934.159 -1.57557 0.0367827 0
M  V30 9745 C 935.387 -1.96419 -0.650168 0
M  V30 9746 C 935.802 -0.913656 -1.6522 0
M  V30 9747 O 935.159 0.103718 -1.82205 0
M  V30 9748 C 935.21 -3.35355 -1.3498 0
M  V30 9749 O 934.931 -4.36379 -0.387905 0
M  V30 9750 C 936.432 -3.88892 -2.12786 0
M  V30 9751 H 933.652 -0.646751 -0.178756 0
M  V30 9752 H 936.196 -2.04261 0.0988197 0
M  V30 9753 H 934.351 -3.28708 -2.05012 0
M  V30 9754 H 934.765 -5.16969 -0.885596 0
M  V30 9755 H 936.239 -4.88428 -2.5718 0
M  V30 9756 H 936.716 -3.23547 -2.97008 0
M  V30 9757 H 937.322 -3.98831 -1.47694 0
M  V30 9758 N 935.637 0.236453 -1.55816 0
M  V30 9759 C 936.877 0.970249 -1.79904 0
M  V30 9760 C 937.241 1.8212 -0.607965 0
M  V30 9761 O 938.442 2.58759 -0.727833 0
M  V30 9762 C 936.713 1.79938 -3.088 0
M  V30 9763 S 938.272 2.59084 -3.54148 0
M  V30 9764 H 935.09 0.32618 -0.631765 0
M  V30 9765 H 937.692 0.237147 -1.94056 0
M  V30 9766 H 936.396 1.16412 -3.93544 0
M  V30 9767 H 935.927 2.57504 -2.97414 0
M  V30 9768 H 937.942 3.82315 -3.16306 0
M  V30 9769 N 937.115 1.49373 0.502552 0
M  V30 9770 C 938.045 1.68839 1.61294 0
M  V30 9771 C 939.026 0.537096 1.61398 0
M  V30 9772 O 940.211 0.772764 1.78163 0
M  V30 9773 C 937.341 1.75347 2.99784 0
M  V30 9774 C 936.295 2.90251 3.14545 0
M  V30 9775 C 935.621 2.8187 4.54371 0
M  V30 9776 C 936.921 4.31207 2.94717 0
M  V30 9777 H 938.615 2.61803 1.45257 0
M  V30 9778 H 936.161 1.25987 0.697371 0
M  V30 9779 H 938.114 1.87552 3.77362 0
M  V30 9780 H 936.838 0.789814 3.16906 0
M  V30 9781 H 935.497 2.77646 2.39392 0
M  V30 9782 H 935.145 1.83416 4.68367 0
M  V30 9783 H 934.845 3.5899 4.65188 0
M  V30 9784 H 936.369 2.96081 5.34012 0
M  V30 9785 H 937.783 4.44501 3.62065 0
M  V30 9786 H 936.18 5.09536 3.17007 0
M  V30 9787 H 937.25 4.45759 1.90857 0
M  V30 9788 N 938.594 -0.753485 1.38421 0
M  V30 9789 C 939.84 -1.51485 1.34834 0
M  V30 9790 C 940.173 -1.94102 -0.0615381 0
M  V30 9791 O 939.448 -1.65439 -1.02274 0
M  V30 9792 C 939.731 -2.76736 2.30411 0
M  V30 9793 C 939.584 -2.40256 3.80259 0
M  V30 9794 C 940.903 -3.7876 2.24119 0
M  V30 9795 H 938.022 -0.549534 0.491102 0
M  V30 9796 H 940.664 -0.863006 1.6927 0
M  V30 9797 H 938.814 -3.32357 2.01175 0
M  V30 9798 H 940.486 -1.90409 4.20169 0
M  V30 9799 H 938.729 -1.72714 3.97935 0
M  V30 9800 H 939.4 -3.29869 4.42595 0
M  V30 9801 H 941.876 -3.32679 2.49928 0
M  V30 9802 H 940.752 -4.64092 2.93104 0
M  V30 9803 H 941.013 -4.24352 1.24006 0
M  V30 9804 N 940.072 -1.23292 -0.981677 0
M  V30 9805 C 941.019 -1.01296 -2.07383 0
M  V30 9806 C 941.989 0.069139 -1.65956 0
M  V30 9807 O 943.174 -0.0827108 -1.90621 0
M  V30 9808 C 940.314 -0.608876 -3.39686 0
M  V30 9809 C 939.427 -1.76296 -3.9439 0
M  V30 9810 C 938.562 -1.30578 -5.14901 0
M  V30 9811 C 937.601 -2.4307 -5.61768 0
M  V30 9812 N 936.738 -1.98319 -6.73509 0
M  V30 9813 H 941.578 -1.9478 -2.25532 0
M  V30 9814 H 939.115 -0.970356 -1.10555 0
M  V30 9815 H 941.073 -0.355702 -4.15681 0
M  V30 9816 H 939.703 0.288961 -3.21504 0
M  V30 9817 H 938.755 -2.13017 -3.15163 0
M  V30 9818 H 940.067 -2.60871 -4.25145 0
M  V30 9819 H 939.221 -1.01066 -5.98223 0
M  V30 9820 H 937.96 -0.430386 -4.85797 0
M  V30 9821 H 936.965 -2.73358 -4.77028 0
M  V30 9822 H 938.19 -3.31144 -5.92892 0
M  V30 9823 H 936.136 -1.13157 -6.46167 0
M  V30 9824 H 936.053 -2.76454 -7.0364 0
M  V30 9825 H 937.321 -1.71907 -7.60308 0
M  V30 9826 N 941.55 1.18024 -1.04442 0
M  V30 9827 C 942.798 1.87727 -0.74854 0
M  V30 9828 C 943.119 1.80975 0.726156 0
M  V30 9829 O 942.389 1.23061 1.52423 0
M  V30 9830 H 940.969 0.694974 -0.273897 0
M  V30 9831 H 943.631 1.43213 -1.32197 0
M  V30 9832 H 942.727 2.93665 -1.05674 0
M  V30 9833 N 943.028 0.824394 1.34319 0
M  V30 9834 C 944.275 0.413167 1.9824 0
M  V30 9835 C 944.603 -1.02412 1.65354 0
M  V30 9836 O 943.858 -1.72831 0.91803 0
M  V30 9837 C 944.157 0.564024 3.52921 0
M  V30 9838 C 943.823 1.96725 4.05722 0
M  V30 9839 C 942.485 2.35111 4.19853 0
M  V30 9840 C 944.837 2.88447 4.34106 0
M  V30 9841 C 942.165 3.64551 4.59695 0
M  V30 9842 C 944.517 4.17353 4.75394 0
M  V30 9843 C 943.181 4.55714 4.8773 0
M  V30 9844 H 942.451 0.151188 0.725412 0
M  V30 9845 H 945.098 1.04863 1.60238 0
M  V30 9846 H 943.403 -0.154816 3.91494 0
M  V30 9847 H 945.1 0.226347 4.00361 0
M  V30 9848 H 941.69 1.65908 3.95187 0
M  V30 9849 H 945.874 2.60034 4.22725 0
M  V30 9850 H 941.13 3.94097 4.67437 0
M  V30 9851 H 945.304 4.88512 4.96315 0
M  V30 9852 H 942.931 5.56064 5.1836 0
M  V30 9853 N 944.506 -1.46559 0.579492 0
M  V30 9854 C 945.736 -2.06484 0.0692642 0
M  V30 9855 C 946.144 -1.4293 -1.23967 0
M  V30 9856 O 945.487 -0.527632 -1.75959 0
M  V30 9857 C 945.549 -3.59078 -0.174174 0
M  V30 9858 C 945.213 -4.44805 1.04867 0
M  V30 9859 C 946.21 -4.81543 1.95991 0
M  V30 9860 C 943.895 -4.8599 1.26961 0
M  V30 9861 C 945.889 -5.58288 3.0756 0
M  V30 9862 C 943.576 -5.62495 2.38836 0
M  V30 9863 C 944.574 -5.98558 3.28964 0
M  V30 9864 O 944.262 -6.73518 4.38896 0
M  V30 9865 H 943.994 -0.673917 0.0530331 0
M  V30 9866 H 946.548 -1.89223 0.79898 0
M  V30 9867 H 944.778 -3.74634 -0.958464 0
M  V30 9868 H 946.467 -4.00941 -0.632515 0
M  V30 9869 H 947.233 -4.50307 1.80136 0
M  V30 9870 H 943.112 -4.57372 0.577184 0
M  V30 9871 H 946.656 -5.86355 3.77933 0
M  V30 9872 H 942.553 -5.93145 2.54655 0
M  V30 9873 H 943.321 -6.91938 4.37223 0
M  V30 9874 N 945.984 -0.3171 -1.54377 0
M  V30 9875 C 947.395 0.172287 -1.85903 0
M  V30 9876 C 947.746 1.52141 -1.23885 0
M  V30 9877 O 946.871 2.0949 -0.542476 0
M  V30 9878 C 947.466 0.319392 -3.37291 0
M  V30 9879 C 946.025 0.752998 -3.68791 0
M  V30 9880 C 945.172 -0.129143 -2.76999 0
M  V30 9881 H 948.123 -0.537597 -1.49317 0
M  V30 9882 H 948.144 1.15137 -3.62662 0
M  V30 9883 H 947.656 -0.662671 -3.82401 0
M  V30 9884 H 945.757 1.74504 -3.2921 0
M  V30 9885 H 945.87 0.561228 -4.75801 0
M  V30 9886 H 944.234 0.394242 -2.5163 0
M  V30 9887 H 945.017 -1.10785 -3.24933 0
M  V30 9888 N 947.462 1.57535 -0.0451378 0
M  V30 9889 C 948.687 1.97172 0.64326 0
M  V30 9890 C 949.112 0.922266 1.63939 0
M  V30 9891 O 948.47 -0.115155 1.80934 0
M  V30 9892 C 948.518 3.35889 1.3119 0
M  V30 9893 O 947.622 3.33387 2.42748 0
M  V30 9894 H 946.963 0.642469 0.167719 0
M  V30 9895 H 949.493 2.04295 -0.111747 0
M  V30 9896 H 949.503 3.72481 1.66499 0
M  V30 9897 H 948.178 4.1181 0.581823 0
M  V30 9898 H 946.755 3.08533 2.09432 0
M  V30 9899 N 948.94 -0.228186 1.55939 0
M  V30 9900 C 950.217 -0.977492 1.69424 0
M  V30 9901 C 950.597 -2.02674 0.590479 0
M  V30 9902 O 949.945 -2.2491 -0.403467 0
M  V30 9903 C 950.155 -1.59394 3.10475 0
M  V30 9904 C 951.503 -2.08871 3.69673 0
M  V30 9905 O 952.527 -1.693 3.13394 0
M  V30 9906 O 951.386 -2.81584 4.68372 0
M  V30 9907 H 948.48 -0.456185 0.6898 0
M  V30 9908 H 951.026 -0.220492 1.68261 0
M  V30 9909 H 949.798 -0.835971 3.82266 0
M  V30 9910 H 949.421 -2.41665 3.15727 0
M  V30 9911 N 950.418 -1.49637 -0.494624 0
M  V30 9912 C 951.667 -1.58691 -1.24499 0
M  V30 9913 C 951.98 -0.281763 -1.9356 0
M  V30 9914 O 953.186 -0.250925 -2.70338 0
M  V30 9915 C 951.642 -2.8002 -2.26091 0
M  V30 9916 C 951.25 -4.17318 -1.6294 0
M  V30 9917 C 952.994 -2.98407 -3.01916 0
M  V30 9918 C 950.901 -5.29862 -2.62679 0
M  V30 9919 H 949.831 -0.590888 -0.468367 0
M  V30 9920 H 952.482 -1.76034 -0.518112 0
M  V30 9921 H 950.864 -2.56185 -3.01969 0
M  V30 9922 H 952.038 -4.51315 -0.930108 0
M  V30 9923 H 950.353 -4.04342 -0.994819 0
M  V30 9924 H 952.95 -3.79658 -3.76516 0
M  V30 9925 H 953.293 -2.09214 -3.5991 0
M  V30 9926 H 953.826 -3.22312 -2.33152 0
M  V30 9927 H 950.565 -6.21134 -2.09458 0
M  V30 9928 H 950.085 -5.00311 -3.3083 0
M  V30 9929 H 951.764 -5.59461 -3.2498 0
M  V30 9930 N 951.896 0.746133 -1.38819 0
M  V30 9931 C 952.859 1.84167 -1.36437 0
M  V30 9932 C 953.859 1.58626 -0.263499 0
M  V30 9933 O 955.049 1.66233 -0.520801 0
M  V30 9934 C 952.181 3.21769 -1.12596 0
M  V30 9935 H 953.374 1.87684 -2.33912 0
M  V30 9936 H 950.927 0.948625 -1.24221 0
M  V30 9937 H 951.662 3.23917 -0.15758 0
M  V30 9938 H 951.447 3.41702 -1.92307 0
M  V30 9939 H 952.937 4.0184 -1.13643 0
M  V30 9940 N 953.375 1.23811 0.975125 0
M  V30 9941 C 954.621 1.07495 1.71967 0
M  V30 9942 C 954.954 -0.386451 1.90316 0
M  V30 9943 O 954.229 -1.28591 1.45927 0
M  V30 9944 C 954.512 1.80694 3.11483 0
M  V30 9945 C 954.365 3.3454 3.00671 0
M  V30 9946 C 955.684 1.57367 4.11003 0
M  V30 9947 H 952.803 0.3919 0.624166 0
M  V30 9948 H 955.445 1.52383 1.13487 0
M  V30 9949 H 953.595 1.42538 3.61407 0
M  V30 9950 H 955.267 3.8225 2.5823 0
M  V30 9951 H 953.51 3.63301 2.37054 0
M  V30 9952 H 954.181 3.80951 3.99475 0
M  V30 9953 H 956.657 1.90545 3.69908 0
M  V30 9954 H 955.533 2.11052 5.06703 0
M  V30 9955 H 955.794 0.510221 4.39146 0
M  V30 9956 N 954.853 -1.17469 1.05066 0
M  V30 9957 C 955.763 -2.25089 0.661222 0
M  V30 9958 C 956.779 -1.71086 -0.31712 0
M  V30 9959 O 957.955 -2.00685 -0.169534 0
M  V30 9960 C 955.02 -3.46676 0.0406415 0
M  V30 9961 C 954.081 -4.15771 1.06927 0
M  V30 9962 C 953.314 -5.31553 0.478208 0
M  V30 9963 O 953.537 -5.6593 -0.712714 0
M  V30 9964 O 952.471 -5.89574 1.21185 0
M  V30 9965 H 956.297 -2.60685 1.5581 0
M  V30 9966 H 953.882 -1.24744 0.822147 0
M  V30 9967 H 955.764 -4.203 -0.304312 0
M  V30 9968 H 954.439 -3.1288 -0.829909 0
M  V30 9969 H 953.346 -3.44171 1.46619 0
M  V30 9970 H 954.679 -4.53591 1.91092 0
M  V30 9971 N 956.331 -0.831506 -1.3388 0
M  V30 9972 C 957.577 -0.433509 -1.98727 0
M  V30 9973 C 957.932 0.994508 -1.64704 0
M  V30 9974 O 957.225 1.68458 -0.912815 0
M  V30 9975 C 957.419 -0.582733 -3.52617 0
M  V30 9976 C 957.248 -2.0237 -4.01592 0
M  V30 9977 C 956.018 -2.6574 -4.29779 0
M  V30 9978 C 958.216 -2.99152 -4.18345 0
M  V30 9979 N 956.198 -4.00988 -4.64846 0
M  V30 9980 C 957.569 -4.19329 -4.56687 0
M  V30 9981 C 959.624 -2.95655 -4.00615 0
M  V30 9982 C 958.327 -5.36475 -4.79152 0
M  V30 9983 C 960.353 -4.12025 -4.24252 0
M  V30 9984 C 959.715 -5.30955 -4.62889 0
M  V30 9985 H 955.814 -0.20691 -0.75413 0
M  V30 9986 H 958.398 -1.07802 -1.62132 0
M  V30 9987 H 956.569 0.0319301 -3.88387 0
M  V30 9988 H 958.301 -0.156899 -4.04396 0
M  V30 9989 H 955.056 -2.16923 -4.21 0
M  V30 9990 H 955.48 -4.7069 -4.86601 0
M  V30 9991 H 960.122 -2.04842 -3.69864 0
M  V30 9992 H 957.84 -6.27839 -5.08767 0
M  V30 9993 H 961.426 -4.10728 -4.1206 0
M  V30 9994 H 960.306 -6.19504 -4.80817 0
M  V30 9995 N 957.809 1.4625 -0.587256 0
M  V30 9996 C 958.719 2.34147 0.145744 0
M  V30 9997 C 959.735 1.50026 0.881376 0
M  V30 9998 O 960.911 1.82884 0.843539 0
M  V30 9999 C 957.976 3.27294 1.14366 0
M  V30 10000 C 957.037 4.27317 0.412199 0
M  V30 10001 C 956.27 5.16013 1.36257 0
M  V30 10002 O 956.493 5.0773 2.59934 0
M  V30 10003 O 955.427 5.95569 0.870681 0
M  V30 10004 H 959.253 2.98187 -0.576055 0
M  V30 10005 H 956.838 1.45299 -0.347628 0
M  V30 10006 H 958.72 3.84747 1.71894 0
M  V30 10007 H 957.395 2.65845 1.84684 0
M  V30 10008 H 956.302 3.73538 -0.205036 0
M  V30 10009 H 957.635 4.91564 -0.250104 0
M  V30 10010 N 959.287 0.325282 1.54207 0
M  V30 10011 C 960.512 -0.281418 2.05482 0
M  V30 10012 C 960.937 -1.44869 1.19977 0
M  V30 10013 O 960.295 -1.80088 0.209275 0
M  V30 10014 C 960.343 -0.692029 3.53897 0
M  V30 10015 O 959.447 -1.7942 3.71325 0
M  V30 10016 H 958.788 -0.0504872 0.662078 0
M  V30 10017 H 961.318 0.474191 1.99029 0
M  V30 10018 H 961.328 -0.974219 3.96198 0
M  V30 10019 H 960.003 0.161709 4.15586 0
M  V30 10020 H 958.58 -1.51069 3.40929 0
M  V30 10021 N 960.765 -1.57509 0.0534917 0
M  V30 10022 C 961.713 -2.12851 -0.937931 0
M  V30 10023 C 962.707 -1.06088 -1.32067 0
M  V30 10024 O 963.913 -1.24494 -1.30005 0
M  V30 10025 H 960.288 -0.680357 -0.320342 0
M  V30 10026 H 962.259 -2.95047 -0.446077 0
M  V30 10027 C 961.008 -2.69034 -2.20264 0
M  V30 10028 H 960.331 -3.50848 -1.91693 0
M  V30 10029 H 961.771 -3.11375 -2.87788 0
M  V30 10030 C 960.23 -1.62919 -2.94888 0
M  V30 10031 O 960.76 -1.04334 -3.87914 0
M  V30 10032 N 958.966 -1.34385 -2.57661 0
M  V30 10033 H 958.513 -1.82214 -1.82088 0
M  V30 10034 H 958.471 -0.636149 -3.07897 0
M  V30 10035 N 962.243 0.219913 -1.56058 0
M  V30 10036 C 963.491 0.942199 -1.78793 0
M  V30 10037 C 963.812 1.84804 -0.622284 0
M  V30 10038 O 963.082 1.9255 0.360735 0
M  V30 10039 H 961.662 0.350895 -0.659455 0
M  V30 10040 H 964.324 0.231376 -1.93522 0
M  V30 10041 H 963.42 1.54804 -2.71002 0
M  V30 10042 N 963.721 1.49897 0.486681 0
M  V30 10043 C 964.653 1.63755 1.60365 0
M  V30 10044 C 965.666 0.519614 1.54285 0
M  V30 10045 O 966.855 0.792219 1.59957 0
M  V30 10046 C 963.955 1.59153 2.99205 0
M  V30 10047 C 963.128 2.8672 3.30319 0
M  V30 10048 C 962.187 2.74974 4.48638 0
M  V30 10049 O 961.213 3.48922 4.49714 0
M  V30 10050 N 962.415 1.87479 5.49392 0
M  V30 10051 H 965.18 2.60094 1.48899 0
M  V30 10052 H 962.741 1.47166 0.674825 0
M  V30 10053 H 964.733 1.4893 3.76301 0
M  V30 10054 H 963.303 0.706133 3.0452 0
M  V30 10055 H 962.523 3.11188 2.41983 0
M  V30 10056 H 963.811 3.71262 3.47911 0
M  V30 10057 H 963.209 1.26684 5.51333 0
M  V30 10058 H 961.766 1.83169 6.25534 0
M  V30 10059 N 965.199 -0.738761 1.39212 0
M  V30 10060 C 966.61 -1.31684 1.32348 0
M  V30 10061 C 966.961 -1.96195 -0.0139041 0
M  V30 10062 O 966.086 -1.96056 -0.916025 0
M  V30 10063 C 966.681 -2.39444 2.39691 0
M  V30 10064 C 965.24 -2.92935 2.36359 0
M  V30 10065 C 964.387 -1.66465 2.21776 0
M  V30 10066 H 967.338 -0.536543 1.49355 0
M  V30 10067 H 967.359 -3.19744 2.06262 0
M  V30 10068 H 966.871 -1.92463 3.37016 0
M  V30 10069 H 964.972 -3.44207 1.42662 0
M  V30 10070 H 965.085 -3.46306 3.31073 0
M  V30 10071 H 963.449 -1.90657 1.68884 0
M  V30 10072 H 964.232 -1.21541 3.21065 0
M  V30 10073 N 966.677 -1.24326 -0.968545 0
M  V30 10074 C 967.587 -1.05194 -2.09694 0
M  V30 10075 C 968.603 0.00701291 -1.73999 0
M  V30 10076 O 969.779 -0.190981 -2.00492 0
M  V30 10077 C 966.844 -0.658075 -3.40397 0
M  V30 10078 C 965.905 -1.79341 -3.90045 0
M  V30 10079 C 965.138 -1.41824 -5.14511 0
M  V30 10080 O 965.361 -0.307693 -5.69569 0
M  V30 10081 O 964.295 -2.24358 -5.58522 0
M  V30 10082 H 968.121 -1.99791 -2.2873 0
M  V30 10083 H 965.706 -1.03138 -1.08088 0
M  V30 10084 H 967.588 -0.449911 -4.18991 0
M  V30 10085 H 966.263 0.258782 -3.22664 0
M  V30 10086 H 965.17 -2.05632 -3.12516 0
M  V30 10087 H 966.503 -2.68901 -4.12254 0
M  V30 10088 N 968.156 1.1691 -1.05688 0
M  V30 10089 C 969.104 2.2315 -0.656262 0
M  V30 10090 C 970.098 1.66256 0.324873 0
M  V30 10091 O 971.304 1.7899 0.190397 0
M  V30 10092 H 967.679 0.726527 -0.19407 0
M  V30 10093 H 969.65 2.54233 -1.56231 0
M  V30 10094 C 968.399 3.47661 -0.0522431 0
M  V30 10095 H 967.722 3.91749 -0.798299 0
M  V30 10096 H 969.162 4.23571 0.190626 0
M  V30 10097 C 967.621 3.14709 1.20248 0
M  V30 10098 O 968.151 3.29947 2.29124 0
M  V30 10099 N 966.357 2.68892 1.10207 0
M  V30 10100 H 965.904 2.56692 0.216063 0
M  V30 10101 H 965.862 2.47218 1.94244 0
M  V30 10102 N 969.634 0.838594 1.33437 0
M  V30 10103 C 970.582 0.260158 2.31141 0
M  V30 10104 C 971.576 -0.607706 1.58124 0
M  V30 10105 O 972.782 -0.497298 1.72994 0
M  V30 10106 H 969.157 0.0654031 0.74915 0
M  V30 10107 H 971.128 1.09874 2.77435 0
M  V30 10108 C 969.877 -0.550234 3.43319 0
M  V30 10109 H 969.2 0.108262 3.99653 0
M  V30 10110 H 970.64 -0.920815 4.1388 0
M  V30 10111 C 969.099 -1.729 2.89149 0
M  V30 10112 O 969.629 -2.82769 2.85315 0
M  V30 10113 N 967.835 -1.5508 2.45761 0
M  V30 10114 H 967.382 -0.657055 2.49079 0
M  V30 10115 H 967.34 -2.34099 2.0987 0
M  V30 10116 N 971.112 -1.45937 0.595003 0
M  V30 10117 C 972.342 -2.06399 0.0911607 0
M  V30 10118 C 972.75 -1.44236 -1.22444 0
M  V30 10119 O 972.093 -0.546265 -1.7539 0
M  V30 10120 C 972.155 -3.59242 -0.136079 0
M  V30 10121 C 971.819 -4.43668 1.09579 0
M  V30 10122 C 972.816 -4.79437 2.01088 0
M  V30 10123 C 970.501 -4.84616 1.32109 0
M  V30 10124 C 972.495 -5.54995 3.13464 0
M  V30 10125 C 970.182 -5.5993 2.44788 0
M  V30 10126 C 971.18 -5.95035 3.35294 0
M  V30 10127 O 970.868 -6.68825 4.46014 0
M  V30 10128 H 970.6 -0.673316 0.0601779 0
M  V30 10129 H 973.154 -1.88365 0.819005 0
M  V30 10130 H 971.384 -3.75629 -0.918676 0
M  V30 10131 H 973.073 -4.0159 -0.589954 0
M  V30 10132 H 973.839 -4.48371 1.84902 0
M  V30 10133 H 969.718 -4.56735 0.625662 0
M  V30 10134 H 973.262 -5.82314 3.84131 0
M  V30 10135 H 969.159 -5.90411 2.60931 0
M  V30 10136 H 969.927 -6.87262 4.44537 0
M  V30 10137 N 972.59 -0.333456 -1.54032 0
M  V30 10138 C 973.537 0.527981 -2.2468 0
M  V30 10139 C 974.507 1.10371 -1.24127 0
M  V30 10140 O 975.692 1.14221 -1.52834 0
M  V30 10141 C 972.832 1.67808 -3.01553 0
M  V30 10142 C 971.945 1.13064 -4.16942 0
M  V30 10143 C 971.08 2.24722 -4.81325 0
M  V30 10144 C 970.119 1.67277 -5.88799 0
M  V30 10145 N 969.256 2.72638 -6.47003 0
M  V30 10146 H 974.096 -0.0810308 -2.9789 0
M  V30 10147 H 971.633 -0.051761 -1.47009 0
M  V30 10148 H 973.591 2.35502 -3.44376 0
M  V30 10149 H 972.221 2.25823 -2.30659 0
M  V30 10150 H 971.273 0.344948 -3.78833 0
M  V30 10151 H 972.585 0.670373 -4.94275 0
M  V30 10152 H 971.739 3.00301 -5.27166 0
M  V30 10153 H 970.478 2.74089 -4.03394 0
M  V30 10154 H 969.483 0.902002 -5.4235 0
M  V30 10155 H 970.708 1.18775 -6.68632 0
M  V30 10156 H 968.654 3.21277 -5.71941 0
M  V30 10157 H 968.571 2.31204 -7.19778 0
M  V30 10158 H 969.839 3.48015 -6.97499 0
M  V30 10159 N 974.068 1.57479 -0.061844 0
M  V30 10160 C 975.296 1.97429 0.618837 0
M  V30 10161 C 975.711 0.939826 1.63746 0
M  V30 10162 O 975.068 -0.0747173 1.82347 0
M  V30 10163 C 975.119 3.3746 1.29628 0
M  V30 10164 O 974.84 4.36941 0.318431 0
M  V30 10165 C 976.341 3.92228 2.06572 0
M  V30 10166 H 973.561 0.649513 0.168444 0
M  V30 10167 H 976.105 2.04078 -0.131303 0
M  V30 10168 H 974.26 3.31928 1.99757 0
M  V30 10169 H 974.674 5.18313 0.803239 0
M  V30 10170 H 976.148 4.92458 2.49377 0
M  V30 10171 H 976.625 3.28231 2.91824 0
M  V30 10172 H 977.231 4.01131 1.4133 0
M  V30 10173 N 975.546 -0.211634 1.56173 0
M  V30 10174 C 976.774 -0.951184 1.83739 0
M  V30 10175 C 977.189 -1.7754 0.642252 0
M  V30 10176 O 976.546 -1.78302 -0.389174 0
M  V30 10177 C 976.597 -1.86075 3.09933 0
M  V30 10178 O 976.318 -1.06983 4.24837 0
M  V30 10179 C 977.819 -2.71337 3.50559 0
M  V30 10180 H 975.039 -0.278312 0.61056 0
M  V30 10181 H 977.583 -0.223871 2.03271 0
M  V30 10182 H 975.738 -2.54189 2.92347 0
M  V30 10183 H 976.152 -1.68815 4.9659 0
M  V30 10184 H 977.626 -3.30843 4.41868 0
M  V30 10185 H 978.103 -3.44226 2.72773 0
M  V30 10186 H 978.709 -2.0862 3.70618 0
M  V30 10187 N 977.024 -1.50153 -0.478725 0
M  V30 10188 C 978.435 -1.53706 -1.05978 0
M  V30 10189 C 978.786 -0.336112 -1.933 0
M  V30 10190 O 977.911 0.551803 -2.09246 0
M  V30 10191 C 978.506 -2.78541 -1.92874 0
M  V30 10192 C 977.065 -2.848 -2.46102 0
M  V30 10193 C 976.212 -2.47902 -1.24257 0
M  V30 10194 H 979.163 -1.56528 -0.261664 0
M  V30 10195 H 979.184 -2.59964 -2.77847 0
M  V30 10196 H 978.696 -3.6593 -1.29293 0
M  V30 10197 H 976.797 -2.01744 -3.13257 0
M  V30 10198 H 976.91 -3.87511 -2.81731 0
M  V30 10199 H 975.274 -2.0017 -1.57493 0
M  V30 10200 H 976.057 -3.3759 -0.62351 0
M  V30 10201 N 978.502 0.731368 -1.39602 0
M  V30 10202 C 979.913 1.30981 -1.33045 0
M  V30 10203 C 980.264 1.962 0.00349918 0
M  V30 10204 O 979.389 1.96539 0.905615 0
M  V30 10205 C 979.984 2.3817 -2.40958 0
M  V30 10206 C 978.543 2.91678 -2.3791 0
M  V30 10207 C 977.69 1.65286 -2.22656 0
M  V30 10208 H 980.641 0.528615 -1.49637 0
M  V30 10209 H 980.662 3.18645 -2.07955 0
M  V30 10210 H 980.174 1.90673 -3.38032 0
M  V30 10211 H 978.275 3.43446 -1.44485 0
M  V30 10212 H 978.388 3.44545 -3.32904 0
M  V30 10213 H 976.752 1.89759 -1.69893 0
M  V30 10214 H 977.535 1.19836 -3.21705 0
M  V30 10215 N 979.98 1.24838 0.961938 0
M  V30 10216 C 981.226 1.09313 1.70817 0
M  V30 10217 C 981.559 -0.366244 1.90715 0
M  V30 10218 O 980.834 -1.27036 1.47282 0
M  V30 10219 C 981.117 1.83988 3.09549 0
M  V30 10220 C 980.97 3.3771 2.97106 0
M  V30 10221 C 982.289 1.61718 4.09311 0
M  V30 10222 H 979.408 0.398498 0.619974 0
M  V30 10223 H 982.05 1.53579 1.11864 0
M  V30 10224 H 980.2 1.46363 3.59875 0
M  V30 10225 H 981.872 3.84967 2.54161 0
M  V30 10226 H 980.115 3.65795 2.33187 0
M  V30 10227 H 980.786 3.85166 3.95412 0
M  V30 10228 H 983.262 1.94458 3.67866 0
M  V30 10229 H 982.138 2.16415 5.04436 0
M  V30 10230 H 982.399 0.55677 4.3858 0
M  V30 10231 N 981.458 -1.16348 1.06306 0
M  V30 10232 C 982.388 -2.2291 0.695234 0
M  V30 10233 C 983.369 -1.67208 -0.312343 0
M  V30 10234 O 984.554 -1.93293 -0.187442 0
M  V30 10235 C 981.684 -3.47205 0.0810149 0
M  V30 10236 C 980.638 -4.15801 1.01458 0
M  V30 10237 C 979.964 -5.3405 0.263656 0
M  V30 10238 C 981.264 -4.66766 2.34365 0
M  V30 10239 H 982.958 -2.53934 1.58613 0
M  V30 10240 H 980.504 -1.22056 0.76409 0
M  V30 10241 H 982.457 -4.2098 -0.18818 0
M  V30 10242 H 981.181 -3.15482 -0.844897 0
M  V30 10243 H 979.84 -3.43954 1.26852 0
M  V30 10244 H 979.488 -4.9858 -0.665378 0
M  V30 10245 H 979.188 -5.80885 0.88582 0
M  V30 10246 H 980.712 -6.106 0.00200994 0
M  V30 10247 H 982.126 -5.3212 2.13356 0
M  V30 10248 H 980.523 -5.24223 2.9208 0
M  V30 10249 H 981.593 -3.82969 2.97426 0
M  V30 10250 N 982.937 -0.845659 -1.3299 0
M  V30 10251 C 984.214 -0.366306 -1.92139 0
M  V30 10252 C 984.594 1.14912 -1.77083 0
M  V30 10253 O 983.942 1.96667 -1.16338 0
M  V30 10254 C 984.152 -0.820716 -3.39213 0
M  V30 10255 C 985.5 -0.832667 -4.16355 0
M  V30 10256 O 986.524 -0.764764 -3.47893 0
M  V30 10257 O 985.383 -0.926658 -5.38586 0
M  V30 10258 H 982.477 -0.105063 -0.820299 0
M  V30 10259 H 985.023 -0.931962 -1.41819 0
M  V30 10260 H 983.795 -1.86357 -3.44074 0
M  V30 10261 H 983.418 -0.232009 -3.96923 0
M  V30 10262 N 984.415 1.45619 -0.602734 0
M  V30 10263 C 985.64 2.07157 -0.100429 0
M  V30 10264 C 986.065 1.44524 1.20393 0
M  V30 10265 O 985.423 0.536191 1.7319 0
M  V30 10266 C 985.471 3.60587 0.0308604 0
M  V30 10267 O 984.575 3.97944 1.08234 0
M  V30 10268 H 983.916 0.6601 -0.0718643 0
M  V30 10269 H 986.446 1.86948 -0.831366 0
M  V30 10270 H 986.456 4.07348 0.230634 0
M  V30 10271 H 985.131 4.05561 -0.921581 0
M  V30 10272 H 983.708 3.62862 0.859414 0
M  V30 10273 N 985.893 0.34162 1.53853 0
M  V30 10274 C 987.17 -0.310664 1.93117 0
M  V30 10275 C 987.55 -1.68398 1.273 0
M  V30 10276 O 986.898 -2.24546 0.423225 0
M  V30 10277 C 987.108 -0.384867 3.46871 0
M  V30 10278 C 988.456 -0.636621 4.198 0
M  V30 10279 O 989.48 -0.467061 3.53125 0
M  V30 10280 O 988.339 -0.964962 5.37913 0
M  V30 10281 H 985.433 -0.180881 0.806977 0
M  V30 10282 H 987.979 0.392656 1.65095 0
M  V30 10283 H 986.751 0.57894 3.86994 0
M  V30 10284 H 986.374 -1.13505 3.81054 0
M  V30 10285 N 987.371 -1.57444 0.0701946 0
M  V30 10286 C 988.619 -1.93047 -0.598106 0
M  V30 10287 C 988.94 -0.950841 -1.70247 0
M  V30 10288 O 988.21 0.00127177 -1.959 0
M  V30 10289 H 986.79 -0.712648 -0.223924 0
M  V30 10290 H 989.452 -1.94481 0.127674 0
M  V30 10291 H 988.548 -2.94807 -1.02445 0
M  V30 10292 N 988.849 0.203349 -1.56283 0
M  V30 10293 C 990.074 0.945548 -1.84592 0
M  V30 10294 C 990.499 1.7641 -0.652772 0
M  V30 10295 O 989.857 1.76867 0.398468 0
M  V30 10296 C 989.905 1.82416 -3.11057 0
M  V30 10297 O 989.009 2.92191 -2.9103 0
M  V30 10298 H 988.35 0.266739 -0.608068 0
M  V30 10299 H 990.88 0.211158 -2.03507 0
M  V30 10300 H 990.89 2.23044 -3.41636 0
M  V30 10301 H 989.565 1.22267 -3.97522 0
M  V30 10302 H 988.142 2.55378 -2.71728 0
M  V30 10303 N 990.327 1.50405 0.470755 0
M  V30 10304 C 991.574 1.61411 1.22281 0
M  V30 10305 C 991.902 0.314603 1.91939 0
M  V30 10306 O 991.157 -0.699531 1.82771 0
M  V30 10307 C 991.456 2.74426 2.28965 0
M  V30 10308 C 991.122 4.14896 1.76557 0
M  V30 10309 C 989.784 4.53116 1.61985 0
M  V30 10310 C 992.136 5.02686 1.3768 0
M  V30 10311 C 989.464 5.76868 1.0696 0
M  V30 10312 C 991.816 6.26985 0.840967 0
M  V30 10313 C 990.48 6.64008 0.68188 0
M  V30 10314 H 989.75 0.590645 0.447459 0
M  V30 10315 H 992.397 1.84339 0.518783 0
M  V30 10316 H 990.702 2.45588 3.05277 0
M  V30 10317 H 992.399 2.80146 2.86914 0
M  V30 10318 H 988.989 3.84743 1.88867 0
M  V30 10319 H 993.173 4.7379 1.47772 0
M  V30 10320 H 988.429 6.04227 0.933808 0
M  V30 10321 H 992.603 6.94372 0.531066 0
M  V30 10322 H 990.23 7.59778 0.25335 0
M  V30 10323 N 991.805 -0.723954 1.39988 0
M  V30 10324 C 993.052 -1.48371 1.37812 0
M  V30 10325 C 993.38 -1.94487 -0.0223285 0
M  V30 10326 O 992.635 -1.67906 -1.00529 0
M  V30 10327 C 992.934 -2.73004 2.30659 0
M  V30 10328 C 992.6 -2.45698 3.78078 0
M  V30 10329 C 991.262 -2.37961 4.18244 0
M  V30 10330 C 993.614 -2.22601 4.71273 0
M  V30 10331 C 990.942 -2.05183 5.49652 0
M  V30 10332 C 993.294 -1.91339 6.0297 0
M  V30 10333 C 991.958 -1.82078 6.42187 0
M  V30 10334 H 991.228 -0.542929 0.504291 0
M  V30 10335 H 993.875 -0.829986 1.72579 0
M  V30 10336 H 992.18 -3.43174 1.89048 0
M  V30 10337 H 993.877 -3.31068 2.26263 0
M  V30 10338 H 990.467 -2.52603 3.46251 0
M  V30 10339 H 994.651 -2.2754 4.41066 0
M  V30 10340 H 989.907 -1.96544 5.78948 0
M  V30 10341 H 994.081 -1.72479 6.74703 0
M  V30 10342 H 991.708 -1.56446 7.43928 0
M  V30 10343 N 993.283 -1.25346 -0.955304 0
M  V30 10344 C 994.213 -1.08152 -2.06943 0
M  V30 10345 C 995.194 0.00922598 -1.70097 0
M  V30 10346 O 996.379 -0.160181 -1.93538 0
M  V30 10347 C 993.509 -0.698745 -3.40198 0
M  V30 10348 C 992.463 -1.73965 -3.9105 0
M  V30 10349 C 991.789 -1.21158 -5.20792 0
M  V30 10350 C 993.089 -3.13829 -4.17503 0
M  V30 10351 H 994.783 -2.01345 -2.21586 0
M  V30 10352 H 992.329 -0.969459 -1.06478 0
M  V30 10353 H 994.282 -0.565394 -4.1759 0
M  V30 10354 H 993.006 0.268892 -3.25491 0
M  V30 10355 H 991.665 -1.86143 -3.15827 0
M  V30 10356 H 991.313 -0.234193 -5.02455 0
M  V30 10357 H 991.013 -1.90728 -5.55785 0
M  V30 10358 H 992.537 -1.09061 -6.00781 0
M  V30 10359 H 993.951 -3.04809 -4.85556 0
M  V30 10360 H 992.348 -3.80863 -4.63749 0
M  V30 10361 H 993.418 -3.6094 -3.23806 0
M  V30 10362 N 994.761 1.15782 -1.06922 0
M  V30 10363 C 995.991 1.90079 -0.809545 0
M  V30 10364 C 996.399 1.78028 0.640523 0
M  V30 10365 O 995.742 1.12692 1.45073 0
M  V30 10366 C 995.804 3.41179 -1.13302 0
M  V30 10367 C 995.468 3.77015 -2.5828 0
M  V30 10368 C 996.465 3.78403 -3.56521 0
M  V30 10369 C 994.15 4.07455 -2.93745 0
M  V30 10370 C 996.144 4.09729 -4.88264 0
M  V30 10371 C 993.831 4.38446 -4.25686 0
M  V30 10372 C 994.829 4.39564 -5.22755 0
M  V30 10373 O 994.517 4.69814 -6.52326 0
M  V30 10374 H 994.249 0.609397 -0.292595 0
M  V30 10375 H 996.803 1.47654 -1.42784 0
M  V30 10376 H 995.033 3.83982 -0.457676 0
M  V30 10377 H 996.722 3.96759 -0.856586 0
M  V30 10378 H 997.488 3.54991 -3.30464 0
M  V30 10379 H 993.367 4.05746 -2.1884 0
M  V30 10380 H 996.911 4.10516 -5.64023 0
M  V30 10381 H 992.808 4.61325 -4.51497 0
M  V30 10382 H 993.576 4.87598 -6.57412 0
M  V30 10383 N 996.239 0.8527 1.3254 0
M  V30 10384 C 997.464 0.468157 2.02047 0
M  V30 10385 C 997.889 -0.926967 1.63673 0
M  V30 10386 O 997.247 -1.60855 0.836378 0
M  V30 10387 C 997.295 0.612519 3.5536 0
M  V30 10388 O 996.399 -0.355506 4.10865 0
M  V30 10389 H 995.74 0.188401 0.636711 0
M  V30 10390 H 998.27 1.15135 1.6913 0
M  V30 10391 H 998.28 0.499315 4.04933 0
M  V30 10392 H 996.955 1.62988 3.82632 0
M  V30 10393 H 995.532 -0.198703 3.7237 0
M  V30 10394 N 997.718 -1.45297 0.610449 0
M  V30 10395 C 998.665 -2.30553 -0.106718 0
M  V30 10396 C 999.635 -1.42272 -0.85719 0
M  V30 10397 O 1000.82 -1.71199 -0.842357 0
M  V30 10398 C 997.96 -3.27226 -1.09623 0
M  V30 10399 C 997.073 -4.3061 -0.346329 0
M  V30 10400 C 996.208 -5.14389 -1.32581 0
M  V30 10401 C 995.247 -6.09497 -0.563892 0
M  V30 10402 N 994.384 -6.86047 -1.4928 0
M  V30 10403 H 999.224 -2.91344 0.626296 0
M  V30 10404 H 996.761 -1.43563 0.32065 0
M  V30 10405 H 998.719 -3.81744 -1.68308 0
M  V30 10406 H 997.349 -2.68182 -1.79662 0
M  V30 10407 H 996.401 -3.7873 0.356084 0
M  V30 10408 H 997.713 -4.98183 0.248026 0
M  V30 10409 H 996.867 -5.73321 -1.98464 0
M  V30 10410 H 995.606 -4.4684 -1.9541 0
M  V30 10411 H 994.611 -5.49693 0.108551 0
M  V30 10412 H 995.836 -6.79074 0.0593872 0
M  V30 10413 H 993.782 -6.21185 -2.10868 0
M  V30 10414 H 993.699 -7.49983 -0.951953 0
M  V30 10415 H 994.967 -7.49518 -2.14112 0
M  V30 10416 N 999.196 -0.349774 -1.5367 0
M  V30 10417 C 1000.13 0.496338 -2.28164 0
M  V30 10418 C 1001.11 1.09737 -1.29968 0
M  V30 10419 O 1002.29 1.11759 -1.58819 0
M  V30 10420 C 999.422 1.64428 -3.0591 0
M  V30 10421 C 998.376 1.17127 -4.11661 0
M  V30 10422 C 997.702 2.40822 -4.77398 0
M  V30 10423 C 999.002 0.267293 -5.21616 0
M  V30 10424 H 1000.7 -0.125117 -2.99138 0
M  V30 10425 H 998.242 -0.0616152 -1.43868 0
M  V30 10426 H 1000.19 2.2427 -3.56765 0
M  V30 10427 H 998.919 2.29272 -2.32598 0
M  V30 10428 H 997.578 0.595634 -3.61729 0
M  V30 10429 H 997.226 3.04088 -4.00674 0
M  V30 10430 H 996.926 2.09852 -5.48849 0
M  V30 10431 H 998.45 3.01378 -5.3104 0
M  V30 10432 H 999.864 0.772734 -5.68068 0
M  V30 10433 H 998.261 0.0491991 -6.0008 0
M  V30 10434 H 999.331 -0.694892 -4.79895 0
M  V30 10435 N 1000.67 1.57404 -0.0785433 0
M  V30 10436 C 1001.9 1.98074 0.597862 0
M  V30 10437 C 1002.32 0.95714 1.6274 0
M  V30 10438 O 1001.67 -0.0553728 1.82416 0
M  V30 10439 C 1001.72 3.38815 1.26041 0
M  V30 10440 O 1001.45 4.37254 0.27207 0
M  V30 10441 C 1002.95 3.94397 2.024 0
M  V30 10442 H 1000.17 0.651263 0.161546 0
M  V30 10443 H 1002.71 2.03927 -0.152941 0
M  V30 10444 H 1000.87 3.34028 1.96225 0
M  V30 10445 H 1001.28 5.19136 0.74822 0
M  V30 10446 H 1002.75 4.95075 2.4414 0
M  V30 10447 H 1003.23 3.31308 2.88326 0
M  V30 10448 H 1003.84 4.02607 1.37068 0
M  V30 10449 N 1002.15 -0.195058 1.56388 0
M  V30 10450 C 1003.4 -0.9168 1.80894 0
M  V30 10451 C 1003.73 -1.82907 0.652592 0
M  V30 10452 O 1003.01 -1.91382 -0.346853 0
M  V30 10453 C 1003.29 -1.733 3.15657 0
M  V30 10454 C 1003.14 -0.845449 4.41783 0
M  V30 10455 C 1004.46 -2.70557 3.47112 0
M  V30 10456 H 1001.58 -0.331861 0.658056 0
M  V30 10457 H 1004.22 -0.184174 1.89105 0
M  V30 10458 H 1002.37 -2.3576 3.08787 0
M  V30 10459 H 1004.04 -0.235557 4.60698 0
M  V30 10460 H 1002.29 -0.152172 4.33533 0
M  V30 10461 H 1002.96 -1.45152 5.32574 0
M  V30 10462 H 1005.43 -2.1823 3.54281 0
M  V30 10463 H 1004.31 -3.24749 4.42526 0
M  V30 10464 H 1004.57 -3.49605 2.70608 0
M  V30 10465 N 1003.63 -1.50653 -0.462772 0
M  V30 10466 C 1004.91 -1.5258 -1.22387 0
M  V30 10467 C 1005.29 -0.275263 -2.09298 0
M  V30 10468 O 1004.63 0.740943 -2.16153 0
M  V30 10469 C 1004.84 -2.82611 -2.04773 0
M  V30 10470 C 1006.19 -3.33592 -2.62681 0
M  V30 10471 O 1007.22 -2.83989 -2.15008 0
M  V30 10472 O 1006.08 -4.20081 -3.49563 0
M  V30 10473 H 1003.17 -0.612367 -0.55582 0
M  V30 10474 H 1005.72 -1.62948 -0.473914 0
M  V30 10475 H 1004.49 -3.65098 -1.40781 0
M  V30 10476 H 1004.11 -2.75286 -2.86886 0
M  V30 10477 N 1005.11 0.71652 -1.4037 0
M  V30 10478 C 1006.06 1.8306 -1.40562 0
M  V30 10479 C 1007.03 1.64009 -0.262697 0
M  V30 10480 O 1008.21 1.85157 -0.460619 0
M  V30 10481 C 1005.35 3.2076 -1.27307 0
M  V30 10482 C 1004.46 3.51389 -2.51296 0
M  V30 10483 C 1003.6 4.78589 -2.30491 0
M  V30 10484 C 1002.64 5.02119 -3.50061 0
M  V30 10485 N 1001.77 6.20533 -3.28457 0
M  V30 10486 H 1006.61 1.82231 -2.35788 0
M  V30 10487 H 1004.15 0.890198 -1.17106 0
M  V30 10488 H 1006.11 4.00274 -1.17628 0
M  V30 10489 H 1004.74 3.2082 -0.357005 0
M  V30 10490 H 1003.79 2.66436 -2.71507 0
M  V30 10491 H 1005.1 3.64686 -3.40302 0
M  V30 10492 H 1004.26 5.66119 -2.1816 0
M  V30 10493 H 1003 4.67499 -1.38909 0
M  V30 10494 H 1002 4.13044 -3.6287 0
M  V30 10495 H 1003.23 5.15082 -4.42569 0
M  V30 10496 H 1001.17 6.10695 -2.39556 0
M  V30 10497 H 1001.09 6.34502 -4.11027 0
M  V30 10498 H 1002.36 7.10853 -3.19857 0
M  V30 10499 N 1006.59 1.25851 0.948643 0
M  V30 10500 C 1007.81 1.13813 1.73382 0
M  V30 10501 C 1008.24 -0.303615 1.85633 0
M  V30 10502 O 1007.59 -1.21997 1.34114 0
M  V30 10503 C 1007.64 1.80388 3.12238 0
M  V30 10504 O 1006.75 1.08759 3.978 0
M  V30 10505 H 1006.09 0.397006 0.532243 0
M  V30 10506 H 1008.62 1.66529 1.18866 0
M  V30 10507 H 1008.63 1.86913 3.62667 0
M  V30 10508 H 1007.3 2.85278 3.02637 0
M  V30 10509 H 1005.88 1.10157 3.56258 0
M  V30 10510 N 1008.06 -1.15214 1.07534 0
M  V30 10511 C 1009.48 -1.38031 0.801228 0
M  V30 10512 C 1009.68 -1.92556 -0.593672 0
M  V30 10513 O 1008.74 -2.1325 -1.35206 0
M  V30 10514 C 1010.05 -2.34958 1.87657 0
M  V30 10515 C 1011.6 -2.48617 1.90154 0
M  V30 10516 C 1012.07 -3.48837 2.96777 0
M  V30 10517 N 1013.56 -3.56374 2.95892 0
M  V30 10518 C 1014.3 -4.33746 3.75036 0
M  V30 10519 N 1013.79 -5.14435 4.64036 0
M  V30 10520 N 1015.59 -4.28853 3.63375 0
M  V30 10521 H 1007.74 -0.781639 1.97495 0
M  V30 10522 H 1010 -0.406243 0.856546 0
M  V30 10523 H 1009.71 -2.02013 2.87895 0
M  V30 10524 H 1009.58 -3.3476 1.73827 0
M  V30 10525 H 1011.97 -2.80859 0.905666 0
M  V30 10526 H 1012.05 -1.48808 2.08062 0
M  V30 10527 H 1011.69 -3.1733 3.96565 0
M  V30 10528 H 1011.62 -4.48406 2.76116 0
M  V30 10529 H 1014.11 -2.98784 2.31379 0
M  V30 10530 H 1014.43 -5.70722 5.21053 0
M  V30 10531 H 1012.77 -5.13734 4.68084 0
M  V30 10532 H 1015.96 -3.64882 2.93221 0
M  V30 10533 H 1016.14 -4.88903 4.25298 0
M  V30 10534 N 1009.54 -0.859717 -1.32086 0
M  V30 10535 C 1010.79 -0.475565 -1.97762 0
M  V30 10536 C 1011.14 0.959348 -1.66776 0
M  V30 10537 O 1010.44 1.66484 -0.948343 0
M  V30 10538 C 1010.63 -0.657397 -3.51302 0
M  V30 10539 C 1010.46 -2.10843 -3.97209 0
M  V30 10540 C 1009.23 -2.74796 -4.24046 0
M  V30 10541 C 1011.43 -3.07959 -4.11905 0
M  V30 10542 N 1009.41 -4.10758 -4.56236 0
M  V30 10543 C 1010.78 -4.28922 -4.4769 0
M  V30 10544 C 1012.84 -3.04086 -3.94254 0
M  V30 10545 C 1011.54 -5.46518 -4.67665 0
M  V30 10546 C 1013.56 -4.20931 -4.15416 0
M  V30 10547 C 1012.93 -5.40654 -4.51522 0
M  V30 10548 H 1009.03 -0.222859 -0.749572 0
M  V30 10549 H 1011.61 -1.11217 -1.59809 0
M  V30 10550 H 1009.78 -0.0504597 -3.88367 0
M  V30 10551 H 1011.51 -0.242642 -4.03972 0
M  V30 10552 H 1008.27 -2.25805 -4.16304 0
M  V30 10553 H 1008.69 -4.80905 -4.76507 0
M  V30 10554 H 1013.33 -2.12641 -3.65436 0
M  V30 10555 H 1011.05 -6.3849 -4.95335 0
M  V30 10556 H 1014.64 -4.19376 -4.03255 0
M  V30 10557 H 1013.52 -6.29563 -4.67568 0
M  V30 10558 N 1011.02 1.44971 -0.618145 0
M  V30 10559 C 1011.95 2.28815 0.132751 0
M  V30 10560 C 1012.97 1.40551 0.821535 0
M  V30 10561 O 1014.15 1.64827 0.685155 0
M  V30 10562 C 1011.25 3.1658 1.20955 0
M  V30 10563 C 1010.43 4.33184 0.605821 0
M  V30 10564 C 1009.49 5.0208 1.57488 0
M  V30 10565 O 1008.51 5.58528 1.09706 0
M  V30 10566 N 1009.71 5.02335 2.9093 0
M  V30 10567 H 1012.48 2.939 -0.58674 0
M  V30 10568 H 1010.04 1.55276 -0.458375 0
M  V30 10569 H 1012.03 3.59535 1.85787 0
M  V30 10570 H 1010.6 2.53333 1.83143 0
M  V30 10571 H 1009.82 3.93581 -0.220827 0
M  V30 10572 H 1011.11 5.08471 0.182883 0
M  V30 10573 H 1010.51 4.57783 3.32342 0
M  V30 10574 H 1009.07 5.49119 3.51157 0
M  V30 10575 N 1012.5 0.357919 1.53482 0
M  V30 10576 C 1013.43 -0.526753 2.23065 0
M  V30 10577 C 1014.44 -1.05239 1.24212 0
M  V30 10578 O 1015.63 -0.960078 1.50482 0
M  V30 10579 C 1012.73 -1.73919 2.9087 0
M  V30 10580 C 1011.91 -1.34638 4.16163 0
M  V30 10581 C 1010.96 -2.42005 4.67247 0
M  V30 10582 O 1009.99 -2.04714 5.31113 0
M  V30 10583 N 1011.19 -3.73478 4.44404 0
M  V30 10584 H 1013.96 0.0692386 2.9962 0
M  V30 10585 H 1011.52 0.182726 1.60866 0
M  V30 10586 H 1013.51 -2.45207 3.21956 0
M  V30 10587 H 1012.08 -2.24223 2.17814 0
M  V30 10588 H 1011.3 -0.463667 3.91464 0
M  V30 10589 H 1012.59 -1.06012 4.97633 0
M  V30 10590 H 1011.99 -4.06555 3.93357 0
M  V30 10591 H 1010.54 -4.40893 4.80059 0
M  V30 10592 N 1013.98 -1.5736 0.0868897 0
M  V30 10593 C 1015.22 -1.9367 -0.577598 0
M  V30 10594 C 1015.55 -0.968844 -1.69229 0
M  V30 10595 O 1014.82 -0.0195061 -1.9589 0
M  V30 10596 H 1013.4 -0.714983 -0.216353 0
M  V30 10597 H 1016.06 -1.94335 0.148294 0
M  V30 10598 H 1015.15 -2.95877 -0.993128 0
M  V30 10599 N 1015.45 0.186762 -1.56489 0
M  V30 10600 C 1016.4 1.25084 -1.96104 0
M  V30 10601 C 1017.4 1.4667 -0.847609 0
M  V30 10602 O 1018.6 1.47432 -1.03266 0
M  V30 10603 H 1014.98 0.420121 -0.623701 0
M  V30 10604 H 1016.95 0.889761 -2.84826 0
M  V30 10605 C 1015.7 2.5863 -2.32392 0
M  V30 10606 H 1015.02 2.42838 -3.176 0
M  V30 10607 H 1016.46 3.3181 -2.63967 0
M  V30 10608 C 1014.92 3.16241 -1.16159 0
M  V30 10609 O 1015.45 3.99272 -0.441034 0
M  V30 10610 N 1013.66 2.75106 -0.936206 0
M  V30 10611 H 1013.2 2.0769 -1.5239 0
M  V30 10612 H 1013.16 3.13991 -0.160317 0
M  V30 10613 N 1016.93 1.50896 0.454776 0
M  V30 10614 C 1018.18 1.6294 1.20741 0
M  V30 10615 C 1018.51 0.336339 1.91265 0
M  V30 10616 O 1017.79 -0.663153 1.82846 0
M  V30 10617 C 1018.07 2.82092 2.23822 0
M  V30 10618 C 1017.92 4.21326 1.57495 0
M  V30 10619 C 1019.24 2.96777 3.24979 0
M  V30 10620 H 1016.36 0.59302 0.437603 0
M  V30 10621 H 1019 1.83331 0.498959 0
M  V30 10622 H 1017.15 2.64837 2.84243 0
M  V30 10623 H 1018.82 4.50209 1.00546 0
M  V30 10624 H 1017.07 4.24829 0.877664 0
M  V30 10625 H 1017.74 5.00656 2.32482 0
M  V30 10626 H 1020.21 3.12627 2.74597 0
M  V30 10627 H 1019.09 3.81742 3.94416 0
M  V30 10628 H 1019.35 2.08091 3.90065 0
M  V30 10629 N 1018.41 -0.709066 1.40748 0
M  V30 10630 C 1019.66 -1.46901 1.39378 0
M  V30 10631 C 1019.99 -1.945 -0.0016993 0
M  V30 10632 O 1019.24 -1.68963 -0.987426 0
M  V30 10633 C 1019.54 -2.70543 2.33541 0
M  V30 10634 C 1019.21 -2.41674 3.80663 0
M  V30 10635 C 1017.87 -2.33511 4.20745 0
M  V30 10636 C 1020.22 -2.1759 4.73607 0
M  V30 10637 C 1017.55 -1.99342 5.51797 0
M  V30 10638 C 1019.9 -1.84933 6.04965 0
M  V30 10639 C 1018.56 -1.75256 6.44082 0
M  V30 10640 H 1017.83 -0.537549 0.510021 0
M  V30 10641 H 1020.48 -0.811635 1.7345 0
M  V30 10642 H 1018.79 -3.41149 1.92677 0
M  V30 10643 H 1020.48 -3.2865 2.29761 0
M  V30 10644 H 1017.07 -2.48917 3.4891 0
M  V30 10645 H 1021.26 -2.22849 4.43454 0
M  V30 10646 H 1016.51 -1.90392 5.81 0
M  V30 10647 H 1020.69 -1.65313 6.76494 0
M  V30 10648 H 1018.31 -1.48547 7.45545 0
M  V30 10649 N 1019.89 -1.26353 -0.941956 0
M  V30 10650 C 1021.11 -1.14731 -1.72776 0
M  V30 10651 C 1021.54 0.293766 -1.85792 0
M  V30 10652 O 1020.9 1.21284 -1.34759 0
M  V30 10653 C 1020.95 -1.82041 -3.11277 0
M  V30 10654 O 1020.05 -1.10867 -3.97218 0
M  V30 10655 H 1019.39 -0.399823 -0.53013 0
M  V30 10656 H 1021.92 -1.67157 -1.17981 0
M  V30 10657 H 1021.93 -1.88834 -3.61671 0
M  V30 10658 H 1020.61 -2.86879 -3.0112 0
M  V30 10659 H 1019.18 -1.12044 -3.55669 0
M  V30 10660 N 1021.37 1.14642 -1.08144 0
M  V30 10661 C 1022.61 1.87277 -0.818953 0
M  V30 10662 C 1022.97 1.80896 0.643482 0
M  V30 10663 O 1024.17 2.4864 1.02135 0
M  V30 10664 C 1022.44 3.32006 -1.32314 0
M  V30 10665 S 1024 4.22284 -1.19256 0
M  V30 10666 H 1020.82 0.646204 -0.29655 0
M  V30 10667 H 1023.42 1.38261 -1.38217 0
M  V30 10668 H 1022.13 3.34197 -2.38203 0
M  V30 10669 H 1021.66 3.86078 -0.75548 0
M  V30 10670 H 1023.67 4.96016 -0.135143 0
M  V30 10671 N 1022.85 0.866709 1.31628 0
M  V30 10672 C 1024.07 0.48956 2.01539 0
M  V30 10673 C 1024.5 -0.909556 1.64647 0
M  V30 10674 O 1023.85 -1.59959 0.853391 0
M  V30 10675 C 1023.9 0.650176 3.5469 0
M  V30 10676 O 1023.01 -0.311908 4.11219 0
M  V30 10677 H 1022.35 0.195144 0.634677 0
M  V30 10678 H 1024.88 1.16923 1.679 0
M  V30 10679 H 1024.89 0.542236 4.04381 0
M  V30 10680 H 1023.56 1.67038 3.80882 0
M  V30 10681 H 1022.14 -0.159197 3.7256 0
M  V30 10682 N 1024.32 -1.44642 0.625825 0
M  V30 10683 C 1025.57 -2.02393 0.128391 0
M  V30 10684 C 1025.9 -1.49075 -1.2446 0
M  V30 10685 O 1025.18 -0.672684 -1.82497 0
M  V30 10686 C 1025.46 -3.59934 0.109279 0
M  V30 10687 C 1025.31 -4.23546 1.51423 0
M  V30 10688 C 1026.63 -4.36406 -0.568985 0
M  V30 10689 H 1023.75 -0.735427 0.0481299 0
M  V30 10690 H 1026.39 -1.72277 0.801286 0
M  V30 10691 H 1024.54 -3.85722 -0.463726 0
M  V30 10692 H 1026.22 -4.08882 2.13572 0
M  V30 10693 H 1024.46 -3.81245 2.06966 0
M  V30 10694 H 1025.13 -5.32535 1.45294 0
M  V30 10695 H 1027.61 -4.1602 -0.0817516 0
M  V30 10696 H 1026.48 -5.46122 -0.551527 0
M  V30 10697 H 1026.74 -4.1062 -1.6384 0
M  V30 10698 N 1025.8 -0.366053 -1.5329 0
M  V30 10699 C 1026.73 0.523781 -2.22108 0
M  V30 10700 C 1027.71 1.08262 -1.21318 0
M  V30 10701 O 1028.9 1.13866 -1.50222 0
M  V30 10702 C 1026.02 1.72273 -2.91616 0
M  V30 10703 C 1025.07 1.29129 -4.06482 0
M  V30 10704 S 1025.9 0.292195 -5.34702 0
M  V30 10705 C 1027.06 1.49746 -6.07723 0
M  V30 10706 H 1027.29 -0.0606687 -2.97238 0
M  V30 10707 H 1024.82 -0.15016 -1.53668 0
M  V30 10708 H 1026.78 2.41045 -3.32277 0
M  V30 10709 H 1025.44 2.27843 -2.16209 0
M  V30 10710 H 1024.64 2.18583 -4.54134 0
M  V30 10711 H 1024.24 0.682783 -3.67715 0
M  V30 10712 H 1026.53 2.4284 -6.32483 0
M  V30 10713 H 1027.47 1.06232 -7.00086 0
M  V30 10714 H 1027.88 1.70373 -5.38176 0
M  V30 10715 N 1027.28 1.57312 -0.0952337 0
M  V30 10716 C 1028.23 2.10571 0.87428 0
M  V30 10717 C 1029.21 1.02079 1.24374 0
M  V30 10718 O 1030.41 1.28353 1.2188 0
M  V30 10719 C 1027.53 2.68972 2.13329 0
M  V30 10720 C 1026.62 3.84508 1.78926 0
M  V30 10721 N 1027.01 4.92534 1.15082 0
M  V30 10722 C 1025.31 3.94245 2.08535 0
M  V30 10723 C 1026.01 5.73163 0.992937 0
M  V30 10724 N 1024.99 5.22198 1.51029 0
M  V30 10725 H 1028.79 2.91476 0.376727 0
M  V30 10726 H 1026.3 1.62041 0.107974 0
M  V30 10727 H 1028.3 3.05457 2.83728 0
M  V30 10728 H 1026.96 1.89523 2.6365 0
M  V30 10729 H 1027.97 5.11405 0.817621 0
M  V30 10730 H 1024.65 3.25805 2.61069 0
M  V30 10731 H 1026.04 6.70084 0.493641 0
M  V30 10732 N 1028.76 -0.17846 1.56586 0
M  V30 10733 C 1029.67 -1.24115 1.9908 0
M  V30 10734 C 1030.68 -1.48854 0.901031 0
M  V30 10735 O 1031.86 -1.61142 1.2081 0
M  V30 10736 C 1028.92 -2.56187 2.33601 0
M  V30 10737 C 1027.99 -2.39373 3.56369 0
M  V30 10738 C 1027.22 -3.65147 3.89234 0
M  V30 10739 O 1027.44 -4.70024 3.23162 0
M  V30 10740 O 1026.38 -3.59683 4.82609 0
M  V30 10741 H 1030.2 -0.910482 2.89731 0
M  V30 10742 H 1027.79 -0.38477 1.4436 0
M  V30 10743 H 1029.67 -3.34109 2.56806 0
M  V30 10744 H 1028.34 -2.88847 1.46113 0
M  V30 10745 H 1027.25 -1.59506 3.38391 0
M  V30 10746 H 1028.58 -2.1164 4.44375 0
M  V30 10747 N 1030.24 -1.51135 -0.446768 0
M  V30 10748 C 1031.2 -1.71187 -1.52406 0
M  V30 10749 C 1032.2 -0.582037 -1.49897 0
M  V30 10750 O 1033.39 -0.849452 -1.52085 0
M  V30 10751 C 1030.52 -1.75962 -2.91976 0
M  V30 10752 H 1031.71 -2.67324 -1.35934 0
M  V30 10753 H 1029.27 -1.40982 -0.674813 0
M  V30 10754 H 1030 -0.816065 -3.13864 0
M  V30 10755 H 1029.79 -2.58065 -2.95203 0
M  V30 10756 H 1031.28 -1.93347 -3.70144 0
M  V30 10757 N 1031.71 0.701592 -1.41122 0
M  V30 10758 C 1032.64 1.82815 -1.45262 0
M  V30 10759 C 1033.62 1.67215 -0.311939 0
M  V30 10760 O 1034.81 1.87038 -0.522538 0
M  V30 10761 C 1031.94 3.20899 -1.32819 0
M  V30 10762 C 1030.89 3.51194 -2.44636 0
M  V30 10763 C 1030.22 4.8857 -2.17263 0
M  V30 10764 C 1031.52 3.50777 -3.86979 0
M  V30 10765 H 1033.21 1.79608 -2.39544 0
M  V30 10766 H 1030.76 0.862693 -1.15298 0
M  V30 10767 H 1032.71 3.99417 -1.34329 0
M  V30 10768 H 1031.44 3.24717 -0.350191 0
M  V30 10769 H 1030.1 2.75024 -2.42399 0
M  V30 10770 H 1029.74 4.89007 -1.17819 0
M  V30 10771 H 1029.44 5.09805 -2.92186 0
M  V30 10772 H 1030.97 5.69405 -2.20478 0
M  V30 10773 H 1032.38 4.19309 -3.90964 0
M  V30 10774 H 1030.78 3.83542 -4.61536 0
M  V30 10775 H 1031.85 2.49873 -4.15562 0
M  V30 10776 N 1033.19 1.2685 0.935242 0
M  V30 10777 C 1034.14 1.05586 2.02078 0
M  V30 10778 C 1035.13 -0.013699 1.60894 0
M  V30 10779 O 1036.32 0.203956 1.75821 0
M  V30 10780 C 1033.45 0.697118 3.36148 0
M  V30 10781 C 1032.53 1.80444 3.83798 0
M  V30 10782 N 1032.92 3.04283 4.04037 0
M  V30 10783 C 1031.22 1.68939 4.12766 0
M  V30 10784 C 1031.92 3.7629 4.436 0
M  V30 10785 N 1030.9 3.04011 4.50642 0
M  V30 10786 H 1034.7 1.99577 2.15746 0
M  V30 10787 H 1032.21 1.17455 1.12153 0
M  V30 10788 H 1034.21 0.525915 4.1357 0
M  V30 10789 H 1032.87 -0.235247 3.23847 0
M  V30 10790 H 1033.88 3.40125 3.90558 0
M  V30 10791 H 1030.56 0.827341 4.0922 0
M  V30 10792 H 1031.95 4.82687 4.67401 0
M  V30 10793 N 1034.67 -1.14067 1.0875 0
M  V30 10794 C 1035.62 -2.21332 0.715195 0
M  V30 10795 C 1036.61 -1.67059 -0.280679 0
M  V30 10796 O 1037.82 -1.79432 -0.142874 0
M  V30 10797 H 1034.19 -0.721126 0.213264 0
M  V30 10798 H 1036.16 -2.50002 1.62916 0
M  V30 10799 C 1034.91 -3.474 0.144401 0
M  V30 10800 H 1034.24 -3.89495 0.901884 0
M  V30 10801 H 1035.68 -4.23928 -0.0782564 0
M  V30 10802 C 1034.14 -3.17787 -1.11862 0
M  V30 10803 O 1034.67 -3.35906 -2.20295 0
M  V30 10804 N 1032.87 -2.71719 -1.03039 0
M  V30 10805 H 1032.42 -2.57175 -0.14793 0
M  V30 10806 H 1032.38 -2.52281 -1.87621 0
M  V30 10807 N 1036.15 -0.873678 -1.31166 0
M  V30 10808 C 1037.1 -0.303699 -2.25968 0
M  V30 10809 C 1038.08 0.561387 -1.50789 0
M  V30 10810 O 1039.27 0.407658 -1.72242 0
M  V30 10811 C 1036.4 0.490612 -3.39776 0
M  V30 10812 C 1035.49 -0.387927 -4.22322 0
M  V30 10813 N 1035.88 -1.48313 -4.83567 0
M  V30 10814 C 1034.18 -0.18102 -4.45632 0
M  V30 10815 C 1034.88 -2.0252 -5.45308 0
M  V30 10816 N 1033.86 -1.32169 -5.27288 0
M  V30 10817 H 1037.66 -1.14071 -2.7086 0
M  V30 10818 H 1035.17 -0.721843 -1.45476 0
M  V30 10819 H 1037.17 0.9155 -4.06724 0
M  V30 10820 H 1035.83 1.32519 -2.96427 0
M  V30 10821 H 1036.84 -1.86604 -4.83114 0
M  V30 10822 H 1033.52 0.617304 -4.12911 0
M  V30 10823 H 1034.91 -2.94429 -6.03955 0
M  V30 10824 N 1037.63 1.44308 -0.633487 0
M  V30 10825 C 1038.86 2.06085 -0.145852 0
M  V30 10826 C 1039.26 1.47432 1.18577 0
M  V30 10827 O 1038.61 0.592575 1.7388 0
M  V30 10828 C 1038.67 3.59477 0.0407848 0
M  V30 10829 C 1038.33 4.40607 -1.21304 0
M  V30 10830 C 1039.33 4.73937 -2.13728 0
M  V30 10831 C 1037.02 4.80943 -1.44911 0
M  V30 10832 C 1039.01 5.46489 -3.28068 0
M  V30 10833 C 1036.7 5.53243 -2.59548 0
M  V30 10834 C 1037.69 5.85936 -3.50953 0
M  V30 10835 O 1037.38 6.56764 -4.6359 0
M  V30 10836 H 1037.11 0.671484 -0.0780085 0
M  V30 10837 H 1039.67 1.86128 -0.868658 0
M  V30 10838 H 1037.9 3.77933 0.818761 0
M  V30 10839 H 1039.59 4.03013 0.483273 0
M  V30 10840 H 1040.35 4.43311 -1.96725 0
M  V30 10841 H 1036.23 4.54915 -0.746537 0
M  V30 10842 H 1039.78 5.71924 -3.99435 0
M  V30 10843 H 1035.67 5.83285 -2.76493 0
M  V30 10844 H 1036.44 6.75234 -4.62602 0
M  V30 10845 N 1039.1 0.374177 1.53094 0
M  V30 10846 C 1040.33 -0.213325 2.05797 0
M  V30 10847 C 1040.75 -1.41753 1.24706 0
M  V30 10848 O 1040.1 -1.80183 0.289868 0
M  V30 10849 C 1040.16 -0.598367 3.56513 0
M  V30 10850 O 1039.88 0.557983 4.34532 0
M  V30 10851 C 1041.38 -1.24334 4.25507 0
M  V30 10852 H 1038.6 -0.0357398 0.670048 0
M  V30 10853 H 1041.14 0.535035 1.97377 0
M  V30 10854 H 1039.3 -1.29663 3.65056 0
M  V30 10855 H 1039.71 0.244911 5.23928 0
M  V30 10856 H 1041.18 -1.46325 5.32253 0
M  V30 10857 H 1041.66 -2.20622 3.79766 0
M  V30 10858 H 1042.27 -0.586269 4.2124 0
M  V30 10859 N 1040.58 -1.57259 0.103575 0
M  V30 10860 C 1041.51 -2.1153 -0.882472 0
M  V30 10861 C 1042.53 -1.05446 -1.24036 0
M  V30 10862 O 1043.72 -1.32867 -1.192 0
M  V30 10863 C 1040.82 -2.58717 -2.18903 0
M  V30 10864 C 1039.99 -3.8873 -2.00519 0
M  V30 10865 C 1039.05 -4.21675 -3.14764 0
M  V30 10866 O 1038.07 -4.90755 -2.88355 0
M  V30 10867 N 1039.28 -3.77757 -4.40772 0
M  V30 10868 H 1042.04 -2.96758 -0.418901 0
M  V30 10869 H 1039.6 -1.61696 -0.0812921 0
M  V30 10870 H 1041.59 -2.77797 -2.94297 0
M  V30 10871 H 1040.16 -1.78454 -2.56657 0
M  V30 10872 H 1039.38 -3.78714 -1.09406 0
M  V30 10873 H 1040.67 -4.73771 -1.85522 0
M  V30 10874 H 1040.07 -3.22011 -4.65108 0
M  V30 10875 H 1038.63 -4.01975 -5.13088 0
M  V30 10876 N 1042.06 0.170153 -1.56679 0
M  V30 10877 C 1043.01 1.21064 -1.965 0
M  V30 10878 C 1043.98 1.43928 -0.829092 0
M  V30 10879 O 1045.16 1.56649 -1.08931 0
M  V30 10880 C 1042.3 2.54468 -2.33109 0
M  V30 10881 C 1041.42 2.38974 -3.59883 0
M  V30 10882 C 1040.55 3.65252 -3.857 0
M  V30 10883 C 1039.59 3.44696 -5.05817 0
M  V30 10884 N 1038.73 4.63047 -5.27761 0
M  V30 10885 H 1043.57 0.864055 -2.85198 0
M  V30 10886 H 1041.1 0.415243 -1.41117 0
M  V30 10887 H 1043.06 3.32222 -2.52358 0
M  V30 10888 H 1041.69 2.8712 -1.4752 0
M  V30 10889 H 1040.74 1.5239 -3.48542 0
M  V30 10890 H 1042.06 2.19731 -4.47794 0
M  V30 10891 H 1041.21 4.51441 -4.05322 0
M  V30 10892 H 1039.95 3.87475 -2.96166 0
M  V30 10893 H 1038.95 2.56893 -4.86092 0
M  V30 10894 H 1040.18 3.23894 -5.96883 0
M  V30 10895 H 1038.12 4.85487 -4.41179 0
M  V30 10896 H 1038.04 4.46722 -6.09898 0
M  V30 10897 H 1039.31 5.50516 -5.51863 0
M  V30 10898 N 1043.54 1.5137 0.438746 0
M  V30 10899 C 1044.76 1.68058 1.21537 0
M  V30 10900 C 1045.19 0.376787 1.84288 0
M  V30 10901 O 1044.55 -0.662911 1.68746 0
M  V30 10902 C 1044.59 2.79684 2.27616 0
M  V30 10903 O 1043.7 2.43189 3.33066 0
M  V30 10904 H 1043.04 0.560408 0.356144 0
M  V30 10905 H 1045.57 1.97926 0.518311 0
M  V30 10906 H 1045.58 3.03726 2.72423 0
M  V30 10907 H 1044.25 3.74293 1.81321 0
M  V30 10908 H 1042.83 2.29713 2.93746 0
M  V30 10909 N 1045.02 -0.694098 1.41492 0
M  V30 10910 C 1045.95 -1.82042 1.46229 0
M  V30 10911 C 1046.93 -1.67047 0.320803 0
M  V30 10912 O 1048.11 -1.86758 0.53245 0
M  V30 10913 C 1045.24 -3.2019 1.34519 0
M  V30 10914 C 1044.2 -3.49892 2.46495 0
M  V30 10915 C 1043.52 -4.87411 2.1985 0
M  V30 10916 C 1044.82 -3.4872 3.88834 0
M  V30 10917 H 1046.52 -1.78335 2.40493 0
M  V30 10918 H 1044.06 -0.856566 1.15754 0
M  V30 10919 H 1046.02 -3.98699 1.36445 0
M  V30 10920 H 1044.74 -3.24527 0.367406 0
M  V30 10921 H 1043.4 -2.73734 2.43854 0
M  V30 10922 H 1043.05 -4.88375 1.20411 0
M  V30 10923 H 1042.75 -5.08248 2.94885 0
M  V30 10924 H 1044.27 -5.68228 2.23494 0
M  V30 10925 H 1045.68 -4.1723 3.93182 0
M  V30 10926 H 1044.08 -3.81089 4.63564 0
M  V30 10927 H 1045.15 -2.47665 4.16881 0
M  V30 10928 N 1046.49 -1.27344 -0.928501 0
M  V30 10929 C 1047.72 -1.16557 -1.7155 0
M  V30 10930 C 1048.14 0.274044 -1.86093 0
M  V30 10931 O 1047.5 1.19847 -1.36038 0
M  V30 10932 C 1047.55 -1.85332 -3.09329 0
M  V30 10933 O 1046.65 -1.15074 -3.9602 0
M  V30 10934 H 1046 -0.405423 -0.525859 0
M  V30 10935 H 1048.53 -1.68399 -1.16202 0
M  V30 10936 H 1048.54 -1.92659 -3.59648 0
M  V30 10937 H 1047.21 -2.90056 -2.98061 0
M  V30 10938 H 1045.79 -1.1581 -3.54461 0
M  V30 10939 N 1047.97 1.13488 -1.09353 0
M  V30 10940 C 1048.9 2.20988 -0.75409 0
M  V30 10941 C 1049.88 1.67977 0.267901 0
M  V30 10942 O 1051.07 1.93722 0.136128 0
M  V30 10943 C 1048.2 3.46869 -0.173042 0
M  V30 10944 C 1047.15 4.12965 -1.12446 0
M  V30 10945 C 1046.48 5.33163 -0.405157 0
M  V30 10946 C 1047.78 4.60388 -2.46658 0
M  V30 10947 H 1049.47 2.49639 -1.6529 0
M  V30 10948 H 1047.02 1.19987 -0.796182 0
M  V30 10949 H 1048.97 4.21331 0.0764988 0
M  V30 10950 H 1047.7 3.17611 0.760956 0
M  V30 10951 H 1046.35 3.40469 -1.35927 0
M  V30 10952 H 1046 5.00169 0.532955 0
M  V30 10953 H 1045.7 5.78332 -1.03952 0
M  V30 10954 H 1047.23 6.1038 -0.163899 0
M  V30 10955 H 1048.64 5.26276 -2.27389 0
M  V30 10956 H 1047.04 5.16294 -3.05876 0
M  V30 10957 H 1048.11 3.74949 -3.07476 0
M  V30 10958 N 1049.45 0.880621 1.30701 0
M  V30 10959 C 1050.68 0.510909 2.01009 0
M  V30 10960 C 1051.1 -0.892041 1.65603 0
M  V30 10961 O 1050.46 -1.59045 0.870309 0
M  V30 10962 C 1050.51 0.687759 3.53981 0
M  V30 10963 O 1049.61 -0.268275 4.11526 0
M  V30 10964 H 1048.95 0.201864 0.632572 0
M  V30 10965 H 1051.48 1.18697 1.6665 0
M  V30 10966 H 1051.49 0.585095 4.03783 0
M  V30 10967 H 1050.17 1.71068 3.79089 0
M  V30 10968 H 1048.74 -0.119673 3.72708 0
M  V30 10969 N 1050.93 -1.4397 0.641131 0
M  V30 10970 C 1052.34 -1.85267 0.230838 0
M  V30 10971 C 1052.69 -1.53659 -1.21998 0
M  V30 10972 O 1051.82 -0.979572 -1.92959 0
M  V30 10973 C 1052.41 -3.36284 0.412171 0
M  V30 10974 C 1050.97 -3.76358 0.0563004 0
M  V30 10975 C 1050.12 -2.67768 0.720809 0
M  V30 10976 H 1053.07 -1.34294 0.845624 0
M  V30 10977 H 1053.09 -3.78924 -0.345936 0
M  V30 10978 H 1052.6 -3.59258 1.46818 0
M  V30 10979 H 1050.7 -3.58997 -0.997582 0
M  V30 10980 H 1050.82 -4.76756 0.473335 0
M  V30 10981 H 1049.18 -2.54227 0.155164 0
M  V30 10982 H 1049.96 -2.93573 1.77961 0
M  V30 10983 N 1052.41 -0.382291 -1.52893 0
M  V30 10984 C 1053.66 0.201734 -2.01091 0
M  V30 10985 C 1053.98 1.47905 -1.2708 0
M  V30 10986 O 1053.25 1.92002 -0.38883 0
M  V30 10987 H 1051.83 0.0775373 -0.742965 0
M  V30 10988 H 1054.49 -0.512369 -1.88045 0
M  V30 10989 H 1053.58 0.416919 -3.09303 0
M  V30 10990 N 1053.89 1.57202 -0.111913 0
M  V30 10991 C 1054.83 2.14936 0.840908 0
M  V30 10992 C 1055.8 1.07242 1.2684 0
M  V30 10993 O 1056.99 1.35114 1.34718 0
M  V30 10994 C 1054.13 2.74743 2.0883 0
M  V30 10995 C 1053.24 3.96723 1.70982 0
M  V30 10996 C 1052.38 4.4464 2.90634 0
M  V30 10997 C 1051.41 5.59169 2.48992 0
M  V30 10998 N 1050.55 6.01862 3.61534 0
M  V30 10999 H 1055.39 2.96034 0.341735 0
M  V30 11000 H 1052.93 1.4626 0.156993 0
M  V30 11001 H 1054.89 3.07546 2.81907 0
M  V30 11002 H 1053.52 1.96346 2.56218 0
M  V30 11003 H 1052.57 3.70127 0.878072 0
M  V30 11004 H 1053.88 4.79795 1.36373 0
M  V30 11005 H 1053.03 4.79315 3.71944 0
M  V30 11006 H 1051.77 3.60503 3.28464 0
M  V30 11007 H 1050.78 5.24106 1.66113 0
M  V30 11008 H 1052 6.45067 2.12287 0
M  V30 11009 H 1049.95 5.20667 3.99051 0
M  V30 11010 H 1049.87 6.79772 3.30827 0
M  V30 11011 H 1051.13 6.41172 4.43305 0
M  V30 11012 N 1055.36 -0.161842 1.56767 0
M  V30 11013 C 1056.64 -0.904754 1.73417 0
M  V30 11014 C 1057.02 -1.99987 0.675908 0
M  V30 11015 O 1056.37 -2.26419 -0.307712 0
M  V30 11016 C 1056.58 -1.46082 3.16956 0
M  V30 11017 C 1057.93 -1.93004 3.78199 0
M  V30 11018 O 1058.95 -1.55856 3.20293 0
M  V30 11019 O 1057.81 -2.61465 4.79894 0
M  V30 11020 H 1054.9 -0.426518 0.708528 0
M  V30 11021 H 1057.45 -0.148928 1.69045 0
M  V30 11022 H 1056.22 -0.673087 3.85468 0
M  V30 11023 H 1055.84 -2.28056 3.25693 0
M  V30 11024 N 1056.84 -1.516 -0.430713 0
M  V30 11025 C 1058.09 -1.63829 -1.17657 0
M  V30 11026 C 1058.4 -0.363605 -1.92191 0
M  V30 11027 O 1059.61 -0.365358 -2.6903 0
M  V30 11028 C 1058.07 -2.89357 -2.14011 0
M  V30 11029 C 1057.67 -4.23854 -1.45094 0
M  V30 11030 C 1059.42 -3.10944 -2.88988 0
M  V30 11031 C 1057.32 -5.40526 -2.3997 0
M  V30 11032 H 1056.25 -0.610221 -0.442884 0
M  V30 11033 H 1058.91 -1.78073 -0.442984 0
M  V30 11034 H 1057.29 -2.68762 -2.90832 0
M  V30 11035 H 1058.46 -4.54854 -0.737853 0
M  V30 11036 H 1056.78 -4.08197 -0.822429 0
M  V30 11037 H 1059.37 -3.95286 -3.60074 0
M  V30 11038 H 1059.72 -2.24291 -3.50712 0
M  V30 11039 H 1060.25 -3.3191 -2.19272 0
M  V30 11040 H 1056.99 -6.29459 -1.82925 0
M  V30 11041 H 1056.51 -5.13893 -3.09313 0
M  V30 11042 H 1058.19 -5.72741 -3.00959 0
M  V30 11043 N 1058.32 0.686584 -1.41858 0
M  V30 11044 C 1059.6 1.44176 -1.32185 0
M  V30 11045 C 1059.98 2.11049 0.046362 0
M  V30 11046 O 1059.32 2.02365 1.06117 0
M  V30 11047 C 1059.53 2.45385 -2.48168 0
M  V30 11048 C 1060.88 3.10375 -2.89746 0
M  V30 11049 O 1061.91 2.55711 -2.47973 0
M  V30 11050 O 1060.77 4.09404 -3.62009 0
M  V30 11051 H 1057.86 0.642513 -0.520678 0
M  V30 11052 H 1060.41 0.716303 -1.53841 0
M  V30 11053 H 1059.18 1.94687 -3.3943 0
M  V30 11054 H 1058.8 3.25428 -2.28435 0
M  V30 11055 N 1059.8 1.27835 0.921735 0
M  V30 11056 C 1061.07 1.05238 1.64877 0
M  V30 11057 C 1061.45 -0.410921 2.07062 0
M  V30 11058 O 1060.8 -1.39538 1.80946 0
M  V30 11059 C 1061.01 2.01955 2.84632 0
M  V30 11060 C 1062.36 2.31657 3.55837 0
M  V30 11061 O 1063.38 1.99975 2.94768 0
M  V30 11062 O 1062.24 2.85692 4.65878 0
M  V30 11063 H 1059.34 0.401622 0.72293 0
M  V30 11064 H 1061.88 1.39123 0.971744 0
M  V30 11065 H 1060.66 3.00614 2.50494 0
M  V30 11066 H 1060.28 1.68667 3.60052 0
M  V30 11067 N 1061.28 -1.12907 1.09954 0
M  V30 11068 C 1062.55 -1.80602 0.751148 0
M  V30 11069 C 1062.93 -1.96826 -0.763077 0
M  V30 11070 O 1062.28 -1.54066 -1.68749 0
M  V30 11071 C 1062.49 -3.15289 1.49646 0
M  V30 11072 C 1063.84 -3.9056 1.66578 0
M  V30 11073 O 1064.86 -3.24929 1.45943 0
M  V30 11074 O 1063.72 -5.08292 2.00752 0
M  V30 11075 H 1060.82 -0.781529 0.270446 0
M  V30 11076 H 1063.36 -1.19786 1.20206 0
M  V30 11077 H 1062.13 -2.9874 2.52725 0
M  V30 11078 H 1061.76 -3.83809 1.03808 0
M  V30 11079 N 1062.75 -0.88754 -1.30232 0
M  V30 11080 C 1064.03 -0.427249 -1.90877 0
M  V30 11081 C 1064.41 1.0922 -1.80649 0
M  V30 11082 O 1063.76 1.92866 -1.22536 0
M  V30 11083 C 1063.97 -0.928219 -3.3643 0
M  V30 11084 C 1065.32 -0.964706 -4.13496 0
M  V30 11085 O 1066.34 -0.875057 -3.45284 0
M  V30 11086 O 1065.2 -1.09754 -5.35366 0
M  V30 11087 H 1062.29 -0.131107 -0.816541 0
M  V30 11088 H 1064.84 -0.976609 -1.38782 0
M  V30 11089 H 1063.61 -1.97209 -3.37971 0
M  V30 11090 H 1063.23 -0.358169 -3.95983 0
M  V30 11091 N 1064.23 1.43628 -0.648757 0
M  V30 11092 C 1065.51 1.95391 -0.0904551 0
M  V30 11093 C 1065.89 1.59021 1.38837 0
M  V30 11094 O 1065.24 0.873078 2.11163 0
M  V30 11095 C 1065.45 3.47418 -0.33196 0
M  V30 11096 C 1066.8 4.23952 -0.234521 0
M  V30 11097 O 1067.82 3.55218 -0.264276 0
M  V30 11098 O 1066.68 5.46282 -0.154428 0
M  V30 11099 H 1063.77 0.82691 0.0121884 0
M  V30 11100 H 1066.32 1.5359 -0.721685 0
M  V30 11101 H 1065.09 3.67001 -1.35741 0
M  V30 11102 H 1064.71 3.96207 0.332556 0
M  V30 11103 N 1065.71 0.390394 1.52688 0
M  V30 11104 C 1066.99 -0.249068 1.94008 0
M  V30 11105 C 1067.37 -1.64263 1.32593 0
M  V30 11106 O 1066.72 -2.23086 0.494448 0
M  V30 11107 C 1066.93 -0.274318 3.4792 0
M  V30 11108 C 1068.27 -0.502743 4.21613 0
M  V30 11109 O 1069.3 -0.35448 3.54432 0
M  V30 11110 O 1068.16 -0.79334 5.40711 0
M  V30 11111 H 1065.25 -0.155116 0.812323 0
M  V30 11112 H 1067.8 0.44498 1.63762 0
M  V30 11113 H 1066.57 0.701766 3.84956 0
M  V30 11114 H 1066.19 -1.01324 3.84473 0
M  V30 11115 N 1067.19 -1.57141 0.120249 0
M  V30 11116 C 1068.47 -1.8677 -0.581075 0
M  V30 11117 C 1068.85 -1.02163 -1.84732 0
M  V30 11118 O 1068.19 -0.100897 -2.28277 0
M  V30 11119 C 1068.4 -3.37923 -0.872316 0
M  V30 11120 C 1069.75 -4.0655 -1.22483 0
M  V30 11121 O 1070.78 -3.42948 -0.962539 0
M  V30 11122 O 1069.63 -5.18821 -1.71717 0
M  V30 11123 H 1066.73 -0.773219 -0.293362 0
M  V30 11124 H 1069.27 -1.68992 0.154846 0
M  V30 11125 H 1068.05 -3.91292 0.0249416 0
M  V30 11126 H 1067.67 -3.61135 -1.66335 0
M  V30 11127 N 1068.67 0.153526 -1.5685 0
M  V30 11128 C 1069.94 0.895545 -1.73895 0
M  V30 11129 C 1070.32 1.99625 -0.686504 0
M  V30 11130 O 1069.67 2.26579 0.2957 0
M  V30 11131 C 1069.88 1.44399 -3.17726 0
M  V30 11132 C 1071.23 1.90996 -3.79217 0
M  V30 11133 O 1072.25 1.54155 -3.21115 0
M  V30 11134 O 1071.11 2.58917 -4.81274 0
M  V30 11135 H 1068.21 0.422755 -0.710779 0
M  V30 11136 H 1070.75 0.139961 -1.69122 0
M  V30 11137 H 1069.52 0.652635 -3.85819 0
M  V30 11138 H 1069.15 2.26326 -3.26898 0
M  V30 11139 N 1070.14 1.51827 0.422667 0
M  V30 11140 C 1071.42 1.55772 1.18299 0
M  V30 11141 C 1071.8 0.330657 2.08494 0
M  V30 11142 O 1071.15 -0.683373 2.18042 0
M  V30 11143 C 1071.36 2.87941 1.97208 0
M  V30 11144 C 1072.71 3.4044 2.53744 0
M  V30 11145 O 1073.73 2.8959 2.07403 0
M  V30 11146 O 1072.59 4.29201 3.38303 0
M  V30 11147 H 1069.68 0.626889 0.539388 0
M  V30 11148 H 1072.23 1.64147 0.430545 0
M  V30 11149 H 1071 3.68702 1.31052 0
M  V30 11150 H 1070.63 2.82795 2.79486 0
M  V30 11151 N 1071.62 -0.679052 1.4222 0
M  V30 11152 C 1072.9 -1.43473 1.32947 0
M  V30 11153 C 1073.28 -2.11071 -0.0351689 0
M  V30 11154 O 1072.63 -2.02925 -1.05042 0
M  V30 11155 C 1072.84 -2.44065 2.49466 0
M  V30 11156 C 1074.19 -3.08834 2.91387 0
M  V30 11157 O 1075.21 -2.54392 2.49325 0
M  V30 11158 O 1074.07 -4.07478 3.64175 0
M  V30 11159 H 1071.16 -0.639743 0.524078 0
M  V30 11160 H 1073.71 -0.708134 1.54219 0
M  V30 11161 H 1072.48 -1.92884 3.40457 0
M  V30 11162 H 1072.1 -3.24212 2.30158 0
M  V30 11163 O 1073.14 -1.39044 -0.821532 0
M  V30 11164 H 1073.83 -1.2672 -1.46498 0
M  V30 END ATOM
M  V30 BEGIN BOND
M  V30 END BOND
M  V30 END CTAB
M  END
$$$$
