drugbank_drug|DB09036 Heavy Chain Sequence
 OpenBabel12092119123D

  0  0  0     0  0            999 V3000
M  V30 BEGIN CTAB
M  V30 COUNTS 6878 6974 0 0 0
M  V30 BEGIN ATOM
M  V30 1 H -0.908 1.98254 -0.117106 0
M  V30 2 N 0 1.576 0 0
M  V30 3 C 0.91 2.11853 1.00774 0
M  V30 4 C 1.926 1.06379 1.37693 0
M  V30 5 O 3.102 1.3828 1.46426 0
M  V30 6 C 0.167 2.61108 2.28087 0
M  V30 7 C -0.772 3.81183 1.9748 0
M  V30 8 C -1.539 4.28079 3.18723 0
M  V30 9 O -1.316 3.74307 4.30407 0
M  V30 10 O -2.382 5.20234 3.02721 0
M  V30 11 H 1.444 2.98177 0.576547 0
M  V30 12 H -0.971 1.47789 0.218828 0
M  V30 13 H 0.911 2.92987 3.0288 0
M  V30 14 H -0.414 1.77881 2.70444 0
M  V30 15 H -1.507 3.54277 1.20162 0
M  V30 16 H -0.174 4.65482 1.5996 0
M  V30 17 N 1.4781 -0.272755 1.55222 0
M  V30 18 C 2.7241 -1.00581 1.761 0
M  V30 19 C 3.0571 -1.85932 0.560625 0
M  V30 20 O 2.3321 -1.89416 -0.441801 0
M  V30 21 C 2.6151 -1.88816 3.06628 0
M  V30 22 C 2.4681 -1.06457 4.37021 0
M  V30 23 C 3.7871 -2.8752 3.33197 0
M  V30 24 H 0.9061 -0.364244 0.640699 0
M  V30 25 H 3.5481 -0.278189 1.87952 0
M  V30 26 H 1.6981 -2.50856 2.96654 0
M  V30 27 H 3.3701 -0.464863 4.58952 0
M  V30 28 H 1.6131 -0.368043 4.32236 0
M  V30 29 H 2.2841 -1.71514 5.24678 0
M  V30 30 H 4.7601 -2.35615 3.42965 0
M  V30 31 H 3.6361 -3.46399 4.25792 0
M  V30 32 H 3.8971 -3.62657 2.52849 0
M  V30 33 N 2.9562 -1.48159 -0.537278 0
M  V30 34 C 3.8882 -1.58218 -1.65831 0
M  V30 35 C 4.9012 -0.466948 -1.5596 0
M  V30 36 O 6.0902 -0.73747 -1.62553 0
M  V30 37 C 3.1902 -1.48906 -3.04434 0
M  V30 38 C 2.3632 -2.75343 -3.3986 0
M  V30 39 C 1.4222 -2.59588 -4.57712 0
M  V30 40 O 0.4482 -3.33457 -4.61297 0
M  V30 41 N 1.6502 -1.68724 -5.55439 0
M  V30 42 H 4.4152 -2.54891 -1.57641 0
M  V30 43 H 1.9762 -1.4479 -0.724386 0
M  V30 44 H 3.9682 -1.36072 -3.81139 0
M  V30 45 H 2.5382 -0.602368 -3.06741 0
M  V30 46 H 1.7582 -3.02795 -2.52406 0
M  V30 47 H 3.0462 -3.5924 -3.60311 0
M  V30 48 H 2.4442 -1.07898 -5.55315 0
M  V30 49 H 1.0012 -1.61832 -6.3139 0
M  V30 50 N 4.4343 0.785586 -1.36625 0
M  V30 51 C 5.3643 1.91259 -1.33949 0
M  V30 52 C 6.3453 1.68795 -0.210325 0
M  V30 53 O 7.5303 1.89854 -0.408561 0
M  V30 54 C 4.6603 3.28339 -1.13186 0
M  V30 55 C 3.6143 3.65335 -2.22967 0
M  V30 56 C 2.9403 5.00806 -1.87342 0
M  V30 57 C 4.2403 3.7352 -3.65075 0
M  V30 58 H 5.9343 1.93755 -2.28253 0
M  V30 59 H 3.4803 0.930788 -1.09874 0
M  V30 60 H 5.4333 4.06804 -1.09948 0
M  V30 61 H 4.1573 3.2624 -0.153332 0
M  V30 62 H 2.8163 2.89169 -2.25337 0
M  V30 63 H 2.4643 4.95233 -0.880545 0
M  V30 64 H 2.1643 5.26529 -2.60846 0
M  V30 65 H 3.6883 5.81687 -1.85667 0
M  V30 66 H 5.1023 4.42168 -3.64911 0
M  V30 67 H 3.4993 4.10731 -4.37516 0
M  V30 68 H 4.5693 2.74527 -3.99703 0
M  V30 69 N 5.9124 1.20967 1.01018 0
M  V30 70 C 7.1584 1.02526 1.74975 0
M  V30 71 C 7.4914 -0.4408 1.89131 0
M  V30 72 O 6.7664 -1.32718 1.42184 0
M  V30 73 C 7.0494 1.71699 3.1653 0
M  V30 74 C 6.9024 3.25791 3.10129 0
M  V30 75 C 8.2214 1.45531 4.15342 0
M  V30 76 H 5.3404 0.373863 0.635134 0
M  V30 77 H 7.9824 1.49071 1.17805 0
M  V30 78 H 6.1324 1.32128 3.65341 0
M  V30 79 H 7.8044 3.74697 2.69072 0
M  V30 80 H 6.0474 3.56363 2.47362 0
M  V30 81 H 6.7184 3.69353 4.10222 0
M  V30 82 H 9.1944 1.79872 3.75213 0
M  V30 83 H 8.0704 1.96453 5.1254 0
M  V30 84 H 8.3314 0.384237 4.40427 0
M  V30 85 N 7.3905 -1.2043 1.01659 0
M  V30 86 C 8.3005 -2.2689 0.596484 0
M  V30 87 C 9.3165 -1.70107 -0.36599 0
M  V30 88 O 10.4925 -2.00117 -0.226942 0
M  V30 89 C 7.5575 -3.4665 -0.0586659 0
M  V30 90 C 6.6185 -4.18662 0.949751 0
M  V30 91 C 5.8515 -5.32705 0.32577 0
M  V30 92 O 6.0745 -5.63656 -0.874509 0
M  V30 93 O 5.0085 -5.92803 1.04249 0
M  V30 94 H 8.8345 -2.65041 1.4828 0
M  V30 95 H 6.4195 -1.27048 0.786082 0
M  V30 96 H 8.3015 -4.19256 -0.424564 0
M  V30 97 H 6.9765 -3.10375 -0.91918 0
M  V30 98 H 5.8835 -3.48229 1.36702 0
M  V30 99 H 7.2165 -4.58878 1.78023 0
M  V30 100 N 8.8686 -0.792821 -1.36206 0
M  V30 101 C 10.0936 -0.377701 -2.03932 0
M  V30 102 C 10.5186 0.998947 -1.59382 0
M  V30 103 O 9.8766 1.64421 -0.763903 0
M  V30 104 C 9.9246 -0.453635 -3.57735 0
M  V30 105 O 9.0286 0.538151 -4.08874 0
M  V30 106 H 8.3696 -0.159855 -0.644471 0
M  V30 107 H 10.8996 -1.07488 -1.7409 0
M  V30 108 H 10.9096 -0.318464 -4.06755 0
M  V30 109 H 9.5846 -1.45784 -3.89512 0
M  V30 110 H 8.1616 0.364359 -3.71116 0
M  V30 111 N 10.3467 1.47872 -0.545128 0
M  V30 112 C 11.5947 2.02093 -0.016553 0
M  V30 113 C 11.9157 1.42305 1.3332 0
M  V30 114 O 11.1857 0.593853 1.86682 0
M  V30 115 H 9.7657 0.746993 -0.00313038 0
M  V30 116 H 12.4277 1.81414 -0.712397 0
M  V30 117 H 11.5237 3.11996 0.0805422 0
M  V30 118 N 11.8248 0.280983 1.55075 0
M  V30 119 C 13.0728 -0.333455 1.9933 0
M  V30 120 C 13.3938 -1.55937 1.17085 0
M  V30 121 O 12.6638 -1.94143 0.261805 0
M  V30 122 H 11.2438 -0.126197 0.736263 0
M  V30 123 H 13.9058 0.387678 1.91005 0
M  V30 124 H 13.0018 -0.619292 3.05894 0
M  V30 125 N 13.3029 -1.57598 0.00835791 0
M  V30 126 C 14.2499 -2.08945 -0.980346 0
M  V30 127 C 15.2199 -0.986738 -1.33614 0
M  V30 128 O 16.4049 -1.25968 -1.43306 0
M  V30 129 C 13.5449 -2.60425 -2.26435 0
M  V30 130 C 12.6579 -3.84628 -1.96685 0
M  V30 131 C 11.7929 -4.24579 -3.19228 0
M  V30 132 C 10.8319 -5.41596 -2.85202 0
M  V30 133 N 9.9689 -5.768 -4.00307 0
M  V30 134 H 14.8089 -2.93148 -0.535551 0
M  V30 135 H 12.3459 -1.44912 -0.252776 0
M  V30 136 H 14.3039 -2.88354 -3.01509 0
M  V30 137 H 12.9339 -1.79083 -2.68568 0
M  V30 138 H 11.9859 -3.63556 -1.11942 0
M  V30 139 H 13.2979 -4.69796 -1.67611 0
M  V30 140 H 12.4519 -4.53834 -4.02641 0
M  V30 141 H 11.1909 -3.38137 -3.51447 0
M  V30 142 H 10.1959 -5.12056 -2.00198 0
M  V30 143 H 11.4209 -6.29721 -2.54222 0
M  V30 144 H 9.3669 -4.93316 -4.32407 0
M  V30 145 H 9.2839 -6.5656 -3.74786 0
M  V30 146 H 10.5519 -6.10652 -4.84484 0
M  V30 147 N 14.781 0.264519 -1.55364 0
M  V30 148 C 15.711 1.33121 -1.91836 0
M  V30 149 C 16.692 1.51101 -0.781192 0
M  V30 150 O 17.877 1.64003 -1.04003 0
M  V30 151 C 15.007 2.68921 -2.19769 0
M  V30 152 C 13.961 2.65661 -3.35571 0
M  V30 153 C 13.287 4.05093 -3.49004 0
M  V30 154 C 14.587 2.24187 -4.71739 0
M  V30 155 H 16.281 1.02844 -2.81182 0
M  V30 156 H 13.827 0.493286 -1.35287 0
M  V30 157 H 15.78 3.43663 -2.43872 0
M  V30 158 H 14.504 3.00799 -1.27231 0
M  V30 159 H 13.163 1.93377 -3.1145 0
M  V30 160 H 12.811 4.34206 -2.53917 0
M  V30 161 H 12.511 4.03804 -4.26868 0
M  V30 162 H 14.035 4.81561 -3.75408 0
M  V30 163 H 15.449 2.88654 -4.9533 0
M  V30 164 H 13.846 2.34044 -5.52579 0
M  V30 165 H 14.916 1.19327 -4.69988 0
M  V30 166 N 16.2591 1.48442 0.529413 0
M  V30 167 C 17.1891 1.65902 1.64313 0
M  V30 168 C 18.1701 0.507897 1.6234 0
M  V30 169 O 19.3551 0.740503 1.79528 0
M  V30 170 C 16.4851 1.69911 3.02898 0
M  V30 171 C 15.4391 2.8453 3.19729 0
M  V30 172 C 14.7651 2.73629 4.59381 0
M  V30 173 C 16.0651 4.25821 3.02447 0
M  V30 174 H 17.7591 2.5914 1.49955 0
M  V30 175 H 15.3051 1.24709 0.719982 0
M  V30 176 H 17.2581 1.80715 3.80684 0
M  V30 177 H 15.9821 0.732524 3.18279 0
M  V30 178 H 14.6411 2.73283 2.44361 0
M  V30 179 H 14.2891 1.74938 4.71599 0
M  V30 180 H 13.9891 3.50541 4.71588 0
M  V30 181 H 15.5131 2.86401 5.39265 0
M  V30 182 H 16.9271 4.37898 3.70024 0
M  V30 183 H 15.3241 5.03735 3.26146 0
M  V30 184 H 16.3941 4.42244 1.98867 0
M  V30 185 N 17.7372 -0.778329 1.37039 0
M  V30 186 C 18.6842 -1.89139 1.32269 0
M  V30 187 C 19.6542 -1.65017 0.189387 0
M  V30 188 O 20.8392 -1.87024 0.377693 0
M  V30 189 C 17.9792 -3.26112 1.12894 0
M  V30 190 C 17.0922 -3.62233 2.35396 0
M  V30 191 C 16.2272 -4.8838 2.08946 0
M  V30 192 C 15.2662 -5.17212 3.2735 0
M  V30 193 N 14.4032 -6.34546 3.00492 0
M  V30 194 H 19.2432 -1.92552 2.27437 0
M  V30 195 H 16.7802 -0.941473 1.13025 0
M  V30 196 H 18.7382 -4.05116 0.996835 0
M  V30 197 H 17.3682 -3.22091 0.213758 0
M  V30 198 H 16.4202 -2.78265 2.5937 0
M  V30 199 H 17.7322 -3.79481 3.23721 0
M  V30 200 H 16.8862 -5.75274 1.92729 0
M  V30 201 H 15.6252 -4.73222 1.17949 0
M  V30 202 H 14.6302 -4.28796 3.44113 0
M  V30 203 H 15.8552 -5.34283 4.19188 0
M  V30 204 H 13.8012 -6.20759 2.12118 0
M  V30 205 H 13.7182 -6.52179 3.82358 0
M  V30 206 H 14.9862 -7.24394 2.87879 0
M  V30 207 N 19.2153 -1.21501 -1.00376 0
M  V30 208 C 20.6263 -1.03146 -1.55621 0
M  V30 209 C 20.9773 0.408375 -1.91903 0
M  V30 210 O 20.1023 1.29177 -1.73616 0
M  V30 211 C 20.6973 -1.86612 -2.82775 0
M  V30 212 C 19.2563 -1.72586 -3.34501 0
M  V30 213 C 18.4033 -1.83747 -2.07683 0
M  V30 214 H 21.3543 -1.35505 -0.826081 0
M  V30 215 H 21.3753 -1.3771 -3.54706 0
M  V30 216 H 20.8873 -2.91399 -2.56336 0
M  V30 217 H 18.9883 -0.704877 -3.65872 0
M  V30 218 H 19.1013 -2.54623 -4.05837 0
M  V30 219 H 17.4653 -1.27069 -2.20739 0
M  V30 220 H 18.2483 -2.90044 -1.83655 0
M  V30 221 N 20.6934 1.19889 -1.02296 0
M  V30 222 C 21.9414 1.89046 -0.714558 0
M  V30 223 C 22.2624 1.79636 0.758681 0
M  V30 224 O 21.5324 1.20292 1.54618 0
M  V30 225 H 20.1124 0.699802 -0.261317 0
M  V30 226 H 22.7744 1.45574 -1.29592 0
M  V30 227 H 21.8704 2.95524 -1.0036 0
M  V30 228 N 22.1715 0.800033 1.35784 0
M  V30 229 C 23.4195 0.376597 1.9856 0
M  V30 230 C 23.7405 -1.05812 1.63795 0
M  V30 231 O 23.0105 -1.73103 0.917171 0
M  V30 232 H 21.5905 0.136261 0.734467 0
M  V30 233 H 24.2525 1.02442 1.65806 0
M  V30 234 H 23.3485 0.477002 3.08433 0
M  V30 235 N 23.6496 -1.47581 0.552962 0
M  V30 236 C 24.8746 -2.07378 0.0300593 0
M  V30 237 C 25.2996 -1.40355 -1.25229 0
M  V30 238 O 24.6576 -0.477099 -1.7491 0
M  V30 239 C 24.7056 -3.60274 -0.153231 0
M  V30 240 O 23.8096 -3.94041 -1.21678 0
M  V30 241 H 23.1506 -0.662158 0.0494182 0
M  V30 242 H 25.6806 -1.89662 0.767434 0
M  V30 243 H 25.6906 -4.0633 -0.368761 0
M  V30 244 H 24.3656 -4.08455 0.783397 0
M  V30 245 H 22.9426 -3.59735 -0.982079 0
M  V30 246 N 25.1277 -0.289203 -1.54924 0
M  V30 247 C 26.0577 0.58549 -2.2604 0
M  V30 248 C 27.0387 1.14753 -1.25562 0
M  V30 249 O 28.2237 1.17906 -1.54311 0
M  V30 250 C 25.3537 1.76305 -2.99222 0
M  V30 251 C 24.3077 1.33191 -4.06748 0
M  V30 252 C 23.6337 2.5937 -4.6758 0
M  V30 253 C 24.9337 0.471775 -5.20165 0
M  V30 254 H 26.6277 -0.00763532 -2.99399 0
M  V30 255 H 24.1737 -0.00511229 -1.43999 0
M  V30 256 H 26.1267 2.38097 -3.47689 0
M  V30 257 H 24.8507 2.38223 -2.23422 0
M  V30 258 H 23.5097 0.737121 -3.59113 0
M  V30 259 H 23.1577 3.19576 -3.88433 0
M  V30 260 H 22.8577 2.31228 -5.40192 0
M  V30 261 H 24.3817 3.21985 -5.18804 0
M  V30 262 H 25.7957 0.995056 -5.64599 0
M  V30 263 H 24.1927 0.284639 -5.99425 0
M  V30 264 H 25.2627 -0.506041 -4.82252 0
M  V30 265 N 26.6058 1.57591 -0.0167156 0
M  V30 266 C 27.5528 2.09462 0.969251 0
M  V30 267 C 28.5228 0.99381 1.33089 0
M  V30 268 O 29.7078 1.26726 1.42636 0
M  V30 269 C 26.8478 2.61622 2.25051 0
M  V30 270 C 25.9608 3.85666 1.94642 0
M  V30 271 C 25.0958 4.26266 3.16972 0
M  V30 272 C 24.1348 5.43101 2.82326 0
M  V30 273 N 23.2718 5.78915 3.97243 0
M  V30 274 H 28.1118 2.93428 0.519997 0
M  V30 275 H 25.6488 1.45044 0.245087 0
M  V30 276 H 27.6068 2.89949 2.99976 0
M  V30 277 H 26.2368 1.80505 2.67615 0
M  V30 278 H 25.2888 3.64145 1.10013 0
M  V30 279 H 26.6008 4.70678 1.65117 0
M  V30 280 H 25.7548 4.55963 4.00228 0
M  V30 281 H 24.4938 3.39996 3.49648 0
M  V30 282 H 23.4988 5.1311 1.97479 0
M  V30 283 H 24.7238 6.3106 2.50879 0
M  V30 284 H 22.6698 4.95602 4.29785 0
M  V30 285 H 22.5868 6.58539 3.71299 0
M  V30 286 H 23.8548 6.13212 4.81239 0
M  V30 287 N 28.0839 -0.256276 1.55502 0
M  V30 288 C 29.0139 -1.32102 1.92539 0
M  V30 289 C 29.9949 -1.50684 0.789194 0
M  V30 290 O 31.1799 -1.63449 1.04872 0
M  V30 291 C 28.3099 -2.67752 2.21192 0
M  V30 292 C 27.2639 -2.63878 3.36975 0
M  V30 293 C 26.5899 -4.03236 3.51147 0
M  V30 294 C 27.8899 -2.21682 4.72921 0
M  V30 295 H 29.5839 -1.01351 2.81724 0
M  V30 296 H 27.1299 -0.486105 1.35547 0
M  V30 297 H 29.0829 -3.42365 2.45691 0
M  V30 298 H 27.8069 -3.0012 1.28824 0
M  V30 299 H 26.4659 -1.91722 3.12471 0
M  V30 300 H 26.1139 -4.32854 2.56216 0
M  V30 301 H 25.8139 -4.01535 4.29003 0
M  V30 302 H 27.3379 -4.79563 3.77957 0
M  V30 303 H 28.7519 -2.86023 4.96854 0
M  V30 304 H 27.1489 -2.3111 5.53812 0
M  V30 305 H 28.2189 -1.16833 4.70615 0
M  V30 306 N 29.562 -1.4872 -0.521534 0
M  V30 307 C 30.787 -1.61101 -1.30618 0
M  V30 308 C 31.212 -0.274611 -1.86085 0
M  V30 309 O 30.57 0.754937 -1.64834 0
M  V30 310 C 30.618 -2.66709 -2.4269 0
M  V30 311 O 29.722 -2.24456 -3.45967 0
M  V30 312 H 29.063 -0.539921 -0.386499 0
M  V30 313 H 31.593 -1.94767 -0.626645 0
M  V30 314 H 31.603 -2.88245 -2.88754 0
M  V30 315 H 30.278 -3.63727 -2.01682 0
M  V30 316 H 28.855 -2.13168 -3.05964 0
M  V30 317 N 31.0401 0.771051 -1.3745 0
M  V30 318 C 32.2801 1.54264 -1.34096 0
M  V30 319 C 32.6441 1.91858 0.0737639 0
M  V30 320 O 33.8451 2.67797 0.23203 0
M  V30 321 C 32.1161 2.77326 -2.25445 0
M  V30 322 S 33.6751 3.67383 -2.39948 0
M  V30 323 H 30.4931 0.528122 -0.476034 0
M  V30 324 H 33.0951 0.906633 -1.73206 0
M  V30 325 H 31.7991 2.47788 -3.27153 0
M  V30 326 H 31.3301 3.45886 -1.87421 0
M  V30 327 H 33.3451 4.69334 -1.61059 0
M  V30 328 N 32.5182 1.22032 0.997298 0
M  V30 329 C 33.4812 0.987909 2.06816 0
M  V30 330 C 34.4812 -0.0440084 1.6074 0
M  V30 331 O 35.6712 0.194053 1.73116 0
M  V30 332 C 32.8032 0.49132 3.37341 0
M  V30 333 H 33.9962 1.93803 2.28868 0
M  V30 334 H 31.5492 1.03838 1.16822 0
M  V30 335 H 32.2842 -0.463364 3.20973 0
M  V30 336 H 32.0692 1.23575 3.72118 0
M  V30 337 H 33.5592 0.348824 4.16141 0
M  V30 338 N 33.9963 -1.19345 1.0293 0
M  V30 339 C 34.9593 -2.20793 0.615069 0
M  V30 340 C 35.9593 -1.57553 -0.321533 0
M  V30 341 O 37.1493 -1.73862 -0.108483 0
M  V30 342 C 34.2813 -3.40754 -0.0999222 0
M  V30 343 H 35.4743 -2.58955 1.51269 0
M  V30 344 H 33.0273 -1.3303 0.820534 0
M  V30 345 H 33.7623 -3.0811 -1.01187 0
M  V30 346 H 33.5473 -3.87889 0.57309 0
M  V30 347 H 35.0373 -4.15898 -0.376645 0
M  V30 348 N 35.4744 -0.807222 -1.35358 0
M  V30 349 C 36.6994 -0.399309 -2.0352 0
M  V30 350 C 37.1244 0.981986 -1.60433 0
M  V30 351 O 36.4824 1.63601 -0.781299 0
M  V30 352 C 36.5304 -0.491552 -3.57234 0
M  V30 353 O 35.6344 0.494754 -4.09421 0
M  V30 354 H 34.9754 -0.166682 -0.642739 0
M  V30 355 H 37.5054 -1.09328 -1.72941 0
M  V30 356 H 37.5154 -0.361588 -4.06395 0
M  V30 357 H 36.1904 -1.49907 -3.87944 0
M  V30 358 H 34.7674 0.324977 -3.71481 0
M  V30 359 N 36.9525 1.47285 -0.560781 0
M  V30 360 C 38.2005 2.02064 -0.0379868 0
M  V30 361 C 38.5215 1.43711 1.31803 0
M  V30 362 O 37.7915 0.61362 1.86042 0
M  V30 363 H 36.3715 0.746918 -0.0110531 0
M  V30 364 H 39.0335 1.80648 -0.731598 0
M  V30 365 H 38.1295 3.12064 0.0474463 0
M  V30 366 N 38.4306 0.297415 1.54768 0
M  V30 367 C 39.6776 -0.312913 2.00068 0
M  V30 368 C 40.0056 -1.54171 1.18582 0
M  V30 369 O 39.2606 -1.94108 0.249133 0
M  V30 370 C 39.5596 -0.717561 3.50123 0
M  V30 371 C 39.2256 0.409095 4.4904 0
M  V30 372 C 37.8876 0.718399 4.75807 0
M  V30 373 C 40.2396 1.16717 5.07963 0
M  V30 374 C 37.5676 1.78896 5.5876 0
M  V30 375 C 39.9196 2.22762 5.92081 0
M  V30 376 C 38.5836 2.54303 6.1716 0
M  V30 377 H 37.8536 -0.114503 0.7321 0
M  V30 378 H 40.5006 0.415767 1.86932 0
M  V30 379 H 38.8056 -1.52627 3.60849 0
M  V30 380 H 40.5026 -1.20091 3.82595 0
M  V30 381 H 37.0926 0.157918 4.28309 0
M  V30 382 H 41.2766 0.941466 4.87289 0
M  V30 383 H 36.5326 2.0381 5.7643 0
M  V30 384 H 40.7066 2.81962 6.36765 0
M  V30 385 H 38.3336 3.3739 6.81229 0
M  V30 386 N 39.9087 -1.5758 0.0250728 0
M  V30 387 C 41.1367 -1.9593 -0.664747 0
M  V30 388 C 41.5517 -0.901352 -1.65895 0
M  V30 389 O 40.9087 0.117255 -1.82123 0
M  V30 390 C 40.9597 -3.34342 -1.37468 0
M  V30 391 O 40.6807 -4.36079 -0.420324 0
M  V30 392 C 42.1817 -3.873 -2.1567 0
M  V30 393 H 39.4017 -0.645405 -0.183557 0
M  V30 394 H 41.9457 -2.04329 0.0836372 0
M  V30 395 H 40.1007 -3.27175 -2.0745 0
M  V30 396 H 40.5147 -5.16297 -0.923991 0
M  V30 397 H 41.9887 -4.86504 -2.60803 0
M  V30 398 H 42.4657 -3.21331 -2.99405 0
M  V30 399 H 43.0717 -3.97723 -1.50654 0
M  V30 400 N 41.3868 0.248026 -1.55636 0
M  V30 401 C 42.6338 0.976224 -1.77415 0
M  V30 402 C 42.9618 1.85361 -0.589193 0
M  V30 403 O 42.2168 1.90973 0.427529 0
M  V30 404 C 42.5158 1.86819 -3.04686 0
M  V30 405 C 42.1818 1.14625 -4.36087 0
M  V30 406 C 40.8438 0.946723 -4.71795 0
M  V30 407 C 43.1958 0.634463 -5.17324 0
M  V30 408 C 40.5238 0.223091 -5.86276 0
M  V30 409 C 42.8758 -0.0756959 -6.32555 0
M  V30 410 C 41.5398 -0.286711 -6.66884 0
M  V30 411 H 40.8098 0.357226 -0.649208 0
M  V30 412 H 43.4568 0.246415 -1.89908 0
M  V30 413 H 41.7618 2.66502 -2.872 0
M  V30 414 H 43.4588 2.43329 -3.18735 0
M  V30 415 H 40.0488 1.3117 -4.08035 0
M  V30 416 H 44.2328 0.77616 -4.90193 0
M  V30 417 H 39.4888 0.0491185 -6.1138 0
M  V30 418 H 43.6628 -0.479899 -6.94745 0
M  V30 419 H 41.2898 -0.849389 -7.5544 0
M  V30 420 N 42.8649 1.48995 0.513639 0
M  V30 421 C 44.0899 1.61792 1.29762 0
M  V30 422 C 44.5149 0.284475 1.85936 0
M  V30 423 O 43.8729 -0.746185 1.65232 0
M  V30 424 C 43.9209 2.67993 2.41272 0
M  V30 425 O 43.0249 2.26287 3.44772 0
M  V30 426 H 42.3659 0.541963 0.38363 0
M  V30 427 H 44.8959 1.95097 0.616307 0
M  V30 428 H 44.9059 2.89772 2.87221 0
M  V30 429 H 43.5809 3.64791 1.9975 0
M  V30 430 H 42.1579 2.14788 3.04829 0
M  V30 431 N 44.343 -0.763751 1.37857 0
M  V30 432 C 45.568 -1.55805 1.36893 0
M  V30 433 C 45.993 -1.88054 -0.0416135 0
M  V30 434 O 45.351 -1.49825 -1.02089 0
M  V30 435 C 45.399 -2.84012 2.22192 0
M  V30 436 O 44.503 -3.78732 1.63204 0
M  V30 437 H 43.844 -0.471638 0.46739 0
M  V30 438 H 46.374 -0.944657 1.81487 0
M  V30 439 H 46.384 -3.33037 2.35691 0
M  V30 440 H 45.059 -2.59869 3.24716 0
M  V30 441 H 43.636 -3.37402 1.58791 0
M  V30 442 N 45.8211 -1.22559 -0.990812 0
M  V30 443 C 47.0681 -1.05141 -1.73065 0
M  V30 444 C 47.3961 0.413191 -1.9006 0
M  V30 445 O 46.6511 1.32257 -1.44245 0
M  V30 446 C 46.9501 -1.71011 -3.13831 0
M  V30 447 C 46.6161 -3.20911 -3.16745 0
M  V30 448 C 45.2781 -3.61812 -3.17247 0
M  V30 449 C 47.6301 -4.16846 -3.12872 0
M  V30 450 C 44.9581 -4.97127 -3.1158 0
M  V30 451 C 47.3101 -5.5214 -3.08746 0
M  V30 452 C 45.9741 -5.92419 -3.07565 0
M  V30 453 H 45.2441 -0.384738 -0.633291 0
M  V30 454 H 47.8911 -1.5235 -1.16025 0
M  V30 455 H 46.1961 -1.16133 -3.74193 0
M  V30 456 H 47.8931 -1.55023 -3.69823 0
M  V30 457 H 44.4831 -2.88344 -3.17105 0
M  V30 458 H 48.6671 -3.86263 -3.11632 0
M  V30 459 H 43.9231 -5.27562 -3.09012 0
M  V30 460 H 48.0971 -6.26201 -3.04705 0
M  V30 461 H 45.7241 -6.97236 -3.02929 0
M  V30 462 N 47.2992 1.18797 -1.03562 0
M  V30 463 C 48.2622 2.20464 -0.626769 0
M  V30 464 C 49.2622 1.57721 0.313173 0
M  V30 465 O 50.4522 1.73917 0.0992615 0
M  V30 466 C 47.5842 3.40802 0.0818498 0
M  V30 467 H 48.7772 2.58149 -1.5264 0
M  V30 468 H 46.3302 1.32593 -0.827578 0
M  V30 469 H 47.0652 3.08642 0.995518 0
M  V30 470 H 46.8502 3.8758 -0.593652 0
M  V30 471 H 48.3402 4.16092 0.354584 0
M  V30 472 N 48.7773 0.814389 1.34928 0
M  V30 473 C 49.7103 0.175641 2.27523 0
M  V30 474 C 50.6883 -0.662953 1.48471 0
M  V30 475 O 51.8723 -0.628545 1.77712 0
M  V30 476 C 48.9993 -0.755516 3.30166 0
M  V30 477 C 48.0453 0.00445305 4.265 0
M  V30 478 S 48.8783 1.34582 5.18313 0
M  V30 479 C 50.0343 0.419315 6.24494 0
M  V30 480 H 50.2673 0.960691 2.8135 0
M  V30 481 H 47.8003 0.609846 1.41846 0
M  V30 482 H 49.7583 -1.28723 3.89796 0
M  V30 483 H 48.4193 -1.51402 2.75202 0
M  V30 484 H 47.6123 -0.703077 4.99072 0
M  V30 485 H 47.2143 0.466447 3.7108 0
M  V30 486 H 49.5063 -0.392432 6.76362 0
M  V30 487 H 50.4493 1.11446 6.99275 0
M  V30 488 H 50.8573 0.0115389 5.64499 0
M  V30 489 N 50.2554 -1.46986 0.568584 0
M  V30 490 C 51.4804 -2.07335 0.0520528 0
M  V30 491 C 51.9054 -1.41675 -1.23733 0
M  V30 492 O 51.2634 -0.495623 -1.74394 0
M  V30 493 C 51.3114 -3.60417 -0.11501 0
M  V30 494 O 50.4154 -3.95309 -1.17492 0
M  V30 495 H 49.7564 -0.661597 0.0564385 0
M  V30 496 H 52.2864 -1.88837 0.787507 0
M  V30 497 H 52.2964 -4.06698 -0.325644 0
M  V30 498 H 50.9714 -4.07601 0.826675 0
M  V30 499 H 49.5484 -3.60757 -0.943869 0
M  V30 500 N 51.7335 -0.305618 -1.54608 0
M  V30 501 C 52.9795 0.295595 -2.01241 0
M  V30 502 C 53.3345 1.51171 -1.19018 0
M  V30 503 O 52.6275 1.89832 -0.259684 0
M  V30 504 C 52.8215 0.698983 -3.50498 0
M  V30 505 C 52.6505 -0.476491 -4.47168 0
M  V30 506 C 51.4205 -0.969963 -4.95903 0
M  V30 507 C 53.6185 -1.32294 -4.96994 0
M  V30 508 N 51.6005 -2.11172 -5.76437 0
M  V30 509 C 52.9715 -2.31212 -5.75275 0
M  V30 510 C 55.0265 -1.35278 -4.7917 0
M  V30 511 C 53.7295 -3.32896 -6.37631 0
M  V30 512 C 55.7555 -2.35823 -5.42348 0
M  V30 513 C 55.1175 -3.33469 -6.20466 0
M  V30 514 H 51.2165 0.0724992 -0.778632 0
M  V30 515 H 53.8005 -0.436583 -1.89742 0
M  V30 516 H 51.9715 1.40032 -3.62278 0
M  V30 517 H 53.7035 1.28013 -3.8392 0
M  V30 518 H 50.4585 -0.544178 -4.70463 0
M  V30 519 H 50.8825 -2.68714 -6.21387 0
M  V30 520 H 55.5245 -0.61157 -4.18354 0
M  V30 521 H 53.2425 -4.07933 -6.97579 0
M  V30 522 H 56.8285 -2.38911 -5.30484 0
M  V30 523 H 55.7085 -4.09996 -6.68485 0
M  V30 524 N 53.2116 1.57565 -0.0334293 0
M  V30 525 C 54.4586 1.91978 0.644272 0
M  V30 526 C 54.7866 0.910231 1.71887 0
M  V30 527 O 54.0416 -0.0801961 1.95536 0
M  V30 528 C 54.3406 3.33112 1.29504 0
M  V30 529 C 54.0066 4.49537 0.350388 0
M  V30 530 C 52.6686 4.81115 0.0903974 0
M  V30 531 C 55.0206 5.20347 -0.298032 0
M  V30 532 C 52.3486 5.8086 -0.825746 0
M  V30 533 C 54.7006 6.2107 -1.20226 0
M  V30 534 C 53.3646 6.51088 -1.4711 0
M  V30 535 H 52.6346 0.702496 0.235756 0
M  V30 536 H 55.2816 1.91259 -0.0961176 0
M  V30 537 H 53.5866 3.30113 2.11028 0
M  V30 538 H 55.2836 3.57011 1.82603 0
M  V30 539 H 51.8736 4.24883 0.563205 0
M  V30 540 H 56.0576 4.96178 -0.110234 0
M  V30 541 H 51.3136 6.02461 -1.04169 0
M  V30 542 H 55.4876 6.75057 -1.71086 0
M  V30 543 H 53.1146 7.28193 -2.18264 0
M  V30 544 N 54.6897 -0.239769 1.55765 0
M  V30 545 C 56.1057 -0.588624 1.48349 0
M  V30 546 C 56.3057 -1.88005 0.72502 0
M  V30 547 O 55.3617 -2.51186 0.257269 0
M  V30 548 C 56.6747 -0.68474 2.928 0
M  V30 549 C 58.2227 -0.77659 3.03213 0
M  V30 550 C 58.6977 -0.904207 4.48986 0
M  V30 551 N 60.1887 -0.968896 4.52953 0
M  V30 552 C 60.9237 -1.08703 5.63002 0
M  V30 553 N 60.4197 -1.17026 6.82845 0
M  V30 554 N 62.2127 -1.12074 5.50814 0
M  V30 555 H 54.3637 0.607911 2.03515 0
M  V30 556 H 56.6267 0.21083 0.924259 0
M  V30 557 H 56.3327 0.194284 3.51163 0
M  V30 558 H 56.2067 -1.55435 3.43686 0
M  V30 559 H 58.5937 -1.64606 2.44926 0
M  V30 560 H 58.6747 0.118315 2.55526 0
M  V30 561 H 58.3187 -0.0392633 5.07885 0
M  V30 562 H 58.2487 -1.81426 4.9436 0
M  V30 563 H 60.7397 -0.915633 3.6664 0
M  V30 564 H 61.0527 -1.25966 7.62465 0
M  V30 565 H 59.3977 -1.13971 6.85591 0
M  V30 566 H 62.5887 -1.05226 4.5612 0
M  V30 567 H 62.7617 -1.20936 6.36615 0
M  V30 568 N 56.1678 -1.49265 -0.50573 0
M  V30 569 C 57.0998 -1.617 -1.62437 0
M  V30 570 C 58.1128 -0.499924 -1.54934 0
M  V30 571 O 59.3018 -0.771785 -1.60953 0
M  V30 572 C 56.4018 -1.5533 -3.01207 0
M  V30 573 C 55.5748 -2.8249 -3.33943 0
M  V30 574 C 54.6338 -2.69238 -4.52103 0
M  V30 575 O 53.6598 -3.43167 -4.5412 0
M  V30 576 N 54.8618 -1.80468 -5.51735 0
M  V30 577 H 57.6268 -2.58177 -1.52199 0
M  V30 578 H 55.1878 -1.46294 -0.693511 0
M  V30 579 H 57.1798 -1.44125 -3.78167 0
M  V30 580 H 55.7498 -0.667297 -3.05395 0
M  V30 581 H 54.9698 -3.08081 -2.45926 0
M  V30 582 H 56.2578 -3.66802 -3.5261 0
M  V30 583 H 55.6558 -1.19653 -5.52901 0
M  V30 584 H 54.2128 -1.75188 -6.27816 0
M  V30 585 N 57.6459 0.756429 -1.3826 0
M  V30 586 C 58.8709 1.55077 -1.37717 0
M  V30 587 C 59.2959 1.88073 0.03164 0
M  V30 588 O 58.6539 1.50364 1.01293 0
M  V30 589 C 58.7019 2.8283 -2.23695 0
M  V30 590 O 57.8059 3.77862 -1.6521 0
M  V30 591 H 57.1469 0.469152 -0.469885 0
M  V30 592 H 59.6769 0.935019 -1.81985 0
M  V30 593 H 59.6869 3.31783 -2.37453 0
M  V30 594 H 58.3619 2.58144 -3.2609 0
M  V30 595 H 56.9389 3.36555 -1.60578 0
M  V30 596 N 59.124 1.23083 0.984299 0
M  V30 597 C 60.535 1.05609 1.5396 0
M  V30 598 C 60.886 -0.377793 1.92528 0
M  V30 599 O 60.011 -1.26398 1.75649 0
M  V30 600 C 60.606 1.91087 2.7977 0
M  V30 601 C 59.165 1.77885 3.31713 0
M  V30 602 C 58.312 1.87028 2.04733 0
M  V30 603 H 61.263 1.36802 0.804419 0
M  V30 604 H 61.284 1.43336 3.5247 0
M  V30 605 H 60.796 2.9544 2.51668 0
M  V30 606 H 58.897 0.762995 3.64704 0
M  V30 607 H 59.01 2.61047 4.01735 0
M  V30 608 H 57.374 1.30565 2.18689 0
M  V30 609 H 58.157 2.92929 1.79017 0
M  V30 610 N 60.6021 -1.18246 1.0419 0
M  V30 611 C 61.5121 -2.25574 0.644476 0
M  V30 612 C 62.5281 -1.70845 -0.329826 0
M  V30 613 O 63.7041 -2.00554 -0.184443 0
M  V30 614 C 60.7691 -3.46697 0.014877 0
M  V30 615 C 59.8301 -4.16554 1.03834 0
M  V30 616 C 59.0631 -5.31894 0.438692 0
M  V30 617 O 59.2861 -5.65385 -0.754752 0
M  V30 618 O 58.2201 -5.90459 1.168 0
M  V30 619 H 62.0461 -2.61836 1.53869 0
M  V30 620 H 59.6311 -1.25352 0.812854 0
M  V30 621 H 61.5131 -4.20062 -0.335538 0
M  V30 622 H 60.1881 -3.12255 -0.853138 0
M  V30 623 H 59.0951 -3.45251 1.44057 0
M  V30 624 H 60.4281 -4.54998 1.87716 0
M  V30 625 N 62.0802 -0.821533 -1.34494 0
M  V30 626 C 63.0272 -0.240397 -2.29545 0
M  V30 627 C 63.9972 0.634031 -1.53523 0
M  V30 628 O 65.1822 0.575966 -1.81899 0
M  V30 629 C 62.3222 0.592869 -3.39969 0
M  V30 630 C 61.4352 -0.30365 -4.30932 0
M  V30 631 C 60.5702 0.539049 -5.28458 0
M  V30 632 C 59.6092 -0.356942 -6.11058 0
M  V30 633 N 58.7462 0.446603 -7.00678 0
M  V30 634 H 63.5862 -1.05632 -2.7865 0
M  V30 635 H 61.1232 -0.532413 -1.37127 0
M  V30 636 H 63.0812 1.09129 -4.02675 0
M  V30 637 H 61.7112 1.37392 -2.92102 0
M  V30 638 H 60.7632 -0.920276 -3.691 0
M  V30 639 H 62.0752 -0.992661 -4.88823 0
M  V30 640 H 61.2292 1.102 -5.96608 0
M  V30 641 H 59.9682 1.26157 -4.71101 0
M  V30 642 H 58.9732 -0.932047 -5.41842 0
M  V30 643 H 60.1982 -1.07755 -6.70497 0
M  V30 644 H 58.1442 1.15282 -6.45791 0
M  V30 645 H 58.0612 -0.184048 -7.55776 0
M  V30 646 H 59.3292 0.992352 -7.73158 0
M  V30 647 N 63.5583 1.46682 -0.576371 0
M  V30 648 C 64.9743 1.57822 -0.237562 0
M  V30 649 C 65.1743 1.57237 1.26011 0
M  V30 650 O 64.2303 1.48596 2.04146 0
M  V30 651 C 65.5433 2.87499 -0.881168 0
M  V30 652 C 67.0913 3.01119 -0.85417 0
M  V30 653 C 67.5663 4.33524 -1.4772 0
M  V30 654 N 69.0573 4.40207 -1.44125 0
M  V30 655 C 69.7923 5.4126 -1.89276 0
M  V30 656 N 69.2883 6.49021 -2.42371 0
M  V30 657 N 71.0813 5.32422 -1.80231 0
M  V30 658 H 63.2323 1.45306 -1.54919 0
M  V30 659 H 65.4953 0.692733 -0.647167 0
M  V30 660 H 65.2013 2.9372 -1.93447 0
M  V30 661 H 65.0753 3.75224 -0.385592 0
M  V30 662 H 67.4623 2.94485 0.190491 0
M  V30 663 H 67.5433 2.14887 -1.3877 0
M  V30 664 H 67.1873 4.40916 -2.52103 0
M  V30 665 H 67.1173 5.1852 -0.918947 0
M  V30 666 H 69.6083 3.62931 -1.05307 0
M  V30 667 H 69.9213 7.2233 -2.74698 0
M  V30 668 H 68.2663 6.49858 -2.46393 0
M  V30 669 H 71.4573 4.47137 -1.38514 0
M  V30 670 H 71.6303 6.11034 -2.15735 0
M  V30 671 N 65.0364 0.313813 1.54444 0
M  V30 672 C 65.9664 -0.549454 2.26943 0
M  V30 673 C 66.9474 -1.12741 1.27372 0
M  V30 674 O 68.1324 -1.15436 1.56167 0
M  V30 675 C 65.2624 -1.71523 3.01989 0
M  V30 676 C 64.2164 -1.26703 4.08816 0
M  V30 677 C 63.5424 -2.51898 4.71647 0
M  V30 678 C 64.8424 -0.388962 5.2085 0
M  V30 679 H 66.5364 0.0552661 2.99349 0
M  V30 680 H 64.0824 0.0280207 1.43973 0
M  V30 681 H 66.0354 -2.32535 3.51433 0
M  V30 682 H 64.7594 -2.34639 2.27183 0
M  V30 683 H 63.4184 -0.679896 3.6024 0
M  V30 684 H 63.0664 -3.13356 3.93468 0
M  V30 685 H 62.7664 -2.22605 5.43802 0
M  V30 686 H 64.2904 -3.1369 5.23861 0
M  V30 687 H 65.7044 -0.905107 5.6611 0
M  V30 688 H 64.1014 -0.18924 5.99802 0
M  V30 689 H 65.1714 0.582699 4.81386 0
M  V30 690 N 66.5145 -1.57545 0.0417849 0
M  V30 691 C 67.4245 -2.14451 -0.951213 0
M  V30 692 C 68.4405 -1.09992 -1.34825 0
M  V30 693 O 69.6165 -1.42114 -1.42708 0
M  V30 694 C 66.6815 -2.67063 -2.21084 0
M  V30 695 C 65.7425 -3.86284 -1.87304 0
M  V30 696 C 64.9755 -4.36378 -3.07261 0
M  V30 697 O 65.1985 -3.85587 -4.20332 0
M  V30 698 O 64.1325 -5.28077 -2.88822 0
M  V30 699 H 67.9585 -2.99601 -0.497287 0
M  V30 700 H 65.5435 -1.48317 -0.179567 0
M  V30 701 H 67.4255 -3.00914 -2.95006 0
M  V30 702 H 66.1005 -1.84989 -2.65633 0
M  V30 703 H 65.0075 -3.57338 -1.10727 0
M  V30 704 H 66.3405 -4.6956 -1.47562 0
M  V30 705 N 67.9926 0.231505 -1.5589 0
M  V30 706 C 69.2386 0.954429 -1.79617 0
M  V30 707 C 69.5936 1.82367 -0.613199 0
M  V30 708 O 68.8866 1.87524 0.393094 0
M  V30 709 C 69.0806 1.83577 -3.0665 0
M  V30 710 C 68.9096 1.05334 -4.3719 0
M  V30 711 C 67.6796 0.75225 -4.99669 0
M  V30 712 C 69.8776 0.423444 -5.12554 0
M  V30 713 N 67.8596 -0.052627 -6.13877 0
M  V30 714 C 69.2306 -0.245287 -6.19515 0
M  V30 715 C 71.2856 0.335466 -4.96769 0
M  V30 716 C 69.9886 -0.993566 -7.12405 0
M  V30 717 C 72.0146 -0.399321 -5.9005 0
M  V30 718 C 71.3766 -1.05663 -6.9643 0
M  V30 719 H 67.4756 0.329846 -0.709031 0
M  V30 720 H 70.0596 0.226172 -1.93382 0
M  V30 721 H 68.2306 2.53592 -2.94186 0
M  V30 722 H 69.9626 2.49541 -3.18608 0
M  V30 723 H 66.7176 1.06783 -4.61405 0
M  V30 724 H 67.1416 -0.443609 -6.75545 0
M  V30 725 H 71.7836 0.829311 -4.14587 0
M  V30 726 H 69.5016 -1.49896 -7.94076 0
M  V30 727 H 73.0876 -0.468265 -5.79913 0
M  V30 728 H 71.9676 -1.61612 -7.67366 0
M  V30 729 N 69.4707 1.49531 0.497807 0
M  V30 730 C 70.7167 1.59415 1.25358 0
M  V30 731 C 71.0497 0.281422 1.9215 0
M  V30 732 O 70.3247 -0.715249 1.80871 0
M  V30 733 C 70.6077 2.75566 2.3181 0
M  V30 734 C 70.4607 4.16642 1.69498 0
M  V30 735 C 71.7797 2.87347 3.33346 0
M  V30 736 H 68.8987 0.580244 0.454408 0
M  V30 737 H 71.5407 1.81827 0.551262 0
M  V30 738 H 69.6907 2.56587 2.91711 0
M  V30 739 H 71.3627 4.47145 1.13399 0
M  V30 740 H 69.6057 4.22141 0.998978 0
M  V30 741 H 70.2767 4.93792 2.46725 0
M  V30 742 H 72.7527 3.04634 2.83438 0
M  V30 743 H 71.6287 3.70289 4.05188 0
M  V30 744 H 71.8897 1.96834 3.95865 0
M  V30 745 N 70.9488 -0.749086 1.3866 0
M  V30 746 C 71.9118 -1.84457 1.36045 0
M  V30 747 C 72.9118 -1.58682 0.260122 0
M  V30 748 O 74.1018 -1.66343 0.517261 0
M  V30 749 C 71.2338 -3.22008 1.11911 0
M  V30 750 H 72.4268 -1.88182 2.33512 0
M  V30 751 H 69.9798 -0.951266 1.24019 0
M  V30 752 H 70.7148 -3.2395 0.150686 0
M  V30 753 H 70.4998 -3.42111 1.91579 0
M  V30 754 H 71.9898 -4.0208 1.12788 0
M  V30 755 N 72.4269 -1.23603 -0.977757 0
M  V30 756 C 73.3369 -1.03632 -2.1047 0
M  V30 757 C 74.3529 0.0199435 -1.73989 0
M  V30 758 O 75.5289 -0.176076 -2.00629 0
M  V30 759 C 72.5939 -0.63276 -3.40877 0
M  V30 760 C 71.6549 -1.76437 -3.91367 0
M  V30 761 C 70.8879 -1.37997 -5.15551 0
M  V30 762 O 71.1109 -0.265357 -5.69782 0
M  V30 763 O 70.0449 -2.20201 -5.60174 0
M  V30 764 H 73.8709 -1.98086 -2.30208 0
M  V30 765 H 71.4559 -1.02332 -1.08851 0
M  V30 766 H 73.3379 -0.418761 -4.19314 0
M  V30 767 H 72.0129 0.282754 -3.22463 0
M  V30 768 H 70.9199 -2.03304 -3.14036 0
M  V30 769 H 72.2529 -2.6583 -4.14241 0
M  V30 770 N 73.905 1.17692 -1.04816 0
M  V30 771 C 75.154 1.87192 -0.751132 0
M  V30 772 C 75.467 1.8169 0.724441 0
M  V30 773 O 76.673 2.46625 1.13527 0
M  V30 774 C 75.129 3.35857 -1.29338 0
M  V30 775 C 74.737 3.4987 -2.79812 0
M  V30 776 C 76.481 4.10709 -1.07322 0
M  V30 777 C 74.388 4.92536 -3.27356 0
M  V30 778 H 73.318 0.701162 -0.277288 0
M  V30 779 H 75.969 1.32932 -1.26496 0
M  V30 780 H 74.351 3.89631 -0.707376 0
M  V30 781 H 75.525 3.06332 -3.44235 0
M  V30 782 H 73.84 2.88433 -3.00325 0
M  V30 783 H 76.437 5.15952 -1.4035 0
M  V30 784 H 76.78 4.16299 -0.0108001 0
M  V30 785 H 77.313 3.6313 -1.62423 0
M  V30 786 H 74.052 4.92119 -4.33012 0
M  V30 787 H 73.572 5.3676 -2.67673 0
M  V30 788 H 75.251 5.61288 -3.21815 0
M  V30 789 N 75.3831 0.828654 1.34056 0
M  V30 790 C 76.6081 0.431637 2.02859 0
M  V30 791 C 77.0331 -0.956339 1.61975 0
M  V30 792 O 76.3911 -1.62338 0.807228 0
M  V30 793 C 76.4391 0.548323 3.56407 0
M  V30 794 O 75.5431 -0.429556 4.10157 0
M  V30 795 H 74.8841 0.176886 0.640006 0
M  V30 796 H 77.4141 1.12066 1.71179 0
M  V30 797 H 77.4241 0.426196 4.05768 0
M  V30 798 H 76.0991 1.5606 3.8551 0
M  V30 799 H 74.6761 -0.265836 3.71951 0
M  V30 800 N 76.8612 -1.46375 0.584142 0
M  V30 801 C 78.0862 -2.07268 0.0740405 0
M  V30 802 C 78.5112 -1.42979 -1.22223 0
M  V30 803 O 77.8692 -0.514092 -1.73859 0
M  V30 804 C 77.9172 -3.60518 -0.0767769 0
M  V30 805 O 77.0212 -3.96533 -1.13292 0
M  V30 806 H 76.3622 -0.660961 0.0634524 0
M  V30 807 H 78.8922 -1.87991 0.807492 0
M  V30 808 H 78.9022 -4.07021 -0.282489 0
M  V30 809 H 77.5772 -4.06702 0.86986 0
M  V30 810 H 76.1542 -3.61738 -0.905553 0
M  V30 811 N 78.3393 -0.321999 -1.54275 0
M  V30 812 C 79.5873 0.280489 -2.00144 0
M  V30 813 C 79.9083 1.52777 -1.21178 0
M  V30 814 O 79.1783 1.9338 -0.313187 0
M  V30 815 H 77.7583 0.106632 -0.73935 0
M  V30 816 H 80.4203 -0.438184 -1.8991 0
M  V30 817 H 79.5163 0.537972 -3.07428 0
M  V30 818 N 79.8174 1.5752 -0.0501392 0
M  V30 819 C 81.0654 1.9227 0.622642 0
M  V30 820 C 81.3864 0.929083 1.71444 0
M  V30 821 O 80.6564 -0.0262186 1.95882 0
M  V30 822 H 79.2364 0.709739 0.232981 0
M  V30 823 H 81.8984 1.94628 -0.102898 0
M  V30 824 H 80.9944 2.93479 1.06191 0
M  V30 825 N 81.2955 -0.223234 1.56011 0
M  V30 826 C 82.5205 -0.968978 1.83373 0
M  V30 827 C 82.9455 -1.77227 0.630254 0
M  V30 828 O 82.3035 -1.76345 -0.420959 0
M  V30 829 C 82.3515 -1.86363 3.08709 0
M  V30 830 O 81.4555 -2.95873 2.87285 0
M  V30 831 H 80.7965 -0.274461 0.604622 0
M  V30 832 H 83.3265 -0.237056 2.03222 0
M  V30 833 H 83.3365 -2.27376 3.38768 0
M  V30 834 H 82.0115 -1.27319 3.95933 0
M  V30 835 H 80.5885 -2.58818 2.68454 0
M  V30 836 N 82.7736 -1.49793 -0.48987 0
M  V30 837 C 84.0036 -1.6333 -1.26518 0
M  V30 838 C 84.4116 -0.308392 -1.8667 0
M  V30 839 O 83.7546 0.717512 -1.69108 0
M  V30 840 C 83.8166 -2.6522 -2.4269 0
M  V30 841 C 83.4806 -4.09279 -2.03321 0
M  V30 842 C 84.4776 -4.95738 -1.56652 0
M  V30 843 C 82.1626 -4.55082 -2.12616 0
M  V30 844 C 84.1566 -6.26041 -1.19795 0
M  V30 845 C 81.8436 -5.85396 -1.75371 0
M  V30 846 C 82.8416 -6.707 -1.29036 0
M  V30 847 O 82.5296 -7.98584 -0.92299 0
M  V30 848 H 82.2616 -0.552502 -0.389509 0
M  V30 849 H 84.8156 -1.96642 -0.593381 0
M  V30 850 H 83.0456 -2.27112 -3.12981 0
M  V30 851 H 84.7346 -2.68171 -3.04695 0
M  V30 852 H 85.5006 -4.61575 -1.48908 0
M  V30 853 H 81.3796 -3.88844 -2.47631 0
M  V30 854 H 84.9236 -6.92578 -0.835582 0
M  V30 855 H 80.8206 -6.19085 -1.82768 0
M  V30 856 H 81.5886 -8.11692 -1.05349 0
M  V30 857 N 84.2517 0.741722 -1.39055 0
M  V30 858 C 85.4797 1.53098 -1.39171 0
M  V30 859 C 85.8947 1.88794 0.0155099 0
M  V30 860 O 85.2517 1.53626 0.985159 0
M  V30 861 C 85.3027 2.82274 -2.2584 0
M  V30 862 O 85.0237 2.48097 -3.61081 0
M  V30 863 C 86.5247 3.76343 -2.34266 0
M  V30 864 H 83.7447 0.473335 -0.4756 0
M  V30 865 H 86.2887 0.917045 -1.82785 0
M  V30 866 H 84.4437 3.40015 -1.85656 0
M  V30 867 H 84.8577 3.31029 -4.06842 0
M  V30 868 H 86.3317 4.63898 -2.9917 0
M  V30 869 H 86.8087 4.17619 -1.35982 0
M  V30 870 H 87.4147 3.24523 -2.74891 0
M  V30 871 N 85.7298 1.2412 0.971189 0
M  V30 872 C 86.9598 1.10415 1.7462 0
M  V30 873 C 87.3678 -0.346462 1.86001 0
M  V30 874 O 86.7108 -1.25104 1.34517 0
M  V30 875 C 86.7728 1.66596 3.18568 0
M  V30 876 C 86.4368 3.15446 3.3067 0
M  V30 877 C 87.4338 4.12636 3.16271 0
M  V30 878 C 85.1188 3.55337 3.55022 0
M  V30 879 C 87.1128 5.47699 3.26044 0
M  V30 880 C 84.7998 4.90542 3.64434 0
M  V30 881 C 85.7978 5.86532 3.49956 0
M  V30 882 O 85.4858 7.19279 3.59017 0
M  V30 883 H 85.2178 0.386616 0.55453 0
M  V30 884 H 87.7718 1.64633 1.22821 0
M  V30 885 H 86.0018 1.06808 3.71657 0
M  V30 886 H 87.6908 1.48232 3.77865 0
M  V30 887 H 88.4568 3.8316 2.97344 0
M  V30 888 H 84.3358 2.8113 3.65359 0
M  V30 889 H 87.8798 6.22603 3.14661 0
M  V30 890 H 83.7768 5.19691 3.82873 0
M  V30 891 H 84.5448 7.27153 3.75754 0
M  V30 892 N 87.2079 -1.17134 1.05439 0
M  V30 893 C 88.4379 -1.91094 0.785274 0
M  V30 894 C 88.8459 -1.77198 -0.663142 0
M  V30 895 O 88.1889 -1.10835 -1.46497 0
M  V30 896 C 88.2509 -3.42594 1.08949 0
M  V30 897 C 87.9149 -3.80274 2.53458 0
M  V30 898 C 88.9119 -3.82912 3.51673 0
M  V30 899 C 86.5969 -4.11162 2.88532 0
M  V30 900 C 88.5909 -4.15913 4.83006 0
M  V30 901 C 86.2779 -4.43831 4.20068 0
M  V30 902 C 87.2759 -4.46185 5.17115 0
M  V30 903 O 86.9639 -4.78083 6.46291 0
M  V30 904 H 86.6959 -0.613073 0.284811 0
M  V30 905 H 89.2499 -1.49461 1.40893 0
M  V30 906 H 87.4799 -3.84534 0.408741 0
M  V30 907 H 89.1689 -3.97817 0.805991 0
M  V30 908 H 89.9349 -3.5917 3.25917 0
M  V30 909 H 85.8139 -4.085 2.13656 0
M  V30 910 H 89.3579 -4.17665 5.5875 0
M  V30 911 H 85.2549 -4.67037 4.45586 0
M  V30 912 H 86.0229 -4.9593 6.51149 0
M  V30 913 N 88.686 -0.835752 -1.33615 0
M  V30 914 C 90.097 -0.487099 -1.80234 0
M  V30 915 C 90.448 0.993627 -1.69179 0
M  V30 916 O 89.573 1.77403 -1.23924 0
M  V30 917 C 90.168 -0.877385 -3.27242 0
M  V30 918 C 88.727 -0.580915 -3.7189 0
M  V30 919 C 87.874 -1.0874 -2.5509 0
M  V30 920 H 90.825 -1.02474 -1.2118 0
M  V30 921 H 90.846 -0.186195 -3.80044 0
M  V30 922 H 90.358 -1.95512 -3.35256 0
M  V30 923 H 88.459 0.486881 -3.69405 0
M  V30 924 H 88.572 -1.13396 -4.65487 0
M  V30 925 H 86.936 -0.508392 -2.49575 0
M  V30 926 H 87.719 -2.17184 -2.65868 0
M  V30 927 N 90.1641 1.46063 -0.591896 0
M  V30 928 C 91.4411 1.95595 -0.0137119 0
M  V30 929 C 91.8211 1.5345 1.4497 0
M  V30 930 O 91.1691 0.789543 2.14426 0
M  V30 931 C 91.3791 3.48453 -0.195373 0
M  V30 932 C 92.7271 4.24546 -0.0679765 0
M  V30 933 O 93.7511 3.55982 -0.124681 0
M  V30 934 O 92.6101 5.46467 0.0600579 0
M  V30 935 H 89.7041 0.825795 0.0446279 0
M  V30 936 H 92.2501 1.56303 -0.660859 0
M  V30 937 H 91.0221 3.72045 -1.21235 0
M  V30 938 H 90.6451 3.94597 0.487775 0
M  V30 939 N 91.6422 0.330177 1.54103 0
M  V30 940 C 92.8702 -0.272179 2.05102 0
M  V30 941 C 93.2852 -1.45267 1.20595 0
M  V30 942 O 92.6422 -1.8094 0.238144 0
M  V30 943 C 92.6932 -0.70023 3.54653 0
M  V30 944 O 92.4142 0.433301 4.35952 0
M  V30 945 C 93.9152 -1.3647 4.21771 0
M  V30 946 H 91.1352 -0.0549159 0.668749 0
M  V30 947 H 93.6792 0.478285 1.98828 0
M  V30 948 H 91.8342 -1.40066 3.61193 0
M  V30 949 H 92.2482 0.0947539 5.24414 0
M  V30 950 H 93.7222 -1.61509 5.27843 0
M  V30 951 H 94.1992 -2.31409 3.73292 0
M  V30 952 H 94.8052 -0.706675 4.19388 0
M  V30 953 N 93.1203 -1.57491 0.0584922 0
M  V30 954 C 94.3663 -1.93264 -0.614558 0
M  V30 955 C 94.6993 -0.937717 -1.7006 0
M  V30 956 O 93.9743 0.0351652 -1.94468 0
M  V30 957 C 94.2573 -3.3938 -1.20386 0
M  V30 958 C 94.1103 -4.49625 -0.125375 0
M  V30 959 C 95.4293 -3.86039 -2.11334 0
M  V30 960 H 92.5483 -0.702791 -0.221933 0
M  V30 961 H 95.1903 -1.8961 0.12175 0
M  V30 962 H 93.3403 -3.42626 -1.83139 0
M  V30 963 H 95.0123 -4.58506 0.506971 0
M  V30 964 H 93.2553 -4.30354 0.545672 0
M  V30 965 H 93.9263 -5.48967 -0.577861 0
M  V30 966 H 96.4023 -3.84716 -1.58534 0
M  V30 967 H 95.2783 -4.88914 -2.49507 0
M  V30 968 H 95.5393 -3.23215 -3.01636 0
M  V30 969 N 94.5984 0.214957 -1.56127 0
M  V30 970 C 95.8264 0.955092 -1.83536 0
M  V30 971 C 96.2414 1.77677 -0.638472 0
M  V30 972 O 95.5984 1.78219 0.392968 0
M  V30 973 C 95.6494 1.86734 -3.09536 0
M  V30 974 O 95.3704 1.07887 -4.24608 0
M  V30 975 C 96.8714 2.72082 -3.4998 0
M  V30 976 H 94.0914 0.279611 -0.609966 0
M  V30 977 H 96.6354 0.228197 -2.03223 0
M  V30 978 H 94.7904 2.5481 -2.91806 0
M  V30 979 H 95.2044 1.69872 -4.9623 0
M  V30 980 H 96.6784 3.31782 -4.41163 0
M  V30 981 H 97.1554 3.44806 -2.7204 0
M  V30 982 H 97.7614 2.09409 -3.70173 0
M  V30 983 N 96.0765 1.50051 0.48192 0
M  V30 984 C 97.3245 1.60181 1.23234 0
M  V30 985 C 97.6455 0.299176 1.92691 0
M  V30 986 O 96.9155 -0.682708 1.83619 0
M  V30 987 H 95.4955 0.590232 0.457859 0
M  V30 988 H 98.1575 1.86775 0.556881 0
M  V30 989 H 97.2535 2.40753 1.98607 0
M  V30 990 N 97.5546 -0.734337 1.39446 0
M  V30 991 C 98.9706 -1.03997 1.21065 0
M  V30 992 C 99.1706 -2.01369 0.0727019 0
M  V30 993 O 98.2266 -2.45856 -0.575426 0
M  V30 994 C 99.5396 -1.60163 2.54496 0
M  V30 995 C 101.088 -1.7224 2.61347 0
M  V30 996 C 101.563 -2.31814 3.95002 0
M  V30 997 N 103.054 -2.39223 3.96644 0
M  V30 998 C 103.789 -2.86258 4.96834 0
M  V30 999 N 103.285 -3.33184 6.07421 0
M  V30 1000 N 105.078 -2.85473 4.84213 0
M  V30 1001 H 97.2286 -0.0885624 2.12215 0
M  V30 1002 H 99.4916 -0.10191 0.942506 0
M  V30 1003 H 99.1976 -0.960811 3.38321 0
M  V30 1004 H 99.0716 -2.5896 2.74262 0
M  V30 1005 H 101.459 -2.35443 1.77906 0
M  V30 1006 H 101.54 -0.720939 2.4543 0
M  V30 1007 H 101.184 -1.69238 4.78875 0
M  V30 1008 H 101.114 -3.32638 4.08239 0
M  V30 1009 H 103.605 -2.06057 3.16779 0
M  V30 1010 H 103.918 -3.67586 6.7978 0
M  V30 1011 H 102.263 -3.31191 6.11013 0
M  V30 1012 H 105.454 -2.48136 3.96921 0
M  V30 1013 H 105.627 -3.21814 5.62441 0
M  V30 1014 N 99.0327 -1.24633 -0.964593 0
M  V30 1015 C 100.28 -1.08788 -1.70796 0
M  V30 1016 C 100.608 0.372783 -1.90894 0
M  V30 1017 O 99.8627 1.29167 -1.47018 0
M  V30 1018 C 100.162 -1.7763 -3.10133 0
M  V30 1019 C 99.8277 -3.27557 -3.09866 0
M  V30 1020 C 98.4897 -3.6846 -3.09501 0
M  V30 1021 C 100.842 -4.23389 -3.03959 0
M  V30 1022 C 98.1697 -5.03624 -3.00965 0
M  V30 1023 C 100.522 -5.58565 -2.96965 0
M  V30 1024 C 99.1857 -5.98809 -2.9493 0
M  V30 1025 H 98.4557 -0.398084 -0.624988 0
M  V30 1026 H 101.103 -1.54777 -1.12767 0
M  V30 1027 H 99.4077 -1.24044 -3.71645 0
M  V30 1028 H 101.105 -1.62832 -3.66451 0
M  V30 1029 H 97.6947 -2.95006 -3.10917 0
M  V30 1030 H 101.879 -3.92787 -3.03368 0
M  V30 1031 H 97.1347 -5.33998 -2.97752 0
M  V30 1032 H 101.309 -6.32523 -2.91354 0
M  V30 1033 H 98.9357 -7.03505 -2.88071 0
M  V30 1034 N 100.511 1.16574 -1.06058 0
M  V30 1035 C 101.739 1.90952 -0.796552 0
M  V30 1036 C 102.154 1.77302 0.648808 0
M  V30 1037 O 101.511 1.11605 1.44397 0
M  V30 1038 C 101.562 3.41736 -1.17894 0
M  V30 1039 O 101.283 3.54975 -2.56758 0
M  V30 1040 C 102.784 4.33169 -0.942308 0
M  V30 1041 H 100.004 0.605594 -0.288959 0
M  V30 1042 H 102.548 1.47777 -1.41358 0
M  V30 1043 H 100.703 3.82623 -0.606491 0
M  V30 1044 H 101.117 4.4846 -2.72 0
M  V30 1045 H 102.591 5.37439 -1.25952 0
M  V30 1046 H 103.068 4.3903 0.122078 0
M  V30 1047 H 103.674 3.98007 -1.49902 0
M  V30 1048 N 101.989 0.842826 1.3317 0
M  V30 1049 C 103.238 0.436738 1.96915 0
M  V30 1050 C 103.551 -1.01025 1.67491 0
M  V30 1051 O 104.757 -1.5212 2.24881 0
M  V30 1052 C 103.213 0.730021 3.52418 0
M  V30 1053 C 102.821 2.19195 3.90714 0
M  V30 1054 C 104.565 0.391076 4.22695 0
M  V30 1055 C 102.472 2.42907 5.39212 0
M  V30 1056 H 101.402 0.15958 0.736919 0
M  V30 1057 H 104.053 1.03196 1.51733 0
M  V30 1058 H 102.435 0.0643755 3.95948 0
M  V30 1059 H 103.609 2.8984 3.58231 0
M  V30 1060 H 101.924 2.49425 3.33431 0
M  V30 1061 H 104.521 0.545817 5.31907 0
M  V30 1062 H 104.864 -0.666294 4.10933 0
M  V30 1063 H 105.397 1.01212 3.84709 0
M  V30 1064 H 102.136 3.47224 5.55982 0
M  V30 1065 H 101.656 1.76827 5.73142 0
M  V30 1066 H 103.335 2.2626 6.06148 0
M  V30 1067 N 103.467 -1.45747 0.599634 0
M  V30 1068 C 104.692 -2.07178 0.0960198 0
M  V30 1069 C 105.117 -1.44268 -1.207 0
M  V30 1070 O 104.475 -0.532503 -1.73303 0
M  V30 1071 C 104.523 -3.60579 -0.0385348 0
M  V30 1072 O 103.627 -3.97713 -1.0908 0
M  V30 1073 H 102.968 -0.660251 0.0704593 0
M  V30 1074 H 105.498 -1.87124 0.827385 0
M  V30 1075 H 105.508 -4.07298 -0.239304 0
M  V30 1076 H 104.183 -4.05756 0.912947 0
M  V30 1077 H 102.76 -3.62678 -0.867135 0
M  V30 1078 N 104.945 -0.338344 -1.53925 0
M  V30 1079 C 106.361 0.0137736 -1.59594 0
M  V30 1080 C 106.561 1.49186 -1.35447 0
M  V30 1081 O 105.617 2.24987 -1.14616 0
M  V30 1082 C 106.93 -0.41773 -2.97784 0
M  V30 1083 C 108.478 -0.369633 -3.1081 0
M  V30 1084 C 108.953 -0.776524 -4.51369 0
M  V30 1085 N 110.444 -0.730506 -4.57403 0
M  V30 1086 C 111.179 -1.01736 -5.64303 0
M  V30 1087 N 110.675 -1.3721 -6.79077 0
M  V30 1088 N 112.468 -0.941942 -5.54151 0
M  V30 1089 H 104.619 -1.3012 -1.67876 0
M  V30 1090 H 106.882 -0.530082 -0.78595 0
M  V30 1091 H 106.588 -1.44811 -3.20504 0
M  V30 1092 H 106.462 0.209729 -3.76616 0
M  V30 1093 H 108.849 0.651568 -2.87817 0
M  V30 1094 H 108.93 -1.03223 -2.34049 0
M  V30 1095 H 108.574 -1.79571 -4.75096 0
M  V30 1096 H 108.504 -0.0914649 -5.26521 0
M  V30 1097 H 110.995 -0.468783 -3.74981 0
M  V30 1098 H 111.308 -1.57597 -7.5656 0
M  V30 1099 H 109.653 -1.4105 -6.80536 0
M  V30 1100 H 112.844 -0.664184 -4.63364 0
M  V30 1101 H 113.017 -1.16884 -6.37371 0
M  V30 1102 N 106.423 1.57458 -0.0668435 0
M  V30 1103 C 107.7 1.8469 0.644132 0
M  V30 1104 C 108.08 0.958343 1.88093 0
M  V30 1105 O 107.428 0.0233579 2.28488 0
M  V30 1106 C 107.638 3.34767 0.986509 0
M  V30 1107 C 108.986 4.02159 1.36212 0
M  V30 1108 O 110.01 3.39484 1.07839 0
M  V30 1109 O 108.869 5.12694 1.89227 0
M  V30 1110 H 105.963 0.762816 0.319437 0
M  V30 1111 H 108.509 1.6942 -0.0973986 0
M  V30 1112 H 107.281 3.91151 0.107883 0
M  V30 1113 H 106.904 3.55281 1.78497 0
M  V30 1114 N 107.901 -0.206675 1.56239 0
M  V30 1115 C 108.849 -1.27571 1.94495 0
M  V30 1116 C 109.843 -1.47737 0.828862 0
M  V30 1117 O 111.049 -1.48735 1.0138 0
M  V30 1118 H 107.424 -0.428029 0.6183 0
M  V30 1119 H 109.395 -0.925961 2.8367 0
M  V30 1120 C 108.144 -2.61568 2.29079 0
M  V30 1121 H 107.467 -2.46863 3.14482 0
M  V30 1122 H 108.907 -3.35144 2.5972 0
M  V30 1123 C 107.366 -3.17695 1.12123 0
M  V30 1124 O 107.896 -3.99801 0.390153 0
M  V30 1125 N 106.102 -2.76276 0.901097 0
M  V30 1126 H 105.649 -2.09613 1.49733 0
M  V30 1127 H 105.607 -3.1417 0.120319 0
M  V30 1128 N 109.379 -1.50304 -0.473955 0
M  V30 1129 C 110.342 -1.6841 -1.55469 0
M  V30 1130 C 111.342 -0.554905 -1.50922 0
M  V30 1131 O 112.532 -0.821882 -1.53593 0
M  V30 1132 C 109.664 -1.70667 -2.95102 0
M  V30 1133 H 110.857 -2.64828 -1.40733 0
M  V30 1134 H 108.41 -1.39742 -0.700132 0
M  V30 1135 H 109.145 -0.75932 -3.15285 0
M  V30 1136 H 108.93 -2.52698 -2.9981 0
M  V30 1137 H 110.42 -1.8664 -3.73571 0
M  V30 1138 N 110.857 0.726932 -1.39834 0
M  V30 1139 C 111.804 1.841 -1.39197 0
M  V30 1140 C 112.774 1.642 -0.250502 0
M  V30 1141 O 113.959 1.85494 -0.446846 0
M  V30 1142 C 111.099 3.21697 -1.24919 0
M  V30 1143 C 110.212 3.53247 -2.48678 0
M  V30 1144 C 109.347 4.80289 -2.26928 0
M  V30 1145 C 108.386 5.04707 -3.4632 0
M  V30 1146 N 107.523 6.22956 -3.23836 0
M  V30 1147 H 112.363 1.83979 -2.34427 0
M  V30 1148 H 109.9 0.898876 -1.16442 0
M  V30 1149 H 111.858 4.01137 -1.1465 0
M  V30 1150 H 110.488 3.21076 -0.333153 0
M  V30 1151 H 109.54 2.68447 -2.69519 0
M  V30 1152 H 110.852 3.67205 -3.37582 0
M  V30 1153 H 110.006 5.67725 -2.13947 0
M  V30 1154 H 108.745 4.68519 -1.35431 0
M  V30 1155 H 107.75 4.1573 -3.5979 0
M  V30 1156 H 108.975 5.18357 -4.38729 0
M  V30 1157 H 106.921 6.12459 -2.35011 0
M  V30 1158 H 106.838 6.37539 -4.063 0
M  V30 1159 H 108.106 7.1321 -3.14566 0
M  V30 1160 N 112.336 1.25143 0.95797 0
M  V30 1161 C 113.284 1.05019 2.07542 0
M  V30 1162 C 114.278 -0.0178751 1.69391 0
M  V30 1163 O 115.484 0.137472 1.79474 0
M  V30 1164 H 111.859 0.32265 0.679265 0
M  V30 1165 H 113.83 1.99759 2.21673 0
M  V30 1166 C 112.579 0.682074 3.40944 0
M  V30 1167 H 111.902 1.49573 3.70767 0
M  V30 1168 H 113.342 0.580945 4.20001 0
M  V30 1169 C 111.801 -0.611608 3.31302 0
M  V30 1170 O 112.331 -1.65465 3.66038 0
M  V30 1171 N 110.537 -0.595982 2.84423 0
M  V30 1172 H 110.084 0.253192 2.56353 0
M  V30 1173 H 110.042 -1.46173 2.78354 0
M  V30 1174 N 113.814 -1.1601 1.06675 0
M  V30 1175 C 115.042 -1.90527 0.806667 0
M  V30 1176 C 115.457 -1.77643 -0.639396 0
M  V30 1177 O 114.814 -1.12369 -1.43803 0
M  V30 1178 C 114.865 -3.41106 1.19705 0
M  V30 1179 O 114.586 -3.53608 2.58636 0
M  V30 1180 C 116.087 -4.32663 0.965266 0
M  V30 1181 H 113.307 -0.604053 0.292166 0
M  V30 1182 H 115.851 -1.47026 1.4214 0
M  V30 1183 H 114.006 -3.82296 0.626774 0
M  V30 1184 H 114.42 -4.47011 2.74375 0
M  V30 1185 H 115.894 -5.36763 1.288 0
M  V30 1186 H 116.371 -4.39089 -0.0987936 0
M  V30 1187 H 116.977 -3.97206 1.52011 0
M  V30 1188 N 115.292 -0.849877 -1.32721 0
M  V30 1189 C 116.222 -0.306308 -2.31482 0
M  V30 1190 C 117.203 0.591952 -1.59468 0
M  V30 1191 O 118.388 0.513199 -1.87296 0
M  V30 1192 C 115.518 0.510204 -3.43532 0
M  V30 1193 C 114.472 -0.293209 -4.26994 0
M  V30 1194 C 113.798 0.647743 -5.30762 0
M  V30 1195 C 115.098 -1.51634 -4.99804 0
M  V30 1196 H 116.792 -1.13153 -2.77195 0
M  V30 1197 H 114.338 -0.545553 -1.33266 0
M  V30 1198 H 116.291 0.900856 -4.11658 0
M  V30 1199 H 115.015 1.36874 -2.96535 0
M  V30 1200 H 113.674 -0.665555 -3.60508 0
M  V30 1201 H 113.322 1.50299 -4.8002 0
M  V30 1202 H 113.022 0.11422 -5.87489 0
M  V30 1203 H 114.546 1.03567 -6.01753 0
M  V30 1204 H 115.96 -1.19824 -5.60638 0
M  V30 1205 H 114.357 -1.98745 -5.66234 0
M  V30 1206 H 115.427 -2.28018 -4.27943 0
M  V30 1207 N 116.77 1.45427 -0.607355 0
M  V30 1208 C 118 2.06314 -0.108656 0
M  V30 1209 C 118.408 1.45269 1.21217 0
M  V30 1210 O 117.751 0.561115 1.74921 0
M  V30 1211 C 117.813 3.59345 0.105618 0
M  V30 1212 C 117.477 4.42723 -1.13337 0
M  V30 1213 C 118.474 4.77715 -2.05145 0
M  V30 1214 C 116.159 4.83478 -1.36213 0
M  V30 1215 C 118.153 5.52317 -3.18158 0
M  V30 1216 C 115.84 5.57835 -2.49527 0
M  V30 1217 C 116.838 5.92171 -3.40327 0
M  V30 1218 O 116.526 6.65019 -4.51669 0
M  V30 1219 H 116.258 0.672782 -0.0658842 0
M  V30 1220 H 118.812 1.87664 -0.834945 0
M  V30 1221 H 117.042 3.76394 0.886796 0
M  V30 1222 H 118.731 4.02076 0.555886 0
M  V30 1223 H 119.497 4.46787 -1.88697 0
M  V30 1224 H 115.376 4.56188 -0.664362 0
M  V30 1225 H 118.92 5.79036 -3.89054 0
M  V30 1226 H 114.817 5.88177 -2.65928 0
M  V30 1227 H 115.585 6.83469 -4.50348 0
M  V30 1228 N 118.248 0.346503 1.53744 0
M  V30 1229 C 119.178 -0.501193 2.28058 0
M  V30 1230 C 120.159 -1.10014 1.29734 0
M  V30 1231 O 121.344 -1.12097 1.58581 0
M  V30 1232 C 118.474 -1.65078 3.05559 0
M  V30 1233 C 117.428 -1.18003 4.11411 0
M  V30 1234 C 116.754 -2.41837 4.76884 0
M  V30 1235 C 118.054 -0.278394 5.21558 0
M  V30 1236 H 119.748 0.11875 2.99164 0
M  V30 1237 H 117.294 0.0585531 1.43881 0
M  V30 1238 H 119.247 -2.25028 3.56287 0
M  V30 1239 H 117.971 -2.29767 2.32109 0
M  V30 1240 H 116.63 -0.603331 3.61601 0
M  V30 1241 H 116.278 -3.0494 4.00026 0
M  V30 1242 H 115.978 -2.1102 5.48402 0
M  V30 1243 H 117.502 -3.02508 5.30397 0
M  V30 1244 H 118.916 -0.784823 5.67903 0
M  V30 1245 H 117.313 -0.0619707 6.00068 0
M  V30 1246 H 118.383 0.684677 4.80042 0
M  V30 1247 N 119.726 -1.57421 0.075193 0
M  V30 1248 C 120.636 -2.1642 -0.905511 0
M  V30 1249 C 121.652 -1.12828 -1.32461 0
M  V30 1250 O 122.828 -1.45109 -1.39661 0
M  V30 1251 C 119.893 -2.71693 -2.15369 0
M  V30 1252 C 118.954 -3.90171 -1.79068 0
M  V30 1253 C 118.187 -4.42798 -2.97936 0
M  V30 1254 O 118.41 -3.94416 -4.12058 0
M  V30 1255 O 117.344 -5.34085 -2.77555 0
M  V30 1256 H 121.17 -3.00588 -0.433626 0
M  V30 1257 H 118.755 -1.48664 -0.148067 0
M  V30 1258 H 120.637 -3.07104 -2.88557 0
M  V30 1259 H 119.312 -1.90582 -2.61649 0
M  V30 1260 H 118.219 -3.59606 -1.03122 0
M  V30 1261 H 119.552 -4.72584 -1.37569 0
M  V30 1262 N 121.204 0.198386 -1.56346 0
M  V30 1263 C 122.137 1.27381 -1.89339 0
M  V30 1264 C 123.115 1.44106 -0.753134 0
M  V30 1265 O 124.299 1.59549 -1.00381 0
M  V30 1266 C 121.426 2.6409 -2.12071 0
M  V30 1267 C 120.472 2.64253 -3.34772 0
M  V30 1268 S 121.305 2.16013 -4.89999 0
M  V30 1269 C 122.461 3.54553 -5.15794 0
M  V30 1270 H 122.694 0.992058 -2.8026 0
M  V30 1271 H 120.227 0.401726 -1.49082 0
M  V30 1272 H 122.185 3.42786 -2.2585 0
M  V30 1273 H 120.846 2.89478 -1.21906 0
M  V30 1274 H 120.039 3.64768 -3.47794 0
M  V30 1275 H 119.641 1.93637 -3.1997 0
M  V30 1276 H 121.933 4.50396 -5.06112 0
M  V30 1277 H 122.876 3.46428 -6.1757 0
M  V30 1278 H 123.284 3.49313 -4.43442 0
M  V30 1279 N 122.682 1.50554 0.465978 0
M  V30 1280 C 123.907 1.65838 1.24549 0
M  V30 1281 C 124.332 0.343486 1.84937 0
M  V30 1282 O 123.69 -0.69324 1.67523 0
M  V30 1283 C 123.738 2.75533 2.32624 0
M  V30 1284 O 122.842 2.37142 3.37398 0
M  V30 1285 H 122.183 0.553893 0.366194 0
M  V30 1286 H 124.713 1.96959 0.553927 0
M  V30 1287 H 124.723 2.98763 2.77857 0
M  V30 1288 H 123.398 3.70962 1.88043 0
M  V30 1289 H 121.975 2.24377 2.97841 0
M  V30 1290 N 124.16 -0.719506 1.40217 0
M  V30 1291 C 125.385 -1.51371 1.4178 0
M  V30 1292 C 125.81 -1.88091 0.0182355 0
M  V30 1293 O 125.168 -1.52997 -0.972707 0
M  V30 1294 C 125.216 -2.768 2.31115 0
M  V30 1295 O 124.32 -3.73349 1.7517 0
M  V30 1296 H 123.661 -0.456529 0.482159 0
M  V30 1297 H 126.191 -0.88644 1.844 0
M  V30 1298 H 126.201 -3.25371 2.46167 0
M  V30 1299 H 124.876 -2.49407 3.3282 0
M  V30 1300 H 123.453 -3.32179 1.69444 0
M  V30 1301 N 125.638 -1.25649 -0.95132 0
M  V30 1302 C 126.568 -1.08808 -2.06599 0
M  V30 1303 C 127.549 0.00382547 -1.701 0
M  V30 1304 O 128.734 -0.166325 -1.93486 0
M  V30 1305 C 125.864 -0.709542 -3.39975 0
M  V30 1306 C 124.818 -1.75206 -3.90496 0
M  V30 1307 C 124.144 -1.22811 -5.20405 0
M  V30 1308 C 125.444 -3.15153 -4.16504 0
M  V30 1309 H 127.138 -2.02048 -2.20946 0
M  V30 1310 H 124.684 -0.972835 -1.06169 0
M  V30 1311 H 126.637 -0.578649 -4.17408 0
M  V30 1312 H 125.361 0.258556 -3.25575 0
M  V30 1313 H 124.02 -1.87145 -3.15234 0
M  V30 1314 H 123.668 -0.250145 -5.02378 0
M  V30 1315 H 123.368 -1.92492 -5.55176 0
M  V30 1316 H 124.892 -1.10968 -6.00432 0
M  V30 1317 H 126.306 -3.06349 -4.84586 0
M  V30 1318 H 124.703 -3.82333 -4.62538 0
M  V30 1319 H 125.773 -3.61966 -3.22658 0
M  V30 1320 N 127.117 1.15442 -1.07289 0
M  V30 1321 C 128.533 1.38201 -0.798288 0
M  V30 1322 C 128.733 1.92429 0.597769 0
M  V30 1323 O 127.789 2.12962 1.3566 0
M  V30 1324 C 129.102 2.35357 -1.87156 0
M  V30 1325 C 130.65 2.49021 -1.89624 0
M  V30 1326 C 131.125 3.49468 -2.96034 0
M  V30 1327 N 132.616 3.57003 -2.95132 0
M  V30 1328 C 133.351 4.34543 -3.74112 0
M  V30 1329 N 132.847 5.15421 -4.6294 0
M  V30 1330 N 134.64 4.29625 -3.62462 0
M  V30 1331 H 126.791 0.78584 -1.97328 0
M  V30 1332 H 129.054 0.408065 -0.855679 0
M  V30 1333 H 128.76 2.02626 -2.87464 0
M  V30 1334 H 128.634 3.35129 -1.73114 0
M  V30 1335 H 131.021 2.81051 -0.899687 0
M  V30 1336 H 131.102 1.4925 -2.07745 0
M  V30 1337 H 130.746 3.18173 -3.95889 0
M  V30 1338 H 130.676 4.48992 -2.75161 0
M  V30 1339 H 133.167 2.99276 -2.30743 0
M  V30 1340 H 133.48 5.7183 -5.19837 0
M  V30 1341 H 131.825 5.14729 -4.66989 0
M  V30 1342 H 135.016 3.65505 -2.92444 0
M  V30 1343 H 135.189 4.89807 -4.24256 0
M  V30 1344 N 128.595 0.856903 1.32268 0
M  V30 1345 C 129.82 0.474569 2.01897 0
M  V30 1346 C 130.245 -0.921766 1.63967 0
M  V30 1347 O 129.603 -1.60589 0.84148 0
M  V30 1348 C 129.651 0.623799 3.55164 0
M  V30 1349 O 128.755 -0.342459 4.10976 0
M  V30 1350 H 128.096 0.190422 0.63611 0
M  V30 1351 H 130.626 1.15672 1.68764 0
M  V30 1352 H 130.636 0.512169 4.04773 0
M  V30 1353 H 129.311 1.64202 3.82113 0
M  V30 1354 H 127.888 -0.18688 3.72431 0
M  V30 1355 N 130.073 -1.45103 0.615059 0
M  V30 1356 C 130.983 -2.34382 -0.101034 0
M  V30 1357 C 131.999 -1.51681 -0.852585 0
M  V30 1358 O 133.175 -1.8446 -0.808484 0
M  V30 1359 C 130.24 -3.29417 -1.08099 0
M  V30 1360 C 129.301 -4.28025 -0.330577 0
M  V30 1361 C 128.534 -5.1852 -1.26385 0
M  V30 1362 O 128.757 -5.12598 -2.50198 0
M  V30 1363 O 127.691 -5.97122 -0.756866 0
M  V30 1364 H 131.517 -2.97033 0.632855 0
M  V30 1365 H 129.102 -1.4461 0.375293 0
M  V30 1366 H 130.984 -3.87958 -1.6452 0
M  V30 1367 H 129.659 -2.69321 -1.79577 0
M  V30 1368 H 128.566 -3.73078 0.276283 0
M  V30 1369 H 129.899 -4.90997 0.343866 0
M  V30 1370 N 131.551 -0.354651 -1.53558 0
M  V30 1371 C 132.828 0.294281 -1.93374 0
M  V30 1372 C 133.208 1.67313 -1.28723 0
M  V30 1373 O 132.556 2.24179 -0.442247 0
M  V30 1374 C 132.766 0.355445 -3.47185 0
M  V30 1375 C 134.114 0.601007 -4.20325 0
M  V30 1376 O 135.138 0.437106 -3.53508 0
M  V30 1377 O 133.997 0.919322 -5.38712 0
M  V30 1378 H 131.091 0.174033 -0.808481 0
M  V30 1379 H 133.637 -0.406638 -1.64756 0
M  V30 1380 H 132.409 -0.611729 -3.86489 0
M  V30 1381 H 132.032 1.1027 -3.82003 0
M  V30 1382 N 133.029 1.57378 -0.0835403 0
M  V30 1383 C 134.257 1.98263 0.59157 0
M  V30 1384 C 134.672 0.962302 1.62435 0
M  V30 1385 O 134.029 -0.049581 1.82433 0
M  V30 1386 C 134.08 3.39214 1.24965 0
M  V30 1387 O 133.801 4.37339 0.258186 0
M  V30 1388 C 135.302 3.95038 2.01147 0
M  V30 1389 H 132.522 0.651773 0.159477 0
M  V30 1390 H 135.066 2.03878 -0.159415 0
M  V30 1391 H 133.221 3.34649 1.95164 0
M  V30 1392 H 133.635 5.19371 0.731734 0
M  V30 1393 H 135.109 4.95848 2.42567 0
M  V30 1394 H 135.586 3.32222 2.87272 0
M  V30 1395 H 136.192 4.0304 1.35789 0
M  V30 1396 N 134.507 -0.190092 1.56449 0
M  V30 1397 C 135.47 -1.21925 1.9408 0
M  V30 1398 C 136.47 -1.38176 0.822431 0
M  V30 1399 O 137.66 -1.35903 1.08977 0
M  V30 1400 C 134.792 -2.58773 2.21922 0
M  V30 1401 H 135.985 -0.897464 2.86157 0
M  V30 1402 H 133.538 -0.43181 1.50217 0
M  V30 1403 H 134.273 -2.95998 1.32499 0
M  V30 1404 H 134.058 -2.48348 3.03424 0
M  V30 1405 H 135.548 -3.32978 2.52022 0
M  V30 1406 N 135.985 -1.50799 -0.457987 0
M  V30 1407 C 136.918 -1.65273 -1.57353 0
M  V30 1408 C 137.896 -0.500578 -1.54703 0
M  V30 1409 O 139.08 -0.721781 -1.74134 0
M  V30 1410 C 136.207 -1.64737 -2.95938 0
M  V30 1411 C 135.253 -2.8567 -3.16693 0
M  V30 1412 S 136.086 -4.46791 -2.95191 0
M  V30 1413 C 137.242 -4.48968 -4.36095 0
M  V30 1414 H 137.475 -2.59633 -1.44838 0
M  V30 1415 H 135.008 -1.40225 -0.64625 0
M  V30 1416 H 136.966 -1.65112 -3.7583 0
M  V30 1417 H 135.627 -0.715899 -3.05833 0
M  V30 1418 H 134.82 -2.81637 -4.17967 0
M  V30 1419 H 134.422 -2.8293 -2.44594 0
M  V30 1420 H 136.714 -4.23337 -5.28954 0
M  V30 1421 H 137.657 -5.50664 -4.45168 0
M  V30 1422 H 138.065 -3.78522 -4.18786 0
M  V30 1423 N 137.463 0.71206 -1.40597 0
M  V30 1424 C 138.693 1.49894 -1.42181 0
M  V30 1425 C 139.101 1.89189 -0.0208078 0
M  V30 1426 O 138.444 1.56223 0.966436 0
M  V30 1427 C 138.506 2.80215 -2.25211 0
M  V30 1428 C 138.17 2.63221 -3.73582 0
M  V30 1429 C 139.167 2.30249 -4.66135 0
M  V30 1430 C 136.852 2.79376 -4.17438 0
M  V30 1431 C 138.846 2.13645 -6.00529 0
M  V30 1432 C 136.533 2.6239 -5.51901 0
M  V30 1433 C 137.531 2.29573 -6.43262 0
M  V30 1434 O 137.219 2.12719 -7.75246 0
M  V30 1435 H 136.951 0.469031 -0.486812 0
M  V30 1436 H 139.505 0.88564 -1.85326 0
M  V30 1437 H 137.735 3.4389 -1.76852 0
M  V30 1438 H 139.424 3.41947 -2.18694 0
M  V30 1439 H 140.19 2.17398 -4.33547 0
M  V30 1440 H 136.069 3.03906 -3.46644 0
M  V30 1441 H 139.613 1.87953 -6.71803 0
M  V30 1442 H 135.51 2.74826 -5.84073 0
M  V30 1443 H 136.278 2.27611 -7.86216 0
M  V30 1444 N 138.941 1.26152 0.944643 0
M  V30 1445 C 140.171 1.14094 1.72239 0
M  V30 1446 C 140.579 -0.306931 1.86694 0
M  V30 1447 O 139.922 -1.22222 1.3714 0
M  V30 1448 C 139.984 1.73316 3.14963 0
M  V30 1449 C 139.648 3.2239 3.23904 0
M  V30 1450 C 140.645 4.19252 3.07447 0
M  V30 1451 C 138.33 3.62788 3.47405 0
M  V30 1452 C 140.324 5.54491 3.14353 0
M  V30 1453 C 138.011 4.98162 3.53947 0
M  V30 1454 C 139.009 5.93823 3.37436 0
M  V30 1455 O 138.697 7.26732 3.43679 0
M  V30 1456 H 138.429 0.398292 0.546205 0
M  V30 1457 H 140.983 1.67201 1.19301 0
M  V30 1458 H 139.213 1.14667 3.69308 0
M  V30 1459 H 140.902 1.56214 3.74636 0
M  V30 1460 H 141.668 3.8938 2.8915 0
M  V30 1461 H 137.547 2.88816 3.59313 0
M  V30 1462 H 141.091 6.29137 3.01384 0
M  V30 1463 H 136.988 5.27695 3.71763 0
M  V30 1464 H 137.756 7.3496 3.60245 0
M  V30 1465 N 140.419 -1.14872 1.07899 0
M  V30 1466 C 141.659 -1.8745 0.814965 0
M  V30 1467 C 142.023 -1.80758 -0.64733 0
M  V30 1468 O 143.224 -2.48422 -1.02664 0
M  V30 1469 C 141.495 -3.32286 1.31607 0
M  V30 1470 S 143.054 -4.22537 1.18357 0
M  V30 1471 H 139.872 -0.646833 0.295174 0
M  V30 1472 H 142.474 -1.38555 1.37923 0
M  V30 1473 H 141.178 -3.34703 2.37491 0
M  V30 1474 H 140.709 -3.86238 0.747261 0
M  V30 1475 H 142.724 -4.96044 0.124586 0
M  V30 1476 N 141.898 -0.863906 -1.31812 0
M  V30 1477 C 142.861 -0.320212 -2.26952 0
M  V30 1478 C 143.861 0.525369 -1.51975 0
M  V30 1479 O 145.051 0.335547 -1.70938 0
M  V30 1480 C 142.183 0.545919 -3.365 0
M  V30 1481 H 143.376 -1.16004 -2.76556 0
M  V30 1482 H 140.929 -0.638995 -1.42641 0
M  V30 1483 H 141.664 1.40718 -2.92179 0
M  V30 1484 H 141.449 -0.0594674 -3.92055 0
M  V30 1485 H 142.939 0.918796 -4.07367 0
M  V30 1486 N 143.376 1.44774 -0.622745 0
M  V30 1487 C 144.792 1.56986 -0.287652 0
M  V30 1488 C 144.992 1.61167 1.20944 0
M  V30 1489 O 144.048 1.55015 1.99315 0
M  V30 1490 C 145.361 2.84551 -0.972188 0
M  V30 1491 C 146.909 2.9825 -0.949536 0
M  V30 1492 C 147.384 4.28605 -1.61437 0
M  V30 1493 N 148.875 4.35399 -1.58057 0
M  V30 1494 C 149.61 5.34964 -2.064 0
M  V30 1495 N 149.106 6.40981 -2.62897 0
M  V30 1496 N 150.899 5.26419 -1.97078 0
M  V30 1497 H 143.05 1.40304 -1.59463 0
M  V30 1498 H 145.313 0.671794 -0.668878 0
M  V30 1499 H 145.019 2.87417 -2.02693 0
M  V30 1500 H 144.893 3.73807 -0.504771 0
M  V30 1501 H 147.28 2.94941 0.0967067 0
M  V30 1502 H 147.361 2.10364 -1.45536 0
M  V30 1503 H 147.005 4.32672 -2.66002 0
M  V30 1504 H 146.935 5.15334 -1.08344 0
M  V30 1505 H 149.426 3.59397 -1.16801 0
M  V30 1506 H 149.739 7.13225 -2.97539 0
M  V30 1507 H 148.084 6.4169 -2.66943 0
M  V30 1508 H 151.275 4.42504 -1.52669 0
M  V30 1509 H 151.448 6.03861 -2.35066 0
M  V30 1510 N 144.854 0.36279 1.53368 0
M  V30 1511 C 146.102 -0.227326 2.00817 0
M  V30 1512 C 146.423 -1.49511 1.25186 0
M  V30 1513 O 145.693 -1.92482 0.364348 0
M  V30 1514 H 144.273 -0.0869923 0.741917 0
M  V30 1515 H 146.935 0.488381 1.88682 0
M  V30 1516 H 146.031 -0.456273 3.08747 0
M  V30 1517 N 146.332 -1.57332 0.0918853 0
M  V30 1518 C 147.262 -2.16872 -0.865371 0
M  V30 1519 C 148.243 -1.10118 -1.29646 0
M  V30 1520 O 149.428 -1.38242 -1.36392 0
M  V30 1521 C 146.558 -2.74649 -2.12569 0
M  V30 1522 C 145.512 -3.86747 -1.83333 0
M  V30 1523 C 144.838 -4.31212 -3.16166 0
M  V30 1524 C 146.138 -5.10089 -1.1228 0
M  V30 1525 H 147.832 -2.97114 -0.369307 0
M  V30 1526 H 145.378 -1.42918 -0.176194 0
M  V30 1527 H 147.331 -3.14952 -2.7997 0
M  V30 1528 H 146.055 -1.91657 -2.64452 0
M  V30 1529 H 144.714 -3.46978 -1.18331 0
M  V30 1530 H 144.362 -3.45115 -3.6593 0
M  V30 1531 H 144.062 -5.06788 -2.97388 0
M  V30 1532 H 145.586 -4.74146 -3.84731 0
M  V30 1533 H 147 -5.47582 -1.69785 0
M  V30 1534 H 145.397 -5.91073 -1.03693 0
M  V30 1535 H 146.467 -4.84786 -0.105041 0
M  V30 1536 N 147.81 0.181792 -1.56548 0
M  V30 1537 C 149.056 0.896803 -1.82562 0
M  V30 1538 C 149.411 1.80324 -0.670908 0
M  V30 1539 O 148.704 1.8868 0.333235 0
M  V30 1540 C 148.898 1.73728 -3.12335 0
M  V30 1541 C 148.727 0.913714 -4.4032 0
M  V30 1542 C 147.497 0.592903 -5.01809 0
M  V30 1543 C 149.695 0.260164 -5.13642 0
M  V30 1544 N 147.677 -0.247901 -6.13399 0
M  V30 1545 C 149.048 -0.442256 -6.18421 0
M  V30 1546 C 151.103 0.177253 -4.97584 0
M  V30 1547 C 149.806 -1.21971 -7.08883 0
M  V30 1548 C 151.832 -0.586839 -5.88481 0
M  V30 1549 C 151.194 -1.27766 -6.92716 0
M  V30 1550 H 147.293 0.307122 -0.719166 0
M  V30 1551 H 149.877 0.164535 -1.94004 0
M  V30 1552 H 148.048 2.44105 -3.02105 0
M  V30 1553 H 149.78 2.39279 -3.26386 0
M  V30 1554 H 146.535 0.920502 -4.64568 0
M  V30 1555 H 146.959 -0.658304 -6.73792 0
M  V30 1556 H 151.601 0.696993 -4.17015 0
M  V30 1557 H 149.319 -1.75083 -7.88905 0
M  V30 1558 H 152.905 -0.652522 -5.78129 0
M  V30 1559 H 151.785 -1.85943 -7.61836 0
M  V30 1560 N 149.288 1.51039 0.449983 0
M  V30 1561 C 150.536 1.62759 1.19808 0
M  V30 1562 C 150.857 0.339981 1.92013 0
M  V30 1563 O 150.127 -0.643606 1.85026 0
M  V30 1564 H 148.707 0.599811 0.445237 0
M  V30 1565 H 151.369 1.87914 0.517138 0
M  V30 1566 H 150.465 2.44911 1.93455 0
M  V30 1567 N 150.766 -0.704594 1.40972 0
M  V30 1568 C 151.996 -1.49138 1.42974 0
M  V30 1569 C 152.404 -1.89175 0.0308406 0
M  V30 1570 O 151.747 -1.56734 -0.958138 0
M  V30 1571 C 151.809 -2.79016 2.26694 0
M  V30 1572 C 151.473 -2.61236 3.74973 0
M  V30 1573 C 152.47 -2.27773 4.67349 0
M  V30 1574 C 150.155 -2.77158 4.18914 0
M  V30 1575 C 152.149 -2.10457 6.01653 0
M  V30 1576 C 149.836 -2.59459 5.53285 0
M  V30 1577 C 150.834 -2.26158 6.4447 0
M  V30 1578 O 150.522 -2.08605 7.76363 0
M  V30 1579 H 150.254 -0.466443 0.489292 0
M  V30 1580 H 152.808 -0.8758 1.85793 0
M  V30 1581 H 151.038 -3.42947 1.78673 0
M  V30 1582 H 152.727 -3.40782 2.20504 0
M  V30 1583 H 153.493 -2.15095 4.34694 0
M  V30 1584 H 149.372 -3.02064 3.48251 0
M  V30 1585 H 152.916 -1.84387 6.72791 0
M  V30 1586 H 148.813 -2.71725 5.85522 0
M  V30 1587 H 149.581 -2.23439 7.87412 0
M  V30 1588 N 152.244 -1.26651 -0.937939 0
M  V30 1589 C 153.474 -1.15006 -1.71631 0
M  V30 1590 C 153.882 0.297026 -1.86854 0
M  V30 1591 O 153.225 1.21493 -1.37786 0
M  V30 1592 C 153.287 -1.74984 -3.14039 0
M  V30 1593 C 152.951 -3.24103 -3.2219 0
M  V30 1594 C 153.948 -4.20877 -3.05219 0
M  V30 1595 C 151.633 -3.64625 -3.45476 0
M  V30 1596 C 153.627 -5.56151 -3.11408 0
M  V30 1597 C 151.314 -5.00032 -3.513 0
M  V30 1598 C 152.312 -5.95604 -3.34282 0
M  V30 1599 O 152 -7.28545 -3.3982 0
M  V30 1600 H 151.732 -0.401183 -0.544085 0
M  V30 1601 H 154.286 -1.67832 -1.18413 0
M  V30 1602 H 152.516 -1.16624 -3.68695 0
M  V30 1603 H 154.205 -1.58199 -3.73802 0
M  V30 1604 H 154.971 -3.90908 -2.87081 0
M  V30 1605 H 150.85 -2.90718 -3.57777 0
M  V30 1606 H 154.394 -6.30727 -2.98043 0
M  V30 1607 H 150.291 -5.29659 -3.68959 0
M  V30 1608 H 151.059 -7.3686 -3.56343 0
M  V30 1609 N 153.722 1.14298 -1.08507 0
M  V30 1610 C 154.685 2.17607 -0.719711 0
M  V30 1611 C 155.685 1.58907 0.245997 0
M  V30 1612 O 156.875 1.74181 0.0254081 0
M  V30 1613 C 154.007 3.40842 -0.0627695 0
M  V30 1614 H 155.2 2.51443 -1.63452 0
M  V30 1615 H 152.753 1.28963 -0.88307 0
M  V30 1616 H 153.488 3.12587 0.863716 0
M  V30 1617 H 153.273 3.84713 -0.757504 0
M  V30 1618 H 154.763 4.17221 0.177786 0
M  V30 1619 N 155.201 0.870884 1.31352 0
M  V30 1620 C 156.131 0.343096 2.30966 0
M  V30 1621 C 157.112 -0.566507 1.60389 0
M  V30 1622 O 158.297 -0.483336 1.88089 0
M  V30 1623 C 155.427 -0.455487 3.443 0
M  V30 1624 C 154.381 0.361103 4.26474 0
M  V30 1625 C 153.707 -0.563221 5.31725 0
M  V30 1626 C 155.007 1.59566 4.97329 0
M  V30 1627 H 156.701 1.17548 2.75359 0
M  V30 1628 H 154.247 0.566686 1.32381 0
M  V30 1629 H 156.2 -0.83525 4.13039 0
M  V30 1630 H 154.924 -1.32139 2.98675 0
M  V30 1631 H 153.583 0.722825 3.59403 0
M  V30 1632 H 153.231 -1.42643 4.82351 0
M  V30 1633 H 152.931 -0.0207409 5.87596 0
M  V30 1634 H 154.455 -0.939808 6.03324 0
M  V30 1635 H 155.869 1.28728 5.58661 0
M  V30 1636 H 154.266 2.07728 5.63 0
M  V30 1637 H 155.336 2.34798 4.24262 0
M  V30 1638 N 156.679 -1.44442 0.630414 0
M  V30 1639 C 157.956 -1.9549 0.0655657 0
M  V30 1640 C 158.336 -1.5724 -1.40851 0
M  V30 1641 O 157.684 -0.846116 -2.12257 0
M  V30 1642 C 157.894 -3.47812 0.287691 0
M  V30 1643 C 159.242 -4.24216 0.180513 0
M  V30 1644 O 160.266 -3.55526 0.219019 0
M  V30 1645 O 159.125 -5.46434 0.0848493 0
M  V30 1646 H 156.219 -0.826688 -0.0227177 0
M  V30 1647 H 158.765 -1.54496 0.702068 0
M  V30 1648 H 157.537 -3.687 1.31056 0
M  V30 1649 H 157.16 -3.95751 -0.382984 0
M  V30 1650 N 158.157 -0.370918 -1.53173 0
M  V30 1651 C 159.387 0.217389 -2.05453 0
M  V30 1652 C 159.795 1.42568 -1.24382 0
M  V30 1653 O 159.138 1.81571 -0.278839 0
M  V30 1654 C 159.2 0.669827 -3.53205 0
M  V30 1655 C 158.864 -0.4225 -4.55043 0
M  V30 1656 C 159.861 -1.27407 -5.04047 0
M  V30 1657 C 157.546 -0.58427 -4.9889 0
M  V30 1658 C 159.54 -2.27271 -5.95505 0
M  V30 1659 C 157.227 -1.58627 -5.90153 0
M  V30 1660 C 158.225 -2.42892 -6.38351 0
M  V30 1661 O 157.913 -3.41382 -7.27814 0
M  V30 1662 H 157.645 0.0408171 -0.674767 0
M  V30 1663 H 160.199 -0.5292 -1.98466 0
M  V30 1664 H 158.429 1.4681 -3.57748 0
M  V30 1665 H 160.118 1.18173 -3.88317 0
M  V30 1666 H 160.884 -1.16031 -4.70916 0
M  V30 1667 H 156.763 0.061851 -4.60959 0
M  V30 1668 H 160.307 -2.93079 -6.33049 0
M  V30 1669 H 156.204 -1.70048 -6.22699 0
M  V30 1670 H 156.972 -3.37173 -7.45826 0
M  V30 1671 N 159.635 1.57281 -0.100228 0
M  V30 1672 C 160.881 1.95626 0.556946 0
M  V30 1673 C 161.236 0.981655 1.65473 0
M  V30 1674 O 160.529 0.00849847 1.91598 0
M  V30 1675 C 160.723 3.38305 1.15259 0
M  V30 1676 C 160.552 4.49555 0.114035 0
M  V30 1677 C 159.322 5.0434 -0.311266 0
M  V30 1678 C 161.52 5.10051 -0.659768 0
M  V30 1679 N 159.502 5.99152 -1.33755 0
M  V30 1680 C 160.873 6.00628 -1.53774 0
M  V30 1681 C 162.928 4.92772 -0.712723 0
M  V30 1682 C 161.631 6.7578 -2.46403 0
M  V30 1683 C 163.657 5.6859 -1.62663 0
M  V30 1684 C 163.019 6.58838 -2.49222 0
M  V30 1685 H 159.118 0.7624 0.173982 0
M  V30 1686 H 161.702 1.93829 -0.183988 0
M  V30 1687 H 159.873 3.40786 1.86332 0
M  V30 1688 H 161.605 3.63817 1.77254 0
M  V30 1689 H 158.36 4.73537 0.0774812 0
M  V30 1690 H 158.784 6.5126 -1.84905 0
M  V30 1691 H 163.426 4.22761 -0.0576648 0
M  V30 1692 H 161.144 7.4505 -3.12931 0
M  V30 1693 H 164.73 5.57233 -1.67281 0
M  V30 1694 H 163.61 7.16479 -3.18791 0
M  V30 1695 N 161.113 -0.173488 1.56642 0
M  V30 1696 C 162.361 -0.888706 1.81512 0
M  V30 1697 C 162.682 -1.82875 0.676872 0
M  V30 1698 O 161.952 -1.93536 -0.303414 0
M  V30 1699 H 160.532 -0.331164 0.669582 0
M  V30 1700 H 163.194 -0.173823 1.94123 0
M  V30 1701 H 162.29 -1.46691 2.75478 0
M  V30 1702 N 162.591 -1.51276 -0.441967 0
M  V30 1703 C 163.523 -1.68444 -1.55433 0
M  V30 1704 C 164.536 -0.565187 -1.52674 0
M  V30 1705 O 165.725 -0.839356 -1.57534 0
M  V30 1706 C 162.825 -1.67966 -2.94348 0
M  V30 1707 C 161.998 -2.964 -3.21661 0
M  V30 1708 C 161.057 -2.88171 -4.40277 0
M  V30 1709 O 160.083 -3.62119 -4.39157 0
M  V30 1710 N 161.285 -2.03706 -5.43584 0
M  V30 1711 H 164.05 -2.644 -1.41112 0
M  V30 1712 H 161.611 -1.49104 -0.630838 0
M  V30 1713 H 163.603 -1.60035 -3.71713 0
M  V30 1714 H 162.173 -0.796225 -3.0229 0
M  V30 1715 H 161.393 -3.18234 -2.32638 0
M  V30 1716 H 162.681 -3.81427 -3.36736 0
M  V30 1717 H 162.079 -1.42995 -5.47329 0
M  V30 1718 H 160.636 -2.01658 -6.1982 0
M  V30 1719 N 164.069 0.697108 -1.41344 0
M  V30 1720 C 165.317 1.45426 -1.40341 0
M  V30 1721 C 165.638 1.94996 -0.0128787 0
M  V30 1722 O 164.908 1.71599 0.945027 0
M  V30 1723 H 163.488 0.539594 -0.516573 0
M  V30 1724 H 166.15 0.825201 -1.76569 0
M  V30 1725 H 165.246 2.31817 -2.08967 0
M  V30 1726 N 165.547 1.27147 0.931209 0
M  V30 1727 C 166.775 1.16082 1.71267 0
M  V30 1728 C 167.19 -0.282772 1.8667 0
M  V30 1729 O 166.547 -1.19283 1.38122 0
M  V30 1730 C 166.598 1.8358 3.11417 0
M  V30 1731 O 166.319 3.22299 2.96741 0
M  V30 1732 C 167.82 1.78597 4.05732 0
M  V30 1733 H 165.04 0.403758 0.535929 0
M  V30 1734 H 167.584 1.67953 1.16671 0
M  V30 1735 H 165.739 1.35623 3.62885 0
M  V30 1736 H 166.153 3.55851 3.85319 0
M  V30 1737 H 167.627 2.30444 5.01597 0
M  V30 1738 H 168.104 0.754564 4.3267 0
M  V30 1739 H 168.71 2.26152 3.60188 0
M  V30 1740 N 167.025 -1.13721 1.09112 0
M  V30 1741 C 168.25 -1.89314 0.847053 0
M  V30 1742 C 168.675 -1.78416 -0.595774 0
M  V30 1743 O 168.033 -1.12942 -1.41823 0
M  V30 1744 C 168.081 -3.3701 1.28284 0
M  V30 1745 O 167.185 -4.10054 0.439267 0
M  V30 1746 H 166.526 -0.588745 0.307044 0
M  V30 1747 H 169.056 -1.43902 1.45442 0
M  V30 1748 H 169.066 -3.87834 1.26683 0
M  V30 1749 H 167.741 -3.4426 2.33363 0
M  V30 1750 H 166.318 -3.69266 0.519312 0
M  V30 1751 N 168.503 -0.877838 -1.30888 0
M  V30 1752 C 169.749 -0.493426 -1.96706 0
M  V30 1753 C 170.082 0.953504 -1.6918 0
M  V30 1754 O 169.357 1.67266 -0.992594 0
M  V30 1755 C 169.64 -0.760429 -3.51979 0
M  V30 1756 C 169.493 -2.25747 -3.89048 0
M  V30 1757 C 170.812 -0.232148 -4.39487 0
M  V30 1758 H 167.931 -0.180746 -0.714493 0
M  V30 1759 H 170.573 -1.10052 -1.54882 0
M  V30 1760 H 168.723 -0.243715 -3.87735 0
M  V30 1761 H 170.395 -2.84204 -3.63354 0
M  V30 1762 H 168.638 -2.72694 -3.37373 0
M  V30 1763 H 169.309 -2.39491 -4.97341 0
M  V30 1764 H 171.785 -0.674314 -4.106 0
M  V30 1765 H 170.661 -0.448355 -5.47066 0
M  V30 1766 H 170.922 0.866297 -4.33529 0
M  V30 1767 N 169.982 1.44106 -0.638065 0
M  V30 1768 C 171.21 2.06336 -0.152615 0
M  V30 1769 C 171.625 1.47731 1.17563 0
M  V30 1770 O 170.982 0.602806 1.72257 0
M  V30 1771 C 171.033 3.61479 -0.0391491 0
M  V30 1772 O 170.754 4.17903 -1.31487 0
M  V30 1773 C 172.255 4.40757 0.474176 0
M  V30 1774 H 169.475 0.665862 -0.0828776 0
M  V30 1775 H 172.019 1.84862 -0.87443 0
M  V30 1776 H 170.174 3.82191 0.633142 0
M  V30 1777 H 170.588 5.11416 -1.16421 0
M  V30 1778 H 172.062 5.49707 0.502562 0
M  V30 1779 H 172.539 4.12697 1.50258 0
M  V30 1780 H 173.145 4.24979 -0.165102 0
M  V30 1781 N 171.46 0.379036 1.52974 0
M  V30 1782 C 172.706 -0.206727 2.01744 0
M  V30 1783 C 173.039 -1.47314 1.26539 0
M  V30 1784 O 172.314 -1.91084 0.362903 0
M  V30 1785 C 172.597 -0.485066 3.56818 0
M  V30 1786 C 172.45 0.795919 4.42702 0
M  V30 1787 C 173.769 -1.28003 4.21074 0
M  V30 1788 H 170.888 -0.0736607 0.73331 0
M  V30 1789 H 173.53 0.506581 1.83122 0
M  V30 1790 H 171.68 -1.09272 3.72816 0
M  V30 1791 H 173.352 1.43307 4.38476 0
M  V30 1792 H 171.595 1.41344 4.10127 0
M  V30 1793 H 172.266 0.555947 5.49193 0
M  V30 1794 H 174.742 -0.765867 4.08991 0
M  V30 1795 H 173.618 -1.44352 5.29579 0
M  V30 1796 H 173.879 -2.29236 3.78026 0
M  V30 1797 N 172.938 -1.57226 0.108567 0
M  V30 1798 C 174.163 -1.99604 -0.563303 0
M  V30 1799 C 174.588 -0.987563 -1.6009 0
M  V30 1800 O 173.946 0.0421687 -1.81251 0
M  V30 1801 C 173.994 -3.40902 -1.17552 0
M  V30 1802 O 173.098 -3.42896 -2.2912 0
M  V30 1803 H 172.439 -0.648704 -0.1417 0
M  V30 1804 H 174.969 -2.03679 0.193961 0
M  V30 1805 H 174.979 -3.78886 -1.51357 0
M  V30 1806 H 173.654 -4.1382 -0.415445 0
M  V30 1807 H 172.231 -3.1672 -1.96832 0
M  V30 1808 N 174.416 0.165178 -1.56732 0
M  V30 1809 C 175.641 0.900253 -1.86843 0
M  V30 1810 C 176.066 1.74766 -0.695596 0
M  V30 1811 O 175.424 1.77786 0.35522 0
M  V30 1812 C 175.472 1.74777 -3.15413 0
M  V30 1813 O 174.576 2.85007 -2.98068 0
M  V30 1814 H 173.917 0.251832 -0.614391 0
M  V30 1815 H 176.447 0.161468 -2.03962 0
M  V30 1816 H 176.457 2.14646 -3.46974 0
M  V30 1817 H 175.132 1.12537 -4.00385 0
M  V30 1818 H 173.709 2.48676 -2.77875 0
M  V30 1819 N 175.894 1.51508 0.433938 0
M  V30 1820 C 176.857 1.72473 1.50949 0
M  V30 1821 C 177.857 0.594725 1.49398 0
M  V30 1822 O 179.047 0.862315 1.5136 0
M  V30 1823 C 176.179 1.78431 2.90474 0
M  V30 1824 H 177.372 2.68467 1.33662 0
M  V30 1825 H 174.925 1.41549 0.662836 0
M  V30 1826 H 175.66 0.842645 3.13161 0
M  V30 1827 H 175.445 2.60558 2.93005 0
M  V30 1828 H 176.935 1.96479 3.68491 0
M  V30 1829 N 177.372 -0.689602 1.41712 0
M  V30 1830 C 178.597 -1.48329 1.44959 0
M  V30 1831 C 179.022 -1.8801 0.0581283 0
M  V30 1832 O 178.38 -1.55026 -0.940035 0
M  V30 1833 C 178.428 -2.71835 2.36935 0
M  V30 1834 O 177.532 -3.69549 1.8305 0
M  V30 1835 H 176.873 -0.446199 0.491734 0
M  V30 1836 H 179.403 -0.847127 1.86239 0
M  V30 1837 H 179.413 -3.20076 2.53013 0
M  V30 1838 H 178.088 -2.42291 3.38035 0
M  V30 1839 H 176.665 -3.2851 1.76452 0
M  V30 1840 N 178.85 -1.27639 -0.924453 0
M  V30 1841 C 180.078 -1.16989 -1.70649 0
M  V30 1842 C 180.493 0.272869 -1.86818 0
M  V30 1843 O 179.85 1.18549 -1.38753 0
M  V30 1844 C 179.901 -1.85229 -3.10439 0
M  V30 1845 O 179.622 -3.23868 -2.95028 0
M  V30 1846 C 181.123 -1.80746 -4.04779 0
M  V30 1847 H 178.343 -0.406595 -0.53378 0
M  V30 1848 H 180.887 -1.68569 -1.15778 0
M  V30 1849 H 179.042 -1.37545 -3.6216 0
M  V30 1850 H 179.456 -3.57889 -3.83426 0
M  V30 1851 H 180.93 -2.33101 -5.00368 0
M  V30 1852 H 181.407 -0.777499 -4.32263 0
M  V30 1853 H 182.013 -2.28059 -3.58984 0
M  V30 1854 N 180.328 1.1314 -1.09713 0
M  V30 1855 C 181.275 2.18642 -0.739196 0
M  V30 1856 C 182.245 1.63706 0.280978 0
M  V30 1857 O 183.43 1.90111 0.161946 0
M  V30 1858 C 180.57 3.44685 -0.169102 0
M  V30 1859 C 179.683 4.13711 -1.24367 0
M  V30 1860 C 178.818 5.27379 -0.636019 0
M  V30 1861 C 177.857 5.88259 -1.69169 0
M  V30 1862 N 176.994 6.93352 -1.10485 0
M  V30 1863 H 181.834 2.48607 -1.64312 0
M  V30 1864 H 179.371 1.22066 -0.820875 0
M  V30 1865 H 181.329 4.16815 0.179256 0
M  V30 1866 H 179.959 3.15161 0.698079 0
M  V30 1867 H 179.011 3.39835 -1.70927 0
M  V30 1868 H 180.323 4.55037 -2.04311 0
M  V30 1869 H 179.477 6.06238 -0.236677 0
M  V30 1870 H 178.216 4.8731 0.194928 0
M  V30 1871 H 177.221 5.08092 -2.10055 0
M  V30 1872 H 178.446 6.30399 -2.52536 0
M  V30 1873 H 176.392 6.55335 -0.295234 0
M  V30 1874 H 176.309 7.33236 -1.84121 0
M  V30 1875 H 177.577 7.76057 -0.73181 0
M  V30 1876 N 181.806 0.884767 1.30421 0
M  V30 1877 C 183.054 0.502112 1.95763 0
M  V30 1878 C 183.375 -0.951815 1.70192 0
M  V30 1879 O 182.645 -1.6692 1.0254 0
M  V30 1880 H 181.225 0.182694 0.724315 0
M  V30 1881 H 183.887 1.1278 1.58955 0
M  V30 1882 H 182.983 0.672188 3.04775 0
M  V30 1883 N 183.284 -1.43765 0.645699 0
M  V30 1884 C 184.695 -1.85193 0.236719 0
M  V30 1885 C 185.046 -1.54045 -1.21509 0
M  V30 1886 O 184.171 -0.985694 -1.92647 0
M  V30 1887 C 184.766 -3.36151 0.422845 0
M  V30 1888 C 183.325 -3.76338 0.0682492 0
M  V30 1889 C 182.472 -2.67538 0.729306 0
M  V30 1890 H 185.423 -1.34025 0.849883 0
M  V30 1891 H 185.444 -3.79032 -0.333904 0
M  V30 1892 H 184.956 -3.5879 1.47958 0
M  V30 1893 H 183.057 -3.59312 -0.986179 0
M  V30 1894 H 183.17 -4.76603 0.488469 0
M  V30 1895 H 181.534 -2.54176 0.163235 0
M  V30 1896 H 182.317 -2.93006 1.78892 0
M  V30 1897 N 184.763 -0.387143 -1.52771 0
M  V30 1898 C 185.988 0.198407 -2.06449 0
M  V30 1899 C 186.413 1.39918 -1.25716 0
M  V30 1900 O 185.771 1.79099 -0.281657 0
M  V30 1901 C 185.819 0.548893 -3.56398 0
M  V30 1902 O 184.923 1.64315 -3.78252 0
M  V30 1903 H 184.264 0.0237731 -0.663574 0
M  V30 1904 H 186.794 -0.553989 -1.96957 0
M  V30 1905 H 186.804 0.813812 -3.99801 0
M  V30 1906 H 185.479 -0.329005 -4.14597 0
M  V30 1907 H 184.056 1.37211 -3.46738 0
M  V30 1908 N 186.241 1.57166 -0.116904 0
M  V30 1909 C 187.487 1.95412 0.542405 0
M  V30 1910 C 187.82 1.00019 1.66463 0
M  V30 1911 O 187.095 0.0370346 1.94465 0
M  V30 1912 C 187.378 3.43615 1.07708 0
M  V30 1913 C 187.231 4.49781 -0.0415868 0
M  V30 1914 C 188.55 3.93616 1.96861 0
M  V30 1915 H 185.669 0.710543 0.195696 0
M  V30 1916 H 188.311 1.89027 -0.192038 0
M  V30 1917 H 186.461 3.49187 1.70296 0
M  V30 1918 H 188.133 4.56308 -0.676793 0
M  V30 1919 H 186.376 4.28033 -0.705019 0
M  V30 1920 H 187.047 5.50733 0.373717 0
M  V30 1921 H 189.523 3.90335 1.44146 0
M  V30 1922 H 188.399 4.97838 2.3119 0
M  V30 1923 H 188.66 3.34188 2.89432 0
M  V30 1924 N 187.719 -0.156864 1.56817 0
M  V30 1925 C 188.966 -0.871125 1.82805 0
M  V30 1926 C 189.294 -1.81611 0.696262 0
M  V30 1927 O 188.549 -1.93141 -0.315459 0
M  V30 1928 C 188.848 -1.68737 3.1506 0
M  V30 1929 C 188.514 -0.890045 4.42028 0
M  V30 1930 C 187.176 -0.670042 4.76512 0
M  V30 1931 C 189.528 -0.331769 5.20143 0
M  V30 1932 C 186.856 0.119104 5.86579 0
M  V30 1933 C 189.208 0.444365 6.31037 0
M  V30 1934 C 187.872 0.675035 6.64078 0
M  V30 1935 H 187.142 -0.318767 0.668931 0
M  V30 1936 H 189.789 -0.135274 1.91022 0
M  V30 1937 H 188.094 -2.49304 3.0225 0
M  V30 1938 H 189.791 -2.24331 3.3238 0
M  V30 1939 H 186.381 -1.07157 4.14988 0
M  V30 1940 H 190.565 -0.489043 4.93885 0
M  V30 1941 H 185.821 0.307417 6.10627 0
M  V30 1942 H 189.995 0.884139 6.90765 0
M  V30 1943 H 187.622 1.28839 7.49203 0
M  V30 1944 N 189.197 -1.51736 -0.425897 0
M  V30 1945 C 190.608 -1.5732 -1.00536 0
M  V30 1946 C 190.959 -0.403537 -1.92005 0
M  V30 1947 O 190.084 0.478256 -2.11049 0
M  V30 1948 C 190.679 -2.85119 -1.8301 0
M  V30 1949 C 189.238 -2.93236 -2.35987 0
M  V30 1950 C 188.385 -2.52098 -1.15508 0
M  V30 1951 H 191.336 -1.57348 -0.206739 0
M  V30 1952 H 191.357 -2.69526 -2.68581 0
M  V30 1953 H 190.869 -3.7023 -1.16411 0
M  V30 1954 H 188.97 -2.12581 -3.06007 0
M  V30 1955 H 189.083 -3.9713 -2.68001 0
M  V30 1956 H 187.447 -2.05558 -1.50393 0
M  V30 1957 H 188.23 -3.39565 -0.505014 0
M  V30 1958 N 190.675 0.682077 -1.42076 0
M  V30 1959 C 191.605 1.80796 -1.47767 0
M  V30 1960 C 192.586 1.6677 -0.334954 0
M  V30 1961 O 193.771 1.863 -0.548264 0
M  V30 1962 C 190.901 3.19038 -1.37229 0
M  V30 1963 C 189.855 3.47789 -2.49453 0
M  V30 1964 C 189.181 4.8553 -2.23975 0
M  V30 1965 C 190.481 3.45411 -3.91776 0
M  V30 1966 H 192.175 1.7629 -2.41997 0
M  V30 1967 H 189.721 0.846721 -1.16476 0
M  V30 1968 H 191.674 3.97528 -1.39821 0
M  V30 1969 H 190.398 3.24204 -0.394907 0
M  V30 1970 H 189.057 2.71657 -2.46166 0
M  V30 1971 H 188.705 4.87337 -1.24547 0
M  V30 1972 H 188.405 5.0573 -2.99184 0
M  V30 1973 H 189.929 5.66312 -2.28304 0
M  V30 1974 H 191.343 4.13882 -3.96705 0
M  V30 1975 H 189.74 3.77145 -4.66778 0
M  V30 1976 H 190.81 2.44122 -4.18966 0
M  V30 1977 N 192.153 1.28127 0.917671 0
M  V30 1978 C 193.116 1.11744 2.00115 0
M  V30 1979 C 194.116 0.0583052 1.60694 0
M  V30 1980 O 195.306 0.303755 1.71531 0
M  V30 1981 C 192.438 0.704862 3.33533 0
M  V30 1982 H 193.631 2.07966 2.16079 0
M  V30 1983 H 191.184 1.11058 1.09981 0
M  V30 1984 H 191.919 -0.258299 3.2327 0
M  V30 1985 H 191.704 1.4699 3.63505 0
M  V30 1986 H 193.194 0.612768 4.1308 0
M  V30 1987 N 193.631 -1.12557 1.10312 0
M  V30 1988 C 195.042 -1.65574 0.862678 0
M  V30 1989 C 195.393 -1.86566 -0.607256 0
M  V30 1990 O 194.518 -1.59121 -1.46662 0
M  V30 1991 C 195.113 -3.00776 1.55947 0
M  V30 1992 C 193.672 -3.50748 1.36576 0
M  V30 1993 C 192.819 -2.25797 1.60968 0
M  V30 1994 H 195.77 -0.963552 1.26101 0
M  V30 1995 H 195.791 -3.67185 0.997753 0
M  V30 1996 H 195.303 -2.85465 2.62928 0
M  V30 1997 H 193.404 -3.71245 0.317531 0
M  V30 1998 H 193.517 -4.30289 2.10686 0
M  V30 1999 H 191.881 -2.32841 1.03234 0
M  V30 2000 H 192.664 -2.13043 2.69198 0
M  V30 2001 N 195.109 -0.891671 -1.2995 0
M  V30 2002 C 196.334 -0.527932 -2.00568 0
M  V30 2003 C 196.759 0.877969 -1.66353 0
M  V30 2004 O 196.117 1.58301 -0.883762 0
M  V30 2005 C 196.165 -0.717745 -3.53385 0
M  V30 2006 O 195.269 0.233376 -4.11739 0
M  V30 2007 H 194.61 -0.20722 -0.630837 0
M  V30 2008 H 197.14 -1.20105 -1.65638 0
M  V30 2009 H 197.15 -0.619307 -4.03272 0
M  V30 2010 H 195.825 -1.74276 -3.77625 0
M  V30 2011 H 194.402 0.0880706 -3.72796 0
M  V30 2012 N 196.587 1.43421 -0.653314 0
M  V30 2013 C 197.812 2.06678 -0.172846 0
M  V30 2014 C 198.237 1.48648 1.15262 0
M  V30 2015 O 197.595 0.596457 1.71208 0
M  V30 2016 C 197.643 3.60474 -0.0953184 0
M  V30 2017 O 196.747 4.01487 0.942442 0
M  V30 2018 H 196.088 0.657181 -0.0949155 0
M  V30 2019 H 198.618 1.83925 -0.896265 0
M  V30 2020 H 198.628 4.07905 0.0879728 0
M  V30 2021 H 197.303 4.02088 -1.06291 0
M  V30 2022 H 195.88 3.65646 0.731932 0
M  V30 2023 N 198.065 0.39524 1.52563 0
M  V30 2024 C 199.012 -0.437036 2.26624 0
M  V30 2025 C 199.982 -1.05281 1.28472 0
M  V30 2026 O 201.167 -1.07971 1.57311 0
M  V30 2027 C 198.307 -1.55524 3.08069 0
M  V30 2028 C 197.42 -0.961745 4.21158 0
M  V30 2029 C 196.555 -2.05149 4.89987 0
M  V30 2030 C 195.594 -1.4342 5.95061 0
M  V30 2031 N 194.731 -2.46351 6.57462 0
M  V30 2032 H 199.571 0.200976 2.97322 0
M  V30 2033 H 197.108 0.110944 1.46681 0
M  V30 2034 H 199.066 -2.21437 3.53584 0
M  V30 2035 H 197.696 -2.16348 2.3957 0
M  V30 2036 H 196.748 -0.192048 3.79915 0
M  V30 2037 H 198.06 -0.470701 4.96574 0
M  V30 2038 H 197.214 -2.78819 5.38837 0
M  V30 2039 H 195.953 -2.57615 4.14109 0
M  V30 2040 H 194.958 -0.682774 5.45544 0
M  V30 2041 H 196.183 -0.917416 6.72875 0
M  V30 2042 H 194.129 -2.97975 5.8442 0
M  V30 2043 H 194.046 -2.02019 7.28508 0
M  V30 2044 H 195.314 -3.19633 7.10954 0
M  V30 2045 N 199.544 -1.57102 0.125237 0
M  V30 2046 C 200.769 -2.0019 -0.542101 0
M  V30 2047 C 201.194 -1.00449 -1.59034 0
M  V30 2048 O 200.552 0.0229423 -1.81285 0
M  V30 2049 C 200.6 -3.42129 -1.13929 0
M  V30 2050 O 199.704 -3.45307 -2.2547 0
M  V30 2051 H 199.045 -0.650171 -0.134812 0
M  V30 2052 H 201.575 -2.03461 0.215553 0
M  V30 2053 H 201.585 -3.80471 -1.4733 0
M  V30 2054 H 200.26 -4.14237 -0.371531 0
M  V30 2055 H 198.837 -3.1879 -1.93462 0
M  V30 2056 N 201.022 0.148545 -1.56898 0
M  V30 2057 C 202.25 0.876389 -1.87422 0
M  V30 2058 C 202.665 1.74809 -0.713256 0
M  V30 2059 O 202.022 1.79725 0.317025 0
M  V30 2060 C 202.073 1.73438 -3.17178 0
M  V30 2061 O 201.794 0.897809 -4.28802 0
M  V30 2062 C 203.295 2.56993 -3.61205 0
M  V30 2063 H 200.515 0.253489 -0.621277 0
M  V30 2064 H 203.059 0.141798 -2.04008 0
M  V30 2065 H 201.214 2.42205 -3.0235 0
M  V30 2066 H 201.628 1.48672 -5.02988 0
M  V30 2067 H 203.102 3.12773 -4.54838 0
M  V30 2068 H 203.579 3.32958 -2.86419 0
M  V30 2069 H 204.185 1.9352 -3.78722 0
M  V30 2070 N 202.5 1.5196 0.417844 0
M  V30 2071 C 203.725 1.69717 1.1921 0
M  V30 2072 C 204.15 0.402148 1.83751 0
M  V30 2073 O 203.508 -0.639593 1.69643 0
M  V30 2074 C 203.556 2.82794 2.2374 0
M  V30 2075 O 202.66 2.47756 3.29683 0
M  V30 2076 H 202.001 0.565263 0.348387 0
M  V30 2077 H 204.531 1.98621 0.490985 0
M  V30 2078 H 204.541 3.07452 2.68212 0
M  V30 2079 H 203.216 3.76756 1.76146 0
M  V30 2080 H 201.793 2.33739 2.90552 0
M  V30 2081 N 203.978 -0.674533 1.42435 0
M  V30 2082 C 205.226 -1.43175 1.42637 0
M  V30 2083 C 205.547 -1.94951 0.0438992 0
M  V30 2084 O 204.817 -1.7308 -0.917607 0
M  V30 2085 H 203.397 -0.531307 0.525092 0
M  V30 2086 H 206.059 -0.797006 1.77859 0
M  V30 2087 H 205.155 -2.28463 2.12629 0
M  V30 2088 N 205.456 -1.28612 -0.910864 0
M  V30 2089 C 206.704 -1.15705 -1.65701 0
M  V30 2090 C 207.025 0.29416 -1.92769 0
M  V30 2091 O 206.295 1.20331 -1.54588 0
M  V30 2092 H 204.875 -0.425216 -0.614167 0
M  V30 2093 H 207.537 -1.61381 -1.0928 0
M  V30 2094 H 206.633 -1.6988 -2.61815 0
M  V30 2095 N 206.934 1.1197 -1.10907 0
M  V30 2096 C 208.162 1.87402 -0.876824 0
M  V30 2097 C 208.577 1.79894 0.573025 0
M  V30 2098 O 207.934 1.17629 1.39534 0
M  V30 2099 C 207.985 3.36428 -1.32282 0
M  V30 2100 O 207.706 3.43765 -2.71582 0
M  V30 2101 C 209.207 4.28783 -1.12518 0
M  V30 2102 H 206.427 0.592793 -0.314384 0
M  V30 2103 H 208.971 1.41649 -1.47499 0
M  V30 2104 H 207.126 3.79706 -0.768229 0
M  V30 2105 H 207.54 4.3652 -2.90776 0
M  V30 2106 H 209.014 5.31613 -1.48633 0
M  V30 2107 H 209.491 4.39153 -0.0642394 0
M  V30 2108 H 210.097 3.91291 -1.66648 0
M  V30 2109 N 208.412 0.89855 1.29475 0
M  V30 2110 C 209.375 0.380272 2.26023 0
M  V30 2111 C 210.375 -0.484891 1.53315 0
M  V30 2112 O 211.565 -0.290108 1.71767 0
M  V30 2113 C 208.697 -0.45651 3.3783 0
M  V30 2114 H 209.89 1.23295 2.73383 0
M  V30 2115 H 207.443 0.676589 1.40897 0
M  V30 2116 H 208.178 -1.32922 2.95808 0
M  V30 2117 H 207.963 0.163393 3.91759 0
M  V30 2118 H 209.453 -0.810466 4.0966 0
M  V30 2119 N 209.89 -1.43072 0.660911 0
M  V30 2120 C 210.853 -2.29194 -0.0166406 0
M  V30 2121 C 211.853 -1.42609 -0.742912 0
M  V30 2122 O 213.043 -1.64155 -0.583004 0
M  V30 2123 C 210.175 -3.24831 -1.0343 0
M  V30 2124 H 211.368 -2.90596 0.741208 0
M  V30 2125 H 208.921 -1.5048 0.422532 0
M  V30 2126 H 209.656 -2.68339 -1.82111 0
M  V30 2127 H 209.441 -3.88676 -0.517082 0
M  V30 2128 H 210.931 -3.89451 -1.50723 0
M  V30 2129 N 211.368 -0.403325 -1.52352 0
M  V30 2130 C 212.298 0.416205 -2.29761 0
M  V30 2131 C 213.279 1.05123 -1.33728 0
M  V30 2132 O 214.464 1.06134 -1.62632 0
M  V30 2133 C 211.594 1.53624 -3.11475 0
M  V30 2134 C 210.548 1.02653 -4.15507 0
M  V30 2135 C 209.874 2.23971 -4.85532 0
M  V30 2136 C 211.174 0.08463 -5.22231 0
M  V30 2137 H 212.868 -0.229701 -2.98518 0
M  V30 2138 H 210.414 -0.111913 -1.43564 0
M  V30 2139 H 212.367 2.1165 -3.64393 0
M  V30 2140 H 211.091 2.20994 -2.40477 0
M  V30 2141 H 209.75 0.46871 -3.63591 0
M  V30 2142 H 209.398 2.89883 -4.11068 0
M  V30 2143 H 209.098 1.90521 -5.55856 0
M  V30 2144 H 210.622 2.82614 -5.41259 0
M  V30 2145 H 212.036 0.573509 -5.70424 0
M  V30 2146 H 210.433 -0.160783 -5.99885 0
M  V30 2147 H 211.503 -0.86237 -4.7717 0
M  V30 2148 N 212.846 1.57033 -0.133567 0
M  V30 2149 C 214.094 1.953 0.519848 0
M  V30 2150 C 214.415 1.01866 1.66278 0
M  V30 2151 O 213.685 0.0776513 1.95746 0
M  V30 2152 H 212.265 0.721091 0.195032 0
M  V30 2153 H 214.927 1.93809 -0.205921 0
M  V30 2154 H 214.023 2.98695 0.904854 0
M  V30 2155 N 214.325 -0.140222 1.56975 0
M  V30 2156 C 215.565 -0.857823 1.85528 0
M  V30 2157 C 215.929 -1.78039 0.718768 0
M  V30 2158 O 217.13 -2.53795 0.885521 0
M  V30 2159 C 215.401 -1.60615 3.19277 0
M  V30 2160 S 216.96 -2.36824 3.69405 0
M  V30 2161 H 213.778 -0.286727 0.650622 0
M  V30 2162 H 216.38 -0.117408 1.95147 0
M  V30 2163 H 215.084 -0.919994 3.99955 0
M  V30 2164 H 214.615 -2.38735 3.12681 0
M  V30 2165 H 216.63 -3.62148 3.3921 0
M  V30 2166 N 215.803 -1.52179 -0.40978 0
M  V30 2167 C 216.733 -1.78435 -1.5061 0
M  V30 2168 C 217.714 -0.635295 -1.57791 0
M  V30 2169 O 218.899 -0.880823 -1.73076 0
M  V30 2170 C 216.029 -1.93444 -2.88439 0
M  V30 2171 C 214.983 -3.09038 -2.96108 0
M  V30 2172 C 214.309 -3.09268 -4.36185 0
M  V30 2173 C 215.609 -4.48508 -2.67652 0
M  V30 2174 H 217.303 -2.70237 -1.28889 0
M  V30 2175 H 214.849 -1.30036 -0.618605 0
M  V30 2176 H 216.802 -2.10394 -3.65119 0
M  V30 2177 H 215.526 -0.983129 -3.11452 0
M  V30 2178 H 214.185 -2.91837 -2.21872 0
M  V30 2179 H 213.833 -2.11861 -4.56206 0
M  V30 2180 H 213.533 -3.86907 -4.42241 0
M  V30 2181 H 215.057 -3.28348 -5.14801 0
M  V30 2182 H 216.471 -4.65918 -3.34056 0
M  V30 2183 H 214.868 -5.28059 -2.85085 0
M  V30 2184 H 215.938 -4.56649 -1.63095 0
M  V30 2185 N 217.281 0.66697 -1.42791 0
M  V30 2186 C 218.527 1.4291 -1.43891 0
M  V30 2187 C 218.86 1.94114 -0.0578972 0
M  V30 2188 O 218.135 1.71414 0.91911 0
M  V30 2189 C 218.418 2.62049 -2.46987 0
M  V30 2190 C 218.271 2.16426 -3.94309 0
M  V30 2191 C 219.59 3.64266 -2.46978 0
M  V30 2192 H 216.709 0.518306 -0.523954 0
M  V30 2193 H 219.351 0.757321 -1.74255 0
M  V30 2194 H 217.501 3.19361 -2.21225 0
M  V30 2195 H 219.173 1.64221 -4.31079 0
M  V30 2196 H 217.416 1.47925 -4.078 0
M  V30 2197 H 218.087 3.02038 -4.62036 0
M  V30 2198 H 220.563 3.16686 -2.69906 0
M  V30 2199 H 219.439 4.45196 -3.21079 0
M  V30 2200 H 219.7 4.15927 -1.49857 0
M  V30 2201 N 218.759 1.29093 0.90403 0
M  V30 2202 C 219.706 1.13853 2.00764 0
M  V30 2203 C 220.676 0.0330084 1.66067 0
M  V30 2204 O 221.861 0.199733 1.89752 0
M  V30 2205 C 219.001 0.816537 3.35301 0
M  V30 2206 C 218.114 2.00206 3.82807 0
M  V30 2207 C 217.249 1.61983 5.059 0
M  V30 2208 C 216.288 2.77143 5.45764 0
M  V30 2209 N 215.425 2.39346 6.60044 0
M  V30 2210 H 220.265 2.08276 2.13132 0
M  V30 2211 H 217.802 1.03648 1.04381 0
M  V30 2212 H 219.76 0.610557 4.12708 0
M  V30 2213 H 218.39 -0.090779 3.22672 0
M  V30 2214 H 217.442 2.31988 3.01473 0
M  V30 2215 H 218.754 2.86512 4.08304 0
M  V30 2216 H 217.908 1.37649 5.90879 0
M  V30 2217 H 216.647 0.728202 4.82233 0
M  V30 2218 H 215.652 3.02165 4.59322 0
M  V30 2219 H 216.877 3.66964 5.71414 0
M  V30 2220 H 214.823 1.52665 6.37989 0
M  V30 2221 H 214.74 3.19185 6.85315 0
M  V30 2222 H 216.008 2.1832 7.48303 0
M  V30 2223 N 220.237 -1.11381 1.11499 0
M  V30 2224 C 221.514 -1.7955 0.775965 0
M  V30 2225 C 221.894 -1.97859 -0.73588 0
M  V30 2226 O 221.242 -1.56376 -1.66609 0
M  V30 2227 C 221.452 -3.13196 1.53977 0
M  V30 2228 C 222.8 -3.88227 1.71944 0
M  V30 2229 O 223.824 -3.22887 1.50407 0
M  V30 2230 O 222.683 -5.05477 2.07738 0
M  V30 2231 H 219.777 -0.777728 0.28119 0
M  V30 2232 H 222.323 -1.18118 1.21845 0
M  V30 2233 H 221.095 -2.95229 2.56818 0
M  V30 2234 H 220.718 -3.82342 1.09088 0
M  V30 2235 N 221.715 -0.905404 -1.28997 0
M  V30 2236 C 222.945 -0.549049 -1.99171 0
M  V30 2237 C 223.353 0.87203 -1.67906 0
M  V30 2238 O 222.696 1.58796 -0.923561 0
M  V30 2239 C 222.758 -0.668306 -3.53234 0
M  V30 2240 C 222.422 -2.0574 -4.08069 0
M  V30 2241 C 223.419 -3.0292 -4.22534 0
M  V30 2242 C 221.104 -2.36833 -4.42962 0
M  V30 2243 C 223.098 -4.29314 -4.71135 0
M  V30 2244 C 220.785 -3.63467 -4.91258 0
M  V30 2245 C 221.783 -4.59522 -5.053 0
M  V30 2246 O 221.471 -5.83907 -5.52546 0
M  V30 2247 H 221.203 -0.208784 -0.64295 0
M  V30 2248 H 223.757 -1.21836 -1.65363 0
M  V30 2249 H 221.987 0.0580547 -3.86656 0
M  V30 2250 H 223.676 -0.320273 -4.04634 0
M  V30 2251 H 224.442 -2.80216 -3.95859 0
M  V30 2252 H 220.321 -1.62824 -4.31288 0
M  V30 2253 H 223.865 -5.04293 -4.8201 0
M  V30 2254 H 219.762 -3.86 -5.17372 0
M  V30 2255 H 220.53 -5.86578 -5.70849 0
M  V30 2256 N 223.193 1.4272 -0.668489 0
M  V30 2257 C 224.44 2.01624 -0.18814 0
M  V30 2258 C 224.768 1.5282 1.20317 0
M  V30 2259 O 224.023 0.718323 1.8204 0
M  V30 2260 C 224.322 3.57021 -0.164499 0
M  V30 2261 C 223.988 4.25232 -1.49962 0
M  V30 2262 C 222.65 4.4358 -1.8652 0
M  V30 2263 C 225.002 4.63727 -2.37921 0
M  V30 2264 C 222.33 4.97694 -3.10674 0
M  V30 2265 C 224.682 5.19218 -3.6138 0
M  V30 2266 C 223.346 5.3578 -3.98115 0
M  V30 2267 H 222.616 0.737795 -0.0688454 0
M  V30 2268 H 225.263 1.70991 -0.862225 0
M  V30 2269 H 223.568 3.87285 0.593079 0
M  V30 2270 H 225.265 4.00372 0.224271 0
M  V30 2271 H 221.855 4.11306 -1.20522 0
M  V30 2272 H 226.039 4.4923 -2.10964 0
M  V30 2273 H 221.295 5.08702 -3.39164 0
M  V30 2274 H 225.469 5.4799 -4.29743 0
M  V30 2275 H 223.096 5.77475 -4.94395 0
M  V30 2276 N 224.671 0.411399 1.52136 0
M  V30 2277 C 226.082 -0.0576826 1.86611 0
M  V30 2278 C 226.433 -1.44238 1.33003 0
M  V30 2279 O 225.558 -2.05759 0.670228 0
M  V30 2280 C 226.153 -0.111448 3.38617 0
M  V30 2281 C 224.712 -0.52487 3.72723 0
M  V30 2282 C 223.859 0.299176 2.75681 0
M  V30 2283 H 226.81 0.628368 1.4573 0
M  V30 2284 H 226.831 -0.926252 3.69054 0
M  V30 2285 H 226.343 0.896488 3.77604 0
M  V30 2286 H 224.444 -1.53936 3.39315 0
M  V30 2287 H 224.557 -0.267681 4.78352 0
M  V30 2288 H 222.921 -0.238814 2.53578 0
M  V30 2289 H 223.704 1.3055 3.17508 0
M  V30 2290 N 226.149 -1.5696 0.141893 0
M  V30 2291 C 227.059 -2.20066 -0.812905 0
M  V30 2292 C 228.075 -1.18344 -1.27557 0
M  V30 2293 O 229.251 -1.50902 -1.33381 0
M  V30 2294 C 226.316 -2.80583 -2.03652 0
M  V30 2295 C 225.377 -3.97414 -1.62359 0
M  V30 2296 C 224.61 -4.55036 -2.78887 0
M  V30 2297 O 224.833 -4.11538 -3.94959 0
M  V30 2298 O 223.767 -5.45376 -2.54653 0
M  V30 2299 H 227.593 -3.02157 -0.305746 0
M  V30 2300 H 225.178 -1.49159 -0.0848799 0
M  V30 2301 H 227.06 -3.19067 -2.75272 0
M  V30 2302 H 225.735 -2.01508 -2.5333 0
M  V30 2303 H 224.642 -3.63656 -0.877775 0
M  V30 2304 H 225.975 -4.77994 -1.17401 0
M  V30 2305 N 227.627 0.131896 -1.57047 0
M  V30 2306 C 229.038 0.690407 -1.73465 0
M  V30 2307 C 229.389 1.8094 -0.758629 0
M  V30 2308 O 228.514 2.16282 0.0713813 0
M  V30 2309 C 229.109 1.25916 -3.14532 0
M  V30 2310 C 227.668 1.76409 -3.32501 0
M  V30 2311 C 226.815 0.658579 -2.69366 0
M  V30 2312 H 229.766 -0.0939144 -1.58422 0
M  V30 2313 H 229.787 2.12892 -3.15369 0
M  V30 2314 H 229.299 0.444515 -3.85546 0
M  V30 2315 H 227.4 2.60391 -2.66509 0
M  V30 2316 H 227.513 1.88241 -4.4057 0
M  V30 2317 H 225.877 1.08899 -2.30246 0
M  V30 2318 H 226.66 -0.14487 -3.42994 0
M  V30 2319 N 229.106 1.52395 0.401703 0
M  V30 2320 C 230.352 1.67065 1.14966 0
M  V30 2321 C 230.685 0.403052 1.89971 0
M  V30 2322 O 229.96 -0.598774 1.85054 0
M  V30 2323 C 230.243 2.8975 2.13815 0
M  V30 2324 C 230.096 4.26578 1.42658 0
M  V30 2325 C 231.415 3.07965 3.14397 0
M  V30 2326 H 228.534 0.607968 0.416587 0
M  V30 2327 H 231.176 1.84965 0.434511 0
M  V30 2328 H 229.326 2.74619 2.74803 0
M  V30 2329 H 230.998 4.53451 0.847329 0
M  V30 2330 H 229.241 4.27639 0.72849 0
M  V30 2331 H 229.912 5.08483 2.14823 0
M  V30 2332 H 232.388 3.22043 2.63491 0
M  V30 2333 H 231.264 3.95308 3.80819 0
M  V30 2334 H 231.525 2.21611 3.82545 0
M  V30 2335 N 230.584 -0.659388 1.43143 0
M  V30 2336 C 231.812 -1.44723 1.47861 0
M  V30 2337 C 232.227 -1.88563 0.0945886 0
M  V30 2338 O 231.584 -1.59108 -0.893915 0
M  V30 2339 C 231.635 -2.68627 2.41913 0
M  V30 2340 O 231.356 -2.26623 3.74932 0
M  V30 2341 C 232.857 -3.62045 2.55809 0
M  V30 2342 H 230.077 -0.444801 0.502387 0
M  V30 2343 H 232.621 -0.808916 1.87821 0
M  V30 2344 H 230.776 -3.28613 2.05164 0
M  V30 2345 H 231.19 -3.06745 4.2545 0
M  V30 2346 H 232.664 -4.45666 3.25708 0
M  V30 2347 H 233.141 -4.08981 1.60099 0
M  V30 2348 H 233.747 -3.07944 2.93344 0
M  V30 2349 N 232.062 -1.29571 -0.897171 0
M  V30 2350 C 233.308 -1.17863 -1.65034 0
M  V30 2351 C 233.641 0.268729 -1.92332 0
M  V30 2352 O 232.916 1.19378 -1.53555 0
M  V30 2353 C 233.199 -1.995 -2.99786 0
M  V30 2354 C 233.052 -3.5239 -2.79538 0
M  V30 2355 C 234.371 -1.82335 -4.00552 0
M  V30 2356 H 231.49 -0.429528 -0.598895 0
M  V30 2357 H 234.132 -1.59072 -1.03905 0
M  V30 2358 H 232.282 -1.64485 -3.51962 0
M  V30 2359 H 233.954 -3.97401 -2.34244 0
M  V30 2360 H 232.197 -3.77187 -2.14273 0
M  V30 2361 H 232.868 -4.04787 -3.75302 0
M  V30 2362 H 235.344 -2.12924 -3.57495 0
M  V30 2363 H 234.22 -2.41801 -4.92771 0
M  V30 2364 H 234.481 -0.779209 -4.35179 0
M  V30 2365 N 233.54 1.10788 -1.12088 0
M  V30 2366 C 234.765 1.87002 -0.896949 0
M  V30 2367 C 235.19 1.79933 0.548261 0
M  V30 2368 O 234.548 1.16662 1.38779 0
M  V30 2369 C 234.596 3.3349 -1.37174 0
M  V30 2370 O 233.7 4.08745 -0.547831 0
M  V30 2371 H 233.041 0.580397 -0.322545 0
M  V30 2372 H 235.571 1.39996 -1.49206 0
M  V30 2373 H 235.581 3.84339 -1.36922 0
M  V30 2374 H 234.256 3.37951 -2.42408 0
M  V30 2375 H 232.833 3.6776 -0.617034 0
M  V30 2376 N 235.018 0.912232 1.28515 0
M  V30 2377 C 236.264 0.554851 1.95686 0
M  V30 2378 C 236.619 -0.89138 1.70506 0
M  V30 2379 O 235.912 -1.62529 1.01464 0
M  V30 2380 C 236.106 0.798392 3.48368 0
M  V30 2381 C 235.935 2.26674 3.88393 0
M  V30 2382 C 234.705 2.91657 4.12631 0
M  V30 2383 C 236.903 3.24303 3.99164 0
M  V30 2384 N 234.885 4.28805 4.39317 0
M  V30 2385 C 236.256 4.4661 4.30046 0
M  V30 2386 C 238.311 3.19723 3.81683 0
M  V30 2387 C 237.014 5.64915 4.45268 0
M  V30 2388 C 239.04 4.37325 3.98121 0
M  V30 2389 C 238.402 5.58406 4.29375 0
M  V30 2390 H 234.501 0.252876 0.739985 0
M  V30 2391 H 237.085 1.17565 1.55199 0
M  V30 2392 H 235.256 0.20688 3.87849 0
M  V30 2393 H 236.988 0.405193 4.02666 0
M  V30 2394 H 233.743 2.42393 4.06869 0
M  V30 2395 H 234.167 4.99712 4.56746 0
M  V30 2396 H 238.809 2.27191 3.56573 0
M  V30 2397 H 236.527 6.57927 4.6921 0
M  V30 2398 H 240.113 4.35282 3.86033 0
M  V30 2399 H 238.993 6.47889 4.41825 0
M  V30 2400 N 236.496 -1.42363 0.676048 0
M  V30 2401 C 237.444 -2.32596 -0.0131507 0
M  V30 2402 C 238.438 -1.49891 -0.789238 0
M  V30 2403 O 239.644 -1.65955 -0.697061 0
M  V30 2404 H 236.019 -0.751647 -0.0230481 0
M  V30 2405 H 237.99 -2.88421 0.765243 0
M  V30 2406 C 236.739 -3.34479 -0.949702 0
M  V30 2407 H 236.062 -3.98158 -0.361938 0
M  V30 2408 H 237.502 -4.00199 -1.4006 0
M  V30 2409 C 235.961 -2.66838 -2.05667 0
M  V30 2410 O 236.491 -2.50124 -3.14326 0
M  V30 2411 N 234.697 -2.25843 -1.82875 0
M  V30 2412 H 234.244 -2.39637 -0.945085 0
M  V30 2413 H 234.202 -1.80918 -2.5713 0
M  V30 2414 N 237.974 -0.419461 -1.51915 0
M  V30 2415 C 239.199 0.154572 -2.06823 0
M  V30 2416 C 239.624 1.3722 -1.28656 0
M  V30 2417 O 238.982 1.78461 -0.319583 0
M  V30 2418 C 239.03 0.473172 -3.57482 0
M  V30 2419 O 238.134 1.56255 -3.81652 0
M  V30 2420 H 237.475 0.0096924 -0.663929 0
M  V30 2421 H 240.005 -0.595642 -1.95738 0
M  V30 2422 H 240.015 0.728825 -4.01438 0
M  V30 2423 H 238.69 -0.416873 -4.13805 0
M  V30 2424 H 237.267 1.29825 -3.49571 0
M  V30 2425 N 239.452 1.56882 -0.150215 0
M  V30 2426 C 240.7 1.9584 0.499105 0
M  V30 2427 C 241.021 1.03623 1.65188 0
M  V30 2428 O 240.291 0.0984084 1.95653 0
M  V30 2429 H 238.871 0.723119 0.187373 0
M  V30 2430 H 241.533 1.9358 -0.226466 0
M  V30 2431 H 240.629 2.99638 0.873122 0
M  V30 2432 N 240.93 -0.123565 1.57115 0
M  V30 2433 C 241.893 -1.13583 1.99076 0
M  V30 2434 C 242.893 -1.34564 0.880296 0
M  V30 2435 O 244.083 -1.31158 1.14644 0
M  V30 2436 C 241.215 -2.49128 2.32698 0
M  V30 2437 H 242.408 -0.775287 2.89706 0
M  V30 2438 H 239.961 -0.36771 1.51913 0
M  V30 2439 H 240.696 -2.90111 1.44934 0
M  V30 2440 H 240.481 -2.35255 3.13684 0
M  V30 2441 H 241.971 -3.2199 2.65918 0
M  V30 2442 N 242.408 -1.52605 -0.393616 0
M  V30 2443 C 243.338 -1.80022 -1.48709 0
M  V30 2444 C 244.319 -0.651995 -1.57108 0
M  V30 2445 O 245.504 -0.89913 -1.72132 0
M  V30 2446 C 242.634 -1.96492 -2.86371 0
M  V30 2447 C 241.588 -3.12161 -2.92813 0
M  V30 2448 C 240.914 -3.13877 -4.3288 0
M  V30 2449 C 242.214 -4.51322 -2.6288 0
M  V30 2450 H 243.908 -2.71589 -1.26015 0
M  V30 2451 H 241.454 -1.30684 -0.604778 0
M  V30 2452 H 243.407 -2.14255 -3.62867 0
M  V30 2453 H 242.131 -1.01611 -3.10391 0
M  V30 2454 H 240.79 -2.94173 -2.18764 0
M  V30 2455 H 240.438 -2.16687 -4.53933 0
M  V30 2456 H 240.138 -3.91576 -4.38112 0
M  V30 2457 H 241.662 -3.33789 -5.1129 0
M  V30 2458 H 243.076 -4.69435 -3.29096 0
M  V30 2459 H 241.473 -5.31053 -2.79468 0
M  V30 2460 H 242.543 -4.58353 -1.58242 0
M  V30 2461 N 243.887 0.651787 -1.4349 0
M  V30 2462 C 245.115 1.43937 -1.48626 0
M  V30 2463 C 245.53 1.8851 -0.104587 0
M  V30 2464 O 244.887 1.5958 0.885464 0
M  V30 2465 C 244.938 2.6734 -2.43334 0
M  V30 2466 O 244.659 2.24631 -3.76128 0
M  V30 2467 C 246.16 3.60683 -2.57726 0
M  V30 2468 H 243.38 0.44213 -0.504739 0
M  V30 2469 H 245.924 0.798944 -1.88248 0
M  V30 2470 H 244.079 3.2752 -2.06904 0
M  V30 2471 H 244.493 3.04485 -4.2707 0
M  V30 2472 H 245.967 4.43933 -3.28067 0
M  V30 2473 H 246.444 4.08126 -1.62265 0
M  V30 2474 H 247.05 3.06384 -2.94973 0
M  V30 2475 N 245.365 1.30045 0.890287 0
M  V30 2476 C 246.59 1.21598 1.68014 0
M  V30 2477 C 247.015 -0.218678 1.86825 0
M  V30 2478 O 246.373 -1.15756 1.39536 0
M  V30 2479 C 246.421 1.94434 3.03691 0
M  V30 2480 O 245.525 1.2678 3.92429 0
M  V30 2481 H 244.866 0.420856 0.513592 0
M  V30 2482 H 247.396 1.71775 1.11151 0
M  V30 2483 H 247.406 2.03251 3.5377 0
M  V30 2484 H 246.081 2.98777 2.89318 0
M  V30 2485 H 244.658 1.26282 3.50866 0
M  V30 2486 N 246.843 -1.10192 1.12674 0
M  V30 2487 C 248.091 -1.81845 0.881861 0
M  V30 2488 C 248.412 -1.85737 -0.593867 0
M  V30 2489 O 247.682 -1.33724 -1.4316 0
M  V30 2490 H 246.262 -0.673432 0.323261 0
M  V30 2491 H 248.924 -1.33316 1.42172 0
M  V30 2492 H 248.02 -2.85288 1.2656 0
M  V30 2493 N 248.321 -0.919034 -1.28029 0
M  V30 2494 C 249.567 -0.555757 -1.95036 0
M  V30 2495 C 249.9 0.899198 -1.72128 0
M  V30 2496 O 249.175 1.64023 -1.04531 0
M  V30 2497 C 249.458 -0.872024 -3.49382 0
M  V30 2498 C 249.311 -2.3801 -3.81669 0
M  V30 2499 C 250.63 -0.37185 -4.38526 0
M  V30 2500 H 247.749 -0.203386 -0.708381 0
M  V30 2501 H 250.391 -1.14924 -1.51303 0
M  V30 2502 H 248.541 -0.366946 -3.86763 0
M  V30 2503 H 250.213 -2.9562 -3.54128 0
M  V30 2504 H 248.456 -2.83289 -3.28526 0
M  V30 2505 H 249.127 -2.55192 -4.8947 0
M  V30 2506 H 251.603 -0.804602 -4.08247 0
M  V30 2507 H 250.479 -0.622173 -5.45362 0
M  V30 2508 H 250.74 0.727934 -4.36066 0
M  V30 2509 N 249.799 1.42003 -0.683588 0
M  V30 2510 C 250.749 2.27997 0.0121992 0
M  V30 2511 C 251.733 1.4156 0.764822 0
M  V30 2512 O 252.925 1.64935 0.642287 0
M  V30 2513 C 250.054 3.29706 0.956482 0
M  V30 2514 C 249.14 4.23625 0.200739 0
M  V30 2515 N 249.531 4.99448 -0.799087 0
M  V30 2516 C 247.829 4.43845 0.437937 0
M  V30 2517 C 248.53 5.68102 -1.25041 0
M  V30 2518 N 247.506 5.40511 -0.578648 0
M  V30 2519 H 251.308 2.84048 -0.754564 0
M  V30 2520 H 248.822 1.54071 -0.513398 0
M  V30 2521 H 250.819 3.90124 1.47 0
M  V30 2522 H 249.479 2.75216 1.72297 0
M  V30 2523 H 250.49 5.04303 -1.17893 0
M  V30 2524 H 247.167 4.00382 1.18325 0
M  V30 2525 H 248.557 6.38913 -2.07942 0
M  V30 2526 N 251.277 0.427512 1.51691 0
M  V30 2527 C 252.505 -0.141191 2.06418 0
M  V30 2528 C 252.92 -1.37303 1.29589 0
M  V30 2529 O 252.277 -1.79059 0.352732 0
M  V30 2530 C 252.328 -0.473266 3.58389 0
M  V30 2531 O 252.049 0.709673 4.32314 0
M  V30 2532 C 253.55 -1.09371 4.29596 0
M  V30 2533 H 250.77 -0.0122747 0.670888 0
M  V30 2534 H 253.314 0.603764 1.95384 0
M  V30 2535 H 251.469 -1.16812 3.69369 0
M  V30 2536 H 251.883 0.42807 5.2275 0
M  V30 2537 H 253.357 -1.27613 5.37046 0
M  V30 2538 H 253.834 -2.072 3.87253 0
M  V30 2539 H 254.44 -0.43853 4.23033 0
M  V30 2540 N 252.755 -1.56801 0.158532 0
M  V30 2541 C 254.002 -1.9649 -0.489679 0
M  V30 2542 C 254.33 -1.04394 -1.6411 0
M  V30 2543 O 253.585 -0.0754401 -1.95555 0
M  V30 2544 C 253.884 -3.4235 -1.02623 0
M  V30 2545 C 253.55 -4.50899 0.00794526 0
M  V30 2546 C 252.212 -4.80312 0.292207 0
M  V30 2547 C 254.564 -5.16333 0.710584 0
M  V30 2548 C 251.892 -5.72461 1.28472 0
M  V30 2549 C 254.244 -6.09553 1.69199 0
M  V30 2550 C 252.908 -6.37339 1.98383 0
M  V30 2551 H 252.178 -0.719009 -0.179186 0
M  V30 2552 H 254.825 -1.8989 0.247798 0
M  V30 2553 H 253.13 -3.45838 -1.84128 0
M  V30 2554 H 254.827 -3.70393 -1.53656 0
M  V30 2555 H 251.417 -4.28015 -0.22379 0
M  V30 2556 H 255.601 -4.93732 0.504174 0
M  V30 2557 H 250.857 -5.92278 1.51714 0
M  V30 2558 H 255.031 -6.59327 2.24189 0
M  V30 2559 H 252.658 -7.08546 2.7544 0
M  V30 2560 N 254.233 0.115231 -1.57178 0
M  V30 2561 C 255.644 0.67197 -1.74188 0
M  V30 2562 C 255.995 1.80125 -0.777777 0
M  V30 2563 O 255.12 2.16346 0.0484376 0
M  V30 2564 C 255.715 1.22573 -3.1585 0
M  V30 2565 C 254.274 1.72872 -3.34353 0
M  V30 2566 C 253.421 0.629972 -2.70049 0
M  V30 2567 H 256.372 -0.110712 -1.58313 0
M  V30 2568 H 256.393 2.09535 -3.17609 0
M  V30 2569 H 255.905 0.403598 -3.85996 0
M  V30 2570 H 254.006 2.5755 -2.69256 0
M  V30 2571 H 254.119 1.83557 -4.42542 0
M  V30 2572 H 252.483 1.0645 -2.31388 0
M  V30 2573 H 253.266 -0.181241 -3.42821 0
M  V30 2574 N 255.711 1.52812 0.385517 0
M  V30 2575 C 256.674 1.77188 1.45386 0
M  V30 2576 C 257.674 0.641953 1.4743 0
M  V30 2577 O 258.864 0.910033 1.4854 0
M  V30 2578 C 255.996 1.87582 2.8465 0
M  V30 2579 H 257.189 2.72583 1.25054 0
M  V30 2580 H 254.742 1.43586 0.617467 0
M  V30 2581 H 255.477 0.941849 3.10322 0
M  V30 2582 H 255.262 2.69748 2.84567 0
M  V30 2583 H 256.752 2.08102 3.62054 0
M  V30 2584 N 257.189 -0.644168 1.43834 0
M  V30 2585 C 258.435 -1.40603 1.46146 0
M  V30 2586 C 258.768 -1.93997 0.0887717 0
M  V30 2587 O 258.043 -1.72854 -0.891724 0
M  V30 2588 C 258.326 -2.58086 2.51124 0
M  V30 2589 C 258.179 -2.10126 3.97702 0
M  V30 2590 C 259.498 -3.60291 2.52742 0
M  V30 2591 H 256.617 -0.509905 0.532134 0
M  V30 2592 H 259.259 -0.729502 1.75437 0
M  V30 2593 H 257.409 -3.15801 2.26278 0
M  V30 2594 H 259.081 -1.57342 4.33637 0
M  V30 2595 H 257.324 -1.41419 4.10101 0
M  V30 2596 H 257.995 -2.94649 4.66783 0
M  V30 2597 H 260.471 -3.12352 2.7491 0
M  V30 2598 H 259.347 -4.40032 3.28121 0
M  V30 2599 H 259.608 -4.1349 1.56455 0
M  V30 2600 N 258.668 -1.30515 -0.883378 0
M  V30 2601 C 259.598 -1.19607 -2.00541 0
M  V30 2602 C 260.579 -0.086346 -1.69881 0
M  V30 2603 O 261.764 -0.268654 -1.92333 0
M  V30 2604 C 258.894 -0.888758 -3.35736 0
M  V30 2605 C 257.848 -1.95659 -3.8066 0
M  V30 2606 C 257.174 -1.50224 -5.13164 0
M  V30 2607 C 258.474 -3.36788 -3.99213 0
M  V30 2608 H 260.168 -2.13476 -2.09925 0
M  V30 2609 H 257.714 -1.02775 -1.00863 0
M  V30 2610 H 259.667 -0.799094 -4.13754 0
M  V30 2611 H 258.391 0.0856125 -3.26488 0
M  V30 2612 H 257.05 -2.03591 -3.04871 0
M  V30 2613 H 256.698 -0.516092 -5.00345 0
M  V30 2614 H 256.398 -2.2165 -5.44192 0
M  V30 2615 H 257.922 -1.42639 -5.93706 0
M  V30 2616 H 259.336 -3.31605 -4.67665 0
M  V30 2617 H 257.733 -4.06314 -4.41621 0
M  V30 2618 H 258.803 -3.78561 -3.03017 0
M  V30 2619 N 260.146 1.09593 -1.13257 0
M  V30 2620 C 261.078 2.16015 -0.766167 0
M  V30 2621 C 262.091 1.61423 0.211303 0
M  V30 2622 O 263.28 1.78498 -0.00863946 0
M  V30 2623 C 260.38 3.38706 -0.114662 0
M  V30 2624 C 259.553 4.22717 -1.12379 0
M  V30 2625 C 258.612 5.23835 -0.498301 0
M  V30 2626 O 257.638 5.573 -1.15781 0
M  V30 2627 N 258.84 5.75886 0.730417 0
M  V30 2628 H 261.605 2.48055 -1.68193 0
M  V30 2629 H 259.166 1.25292 -1.02535 0
M  V30 2630 H 261.158 4.03464 0.315991 0
M  V30 2631 H 259.728 3.04569 0.704011 0
M  V30 2632 H 258.948 3.54122 -1.73179 0
M  V30 2633 H 260.236 4.75673 -1.80589 0
M  V30 2634 H 259.634 5.50911 1.28504 0
M  V30 2635 H 258.191 6.42387 1.10376 0
M  V30 2636 N 261.624 0.925811 1.2754 0
M  V30 2637 C 262.849 0.580924 1.99098 0
M  V30 2638 C 263.274 -0.833555 1.68622 0
M  V30 2639 O 262.632 -1.55903 0.925422 0
M  V30 2640 C 262.68 0.811186 3.51358 0
M  V30 2641 O 261.784 -0.124129 4.12213 0
M  V30 2642 H 261.125 0.223873 0.625122 0
M  V30 2643 H 263.655 1.24455 1.62395 0
M  V30 2644 H 263.665 0.72601 4.01489 0
M  V30 2645 H 262.34 1.84227 3.72872 0
M  V30 2646 H 260.917 0.0108006 3.72898 0
M  V30 2647 N 263.102 -1.41638 0.69111 0
M  V30 2648 C 264.327 -2.06148 0.227583 0
M  V30 2649 C 264.752 -1.51652 -1.11281 0
M  V30 2650 O 264.11 -0.64164 -1.69566 0
M  V30 2651 C 264.158 -3.60095 0.190858 0
M  V30 2652 O 263.262 -4.03845 -0.835664 0
M  V30 2653 H 262.603 -0.654434 0.112306 0
M  V30 2654 H 265.133 -1.81484 0.944714 0
M  V30 2655 H 265.143 -4.07995 0.020207 0
M  V30 2656 H 263.818 -3.99129 1.16915 0
M  V30 2657 H 262.395 -3.67458 -0.63473 0
M  V30 2658 N 264.58 -0.43555 -1.51462 0
M  V30 2659 C 265.828 0.131254 -2.01673 0
M  V30 2660 C 266.149 1.43368 -1.32177 0
M  V30 2661 O 265.419 1.90524 -0.455769 0
M  V30 2662 H 263.999 0.0514954 -0.745223 0
M  V30 2663 H 266.661 -0.577847 -1.86137 0
M  V30 2664 H 265.757 0.308446 -3.10572 0
M  V30 2665 N 266.058 1.56714 -0.166846 0
M  V30 2666 C 266.988 2.20754 0.760913 0
M  V30 2667 C 267.969 1.16178 1.24244 0
M  V30 2668 O 269.154 1.44592 1.29641 0
M  V30 2669 C 266.284 2.84478 1.99223 0
M  V30 2670 C 265.238 3.95053 1.64672 0
M  V30 2671 C 264.564 4.45805 2.95232 0
M  V30 2672 C 265.864 5.14865 0.878155 0
M  V30 2673 H 267.558 2.98537 0.22713 0
M  V30 2674 H 265.104 1.43596 0.107805 0
M  V30 2675 H 267.057 3.27951 2.64624 0
M  V30 2676 H 265.781 2.04056 2.55007 0
M  V30 2677 H 264.44 3.52228 1.01641 0
M  V30 2678 H 264.088 3.62181 3.49047 0
M  V30 2679 H 263.788 5.204 2.7287 0
M  V30 2680 H 265.312 4.91962 3.6167 0
M  V30 2681 H 266.726 5.55059 1.43466 0
M  V30 2682 H 265.123 5.95348 0.753738 0
M  V30 2683 H 266.193 4.84735 -0.126377 0
M  V30 2684 N 267.536 -0.106894 1.57237 0
M  V30 2685 C 268.766 -0.825191 1.89405 0
M  V30 2686 C 269.174 -1.73374 0.757496 0
M  V30 2687 O 268.517 -1.81552 -0.280115 0
M  V30 2688 C 268.579 -1.70102 3.1671 0
M  V30 2689 C 268.243 -0.965523 4.46684 0
M  V30 2690 C 269.24 -0.300741 5.19029 0
M  V30 2691 C 266.925 -0.943105 4.93367 0
M  V30 2692 C 268.919 0.376622 6.36286 0
M  V30 2693 C 266.606 -0.261949 6.10538 0
M  V30 2694 C 267.604 0.396748 6.81847 0
M  V30 2695 O 267.292 1.06701 7.96787 0
M  V30 2696 H 267.024 -0.241852 0.631255 0
M  V30 2697 H 269.578 -0.0921491 2.05193 0
M  V30 2698 H 267.808 -2.47601 2.97036 0
M  V30 2699 H 269.497 -2.29483 3.34802 0
M  V30 2700 H 270.263 -0.309599 4.84011 0
M  V30 2701 H 266.142 -1.44524 4.3776 0
M  V30 2702 H 269.686 0.891334 6.91882 0
M  V30 2703 H 265.583 -0.250896 6.45012 0
M  V30 2704 H 266.351 0.972707 8.127 0
M  V30 2705 N 269.014 -1.53014 -0.377408 0
M  V30 2706 C 270.239 -1.72818 -1.14668 0
M  V30 2707 C 270.664 -0.450725 -1.8262 0
M  V30 2708 O 270.022 0.59439 -1.7128 0
M  V30 2709 C 270.07 -2.88627 -2.16164 0
M  V30 2710 O 269.174 -2.56409 -3.22998 0
M  V30 2711 H 268.515 -0.574301 -0.333278 0
M  V30 2712 H 271.045 -1.99853 -0.438152 0
M  V30 2713 H 271.055 -3.14455 -2.59966 0
M  V30 2714 H 269.73 -3.81294 -1.66095 0
M  V30 2715 H 268.307 -2.4136 -2.84253 0
M  V30 2716 N 270.492 0.636531 -1.44174 0
M  V30 2717 C 271.422 1.76003 -1.53444 0
M  V30 2718 C 272.403 1.65619 -0.387841 0
M  V30 2719 O 273.588 1.84461 -0.607257 0
M  V30 2720 C 270.718 3.14511 -1.4731 0
M  V30 2721 C 269.672 3.39677 -2.60391 0
M  V30 2722 C 268.998 4.78159 -2.39308 0
M  V30 2723 C 270.298 3.32772 -4.02567 0
M  V30 2724 H 271.992 1.68501 -2.47483 0
M  V30 2725 H 269.538 0.809237 -1.19111 0
M  V30 2726 H 271.491 3.92878 -1.52397 0
M  V30 2727 H 270.215 3.22783 -0.49785 0
M  V30 2728 H 268.874 2.63688 -2.54684 0
M  V30 2729 H 268.522 4.83128 -1.39988 0
M  V30 2730 H 268.222 4.95956 -3.15122 0
M  V30 2731 H 269.746 5.58762 -2.46205 0
M  V30 2732 H 271.16 4.01051 -4.09672 0
M  V30 2733 H 269.557 3.62104 -4.7854 0
M  V30 2734 H 270.627 2.30669 -4.2652 0
M  V30 2735 N 271.97 1.30982 0.876444 0
M  V30 2736 C 273.195 1.23373 1.66715 0
M  V30 2737 C 273.62 -0.19885 1.87046 0
M  V30 2738 O 272.978 -1.1427 1.40756 0
M  V30 2739 C 273.026 1.97644 3.01611 0
M  V30 2740 O 272.13 1.30935 3.91062 0
M  V30 2741 H 271.471 0.426279 0.509099 0
M  V30 2742 H 274.001 1.72944 1.09323 0
M  V30 2743 H 274.011 2.06992 3.51594 0
M  V30 2744 H 272.686 3.01829 2.86133 0
M  V30 2745 H 271.263 1.29996 3.49507 0
M  V30 2746 N 273.449 -1.08991 1.13837 0
M  V30 2747 C 274.674 -1.85551 0.926585 0
M  V30 2748 C 275.099 -1.80782 -0.519566 0
M  V30 2749 O 274.457 -1.18855 -1.36906 0
M  V30 2750 C 274.505 -3.31266 1.42462 0
M  V30 2751 O 273.609 -4.07822 0.612789 0
M  V30 2752 H 272.95 -0.575192 0.331738 0
M  V30 2753 H 275.48 -1.37604 1.51414 0
M  V30 2754 H 275.49 -3.82112 1.43019 0
M  V30 2755 H 274.165 -3.34052 2.47754 0
M  V30 2756 H 272.742 -3.66731 0.675463 0
M  V30 2757 N 274.927 -0.932562 -1.27047 0
M  V30 2758 C 276.173 -0.576412 -1.94436 0
M  V30 2759 C 276.506 0.880891 -1.73072 0
M  V30 2760 O 275.781 1.62905 -1.06264 0
M  V30 2761 C 276.064 -0.909031 -3.48437 0
M  V30 2762 C 275.917 -2.42044 -3.79123 0
M  V30 2763 C 277.236 -0.418341 -4.38107 0
M  V30 2764 H 274.355 -0.210888 -0.706184 0
M  V30 2765 H 276.997 -1.16522 -1.50075 0
M  V30 2766 H 275.147 -0.407947 -3.86352 0
M  V30 2767 H 276.819 -2.99359 -3.50973 0
M  V30 2768 H 275.062 -2.86758 -3.25503 0
M  V30 2769 H 275.733 -2.6037 -4.86736 0
M  V30 2770 H 278.209 -0.847856 -4.0737 0
M  V30 2771 H 277.085 -0.679981 -5.44672 0
M  V30 2772 H 277.346 0.681642 -4.36814 0
M  V30 2773 N 276.405 1.4127 -0.698611 0
M  V30 2774 C 277.651 2.01478 -0.231207 0
M  V30 2775 C 277.984 1.55215 1.16713 0
M  V30 2776 O 277.259 0.764672 1.78838 0
M  V30 2777 C 277.542 3.58912 -0.292281 0
M  V30 2778 C 277.395 4.15293 -1.72778 0
M  V30 2779 C 278.714 4.38736 0.346194 0
M  V30 2780 H 275.833 0.732025 -0.0854878 0
M  V30 2781 H 278.475 1.67977 -0.887906 0
M  V30 2782 H 276.625 3.87582 0.26686 0
M  V30 2783 H 278.297 3.97486 -2.341 0
M  V30 2784 H 276.54 3.7022 -2.26096 0
M  V30 2785 H 277.211 5.24452 -1.72202 0
M  V30 2786 H 279.687 4.15897 -0.130035 0
M  V30 2787 H 278.563 5.48221 0.272932 0
M  V30 2788 H 278.824 4.18425 1.42734 0
M  V30 2789 N 277.883 0.443576 1.51229 0
M  V30 2790 C 279.111 -0.11929 2.06556 0
M  V30 2791 C 279.526 -1.35921 1.31038 0
M  V30 2792 O 278.883 -1.78675 0.371704 0
M  V30 2793 C 278.934 -0.435228 3.5887 0
M  V30 2794 O 278.655 0.755486 4.31537 0
M  V30 2795 C 280.156 -1.04808 4.30732 0
M  V30 2796 H 277.376 -0.0051584 0.67098 0
M  V30 2797 H 279.92 0.624453 1.94733 0
M  V30 2798 H 278.075 -1.12887 3.70588 0
M  V30 2799 H 278.489 0.483491 5.22267 0
M  V30 2800 H 279.963 -1.2191 5.3837 0
M  V30 2801 H 280.44 -2.03081 3.89429 0
M  V30 2802 H 281.046 -0.393637 4.23474 0
M  V30 2803 N 279.361 -1.56624 0.175154 0
M  V30 2804 C 280.607 -1.9729 -0.469506 0
M  V30 2805 C 280.94 -1.06128 -1.62636 0
M  V30 2806 O 280.215 -0.109183 -1.94193 0
M  V30 2807 C 280.498 -3.47375 -0.948804 0
M  V30 2808 C 280.351 -4.49317 0.208491 0
M  V30 2809 C 281.67 -4.00652 -1.82116 0
M  V30 2810 H 278.789 -0.717317 -0.16919 0
M  V30 2811 H 281.431 -1.88184 0.262062 0
M  V30 2812 H 279.581 -3.55267 -1.57219 0
M  V30 2813 H 281.253 -4.53482 0.845682 0
M  V30 2814 H 279.496 -4.25121 0.863395 0
M  V30 2815 H 280.167 -5.51741 -0.169059 0
M  V30 2816 H 282.643 -3.95416 -1.2956 0
M  V30 2817 H 281.519 -5.06075 -2.12554 0
M  V30 2818 H 281.78 -3.44699 -2.7683 0
M  V30 2819 N 280.839 0.0985539 -1.57292 0
M  V30 2820 C 282.25 0.653457 -1.74891 0
M  V30 2821 C 282.601 1.7929 -0.796838 0
M  V30 2822 O 281.726 2.16385 0.0254886 0
M  V30 2823 C 282.321 1.19216 -3.17133 0
M  V30 2824 C 280.88 1.69316 -3.36168 0
M  V30 2825 C 280.027 0.601294 -2.70702 0
M  V30 2826 H 282.978 -0.127497 -1.58187 0
M  V30 2827 H 282.999 2.06154 -3.19814 0
M  V30 2828 H 282.511 0.362635 -3.86402 0
M  V30 2829 H 280.612 2.5468 -2.71972 0
M  V30 2830 H 280.725 1.78853 -4.44464 0
M  V30 2831 H 279.089 1.0399 -2.32504 0
M  V30 2832 H 279.872 -0.217592 -3.4261 0
M  V30 2833 N 282.317 1.53212 0.369288 0
M  V30 2834 C 283.542 1.73423 1.1375 0
M  V30 2835 C 283.967 0.460404 1.82378 0
M  V30 2836 O 283.325 -0.585298 1.71592 0
M  V30 2837 C 283.373 2.89769 2.1463 0
M  V30 2838 O 282.477 2.58119 3.21634 0
M  V30 2839 H 281.818 0.576061 0.330227 0
M  V30 2840 H 284.348 2.00083 0.427547 0
M  V30 2841 H 284.358 3.15829 2.58294 0
M  V30 2842 H 283.033 3.8217 1.64071 0
M  V30 2843 H 281.61 2.42864 2.82969 0
M  V30 2844 N 283.795 -0.628877 1.44509 0
M  V30 2845 C 285.02 -1.42048 1.5112 0
M  V30 2846 C 285.445 -1.87594 0.137818 0
M  V30 2847 O 284.803 -1.58873 -0.873437 0
M  V30 2848 C 284.851 -2.61541 2.48251 0
M  V30 2849 O 283.955 -3.61453 1.98559 0
M  V30 2850 H 283.296 -0.424942 0.510216 0
M  V30 2851 H 285.826 -0.767374 1.89664 0
M  V30 2852 H 285.836 -3.09057 2.66361 0
M  V30 2853 H 284.511 -2.27736 3.48007 0
M  V30 2854 H 283.088 -3.20731 1.90227 0
M  V30 2855 N 285.273 -1.31445 -0.869486 0
M  V30 2856 C 286.498 -1.24256 -1.66058 0
M  V30 2857 C 286.923 0.188928 -1.87149 0
M  V30 2858 O 286.281 1.13522 -1.4136 0
M  V30 2859 C 286.329 -1.9924 -3.00559 0
M  V30 2860 O 285.433 -1.33007 -3.90362 0
M  V30 2861 H 284.774 -0.428973 -0.506831 0
M  V30 2862 H 287.304 -1.73521 -1.08404 0
M  V30 2863 H 287.314 -2.08854 -3.50491 0
M  V30 2864 H 285.989 -3.03342 -2.84528 0
M  V30 2865 H 284.566 -1.31848 -3.48813 0
M  V30 2866 N 286.751 1.08385 -1.14413 0
M  V30 2867 C 287.681 2.17321 -0.854044 0
M  V30 2868 C 288.662 1.69024 0.191049 0
M  V30 2869 O 289.847 1.94141 0.0476779 0
M  V30 2870 C 286.977 3.45719 -0.330983 0
M  V30 2871 C 285.931 4.07409 -1.31155 0
M  V30 2872 C 285.257 5.30762 -0.64778 0
M  V30 2873 C 286.557 4.48665 -2.67388 0
M  V30 2874 H 288.251 2.41845 -1.76498 0
M  V30 2875 H 285.797 1.16233 -0.850051 0
M  V30 2876 H 287.75 4.21241 -0.115645 0
M  V30 2877 H 286.474 3.2075 0.615381 0
M  V30 2878 H 285.133 3.33919 -1.51306 0
M  V30 2879 H 284.781 5.02078 0.304398 0
M  V30 2880 H 284.481 5.72992 -1.30207 0
M  V30 2881 H 286.005 6.08998 -0.441972 0
M  V30 2882 H 287.419 5.15364 -2.51143 0
M  V30 2883 H 285.816 5.01814 -3.29093 0
M  V30 2884 H 286.886 3.60543 -3.24248 0
M  V30 2885 N 288.23 0.939286 1.26551 0
M  V30 2886 C 289.478 0.58469 1.93457 0
M  V30 2887 C 289.799 -0.878774 1.74076 0
M  V30 2888 O 289.069 -1.62421 1.09528 0
M  V30 2889 H 287.649 0.21325 0.715914 0
M  V30 2890 H 290.311 1.1942 1.54029 0
M  V30 2891 H 289.407 0.800849 3.0165 0
M  V30 2892 N 289.708 -1.40897 0.706093 0
M  V30 2893 C 290.936 -2.05373 0.250887 0
M  V30 2894 C 291.351 -1.53172 -1.10381 0
M  V30 2895 O 290.708 -0.684305 -1.69185 0
M  V30 2896 C 290.759 -3.6088 0.211571 0
M  V30 2897 O 290.48 -4.11153 1.51276 0
M  V30 2898 C 291.981 -4.42517 -0.263346 0
M  V30 2899 H 289.201 -0.66115 0.114552 0
M  V30 2900 H 291.745 -1.80479 0.961635 0
M  V30 2901 H 289.9 -3.84777 -0.450073 0
M  V30 2902 H 290.314 -5.05279 1.40689 0
M  V30 2903 H 291.788 -5.51479 -0.239718 0
M  V30 2904 H 292.265 -4.19396 -1.30397 0
M  V30 2905 H 292.871 -4.23708 0.367677 0
M  V30 2906 N 291.186 -0.45159 -1.50991 0
M  V30 2907 C 292.118 0.388634 -2.25881 0
M  V30 2908 C 293.131 0.974041 -1.30446 0
M  V30 2909 O 294.32 0.865758 -1.56099 0
M  V30 2910 C 291.42 1.5571 -3.01011 0
M  V30 2911 C 290.593 1.08801 -4.23652 0
M  V30 2912 C 289.652 2.12825 -4.8124 0
M  V30 2913 O 288.678 1.71678 -5.42693 0
M  V30 2914 N 289.88 3.45453 -4.66522 0
M  V30 2915 H 292.645 -0.25329 -2.98628 0
M  V30 2916 H 290.206 -0.281268 -1.59438 0
M  V30 2917 H 292.198 2.24952 -3.3642 0
M  V30 2918 H 290.768 2.10409 -2.31186 0
M  V30 2919 H 289.988 0.22215 -3.93574 0
M  V30 2920 H 291.276 0.752213 -5.03209 0
M  V30 2921 H 290.674 3.81605 -4.17605 0
M  V30 2922 H 289.231 4.10549 -5.06254 0
M  V30 2923 N 292.664 1.56529 -0.183458 0
M  V30 2924 C 293.892 2.01623 0.464285 0
M  V30 2925 C 294.307 1.06366 1.55986 0
M  V30 2926 O 293.664 0.0665398 1.82379 0
M  V30 2927 C 293.715 3.46475 1.03139 0
M  V30 2928 O 293.436 4.38095 -0.0204675 0
M  V30 2929 C 294.937 4.0703 1.75617 0
M  V30 2930 H 292.157 0.660596 0.117704 0
M  V30 2931 H 294.701 2.02451 -0.288751 0
M  V30 2932 H 292.856 3.46383 1.73486 0
M  V30 2933 H 293.27 5.22973 0.399952 0
M  V30 2934 H 294.744 5.10271 2.10542 0
M  V30 2935 H 295.221 3.49819 2.65563 0
M  V30 2936 H 295.827 4.1086 1.09882 0
M  V30 2937 N 294.142 -0.090211 1.57342 0
M  V30 2938 C 295.372 -0.805055 1.90269 0
M  V30 2939 C 295.78 -1.72561 0.775842 0
M  V30 2940 O 295.123 -1.81839 -0.260843 0
M  V30 2941 C 295.185 -1.66734 3.18497 0
M  V30 2942 C 294.849 -0.918092 4.47683 0
M  V30 2943 C 295.846 -0.245674 5.19319 0
M  V30 2944 C 293.531 -0.890724 4.94339 0
M  V30 2945 C 295.525 0.444088 6.35851 0
M  V30 2946 C 293.212 -0.197179 6.10782 0
M  V30 2947 C 294.21 0.469044 6.81388 0
M  V30 2948 O 293.898 1.15146 7.95611 0
M  V30 2949 H 293.63 -0.235143 0.633785 0
M  V30 2950 H 296.184 -0.0703805 2.05279 0
M  V30 2951 H 294.414 -2.44437 2.99646 0
M  V30 2952 H 296.103 -2.25919 3.37217 0
M  V30 2953 H 296.869 -0.258246 4.84312 0
M  V30 2954 H 292.748 -1.39873 4.39268 0
M  V30 2955 H 296.292 0.964667 6.90898 0
M  V30 2956 H 292.189 -0.18247 6.45242 0
M  V30 2957 H 292.957 1.05885 8.11622 0
M  V30 2958 N 295.62 -1.53406 -0.361157 0
M  V30 2959 C 296.869 -1.69022 -1.10066 0
M  V30 2960 C 297.182 -0.450838 -1.90333 0
M  V30 2961 O 298.388 -0.487617 -2.67085 0
M  V30 2962 C 296.844 -2.98812 -2.00598 0
M  V30 2963 C 296.452 -4.30027 -1.25621 0
M  V30 2964 C 298.196 -3.23795 -2.74513 0
M  V30 2965 C 296.103 -5.50903 -2.1508 0
M  V30 2966 H 295.033 -0.629776 -0.414606 0
M  V30 2967 H 297.684 -1.79907 -0.361348 0
M  V30 2968 H 296.066 -2.8174 -2.78278 0
M  V30 2969 H 297.24 -4.57745 -0.529739 0
M  V30 2970 H 295.555 -4.11522 -0.635496 0
M  V30 2971 H 298.152 -4.11289 -3.41681 0
M  V30 2972 H 298.495 -2.40045 -3.40123 0
M  V30 2973 H 299.028 -3.41561 -2.03914 0
M  V30 2974 H 295.767 -6.37143 -1.54041 0
M  V30 2975 H 295.287 -5.27459 -2.85565 0
M  V30 2976 H 296.966 -5.85865 -2.74538 0
M  V30 2977 N 297.098 0.621204 -1.44841 0
M  V30 2978 C 298.338 1.39201 -1.49674 0
M  V30 2979 C 298.702 1.91561 -0.129764 0
M  V30 2980 O 299.903 2.68748 -0.0527814 0
M  V30 2981 C 298.174 2.519 -2.53537 0
M  V30 2982 S 299.733 3.39916 -2.77494 0
M  V30 2983 H 296.551 0.474758 -0.529269 0
M  V30 2984 H 299.153 0.718171 -1.81831 0
M  V30 2985 H 297.857 2.11761 -3.51547 0
M  V30 2986 H 297.388 3.241 -2.22986 0
M  V30 2987 H 299.403 4.49646 -2.0984 0
M  V30 2988 N 298.576 1.31904 0.862503 0
M  V30 2989 C 299.524 1.20125 1.9918 0
M  V30 2990 C 300.518 0.107824 1.69056 0
M  V30 2991 O 301.724 0.270223 1.7796 0
M  V30 2992 H 298.099 0.372148 0.65346 0
M  V30 2993 H 300.07 2.15652 2.06244 0
M  V30 2994 C 298.819 0.933099 3.34946 0
M  V30 2995 H 298.142 1.76664 3.5865 0
M  V30 2996 H 299.582 0.890892 4.14535 0
M  V30 2997 C 298.041 -0.364172 3.34926 0
M  V30 2998 O 298.571 -1.37858 3.77304 0
M  V30 2999 N 296.777 -0.383362 2.8806 0
M  V30 3000 H 296.324 0.442651 2.53768 0
M  V30 3001 H 296.282 -1.25123 2.8843 0
M  V30 3002 N 300.054 -1.07777 1.14986 0
M  V30 3003 C 301.3 -1.80557 0.923422 0
M  V30 3004 C 301.633 -1.86298 -0.548337 0
M  V30 3005 O 300.908 -1.34354 -1.40639 0
M  V30 3006 C 301.191 -3.25839 1.53299 0
M  V30 3007 C 301.044 -3.28269 3.07505 0
M  V30 3008 C 302.363 -4.22991 1.21518 0
M  V30 3009 H 299.482 -0.655493 0.336894 0
M  V30 3010 H 302.124 -1.26144 1.42083 0
M  V30 3011 H 300.274 -3.72306 1.10999 0
M  V30 3012 H 301.946 -2.90079 3.58681 0
M  V30 3013 H 300.189 -2.67355 3.4162 0
M  V30 3014 H 300.86 -4.30691 3.45266 0
M  V30 3015 H 303.336 -3.84894 1.581 0
M  V30 3016 H 302.212 -5.22945 1.66793 0
M  V30 3017 H 302.473 -4.41904 0.131505 0
M  V30 3018 N 301.532 -0.945985 -1.26051 0
M  V30 3019 C 302.48 -0.450259 -2.282 0
M  V30 3020 C 303.474 0.47497 -1.62605 0
M  V30 3021 O 304.68 0.352653 -1.76512 0
M  V30 3022 H 301.055 -0.127081 -0.741184 0
M  V30 3023 H 303.026 -1.32422 -2.67408 0
M  V30 3024 C 301.775 0.26467 -3.46691 0
M  V30 3025 H 301.098 -0.438123 -3.97392 0
M  V30 3026 H 302.538 0.575678 -4.20074 0
M  V30 3027 C 300.997 1.48416 -3.02447 0
M  V30 3028 O 301.527 2.58227 -3.07704 0
M  V30 3029 N 299.733 1.34243 -2.57735 0
M  V30 3030 H 299.28 0.448994 -2.53657 0
M  V30 3031 H 299.238 2.15957 -2.28495 0
M  V30 3032 N 303.011 1.40521 -0.713556 0
M  V30 3033 C 303.961 2.27971 -0.036165 0
M  V30 3034 C 304.945 1.43151 0.734623 0
M  V30 3035 O 306.137 1.66261 0.607158 0
M  V30 3036 C 303.266 3.31661 0.886331 0
M  V30 3037 C 302.352 4.23955 0.110836 0
M  V30 3038 N 302.743 4.97641 -0.904847 0
M  V30 3039 C 301.041 4.44674 0.343692 0
M  V30 3040 C 301.742 5.65322 -1.37064 0
M  V30 3041 N 300.718 5.39162 -0.693168 0
M  V30 3042 H 304.52 2.82384 -0.814645 0
M  V30 3043 H 302.034 1.52948 -0.545963 0
M  V30 3044 H 304.031 3.93154 1.38692 0
M  V30 3045 H 302.691 2.78808 1.66421 0
M  V30 3046 H 303.702 5.01689 -1.28563 0
M  V30 3047 H 300.379 4.02801 1.09805 0
M  V30 3048 H 301.769 6.34359 -2.21447 0
M  V30 3049 N 304.489 0.459591 1.5075 0
M  V30 3050 C 305.436 -0.340524 2.28274 0
M  V30 3051 C 306.406 -0.997371 1.32822 0
M  V30 3052 O 307.591 -1.01202 1.61749 0
M  V30 3053 C 304.731 -1.42317 3.14388 0
M  V30 3054 C 303.844 -0.782251 4.24859 0
M  V30 3055 C 302.979 -1.84182 4.98247 0
M  V30 3056 C 302.018 -1.18053 6.00608 0
M  V30 3057 N 301.155 -2.18244 6.67319 0
M  V30 3058 H 305.995 0.326899 2.96202 0
M  V30 3059 H 303.532 0.173057 1.46078 0
M  V30 3060 H 305.49 -2.06241 3.62658 0
M  V30 3061 H 304.12 -2.05992 2.4853 0
M  V30 3062 H 303.172 -0.0307404 3.80388 0
M  V30 3063 H 304.484 -0.259663 4.98124 0
M  V30 3064 H 303.638 -2.55714 5.50177 0
M  V30 3065 H 302.377 -2.39819 4.24662 0
M  V30 3066 H 301.382 -0.450776 5.47949 0
M  V30 3067 H 302.607 -0.631202 6.7616 0
M  V30 3068 H 300.553 -2.72919 5.96533 0
M  V30 3069 H 300.47 -1.70938 7.36421 0
M  V30 3070 H 301.738 -2.89191 7.23871 0
M  V30 3071 N 305.967 -1.56429 0.191757 0
M  V30 3072 C 307.378 -1.83912 -0.321428 0
M  V30 3073 C 307.729 -1.11231 -1.61623 0
M  V30 3074 O 306.854 -0.37202 -2.13178 0
M  V30 3075 C 307.449 -3.33624 -0.589961 0
M  V30 3076 C 306.008 -3.6153 -1.04753 0
M  V30 3077 C 305.155 -2.7714 -0.0943327 0
M  V30 3078 H 308.106 -1.53161 0.415612 0
M  V30 3079 H 308.127 -3.52213 -1.43966 0
M  V30 3080 H 307.639 -3.86495 0.352588 0
M  V30 3081 H 305.74 -3.14089 -2.00447 0
M  V30 3082 H 305.853 -4.69737 -0.942549 0
M  V30 3083 H 304.217 -2.47638 -0.595589 0
M  V30 3084 H 305 -3.32799 0.842601 0
M  V30 3085 N 307.445 0.0818655 -1.57387 0
M  V30 3086 C 308.67 0.799946 -1.91352 0
M  V30 3087 C 309.095 1.70833 -0.787258 0
M  V30 3088 O 308.453 1.79419 0.26048 0
M  V30 3089 C 308.501 1.57812 -3.24234 0
M  V30 3090 O 307.605 2.68806 -3.12757 0
M  V30 3091 H 306.946 0.21891 -0.626877 0
M  V30 3092 H 309.476 0.0531256 -2.04531 0
M  V30 3093 H 309.486 1.95952 -3.57864 0
M  V30 3094 H 308.161 0.911548 -4.05788 0
M  V30 3095 H 306.738 2.33597 -2.90666 0
M  V30 3096 N 308.923 1.53595 0.353017 0
M  V30 3097 C 309.871 1.81605 1.45335 0
M  V30 3098 C 310.865 0.685923 1.54892 0
M  V30 3099 O 312.071 0.869095 1.57628 0
M  V30 3100 H 308.446 0.575204 0.484401 0
M  V30 3101 H 310.417 2.73679 1.18921 0
M  V30 3102 C 309.166 2.03406 2.81995 0
M  V30 3103 H 308.489 2.89814 2.75405 0
M  V30 3104 H 309.929 2.26975 3.58132 0
M  V30 3105 C 308.388 0.816794 3.26849 0
M  V30 3106 O 308.918 0.0115856 4.01698 0
M  V30 3107 N 307.124 0.636682 2.8354 0
M  V30 3108 H 306.671 1.2931 2.22793 0
M  V30 3109 H 306.629 -0.176336 3.13905 0
M  V30 3110 N 310.401 -0.613514 1.45168 0
M  V30 3111 C 311.629 -1.39946 1.5239 0
M  V30 3112 C 312.044 -1.88167 0.154531 0
M  V30 3113 O 311.401 -1.61872 -0.842843 0
M  V30 3114 C 311.452 -2.60795 2.50337 0
M  V30 3115 O 311.173 -2.1458 3.81952 0
M  V30 3116 C 312.674 -3.53723 2.67198 0
M  V30 3117 H 309.894 -0.428593 0.516284 0
M  V30 3118 H 312.438 -0.748753 1.903 0
M  V30 3119 H 310.593 -3.21919 2.15515 0
M  V30 3120 H 311.007 -2.93055 4.34993 0
M  V30 3121 H 312.481 -4.35079 3.39721 0
M  V30 3122 H 312.958 -4.0368 1.73029 0
M  V30 3123 H 313.564 -2.98456 3.02992 0
M  V30 3124 N 311.879 -1.3236 -0.855495 0
M  V30 3125 C 312.826 -1.21225 -1.964 0
M  V30 3126 C 313.796 -0.0946204 -1.6583 0
M  V30 3127 O 314.981 -0.27002 -1.8888 0
M  V30 3128 C 312.121 -0.940419 -3.32039 0
M  V30 3129 C 311.234 -2.14276 -3.75113 0
M  V30 3130 C 310.369 -1.80648 -4.9954 0
M  V30 3131 C 309.408 -2.97208 -5.35102 0
M  V30 3132 N 308.545 -2.63678 -6.50706 0
M  V30 3133 H 313.385 -2.16042 -2.05255 0
M  V30 3134 H 310.922 -1.07451 -1.00463 0
M  V30 3135 H 312.88 -0.763311 -4.10158 0
M  V30 3136 H 311.51 -0.0290413 -3.22787 0
M  V30 3137 H 310.562 -2.43017 -2.92655 0
M  V30 3138 H 311.874 -3.01468 -3.97389 0
M  V30 3139 H 311.028 -1.59484 -5.85363 0
M  V30 3140 H 309.767 -0.906678 -4.79198 0
M  V30 3141 H 308.772 -3.19004 -4.47791 0
M  V30 3142 H 309.997 -3.87918 -5.57401 0
M  V30 3143 H 307.943 -1.76238 -6.31883 0
M  V30 3144 H 307.86 -3.444 -6.72997 0
M  V30 3145 H 309.128 -2.45942 -7.39684 0
M  V30 3146 N 313.357 1.07166 -1.15556 0
M  V30 3147 C 314.603 1.80065 -0.932984 0
M  V30 3148 C 314.936 1.86586 0.53845 0
M  V30 3149 O 314.211 1.35098 1.39924 0
M  V30 3150 C 314.494 3.25022 -1.55025 0
M  V30 3151 C 314.347 3.26634 -3.09242 0
M  V30 3152 C 315.666 4.22341 -1.2376 0
M  V30 3153 H 312.785 0.653697 -0.340366 0
M  V30 3154 H 315.427 1.25389 -1.4275 0
M  V30 3155 H 313.577 3.71712 -1.12972 0
M  V30 3156 H 315.249 2.88173 -3.60214 0
M  V30 3157 H 313.492 2.65539 -3.43033 0
M  V30 3158 H 314.163 4.28854 -3.47546 0
M  V30 3159 H 316.639 3.8405 -1.60139 0
M  V30 3160 H 315.515 5.22053 -1.69564 0
M  V30 3161 H 315.776 4.41828 -0.154938 0
M  V30 3162 N 314.835 0.952656 1.25548 0
M  V30 3163 C 316.112 0.523818 1.88456 0
M  V30 3164 C 316.492 -0.998871 1.85973 0
M  V30 3165 O 315.84 -1.86381 1.3219 0
M  V30 3166 C 316.05 1.0982 3.31271 0
M  V30 3167 C 317.398 1.17385 4.08051 0
M  V30 3168 O 318.422 1.04961 3.40384 0
M  V30 3169 O 317.281 1.36852 5.29088 0
M  V30 3170 H 314.375 0.172485 0.808813 0
M  V30 3171 H 316.921 1.04596 1.33633 0
M  V30 3172 H 315.693 2.1415 3.27499 0
M  V30 3173 H 315.316 0.559191 3.93648 0
M  V30 3174 N 316.313 -1.40141 0.720998 0
M  V30 3175 C 317.26 -2.30688 0.071919 0
M  V30 3176 C 318.23 -1.48476 -0.744584 0
M  V30 3177 O 319.415 -1.77201 -0.707423 0
M  V30 3178 C 316.555 -3.34724 -0.839855 0
M  V30 3179 C 315.668 -4.31998 -0.0122438 0
M  V30 3180 C 314.803 -5.23102 -0.923995 0
M  V30 3181 C 313.842 -6.12033 -0.0907969 0
M  V30 3182 N 312.979 -6.95537 -0.957718 0
M  V30 3183 H 317.819 -2.85628 0.849755 0
M  V30 3184 H 315.356 -1.40653 0.430726 0
M  V30 3185 H 317.314 -3.93618 -1.38279 0
M  V30 3186 H 315.944 -2.81274 -1.58381 0
M  V30 3187 H 314.996 -3.74841 0.64794 0
M  V30 3188 H 316.308 -4.94772 0.632595 0
M  V30 3189 H 315.462 -5.86953 -1.53527 0
M  V30 3190 H 314.201 -4.60615 -1.60264 0
M  V30 3191 H 313.206 -5.47207 0.533377 0
M  V30 3192 H 314.431 -6.76581 0.584428 0
M  V30 3193 H 312.377 -6.35633 -1.62192 0
M  V30 3194 H 312.294 -7.55099 -0.36904 0
M  V30 3195 H 313.562 -7.63832 -1.555 0
M  V30 3196 N 317.792 -0.46758 -1.50504 0
M  V30 3197 C 318.739 0.328413 -2.28452 0
M  V30 3198 C 319.709 0.990313 -1.33349 0
M  V30 3199 O 320.894 1.00343 -1.62284 0
M  V30 3200 C 318.034 1.40648 -3.15138 0
M  V30 3201 C 317.147 0.759709 -4.25267 0
M  V30 3202 C 316.282 1.81537 -4.99217 0
M  V30 3203 C 315.321 1.14866 -6.01226 0
M  V30 3204 N 314.458 2.14702 -6.68467 0
M  V30 3205 H 319.298 -0.342603 -2.96024 0
M  V30 3206 H 316.835 -0.180801 -1.45985 0
M  V30 3207 H 318.793 2.04315 -3.63746 0
M  V30 3208 H 317.423 2.04671 -2.49619 0
M  V30 3209 H 316.475 0.0105671 -3.80399 0
M  V30 3210 H 317.787 0.233243 -4.98254 0
M  V30 3211 H 316.941 2.52793 -5.51526 0
M  V30 3212 H 315.68 2.37564 -4.25928 0
M  V30 3213 H 314.685 0.42171 -5.4818 0
M  V30 3214 H 315.91 0.595334 -6.76485 0
M  V30 3215 H 313.856 2.69752 -5.97972 0
M  V30 3216 H 313.773 1.6703 -7.37317 0
M  V30 3217 H 315.041 2.85348 -7.25394 0
M  V30 3218 N 319.27 1.56325 -0.20005 0
M  V30 3219 C 320.516 1.98012 0.438059 0
M  V30 3220 C 320.849 1.08702 1.60927 0
M  V30 3221 O 320.124 0.140064 1.93995 0
M  V30 3222 C 320.407 3.48841 0.893419 0
M  V30 3223 C 320.26 4.48928 -0.279947 0
M  V30 3224 C 321.579 4.03498 1.75719 0
M  V30 3225 H 318.698 0.719918 0.157757 0
M  V30 3226 H 321.34 1.87743 -0.291968 0
M  V30 3227 H 319.49 3.57723 1.51547 0
M  V30 3228 H 321.162 4.52079 -0.91772 0
M  V30 3229 H 319.405 4.23694 -0.930919 0
M  V30 3230 H 320.076 5.5194 0.0812601 0
M  V30 3231 H 322.552 3.97427 1.23253 0
M  V30 3232 H 321.428 5.09393 2.04476 0
M  V30 3233 H 321.689 3.4906 2.71311 0
M  V30 3234 N 320.748 -0.0735177 1.57428 0
M  V30 3235 C 321.658 -1.10547 2.06922 0
M  V30 3236 C 322.674 -1.42506 0.998402 0
M  V30 3237 O 323.85 -1.52717 1.31299 0
M  V30 3238 C 320.915 -2.40019 2.50184 0
M  V30 3239 C 319.976 -2.15046 3.71556 0
M  V30 3240 C 319.209 -3.38345 4.12745 0
M  V30 3241 O 319.432 -4.47399 3.53822 0
M  V30 3242 O 318.366 -3.2666 5.05546 0
M  V30 3243 H 322.192 -0.715013 2.95163 0
M  V30 3244 H 319.777 -0.287531 1.46607 0
M  V30 3245 H 321.659 -3.16218 2.78539 0
M  V30 3246 H 320.334 -2.78447 1.65072 0
M  V30 3247 H 319.241 -1.36558 3.48285 0
M  V30 3248 H 320.574 -1.81499 4.57514 0
M  V30 3249 N 322.226 -1.5378 -0.344866 0
M  V30 3250 C 323.637 -1.62428 -0.920552 0
M  V30 3251 C 323.988 -0.504747 -1.89596 0
M  V30 3252 O 323.113 0.365711 -2.13287 0
M  V30 3253 C 323.708 -2.94419 -1.67639 0
M  V30 3254 C 322.267 -3.05333 -2.20111 0
M  V30 3255 C 321.414 -2.57866 -1.01982 0
M  V30 3256 H 324.365 -1.58222 -0.123042 0
M  V30 3257 H 324.386 -2.83384 -2.53917 0
M  V30 3258 H 323.898 -3.7588 -0.966224 0
M  V30 3259 H 321.999 -2.28502 -2.94308 0
M  V30 3260 H 322.112 -4.10778 -2.46573 0
M  V30 3261 H 320.476 -2.13241 -1.39285 0
M  V30 3262 H 321.259 -3.41765 -0.324308 0
M  V30 3263 N 323.704 0.605807 -1.45491 0
M  V30 3264 C 324.651 1.7164 -1.54299 0
M  V30 3265 C 325.621 1.61486 -0.388761 0
M  V30 3266 O 326.806 1.81039 -0.602445 0
M  V30 3267 C 323.946 3.09953 -1.51734 0
M  V30 3268 C 323.059 3.309 -2.77721 0
M  V30 3269 C 322.194 4.59329 -2.66816 0
M  V30 3270 C 321.233 4.7354 -3.87848 0
M  V30 3271 N 320.37 5.9327 -3.75467 0
M  V30 3272 H 325.21 1.63449 -2.49176 0
M  V30 3273 H 322.747 0.796957 -1.23641 0
M  V30 3274 H 324.705 3.89977 -1.48235 0
M  V30 3275 H 323.335 3.17098 -0.604068 0
M  V30 3276 H 322.387 2.44639 -2.913 0
M  V30 3277 H 323.699 3.37274 -3.67488 0
M  V30 3278 H 322.853 5.4755 -2.61292 0
M  V30 3279 H 321.592 4.55355 -1.74651 0
M  V30 3280 H 320.597 3.83741 -3.93729 0
M  V30 3281 H 321.822 4.79309 -4.81082 0
M  V30 3282 H 319.768 5.90338 -2.86072 0
M  V30 3283 H 319.685 6.00811 -4.5887 0
M  V30 3284 H 320.953 6.83984 -3.73879 0
M  V30 3285 N 325.182 1.32811 0.848464 0
M  V30 3286 C 326.407 1.26882 1.6406 0
M  V30 3287 C 326.832 -0.15913 1.87426 0
M  V30 3288 O 326.19 -1.11258 1.43148 0
M  V30 3289 C 326.238 2.03997 2.97351 0
M  V30 3290 O 325.342 1.39201 3.88197 0
M  V30 3291 H 324.683 0.436982 0.499943 0
M  V30 3292 H 327.213 1.75224 1.0563 0
M  V30 3293 H 327.223 2.14403 3.47124 0
M  V30 3294 H 325.898 3.0783 2.79666 0
M  V30 3295 H 324.475 1.37381 3.46671 0
M  V30 3296 N 326.66 -1.06551 1.16123 0
M  V30 3297 C 327.9 -1.80889 0.951766 0
M  V30 3298 C 328.264 -1.85062 -0.511465 0
M  V30 3299 O 329.465 -2.55353 -0.83954 0
M  V30 3300 C 327.736 -3.21609 1.55893 0
M  V30 3301 S 329.295 -4.12593 1.49373 0
M  V30 3302 H 326.113 -0.623156 0.342341 0
M  V30 3303 H 328.715 -1.27943 1.47821 0
M  V30 3304 H 327.419 -3.16165 2.61664 0
M  V30 3305 H 326.95 -3.79631 1.0317 0
M  V30 3306 H 328.965 -4.93753 0.492196 0
M  V30 3307 N 328.138 -0.959301 -1.25041 0
M  V30 3308 C 329.415 -0.533805 -1.88175 0
M  V30 3309 C 329.795 0.988994 -1.865 0
M  V30 3310 O 329.143 1.85677 -1.33177 0
M  V30 3311 C 329.353 -1.11575 -3.30684 0
M  V30 3312 C 330.701 -1.19548 -4.07423 0
M  V30 3313 O 331.725 -1.06765 -3.39823 0
M  V30 3314 O 330.584 -1.39656 -5.28354 0
M  V30 3315 H 327.678 -0.176772 -0.807887 0
M  V30 3316 H 330.224 -1.05303 -1.33076 0
M  V30 3317 H 328.996 -2.15884 -3.26358 0
M  V30 3318 H 328.619 -0.580059 -3.93346 0
M  V30 3319 N 329.616 1.39756 -0.72842 0
M  V30 3320 C 330.563 2.30647 -0.0841519 0
M  V30 3321 C 331.533 1.48869 0.7367 0
M  V30 3322 O 332.718 1.77574 0.698015 0
M  V30 3323 C 329.858 3.35165 0.822091 0
M  V30 3324 C 328.971 4.31999 -0.0106663 0
M  V30 3325 C 328.106 5.23585 0.896241 0
M  V30 3326 C 327.145 6.12072 0.0583381 0
M  V30 3327 N 326.282 6.96035 0.920818 0
M  V30 3328 H 331.122 2.85173 -0.864891 0
M  V30 3329 H 328.659 1.40422 -0.438179 0
M  V30 3330 H 330.617 3.94345 1.36189 0
M  V30 3331 H 329.247 2.8211 1.56888 0
M  V30 3332 H 328.299 3.74492 -0.66781 0
M  V30 3333 H 329.611 4.9443 -0.658825 0
M  V30 3334 H 328.765 5.87759 1.50412 0
M  V30 3335 H 327.504 4.61459 1.57819 0
M  V30 3336 H 326.509 5.46916 -0.562389 0
M  V30 3337 H 327.734 6.76261 -0.6203 0
M  V30 3338 H 325.68 6.36485 1.58818 0
M  V30 3339 H 325.597 7.55284 0.32899 0
M  V30 3340 H 326.865 7.64646 1.51447 0
M  V30 3341 N 331.094 0.475555 1.50254 0
M  V30 3342 C 332.322 -0.0754493 2.06762 0
M  V30 3343 C 332.737 -1.33111 1.33891 0
M  V30 3344 O 332.094 -1.77846 0.40952 0
M  V30 3345 C 332.145 -0.359008 3.59713 0
M  V30 3346 O 331.866 0.846851 4.29837 0
M  V30 3347 C 333.367 -0.956484 4.32858 0
M  V30 3348 H 330.587 0.00907525 0.670939 0
M  V30 3349 H 333.131 0.665618 1.93364 0
M  V30 3350 H 331.286 -1.05001 3.72899 0
M  V30 3351 H 331.7 0.594162 5.21124 0
M  V30 3352 H 333.174 -1.10463 5.40834 0
M  V30 3353 H 333.651 -1.94775 3.93649 0
M  V30 3354 H 334.257 -0.303723 4.24214 0
M  V30 3355 N 332.573 -1.56217 0.208337 0
M  V30 3356 C 333.523 -2.16324 -0.720281 0
M  V30 3357 C 334.507 -1.10775 -1.16695 0
M  V30 3358 O 335.699 -1.36801 -1.12314 0
M  V30 3359 C 332.828 -2.83644 -1.93393 0
M  V30 3360 C 331.914 -3.96401 -1.50755 0
M  V30 3361 N 332.305 -4.99546 -0.792937 0
M  V30 3362 C 330.603 -4.08246 -1.79585 0
M  V30 3363 C 331.304 -5.78828 -0.577364 0
M  V30 3364 N 330.28 -5.31723 -1.1301 0
M  V30 3365 H 334.082 -2.93432 -0.165725 0
M  V30 3366 H 331.596 -1.62397 0.00906463 0
M  V30 3367 H 333.593 -3.25107 -2.60981 0
M  V30 3368 H 332.253 -2.08027 -2.49308 0
M  V30 3369 H 333.264 -5.15967 -0.447004 0
M  V30 3370 H 329.941 -3.4377 -2.36915 0
M  V30 3371 H 331.331 -6.71899 -0.00952956 0
M  V30 3372 N 334.051 0.0651679 -1.57465 0
M  V30 3373 C 335.279 0.775808 -1.91804 0
M  V30 3374 C 335.694 1.70782 -0.804916 0
M  V30 3375 O 335.051 1.81153 0.221311 0
M  V30 3376 C 335.102 1.56381 -3.25925 0
M  V30 3377 O 334.823 0.669248 -4.32958 0
M  V30 3378 C 336.324 2.37485 -3.7432 0
M  V30 3379 H 333.544 0.2202 -0.63384 0
M  V30 3380 H 336.088 0.0334587 -2.04473 0
M  V30 3381 H 334.243 2.25837 -3.14764 0
M  V30 3382 H 334.657 1.21801 -5.10162 0
M  V30 3383 H 336.131 2.88223 -4.70778 0
M  V30 3384 H 336.608 3.17307 -3.03666 0
M  V30 3385 H 337.214 1.73173 -3.88447 0
M  V30 3386 N 335.529 1.53961 0.336706 0
M  V30 3387 C 336.769 1.73254 1.08454 0
M  V30 3388 C 337.133 0.488937 1.8567 0
M  V30 3389 O 338.334 0.559001 2.62923 0
M  V30 3390 C 336.605 2.96519 1.99528 0
M  V30 3391 S 338.164 3.36655 2.81441 0
M  V30 3392 H 334.982 0.609353 0.366347 0
M  V30 3393 H 337.584 1.92117 0.362124 0
M  V30 3394 H 336.288 3.85193 1.41614 0
M  V30 3395 H 335.819 2.80142 2.76196 0
M  V30 3396 H 337.834 2.90925 4.01967 0
M  V30 3397 N 337.007 -0.598083 1.45811 0
M  V30 3398 C 338.418 -1.18011 1.44673 0
M  V30 3399 C 338.769 -1.95378 0.179364 0
M  V30 3400 O 337.894 -2.04124 -0.718509 0
M  V30 3401 C 338.489 -2.14677 2.62105 0
M  V30 3402 C 337.048 -2.68236 2.64057 0
M  V30 3403 C 336.195 -1.43816 2.37091 0
M  V30 3404 H 339.146 -0.38686 1.53913 0
M  V30 3405 H 339.167 -2.97878 2.36746 0
M  V30 3406 H 338.679 -1.5834 3.5433 0
M  V30 3407 H 336.78 -3.28486 1.75864 0
M  V30 3408 H 336.893 -3.12021 3.63566 0
M  V30 3409 H 335.257 -1.731 1.86838 0
M  V30 3410 H 336.04 -0.893333 3.31473 0
M  V30 3411 N 338.485 -1.33259 -0.841409 0
M  V30 3412 C 339.896 -1.22066 -1.41269 0
M  V30 3413 C 340.247 0.161479 -1.95534 0
M  V30 3414 O 339.372 1.06094 -1.88608 0
M  V30 3415 C 339.967 -2.20996 -2.568 0
M  V30 3416 C 338.526 -2.13649 -3.09888 0
M  V30 3417 C 337.673 -2.08623 -1.82679 0
M  V30 3418 H 340.624 -1.44895 -0.647395 0
M  V30 3419 H 340.645 -1.81621 -3.34356 0
M  V30 3420 H 340.157 -3.2158 -2.17274 0
M  V30 3421 H 338.258 -1.16359 -3.53965 0
M  V30 3422 H 338.371 -3.04079 -3.70234 0
M  V30 3423 H 336.735 -1.54061 -2.02824 0
M  V30 3424 H 337.518 -3.1101 -1.45353 0
M  V30 3425 N 339.963 1.05934 -1.16686 0
M  V30 3426 C 341.203 1.80382 -0.961345 0
M  V30 3427 C 341.567 1.85331 0.501643 0
M  V30 3428 O 342.768 2.55795 0.825986 0
M  V30 3429 C 341.039 3.20777 -1.57596 0
M  V30 3430 S 342.598 4.11795 -1.51559 0
M  V30 3431 H 339.416 0.621332 -0.345641 0
M  V30 3432 H 342.018 1.27157 -1.48497 0
M  V30 3433 H 340.722 3.14773 -2.63337 0
M  V30 3434 H 340.253 3.79078 -1.05182 0
M  V30 3435 H 342.268 4.93485 -0.518374 0
M  V30 3436 N 341.441 0.965919 1.2453 0
M  V30 3437 C 342.852 0.665929 1.7442 0
M  V30 3438 C 343.203 -0.818407 1.78316 0
M  V30 3439 O 342.328 -1.64037 1.41141 0
M  V30 3440 C 342.923 1.20211 3.16757 0
M  V30 3441 C 341.482 0.952059 3.6416 0
M  V30 3442 C 340.629 1.33848 2.42858 0
M  V30 3443 H 343.58 1.14144 1.10258 0
M  V30 3444 H 343.601 0.567544 3.76244 0
M  V30 3445 H 343.113 2.28244 3.13889 0
M  V30 3446 H 341.214 -0.112821 3.72429 0
M  V30 3447 H 341.327 1.59645 4.51719 0
M  V30 3448 H 339.691 0.756864 2.43195 0
M  V30 3449 H 340.474 2.42827 2.42673 0
M  V30 3450 N 342.919 -1.39368 0.735821 0
M  V30 3451 C 343.882 -2.2896 0.104874 0
M  V30 3452 C 344.882 -1.46347 -0.666274 0
M  V30 3453 O 346.072 -1.67014 -0.49517 0
M  V30 3454 C 343.204 -3.29857 -0.860656 0
M  V30 3455 H 344.397 -2.86259 0.894205 0
M  V30 3456 H 341.95 -1.48029 0.501704 0
M  V30 3457 H 342.685 -2.77615 -1.67631 0
M  V30 3458 H 342.47 -3.9087 -0.310327 0
M  V30 3459 H 343.96 -3.96893 -1.29867 0
M  V30 3460 N 344.397 -0.483516 -1.5 0
M  V30 3461 C 345.808 -0.0314176 -1.86674 0
M  V30 3462 C 346.159 1.37728 -1.39733 0
M  V30 3463 O 345.284 2.02327 -0.767635 0
M  V30 3464 C 345.879 -0.0502376 -3.38763 0
M  V30 3465 C 344.438 0.346442 -3.74802 0
M  V30 3466 C 343.585 -0.430366 -2.7394 0
M  V30 3467 H 346.536 -0.697182 -1.42566 0
M  V30 3468 H 346.557 0.749116 -3.73053 0
M  V30 3469 H 346.069 -1.07563 -3.72897 0
M  V30 3470 H 344.17 1.37572 -3.46273 0
M  V30 3471 H 344.283 0.0391486 -4.79084 0
M  V30 3472 H 342.647 0.117557 -2.54429 0
M  V30 3473 H 343.43 -1.4555 -3.10918 0
M  V30 3474 N 345.875 1.56104 -0.216619 0
M  V30 3475 C 346.785 2.23694 0.706982 0
M  V30 3476 C 347.801 1.24295 1.21765 0
M  V30 3477 O 348.977 1.57094 1.2603 0
M  V30 3478 C 346.042 2.8998 1.90033 0
M  V30 3479 C 345.103 4.04708 1.43213 0
M  V30 3480 C 344.336 4.67824 2.56859 0
M  V30 3481 O 344.559 4.29913 3.74874 0
M  V30 3482 O 343.493 5.56905 2.28343 0
M  V30 3483 H 347.319 3.03272 0.161235 0
M  V30 3484 H 344.904 1.49394 0.0136177 0
M  V30 3485 H 346.786 3.31837 2.59735 0
M  V30 3486 H 345.461 2.13365 2.43428 0
M  V30 3487 H 344.368 3.6743 0.70327 0
M  V30 3488 H 345.701 4.83051 0.944615 0
M  V30 3489 N 347.353 -0.0568162 1.57498 0
M  V30 3490 C 348.283 -1.06593 2.0775 0
M  V30 3491 C 349.264 -1.39448 0.974082 0
M  V30 3492 O 350.449 -1.48815 1.24771 0
M  V30 3493 C 347.579 -2.37509 2.5339 0
M  V30 3494 C 346.533 -2.1897 3.67745 0
M  V30 3495 C 345.859 -3.55402 3.99492 0
M  V30 3496 C 347.159 -1.59859 4.97235 0
M  V30 3497 H 348.853 -0.647706 2.9231 0
M  V30 3498 H 346.399 -0.310116 1.40621 0
M  V30 3499 H 348.352 -3.08409 2.87162 0
M  V30 3500 H 347.076 -2.8134 1.65878 0
M  V30 3501 H 345.735 -1.50508 3.3428 0
M  V30 3502 H 345.383 -3.9683 3.09088 0
M  V30 3503 H 345.083 -3.43831 4.76502 0
M  V30 3504 H 346.607 -4.27708 4.35773 0
M  V30 3505 H 348.021 -2.20642 5.29141 0
M  V30 3506 H 346.418 -1.58942 5.78669 0
M  V30 3507 H 347.488 -0.561506 4.81638 0
M  V30 3508 N 348.832 -1.54138 -0.328536 0
M  V30 3509 C 349.762 -1.86167 -1.40939 0
M  V30 3510 C 350.743 -0.718044 -1.54202 0
M  V30 3511 O 351.928 -0.971328 -1.68163 0
M  V30 3512 C 349.058 -2.08461 -2.77779 0
M  V30 3513 C 348.012 -3.24299 -2.7931 0
M  V30 3514 C 347.338 -3.31955 -4.19178 0
M  V30 3515 C 348.638 -4.62065 -2.43502 0
M  V30 3516 H 350.332 -2.76689 -1.14383 0
M  V30 3517 H 347.878 -1.33132 -0.548806 0
M  V30 3518 H 349.831 -2.29453 -3.53454 0
M  V30 3519 H 348.555 -1.14684 -3.05802 0
M  V30 3520 H 347.214 -3.03187 -2.0609 0
M  V30 3521 H 346.862 -2.35745 -4.44335 0
M  V30 3522 H 346.562 -4.09805 -4.2111 0
M  V30 3523 H 348.086 -3.55175 -4.96672 0
M  V30 3524 H 349.5 -4.8297 -3.08889 0
M  V30 3525 H 347.897 -5.42429 -2.56693 0
M  V30 3526 H 348.967 -4.64652 -1.38659 0
M  V30 3527 N 350.31 0.590341 -1.46126 0
M  V30 3528 C 351.558 1.34616 -1.50742 0
M  V30 3529 C 351.879 1.94363 -0.157486 0
M  V30 3530 O 351.149 1.78136 0.815136 0
M  V30 3531 H 349.729 0.499789 -0.555175 0
M  V30 3532 H 352.391 0.691953 -1.82203 0
M  V30 3533 H 351.487 2.15678 -2.25587 0
M  V30 3534 N 351.788 1.33704 0.83433 0
M  V30 3535 C 353.036 1.25169 1.58673 0
M  V30 3536 C 353.357 -0.18127 1.94156 0
M  V30 3537 O 352.627 -1.11113 1.6134 0
M  V30 3538 H 351.207 0.4603 0.58833 0
M  V30 3539 H 353.869 1.67478 0.996847 0
M  V30 3540 H 352.965 1.84856 2.51465 0
M  V30 3541 N 353.266 -1.05314 1.17247 0
M  V30 3542 C 354.677 -1.59753 0.96623 0
M  V30 3543 C 355.028 -1.9005 -0.487378 0
M  V30 3544 O 354.153 -1.68126 -1.36245 0
M  V30 3545 C 354.748 -2.90249 1.74759 0
M  V30 3546 C 353.307 -3.41352 1.58606 0
M  V30 3547 C 352.454 -2.15103 1.75002 0
M  V30 3548 H 355.405 -0.881406 1.31973 0
M  V30 3549 H 355.426 -3.60097 1.22925 0
M  V30 3550 H 354.938 -2.68166 2.8055 0
M  V30 3551 H 353.039 -3.68474 0.552985 0
M  V30 3552 H 353.152 -4.16019 2.37624 0
M  V30 3553 H 351.516 -2.25804 1.17833 0
M  V30 3554 H 352.299 -1.95491 2.82202 0
M  V30 3555 N 354.744 -0.972509 -1.24016 0
M  V30 3556 C 355.969 -0.654417 -1.96805 0
M  V30 3557 C 356.394 0.770398 -1.716 0
M  V30 3558 O 355.752 1.52361 -0.982647 0
M  V30 3559 C 355.8 -0.941031 -3.48105 0
M  V30 3560 O 354.904 -0.0289472 -4.1239 0
M  V30 3561 H 354.245 -0.24692 -0.616382 0
M  V30 3562 H 356.775 -1.30396 -1.57664 0
M  V30 3563 H 356.785 -0.87452 -3.98517 0
M  V30 3564 H 355.46 -1.97939 -3.65777 0
M  V30 3565 H 354.037 -0.149192 -3.72601 0
M  V30 3566 N 356.222 1.38976 -0.743202 0
M  V30 3567 C 357.468 2.0064 -0.295189 0
M  V30 3568 C 357.801 1.5885 1.11716 0
M  V30 3569 O 357.076 0.821181 1.76315 0
M  V30 3570 C 357.359 3.578 -0.406318 0
M  V30 3571 C 357.212 4.09586 -1.85903 0
M  V30 3572 C 358.531 4.39616 0.206439 0
M  V30 3573 H 355.65 0.728935 -0.108733 0
M  V30 3574 H 358.292 1.65067 -0.940897 0
M  V30 3575 H 356.442 3.88235 0.143419 0
M  V30 3576 H 358.114 3.89837 -2.46627 0
M  V30 3577 H 356.357 3.6284 -2.3776 0
M  V30 3578 H 357.028 5.18708 -1.888 0
M  V30 3579 H 359.504 4.15273 -0.262283 0
M  V30 3580 H 358.38 5.48812 0.0983819 0
M  V30 3581 H 358.641 4.22754 1.2935 0
M  V30 3582 N 357.7 0.491464 1.49741 0
M  V30 3583 C 358.947 -0.0564256 2.02421 0
M  V30 3584 C 359.275 -1.37872 1.37192 0
M  V30 3585 O 358.53 -1.89375 0.493508 0
M  V30 3586 C 358.829 -0.267329 3.56399 0
M  V30 3587 C 358.495 0.975775 4.40215 0
M  V30 3588 C 357.157 1.31655 4.62839 0
M  V30 3589 C 359.509 1.80251 4.89039 0
M  V30 3590 C 356.837 2.48375 5.31532 0
M  V30 3591 C 359.189 2.96116 5.59015 0
M  V30 3592 C 357.853 3.30585 5.79888 0
M  V30 3593 H 357.123 -0.0206476 0.740712 0
M  V30 3594 H 359.77 0.649686 1.80143 0
M  V30 3595 H 358.075 -1.05588 3.77304 0
M  V30 3596 H 359.772 -0.705549 3.94744 0
M  V30 3597 H 356.362 0.700315 4.2284 0
M  V30 3598 H 360.546 1.55239 4.71396 0
M  V30 3599 H 355.802 2.7533 5.45897 0
M  V30 3600 H 359.976 3.60509 5.95824 0
M  V30 3601 H 357.603 4.21132 6.32892 0
M  V30 3602 N 359.178 -1.55987 0.224894 0
M  V30 3603 C 360.108 -2.23426 -0.678457 0
M  V30 3604 C 361.089 -1.20709 -1.19847 0
M  V30 3605 O 362.274 -1.49304 -1.24186 0
M  V30 3606 C 359.404 -2.91676 -1.88527 0
M  V30 3607 C 358.358 -4.00893 -1.49896 0
M  V30 3608 C 357.684 -4.56455 -2.78483 0
M  V30 3609 C 358.984 -5.17769 -0.686461 0
M  V30 3610 H 360.678 -2.99175 -0.116173 0
M  V30 3611 H 358.224 -1.43897 -0.054436 0
M  V30 3612 H 360.177 -3.37547 -2.5227 0
M  V30 3613 H 358.901 -2.1338 -2.47258 0
M  V30 3614 H 357.56 -3.55758 -0.884985 0
M  V30 3615 H 357.208 -3.74886 -3.35365 0
M  V30 3616 H 356.908 -5.30169 -2.53368 0
M  V30 3617 H 358.432 -5.05047 -3.43162 0
M  V30 3618 H 359.846 -5.60001 -1.22767 0
M  V30 3619 H 358.243 -5.97735 -0.532259 0
M  V30 3620 H 359.313 -4.83932 0.306196 0
M  V30 3621 N 360.656 0.0484629 -1.57525 0
M  V30 3622 C 361.903 0.743125 -1.88372 0
M  V30 3623 C 362.231 1.76383 -0.819715 0
M  V30 3624 O 361.486 1.94855 0.181659 0
M  V30 3625 C 361.785 1.46632 -3.25935 0
M  V30 3626 C 361.451 0.583427 -4.4711 0
M  V30 3627 C 360.113 0.340191 -4.79996 0
M  V30 3628 C 362.465 -0.0273345 -5.21193 0
M  V30 3629 C 359.793 -0.522903 -5.84365 0
M  V30 3630 C 362.145 -0.878017 -6.26477 0
M  V30 3631 C 360.809 -1.1309 -6.5785 0
M  V30 3632 H 360.079 0.271929 -0.689301 0
M  V30 3633 H 362.726 0.00336166 -1.915 0
M  V30 3634 H 361.031 2.2789 -3.18706 0
M  V30 3635 H 362.728 2.00902 -3.47044 0
M  V30 3636 H 359.318 0.783151 -4.21384 0
M  V30 3637 H 363.502 0.147654 -4.9608 0
M  V30 3638 H 358.758 -0.727335 -6.07058 0
M  V30 3639 H 362.932 -1.35789 -6.83033 0
M  V30 3640 H 360.559 -1.80144 -7.38547 0
M  V30 3641 N 362.134 1.5431 0.320358 0
M  V30 3642 C 363.545 1.63872 0.894594 0
M  V30 3643 C 363.896 0.534847 1.88769 0
M  V30 3644 O 363.021 -0.331732 2.13842 0
M  V30 3645 C 363.616 2.97049 1.62934 0
M  V30 3646 C 362.175 3.08796 2.15226 0
M  V30 3647 C 361.322 2.59456 0.978671 0
M  V30 3648 H 364.273 1.58398 0.0978544 0
M  V30 3649 H 364.294 2.87388 2.49376 0
M  V30 3650 H 363.806 3.7737 0.906302 0
M  V30 3651 H 361.907 2.33156 2.90636 0
M  V30 3652 H 362.02 4.14649 2.40006 0
M  V30 3653 H 360.384 2.1543 1.35875 0
M  V30 3654 H 361.167 3.42237 0.269895 0
M  V30 3655 N 363.613 -0.582584 1.46437 0
M  V30 3656 C 365.024 -1.1647 1.45916 0
M  V30 3657 C 365.375 -1.95177 0.200077 0
M  V30 3658 O 364.5 -2.04874 -0.696819 0
M  V30 3659 C 365.095 -2.11885 2.64367 0
M  V30 3660 C 363.654 -2.65421 2.66887 0
M  V30 3661 C 362.801 -1.41294 2.38603 0
M  V30 3662 H 365.752 -0.370514 1.54314 0
M  V30 3663 H 365.773 -2.9535 2.39892 0
M  V30 3664 H 365.285 -1.54573 3.5599 0
M  V30 3665 H 363.386 -3.26602 1.79338 0
M  V30 3666 H 363.499 -3.08147 3.66854 0
M  V30 3667 H 361.863 -1.71109 1.88663 0
M  V30 3668 H 362.646 -0.858125 3.32402 0
M  V30 3669 N 365.091 -1.34144 -0.827227 0
M  V30 3670 C 366.038 -1.25364 -1.93785 0
M  V30 3671 C 367.008 -0.129774 -1.65592 0
M  V30 3672 O 368.193 -0.310024 -1.88264 0
M  V30 3673 C 365.333 -1.01064 -3.2997 0
M  V30 3674 C 364.446 -2.22185 -3.70484 0
M  V30 3675 C 363.581 -1.91203 -4.95595 0
M  V30 3676 C 362.62 -3.08491 -5.28677 0
M  V30 3677 N 361.757 -2.77421 -6.44967 0
M  V30 3678 H 366.597 -2.20347 -2.00627 0
M  V30 3679 H 364.134 -1.09558 -0.981608 0
M  V30 3680 H 366.092 -0.850139 -4.08446 0
M  V30 3681 H 364.722 -0.0975026 -3.22653 0
M  V30 3682 H 363.774 -2.4917 -2.87434 0
M  V30 3683 H 365.086 -3.0983 -3.90905 0
M  V30 3684 H 364.24 -1.71864 -5.81848 0
M  V30 3685 H 362.979 -1.00812 -4.77167 0
M  V30 3686 H 361.984 -3.28431 -4.40923 0
M  V30 3687 H 363.209 -3.99655 -5.49047 0
M  V30 3688 H 361.155 -1.89601 -6.28003 0
M  V30 3689 H 361.072 -3.58598 -6.6554 0
M  V30 3690 H 362.34 -2.61577 -7.34301 0
M  V30 3691 N 366.569 1.04691 -1.17803 0
M  V30 3692 C 367.98 1.59238 -0.974689 0
M  V30 3693 C 368.331 1.90306 0.477292 0
M  V30 3694 O 367.456 1.68846 1.35352 0
M  V30 3695 C 368.051 2.89318 -1.76296 0
M  V30 3696 C 366.61 3.40506 -1.60414 0
M  V30 3697 C 365.757 2.14172 -1.76141 0
M  V30 3698 H 368.708 0.874395 -1.32439 0
M  V30 3699 H 368.729 3.5944 -1.24833 0
M  V30 3700 H 368.241 2.66675 -2.81968 0
M  V30 3701 H 366.342 3.68175 -0.572519 0
M  V30 3702 H 366.455 4.14753 -2.39827 0
M  V30 3703 H 364.819 2.25176 -1.19028 0
M  V30 3704 H 365.602 1.93992 -2.83235 0
M  V30 3705 N 368.047 0.979072 1.23499 0
M  V30 3706 C 368.994 0.517904 2.24914 0
M  V30 3707 C 369.964 -0.442525 1.60097 0
M  V30 3708 O 371.149 -0.350365 1.87556 0
M  V30 3709 C 368.289 -0.174813 3.44657 0
M  V30 3710 C 367.402 0.825721 4.24035 0
M  V30 3711 C 366.537 0.107946 5.3109 0
M  V30 3712 C 365.576 1.09778 6.02175 0
M  V30 3713 N 364.713 0.40925 7.00906 0
M  V30 3714 H 369.553 1.38751 2.63727 0
M  V30 3715 H 367.09 0.695303 1.2963 0
M  V30 3716 H 369.048 -0.593233 4.12961 0
M  V30 3717 H 367.678 -1.0083 3.06648 0
M  V30 3718 H 366.73 1.36253 3.55161 0
M  V30 3719 H 368.042 1.58005 4.73113 0
M  V30 3720 H 367.196 -0.367904 6.05583 0
M  V30 3721 H 365.935 -0.678994 4.8295 0
M  V30 3722 H 364.94 1.5844 5.26476 0
M  V30 3723 H 366.165 1.88536 6.52404 0
M  V30 3724 H 364.111 -0.358506 6.5502 0
M  V30 3725 H 364.028 1.10226 7.47921 0
M  V30 3726 H 365.296 -0.0442557 7.79487 0
M  V30 3727 N 369.525 -1.3858 0.750561 0
M  V30 3728 C 370.802 -1.94231 0.231009 0
M  V30 3729 C 371.182 -1.68611 -1.27018 0
M  V30 3730 O 370.53 -1.02296 -2.04323 0
M  V30 3731 C 370.74 -3.44123 0.581428 0
M  V30 3732 C 372.088 -4.2116 0.539389 0
M  V30 3733 O 373.112 -3.52391 0.519541 0
M  V30 3734 O 371.971 -5.43749 0.54765 0
M  V30 3735 H 369.065 -0.825639 0.0474263 0
M  V30 3736 H 371.611 -1.4799 0.830478 0
M  V30 3737 H 370.383 -3.56267 1.61833 0
M  V30 3738 H 370.006 -3.97573 -0.0462047 0
M  V30 3739 N 371.003 -0.499398 -1.49478 0
M  V30 3740 C 372.231 0.0425456 -2.06856 0
M  V30 3741 C 372.646 1.30964 -1.35992 0
M  V30 3742 O 372.003 1.77172 -0.437762 0
M  V30 3743 C 372.054 0.301735 -3.60239 0
M  V30 3744 O 371.775 -0.915127 -4.28436 0
M  V30 3745 C 373.276 0.887499 -4.34325 0
M  V30 3746 H 370.496 -0.0197482 -0.670709 0
M  V30 3747 H 373.04 -0.696297 -1.92281 0
M  V30 3748 H 371.195 0.990556 -3.74522 0
M  V30 3749 H 371.609 -0.676993 -5.20113 0
M  V30 3750 H 373.083 1.01845 -5.42523 0
M  V30 3751 H 373.56 1.88488 -3.96698 0
M  V30 3752 H 374.166 0.236196 -4.24644 0
M  V30 3753 N 372.481 1.55866 -0.233164 0
M  V30 3754 C 373.411 2.23783 0.666599 0
M  V30 3755 C 374.392 1.21343 1.19205 0
M  V30 3756 O 375.577 1.4996 1.23392 0
M  V30 3757 C 372.707 2.92671 1.86978 0
M  V30 3758 C 371.661 4.01682 1.47768 0
M  V30 3759 C 370.987 4.57926 2.76058 0
M  V30 3760 C 372.287 5.18126 0.658993 0
M  V30 3761 H 373.981 2.99232 0.100306 0
M  V30 3762 H 371.527 1.43924 0.046804 0
M  V30 3763 H 373.48 3.3888 2.50476 0
M  V30 3764 H 372.204 2.14688 2.46123 0
M  V30 3765 H 370.863 3.56222 0.866106 0
M  V30 3766 H 370.511 3.76659 3.33372 0
M  V30 3767 H 370.211 5.31505 2.50552 0
M  V30 3768 H 371.735 5.06859 3.40479 0
M  V30 3769 H 373.149 5.60644 1.19795 0
M  V30 3770 H 371.546 5.98009 0.500552 0
M  V30 3771 H 372.616 4.83763 -0.331856 0
M  V30 3772 N 373.959 -0.0401083 1.57549 0
M  V30 3773 C 374.892 -1.07689 2.01192 0
M  V30 3774 C 375.87 -1.358 0.894273 0
M  V30 3775 O 377.054 -1.48642 1.15921 0
M  V30 3776 C 374.181 -2.41418 2.3756 0
M  V30 3777 C 373.227 -2.29237 3.59656 0
M  V30 3778 S 374.06 -1.65628 5.09242 0
M  V30 3779 C 375.216 -3.0087 5.48843 0
M  V30 3780 H 375.449 -0.705108 2.88817 0
M  V30 3781 H 372.982 -0.249724 1.52367 0
M  V30 3782 H 374.94 -3.18329 2.59186 0
M  V30 3783 H 373.601 -2.75747 1.50407 0
M  V30 3784 H 372.794 -3.27932 3.82722 0
M  V30 3785 H 372.396 -1.60469 3.37825 0
M  V30 3786 H 374.688 -3.97201 5.48851 0
M  V30 3787 H 375.631 -2.82549 6.49286 0
M  V30 3788 H 376.039 -3.02934 4.76331 0
M  V30 3789 N 375.437 -1.54477 -0.31217 0
M  V30 3790 C 376.686 -1.72438 -1.04633 0
M  V30 3791 C 376.999 -0.511163 -1.88803 0
M  V30 3792 O 378.205 -0.572341 -2.65399 0
M  V30 3793 C 376.661 -3.05043 -1.9099 0
M  V30 3794 C 376.269 -4.33806 -1.11877 0
M  V30 3795 C 378.013 -3.32364 -2.64073 0
M  V30 3796 C 375.92 -5.57467 -1.97445 0
M  V30 3797 H 374.85 -0.642647 -0.394361 0
M  V30 3798 H 377.501 -1.80966 -0.303929 0
M  V30 3799 H 375.883 -2.90451 -2.69173 0
M  V30 3800 H 377.057 -4.59199 -0.383843 0
M  V30 3801 H 375.372 -4.13336 -0.504252 0
M  V30 3802 H 377.969 -4.21951 -3.28423 0
M  V30 3803 H 378.312 -2.50745 -3.32314 0
M  V30 3804 H 378.845 -3.47875 -1.92944 0
M  V30 3805 H 375.584 -6.41722 -1.33692 0
M  V30 3806 H 375.104 -5.36277 -2.6864 0
M  V30 3807 H 376.783 -5.94303 -2.5576 0
M  V30 3808 N 376.915 0.57481 -1.46744 0
M  V30 3809 C 378.14 1.36341 -1.56288 0
M  V30 3810 C 378.565 1.86954 -0.207347 0
M  V30 3811 O 377.923 1.62006 0.813871 0
M  V30 3812 C 377.971 2.52147 -2.57787 0
M  V30 3813 O 377.075 3.53834 -2.11838 0
M  V30 3814 H 376.416 0.405713 -0.525636 0
M  V30 3815 H 378.946 0.696453 -1.92382 0
M  V30 3816 H 378.956 2.98958 -2.77648 0
M  V30 3817 H 377.631 2.14663 -3.5622 0
M  V30 3818 H 376.208 3.1345 -2.01999 0
M  V30 3819 N 378.394 1.34581 0.820102 0
M  V30 3820 C 379.81 1.14325 1.11364 0
M  V30 3821 C 380.01 -0.0533648 2.01429 0
M  V30 3822 O 379.066 -0.728044 2.41776 0
M  V30 3823 C 380.379 2.43983 1.75764 0
M  V30 3824 C 381.927 2.50065 1.88246 0
M  V30 3825 C 382.402 3.79732 2.56061 0
M  V30 3826 N 383.893 3.80908 2.63558 0
M  V30 3827 C 384.628 4.77961 3.16766 0
M  V30 3828 N 384.124 5.85397 3.70517 0
M  V30 3829 N 385.917 4.65413 3.15194 0
M  V30 3830 H 378.068 2.11246 0.221096 0
M  V30 3831 H 380.331 0.934289 0.160649 0
M  V30 3832 H 380.037 3.31651 1.1705 0
M  V30 3833 H 379.911 2.57531 2.75604 0
M  V30 3834 H 382.298 1.62834 2.46108 0
M  V30 3835 H 382.379 2.40442 0.873006 0
M  V30 3836 H 382.023 4.67354 1.98853 0
M  V30 3837 H 381.953 3.86639 3.57516 0
M  V30 3838 H 384.444 3.03274 2.25463 0
M  V30 3839 H 384.757 6.55463 4.09376 0
M  V30 3840 H 383.102 5.89107 3.68752 0
M  V30 3841 H 386.293 3.80627 2.72471 0
M  V30 3842 H 386.466 5.41216 3.56356 0
M  V30 3843 N 379.872 -1.04064 1.18357 0
M  V30 3844 C 381.1 -1.80916 1.00384 0
M  V30 3845 C 381.515 -1.83414 -0.447738 0
M  V30 3846 O 380.872 -1.26962 -1.31099 0
M  V30 3847 C 380.923 -3.26516 1.55144 0
M  V30 3848 O 380.644 -3.2424 2.94618 0
M  V30 3849 C 382.145 -4.20013 1.41789 0
M  V30 3850 H 379.365 -0.569728 0.354474 0
M  V30 3851 H 381.909 -1.31151 1.56906 0
M  V30 3852 H 380.064 -3.73512 1.02798 0
M  V30 3853 H 380.478 -4.15452 3.20156 0
M  V30 3854 H 381.952 -5.20111 1.84901 0
M  V30 3855 H 382.429 -4.37667 0.36661 0
M  V30 3856 H 383.035 -3.78881 1.93207 0
M  V30 3857 N 381.35 -0.985608 -1.22978 0
M  V30 3858 C 382.761 -0.693593 -1.73338 0
M  V30 3859 C 383.112 0.789935 -1.79595 0
M  V30 3860 O 382.237 1.61771 -1.43733 0
M  V30 3861 C 382.832 -1.25235 -3.14804 0
M  V30 3862 C 381.391 -1.00987 -3.626 0
M  V30 3863 C 380.538 -1.37695 -2.40698 0
M  V30 3864 H 383.489 -1.15884 -1.08428 0
M  V30 3865 H 383.51 -0.627329 -3.75293 0
M  V30 3866 H 383.022 -2.33209 -3.10218 0
M  V30 3867 H 381.123 0.0535565 -3.72562 0
M  V30 3868 H 381.236 -1.66812 -4.49122 0
M  V30 3869 H 379.6 -0.795459 -2.4196 0
M  V30 3870 H 380.383 -2.46657 -2.38779 0
M  V30 3871 N 382.828 1.3818 -0.7579 0
M  V30 3872 C 383.738 2.3421 -0.135247 0
M  V30 3873 C 384.754 1.59487 0.695683 0
M  V30 3874 O 385.93 1.91657 0.618832 0
M  V30 3875 C 382.995 3.3862 0.744139 0
M  V30 3876 C 382.056 4.2918 -0.101658 0
M  V30 3877 C 381.289 5.28603 0.735851 0
M  V30 3878 O 381.512 5.35166 1.97366 0
M  V30 3879 O 380.446 6.01707 0.152372 0
M  V30 3880 H 384.272 2.8916 -0.928436 0
M  V30 3881 H 381.857 1.40101 -0.518855 0
M  V30 3882 H 383.739 4.02539 1.2466 0
M  V30 3883 H 382.414 2.86019 1.51575 0
M  V30 3884 H 381.321 3.68407 -0.650167 0
M  V30 3885 H 382.654 4.85048 -0.836024 0
M  V30 3886 N 384.306 0.507319 1.49211 0
M  V30 3887 C 385.552 -0.0350047 2.0277 0
M  V30 3888 C 385.885 -1.3606 1.38569 0
M  V30 3889 O 385.16 -1.87321 0.523542 0
M  V30 3890 C 385.443 -0.180916 3.59645 0
M  V30 3891 C 385.296 1.16825 4.34364 0
M  V30 3892 C 386.615 -0.918558 4.30407 0
M  V30 3893 H 383.734 -0.0112473 0.736914 0
M  V30 3894 H 386.376 0.659956 1.7817 0
M  V30 3895 H 384.526 -0.772826 3.80736 0
M  V30 3896 H 386.198 1.79952 4.24753 0
M  V30 3897 H 384.441 1.75594 3.96673 0
M  V30 3898 H 385.112 1.01939 5.42506 0
M  V30 3899 H 387.588 -0.41649 4.1401 0
M  V30 3900 H 386.464 -0.989505 5.39907 0
M  V30 3901 H 386.725 -1.96373 3.96093 0
M  V30 3902 N 385.784 -1.5574 0.241426 0
M  V30 3903 C 387.012 -2.03208 -0.389134 0
M  V30 3904 C 387.427 -1.12082 -1.51931 0
M  V30 3905 O 386.784 -0.134183 -1.82006 0
M  V30 3906 C 386.835 -3.50064 -0.902087 0
M  V30 3907 O 386.556 -4.37717 0.18305 0
M  V30 3908 C 388.057 -4.13268 -1.60389 0
M  V30 3909 H 385.277 -0.664509 -0.0931053 0
M  V30 3910 H 387.821 -2.0124 0.36369 0
M  V30 3911 H 385.976 -3.52583 -1.60511 0
M  V30 3912 H 386.39 -5.24097 -0.205579 0
M  V30 3913 H 387.864 -5.17733 -1.91458 0
M  V30 3914 H 388.341 -3.59434 -2.52397 0
M  V30 3915 H 388.947 -4.14655 -0.945576 0
M  V30 3916 N 387.262 0.0317525 -1.57568 0
M  V30 3917 C 388.502 0.727979 -1.90997 0
M  V30 3918 C 388.866 1.72664 -0.839708 0
M  V30 3919 O 390.067 2.47092 -1.05825 0
M  V30 3920 C 388.338 1.38239 -3.29583 0
M  V30 3921 S 389.897 2.10814 -3.84841 0
M  V30 3922 H 386.715 0.241226 -0.668828 0
M  V30 3923 H 389.317 -0.0173037 -1.95492 0
M  V30 3924 H 388.021 0.642288 -4.05343 0
M  V30 3925 H 387.552 2.16628 -3.28384 0
M  V30 3926 H 389.567 3.3792 -3.63352 0
M  V30 3927 N 388.74 1.54641 0.303973 0
M  V30 3928 C 389.986 1.74038 1.04109 0
M  V30 3929 C 390.319 0.523051 1.87024 0
M  V30 3930 O 389.594 -0.479874 1.88487 0
M  V30 3931 C 389.877 3.02761 1.94955 0
M  V30 3932 C 389.73 4.34787 1.1524 0
M  V30 3933 C 391.049 3.27336 2.94175 0
M  V30 3934 H 388.168 0.63323 0.377079 0
M  V30 3935 H 390.81 1.87354 0.316001 0
M  V30 3936 H 388.96 2.9154 2.56782 0
M  V30 3937 H 390.632 4.57922 0.557236 0
M  V30 3938 H 388.875 4.31407 0.455053 0
M  V30 3939 H 389.546 5.21116 1.8205 0
M  V30 3940 H 392.022 3.38148 2.42477 0
M  V30 3941 H 390.898 4.18726 3.54908 0
M  V30 3942 H 391.159 2.45491 3.67677 0
M  V30 3943 N 390.218 -0.567019 1.47046 0
M  V30 3944 C 391.464 -1.32658 1.53394 0
M  V30 3945 C 391.797 -1.93254 0.19148 0
M  V30 3946 O 391.072 -1.77338 -0.798844 0
M  V30 3947 C 391.355 -2.44412 2.64452 0
M  V30 3948 C 391.208 -1.88749 4.08282 0
M  V30 3949 C 392.527 -3.46387 2.71485 0
M  V30 3950 H 389.646 -0.48098 0.558415 0
M  V30 3951 H 392.288 -0.635481 1.79058 0
M  V30 3952 H 390.438 -3.03363 2.427 0
M  V30 3953 H 392.11 -1.34134 4.41368 0
M  V30 3954 H 390.353 -1.19481 4.17021 0
M  V30 3955 H 391.024 -2.69491 4.81745 0
M  V30 3956 H 393.5 -2.9734 2.91081 0
M  V30 3957 H 392.376 -4.2202 3.50985 0
M  V30 3958 H 392.637 -4.04616 1.78153 0
M  V30 3959 N 391.696 -1.35014 -0.812953 0
M  V30 3960 C 392.942 -1.2812 -1.57204 0
M  V30 3961 C 393.275 0.145869 -1.93651 0
M  V30 3962 O 392.55 1.0937 -1.60836 0
M  V30 3963 C 392.833 -2.18162 -2.86492 0
M  V30 3964 C 392.686 -3.69454 -2.56561 0
M  V30 3965 C 394.005 -2.07439 -3.88145 0
M  V30 3966 H 391.124 -0.466746 -0.570366 0
M  V30 3967 H 393.766 -1.65357 -0.935783 0
M  V30 3968 H 391.916 -1.86535 -3.40789 0
M  V30 3969 H 393.588 -4.11493 -2.08497 0
M  V30 3970 H 391.831 -3.9005 -1.89851 0
M  V30 3971 H 392.502 -4.27835 -3.48799 0
M  V30 3972 H 394.978 -2.35228 -3.4323 0
M  V30 3973 H 393.854 -2.7265 -4.76396 0
M  V30 3974 H 394.115 -1.05439 -4.29343 0
M  V30 3975 N 393.175 1.03435 -1.18907 0
M  V30 3976 C 394.452 1.73778 -0.89781 0
M  V30 3977 C 394.832 2.02458 0.597832 0
M  V30 3978 O 394.18 1.67482 1.55441 0
M  V30 3979 C 394.39 3.01845 -1.75187 0
M  V30 3980 C 395.738 3.7546 -1.9828 0
M  V30 3981 O 396.762 3.11759 -1.72293 0
M  V30 3982 O 395.621 4.89966 -2.42065 0
M  V30 3983 H 392.715 0.75651 -0.334098 0
M  V30 3984 H 395.261 1.09444 -1.29693 0
M  V30 3985 H 394.033 2.76836 -2.76545 0
M  V30 3986 H 393.656 3.73919 -1.35167 0
M  V30 3987 N 394.653 0.992116 1.22453 0
M  V30 3988 C 395.899 0.668523 1.91464 0
M  V30 3989 C 396.232 -0.797313 1.77078 0
M  V30 3990 O 395.507 -1.5765 1.13916 0
M  V30 3991 C 395.79 1.07424 3.43703 0
M  V30 3992 C 395.643 2.59857 3.67143 0
M  V30 3993 C 396.962 0.626891 4.35612 0
M  V30 3994 H 394.081 0.244341 0.695318 0
M  V30 3995 H 396.723 1.2355 1.44345 0
M  V30 3996 H 394.873 0.591816 3.83966 0
M  V30 3997 H 396.545 3.15764 3.3629 0
M  V30 3998 H 394.788 3.01961 3.11451 0
M  V30 3999 H 395.459 2.83296 4.73759 0
M  V30 4000 H 397.935 1.04125 4.02861 0
M  V30 4001 H 396.811 0.939076 5.40807 0
M  V30 4002 H 397.072 -0.472457 4.39568 0
M  V30 4003 N 396.131 -1.37776 0.765217 0
M  V30 4004 C 397.356 -2.04651 0.336537 0
M  V30 4005 C 397.781 -1.57337 -1.03086 0
M  V30 4006 O 397.139 -0.730621 -1.65927 0
M  V30 4007 C 397.187 -3.58577 0.381468 0
M  V30 4008 O 396.291 -4.07706 -0.62042 0
M  V30 4009 H 395.632 -0.64756 0.146838 0
M  V30 4010 H 398.162 -1.76221 1.03959 0
M  V30 4011 H 398.172 -4.07314 0.236448 0
M  V30 4012 H 396.847 -3.9237 1.37907 0
M  V30 4013 H 395.424 -3.70306 -0.439056 0
M  V30 4014 N 397.609 -0.515225 -1.4894 0
M  V30 4015 C 398.559 0.275113 -2.26334 0
M  V30 4016 C 399.543 0.923007 -1.31793 0
M  V30 4017 O 400.735 0.828254 -1.56426 0
M  V30 4018 C 397.864 1.33041 -3.16473 0
M  V30 4019 C 396.95 0.688051 -4.18481 0
M  V30 4020 N 397.341 -0.217638 -5.05332 0
M  V30 4021 C 395.639 0.94699 -4.3583 0
M  V30 4022 C 396.34 -0.58676 -5.78733 0
M  V30 4023 N 395.316 0.0486966 -5.43578 0
M  V30 4024 H 399.118 -0.421876 -2.90856 0
M  V30 4025 H 396.632 -0.332249 -1.58965 0
M  V30 4026 H 398.629 1.9102 -3.70563 0
M  V30 4027 H 397.289 2.02894 -2.53504 0
M  V30 4028 H 398.3 -0.589343 -5.14536 0
M  V30 4029 H 394.977 1.63719 -3.8406 0
M  V30 4030 H 396.367 -1.32855 -6.58634 0
M  V30 4031 N 399.087 1.5561 -0.249682 0
M  V30 4032 C 399.997 2.25143 0.659375 0
M  V30 4033 C 401.013 1.2685 1.19101 0
M  V30 4034 O 402.189 1.59732 1.22669 0
M  V30 4035 C 399.254 2.93945 1.8384 0
M  V30 4036 C 398.315 4.07655 1.34596 0
M  V30 4037 C 397.548 4.73167 2.46878 0
M  V30 4038 O 397.771 4.37768 3.65671 0
M  V30 4039 O 396.705 5.61623 2.16478 0
M  V30 4040 H 400.531 3.03545 0.0968698 0
M  V30 4041 H 398.116 1.49389 -0.018074 0
M  V30 4042 H 399.998 3.37271 2.52638 0
M  V30 4043 H 398.673 2.18481 2.38847 0
M  V30 4044 H 397.58 3.68839 0.625174 0
M  V30 4045 H 398.913 4.84946 0.841941 0
M  V30 4046 N 400.565 -0.0233959 1.57583 0
M  V30 4047 C 401.842 -0.748794 1.807 0
M  V30 4048 C 402.222 -1.9327 0.849106 0
M  V30 4049 O 401.57 -2.28247 -0.107468 0
M  V30 4050 C 401.78 -1.17651 3.28571 0
M  V30 4051 C 403.128 -1.59008 3.93702 0
M  V30 4052 O 404.152 -1.27094 3.32755 0
M  V30 4053 O 403.011 -2.18264 5.01022 0
M  V30 4054 H 400.105 -0.362578 0.743281 0
M  V30 4055 H 402.651 0.000261958 1.697 0
M  V30 4056 H 401.423 -0.331603 3.89892 0
M  V30 4057 H 401.046 -1.98541 3.44481 0
M  V30 4058 N 402.043 -1.548 -0.295768 0
M  V30 4059 C 403.454 -1.65274 -0.868411 0
M  V30 4060 C 403.805 -0.56481 -1.87894 0
M  V30 4061 O 402.93 0.29767 -2.14343 0
M  V30 4062 C 403.525 -2.99603 -1.58188 0
M  V30 4063 C 402.084 -3.12181 -2.10286 0
M  V30 4064 C 401.231 -2.6098 -0.93727 0
M  V30 4065 H 404.182 -1.58534 -0.0726422 0
M  V30 4066 H 404.203 -2.91319 -2.44772 0
M  V30 4067 H 403.715 -3.78764 -0.846151 0
M  V30 4068 H 401.816 -2.3775 -2.8689 0
M  V30 4069 H 401.929 -4.18415 -2.33379 0
M  V30 4070 H 400.293 -2.17564 -1.32431 0
M  V30 4071 H 401.076 -3.42623 -0.215414 0
M  V30 4072 N 403.521 0.559213 -1.47345 0
M  V30 4073 C 404.431 1.69388 -1.62311 0
M  V30 4074 C 405.447 1.6648 -0.505993 0
M  V30 4075 O 406.623 1.85964 -0.773262 0
M  V30 4076 C 403.688 3.05894 -1.63185 0
M  V30 4077 C 402.749 3.19885 -2.86307 0
M  V30 4078 C 401.982 4.49879 -2.87131 0
M  V30 4079 O 402.205 5.35217 -1.97229 0
M  V30 4080 O 401.139 4.67618 -3.78968 0
M  V30 4081 H 404.965 1.59706 -2.58317 0
M  V30 4082 H 402.55 0.728989 -1.30407 0
M  V30 4083 H 404.432 3.87133 -1.66451 0
M  V30 4084 H 403.107 3.15964 -0.70345 0
M  V30 4085 H 402.014 2.38052 -2.88587 0
M  V30 4086 H 403.347 3.14718 -3.78435 0
M  V30 4087 N 404.999 1.35443 0.805782 0
M  V30 4088 C 406.245 1.28952 1.56522 0
M  V30 4089 C 406.578 -0.135597 1.93726 0
M  V30 4090 O 405.853 -1.08516 1.61414 0
M  V30 4091 C 406.136 2.19678 2.85331 0
M  V30 4092 C 405.989 3.7081 2.54598 0
M  V30 4093 C 407.308 2.09495 3.8704 0
M  V30 4094 H 404.427 0.469764 0.567883 0
M  V30 4095 H 407.069 1.65851 0.927001 0
M  V30 4096 H 405.219 1.8834 3.39795 0
M  V30 4097 H 406.891 4.12593 2.06312 0
M  V30 4098 H 405.134 3.91051 1.8778 0
M  V30 4099 H 405.805 4.29679 3.46525 0
M  V30 4100 H 408.281 2.37045 3.41978 0
M  V30 4101 H 407.157 2.75173 4.74943 0
M  V30 4102 H 407.418 1.07714 4.28777 0
M  V30 4103 N 406.477 -1.02803 1.19454 0
M  V30 4104 C 407.424 -2.11099 0.933046 0
M  V30 4105 C 408.394 -1.65571 -0.132447 0
M  V30 4106 O 409.579 -1.90797 0.00987576 0
M  V30 4107 C 406.719 -3.41763 0.478747 0
M  V30 4108 C 405.832 -4.00833 1.6111 0
M  V30 4109 C 404.967 -5.19511 1.10825 0
M  V30 4110 C 404.006 -5.70639 2.21445 0
M  V30 4111 N 403.143 -6.80589 1.72461 0
M  V30 4112 H 407.983 -2.32804 1.86028 0
M  V30 4113 H 405.52 -1.14179 0.927441 0
M  V30 4114 H 407.478 -4.16736 0.196745 0
M  V30 4115 H 406.108 -3.20166 -0.411493 0
M  V30 4116 H 405.16 -3.23066 2.00829 0
M  V30 4117 H 406.472 -4.34794 2.4445 0
M  V30 4118 H 405.626 -6.01645 0.781533 0
M  V30 4119 H 404.365 -4.87086 0.244606 0
M  V30 4120 H 403.37 -4.87116 2.54947 0
M  V30 4121 H 404.595 -6.05102 3.08267 0
M  V30 4122 H 402.541 -6.50016 0.884056 0
M  V30 4123 H 402.458 -7.13681 2.49389 0
M  V30 4124 H 403.726 -7.66317 1.42755 0
M  V30 4125 N 407.956 -0.998596 -1.21925 0
M  V30 4126 C 409.203 -0.677663 -1.90824 0
M  V30 4127 C 409.531 0.790905 -1.77693 0
M  V30 4128 O 408.786 1.58817 -1.14349 0
M  V30 4129 C 409.085 -1.03648 -3.42041 0
M  V30 4130 C 408.751 -2.49825 -3.75364 0
M  V30 4131 C 407.413 -2.8977 -3.8417 0
M  V30 4132 C 409.765 -3.44545 -3.91073 0
M  V30 4133 C 407.093 -4.23412 -4.06127 0
M  V30 4134 C 409.445 -4.77853 -4.14535 0
M  V30 4135 C 408.109 -5.17531 -4.21566 0
M  V30 4136 H 407.379 -0.247975 -0.698276 0
M  V30 4137 H 410.026 -1.25584 -1.44571 0
M  V30 4138 H 408.331 -0.376457 -3.89987 0
M  V30 4139 H 410.028 -0.766113 -3.93614 0
M  V30 4140 H 406.618 -2.17866 -3.69097 0
M  V30 4141 H 410.802 -3.14853 -3.83642 0
M  V30 4142 H 406.058 -4.53734 -4.09799 0
M  V30 4143 H 410.232 -5.51189 -4.25633 0
M  V30 4144 H 407.859 -6.21102 -4.38333 0
M  V30 4145 N 409.434 1.37368 -0.772513 0
M  V30 4146 C 410.382 2.32134 -0.147111 0
M  V30 4147 C 411.376 1.54972 0.684106 0
M  V30 4148 O 412.582 1.70363 0.581083 0
M  V30 4149 H 408.957 0.751449 -0.028786 0
M  V30 4150 H 410.928 2.82464 -0.962112 0
M  V30 4151 C 409.677 3.40226 0.71703 0
M  V30 4152 H 409 3.99706 0.0867951 0
M  V30 4153 H 410.44 4.08897 1.12159 0
M  V30 4154 C 408.899 2.80372 1.86797 0
M  V30 4155 O 409.429 2.71183 2.96349 0
M  V30 4156 N 407.635 2.37904 1.66883 0
M  V30 4157 H 407.182 2.45578 0.777759 0
M  V30 4158 H 407.14 1.98202 2.44056 0
M  V30 4159 N 410.912 0.523116 1.48665 0
M  V30 4160 C 412.158 -0.00540031 2.03399 0
M  V30 4161 C 412.513 -1.3264 1.39372 0
M  V30 4162 O 411.806 -1.84184 0.527916 0
M  V30 4163 C 412 -0.191671 3.56886 0
M  V30 4164 C 411.829 1.10972 4.35793 0
M  V30 4165 C 410.599 1.66769 4.76987 0
M  V30 4166 C 412.797 2.01861 4.73029 0
M  V30 4167 N 410.779 2.91268 5.40404 0
M  V30 4168 C 412.15 3.10937 5.36394 0
M  V30 4169 C 414.205 2.02271 4.54962 0
M  V30 4170 C 412.908 4.20478 5.83601 0
M  V30 4171 C 414.934 3.10802 5.03146 0
M  V30 4172 C 414.296 4.18597 5.6653 0
M  V30 4173 H 410.395 0.0393531 0.781009 0
M  V30 4174 H 412.979 0.702876 1.8157 0
M  V30 4175 H 411.15 -0.869025 3.78553 0
M  V30 4176 H 412.882 -0.719177 3.98259 0
M  V30 4177 H 409.637 1.20996 4.57883 0
M  V30 4178 H 410.061 3.54635 5.76683 0
M  V30 4179 H 414.703 1.2023 4.05345 0
M  V30 4180 H 412.421 5.03303 6.32228 0
M  V30 4181 H 416.007 3.12166 4.90962 0
M  V30 4182 H 414.887 5.01193 6.03138 0
M  V30 4183 N 412.39 -1.55475 0.257931 0
M  V30 4184 C 413.62 -2.03314 -0.367026 0
M  V30 4185 C 414.028 -1.13625 -1.51281 0
M  V30 4186 O 413.371 -0.145334 -1.83124 0
M  V30 4187 C 413.433 -3.47362 -0.926284 0
M  V30 4188 C 413.097 -4.56914 0.0886584 0
M  V30 4189 C 414.094 -5.12013 0.902123 0
M  V30 4190 C 411.779 -5.01827 0.217936 0
M  V30 4191 C 413.773 -6.10529 1.83122 0
M  V30 4192 C 411.46 -6.00172 1.15052 0
M  V30 4193 C 412.458 -6.54402 1.95568 0
M  V30 4194 O 412.146 -7.50827 2.87253 0
M  V30 4195 H 411.878 -0.669976 -0.0900443 0
M  V30 4196 H 414.432 -2.01804 0.382673 0
M  V30 4197 H 412.662 -3.46056 -1.72575 0
M  V30 4198 H 414.351 -3.78637 -1.46249 0
M  V30 4199 H 415.117 -4.78139 0.812891 0
M  V30 4200 H 410.996 -4.59272 -0.398721 0
M  V30 4201 H 414.54 -6.52783 2.46008 0
M  V30 4202 H 410.437 -6.33465 1.24064 0
M  V30 4203 H 411.205 -7.68483 2.81739 0
M  V30 4204 N 413.868 0.0150385 -1.57593 0
M  V30 4205 C 415.114 0.704043 -1.90187 0
M  V30 4206 C 415.447 1.74249 -0.857366 0
M  V30 4207 O 414.722 1.94092 0.125843 0
M  V30 4208 C 415.005 1.36087 -3.33395 0
M  V30 4209 C 414.858 0.334981 -4.48551 0
M  V30 4210 C 416.177 2.29112 -3.7576 0
M  V30 4211 H 413.296 0.254475 -0.691673 0
M  V30 4212 H 415.938 -0.0331678 -1.89971 0
M  V30 4213 H 414.088 1.98922 -3.3371 0
M  V30 4214 H 415.76 -0.292534 -4.60372 0
M  V30 4215 H 414.003 -0.344325 -4.32431 0
M  V30 4216 H 414.674 0.833316 -5.45674 0
M  V30 4217 H 417.15 1.76308 -3.76902 0
M  V30 4218 H 416.026 2.72043 -4.76743 0
M  V30 4219 H 416.287 3.16385 -3.08793 0
M  V30 4220 N 415.346 1.54954 0.287554 0
M  V30 4221 C 416.623 1.65569 1.04146 0
M  V30 4222 C 417.003 0.512672 2.0478 0
M  V30 4223 O 416.351 -0.489038 2.23205 0
M  V30 4224 C 416.561 3.04163 1.71131 0
M  V30 4225 C 417.909 3.61429 2.22832 0
M  V30 4226 O 418.933 3.06702 1.81141 0
M  V30 4227 O 417.792 4.57281 2.9926 0
M  V30 4228 H 414.886 0.671881 0.482188 0
M  V30 4229 H 417.432 1.67297 0.28457 0
M  V30 4230 H 416.204 3.78796 0.981303 0
M  V30 4231 H 415.827 3.06271 2.53543 0
M  V30 4232 N 416.824 -0.551391 1.4764 0
M  V30 4233 C 418.072 -1.30572 1.54258 0
M  V30 4234 C 418.393 -1.93877 0.208963 0
M  V30 4235 O 417.663 -1.80234 -0.767619 0
M  V30 4236 H 416.243 -0.484894 0.568231 0
M  V30 4237 H 418.905 -0.643402 1.83974 0
M  V30 4238 H 418.001 -2.09621 2.31226 0
M  V30 4239 N 418.302 -1.35869 -0.798587 0
M  V30 4240 C 419.548 -1.2978 -1.55836 0
M  V30 4241 C 419.881 0.125322 -1.93795 0
M  V30 4242 O 419.156 1.07658 -1.61987 0
M  V30 4243 C 419.439 -2.21188 -2.84162 0
M  V30 4244 C 419.292 -3.72155 -2.52628 0
M  V30 4245 C 420.611 -2.11545 -3.85923 0
M  V30 4246 H 417.73 -0.472769 -0.565383 0
M  V30 4247 H 420.372 -1.66341 -0.918192 0
M  V30 4248 H 418.522 -1.90139 -3.38791 0
M  V30 4249 H 420.194 -4.13682 -2.04121 0
M  V30 4250 H 418.437 -3.92042 -1.85704 0
M  V30 4251 H 419.108 -4.31511 -3.44242 0
M  V30 4252 H 421.584 -2.38855 -3.40716 0
M  V30 4253 H 420.46 -2.77688 -4.73477 0
M  V30 4254 H 420.721 -1.09987 -4.282 0
M  V30 4255 N 419.78 1.02168 -1.19998 0
M  V30 4256 C 420.69 2.14069 -0.959774 0
M  V30 4257 C 421.706 1.73804 0.082655 0
M  V30 4258 O 422.882 2.01133 -0.103633 0
M  V30 4259 C 419.947 3.42936 -0.509459 0
M  V30 4260 C 419.008 3.97474 -1.62213 0
M  V30 4261 C 418.241 5.2019 -1.19321 0
M  V30 4262 O 418.464 5.70369 -0.0597726 0
M  V30 4263 O 417.398 5.67749 -1.99863 0
M  V30 4264 H 421.224 2.37199 -1.89658 0
M  V30 4265 H 418.809 1.12469 -0.983411 0
M  V30 4266 H 420.691 4.20551 -0.267322 0
M  V30 4267 H 419.366 3.21234 0.398821 0
M  V30 4268 H 418.273 3.21161 -1.9185 0
M  V30 4269 H 419.606 4.23555 -2.50723 0
M  V30 4270 N 421.258 1.00505 1.21394 0
M  V30 4271 C 422.504 0.688793 1.90745 0
M  V30 4272 C 422.837 -0.778486 1.77914 0
M  V30 4273 O 422.112 -1.56433 1.15581 0
M  V30 4274 C 422.395 1.11063 3.42545 0
M  V30 4275 C 422.248 2.63737 3.64367 0
M  V30 4276 C 423.567 0.673059 4.34923 0
M  V30 4277 H 420.686 0.251702 0.692687 0
M  V30 4278 H 423.328 1.25074 1.43026 0
M  V30 4279 H 421.478 0.632508 3.83317 0
M  V30 4280 H 423.15 3.19313 3.32922 0
M  V30 4281 H 421.393 3.05248 3.08231 0
M  V30 4282 H 422.064 2.88305 4.70727 0
M  V30 4283 H 424.54 1.08392 4.01734 0
M  V30 4284 H 423.416 0.996383 5.39781 0
M  V30 4285 H 423.677 -0.425808 4.40045 0
M  V30 4286 N 422.737 -1.36956 0.779787 0
M  V30 4287 C 423.687 -2.27539 0.144892 0
M  V30 4288 C 424.671 -1.46493 -0.665488 0
M  V30 4289 O 425.863 -1.68968 -0.527141 0
M  V30 4290 C 422.992 -3.35512 -0.727082 0
M  V30 4291 C 422.078 -4.24001 0.0915642 0
M  V30 4292 N 422.469 -4.92757 1.14125 0
M  V30 4293 C 420.767 -4.45807 -0.131141 0
M  V30 4294 C 421.468 -5.58138 1.6388 0
M  V30 4295 N 420.444 -5.35241 0.94962 0
M  V30 4296 H 424.246 -2.78176 0.948446 0
M  V30 4297 H 421.76 -1.50169 0.618315 0
M  V30 4298 H 423.757 -3.99324 -1.19776 0
M  V30 4299 H 422.417 -2.86431 -1.52929 0
M  V30 4300 H 423.428 -4.94984 1.52353 0
M  V30 4301 H 420.105 -4.07582 -0.904621 0
M  V30 4302 H 421.495 -6.23071 2.51461 0
M  V30 4303 N 424.215 -0.530993 -1.48385 0
M  V30 4304 C 425.163 0.244595 -2.3131 0
M  V30 4305 C 426.157 0.93451 -1.41291 0
M  V30 4306 O 427.363 0.85878 -1.58193 0
M  V30 4307 H 423.738 0.0977472 -0.74562 0
M  V30 4308 H 425.709 -0.474369 -2.94605 0
M  V30 4309 C 424.458 1.2779 -3.23365 0
M  V30 4310 H 423.781 0.756439 -3.92579 0
M  V30 4311 H 425.221 1.79198 -3.84271 0
M  V30 4312 C 423.68 2.31205 -2.45042 0
M  V30 4313 O 424.21 3.37661 -2.17596 0
M  V30 4314 N 422.416 2.04446 -2.0652 0
M  V30 4315 H 421.963 1.17891 -2.2904 0
M  V30 4316 H 421.921 2.73861 -1.54427 0
M  V30 4317 N 425.693 1.55336 -0.266172 0
M  V30 4318 C 426.656 2.20878 0.612001 0
M  V30 4319 C 427.656 1.18388 1.08816 0
M  V30 4320 O 428.846 1.4335 0.989774 0
M  V30 4321 C 425.978 2.86765 1.84332 0
M  V30 4322 H 427.171 2.99873 0.0398718 0
M  V30 4323 H 424.724 1.56291 -0.0167309 0
M  V30 4324 H 425.459 2.11759 2.45619 0
M  V30 4325 H 425.244 3.61862 1.5099 0
M  V30 4326 H 426.734 3.36867 2.46801 0
M  V30 4327 N 427.171 -0.0066808 1.57599 0
M  V30 4328 C 428.118 -1.00024 2.08 0
M  V30 4329 C 429.088 -1.34549 0.973943 0
M  V30 4330 O 430.273 -1.44502 1.24595 0
M  V30 4331 C 427.413 -2.2891 2.58252 0
M  V30 4332 C 426.526 -2.00346 3.82734 0
M  V30 4333 C 425.661 -3.23265 4.21513 0
M  V30 4334 C 424.7 -2.90357 5.3885 0
M  V30 4335 N 423.837 -4.05793 5.72954 0
M  V30 4336 H 428.677 -0.563499 2.92624 0
M  V30 4337 H 426.214 -0.266592 1.44664 0
M  V30 4338 H 428.172 -3.04247 2.85464 0
M  V30 4339 H 426.802 -2.70265 1.76512 0
M  V30 4340 H 425.854 -1.15406 3.62471 0
M  V30 4341 H 427.166 -1.72086 4.68175 0
M  V30 4342 H 426.32 -4.06953 4.49971 0
M  V30 4343 H 425.059 -3.54657 3.34768 0
M  V30 4344 H 424.064 -2.05075 5.10122 0
M  V30 4345 H 425.289 -2.60219 6.27266 0
M  V30 4346 H 423.235 -4.37094 4.89167 0
M  V30 4347 H 423.152 -3.81034 6.52954 0
M  V30 4348 H 424.42 -4.90289 6.06001 0
M  V30 4349 N 428.649 -1.55105 -0.279332 0
M  V30 4350 C 429.877 -1.7943 -1.03017 0
M  V30 4351 C 430.292 -0.564456 -1.80165 0
M  V30 4352 O 429.649 0.466326 -1.76442 0
M  V30 4353 C 429.7 -3.0155 -1.99374 0
M  V30 4354 O 429.421 -4.19784 -1.25352 0
M  V30 4355 C 430.922 -3.3843 -2.86321 0
M  V30 4356 H 428.142 -0.597882 -0.304594 0
M  V30 4357 H 430.686 -2.02105 -0.312035 0
M  V30 4358 H 428.841 -2.81019 -2.66659 0
M  V30 4359 H 429.255 -4.88781 -1.90246 0
M  V30 4360 H 430.729 -4.27066 -3.49741 0
M  V30 4361 H 431.206 -2.57549 -3.5576 0
M  V30 4362 H 431.812 -3.61197 -2.24536 0
M  V30 4363 N 430.127 0.543554 -1.4793 0
M  V30 4364 C 431.074 1.64942 -1.6144 0
M  V30 4365 C 432.044 1.59692 -0.456903 0
M  V30 4366 O 433.229 1.78321 -0.678688 0
M  V30 4367 C 430.369 3.03238 -1.64744 0
M  V30 4368 C 429.482 3.18823 -2.91506 0
M  V30 4369 C 428.617 4.47599 -2.86057 0
M  V30 4370 C 427.656 4.56664 -4.07584 0
M  V30 4371 N 426.793 5.76811 -4.00292 0
M  V30 4372 H 431.633 1.52733 -2.55884 0
M  V30 4373 H 429.17 0.7438 -1.2691 0
M  V30 4374 H 431.128 3.83339 -1.64641 0
M  V30 4375 H 429.758 3.1425 -0.738017 0
M  V30 4376 H 428.81 2.32064 -3.01414 0
M  V30 4377 H 430.122 3.21384 -3.81463 0
M  V30 4378 H 429.276 5.35975 -2.84281 0
M  V30 4379 H 428.015 4.47538 -1.93807 0
M  V30 4380 H 427.02 3.66697 -4.09651 0
M  V30 4381 H 428.245 4.58474 -5.00978 0
M  V30 4382 H 426.191 5.77673 -3.10853 0
M  V30 4383 H 426.108 5.80808 -4.8394 0
M  V30 4384 H 427.376 6.67512 -4.02553 0
M  V30 4385 N 431.605 1.3629 0.791371 0
M  V30 4386 C 433.016 1.27225 1.36641 0
M  V30 4387 C 433.367 -0.0887968 1.95999 0
M  V30 4388 O 432.492 -0.990207 1.92416 0
M  V30 4389 C 433.087 2.30375 2.48421 0
M  V30 4390 C 431.646 2.25004 3.01746 0
M  V30 4391 C 430.793 2.15259 1.7481 0
M  V30 4392 H 433.744 1.47198 0.593173 0
M  V30 4393 H 433.765 1.93905 3.27385 0
M  V30 4394 H 433.277 3.29422 2.05189 0
M  V30 4395 H 431.378 1.29417 3.49403 0
M  V30 4396 H 431.491 3.1761 3.58693 0
M  V30 4397 H 429.855 1.61482 1.96966 0
M  V30 4398 H 430.638 3.16191 1.33709 0
M  V30 4399 N 433.083 -1.0153 1.20538 0
M  V30 4400 C 434.499 -1.27461 0.96051 0
M  V30 4401 C 434.699 -1.98273 -0.359193 0
M  V30 4402 O 433.755 -2.27886 -1.0874 0
M  V30 4403 C 435.068 -2.10837 2.14402 0
M  V30 4404 C 436.616 -2.24099 2.18515 0
M  V30 4405 C 437.091 -3.10852 3.36355 0
M  V30 4406 N 438.582 -3.18441 3.36377 0
M  V30 4407 C 439.317 -3.85795 4.24205 0
M  V30 4408 N 438.813 -4.55264 5.22213 0
M  V30 4409 N 440.606 -3.82331 4.12043 0
M  V30 4410 H 432.757 -0.539907 2.05423 0
M  V30 4411 H 435.02 -0.30092 0.898972 0
M  V30 4412 H 434.726 -1.66144 3.09983 0
M  V30 4413 H 434.6 -3.11576 2.12604 0
M  V30 4414 H 436.987 -2.68016 1.23497 0
M  V30 4415 H 437.068 -1.22865 2.24361 0
M  V30 4416 H 436.712 -2.6764 4.31661 0
M  V30 4417 H 436.642 -4.12177 3.27746 0
M  V30 4418 H 439.133 -2.68978 2.65442 0
M  V30 4419 H 439.446 -5.04331 5.85551 0
M  V30 4420 H 437.791 -4.54085 5.26148 0
M  V30 4421 H 440.982 -3.27207 3.34743 0
M  V30 4422 H 441.155 -4.34547 4.807 0
M  V30 4423 N 434.561 -1.01147 -1.20859 0
M  V30 4424 C 435.471 -0.58686 -2.27141 0
M  V30 4425 C 436.487 0.373198 -1.69951 0
M  V30 4426 O 437.663 0.235423 -2.00019 0
M  V30 4427 C 434.728 0.0733602 -3.46622 0
M  V30 4428 C 433.789 -0.931995 -4.19061 0
M  V30 4429 C 433.022 -0.303186 -5.32838 0
M  V30 4430 O 433.245 0.898395 -5.63281 0
M  V30 4431 O 432.179 -1.01735 -5.9324 0
M  V30 4432 H 436.005 -1.47155 -2.65667 0
M  V30 4433 H 433.59 -0.780689 -1.2738 0
M  V30 4434 H 435.472 0.442333 -4.19072 0
M  V30 4435 H 434.147 0.932329 -3.09983 0
M  V30 4436 H 433.054 -1.35224 -3.48805 0
M  V30 4437 H 434.387 -1.76076 -4.59628 0
M  V30 4438 N 436.039 1.36541 -0.78704 0
M  V30 4439 C 436.949 2.3387 -0.184896 0
M  V30 4440 C 437.965 1.60927 0.661697 0
M  V30 4441 O 439.141 1.92927 0.57804 0
M  V30 4442 C 436.206 3.40122 0.672145 0
M  V30 4443 C 435.267 4.28867 -0.19267 0
M  V30 4444 C 434.5 5.30045 0.623561 0
M  V30 4445 O 434.723 5.39232 1.8597 0
M  V30 4446 O 433.657 6.01895 0.0247068 0
M  V30 4447 H 437.483 2.87126 -0.989562 0
M  V30 4448 H 435.068 1.38969 -0.548455 0
M  V30 4449 H 436.95 4.05093 1.16094 0
M  V30 4450 H 435.625 2.89169 1.45474 0
M  V30 4451 H 434.532 3.66945 -0.728166 0
M  V30 4452 H 435.865 4.83165 -0.938722 0
M  V30 4453 N 437.518 0.538854 1.48102 0
M  V30 4454 C 438.45 -0.256278 2.27763 0
M  V30 4455 C 439.463 -0.89633 1.35904 0
M  V30 4456 O 440.652 -0.773275 1.60881 0
M  V30 4457 C 437.752 -1.37896 3.09577 0
M  V30 4458 C 436.925 -0.839159 4.29275 0
M  V30 4459 C 435.984 -1.84405 4.9283 0
M  V30 4460 O 435.01 -1.39746 5.51779 0
M  V30 4461 N 436.212 -3.17666 4.85869 0
M  V30 4462 H 438.977 0.426968 2.96643 0
M  V30 4463 H 436.538 0.373747 1.57527 0
M  V30 4464 H 438.53 -2.04955 3.48963 0
M  V30 4465 H 437.1 -1.96572 2.4306 0
M  V30 4466 H 436.32 0.00769287 3.94199 0
M  V30 4467 H 437.608 -0.457548 5.06739 0
M  V30 4468 H 437.006 -3.56609 4.39143 0
M  V30 4469 H 435.563 -3.80334 5.29329 0
M  V30 4470 N 438.996 -1.55193 0.274407 0
M  V30 4471 C 440.226 -2.03692 -0.345442 0
M  V30 4472 C 440.634 -1.15224 -1.50067 0
M  V30 4473 O 439.977 -0.164749 -1.8296 0
M  V30 4474 C 440.039 -3.48325 -0.88939 0
M  V30 4475 C 439.703 -4.56794 0.137115 0
M  V30 4476 C 440.7 -5.11028 0.956378 0
M  V30 4477 C 438.385 -5.01568 0.27115 0
M  V30 4478 C 440.379 -6.08552 1.89587 0
M  V30 4479 C 438.066 -5.98918 1.21412 0
M  V30 4480 C 439.064 -6.52291 2.02498 0
M  V30 4481 O 438.752 -7.47738 2.952 0
M  V30 4482 H 438.484 -0.670893 -0.0829332 0
M  V30 4483 H 441.038 -2.01387 0.404056 0
M  V30 4484 H 439.268 -3.47867 -1.68895 0
M  V30 4485 H 440.957 -3.80167 -1.42225 0
M  V30 4486 H 441.723 -4.7725 0.863559 0
M  V30 4487 H 437.602 -4.5967 -0.349987 0
M  V30 4488 H 441.146 -6.50137 2.52918 0
M  V30 4489 H 437.043 -6.32114 1.30776 0
M  V30 4490 H 437.811 -7.65451 2.89874 0
M  V30 4491 N 440.474 -0.00167713 -1.576 0
M  V30 4492 C 441.422 1.0074 -2.09652 0
M  V30 4493 C 442.416 1.35483 -1.01689 0
M  V30 4494 O 443.622 1.34028 -1.20152 0
M  V30 4495 H 439.997 0.342537 -0.669457 0
M  V30 4496 H 441.968 0.542841 -2.93421 0
M  V30 4497 C 440.717 2.2899 -2.61647 0
M  V30 4498 H 440.04 2.03124 -3.44355 0
M  V30 4499 H 441.48 2.9787 -3.01744 0
M  V30 4500 C 439.939 3.00085 -1.53136 0
M  V30 4501 O 440.469 3.91135 -0.91524 0
M  V30 4502 N 438.675 2.6194 -1.25841 0
M  V30 4503 H 438.222 1.8798 -1.76129 0
M  V30 4504 H 438.18 3.09822 -0.534576 0
M  V30 4505 N 441.952 1.55251 0.271103 0
M  V30 4506 C 443.177 1.80306 1.02491 0
M  V30 4507 C 443.602 0.575457 1.79081 0
M  V30 4508 O 442.96 -0.474987 1.74967 0
M  V30 4509 C 443.008 3.02832 1.95768 0
M  V30 4510 O 442.112 2.78051 3.04568 0
M  V30 4511 H 441.453 0.595896 0.292923 0
M  V30 4512 H 443.983 2.02397 0.299436 0
M  V30 4513 H 443.993 3.31616 2.37686 0
M  V30 4514 H 442.668 3.9183 1.39434 0
M  V30 4515 H 441.245 2.60369 2.66951 0
M  V30 4516 N 443.43 -0.535701 1.48216 0
M  V30 4517 C 444.658 -1.31671 1.59594 0
M  V30 4518 C 445.073 -1.87083 0.254056 0
M  V30 4519 O 444.43 -1.66112 -0.755854 0
M  V30 4520 C 444.481 -2.47158 2.63809 0
M  V30 4521 O 444.202 -1.94032 3.92789 0
M  V30 4522 C 445.703 -3.39062 2.85573 0
M  V30 4523 H 442.923 -0.400623 0.538277 0
M  V30 4524 H 445.467 -0.646827 1.94001 0
M  V30 4525 H 443.622 -3.10043 2.32276 0
M  V30 4526 H 444.036 -2.69585 4.49916 0
M  V30 4527 H 445.51 -4.16459 3.62306 0
M  V30 4528 H 445.987 -3.93941 1.94184 0
M  V30 4529 H 446.593 -2.81975 3.18387 0
M  V30 4530 N 444.908 -1.36708 -0.784132 0
M  V30 4531 C 446.138 -1.34203 -1.57077 0
M  V30 4532 C 446.546 0.0774945 -1.89041 0
M  V30 4533 O 445.889 1.04628 -1.50992 0
M  V30 4534 C 445.951 -2.10351 -2.91535 0
M  V30 4535 C 445.615 -3.59405 -2.82272 0
M  V30 4536 C 446.612 -4.53545 -2.54151 0
M  V30 4537 C 444.297 -4.02362 -3.00683 0
M  V30 4538 C 446.291 -5.8862 -2.44551 0
M  V30 4539 C 443.978 -5.37526 -2.90704 0
M  V30 4540 C 444.976 -6.30468 -2.62677 0
M  V30 4541 O 444.664 -7.63149 -2.52702 0
M  V30 4542 H 444.396 -0.461791 -0.493685 0
M  V30 4543 H 446.95 -1.80475 -0.980712 0
M  V30 4544 H 445.18 -1.5875 -3.52612 0
M  V30 4545 H 446.869 -2.00636 -3.52845 0
M  V30 4546 H 447.635 -4.21669 -2.39625 0
M  V30 4547 H 443.514 -3.30389 -3.21503 0
M  V30 4548 H 447.058 -6.61133 -2.22596 0
M  V30 4549 H 442.955 -5.69008 -3.04795 0
M  V30 4550 H 443.723 -7.73331 -2.68144 0
M  V30 4551 N 446.386 1.0089 -1.21074 0
M  V30 4552 C 447.802 1.2695 -0.967257 0
M  V30 4553 C 448.002 1.9846 0.348673 0
M  V30 4554 O 447.058 2.28459 1.0753 0
M  V30 4555 C 448.371 2.09697 -2.15517 0
M  V30 4556 C 449.919 2.22937 -2.197 0
M  V30 4557 C 450.394 3.09064 -3.37999 0
M  V30 4558 N 451.885 3.16653 -3.38061 0
M  V30 4559 C 452.62 3.8354 -4.26245 0
M  V30 4560 N 452.116 4.52488 -5.2462 0
M  V30 4561 N 453.909 3.80141 -4.14064 0
M  V30 4562 H 446.06 0.529005 -2.05707 0
M  V30 4563 H 448.323 0.296148 -0.900556 0
M  V30 4564 H 448.029 1.64497 -3.10859 0
M  V30 4565 H 447.903 3.10444 -2.14253 0
M  V30 4566 H 450.29 2.67357 -1.24916 0
M  V30 4567 H 450.371 1.21673 -2.2501 0
M  V30 4568 H 450.015 2.65347 -4.33074 0
M  V30 4569 H 449.945 4.10433 -3.29928 0
M  V30 4570 H 452.436 2.67566 -2.66865 0
M  V30 4571 H 452.749 5.01219 -5.88217 0
M  V30 4572 H 451.094 4.51288 -5.28549 0
M  V30 4573 H 454.285 3.25427 -3.36474 0
M  V30 4574 H 454.458 4.31992 -4.82998 0
M  V30 4575 N 447.864 1.01787 1.20321 0
M  V30 4576 C 449.11 0.708985 1.90003 0
M  V30 4577 C 449.443 -0.759572 1.78729 0
M  V30 4578 O 448.718 -1.55198 1.17234 0
M  V30 4579 C 449.001 1.1469 3.41348 0
M  V30 4580 C 448.854 2.67586 3.61549 0
M  V30 4581 C 450.173 0.71915 4.34185 0
M  V30 4582 H 447.292 0.259034 0.689978 0
M  V30 4583 H 449.934 1.26584 1.41692 0
M  V30 4584 H 448.084 0.673128 3.82624 0
M  V30 4585 H 449.756 3.22826 3.29517 0
M  V30 4586 H 447.999 3.085 3.04976 0
M  V30 4587 H 448.67 2.93281 4.67643 0
M  V30 4588 H 451.146 1.12647 4.00562 0
M  V30 4589 H 450.022 1.05358 5.38694 0
M  V30 4590 H 450.283 -0.379111 4.40472 0
M  V30 4591 N 449.342 -1.36122 0.79427 0
M  V30 4592 C 450.588 -1.99406 0.369452 0
M  V30 4593 C 450.921 -1.62886 -1.05743 0
M  V30 4594 O 450.196 -0.886053 -1.73145 0
M  V30 4595 C 450.479 -3.56046 0.538833 0
M  V30 4596 C 450.332 -4.02404 2.00976 0
M  V30 4597 C 451.651 -4.40079 -0.0431359 0
M  V30 4598 H 448.77 -0.724397 0.135712 0
M  V30 4599 H 451.412 -1.61461 1.00151 0
M  V30 4600 H 449.562 -3.885 0.000771004 0
M  V30 4601 H 451.234 -3.80415 2.60926 0
M  V30 4602 H 449.477 -3.53765 2.51063 0
M  V30 4603 H 450.148 -5.11344 2.07922 0
M  V30 4604 H 452.624 -4.14013 0.416228 0
M  V30 4605 H 451.5 -5.48799 0.105374 0
M  V30 4606 H 451.761 -4.27264 -1.13571 0
M  V30 4607 N 450.82 -0.546701 -1.47814 0
M  V30 4608 C 452.045 -0.021268 -2.07389 0
M  V30 4609 C 452.47 1.25822 -1.39822 0
M  V30 4610 O 451.828 1.75111 -0.46968 0
M  V30 4611 C 451.876 0.168502 -3.60206 0
M  V30 4612 O 450.98 1.23347 -3.93522 0
M  V30 4613 H 450.321 -0.0466108 -0.662362 0
M  V30 4614 H 452.851 -0.759387 -1.89985 0
M  V30 4615 H 452.861 0.385982 -4.0617 0
M  V30 4616 H 451.536 -0.766075 -4.08784 0
M  V30 4617 H 450.113 0.997319 -3.59316 0
M  V30 4618 N 452.299 1.55045 -0.282633 0
M  V30 4619 C 453.545 2.00056 0.332481 0
M  V30 4620 C 453.878 1.1708 1.54939 0
M  V30 4621 O 453.153 0.2427 1.9298 0
M  V30 4622 C 453.436 3.53086 0.70725 0
M  V30 4623 C 453.289 4.46813 -0.517521 0
M  V30 4624 C 454.608 4.12245 1.54084 0
M  V30 4625 H 451.727 0.727268 0.119373 0
M  V30 4626 H 454.369 1.85932 -0.391076 0
M  V30 4627 H 452.519 3.65253 1.32372 0
M  V30 4628 H 454.191 4.46579 -1.15607 0
M  V30 4629 H 452.434 4.18163 -1.1542 0
M  V30 4630 H 453.105 5.51595 -0.211426 0
M  V30 4631 H 455.581 4.03401 1.02013 0
M  V30 4632 H 454.457 5.19515 1.77186 0
M  V30 4633 H 454.718 3.62951 2.52427 0
M  V30 4634 N 453.777 0.010035 1.57597 0
M  V30 4635 C 454.707 -0.976857 2.12084 0
M  V30 4636 C 455.688 -1.35191 1.03235 0
M  V30 4637 O 456.873 -1.43389 1.3097 0
M  V30 4638 C 454.003 -2.26548 2.63236 0
M  V30 4639 C 452.957 -2.03175 3.76701 0
M  V30 4640 C 452.283 -3.38138 4.14206 0
M  V30 4641 C 453.583 -1.38625 5.03568 0
M  V30 4642 H 455.277 -0.523145 2.94794 0
M  V30 4643 H 452.823 -0.250195 1.4181 0
M  V30 4644 H 454.776 -2.95952 2.99984 0
M  V30 4645 H 453.5 -2.74051 1.77661 0
M  V30 4646 H 452.159 -1.36195 3.40362 0
M  V30 4647 H 451.807 -3.83363 3.25641 0
M  V30 4648 H 451.507 -3.23312 4.90656 0
M  V30 4649 H 453.031 -4.08841 4.53521 0
M  V30 4650 H 454.445 -1.98 5.38023 0
M  V30 4651 H 452.842 -1.34256 5.84889 0
M  V30 4652 H 453.912 -0.356722 4.83586 0
M  V30 4653 N 455.255 -1.55392 -0.262866 0
M  V30 4654 C 456.483 -1.80513 -1.01108 0
M  V30 4655 C 456.898 -0.583533 -1.79556 0
M  V30 4656 O 456.255 0.447585 -1.76926 0
M  V30 4657 C 456.306 -3.03648 -1.96164 0
M  V30 4658 O 456.027 -4.2109 -1.20893 0
M  V30 4659 C 457.528 -3.41448 -2.82715 0
M  V30 4660 H 454.748 -0.601079 -0.298236 0
M  V30 4661 H 457.292 -2.02425 -0.290582 0
M  V30 4662 H 455.447 -2.83832 -2.63663 0
M  V30 4663 H 455.861 -4.90771 -1.85051 0
M  V30 4664 H 457.335 -4.30751 -3.45192 0
M  V30 4665 H 457.812 -2.61308 -3.53008 0
M  V30 4666 H 458.418 -3.63559 -2.20693 0
M  V30 4667 N 456.733 0.527833 -1.48498 0
M  V30 4668 C 457.979 1.28545 -1.56857 0
M  V30 4669 C 458.312 1.92678 -0.242651 0
M  V30 4670 O 457.587 1.79394 0.751545 0
M  V30 4671 C 457.87 2.37314 -2.70839 0
M  V30 4672 C 457.723 1.77858 -4.13142 0
M  V30 4673 C 459.042 3.39068 -2.80573 0
M  V30 4674 H 456.161 0.466006 -0.570971 0
M  V30 4675 H 458.803 0.587784 -1.8068 0
M  V30 4676 H 456.953 2.96821 -2.50658 0
M  V30 4677 H 458.625 1.22385 -4.44769 0
M  V30 4678 H 456.868 1.08383 -4.20042 0
M  V30 4679 H 457.539 2.56624 -4.88721 0
M  V30 4680 H 460.015 2.89518 -2.98862 0
M  V30 4681 H 458.891 4.12566 -3.6205 0
M  V30 4682 H 459.152 3.9975 -1.88818 0
M  V30 4683 N 458.211 1.37122 0.776871 0
M  V30 4684 C 459.141 1.35164 1.90402 0
M  V30 4685 C 460.122 0.221069 1.68657 0
M  V30 4686 O 461.307 0.420642 1.8959 0
M  V30 4687 C 458.437 1.15274 3.27611 0
M  V30 4688 C 457.391 2.25289 3.63908 0
M  V30 4689 C 456.717 1.90527 4.99603 0
M  V30 4690 C 458.017 3.67446 3.71188 0
M  V30 4691 H 459.711 2.29482 1.92297 0
M  V30 4692 H 457.257 1.10465 0.923773 0
M  V30 4693 H 459.21 1.12536 4.06096 0
M  V30 4694 H 457.934 0.174102 3.26136 0
M  V30 4695 H 456.593 2.27174 2.87728 0
M  V30 4696 H 456.241 0.91206 4.94662 0
M  V30 4697 H 455.941 2.64193 5.24858 0
M  V30 4698 H 457.465 1.89367 5.80493 0
M  V30 4699 H 458.879 3.67719 4.39836 0
M  V30 4700 H 457.276 4.40123 4.07936 0
M  V30 4701 H 458.346 4.01443 2.71977 0
M  V30 4702 N 459.689 -1.00246 1.21608 0
M  V30 4703 C 460.639 -2.07492 0.945051 0
M  V30 4704 C 461.623 -1.60585 -0.100675 0
M  V30 4705 O 462.815 -1.76667 0.10859 0
M  V30 4706 C 459.944 -3.39425 0.514342 0
M  V30 4707 C 459.03 -3.92993 1.59428 0
M  V30 4708 N 459.421 -4.19898 2.81991 0
M  V30 4709 C 457.719 -4.21297 1.46374 0
M  V30 4710 C 458.42 -4.63297 3.51754 0
M  V30 4711 N 457.396 -4.66421 2.79199 0
M  V30 4712 H 461.198 -2.26222 1.87619 0
M  V30 4713 H 458.712 -1.18339 1.11219 0
M  V30 4714 H 460.709 -4.15808 0.301527 0
M  V30 4715 H 459.369 -3.22101 -0.410008 0
M  V30 4716 H 460.38 -4.08377 3.1851 0
M  V30 4717 H 457.057 -4.13095 0.604863 0
M  V30 4718 H 458.447 -4.92816 4.56708 0
M  V30 4719 N 461.167 -1.02423 -1.1978 0
M  V30 4720 C 462.099 -0.559152 -2.22275 0
M  V30 4721 C 463.112 0.36251 -1.58713 0
M  V30 4722 O 464.301 0.159641 -1.77785 0
M  V30 4723 C 461.401 0.205094 -3.38279 0
M  V30 4724 C 460.574 -0.720361 -4.31427 0
M  V30 4725 C 459.633 -0.00234368 -5.262 0
M  V30 4726 O 458.659 -0.627378 -5.65732 0
M  V30 4727 N 459.861 1.26996 -5.66438 0
M  V30 4728 H 462.626 -1.44064 -2.62804 0
M  V30 4729 H 460.187 -0.902692 -1.34399 0
M  V30 4730 H 462.179 0.694868 -3.9869 0
M  V30 4731 H 460.749 0.987947 -2.96578 0
M  V30 4732 H 459.969 -1.39031 -3.68869 0
M  V30 4733 H 461.257 -1.3495 -4.90577 0
M  V30 4734 H 460.655 1.79858 -5.36347 0
M  V30 4735 H 459.212 1.70432 -6.29123 0
M  V30 4736 N 462.645 1.35699 -0.801477 0
M  V30 4737 C 463.922 1.9324 -0.302937 0
M  V30 4738 C 464.302 1.73209 1.20672 0
M  V30 4739 O 463.65 1.09809 2.00385 0
M  V30 4740 C 463.86 3.41728 -0.708747 0
M  V30 4741 C 465.208 4.18868 -0.695328 0
M  V30 4742 O 466.232 3.5022 -0.649971 0
M  V30 4743 O 465.091 5.41342 -0.749081 0
M  V30 4744 H 462.185 0.82331 -0.0780367 0
M  V30 4745 H 464.731 1.44806 -0.884832 0
M  V30 4746 H 463.503 3.50015 -1.74944 0
M  V30 4747 H 463.126 3.97471 -0.101384 0
M  V30 4748 N 464.123 0.554532 1.47522 0
M  V30 4749 C 465.369 0.0377449 2.03365 0
M  V30 4750 C 465.724 -1.29654 1.42154 0
M  V30 4751 O 465.017 -1.83022 0.566865 0
M  V30 4752 C 465.211 -0.115927 3.57212 0
M  V30 4753 C 465.04 1.20191 4.33341 0
M  V30 4754 C 463.81 1.76849 4.73342 0
M  V30 4755 C 466.008 2.11849 4.68641 0
M  V30 4756 N 463.99 3.02665 5.34104 0
M  V30 4757 C 465.361 3.22245 5.29677 0
M  V30 4758 C 467.416 2.11876 4.5057 0
M  V30 4759 C 466.119 4.32763 5.74551 0
M  V30 4760 C 468.145 3.21405 4.9644 0
M  V30 4761 C 467.507 4.30519 5.57523 0
M  V30 4762 H 463.606 0.0559107 0.779999 0
M  V30 4763 H 466.19 0.741232 1.80038 0
M  V30 4764 H 464.361 -0.788533 3.80311 0
M  V30 4765 H 466.093 -0.634538 3.99695 0
M  V30 4766 H 462.848 1.30681 4.55214 0
M  V30 4767 H 463.272 3.66788 5.69031 0
M  V30 4768 H 467.914 1.28801 4.02704 0
M  V30 4769 H 465.632 5.166 6.2141 0
M  V30 4770 H 469.218 3.22509 4.8423 0
M  V30 4771 H 468.098 5.13873 5.92371 0
M  V30 4772 N 465.601 -1.54893 0.290851 0
M  V30 4773 C 466.531 -2.26103 -0.583084 0
M  V30 4774 C 467.512 -1.25684 -1.14619 0
M  V30 4775 O 468.697 -1.54436 -1.17741 0
M  V30 4776 C 465.827 -2.99409 -1.75987 0
M  V30 4777 C 464.781 -4.0689 -1.32758 0
M  V30 4778 C 464.107 -4.67856 -2.58872 0
M  V30 4779 C 465.407 -5.20215 -0.46624 0
M  V30 4780 H 467.101 -2.99398 0.0108214 0
M  V30 4781 H 464.647 -1.43998 0.00664468 0
M  V30 4782 H 466.6 -3.47943 -2.37727 0
M  V30 4783 H 465.324 -2.23675 -2.37985 0
M  V30 4784 H 463.983 -3.59191 -0.733299 0
M  V30 4785 H 463.631 -3.88772 -3.19163 0
M  V30 4786 H 463.331 -5.40438 -2.30653 0
M  V30 4787 H 464.855 -5.19147 -3.21433 0
M  V30 4788 H 466.269 -5.64704 -0.989047 0
M  V30 4789 H 464.666 -5.99455 -0.27826 0
M  V30 4790 H 465.736 -4.82198 0.511173 0
M  V30 4791 N 467.08 -0.0183926 -1.57589 0
M  V30 4792 C 468.028 0.985111 -2.10709 0
M  V30 4793 C 469.022 1.34397 -1.0312 0
M  V30 4794 O 470.228 1.32746 -1.21567 0
M  V30 4795 H 466.603 0.335418 -0.673052 0
M  V30 4796 H 468.574 0.511689 -2.9398 0
M  V30 4797 C 467.323 2.26202 -2.64061 0
M  V30 4798 H 466.646 1.9946 -3.4649 0
M  V30 4799 H 468.086 2.94652 -3.04887 0
M  V30 4800 C 466.545 2.98444 -1.5631 0
M  V30 4801 O 467.075 3.90142 -0.956674 0
M  V30 4802 N 465.281 2.6059 -1.28612 0
M  V30 4803 H 464.828 1.86101 -1.78112 0
M  V30 4804 H 464.786 3.09238 -0.567406 0
M  V30 4805 N 468.558 1.5553 0.254621 0
M  V30 4806 C 469.806 1.7665 0.981793 0
M  V30 4807 C 470.127 0.580963 1.86145 0
M  V30 4808 O 469.397 -0.403537 1.91699 0
M  V30 4809 H 467.977 0.651475 0.365498 0
M  V30 4810 H 470.639 1.92958 0.274426 0
M  V30 4811 H 469.735 2.67486 1.60802 0
M  V30 4812 N 470.036 -0.519951 1.48776 0
M  V30 4813 C 470.983 -1.62352 1.64044 0
M  V30 4814 C 471.953 -1.58945 0.482251 0
M  V30 4815 O 473.138 -1.77219 0.706971 0
M  V30 4816 C 470.278 -3.00579 1.69547 0
M  V30 4817 C 469.391 -3.14145 2.96541 0
M  V30 4818 C 468.526 -4.42991 2.93142 0
M  V30 4819 C 467.565 -4.50122 4.14797 0
M  V30 4820 N 466.702 -5.7037 4.09418 0
M  V30 4821 H 471.542 -1.48643 2.58281 0
M  V30 4822 H 469.079 -0.723516 1.28077 0
M  V30 4823 H 471.037 -3.80671 1.70719 0
M  V30 4824 H 469.667 -3.13036 0.787918 0
M  V30 4825 H 468.719 -2.27239 3.05068 0
M  V30 4826 H 470.031 -3.15275 3.86527 0
M  V30 4827 H 469.185 -5.31385 2.92772 0
M  V30 4828 H 467.924 -4.44398 2.00902 0
M  V30 4829 H 466.929 -3.60133 4.15433 0
M  V30 4830 H 468.154 -4.50445 5.08208 0
M  V30 4831 H 466.1 -5.72655 3.20004 0
M  V30 4832 H 466.017 -5.73036 4.93119 0
M  V30 4833 H 467.285 -6.61023 4.13121 0
M  V30 4834 N 471.514 -1.37532 -0.769588 0
M  V30 4835 C 472.424 -1.35668 -1.91393 0
M  V30 4836 C 473.44 -0.255954 -1.72107 0
M  V30 4837 O 474.616 -0.491704 -1.95305 0
M  V30 4838 C 471.681 -1.16481 -3.26547 0
M  V30 4839 C 470.742 -2.36212 -3.58472 0
M  V30 4840 C 469.975 -2.17932 -4.87177 0
M  V30 4841 O 470.198 -1.1647 -5.58382 0
M  V30 4842 O 469.132 -3.06167 -5.18214 0
M  V30 4843 H 472.958 -2.32055 -1.95918 0
M  V30 4844 H 470.543 -1.18284 -0.912641 0
M  V30 4845 H 472.425 -1.07778 -4.07384 0
M  V30 4846 H 471.1 -0.231687 -3.2287 0
M  V30 4847 H 470.007 -2.50488 -2.77861 0
M  V30 4848 H 471.34 -3.281 -3.66894 0
M  V30 4849 N 472.992 0.995999 -1.22138 0
M  V30 4850 C 474.222 1.76809 -1.06874 0
M  V30 4851 C 474.63 1.85265 0.383866 0
M  V30 4852 O 473.973 1.31969 1.27789 0
M  V30 4853 C 474.035 3.2186 -1.60144 0
M  V30 4854 C 473.699 3.36958 -3.0872 0
M  V30 4855 C 474.696 3.2452 -4.0618 0
M  V30 4856 C 472.381 3.62109 -3.48112 0
M  V30 4857 C 474.375 3.37013 -5.41019 0
M  V30 4858 C 472.062 3.74243 -4.831 0
M  V30 4859 C 473.06 3.61702 -5.79362 0
M  V30 4860 O 472.748 3.73436 -7.119 0
M  V30 4861 H 472.48 0.562207 -0.375365 0
M  V30 4862 H 475.034 1.26113 -1.62125 0
M  V30 4863 H 473.264 3.73734 -0.992981 0
M  V30 4864 H 474.953 3.80775 -1.40589 0
M  V30 4865 H 475.719 3.05004 -3.77091 0
M  V30 4866 H 471.598 3.70949 -2.73712 0
M  V30 4867 H 475.142 3.27141 -6.16137 0
M  V30 4868 H 471.039 3.93266 -5.11872 0
M  V30 4869 H 471.807 3.90328 -7.19435 0
M  V30 4870 N 474.47 1.03057 1.19235 0
M  V30 4871 C 475.417 0.612832 2.22515 0
M  V30 4872 C 476.387 -0.374224 1.61829 0
M  V30 4873 O 477.572 -0.270501 1.88873 0
M  V30 4874 C 474.712 -0.028475 3.45088 0
M  V30 4875 C 473.825 1.00483 4.20151 0
M  V30 4876 C 472.96 0.333102 5.30155 0
M  V30 4877 C 471.999 1.3522 5.96977 0
M  V30 4878 N 471.136 0.70616 6.9854 0
M  V30 4879 H 475.976 1.49812 2.57605 0
M  V30 4880 H 473.513 0.749658 1.26564 0
M  V30 4881 H 475.471 -0.417548 4.15105 0
M  V30 4882 H 474.101 -0.877334 3.10649 0
M  V30 4883 H 473.153 1.51194 3.49062 0
M  V30 4884 H 474.465 1.77929 4.65986 0
M  V30 4885 H 473.619 -0.110725 6.06599 0
M  V30 4886 H 472.358 -0.473547 4.85396 0
M  V30 4887 H 471.363 1.80627 5.19282 0
M  V30 4888 H 472.588 2.16037 6.4382 0
M  V30 4889 H 470.534 -0.0803667 6.55951 0
M  V30 4890 H 470.451 1.41848 7.42573 0
M  V30 4891 H 471.719 0.286391 7.78974 0
M  V30 4892 N 475.948 -1.35272 0.808662 0
M  V30 4893 C 477.188 -2.00534 0.395668 0
M  V30 4894 C 477.552 -1.62755 -1.01857 0
M  V30 4895 O 478.753 -2.20752 -1.53368 0
M  V30 4896 C 477.024 -3.52732 0.575771 0
M  V30 4897 S 478.583 -4.38067 0.253507 0
M  V30 4898 H 475.401 -0.694962 0.150165 0
M  V30 4899 H 478.003 -1.64823 1.05137 0
M  V30 4900 H 476.707 -3.77714 1.60499 0
M  V30 4901 H 476.238 -3.93285 -0.0951739 0
M  V30 4902 H 478.253 -4.87252 -0.938068 0
M  V30 4903 N 477.426 -0.562348 -1.47226 0
M  V30 4904 C 478.373 0.182461 -2.30078 0
M  V30 4905 C 479.343 0.903503 -1.39377 0
M  V30 4906 O 480.528 0.898188 -1.68337 0
M  V30 4907 C 477.668 1.20322 -3.23445 0
M  V30 4908 C 476.781 0.487717 -4.29238 0
M  V30 4909 C 475.916 1.49422 -5.09752 0
M  V30 4910 C 474.955 0.763976 -6.07314 0
M  V30 4911 N 474.092 1.71755 -6.80768 0
M  V30 4912 H 478.932 -0.530169 -2.93246 0
M  V30 4913 H 476.469 -0.273276 -1.44539 0
M  V30 4914 H 478.427 1.80768 -3.76004 0
M  V30 4915 H 477.057 1.88382 -2.6213 0
M  V30 4916 H 476.109 -0.231374 -3.79696 0
M  V30 4917 H 477.421 -0.0841003 -4.98729 0
M  V30 4918 H 476.575 2.17206 -5.66486 0
M  V30 4919 H 475.314 2.09995 -4.40174 0
M  V30 4920 H 474.319 0.0722344 -5.49753 0
M  V30 4921 H 475.544 0.16391 -6.78902 0
M  V30 4922 H 473.49 2.31177 -6.13916 0
M  V30 4923 H 473.407 1.19802 -7.46447 0
M  V30 4924 H 474.675 2.38638 -7.42073 0
M  V30 4925 N 478.904 1.54736 -0.299062 0
M  V30 4926 C 480.15 2.00397 0.311244 0
M  V30 4927 C 480.483 1.18716 1.53688 0
M  V30 4928 O 479.758 0.263154 1.92712 0
M  V30 4929 C 480.041 3.53817 0.669761 0
M  V30 4930 C 479.894 4.46239 -0.564882 0
M  V30 4931 C 481.213 4.13856 1.49702 0
M  V30 4932 H 478.332 0.728493 0.111653 0
M  V30 4933 H 480.974 1.85506 -0.410774 0
M  V30 4934 H 479.124 3.66637 1.28491 0
M  V30 4935 H 480.796 4.45328 -1.20337 0
M  V30 4936 H 479.039 4.16916 -1.19849 0
M  V30 4937 H 479.71 5.5134 -0.269918 0
M  V30 4938 H 482.186 4.04461 0.977284 0
M  V30 4939 H 481.062 5.21365 1.71666 0
M  V30 4940 H 481.323 3.65608 2.48563 0
M  V30 4941 N 480.382 0.0267497 1.57577 0
M  V30 4942 C 481.607 -0.666227 1.96408 0
M  V30 4943 C 482.032 -1.65004 0.903071 0
M  V30 4944 O 481.39 -1.80787 -0.136263 0
M  V30 4945 C 481.438 -1.35101 3.34335 0
M  V30 4946 O 480.542 -2.46623 3.30531 0
M  V30 4947 H 479.883 -0.175206 0.640468 0
M  V30 4948 H 482.413 0.0878977 2.04411 0
M  V30 4949 H 482.423 -1.70834 3.70513 0
M  V30 4950 H 481.098 -0.629844 4.11103 0
M  V30 4951 H 479.675 -2.13019 3.06068 0
M  V30 4952 N 481.861 -1.55662 -0.24637 0
M  V30 4953 C 482.809 -1.91186 -1.3248 0
M  V30 4954 C 483.803 -0.790996 -1.49799 0
M  V30 4955 O 485.009 -0.975617 -1.51267 0
M  V30 4956 H 481.384 -0.607207 -0.443626 0
M  V30 4957 H 483.355 -2.81221 -0.997853 0
M  V30 4958 C 482.104 -2.22349 -2.67313 0
M  V30 4959 H 481.427 -3.08097 -2.54786 0
M  V30 4960 H 482.867 -2.51107 -3.41645 0
M  V30 4961 C 481.326 -1.04001 -3.20446 0
M  V30 4962 O 481.856 -0.28828 -4.00664 0
M  V30 4963 N 480.062 -0.830494 -2.7848 0
M  V30 4964 H 479.609 -1.4435 -2.13356 0
M  V30 4965 H 479.567 -0.0403258 -3.14374 0
M  V30 4966 N 483.339 0.512053 -1.4905 0
M  V30 4967 C 484.286 1.6148 -1.64902 0
M  V30 4968 C 485.256 1.58687 -0.490673 0
M  V30 4969 O 486.441 1.76842 -0.71636 0
M  V30 4970 C 483.581 2.99676 -1.71139 0
M  V30 4971 C 482.694 3.12568 -2.98203 0
M  V30 4972 C 481.829 4.4143 -2.95487 0
M  V30 4973 C 480.868 4.47916 -4.17179 0
M  V30 4974 N 480.005 5.68191 -4.12437 0
M  V30 4975 H 484.845 1.47271 -2.59066 0
M  V30 4976 H 482.382 0.716713 -1.28459 0
M  V30 4977 H 484.34 3.79761 -1.72736 0
M  V30 4978 H 482.97 3.12614 -0.804508 0
M  V30 4979 H 482.022 2.25618 -3.06269 0
M  V30 4980 H 483.334 3.1322 -3.88194 0
M  V30 4981 H 482.488 5.29825 -2.95585 0
M  V30 4982 H 481.227 4.43326 -2.03256 0
M  V30 4983 H 480.232 3.57925 -4.17337 0
M  V30 4984 H 481.457 4.47744 -5.1059 0
M  V30 4985 H 479.403 5.7095 -3.23036 0
M  V30 4986 H 479.32 5.70413 -4.96151 0
M  V30 4987 H 480.588 6.58823 -4.16621 0
M  V30 4988 N 484.817 1.37938 0.762283 0
M  V30 4989 C 485.78 1.34279 1.85747 0
M  V30 4990 C 486.78 0.244969 1.58923 0
M  V30 4991 O 487.97 0.501365 1.66829 0
M  V30 4992 C 485.102 1.08833 3.23061 0
M  V30 4993 H 486.295 2.31705 1.90401 0
M  V30 4994 H 483.848 1.23105 0.963057 0
M  V30 4995 H 484.583 0.119767 3.24079 0
M  V30 4996 H 484.368 1.88306 3.43923 0
M  V30 4997 H 485.858 1.08946 4.03138 0
M  V30 4998 N 486.295 -0.989507 1.22664 0
M  V30 4999 C 487.225 -2.09847 1.02404 0
M  V30 5000 C 488.206 -1.70007 -0.0561303 0
M  V30 5001 O 489.391 -1.93906 0.106748 0
M  V30 5002 C 486.521 -3.41996 0.604663 0
M  V30 5003 C 485.475 -3.95699 1.63115 0
M  V30 5004 C 484.801 -5.23936 1.0675 0
M  V30 5005 C 486.101 -4.25999 3.02196 0
M  V30 5006 H 487.795 -2.27054 1.95158 0
M  V30 5007 H 485.341 -1.09111 0.939727 0
M  V30 5008 H 487.294 -4.1899 0.45002 0
M  V30 5009 H 486.018 -3.24626 -0.35855 0
M  V30 5010 H 484.677 -3.2084 1.77362 0
M  V30 5011 H 484.325 -5.02909 0.0955422 0
M  V30 5012 H 484.025 -5.60833 1.75328 0
M  V30 5013 H 485.549 -6.0356 0.924516 0
M  V30 5014 H 486.963 -4.93777 2.91303 0
M  V30 5015 H 485.36 -4.74076 3.67929 0
M  V30 5016 H 486.43 -3.33636 3.51873 0
M  V30 5017 N 487.773 -1.03688 -1.18687 0
M  V30 5018 C 489.184 -0.766488 -1.70241 0
M  V30 5019 C 489.535 0.713052 -1.82784 0
M  V30 5020 O 488.66 1.55529 -1.50465 0
M  V30 5021 C 489.255 -1.38475 -3.09209 0
M  V30 5022 C 487.814 -1.16276 -3.5799 0
M  V30 5023 C 486.961 -1.4778 -2.34641 0
M  V30 5024 H 489.912 -1.20378 -1.03415 0
M  V30 5025 H 489.933 -0.785939 -3.72295 0
M  V30 5026 H 489.445 -2.46157 -3.00048 0
M  V30 5027 H 487.546 -0.104508 -3.72453 0
M  V30 5028 H 487.659 -1.8571 -4.41643 0
M  V30 5029 H 486.023 -0.897366 -2.38368 0
M  V30 5030 H 486.806 -2.56562 -2.28102 0
M  V30 5031 N 489.251 1.34841 -0.815825 0
M  V30 5032 C 490.214 2.27959 -0.238185 0
M  V30 5033 C 491.214 1.49983 0.579816 0
M  V30 5034 O 492.404 1.69617 0.396953 0
M  V30 5035 C 489.536 3.34314 0.666876 0
M  V30 5036 H 490.729 2.80558 -1.05958 0
M  V30 5037 H 488.282 1.44852 -0.587156 0
M  V30 5038 H 489.017 2.86916 1.5116 0
M  V30 5039 H 488.802 3.92014 0.0819106 0
M  V30 5040 H 490.292 4.0379 1.06506 0
M  V30 5041 N 490.729 0.570148 1.46925 0
M  V30 5042 C 492.14 0.1402 1.86173 0
M  V30 5043 C 492.491 -1.29347 1.47526 0
M  V30 5044 O 491.616 -1.97508 0.884292 0
M  V30 5045 C 492.211 0.247661 3.37894 0
M  V30 5046 C 490.77 -0.127332 3.76185 0
M  V30 5047 C 489.917 0.589349 2.70965 0
M  V30 5048 H 492.868 0.779117 1.38259 0
M  V30 5049 H 492.889 -0.530341 3.76786 0
M  V30 5050 H 492.401 1.29121 3.65991 0
M  V30 5051 H 490.502 -1.17149 3.53704 0
M  V30 5052 H 490.615 0.240238 4.78497 0
M  V30 5053 H 488.979 0.0309824 2.54681 0
M  V30 5054 H 489.762 1.6343 3.01903 0
M  V30 5055 N 492.207 -1.54576 0.307264 0
M  V30 5056 C 493.456 -1.99442 -0.300976 0
M  V30 5057 C 493.769 -1.19928 -1.5452 0
M  V30 5058 O 494.975 -1.55092 -2.22842 0
M  V30 5059 C 493.431 -3.55084 -0.586809 0
M  V30 5060 C 493.039 -4.43413 0.639438 0
M  V30 5061 C 494.783 -4.0846 -1.1559 0
M  V30 5062 C 492.69 -5.90499 0.326411 0
M  V30 5063 H 491.62 -0.744986 -0.116238 0
M  V30 5064 H 494.271 -1.787 0.416947 0
M  V30 5065 H 492.653 -3.71749 -1.36449 0
M  V30 5066 H 493.827 -4.38522 1.41545 0
M  V30 5067 H 492.142 -4.00842 1.1276 0
M  V30 5068 H 494.739 -5.15926 -1.40445 0
M  V30 5069 H 495.082 -3.59443 -2.10015 0
M  V30 5070 H 495.615 -3.95362 -0.439778 0
M  V30 5071 H 492.354 -6.43676 1.23939 0
M  V30 5072 H 491.874 -5.98382 -0.412212 0
M  V30 5073 H 493.553 -6.46962 -0.0697393 0
M  V30 5074 N 493.685 -0.035106 -1.57561 0
M  V30 5075 C 494.595 0.960295 -2.14046 0
M  V30 5076 C 495.611 1.3529 -1.0942 0
M  V30 5077 O 496.787 1.43309 -1.41508 0
M  V30 5078 C 493.852 2.22214 -2.66124 0
M  V30 5079 C 492.913 1.8894 -3.85487 0
M  V30 5080 C 492.146 3.09109 -4.35072 0
M  V30 5081 O 492.369 4.21963 -3.83802 0
M  V30 5082 O 491.303 2.91058 -5.26848 0
M  V30 5083 H 495.129 0.509983 -2.99387 0
M  V30 5084 H 492.714 0.185853 -1.48239 0
M  V30 5085 H 494.596 2.96279 -2.99661 0
M  V30 5086 H 493.271 2.66414 -1.83862 0
M  V30 5087 H 492.178 1.12241 -3.56865 0
M  V30 5088 H 493.511 1.49551 -4.6893 0
M  V30 5089 N 495.163 1.55791 0.238111 0
M  V30 5090 C 496.11 1.9105 1.29493 0
M  V30 5091 C 497.08 0.765733 1.47397 0
M  V30 5092 O 498.265 1.02017 1.61236 0
M  V30 5093 C 495.405 2.21826 2.64362 0
M  V30 5094 C 494.518 3.49153 2.54394 0
M  V30 5095 C 493.653 3.69455 3.81676 0
M  V30 5096 C 492.692 4.90353 3.66361 0
M  V30 5097 N 491.829 5.07131 4.85554 0
M  V30 5098 H 496.669 2.81172 0.987233 0
M  V30 5099 H 494.206 1.39179 0.476203 0
M  V30 5100 H 496.164 2.37675 3.4288 0
M  V30 5101 H 494.794 1.34897 2.93262 0
M  V30 5102 H 493.846 3.41587 1.67399 0
M  V30 5103 H 495.158 4.37818 2.38991 0
M  V30 5104 H 494.312 3.85311 4.68636 0
M  V30 5105 H 493.051 2.7904 3.99985 0
M  V30 5106 H 492.056 4.74464 2.77784 0
M  V30 5107 H 493.281 5.82237 3.49538 0
M  V30 5108 H 491.227 4.19654 5.04209 0
M  V30 5109 H 491.144 5.89899 4.72816 0
M  V30 5110 H 492.412 5.27407 5.73988 0
M  V30 5111 N 496.642 -0.504142 1.49319 0
M  V30 5112 C 497.87 -1.28256 1.62351 0
M  V30 5113 C 498.285 -1.86502 0.293682 0
M  V30 5114 O 497.642 -1.67678 -0.720449 0
M  V30 5115 C 497.693 -2.41507 2.68992 0
M  V30 5116 O 497.414 -1.85656 3.96817 0
M  V30 5117 C 498.915 -3.32929 2.927 0
M  V30 5118 H 496.135 -0.389115 0.546654 0
M  V30 5119 H 498.679 -0.605531 1.95329 0
M  V30 5120 H 496.834 -3.05046 2.38801 0
M  V30 5121 H 497.248 -2.59981 4.55533 0
M  V30 5122 H 498.722 -4.0868 3.71058 0
M  V30 5123 H 499.199 -3.89733 2.02496 0
M  V30 5124 H 499.805 -2.75158 3.24296 0
M  V30 5125 N 498.12 -1.38341 -0.754957 0
M  V30 5126 C 499.369 -1.33791 -1.5094 0
M  V30 5127 C 499.682 0.0699267 -1.95475 0
M  V30 5128 O 500.888 0.237956 -2.70455 0
M  V30 5129 C 499.344 -2.34934 -2.72643 0
M  V30 5130 C 498.952 -3.81332 -2.35138 0
M  V30 5131 C 500.696 -2.39425 -3.50536 0
M  V30 5132 C 498.603 -4.74164 -3.53444 0
M  V30 5133 H 497.533 -0.497314 -0.566741 0
M  V30 5134 H 500.184 -1.63888 -0.825403 0
M  V30 5135 H 498.566 -1.97878 -3.43017 0
M  V30 5136 H 499.74 -4.27319 -1.7244 0
M  V30 5137 H 498.055 -3.79946 -1.70382 0
M  V30 5138 H 500.652 -3.0598 -4.38498 0
M  V30 5139 H 500.995 -1.41278 -3.91594 0
M  V30 5140 H 501.528 -2.75274 -2.87174 0
M  V30 5141 H 498.267 -5.73501 -3.17453 0
M  V30 5142 H 497.787 -4.3287 -4.15191 0
M  V30 5143 H 499.466 -4.92111 -4.20043 0
M  V30 5144 N 499.598 0.982988 -1.23187 0
M  V30 5145 C 500.823 1.76455 -1.08988 0
M  V30 5146 C 501.248 1.84726 0.354691 0
M  V30 5147 O 500.606 1.30699 1.25649 0
M  V30 5148 C 500.654 3.17094 -1.71708 0
M  V30 5149 O 499.758 4.00648 -0.977477 0
M  V30 5150 H 499.099 0.542988 -0.382177 0
M  V30 5151 H 501.629 1.23413 -1.63188 0
M  V30 5152 H 501.639 3.67684 -1.76841 0
M  V30 5153 H 500.314 3.10389 -2.76823 0
M  V30 5154 H 498.891 3.59161 -1.0029 0
M  V30 5155 N 501.076 1.04316 1.18135 0
M  V30 5156 C 502.023 0.636398 2.21853 0
M  V30 5157 C 502.993 -0.357039 1.62217 0
M  V30 5158 O 504.178 -0.250453 1.89149 0
M  V30 5159 C 501.318 0.00812779 3.45099 0
M  V30 5160 C 500.431 1.04933 4.19062 0
M  V30 5161 C 499.566 0.389313 5.29771 0
M  V30 5162 C 498.605 1.41544 5.9551 0
M  V30 5163 N 497.742 0.78021 6.97751 0
M  V30 5164 H 502.582 1.52536 2.56002 0
M  V30 5165 H 500.119 0.76304 1.25762 0
M  V30 5166 H 502.077 -0.373497 4.15525 0
M  V30 5167 H 500.707 -0.844336 3.11562 0
M  V30 5168 H 499.759 1.54888 3.47439 0
M  V30 5169 H 501.071 1.82862 4.64072 0
M  V30 5170 H 500.225 -0.0463805 6.06682 0
M  V30 5171 H 498.964 -0.422038 4.8587 0
M  V30 5172 H 497.969 1.86124 5.17337 0
M  V30 5173 H 499.194 2.22854 6.41493 0
M  V30 5174 H 497.14 -0.0107899 6.55999 0
M  V30 5175 H 497.057 1.49716 7.41027 0
M  V30 5176 H 498.325 0.368996 7.78626 0
M  V30 5177 N 502.554 -1.34406 0.822964 0
M  V30 5178 C 503.517 -2.2783 0.250271 0
M  V30 5179 C 504.517 -1.50288 -0.571854 0
M  V30 5180 O 505.707 -1.69825 -0.387952 0
M  V30 5181 C 502.839 -3.34663 -0.649137 0
M  V30 5182 H 504.032 -2.79992 1.07444 0
M  V30 5183 H 501.585 -1.44539 0.594829 0
M  V30 5184 H 502.32 -2.87714 -1.49637 0
M  V30 5185 H 502.105 -3.92052 -0.0611199 0
M  V30 5186 H 503.595 -4.04349 -1.04363 0
M  V30 5187 N 504.032 -0.577932 -1.46621 0
M  V30 5188 C 504.979 0.158048 -2.30258 0
M  V30 5189 C 505.949 0.888669 -1.40328 0
M  V30 5190 O 507.134 0.880283 -1.6928 0
M  V30 5191 C 504.274 1.16884 -3.24703 0
M  V30 5192 C 503.387 0.442163 -4.29731 0
M  V30 5193 C 502.522 1.44007 -5.11308 0
M  V30 5194 C 501.561 0.69952 -6.0809 0
M  V30 5195 N 500.698 1.64525 -6.82551 0
M  V30 5196 H 505.538 -0.561242 -2.92667 0
M  V30 5197 H 503.075 -0.288591 -1.44241 0
M  V30 5198 H 505.033 1.7677 -3.779 0
M  V30 5199 H 503.663 1.85591 -2.64113 0
M  V30 5200 H 502.715 -0.271632 -3.79429 0
M  V30 5201 H 504.027 -0.136992 -4.98612 0
M  V30 5202 H 503.181 2.11186 -5.68758 0
M  V30 5203 H 501.92 2.05315 -4.42377 0
M  V30 5204 H 500.925 0.0139217 -5.49798 0
M  V30 5205 H 502.15 0.091894 -6.79038 0
M  V30 5206 H 500.096 2.24653 -6.16334 0
M  V30 5207 H 500.013 1.11878 -7.47676 0
M  V30 5208 H 501.281 2.30754 -7.44562 0
M  V30 5209 N 505.51 1.54411 -0.315457 0
M  V30 5210 C 506.758 2.00023 0.288971 0
M  V30 5211 C 507.079 1.20529 1.5329 0
M  V30 5212 O 506.349 0.304986 1.93511 0
M  V30 5213 H 504.929 0.738891 0.109766 0
M  V30 5214 H 507.591 1.90094 -0.430129 0
M  V30 5215 H 506.687 3.07198 0.550999 0
M  V30 5216 N 506.988 0.0434614 1.5754 0
M  V30 5217 C 507.92 -0.962586 2.08007 0
M  V30 5218 C 508.933 -1.27972 1.00634 0
M  V30 5219 O 510.122 -1.24186 1.28219 0
M  V30 5220 C 507.222 -2.28621 2.50171 0
M  V30 5221 C 506.395 -2.15214 3.80791 0
M  V30 5222 C 505.454 -3.30633 4.09351 0
M  V30 5223 O 504.48 -3.0688 4.79388 0
M  V30 5224 N 505.682 -4.54873 3.60654 0
M  V30 5225 H 508.447 -0.531891 2.94942 0
M  V30 5226 H 506.008 -0.142965 1.61268 0
M  V30 5227 H 508 -3.04689 2.66359 0
M  V30 5228 H 506.57 -2.63283 1.68525 0
M  V30 5229 H 505.79 -1.23785 3.74261 0
M  V30 5230 H 507.078 -2.03475 4.66343 0
M  V30 5231 H 506.476 -4.77063 3.04019 0
M  V30 5232 H 505.033 -5.2806 3.82094 0
M  V30 5233 N 508.466 -1.55915 -0.229846 0
M  V30 5234 C 509.877 -1.68809 -0.797531 0
M  V30 5235 C 510.228 -0.643995 -1.8533 0
M  V30 5236 O 509.353 0.206492 -2.15413 0
M  V30 5237 C 509.948 -3.06043 -1.45338 0
M  V30 5238 C 508.507 -3.20819 -1.96856 0
M  V30 5239 C 507.654 -2.6472 -0.825736 0
M  V30 5240 H 510.605 -1.58699 -0.00533733 0
M  V30 5241 H 510.626 -3.01438 -2.32196 0
M  V30 5242 H 510.138 -3.82012 -0.684743 0
M  V30 5243 H 508.239 -2.49704 -2.76548 0
M  V30 5244 H 508.352 -4.27937 -2.15423 0
M  V30 5245 H 506.716 -2.22985 -1.23084 0
M  V30 5246 H 507.499 -3.43229 -0.0699019 0
M  V30 5247 N 509.944 0.496216 -1.49584 0
M  V30 5248 C 511.36 0.827814 -1.36453 0
M  V30 5249 C 511.56 1.97464 -0.401285 0
M  V30 5250 O 510.616 2.51958 0.165296 0
M  V30 5251 C 511.929 1.16352 -2.77277 0
M  V30 5252 C 513.477 1.27145 -2.86013 0
M  V30 5253 C 513.952 1.64042 -4.27615 0
M  V30 5254 N 515.443 1.71082 -4.30448 0
M  V30 5255 C 516.178 2.01085 -5.36984 0
M  V30 5256 N 515.674 2.2928 -6.5376 0
M  V30 5257 N 517.467 2.02376 -5.24405 0
M  V30 5258 H 509.618 -0.259947 -2.10803 0
M  V30 5259 H 511.881 -0.0537163 -0.946477 0
M  V30 5260 H 511.587 0.394153 -3.49484 0
M  V30 5261 H 511.461 2.10582 -3.12946 0
M  V30 5262 H 513.848 2.03152 -2.1404 0
M  V30 5263 H 513.929 0.309542 -2.5392 0
M  V30 5264 H 513.573 0.88583 -5.00115 0
M  V30 5265 H 513.503 2.6134 -4.57175 0
M  V30 5266 H 515.994 1.51434 -3.46232 0
M  V30 5267 H 516.307 2.51376 -7.30774 0
M  V30 5268 H 514.652 2.26726 -6.56978 0
M  V30 5269 H 517.843 1.79829 -4.32179 0
M  V30 5270 H 518.016 2.25425 -6.07526 0
M  V30 5271 N 511.423 1.38739 0.74761 0
M  V30 5272 C 512.333 1.38696 1.89211 0
M  V30 5273 C 513.349 0.283303 1.71678 0
M  V30 5274 O 514.525 0.522713 1.94498 0
M  V30 5275 C 511.59 1.21662 3.24653 0
M  V30 5276 C 510.651 2.41886 3.54669 0
M  V30 5277 C 509.884 2.25655 4.83648 0
M  V30 5278 O 510.107 1.25339 5.56459 0
M  V30 5279 O 509.041 3.14372 5.13277 0
M  V30 5280 H 512.867 2.35143 1.92202 0
M  V30 5281 H 510.452 1.19721 0.893708 0
M  V30 5282 H 512.334 1.14246 4.05618 0
M  V30 5283 H 511.009 0.283024 3.2246 0
M  V30 5284 H 509.916 2.54877 2.73841 0
M  V30 5285 H 511.249 3.33895 3.61628 0
M  V30 5286 N 512.901 -0.976442 1.23707 0
M  V30 5287 C 514.312 -1.53284 1.06587 0
M  V30 5288 C 514.663 -1.92765 -0.365526 0
M  V30 5289 O 513.788 -1.7645 -1.25277 0
M  V30 5290 C 514.383 -2.78548 1.92864 0
M  V30 5291 C 512.942 -3.30574 1.79994 0
M  V30 5292 C 512.089 -2.03538 1.88328 0
M  V30 5293 H 515.04 -0.795692 1.37311 0
M  V30 5294 H 515.061 -3.5155 1.45577 0
M  V30 5295 H 514.573 -2.49782 2.97037 0
M  V30 5296 H 512.674 -3.64211 0.786202 0
M  V30 5297 H 512.787 -4.00065 2.636 0
M  V30 5298 H 511.151 -2.17853 1.31954 0
M  V30 5299 H 511.934 -1.77149 2.94063 0
M  V30 5300 N 514.379 -1.04941 -1.1758 0
M  V30 5301 C 515.311 -0.606174 -2.21039 0
M  V30 5302 C 516.324 0.328763 -1.59446 0
M  V30 5303 O 517.513 0.121895 -1.78083 0
M  V30 5304 C 514.613 0.133294 -3.38638 0
M  V30 5305 C 513.786 -0.811711 -4.29802 0
M  V30 5306 C 512.845 -0.113958 -5.26077 0
M  V30 5307 O 511.871 -0.747237 -5.64274 0
M  V30 5308 N 513.073 1.14953 -5.69004 0
M  V30 5309 H 515.838 -1.49606 -2.59689 0
M  V30 5310 H 513.399 -0.930997 -1.32454 0
M  V30 5311 H 515.391 0.610144 -4.00074 0
M  V30 5312 H 513.961 0.924816 -2.98607 0
M  V30 5313 H 513.181 -1.46824 -3.65837 0
M  V30 5314 H 514.469 -1.45326 -4.87604 0
M  V30 5315 H 513.867 1.68441 -5.40041 0
M  V30 5316 H 512.424 1.57049 -6.32597 0
M  V30 5317 N 515.857 1.33968 -0.830081 0
M  V30 5318 C 517.103 1.98357 -0.422191 0
M  V30 5319 C 517.436 1.65633 1.01387 0
M  V30 5320 O 516.711 0.931648 1.70735 0
M  V30 5321 C 516.994 3.54492 -0.633043 0
M  V30 5322 C 516.847 3.96934 -2.11574 0
M  V30 5323 C 518.166 4.40039 -0.0735584 0
M  V30 5324 H 515.285 0.720544 -0.154871 0
M  V30 5325 H 517.927 1.58749 -1.04397 0
M  V30 5326 H 516.077 3.88361 -0.103775 0
M  V30 5327 H 517.749 3.73363 -2.7092 0
M  V30 5328 H 515.992 3.46984 -2.60354 0
M  V30 5329 H 516.663 5.05651 -2.21406 0
M  V30 5330 H 519.139 4.12764 -0.52585 0
M  V30 5331 H 518.015 5.48327 -0.250841 0
M  V30 5332 H 518.276 4.30124 1.02202 0
M  V30 5333 N 517.335 0.585699 1.46312 0
M  V30 5334 C 518.565 0.0780166 2.06453 0
M  V30 5335 C 518.973 -1.2336 1.43454 0
M  V30 5336 O 518.316 -1.75734 0.535086 0
M  V30 5337 C 518.378 -0.158951 3.59148 0
M  V30 5338 C 518.042 1.06752 4.44357 0
M  V30 5339 C 519.039 1.98031 4.80708 0
M  V30 5340 C 516.724 1.2902 4.85447 0
M  V30 5341 C 518.718 3.09924 5.5698 0
M  V30 5342 C 516.405 2.41218 5.61478 0
M  V30 5343 C 517.403 3.31499 5.97158 0
M  V30 5344 O 517.091 4.41747 6.71651 0
M  V30 5345 H 516.823 0.0558894 0.673686 0
M  V30 5346 H 519.377 0.806994 1.88883 0
M  V30 5347 H 517.607 -0.942575 3.75037 0
M  V30 5348 H 519.296 -0.615513 4.01206 0
M  V30 5349 H 520.062 1.82043 4.49539 0
M  V30 5350 H 515.941 0.596567 4.57124 0
M  V30 5351 H 519.485 3.80415 5.84748 0
M  V30 5352 H 515.382 2.57167 5.9206 0
M  V30 5353 H 516.15 4.40152 6.90079 0
M  V30 5354 N 518.813 -1.54241 0.323641 0
M  V30 5355 C 520.041 -2.04985 -0.280871 0
M  V30 5356 C 520.456 -1.19978 -1.45777 0
M  V30 5357 O 519.813 -0.230471 -1.81039 0
M  V30 5358 C 519.864 -3.54353 -0.715258 0
M  V30 5359 O 519.585 -4.36132 0.414817 0
M  V30 5360 C 521.086 -4.21189 -1.38257 0
M  V30 5361 H 518.306 -0.66851 -0.0577502 0
M  V30 5362 H 520.85 -1.99029 0.469852 0
M  V30 5363 H 519.005 -3.60596 -1.41596 0
M  V30 5364 H 519.419 -5.2445 0.0725227 0
M  V30 5365 H 520.893 -5.27154 -1.63745 0
M  V30 5366 H 521.37 -3.72307 -2.32989 0
M  V30 5367 H 521.976 -4.19085 -0.724447 0
M  V30 5368 N 520.291 -0.0518155 -1.57515 0
M  V30 5369 C 521.221 0.920283 -2.146 0
M  V30 5370 C 522.202 1.32406 -1.06783 0
M  V30 5371 O 523.387 1.39866 -1.34726 0
M  V30 5372 C 520.517 2.1949 -2.6915 0
M  V30 5373 C 519.471 1.93116 -3.81956 0
M  V30 5374 C 518.797 3.27037 -4.23026 0
M  V30 5375 C 520.097 1.25225 -5.07066 0
M  V30 5376 H 521.791 0.444801 -2.96077 0
M  V30 5377 H 519.337 0.212508 -1.42423 0
M  V30 5378 H 521.29 2.87894 -3.07725 0
M  V30 5379 H 520.014 2.69244 -1.84865 0
M  V30 5380 H 518.673 1.27123 -3.43854 0
M  V30 5381 H 518.321 3.74595 -3.3569 0
M  V30 5382 H 518.021 3.10189 -4.99056 0
M  V30 5383 H 519.545 3.96673 -4.64202 0
M  V30 5384 H 520.959 1.83666 -5.43083 0
M  V30 5385 H 519.356 1.18702 -5.88243 0
M  V30 5386 H 520.426 0.228382 -4.84362 0
M  V30 5387 N 521.769 1.56035 0.221574 0
M  V30 5388 C 523.18 1.69229 0.788567 0
M  V30 5389 C 523.531 0.653814 1.84986 0
M  V30 5390 O 522.656 -0.195065 2.15519 0
M  V30 5391 C 523.251 3.06809 1.43713 0
M  V30 5392 C 521.81 3.21858 1.95152 0
M  V30 5393 C 520.957 2.65155 0.811685 0
M  V30 5394 H 523.908 1.587 -0.00307894 0
M  V30 5395 H 523.929 3.02666 2.30594 0
M  V30 5396 H 523.441 3.82369 0.664475 0
M  V30 5397 H 521.542 2.51167 2.7522 0
M  V30 5398 H 521.655 4.29073 2.1315 0
M  V30 5399 H 520.019 2.23635 1.21899 0
M  V30 5400 H 520.802 3.43261 0.0516987 0
M  V30 5401 N 523.247 -0.488276 1.49845 0
M  V30 5402 C 524.658 -1.06955 1.53028 0
M  V30 5403 C 525.009 -1.9351 0.323797 0
M  V30 5404 O 524.134 -2.08891 -0.565116 0
M  V30 5405 C 524.729 -1.94643 2.77307 0
M  V30 5406 C 523.288 -2.4791 2.83227 0
M  V30 5407 C 522.435 -1.25833 2.47106 0
M  V30 5408 H 525.386 -0.271626 1.56358 0
M  V30 5409 H 525.407 -2.79496 2.5819 0
M  V30 5410 H 524.919 -1.31621 3.65099 0
M  V30 5411 H 523.02 -3.14535 1.99745 0
M  V30 5412 H 523.133 -2.84193 3.85709 0
M  V30 5413 H 521.497 -1.58764 1.99163 0
M  V30 5414 H 522.28 -0.644993 3.37186 0
M  V30 5415 N 524.725 -1.39134 -0.740242 0
M  V30 5416 C 525.95 -1.39518 -1.53459 0
M  V30 5417 C 526.375 0.00968883 -1.88098 0
M  V30 5418 O 525.733 0.995312 -1.51536 0
M  V30 5419 C 525.781 -2.26981 -2.802 0
M  V30 5420 O 524.885 -1.69609 -3.75908 0
M  V30 5421 H 524.226 -0.475328 -0.463637 0
M  V30 5422 H 526.756 -1.83064 -0.913717 0
M  V30 5423 H 526.766 -2.41309 -3.28989 0
M  V30 5424 H 525.441 -3.29081 -2.5432 0
M  V30 5425 H 524.018 -1.64495 -3.34658 0
M  V30 5426 N 526.204 0.969867 -1.24223 0
M  V30 5427 C 527.62 1.23809 -1.00716 0
M  V30 5428 C 527.82 1.99469 0.285358 0
M  V30 5429 O 526.876 2.31764 1.00207 0
M  V30 5430 C 528.189 2.02734 -2.2208 0
M  V30 5431 C 529.737 2.15834 -2.26681 0
M  V30 5432 C 530.212 2.98154 -3.47661 0
M  V30 5433 N 531.703 3.05737 -3.47964 0
M  V30 5434 C 532.438 3.69785 -4.38231 0
M  V30 5435 N 531.934 4.35569 -5.3875 0
M  V30 5436 N 533.727 3.66775 -4.25949 0
M  V30 5437 H 525.878 0.463294 -2.07286 0
M  V30 5438 H 528.141 0.267348 -0.909521 0
M  V30 5439 H 527.847 1.54524 -3.15935 0
M  V30 5440 H 527.721 3.0347 -2.24021 0
M  V30 5441 H 530.108 2.63248 -1.33359 0
M  V30 5442 H 530.189 1.14453 -2.28767 0
M  V30 5443 H 529.833 2.51435 -4.41297 0
M  V30 5444 H 529.763 3.99729 -3.42818 0
M  V30 5445 H 532.254 2.58941 -2.75242 0
M  V30 5446 H 532.567 4.82251 -6.03866 0
M  V30 5447 H 530.912 4.34244 -5.42639 0
M  V30 5448 H 534.103 3.14558 -3.46657 0
M  V30 5449 H 534.276 4.16407 -4.96497 0
M  V30 5450 N 527.682 1.05563 1.17022 0
M  V30 5451 C 528.959 0.68165 1.83338 0
M  V30 5452 C 529.339 -0.837665 1.93769 0
M  V30 5453 O 528.687 -1.74507 1.47511 0
M  V30 5454 C 528.897 1.375 3.20772 0
M  V30 5455 C 530.245 1.51545 3.96635 0
M  V30 5456 O 531.269 1.33431 3.30264 0
M  V30 5457 O 530.128 1.812 5.15586 0
M  V30 5458 H 527.222 0.240412 0.791285 0
M  V30 5459 H 529.768 1.15545 1.24288 0
M  V30 5460 H 528.54 2.41135 3.08171 0
M  V30 5461 H 528.163 0.890798 3.87493 0
M  V30 5462 N 529.16 -1.33526 0.837174 0
M  V30 5463 C 530.07 -2.33023 0.271568 0
M  V30 5464 C 531.086 -1.63272 -0.601514 0
M  V30 5465 O 532.262 -1.94939 -0.506038 0
M  V30 5466 C 529.327 -3.42382 -0.545448 0
M  V30 5467 C 528.388 -4.27857 0.351709 0
M  V30 5468 C 527.621 -5.31994 -0.426409 0
M  V30 5469 O 527.844 -5.45763 -1.65828 0
M  V30 5470 O 526.778 -6.01572 0.1987 0
M  V30 5471 H 530.604 -2.83256 1.09545 0
M  V30 5472 H 528.189 -1.36837 0.599655 0
M  V30 5473 H 530.071 -4.09122 -1.00979 0
M  V30 5474 H 528.746 -2.94369 -1.34641 0
M  V30 5475 H 527.653 -3.6399 0.863853 0
M  V30 5476 H 528.986 -4.79349 1.1174 0
M  V30 5477 N 530.638 -0.59345 -1.46 0
M  V30 5478 C 531.568 0.121192 -2.33185 0
M  V30 5479 C 532.549 0.872977 -1.4599 0
M  V30 5480 O 533.734 0.846321 -1.74789 0
M  V30 5481 C 530.864 1.12844 -3.28456 0
M  V30 5482 C 529.818 0.4908 -4.25177 0
M  V30 5483 C 529.144 1.60529 -5.10034 0
M  V30 5484 C 530.444 -0.578949 -5.19081 0
M  V30 5485 H 532.138 -0.606767 -2.93187 0
M  V30 5486 H 529.684 -0.293242 -1.40983 0
M  V30 5487 H 531.637 1.63684 -3.88311 0
M  V30 5488 H 530.361 1.88681 -2.66584 0
M  V30 5489 H 529.02 0.00339328 -3.666 0
M  V30 5490 H 528.668 2.35359 -4.44539 0
M  V30 5491 H 528.368 1.18422 -5.75543 0
M  V30 5492 H 529.892 2.11623 -5.72755 0
M  V30 5493 H 531.306 -0.155199 -5.7309 0
M  V30 5494 H 529.703 -0.920947 -5.92991 0
M  V30 5495 H 530.773 -1.46109 -4.62364 0
M  V30 5496 N 532.116 1.54067 -0.331816 0
M  V30 5497 C 533.344 2.05131 0.269996 0
M  V30 5498 C 533.759 1.20749 1.45138 0
M  V30 5499 O 533.116 0.240069 1.80914 0
M  V30 5500 C 533.167 3.54728 0.696456 0
M  V30 5501 O 532.888 4.35906 -0.43794 0
M  V30 5502 C 534.389 4.21916 1.36021 0
M  V30 5503 H 531.609 0.668807 0.0542042 0
M  V30 5504 H 534.153 1.98777 -0.4804 0
M  V30 5505 H 532.308 3.61342 1.39681 0
M  V30 5506 H 532.722 5.24404 -0.100334 0
M  V30 5507 H 534.196 5.28015 1.60947 0
M  V30 5508 H 534.673 3.73538 2.31011 0
M  V30 5509 H 535.279 4.19463 0.702212 0
M  V30 5510 N 533.594 0.0601682 1.57485 0
M  V30 5511 C 534.541 -0.91112 2.12055 0
M  V30 5512 C 535.511 -1.30298 1.03013 0
M  V30 5513 O 536.696 -1.39087 1.30612 0
M  V30 5514 C 533.836 -2.1775 2.67729 0
M  V30 5515 C 532.949 -1.83933 3.90887 0
M  V30 5516 C 532.084 -3.05096 4.34845 0
M  V30 5517 C 531.123 -2.67241 5.5068 0
M  V30 5518 N 530.26 -3.81127 5.8965 0
M  V30 5519 H 535.1 -0.43888 2.9475 0
M  V30 5520 H 532.637 -0.204995 1.45665 0
M  V30 5521 H 534.595 -2.91866 2.98111 0
M  V30 5522 H 533.225 -2.62535 1.87816 0
M  V30 5523 H 532.277 -0.999287 3.6704 0
M  V30 5524 H 533.589 -1.52074 4.75052 0
M  V30 5525 H 532.743 -3.87502 4.66827 0
M  V30 5526 H 531.482 -3.40139 3.49509 0
M  V30 5527 H 530.487 -1.83254 5.18361 0
M  V30 5528 H 531.712 -2.3338 6.37738 0
M  V30 5529 H 529.658 -4.15954 5.07266 0
M  V30 5530 H 529.575 -3.52997 6.68528 0
M  V30 5531 H 530.843 -4.64145 6.2625 0
M  V30 5532 N 535.072 -1.5615 -0.213296 0
M  V30 5533 C 536.02 -1.93953 -1.28394 0
M  V30 5534 C 537.014 -0.822592 -1.48087 0
M  V30 5535 O 538.22 -1.00748 -1.49164 0
M  V30 5536 H 534.595 -0.61648 -0.430646 0
M  V30 5537 H 536.566 -2.83275 -0.937977 0
M  V30 5538 C 535.315 -2.27969 -2.62537 0
M  V30 5539 H 534.638 -3.13432 -2.48194 0
M  V30 5540 H 536.078 -2.58297 -3.36242 0
M  V30 5541 C 534.537 -1.10775 -3.18167 0
M  V30 5542 O 535.067 -0.373201 -3.99963 0
M  V30 5543 N 533.273 -0.889377 -2.76656 0
M  V30 5544 H 532.82 -1.48843 -2.10246 0
M  V30 5545 H 532.778 -0.107 -3.14218 0
M  V30 5546 N 536.55 0.480323 -1.50102 0
M  V30 5547 C 537.482 1.59669 -1.64433 0
M  V30 5548 C 538.495 1.54063 -0.52615 0
M  V30 5549 O 539.684 1.59619 -0.798992 0
M  V30 5550 C 536.784 2.98527 -1.6042 0
M  V30 5551 C 535.957 3.291 -2.88117 0
M  V30 5552 C 535.016 4.47468 -2.76873 0
M  V30 5553 O 534.042 4.4823 -3.50825 0
M  V30 5554 N 535.244 5.48593 -1.89806 0
M  V30 5555 H 538.009 1.47795 -2.60723 0
M  V30 5556 H 535.57 0.66858 -1.4745 0
M  V30 5557 H 537.562 3.75666 -1.50523 0
M  V30 5558 H 536.132 3.04218 -0.719036 0
M  V30 5559 H 535.352 2.40662 -3.12211 0
M  V30 5560 H 536.64 3.46334 -3.72734 0
M  V30 5561 H 536.038 5.50791 -1.2902 0
M  V30 5562 H 534.595 6.24752 -1.85819 0
M  V30 5563 N 538.028 1.39524 0.732853 0
M  V30 5564 C 539.274 1.37068 1.49467 0
M  V30 5565 C 539.607 -0.0327166 1.94172 0
M  V30 5566 O 538.882 -0.998071 1.66939 0
M  V30 5567 C 539.165 2.34494 2.73285 0
M  V30 5568 C 539.018 3.83784 2.34585 0
M  V30 5569 C 540.337 2.29717 3.75391 0
M  V30 5570 H 537.456 0.499206 0.542183 0
M  V30 5571 H 540.098 1.70532 0.837783 0
M  V30 5572 H 538.248 2.06087 3.29333 0
M  V30 5573 H 539.92 4.22949 1.84151 0
M  V30 5574 H 538.163 4.00455 1.66787 0
M  V30 5575 H 538.834 4.47444 3.23262 0
M  V30 5576 H 541.31 2.54839 3.28932 0
M  V30 5577 H 540.186 2.99962 4.59689 0
M  V30 5578 H 540.447 1.30291 4.22465 0
M  V30 5579 N 539.506 -0.963266 1.24736 0
M  V30 5580 C 540.731 -1.74699 1.11781 0
M  V30 5581 C 541.156 -1.85267 -0.325258 0
M  V30 5582 O 540.514 -1.32681 -1.23553 0
M  V30 5583 C 540.562 -3.14322 1.76731 0
M  V30 5584 O 539.666 -3.99043 1.04109 0
M  V30 5585 H 539.007 -0.53684 0.390767 0
M  V30 5586 H 541.537 -1.20801 1.65131 0
M  V30 5587 H 541.547 -3.64824 1.82668 0
M  V30 5588 H 540.222 -3.05946 2.81726 0
M  V30 5589 H 538.799 -3.5752 1.05991 0
M  V30 5590 N 540.985 -1.06182 -1.16461 0
M  V30 5591 C 541.915 -0.692861 -2.22984 0
M  V30 5592 C 542.896 0.314122 -1.67174 0
M  V30 5593 O 544.081 0.189499 -1.93273 0
M  V30 5594 C 541.211 -0.07732 -3.47214 0
M  V30 5595 C 540.165 -1.01015 -4.15909 0
M  V30 5596 C 539.491 -0.257973 -5.34077 0
M  V30 5597 C 540.791 -2.33868 -4.67015 0
M  V30 5598 H 542.485 -1.58343 -2.54102 0
M  V30 5599 H 540.031 -0.76279 -1.22137 0
M  V30 5600 H 541.984 0.19266 -4.20959 0
M  V30 5601 H 540.708 0.848254 -3.15392 0
M  V30 5602 H 539.367 -1.26486 -3.44088 0
M  V30 5603 H 539.015 0.670684 -4.98509 0
M  V30 5604 H 538.715 -0.879638 -5.80979 0
M  V30 5605 H 540.239 0.00448788 -6.106 0
M  V30 5606 H 541.653 -2.1279 -5.32347 0
M  V30 5607 H 540.05 -2.91522 -5.24533 0
M  V30 5608 H 541.12 -2.97019 -3.83286 0
M  V30 5609 N 542.463 1.3308 -0.844243 0
M  V30 5610 C 543.691 2.01808 -0.456203 0
M  V30 5611 C 544.106 1.63498 0.944131 0
M  V30 5612 O 543.463 0.85102 1.61443 0
M  V30 5613 C 543.514 3.56922 -0.573513 0
M  V30 5614 O 543.235 3.93851 -1.91868 0
M  V30 5615 C 544.736 4.42922 -0.183125 0
M  V30 5616 H 541.956 0.646273 -0.180477 0
M  V30 5617 H 544.5 1.69891 -1.1383 0
M  V30 5618 H 542.655 3.87352 0.0607367 0
M  V30 5619 H 543.069 4.88564 -1.90802 0
M  V30 5620 H 544.543 5.51093 -0.316241 0
M  V30 5621 H 545.02 4.30386 0.875477 0
M  V30 5622 H 545.626 4.1786 -0.792027 0
M  V30 5623 N 543.941 0.601185 1.45683 0
M  V30 5624 C 545.181 0.0968037 2.04171 0
M  V30 5625 C 545.545 -1.2466 1.46027 0
M  V30 5626 O 546.746 -1.84132 1.95829 0
M  V30 5627 C 545.017 0.051384 3.57363 0
M  V30 5628 S 546.576 -0.392737 4.37039 0
M  V30 5629 H 543.394 0.0464504 0.709481 0
M  V30 5630 H 545.996 0.797846 1.78479 0
M  V30 5631 H 544.7 1.03274 3.97193 0
M  V30 5632 H 544.231 -0.671853 3.87621 0
M  V30 5633 H 546.246 -1.64364 4.68187 0
M  V30 5634 N 545.419 -1.53889 0.339982 0
M  V30 5635 C 546.349 -2.27843 -0.510856 0
M  V30 5636 C 547.33 -1.29267 -1.10563 0
M  V30 5637 O 548.515 -1.58104 -1.12768 0
M  V30 5638 C 545.645 -3.04857 -1.66372 0
M  V30 5639 C 544.599 -4.10907 -1.19746 0
M  V30 5640 C 543.925 -4.75855 -2.43857 0
M  V30 5641 C 545.225 -5.21435 -0.300501 0
M  V30 5642 H 546.919 -2.99212 0.106067 0
M  V30 5643 H 544.465 -1.43904 0.0524533 0
M  V30 5644 H 546.418 -3.5533 -2.26537 0
M  V30 5645 H 545.142 -2.31133 -2.30749 0
M  V30 5646 H 543.801 -3.61342 -0.618654 0
M  V30 5647 H 543.449 -3.9873 -3.06633 0
M  V30 5648 H 543.149 -5.47502 -2.13343 0
M  V30 5649 H 544.673 -5.2911 -3.04754 0
M  V30 5650 H 546.087 -5.67565 -0.80889 0
M  V30 5651 H 544.484 -6.00036 -0.0874076 0
M  V30 5652 H 545.554 -4.80328 0.664321 0
M  V30 5653 N 546.897 -0.0685191 -1.57451 0
M  V30 5654 C 548.143 0.602239 -1.93652 0
M  V30 5655 C 548.476 1.6946 -0.948526 0
M  V30 5656 O 547.751 1.94487 0.022782 0
M  V30 5657 C 548.034 1.18223 -3.4014 0
M  V30 5658 C 547.887 0.0967431 -4.49696 0
M  V30 5659 C 549.206 2.08872 -3.87377 0
M  V30 5660 H 546.325 0.217453 -0.70419 0
M  V30 5661 H 548.967 -0.133821 -1.89528 0
M  V30 5662 H 547.117 1.80953 -3.43785 0
M  V30 5663 H 548.789 -0.536155 -4.58174 0
M  V30 5664 H 547.032 -0.573063 -4.29998 0
M  V30 5665 H 547.703 0.542894 -5.49324 0
M  V30 5666 H 550.179 1.56081 -3.85717 0
M  V30 5667 H 549.055 2.46389 -4.90493 0
M  V30 5668 H 549.316 2.99572 -3.25129 0
M  V30 5669 N 548.375 1.56261 0.205012 0
M  V30 5670 C 549.322 1.93754 1.25411 0
M  V30 5671 C 550.292 0.796826 1.45739 0
M  V30 5672 O 551.477 1.05414 1.59036 0
M  V30 5673 C 548.617 2.27383 2.59598 0
M  V30 5674 C 547.73 3.5447 2.46931 0
M  V30 5675 C 546.865 3.77468 3.73753 0
M  V30 5676 C 545.904 4.98014 3.55877 0
M  V30 5677 N 545.041 5.17316 4.74688 0
M  V30 5678 H 549.881 2.83203 0.92737 0
M  V30 5679 H 547.418 1.40158 0.446574 0
M  V30 5680 H 549.376 2.44895 3.37761 0
M  V30 5681 H 548.006 1.41088 2.90335 0
M  V30 5682 H 547.058 3.45061 1.60116 0
M  V30 5683 H 548.37 4.42789 2.29651 0
M  V30 5684 H 547.524 3.95165 4.60358 0
M  V30 5685 H 546.263 2.87461 3.93976 0
M  V30 5686 H 545.268 4.80249 2.67657 0
M  V30 5687 H 546.493 5.8952 3.37109 0
M  V30 5688 H 544.439 4.30255 4.95194 0
M  V30 5689 H 544.356 5.99796 4.60197 0
M  V30 5690 H 545.624 5.39463 5.62672 0
M  V30 5691 N 549.853 -0.472356 1.50355 0
M  V30 5692 C 551.101 -1.22211 1.60962 0
M  V30 5693 C 551.422 -1.92497 0.311439 0
M  V30 5694 O 550.692 -1.8405 -0.671002 0
M  V30 5695 H 549.272 -0.454092 0.593135 0
M  V30 5696 H 551.934 -0.544977 1.87126 0
M  V30 5697 H 551.03 -1.9707 2.42012 0
M  V30 5698 N 551.331 -1.39911 -0.725443 0
M  V30 5699 C 552.578 -1.37654 -1.48518 0
M  V30 5700 C 552.906 0.0243982 -1.94485 0
M  V30 5701 O 552.161 1.00708 -1.67799 0
M  V30 5702 C 552.46 -2.30368 -2.7325 0
M  V30 5703 C 552.126 -3.77817 -2.461 0
M  V30 5704 C 550.788 -4.17991 -2.38405 0
M  V30 5705 C 553.14 -4.71036 -2.23103 0
M  V30 5706 C 550.468 -5.49433 -2.05768 0
M  V30 5707 C 552.82 -6.02766 -1.9198 0
M  V30 5708 C 551.484 -6.41993 -1.82761 0
M  V30 5709 H 550.754 -0.503713 -0.543465 0
M  V30 5710 H 553.401 -1.7249 -0.831822 0
M  V30 5711 H 551.706 -1.88683 -3.43375 0
M  V30 5712 H 553.403 -2.2591 -3.31309 0
M  V30 5713 H 549.993 -3.45982 -2.52972 0
M  V30 5714 H 554.177 -4.40823 -2.2801 0
M  V30 5715 H 549.433 -5.78738 -1.9716 0
M  V30 5716 H 553.607 -6.74519 -1.73197 0
M  V30 5717 H 551.234 -7.43761 -1.57237 0
M  V30 5718 N 552.809 0.956637 -1.25245 0
M  V30 5719 C 554.039 1.7332 -1.12445 0
M  V30 5720 C 554.447 1.86392 0.324732 0
M  V30 5721 O 553.79 1.35967 1.23526 0
M  V30 5722 C 553.852 3.16603 -1.70303 0
M  V30 5723 C 553.516 3.26966 -3.19284 0
M  V30 5724 C 554.513 3.11434 -4.16299 0
M  V30 5725 C 552.198 3.50851 -3.59456 0
M  V30 5726 C 554.192 3.1963 -5.51467 0
M  V30 5727 C 551.879 3.58684 -4.94761 0
M  V30 5728 C 552.877 3.43087 -5.90576 0
M  V30 5729 O 552.565 3.50598 -7.2342 0
M  V30 5730 H 552.297 0.549981 -0.393061 0
M  V30 5731 H 554.851 1.20892 -1.66055 0
M  V30 5732 H 553.081 3.70385 -1.11138 0
M  V30 5733 H 554.77 3.76109 -1.52632 0
M  V30 5734 H 555.536 2.92853 -3.86604 0
M  V30 5735 H 551.415 3.62053 -2.85375 0
M  V30 5736 H 554.959 3.07373 -6.26233 0
M  V30 5737 H 550.856 3.76782 -5.24124 0
M  V30 5738 H 551.624 3.67242 -7.31489 0
M  V30 5739 N 554.287 1.06798 1.15896 0
M  V30 5740 C 555.698 0.811355 1.68149 0
M  V30 5741 C 556.049 -0.664339 1.8461 0
M  V30 5742 O 555.174 -1.51485 1.54535 0
M  V30 5743 C 555.769 1.46624 3.05429 0
M  V30 5744 C 554.328 1.25726 3.54781 0
M  V30 5745 C 553.475 1.53949 2.3064 0
M  V30 5746 H 556.426 1.23078 1.00187 0
M  V30 5747 H 556.447 0.88437 3.7008 0
M  V30 5748 H 555.959 2.54025 2.93416 0
M  V30 5749 H 554.06 0.20322 3.72045 0
M  V30 5750 H 554.173 1.97354 4.36564 0
M  V30 5751 H 552.537 0.96025 2.35905 0
M  V30 5752 H 553.32 2.6252 2.2122 0
M  V30 5753 N 555.766 -1.3263 0.851289 0
M  V30 5754 C 556.991 -2.02097 0.466006 0
M  V30 5755 C 557.416 -1.63574 -0.928709 0
M  V30 5756 O 556.774 -0.834665 -1.60944 0
M  V30 5757 C 556.822 -3.55425 0.608737 0
M  V30 5758 O 555.926 -4.10827 -0.359878 0
M  V30 5759 H 555.267 -0.636911 0.187724 0
M  V30 5760 H 557.797 -1.69253 1.14955 0
M  V30 5761 H 557.807 -4.04986 0.495006 0
M  V30 5762 H 556.482 -3.82806 1.62581 0
M  V30 5763 H 555.059 -3.72349 -0.202666 0
M  V30 5764 N 557.244 -0.608902 -1.45362 0
M  V30 5765 C 558.521 -0.0365378 -1.95566 0
M  V30 5766 C 558.901 1.43169 -1.55131 0
M  V30 5767 O 558.249 2.1349 -0.814513 0
M  V30 5768 C 558.459 -0.236026 -3.48201 0
M  V30 5769 C 559.807 -0.117518 -4.24437 0
M  V30 5770 O 560.831 -0.166217 -3.55812 0
M  V30 5771 O 559.69 -0.00372127 -5.465 0
M  V30 5772 H 556.784 0.0349874 -0.82626 0
M  V30 5773 H 559.33 -0.679055 -1.55521 0
M  V30 5774 H 558.102 -1.25569 -3.70605 0
M  V30 5775 H 557.725 0.441691 -3.95139 0
M  V30 5776 N 558.722 1.53707 -0.348139 0
M  V30 5777 C 559.971 2.0017 0.247992 0
M  V30 5778 C 560.284 1.23983 1.51286 0
M  V30 5779 O 561.49 1.60946 2.18652 0
M  V30 5780 C 559.946 3.56515 0.492459 0
M  V30 5781 C 559.554 4.41562 -0.756777 0
M  V30 5782 C 561.298 4.11381 1.0472 0
M  V30 5783 C 559.205 5.89426 -0.482856 0
M  V30 5784 H 558.135 0.747806 0.0964452 0
M  V30 5785 H 560.786 1.77532 -0.464179 0
M  V30 5786 H 559.168 3.75236 1.26545 0
M  V30 5787 H 560.342 4.34615 -1.53122 0
M  V30 5788 H 558.657 3.97711 -1.23348 0
M  V30 5789 H 561.254 5.19468 1.26717 0
M  V30 5790 H 561.597 3.64885 2.00411 0
M  V30 5791 H 562.13 3.96389 0.334801 0
M  V30 5792 H 558.869 6.40164 -1.40962 0
M  V30 5793 H 558.389 5.99264 0.253416 0
M  V30 5794 H 560.068 6.4692 -0.101816 0
M  V30 5795 N 560.2 0.0768682 1.57412 0
M  V30 5796 C 561.163 -0.873949 2.11884 0
M  V30 5797 C 562.163 -1.22301 1.04398 0
M  V30 5798 O 563.353 -1.15545 1.30365 0
M  V30 5799 C 560.485 -2.17575 2.62438 0
M  V30 5800 H 561.678 -0.401278 2.97203 0
M  V30 5801 H 559.231 -0.171904 1.55352 0
M  V30 5802 H 559.966 -2.69368 1.80587 0
M  V30 5803 H 559.751 -1.93534 3.41009 0
M  V30 5804 H 561.241 -2.85631 3.04639 0
M  V30 5805 N 561.678 -1.56367 -0.196722 0
M  V30 5806 C 562.924 -1.80796 -0.918725 0
M  V30 5807 C 563.257 -0.650645 -1.82976 0
M  V30 5808 O 562.532 0.348889 -1.91345 0
M  V30 5809 C 562.815 -3.15472 -1.73636 0
M  V30 5810 C 562.668 -4.41693 -0.85015 0
M  V30 5811 C 563.987 -3.46824 -2.70927 0
M  V30 5812 H 561.106 -0.657702 -0.332561 0
M  V30 5813 H 563.748 -1.89086 -0.186186 0
M  V30 5814 H 561.898 -3.08536 -2.36088 0
M  V30 5815 H 563.57 -4.60673 -0.240459 0
M  V30 5816 H 561.813 -4.33517 -0.156785 0
M  V30 5817 H 562.484 -5.32419 -1.45719 0
M  V30 5818 H 564.96 -3.54049 -2.18607 0
M  V30 5819 H 563.836 -4.4218 -3.25219 0
M  V30 5820 H 564.097 -2.70236 -3.49893 0
M  V30 5821 N 563.156 0.464375 -1.50603 0
M  V30 5822 C 564.066 1.58723 -1.72754 0
M  V30 5823 C 565.082 1.62925 -0.610844 0
M  V30 5824 O 566.258 1.8067 -0.889963 0
M  V30 5825 C 563.323 2.94897 -1.82309 0
M  V30 5826 C 562.384 3.0103 -3.06071 0
M  V30 5827 C 561.617 4.30708 -3.1516 0
M  V30 5828 O 561.84 5.2159 -2.30868 0
M  V30 5829 O 560.774 4.42571 -4.0794 0
M  V30 5830 H 564.6 1.42954 -2.67951 0
M  V30 5831 H 562.185 0.644579 -1.3478 0
M  V30 5832 H 564.067 3.75764 -1.90735 0
M  V30 5833 H 562.742 3.10851 -0.902967 0
M  V30 5834 H 561.649 2.19217 -3.03142 0
M  V30 5835 H 562.982 2.90014 -3.97684 0
M  V30 5836 N 564.634 1.40294 0.718013 0
M  V30 5837 C 565.88 1.39648 1.47885 0
M  V30 5838 C 566.235 -0.0023879 1.924 0
M  V30 5839 O 565.528 -0.972304 1.65096 0
M  V30 5840 C 565.722 2.31814 2.72024 0
M  V30 5841 C 565.551 3.80523 2.3965 0
M  V30 5842 C 564.321 4.49351 2.3111 0
M  V30 5843 C 566.519 4.72077 2.04079 0
M  V30 5844 N 564.501 5.83305 1.91385 0
M  V30 5845 C 565.872 5.94809 1.74935 0
M  V30 5846 C 567.927 4.59935 1.90694 0
M  V30 5847 C 566.63 7.06755 1.33753 0
M  V30 5848 C 568.656 5.7182 1.50915 0
M  V30 5849 C 568.018 6.93637 1.22668 0
M  V30 5850 H 564.117 0.566263 0.539324 0
M  V30 5851 H 566.701 1.75986 0.832891 0
M  V30 5852 H 564.872 1.97607 3.34374 0
M  V30 5853 H 566.604 2.22042 3.38348 0
M  V30 5854 H 563.359 4.03002 2.4877 0
M  V30 5855 H 563.783 6.54239 1.74068 0
M  V30 5856 H 568.425 3.66274 2.11194 0
M  V30 5857 H 566.143 8.00302 1.11995 0
M  V30 5858 H 569.729 5.64421 1.4114 0
M  V30 5859 H 568.609 7.78743 0.923502 0
M  V30 5860 N 566.112 -0.949982 1.2575 0
M  V30 5861 C 567.022 -2.08109 1.08295 0
M  V30 5862 C 568.038 -1.7399 0.0188181 0
M  V30 5863 O 569.214 -2.00187 0.220724 0
M  V30 5864 C 566.279 -3.39383 0.708534 0
M  V30 5865 C 565.34 -3.8734 1.85111 0
M  V30 5866 C 564.573 -5.12349 1.49447 0
M  V30 5867 O 564.796 -5.6905 0.392212 0
M  V30 5868 O 563.73 -5.5513 2.32624 0
M  V30 5869 H 567.556 -2.25738 2.03165 0
M  V30 5870 H 565.141 -1.06545 1.04731 0
M  V30 5871 H 567.023 -4.18277 0.512061 0
M  V30 5872 H 565.698 -3.23013 -0.210854 0
M  V30 5873 H 564.605 -3.09429 2.10248 0
M  V30 5874 H 565.938 -4.08216 2.74991 0
M  V30 5875 N 567.59 -1.07411 -1.15328 0
M  V30 5876 C 568.815 -0.818856 -1.90551 0
M  V30 5877 C 569.24 0.622194 -1.77512 0
M  V30 5878 O 568.598 1.43484 -1.10824 0
M  V30 5879 C 568.646 -1.23267 -3.38877 0
M  V30 5880 O 567.75 -0.378345 -4.10661 0
M  V30 5881 H 567.091 -0.29827 -0.593238 0
M  V30 5882 H 569.621 -1.43289 -1.46046 0
M  V30 5883 H 569.631 -1.20912 -3.89672 0
M  V30 5884 H 568.306 -2.28226 -3.47686 0
M  V30 5885 H 566.883 -0.464437 -3.69996 0
M  V30 5886 N 569.068 1.32177 -0.85831 0
M  V30 5887 C 570.016 2.30729 -0.294442 0
M  V30 5888 C 571.01 1.59009 0.584165 0
M  V30 5889 O 572.216 1.73713 0.471562 0
M  V30 5890 H 568.591 0.748097 -0.0765171 0
M  V30 5891 H 570.562 2.75774 -1.1398 0
M  V30 5892 C 569.311 3.44098 0.499208 0
M  V30 5893 H 568.634 3.99449 -0.167579 0
M  V30 5894 H 570.074 4.15202 0.859273 0
M  V30 5895 C 568.533 2.91684 1.68588 0
M  V30 5896 O 569.063 2.89481 2.78503 0
M  V30 5897 N 567.269 2.48036 1.51415 0
M  V30 5898 H 566.816 2.50027 0.620006 0
M  V30 5899 H 566.774 2.13322 2.30957 0
M  V30 5900 N 570.547 0.616602 1.45037 0
M  V30 5901 C 571.795 0.115103 2.01772 0
M  V30 5902 C 572.116 -1.2622 1.48639 0
M  V30 5903 O 571.386 -1.83563 0.684199 0
M  V30 5904 H 569.966 0.0395607 0.745952 0
M  V30 5905 H 572.628 0.800032 1.77723 0
M  V30 5906 H 571.724 0.0717274 3.12018 0
M  V30 5907 N 572.025 -1.5352 0.356285 0
M  V30 5908 C 572.957 -2.23009 -0.529127 0
M  V30 5909 C 573.97 -1.241 -1.05371 0
M  V30 5910 O 575.159 -1.50379 -0.961679 0
M  V30 5911 C 572.259 -2.90685 -1.74229 0
M  V30 5912 C 571.432 -4.16019 -1.35081 0
M  V30 5913 C 570.491 -4.66989 -2.42502 0
M  V30 5914 O 569.517 -5.30895 -2.05279 0
M  V30 5915 N 570.719 -4.44006 -3.7395 0
M  V30 5916 H 573.484 -2.99627 0.0660501 0
M  V30 5917 H 571.045 -1.60885 0.181014 0
M  V30 5918 H 573.037 -3.21695 -2.4555 0
M  V30 5919 H 571.607 -2.17575 -2.24454 0
M  V30 5920 H 570.827 -3.91414 -0.467833 0
M  V30 5921 H 572.115 -4.9752 -1.06542 0
M  V30 5922 H 571.513 -3.92924 -4.06973 0
M  V30 5923 H 570.07 -4.7959 -4.41403 0
M  V30 5924 N 573.503 -0.0852151 -1.57369 0
M  V30 5925 C 574.914 0.445428 -1.81309 0
M  V30 5926 C 575.265 1.68795 -1.00013 0
M  V30 5927 O 574.39 2.15211 -0.226573 0
M  V30 5928 C 574.985 0.814887 -3.28854 0
M  V30 5929 C 573.544 1.29032 -3.53592 0
M  V30 5930 C 572.691 0.282089 -2.75861 0
M  V30 5931 H 575.642 -0.310771 -1.55627 0
M  V30 5932 H 575.663 1.67524 -3.41637 0
M  V30 5933 H 575.175 -0.0896309 -3.87996 0
M  V30 5934 H 573.276 2.21289 -2.9977 0
M  V30 5935 H 573.389 1.25898 -4.62262 0
M  V30 5936 H 571.753 0.762182 -2.43029 0
M  V30 5937 H 572.536 -0.614936 -3.37748 0
M  V30 5938 N 574.981 1.5647 0.188427 0
M  V30 5939 C 575.891 1.98285 1.2538 0
M  V30 5940 C 576.907 0.891535 1.49424 0
M  V30 5941 O 578.083 1.19782 1.61908 0
M  V30 5942 C 575.148 2.31965 2.57669 0
M  V30 5943 C 574.209 3.54838 2.41638 0
M  V30 5944 C 573.442 3.86901 3.67618 0
M  V30 5945 O 573.665 3.20163 4.72072 0
M  V30 5946 O 572.599 4.80309 3.62749 0
M  V30 5947 H 576.425 2.89145 0.928912 0
M  V30 5948 H 574.01 1.44112 0.393955 0
M  V30 5949 H 575.892 2.54673 3.35737 0
M  V30 5950 H 574.567 1.44271 2.89771 0
M  V30 5951 H 573.474 3.37369 1.61658 0
M  V30 5952 H 574.807 4.43019 2.14465 0
M  V30 5953 N 576.459 -0.456382 1.50847 0
M  V30 5954 C 577.407 -1.57318 1.71329 0
M  V30 5955 C 578.401 -1.59187 0.579287 0
M  V30 5956 O 579.607 -1.6316 0.76018 0
M  V30 5957 H 575.982 -0.5223 0.541024 0
M  V30 5958 H 577.953 -1.3721 2.64983 0
M  V30 5959 C 576.702 -2.95142 1.83811 0
M  V30 5960 H 576.025 -2.94428 2.70467 0
M  V30 5961 H 577.465 -3.72702 2.02161 0
M  V30 5962 C 575.924 -3.31636 0.593224 0
M  V30 5963 O 576.454 -4.00852 -0.260898 0
M  V30 5964 N 574.66 -2.87205 0.442902 0
M  V30 5965 H 574.207 -2.31051 1.13901 0
M  V30 5966 H 574.165 -3.11986 -0.38884 0
M  V30 5967 N 577.937 -1.40673 -0.710563 0
M  V30 5968 C 578.885 -1.41517 -1.84596 0
M  V30 5969 C 579.879 -0.295043 -1.66811 0
M  V30 5970 O 581.085 -0.466331 -1.73854 0
M  V30 5971 H 577.46 -0.442467 -0.608052 0
M  V30 5972 H 579.431 -2.37238 -1.80999 0
M  V30 5973 C 578.18 -1.29957 -3.225 0
M  V30 5974 H 577.503 -2.15429 -3.36794 0
M  V30 5975 H 578.943 -1.34608 -4.02066 0
M  V30 5976 C 577.402 -0.0103164 -3.36898 0
M  V30 5977 O 577.932 0.950707 -3.90288 0
M  V30 5978 N 576.138 0.0608409 -2.90536 0
M  V30 5979 H 575.685 -0.721943 -2.47277 0
M  V30 5980 H 575.643 0.92292 -3.00549 0
M  V30 5981 N 579.415 0.9433 -1.26252 0
M  V30 5982 C 580.645 1.72117 -1.14277 0
M  V30 5983 C 581.053 1.86726 0.304944 0
M  V30 5984 O 580.396 1.3727 1.22076 0
M  V30 5985 C 580.458 3.14778 -1.73651 0
M  V30 5986 C 580.122 3.23561 -3.22734 0
M  V30 5987 C 581.119 3.07001 -4.19579 0
M  V30 5988 C 578.804 3.47019 -3.63157 0
M  V30 5989 C 580.798 3.13763 -5.54826 0
M  V30 5990 C 578.485 3.53416 -4.98538 0
M  V30 5991 C 579.483 3.36804 -5.94182 0
M  V30 5992 O 579.171 3.42906 -7.27098 0
M  V30 5993 H 578.903 0.545781 -0.398873 0
M  V30 5994 H 581.457 1.19123 -1.67328 0
M  V30 5995 H 579.687 3.69186 -1.1506 0
M  V30 5996 H 581.376 3.74469 -1.56613 0
M  V30 5997 H 582.142 2.88736 -3.89688 0
M  V30 5998 H 578.021 3.59006 -2.89199 0
M  V30 5999 H 581.565 3.00714 -6.29458 0
M  V30 6000 H 577.462 3.71201 -5.28091 0
M  V30 6001 H 578.23 3.59463 -7.35342 0
M  V30 6002 N 580.893 1.08022 1.14757 0
M  V30 6003 C 581.84 0.706657 2.19716 0
M  V30 6004 C 582.81 -0.30525 1.63271 0
M  V30 6005 O 583.995 -0.19015 1.8985 0
M  V30 6006 C 581.135 0.117914 3.44898 0
M  V30 6007 C 580.248 1.18212 4.15512 0
M  V30 6008 C 579.383 0.557659 5.28265 0
M  V30 6009 C 578.422 1.60418 5.90705 0
M  V30 6010 N 577.559 1.0018 6.94916 0
M  V30 6011 H 582.399 1.60603 2.51019 0
M  V30 6012 H 579.936 0.802664 1.23271 0
M  V30 6013 H 581.894 -0.241112 4.16503 0
M  V30 6014 H 580.524 -0.744788 3.1409 0
M  V30 6015 H 579.576 1.65863 3.42335 0
M  V30 6016 H 580.888 1.97533 4.5802 0
M  V30 6017 H 580.042 0.146654 6.06523 0
M  V30 6018 H 578.781 -0.267249 4.86967 0
M  V30 6019 H 577.786 2.02489 5.11154 0
M  V30 6020 H 579.011 2.43149 6.34078 0
M  V30 6021 H 576.957 0.197917 6.55701 0
M  V30 6022 H 576.874 1.73216 7.35889 0
M  V30 6023 H 578.142 0.616523 7.77058 0
M  V30 6024 N 582.371 -1.3172 0.865308 0
M  V30 6025 C 583.599 -2.01057 0.488251 0
M  V30 6026 C 584.014 -1.64979 -0.918 0
M  V30 6027 O 583.371 -0.876597 -1.60069 0
M  V30 6028 C 583.422 -3.55964 0.630224 0
M  V30 6029 O 583.143 -3.90749 1.98109 0
M  V30 6030 C 584.644 -4.42574 0.253567 0
M  V30 6031 H 581.864 -0.64332 0.190736 0
M  V30 6032 H 584.408 -1.68058 1.16519 0
M  V30 6033 H 582.563 -3.874 0.000895422 0
M  V30 6034 H 582.977 -4.85467 1.9855 0
M  V30 6035 H 584.451 -5.50521 0.403875 0
M  V30 6036 H 584.928 -4.31724 -0.806895 0
M  V30 6037 H 585.534 -4.16547 0.858404 0
M  V30 6038 N 583.85 -0.624285 -1.44708 0
M  V30 6039 C 585.077 -0.132919 -2.06473 0
M  V30 6040 C 585.493 1.18967 -1.46602 0
M  V30 6041 O 584.85 1.72824 -0.586341 0
M  V30 6042 C 584.901 -0.00465418 -3.615 0
M  V30 6043 O 584.622 -1.27494 -4.19138 0
M  V30 6044 C 586.123 0.516213 -4.40284 0
M  V30 6045 H 583.343 -0.0765201 -0.666623 0
M  V30 6046 H 585.887 -0.856751 -1.85688 0
M  V30 6047 H 584.042 0.669583 -3.8157 0
M  V30 6048 H 584.456 -1.11536 -5.12504 0
M  V30 6049 H 585.93 0.554994 -5.49203 0
M  V30 6050 H 586.407 1.5419 -4.11245 0
M  V30 6051 H 587.013 -0.124542 -4.25118 0
M  V30 6052 N 585.328 1.53329 -0.364422 0
M  V30 6053 C 586.739 1.86345 0.115039 0
M  V30 6054 C 587.09 1.28505 1.4826 0
M  V30 6055 O 586.215 0.606639 2.07723 0
M  V30 6056 C 586.81 3.38114 0.215522 0
M  V30 6057 C 585.369 3.70932 0.639237 0
M  V30 6058 C 584.516 2.76471 -0.214261 0
M  V30 6059 H 587.467 1.47593 -0.583258 0
M  V30 6060 H 587.488 3.66031 1.0393 0
M  V30 6061 H 587 3.80182 -0.779948 0
M  V30 6062 H 585.101 3.3442 1.64298 0
M  V30 6063 H 585.214 4.77302 0.41465 0
M  V30 6064 H 583.578 2.52724 0.316678 0
M  V30 6065 H 584.361 3.21373 -1.20725 0
M  V30 6066 N 586.806 0.0935595 1.57322 0
M  V30 6067 C 588.217 -0.435807 1.81542 0
M  V30 6068 C 588.568 -1.68263 1.00907 0
M  V30 6069 O 587.693 -2.15087 0.237983 0
M  V30 6070 C 588.288 -0.797436 3.29282 0
M  V30 6071 C 586.847 -1.27155 3.54272 0
M  V30 6072 C 585.994 -0.267455 2.76007 0
M  V30 6073 H 588.945 0.31902 1.5546 0
M  V30 6074 H 588.966 -1.6571 3.42521 0
M  V30 6075 H 588.478 0.110206 3.87943 0
M  V30 6076 H 586.579 -2.19696 3.00939 0
M  V30 6077 H 586.692 -1.23445 4.62923 0
M  V30 6078 H 585.056 -0.749282 2.43429 0
M  V30 6079 H 585.839 0.632839 3.37417 0
M  V30 6080 N 588.284 -1.56567 -0.180126 0
M  V30 6081 C 589.53 -1.81761 -0.899497 0
M  V30 6082 C 589.863 -0.670015 -1.82276 0
M  V30 6083 O 589.138 0.328575 -1.91705 0
M  V30 6084 C 589.421 -3.17296 -1.7028 0
M  V30 6085 C 589.274 -4.4257 -0.803255 0
M  V30 6086 C 590.593 -3.49678 -2.67233 0
M  V30 6087 H 587.712 -0.661192 -0.325567 0
M  V30 6088 H 590.354 -1.89272 -0.16612 0
M  V30 6089 H 588.504 -3.11023 -2.32802 0
M  V30 6090 H 590.176 -4.60902 -0.191585 0
M  V30 6091 H 588.419 -4.33658 -0.110796 0
M  V30 6092 H 589.09 -5.33935 -1.40064 0
M  V30 6093 H 591.566 -3.56347 -2.14839 0
M  V30 6094 H 590.442 -4.45605 -3.20511 0
M  V30 6095 H 590.703 -2.73932 -3.47007 0
M  V30 6096 N 589.762 0.448376 -1.51087 0
M  V30 6097 C 590.692 1.55102 -1.74544 0
M  V30 6098 C 591.673 1.59357 -0.594932 0
M  V30 6099 O 592.858 1.75261 -0.836491 0
M  V30 6100 C 589.988 2.93268 -1.86041 0
M  V30 6101 C 588.942 3.03877 -3.01402 0
M  V30 6102 C 588.268 4.43914 -2.98068 0
M  V30 6103 C 589.568 2.7898 -4.41551 0
M  V30 6104 H 591.262 1.35724 -2.66869 0
M  V30 6105 H 588.808 0.651498 -1.28419 0
M  V30 6106 H 590.761 3.70356 -2.01034 0
M  V30 6107 H 589.485 3.13853 -0.903548 0
M  V30 6108 H 588.144 2.29227 -2.86096 0
M  V30 6109 H 587.792 4.6145 -2.00182 0
M  V30 6110 H 587.492 4.51944 -3.75527 0
M  V30 6111 H 589.016 5.22991 -3.1514 0
M  V30 6112 H 590.43 3.45805 -4.57265 0
M  V30 6113 H 588.827 2.98431 -5.20633 0
M  V30 6114 H 589.897 1.74663 -4.5235 0
M  V30 6115 N 591.24 1.41047 0.703093 0
M  V30 6116 C 592.517 1.30493 1.45708 0
M  V30 6117 C 592.897 -0.0709892 2.10981 0
M  V30 6118 O 592.245 -1.08471 2.01113 0
M  V30 6119 C 592.455 2.45287 2.48265 0
M  V30 6120 C 593.803 2.86104 3.13735 0
M  V30 6121 O 594.827 2.44971 2.58587 0
M  V30 6122 O 593.686 3.57206 4.13601 0
M  V30 6123 H 590.78 0.513144 0.648546 0
M  V30 6124 H 593.326 1.52995 0.734208 0
M  V30 6125 H 592.098 3.37135 1.98635 0
M  V30 6126 H 591.721 2.24622 3.28071 0
M  V30 6127 N 592.718 -0.936591 1.26751 0
M  V30 6128 C 593.943 -1.72288 1.15462 0
M  V30 6129 C 594.368 -1.85915 -0.285887 0
M  V30 6130 O 593.726 -1.35272 -1.20711 0
M  V30 6131 C 593.774 -3.10503 1.83359 0
M  V30 6132 O 592.878 -3.96745 1.1255 0
M  V30 6133 H 592.219 -0.52843 0.402067 0
M  V30 6134 H 594.749 -1.17271 1.67656 0
M  V30 6135 H 594.759 -3.60867 1.90365 0
M  V30 6136 H 593.434 -2.99901 2.88153 0
M  V30 6137 H 592.011 -3.55191 1.13551 0
M  V30 6138 N 594.196 -1.08629 -1.14182 0
M  V30 6139 C 595.473 -0.73002 -1.81466 0
M  V30 6140 C 595.853 0.785996 -1.95922 0
M  V30 6141 O 595.201 1.70535 -1.52086 0
M  V30 6142 C 595.411 -1.45957 -3.17014 0
M  V30 6143 C 596.759 -1.62008 -3.92477 0
M  V30 6144 O 597.783 -1.42141 -3.26611 0
M  V30 6145 O 596.642 -1.94806 -5.106 0
M  V30 6146 H 593.736 -0.261307 -0.784632 0
M  V30 6147 H 596.282 -1.188 -1.2118 0
M  V30 6148 H 595.054 -2.49221 -3.01669 0
M  V30 6149 H 594.677 -0.993222 -3.84995 0
M  V30 6150 N 595.674 1.31259 -0.872281 0
M  V30 6151 C 596.922 1.96233 -0.483409 0
M  V30 6152 C 597.243 1.69276 0.968012 0
M  V30 6153 O 596.513 1.00943 1.67891 0
M  V30 6154 H 595.093 0.726025 -0.175774 0
M  V30 6155 H 597.755 1.60024 -1.11258 0
M  V30 6156 H 596.851 3.05403 -0.643075 0
M  V30 6157 N 597.152 0.631951 1.44375 0
M  V30 6158 C 598.377 0.142146 2.06912 0
M  V30 6159 C 598.802 -1.17456 1.4692 0
M  V30 6160 O 598.16 -1.72074 0.570975 0
M  V30 6161 C 598.208 0.0417952 3.60576 0
M  V30 6162 O 597.312 -1.00194 4.00044 0
M  V30 6163 H 596.653 0.0851491 0.658518 0
M  V30 6164 H 599.183 0.868863 1.85235 0
M  V30 6165 H 599.193 -0.148517 4.0773 0
M  V30 6166 H 597.868 1.0031 4.03622 0
M  V30 6167 H 596.445 -0.786131 3.64519 0
M  V30 6168 N 598.631 -1.53133 0.372548 0
M  V30 6169 C 599.878 -2.01356 -0.214959 0
M  V30 6170 C 600.206 -1.2596 -1.48204 0
M  V30 6171 O 599.461 -0.343511 -1.92662 0
M  V30 6172 C 599.76 -3.53206 -0.545938 0
M  V30 6173 C 599.426 -4.46511 0.627624 0
M  V30 6174 C 598.088 -4.71737 0.949615 0
M  V30 6175 C 600.44 -5.01666 1.41353 0
M  V30 6176 C 597.768 -5.4937 2.05936 0
M  V30 6177 C 600.12 -5.80511 2.51375 0
M  V30 6178 C 598.784 -6.04022 2.84101 0
M  V30 6179 H 598.054 -0.736813 -0.078659 0
M  V30 6180 H 600.701 -1.84682 0.506447 0
M  V30 6181 H 599.006 -3.67864 -1.34845 0
M  V30 6182 H 600.703 -3.87997 -1.01287 0
M  V30 6183 H 597.293 -4.27029 0.366635 0
M  V30 6184 H 601.477 -4.82117 1.17802 0
M  V30 6185 H 596.733 -5.65803 2.31682 0
M  V30 6186 H 600.907 -6.22255 3.12684 0
M  V30 6187 H 598.534 -6.63962 3.70214 0
M  V30 6188 N 600.109 -0.101901 -1.5727 0
M  V30 6189 C 601.356 0.560197 -1.94597 0
M  V30 6190 C 601.684 1.67767 -0.984101 0
M  V30 6191 O 600.939 1.95699 -0.00489193 0
M  V30 6192 C 601.238 1.14898 -3.38427 0
M  V30 6193 C 600.904 0.154613 -4.50635 0
M  V30 6194 C 599.566 -0.118861 -4.81053 0
M  V30 6195 C 601.918 -0.523979 -5.18559 0
M  V30 6196 C 599.246 -1.0775 -5.76721 0
M  V30 6197 C 601.598 -1.47114 -6.15256 0
M  V30 6198 C 600.262 -1.75278 -6.44076 0
M  V30 6199 H 599.532 0.204991 -0.712081 0
M  V30 6200 H 602.179 -0.17918 -1.9066 0
M  V30 6201 H 600.484 1.96476 -3.38976 0
M  V30 6202 H 602.181 1.66909 -3.64613 0
M  V30 6203 H 598.771 0.377948 -4.2693 0
M  V30 6204 H 602.955 -0.325851 -4.95229 0
M  V30 6205 H 598.211 -1.30263 -5.97362 0
M  V30 6206 H 602.385 -2.00274 -6.66981 0
M  V30 6207 H 600.012 -2.49717 -7.18015 0
M  V30 6208 N 601.587 1.56661 0.17182 0
M  V30 6209 C 602.517 1.99401 1.21498 0
M  V30 6210 C 603.498 0.869516 1.46197 0
M  V30 6211 O 604.683 1.13556 1.57539 0
M  V30 6212 C 601.813 2.35346 2.55401 0
M  V30 6213 C 600.767 3.5075 2.45272 0
M  V30 6214 C 600.093 3.72437 3.8366 0
M  V30 6215 C 601.393 4.84216 1.95787 0
M  V30 6216 H 603.087 2.86792 0.859699 0
M  V30 6217 H 600.633 1.37977 0.412103 0
M  V30 6218 H 602.586 2.63843 3.2858 0
M  V30 6219 H 601.31 1.44864 2.92715 0
M  V30 6220 H 599.969 3.2238 1.74547 0
M  V30 6221 H 599.617 2.79246 4.18367 0
M  V30 6222 H 599.317 4.50087 3.77751 0
M  V30 6223 H 600.841 4.03334 4.58426 0
M  V30 6224 H 602.255 5.11592 2.5874 0
M  V30 6225 H 600.652 5.65498 2.00827 0
M  V30 6226 H 601.722 4.76243 0.912159 0
M  V30 6227 N 603.065 -0.440357 1.51323 0
M  V30 6228 C 604.295 -1.21079 1.67402 0
M  V30 6229 C 604.703 -1.85555 0.369599 0
M  V30 6230 O 604.046 -1.71375 -0.661525 0
M  V30 6231 C 604.108 -2.33839 2.73056 0
M  V30 6232 C 603.772 -1.89755 4.15743 0
M  V30 6233 C 604.769 -1.40268 5.0062 0
M  V30 6234 C 602.454 -1.97539 4.61826 0
M  V30 6235 C 604.448 -0.991474 6.29642 0
M  V30 6236 C 602.135 -1.56029 5.90845 0
M  V30 6237 C 603.133 -1.06915 6.7458 0
M  V30 6238 O 602.821 -0.659933 8.01187 0
M  V30 6239 H 602.553 -0.371133 0.56501 0
M  V30 6240 H 605.107 -0.528409 1.98487 0
M  V30 6241 H 603.337 -3.05345 2.37279 0
M  V30 6242 H 605.026 -2.95713 2.78044 0
M  V30 6243 H 605.792 -1.33652 4.66221 0
M  V30 6244 H 601.671 -2.34713 3.96776 0
M  V30 6245 H 605.215 -0.607425 6.9495 0
M  V30 6246 H 601.112 -1.62315 6.24759 0
M  V30 6247 H 601.88 -0.786052 8.14717 0
M  V30 6248 N 604.543 -1.41418 -0.695603 0
M  V30 6249 C 605.768 -1.44329 -1.48942 0
M  V30 6250 C 606.193 -0.0501579 -1.88033 0
M  V30 6251 O 605.551 0.946598 -1.54626 0
M  V30 6252 C 605.599 -2.3578 -2.72837 0
M  V30 6253 O 604.703 -1.81482 -3.70322 0
M  V30 6254 H 604.044 -0.489838 -0.44828 0
M  V30 6255 H 606.574 -1.85878 -0.855014 0
M  V30 6256 H 606.584 -2.51654 -3.21145 0
M  V30 6257 H 605.259 -3.37005 -2.43722 0
M  V30 6258 H 603.836 -1.75058 -3.29255 0
M  V30 6259 N 606.021 0.929856 -1.27246 0
M  V30 6260 C 606.968 2.03017 -1.09785 0
M  V30 6261 C 607.938 1.661 0.000456744 0
M  V30 6262 O 609.123 1.90116 -0.161462 0
M  V30 6263 C 606.263 3.36878 -0.748816 0
M  V30 6264 C 605.376 3.86763 -1.92453 0
M  V30 6265 C 604.511 5.09061 -1.51758 0
M  V30 6266 C 603.55 5.51237 -2.66091 0
M  V30 6267 N 602.687 6.64732 -2.25999 0
M  V30 6268 H 607.527 2.17285 -2.03939 0
M  V30 6269 H 605.064 1.06448 -1.01524 0
M  V30 6270 H 607.022 4.13855 -0.527283 0
M  V30 6271 H 605.652 3.22424 0.155771 0
M  V30 6272 H 604.704 3.06086 -2.25867 0
M  V30 6273 H 606.016 4.13994 -2.78227 0
M  V30 6274 H 605.17 5.93532 -1.25716 0
M  V30 6275 H 603.909 4.83602 -0.630896 0
M  V30 6276 H 602.914 4.65316 -2.92849 0
M  V30 6277 H 604.139 5.78692 -3.55377 0
M  V30 6278 H 602.085 6.40935 -1.3978 0
M  V30 6279 H 602.002 6.91607 -3.05313 0
M  V30 6280 H 603.27 7.52549 -2.03199 0
M  V30 6281 N 607.499 1.09233 1.13605 0
M  V30 6282 C 608.429 0.751738 2.21068 0
M  V30 6283 C 609.41 -0.269688 1.67948 0
M  V30 6284 O 610.595 -0.13819 1.93708 0
M  V30 6285 C 607.725 0.16935 3.46887 0
M  V30 6286 C 606.679 1.12007 4.13084 0
M  V30 6287 C 606.005 0.399483 5.33206 0
M  V30 6288 C 607.305 2.46168 4.6065 0
M  V30 6289 H 608.999 1.65024 2.49815 0
M  V30 6290 H 606.545 0.794905 1.20072 0
M  V30 6291 H 608.498 -0.0809824 4.21322 0
M  V30 6292 H 607.222 -0.764335 3.1753 0
M  V30 6293 H 605.881 1.35564 3.40614 0
M  V30 6294 H 605.529 -0.538277 5.00112 0
M  V30 6295 H 605.229 1.03337 5.78442 0
M  V30 6296 H 606.753 0.157403 6.10397 0
M  V30 6297 H 608.167 2.26829 5.26518 0
M  V30 6298 H 606.564 3.05326 5.1662 0
M  V30 6299 H 607.634 3.07076 3.75276 0
M  V30 6300 N 608.977 -1.30795 0.87923 0
M  V30 6301 C 610.205 -2.00527 0.509548 0
M  V30 6302 C 610.62 -1.65944 -0.90045 0
M  V30 6303 O 609.977 -0.893525 -1.5913 0
M  V30 6304 C 610.028 -3.55276 0.667943 0
M  V30 6305 O 609.749 -3.88625 2.02242 0
M  V30 6306 C 611.25 -4.4228 0.300494 0
M  V30 6307 H 608.47 -0.641261 0.197549 0
M  V30 6308 H 611.014 -1.66813 1.18295 0
M  V30 6309 H 609.169 -3.87377 0.0419843 0
M  V30 6310 H 609.583 -4.83334 2.03688 0
M  V30 6311 H 611.057 -5.50061 0.462242 0
M  V30 6312 H 611.534 -4.32556 -0.76106 0
M  V30 6313 H 612.14 -4.15613 0.902536 0
M  V30 6314 N 610.455 -0.639598 -1.44038 0
M  V30 6315 C 611.701 -0.147698 -2.02261 0
M  V30 6316 C 612.034 1.23031 -1.50256 0
M  V30 6317 O 611.309 1.81847 -0.690068 0
M  V30 6318 C 611.592 -0.14362 -3.59813 0
M  V30 6319 C 611.445 -1.55458 -4.22082 0
M  V30 6320 C 612.764 0.527317 -4.36929 0
M  V30 6321 H 609.883 -0.0551453 -0.734934 0
M  V30 6322 H 612.525 -0.817688 -1.71505 0
M  V30 6323 H 610.675 0.426898 -3.86147 0
M  V30 6324 H 612.347 -2.17464 -4.06826 0
M  V30 6325 H 610.59 -2.10594 -3.79253 0
M  V30 6326 H 611.261 -1.50369 -5.31124 0
M  V30 6327 H 613.737 0.0420504 -4.16079 0
M  V30 6328 H 612.613 0.499389 -5.46624 0
M  V30 6329 H 612.874 1.59914 -4.12165 0
M  V30 6330 N 611.933 1.52934 -0.380664 0
M  V30 6331 C 613.21 1.93845 0.261417 0
M  V30 6332 C 613.59 1.31544 1.65104 0
M  V30 6333 O 612.938 0.480234 2.23397 0
M  V30 6334 C 613.148 3.47739 0.296466 0
M  V30 6335 C 614.496 4.21284 0.529578 0
M  V30 6336 O 615.52 3.54199 0.377041 0
M  V30 6337 O 614.379 5.40195 0.827753 0
M  V30 6338 H 611.473 0.811318 0.160285 0
M  V30 6339 H 614.019 1.64042 -0.434544 0
M  V30 6340 H 612.791 3.85395 -0.67724 0
M  V30 6341 H 612.414 3.8382 1.0377 0
M  V30 6342 N 613.412 0.11024 1.57214 0
M  V30 6343 C 614.359 -0.843195 2.14846 0
M  V30 6344 C 615.329 -1.26954 1.07107 0
M  V30 6345 O 616.514 -1.34861 1.34971 0
M  V30 6346 C 613.654 -2.09123 2.74521 0
M  V30 6347 C 612.767 -1.71404 3.96541 0
M  V30 6348 C 611.902 -2.91107 4.44331 0
M  V30 6349 C 610.941 -2.49586 5.58903 0
M  V30 6350 N 610.078 -3.62175 6.01477 0
M  V30 6351 H 614.918 -0.344886 2.95998 0
M  V30 6352 H 612.455 -0.15855 1.46243 0
M  V30 6353 H 614.413 -2.82234 3.07246 0
M  V30 6354 H 613.043 -2.56427 1.96074 0
M  V30 6355 H 612.095 -0.88201 3.70033 0
M  V30 6356 H 613.407 -1.36884 4.7965 0
M  V30 6357 H 612.561 -3.72454 4.78919 0
M  V30 6358 H 611.3 -3.28848 3.60153 0
M  V30 6359 H 610.305 -1.6667 5.23929 0
M  V30 6360 H 611.53 -2.12973 6.4484 0
M  V30 6361 H 609.476 -3.99605 5.20242 0
M  V30 6362 H 609.393 -3.3155 6.79419 0
M  V30 6363 H 610.661 -4.43987 6.407 0
M  V30 6364 N 614.89 -1.56749 -0.16351 0
M  V30 6365 C 616.115 -1.86938 -0.898264 0
M  V30 6366 C 616.54 -0.697456 -1.74692 0
M  V30 6367 O 615.898 0.353327 -1.77824 0
M  V30 6368 C 615.946 -3.15599 -1.74441 0
M  V30 6369 O 615.05 -2.98371 -2.8469 0
M  V30 6370 H 614.391 -0.614659 -0.251178 0
M  V30 6371 H 616.921 -2.03979 -0.159298 0
M  V30 6372 H 616.931 -3.47202 -2.14277 0
M  V30 6373 H 615.606 -4.00505 -1.1211 0
M  V30 6374 H 614.183 -2.7814 -2.4838 0
M  V30 6375 N 616.368 0.432326 -1.51554 0
M  V30 6376 C 617.784 0.769195 -1.39841 0
M  V30 6377 C 617.984 1.95584 -0.484675 0
M  V30 6378 O 617.04 2.52433 0.0582829 0
M  V30 6379 C 618.353 1.04487 -2.81963 0
M  V30 6380 C 619.901 1.149 -2.91148 0
M  V30 6381 C 620.376 1.45758 -4.34187 0
M  V30 6382 N 621.867 1.52671 -4.37317 0
M  V30 6383 C 622.602 1.78129 -5.4503 0
M  V30 6384 N 622.098 2.01345 -6.62897 0
M  V30 6385 N 623.891 1.79953 -5.32516 0
M  V30 6386 H 616.042 -0.349122 -2.09511 0
M  V30 6387 H 618.305 -0.0938113 -0.943347 0
M  V30 6388 H 618.011 0.24557 -3.50842 0
M  V30 6389 H 617.885 1.97119 -3.21596 0
M  V30 6390 H 620.272 1.93891 -2.22464 0
M  V30 6391 H 620.353 0.201568 -2.55005 0
M  V30 6392 H 619.997 0.672917 -5.03423 0
M  V30 6393 H 619.927 2.41715 -4.67848 0
M  V30 6394 H 622.418 1.36612 -3.52343 0
M  V30 6395 H 622.731 2.20155 -7.40778 0
M  V30 6396 H 621.076 1.98657 -6.66003 0
M  V30 6397 H 624.267 1.61337 -4.39418 0
M  V30 6398 H 624.44 1.99455 -6.1654 0
M  V30 6399 N 617.846 1.41785 0.688094 0
M  V30 6400 C 619.092 1.42753 1.4489 0
M  V30 6401 C 619.447 0.0384235 1.92362 0
M  V30 6402 O 618.74 -0.937066 1.67122 0
M  V30 6403 C 618.934 2.37532 2.67046 0
M  V30 6404 C 618.763 3.85521 2.31525 0
M  V30 6405 C 617.533 4.54152 2.21527 0
M  V30 6406 C 619.731 4.76299 1.94019 0
M  V30 6407 N 617.713 5.87233 1.78969 0
M  V30 6408 C 619.084 5.98386 1.62279 0
M  V30 6409 C 621.139 4.63877 1.80895 0
M  V30 6410 C 619.842 7.09433 1.18732 0
M  V30 6411 C 621.868 5.74893 1.38752 0
M  V30 6412 C 621.23 6.96083 1.07927 0
M  V30 6413 H 617.329 0.577575 0.527192 0
M  V30 6414 H 619.913 1.77713 0.795375 0
M  V30 6415 H 618.084 2.04656 3.30107 0
M  V30 6416 H 619.816 2.29169 3.33562 0
M  V30 6417 H 616.571 4.08188 2.40166 0
M  V30 6418 H 616.995 6.57785 1.60151 0
M  V30 6419 H 621.637 3.70671 2.03378 0
M  V30 6420 H 619.355 8.02497 0.949937 0
M  V30 6421 H 622.941 5.67287 1.29136 0
M  V30 6422 H 621.821 7.80527 0.758111 0
M  V30 6423 N 619.324 -0.923095 1.27737 0
M  V30 6424 C 620.256 -2.02871 1.06658 0
M  V30 6425 C 621.269 -1.62786 0.0212095 0
M  V30 6426 O 622.458 -1.76548 0.263267 0
M  V30 6427 C 619.558 -3.33603 0.59682 0
M  V30 6428 C 618.731 -4.02354 1.71551 0
M  V30 6429 C 617.79 -5.11364 1.24071 0
M  V30 6430 O 616.816 -5.35075 1.94123 0
M  V30 6431 N 618.018 -5.80416 0.0988444 0
M  V30 6432 H 620.783 -2.21515 2.01869 0
M  V30 6433 H 618.344 -1.09378 1.19365 0
M  V30 6434 H 620.336 -4.03845 0.262984 0
M  V30 6435 H 618.906 -3.11499 -0.262187 0
M  V30 6436 H 618.126 -3.25786 2.2194 0
M  V30 6437 H 619.414 -4.45035 2.46619 0
M  V30 6438 H 618.812 -5.63611 -0.485743 0
M  V30 6439 H 617.369 -6.51563 -0.17578 0
M  V30 6440 N 620.802 -1.09834 -1.13024 0
M  V30 6441 C 621.734 -0.699379 -2.18269 0
M  V30 6442 C 622.747 0.260841 -1.60697 0
M  V30 6443 O 623.936 0.0462538 -1.7844 0
M  V30 6444 C 621.036 -0.0104537 -3.38898 0
M  V30 6445 C 620.209 -0.993275 -4.25973 0
M  V30 6446 C 619.268 -0.336982 -5.2512 0
M  V30 6447 O 618.294 -0.985892 -5.60597 0
M  V30 6448 N 619.496 0.90716 -5.73368 0
M  V30 6449 H 622.261 -1.60486 -2.5311 0
M  V30 6450 H 619.822 -0.986337 -1.28386 0
M  V30 6451 H 621.814 0.43991 -4.02302 0
M  V30 6452 H 620.384 0.797335 -3.0226 0
M  V30 6453 H 619.604 -1.62208 -3.5928 0
M  V30 6454 H 620.892 -1.65876 -4.81002 0
M  V30 6455 H 620.29 1.45384 -5.46699 0
M  V30 6456 H 618.847 1.30077 -6.38689 0
M  V30 6457 N 622.28 1.30327 -0.886154 0
M  V30 6458 C 623.528 1.9571 -0.504195 0
M  V30 6459 C 623.849 1.70294 0.950003 0
M  V30 6460 O 623.119 1.02718 1.66811 0
M  V30 6461 H 621.699 0.72412 -0.183465 0
M  V30 6462 H 624.361 1.58835 -1.12949 0
M  V30 6463 H 623.457 3.04704 -0.675431 0
M  V30 6464 N 623.758 0.647228 1.43697 0
M  V30 6465 C 624.706 -0.0600105 2.32523 0
M  V30 6466 C 625.7 -0.819277 1.48271 0
M  V30 6467 O 626.906 -0.730356 1.64517 0
M  V30 6468 H 623.281 -0.0381872 0.75103 0
M  V30 6469 H 625.252 0.706978 2.89904 0
M  V30 6470 C 624.001 -1.0169 3.32497 0
M  V30 6471 H 623.324 -0.442083 3.97348 0
M  V30 6472 H 624.764 -1.48095 3.97296 0
M  V30 6473 C 623.223 -2.11002 2.6264 0
M  V30 6474 O 623.753 -3.19302 2.4374 0
M  V30 6475 N 621.959 -1.87388 2.22113 0
M  V30 6476 H 621.506 -0.993174 2.37684 0
M  V30 6477 H 621.464 -2.60723 1.75701 0
M  V30 6478 N 625.236 -1.5273 0.388769 0
M  V30 6479 C 626.482 -2.01871 -0.193877 0
M  V30 6480 C 626.815 -1.27475 -1.46505 0
M  V30 6481 O 626.09 -0.375063 -1.90849 0
M  V30 6482 C 626.373 -3.5712 -0.462336 0
M  V30 6483 C 626.226 -4.42186 0.824091 0
M  V30 6484 C 627.545 -4.21881 -1.25319 0
M  V30 6485 H 624.664 -0.733764 -0.0689899 0
M  V30 6486 H 627.306 -1.82796 0.518231 0
M  V30 6487 H 625.456 -3.73504 -1.06896 0
M  V30 6488 H 627.128 -4.37554 1.46096 0
M  V30 6489 H 625.371 -4.09219 1.43952 0
M  V30 6490 H 626.042 -5.48828 0.590905 0
M  V30 6491 H 628.518 -4.0947 -0.73981 0
M  V30 6492 H 627.394 -5.30487 -1.40977 0
M  V30 6493 H 627.655 -3.79478 -2.26824 0
M  V30 6494 N 626.714 -0.118576 -1.57153 0
M  V30 6495 C 627.961 0.539526 -1.9518 0
M  V30 6496 C 628.289 1.66714 -1.00184 0
M  V30 6497 O 627.544 1.95683 -0.0256482 0
M  V30 6498 C 627.843 1.11303 -3.39627 0
M  V30 6499 C 627.509 0.106809 -4.50773 0
M  V30 6500 C 626.171 -0.169876 -4.809 0
M  V30 6501 C 628.523 -0.57895 -5.17975 0
M  V30 6502 C 625.851 -1.13861 -5.75545 0
M  V30 6503 C 628.203 -1.53631 -6.13661 0
M  V30 6504 C 626.867 -1.82099 -6.42181 0
M  V30 6505 H 626.137 0.197427 -0.714215 0
M  V30 6506 H 628.784 -0.199391 -1.90459 0
M  V30 6507 H 627.089 1.92869 -3.4104 0
M  V30 6508 H 628.786 1.63032 -3.66363 0
M  V30 6509 H 625.376 0.332645 -4.27307 0
M  V30 6510 H 629.56 -0.378359 -4.94856 0
M  V30 6511 H 624.816 -1.36592 -5.95947 0
M  V30 6512 H 628.99 -2.07337 -6.64819 0
M  V30 6513 H 626.617 -2.57319 -7.15326 0
M  V30 6514 N 628.193 1.56834 0.155195 0
M  V30 6515 C 629.418 1.87412 0.888337 0
M  V30 6516 C 629.843 0.70671 1.74319 0
M  V30 6517 O 629.201 -0.343892 1.78009 0
M  V30 6518 C 629.249 3.1652 1.72765 0
M  V30 6519 O 628.353 2.99877 2.83103 0
M  V30 6520 H 627.694 0.615983 0.247914 0
M  V30 6521 H 630.224 2.04061 0.148478 0
M  V30 6522 H 630.234 3.48334 2.12433 0
M  V30 6523 H 628.909 4.01094 1.09985 0
M  V30 6524 H 627.486 2.79453 2.46902 0
M  V30 6525 N 629.671 -0.424282 1.51781 0
M  V30 6526 C 630.911 -1.18194 1.66762 0
M  V30 6527 C 631.275 -1.88164 0.381857 0
M  V30 6528 O 632.476 -2.65692 0.407586 0
M  V30 6529 C 630.747 -2.16173 2.84612 0
M  V30 6530 S 632.306 -3.0025 3.19993 0
M  V30 6531 H 629.124 -0.400626 0.587384 0
M  V30 6532 H 631.726 -0.471499 1.89729 0
M  V30 6533 H 630.43 -1.6343 3.76455 0
M  V30 6534 H 629.961 -2.91778 2.63873 0
M  V30 6535 H 631.976 -4.1796 2.67439 0
M  V30 6536 N 631.149 -1.42148 -0.680565 0
M  V30 6537 C 632.374 -1.45901 -1.47403 0
M  V30 6538 C 632.799 -0.0700985 -1.87969 0
M  V30 6539 O 632.157 0.930145 -1.55621 0
M  V30 6540 C 632.205 -2.38661 -2.70321 0
M  V30 6541 O 631.309 -1.85399 -3.68376 0
M  V30 6542 H 630.65 -0.494565 -0.443059 0
M  V30 6543 H 633.18 -1.86774 -0.835251 0
M  V30 6544 H 633.19 -2.55046 -3.18458 0
M  V30 6545 H 631.865 -3.39571 -2.40134 0
M  V30 6546 H 630.442 -1.78541 -3.2738 0
M  V30 6547 N 632.627 0.916307 -1.28225 0
M  V30 6548 C 633.873 1.66765 -1.154 0
M  V30 6549 C 634.206 1.91912 0.297251 0
M  V30 6550 O 633.481 1.51766 1.21644 0
M  V30 6551 C 633.764 3.02715 -1.95028 0
M  V30 6552 C 633.617 2.84738 -3.48201 0
M  V30 6553 C 634.936 4.03215 -1.76369 0
M  V30 6554 H 632.055 0.605205 -0.42059 0
M  V30 6555 H 634.697 1.06255 -1.57512 0
M  V30 6556 H 632.847 3.54365 -1.59242 0
M  V30 6557 H 634.519 2.40118 -3.9388 0
M  V30 6558 H 632.762 2.19848 -3.73964 0
M  V30 6559 H 633.433 3.8127 -3.99171 0
M  V30 6560 H 635.909 3.60617 -2.07593 0
M  V30 6561 H 634.785 4.96306 -2.34459 0
M  V30 6562 H 635.046 4.36288 -0.71452 0
M  V30 6563 N 634.105 1.10431 1.1244 0
M  V30 6564 C 635.038 0.696987 2.17296 0
M  V30 6565 C 636.016 -0.301673 1.59777 0
M  V30 6566 O 637.2 -0.200583 1.8743 0
M  V30 6567 C 634.327 0.0284094 3.38688 0
M  V30 6568 C 633.373 0.990536 4.14838 0
M  V30 6569 S 634.206 2.50785 4.73146 0
M  V30 6570 C 635.362 1.85198 5.97873 0
M  V30 6571 H 635.595 1.58523 2.51511 0
M  V30 6572 H 633.128 0.921312 1.239 0
M  V30 6573 H 635.086 -0.351009 4.08997 0
M  V30 6574 H 633.747 -0.836629 3.02753 0
M  V30 6575 H 632.94 0.469991 5.01804 0
M  V30 6576 H 632.542 1.31186 3.50237 0
M  V30 6577 H 634.834 1.18217 6.67106 0
M  V30 6578 H 635.777 2.7012 6.54554 0
M  V30 6579 H 636.185 1.31653 5.48933 0
M  V30 6580 N 635.583 -1.29855 0.893053 0
M  V30 6581 C 636.533 -2.25493 0.337211 0
M  V30 6582 C 637.517 -1.51606 -0.53894 0
M  V30 6583 O 638.709 -1.72828 -0.382043 0
M  V30 6584 C 635.838 -3.40467 -0.440117 0
M  V30 6585 C 634.924 -4.217 0.450578 0
M  V30 6586 N 635.315 -4.81312 1.55476 0
M  V30 6587 C 633.613 -4.45315 0.247154 0
M  V30 6588 C 634.314 -5.42241 2.10593 0
M  V30 6589 N 633.29 -5.25267 1.39982 0
M  V30 6590 H 637.092 -2.69137 1.18079 0
M  V30 6591 H 634.606 -1.44388 0.743359 0
M  V30 6592 H 636.603 -4.08038 -0.855021 0
M  V30 6593 H 635.263 -2.98361 -1.28104 0
M  V30 6594 H 636.274 -4.80291 1.93755 0
M  V30 6595 H 632.951 -4.13782 -0.555939 0
M  V30 6596 H 634.341 -5.99517 3.03362 0
M  V30 6597 N 637.061 -0.65484 -1.43351 0
M  V30 6598 C 637.971 0.0363603 -2.34572 0
M  V30 6599 C 638.987 0.810432 -1.53974 0
M  V30 6600 O 640.163 0.757308 -1.86619 0
M  V30 6601 C 637.228 0.989733 -3.32273 0
M  V30 6602 C 636.289 0.212414 -4.28774 0
M  V30 6603 C 635.522 1.12038 -5.21808 0
M  V30 6604 O 635.745 2.35967 -5.19303 0
M  V30 6605 O 634.679 0.59191 -5.98982 0
M  V30 6606 H 638.505 -0.714527 -2.95175 0
M  V30 6607 H 636.09 -0.415029 -1.4352 0
M  V30 6608 H 637.972 1.53759 -3.92347 0
M  V30 6609 H 636.647 1.72082 -2.74171 0
M  V30 6610 H 635.554 -0.379062 -3.72175 0
M  V30 6611 H 636.887 -0.479138 -4.89862 0
M  V30 6612 N 638.539 1.52521 -0.396863 0
M  V30 6613 C 639.502 2.2527 0.422604 0
M  V30 6614 C 640.502 1.27184 0.983913 0
M  V30 6615 O 641.692 1.51222 0.864723 0
M  V30 6616 C 638.824 3.01356 1.59365 0
M  V30 6617 H 640.017 2.99133 -0.214416 0
M  V30 6618 H 637.57 1.55587 -0.149128 0
M  V30 6619 H 638.305 2.31813 2.26789 0
M  V30 6620 H 638.09 3.73357 1.19779 0
M  V30 6621 H 639.58 3.56571 2.17363 0
M  V30 6622 N 640.017 0.126909 1.57088 0
M  V30 6623 C 640.947 -0.816847 2.18746 0
M  V30 6624 C 641.928 -1.27161 1.12979 0
M  V30 6625 O 643.113 -1.33279 1.41246 0
M  V30 6626 C 640.243 -2.06398 2.79315 0
M  V30 6627 C 639.197 -1.74673 3.90735 0
M  V30 6628 C 638.523 -3.06482 4.38147 0
M  V30 6629 C 639.823 -1.0089 5.12463 0
M  V30 6630 H 641.517 -0.303032 2.97863 0
M  V30 6631 H 639.063 -0.144314 1.43275 0
M  V30 6632 H 641.016 -2.72885 3.2111 0
M  V30 6633 H 639.74 -2.60118 1.975 0
M  V30 6634 H 638.399 -1.10572 3.49527 0
M  V30 6635 H 638.047 -3.58152 3.5318 0
M  V30 6636 H 637.747 -2.86025 5.13287 0
M  V30 6637 H 639.271 -3.74073 4.82599 0
M  V30 6638 H 640.685 -1.57546 5.51228 0
M  V30 6639 H 639.082 -0.905006 5.93237 0
M  V30 6640 H 640.152 0.00297335 4.849 0
M  V30 6641 N 641.495 -1.56914 -0.146875 0
M  V30 6642 C 642.445 -1.94693 -1.18653 0
M  V30 6643 C 643.429 -0.81821 -1.38543 0
M  V30 6644 O 644.621 -1.08167 -1.40103 0
M  V30 6645 C 641.75 -2.33117 -2.52014 0
M  V30 6646 C 640.836 -3.5256 -2.35717 0
M  V30 6647 N 641.227 -4.69091 -1.89175 0
M  V30 6648 C 639.525 -3.57647 -2.66467 0
M  V30 6649 C 640.226 -5.51187 -1.85924 0
M  V30 6650 N 639.202 -4.92899 -2.29242 0
M  V30 6651 H 643.004 -2.82264 -0.81879 0
M  V30 6652 H 640.518 -1.58474 -0.354929 0
M  V30 6653 H 642.515 -2.58387 -3.27172 0
M  V30 6654 H 641.175 -1.46898 -2.89571 0
M  V30 6655 H 642.186 -4.92844 -1.59139 0
M  V30 6656 H 638.863 -2.81967 -3.07898 0
M  V30 6657 H 640.253 -6.54613 -1.51431 0
M  V30 6658 N 642.974 0.416227 -1.52004 0
M  V30 6659 C 643.922 1.5272 -1.7544 0
M  V30 6660 C 644.916 1.57596 -0.621289 0
M  V30 6661 O 646.122 1.61087 -0.803172 0
M  V30 6662 H 642.497 0.507772 -0.554682 0
M  V30 6663 H 644.468 1.30136 -2.68528 0
M  V30 6664 C 643.217 2.90165 -1.91571 0
M  V30 6665 H 642.54 2.87154 -2.78178 0
M  V30 6666 H 643.98 3.67211 -2.11972 0
M  V30 6667 C 642.439 3.29947 -0.680942 0
M  V30 6668 O 642.969 4.01403 0.154527 0
M  V30 6669 N 641.175 2.8593 -0.518894 0
M  V30 6670 H 640.722 2.2795 -1.19986 0
M  V30 6671 H 640.68 3.12907 0.305985 0
M  V30 6672 N 644.452 1.42507 0.673017 0
M  V30 6673 C 645.402 1.4258 1.77919 0
M  V30 6674 C 646.386 0.296885 1.58137 0
M  V30 6675 O 647.578 0.539243 1.68586 0
M  V30 6676 C 644.707 1.33238 3.1639 0
M  V30 6677 C 643.793 2.51081 3.41788 0
M  V30 6678 N 644.184 3.76498 3.37761 0
M  V30 6679 C 642.482 2.4538 3.72431 0
M  V30 6680 C 643.183 4.54784 3.62693 0
M  V30 6681 N 642.159 3.8522 3.83544 0
M  V30 6682 H 645.961 2.37442 1.73201 0
M  V30 6683 H 643.475 1.36881 0.873924 0
M  V30 6684 H 645.472 1.31372 3.9566 0
M  V30 6685 H 644.132 0.393794 3.22303 0
M  V30 6686 H 645.143 4.09068 3.17622 0
M  V30 6687 H 641.82 1.60109 3.85579 0
M  V30 6688 H 643.21 5.63774 3.65525 0
M  V30 6689 N 645.93 -0.909495 1.28709 0
M  V30 6690 C 647.16 -1.69027 1.188 0
M  V30 6691 C 647.568 -1.87469 -0.255329 0
M  V30 6692 O 646.911 -1.40458 -1.18394 0
M  V30 6693 C 646.973 -3.10064 1.81936 0
M  V30 6694 C 646.637 -3.14891 3.31199 0
M  V30 6695 C 647.634 -2.95768 4.27571 0
M  V30 6696 C 645.319 -3.37269 3.7223 0
M  V30 6697 C 647.313 -2.98942 5.6295 0
M  V30 6698 C 645 -3.40074 5.07733 0
M  V30 6699 C 645.998 -3.20932 6.02903 0
M  V30 6700 O 645.686 -3.23507 7.35934 0
M  V30 6701 H 645.418 -0.535014 0.413203 0
M  V30 6702 H 647.972 -1.14645 1.70428 0
M  V30 6703 H 646.202 -3.66005 1.24808 0
M  V30 6704 H 647.891 -3.70185 1.66486 0
M  V30 6705 H 648.657 -2.78302 3.97206 0
M  V30 6706 H 644.536 -3.51212 2.98615 0
M  V30 6707 H 648.08 -2.83919 6.37209 0
M  V30 6708 H 643.977 -3.5707 5.37747 0
M  V30 6709 H 644.745 -3.3984 7.44615 0
M  V30 6710 N 647.408 -1.11026 -1.11852 0
M  V30 6711 C 648.636 -0.878818 -1.87308 0
M  V30 6712 C 649.051 0.57111 -1.79955 0
M  V30 6713 O 648.408 1.39409 -1.17777 0
M  V30 6714 C 648.459 -1.3264 -3.36287 0
M  V30 6715 O 648.18 -2.71948 -3.43476 0
M  V30 6716 C 649.681 -1.12974 -4.28663 0
M  V30 6717 H 646.901 -0.315015 -0.592458 0
M  V30 6718 H 649.445 -1.47649 -1.41492 0
M  V30 6719 H 647.6 -0.772269 -3.79625 0
M  V30 6720 H 648.014 -2.91241 -4.3621 0
M  V30 6721 H 649.488 -1.49198 -5.31454 0
M  V30 6722 H 649.965 -0.0689127 -4.39146 0
M  V30 6723 H 650.571 -1.67064 -3.91113 0
M  V30 6724 N 648.886 1.2938 -0.899927 0
M  V30 6725 C 649.818 2.26737 -0.335139 0
M  V30 6726 C 650.831 1.54316 0.518681 0
M  V30 6727 O 652.02 1.75313 0.335803 0
M  V30 6728 C 649.12 3.34558 0.540774 0
M  V30 6729 C 648.293 4.36455 -0.287372 0
M  V30 6730 C 647.352 5.2361 0.52141 0
M  V30 6731 O 646.378 5.69167 -0.0611735 0
M  V30 6732 N 647.58 5.50985 1.82745 0
M  V30 6733 H 650.345 2.75838 -1.17191 0
M  V30 6734 H 647.906 1.42716 -0.764438 0
M  V30 6735 H 649.898 3.89794 1.08825 0
M  V30 6736 H 648.468 2.85272 1.27823 0
M  V30 6737 H 647.688 3.80875 -1.01626 0
M  V30 6738 H 648.976 5.01573 -0.854518 0
M  V30 6739 H 648.374 5.15781 2.32349 0
M  V30 6740 H 646.931 6.09036 2.32204 0
M  V30 6741 N 650.364 0.662433 1.43002 0
M  V30 6742 C 651.311 -0.0235324 2.30788 0
M  V30 6743 C 652.281 -0.805342 1.4527 0
M  V30 6744 O 653.466 -0.78009 1.74124 0
M  V30 6745 C 650.606 -0.977545 3.30965 0
M  V30 6746 C 649.719 -0.190865 4.31578 0
M  V30 6747 C 648.854 -1.13951 5.18834 0
M  V30 6748 C 647.893 -0.343796 6.11134 0
M  V30 6749 N 647.03 -1.2445 6.90982 0
M  V30 6750 H 651.87 0.730921 2.88897 0
M  V30 6751 H 649.407 0.372197 1.42313 0
M  V30 6752 H 651.365 -1.54437 3.87563 0
M  V30 6753 H 649.995 -1.69877 2.74484 0
M  V30 6754 H 649.047 0.492388 3.772 0
M  V30 6755 H 650.359 0.427464 4.96965 0
M  V30 6756 H 649.513 -1.77666 5.80103 0
M  V30 6757 H 648.252 -1.79174 4.53595 0
M  V30 6758 H 647.257 0.30665 5.48944 0
M  V30 6759 H 648.482 0.304161 6.78419 0
M  V30 6760 H 646.428 -1.88336 6.28383 0
M  V30 6761 H 646.345 -0.680959 7.52927 0
M  V30 6762 H 647.613 -1.86952 7.56749 0
M  V30 6763 N 651.842 -1.52309 0.404946 0
M  V30 6764 C 653.067 -2.06666 -0.1743 0
M  V30 6765 C 653.492 -1.27341 -1.38441 0
M  V30 6766 O 652.85 -0.302539 -1.78758 0
M  V30 6767 C 652.898 -3.57014 -0.507262 0
M  V30 6768 O 652.002 -3.80144 -1.59889 0
M  V30 6769 H 651.343 -0.663807 -0.0160273 0
M  V30 6770 H 653.873 -1.96297 0.576937 0
M  V30 6771 H 653.883 -4.00724 -0.767098 0
M  V30 6772 H 652.558 -4.14184 0.377368 0
M  V30 6773 H 651.135 -3.48316 -1.33155 0
M  V30 6774 N 653.32 -0.135238 -1.57019 0
M  V30 6775 C 654.25 0.805235 -2.19176 0
M  V30 6776 C 655.231 1.2656 -1.13651 0
M  V30 6777 O 656.416 1.32528 -1.4195 0
M  V30 6778 C 653.546 2.04914 -2.80406 0
M  V30 6779 C 652.5 1.72598 -3.91655 0
M  V30 6780 C 651.826 3.04154 -4.39766 0
M  V30 6781 C 653.126 0.981709 -5.12991 0
M  V30 6782 H 654.82 0.287232 -2.98019 0
M  V30 6783 H 652.366 0.136714 -1.4335 0
M  V30 6784 H 654.319 2.71178 -3.22553 0
M  V30 6785 H 653.043 2.59067 -1.98877 0
M  V30 6786 H 651.702 1.08717 -3.50109 0
M  V30 6787 H 651.35 3.56274 -3.55075 0
M  V30 6788 H 651.05 2.83299 -5.14796 0
M  V30 6789 H 652.574 3.71509 -4.84576 0
M  V30 6790 H 653.988 1.5462 -5.52056 0
M  V30 6791 H 652.385 0.873533 -5.93708 0
M  V30 6792 H 653.455 -0.0286887 -4.84892 0
M  V30 6793 N 654.798 1.5699 0.138552 0
M  V30 6794 C 656.023 1.88344 0.86841 0
M  V30 6795 C 656.448 0.725159 1.7356 0
M  V30 6796 O 655.806 -0.324992 1.78363 0
M  V30 6797 C 655.854 3.18334 1.69398 0
M  V30 6798 O 654.958 3.02863 2.79907 0
M  V30 6799 H 654.299 0.618577 0.241367 0
M  V30 6800 H 656.829 2.04207 0.126826 0
M  V30 6801 H 656.839 3.50567 2.08726 0
M  V30 6802 H 655.514 4.02238 1.05725 0
M  V30 6803 H 654.091 2.82056 2.43924 0
M  V30 6804 N 656.276 -0.40816 1.52223 0
M  V30 6805 C 657.206 -1.5042 1.78595 0
M  V30 6806 C 658.187 -1.57723 0.636974 0
M  V30 6807 O 659.372 -1.72982 0.882664 0
M  V30 6808 C 656.502 -2.88232 1.93751 0
M  V30 6809 C 655.456 -2.95779 3.09352 0
M  V30 6810 C 654.782 -4.35855 3.09732 0
M  V30 6811 C 656.082 -2.67175 4.48793 0
M  V30 6812 H 657.776 -1.28601 2.70374 0
M  V30 6813 H 655.322 -0.617221 1.30101 0
M  V30 6814 H 657.275 -3.64895 2.10783 0
M  V30 6815 H 655.999 -3.11347 0.986443 0
M  V30 6816 H 654.658 -2.21561 2.92072 0
M  V30 6817 H 654.306 -4.55981 2.12346 0
M  V30 6818 H 654.006 -4.41829 3.87377 0
M  V30 6819 H 655.53 -5.14451 3.28895 0
M  V30 6820 H 656.944 -3.3356 4.66273 0
M  V30 6821 H 655.341 -2.84523 5.28362 0
M  V30 6822 H 656.411 -1.62609 4.56822 0
M  V30 6823 N 657.755 -1.42862 -0.66545 0
M  V30 6824 C 658.98 -1.47456 -1.45848 0
M  V30 6825 C 659.405 -0.0900312 -1.87884 0
M  V30 6826 O 658.763 0.913587 -1.56599 0
M  V30 6827 C 658.811 -2.41514 -2.67774 0
M  V30 6828 O 657.915 -1.89296 -3.66389 0
M  V30 6829 H 657.256 -0.499236 -0.437789 0
M  V30 6830 H 659.786 -1.8765 -0.815394 0
M  V30 6831 H 659.796 -2.58409 -3.15735 0
M  V30 6832 H 658.471 -3.42099 -2.36519 0
M  V30 6833 H 657.048 -1.82003 -3.25468 0
M  V30 6834 N 659.233 0.902656 -1.29189 0
M  V30 6835 C 660.644 1.46809 -1.15343 0
M  V30 6836 C 660.995 1.94568 0.252517 0
M  V30 6837 O 660.12 1.83454 1.14777 0
M  V30 6838 C 660.715 2.66829 -2.08776 0
M  V30 6839 C 659.274 3.19518 -1.98961 0
M  V30 6840 C 658.421 1.92212 -1.99874 0
M  V30 6841 H 661.372 0.714282 -1.41717 0
M  V30 6842 H 661.393 3.42465 -1.65826 0
M  V30 6843 H 660.905 2.32039 -3.11094 0
M  V30 6844 H 659.006 3.59008 -0.99721 0
M  V30 6845 H 659.119 3.84016 -2.86477 0
M  V30 6846 H 657.483 2.0979 -1.44431 0
M  V30 6847 H 658.266 1.59702 -3.03891 0
M  V30 6848 N 660.711 1.11618 1.11262 0
M  V30 6849 C 661.959 0.864469 1.82678 0
M  V30 6850 C 662.28 -0.611564 1.85162 0
M  V30 6851 O 661.55 -1.44429 1.32352 0
M  V30 6852 H 660.13 0.316821 0.676486 0
M  V30 6853 H 662.792 1.40894 1.34666 0
M  V30 6854 H 661.888 1.23832 2.86482 0
M  V30 6855 N 662.189 -1.289 0.906776 0
M  V30 6856 C 663.136 -2.2751 0.388313 0
M  V30 6857 C 664.106 -1.57301 -0.533439 0
M  V30 6858 O 665.291 -1.85243 -0.457148 0
M  V30 6859 C 662.431 -3.43091 -0.37181 0
M  V30 6860 C 661.544 -4.28066 0.581647 0
M  V30 6861 C 660.679 -5.30837 -0.19623 0
M  V30 6862 C 659.718 -6.07472 0.751294 0
M  V30 6863 N 658.855 -7.021 0.00737727 0
M  V30 6864 H 663.695 -2.71237 1.23428 0
M  V30 6865 H 661.232 -1.33397 0.619962 0
M  V30 6866 H 663.19 -4.08888 -0.828641 0
M  V30 6867 H 661.82 -3.00374 -1.18218 0
M  V30 6868 H 660.872 -3.62378 1.157 0
M  V30 6869 H 662.184 -4.81382 1.30665 0
M  V30 6870 H 661.338 -6.02485 -0.71394 0
M  V30 6871 H 660.077 -4.78272 -0.954324 0
M  V30 6872 H 659.082 -5.34682 1.28044 0
M  V30 6873 H 660.307 -6.62126 1.50883 0
M  V30 6874 H 658.253 -6.51894 -0.732854 0
M  V30 6875 H 658.17 -7.53004 0.672334 0
M  V30 6876 H 659.438 -7.77956 -0.490365 0
M  V30 6877 O 663.706 -0.809245 -1.39762 0
M  V30 6878 H 664.397 -0.38643 -1.89806 0
M  V30 END ATOM
M  V30 BEGIN BOND
M  V30 END BOND
M  V30 END CTAB
M  END
$$$$
