drugbank_drug|DB09043  Albiglutide sequence
 OpenBabel12092119123D

  0  0  0     0  0            999 V3000
M  V30 BEGIN CTAB
M  V30 COUNTS 10165 10267 0 0 0
M  V30 BEGIN ATOM
M  V30 1 H -0.908 1.98254 -0.117106 0
M  V30 2 N 0 1.576 0 0
M  V30 3 C 0.95 2.04904 0.999926 0
M  V30 4 C 1.934 0.943764 1.30315 0
M  V30 5 O 3.126 1.20753 1.29413 0
M  V30 6 C 0.255 2.55589 2.29192 0
M  V30 7 C -0.659 3.72993 2.01834 0
M  V30 8 N -0.268 4.8468 1.44635 0
M  V30 9 C -1.97 3.80924 2.31977 0
M  V30 10 C -1.269 5.66115 1.33747 0
M  V30 11 N -2.293 5.12118 1.82308 0
M  V30 12 H 1.509 2.88666 0.55217 0
M  V30 13 H -0.977 1.61092 0.205694 0
M  V30 14 H 1.02 2.87754 3.01668 0
M  V30 15 H -0.32 1.73245 2.7462 0
M  V30 16 H 0.691 5.0553 1.12516 0
M  V30 17 H -2.632 3.09434 2.8028 0
M  V30 18 H -1.242 6.65877 0.897654 0
M  V30 19 N 1.4781 -0.272755 1.55222 0
M  V30 20 C 2.7261 -1.00234 1.75492 0
M  V30 21 C 3.0471 -1.8681 0.5592 0
M  V30 22 O 2.3171 -1.91215 -0.425882 0
M  V30 23 H 0.8971 -0.373076 0.647166 0
M  V30 24 H 3.5591 -0.296926 1.92625 0
M  V30 25 H 2.6551 -1.63913 2.65592 0
M  V30 26 N 2.9562 -1.48159 -0.537278 0
M  V30 27 C 3.8662 -1.64807 -1.6696 0
M  V30 28 C 4.8822 -0.530651 -1.65711 0
M  V30 29 O 6.0582 -0.800784 -1.84796 0
M  V30 30 C 3.1232 -1.67708 -3.03438 0
M  V30 31 C 2.1842 -2.91025 -3.156 0
M  V30 32 C 1.4172 -2.93778 -4.45567 0
M  V30 33 O 1.6402 -2.05153 -5.3223 0
M  V30 34 O 0.5742 -3.85868 -4.61941 0
M  V30 35 H 4.4002 -2.6066 -1.55853 0
M  V30 36 H 1.9852 -1.31475 -0.709549 0
M  V30 37 H 3.8672 -1.7218 -3.84619 0
M  V30 38 H 2.5422 -0.750278 -3.14885 0
M  V30 39 H 1.4492 -2.92089 -2.33741 0
M  V30 40 H 2.7822 -3.83065 -3.09066 0
M  V30 41 N 4.4343 0.785586 -1.36625 0
M  V30 42 C 5.6823 1.54057 -1.30808 0
M  V30 43 C 6.0033 1.94683 0.111157 0
M  V30 44 O 5.2733 1.65241 1.05224 0
M  V30 45 H 3.8533 0.571354 -0.481211 0
M  V30 46 H 6.5153 0.935821 -1.70963 0
M  V30 47 H 5.6113 2.44637 -1.93801 0
M  V30 48 N 5.9124 1.20967 1.01018 0
M  V30 49 C 7.1404 1.04956 1.78303 0
M  V30 50 C 7.5554 -0.400915 1.84494 0
M  V30 51 O 6.9124 -1.27826 1.30257 0
M  V30 52 C 6.9634 1.63403 3.22462 0
M  V30 53 O 6.6844 3.02775 3.16637 0
M  V30 54 C 8.1854 1.52432 4.16268 0
M  V30 55 H 5.4054 0.368858 0.560522 0
M  V30 56 H 7.9494 1.60193 1.27116 0
M  V30 57 H 6.1044 1.1227 3.70775 0
M  V30 58 H 6.5184 3.30626 4.07169 0
M  V30 59 H 7.9924 1.98078 5.15237 0
M  V30 60 H 8.4694 0.477875 4.36592 0
M  V30 61 H 9.0754 2.02787 3.73841 0
M  V30 62 N 7.3905 -1.2043 1.01659 0
M  V30 63 C 8.6375 -1.89797 0.705917 0
M  V30 64 C 8.9655 -1.78848 -0.764439 0
M  V30 65 O 8.2205 -1.16694 -1.57102 0
M  V30 66 C 8.5195 -3.40464 1.08714 0
M  V30 67 C 8.1855 -3.71614 2.5537 0
M  V30 68 C 6.8475 -3.79826 2.95441 0
M  V30 69 C 9.1995 -3.85915 3.50313 0
M  V30 70 C 6.5275 -3.99797 4.29394 0
M  V30 71 C 8.8795 -4.07396 4.83954 0
M  V30 72 C 7.5435 -4.13837 5.23732 0
M  V30 73 H 6.8135 -0.694518 0.258313 0
M  V30 74 H 9.4605 -1.42691 1.27717 0
M  V30 75 H 7.7655 -3.89385 0.434309 0
M  V30 76 H 9.4625 -3.92433 0.824461 0
M  V30 77 H 6.0525 -3.65822 2.23321 0
M  V30 78 H 10.2365 -3.78926 3.20513 0
M  V30 79 H 5.4925 -4.03018 4.59768 0
M  V30 80 H 9.6665 -4.17404 5.57447 0
M  V30 81 H 7.2935 -4.29064 6.27541 0
M  V30 82 N 8.8686 -0.792821 -1.36206 0
M  V30 83 C 10.0966 -0.378825 -2.03402 0
M  V30 84 C 10.5116 1.00586 -1.59774 0
M  V30 85 O 9.8686 1.64574 -0.788764 0
M  V30 86 C 9.9196 -0.43683 -3.58851 0
M  V30 87 O 9.6406 -1.76691 -4.00889 0
M  V30 88 C 11.1416 -0.0138943 -4.43298 0
M  V30 89 H 8.3616 -0.155673 -0.652692 0
M  V30 90 H 10.9056 -1.07261 -1.74113 0
M  V30 91 H 9.0606 0.208575 -3.86838 0
M  V30 92 H 9.4746 -1.72011 -4.95492 0
M  V30 93 H 10.9486 -0.105615 -5.51899 0
M  V30 94 H 11.4256 1.03915 -4.2673 0
M  V30 95 H 12.0316 -0.63192 -4.20579 0
M  V30 96 N 10.3467 1.47872 -0.545128 0
M  V30 97 C 11.5717 2.07391 -0.0190611 0
M  V30 98 C 11.9967 1.39688 1.25971 0
M  V30 99 O 11.3547 0.467816 1.7516 0
M  V30 100 C 11.4027 3.60188 0.172335 0
M  V30 101 O 10.5067 3.9339 1.23766 0
M  V30 102 H 9.8477 0.662411 -0.0459059 0
M  V30 103 H 12.3777 1.90066 -0.757365 0
M  V30 104 H 12.3877 4.06129 0.390305 0
M  V30 105 H 11.0627 4.08865 -0.761725 0
M  V30 106 H 9.6397 3.5921 1.00114 0
M  V30 107 N 11.8248 0.280983 1.55075 0
M  V30 108 C 13.1018 -0.386207 1.91749 0
M  V30 109 C 13.4818 -1.73264 1.20594 0
M  V30 110 O 12.8298 -2.26034 0.334784 0
M  V30 111 C 13.0398 -0.520687 3.45094 0
M  V30 112 C 14.3878 -0.800865 4.16979 0
M  V30 113 O 15.4118 -0.605271 3.5102 0
M  V30 114 O 14.2708 -1.1753 5.33712 0
M  V30 115 H 11.3648 -0.212408 0.799257 0
M  V30 116 H 13.9108 0.327568 1.66509 0
M  V30 117 H 12.6828 0.426633 3.88967 0
M  V30 118 H 12.3058 -1.2837 3.76307 0
M  V30 119 N 13.3029 -1.57598 0.00835791 0
M  V30 120 C 14.5489 -1.91211 -0.675732 0
M  V30 121 C 14.8819 -0.883139 -1.72958 0
M  V30 122 O 14.1569 0.097016 -1.94258 0
M  V30 123 C 14.4399 -3.35379 -1.31123 0
M  V30 124 C 14.2929 -4.48999 -0.268356 0
M  V30 125 C 15.6119 -3.7912 -2.23508 0
M  V30 126 H 12.7309 -0.695374 -0.244179 0
M  V30 127 H 15.3729 -1.89901 0.0613655 0
M  V30 128 H 13.5229 -3.36626 -1.93946 0
M  V30 129 H 15.1949 -4.59887 0.360844 0
M  V30 130 H 13.4379 -4.31873 0.408482 0
M  V30 131 H 14.1089 -5.46851 -0.752218 0
M  V30 132 H 16.5849 -3.79477 -1.70693 0
M  V30 133 H 15.4609 -4.80729 -2.64936 0
M  V30 134 H 15.7219 -3.13455 -3.11766 0
M  V30 135 N 14.781 0.264519 -1.55364 0
M  V30 136 C 16.006 1.01726 -1.80739 0
M  V30 137 C 16.431 1.78836 -0.583044 0
M  V30 138 O 15.789 1.75167 0.467566 0
M  V30 139 C 15.837 1.94482 -3.03659 0
M  V30 140 O 14.941 3.03386 -2.7934 0
M  V30 141 H 14.282 0.290395 -0.597132 0
M  V30 142 H 16.812 0.290854 -2.02522 0
M  V30 143 H 16.822 2.36278 -3.32621 0
M  V30 144 H 15.497 1.37772 -3.92418 0
M  V30 145 H 14.074 2.65844 -2.61498 0
M  V30 146 N 16.2591 1.48442 0.529413 0
M  V30 147 C 17.4841 1.60406 1.31471 0
M  V30 148 C 17.9091 0.264738 1.86228 0
M  V30 149 O 17.2671 -0.763668 1.64432 0
M  V30 150 C 17.3151 2.65419 2.44101 0
M  V30 151 O 16.4191 2.22618 3.47153 0
M  V30 152 H 15.7601 0.537863 0.389357 0
M  V30 153 H 18.2901 1.94432 0.636965 0
M  V30 154 H 18.3001 2.86709 2.90279 0
M  V30 155 H 16.9751 3.62652 2.03608 0
M  V30 156 H 15.5521 2.11543 3.0709 0
M  V30 157 N 17.7372 -0.778329 1.37039 0
M  V30 158 C 18.9672 -1.56507 1.34868 0
M  V30 159 C 19.3752 -1.89072 -0.0694802 0
M  V30 160 O 18.7182 -1.51434 -1.03987 0
M  V30 161 C 18.7802 -2.90641 2.11585 0
M  V30 162 C 18.4442 -2.80746 3.60598 0
M  V30 163 C 19.4412 -2.52226 4.54618 0
M  V30 164 C 17.1262 -2.98974 4.03633 0
M  V30 165 C 19.1202 -2.42054 5.89651 0
M  V30 166 C 16.8072 -2.88423 5.38754 0
M  V30 167 C 17.8052 -2.60002 6.31576 0
M  V30 168 O 17.4932 -2.49465 7.64214 0
M  V30 169 H 17.2252 -0.491723 0.463879 0
M  V30 170 H 19.7792 -0.973053 1.80889 0
M  V30 171 H 18.0092 -3.51936 1.60243 0
M  V30 172 H 19.6982 -3.51992 2.0213 0
M  V30 173 H 20.4642 -2.37835 4.22681 0
M  V30 174 H 16.3432 -3.20099 3.31749 0
M  V30 175 H 19.8872 -2.19791 6.62071 0
M  V30 176 H 15.7842 -3.0238 5.70295 0
M  V30 177 H 16.5522 -2.64864 7.74461 0
M  V30 178 N 19.2153 -1.21501 -1.00376 0
M  V30 179 C 20.1453 -0.999478 -2.11028 0
M  V30 180 C 21.1263 0.0759671 -1.6993 0
M  V30 181 O 22.3113 -0.0841106 -1.94018 0
M  V30 182 C 19.4413 -0.564709 -3.42678 0
M  V30 183 C 18.3953 -1.58486 -3.97576 0
M  V30 184 C 17.7213 -1.00628 -5.25146 0
M  V30 185 C 19.0213 -2.97204 -4.29496 0
M  V30 186 H 20.7153 -1.92495 -2.29317 0
M  V30 187 H 18.2613 -0.92693 -1.102 0
M  V30 188 H 20.2143 -0.401091 -4.19487 0
M  V30 189 H 18.9383 0.396411 -3.24185 0
M  V30 190 H 17.5973 -1.73606 -3.22888 0
M  V30 191 H 17.2453 -0.0368439 -5.02987 0
M  V30 192 H 16.9453 -1.68771 -5.62841 0
M  V30 193 H 18.4693 -0.854015 -6.04598 0
M  V30 194 H 19.8833 -2.8552 -4.97143 0
M  V30 195 H 18.2803 -3.62372 -4.78338 0
M  V30 196 H 19.3503 -3.47956 -3.3772 0
M  V30 197 N 20.6934 1.19889 -1.02296 0
M  V30 198 C 21.6034 2.26571 -0.608508 0
M  V30 199 C 22.6194 1.70299 0.356964 0
M  V30 200 O 23.7954 2.00235 0.216326 0
M  V30 201 C 20.8604 3.46677 0.0402814 0
M  V30 202 C 19.9214 4.18153 -0.97194 0
M  V30 203 C 19.1544 5.32525 -0.354016 0
M  V30 204 O 19.3774 5.64112 0.844604 0
M  V30 205 O 18.3114 5.92242 -1.07391 0
M  V30 206 H 22.1374 2.64251 -1.49684 0
M  V30 207 H 19.7224 1.26629 -0.792809 0
M  V30 208 H 21.6044 4.19475 0.402324 0
M  V30 209 H 20.2794 3.10858 0.902707 0
M  V30 210 H 19.1864 3.47499 -1.38546 0
M  V30 211 H 20.5194 4.57927 -1.80454 0
M  V30 212 N 22.1715 0.800033 1.35784 0
M  V30 213 C 23.4195 0.376597 1.9856 0
M  V30 214 C 23.7405 -1.05812 1.63795 0
M  V30 215 O 23.0105 -1.73103 0.917171 0
M  V30 216 H 21.5905 0.136261 0.734467 0
M  V30 217 H 24.2525 1.02442 1.65806 0
M  V30 218 H 23.3485 0.477002 3.08433 0
M  V30 219 N 23.6496 -1.47581 0.552962 0
M  V30 220 C 24.5816 -2.27997 -0.234533 0
M  V30 221 C 25.5946 -1.36753 -0.883321 0
M  V30 222 O 26.7836 -1.61612 -0.757889 0
M  V30 223 C 23.8836 -3.10879 -1.34935 0
M  V30 224 C 23.0566 -4.30056 -0.798158 0
M  V30 225 C 22.1156 -4.94567 -1.79694 0
M  V30 226 O 21.1416 -5.53087 -1.34474 0
M  V30 227 N 22.3436 -4.88878 -3.13015 0
M  V30 228 H 25.1086 -2.96222 0.455255 0
M  V30 229 H 22.6696 -1.57163 0.388761 0
M  V30 230 H 24.6616 -3.50903 -2.01616 0
M  V30 231 H 23.2316 -2.44924 -1.94244 0
M  V30 232 H 22.4516 -3.94174 0.0453079 0
M  V30 233 H 23.7396 -5.07152 -0.409173 0
M  V30 234 H 23.1376 -4.42526 -3.52402 0
M  V30 235 H 21.6946 -5.32934 -3.75266 0
M  V30 236 N 25.1277 -0.289203 -1.54924 0
M  V30 237 C 26.0907 0.579144 -2.21762 0
M  V30 238 C 27.0907 1.07047 -1.1999 0
M  V30 239 O 28.2807 0.968384 -1.44803 0
M  V30 240 C 25.4127 1.80055 -2.8947 0
M  V30 241 H 26.6057 -0.00464908 -2.999 0
M  V30 242 H 24.1587 -0.0399306 -1.56249 0
M  V30 243 H 24.8937 2.42449 -2.15381 0
M  V30 244 H 24.6787 1.45602 -3.64064 0
M  V30 245 H 26.1687 2.41773 -3.40493 0
M  V30 246 N 26.6058 1.57591 -0.0167156 0
M  V30 247 C 27.5688 2.08393 0.954204 0
M  V30 248 C 28.5688 0.996531 1.26198 0
M  V30 249 O 29.7588 1.25858 1.20438 0
M  V30 250 C 26.8908 2.5394 2.27436 0
M  V30 251 H 28.0838 2.95455 0.514451 0
M  V30 252 H 25.6368 1.54582 0.231089 0
M  V30 253 H 26.3718 1.70171 2.76066 0
M  V30 254 H 26.1568 3.33371 2.06412 0
M  V30 255 H 27.6468 2.93512 2.97053 0
M  V30 256 N 28.0839 -0.256276 1.55502 0
M  V30 257 C 29.0309 -1.31714 1.89526 0
M  V30 258 C 30.0009 -1.4828 0.748479 0
M  V30 259 O 31.1859 -1.62416 1.00128 0
M  V30 260 C 28.3259 -2.66933 2.18725 0
M  V30 261 C 27.4389 -2.58452 3.4616 0
M  V30 262 C 26.5739 -3.85961 3.64976 0
M  V30 263 C 25.6129 -3.72059 4.86044 0
M  V30 264 N 24.7499 -4.9144 5.01429 0
M  V30 265 H 29.5899 -1.01998 2.80001 0
M  V30 266 H 27.1269 -0.492413 1.38613 0
M  V30 267 H 29.0849 -3.4563 2.33657 0
M  V30 268 H 27.7149 -2.94816 1.31466 0
M  V30 269 H 26.7669 -1.71374 3.3961 0
M  V30 270 H 28.0789 -2.44085 4.34999 0
M  V30 271 H 27.2329 -4.73101 3.79816 0
M  V30 272 H 25.9719 -4.03215 2.74353 0
M  V30 273 H 24.9769 -2.83302 4.7119 0
M  V30 274 H 26.2019 -3.56309 5.78118 0
M  V30 275 H 24.1479 -5.09072 4.13741 0
M  V30 276 H 24.0649 -4.79668 5.84341 0
M  V30 277 H 25.3329 -5.80104 5.20672 0
M  V30 278 N 29.562 -1.4872 -0.521534 0
M  V30 279 C 30.472 -1.66569 -1.65203 0
M  V30 280 C 31.488 -0.548197 -1.65139 0
M  V30 281 O 32.664 -0.820339 -1.83936 0
M  V30 282 C 29.729 -1.70917 -3.01642 0
M  V30 283 C 28.79 -2.94356 -3.12495 0
M  V30 284 C 28.023 -2.98487 -4.42426 0
M  V30 285 O 28.246 -2.10786 -5.30024 0
M  V30 286 O 27.18 -3.90746 -4.57822 0
M  V30 287 H 31.006 -2.62298 -1.5308 0
M  V30 288 H 28.591 -1.3222 -0.695565 0
M  V30 289 H 30.473 -1.7625 -3.82771 0
M  V30 290 H 29.148 -0.783633 -3.14071 0
M  V30 291 H 28.055 -2.94552 -2.3063 0
M  V30 292 H 29.388 -3.86322 -3.04986 0
M  V30 293 N 31.0401 0.771051 -1.3745 0
M  V30 294 C 32.2871 1.52963 -1.32697 0
M  V30 295 C 32.6151 1.94299 0.0883274 0
M  V30 296 O 31.8701 1.64397 1.0617 0
M  V30 297 C 32.1691 2.80676 -2.2126 0
M  V30 298 C 31.8351 2.58389 -3.69521 0
M  V30 299 C 30.4971 2.52019 -4.09927 0
M  V30 300 C 32.8491 2.38469 -4.63446 0
M  V30 301 C 30.1771 2.23721 -5.42371 0
M  V30 302 C 32.5291 2.11694 -5.96128 0
M  V30 303 C 31.1931 2.03769 -6.35637 0
M  V30 304 H 30.4631 0.559732 -0.485573 0
M  V30 305 H 33.1101 0.888083 -1.69662 0
M  V30 306 H 31.4151 3.49392 -1.77291 0
M  V30 307 H 33.1121 3.38557 -2.14895 0
M  V30 308 H 29.7021 2.6421 -3.37478 0
M  V30 309 H 33.8861 2.4238 -4.33089 0
M  V30 310 H 29.1421 2.16081 -5.71943 0
M  V30 311 H 33.3161 1.9528 -6.6846 0
M  V30 312 H 30.9431 1.81606 -7.38189 0
M  V30 313 N 32.5182 1.22032 0.997298 0
M  V30 314 C 33.7672 1.03637 1.73038 0
M  V30 315 C 34.0802 -0.429475 1.90827 0
M  V30 316 O 35.2862 -0.732995 2.61418 0
M  V30 317 C 33.7422 1.80582 3.11317 0
M  V30 318 C 33.3502 3.31387 3.01474 0
M  V30 319 C 35.0942 1.70621 3.88701 0
M  V30 320 C 33.0012 4.00791 4.3488 0
M  V30 321 H 31.9312 0.384179 0.648785 0
M  V30 322 H 34.5822 1.4584 1.11368 0
M  V30 323 H 32.9642 1.31175 3.73643 0
M  V30 324 H 34.1382 3.88155 2.4834 0
M  V30 325 H 32.4532 3.41976 2.37575 0
M  V30 326 H 35.0502 2.19799 4.87434 0
M  V30 327 H 35.3932 0.665823 4.10941 0
M  V30 328 H 35.9262 2.17547 3.33044 0
M  V30 329 H 32.6652 5.05064 4.1784 0
M  V30 330 H 32.1852 3.48811 4.87945 0
M  V30 331 H 33.8642 4.06139 5.03647 0
M  V30 332 N 33.9963 -1.19345 1.0293 0
M  V30 333 C 34.9593 -2.20793 0.615069 0
M  V30 334 C 35.9593 -1.57553 -0.321533 0
M  V30 335 O 37.1493 -1.73862 -0.108483 0
M  V30 336 C 34.2813 -3.40754 -0.0999222 0
M  V30 337 H 35.4743 -2.58955 1.51269 0
M  V30 338 H 33.0273 -1.3303 0.820534 0
M  V30 339 H 33.7623 -3.0811 -1.01187 0
M  V30 340 H 33.5473 -3.87889 0.57309 0
M  V30 341 H 35.0373 -4.15898 -0.376645 0
M  V30 342 N 35.4744 -0.807222 -1.35358 0
M  V30 343 C 36.7204 -0.397594 -1.99476 0
M  V30 344 C 37.0754 1.02405 -1.62883 0
M  V30 345 O 36.3684 1.70077 -0.882282 0
M  V30 346 C 36.5624 -0.519036 -3.53611 0
M  V30 347 C 36.3914 -1.95094 -4.05177 0
M  V30 348 C 35.1614 -2.57945 -4.34503 0
M  V30 349 C 37.3594 -2.91558 -4.23673 0
M  V30 350 N 35.3414 -3.92539 -4.72003 0
M  V30 351 C 36.7124 -4.11024 -4.64176 0
M  V30 352 C 38.7674 -2.88381 -4.05883 0
M  V30 353 C 37.4704 -5.27745 -4.88751 0
M  V30 354 C 39.4964 -4.04306 -4.31614 0
M  V30 355 C 38.8584 -5.22519 -4.72391 0
M  V30 356 H 34.9574 -0.193274 -0.75774 0
M  V30 357 H 37.5414 -1.0486 -1.6405 0
M  V30 358 H 35.7124 0.101979 -3.88266 0
M  V30 359 H 37.4444 -0.0839321 -4.04613 0
M  V30 360 H 34.1994 -2.09295 -4.24844 0
M  V30 361 H 34.6234 -4.61836 -4.95011 0
M  V30 362 H 39.2654 -1.98137 -3.73499 0
M  V30 363 H 36.9834 -6.1856 -5.20008 0
M  V30 364 H 40.5694 -4.03229 -4.19402 0
M  V30 365 H 39.4494 -6.1073 -4.91913 0
M  V30 366 N 36.9525 1.47285 -0.560781 0
M  V30 367 C 37.8825 2.32857 0.173105 0
M  V30 368 C 38.8635 1.44009 0.905281 0
M  V30 369 O 40.0485 1.7286 0.885046 0
M  V30 370 C 37.1785 3.25861 1.20133 0
M  V30 371 C 36.1325 4.23978 0.585388 0
M  V30 372 C 35.4585 5.06332 1.7185 0
M  V30 373 C 36.7585 5.20242 -0.463178 0
M  V30 374 H 38.4525 2.94466 -0.541307 0
M  V30 375 H 35.9985 1.41601 -0.261764 0
M  V30 376 H 37.9515 3.84569 1.72293 0
M  V30 377 H 36.6755 2.62315 1.94573 0
M  V30 378 H 35.3345 3.66501 0.085054 0
M  V30 379 H 34.9825 4.39186 2.45203 0
M  V30 380 H 34.6825 5.72762 1.31213 0
M  V30 381 H 36.2065 5.67899 2.24329 0
M  V30 382 H 37.6205 5.73293 -0.027502 0
M  V30 383 H 36.0175 5.94896 -0.788627 0
M  V30 384 H 37.0875 4.65504 -1.35773 0
M  V30 385 N 38.4306 0.297415 1.54768 0
M  V30 386 C 39.6766 -0.313376 2.00364 0
M  V30 387 C 40.0096 -1.53815 1.18553 0
M  V30 388 O 39.2846 -1.92739 0.261103 0
M  V30 389 C 39.5676 -0.673525 3.53745 0
M  V30 390 C 39.4206 0.560133 4.46299 0
M  V30 391 C 40.7396 -1.50143 4.13697 0
M  V30 392 H 37.8586 -0.112428 0.728374 0
M  V30 393 H 40.5006 0.4088 1.8555 0
M  V30 394 H 38.6506 -1.28881 3.665 0
M  V30 395 H 40.3226 1.19863 4.45455 0
M  V30 396 H 38.5656 1.19405 4.17043 0
M  V30 397 H 39.2366 0.26405 5.51368 0
M  V30 398 H 41.7126 -0.981588 4.04356 0
M  V30 399 H 40.5886 -1.72221 5.21182 0
M  V30 400 H 40.8496 -2.48952 3.65343 0
M  V30 401 N 39.9087 -1.5758 0.0250728 0
M  V30 402 C 40.8557 -2.09973 -0.958129 0
M  V30 403 C 41.8257 -1.00085 -1.3256 0
M  V30 404 O 43.0107 -1.27481 -1.41962 0
M  V30 405 C 40.1507 -2.62812 -2.2366 0
M  V30 406 C 39.2637 -3.86693 -1.92594 0
M  V30 407 C 38.3987 -4.27941 -3.14707 0
M  V30 408 C 37.4377 -5.44591 -2.79442 0
M  V30 409 N 36.5747 -5.81014 -3.94167 0
M  V30 410 H 41.4147 -2.937 -0.504428 0
M  V30 411 H 38.9517 -1.45172 -0.237392 0
M  V30 412 H 40.9097 -2.91536 -2.98434 0
M  V30 413 H 39.5397 -1.81922 -2.66654 0
M  V30 414 H 38.5917 -3.64723 -1.0808 0
M  V30 415 H 39.9037 -4.71547 -1.62619 0
M  V30 416 H 39.0577 -4.58079 -3.97804 0
M  V30 417 H 37.7967 -3.41845 -3.4784 0
M  V30 418 H 36.8017 -5.1415 -1.94755 0
M  V30 419 H 38.0267 -6.32382 -2.47528 0
M  V30 420 H 35.9727 -4.97874 -4.2715 0
M  V30 421 H 35.8897 -6.60498 -3.67801 0
M  V30 422 H 37.1577 -6.15756 -4.7798 0
M  V30 423 N 41.3868 0.248026 -1.55636 0
M  V30 424 C 42.6348 0.974295 -1.77065 0
M  V30 425 C 42.9558 1.85897 -0.588849 0
M  V30 426 O 42.2258 1.91868 0.395407 0
M  V30 427 H 40.8058 0.362733 -0.653019 0
M  V30 428 H 43.4678 0.266244 -1.93073 0
M  V30 429 H 42.5638 1.59667 -2.68166 0
M  V30 430 N 42.8649 1.48995 0.513639 0
M  V30 431 C 44.2809 1.35478 0.843682 0
M  V30 432 C 44.4809 0.378213 1.97919 0
M  V30 433 O 43.5369 -0.194689 2.51748 0
M  V30 434 C 44.8499 2.75901 1.1958 0
M  V30 435 C 46.3979 2.84509 1.30474 0
M  V30 436 C 46.8729 4.25671 1.69021 0
M  V30 437 N 48.3639 4.28422 1.76094 0
M  V30 438 C 49.0989 5.34601 2.07338 0
M  V30 439 N 48.5949 6.5104 2.36894 0
M  V30 440 N 50.3879 5.22007 2.08483 0
M  V30 441 H 42.5389 2.11092 -0.235328 0
M  V30 442 H 44.8019 0.947039 -0.0426669 0
M  V30 443 H 44.5079 3.49001 0.434913 0
M  V30 444 H 44.3819 3.10467 2.1422 0
M  V30 445 H 46.7689 2.11655 2.05637 0
M  V30 446 H 46.8499 2.53542 0.339155 0
M  V30 447 H 46.4939 4.99048 0.944135 0
M  V30 448 H 46.4239 4.54094 2.66658 0
M  V30 449 H 48.9149 3.44441 1.55464 0
M  V30 450 H 49.2279 7.2779 2.59887 0
M  V30 451 H 47.5729 6.54287 2.34378 0
M  V30 452 H 50.7639 4.30051 1.84861 0
M  V30 453 H 50.9369 6.04854 2.325 0
M  V30 454 N 44.343 -0.763751 1.37857 0
M  V30 455 C 45.293 -1.86765 1.30777 0
M  V30 456 C 46.277 -1.59726 0.194015 0
M  V30 457 O 47.469 -1.7172 0.42911 0
M  V30 458 C 44.598 -3.24343 1.12502 0
M  V30 459 C 43.684 -3.57307 2.28456 0
M  V30 460 N 44.075 -3.61398 3.53871 0
M  V30 461 C 42.373 -3.87517 2.20786 0
M  V30 462 C 43.074 -3.91339 4.30382 0
M  V30 463 N 42.05 -4.07649 3.59615 0
M  V30 464 H 45.852 -1.88191 2.25746 0
M  V30 465 H 43.366 -0.9606 1.30944 0
M  V30 466 H 45.363 -4.03327 1.05514 0
M  V30 467 H 44.023 -3.24175 0.184574 0
M  V30 468 H 45.034 -3.43407 3.87675 0
M  V30 469 H 41.711 -3.95125 1.34844 0
M  V30 470 H 43.101 -4.01213 5.3896 0
M  V30 471 N 45.8211 -1.22559 -0.990812 0
M  V30 472 C 47.0691 -1.04933 -1.72724 0
M  V30 473 C 47.3901 0.416158 -1.90508 0
M  V30 474 O 46.6601 1.29918 -1.46622 0
M  V30 475 H 45.2401 -0.385296 -0.639965 0
M  V30 476 H 47.9021 -1.54105 -1.19322 0
M  V30 477 H 46.9981 -1.52886 -2.72089 0
M  V30 478 N 47.2992 1.18797 -1.03562 0
M  V30 479 C 48.2092 2.25913 -0.632505 0
M  V30 480 C 49.2252 1.70668 0.338882 0
M  V30 481 O 50.4012 2.00453 0.195076 0
M  V30 482 C 47.4662 3.467 0.00350942 0
M  V30 483 C 46.5272 4.17098 -1.01624 0
M  V30 484 C 45.7602 5.32119 -0.410478 0
M  V30 485 O 45.9832 5.64976 0.784725 0
M  V30 486 O 44.9172 5.9107 -1.13667 0
M  V30 487 H 48.7432 2.62648 -1.52478 0
M  V30 488 H 46.3282 1.25781 -0.806195 0
M  V30 489 H 48.2102 4.19878 0.35781 0
M  V30 490 H 46.8852 3.11798 0.869686 0
M  V30 491 H 45.7922 3.4601 -1.42224 0
M  V30 492 H 47.1252 4.55987 -1.85301 0
M  V30 493 N 48.7773 0.814389 1.34928 0
M  V30 494 C 50.0253 0.397636 1.9815 0
M  V30 495 C 50.3463 -1.04069 1.64908 0
M  V30 496 O 49.6163 -1.72121 0.93548 0
M  V30 497 H 48.1963 0.144043 0.732981 0
M  V30 498 H 50.8583 1.04195 1.6471 0
M  V30 499 H 49.9543 0.509688 3.0791 0
M  V30 500 N 50.2554 -1.46986 0.568584 0
M  V30 501 C 51.4834 -2.0683 0.0539956 0
M  V30 502 C 51.8984 -1.41953 -1.24478 0
M  V30 503 O 51.2554 -0.519933 -1.74937 0
M  V30 504 C 51.3064 -3.61254 -0.133362 0
M  V30 505 O 51.0274 -4.237 1.11399 0
M  V30 506 C 52.5284 -4.37992 -0.683927 0
M  V30 507 H 49.7484 -0.669058 0.0510141 0
M  V30 508 H 52.2924 -1.88824 0.785234 0
M  V30 509 H 50.4474 -3.78735 -0.81477 0
M  V30 510 H 50.8614 -5.16388 0.91888 0
M  V30 511 H 52.3354 -5.46684 -0.764263 0
M  V30 512 H 52.8124 -4.05058 -1.69778 0
M  V30 513 H 53.4184 -4.25283 -0.0378494 0
M  V30 514 N 51.7335 -0.305618 -1.54608 0
M  V30 515 C 52.9805 0.302298 -2.00231 0
M  V30 516 C 53.3085 1.5354 -1.19398 0
M  V30 517 O 52.5635 1.93973 -0.259423 0
M  V30 518 C 52.8625 0.698983 -3.50498 0
M  V30 519 C 52.5285 -0.432903 -4.48817 0
M  V30 520 C 51.1905 -0.743622 -4.75419 0
M  V30 521 C 53.5425 -1.19409 -5.07337 0
M  V30 522 C 50.8705 -1.81857 -5.57804 0
M  V30 523 C 53.2225 -2.25899 -5.90891 0
M  V30 524 C 51.8865 -2.57572 -6.15803 0
M  V30 525 H 51.1565 0.110619 -0.732697 0
M  V30 526 H 53.8035 -0.425674 -1.86709 0
M  V30 527 H 52.1085 1.50711 -3.61654 0
M  V30 528 H 53.8055 1.1806 -3.83227 0
M  V30 529 H 50.3955 -0.18063 -4.28219 0
M  V30 530 H 54.5795 -0.967295 -4.86782 0
M  V30 531 H 49.8355 -2.06864 -5.75341 0
M  V30 532 H 54.0095 -2.85335 -6.35261 0
M  V30 533 H 51.6365 -3.40998 -6.7943 0
M  V30 534 N 53.2116 1.57565 -0.0334293 0
M  V30 535 C 54.4396 1.9628 0.654347 0
M  V30 536 C 54.8546 0.910138 1.65414 0
M  V30 537 O 54.2116 -0.107595 1.82183 0
M  V30 538 C 54.2626 3.35067 1.35693 0
M  V30 539 O 53.9836 4.36296 0.397191 0
M  V30 540 C 55.4846 3.88439 2.13613 0
M  V30 541 H 52.7046 0.646369 0.180132 0
M  V30 542 H 55.2486 2.04282 -0.0944721 0
M  V30 543 H 53.4036 3.2827 2.05712 0
M  V30 544 H 53.8176 5.1678 0.896597 0
M  V30 545 H 55.2916 4.8788 2.58219 0
M  V30 546 H 55.7686 3.22914 2.97696 0
M  V30 547 H 56.3746 3.98516 1.48543 0
M  V30 548 N 54.6897 -0.239769 1.55765 0
M  V30 549 C 55.9147 -0.988373 1.82335 0
M  V30 550 C 56.3397 -1.77886 0.611421 0
M  V30 551 O 55.6977 -1.75889 -0.439639 0
M  V30 552 C 55.7457 -1.89627 3.06715 0
M  V30 553 O 54.8497 -2.98904 2.84131 0
M  V30 554 H 54.1907 -0.280858 0.601677 0
M  V30 555 H 56.7207 -0.258597 2.02959 0
M  V30 556 H 56.7307 -2.30957 3.36338 0
M  V30 557 H 55.4057 -1.31511 3.9456 0
M  V30 558 H 53.9827 -2.61651 2.65694 0
M  V30 559 N 56.1678 -1.49265 -0.50573 0
M  V30 560 C 57.4448 -1.49012 -1.26707 0
M  V30 561 C 57.8248 -0.215205 -2.1 0
M  V30 562 O 57.1728 0.802547 -2.13943 0
M  V30 563 C 57.3828 -2.7663 -2.12783 0
M  V30 564 C 58.7308 -3.25932 -2.72127 0
M  V30 565 O 59.7548 -2.77715 -2.23054 0
M  V30 566 O 58.6138 -4.09897 -3.61451 0
M  V30 567 H 55.7078 -0.596197 -0.57313 0
M  V30 568 H 58.2538 -1.61524 -0.52039 0
M  V30 569 H 57.0258 -3.60916 -1.5118 0
M  V30 570 H 56.6488 -2.66956 -2.94653 0
M  V30 571 N 57.6459 0.756429 -1.3826 0
M  V30 572 C 58.8919 1.51772 -1.34511 0
M  V30 573 C 59.2249 1.94089 0.0656691 0
M  V30 574 O 58.4999 1.65221 1.02626 0
M  V30 575 C 58.7829 2.77226 -2.29821 0
M  V30 576 C 58.6359 2.41065 -3.79747 0
M  V30 577 C 59.9549 3.79236 -2.23312 0
M  V30 578 H 57.0739 0.550578 -0.489931 0
M  V30 579 H 59.7159 0.866607 -1.69086 0
M  V30 580 H 57.8659 3.32784 -2.00467 0
M  V30 581 H 59.5379 1.91303 -4.19763 0
M  V30 582 H 57.7809 1.7356 -3.97567 0
M  V30 583 H 58.4519 3.3081 -4.41892 0
M  V30 584 H 60.9279 3.3321 -2.49219 0
M  V30 585 H 59.8039 4.64714 -2.92116 0
M  V30 586 H 60.0649 4.24615 -1.23102 0
M  V30 587 N 59.124 1.23083 0.984299 0
M  V30 588 C 60.349 1.088 1.76571 0
M  V30 589 C 60.774 -0.356657 1.84688 0
M  V30 590 O 60.132 -1.25788 1.30565 0
M  V30 591 C 60.18 1.71371 3.17277 0
M  V30 592 O 59.284 0.973213 4.00752 0
M  V30 593 H 58.625 0.381599 0.543395 0
M  V30 594 H 61.155 1.63057 1.23587 0
M  V30 595 H 61.165 1.76449 3.67872 0
M  V30 596 H 59.84 2.76493 3.10684 0
M  V30 597 H 58.417 0.999078 3.59267 0
M  V30 598 N 60.6021 -1.18246 1.0419 0
M  V30 599 C 61.8271 -1.92736 0.765996 0
M  V30 600 C 62.2521 -1.75728 -0.67091 0
M  V30 601 O 61.6101 -1.06825 -1.46486 0
M  V30 602 C 61.6581 -3.42148 1.13875 0
M  V30 603 O 60.7621 -4.11548 0.264954 0
M  V30 604 H 60.1031 -0.601238 0.281797 0
M  V30 605 H 62.6331 -1.49942 1.39207 0
M  V30 606 H 62.6431 -3.92858 1.1012 0
M  V30 607 H 61.3181 -3.53848 2.18551 0
M  V30 608 H 59.8951 -3.71137 0.362226 0
M  V30 609 N 62.0802 -0.821533 -1.34494 0
M  V30 610 C 63.3102 -0.421272 -2.02259 0
M  V30 611 C 63.7182 0.977047 -1.6202 0
M  V30 612 O 63.0612 1.64348 -0.820703 0
M  V30 613 C 63.1232 -0.44231 -3.56769 0
M  V30 614 C 62.7872 -1.79372 -4.20327 0
M  V30 615 C 63.7842 -2.75435 -4.40944 0
M  V30 616 C 61.4692 -2.08182 -4.57127 0
M  V30 617 C 63.4632 -3.98482 -4.97484 0
M  V30 618 C 61.1502 -3.31489 -5.13379 0
M  V30 619 C 62.1482 -4.26457 -5.33501 0
M  V30 620 O 61.8362 -5.47585 -5.88562 0
M  V30 621 H 61.5682 -0.167473 -0.654927 0
M  V30 622 H 64.1222 -1.11073 -1.72777 0
M  V30 623 H 62.3522 0.303836 -3.85505 0
M  V30 624 H 64.0412 -0.0622925 -4.05852 0
M  V30 625 H 64.8072 -2.54473 -4.12878 0
M  V30 626 H 60.6862 -1.35066 -4.4077 0
M  V30 627 H 64.2302 -4.72618 -5.13106 0
M  V30 628 H 60.1272 -3.52316 -5.40873 0
M  V30 629 H 60.8952 -5.49086 -6.06998 0
M  V30 630 N 63.5583 1.46682 -0.576371 0
M  V30 631 C 64.4883 2.33028 0.148397 0
M  V30 632 C 65.4693 1.44961 0.889956 0
M  V30 633 O 66.6543 1.73789 0.866662 0
M  V30 634 C 63.7843 3.27117 1.1667 0
M  V30 635 C 62.7383 4.24575 0.540386 0
M  V30 636 C 62.0643 5.08126 1.6647 0
M  V30 637 C 63.3643 5.19722 -0.518331 0
M  V30 638 H 65.0583 2.93875 -0.572509 0
M  V30 639 H 62.6043 1.41315 -0.276768 0
M  V30 640 H 64.5573 3.86374 1.68204 0
M  V30 641 H 63.2813 2.64364 1.9178 0
M  V30 642 H 61.9403 3.66571 0.0461769 0
M  V30 643 H 61.5883 4.41762 2.40531 0
M  V30 644 H 61.2883 5.74122 1.25131 0
M  V30 645 H 62.8123 5.70246 2.18293 0
M  V30 646 H 64.2263 5.73232 -0.0883058 0
M  V30 647 H 62.6233 5.94026 -0.851679 0
M  V30 648 H 63.6933 4.64037 -1.40703 0
M  V30 649 N 65.0364 0.313813 1.54444 0
M  V30 650 C 65.9464 -0.565714 2.27677 0
M  V30 651 C 66.9624 -1.13754 1.31666 0
M  V30 652 O 68.1384 -1.15959 1.64668 0
M  V30 653 C 65.2034 -1.71528 3.01296 0
M  V30 654 C 64.2644 -1.17624 4.12872 0
M  V30 655 C 63.4974 -2.27102 4.8297 0
M  V30 656 O 63.7204 -3.47256 4.52514 0
M  V30 657 O 62.6544 -1.9307 5.70094 0
M  V30 658 H 66.4804 0.0287296 3.03686 0
M  V30 659 H 64.0654 0.0798312 1.49187 0
M  V30 660 H 65.9474 -2.38476 3.4743 0
M  V30 661 H 64.6224 -2.29608 2.2817 0
M  V30 662 H 63.5294 -0.472124 3.71109 0
M  V30 663 H 64.8624 -0.640695 4.88012 0
M  V30 664 N 66.5145 -1.57545 0.0417849 0
M  V30 665 C 67.7625 -1.91937 -0.632829 0
M  V30 666 C 68.0835 -0.919978 -1.71934 0
M  V30 667 O 67.3535 0.0366064 -1.95866 0
M  V30 668 H 65.9335 -0.708493 -0.236742 0
M  V30 669 H 68.5955 -1.9468 0.0925745 0
M  V30 670 H 67.6915 -2.92912 -1.07746 0
M  V30 671 N 67.9926 0.231505 -1.5589 0
M  V30 672 C 68.9246 1.31006 -1.8807 0
M  V30 673 C 69.9376 1.43539 -0.768145 0
M  V30 674 O 71.1266 1.44614 -1.04638 0
M  V30 675 C 68.2266 2.68688 -2.06543 0
M  V30 676 C 67.3996 2.78228 -3.37502 0
M  V30 677 C 66.4586 3.96857 -3.4553 0
M  V30 678 O 65.4846 3.85662 -4.18633 0
M  V30 679 N 66.6866 5.1072 -2.75944 0
M  V30 680 H 69.4516 1.03731 -2.81176 0
M  V30 681 H 67.0126 0.421573 -1.56315 0
M  V30 682 H 69.0046 3.46412 -2.09239 0
M  V30 683 H 67.5746 2.88605 -1.20109 0
M  V30 684 H 66.7946 1.87059 -3.46991 0
M  V30 685 H 68.0826 2.81564 -4.23791 0
M  V30 686 H 67.4806 5.2271 -2.16311 0
M  V30 687 H 66.0376 5.86523 -2.84314 0
M  V30 688 N 69.4707 1.49531 0.497807 0
M  V30 689 C 70.4337 1.65916 1.58128 0
M  V30 690 C 71.4337 0.530825 1.51786 0
M  V30 691 O 72.6237 0.797342 1.54881 0
M  V30 692 C 69.7557 1.65951 2.9778 0
M  V30 693 H 70.9487 2.62556 1.44929 0
M  V30 694 H 68.5017 1.38611 0.722275 0
M  V30 695 H 69.2367 0.709065 3.16453 0
M  V30 696 H 69.0217 2.47897 3.03792 0
M  V30 697 H 70.5117 1.80673 3.76493 0
M  V30 698 N 70.9488 -0.749086 1.3866 0
M  V30 699 C 71.9118 -1.84457 1.36045 0
M  V30 700 C 72.9118 -1.58682 0.260122 0
M  V30 701 O 74.1018 -1.66343 0.517261 0
M  V30 702 C 71.2338 -3.22008 1.11911 0
M  V30 703 H 72.4268 -1.88182 2.33512 0
M  V30 704 H 69.9798 -0.951266 1.24019 0
M  V30 705 H 70.7148 -3.2395 0.150686 0
M  V30 706 H 70.4998 -3.42111 1.91579 0
M  V30 707 H 71.9898 -4.0208 1.12788 0
M  V30 708 N 72.4269 -1.23603 -0.977757 0
M  V30 709 C 73.3739 -1.01954 -2.07061 0
M  V30 710 C 74.3439 0.0638697 -1.65977 0
M  V30 711 O 75.5289 -0.0887624 -1.90593 0
M  V30 712 C 72.6689 -0.619658 -3.39491 0
M  V30 713 C 71.7819 -1.77547 -3.93829 0
M  V30 714 C 70.9169 -1.32212 -5.14484 0
M  V30 715 C 69.9559 -2.44852 -5.60994 0
M  V30 716 N 69.0929 -2.00456 -6.72876 0
M  V30 717 H 73.9329 -1.95495 -2.24913 0
M  V30 718 H 71.4699 -0.973861 -1.10247 0
M  V30 719 H 73.4279 -0.368898 -4.15566 0
M  V30 720 H 72.0579 0.278752 -3.21594 0
M  V30 721 H 71.1099 -2.14016 -3.14486 0
M  V30 722 H 72.4219 -2.62219 -4.24314 0
M  V30 723 H 71.5759 -1.02965 -5.97899 0
M  V30 724 H 70.3149 -0.445808 -4.85658 0
M  V30 725 H 69.3199 -2.74871 -4.76157 0
M  V30 726 H 70.5449 -3.33024 -5.91837 0
M  V30 727 H 68.4909 -1.15208 -6.45804 0
M  V30 728 H 68.4079 -2.78687 -7.02759 0
M  V30 729 H 69.6759 -1.7432 -7.59758 0
M  V30 730 N 73.905 1.17692 -1.04816 0
M  V30 731 C 74.815 2.25229 -0.65643 0
M  V30 732 C 75.831 1.71018 0.320761 0
M  V30 733 O 77.007 2.00649 0.173805 0
M  V30 734 C 74.072 3.46684 -0.0332629 0
M  V30 735 C 73.133 4.15997 -1.06042 0
M  V30 736 C 72.366 5.31654 -0.466893 0
M  V30 737 O 72.589 5.65777 0.724758 0
M  V30 738 O 71.523 5.89831 -1.1993 0
M  V30 739 H 75.349 2.61016 -1.55255 0
M  V30 740 H 72.934 1.24919 -0.81949 0
M  V30 741 H 74.816 4.20234 0.313256 0
M  V30 742 H 73.491 3.12703 0.836566 0
M  V30 743 H 72.398 3.44482 -1.45886 0
M  V30 744 H 73.731 4.53996 -1.90127 0
M  V30 745 N 75.3831 0.828654 1.34056 0
M  V30 746 C 76.6301 0.419458 1.98108 0
M  V30 747 C 76.9581 -1.01886 1.65679 0
M  V30 748 O 76.2131 -1.72539 0.923512 0
M  V30 749 C 76.5121 0.575226 3.52741 0
M  V30 750 C 76.1781 1.98012 4.05095 0
M  V30 751 C 74.8401 2.36442 4.19104 0
M  V30 752 C 77.1921 2.89824 4.33188 0
M  V30 753 C 74.5201 3.66009 4.58535 0
M  V30 754 C 76.8721 4.1886 4.74066 0
M  V30 755 C 75.5361 4.5726 4.86281 0
M  V30 756 H 74.8061 0.153491 0.724929 0
M  V30 757 H 77.4531 1.05371 1.59904 0
M  V30 758 H 75.7581 -0.142385 3.91541 0
M  V30 759 H 77.4551 0.239057 4.00287 0
M  V30 760 H 74.0451 1.67162 3.94658 0
M  V30 761 H 78.2291 2.61375 4.21897 0
M  V30 762 H 73.4851 3.95579 4.66184 0
M  V30 763 H 77.6591 4.90086 4.94761 0
M  V30 764 H 75.2861 5.57707 5.16592 0
M  V30 765 N 76.8612 -1.46375 0.584142 0
M  V30 766 C 78.1102 -2.01585 0.0679741 0
M  V30 767 C 78.4232 -1.46109 -1.30045 0
M  V30 768 O 79.6292 -1.93148 -1.90804 0
M  V30 769 C 78.0852 -3.5983 0.0709207 0
M  V30 770 C 77.6932 -4.24303 1.43775 0
M  V30 771 C 79.4372 -4.22693 -0.391228 0
M  V30 772 C 77.3442 -5.74631 1.39834 0
M  V30 773 H 76.2742 -0.753689 0.0216421 0
M  V30 774 H 78.9252 -1.68093 0.736001 0
M  V30 775 H 77.3072 -3.90405 -0.663299 0
M  V30 776 H 78.4812 -4.05335 2.19181 0
M  V30 777 H 76.7962 -3.73539 1.84004 0
M  V30 778 H 79.3932 -5.3289 -0.439524 0
M  V30 779 H 79.7362 -3.91728 -1.40906 0
M  V30 780 H 80.2692 -3.96749 0.288974 0
M  V30 781 H 77.0082 -6.10258 2.39303 0
M  V30 782 H 76.5282 -5.95858 0.686505 0
M  V30 783 H 78.2072 -6.37375 1.11187 0
M  V30 784 N 78.3393 -0.321999 -1.54275 0
M  V30 785 C 79.3023 0.531975 -2.22941 0
M  V30 786 C 80.3023 1.04478 -1.22234 0
M  V30 787 O 81.4923 0.937452 -1.46825 0
M  V30 788 C 78.6243 1.73874 -2.93224 0
M  V30 789 H 79.8173 -0.0682612 -2.99822 0
M  V30 790 H 77.3703 -0.0730644 -1.56129 0
M  V30 791 H 78.1053 2.37825 -2.20476 0
M  V30 792 H 77.8903 1.37847 -3.6707 0
M  V30 793 H 79.3803 2.34496 -3.45545 0
M  V30 794 N 79.8174 1.5752 -0.0501392 0
M  V30 795 C 81.0634 1.93755 0.618901 0
M  V30 796 C 81.4184 0.928514 1.68512 0
M  V30 797 O 80.7114 -0.0524613 1.91528 0
M  V30 798 C 80.9054 3.34467 1.25963 0
M  V30 799 C 80.7344 4.48965 0.257 0
M  V30 800 C 79.5044 5.05075 -0.150656 0
M  V30 801 C 81.7024 5.11891 -0.497166 0
M  V30 802 N 79.6844 6.03104 -1.14626 0
M  V30 803 C 81.0554 6.05216 -1.34588 0
M  V30 804 C 83.1104 4.9479 -0.55559 0
M  V30 805 C 81.8134 6.83277 -2.24778 0
M  V30 806 C 83.8394 5.73477 -1.44492 0
M  V30 807 C 83.2014 6.66433 -2.28136 0
M  V30 808 H 79.3004 0.756479 0.198149 0
M  V30 809 H 81.8844 1.94316 -0.122229 0
M  V30 810 H 80.0554 3.34685 1.97079 0
M  V30 811 H 81.7874 3.57994 1.88739 0
M  V30 812 H 78.5424 4.7305 0.228094 0
M  V30 813 H 78.9664 6.56813 -1.64092 0
M  V30 814 H 83.6084 4.2273 0.0768625 0
M  V30 815 H 81.3264 7.54629 -2.89069 0
M  V30 816 H 84.9124 5.62273 -1.49468 0
M  V30 817 H 83.7924 7.26258 -2.95835 0
M  V30 818 N 81.2955 -0.223234 1.56011 0
M  V30 819 C 82.2255 -1.27988 1.95298 0
M  V30 820 C 83.2065 -1.48976 0.820979 0
M  V30 821 O 84.3915 -1.61188 1.08315 0
M  V30 822 C 81.5215 -2.63 2.26822 0
M  V30 823 C 80.4755 -2.56671 3.42497 0
M  V30 824 C 79.8015 -3.95697 3.59622 0
M  V30 825 C 81.1015 -2.11601 4.77517 0
M  V30 826 H 82.7955 -0.953525 2.8381 0
M  V30 827 H 80.3415 -0.457244 1.36548 0
M  V30 828 H 82.2945 -3.37077 2.52898 0
M  V30 829 H 81.0185 -2.9732 1.35161 0
M  V30 830 H 79.6775 -1.85051 3.16467 0
M  V30 831 H 79.3255 -4.27322 2.6534 0
M  V30 832 H 79.0255 -3.92345 4.37424 0
M  V30 833 H 80.5495 -4.71438 3.88044 0
M  V30 834 H 81.9635 -2.7542 5.02809 0
M  V30 835 H 80.3605 -2.19311 5.5859 0
M  V30 836 H 81.4305 -1.06824 4.72987 0
M  V30 837 N 82.7736 -1.49793 -0.48987 0
M  V30 838 C 84.0196 -1.60078 -1.24511 0
M  V30 839 C 84.3526 -0.291608 -1.91998 0
M  V30 840 O 83.6276 0.705647 -1.81248 0
M  V30 841 C 83.9106 -2.76791 -2.30345 0
M  V30 842 C 83.7636 -4.17535 -1.67286 0
M  V30 843 C 85.0826 -2.89111 -3.31817 0
M  V30 844 H 82.2016 -0.582645 -0.451324 0
M  V30 845 H 84.8436 -1.82117 -0.541612 0
M  V30 846 H 82.9936 -2.5813 -2.90346 0
M  V30 847 H 84.6656 -4.4774 -1.11026 0
M  V30 848 H 82.9086 -4.22665 -0.976577 0
M  V30 849 H 83.5796 -4.95094 -2.44103 0
M  V30 850 H 86.0556 -3.06133 -2.81819 0
M  V30 851 H 84.9316 -3.72433 -4.03219 0
M  V30 852 H 85.1926 -1.9893 -3.94815 0
M  V30 853 N 84.2517 0.741722 -1.39055 0
M  V30 854 C 85.1987 1.85566 -1.37237 0
M  V30 855 C 86.1687 1.64457 -0.233072 0
M  V30 856 O 87.3537 1.85957 -0.427147 0
M  V30 857 C 84.4937 3.23004 -1.215 0
M  V30 858 C 83.6067 3.55864 -2.44918 0
M  V30 859 C 82.7417 4.82669 -2.21821 0
M  V30 860 C 81.7807 5.08351 -3.40948 0
M  V30 861 N 80.9177 6.26356 -3.17211 0
M  V30 862 H 85.7577 1.86455 -2.32462 0
M  V30 863 H 83.2947 0.911176 -1.15482 0
M  V30 864 H 85.2527 4.02331 -1.10389 0
M  V30 865 H 83.8827 3.21411 -0.29908 0
M  V30 866 H 82.9347 2.7129 -2.66657 0
M  V30 867 H 84.2467 3.70765 -3.33668 0
M  V30 868 H 83.4007 5.69962 -2.07914 0
M  V30 869 H 82.1397 4.69929 -1.30454 0
M  V30 870 H 81.1447 4.19522 -3.55361 0
M  V30 871 H 82.3697 5.22981 -4.33207 0
M  V30 872 H 80.3157 6.14917 -2.28502 0
M  V30 873 H 80.2327 6.41813 -3.99515 0
M  V30 874 H 81.5007 7.16506 -3.06984 0
M  V30 875 N 85.7298 1.2412 0.971189 0
M  V30 876 C 86.9778 1.07668 1.71032 0
M  V30 877 C 87.2988 -0.385797 1.91146 0
M  V30 878 O 86.5688 -1.27569 1.4867 0
M  V30 879 H 85.1488 0.395429 0.633755 0
M  V30 880 H 87.8108 1.55984 1.16855 0
M  V30 881 H 86.9068 1.57195 2.69622 0
M  V30 882 N 87.2079 -1.17134 1.05439 0
M  V30 883 C 88.6239 -1.39454 0.776201 0
M  V30 884 C 88.8239 -1.91454 -0.628307 0
M  V30 885 O 87.8799 -2.10777 -1.39031 0
M  V30 886 C 89.1929 -2.38305 1.83388 0
M  V30 887 C 90.7409 -2.52006 1.85639 0
M  V30 888 C 91.2159 -3.54133 2.90437 0
M  V30 889 N 92.7069 -3.61653 2.89415 0
M  V30 890 C 93.4419 -4.4044 3.67152 0
M  V30 891 N 92.9379 -5.22721 4.54681 0
M  V30 892 N 94.7309 -4.35337 3.55581 0
M  V30 893 H 86.8819 -0.817134 1.96053 0
M  V30 894 H 89.1449 -0.421626 0.849079 0
M  V30 895 H 88.8509 -2.07173 2.84204 0
M  V30 896 H 88.7249 -3.37841 1.67761 0
M  V30 897 H 91.1119 -2.82447 0.85486 0
M  V30 898 H 91.1929 -1.52537 2.05344 0
M  V30 899 H 90.8369 -3.24431 3.90777 0
M  V30 900 H 90.7669 -4.53313 2.67983 0
M  V30 901 H 93.2579 -3.02909 2.25952 0
M  V30 902 H 93.5709 -5.80027 5.10674 0
M  V30 903 H 91.9159 -5.22093 4.58741 0
M  V30 904 H 95.1069 -3.70112 2.86592 0
M  V30 905 H 95.2799 -4.96494 4.1641 0
M  V30 906 N 88.686 -0.835752 -1.33615 0
M  V30 907 C 89.963 -0.352017 -1.92406 0
M  V30 908 C 90.343 1.16225 -1.76224 0
M  V30 909 O 89.691 1.97526 -1.14873 0
M  V30 910 C 89.901 -0.795485 -3.39813 0
M  V30 911 C 91.249 -0.801703 -4.16963 0
M  V30 912 O 92.273 -0.738889 -3.48452 0
M  V30 913 O 91.132 -0.886607 -5.3926 0
M  V30 914 H 88.226 -0.0989641 -0.821057 0
M  V30 915 H 90.772 -0.921397 -1.42507 0
M  V30 916 H 89.544 -1.83795 -3.45449 0
M  V30 917 H 89.167 -0.202505 -3.97084 0
M  V30 918 N 90.1641 1.46063 -0.591896 0
M  V30 919 C 91.1271 2.28854 0.125973 0
M  V30 920 C 92.1271 1.38903 0.810107 0
M  V30 921 O 93.3171 1.61186 0.66066 0
M  V30 922 C 90.4491 3.19526 1.1881 0
M  V30 923 H 91.6421 2.93802 -0.601717 0
M  V30 924 H 89.1951 1.52325 -0.350254 0
M  V30 925 H 89.9301 2.59345 1.94707 0
M  V30 926 H 89.7151 3.85766 0.701936 0
M  V30 927 H 91.2051 3.81817 1.69132 0
M  V30 928 N 91.6422 0.330177 1.54103 0
M  V30 929 C 92.5922 -0.548456 2.21305 0
M  V30 930 C 93.5762 -1.07651 1.19583 0
M  V30 931 O 94.7682 -1.01243 1.45186 0
M  V30 932 C 91.8972 -1.70559 2.97934 0
M  V30 933 C 90.9832 -1.19212 4.07 0
M  V30 934 N 91.3742 -0.398831 5.04225 0
M  V30 935 C 89.6722 -1.47024 4.2107 0
M  V30 936 C 90.3732 -0.121761 5.81573 0
M  V30 937 N 89.3492 -0.709722 5.38947 0
M  V30 938 H 93.1512 0.0648483 2.93828 0
M  V30 939 H 90.6652 0.136363 1.61826 0
M  V30 940 H 92.6622 -2.34688 3.44568 0
M  V30 941 H 91.3222 -2.32231 2.26934 0
M  V30 942 H 92.3332 -0.0410869 5.17884 0
M  V30 943 H 89.0102 -2.09232 3.61287 0
M  V30 944 H 90.4002 0.517298 6.69906 0
M  V30 945 N 93.1203 -1.57491 0.0584922 0
M  V30 946 C 94.0673 -2.11958 -0.913376 0
M  V30 947 C 95.0373 -1.02875 -1.30407 0
M  V30 948 O 96.2223 -1.30464 -1.39226 0
M  V30 949 C 93.3623 -2.67497 -2.18035 0
M  V30 950 C 92.4753 -3.90691 -1.84349 0
M  V30 951 C 91.6103 -4.3452 -3.05559 0
M  V30 952 C 90.6493 -5.50395 -2.67827 0
M  V30 953 N 89.7863 -5.89244 -3.81754 0
M  V30 954 H 94.6263 -2.94704 -0.442017 0
M  V30 955 H 92.1633 -1.45643 -0.206545 0
M  V30 956 H 94.1213 -2.978 -2.92183 0
M  V30 957 H 92.7513 -1.87537 -2.62735 0
M  V30 958 H 91.8033 -3.66934 -1.00319 0
M  V30 959 H 93.1153 -4.7489 -1.5258 0
M  V30 960 H 92.2693 -4.66414 -3.87998 0
M  V30 961 H 91.0083 -3.49147 -3.40511 0
M  V30 962 H 90.0133 -5.18165 -1.83806 0
M  V30 963 H 91.2383 -6.3749 -2.34059 0
M  V30 964 H 89.1843 -5.06823 -4.16493 0
M  V30 965 H 89.1013 -6.68151 -3.53708 0
M  V30 966 H 90.3693 -6.25756 -4.64811 0
M  V30 967 N 94.5984 0.214957 -1.56127 0
M  V30 968 C 95.8234 0.95924 -1.83884 0
M  V30 969 C 96.2484 1.7689 -0.639644 0
M  V30 970 O 95.6064 1.76566 0.411601 0
M  V30 971 C 95.6544 1.84723 -3.09693 0
M  V30 972 O 94.7584 2.94346 -2.8885 0
M  V30 973 H 94.0994 0.27125 -0.606069 0
M  V30 974 H 96.6294 0.226276 -2.03345 0
M  V30 975 H 96.6394 2.25576 -3.39969 0
M  V30 976 H 95.3144 1.25218 -3.96602 0
M  V30 977 H 93.8914 2.57391 -2.69823 0
M  V30 978 N 96.0765 1.50051 0.48192 0
M  V30 979 C 96.9865 1.7089 1.60728 0
M  V30 980 C 98.0025 0.591788 1.63627 0
M  V30 981 O 99.1785 0.868817 1.81696 0
M  V30 982 C 96.2435 1.78855 2.97005 0
M  V30 983 C 95.3045 3.02537 3.04581 0
M  V30 984 C 94.5375 3.10112 4.34357 0
M  V30 985 O 94.7605 2.24765 5.24249 0
M  V30 986 O 93.6945 4.02747 4.47301 0
M  V30 987 H 97.5205 2.66264 1.46072 0
M  V30 988 H 95.1055 1.34018 0.660264 0
M  V30 989 H 96.9875 1.86336 3.77964 0
M  V30 990 H 95.6625 0.866628 3.11883 0
M  V30 991 H 94.5695 3.00563 2.22739 0
M  V30 992 H 95.9025 3.94272 2.94636 0
M  V30 993 N 97.5546 -0.734337 1.39446 0
M  V30 994 C 98.8006 -1.49613 1.36908 0
M  V30 995 C 99.1336 -1.94169 -0.0347829 0
M  V30 996 O 98.4086 -1.66833 -0.999847 0
M  V30 997 C 98.6916 -2.73534 2.34203 0
M  V30 998 C 98.5446 -2.34993 3.83534 0
M  V30 999 C 99.8636 -3.75635 2.29317 0
M  V30 1000 H 96.9826 -0.542714 0.498629 0
M  V30 1001 H 99.6246 -0.839597 1.70443 0
M  V30 1002 H 97.7746 -3.29553 2.05736 0
M  V30 1003 H 99.4466 -1.84601 4.22753 0
M  V30 1004 H 97.6896 -1.67213 4.00278 0
M  V30 1005 H 98.3606 -3.23738 4.47099 0
M  V30 1006 H 100.837 -3.29203 2.54489 0
M  V30 1007 H 99.7126 -4.60008 2.99472 0
M  V30 1008 H 99.9736 -4.22603 1.29842 0
M  V30 1009 N 99.0327 -1.24633 -0.964593 0
M  V30 1010 C 99.9957 -1.0424 -2.04124 0
M  V30 1011 C 100.996 0.00137563 -1.608 0
M  V30 1012 O 102.186 -0.239883 -1.7254 0
M  V30 1013 C 99.3177 -0.580588 -3.3592 0
M  V30 1014 H 100.511 -1.99803 -2.23649 0
M  V30 1015 H 98.0637 -1.06899 -1.14027 0
M  V30 1016 H 98.7987 0.3781 -3.22088 0
M  V30 1017 H 98.5837 -1.33398 -3.6871 0
M  V30 1018 H 100.074 -0.459034 -4.15069 0
M  V30 1019 N 100.511 1.16574 -1.06058 0
M  V30 1020 C 101.461 2.18854 -0.63929 0
M  V30 1021 C 102.445 1.57505 0.328798 0
M  V30 1022 O 103.637 1.76408 0.144623 0
M  V30 1023 C 100.766 3.43291 -0.0247203 0
M  V30 1024 C 99.8518 4.11722 -1.01716 0
M  V30 1025 N 100.243 4.55841 -2.19186 0
M  V30 1026 C 98.5408 4.37872 -0.847569 0
M  V30 1027 C 99.2418 5.08751 -2.82042 0
M  V30 1028 N 98.2178 5.01489 -2.09784 0
M  V30 1029 H 102.02 2.5068 -1.53417 0
M  V30 1030 H 99.5338 1.32999 -0.931935 0
M  V30 1031 H 101.531 4.15856 0.294915 0
M  V30 1032 H 100.191 3.12954 0.865448 0
M  V30 1033 H 101.202 4.49649 -2.56975 0
M  V30 1034 H 97.8788 4.17499 -0.00918848 0
M  V30 1035 H 99.2688 5.52944 -3.81709 0
M  V30 1036 N 101.989 0.842826 1.3317 0
M  V30 1037 C 103.405 0.531128 1.50503 0
M  V30 1038 C 103.605 -0.940734 1.78192 0
M  V30 1039 O 102.661 -1.72436 1.84451 0
M  V30 1040 C 103.974 1.40789 2.65705 0
M  V30 1041 C 105.522 1.40708 2.79589 0
M  V30 1042 C 105.997 2.26878 3.97857 0
M  V30 1043 N 107.488 2.24609 4.05099 0
M  V30 1044 C 108.223 2.88019 4.95815 0
M  V30 1045 N 107.719 3.60496 5.9162 0
M  V30 1046 N 109.512 2.77469 4.88843 0
M  V30 1047 H 101.663 1.79557 1.1346 0
M  V30 1048 H 103.926 0.766267 0.558156 0
M  V30 1049 H 103.632 2.454 2.51936 0
M  V30 1050 H 103.506 1.08677 3.61205 0
M  V30 1051 H 105.893 0.368668 2.92788 0
M  V30 1052 H 105.974 1.76829 1.84838 0
M  V30 1053 H 105.618 3.3078 3.85418 0
M  V30 1054 H 105.548 1.88096 4.91861 0
M  V30 1055 H 108.039 1.71906 3.36536 0
M  V30 1056 H 108.352 4.06076 6.57512 0
M  V30 1057 H 106.697 3.64604 5.91683 0
M  V30 1058 H 109.888 2.20406 4.12963 0
M  V30 1059 H 110.061 3.2717 5.59342 0
M  V30 1060 N 103.467 -1.45747 0.599634 0
M  V30 1061 C 104.714 -2.02292 0.0917284 0
M  V30 1062 C 105.042 -1.46906 -1.27472 0
M  V30 1063 O 104.297 -0.630652 -1.8526 0
M  V30 1064 C 104.596 -3.57399 -0.00602758 0
M  V30 1065 C 104.262 -4.31902 1.29503 0
M  V30 1066 C 102.924 -4.51974 1.65144 0
M  V30 1067 C 105.276 -4.74551 2.15525 0
M  V30 1068 C 102.604 -5.11949 2.86574 0
M  V30 1069 C 104.956 -5.35868 3.36196 0
M  V30 1070 C 103.62 -5.54165 3.72099 0
M  V30 1071 H 102.89 -0.740239 0.0335658 0
M  V30 1072 H 105.537 -1.7491 0.779661 0
M  V30 1073 H 103.842 -3.84014 -0.777183 0
M  V30 1074 H 105.539 -3.98846 -0.415038 0
M  V30 1075 H 102.129 -4.16588 1.00761 0
M  V30 1076 H 106.313 -4.58784 1.8929 0
M  V30 1077 H 101.569 -5.24305 3.14507 0
M  V30 1078 H 105.743 -5.6787 4.03109 0
M  V30 1079 H 103.37 -6.00406 4.6628 0
M  V30 1080 N 104.945 -0.338344 -1.53925 0
M  V30 1081 C 105.892 0.520845 -2.24846 0
M  V30 1082 C 106.862 1.09976 -1.24477 0
M  V30 1083 O 108.047 1.13735 -1.53196 0
M  V30 1084 C 105.187 1.6685 -3.02084 0
M  V30 1085 C 104.3 1.11739 -4.17299 0
M  V30 1086 C 103.435 2.23193 -4.82036 0
M  V30 1087 C 102.474 1.65407 -5.89328 0
M  V30 1088 N 101.611 2.70582 -6.47866 0
M  V30 1089 H 106.451 -0.0904881 -2.97863 0
M  V30 1090 H 103.988 -0.0564282 -1.46992 0
M  V30 1091 H 105.946 2.34407 -3.45122 0
M  V30 1092 H 104.576 2.2509 -2.31375 0
M  V30 1093 H 103.628 0.332919 -3.7894 0
M  V30 1094 H 104.94 0.654677 -4.94485 0
M  V30 1095 H 104.094 2.98626 -5.28117 0
M  V30 1096 H 102.833 2.72807 -4.04262 0
M  V30 1097 H 101.838 0.884779 -5.42634 0
M  V30 1098 H 103.063 1.16652 -6.69006 0
M  V30 1099 H 101.009 3.1946 -5.72959 0
M  V30 1100 H 100.926 2.28917 -7.20509 0
M  V30 1101 H 102.194 3.45799 -6.98601 0
M  V30 1102 N 106.423 1.57458 -0.0668435 0
M  V30 1103 C 107.7 1.8469 0.644132 0
M  V30 1104 C 108.08 0.958343 1.88093 0
M  V30 1105 O 107.428 0.0233579 2.28488 0
M  V30 1106 C 107.638 3.34767 0.986509 0
M  V30 1107 C 108.986 4.02159 1.36212 0
M  V30 1108 O 110.01 3.39484 1.07839 0
M  V30 1109 O 108.869 5.12694 1.89227 0
M  V30 1110 H 105.963 0.762816 0.319437 0
M  V30 1111 H 108.509 1.6942 -0.0973986 0
M  V30 1112 H 107.281 3.91151 0.107883 0
M  V30 1113 H 106.904 3.55281 1.78497 0
M  V30 1114 N 107.901 -0.206675 1.56239 0
M  V30 1115 C 108.831 -1.25909 1.96645 0
M  V30 1116 C 109.812 -1.48097 0.836734 0
M  V30 1117 O 110.997 -1.6003 1.10019 0
M  V30 1118 C 108.127 -2.6058 2.29599 0
M  V30 1119 C 107.081 -2.53024 3.452 0
M  V30 1120 C 106.407 -3.91861 3.63798 0
M  V30 1121 C 107.707 -2.06524 4.79734 0
M  V30 1122 H 109.401 -0.923369 2.84806 0
M  V30 1123 H 106.947 -0.442735 1.37025 0
M  V30 1124 H 108.9 -3.34375 2.56459 0
M  V30 1125 H 107.624 -2.95869 1.38307 0
M  V30 1126 H 106.283 -1.81684 3.18412 0
M  V30 1127 H 105.931 -4.24483 2.69857 0
M  V30 1128 H 105.631 -3.87683 4.4156 0
M  V30 1129 H 107.155 -4.67296 3.93022 0
M  V30 1130 H 108.569 -2.70072 5.05702 0
M  V30 1131 H 106.966 -2.13374 5.60885 0
M  V30 1132 H 108.036 -1.01802 4.74093 0
M  V30 1133 N 109.379 -1.50304 -0.473955 0
M  V30 1134 C 110.627 -1.60832 -1.22382 0
M  V30 1135 C 110.948 -0.30939 -1.9253 0
M  V30 1136 O 110.218 0.67296 -1.83978 0
M  V30 1137 H 108.798 -0.592652 -0.454723 0
M  V30 1138 H 111.46 -1.87068 -0.546968 0
M  V30 1139 H 110.556 -2.41803 -1.97327 0
M  V30 1140 N 110.857 0.726932 -1.39834 0
M  V30 1141 C 111.767 1.87131 -1.41489 0
M  V30 1142 C 112.783 1.71239 -0.308757 0
M  V30 1143 O 113.959 1.93701 -0.551529 0
M  V30 1144 C 111.024 3.22811 -1.26468 0
M  V30 1145 C 110.085 3.51039 -2.47124 0
M  V30 1146 C 109.318 4.80245 -2.3281 0
M  V30 1147 O 109.541 5.54537 -1.33585 0
M  V30 1148 O 108.475 5.08554 -3.21957 0
M  V30 1149 H 112.301 1.8869 -2.3797 0
M  V30 1150 H 109.886 0.875837 -1.21035 0
M  V30 1151 H 111.768 4.03877 -1.20255 0
M  V30 1152 H 110.443 3.22005 -0.330862 0
M  V30 1153 H 109.35 2.70027 -2.58914 0
M  V30 1154 H 110.683 3.56632 -3.39227 0
M  V30 1155 N 112.336 1.25143 0.95797 0
M  V30 1156 C 113.246 1.06968 2.08794 0
M  V30 1157 C 114.262 0.00773911 1.73998 0
M  V30 1158 O 115.438 0.207972 2.00323 0
M  V30 1159 C 112.503 0.68691 3.39827 0
M  V30 1160 C 111.564 1.82641 3.88511 0
M  V30 1161 C 110.797 1.46181 5.1329 0
M  V30 1162 O 111.02 0.355971 5.69288 0
M  V30 1163 O 109.954 2.29085 5.566 0
M  V30 1164 H 113.78 2.01723 2.27027 0
M  V30 1165 H 111.365 1.04051 1.07209 0
M  V30 1166 H 113.247 0.485417 4.18595 0
M  V30 1167 H 111.922 -0.231417 3.22872 0
M  V30 1168 H 110.829 2.08274 3.10762 0
M  V30 1169 H 112.162 2.72386 4.09959 0
M  V30 1170 N 113.814 -1.1601 1.06675 0
M  V30 1171 C 114.762 -2.22586 0.675157 0
M  V30 1172 C 115.756 -1.66525 -0.310766 0
M  V30 1173 O 116.962 -1.79145 -0.175215 0
M  V30 1174 H 113.337 -0.724855 0.200223 0
M  V30 1175 H 115.308 -2.52899 1.58381 0
M  V30 1176 C 114.057 -3.47604 0.0817162 0
M  V30 1177 H 113.38 -3.91058 0.831484 0
M  V30 1178 H 114.82 -4.23718 -0.154708 0
M  V30 1179 C 113.279 -3.15718 -1.17576 0
M  V30 1180 O 113.809 -3.31878 -2.26318 0
M  V30 1181 N 112.015 -2.69816 -1.07923 0
M  V30 1182 H 111.562 -2.56866 -0.194293 0
M  V30 1183 H 111.52 -2.48855 -1.92141 0
M  V30 1184 N 115.292 -0.849877 -1.32721 0
M  V30 1185 C 116.539 -0.450923 -1.97416 0
M  V30 1186 C 116.867 0.992376 -1.67279 0
M  V30 1187 O 116.122 1.71048 -0.950845 0
M  V30 1188 C 116.421 -0.631272 -3.51781 0
M  V30 1189 C 116.087 -2.04432 -4.01894 0
M  V30 1190 C 114.749 -2.4308 -4.1529 0
M  V30 1191 C 117.101 -2.96679 -4.28522 0
M  V30 1192 C 114.429 -3.73257 -4.52654 0
M  V30 1193 C 116.781 -4.26349 -4.67343 0
M  V30 1194 C 115.445 -4.64939 -4.78945 0
M  V30 1195 H 114.715 -0.165004 -0.722395 0
M  V30 1196 H 117.362 -1.07901 -1.58207 0
M  V30 1197 H 115.667 0.0800767 -3.91718 0
M  V30 1198 H 117.364 -0.302709 -3.99856 0
M  V30 1199 H 113.954 -1.73419 -3.91949 0
M  V30 1200 H 118.138 -2.68054 -4.17685 0
M  V30 1201 H 113.394 -4.02946 -4.59831 0
M  V30 1202 H 117.568 -4.97895 -4.86902 0
M  V30 1203 H 115.195 -5.65855 -5.07654 0
M  V30 1204 N 116.77 1.45427 -0.607355 0
M  V30 1205 C 117.717 2.3053 0.111625 0
M  V30 1206 C 118.687 1.4209 0.860216 0
M  V30 1207 O 119.872 1.71019 0.845998 0
M  V30 1208 C 117.012 3.26992 1.10319 0
M  V30 1209 C 116.125 4.30535 0.355493 0
M  V30 1210 C 115.26 5.14105 1.33676 0
M  V30 1211 C 114.299 6.09376 0.576862 0
M  V30 1212 N 113.436 6.85727 1.5074 0
M  V30 1213 H 118.276 2.91477 -0.620093 0
M  V30 1214 H 115.813 1.43631 -0.317594 0
M  V30 1215 H 117.771 3.81385 1.6912 0
M  V30 1216 H 116.401 2.67799 1.80232 0
M  V30 1217 H 115.453 3.78805 -0.348023 0
M  V30 1218 H 116.765 4.98235 -0.237423 0
M  V30 1219 H 115.919 5.72897 1.99684 0
M  V30 1220 H 114.658 4.46423 1.9636 0
M  V30 1221 H 113.663 5.49715 -0.0968519 0
M  V30 1222 H 114.888 6.79085 -0.0449341 0
M  V30 1223 H 112.834 6.20735 2.12189 0
M  V30 1224 H 112.751 7.49778 0.967913 0
M  V30 1225 H 114.019 7.4906 2.15706 0
M  V30 1226 N 118.248 0.346503 1.53744 0
M  V30 1227 C 119.211 -0.496439 2.23759 0
M  V30 1228 C 120.211 -1.0252 1.2388 0
M  V30 1229 O 121.401 -0.913974 1.48297 0
M  V30 1230 C 118.533 -1.69187 2.95954 0
M  V30 1231 H 119.726 0.115952 2.99676 0
M  V30 1232 H 117.279 0.0978939 1.55993 0
M  V30 1233 H 118.014 -2.34288 2.24231 0
M  V30 1234 H 117.799 -1.31989 3.69217 0
M  V30 1235 H 119.289 -2.28969 3.49232 0
M  V30 1236 N 119.726 -1.57421 0.075193 0
M  V30 1237 C 120.656 -2.15942 -0.888324 0
M  V30 1238 C 121.637 -1.08737 -1.30806 0
M  V30 1239 O 122.822 -1.36787 -1.37851 0
M  V30 1240 C 119.952 -2.72379 -2.1547 0
M  V30 1241 C 118.906 -3.8478 -1.87425 0
M  V30 1242 C 118.232 -4.27834 -3.20721 0
M  V30 1243 C 119.532 -5.08869 -1.17684 0
M  V30 1244 H 121.226 -2.96705 -0.400799 0
M  V30 1245 H 118.772 -1.42723 -0.191342 0
M  V30 1246 H 120.725 -3.11965 -2.83295 0
M  V30 1247 H 119.449 -1.88841 -2.6647 0
M  V30 1248 H 118.108 -3.45703 -1.22004 0
M  V30 1249 H 117.756 -3.41214 -3.6957 0
M  V30 1250 H 117.456 -5.03605 -3.02746 0
M  V30 1251 H 118.98 -4.70039 -3.89738 0
M  V30 1252 H 120.394 -5.4575 -1.75584 0
M  V30 1253 H 118.791 -5.8994 -1.09956 0
M  V30 1254 H 119.861 -4.84648 -0.156453 0
M  V30 1255 N 121.204 0.198386 -1.56346 0
M  V30 1256 C 122.45 0.920648 -1.80698 0
M  V30 1257 C 122.783 1.83045 -0.648697 0
M  V30 1258 O 122.058 1.91308 0.350925 0
M  V30 1259 C 122.341 1.73971 -3.15287 0
M  V30 1260 C 122.194 0.85485 -4.41602 0
M  V30 1261 C 123.513 2.71296 -3.46535 0
M  V30 1262 H 120.632 0.333261 -0.657348 0
M  V30 1263 H 123.274 0.188198 -1.89066 0
M  V30 1264 H 121.424 2.36416 -3.08285 0
M  V30 1265 H 123.096 0.245362 -4.60647 0
M  V30 1266 H 121.339 0.161398 -4.335 0
M  V30 1267 H 122.01 1.46286 -5.32264 0
M  V30 1268 H 124.486 2.18983 -3.53816 0
M  V30 1269 H 123.362 3.2569 -4.41834 0
M  V30 1270 H 123.623 3.5018 -2.69864 0
M  V30 1271 N 122.682 1.50554 0.465978 0
M  V30 1272 C 123.612 1.72722 1.57128 0
M  V30 1273 C 124.593 0.576294 1.6004 0
M  V30 1274 O 125.778 0.81598 1.76225 0
M  V30 1275 C 122.908 1.82605 2.95419 0
M  V30 1276 C 121.862 2.97835 3.07373 0
M  V30 1277 C 121.188 2.92867 4.47363 0
M  V30 1278 C 122.488 4.38265 2.84114 0
M  V30 1279 H 124.182 2.65267 1.38829 0
M  V30 1280 H 121.728 1.2765 0.666441 0
M  V30 1281 H 123.681 1.96698 3.72677 0
M  V30 1282 H 122.405 0.866858 3.14886 0
M  V30 1283 H 121.064 2.83401 2.3255 0
M  V30 1284 H 120.712 1.94783 4.63755 0
M  V30 1285 H 120.412 3.70227 4.56296 0
M  V30 1286 H 121.936 3.09015 5.26633 0
M  V30 1287 H 123.35 4.53198 3.51118 0
M  V30 1288 H 121.747 5.17115 3.04487 0
M  V30 1289 H 122.817 4.50281 1.7993 0
M  V30 1290 N 124.16 -0.719506 1.40217 0
M  V30 1291 C 125.409 -1.47486 1.37589 0
M  V30 1292 C 125.722 -1.9559 -0.0201568 0
M  V30 1293 O 126.928 -2.70973 -0.169049 0
M  V30 1294 C 125.384 -2.66575 2.41796 0
M  V30 1295 C 124.992 -2.25358 3.87192 0
M  V30 1296 C 126.736 -3.4433 2.48269 0
M  V30 1297 C 124.643 -3.41262 4.83005 0
M  V30 1298 H 123.573 -0.553901 0.511576 0
M  V30 1299 H 126.224 -0.783427 1.65936 0
M  V30 1300 H 124.606 -3.3787 2.06543 0
M  V30 1301 H 125.78 -1.61509 4.31569 0
M  V30 1302 H 124.095 -1.60657 3.84159 0
M  V30 1303 H 126.692 -4.30569 3.17041 0
M  V30 1304 H 127.035 -3.87872 1.51198 0
M  V30 1305 H 127.568 -2.80076 2.82493 0
M  V30 1306 H 124.307 -3.02755 5.81394 0
M  V30 1307 H 123.827 -4.0404 4.43297 0
M  V30 1308 H 125.506 -4.07383 5.02641 0
M  V30 1309 N 125.638 -1.25649 -0.95132 0
M  V30 1310 C 126.601 -1.06399 -2.03007 0
M  V30 1311 C 127.601 -0.0156794 -1.60792 0
M  V30 1312 O 128.791 -0.25817 -1.72276 0
M  V30 1313 C 125.923 -0.616184 -3.35285 0
M  V30 1314 H 127.116 -2.02164 -2.21517 0
M  V30 1315 H 124.669 -1.08103 -1.12887 0
M  V30 1316 H 125.404 0.343917 -3.22471 0
M  V30 1317 H 125.189 -1.37301 -3.67275 0
M  V30 1318 H 126.679 -0.503032 -4.14559 0
M  V30 1319 N 127.117 1.15442 -1.07289 0
M  V30 1320 C 128.364 1.86213 -0.795668 0
M  V30 1321 C 128.692 1.82291 0.678238 0
M  V30 1322 O 127.947 1.24057 1.51355 0
M  V30 1323 C 128.246 3.3489 -1.24834 0
M  V30 1324 C 127.912 3.59007 -2.72809 0
M  V30 1325 C 126.574 3.65298 -3.13227 0
M  V30 1326 C 128.926 3.68762 -3.68326 0
M  V30 1327 C 126.254 3.78854 -4.4798 0
M  V30 1328 C 128.606 3.83842 -5.0284 0
M  V30 1329 C 127.27 3.88378 -5.4288 0
M  V30 1330 H 126.54 0.681403 -0.291155 0
M  V30 1331 H 129.187 1.36435 -1.34379 0
M  V30 1332 H 127.492 3.8687 -0.619595 0
M  V30 1333 H 129.189 3.88052 -1.01076 0
M  V30 1334 H 125.779 3.5475 -2.40521 0
M  V30 1335 H 129.963 3.63202 -3.38227 0
M  V30 1336 H 125.219 3.80623 -4.78472 0
M  V30 1337 H 129.393 3.90332 -5.76727 0
M  V30 1338 H 127.02 3.98635 -6.47298 0
M  V30 1339 N 128.595 0.856903 1.32268 0
M  V30 1340 C 129.558 0.308171 2.27119 0
M  V30 1341 C 130.558 -0.533421 1.51695 0
M  V30 1342 O 131.748 -0.344607 1.70757 0
M  V30 1343 C 128.88 -0.563757 3.36206 0
M  V30 1344 H 130.073 1.14535 2.77167 0
M  V30 1345 H 127.626 0.631421 1.42978 0
M  V30 1346 H 128.361 -1.42266 2.91429 0
M  V30 1347 H 128.146 0.0386749 3.92081 0
M  V30 1348 H 129.636 -0.940386 4.06874 0
M  V30 1349 N 130.073 -1.45103 0.615059 0
M  V30 1350 C 131.005 -2.28786 -0.13762 0
M  V30 1351 C 132.018 -1.40376 -0.824525 0
M  V30 1352 O 133.207 -1.64681 -0.688662 0
M  V30 1353 C 130.307 -3.16322 -1.21628 0
M  V30 1354 C 129.48 -4.33054 -0.615039 0
M  V30 1355 C 128.539 -5.01743 -1.58556 0
M  V30 1356 O 127.565 -5.58293 -1.10895 0
M  V30 1357 N 128.767 -5.01714 -2.91998 0
M  V30 1358 H 131.532 -2.94025 0.580483 0
M  V30 1359 H 129.093 -1.55373 0.45507 0
M  V30 1360 H 131.085 -3.59139 -1.86552 0
M  V30 1361 H 129.655 -2.52943 -1.83681 0
M  V30 1362 H 128.875 -3.93627 0.21245 0
M  V30 1363 H 130.163 -5.08431 -0.193704 0
M  V30 1364 H 129.561 -4.57075 -3.33316 0
M  V30 1365 H 128.118 -5.48371 -3.52325 0
M  V30 1366 N 131.551 -0.354651 -1.53558 0
M  V30 1367 C 132.781 0.239167 -2.05211 0
M  V30 1368 C 133.189 1.43879 -1.22863 0
M  V30 1369 O 132.532 1.81857 -0.259565 0
M  V30 1370 C 132.594 0.707251 -3.52474 0
M  V30 1371 C 132.258 -0.374212 -4.55465 0
M  V30 1372 C 133.255 -1.22054 -5.0537 0
M  V30 1373 C 130.94 -0.531323 -4.99482 0
M  V30 1374 C 132.934 -2.20942 -5.97882 0
M  V30 1375 C 130.621 -1.52358 -5.91802 0
M  V30 1376 C 131.619 -2.36108 -6.40892 0
M  V30 1377 O 131.307 -3.33643 -7.31394 0
M  V30 1378 H 131.039 0.0479716 -0.674296 0
M  V30 1379 H 133.593 -0.508121 -1.99016 0
M  V30 1380 H 131.823 1.50596 -3.56171 0
M  V30 1381 H 133.512 1.22285 -3.87042 0
M  V30 1382 H 134.278 -1.1103 -4.7212 0
M  V30 1383 H 130.157 0.110738 -4.60867 0
M  V30 1384 H 133.701 -2.86348 -6.36121 0
M  V30 1385 H 129.598 -1.63434 -6.24467 0
M  V30 1386 H 130.366 -3.29244 -7.4936 0
M  V30 1387 N 133.029 1.57378 -0.0835403 0
M  V30 1388 C 133.959 2.1641 0.87686 0
M  V30 1389 C 134.94 1.09429 1.30228 0
M  V30 1390 O 136.125 1.37516 1.37124 0
M  V30 1391 C 133.255 2.73517 2.14022 0
M  V30 1392 C 132.209 3.85769 1.85381 0
M  V30 1393 C 131.535 4.29529 3.18448 0
M  V30 1394 C 132.835 5.09486 1.14984 0
M  V30 1395 H 134.529 2.96914 0.385059 0
M  V30 1396 H 132.075 1.42823 0.18377 0
M  V30 1397 H 134.028 3.13463 2.81636 0
M  V30 1398 H 132.752 1.90252 2.65465 0
M  V30 1399 H 131.411 3.46345 1.20169 0
M  V30 1400 H 131.059 3.43169 3.67755 0
M  V30 1401 H 130.759 5.05204 3.00071 0
M  V30 1402 H 132.283 4.72099 3.8724 0
M  V30 1403 H 133.697 5.46674 1.72687 0
M  V30 1404 H 132.094 5.90515 1.06826 0
M  V30 1405 H 133.164 4.84724 0.130749 0
M  V30 1406 N 134.507 -0.190092 1.56449 0
M  V30 1407 C 135.439 -1.25973 1.91477 0
M  V30 1408 C 136.452 -1.41452 0.805931 0
M  V30 1409 O 137.641 -1.41789 1.08435 0
M  V30 1410 C 134.741 -2.63117 2.13594 0
M  V30 1411 C 133.914 -2.69182 3.4476 0
M  V30 1412 C 132.973 -3.87557 3.5593 0
M  V30 1413 O 131.999 -3.74427 4.28711 0
M  V30 1414 N 133.201 -5.03224 2.89388 0
M  V30 1415 H 135.966 -0.962394 2.83828 0
M  V30 1416 H 133.527 -0.379981 1.57378 0
M  V30 1417 H 135.519 -3.40742 2.1835 0
M  V30 1418 H 134.089 -2.85319 1.27719 0
M  V30 1419 H 133.309 -1.77793 3.51828 0
M  V30 1420 H 134.597 -2.70229 4.31107 0
M  V30 1421 H 133.995 -5.16791 2.30094 0
M  V30 1422 H 132.552 -5.78778 2.99764 0
M  V30 1423 N 135.985 -1.50799 -0.457987 0
M  V30 1424 C 136.917 -1.66786 -1.57211 0
M  V30 1425 C 137.93 -0.548962 -1.53265 0
M  V30 1426 O 139.119 -0.8226 -1.58416 0
M  V30 1427 C 136.219 -1.64834 -2.96113 0
M  V30 1428 C 135.392 -2.92971 -3.24787 0
M  V30 1429 C 134.451 -2.83485 -4.43309 0
M  V30 1430 O 133.477 -3.5744 -4.42973 0
M  V30 1431 N 134.679 -1.97929 -5.45714 0
M  V30 1432 H 137.444 -2.62889 -1.43909 0
M  V30 1433 H 135.005 -1.48427 -0.646617 0
M  V30 1434 H 136.997 -1.56084 -3.7339 0
M  V30 1435 H 135.567 -0.764118 -3.03117 0
M  V30 1436 H 134.787 -3.15749 -2.36 0
M  V30 1437 H 136.075 -3.77834 -3.40762 0
M  V30 1438 H 135.473 -1.37182 -5.48815 0
M  V30 1439 H 134.03 -1.95073 -6.21924 0
M  V30 1440 N 137.463 0.71206 -1.40597 0
M  V30 1441 C 138.703 1.48438 -1.40519 0
M  V30 1442 C 139.067 1.91998 -0.00767611 0
M  V30 1443 O 140.268 2.6854 0.118239 0
M  V30 1444 C 138.539 2.67514 -2.37004 0
M  V30 1445 S 140.098 3.56875 -2.55315 0
M  V30 1446 H 136.916 0.507457 -0.498005 0
M  V30 1447 H 139.518 0.832355 -1.76896 0
M  V30 1448 H 138.222 2.33689 -3.37368 0
M  V30 1449 H 137.753 3.37625 -2.01923 0
M  V30 1450 H 139.768 4.62081 -1.8082 0
M  V30 1451 N 138.941 1.26152 0.944643 0
M  V30 1452 C 140.352 1.10454 1.50522 0
M  V30 1453 C 140.703 -0.31635 1.93633 0
M  V30 1454 O 139.828 -1.20746 1.79581 0
M  V30 1455 C 140.423 1.99891 2.73549 0
M  V30 1456 C 138.982 1.88348 3.25886 0
M  V30 1457 C 138.129 1.93447 1.9868 0
M  V30 1458 H 141.08 1.39292 0.760489 0
M  V30 1459 H 141.101 1.54477 3.47732 0
M  V30 1460 H 140.613 3.03297 2.42141 0
M  V30 1461 H 138.714 0.878636 3.62092 0
M  V30 1462 H 138.827 2.73696 3.93227 0
M  V30 1463 H 137.191 1.37456 2.14425 0
M  V30 1464 H 137.974 2.98476 1.69607 0
M  V30 1465 N 140.419 -1.14872 1.07899 0
M  V30 1466 C 141.666 -1.85789 0.805532 0
M  V30 1467 C 141.994 -1.82649 -0.668561 0
M  V30 1468 O 141.249 -1.24858 -1.50695 0
M  V30 1469 C 141.548 -3.34223 1.26609 0
M  V30 1470 C 141.214 -3.57555 2.74709 0
M  V30 1471 C 139.876 -3.63631 3.1516 0
M  V30 1472 C 142.228 -3.66803 3.70277 0
M  V30 1473 C 139.556 -3.76473 4.49983 0
M  V30 1474 C 141.908 -3.8117 5.04869 0
M  V30 1475 C 140.572 -3.85494 5.44932 0
M  V30 1476 H 139.842 -0.679849 0.294765 0
M  V30 1477 H 142.489 -1.3572 1.35101 0
M  V30 1478 H 140.794 -3.86536 0.640103 0
M  V30 1479 H 142.491 -3.87511 1.03132 0
M  V30 1480 H 139.081 -3.5347 2.42398 0
M  V30 1481 H 143.265 -3.61404 3.40149 0
M  V30 1482 H 138.521 -3.7808 4.80484 0
M  V30 1483 H 142.695 -3.87268 5.78789 0
M  V30 1484 H 140.322 -3.95197 6.49403 0
M  V30 1485 N 141.898 -0.863906 -1.31812 0
M  V30 1486 C 142.808 -0.318461 -2.32428 0
M  V30 1487 C 143.824 0.568496 -1.64451 0
M  V30 1488 O 145 0.46666 -1.95919 0
M  V30 1489 C 142.065 0.476355 -3.43412 0
M  V30 1490 C 141.126 -0.43784 -4.27061 0
M  V30 1491 C 140.359 0.319138 -5.32745 0
M  V30 1492 O 140.582 1.54799 -5.48993 0
M  V30 1493 O 139.516 -0.319861 -6.01049 0
M  V30 1494 H 143.342 -1.15229 -2.80991 0
M  V30 1495 H 140.927 -0.627103 -1.35602 0
M  V30 1496 H 142.809 0.927156 -4.11074 0
M  V30 1497 H 141.484 1.28683 -2.97022 0
M  V30 1498 H 140.391 -0.937013 -3.62175 0
M  V30 1499 H 141.724 -1.21375 -4.77 0
M  V30 1500 N 143.376 1.44774 -0.622745 0
M  V30 1501 C 144.653 1.95522 -0.0551974 0
M  V30 1502 C 145.033 1.5649 1.41683 0
M  V30 1503 O 144.381 0.834848 2.12703 0
M  V30 1504 C 144.591 3.4796 -0.269242 0
M  V30 1505 C 145.939 4.24306 -0.158014 0
M  V30 1506 O 146.963 3.55637 -0.200162 0
M  V30 1507 O 145.822 5.46471 -0.0558693 0
M  V30 1508 H 142.916 0.826556 0.0271015 0
M  V30 1509 H 145.462 1.54866 -0.693864 0
M  V30 1510 H 144.234 3.6939 -1.29099 0
M  V30 1511 H 143.857 3.95543 0.403966 0
M  V30 1512 N 144.854 0.36279 1.53368 0
M  V30 1513 C 145.804 -0.501391 2.22419 0
M  V30 1514 C 146.788 -1.0509 1.2184 0
M  V30 1515 O 147.98 -0.981404 1.47301 0
M  V30 1516 C 145.109 -1.64201 3.01484 0
M  V30 1517 C 144.195 -1.10552 4.09438 0
M  V30 1518 N 144.586 -0.291788 5.04958 0
M  V30 1519 C 142.884 -1.3806 4.24094 0
M  V30 1520 C 143.585 0.00162655 5.817 0
M  V30 1521 N 142.561 -0.595244 5.40331 0
M  V30 1522 H 146.363 0.127159 2.93625 0
M  V30 1523 H 143.877 0.170658 1.61501 0
M  V30 1524 H 145.874 -2.27326 3.49469 0
M  V30 1525 H 144.534 -2.27365 2.31809 0
M  V30 1526 H 145.545 0.0687731 5.17854 0
M  V30 1527 H 142.222 -2.01522 3.65644 0
M  V30 1528 H 143.612 0.659278 6.68658 0
M  V30 1529 N 146.332 -1.57332 0.0918853 0
M  V30 1530 C 147.578 -1.94524 -0.573425 0
M  V30 1531 C 147.911 -0.973578 -1.68033 0
M  V30 1532 O 147.186 -0.00609226 -1.94499 0
M  V30 1533 C 147.469 -3.41858 -1.13161 0
M  V30 1534 C 147.322 -4.4979 -0.0299747 0
M  V30 1535 C 148.641 -3.90435 -2.03098 0
M  V30 1536 H 145.76 -0.70734 -0.206975 0
M  V30 1537 H 148.402 -1.89309 0.161942 0
M  V30 1538 H 146.552 -3.46433 -1.7583 0
M  V30 1539 H 148.224 -4.57327 0.604112 0
M  V30 1540 H 146.467 -4.291 0.636833 0
M  V30 1541 H 147.138 -5.50069 -0.461287 0
M  V30 1542 H 149.614 -3.87992 -1.50338 0
M  V30 1543 H 148.49 -4.94097 -2.39081 0
M  V30 1544 H 148.751 -3.29541 -2.94712 0
M  V30 1545 N 147.81 0.181792 -1.56548 0
M  V30 1546 C 148.757 1.22521 -1.95595 0
M  V30 1547 C 149.727 1.4454 -0.818373 0
M  V30 1548 O 150.912 1.57454 -1.07763 0
M  V30 1549 C 148.052 2.56193 -2.31212 0
M  V30 1550 C 147.165 2.41641 -3.58097 0
M  V30 1551 C 146.3 3.68108 -3.82975 0
M  V30 1552 C 145.339 3.48445 -5.03242 0
M  V30 1553 N 144.476 4.66956 -5.24306 0
M  V30 1554 H 149.316 0.885226 -2.84548 0
M  V30 1555 H 146.853 0.425718 -1.40805 0
M  V30 1556 H 148.811 3.34088 -2.49882 0
M  V30 1557 H 147.441 2.88208 -1.45382 0
M  V30 1558 H 146.493 1.54976 -3.474 0
M  V30 1559 H 147.805 2.23052 -4.46149 0
M  V30 1560 H 146.959 4.54441 -4.01956 0
M  V30 1561 H 145.698 3.89666 -2.93278 0
M  V30 1562 H 144.703 2.60499 -4.8417 0
M  V30 1563 H 145.928 3.2832 -5.9446 0
M  V30 1564 H 143.874 4.88752 -4.37559 0
M  V30 1565 H 143.791 4.51242 -6.06561 0
M  V30 1566 H 145.059 5.54602 -5.47756 0
M  V30 1567 N 149.288 1.51039 0.449983 0
M  V30 1568 C 150.218 1.74379 1.55288 0
M  V30 1569 C 151.199 0.593236 1.5942 0
M  V30 1570 O 152.384 0.834625 1.7535 0
M  V30 1571 C 149.514 1.85728 2.93466 0
M  V30 1572 C 148.468 3.01078 3.04197 0
M  V30 1573 C 147.794 2.97595 4.44231 0
M  V30 1574 C 149.094 4.41254 2.7945 0
M  V30 1575 H 150.788 2.66725 1.36008 0
M  V30 1576 H 148.334 1.2835 0.652864 0
M  V30 1577 H 150.287 2.0064 3.70569 0
M  V30 1578 H 149.011 0.900207 3.13949 0
M  V30 1579 H 147.67 2.85851 2.29531 0
M  V30 1580 H 147.318 1.99691 4.61663 0
M  V30 1581 H 147.018 3.75046 4.52343 0
M  V30 1582 H 148.542 3.14583 5.23326 0
M  V30 1583 H 149.956 4.56897 3.46292 0
M  V30 1584 H 148.353 5.20315 2.98985 0
M  V30 1585 H 149.423 4.52164 1.75144 0
M  V30 1586 N 150.766 -0.704594 1.40972 0
M  V30 1587 C 152.012 -1.46675 1.40051 0
M  V30 1588 C 152.345 -1.94199 0.00641102 0
M  V30 1589 O 151.62 -1.68916 -0.964235 0
M  V30 1590 C 151.903 -2.68505 2.39952 0
M  V30 1591 C 151.756 -2.26805 3.88432 0
M  V30 1592 C 153.075 -3.70686 2.37233 0
M  V30 1593 H 150.194 -0.532015 0.510028 0
M  V30 1594 H 152.836 -0.803255 1.72185 0
M  V30 1595 H 150.986 -3.25114 2.1268 0
M  V30 1596 H 152.658 -1.75592 4.26574 0
M  V30 1597 H 150.901 -1.58685 4.03734 0
M  V30 1598 H 151.572 -3.14181 4.53866 0
M  V30 1599 H 154.048 -3.23731 2.61415 0
M  V30 1600 H 152.924 -4.53553 3.09162 0
M  V30 1601 H 153.185 -4.19754 1.38777 0
M  V30 1602 N 152.244 -1.26651 -0.937939 0
M  V30 1603 C 153.192 -1.08308 -2.05845 0
M  V30 1604 C 154.186 -0.0090757 -1.69398 0
M  V30 1605 O 155.392 -0.166007 -1.79233 0
M  V30 1606 H 151.767 -0.333416 -0.674046 0
M  V30 1607 H 153.738 -2.03261 -2.18467 0
M  V30 1608 C 152.487 -0.736229 -3.39816 0
M  V30 1609 H 151.81 -1.55453 -3.6834 0
M  V30 1610 H 153.25 -0.64769 -4.19024 0
M  V30 1611 C 151.709 0.558824 -3.32233 0
M  V30 1612 O 152.239 1.59621 -3.68624 0
M  V30 1613 N 150.445 0.550657 -2.85335 0
M  V30 1614 H 149.992 -0.293943 -2.55917 0
M  V30 1615 H 149.95 1.41726 -2.80644 0
M  V30 1616 N 153.722 1.14298 -1.08507 0
M  V30 1617 C 154.632 2.23027 -0.727753 0
M  V30 1618 C 155.648 1.71952 0.26619 0
M  V30 1619 O 156.824 2.011 0.109882 0
M  V30 1620 C 153.889 3.46403 -0.143541 0
M  V30 1621 C 152.95 4.12413 -1.19223 0
M  V30 1622 C 152.183 5.29899 -0.635798 0
M  V30 1623 O 152.406 5.67796 0.544393 0
M  V30 1624 O 151.34 5.85717 -1.38634 0
M  V30 1625 H 155.166 2.55945 -1.63481 0
M  V30 1626 H 152.751 1.22248 -0.858817 0
M  V30 1627 H 154.633 4.21018 0.179404 0
M  V30 1628 H 153.308 3.15206 0.736659 0
M  V30 1629 H 152.215 3.39667 -1.56772 0
M  V30 1630 H 153.548 4.47718 -2.04474 0
M  V30 1631 N 155.201 0.870884 1.31352 0
M  V30 1632 C 156.447 0.482987 1.96965 0
M  V30 1633 C 156.78 -0.962462 1.68672 0
M  V30 1634 O 156.055 -1.6779 0.98371 0
M  V30 1635 C 156.338 0.741752 3.52378 0
M  V30 1636 C 156.191 2.2368 3.9024 0
M  V30 1637 C 157.51 0.208838 4.39604 0
M  V30 1638 H 154.629 0.176955 0.715441 0
M  V30 1639 H 157.271 1.09229 1.55464 0
M  V30 1640 H 155.421 0.223149 3.87859 0
M  V30 1641 H 157.093 2.82273 3.64856 0
M  V30 1642 H 155.336 2.70901 3.38814 0
M  V30 1643 H 156.007 2.3685 4.98604 0
M  V30 1644 H 158.483 0.652529 4.10952 0
M  V30 1645 H 157.359 0.419336 5.47296 0
M  V30 1646 H 157.62 -0.889275 4.33064 0
M  V30 1647 N 156.679 -1.44442 0.630414 0
M  V30 1648 C 157.907 -2.06414 0.141671 0
M  V30 1649 C 158.322 -1.47105 -1.18345 0
M  V30 1650 O 157.679 -0.593662 -1.72574 0
M  V30 1651 C 157.73 -3.61494 0.0199784 0
M  V30 1652 O 157.451 -4.18594 1.29269 0
M  V30 1653 C 158.952 -4.40499 -0.497544 0
M  V30 1654 H 156.172 -0.666292 0.0793452 0
M  V30 1655 H 158.716 -1.85323 0.864614 0
M  V30 1656 H 156.871 -3.8185 -0.653402 0
M  V30 1657 H 157.285 -5.12026 1.13707 0
M  V30 1658 H 158.759 -5.49433 -0.531708 0
M  V30 1659 H 159.236 -4.11895 -1.52445 0
M  V30 1660 H 159.842 -4.25061 0.142562 0
M  V30 1661 N 158.157 -0.370918 -1.53173 0
M  V30 1662 C 159.067 0.480823 -2.2962 0
M  V30 1663 C 160.083 1.08789 -1.35798 0
M  V30 1664 O 161.259 1.09768 -1.68858 0
M  V30 1665 C 158.324 1.60227 -3.07454 0
M  V30 1666 C 157.385 1.0222 -4.16953 0
M  V30 1667 C 156.618 2.0902 -4.91066 0
M  V30 1668 O 156.841 3.30222 -4.65091 0
M  V30 1669 O 155.775 1.71778 -5.76867 0
M  V30 1670 H 159.601 -0.141421 -3.03371 0
M  V30 1671 H 157.186 -0.135146 -1.48787 0
M  V30 1672 H 159.068 2.25417 -3.56041 0
M  V30 1673 H 157.743 2.20982 -2.36535 0
M  V30 1674 H 156.65 0.334064 -3.72605 0
M  V30 1675 H 157.983 0.459131 -4.90054 0
M  V30 1676 N 159.635 1.57281 -0.100228 0
M  V30 1677 C 160.882 1.94537 0.562268 0
M  V30 1678 C 161.21 0.982315 1.67871 0
M  V30 1679 O 160.465 0.00280936 1.957 0
M  V30 1680 C 160.764 3.38305 1.15259 0
M  V30 1681 C 160.43 4.50618 0.159409 0
M  V30 1682 C 159.092 4.81066 -0.113741 0
M  V30 1683 C 161.444 5.18615 -0.518461 0
M  V30 1684 C 158.772 5.76835 -1.07137 0
M  V30 1685 C 161.124 6.15412 -1.46459 0
M  V30 1686 C 159.788 6.44262 -1.74592 0
M  V30 1687 H 159.058 0.711863 0.205748 0
M  V30 1688 H 161.705 1.90679 -0.17715 0
M  V30 1689 H 160.01 3.38766 1.96836 0
M  V30 1690 H 161.707 3.64435 1.67297 0
M  V30 1691 H 158.297 4.2689 0.382491 0
M  V30 1692 H 162.481 4.95264 -0.320581 0
M  V30 1693 H 157.737 5.975 -1.29628 0
M  V30 1694 H 161.911 6.67194 -1.99564 0
M  V30 1695 H 159.538 7.1828 -2.48953 0
M  V30 1696 N 161.113 -0.173488 1.56642 0
M  V30 1697 C 162.076 -1.19859 1.95362 0
M  V30 1698 C 163.076 -1.37296 0.83704 0
M  V30 1699 O 164.266 -1.34739 1.10413 0
M  V30 1700 C 161.398 -2.56405 2.24654 0
M  V30 1701 H 162.591 -0.867062 2.87092 0
M  V30 1702 H 160.144 -0.415853 1.50666 0
M  V30 1703 H 160.879 -2.94576 1.35631 0
M  V30 1704 H 160.664 -2.45115 3.06041 0
M  V30 1705 H 162.154 -3.30287 2.5554 0
M  V30 1706 N 162.591 -1.51276 -0.441967 0
M  V30 1707 C 163.538 -1.72256 -1.53612 0
M  V30 1708 C 164.508 -0.564164 -1.56225 0
M  V30 1709 O 165.693 -0.798074 -1.73307 0
M  V30 1710 C 162.833 -1.84932 -2.91366 0
M  V30 1711 C 161.946 -3.12459 -2.98317 0
M  V30 1712 C 161.081 -3.15758 -4.27166 0
M  V30 1713 C 160.12 -4.37619 -4.27967 0
M  V30 1714 N 159.257 -4.38493 -5.48333 0
M  V30 1715 H 164.097 -2.65654 -1.35026 0
M  V30 1716 H 161.634 -1.31662 -0.656009 0
M  V30 1717 H 163.592 -1.90263 -3.7129 0
M  V30 1718 H 162.222 -0.949461 -3.08521 0
M  V30 1719 H 161.274 -3.1646 -2.11086 0
M  V30 1720 H 162.586 -4.02382 -2.94771 0
M  V30 1721 H 161.74 -3.19979 -5.15459 0
M  V30 1722 H 160.479 -2.23715 -4.33362 0
M  V30 1723 H 159.484 -4.33579 -3.38067 0
M  V30 1724 H 160.709 -5.30921 -4.23438 0
M  V30 1725 H 158.655 -3.49318 -5.55259 0
M  V30 1726 H 158.572 -5.22219 -5.46647 0
M  V30 1727 H 159.84 -4.469 -6.38671 0
M  V30 1728 N 164.069 0.697108 -1.41344 0
M  V30 1729 C 165.297 1.48593 -1.43972 0
M  V30 1730 C 165.712 1.88747 -0.0445612 0
M  V30 1731 O 165.069 1.56682 0.935785 0
M  V30 1732 C 165.12 2.74946 -2.34706 0
M  V30 1733 O 164.841 2.36484 -3.68791 0
M  V30 1734 C 166.342 3.687 -2.46121 0
M  V30 1735 H 163.562 0.457964 -0.490418 0
M  V30 1736 H 166.106 0.858429 -1.8561 0
M  V30 1737 H 164.261 3.33937 -1.9638 0
M  V30 1738 H 164.675 3.17918 -4.17167 0
M  V30 1739 H 166.149 4.54145 -3.13777 0
M  V30 1740 H 166.626 4.13081 -1.49199 0
M  V30 1741 H 167.232 3.15613 -2.85076 0
M  V30 1742 N 165.547 1.27147 0.931209 0
M  V30 1743 C 166.787 1.14511 1.69312 0
M  V30 1744 C 167.151 -0.304638 1.89568 0
M  V30 1745 O 168.352 -0.553343 2.63043 0
M  V30 1746 C 166.623 1.90349 3.02493 0
M  V30 1747 S 168.182 1.93884 3.93642 0
M  V30 1748 H 165 0.408858 0.581684 0
M  V30 1749 H 167.602 1.61006 1.10893 0
M  V30 1750 H 166.306 2.94877 2.85439 0
M  V30 1751 H 165.837 1.44333 3.65966 0
M  V30 1752 H 167.852 1.03273 4.85334 0
M  V30 1753 N 167.025 -1.13721 1.09112 0
M  V30 1754 C 168.271 -1.85198 0.826414 0
M  V30 1755 C 168.604 -1.83129 -0.646319 0
M  V30 1756 O 167.879 -1.2671 -1.47563 0
M  V30 1757 C 168.162 -3.33507 1.35812 0
M  V30 1758 C 168.015 -3.44108 2.89672 0
M  V30 1759 C 169.334 -4.28838 0.989256 0
M  V30 1760 H 166.453 -0.67243 0.301675 0
M  V30 1761 H 169.095 -1.33499 1.35197 0
M  V30 1762 H 167.245 -3.77666 0.911082 0
M  V30 1763 H 168.917 -3.08684 3.428 0
M  V30 1764 H 167.16 -2.85087 3.26967 0
M  V30 1765 H 167.831 -4.48388 3.21951 0
M  V30 1766 H 170.307 -3.92734 1.37475 0
M  V30 1767 H 169.183 -5.31051 1.38838 0
M  V30 1768 H 169.444 -4.4198 -0.102924 0
M  V30 1769 N 168.503 -0.877838 -1.30888 0
M  V30 1770 C 169.466 -0.344265 -2.266 0
M  V30 1771 C 170.466 0.50922 -1.52524 0
M  V30 1772 O 171.656 0.317398 -1.71284 0
M  V30 1773 C 168.788 0.510198 -3.37061 0
M  V30 1774 H 169.981 -1.1893 -2.7531 0
M  V30 1775 H 167.534 -0.654088 -1.41956 0
M  V30 1776 H 168.269 1.37612 -2.93655 0
M  V30 1777 H 168.054 -0.101047 -3.9197 0
M  V30 1778 H 169.544 0.875537 -4.08319 0
M  V30 1779 N 169.982 1.44106 -0.638065 0
M  V30 1780 C 171.259 1.95453 -0.0759321 0
M  V30 1781 C 171.639 1.57984 1.40015 0
M  V30 1782 O 170.987 0.857361 2.11806 0
M  V30 1783 C 171.197 3.47655 -0.306132 0
M  V30 1784 C 172.545 4.24114 -0.203008 0
M  V30 1785 O 173.569 3.55405 -0.237871 0
M  V30 1786 O 172.428 5.46381 -0.113827 0
M  V30 1787 H 169.522 0.826797 0.0183332 0
M  V30 1788 H 172.068 1.54122 -0.710251 0
M  V30 1789 H 170.84 3.68 -1.3301 0
M  V30 1790 H 170.463 3.95949 0.361991 0
M  V30 1791 N 171.46 0.379036 1.52974 0
M  V30 1792 C 172.37 -0.468639 2.29872 0
M  V30 1793 C 173.386 -1.08067 1.36373 0
M  V30 1794 O 174.562 -1.08871 1.69438 0
M  V30 1795 C 171.627 -1.58594 3.083 0
M  V30 1796 C 170.688 -1.00007 4.17489 0
M  V30 1797 C 169.921 -2.06413 4.92168 0
M  V30 1798 O 170.144 -3.27751 4.66835 0
M  V30 1799 O 169.078 -1.68717 5.7777 0
M  V30 1800 H 172.904 0.157508 3.03291 0
M  V30 1801 H 170.489 0.143035 1.48714 0
M  V30 1802 H 172.371 -2.23525 3.57232 0
M  V30 1803 H 171.046 -2.19724 2.37703 0
M  V30 1804 H 169.953 -0.314299 3.72777 0
M  V30 1805 H 171.286 -0.433135 4.90291 0
M  V30 1806 N 172.938 -1.57226 0.108567 0
M  V30 1807 C 174.163 -1.99604 -0.563303 0
M  V30 1808 C 174.588 -0.987563 -1.6009 0
M  V30 1809 O 173.946 0.0421687 -1.81251 0
M  V30 1810 C 173.994 -3.40902 -1.17552 0
M  V30 1811 O 173.098 -3.42896 -2.2912 0
M  V30 1812 H 172.439 -0.648704 -0.1417 0
M  V30 1813 H 174.969 -2.03679 0.193961 0
M  V30 1814 H 174.979 -3.78886 -1.51357 0
M  V30 1815 H 173.654 -4.1382 -0.415445 0
M  V30 1816 H 172.231 -3.1672 -1.96832 0
M  V30 1817 N 174.416 0.165178 -1.56732 0
M  V30 1818 C 175.379 1.18822 -1.95995 0
M  V30 1819 C 176.379 1.3685 -0.84431 0
M  V30 1820 O 177.569 1.34152 -1.11126 0
M  V30 1821 C 174.701 2.5521 -2.26011 0
M  V30 1822 H 175.894 0.851825 -2.87548 0
M  V30 1823 H 173.447 0.407857 -1.50885 0
M  V30 1824 H 174.182 2.93852 -1.37191 0
M  V30 1825 H 173.967 2.43489 -3.07336 0
M  V30 1826 H 175.457 3.28927 -2.57288 0
M  V30 1827 N 175.894 1.51508 0.433938 0
M  V30 1828 C 176.804 1.75917 1.5521 0
M  V30 1829 C 177.82 0.643545 1.61662 0
M  V30 1830 O 178.996 0.926183 1.7884 0
M  V30 1831 C 176.061 1.88213 2.91164 0
M  V30 1832 C 175.122 3.12074 2.94802 0
M  V30 1833 C 174.355 3.23774 4.24271 0
M  V30 1834 O 174.578 2.4133 5.16833 0
M  V30 1835 O 173.512 4.16774 4.34262 0
M  V30 1836 H 177.338 2.70777 1.37527 0
M  V30 1837 H 174.923 1.36051 0.617293 0
M  V30 1838 H 176.805 1.98267 3.71845 0
M  V30 1839 H 175.48 0.965413 3.08968 0
M  V30 1840 H 174.387 3.07497 2.13065 0
M  V30 1841 H 175.72 4.03446 2.81943 0
M  V30 1842 N 177.372 -0.689602 1.41712 0
M  V30 1843 C 178.32 -1.82475 1.44242 0
M  V30 1844 C 179.314 -1.66354 0.319774 0
M  V30 1845 O 180.52 -1.73143 0.492089 0
M  V30 1846 H 176.895 -0.601416 0.451445 0
M  V30 1847 H 178.866 -1.77458 2.39899 0
M  V30 1848 C 177.615 -3.20535 1.3473 0
M  V30 1849 H 176.938 -3.33559 2.20405 0
M  V30 1850 H 178.378 -4.00023 1.40562 0
M  V30 1851 C 176.837 -3.36846 0.0603281 0
M  V30 1852 O 177.367 -3.91656 -0.892663 0
M  V30 1853 N 175.573 -2.90595 -0.0177039 0
M  V30 1854 H 175.12 -2.46178 0.758572 0
M  V30 1855 H 175.078 -3.01886 -0.878201 0
M  V30 1856 N 178.85 -1.27639 -0.924453 0
M  V30 1857 C 180.09 -1.15407 -1.68703 0
M  V30 1858 C 180.454 0.294581 -1.89727 0
M  V30 1859 O 181.655 0.539385 -2.63333 0
M  V30 1860 C 179.926 -1.9195 -3.0148 0
M  V30 1861 S 181.485 -1.95969 -3.92609 0
M  V30 1862 H 178.303 -0.411937 -0.579507 0
M  V30 1863 H 180.905 -1.61592 -1.10038 0
M  V30 1864 H 179.609 -2.96387 -2.83871 0
M  V30 1865 H 179.14 -1.46272 -3.65196 0
M  V30 1866 H 181.155 -1.05846 -4.84779 0
M  V30 1867 N 180.328 1.1314 -1.09713 0
M  V30 1868 C 181.605 1.80762 -0.747302 0
M  V30 1869 C 181.985 1.96663 0.767265 0
M  V30 1870 O 181.333 1.53706 1.69076 0
M  V30 1871 C 181.543 3.15606 -1.48975 0
M  V30 1872 C 182.891 3.90914 -1.65746 0
M  V30 1873 O 183.915 3.25239 -1.45251 0
M  V30 1874 O 182.774 5.08718 -1.9967 0
M  V30 1875 H 179.868 0.782103 -0.268782 0
M  V30 1876 H 182.414 1.20041 -1.19951 0
M  V30 1877 H 181.186 2.99278 -2.52088 0
M  V30 1878 H 180.809 3.84029 -1.02991 0
M  V30 1879 N 181.806 0.884767 1.30421 0
M  V30 1880 C 182.753 0.349642 2.28136 0
M  V30 1881 C 183.723 -0.560061 1.56373 0
M  V30 1882 O 184.908 -0.488524 1.8444 0
M  V30 1883 C 182.048 -0.42999 3.42411 0
M  V30 1884 C 181.161 0.508907 4.28992 0
M  V30 1885 C 180.296 -0.286301 5.30428 0
M  V30 1886 C 179.335 0.648079 6.08659 0
M  V30 1887 N 178.472 -0.111792 7.02011 0
M  V30 1888 H 183.312 1.18807 2.73293 0
M  V30 1889 H 180.849 0.597231 1.3443 0
M  V30 1890 H 182.807 -0.897923 4.07423 0
M  V30 1891 H 181.437 -1.23299 2.98324 0
M  V30 1892 H 180.489 1.09533 3.64289 0
M  V30 1893 H 181.801 1.22475 4.8353 0
M  V30 1894 H 180.955 -0.816098 6.01186 0
M  V30 1895 H 179.694 -1.03536 4.76583 0
M  V30 1896 H 178.699 1.18951 5.36778 0
M  V30 1897 H 179.924 1.39623 6.64592 0
M  V30 1898 H 177.87 -0.843395 6.50556 0
M  V30 1899 H 177.787 0.544429 7.54037 0
M  V30 1900 H 179.055 -0.622339 7.77012 0
M  V30 1901 N 183.284 -1.43765 0.645699 0
M  V30 1902 C 184.509 -2.06767 0.161883 0
M  V30 1903 C 184.934 -1.48034 -1.16049 0
M  V30 1904 O 184.292 -0.587369 -1.71522 0
M  V30 1905 C 184.34 -3.60519 0.0762003 0
M  V30 1906 O 183.444 -4.00982 -0.963721 0
M  V30 1907 H 182.785 -0.657675 0.091429 0
M  V30 1908 H 185.315 -1.84397 0.886499 0
M  V30 1909 H 185.325 -4.07853 -0.109604 0
M  V30 1910 H 184 -4.02646 1.04157 0
M  V30 1911 H 182.577 -3.65253 -0.751312 0
M  V30 1912 N 184.763 -0.387143 -1.52771 0
M  V30 1913 C 185.693 0.440551 -2.29306 0
M  V30 1914 C 186.674 1.06535 -1.32606 0
M  V30 1915 O 187.859 1.07853 -1.61497 0
M  V30 1916 C 184.989 1.56919 -3.09829 0
M  V30 1917 C 183.943 1.07054 -4.14395 0
M  V30 1918 C 183.269 2.29109 -4.83129 0
M  V30 1919 C 184.569 0.140015 -5.22112 0
M  V30 1920 H 186.263 -0.198026 -2.98744 0
M  V30 1921 H 183.809 -0.09668 -1.43675 0
M  V30 1922 H 185.762 2.15503 -3.62128 0
M  V30 1923 H 184.486 2.23532 -2.3812 0
M  V30 1924 H 183.145 0.507247 -3.63074 0
M  V30 1925 H 182.793 2.94227 -4.0797 0
M  V30 1926 H 182.493 1.96406 -5.53804 0
M  V30 1927 H 184.017 2.88339 -5.38231 0
M  V30 1928 H 185.431 0.633978 -5.69784 0
M  V30 1929 H 183.828 -0.0971485 -6.00021 0
M  V30 1930 H 184.898 -0.811711 -4.78058 0
M  V30 1931 N 186.241 1.57166 -0.116904 0
M  V30 1932 C 187.191 2.11756 0.845178 0
M  V30 1933 C 188.175 1.03783 1.22955 0
M  V30 1934 O 189.367 1.3002 1.20099 0
M  V30 1935 C 186.496 2.71886 2.09602 0
M  V30 1936 C 185.582 3.86937 1.7361 0
M  V30 1937 N 185.973 4.94073 1.08284 0
M  V30 1938 C 184.271 3.97082 2.03082 0
M  V30 1939 C 184.972 5.74477 0.913855 0
M  V30 1940 N 183.948 5.2423 1.43818 0
M  V30 1941 H 187.75 2.91967 0.336523 0
M  V30 1942 H 185.264 1.62174 0.0856332 0
M  V30 1943 H 187.261 3.09338 2.79492 0
M  V30 1944 H 185.921 1.93138 2.61013 0
M  V30 1945 H 186.932 5.12483 0.747067 0
M  V30 1946 H 183.609 3.29372 2.56554 0
M  V30 1947 H 184.999 6.70701 0.40125 0
M  V30 1948 N 187.719 -0.156864 1.56817 0
M  V30 1949 C 188.947 -0.886316 1.86955 0
M  V30 1950 C 189.362 -1.75185 0.703975 0
M  V30 1951 O 188.719 -1.79555 -0.326552 0
M  V30 1952 C 188.77 -1.75117 3.16253 0
M  V30 1953 O 188.491 -0.920537 4.2832 0
M  V30 1954 C 189.992 -2.58905 3.59837 0
M  V30 1955 H 187.212 -0.25678 0.619923 0
M  V30 1956 H 189.756 -0.152615 2.0393 0
M  V30 1957 H 187.911 -2.43805 3.01062 0
M  V30 1958 H 188.325 -1.51337 5.02192 0
M  V30 1959 H 189.799 -3.1518 4.53172 0
M  V30 1960 H 190.276 -3.34472 2.84649 0
M  V30 1961 H 190.882 -1.95526 3.7769 0
M  V30 1962 N 189.197 -1.51736 -0.425897 0
M  V30 1963 C 190.127 -1.76827 -1.52494 0
M  V30 1964 C 191.108 -0.618524 -1.58456 0
M  V30 1965 O 192.293 -0.862416 -1.74 0
M  V30 1966 C 189.423 -1.90374 -2.90474 0
M  V30 1967 C 188.377 -3.0588 -2.99369 0
M  V30 1968 C 187.703 -3.04625 -4.3944 0
M  V30 1969 C 189.003 -4.45644 -2.72394 0
M  V30 1970 H 190.697 -2.68855 -1.31748 0
M  V30 1971 H 188.243 -1.29372 -0.632362 0
M  V30 1972 H 190.196 -2.0651 -3.6733 0
M  V30 1973 H 188.92 -0.95004 -3.12477 0
M  V30 1974 H 187.579 -2.89467 -2.24954 0
M  V30 1975 H 187.227 -2.0701 -4.58428 0
M  V30 1976 H 186.927 -3.82195 -4.46319 0
M  V30 1977 H 188.451 -3.22869 -5.18255 0
M  V30 1978 H 189.865 -4.62348 -3.38979 0
M  V30 1979 H 188.262 -5.25006 -2.9067 0
M  V30 1980 H 189.332 -4.54893 -1.67929 0
M  V30 1981 N 190.675 0.682077 -1.42076 0
M  V30 1982 C 191.922 1.44215 -1.42156 0
M  V30 1983 C 192.25 1.94468 -0.0354186 0
M  V30 1984 O 191.505 1.70816 0.955002 0
M  V30 1985 C 191.804 2.66036 -2.38662 0
M  V30 1986 C 191.47 2.34366 -3.85206 0
M  V30 1987 C 190.132 2.25439 -4.25124 0
M  V30 1988 C 192.484 2.08513 -4.77673 0
M  V30 1989 C 189.812 1.88775 -5.55501 0
M  V30 1990 C 192.164 1.73354 -6.08384 0
M  V30 1991 C 190.828 1.62933 -6.47309 0
M  V30 1992 H 190.098 0.527718 -0.520187 0
M  V30 1993 H 192.745 0.778387 -1.74967 0
M  V30 1994 H 191.05 3.3741 -1.99152 0
M  V30 1995 H 192.747 3.24205 -2.35991 0
M  V30 1996 H 189.337 2.42213 -3.53597 0
M  V30 1997 H 193.521 2.14346 -4.47626 0
M  V30 1998 H 188.777 1.7927 -5.84527 0
M  V30 1999 H 192.951 1.52373 -6.79526 0
M  V30 2000 H 190.578 1.34292 -7.48244 0
M  V30 2001 N 192.153 1.28127 0.917671 0
M  V30 2002 C 193.401 1.14825 1.66312 0
M  V30 2003 C 193.722 -0.304379 1.9261 0
M  V30 2004 O 192.992 -1.21149 1.53947 0
M  V30 2005 H 191.572 0.421953 0.616413 0
M  V30 2006 H 194.234 1.608 1.10134 0
M  V30 2007 H 193.33 1.68489 2.62712 0
M  V30 2008 N 193.631 -1.12557 1.10312 0
M  V30 2009 C 194.908 -1.80363 0.756878 0
M  V30 2010 C 195.288 -1.97067 -0.756824 0
M  V30 2011 O 194.636 -1.54601 -1.68259 0
M  V30 2012 C 194.846 -3.14812 1.50647 0
M  V30 2013 C 196.194 -3.90029 1.67817 0
M  V30 2014 O 197.218 -3.24464 1.46974 0
M  V30 2015 O 196.077 -5.07652 2.02365 0
M  V30 2016 H 193.171 -0.780667 0.272926 0
M  V30 2017 H 195.717 -1.19404 1.20586 0
M  V30 2018 H 194.489 -2.97936 2.53672 0
M  V30 2019 H 194.112 -3.83478 1.05026 0
M  V30 2020 N 195.109 -0.891671 -1.2995 0
M  V30 2021 C 196.056 -0.361736 -2.27948 0
M  V30 2022 C 197.026 0.551761 -1.56668 0
M  V30 2023 O 198.211 0.478736 -1.84696 0
M  V30 2024 C 195.351 0.411825 -3.42634 0
M  V30 2025 C 194.464 -0.531651 -4.28716 0
M  V30 2026 C 193.599 0.258167 -5.30572 0
M  V30 2027 C 192.638 -0.680349 -6.08307 0
M  V30 2028 N 191.775 0.0745613 -7.0206 0
M  V30 2029 H 196.615 -1.20254 -2.72659 0
M  V30 2030 H 194.152 -0.604352 -1.34112 0
M  V30 2031 H 196.11 0.876304 -4.07893 0
M  V30 2032 H 194.74 1.21715 -2.98974 0
M  V30 2033 H 193.792 -1.11463 -3.63703 0
M  V30 2034 H 195.104 -1.25038 -4.82874 0
M  V30 2035 H 194.258 0.784204 -6.0161 0
M  V30 2036 H 192.997 1.01008 -4.77126 0
M  V30 2037 H 192.002 -1.21796 -5.3614 0
M  V30 2038 H 193.227 -1.43145 -6.63842 0
M  V30 2039 H 191.173 0.808883 -6.50994 0
M  V30 2040 H 191.09 -0.584409 -7.53738 0
M  V30 2041 H 192.358 0.581123 -7.77331 0
M  V30 2042 N 196.587 1.43421 -0.653314 0
M  V30 2043 C 197.517 2.33487 0.0246656 0
M  V30 2044 C 198.498 1.49475 0.811863 0
M  V30 2045 O 199.683 1.78139 0.773322 0
M  V30 2046 C 196.813 3.32841 0.99166 0
M  V30 2047 C 195.767 4.26842 0.314568 0
M  V30 2048 C 195.093 5.16236 1.39302 0
M  V30 2049 C 196.393 5.16243 -0.793095 0
M  V30 2050 H 198.087 2.90427 -0.727481 0
M  V30 2051 H 195.633 1.39649 -0.351287 0
M  V30 2052 H 197.586 3.94747 1.47487 0
M  V30 2053 H 196.31 2.74158 1.77497 0
M  V30 2054 H 194.969 3.663 -0.148199 0
M  V30 2055 H 194.617 4.53891 2.16776 0
M  V30 2056 H 194.317 5.79948 0.945223 0
M  V30 2057 H 195.841 5.81015 1.87759 0
M  V30 2058 H 197.255 5.71958 -0.392039 0
M  V30 2059 H 195.652 5.88676 -1.16536 0
M  V30 2060 H 196.722 4.55927 -1.65103 0
M  V30 2061 N 198.065 0.39524 1.52563 0
M  V30 2062 C 199.305 -0.184744 2.03563 0
M  V30 2063 C 199.669 -1.43548 1.27507 0
M  V30 2064 O 200.87 -2.093 1.68662 0
M  V30 2065 C 199.141 -0.440294 3.54678 0
M  V30 2066 S 200.7 -0.989712 4.27493 0
M  V30 2067 H 197.518 -0.0515075 0.709132 0
M  V30 2068 H 200.12 0.544957 1.87751 0
M  V30 2069 H 198.824 0.477005 4.07618 0
M  V30 2070 H 198.355 -1.19825 3.74707 0
M  V30 2071 H 200.37 -2.27155 4.41152 0
M  V30 2072 N 199.544 -1.57102 0.125237 0
M  V30 2073 C 200.772 -1.99761 -0.538797 0
M  V30 2074 C 201.187 -1.00503 -1.59827 0
M  V30 2075 O 200.544 0.00119474 -1.825 0
M  V30 2076 C 200.595 -3.42408 -1.15927 0
M  V30 2077 O 200.316 -4.37869 -0.142143 0
M  V30 2078 C 201.817 -4.00232 -1.90602 0
M  V30 2079 H 199.037 -0.655772 -0.14214 0
M  V30 2080 H 201.581 -2.03383 0.213413 0
M  V30 2081 H 199.736 -3.39706 -1.86223 0
M  V30 2082 H 200.15 -5.21128 -0.593775 0
M  V30 2083 H 201.624 -5.02105 -2.29335 0
M  V30 2084 H 202.101 -3.39721 -2.78363 0
M  V30 2085 H 202.707 -4.06499 -1.25055 0
M  V30 2086 N 201.022 0.148545 -1.56898 0
M  V30 2087 C 202.268 0.862694 -1.83536 0
M  V30 2088 C 202.601 1.80889 -0.706604 0
M  V30 2089 O 201.876 1.92328 0.289885 0
M  V30 2090 C 202.159 1.63853 -3.20662 0
M  V30 2091 C 202.012 0.713925 -4.44098 0
M  V30 2092 C 203.331 2.60133 -3.54991 0
M  V30 2093 H 200.45 0.312179 -0.667618 0
M  V30 2094 H 203.092 0.127953 -1.89569 0
M  V30 2095 H 201.242 2.26489 -3.1565 0
M  V30 2096 H 202.914 0.098686 -4.61194 0
M  V30 2097 H 201.157 0.0234019 -4.33794 0
M  V30 2098 H 201.828 1.29278 -5.36648 0
M  V30 2099 H 204.304 2.07616 -3.60603 0
M  V30 2100 H 203.18 3.11468 -4.51972 0
M  V30 2101 H 203.441 3.41417 -2.80868 0
M  V30 2102 N 202.5 1.5196 0.417844 0
M  V30 2103 C 203.463 1.74065 1.49111 0
M  V30 2104 C 204.463 0.610537 1.48758 0
M  V30 2105 O 205.653 0.87832 1.50437 0
M  V30 2106 C 202.785 1.81502 2.88565 0
M  V30 2107 H 203.978 2.69869 1.30807 0
M  V30 2108 H 201.531 1.42244 0.647785 0
M  V30 2109 H 202.266 0.875813 3.1225 0
M  V30 2110 H 202.051 2.63651 2.90225 0
M  V30 2111 H 203.541 2.00376 3.66387 0
M  V30 2112 N 203.978 -0.674533 1.42435 0
M  V30 2113 C 205.206 -1.46283 1.46317 0
M  V30 2114 C 205.621 -1.88653 0.0745836 0
M  V30 2115 O 204.978 -1.58151 -0.91074 0
M  V30 2116 C 205.029 -2.71178 2.3905 0
M  V30 2117 O 204.75 -2.30586 3.72507 0
M  V30 2118 C 206.251 -3.64738 2.51955 0
M  V30 2119 H 203.471 -0.450104 0.497642 0
M  V30 2120 H 206.015 -0.828792 1.86953 0
M  V30 2121 H 204.17 -3.3077 2.01667 0
M  V30 2122 H 204.584 -3.11241 4.22172 0
M  V30 2123 H 206.058 -4.49096 3.20962 0
M  V30 2124 H 206.535 -4.10656 1.55752 0
M  V30 2125 H 207.141 -3.11038 2.90061 0
M  V30 2126 N 205.456 -1.28612 -0.910864 0
M  V30 2127 C 206.386 -1.15326 -2.03032 0
M  V30 2128 C 207.367 -0.0502924 -1.70026 0
M  V30 2129 O 208.552 -0.227797 -1.92859 0
M  V30 2130 C 205.682 -0.817343 -3.37545 0
M  V30 2131 C 204.636 -1.8754 -3.84724 0
M  V30 2132 C 203.962 -1.39305 -5.16235 0
M  V30 2133 C 205.262 -3.28244 -4.06267 0
M  V30 2134 H 206.956 -2.08975 -2.14406 0
M  V30 2135 H 204.502 -1.00612 -1.03021 0
M  V30 2136 H 206.455 -0.711151 -4.15356 0
M  V30 2137 H 205.179 0.154846 -3.26233 0
M  V30 2138 H 203.838 -1.97079 -3.09121 0
M  V30 2139 H 203.486 -0.409846 -5.01328 0
M  V30 2140 H 203.186 -2.10057 -5.48771 0
M  V30 2141 H 204.71 -1.30014 -5.96598 0
M  V30 2142 H 206.124 -3.21611 -4.74594 0
M  V30 2143 H 204.521 -3.96855 -4.5014 0
M  V30 2144 H 205.591 -3.72048 -3.10979 0
M  V30 2145 N 206.934 1.1197 -1.10907 0
M  V30 2146 C 208.35 1.35591 -0.841852 0
M  V30 2147 C 208.55 1.94233 0.536246 0
M  V30 2148 O 207.606 2.1717 1.28816 0
M  V30 2149 C 208.919 2.29284 -1.94549 0
M  V30 2150 C 210.467 2.42862 -1.97451 0
M  V30 2151 C 210.942 3.39873 -3.07002 0
M  V30 2152 N 212.433 3.47433 -3.06341 0
M  V30 2153 C 213.168 4.22421 -3.87748 0
M  V30 2154 N 212.664 5.00432 -4.79103 0
M  V30 2155 N 214.457 4.17876 -3.75946 0
M  V30 2156 H 206.608 0.722664 -1.99728 0
M  V30 2157 H 208.871 0.380635 -0.868229 0
M  V30 2158 H 208.577 1.93378 -2.93765 0
M  V30 2159 H 208.451 3.29452 -1.83688 0
M  V30 2160 H 210.838 2.78046 -0.988645 0
M  V30 2161 H 210.919 1.42566 -2.12388 0
M  V30 2162 H 210.563 3.05417 -4.05811 0
M  V30 2163 H 210.493 4.40011 -2.89306 0
M  V30 2164 H 212.984 2.91784 -2.40147 0
M  V30 2165 H 213.297 5.55002 -5.37766 0
M  V30 2166 H 211.642 4.99612 -4.83128 0
M  V30 2167 H 214.833 3.56016 -3.03924 0
M  V30 2168 H 215.006 4.76061 -4.39624 0
M  V30 2169 N 208.412 0.89855 1.29475 0
M  V30 2170 C 209.322 0.379974 2.31502 0
M  V30 2171 C 210.338 -0.524695 1.659 0
M  V30 2172 O 211.514 -0.414551 1.97087 0
M  V30 2173 C 208.579 -0.385138 3.44554 0
M  V30 2174 C 207.64 0.550914 4.2575 0
M  V30 2175 C 206.873 -0.177778 5.33404 0
M  V30 2176 O 207.096 -1.40189 5.52904 0
M  V30 2177 O 206.03 0.479106 5.9999 0
M  V30 2178 H 209.856 1.22639 2.77837 0
M  V30 2179 H 207.441 0.662834 1.33891 0
M  V30 2180 H 209.323 -0.817841 4.13388 0
M  V30 2181 H 207.998 -1.20763 3.0033 0
M  V30 2182 H 206.905 1.03271 3.59564 0
M  V30 2183 H 208.238 1.33979 4.73614 0
M  V30 2184 N 209.89 -1.43072 0.660911 0
M  V30 2185 C 211.118 -2.06067 0.185422 0
M  V30 2186 C 211.533 -1.49582 -1.15198 0
M  V30 2187 O 210.89 -0.630134 -1.71276 0
M  V30 2188 C 210.941 -3.61371 0.0966523 0
M  V30 2189 O 210.662 -4.15758 1.38119 0
M  V30 2190 C 212.163 -4.41455 -0.403996 0
M  V30 2191 H 209.383 -0.664459 0.0934604 0
M  V30 2192 H 211.927 -1.83447 0.90373 0
M  V30 2193 H 210.082 -3.8315 -0.572259 0
M  V30 2194 H 210.496 -5.09499 1.24542 0
M  V30 2195 H 211.97 -5.50437 -0.415045 0
M  V30 2196 H 212.447 -4.15036 -1.43674 0
M  V30 2197 H 213.053 -4.24663 0.232691 0
M  V30 2198 N 211.368 -0.403325 -1.52352 0
M  V30 2199 C 212.598 0.17376 -2.05868 0
M  V30 2200 C 213.006 1.39898 -1.27378 0
M  V30 2201 O 212.349 1.80939 -0.31729 0
M  V30 2202 C 212.411 0.594756 -3.54546 0
M  V30 2203 C 212.075 -0.518926 -4.54044 0
M  V30 2204 C 213.072 -1.3807 -5.01231 0
M  V30 2205 C 210.757 -0.689961 -4.97539 0
M  V30 2206 C 212.751 -2.39852 -5.90551 0
M  V30 2207 C 210.438 -1.71109 -5.86656 0
M  V30 2208 C 211.436 -2.56378 -6.33056 0
M  V30 2209 O 211.124 -3.56743 -7.20409 0
M  V30 2210 H 210.856 0.0264951 -0.675481 0
M  V30 2211 H 213.41 -0.571179 -1.97299 0
M  V30 2212 H 211.64 1.39189 -3.60782 0
M  V30 2213 H 213.329 1.0991 -3.90736 0
M  V30 2214 H 214.095 -1.25994 -4.68349 0
M  V30 2215 H 209.974 -0.035939 -4.60986 0
M  V30 2216 H 213.518 -3.06441 -6.26689 0
M  V30 2217 H 209.415 -1.83218 -6.18952 0
M  V30 2218 H 210.183 -3.52918 -7.38506 0
M  V30 2219 N 212.846 1.57033 -0.133567 0
M  V30 2220 C 214.094 1.953 0.519848 0
M  V30 2221 C 214.415 1.01866 1.66278 0
M  V30 2222 O 213.685 0.0776513 1.95746 0
M  V30 2223 H 212.265 0.721091 0.195032 0
M  V30 2224 H 214.927 1.93809 -0.205921 0
M  V30 2225 H 214.023 2.98695 0.904854 0
M  V30 2226 N 214.325 -0.140222 1.56975 0
M  V30 2227 C 215.235 -1.19223 2.02047 0
M  V30 2228 C 216.251 -1.46612 0.937062 0
M  V30 2229 O 217.427 -1.58148 1.24704 0
M  V30 2230 C 214.492 -2.50414 2.39778 0
M  V30 2231 C 213.553 -2.30612 3.621 0
M  V30 2232 C 212.786 -3.55547 3.98023 0
M  V30 2233 O 213.009 -4.62004 3.34528 0
M  V30 2234 O 211.943 -3.47808 4.91237 0
M  V30 2235 H 215.769 -0.839559 2.91865 0
M  V30 2236 H 213.354 -0.349453 1.45256 0
M  V30 2237 H 215.236 -3.27747 2.64877 0
M  V30 2238 H 213.911 -2.85198 1.53114 0
M  V30 2239 H 212.818 -1.51207 3.4218 0
M  V30 2240 H 214.151 -2.00741 4.49404 0
M  V30 2241 N 215.803 -1.52179 -0.40978 0
M  V30 2242 C 216.736 -1.70196 -1.52015 0
M  V30 2243 C 217.714 -0.549542 -1.53032 0
M  V30 2244 O 218.898 -0.776815 -1.71749 0
M  V30 2245 C 216.025 -1.74069 -2.90547 0
M  V30 2246 C 215.071 -2.95601 -3.07445 0
M  V30 2247 S 215.904 -4.55956 -2.80827 0
M  V30 2248 C 217.06 -4.62614 -4.21591 0
M  V30 2249 H 217.293 -2.64109 -1.36504 0
M  V30 2250 H 214.826 -1.4221 -0.601312 0
M  V30 2251 H 216.784 -1.76985 -3.70387 0
M  V30 2252 H 215.445 -0.812835 -3.034 0
M  V30 2253 H 214.638 -2.94791 -4.08796 0
M  V30 2254 H 214.24 -2.90569 -2.35469 0
M  V30 2255 H 216.532 -4.39951 -5.15218 0
M  V30 2256 H 217.475 -5.64548 -4.27424 0
M  V30 2257 H 217.883 -3.91654 -4.06531 0
M  V30 2258 N 217.281 0.66697 -1.42791 0
M  V30 2259 C 218.244 1.76211 -1.46568 0
M  V30 2260 C 219.244 1.56896 -0.352196 0
M  V30 2261 O 220.434 1.63044 -0.613364 0
M  V30 2262 C 217.566 3.14935 -1.30494 0
M  V30 2263 H 218.759 1.74247 -2.44086 0
M  V30 2264 H 216.312 0.877342 -1.29354 0
M  V30 2265 H 217.047 3.2252 -0.339301 0
M  V30 2266 H 216.832 3.30359 -2.11199 0
M  V30 2267 H 218.322 3.94821 -1.36038 0
M  V30 2268 N 218.759 1.29093 0.90403 0
M  V30 2269 C 220.036 1.075 1.63411 0
M  V30 2270 C 220.416 -0.382346 2.07609 0
M  V30 2271 O 219.764 -1.37031 1.82851 0
M  V30 2272 C 219.974 2.05858 2.81822 0
M  V30 2273 C 221.322 2.36539 3.52611 0
M  V30 2274 O 222.346 2.04019 2.91984 0
M  V30 2275 O 221.205 2.92085 4.61897 0
M  V30 2276 H 218.299 0.411547 0.717327 0
M  V30 2277 H 220.845 1.40449 0.952479 0
M  V30 2278 H 219.617 3.04037 2.46327 0
M  V30 2279 H 219.24 1.73613 3.57693 0
M  V30 2280 N 220.237 -1.11381 1.11499 0
M  V30 2281 C 221.477 -1.84763 0.874188 0
M  V30 2282 C 221.841 -1.82726 -0.589496 0
M  V30 2283 O 223.042 -2.51562 -0.947089 0
M  V30 2284 C 221.313 -3.27931 1.42112 0
M  V30 2285 S 222.872 -4.18557 1.31739 0
M  V30 2286 H 219.69 -0.637115 0.315603 0
M  V30 2287 H 222.292 -1.34097 1.42261 0
M  V30 2288 H 220.996 -3.26978 2.48019 0
M  V30 2289 H 220.527 -3.83665 0.869761 0
M  V30 2290 H 222.542 -4.95396 0.282335 0
M  V30 2291 N 221.715 -0.905404 -1.28997 0
M  V30 2292 C 222.955 -0.541232 -1.97104 0
M  V30 2293 C 223.319 0.896841 -1.69767 0
M  V30 2294 O 224.52 1.36817 -2.31375 0
M  V30 2295 C 222.791 -0.832134 -3.47578 0
M  V30 2296 S 224.35 -0.573127 -4.35041 0
M  V30 2297 H 221.168 -0.200576 -0.682122 0
M  V30 2298 H 223.77 -1.16906 -1.56694 0
M  V30 2299 H 222.474 -1.87687 -3.64968 0
M  V30 2300 H 222.005 -0.192636 -3.92928 0
M  V30 2301 H 224.02 0.579297 -4.92807 0
M  V30 2302 N 223.193 1.4272 -0.668489 0
M  V30 2303 C 224.156 2.292 0.00448567 0
M  V30 2304 C 225.156 1.43001 0.735339 0
M  V30 2305 O 226.346 1.64461 0.57429 0
M  V30 2306 C 223.478 3.25375 1.01705 0
M  V30 2307 H 224.671 2.90199 -0.756608 0
M  V30 2308 H 222.224 1.50254 -0.430506 0
M  V30 2309 H 222.959 2.69301 1.80686 0
M  V30 2310 H 222.744 3.88944 0.496463 0
M  V30 2311 H 224.234 3.90245 1.48655 0
M  V30 2312 N 224.671 0.411399 1.52136 0
M  V30 2313 C 225.618 -0.412975 2.27075 0
M  V30 2314 C 226.588 -1.03912 1.29582 0
M  V30 2315 O 227.773 -1.06296 1.58448 0
M  V30 2316 C 224.913 -1.52247 3.09701 0
M  V30 2317 C 224.026 -0.917021 4.22155 0
M  V30 2318 C 223.161 -1.9994 4.92135 0
M  V30 2319 C 222.2 -1.37101 5.96548 0
M  V30 2320 N 221.337 -2.39364 6.60038 0
M  V30 2321 H 226.177 0.232499 2.97092 0
M  V30 2322 H 223.714 0.126496 1.46555 0
M  V30 2323 H 225.672 -2.17674 3.55913 0
M  V30 2324 H 224.302 -2.13794 2.41851 0
M  V30 2325 H 223.354 -0.151742 3.80097 0
M  V30 2326 H 224.666 -0.418006 4.97045 0
M  V30 2327 H 223.82 -2.73088 5.41763 0
M  V30 2328 H 222.559 -2.53208 4.16818 0
M  V30 2329 H 221.564 -0.624873 5.46237 0
M  V30 2330 H 222.789 -0.845998 6.7381 0
M  V30 2331 H 220.735 -2.91759 5.87548 0
M  V30 2332 H 220.652 -1.9428 7.3061 0
M  V30 2333 H 221.92 -3.12074 7.14304 0
M  V30 2334 N 226.149 -1.5696 0.141893 0
M  V30 2335 C 227.081 -2.13619 -0.830627 0
M  V30 2336 C 228.094 -1.08439 -1.21428 0
M  V30 2337 O 229.283 -1.35734 -1.15925 0
M  V30 2338 C 226.383 -2.63978 -2.12529 0
M  V30 2339 C 225.556 -3.93504 -1.9098 0
M  V30 2340 C 224.615 -4.29225 -3.04388 0
M  V30 2341 O 223.641 -4.97641 -2.76302 0
M  V30 2342 N 224.843 -3.88393 -4.31429 0
M  V30 2343 H 227.608 -2.97691 -0.34641 0
M  V30 2344 H 225.169 -1.61846 -0.0418375 0
M  V30 2345 H 227.161 -2.84891 -2.87436 0
M  V30 2346 H 225.731 -1.84659 -2.52229 0
M  V30 2347 H 224.951 -3.81269 -1.00139 0
M  V30 2348 H 226.239 -4.78154 -1.73914 0
M  V30 2349 H 225.637 -3.33257 -4.57117 0
M  V30 2350 H 224.194 -4.14368 -5.03133 0
M  V30 2351 N 227.627 0.131896 -1.57047 0
M  V30 2352 C 228.537 1.1815 -2.02676 0
M  V30 2353 C 229.553 1.46113 -0.944824 0
M  V30 2354 O 230.729 1.57485 -1.25541 0
M  V30 2355 C 227.794 2.49139 -2.41103 0
M  V30 2356 C 226.855 2.28688 -3.63318 0
M  V30 2357 C 226.088 3.53431 -3.99903 0
M  V30 2358 O 226.311 4.60223 -3.36973 0
M  V30 2359 O 225.245 3.45198 -4.93074 0
M  V30 2360 H 229.071 0.824069 -2.92306 0
M  V30 2361 H 226.656 0.341745 -1.45439 0
M  V30 2362 H 228.538 3.26338 -2.66611 0
M  V30 2363 H 227.213 2.84382 -1.54624 0
M  V30 2364 H 226.12 1.4939 -3.42977 0
M  V30 2365 H 227.453 1.98355 -4.50462 0
M  V30 2366 N 229.106 1.52395 0.401703 0
M  V30 2367 C 230.517 1.58899 0.980202 0
M  V30 2368 C 230.868 0.434032 1.91339 0
M  V30 2369 O 229.993 -0.444619 2.11783 0
M  V30 2370 C 230.588 2.87994 1.78451 0
M  V30 2371 C 229.147 2.96953 2.31292 0
M  V30 2372 C 228.294 2.53903 1.11483 0
M  V30 2373 H 231.245 1.57657 0.18168 0
M  V30 2374 H 231.266 2.73765 2.64259 0
M  V30 2375 H 230.778 3.72035 1.10506 0
M  V30 2376 H 228.879 2.17422 3.02586 0
M  V30 2377 H 228.992 4.01344 2.61649 0
M  V30 2378 H 227.356 2.07925 1.47104 0
M  V30 2379 H 228.139 3.40326 0.450928 0
M  V30 2380 N 230.584 -0.659388 1.43143 0
M  V30 2381 C 231.494 -1.80167 1.50256 0
M  V30 2382 C 232.51 -1.69571 0.390106 0
M  V30 2383 O 233.686 -1.90849 0.643319 0
M  V30 2384 C 230.751 -3.16409 1.41725 0
M  V30 2385 C 229.812 -3.38848 2.63591 0
M  V30 2386 C 229.045 -4.68591 2.55458 0
M  V30 2387 O 229.268 -5.47532 1.59891 0
M  V30 2388 O 228.202 -4.92614 3.45854 0
M  V30 2389 H 232.028 -1.77121 2.46702 0
M  V30 2390 H 229.613 -0.817092 1.25076 0
M  V30 2391 H 231.495 -3.9768 1.39387 0
M  V30 2392 H 230.17 -3.20059 0.484118 0
M  V30 2393 H 229.077 -2.57366 2.71502 0
M  V30 2394 H 230.41 -3.4004 3.55856 0
M  V30 2395 N 232.062 -1.29571 -0.897171 0
M  V30 2396 C 233.478 -1.07637 -1.17841 0
M  V30 2397 C 233.678 0.170713 -2.00776 0
M  V30 2398 O 232.734 0.867768 -2.3712 0
M  V30 2399 C 234.047 -2.3332 -1.8969 0
M  V30 2400 C 235.595 -2.38664 -2.02505 0
M  V30 2401 C 236.07 -3.64157 -2.77765 0
M  V30 2402 N 237.561 -3.64894 -2.85318 0
M  V30 2403 C 238.296 -4.58679 -3.44094 0
M  V30 2404 N 237.792 -5.62799 -4.04017 0
M  V30 2405 N 239.585 -4.46245 -3.41793 0
M  V30 2406 H 231.736 -2.09598 -0.343883 0
M  V30 2407 H 233.999 -0.923333 -0.214848 0
M  V30 2408 H 233.705 -3.24262 -1.36187 0
M  V30 2409 H 233.579 -2.41025 -2.9015 0
M  V30 2410 H 235.966 -1.48208 -2.55183 0
M  V30 2411 H 236.047 -2.34943 -1.01171 0
M  V30 2412 H 235.691 -4.54965 -2.25763 0
M  V30 2413 H 235.621 -3.65137 -3.7945 0
M  V30 2414 H 238.112 -2.89613 -2.42761 0
M  V30 2415 H 238.425 -6.3048 -4.46895 0
M  V30 2416 H 236.77 -5.66605 -4.02472 0
M  V30 2417 H 239.961 -3.64094 -2.94199 0
M  V30 2418 H 240.134 -5.19518 -3.87304 0
M  V30 2419 N 233.54 1.10788 -1.12088 0
M  V30 2420 C 234.488 2.19111 -0.780587 0
M  V30 2421 C 235.482 1.67818 0.230961 0
M  V30 2422 O 236.688 1.79777 0.0895427 0
M  V30 2423 H 233.063 0.714477 -0.234578 0
M  V30 2424 H 235.034 2.45055 -1.70266 0
M  V30 2425 C 233.783 3.46818 -0.24747 0
M  V30 2426 H 233.106 3.86646 -1.01712 0
M  V30 2427 H 234.546 4.23973 -0.0476291 0
M  V30 2428 C 233.005 3.20968 1.02378 0
M  V30 2429 O 233.535 3.42298 2.10226 0
M  V30 2430 N 231.741 2.74658 0.949271 0
M  V30 2431 H 231.288 2.57501 0.0715173 0
M  V30 2432 H 231.246 2.57739 1.80049 0
M  V30 2433 N 235.018 0.912232 1.28515 0
M  V30 2434 C 235.928 0.404506 2.31086 0
M  V30 2435 C 236.944 -0.50707 1.66448 0
M  V30 2436 O 238.12 -0.393624 1.97516 0
M  V30 2437 C 235.185 -0.348572 3.44943 0
M  V30 2438 C 234.246 0.59604 4.25142 0
M  V30 2439 C 233.479 -0.121194 5.33562 0
M  V30 2440 O 233.702 -1.34317 5.5436 0
M  V30 2441 O 232.636 0.542716 5.99448 0
M  V30 2442 H 236.462 1.25579 2.76521 0
M  V30 2443 H 234.047 0.676998 1.33181 0
M  V30 2444 H 235.929 -0.77395 4.14232 0
M  V30 2445 H 234.604 -1.17571 3.01594 0
M  V30 2446 H 233.511 1.07079 3.58448 0
M  V30 2447 H 234.844 1.38995 4.72167 0
M  V30 2448 N 236.496 -1.42363 0.676048 0
M  V30 2449 C 237.736 -2.03392 0.20273 0
M  V30 2450 C 238.1 -1.52306 -1.16906 0
M  V30 2451 O 239.301 -2.05129 -1.73711 0
M  V30 2452 C 237.572 -3.56614 0.236947 0
M  V30 2453 S 239.131 -4.38489 -0.165186 0
M  V30 2454 H 235.949 -0.70611 0.0832418 0
M  V30 2455 H 238.551 -1.74093 0.88948 0
M  V30 2456 H 237.255 -3.91293 1.23767 0
M  V30 2457 H 236.786 -3.90587 -0.469596 0
M  V30 2458 H 238.801 -4.76093 -1.39822 0
M  V30 2459 N 237.974 -0.419461 -1.51915 0
M  V30 2460 C 239.221 0.152939 -2.01922 0
M  V30 2461 C 239.549 1.4426 -1.30458 0
M  V30 2462 O 238.804 1.91514 -0.402593 0
M  V30 2463 C 239.103 0.437067 -3.54717 0
M  V30 2464 C 238.769 -0.764632 -4.44369 0
M  V30 2465 C 237.431 -1.09423 -4.68594 0
M  V30 2466 C 239.783 -1.56713 -4.97082 0
M  V30 2467 C 237.111 -2.22732 -5.42777 0
M  V30 2468 C 239.463 -2.69107 -5.72507 0
M  V30 2469 C 238.127 -3.02541 -5.95 0
M  V30 2470 H 237.397 0.0559644 -0.738884 0
M  V30 2471 H 240.044 -0.562998 -1.83037 0
M  V30 2472 H 238.349 1.23469 -3.71837 0
M  V30 2473 H 240.046 0.893083 -3.90928 0
M  V30 2474 H 236.636 -0.497775 -4.257 0
M  V30 2475 H 240.82 -1.32571 -4.78266 0
M  V30 2476 H 236.076 -2.48971 -5.58411 0
M  V30 2477 H 240.25 -3.31671 -6.12346 0
M  V30 2478 H 237.877 -3.90457 -6.52264 0
M  V30 2479 N 239.452 1.56882 -0.150215 0
M  V30 2480 C 240.382 2.19935 0.784284 0
M  V30 2481 C 241.363 1.14854 1.25469 0
M  V30 2482 O 242.548 1.43209 1.31168 0
M  V30 2483 C 239.678 2.82349 2.02229 0
M  V30 2484 C 238.632 3.93285 1.68853 0
M  V30 2485 C 237.958 4.42649 2.99944 0
M  V30 2486 C 239.258 5.13904 0.932714 0
M  V30 2487 H 240.952 2.9828 0.258781 0
M  V30 2488 H 238.498 1.43473 0.123029 0
M  V30 2489 H 240.451 3.25126 2.68088 0
M  V30 2490 H 239.175 2.0134 2.57157 0
M  V30 2491 H 237.834 3.5113 1.05371 0
M  V30 2492 H 237.482 3.58458 3.52869 0
M  V30 2493 H 237.182 5.17476 2.78374 0
M  V30 2494 H 238.706 4.88099 3.66868 0
M  V30 2495 H 240.12 5.53506 1.49345 0
M  V30 2496 H 238.517 5.94515 0.81684 0
M  V30 2497 H 239.587 4.84842 -0.0749568 0
M  V30 2498 N 240.93 -0.123565 1.57115 0
M  V30 2499 C 241.862 -1.17739 1.96648 0
M  V30 2500 C 242.875 -1.37906 0.865201 0
M  V30 2501 O 244.064 -1.37062 1.14351 0
M  V30 2502 C 241.164 -2.53821 2.24562 0
M  V30 2503 C 240.337 -2.54317 3.55867 0
M  V30 2504 C 239.396 -3.72112 3.72047 0
M  V30 2505 O 238.422 -3.55907 4.44206 0
M  V30 2506 N 239.624 -4.90498 3.10471 0
M  V30 2507 H 242.389 -0.841147 2.87654 0
M  V30 2508 H 239.95 -0.31289 1.58848 0
M  V30 2509 H 241.942 -3.31175 2.32606 0
M  V30 2510 H 240.512 -2.79645 1.39705 0
M  V30 2511 H 239.732 -1.62711 3.59053 0
M  V30 2512 H 241.02 -2.51701 4.42181 0
M  V30 2513 H 240.418 -5.06567 2.51806 0
M  V30 2514 H 238.975 -5.65544 3.24043 0
M  V30 2515 N 242.408 -1.52605 -0.393616 0
M  V30 2516 C 243.358 -1.73436 -1.48 0
M  V30 2517 C 244.342 -0.588386 -1.49756 0
M  V30 2518 O 245.534 -0.846047 -1.5547 0
M  V30 2519 C 242.663 -1.90247 -2.85764 0
M  V30 2520 C 241.749 -3.10763 -2.88595 0
M  V30 2521 N 242.14 -4.33196 -2.61103 0
M  V30 2522 C 240.438 -3.10914 -3.19763 0
M  V30 2523 C 241.139 -5.1477 -2.70899 0
M  V30 2524 N 240.115 -4.50356 -3.04435 0
M  V30 2525 H 243.917 -2.65727 -1.25563 0
M  V30 2526 H 241.431 -1.5085 -0.601513 0
M  V30 2527 H 243.428 -2.03291 -3.63976 0
M  V30 2528 H 242.088 -0.991663 -3.09186 0
M  V30 2529 H 243.099 -4.61408 -2.35209 0
M  V30 2530 H 239.776 -2.29626 -3.4868 0
M  V30 2531 H 241.166 -6.22355 -2.53227 0
M  V30 2532 N 243.887 0.651787 -1.4349 0
M  V30 2533 C 244.834 1.76462 -1.4876 0
M  V30 2534 C 245.804 1.62641 -0.337189 0
M  V30 2535 O 246.989 1.82864 -0.544544 0
M  V30 2536 C 244.129 3.14623 -1.41796 0
M  V30 2537 C 243.242 3.39568 -2.67053 0
M  V30 2538 C 242.377 4.67585 -2.52068 0
M  V30 2539 C 241.416 4.85639 -3.72587 0
M  V30 2540 N 240.553 6.04915 -3.56402 0
M  V30 2541 H 245.393 1.71293 -2.43849 0
M  V30 2542 H 242.93 0.835889 -1.21043 0
M  V30 2543 H 244.888 3.94496 -1.35753 0
M  V30 2544 H 243.518 3.18859 -0.50288 0
M  V30 2545 H 242.57 2.53783 -2.8337 0
M  V30 2546 H 243.882 3.48795 -3.56572 0
M  V30 2547 H 243.036 5.55586 -2.4374 0
M  V30 2548 H 241.775 4.60681 -1.60075 0
M  V30 2549 H 240.78 3.96073 -3.81321 0
M  V30 2550 H 242.005 4.94372 -4.65589 0
M  V30 2551 H 239.951 5.9914 -2.67146 0
M  V30 2552 H 239.868 6.15106 -4.39524 0
M  V30 2553 H 241.136 6.95533 -3.51929 0
M  V30 2554 N 245.365 1.30045 0.890287 0
M  V30 2555 C 246.642 1.09227 1.62262 0
M  V30 2556 C 247.022 -0.360305 2.08002 0
M  V30 2557 O 246.37 -1.35084 1.84295 0
M  V30 2558 C 246.58 2.08835 2.79623 0
M  V30 2559 C 247.928 2.40266 3.50082 0
M  V30 2560 O 248.952 2.07104 2.89804 0
M  V30 2561 O 247.811 2.96967 4.58773 0
M  V30 2562 H 244.905 0.419132 0.712922 0
M  V30 2563 H 247.451 1.41451 0.937529 0
M  V30 2564 H 246.223 3.06633 2.43089 0
M  V30 2565 H 245.846 1.77397 3.55832 0
M  V30 2566 N 246.843 -1.10192 1.12674 0
M  V30 2567 C 248.12 -1.78717 0.794965 0
M  V30 2568 C 248.5 -1.98628 -0.714853 0
M  V30 2569 O 247.848 -1.58135 -1.64941 0
M  V30 2570 C 248.058 -3.11546 1.5729 0
M  V30 2571 C 249.406 -3.86382 1.76052 0
M  V30 2572 O 250.43 -3.21274 1.53823 0
M  V30 2573 O 249.289 -5.03246 2.13087 0
M  V30 2574 H 246.383 -0.774702 0.289423 0
M  V30 2575 H 248.929 -1.16819 1.23091 0
M  V30 2576 H 247.701 -2.92489 2.59935 0
M  V30 2577 H 247.324 -3.81164 1.13137 0
M  V30 2578 N 248.321 -0.919034 -1.28029 0
M  V30 2579 C 249.269 -0.401753 -2.29104 0
M  V30 2580 C 250.263 0.509354 -1.61561 0
M  V30 2581 O 251.469 0.390014 -1.75724 0
M  V30 2582 H 247.844 -0.111331 -0.743713 0
M  V30 2583 H 249.815 -1.2672 -2.70156 0
M  V30 2584 C 248.564 0.338148 -3.46052 0
M  V30 2585 H 247.887 -0.353732 -3.98232 0
M  V30 2586 H 249.327 0.664653 -4.18758 0
M  V30 2587 C 247.786 1.54798 -2.99231 0
M  V30 2588 O 248.316 2.64696 -3.02157 0
M  V30 2589 N 246.522 1.3968 -2.54829 0
M  V30 2590 H 246.069 0.502698 -2.52647 0
M  V30 2591 H 246.027 2.20755 -2.23863 0
M  V30 2592 N 249.799 1.42003 -0.683588 0
M  V30 2593 C 251.21 1.84501 -0.285736 0
M  V30 2594 C 251.561 1.57213 1.17382 0
M  V30 2595 O 250.686 1.03642 1.89966 0
M  V30 2596 C 251.281 3.34912 -0.511821 0
M  V30 2597 C 249.84 3.76025 -0.168005 0
M  V30 2598 C 248.987 2.6551 -0.799983 0
M  V30 2599 H 251.938 1.31724 -0.885119 0
M  V30 2600 H 251.959 3.79784 0.233292 0
M  V30 2601 H 251.471 3.54741 -1.57418 0
M  V30 2602 H 249.572 3.61801 0.890567 0
M  V30 2603 H 249.685 4.75141 -0.614661 0
M  V30 2604 H 248.049 2.53654 -0.230568 0
M  V30 2605 H 248.832 2.8816 -1.86597 0
M  V30 2606 N 251.277 0.427512 1.51691 0
M  V30 2607 C 252.225 -0.403359 2.29076 0
M  V30 2608 C 253.219 -1.02962 1.34518 0
M  V30 2609 O 254.425 -0.965715 1.51901 0
M  V30 2610 H 250.8 -0.148879 0.737115 0
M  V30 2611 H 252.771 0.270295 2.97173 0
M  V30 2612 C 251.52 -1.49763 3.13794 0
M  V30 2613 H 250.843 -1.02508 3.86435 0
M  V30 2614 H 252.283 -2.05244 3.71014 0
M  V30 2615 C 250.742 -2.47536 2.28533 0
M  V30 2616 O 251.272 -3.51848 1.93819 0
M  V30 2617 N 249.478 -2.18187 1.91945 0
M  V30 2618 H 249.025 -1.33389 2.20375 0
M  V30 2619 H 248.983 -2.83848 1.35195 0
M  V30 2620 N 252.755 -1.56801 0.158532 0
M  V30 2621 C 253.685 -2.20347 -0.772609 0
M  V30 2622 C 254.666 -1.15518 -1.24859 0
M  V30 2623 O 255.851 -1.43902 -1.30406 0
M  V30 2624 C 252.981 -2.83417 -2.00729 0
M  V30 2625 C 251.935 -3.94174 -1.66765 0
M  V30 2626 C 251.261 -4.44233 -2.97592 0
M  V30 2627 C 252.561 -5.14392 -0.905447 0
M  V30 2628 H 254.255 -2.98413 -0.242959 0
M  V30 2629 H 251.801 -1.43537 -0.115419 0
M  V30 2630 H 253.754 -3.26543 -2.6636 0
M  V30 2631 H 252.478 -2.02701 -2.56086 0
M  V30 2632 H 251.137 -3.51684 -1.03508 0
M  V30 2633 H 250.785 -3.60325 -3.50963 0
M  V30 2634 H 250.485 -5.18945 -2.75626 0
M  V30 2635 H 252.009 -4.90037 -3.64274 0
M  V30 2636 H 253.423 -5.5429 -1.46408 0
M  V30 2637 H 251.82 -5.9494 -0.7853 0
M  V30 2638 H 252.89 -4.84795 0.100668 0
M  V30 2639 N 254.233 0.115231 -1.57178 0
M  V30 2640 C 255.644 0.67197 -1.74188 0
M  V30 2641 C 255.995 1.80125 -0.777777 0
M  V30 2642 O 255.12 2.16346 0.0484376 0
M  V30 2643 C 255.715 1.22573 -3.1585 0
M  V30 2644 C 254.274 1.72872 -3.34353 0
M  V30 2645 C 253.421 0.629972 -2.70049 0
M  V30 2646 H 256.372 -0.110712 -1.58313 0
M  V30 2647 H 256.393 2.09535 -3.17609 0
M  V30 2648 H 255.905 0.403598 -3.85996 0
M  V30 2649 H 254.006 2.5755 -2.69256 0
M  V30 2650 H 254.119 1.83557 -4.42542 0
M  V30 2651 H 252.483 1.0645 -2.31388 0
M  V30 2652 H 253.266 -0.181241 -3.42821 0
M  V30 2653 N 255.711 1.52812 0.385517 0
M  V30 2654 C 257.127 1.4214 0.725829 0
M  V30 2655 C 257.327 0.544589 1.94001 0
M  V30 2656 O 256.383 0.0193693 2.52493 0
M  V30 2657 C 257.696 2.85042 0.957668 0
M  V30 2658 C 259.244 2.94543 1.05892 0
M  V30 2659 C 259.719 4.38464 1.32337 0
M  V30 2660 N 261.21 4.41804 1.39151 0
M  V30 2661 C 261.945 5.5025 1.61285 0
M  V30 2662 N 261.441 6.68775 1.80866 0
M  V30 2663 N 263.234 5.37798 1.63492 0
M  V30 2664 H 255.385 2.08338 -0.413383 0
M  V30 2665 H 257.648 0.940016 -0.122775 0
M  V30 2666 H 257.354 3.51431 0.137568 0
M  V30 2667 H 257.228 3.27505 1.87137 0
M  V30 2668 H 259.615 2.28321 1.86959 0
M  V30 2669 H 259.696 2.55504 0.123057 0
M  V30 2670 H 259.34 5.05254 0.517793 0
M  V30 2671 H 259.27 4.75059 2.27214 0
M  V30 2672 H 261.761 3.56377 1.25713 0
M  V30 2673 H 262.074 7.47197 1.97271 0
M  V30 2674 H 260.419 6.71797 1.78083 0
M  V30 2675 H 263.61 4.44171 1.47749 0
M  V30 2676 H 263.783 6.22382 1.80402 0
M  V30 2677 N 257.189 -0.644168 1.43834 0
M  V30 2678 C 258.119 -1.76814 1.52509 0
M  V30 2679 C 259.1 -1.65823 0.379052 0
M  V30 2680 O 260.285 -1.84781 0.597466 0
M  V30 2681 C 257.415 -3.15288 1.4564 0
M  V30 2682 C 256.369 -3.41053 2.58586 0
M  V30 2683 C 255.695 -4.79421 2.36769 0
M  V30 2684 C 256.995 -3.34902 4.00797 0
M  V30 2685 H 258.689 -1.69812 2.46586 0
M  V30 2686 H 256.235 -0.815542 1.1868 0
M  V30 2687 H 258.188 -3.93681 1.50311 0
M  V30 2688 H 256.912 -3.23043 0.480725 0
M  V30 2689 H 255.571 -2.65035 2.53282 0
M  V30 2690 H 255.219 -4.83863 1.37424 0
M  V30 2691 H 254.919 -4.9762 3.12487 0
M  V30 2692 H 256.443 -5.6006 2.43238 0
M  V30 2693 H 257.857 -4.03218 4.07539 0
M  V30 2694 H 256.254 -3.64637 4.76613 0
M  V30 2695 H 257.324 -2.32928 4.25291 0
M  V30 2696 N 258.668 -1.30515 -0.883378 0
M  V30 2697 C 259.914 -1.19607 -1.63774 0
M  V30 2698 C 260.247 0.248314 -1.92606 0
M  V30 2699 O 259.522 1.17742 -1.54813 0
M  V30 2700 C 259.805 -2.02669 -2.97653 0
M  V30 2701 C 259.658 -3.55335 -2.75784 0
M  V30 2702 C 260.977 -1.86573 -3.98596 0
M  V30 2703 H 258.096 -0.435856 -0.594305 0
M  V30 2704 H 260.738 -1.60165 -1.02212 0
M  V30 2705 H 258.888 -1.68208 -3.50197 0
M  V30 2706 H 260.56 -3.99863 -2.30016 0
M  V30 2707 H 258.803 -3.79438 -2.1026 0
M  V30 2708 H 259.474 -4.08745 -3.70988 0
M  V30 2709 H 261.95 -2.16703 -3.55217 0
M  V30 2710 H 260.826 -2.47014 -4.90179 0
M  V30 2711 H 261.087 -0.825321 -4.34328 0
M  V30 2712 N 260.146 1.09593 -1.13257 0
M  V30 2713 C 261.562 1.33775 -0.870423 0
M  V30 2714 C 261.762 1.95327 0.494926 0
M  V30 2715 O 260.818 2.19853 1.2418 0
M  V30 2716 C 262.131 2.25106 -1.99369 0
M  V30 2717 C 263.679 2.3862 -2.02558 0
M  V30 2718 C 264.154 3.33285 -3.14142 0
M  V30 2719 N 265.645 3.40857 -3.13641 0
M  V30 2720 C 266.38 4.14101 -3.96621 0
M  V30 2721 N 265.876 4.90157 -4.8961 0
M  V30 2722 N 267.669 4.09808 -3.84726 0
M  V30 2723 H 259.82 0.680136 -2.01216 0
M  V30 2724 H 262.083 0.362133 -0.876107 0
M  V30 2725 H 261.789 1.87103 -2.97801 0
M  V30 2726 H 261.663 3.25481 -1.90635 0
M  V30 2727 H 264.05 2.75887 -1.0474 0
M  V30 2728 H 264.131 1.38028 -2.15364 0
M  V30 2729 H 263.775 2.96741 -4.12198 0
M  V30 2730 H 263.705 4.33776 -2.98574 0
M  V30 2731 H 266.196 2.86624 -2.46282 0
M  V30 2732 H 266.509 5.4347 -5.49418 0
M  V30 2733 H 264.854 4.89251 -4.93617 0
M  V30 2734 H 268.045 3.4949 -3.11408 0
M  V30 2735 H 268.218 4.66629 -4.49623 0
M  V30 2736 N 261.624 0.925811 1.2754 0
M  V30 2737 C 263.035 0.610102 1.7645 0
M  V30 2738 C 263.386 -0.874723 1.75622 0
M  V30 2739 O 262.511 -1.68444 1.35851 0
M  V30 2740 C 263.106 1.10073 3.20421 0
M  V30 2741 C 261.665 0.835723 3.67005 0
M  V30 2742 C 260.812 1.26054 2.46993 0
M  V30 2743 H 263.763 1.10579 1.13833 0
M  V30 2744 H 263.784 0.447557 3.77859 0
M  V30 2745 H 263.296 2.18143 3.20991 0
M  V30 2746 H 261.397 -0.231249 3.71882 0
M  V30 2747 H 261.51 1.45193 4.56569 0
M  V30 2748 H 259.874 0.679111 2.45479 0
M  V30 2749 H 260.657 2.34984 2.50275 0
M  V30 2750 N 263.102 -1.41638 0.69111 0
M  V30 2751 C 264.012 -2.34588 0.0233487 0
M  V30 2752 C 265.028 -1.55987 -0.770984 0
M  V30 2753 O 266.204 -1.88486 -0.709569 0
M  V30 2754 C 263.269 -3.34684 -0.904851 0
M  V30 2755 C 262.33 -4.29176 -0.103225 0
M  V30 2756 C 261.563 -5.2449 -0.987216 0
M  V30 2757 O 261.786 -5.2514 -2.22674 0
M  V30 2758 O 260.72 -6.00295 -0.439281 0
M  V30 2759 H 264.546 -2.93261 0.789416 0
M  V30 2760 H 262.131 -1.42417 0.45142 0
M  V30 2761 H 264.013 -3.96133 -1.43724 0
M  V30 2762 H 262.688 -2.78461 -1.65049 0
M  V30 2763 H 261.595 -3.71089 0.473655 0
M  V30 2764 H 262.928 -4.88484 0.60365 0
M  V30 2765 N 264.58 -0.43555 -1.51462 0
M  V30 2766 C 265.826 0.131709 -2.02372 0
M  V30 2767 C 266.159 1.42516 -1.3192 0
M  V30 2768 O 265.434 1.89606 -0.433573 0
M  V30 2769 C 265.717 0.352301 -3.58373 0
M  V30 2770 C 265.57 -0.959676 -4.39443 0
M  V30 2771 C 266.889 1.12286 -4.25535 0
M  V30 2772 H 264.008 0.0463936 -0.735538 0
M  V30 2773 H 266.65 -0.574197 -1.81116 0
M  V30 2774 H 264.8 0.9536 -3.76615 0
M  V30 2775 H 266.472 -1.59482 -4.32855 0
M  V30 2776 H 264.715 -1.56468 -4.04599 0
M  V30 2777 H 265.386 -0.759394 -5.46752 0
M  V30 2778 H 267.862 0.613545 -4.11552 0
M  V30 2779 H 266.738 1.24598 -5.34571 0
M  V30 2780 H 266.999 2.15048 -3.86273 0
M  V30 2781 N 266.058 1.56714 -0.166846 0
M  V30 2782 C 267.335 1.88412 0.525373 0
M  V30 2783 C 267.715 1.07602 1.81618 0
M  V30 2784 O 267.063 0.168621 2.27877 0
M  V30 2785 C 267.273 3.40363 0.771613 0
M  V30 2786 C 268.621 4.10007 1.1036 0
M  V30 2787 O 269.645 3.45655 0.860304 0
M  V30 2788 O 268.504 5.2369 1.56239 0
M  V30 2789 H 265.598 0.781587 0.270278 0
M  V30 2790 H 268.144 1.68458 -0.204946 0
M  V30 2791 H 266.916 3.91046 -0.141093 0
M  V30 2792 H 266.539 3.65914 1.55541 0
M  V30 2793 N 267.536 -0.106894 1.57237 0
M  V30 2794 C 268.782 -0.81373 1.85759 0
M  V30 2795 C 269.115 -1.78952 0.754315 0
M  V30 2796 O 268.39 -1.93029 -0.23879 0
M  V30 2797 C 268.673 -1.55293 3.24894 0
M  V30 2798 C 268.526 -0.595929 4.45835 0
M  V30 2799 C 269.845 -2.5063 3.61763 0
M  V30 2800 H 266.964 -0.294369 0.67566 0
M  V30 2801 H 269.606 -0.0776472 1.89841 0
M  V30 2802 H 267.756 -2.1804 3.21544 0
M  V30 2803 H 269.428 0.0236262 4.61294 0
M  V30 2804 H 267.671 0.0916191 4.33703 0
M  V30 2805 H 268.342 -1.15004 5.39887 0
M  V30 2806 H 270.818 -1.97982 3.65981 0
M  V30 2807 H 269.694 -2.99376 4.60071 0
M  V30 2808 H 269.955 -3.3385 2.89821 0
M  V30 2809 N 269.014 -1.53014 -0.377408 0
M  V30 2810 C 269.947 -1.73382 -1.48371 0
M  V30 2811 C 270.925 -0.581879 -1.51832 0
M  V30 2812 O 272.109 -0.81307 -1.70063 0
M  V30 2813 C 269.236 -1.80192 -2.8679 0
M  V30 2814 C 268.282 -3.02056 -3.01105 0
M  V30 2815 S 269.115 -4.61811 -2.71093 0
M  V30 2816 C 270.271 -4.71453 -4.11683 0
M  V30 2817 H 270.504 -2.66946 -1.30872 0
M  V30 2818 H 268.037 -1.43453 -0.571012 0
M  V30 2819 H 269.995 -1.84802 -3.6655 0
M  V30 2820 H 268.656 -0.877008 -3.01608 0
M  V30 2821 H 267.849 -3.03396 -4.02451 0
M  V30 2822 H 267.451 -2.95498 -2.29253 0
M  V30 2823 H 269.743 -4.50781 -5.0577 0
M  V30 2824 H 270.686 -5.73487 -4.15353 0
M  V30 2825 H 271.094 -4.00189 -3.98132 0
M  V30 2826 N 270.492 0.636531 -1.44174 0
M  V30 2827 C 271.732 1.40781 -1.48189 0
M  V30 2828 C 272.096 1.91688 -0.10944 0
M  V30 2829 O 273.297 2.68789 -0.0242741 0
M  V30 2830 C 271.568 2.54575 -2.50851 0
M  V30 2831 S 273.127 3.4284 -2.73873 0
M  V30 2832 H 269.945 0.480345 -0.524204 0
M  V30 2833 H 272.547 0.737416 -1.81059 0
M  V30 2834 H 271.251 2.15478 -3.49281 0
M  V30 2835 H 270.782 3.26447 -2.19536 0
M  V30 2836 H 272.797 4.51846 -2.05059 0
M  V30 2837 N 271.97 1.30982 0.876444 0
M  V30 2838 C 273.198 1.23242 1.6619 0
M  V30 2839 C 273.613 -0.203345 1.87702 0
M  V30 2840 O 272.97 -1.13317 1.43057 0
M  V30 2841 C 273.021 1.96623 3.03351 0
M  V30 2842 O 272.742 3.34594 2.82804 0
M  V30 2843 C 274.243 1.95644 3.97792 0
M  V30 2844 H 271.463 0.426126 0.518322 0
M  V30 2845 H 274.007 1.7275 1.09442 0
M  V30 2846 H 272.162 1.50892 3.56806 0
M  V30 2847 H 272.576 3.71873 3.69879 0
M  V30 2848 H 274.05 2.51511 4.91372 0
M  V30 2849 H 274.527 0.937395 4.2908 0
M  V30 2850 H 275.133 2.41225 3.50272 0
M  V30 2851 N 273.449 -1.08991 1.13837 0
M  V30 2852 C 274.412 -2.13925 0.822715 0
M  V30 2853 C 275.412 -1.599 -0.1699 0
M  V30 2854 O 276.602 -1.74104 0.0577251 0
M  V30 2855 C 273.734 -3.40155 0.225318 0
M  V30 2856 H 274.927 -2.43358 1.75262 0
M  V30 2857 H 272.48 -1.24603 0.943594 0
M  V30 2858 H 273.215 -3.16352 -0.713594 0
M  V30 2859 H 273 -3.80661 0.940193 0
M  V30 2860 H 274.49 -4.17594 0.0214784 0
M  V30 2861 N 274.927 -0.932562 -1.27047 0
M  V30 2862 C 276.174 -0.575559 -1.94148 0
M  V30 2863 C 276.502 0.883984 -1.73251 0
M  V30 2864 O 275.757 1.64655 -1.0577 0
M  V30 2865 C 276.056 -0.853713 -3.47054 0
M  V30 2866 C 275.722 -2.29577 -3.88079 0
M  V30 2867 C 274.384 -2.68999 -3.9899 0
M  V30 2868 C 276.736 -3.23331 -4.08787 0
M  V30 2869 C 274.064 -4.01289 -4.28 0
M  V30 2870 C 276.416 -4.55207 -4.39282 0
M  V30 2871 C 275.08 -4.94457 -4.48407 0
M  V30 2872 H 274.35 -0.210612 -0.710439 0
M  V30 2873 H 276.997 -1.17744 -1.51025 0
M  V30 2874 H 275.302 -0.169204 -3.91434 0
M  V30 2875 H 276.999 -0.55639 -3.97121 0
M  V30 2876 H 273.589 -1.97994 -3.80127 0
M  V30 2877 H 277.773 -2.94074 -3.99793 0
M  V30 2878 H 273.029 -4.31374 -4.33275 0
M  V30 2879 H 277.203 -5.27852 -4.54252 0
M  V30 2880 H 274.83 -5.96994 -4.7064 0
M  V30 2881 N 276.405 1.4127 -0.698611 0
M  V30 2882 C 277.355 2.27997 -0.0119836 0
M  V30 2883 C 278.339 1.42363 0.749765 0
M  V30 2884 O 279.531 1.65607 0.624758 0
M  V30 2885 C 276.66 3.30702 0.921458 0
M  V30 2886 C 275.746 4.23814 0.155796 0
M  V30 2887 N 276.137 4.98572 -0.852015 0
M  V30 2888 C 274.435 4.44284 0.390836 0
M  V30 2889 C 275.136 5.66744 -1.3106 0
M  V30 2890 N 274.112 5.39867 -0.635944 0
M  V30 2891 H 277.914 2.83232 -0.784649 0
M  V30 2892 H 275.428 1.53518 -0.529711 0
M  V30 2893 H 277.425 3.91661 1.42854 0
M  V30 2894 H 276.085 2.77028 1.69369 0
M  V30 2895 H 277.096 5.03024 -1.23235 0
M  V30 2896 H 273.773 4.01614 1.14071 0
M  V30 2897 H 275.163 6.36672 -2.14707 0
M  V30 2898 N 277.883 0.443576 1.51229 0
M  V30 2899 C 279.16 -0.181038 1.9476 0
M  V30 2900 C 279.54 -1.59523 1.38259 0
M  V30 2901 O 278.888 -2.2122 0.572198 0
M  V30 2902 C 279.098 -0.152422 3.48667 0
M  V30 2903 C 280.446 -0.354923 4.23114 0
M  V30 2904 O 281.47 -0.230257 3.55455 0
M  V30 2905 O 280.329 -0.603674 5.43156 0
M  V30 2906 H 277.423 -0.1266 0.817252 0
M  V30 2907 H 279.969 0.502004 1.62105 0
M  V30 2908 H 278.741 0.836022 3.82265 0
M  V30 2909 H 278.364 -0.878107 3.87782 0
M  V30 2910 N 279.361 -1.56624 0.175154 0
M  V30 2911 C 280.309 -2.19468 -0.770495 0
M  V30 2912 C 281.303 -1.15985 -1.23466 0
M  V30 2913 O 282.509 -1.34176 -1.19987 0
M  V30 2914 H 278.884 -0.703095 -0.266761 0
M  V30 2915 H 280.855 -2.97613 -0.216542 0
M  V30 2916 C 279.604 -2.85264 -1.98796 0
M  V30 2917 H 278.927 -3.64623 -1.63983 0
M  V30 2918 H 280.367 -3.327 -2.62843 0
M  V30 2919 C 278.826 -1.85239 -2.81404 0
M  V30 2920 O 279.356 -1.34024 -3.78682 0
M  V30 2921 N 277.562 -1.53911 -2.46495 0
M  V30 2922 H 277.109 -1.95751 -1.67449 0
M  V30 2923 H 277.067 -0.872382 -3.02054 0
M  V30 2924 N 280.839 0.0985539 -1.57292 0
M  V30 2925 C 281.749 1.13824 -2.05137 0
M  V30 2926 C 282.765 1.44076 -0.975604 0
M  V30 2927 O 283.941 1.54786 -1.28853 0
M  V30 2928 C 281.006 2.43969 -2.46333 0
M  V30 2929 C 280.067 2.2093 -3.68087 0
M  V30 2930 C 279.3 3.44869 -4.0731 0
M  V30 2931 O 279.523 4.52972 -3.46659 0
M  V30 2932 O 278.457 3.34661 -5.00285 0
M  V30 2933 H 282.283 0.761881 -2.93988 0
M  V30 2934 H 279.868 0.310818 -1.46131 0
M  V30 2935 H 281.75 3.20609 -2.73473 0
M  V30 2936 H 280.425 2.81038 -1.60621 0
M  V30 2937 H 279.332 1.42081 -3.46069 0
M  V30 2938 H 280.665 1.88755 -4.54568 0
M  V30 2939 N 282.317 1.53212 0.369288 0
M  V30 2940 C 283.227 1.82342 1.47609 0
M  V30 2941 C 284.243 0.711532 1.58787 0
M  V30 2942 O 285.419 1.0012 1.74751 0
M  V30 2943 C 282.484 2.00393 2.8292 0
M  V30 2944 C 281.545 3.24297 2.81301 0
M  V30 2945 C 280.778 3.41478 4.10157 0
M  V30 2946 O 281.001 2.63033 5.06132 0
M  V30 2947 O 279.935 4.34817 4.16194 0
M  V30 2948 H 283.761 2.76366 1.25918 0
M  V30 2949 H 281.346 1.38547 0.559034 0
M  V30 2950 H 283.228 2.13859 3.63101 0
M  V30 2951 H 281.903 1.09559 3.04596 0
M  V30 2952 H 280.81 3.16257 1.99831 0
M  V30 2953 H 282.143 4.15041 2.64578 0
M  V30 2954 N 283.795 -0.628877 1.44509 0
M  V30 2955 C 285.023 -1.41554 1.50897 0
M  V30 2956 C 285.438 -1.8832 0.134564 0
M  V30 2957 O 284.795 -1.60969 -0.859965 0
M  V30 2958 C 284.846 -2.63435 2.47556 0
M  V30 2959 O 284.567 -2.18619 3.79654 0
M  V30 2960 C 286.068 -3.56537 2.63431 0
M  V30 2961 H 283.288 -0.434044 0.511709 0
M  V30 2962 H 285.832 -0.768895 1.89495 0
M  V30 2963 H 283.987 -3.24187 2.12089 0
M  V30 2964 H 284.401 -2.97652 4.31861 0
M  V30 2965 H 285.875 -4.38657 3.35088 0
M  V30 2966 H 286.352 -4.05493 1.68738 0
M  V30 2967 H 286.958 -3.01653 2.9981 0
M  V30 2968 N 285.273 -1.31445 -0.869486 0
M  V30 2969 C 286.52 -1.21158 -1.62256 0
M  V30 2970 C 286.848 0.230155 -1.93133 0
M  V30 2971 O 286.103 1.17906 -1.56194 0
M  V30 2972 C 286.402 -2.00145 -2.96102 0
M  V30 2973 C 286.068 -3.4964 -2.84715 0
M  V30 2974 C 284.73 -3.90403 -2.81317 0
M  V30 2975 C 287.082 -4.44769 -2.71716 0
M  V30 2976 C 284.41 -5.24561 -2.62778 0
M  V30 2977 C 286.762 -5.79054 -2.54714 0
M  V30 2978 C 285.426 -6.19037 -2.49699 0
M  V30 2979 H 284.696 -0.443348 -0.593737 0
M  V30 2980 H 287.343 -1.62715 -1.00976 0
M  V30 2981 H 285.648 -1.5127 -3.6142 0
M  V30 2982 H 287.345 -1.89566 -3.53363 0
M  V30 2983 H 283.935 -3.17256 -2.88178 0
M  V30 2984 H 288.119 -4.14208 -2.73397 0
M  V30 2985 H 283.375 -5.54613 -2.57321 0
M  V30 2986 H 287.549 -6.52393 -2.43632 0
M  V30 2987 H 285.176 -7.22935 -2.35093 0
M  V30 2988 N 286.751 1.08385 -1.14413 0
M  V30 2989 C 287.681 2.17321 -0.854044 0
M  V30 2990 C 288.662 1.69024 0.191049 0
M  V30 2991 O 289.847 1.94141 0.0476779 0
M  V30 2992 C 286.977 3.45719 -0.330983 0
M  V30 2993 C 285.931 4.07409 -1.31155 0
M  V30 2994 C 285.257 5.30762 -0.64778 0
M  V30 2995 C 286.557 4.48665 -2.67388 0
M  V30 2996 H 288.251 2.41845 -1.76498 0
M  V30 2997 H 285.797 1.16233 -0.850051 0
M  V30 2998 H 287.75 4.21241 -0.115645 0
M  V30 2999 H 286.474 3.2075 0.615381 0
M  V30 3000 H 285.133 3.33919 -1.51306 0
M  V30 3001 H 284.781 5.02078 0.304398 0
M  V30 3002 H 284.481 5.72992 -1.30207 0
M  V30 3003 H 286.005 6.08998 -0.441972 0
M  V30 3004 H 287.419 5.15364 -2.51143 0
M  V30 3005 H 285.816 5.01814 -3.29093 0
M  V30 3006 H 286.886 3.60543 -3.24248 0
M  V30 3007 N 288.23 0.939286 1.26551 0
M  V30 3008 C 289.177 0.446088 2.26448 0
M  V30 3009 C 290.147 -0.493234 1.58608 0
M  V30 3010 O 291.332 -0.409857 1.86346 0
M  V30 3011 C 288.472 -0.284375 3.43926 0
M  V30 3012 C 287.585 0.690399 4.26448 0
M  V30 3013 C 286.72 -0.0610712 5.31165 0
M  V30 3014 C 285.759 0.905649 6.05363 0
M  V30 3015 N 284.896 0.186055 7.01853 0
M  V30 3016 H 289.736 1.30291 2.68008 0
M  V30 3017 H 287.273 0.65371 1.31776 0
M  V30 3018 H 289.231 -0.724313 4.10864 0
M  V30 3019 H 287.861 -1.10535 3.03285 0
M  V30 3020 H 286.913 1.24885 3.59316 0
M  V30 3021 H 288.225 1.42873 4.779 0
M  V30 3022 H 287.379 -0.56038 6.04106 0
M  V30 3023 H 286.118 -0.832297 4.80546 0
M  V30 3024 H 285.123 1.4161 5.3125 0
M  V30 3025 H 286.348 1.67685 6.58072 0
M  V30 3026 H 284.294 -0.566714 6.53548 0
M  V30 3027 H 284.211 0.863752 7.51049 0
M  V30 3028 H 285.479 -0.292221 7.78952 0
M  V30 3029 N 289.708 -1.40897 0.706093 0
M  V30 3030 C 290.655 -2.30751 0.0474474 0
M  V30 3031 C 291.625 -1.47678 -0.76029 0
M  V30 3032 O 292.81 -1.76441 -0.726177 0
M  V30 3033 C 289.95 -3.33815 -0.875309 0
M  V30 3034 C 289.063 -4.31961 -0.0580623 0
M  V30 3035 C 288.198 -5.22093 -0.979425 0
M  V30 3036 C 287.237 -6.11902 -0.155706 0
M  V30 3037 N 286.374 -6.94482 -1.03144 0
M  V30 3038 H 291.214 -2.86513 0.819413 0
M  V30 3039 H 288.751 -1.41102 0.415783 0
M  V30 3040 H 290.709 -3.92129 -1.42446 0
M  V30 3041 H 289.339 -2.79579 -1.61356 0
M  V30 3042 H 288.391 -3.75507 0.608147 0
M  V30 3043 H 289.703 -4.95415 0.580082 0
M  V30 3044 H 288.857 -5.85292 -1.59744 0
M  V30 3045 H 287.596 -4.5889 -1.65141 0
M  V30 3046 H 286.601 -5.47742 0.475309 0
M  V30 3047 H 287.826 -6.77162 0.512635 0
M  V30 3048 H 285.772 -6.33877 -1.68924 0
M  V30 3049 H 285.689 -7.54665 -0.449108 0
M  V30 3050 H 286.957 -7.6214 -1.63593 0
M  V30 3051 N 291.186 -0.45159 -1.50991 0
M  V30 3052 C 292.416 0.108177 -2.06317 0
M  V30 3053 C 292.824 1.35774 -1.31765 0
M  V30 3054 O 292.167 1.79838 -0.374694 0
M  V30 3055 C 292.229 0.481659 -3.56259 0
M  V30 3056 C 291.893 -0.663114 -4.52163 0
M  V30 3057 C 292.89 -1.53947 -4.96585 0
M  V30 3058 C 290.575 -0.8479 -4.95092 0
M  V30 3059 C 292.569 -2.58518 -5.82621 0
M  V30 3060 C 290.256 -1.89686 -5.80915 0
M  V30 3061 C 291.254 -2.76388 -6.24579 0
M  V30 3062 O 290.942 -3.79482 -7.08695 0
M  V30 3063 H 290.674 0.00499183 -0.675982 0
M  V30 3064 H 293.228 -0.633659 -1.95381 0
M  V30 3065 H 291.458 1.27641 -3.65027 0
M  V30 3066 H 293.147 0.974233 -3.94035 0
M  V30 3067 H 293.913 -1.4083 -4.64103 0
M  V30 3068 H 289.792 -0.18258 -4.60638 0
M  V30 3069 H 293.336 -3.26224 -6.16623 0
M  V30 3070 H 289.233 -2.02817 -6.12809 0
M  V30 3071 H 290.001 -3.76234 -7.26905 0
M  V30 3072 N 292.664 1.56529 -0.183458 0
M  V30 3073 C 293.594 2.21549 0.737456 0
M  V30 3074 C 294.575 1.17489 1.23005 0
M  V30 3075 O 295.76 1.45959 1.281 0
M  V30 3076 C 292.89 2.86575 1.96194 0
M  V30 3077 C 291.844 3.96778 1.60473 0
M  V30 3078 C 291.17 4.48911 2.90487 0
M  V30 3079 C 292.47 5.15767 0.823497 0
M  V30 3080 H 294.164 2.98761 0.195453 0
M  V30 3081 H 291.71 1.43702 0.0925686 0
M  V30 3082 H 293.663 3.30739 2.61131 0
M  V30 3083 H 292.387 2.06749 2.52828 0
M  V30 3084 H 291.046 3.53286 0.978997 0
M  V30 3085 H 290.694 3.65862 3.45186 0
M  V30 3086 H 290.394 5.23265 2.67335 0
M  V30 3087 H 291.918 4.95771 3.56432 0
M  V30 3088 H 293.332 5.56549 1.37571 0
M  V30 3089 H 291.729 5.96114 0.690551 0
M  V30 3090 H 292.799 4.84574 -0.177782 0
M  V30 3091 N 294.142 -0.090211 1.57342 0
M  V30 3092 C 295.372 -0.805055 1.90269 0
M  V30 3093 C 295.78 -1.72561 0.775842 0
M  V30 3094 O 295.123 -1.81839 -0.260843 0
M  V30 3095 C 295.185 -1.66734 3.18497 0
M  V30 3096 C 294.849 -0.918092 4.47683 0
M  V30 3097 C 295.846 -0.245674 5.19319 0
M  V30 3098 C 293.531 -0.890724 4.94339 0
M  V30 3099 C 295.525 0.444088 6.35851 0
M  V30 3100 C 293.212 -0.197179 6.10782 0
M  V30 3101 C 294.21 0.469044 6.81388 0
M  V30 3102 O 293.898 1.15146 7.95611 0
M  V30 3103 H 293.63 -0.235143 0.633785 0
M  V30 3104 H 296.184 -0.0703805 2.05279 0
M  V30 3105 H 294.414 -2.44437 2.99646 0
M  V30 3106 H 296.103 -2.25919 3.37217 0
M  V30 3107 H 296.869 -0.258246 4.84312 0
M  V30 3108 H 292.748 -1.39873 4.39268 0
M  V30 3109 H 296.292 0.964667 6.90898 0
M  V30 3110 H 292.189 -0.18247 6.45242 0
M  V30 3111 H 292.957 1.05885 8.11622 0
M  V30 3112 N 295.62 -1.53406 -0.361157 0
M  V30 3113 C 296.53 -1.83122 -1.4664 0
M  V30 3114 C 297.546 -0.719943 -1.58407 0
M  V30 3115 O 298.722 -1.01046 -1.74218 0
M  V30 3116 C 295.787 -2.01891 -2.81853 0
M  V30 3117 C 294.848 -3.25784 -2.79577 0
M  V30 3118 C 294.081 -3.43648 -4.0834 0
M  V30 3119 O 294.304 -2.65714 -5.0473 0
M  V30 3120 O 293.238 -4.37018 -4.13883 0
M  V30 3121 H 297.064 -2.7703 -1.24451 0
M  V30 3122 H 294.649 -1.38841 -0.551678 0
M  V30 3123 H 296.531 -2.15782 -3.61962 0
M  V30 3124 H 295.206 -1.11173 -3.0401 0
M  V30 3125 H 294.113 -3.17312 -1.98151 0
M  V30 3126 H 295.446 -4.16439 -2.62373 0
M  V30 3127 N 297.098 0.621204 -1.44841 0
M  V30 3128 C 298.347 1.37658 -1.47422 0
M  V30 3129 C 298.66 1.95264 -0.114629 0
M  V30 3130 O 299.866 2.71494 -0.0180199 0
M  V30 3131 C 298.322 2.49285 -2.59586 0
M  V30 3132 C 297.93 1.98149 -4.01797 0
M  V30 3133 C 299.674 3.26409 -2.71399 0
M  V30 3134 C 297.581 3.07178 -5.05367 0
M  V30 3135 H 296.511 0.517344 -0.548517 0
M  V30 3136 H 299.162 0.667257 -1.70938 0
M  V30 3137 H 297.544 3.22839 -2.29328 0
M  V30 3138 H 298.718 1.31395 -4.41669 0
M  V30 3139 H 297.033 1.33812 -3.94314 0
M  V30 3140 H 299.63 4.07706 -3.45948 0
M  V30 3141 H 299.973 3.76535 -1.77559 0
M  V30 3142 H 300.506 2.5995 -3.01116 0
M  V30 3143 H 297.245 2.61985 -6.00869 0
M  V30 3144 H 296.765 3.72542 -4.70077 0
M  V30 3145 H 298.444 3.71789 -5.29511 0
M  V30 3146 N 298.576 1.31904 0.862503 0
M  V30 3147 C 299.539 1.20131 1.95195 0
M  V30 3148 C 300.539 0.126409 1.60302 0
M  V30 3149 O 301.729 0.376234 1.70089 0
M  V30 3150 C 298.861 0.845691 3.30244 0
M  V30 3151 H 300.054 2.16943 2.07064 0
M  V30 3152 H 297.607 1.15622 1.05172 0
M  V30 3153 H 298.342 -0.120957 3.24074 0
M  V30 3154 H 298.127 1.62276 3.56944 0
M  V30 3155 H 299.617 0.787418 4.10109 0
M  V30 3156 N 300.054 -1.07777 1.14986 0
M  V30 3157 C 301.47 -1.32373 0.891596 0
M  V30 3158 C 301.67 -1.9609 -0.463788 0
M  V30 3159 O 300.726 -2.21801 -1.20667 0
M  V30 3160 C 302.039 -2.21905 2.02925 0
M  V30 3161 C 303.587 -2.35367 2.06329 0
M  V30 3162 C 304.062 -3.28245 3.19405 0
M  V30 3163 N 305.553 -3.35824 3.19024 0
M  V30 3164 C 306.288 -4.07739 4.03158 0
M  V30 3165 N 305.784 -4.82306 4.97346 0
M  V30 3166 N 307.577 -4.03635 3.91197 0
M  V30 3167 H 299.728 -0.648039 2.02273 0
M  V30 3168 H 301.991 -0.348149 0.881757 0
M  V30 3169 H 301.697 -1.82342 3.0074 0
M  V30 3170 H 301.571 -3.22407 1.95789 0
M  V30 3171 H 303.958 -2.74186 1.09116 0
M  V30 3172 H 304.039 -1.34585 2.17533 0
M  V30 3173 H 303.683 -2.90146 4.16867 0
M  V30 3174 H 303.613 -4.28971 3.05437 0
M  V30 3175 H 306.104 -2.8267 2.50811 0
M  V30 3176 H 306.417 -5.34661 5.57994 0
M  V30 3177 H 304.762 -4.81337 5.01338 0
M  V30 3178 H 307.953 -3.44491 3.16928 0
M  V30 3179 H 308.126 -4.59417 4.5699 0
M  V30 3180 N 301.532 -0.945985 -1.26051 0
M  V30 3181 C 302.948 -0.649045 -1.45807 0
M  V30 3182 C 303.148 0.796158 -1.85104 0
M  V30 3183 O 302.204 1.57233 -1.97571 0
M  V30 3184 C 303.517 -1.61458 -2.53677 0
M  V30 3185 C 305.065 -1.62481 -2.67524 0
M  V30 3186 C 305.54 -2.57776 -3.7857 0
M  V30 3187 N 307.031 -2.5609 -3.85969 0
M  V30 3188 C 307.766 -3.26508 -4.7136 0
M  V30 3189 N 307.262 -4.0637 -5.61102 0
M  V30 3190 N 309.055 -3.15437 -4.65248 0
M  V30 3191 H 301.206 -1.88005 -0.988328 0
M  V30 3192 H 303.469 -0.808198 -0.4955 0
M  V30 3193 H 303.175 -2.64644 -2.31638 0
M  V30 3194 H 303.049 -1.37036 -3.51427 0
M  V30 3195 H 305.436 -0.600167 -2.88933 0
M  V30 3196 H 305.517 -1.90958 -1.70202 0
M  V30 3197 H 305.161 -3.60361 -3.57913 0
M  V30 3198 H 305.091 -2.26587 -4.75359 0
M  V30 3199 H 307.582 -1.98105 -3.21812 0
M  V30 3200 H 307.895 -4.57042 -6.23164 0
M  V30 3201 H 306.24 -4.10469 -5.60839 0
M  V30 3202 H 309.431 -2.52525 -3.94143 0
M  V30 3203 H 309.604 -3.70584 -5.31575 0
M  V30 3204 N 303.011 1.40521 -0.713556 0
M  V30 3205 C 303.961 2.27971 -0.036165 0
M  V30 3206 C 304.945 1.43151 0.734623 0
M  V30 3207 O 306.137 1.66261 0.607158 0
M  V30 3208 C 303.266 3.31661 0.886331 0
M  V30 3209 C 302.352 4.23955 0.110836 0
M  V30 3210 N 302.743 4.97641 -0.904847 0
M  V30 3211 C 301.041 4.44674 0.343692 0
M  V30 3212 C 301.742 5.65322 -1.37064 0
M  V30 3213 N 300.718 5.39162 -0.693168 0
M  V30 3214 H 304.52 2.82384 -0.814645 0
M  V30 3215 H 302.034 1.52948 -0.545963 0
M  V30 3216 H 304.031 3.93154 1.38692 0
M  V30 3217 H 302.691 2.78808 1.66421 0
M  V30 3218 H 303.702 5.01689 -1.28563 0
M  V30 3219 H 300.379 4.02801 1.09805 0
M  V30 3220 H 301.769 6.34359 -2.21447 0
M  V30 3221 N 304.489 0.459591 1.5075 0
M  V30 3222 C 305.9 0.00171547 1.867 0
M  V30 3223 C 306.251 -1.39934 1.37525 0
M  V30 3224 O 305.376 -2.03523 0.735349 0
M  V30 3225 C 305.971 -0.00366298 3.388 0
M  V30 3226 C 304.53 -0.406026 3.74204 0
M  V30 3227 C 303.677 0.38673 2.7459 0
M  V30 3228 H 306.628 0.674413 1.43657 0
M  V30 3229 H 306.649 -0.808371 3.71814 0
M  V30 3230 H 306.161 1.01617 3.74561 0
M  V30 3231 H 304.262 -1.43063 3.4404 0
M  V30 3232 H 304.375 -0.115362 4.78961 0
M  V30 3233 H 302.739 -0.158019 2.54209 0
M  V30 3234 H 303.522 1.40585 3.13194 0
M  V30 3235 N 305.967 -1.56429 0.191757 0
M  V30 3236 C 307.197 -2.01574 -0.452928 0
M  V30 3237 C 307.605 -1.07107 -1.55964 0
M  V30 3238 O 306.948 -0.067534 -1.83576 0
M  V30 3239 C 307.01 -3.43121 -1.07278 0
M  V30 3240 C 306.674 -4.56879 -0.105214 0
M  V30 3241 C 307.671 -5.15379 0.684149 0
M  V30 3242 C 305.356 -5.023 0.00489824 0
M  V30 3243 C 307.35 -6.17746 1.57062 0
M  V30 3244 C 305.037 -6.04511 0.894935 0
M  V30 3245 C 306.035 -6.62108 1.67637 0
M  V30 3246 O 305.723 -7.62335 2.55149 0
M  V30 3247 H 305.455 -0.665554 -0.118379 0
M  V30 3248 H 308.009 -2.03245 0.296737 0
M  V30 3249 H 306.239 -3.38425 -1.87097 0
M  V30 3250 H 307.928 -3.72093 -1.62177 0
M  V30 3251 H 308.694 -4.81157 0.609365 0
M  V30 3252 H 304.573 -4.57168 -0.593156 0
M  V30 3253 H 308.117 -6.6263 2.181 0
M  V30 3254 H 304.014 -6.38157 0.970847 0
M  V30 3255 H 304.782 -7.79741 2.48892 0
M  V30 3256 N 307.445 0.0818655 -1.57387 0
M  V30 3257 C 308.692 0.782914 -1.86753 0
M  V30 3258 C 309.02 1.78082 -0.782118 0
M  V30 3259 O 308.275 1.94426 0.22295 0
M  V30 3260 C 308.574 1.53513 -3.22752 0
M  V30 3261 C 308.24 0.678134 -4.45771 0
M  V30 3262 C 306.902 0.441929 -4.79166 0
M  V30 3263 C 309.254 0.0832243 -5.21134 0
M  V30 3264 C 306.582 -0.398833 -5.85343 0
M  V30 3265 C 308.934 -0.744935 -6.28199 0
M  V30 3266 C 307.598 -0.991107 -6.60101 0
M  V30 3267 H 306.868 0.286489 -0.683378 0
M  V30 3268 H 309.515 0.0439808 -1.91449 0
M  V30 3269 H 307.82 2.34599 -3.138 0
M  V30 3270 H 309.517 2.08218 -3.42705 0
M  V30 3271 H 306.107 0.872357 -4.19628 0
M  V30 3272 H 310.291 0.252847 -4.95655 0
M  V30 3273 H 305.547 -0.598405 -6.08465 0
M  V30 3274 H 309.721 -1.21271 -6.8576 0
M  V30 3275 H 307.348 -1.64437 -7.42202 0
M  V30 3276 N 308.923 1.53595 0.353017 0
M  V30 3277 C 310.153 1.74058 1.11299 0
M  V30 3278 C 310.561 0.475205 1.83135 0
M  V30 3279 O 309.904 -0.562344 1.74881 0
M  V30 3280 C 309.966 2.85994 2.17825 0
M  V30 3281 C 309.63 4.25923 1.65647 0
M  V30 3282 C 310.627 5.07829 1.11383 0
M  V30 3283 C 308.312 4.72377 1.7078 0
M  V30 3284 C 310.306 6.34285 0.629439 0
M  V30 3285 C 307.993 5.98808 1.21953 0
M  V30 3286 C 308.991 6.79594 0.681265 0
M  V30 3287 O 308.679 8.03651 0.200248 0
M  V30 3288 H 308.411 0.585327 0.338183 0
M  V30 3289 H 310.965 2.01186 0.413927 0
M  V30 3290 H 309.195 2.54368 2.91262 0
M  V30 3291 H 310.884 2.94515 2.79313 0
M  V30 3292 H 311.65 4.73107 1.06746 0
M  V30 3293 H 307.529 4.0956 2.11617 0
M  V30 3294 H 311.073 6.97288 0.208636 0
M  V30 3295 H 306.97 6.33026 1.26287 0
M  V30 3296 H 307.738 8.1788 0.318416 0
M  V30 3297 N 310.401 -0.613514 1.45168 0
M  V30 3298 C 311.364 -1.7065 1.53007 0
M  V30 3299 C 312.364 -1.5548 0.410184 0
M  V30 3300 O 313.554 -1.60656 0.673455 0
M  V30 3301 C 310.686 -3.09875 1.42093 0
M  V30 3302 H 311.879 -1.65068 2.50385 0
M  V30 3303 H 309.432 -0.828728 1.32521 0
M  V30 3304 H 310.167 -3.21039 0.458769 0
M  V30 3305 H 309.952 -3.22293 2.23315 0
M  V30 3306 H 311.442 -3.895 1.50598 0
M  V30 3307 N 311.879 -1.3236 -0.855495 0
M  V30 3308 C 313.29 -1.2056 -1.42556 0
M  V30 3309 C 313.641 0.182209 -1.95352 0
M  V30 3310 O 312.766 1.08088 -1.87472 0
M  V30 3311 C 313.361 -2.1826 -2.59129 0
M  V30 3312 C 311.92 -2.10351 -3.12137 0
M  V30 3313 C 311.067 -2.06674 -1.84882 0
M  V30 3314 H 314.018 -1.442 -0.662727 0
M  V30 3315 H 314.039 -1.78064 -3.36264 0
M  V30 3316 H 313.551 -3.19257 -2.20673 0
M  V30 3317 H 311.652 -1.12599 -3.55179 0
M  V30 3318 H 311.765 -3.00135 -3.73438 0
M  V30 3319 H 310.129 -1.51901 -2.04446 0
M  V30 3320 H 310.912 -3.09451 -1.48643 0
M  V30 3321 N 313.357 1.07166 -1.15556 0
M  V30 3322 C 314.267 2.17947 -0.868116 0
M  V30 3323 C 315.283 1.73297 0.156297 0
M  V30 3324 O 316.459 2.01392 -0.0182327 0
M  V30 3325 C 313.524 3.44789 -0.36355 0
M  V30 3326 C 312.585 4.03996 -1.45209 0
M  V30 3327 C 311.818 5.24783 -0.971508 0
M  V30 3328 O 312.041 5.70109 0.182194 0
M  V30 3329 O 310.975 5.75715 -1.75603 0
M  V30 3330 H 314.801 2.4503 -1.79427 0
M  V30 3331 H 312.386 1.16539 -0.934824 0
M  V30 3332 H 314.268 4.21307 -0.0887113 0
M  V30 3333 H 312.943 3.19253 0.534708 0
M  V30 3334 H 311.85 3.29009 -1.78056 0
M  V30 3335 H 313.183 4.33808 -2.32533 0
M  V30 3336 N 314.835 0.952656 1.25548 0
M  V30 3337 C 315.765 0.489287 2.28316 0
M  V30 3338 C 316.746 -0.463359 1.63667 0
M  V30 3339 O 317.931 -0.36274 1.90782 0
M  V30 3340 C 315.061 -0.235603 3.465 0
M  V30 3341 C 314.015 0.631593 4.23314 0
M  V30 3342 C 313.341 -0.223923 5.34231 0
M  V30 3343 C 314.641 1.90871 4.86174 0
M  V30 3344 H 316.335 1.34822 2.67326 0
M  V30 3345 H 313.881 0.649728 1.28509 0
M  V30 3346 H 315.834 -0.570882 4.17515 0
M  V30 3347 H 314.558 -1.12877 3.06474 0
M  V30 3348 H 313.217 0.949929 3.54079 0
M  V30 3349 H 312.865 -1.11678 4.90446 0
M  V30 3350 H 312.565 0.35299 5.86539 0
M  V30 3351 H 314.089 -0.554214 6.0808 0
M  V30 3352 H 315.503 1.63997 5.49343 0
M  V30 3353 H 313.9 2.43112 5.4865 0
M  V30 3354 H 314.97 2.61304 4.08471 0
M  V30 3355 N 316.313 -1.40141 0.720998 0
M  V30 3356 C 317.243 -2.33339 0.0867621 0
M  V30 3357 C 318.224 -1.53178 -0.739622 0
M  V30 3358 O 319.409 -1.81625 -0.687449 0
M  V30 3359 C 316.539 -3.37194 -0.831728 0
M  V30 3360 C 315.493 -4.27857 -0.110558 0
M  V30 3361 C 314.819 -5.22294 -1.14513 0
M  V30 3362 C 316.119 -5.11872 1.0385 0
M  V30 3363 H 317.813 -2.86626 0.865219 0
M  V30 3364 H 315.359 -1.37814 0.417516 0
M  V30 3365 H 317.312 -4.01335 -1.28485 0
M  V30 3366 H 316.036 -2.82314 -1.64214 0
M  V30 3367 H 314.695 -3.65176 0.322797 0
M  V30 3368 H 314.343 -4.63717 -1.94874 0
M  V30 3369 H 314.043 -5.83797 -0.667446 0
M  V30 3370 H 315.567 -5.89312 -1.59824 0
M  V30 3371 H 316.981 -5.69436 0.664482 0
M  V30 3372 H 315.378 -5.82445 1.4449 0
M  V30 3373 H 316.448 -4.4753 1.86668 0
M  V30 3374 N 317.792 -0.46758 -1.50504 0
M  V30 3375 C 319.039 0.0886219 -2.02306 0
M  V30 3376 C 319.367 1.40037 -1.34981 0
M  V30 3377 O 318.622 1.90136 -0.463318 0
M  V30 3378 C 318.921 0.323995 -3.55928 0
M  V30 3379 C 318.587 -0.905618 -4.41712 0
M  V30 3380 C 317.249 -1.24275 -4.64875 0
M  V30 3381 C 319.601 -1.72448 -4.91845 0
M  V30 3382 C 316.929 -2.39888 -5.35417 0
M  V30 3383 C 319.281 -2.87185 -5.63656 0
M  V30 3384 C 317.945 -3.21317 -5.85074 0
M  V30 3385 H 317.215 0.0324291 -0.74029 0
M  V30 3386 H 319.862 -0.620945 -1.81153 0
M  V30 3387 H 318.167 1.11577 -3.75577 0
M  V30 3388 H 319.864 0.76826 -3.93572 0
M  V30 3389 H 316.454 -0.632956 -4.239 0
M  V30 3390 H 320.638 -1.4772 -4.73806 0
M  V30 3391 H 315.894 -2.66611 -5.50208 0
M  V30 3392 H 320.068 -3.50985 -6.01484 0
M  V30 3393 H 317.695 -4.1101 -6.39511 0
M  V30 3394 N 319.27 1.56325 -0.20005 0
M  V30 3395 C 320.517 1.97719 0.437411 0
M  V30 3396 C 320.845 1.08709 1.61284 0
M  V30 3397 O 320.1 0.127261 1.95286 0
M  V30 3398 C 320.399 3.4495 0.935103 0
M  V30 3399 C 320.065 4.5072 -0.12749 0
M  V30 3400 C 318.727 4.79368 -0.419451 0
M  V30 3401 C 321.079 5.14268 -0.847231 0
M  V30 3402 C 318.407 5.68854 -1.43604 0
M  V30 3403 C 320.759 6.04852 -1.85301 0
M  V30 3404 C 319.423 6.31855 -2.15211 0
M  V30 3405 H 318.693 0.723507 0.16006 0
M  V30 3406 H 321.34 1.89166 -0.298056 0
M  V30 3407 H 319.645 3.50599 1.74894 0
M  V30 3408 H 321.342 3.74337 1.43781 0
M  V30 3409 H 317.932 4.28458 0.11023 0
M  V30 3410 H 322.116 4.92222 -0.634901 0
M  V30 3411 H 317.372 5.88047 -1.67364 0
M  V30 3412 H 321.546 6.53152 -2.41591 0
M  V30 3413 H 319.173 7.00994 -2.94129 0
M  V30 3414 N 320.748 -0.0735177 1.57428 0
M  V30 3415 C 321.711 -1.07192 2.02589 0
M  V30 3416 C 322.711 -1.31695 0.922661 0
M  V30 3417 O 323.901 -1.27445 1.18758 0
M  V30 3418 C 321.033 -2.41599 2.40506 0
M  V30 3419 H 322.226 -0.682727 2.92025 0
M  V30 3420 H 319.779 -0.319193 1.53006 0
M  V30 3421 H 320.514 -2.85354 1.5409 0
M  V30 3422 H 320.299 -2.25156 3.21009 0
M  V30 3423 H 321.789 -3.13367 2.76027 0
M  V30 3424 N 322.226 -1.5378 -0.344866 0
M  V30 3425 C 323.173 -1.81676 -1.42346 0
M  V30 3426 C 324.143 -0.662376 -1.52321 0
M  V30 3427 O 325.328 -0.906675 -1.67881 0
M  V30 3428 C 322.468 -2.03087 -2.79015 0
M  V30 3429 C 321.581 -3.30799 -2.77842 0
M  V30 3430 C 320.716 -3.42285 -4.0622 0
M  V30 3431 C 319.755 -4.6395 -3.9927 0
M  V30 3432 N 318.892 -4.72477 -5.19336 0
M  V30 3433 H 323.732 -2.73703 -1.17858 0
M  V30 3434 H 321.269 -1.35568 -0.570949 0
M  V30 3435 H 323.227 -2.1349 -3.58438 0
M  V30 3436 H 321.857 -1.14375 -3.01858 0
M  V30 3437 H 320.909 -3.29244 -1.90533 0
M  V30 3438 H 322.221 -4.20314 -2.68584 0
M  V30 3439 H 321.375 -3.52113 -4.94066 0
M  V30 3440 H 320.114 -2.50823 -4.18258 0
M  V30 3441 H 319.119 -4.54201 -3.09809 0
M  V30 3442 H 320.344 -5.56775 -3.88817 0
M  V30 3443 H 318.29 -3.83924 -5.3192 0
M  V30 3444 H 318.207 -5.55927 -5.12329 0
M  V30 3445 H 319.475 -4.86613 -6.08957 0
M  V30 3446 N 323.704 0.605807 -1.45491 0
M  V30 3447 C 325.12 0.926751 -1.29936 0
M  V30 3448 C 325.32 1.99896 -0.253706 0
M  V30 3449 O 324.376 2.50038 0.351737 0
M  V30 3450 C 325.689 1.36599 -2.67883 0
M  V30 3451 C 327.237 1.4801 -2.75793 0
M  V30 3452 C 327.712 1.95309 -4.14268 0
M  V30 3453 N 329.203 2.0254 -4.16571 0
M  V30 3454 C 329.938 2.40363 -5.20589 0
M  V30 3455 N 329.434 2.77143 -6.34952 0
M  V30 3456 N 331.227 2.40718 -5.07948 0
M  V30 3457 H 323.378 -0.102862 -2.12151 0
M  V30 3458 H 325.641 0.016639 -0.947854 0
M  V30 3459 H 325.347 0.652306 -3.45598 0
M  V30 3460 H 325.221 2.33215 -2.96463 0
M  V30 3461 H 327.608 2.1847 -1.98381 0
M  V30 3462 H 327.689 0.497041 -2.50925 0
M  V30 3463 H 327.333 1.25436 -4.92167 0
M  V30 3464 H 327.263 2.94532 -4.3653 0
M  V30 3465 H 329.754 1.76699 -3.34045 0
M  V30 3466 H 330.067 3.0489 -7.10114 0
M  V30 3467 H 328.412 2.74834 -6.3835 0
M  V30 3468 H 331.603 2.11392 -4.1765 0
M  V30 3469 H 331.776 2.69869 -5.89131 0
M  V30 3470 N 325.182 1.32811 0.848464 0
M  V30 3471 C 326.412 1.26556 1.63301 0
M  V30 3472 C 326.82 -0.1676 1.88456 0
M  V30 3473 O 326.163 -1.11713 1.45828 0
M  V30 3474 C 326.225 1.96202 3.01239 0
M  V30 3475 C 325.889 3.45528 2.99098 0
M  V30 3476 C 326.886 4.40903 2.75501 0
M  V30 3477 C 324.571 3.87558 3.19537 0
M  V30 3478 C 326.565 5.76282 2.72356 0
M  V30 3479 C 324.252 5.23044 3.16019 0
M  V30 3480 C 325.25 6.17217 2.92458 0
M  V30 3481 O 324.938 7.50223 2.88825 0
M  V30 3482 H 324.67 0.43771 0.515156 0
M  V30 3483 H 327.224 1.7559 1.0657 0
M  V30 3484 H 325.454 1.41746 3.59785 0
M  V30 3485 H 327.143 1.83573 3.62016 0
M  V30 3486 H 327.909 4.09756 2.5947 0
M  V30 3487 H 323.788 3.14674 3.369 0
M  V30 3488 H 327.332 6.4976 2.53886 0
M  V30 3489 H 323.229 5.53818 3.31596 0
M  V30 3490 H 323.997 7.59657 3.04735 0
M  V30 3491 N 326.66 -1.06551 1.16123 0
M  V30 3492 C 327.607 -2.13961 0.865414 0
M  V30 3493 C 328.577 -1.65066 -0.185055 0
M  V30 3494 O 329.762 -1.90732 -0.05083 0
M  V30 3495 C 326.902 -3.43113 0.369776 0
M  V30 3496 C 326.015 -4.05756 1.48276 0
M  V30 3497 C 325.15 -5.22773 0.942414 0
M  V30 3498 C 324.189 -5.77395 2.03179 0
M  V30 3499 N 323.326 -6.85731 1.50721 0
M  V30 3500 H 328.166 -2.38605 1.78527 0
M  V30 3501 H 325.703 -1.17072 0.890646 0
M  V30 3502 H 327.661 -4.17151 0.0640643 0
M  V30 3503 H 326.291 -3.18695 -0.513143 0
M  V30 3504 H 325.343 -3.29292 1.9045 0
M  V30 3505 H 326.655 -4.42351 2.30493 0
M  V30 3506 H 325.809 -6.03827 0.589729 0
M  V30 3507 H 324.548 -4.87618 0.0895191 0
M  V30 3508 H 323.553 -4.94981 2.3932 0
M  V30 3509 H 324.778 -6.14603 2.8886 0
M  V30 3510 H 322.724 -6.52499 0.676811 0
M  V30 3511 H 322.641 -7.21254 2.26557 0
M  V30 3512 H 323.909 -7.7047 1.18303 0
M  V30 3513 N 328.138 -0.959301 -1.25041 0
M  V30 3514 C 329.101 -0.487677 -2.23952 0
M  V30 3515 C 330.101 0.41119 -1.55454 0
M  V30 3516 O 331.291 0.207825 -1.72956 0
M  V30 3517 C 328.423 0.294807 -3.39623 0
M  V30 3518 H 329.616 -1.36198 -2.67189 0
M  V30 3519 H 327.169 -0.743042 -1.37508 0
M  V30 3520 H 327.904 1.18658 -3.01813 0
M  V30 3521 H 327.689 -0.35012 -3.90534 0
M  V30 3522 H 329.179 0.614089 -4.1306 0
M  V30 3523 N 329.616 1.39756 -0.72842 0
M  V30 3524 C 330.579 2.29012 -0.0927297 0
M  V30 3525 C 331.579 1.45992 0.674025 0
M  V30 3526 O 332.769 1.66749 0.50402 0
M  V30 3527 C 329.901 3.29396 0.878137 0
M  V30 3528 H 331.094 2.86729 -0.879011 0
M  V30 3529 H 328.647 1.48293 -0.493847 0
M  V30 3530 H 329.382 2.76722 1.69101 0
M  V30 3531 H 329.167 3.907 0.331051 0
M  V30 3532 H 330.657 3.96199 1.3197 0
M  V30 3533 N 331.094 0.475555 1.50254 0
M  V30 3534 C 332.341 -0.0778919 2.0235 0
M  V30 3535 C 332.669 -1.39319 1.35722 0
M  V30 3536 O 331.924 -1.89888 0.473395 0
M  V30 3537 C 332.223 -0.305114 3.56095 0
M  V30 3538 C 331.889 0.92903 4.41225 0
M  V30 3539 C 330.551 1.26739 4.6421 0
M  V30 3540 C 332.903 1.75054 4.90923 0
M  V30 3541 C 330.231 2.42724 5.34137 0
M  V30 3542 C 332.583 2.9017 5.62125 0
M  V30 3543 C 331.247 3.24416 5.83362 0
M  V30 3544 H 330.517 -0.0285027 0.740452 0
M  V30 3545 H 333.164 0.630543 1.80821 0
M  V30 3546 H 331.469 -1.09584 3.76163 0
M  V30 3547 H 333.166 -0.747377 3.93974 0
M  V30 3548 H 329.756 0.655428 4.23559 0
M  V30 3549 H 333.94 1.50231 4.73016 0
M  V30 3550 H 329.196 2.69525 5.48786 0
M  V30 3551 H 333.37 3.54169 5.99614 0
M  V30 3552 H 330.997 4.14396 6.37323 0
M  V30 3553 N 332.573 -1.56217 0.208337 0
M  V30 3554 C 333.801 -2.02337 -0.43215 0
M  V30 3555 C 334.216 -1.08834 -1.54275 0
M  V30 3556 O 333.573 -0.0955462 -1.8225 0
M  V30 3557 C 333.624 -3.48072 -0.976138 0
M  V30 3558 O 333.345 -4.38007 0.0901621 0
M  V30 3559 C 334.846 -4.09773 -1.69119 0
M  V30 3560 H 332.066 -0.662385 -0.10718 0
M  V30 3561 H 334.61 -2.01966 0.320923 0
M  V30 3562 H 332.765 -3.49099 -1.67954 0
M  V30 3563 H 333.179 -5.23543 -0.316701 0
M  V30 3564 H 334.653 -5.13556 -2.02397 0
M  V30 3565 H 335.13 -3.53999 -2.59964 0
M  V30 3566 H 335.736 -4.12556 -1.03332 0
M  V30 3567 N 334.051 0.0651679 -1.57465 0
M  V30 3568 C 334.961 1.09448 -2.07505 0
M  V30 3569 C 335.977 1.41974 -1.00595 0
M  V30 3570 O 337.153 1.52018 -1.32107 0
M  V30 3571 C 334.218 2.38689 -2.51453 0
M  V30 3572 C 333.279 2.13073 -3.72691 0
M  V30 3573 C 332.512 3.36152 -4.14533 0
M  V30 3574 O 332.735 4.45517 -3.56189 0
M  V30 3575 O 331.669 3.23974 -5.07272 0
M  V30 3576 H 335.495 0.69935 -2.95538 0
M  V30 3577 H 333.08 0.279752 -1.46757 0
M  V30 3578 H 334.962 3.14736 -2.80212 0
M  V30 3579 H 333.637 2.77568 -1.66546 0
M  V30 3580 H 332.544 1.34709 -3.49005 0
M  V30 3581 H 333.877 1.79071 -4.5847 0
M  V30 3582 N 335.529 1.53961 0.336706 0
M  V30 3583 C 336.769 1.73254 1.08454 0
M  V30 3584 C 337.133 0.488937 1.8567 0
M  V30 3585 O 338.334 0.559001 2.62923 0
M  V30 3586 C 336.605 2.96519 1.99528 0
M  V30 3587 S 338.164 3.36655 2.81441 0
M  V30 3588 H 334.982 0.609353 0.366347 0
M  V30 3589 H 337.584 1.92117 0.362124 0
M  V30 3590 H 336.288 3.85193 1.41614 0
M  V30 3591 H 335.819 2.80142 2.76196 0
M  V30 3592 H 337.834 2.90925 4.01967 0
M  V30 3593 N 337.007 -0.598083 1.45811 0
M  V30 3594 C 338.247 -1.36802 1.5187 0
M  V30 3595 C 338.611 -1.9133 0.160224 0
M  V30 3596 O 339.812 -2.6863 0.0955302 0
M  V30 3597 C 338.083 -2.47835 2.57513 0
M  V30 3598 S 339.642 -3.35458 2.82866 0
M  V30 3599 H 336.46 -0.466278 0.536755 0
M  V30 3600 H 339.062 -0.689152 1.82951 0
M  V30 3601 H 337.766 -2.06141 3.54872 0
M  V30 3602 H 337.297 -3.20512 2.28114 0
M  V30 3603 H 339.312 -4.46251 2.16967 0
M  V30 3604 N 338.485 -1.33259 -0.841409 0
M  V30 3605 C 339.417 -1.19136 -1.95804 0
M  V30 3606 C 340.43 -0.122965 -1.62335 0
M  V30 3607 O 341.619 -0.373154 -1.74556 0
M  V30 3608 C 338.719 -0.804268 -3.29218 0
M  V30 3609 C 337.892 -1.96376 -3.90839 0
M  V30 3610 C 336.951 -1.55806 -5.02604 0
M  V30 3611 O 335.977 -2.27203 -5.21888 0
M  V30 3612 N 337.179 -0.461609 -5.78662 0
M  V30 3613 H 339.944 -2.15326 -2.08458 0
M  V30 3614 H 337.505 -1.25971 -1.017 0
M  V30 3615 H 339.497 -0.51501 -4.0141 0
M  V30 3616 H 338.067 0.0668809 -3.12528 0
M  V30 3617 H 337.287 -2.41879 -3.11269 0
M  V30 3618 H 338.575 -2.73966 -4.28742 0
M  V30 3619 H 337.973 0.132343 -5.65545 0
M  V30 3620 H 336.53 -0.232013 -6.51387 0
M  V30 3621 N 339.963 1.05934 -1.16686 0
M  V30 3622 C 340.926 2.11669 -0.879144 0
M  V30 3623 C 341.926 1.60294 0.127445 0
M  V30 3624 O 343.116 1.7389 -0.103865 0
M  V30 3625 C 340.248 3.39438 -0.315425 0
M  V30 3626 H 341.441 2.38626 -1.81653 0
M  V30 3627 H 338.994 1.22058 -0.976299 0
M  V30 3628 H 339.729 3.18132 0.629468 0
M  V30 3629 H 339.514 3.78034 -1.04079 0
M  V30 3630 H 341.004 4.17391 -0.132189 0
M  V30 3631 N 341.441 0.965919 1.2453 0
M  V30 3632 C 342.404 0.499547 2.2369 0
M  V30 3633 C 343.404 -0.40294 1.5567 0
M  V30 3634 O 344.594 -0.19865 1.73064 0
M  V30 3635 C 341.726 -0.276792 3.39774 0
M  V30 3636 H 342.919 1.37613 2.66463 0
M  V30 3637 H 340.472 0.750324 1.37112 0
M  V30 3638 H 341.207 -1.17055 3.02438 0
M  V30 3639 H 340.992 0.370826 3.90343 0
M  V30 3640 H 342.482 -0.592175 4.1338 0
M  V30 3641 N 342.919 -1.39368 0.735821 0
M  V30 3642 C 344.196 -1.94465 0.210395 0
M  V30 3643 C 344.576 -1.67254 -1.28799 0
M  V30 3644 O 343.924 -1.00123 -2.05396 0
M  V30 3645 C 344.134 -3.4472 0.544897 0
M  V30 3646 C 345.482 -4.21708 0.494689 0
M  V30 3647 O 346.506 -3.52922 0.482136 0
M  V30 3648 O 345.365 -5.44299 0.489947 0
M  V30 3649 H 342.459 -0.826096 0.0386666 0
M  V30 3650 H 345.005 -1.48863 0.814735 0
M  V30 3651 H 343.777 -3.57963 1.58045 0
M  V30 3652 H 343.4 -3.97502 -0.08837 0
M  V30 3653 N 344.397 -0.483516 -1.5 0
M  V30 3654 C 345.344 0.304164 -2.28787 0
M  V30 3655 C 346.314 0.976114 -1.34392 0
M  V30 3656 O 347.499 0.986156 -1.63339 0
M  V30 3657 C 344.639 1.37298 -3.16612 0
M  V30 3658 C 343.752 0.714561 -4.26049 0
M  V30 3659 C 342.887 1.76232 -5.01114 0
M  V30 3660 C 341.926 1.08483 -6.0241 0
M  V30 3661 N 341.063 2.076 -6.70706 0
M  V30 3662 H 345.903 -0.373981 -2.95644 0
M  V30 3663 H 343.44 -0.196275 -1.45785 0
M  V30 3664 H 345.398 2.00445 -3.65893 0
M  V30 3665 H 344.028 2.02012 -2.51776 0
M  V30 3666 H 343.08 -0.0297798 -3.80388 0
M  V30 3667 H 344.392 0.180383 -4.98474 0
M  V30 3668 H 343.546 2.46929 -5.54176 0
M  V30 3669 H 342.285 2.33033 -4.28424 0
M  V30 3670 H 341.29 0.363545 -5.48597 0
M  V30 3671 H 342.515 0.523551 -6.77079 0
M  V30 3672 H 340.461 2.63394 -6.00799 0
M  V30 3673 H 340.378 1.59201 -7.39047 0
M  V30 3674 H 341.646 2.77639 -7.2838 0
M  V30 3675 N 345.875 1.56104 -0.216619 0
M  V30 3676 C 346.838 2.18819 0.681962 0
M  V30 3677 C 347.838 1.14866 1.12528 0
M  V30 3678 O 349.028 1.40128 1.03488 0
M  V30 3679 C 346.16 2.80756 1.93362 0
M  V30 3680 H 347.353 2.99595 0.135254 0
M  V30 3681 H 344.906 1.56265 0.0330003 0
M  V30 3682 H 345.641 2.03837 2.52232 0
M  V30 3683 H 345.426 3.56876 1.62426 0
M  V30 3684 H 346.916 3.28844 2.57393 0
M  V30 3685 N 347.353 -0.0568162 1.57498 0
M  V30 3686 C 348.316 -1.05038 2.03715 0
M  V30 3687 C 349.316 -1.30709 0.936577 0
M  V30 3688 O 350.506 -1.26178 1.20103 0
M  V30 3689 C 347.638 -2.39034 2.43055 0
M  V30 3690 H 348.831 -0.651715 2.92733 0
M  V30 3691 H 346.384 -0.302947 1.53336 0
M  V30 3692 H 347.119 -2.83703 1.57108 0
M  V30 3693 H 346.904 -2.21739 3.2338 0
M  V30 3694 H 348.394 -3.10421 2.79336 0
M  V30 3695 N 348.832 -1.54138 -0.328536 0
M  V30 3696 C 350.072 -1.73827 -1.07534 0
M  V30 3697 C 350.436 -0.498777 -1.85408 0
M  V30 3698 O 351.637 -0.572937 -2.62623 0
M  V30 3699 C 349.908 -2.97573 -1.97952 0
M  V30 3700 S 351.467 -3.38143 -2.79652 0
M  V30 3701 H 348.285 -0.611287 -0.36311 0
M  V30 3702 H 350.887 -1.92306 -0.351931 0
M  V30 3703 H 349.591 -3.85939 -1.39569 0
M  V30 3704 H 349.122 -2.81603 -2.74706 0
M  V30 3705 H 351.137 -2.93052 -4.00418 0
M  V30 3706 N 350.31 0.590341 -1.46126 0
M  V30 3707 C 351.24 1.71032 -1.58966 0
M  V30 3708 C 352.221 1.64302 -0.440335 0
M  V30 3709 O 353.406 1.82436 -0.665634 0
M  V30 3710 C 350.536 3.09665 -1.57241 0
M  V30 3711 C 349.49 3.31221 -2.71066 0
M  V30 3712 C 348.816 4.70303 -2.54399 0
M  V30 3713 C 350.116 3.19796 -4.1295 0
M  V30 3714 H 351.81 1.60543 -2.52718 0
M  V30 3715 H 349.356 0.770933 -1.21625 0
M  V30 3716 H 351.309 3.87831 -1.64819 0
M  V30 3717 H 350.033 3.21036 -0.600289 0
M  V30 3718 H 348.692 2.55452 -2.62944 0
M  V30 3719 H 348.34 4.78429 -1.55288 0
M  V30 3720 H 348.04 4.85679 -3.30741 0
M  V30 3721 H 349.564 5.50647 -2.63857 0
M  V30 3722 H 350.978 3.87815 -4.22223 0
M  V30 3723 H 349.375 3.46696 -4.89818 0
M  V30 3724 H 350.445 2.16983 -4.33643 0
M  V30 3725 N 351.788 1.33704 0.83433 0
M  V30 3726 C 352.718 1.26967 1.95963 0
M  V30 3727 C 353.699 0.149337 1.69443 0
M  V30 3728 O 354.884 0.339852 1.91203 0
M  V30 3729 C 352.014 1.01275 3.32206 0
M  V30 3730 C 350.968 2.09652 3.73136 0
M  V30 3731 C 350.294 1.69166 5.07235 0
M  V30 3732 C 351.594 3.51372 3.86439 0
M  V30 3733 H 353.288 2.2112 2.01857 0
M  V30 3734 H 350.834 1.06447 0.969793 0
M  V30 3735 H 352.787 0.952106 4.10503 0
M  V30 3736 H 351.511 0.0356203 3.26581 0
M  V30 3737 H 350.17 2.14766 2.97104 0
M  V30 3738 H 349.818 0.701437 4.98085 0
M  V30 3739 H 349.518 2.41694 5.35591 0
M  V30 3740 H 351.042 1.64576 5.88003 0
M  V30 3741 H 352.456 3.48734 4.55036 0
M  V30 3742 H 350.853 4.22425 4.26236 0
M  V30 3743 H 351.923 3.89546 2.88759 0
M  V30 3744 N 353.266 -1.05314 1.17247 0
M  V30 3745 C 354.677 -1.59753 0.96623 0
M  V30 3746 C 355.028 -1.9005 -0.487378 0
M  V30 3747 O 354.153 -1.68126 -1.36245 0
M  V30 3748 C 354.748 -2.90249 1.74759 0
M  V30 3749 C 353.307 -3.41352 1.58606 0
M  V30 3750 C 352.454 -2.15103 1.75002 0
M  V30 3751 H 355.405 -0.881406 1.31973 0
M  V30 3752 H 355.426 -3.60097 1.22925 0
M  V30 3753 H 354.938 -2.68166 2.8055 0
M  V30 3754 H 353.039 -3.68474 0.552985 0
M  V30 3755 H 353.152 -4.16019 2.37624 0
M  V30 3756 H 351.516 -2.25804 1.17833 0
M  V30 3757 H 352.299 -1.95491 2.82202 0
M  V30 3758 N 354.744 -0.972509 -1.24016 0
M  V30 3759 C 355.691 -0.505969 -2.25186 0
M  V30 3760 C 356.661 0.451009 -1.5986 0
M  V30 3761 O 357.846 0.360307 -1.87367 0
M  V30 3762 C 354.986 0.193089 -3.44559 0
M  V30 3763 C 354.099 -0.803222 -4.24467 0
M  V30 3764 C 353.234 -0.0797793 -5.3114 0
M  V30 3765 C 352.273 -1.06583 -6.02749 0
M  V30 3766 N 351.41 -0.372074 -7.01113 0
M  V30 3767 H 356.25 -1.37351 -2.64459 0
M  V30 3768 H 353.787 -0.688419 -1.29997 0
M  V30 3769 H 355.745 0.615125 -4.1264 0
M  V30 3770 H 354.375 1.02455 -3.06109 0
M  V30 3771 H 353.427 -1.34368 -3.55878 0
M  V30 3772 H 354.739 -1.55494 -4.73944 0
M  V30 3773 H 353.893 0.400015 -6.0538 0
M  V30 3774 H 352.632 0.704597 -4.82583 0
M  V30 3775 H 351.637 -1.55645 -5.27309 0
M  V30 3776 H 352.862 -1.85074 -6.53395 0
M  V30 3777 H 350.808 0.393238 -6.5482 0
M  V30 3778 H 350.725 -1.06258 -7.48495 0
M  V30 3779 H 351.993 0.0855932 -7.79453 0
M  V30 3780 N 356.222 1.38976 -0.743202 0
M  V30 3781 C 357.152 2.33171 -0.123873 0
M  V30 3782 C 358.133 1.54336 0.71516 0
M  V30 3783 O 359.318 1.82696 0.658467 0
M  V30 3784 C 356.448 3.38474 0.777978 0
M  V30 3785 C 355.402 4.27979 0.0424758 0
M  V30 3786 C 354.728 5.2405 1.06189 0
M  V30 3787 C 356.028 5.10155 -1.1198 0
M  V30 3788 H 357.722 2.85213 -0.910709 0
M  V30 3789 H 355.268 1.37133 -0.439388 0
M  V30 3790 H 357.221 4.03328 1.22084 0
M  V30 3791 H 355.945 2.84891 1.59702 0
M  V30 3792 H 354.604 3.64616 -0.380853 0
M  V30 3793 H 354.252 4.66758 1.87472 0
M  V30 3794 H 353.952 5.84785 0.574485 0
M  V30 3795 H 355.476 5.9178 1.50428 0
M  V30 3796 H 356.89 5.68307 -0.75499 0
M  V30 3797 H 355.287 5.80073 -1.53738 0
M  V30 3798 H 356.357 4.44504 -1.93764 0
M  V30 3799 N 357.7 0.491464 1.49741 0
M  V30 3800 C 358.977 -0.118984 1.95238 0
M  V30 3801 C 359.357 -1.55044 1.43264 0
M  V30 3802 O 358.705 -2.19287 0.642287 0
M  V30 3803 C 358.915 -0.0414187 3.48975 0
M  V30 3804 C 360.263 -0.220133 4.24029 0
M  V30 3805 O 361.287 -0.117055 3.56008 0
M  V30 3806 O 360.146 -0.430567 5.44801 0
M  V30 3807 H 357.24 -0.100536 0.820866 0
M  V30 3808 H 359.786 0.553322 1.60426 0
M  V30 3809 H 358.558 0.957214 3.79412 0
M  V30 3810 H 358.181 -0.754292 3.9038 0
M  V30 3811 N 359.178 -1.55987 0.224894 0
M  V30 3812 C 360.088 -2.24066 -0.69511 0
M  V30 3813 C 361.104 -1.24939 -1.21104 0
M  V30 3814 O 362.28 -1.5776 -1.25195 0
M  V30 3815 C 359.345 -2.90983 -1.88493 0
M  V30 3816 C 358.406 -4.05462 -1.41064 0
M  V30 3817 C 357.639 -4.69179 -2.54375 0
M  V30 3818 O 357.862 -4.31895 -3.72589 0
M  V30 3819 O 356.796 -5.58108 -2.25386 0
M  V30 3820 H 360.622 -3.03353 -0.145149 0
M  V30 3821 H 358.207 -1.49399 -0.00569476 0
M  V30 3822 H 360.089 -3.33209 -2.57972 0
M  V30 3823 H 358.764 -2.14653 -2.42293 0
M  V30 3824 H 357.671 -3.67798 -0.683774 0
M  V30 3825 H 359.004 -4.83545 -0.918985 0
M  V30 3826 N 360.656 0.0484629 -1.57525 0
M  V30 3827 C 361.586 1.0549 -2.08313 0
M  V30 3828 C 362.567 1.38929 -0.981463 0
M  V30 3829 O 363.752 1.48151 -1.25558 0
M  V30 3830 C 360.882 2.36162 -2.54646 0
M  V30 3831 C 359.836 2.17016 -3.68901 0
M  V30 3832 C 359.162 3.53278 -4.01371 0
M  V30 3833 C 360.462 1.57219 -4.98076 0
M  V30 3834 H 362.156 0.632195 -2.92649 0
M  V30 3835 H 359.702 0.302654 -1.40784 0
M  V30 3836 H 361.655 3.06882 -2.88793 0
M  V30 3837 H 360.379 2.80456 -1.67368 0
M  V30 3838 H 359.038 1.48733 -3.35073 0
M  V30 3839 H 358.686 3.95185 -3.11188 0
M  V30 3840 H 358.386 3.41299 -4.78318 0
M  V30 3841 H 359.91 4.25391 -4.38035 0
M  V30 3842 H 361.324 2.17832 -5.30304 0
M  V30 3843 H 359.721 1.55871 -5.79503 0
M  V30 3844 H 360.791 0.535956 -4.81929 0
M  V30 3845 N 362.134 1.5431 0.320358 0
M  V30 3846 C 363.55 1.45091 0.664889 0
M  V30 3847 C 363.75 0.626382 1.91517 0
M  V30 3848 O 362.806 0.126443 2.52183 0
M  V30 3849 C 364.119 2.88848 0.83591 0
M  V30 3850 C 365.667 2.9877 0.933046 0
M  V30 3851 C 366.142 4.43683 1.13621 0
M  V30 3852 N 367.633 4.47309 1.20287 0
M  V30 3853 C 368.368 5.56595 1.37801 0
M  V30 3854 N 367.864 6.75844 1.52338 0
M  V30 3855 N 369.657 5.44248 1.40535 0
M  V30 3856 H 361.808 2.06398 -0.501374 0
M  V30 3857 H 364.071 0.933963 -0.162534 0
M  V30 3858 H 363.777 3.51698 -0.0116092 0
M  V30 3859 H 363.651 3.35148 1.73078 0
M  V30 3860 H 366.038 2.36045 1.77107 0
M  V30 3861 H 366.119 2.55796 0.0145782 0
M  V30 3862 H 365.763 5.06995 0.303032 0
M  V30 3863 H 365.693 4.84269 2.0686 0
M  V30 3864 H 368.184 3.61388 1.10485 0
M  V30 3865 H 368.497 7.54892 1.65403 0
M  V30 3866 H 366.842 6.78746 1.4943 0
M  V30 3867 H 370.033 4.50038 1.28777 0
M  V30 3868 H 370.206 6.29473 1.53842 0
M  V30 3869 N 363.613 -0.582584 1.46437 0
M  V30 3870 C 364.89 -1.34276 1.4223 0
M  V30 3871 C 365.27 -2.10835 0.10583 0
M  V30 3872 O 364.618 -2.09485 -0.912596 0
M  V30 3873 C 364.828 -2.26865 2.65204 0
M  V30 3874 C 366.176 -2.88691 3.11356 0
M  V30 3875 O 367.2 -2.37178 2.65753 0
M  V30 3876 O 366.059 -3.82255 3.90568 0
M  V30 3877 H 363.153 -0.603326 0.565621 0
M  V30 3878 H 365.699 -0.603591 1.58603 0
M  V30 3879 H 364.471 -1.69724 3.52576 0
M  V30 3880 H 364.094 -3.08122 2.5129 0
M  V30 3881 N 365.091 -1.34144 -0.827227 0
M  V30 3882 C 366.001 -1.27428 -1.96975 0
M  V30 3883 C 367.017 -0.182728 -1.73038 0
M  V30 3884 O 368.193 -0.408426 -1.97215 0
M  V30 3885 C 365.258 -1.02526 -3.31194 0
M  V30 3886 C 364.319 -2.20796 -3.68168 0
M  V30 3887 C 363.552 -1.97073 -4.95982 0
M  V30 3888 O 363.775 -0.926822 -5.6282 0
M  V30 3889 O 362.709 -2.83912 -5.30733 0
M  V30 3890 H 366.535 -2.23537 -2.05584 0
M  V30 3891 H 364.12 -1.14307 -0.961989 0
M  V30 3892 H 366.002 -0.904026 -4.11589 0
M  V30 3893 H 364.677 -0.0945389 -3.23562 0
M  V30 3894 H 363.584 -2.38477 -2.88235 0
M  V30 3895 H 364.917 -3.12243 -3.8048 0
M  V30 3896 N 366.569 1.04691 -1.17803 0
M  V30 3897 C 367.817 1.7743 -0.967617 0
M  V30 3898 C 368.138 1.88359 0.504574 0
M  V30 3899 O 367.408 1.40402 1.36617 0
M  V30 3900 H 365.988 0.657242 -0.355024 0
M  V30 3901 H 368.65 1.2638 -1.48371 0
M  V30 3902 H 367.746 2.78924 -1.40027 0
M  V30 3903 N 368.047 0.979072 1.23499 0
M  V30 3904 C 368.994 0.517904 2.24914 0
M  V30 3905 C 369.964 -0.442525 1.60097 0
M  V30 3906 O 371.149 -0.350365 1.87556 0
M  V30 3907 C 368.289 -0.174813 3.44657 0
M  V30 3908 C 367.402 0.825721 4.24035 0
M  V30 3909 C 366.537 0.107946 5.3109 0
M  V30 3910 C 365.576 1.09778 6.02175 0
M  V30 3911 N 364.713 0.40925 7.00906 0
M  V30 3912 H 369.553 1.38751 2.63727 0
M  V30 3913 H 367.09 0.695303 1.2963 0
M  V30 3914 H 369.048 -0.593233 4.12961 0
M  V30 3915 H 367.678 -1.0083 3.06648 0
M  V30 3916 H 366.73 1.36253 3.55161 0
M  V30 3917 H 368.042 1.58005 4.73113 0
M  V30 3918 H 367.196 -0.367904 6.05583 0
M  V30 3919 H 365.935 -0.678994 4.8295 0
M  V30 3920 H 364.94 1.5844 5.26476 0
M  V30 3921 H 366.165 1.88536 6.52404 0
M  V30 3922 H 364.111 -0.358506 6.5502 0
M  V30 3923 H 364.028 1.10226 7.47921 0
M  V30 3924 H 365.296 -0.0442557 7.79487 0
M  V30 3925 N 369.525 -1.3858 0.750561 0
M  V30 3926 C 370.488 -2.28836 0.129152 0
M  V30 3927 C 371.488 -1.47045 -0.650714 0
M  V30 3928 O 372.678 -1.6753 -0.477428 0
M  V30 3929 C 369.81 -3.30751 -0.825622 0
M  V30 3930 H 371.003 -2.85294 0.924516 0
M  V30 3931 H 368.556 -1.47489 0.517376 0
M  V30 3932 H 369.291 -2.79378 -1.64677 0
M  V30 3933 H 369.076 -3.91177 -0.268852 0
M  V30 3934 H 370.566 -3.98249 -1.2565 0
M  V30 3935 N 371.003 -0.499398 -1.49478 0
M  V30 3936 C 372.228 0.044722 -2.07352 0
M  V30 3937 C 372.653 1.30207 -1.35749 0
M  V30 3938 O 372.011 1.76516 -0.413732 0
M  V30 3939 C 372.059 0.283013 -3.59488 0
M  V30 3940 O 371.163 1.35804 -3.89398 0
M  V30 3941 H 370.504 -0.0255147 -0.66351 0
M  V30 3942 H 373.034 -0.698561 -1.92305 0
M  V30 3943 H 373.044 0.515007 -4.04737 0
M  V30 3944 H 371.719 -0.635636 -4.11014 0
M  V30 3945 H 370.296 1.11113 -3.55961 0
M  V30 3946 N 372.481 1.55866 -0.233164 0
M  V30 3947 C 373.706 2.03449 0.402906 0
M  V30 3948 C 374.131 1.11166 1.51736 0
M  V30 3949 O 373.489 0.101996 1.81013 0
M  V30 3950 C 373.537 3.49165 0.9009 0
M  V30 3951 O 372.641 3.60019 2.01147 0
M  V30 3952 H 371.982 0.657913 0.0897025 0
M  V30 3953 H 374.512 2.01493 -0.355201 0
M  V30 3954 H 374.522 3.89716 1.2077 0
M  V30 3955 H 373.197 4.15813 0.0852889 0
M  V30 3956 H 371.774 3.3136 1.71042 0
M  V30 3957 N 373.959 -0.0401083 1.57549 0
M  V30 3958 C 374.922 -1.02871 2.04817 0
M  V30 3959 C 375.922 -1.29708 0.950388 0
M  V30 3960 O 377.112 -1.24897 1.21435 0
M  V30 3961 C 374.244 -2.36443 2.45576 0
M  V30 3962 H 375.437 -0.620631 2.93408 0
M  V30 3963 H 372.99 -0.286667 1.53649 0
M  V30 3964 H 373.725 -2.82021 1.60108 0
M  V30 3965 H 373.51 -2.18296 3.25713 0
M  V30 3966 H 375 -3.07441 2.82612 0
M  V30 3967 N 375.437 -1.54477 -0.31217 0
M  V30 3968 C 376.384 -1.84655 -1.38461 0
M  V30 3969 C 377.354 -0.694536 -1.50882 0
M  V30 3970 O 378.539 -0.942081 -1.6592 0
M  V30 3971 C 375.679 -2.0896 -2.74645 0
M  V30 3972 C 374.792 -3.36618 -2.70763 0
M  V30 3973 C 373.927 -3.50824 -3.98868 0
M  V30 3974 C 372.966 -4.72315 -3.89339 0
M  V30 3975 N 372.103 -4.83387 -5.09197 0
M  V30 3976 H 376.943 -2.76142 -1.12026 0
M  V30 3977 H 374.48 -1.36748 -0.542065 0
M  V30 3978 H 376.438 -2.21045 -3.53829 0
M  V30 3979 H 375.068 -1.20752 -2.99364 0
M  V30 3980 H 374.12 -3.33211 -1.83506 0
M  V30 3981 H 375.432 -4.25917 -2.59608 0
M  V30 3982 H 374.586 -3.62513 -4.86486 0
M  V30 3983 H 373.325 -2.59638 -4.12843 0
M  V30 3984 H 372.33 -4.6067 -3.00105 0
M  V30 3985 H 373.555 -5.64897 -3.76919 0
M  V30 3986 H 371.501 -3.9512 -5.23657 0
M  V30 3987 H 371.418 -5.66669 -5.00422 0
M  V30 3988 H 372.686 -4.9942 -5.98498 0
M  V30 3989 N 376.915 0.57481 -1.46744 0
M  V30 3990 C 377.847 1.69804 -1.53946 0
M  V30 3991 C 378.86 1.57098 -0.427106 0
M  V30 3992 O 380.049 1.64378 -0.695863 0
M  V30 3993 C 377.149 3.08125 -1.4111 0
M  V30 3994 C 376.322 3.46757 -2.66605 0
M  V30 3995 C 375.381 4.6417 -2.47855 0
M  V30 3996 O 374.407 4.69634 -3.21609 0
M  V30 3997 N 375.609 5.59553 -1.54534 0
M  V30 3998 H 378.374 1.64077 -2.50796 0
M  V30 3999 H 375.935 0.761 -1.429 0
M  V30 4000 H 377.927 3.84478 -1.26328 0
M  V30 4001 H 376.497 3.08175 -0.524109 0
M  V30 4002 H 375.717 2.6003 -2.96274 0
M  V30 4003 H 377.005 3.69337 -3.49954 0
M  V30 4004 H 376.403 5.57881 -0.937304 0
M  V30 4005 H 374.96 6.35304 -1.45711 0
M  V30 4006 N 378.394 1.34581 0.820102 0
M  V30 4007 C 379.81 1.14325 1.11364 0
M  V30 4008 C 380.01 -0.0533648 2.01429 0
M  V30 4009 O 379.066 -0.728044 2.41776 0
M  V30 4010 C 380.379 2.43983 1.75764 0
M  V30 4011 C 381.927 2.50065 1.88246 0
M  V30 4012 C 382.402 3.79732 2.56061 0
M  V30 4013 N 383.893 3.80908 2.63558 0
M  V30 4014 C 384.628 4.77961 3.16766 0
M  V30 4015 N 384.124 5.85397 3.70517 0
M  V30 4016 N 385.917 4.65413 3.15194 0
M  V30 4017 H 378.068 2.11246 0.221096 0
M  V30 4018 H 380.331 0.934289 0.160649 0
M  V30 4019 H 380.037 3.31651 1.1705 0
M  V30 4020 H 379.911 2.57531 2.75604 0
M  V30 4021 H 382.298 1.62834 2.46108 0
M  V30 4022 H 382.379 2.40442 0.873006 0
M  V30 4023 H 382.023 4.67354 1.98853 0
M  V30 4024 H 381.953 3.86639 3.57516 0
M  V30 4025 H 384.444 3.03274 2.25463 0
M  V30 4026 H 384.757 6.55463 4.09376 0
M  V30 4027 H 383.102 5.89107 3.68752 0
M  V30 4028 H 386.293 3.80627 2.72471 0
M  V30 4029 H 386.466 5.41216 3.56356 0
M  V30 4030 N 379.872 -1.04064 1.18357 0
M  V30 4031 C 380.802 -2.14001 0.934113 0
M  V30 4032 C 381.783 -1.69616 -0.128186 0
M  V30 4033 O 382.968 -1.94185 0.0244093 0
M  V30 4034 C 380.098 -3.44253 0.459066 0
M  V30 4035 C 379.052 -4.02261 1.46185 0
M  V30 4036 C 378.378 -5.27992 0.844322 0
M  V30 4037 C 379.678 -4.38432 2.83856 0
M  V30 4038 H 381.372 -2.35127 1.85352 0
M  V30 4039 H 378.918 -1.12998 0.892604 0
M  V30 4040 H 380.871 -4.20522 0.271907 0
M  V30 4041 H 379.595 -3.22813 -0.495912 0
M  V30 4042 H 378.254 -3.28074 1.63595 0
M  V30 4043 H 377.902 -5.02862 -0.117845 0
M  V30 4044 H 377.602 -5.67765 1.51384 0
M  V30 4045 H 379.126 -6.06938 0.667693 0
M  V30 4046 H 380.54 -5.05688 2.70098 0
M  V30 4047 H 378.937 -4.89254 3.47491 0
M  V30 4048 H 380.007 -3.4826 3.37406 0
M  V30 4049 N 381.35 -0.985608 -1.22978 0
M  V30 4050 C 382.297 -0.529825 -2.24636 0
M  V30 4051 C 383.267 0.434028 -1.60329 0
M  V30 4052 O 384.452 0.340414 -1.87739 0
M  V30 4053 C 381.592 0.156533 -3.44745 0
M  V30 4054 C 380.705 -0.848197 -4.23591 0
M  V30 4055 C 379.84 -0.136109 -5.31026 0
M  V30 4056 C 378.879 -1.1297 -6.01585 0
M  V30 4057 N 378.016 -0.446415 -7.00679 0
M  V30 4058 H 382.856 -1.40148 -2.62988 0
M  V30 4059 H 380.393 -0.702168 -1.29259 0
M  V30 4060 H 382.351 0.571324 -4.1327 0
M  V30 4061 H 380.981 0.992025 -3.07179 0
M  V30 4062 H 380.033 -1.38135 -3.54433 0
M  V30 4063 H 381.345 -1.60512 -4.72268 0
M  V30 4064 H 380.499 0.335784 -6.0577 0
M  V30 4065 H 379.238 0.653373 -4.83304 0
M  V30 4066 H 378.243 -1.6123 -5.25628 0
M  V30 4067 H 379.468 -1.91993 -6.51395 0
M  V30 4068 H 377.414 0.323763 -6.55201 0
M  V30 4069 H 377.331 -1.1419 -7.47326 0
M  V30 4070 H 378.599 0.00291697 -7.795 0
M  V30 4071 N 382.828 1.3818 -0.7579 0
M  V30 4072 C 384.068 2.01864 -0.320968 0
M  V30 4073 C 384.432 1.58863 1.07827 0
M  V30 4074 O 385.633 2.14908 1.61456 0
M  V30 4075 C 383.904 3.54626 -0.44446 0
M  V30 4076 S 385.463 4.38706 -0.0907467 0
M  V30 4077 H 382.281 0.700056 -0.124268 0
M  V30 4078 H 384.883 1.68611 -0.989468 0
M  V30 4079 H 383.587 3.83411 -1.4637 0
M  V30 4080 H 383.118 3.92661 0.241073 0
M  V30 4081 H 385.133 4.83435 1.11826 0
M  V30 4082 N 384.306 0.507319 1.49211 0
M  V30 4083 C 385.269 -0.256763 2.27757 0
M  V30 4084 C 386.269 -0.888287 1.34038 0
M  V30 4085 O 387.459 -0.751841 1.5714 0
M  V30 4086 C 384.591 -1.36905 3.12202 0
M  V30 4087 H 385.784 0.432557 2.96764 0
M  V30 4088 H 383.337 0.262488 1.5408 0
M  V30 4089 H 384.072 -2.09233 2.47775 0
M  V30 4090 H 383.857 -0.921599 3.81115 0
M  V30 4091 H 385.347 -1.9071 3.7151 0
M  V30 4092 N 385.784 -1.5574 0.241426 0
M  V30 4093 C 387.009 -2.0366 -0.392111 0
M  V30 4094 C 387.434 -1.11969 -1.51144 0
M  V30 4095 O 386.792 -0.111594 -1.80956 0
M  V30 4096 C 386.84 -3.49638 -0.882371 0
M  V30 4097 O 385.944 -3.6108 -1.99235 0
M  V30 4098 H 385.285 -0.658379 -0.0862122 0
M  V30 4099 H 387.815 -2.01302 0.365881 0
M  V30 4100 H 387.825 -3.90351 -1.18702 0
M  V30 4101 H 386.5 -4.15852 -0.0632361 0
M  V30 4102 H 385.077 -3.32262 -1.69282 0
M  V30 4103 N 387.262 0.0317525 -1.57568 0
M  V30 4104 C 388.192 1.03274 -2.0942 0
M  V30 4105 C 389.173 1.3788 -0.996143 0
M  V30 4106 O 390.358 1.46811 -1.27122 0
M  V30 4107 C 387.488 2.33448 -2.57137 0
M  V30 4108 C 386.442 2.13091 -3.71182 0
M  V30 4109 C 385.768 3.49001 -4.05095 0
M  V30 4110 C 387.068 1.51928 -4.99715 0
M  V30 4111 H 388.762 0.60112 -2.93303 0
M  V30 4112 H 386.308 0.287705 -1.41097 0
M  V30 4113 H 388.261 3.03802 -2.92032 0
M  V30 4114 H 386.985 2.78665 -1.70333 0
M  V30 4115 H 385.644 1.45171 -3.36632 0
M  V30 4116 H 385.292 3.91862 -3.15362 0
M  V30 4117 H 384.992 3.36207 -4.81911 0
M  V30 4118 H 386.516 4.20721 -4.42522 0
M  V30 4119 H 387.93 2.12196 -5.32584 0
M  V30 4120 H 386.327 1.49716 -5.81124 0
M  V30 4121 H 387.397 0.484811 -4.8247 0
M  V30 4122 N 388.74 1.54641 0.303973 0
M  V30 4123 C 389.672 1.81754 1.39636 0
M  V30 4124 C 390.685 0.70035 1.46966 0
M  V30 4125 O 391.874 0.97778 1.49338 0
M  V30 4126 C 388.974 1.93785 2.7803 0
M  V30 4127 C 388.147 3.24156 2.93669 0
M  V30 4128 C 387.206 3.26641 4.12544 0
M  V30 4129 O 386.232 4.00187 4.04771 0
M  V30 4130 N 387.434 2.5182 5.23036 0
M  V30 4131 H 390.199 2.76031 1.16734 0
M  V30 4132 H 387.76 1.54178 0.494033 0
M  V30 4133 H 389.752 1.92852 3.55795 0
M  V30 4134 H 388.322 1.06515 2.93893 0
M  V30 4135 H 387.542 3.37887 2.03042 0
M  V30 4136 H 388.83 4.10195 3.01027 0
M  V30 4137 H 388.228 1.91692 5.32232 0
M  V30 4138 H 386.785 2.56644 5.99147 0
M  V30 4139 N 390.218 -0.567019 1.47046 0
M  V30 4140 C 391.165 -1.67489 1.58796 0
M  V30 4141 C 392.135 -1.60399 0.43144 0
M  V30 4142 O 393.32 -1.79378 0.650233 0
M  V30 4143 C 390.46 -3.05821 1.59899 0
M  V30 4144 C 389.573 -3.2342 2.86397 0
M  V30 4145 C 388.708 -4.52093 2.789 0
M  V30 4146 C 387.747 -4.6309 4.00267 0
M  V30 4147 N 386.884 -5.83106 3.91064 0
M  V30 4148 H 391.724 -1.56785 2.53422 0
M  V30 4149 H 389.261 -0.763896 1.2571 0
M  V30 4150 H 391.219 -3.8591 1.58522 0
M  V30 4151 H 389.849 -3.15384 0.687929 0
M  V30 4152 H 388.901 -2.3683 2.97684 0
M  V30 4153 H 390.213 -3.27412 3.76301 0
M  V30 4154 H 389.367 -5.4043 2.75718 0
M  V30 4155 H 388.106 -4.50565 1.86662 0
M  V30 4156 H 387.111 -3.73168 4.03765 0
M  V30 4157 H 388.336 -4.66386 4.93621 0
M  V30 4158 H 386.282 -5.82546 3.01623 0
M  V30 4159 H 386.199 -5.88434 4.74638 0
M  V30 4160 H 387.467 -6.73831 3.91882 0
M  V30 4161 N 391.696 -1.35014 -0.812953 0
M  V30 4162 C 392.943 -1.27931 -1.56971 0
M  V30 4163 C 393.271 0.148034 -1.93936 0
M  V30 4164 O 392.526 1.11175 -1.61054 0
M  V30 4165 C 392.825 -2.12524 -2.87347 0
M  V30 4166 C 392.491 -3.61401 -2.6963 0
M  V30 4167 C 391.153 -4.01983 -2.64506 0
M  V30 4168 C 393.505 -4.55894 -2.52607 0
M  V30 4169 C 390.833 -5.35235 -2.40293 0
M  V30 4170 C 393.185 -5.89336 -2.29925 0
M  V30 4171 C 391.849 -6.2907 -2.23219 0
M  V30 4172 H 391.119 -0.468131 -0.574399 0
M  V30 4173 H 393.766 -1.66851 -0.939836 0
M  V30 4174 H 392.071 -1.66463 -3.54679 0
M  V30 4175 H 393.768 -2.04383 -3.45005 0
M  V30 4176 H 390.358 -3.29193 -2.74463 0
M  V30 4177 H 394.542 -4.25431 -2.55583 0
M  V30 4178 H 389.798 -5.65028 -2.33566 0
M  V30 4179 H 393.972 -6.62139 -2.15743 0
M  V30 4180 H 391.599 -7.32256 -2.04219 0
M  V30 4181 N 393.175 1.03435 -1.18907 0
M  V30 4182 C 394.423 1.76394 -0.986382 0
M  V30 4183 C 394.744 1.88883 0.484567 0
M  V30 4184 O 394.014 1.41843 1.3512 0
M  V30 4185 H 392.594 0.65344 -0.361975 0
M  V30 4186 H 395.256 1.248 -1.49703 0
M  V30 4187 H 394.352 2.77424 -1.42978 0
M  V30 4188 N 394.653 0.992116 1.22453 0
M  V30 4189 C 395.563 0.55065 2.28046 0
M  V30 4190 C 396.579 -0.400189 1.69335 0
M  V30 4191 O 397.755 -0.267215 1.99619 0
M  V30 4192 C 394.82 -0.128496 3.46462 0
M  V30 4193 C 393.881 0.865208 4.20491 0
M  V30 4194 C 393.114 0.218377 5.33253 0
M  V30 4195 O 393.337 -0.987894 5.6178 0
M  V30 4196 O 392.271 0.922845 5.94783 0
M  V30 4197 H 396.097 1.4291 2.67975 0
M  V30 4198 H 393.682 0.760326 1.28606 0
M  V30 4199 H 395.564 -0.508947 4.18315 0
M  V30 4200 H 394.239 -0.981526 3.0846 0
M  V30 4201 H 393.146 1.29658 3.50913 0
M  V30 4202 H 394.479 1.68741 4.62371 0
M  V30 4203 N 396.131 -1.37776 0.765217 0
M  V30 4204 C 397.547 -1.53297 0.444108 0
M  V30 4205 C 397.747 -1.72515 -1.04119 0
M  V30 4206 O 396.803 -1.74278 -1.82711 0
M  V30 4207 C 398.116 -2.73328 1.25349 0
M  V30 4208 C 399.664 -2.87185 1.24473 0
M  V30 4209 C 400.139 -4.10191 2.03733 0
M  V30 4210 N 401.63 -4.17291 2.01053 0
M  V30 4211 C 402.365 -5.11488 2.59166 0
M  V30 4212 N 401.861 -6.11285 3.26041 0
M  V30 4213 N 403.654 -5.03924 2.49032 0
M  V30 4214 H 395.805 -1.23552 1.72768 0
M  V30 4215 H 398.068 -0.601103 0.733062 0
M  V30 4216 H 397.774 -2.6557 2.30577 0
M  V30 4217 H 397.648 -3.66834 0.87823 0
M  V30 4218 H 400.035 -2.94418 0.20047 0
M  V30 4219 H 400.116 -1.94657 1.65959 0
M  V30 4220 H 399.76 -4.0372 3.08176 0
M  V30 4221 H 399.69 -5.01821 1.59633 0
M  V30 4222 H 402.181 -3.45825 1.5236 0
M  V30 4223 H 402.494 -6.79678 3.67774 0
M  V30 4224 H 400.839 -6.11583 3.30138 0
M  V30 4225 H 404.03 -4.24902 1.96407 0
M  V30 4226 H 404.203 -5.77152 2.94617 0
M  V30 4227 N 397.609 -0.515225 -1.4894 0
M  V30 4228 C 398.572 0.244681 -2.2789 0
M  V30 4229 C 399.572 0.881166 -1.34507 0
M  V30 4230 O 400.762 0.743497 -1.57537 0
M  V30 4231 C 397.894 1.35247 -3.12923 0
M  V30 4232 H 399.087 -0.448289 -2.96531 0
M  V30 4233 H 396.64 -0.270656 -1.53939 0
M  V30 4234 H 397.375 2.07916 -2.48881 0
M  V30 4235 H 397.16 0.901374 -3.81599 0
M  V30 4236 H 398.65 1.88737 -3.72516 0
M  V30 4237 N 399.087 1.5561 -0.249682 0
M  V30 4238 C 400.334 1.99011 0.374287 0
M  V30 4239 C 400.662 1.13785 1.57744 0
M  V30 4240 O 399.917 0.189326 1.94782 0
M  V30 4241 C 400.216 3.4775 0.824887 0
M  V30 4242 C 399.882 4.50086 -0.270819 0
M  V30 4243 C 398.544 4.77791 -0.571746 0
M  V30 4244 C 400.896 5.11312 -1.01041 0
M  V30 4245 C 398.224 5.63997 -1.61629 0
M  V30 4246 C 400.576 5.98651 -2.0445 0
M  V30 4247 C 399.24 6.24688 -2.35204 0
M  V30 4248 H 398.51 0.728233 0.136961 0
M  V30 4249 H 401.157 1.88122 -0.358087 0
M  V30 4250 H 399.462 3.55985 1.63651 0
M  V30 4251 H 401.159 3.78721 1.31799 0
M  V30 4252 H 397.749 4.28592 -0.026136 0
M  V30 4253 H 401.933 4.89953 -0.791177 0
M  V30 4254 H 397.189 5.82425 -1.85988 0
M  V30 4255 H 401.363 6.45135 -2.62248 0
M  V30 4256 H 398.99 6.91281 -3.16282 0
M  V30 4257 N 400.565 -0.0233959 1.57583 0
M  V30 4258 C 401.512 -1.02224 2.06927 0
M  V30 4259 C 402.482 -1.35575 0.959617 0
M  V30 4260 O 403.667 -1.45815 1.23055 0
M  V30 4261 C 400.807 -2.31636 2.5581 0
M  V30 4262 C 399.92 -2.04394 3.80588 0
M  V30 4263 C 399.055 -3.27717 4.18061 0
M  V30 4264 C 398.094 -2.96056 5.3574 0
M  V30 4265 N 397.231 -4.11847 5.68618 0
M  V30 4266 H 402.071 -0.594504 2.9201 0
M  V30 4267 H 399.608 -0.281921 1.44373 0
M  V30 4268 H 401.566 -3.07258 2.82221 0
M  V30 4269 H 400.196 -2.72122 1.73636 0
M  V30 4270 H 399.248 -1.19244 3.61227 0
M  V30 4271 H 400.56 -1.77042 4.66323 0
M  V30 4272 H 399.714 -4.11702 4.4563 0
M  V30 4273 H 398.453 -3.58188 3.30988 0
M  V30 4274 H 397.458 -2.10474 5.07918 0
M  V30 4275 H 398.683 -2.66857 6.24471 0
M  V30 4276 H 396.629 -4.42258 4.84504 0
M  V30 4277 H 396.546 -3.87938 6.48876 0
M  V30 4278 H 397.814 -4.96689 6.00766 0
M  V30 4279 N 402.043 -1.548 -0.295768 0
M  V30 4280 C 403.006 -1.85363 -1.34808 0
M  V30 4281 C 404.006 -0.726817 -1.43436 0
M  V30 4282 O 405.196 -0.995088 -1.42981 0
M  V30 4283 C 402.328 -2.03859 -2.73229 0
M  V30 4284 H 403.521 -2.7941 -1.08949 0
M  V30 4285 H 401.074 -1.46942 -0.532702 0
M  V30 4286 H 401.809 -1.12117 -3.04303 0
M  V30 4287 H 401.594 -2.8588 -2.68356 0
M  V30 4288 H 403.084 -2.28857 -3.49305 0
M  V30 4289 N 403.521 0.559213 -1.47345 0
M  V30 4290 C 404.767 1.31614 -1.55079 0
M  V30 4291 C 405.122 1.91257 -0.209422 0
M  V30 4292 O 404.415 1.74796 0.784656 0
M  V30 4293 C 404.609 2.44853 -2.6035 0
M  V30 4294 C 404.438 1.96305 -4.04591 0
M  V30 4295 C 403.208 1.8024 -4.72061 0
M  V30 4296 C 405.406 1.50872 -4.91673 0
M  V30 4297 N 403.388 1.26011 -6.00828 0
M  V30 4298 C 404.759 1.08395 -6.10451 0
M  V30 4299 C 406.814 1.38905 -4.78132 0
M  V30 4300 C 405.517 0.551399 -7.17183 0
M  V30 4301 C 407.543 0.870518 -5.84958 0
M  V30 4302 C 406.905 0.455661 -7.02925 0
M  V30 4303 H 403.004 0.473712 -0.62219 0
M  V30 4304 H 405.588 0.634103 -1.84085 0
M  V30 4305 H 403.759 3.10589 -2.33215 0
M  V30 4306 H 405.491 3.11849 -2.57938 0
M  V30 4307 H 402.246 2.02895 -4.27937 0
M  V30 4308 H 402.67 1.00991 -6.69425 0
M  V30 4309 H 407.312 1.69591 -3.87297 0
M  V30 4310 H 405.03 0.232159 -8.07766 0
M  V30 4311 H 408.616 0.781507 -5.76527 0
M  V30 4312 H 407.496 0.0606414 -7.84177 0
M  V30 4313 N 404.999 1.35443 0.805782 0
M  V30 4314 C 405.962 1.28301 1.89925 0
M  V30 4315 C 406.962 0.194285 1.59622 0
M  V30 4316 O 408.152 0.448036 1.6834 0
M  V30 4317 C 405.284 0.984997 3.2636 0
M  V30 4318 H 406.477 2.2553 1.97677 0
M  V30 4319 H 404.03 1.19979 1.00173 0
M  V30 4320 H 404.765 0.016603 3.24296 0
M  V30 4321 H 404.55 1.77269 3.4974 0
M  V30 4322 H 406.04 0.960651 4.064 0
M  V30 4323 N 406.477 -1.02803 1.19454 0
M  V30 4324 C 407.723 -1.76478 0.999171 0
M  V30 4325 C 408.056 -1.88456 -0.468828 0
M  V30 4326 O 407.331 -1.40198 -1.34814 0
M  V30 4327 C 407.614 -3.19044 1.66981 0
M  V30 4328 C 407.467 -3.14932 3.21151 0
M  V30 4329 C 408.786 -4.17456 1.39349 0
M  V30 4330 H 405.905 -0.640614 0.364393 0
M  V30 4331 H 408.547 -1.20005 1.47305 0
M  V30 4332 H 406.697 -3.67263 1.2669 0
M  V30 4333 H 408.369 -2.74605 3.70661 0
M  V30 4334 H 406.612 -2.52625 3.52652 0
M  V30 4335 H 407.283 -4.1566 3.63223 0
M  V30 4336 H 409.759 -3.77842 1.74283 0
M  V30 4337 H 408.635 -5.154 1.88823 0
M  V30 4338 H 408.896 -4.40949 0.318813 0
M  V30 4339 N 407.956 -0.998596 -1.21925 0
M  V30 4340 C 408.919 -0.558679 -2.22287 0
M  V30 4341 C 409.919 0.361525 -1.56683 0
M  V30 4342 O 411.109 0.152695 -1.73529 0
M  V30 4343 C 408.241 0.18661 -3.40389 0
M  V30 4344 H 409.434 -1.4463 -2.62721 0
M  V30 4345 H 406.987 -0.786413 -1.35075 0
M  V30 4346 H 407.722 1.08996 -3.05435 0
M  V30 4347 H 407.507 -0.474188 -3.89222 0
M  V30 4348 H 408.997 0.482367 -4.14805 0
M  V30 4349 N 409.434 1.37368 -0.772513 0
M  V30 4350 C 410.85 1.53059 -0.452231 0
M  V30 4351 C 411.05 1.73065 1.03203 0
M  V30 4352 O 410.106 1.75245 1.81784 0
M  V30 4353 C 411.419 2.72659 -1.26797 0
M  V30 4354 C 412.967 2.86521 -1.25995 0
M  V30 4355 C 413.442 4.09105 -2.05905 0
M  V30 4356 N 414.933 4.16219 -2.03263 0
M  V30 4357 C 415.668 5.10107 -2.61875 0
M  V30 4358 N 415.164 6.09547 -3.29278 0
M  V30 4359 N 416.957 5.02596 -2.51701 0
M  V30 4360 H 409.108 1.22634 -1.7342 0
M  V30 4361 H 411.371 0.597206 -0.736239 0
M  V30 4362 H 411.077 2.64343 -2.31982 0
M  V30 4363 H 410.951 3.66363 -0.897672 0
M  V30 4364 H 413.338 2.94308 -0.216081 0
M  V30 4365 H 413.419 1.93774 -1.66989 0
M  V30 4366 H 413.063 4.0208 -3.10313 0
M  V30 4367 H 412.993 5.00968 -1.62292 0
M  V30 4368 H 415.484 3.45012 -1.54192 0
M  V30 4369 H 415.797 6.77718 -3.71374 0
M  V30 4370 H 414.142 6.09824 -3.33377 0
M  V30 4371 H 417.333 4.23855 -1.98657 0
M  V30 4372 H 417.506 5.75582 -2.97673 0
M  V30 4373 N 410.912 0.523116 1.48665 0
M  V30 4374 C 411.842 -0.23231 2.32342 0
M  V30 4375 C 412.823 -0.941637 1.41659 0
M  V30 4376 O 414.008 -0.928751 1.70552 0
M  V30 4377 C 411.138 -1.28387 3.22698 0
M  V30 4378 C 410.092 -0.693098 4.22351 0
M  V30 4379 C 409.418 -1.8468 5.01794 0
M  V30 4380 C 410.718 0.33063 5.21252 0
M  V30 4381 H 412.412 0.466192 2.95748 0
M  V30 4382 H 409.958 0.225643 1.42221 0
M  V30 4383 H 411.911 -1.82024 3.80059 0
M  V30 4384 H 410.635 -2.01186 2.57278 0
M  V30 4385 H 409.294 -0.178299 3.66166 0
M  V30 4386 H 408.942 -2.56301 4.32804 0
M  V30 4387 H 408.642 -1.45747 5.69238 0
M  V30 4388 H 410.166 -2.38709 5.62006 0
M  V30 4389 H 411.58 -0.118407 5.73178 0
M  V30 4390 H 409.977 0.636974 5.9671 0
M  V30 4391 H 411.047 1.23883 4.68808 0
M  V30 4392 N 412.39 -1.55475 0.257931 0
M  V30 4393 C 413.615 -2.04064 -0.370488 0
M  V30 4394 C 414.04 -1.13565 -1.49948 0
M  V30 4395 O 413.398 -0.130781 -1.80828 0
M  V30 4396 C 413.446 -3.50554 -0.845237 0
M  V30 4397 O 412.55 -3.63173 -1.95394 0
M  V30 4398 H 411.891 -0.659257 -0.0792243 0
M  V30 4399 H 414.421 -2.00903 0.387212 0
M  V30 4400 H 414.431 -3.91588 -1.14555 0
M  V30 4401 H 413.106 -4.15896 -0.0191259 0
M  V30 4402 H 411.683 -3.34039 -1.65748 0
M  V30 4403 N 413.868 0.0150385 -1.57593 0
M  V30 4404 C 414.8 1.03912 -2.04291 0
M  V30 4405 C 415.813 1.31618 -0.958146 0
M  V30 4406 O 417.002 1.28859 -1.23522 0
M  V30 4407 C 414.102 2.37749 -2.41514 0
M  V30 4408 C 413.275 2.29198 -3.72541 0
M  V30 4409 C 412.334 3.45598 -3.96797 0
M  V30 4410 O 411.36 3.24461 -4.67668 0
M  V30 4411 N 412.562 4.67945 -3.43523 0
M  V30 4412 H 415.327 0.64099 -2.92765 0
M  V30 4413 H 412.888 0.20272 -1.60626 0
M  V30 4414 H 414.88 3.14364 -2.54867 0
M  V30 4415 H 413.45 2.69357 -1.58637 0
M  V30 4416 H 412.67 1.3759 -3.69408 0
M  V30 4417 H 413.958 2.20642 -4.5847 0
M  V30 4418 H 413.356 4.88017 -2.86104 0
M  V30 4419 H 411.913 5.41878 -3.62232 0
M  V30 4420 N 415.346 1.54954 0.287554 0
M  V30 4421 C 416.762 1.46469 0.633964 0
M  V30 4422 C 416.962 0.666865 1.90145 0
M  V30 4423 O 416.018 0.179906 2.51858 0
M  V30 4424 C 417.331 2.90556 0.774454 0
M  V30 4425 C 418.879 3.00681 0.869462 0
M  V30 4426 C 419.354 4.45993 1.04184 0
M  V30 4427 N 420.845 4.4976 1.10772 0
M  V30 4428 C 421.58 5.59393 1.25964 0
M  V30 4429 N 421.076 6.78923 1.37968 0
M  V30 4430 N 422.869 5.47107 1.28959 0
M  V30 4431 H 415.02 2.05288 -0.545041 0
M  V30 4432 H 417.283 0.930305 -0.182308 0
M  V30 4433 H 416.989 3.51594 -0.086207 0
M  V30 4434 H 416.863 3.38743 1.6593 0
M  V30 4435 H 419.25 2.39749 1.7206 0
M  V30 4436 H 419.331 2.55769 -0.0396831 0
M  V30 4437 H 418.975 5.07524 0.195422 0
M  V30 4438 H 418.905 4.88548 1.96542 0
M  V30 4439 H 421.396 3.63651 1.02794 0
M  V30 4440 H 421.709 7.58231 1.49353 0
M  V30 4441 H 420.054 6.81763 1.34999 0
M  V30 4442 H 423.245 4.52668 1.19202 0
M  V30 4443 H 423.418 6.32595 1.40455 0
M  V30 4444 N 416.824 -0.551391 1.4764 0
M  V30 4445 C 418.071 -1.3083 1.54563 0
M  V30 4446 C 418.399 -1.93359 0.210361 0
M  V30 4447 O 417.654 -1.78721 -0.797332 0
M  V30 4448 C 417.953 -2.43469 2.61644 0
M  V30 4449 C 417.619 -1.98732 4.04742 0
M  V30 4450 C 416.281 -1.86248 4.43695 0
M  V30 4451 C 418.633 -1.64659 4.94507 0
M  V30 4452 C 415.961 -1.37995 5.70241 0
M  V30 4453 C 418.313 -1.17875 6.21521 0
M  V30 4454 C 416.977 -1.03992 6.5935 0
M  V30 4455 H 416.247 -0.478741 0.565587 0
M  V30 4456 H 418.894 -0.617697 1.81264 0
M  V30 4457 H 417.199 -3.18109 2.28722 0
M  V30 4458 H 418.896 -3.01642 2.64222 0
M  V30 4459 H 415.486 -2.09393 3.73968 0
M  V30 4460 H 419.67 -1.73174 4.65107 0
M  V30 4461 H 414.926 -1.25915 5.98294 0
M  V30 4462 H 419.1 -0.905739 6.90485 0
M  V30 4463 H 416.727 -0.663794 7.57296 0
M  V30 4464 N 418.302 -1.35869 -0.798587 0
M  V30 4465 C 419.713 -1.26498 -1.37314 0
M  V30 4466 C 420.064 0.0991899 -1.95949 0
M  V30 4467 O 419.189 1.0004 -1.91888 0
M  V30 4468 C 419.784 -2.29054 -2.49639 0
M  V30 4469 C 418.343 -2.234 -3.02935 0
M  V30 4470 C 417.49 -2.14329 -1.75949 0
M  V30 4471 H 420.441 -1.46881 -0.600971 0
M  V30 4472 H 420.462 -1.92166 -3.28409 0
M  V30 4473 H 419.974 -3.2833 -2.06933 0
M  V30 4474 H 418.075 -1.27562 -3.50084 0
M  V30 4475 H 418.188 -3.15703 -3.60372 0
M  V30 4476 H 416.552 -1.60435 -1.9782 0
M  V30 4477 H 417.335 -3.15477 -1.35384 0
M  V30 4478 N 419.78 1.02168 -1.19998 0
M  V30 4479 C 420.727 2.10601 -0.944228 0
M  V30 4480 C 421.697 1.65639 0.123664 0
M  V30 4481 O 422.882 1.9079 -0.0199941 0
M  V30 4482 C 420.022 3.41504 -0.496865 0
M  V30 4483 C 419.135 3.99973 -1.63234 0
M  V30 4484 C 418.27 5.18915 -1.13579 0
M  V30 4485 C 417.309 5.69456 -2.24468 0
M  V30 4486 N 416.446 6.79665 -1.76068 0
M  V30 4487 H 421.286 2.31814 -1.8726 0
M  V30 4488 H 418.823 1.13686 -0.933483 0
M  V30 4489 H 420.781 4.16626 -0.218843 0
M  V30 4490 H 419.411 3.2038 0.394508 0
M  V30 4491 H 418.463 3.21997 -2.0254 0
M  V30 4492 H 419.775 4.33492 -2.46752 0
M  V30 4493 H 418.929 6.01222 -0.813429 0
M  V30 4494 H 417.668 4.8695 -0.270434 0
M  V30 4495 H 416.673 4.85757 -2.57526 0
M  V30 4496 H 417.898 6.03459 -3.11472 0
M  V30 4497 H 415.844 6.49538 -0.918516 0
M  V30 4498 H 415.761 7.12349 -2.5317 0
M  V30 4499 H 417.029 7.65549 -1.46817 0
M  V30 4500 N 421.258 1.00505 1.21394 0
M  V30 4501 C 422.221 0.570459 2.21987 0
M  V30 4502 C 423.221 -0.353211 1.56873 0
M  V30 4503 O 424.411 -0.14349 1.73608 0
M  V30 4504 C 421.543 -0.168555 3.40483 0
M  V30 4505 H 422.736 1.46021 2.6195 0
M  V30 4506 H 420.289 0.793565 1.34656 0
M  V30 4507 H 421.024 -1.07374 3.06009 0
M  V30 4508 H 420.809 0.494823 3.88965 0
M  V30 4509 H 422.299 -0.460362 4.15055 0
M  V30 4510 N 422.737 -1.36956 0.779787 0
M  V30 4511 C 423.647 -2.33965 0.172491 0
M  V30 4512 C 424.663 -1.60574 -0.670222 0
M  V30 4513 O 425.839 -1.92617 -0.588263 0
M  V30 4514 C 422.904 -3.39761 -0.690173 0
M  V30 4515 C 421.965 -4.28964 0.169924 0
M  V30 4516 C 421.198 -5.29707 -0.651662 0
M  V30 4517 O 421.421 -5.38238 -1.88827 0
M  V30 4518 O 420.355 -6.01873 -0.0566264 0
M  V30 4519 H 424.181 -2.87647 0.974321 0
M  V30 4520 H 421.766 -1.39258 0.541078 0
M  V30 4521 H 423.648 -4.04471 -1.1824 0
M  V30 4522 H 422.323 -2.88394 -1.47006 0
M  V30 4523 H 421.23 -3.67326 0.708696 0
M  V30 4524 H 422.563 -4.83656 0.913085 0
M  V30 4525 N 424.215 -0.530993 -1.48385 0
M  V30 4526 C 425.462 0.0027373 -2.025 0
M  V30 4527 C 425.79 1.34186 -1.40799 0
M  V30 4528 O 425.045 1.88 -0.543544 0
M  V30 4529 C 425.344 0.172742 -3.56982 0
M  V30 4530 C 425.01 -1.09215 -4.37473 0
M  V30 4531 C 423.672 -1.43881 -4.59186 0
M  V30 4532 C 426.024 -1.93153 -4.84088 0
M  V30 4533 C 423.352 -2.62381 -5.2476 0
M  V30 4534 C 425.704 -3.10833 -5.50968 0
M  V30 4535 C 424.368 -3.45843 -5.70919 0
M  V30 4536 H 423.638 0.00100165 -0.740999 0
M  V30 4537 H 426.285 -0.697219 -1.78357 0
M  V30 4538 H 424.59 0.955473 -3.79971 0
M  V30 4539 H 426.287 0.600642 -3.96476 0
M  V30 4540 H 422.877 -0.812177 -4.20834 0
M  V30 4541 H 427.061 -1.67683 -4.67115 0
M  V30 4542 H 422.317 -2.89707 -5.38405 0
M  V30 4543 H 426.491 -3.7618 -5.86056 0
M  V30 4544 H 424.118 -4.37764 -6.21503 0
M  V30 4545 N 425.693 1.55336 -0.266172 0
M  V30 4546 C 426.656 2.20878 0.612001 0
M  V30 4547 C 427.656 1.18388 1.08816 0
M  V30 4548 O 428.846 1.4335 0.989774 0
M  V30 4549 C 425.978 2.86765 1.84332 0
M  V30 4550 H 427.171 2.99873 0.0398718 0
M  V30 4551 H 424.724 1.56291 -0.0167309 0
M  V30 4552 H 425.459 2.11759 2.45619 0
M  V30 4553 H 425.244 3.61862 1.5099 0
M  V30 4554 H 426.734 3.36867 2.46801 0
M  V30 4555 N 427.171 -0.0066808 1.57599 0
M  V30 4556 C 428.081 -1.01671 2.11424 0
M  V30 4557 C 429.097 -1.38143 1.05795 0
M  V30 4558 O 430.273 -1.47011 1.37658 0
M  V30 4559 C 427.338 -2.29192 2.60139 0
M  V30 4560 C 426.399 -1.99094 3.80342 0
M  V30 4561 C 425.632 -3.20535 4.26724 0
M  V30 4562 O 425.855 -4.3199 3.72479 0
M  V30 4563 O 424.789 -3.04924 5.18946 0
M  V30 4564 H 428.615 -0.589181 2.9793 0
M  V30 4565 H 426.2 -0.225091 1.47695 0
M  V30 4566 H 428.082 -3.0412 2.917 0
M  V30 4567 H 426.757 -2.71195 1.76733 0
M  V30 4568 H 425.664 -1.21663 3.53764 0
M  V30 4569 H 426.997 -1.61931 4.648 0
M  V30 4570 N 428.649 -1.55105 -0.279332 0
M  V30 4571 C 429.895 -1.75672 -1.01327 0
M  V30 4572 C 430.228 -0.552739 -1.86168 0
M  V30 4573 O 429.503 0.449827 -1.89227 0
M  V30 4574 C 429.786 -3.05825 -1.90114 0
M  V30 4575 C 429.639 -4.36565 -1.08309 0
M  V30 4576 C 430.958 -3.31975 -2.8893 0
M  V30 4577 H 428.077 -0.639149 -0.366957 0
M  V30 4578 H 430.719 -1.87833 -0.286154 0
M  V30 4579 H 428.869 -2.95588 -2.52111 0
M  V30 4580 H 430.541 -4.58751 -0.484314 0
M  V30 4581 H 428.784 -4.32076 -0.386362 0
M  V30 4582 H 429.455 -5.23946 -1.73737 0
M  V30 4583 H 431.931 -3.41963 -2.37067 0
M  V30 4584 H 430.807 -4.2432 -3.48201 0
M  V30 4585 H 431.068 -2.51309 -3.63725 0
M  V30 4586 N 430.127 0.543554 -1.4793 0
M  V30 4587 C 431.352 1.32995 -1.59145 0
M  V30 4588 C 431.777 1.86472 -0.246956 0
M  V30 4589 O 431.135 1.63696 0.779324 0
M  V30 4590 C 431.183 2.46623 -2.63077 0
M  V30 4591 O 430.287 3.49261 -2.19295 0
M  V30 4592 H 429.628 0.394472 -0.534124 0
M  V30 4593 H 432.158 0.655489 -1.93816 0
M  V30 4594 H 432.168 2.93001 -2.83926 0
M  V30 4595 H 430.843 2.07059 -3.60693 0
M  V30 4596 H 429.42 3.09094 -2.08603 0
M  V30 4597 N 431.605 1.3629 0.791371 0
M  V30 4598 C 432.552 1.30458 1.90393 0
M  V30 4599 C 433.522 0.173632 1.6519 0
M  V30 4600 O 434.707 0.35983 1.87376 0
M  V30 4601 C 431.847 1.09777 3.27174 0
M  V30 4602 C 430.96 2.31929 3.64462 0
M  V30 4603 C 430.095 2.04276 4.90352 0
M  V30 4604 C 429.134 3.224 5.20312 0
M  V30 4605 N 428.271 2.94424 6.37385 0
M  V30 4606 H 433.111 2.25589 1.94714 0
M  V30 4607 H 430.648 1.12122 0.952216 0
M  V30 4608 H 432.606 0.958133 4.06049 0
M  V30 4609 H 431.236 0.183014 3.22281 0
M  V30 4610 H 430.288 2.56703 2.80727 0
M  V30 4611 H 431.6 3.20085 3.82553 0
M  V30 4612 H 430.754 1.87231 5.77087 0
M  V30 4613 H 429.493 1.13428 4.74326 0
M  V30 4614 H 428.498 3.40005 4.32061 0
M  V30 4615 H 429.723 4.14071 5.38258 0
M  V30 4616 H 427.669 2.06185 6.22755 0
M  V30 4617 H 427.586 3.76118 6.55798 0
M  V30 4618 H 428.854 2.80953 7.27108 0
M  V30 4619 N 433.083 -1.0153 1.20538 0
M  V30 4620 C 434.013 -2.11972 0.979295 0
M  V30 4621 C 434.994 -1.6985 -0.0921787 0
M  V30 4622 O 436.179 -1.94089 0.0655932 0
M  V30 4623 C 433.309 -3.43201 0.531984 0
M  V30 4624 C 432.263 -3.9907 1.54685 0
M  V30 4625 C 431.589 -5.26082 0.956127 0
M  V30 4626 C 432.889 -4.32313 2.93092 0
M  V30 4627 H 434.583 -2.31143 1.90298 0
M  V30 4628 H 432.129 -1.11079 0.916372 0
M  V30 4629 H 434.082 -4.1985 0.361044 0
M  V30 4630 H 432.806 -3.23792 -0.427327 0
M  V30 4631 H 431.465 -3.2453 1.70517 0
M  V30 4632 H 431.113 -5.02999 -0.0111538 0
M  V30 4633 H 430.813 -5.64426 1.63393 0
M  V30 4634 H 432.337 -6.05386 0.796284 0
M  V30 4635 H 433.751 -4.99845 2.80763 0
M  V30 4636 H 432.148 -4.81774 3.57791 0
M  V30 4637 H 433.218 -3.41025 3.44717 0
M  V30 4638 N 434.561 -1.01147 -1.20859 0
M  V30 4639 C 435.807 -0.698899 -1.90377 0
M  V30 4640 C 436.14 0.76904 -1.78324 0
M  V30 4641 O 435.415 1.55817 -1.16409 0
M  V30 4642 C 435.698 -1.12878 -3.41951 0
M  V30 4643 C 435.551 -2.65665 -3.62963 0
M  V30 4644 C 436.87 -0.696114 -4.3456 0
M  V30 4645 H 433.989 -0.255372 -0.691342 0
M  V30 4646 H 436.631 -1.25831 -1.42361 0
M  V30 4647 H 434.781 -0.652827 -3.82976 0
M  V30 4648 H 436.453 -3.21074 -3.31224 0
M  V30 4649 H 434.696 -3.06878 -3.06608 0
M  V30 4650 H 435.367 -2.90797 -4.69192 0
M  V30 4651 H 437.843 -1.10521 -4.01154 0
M  V30 4652 H 436.719 -1.025 -5.39245 0
M  V30 4653 H 436.98 0.402465 -4.40264 0
M  V30 4654 N 436.039 1.36541 -0.78704 0
M  V30 4655 C 437.267 2.03561 -0.370199 0
M  V30 4656 C 437.682 1.59347 1.01263 0
M  V30 4657 O 437.039 0.781781 1.64907 0
M  V30 4658 C 437.09 3.59033 -0.421614 0
M  V30 4659 O 436.811 4.01634 -1.7499 0
M  V30 4660 C 438.312 4.433 0.00489763 0
M  V30 4661 H 435.532 0.653346 -0.152904 0
M  V30 4662 H 438.076 1.74566 -1.06522 0
M  V30 4663 H 436.231 3.86746 0.224971 0
M  V30 4664 H 436.645 4.96217 -1.69909 0
M  V30 4665 H 438.119 5.51939 -0.0822184 0
M  V30 4666 H 438.596 4.26285 1.05723 0
M  V30 4667 H 439.202 4.20843 -0.614085 0
M  V30 4668 N 437.518 0.538854 1.48102 0
M  V30 4669 C 438.795 -0.0568108 1.95517 0
M  V30 4670 C 439.175 -1.50408 1.48124 0
M  V30 4671 O 438.523 -2.17133 0.711727 0
M  V30 4672 C 438.733 0.0696262 3.48931 0
M  V30 4673 C 440.081 -0.0851202 4.24515 0
M  V30 4674 O 441.105 -0.0037347 3.562 0
M  V30 4675 O 439.964 -0.257025 5.45895 0
M  V30 4676 H 437.058 -0.0743695 0.823649 0
M  V30 4677 H 439.604 0.604081 1.58584 0
M  V30 4678 H 438.376 1.07744 3.76174 0
M  V30 4679 H 437.999 -0.629714 3.92582 0
M  V30 4680 N 438.996 -1.55193 0.274407 0
M  V30 4681 C 439.926 -2.25471 -0.607032 0
M  V30 4682 C 440.907 -1.24461 -1.15946 0
M  V30 4683 O 442.092 -1.53179 -1.19373 0
M  V30 4684 C 439.222 -2.97526 -1.79153 0
M  V30 4685 C 438.176 -4.05459 -1.37067 0
M  V30 4686 C 437.502 -4.65084 -2.6382 0
M  V30 4687 C 438.802 -5.19691 -0.521389 0
M  V30 4688 H 440.496 -2.99393 -0.0209343 0
M  V30 4689 H 438.042 -1.43997 -0.00862866 0
M  V30 4690 H 439.995 -3.45402 -2.41404 0
M  V30 4691 H 438.719 -2.21138 -2.40344 0
M  V30 4692 H 437.378 -3.58393 -0.771355 0
M  V30 4693 H 437.026 -3.85365 -3.23268 0
M  V30 4694 H 436.726 -5.37961 -2.36372 0
M  V30 4695 H 438.25 -5.15708 -3.26921 0
M  V30 4696 H 439.664 -5.63623 -1.04889 0
M  V30 4697 H 438.061 -5.99126 -0.341825 0
M  V30 4698 H 439.131 -4.82713 0.46 0
M  V30 4699 N 440.474 -0.00167713 -1.576 0
M  V30 4700 C 441.702 0.693759 -1.94922 0
M  V30 4701 C 442.117 1.67215 -0.876626 0
M  V30 4702 O 441.474 1.81929 0.144279 0
M  V30 4703 C 441.525 1.42416 -3.32265 0
M  V30 4704 O 441.246 0.485014 -4.35407 0
M  V30 4705 C 442.747 2.21395 -3.84056 0
M  V30 4706 H 439.967 0.193118 -0.642609 0
M  V30 4707 H 442.511 -0.0532952 -2.04431 0
M  V30 4708 H 440.666 2.12284 -3.24059 0
M  V30 4709 H 441.08 1.00053 -5.14868 0
M  V30 4710 H 442.554 2.67996 -4.82578 0
M  V30 4711 H 443.031 3.04142 -3.16851 0
M  V30 4712 H 443.637 1.56542 -3.95443 0
M  V30 4713 N 441.952 1.55251 0.271103 0
M  V30 4714 C 442.899 1.88261 1.33516 0
M  V30 4715 C 443.869 0.734296 1.48988 0
M  V30 4716 O 445.054 0.985741 1.63364 0
M  V30 4717 C 442.194 2.16168 2.69008 0
M  V30 4718 C 441.307 3.43678 2.61743 0
M  V30 4719 C 440.442 3.61276 3.89427 0
M  V30 4720 C 439.481 4.82472 3.7668 0
M  V30 4721 N 438.618 4.96717 4.96202 0
M  V30 4722 H 443.458 2.79015 1.04665 0
M  V30 4723 H 440.995 1.38137 0.505618 0
M  V30 4724 H 442.953 2.30349 3.47844 0
M  V30 4725 H 441.583 1.28646 2.96057 0
M  V30 4726 H 440.635 3.37959 1.74607 0
M  V30 4727 H 441.947 4.3265 2.48224 0
M  V30 4728 H 441.101 3.75284 4.76704 0
M  V30 4729 H 439.84 2.70492 4.05814 0
M  V30 4730 H 438.845 4.68465 2.87786 0
M  V30 4731 H 440.07 5.74692 3.61809 0
M  V30 4732 H 438.016 4.08865 5.12997 0
M  V30 4733 H 437.933 5.79738 4.85222 0
M  V30 4734 H 439.201 5.15113 5.85046 0
M  V30 4735 N 443.43 -0.535701 1.48216 0
M  V30 4736 C 444.676 -1.29375 1.56173 0
M  V30 4737 C 445.009 -1.92804 0.232429 0
M  V30 4738 O 444.284 -1.78992 -0.761048 0
M  V30 4739 C 444.567 -2.38747 2.69577 0
M  V30 4740 C 444.42 -1.80046 4.12193 0
M  V30 4741 C 445.739 -3.40551 2.78771 0
M  V30 4742 H 442.858 -0.469027 0.568491 0
M  V30 4743 H 445.5 -0.597358 1.80365 0
M  V30 4744 H 443.65 -2.98147 2.4908 0
M  V30 4745 H 445.322 -1.24742 4.44114 0
M  V30 4746 H 443.565 -1.10609 4.19462 0
M  V30 4747 H 444.236 -2.59212 4.87353 0
M  V30 4748 H 446.712 -2.91099 2.97322 0
M  V30 4749 H 445.588 -4.1448 3.59857 0
M  V30 4750 H 445.849 -4.00746 1.86696 0
M  V30 4751 N 444.908 -1.36708 -0.784132 0
M  V30 4752 C 445.858 -1.2799 -1.88686 0
M  V30 4753 C 446.842 -0.170282 -1.59996 0
M  V30 4754 O 448.034 -0.403571 -1.72338 0
M  V30 4755 C 445.163 -1.07674 -3.25977 0
M  V30 4756 C 444.249 -2.23127 -3.60659 0
M  V30 4757 N 444.64 -3.48467 -3.66612 0
M  V30 4758 C 442.938 -2.15009 -3.90752 0
M  V30 4759 C 443.639 -4.24525 -3.97685 0
M  V30 4760 N 442.615 -3.53524 -4.12943 0
M  V30 4761 H 446.417 -2.22927 -1.91522 0
M  V30 4762 H 443.931 -1.29503 -0.979933 0
M  V30 4763 H 445.928 -0.995151 -4.04849 0
M  V30 4764 H 444.588 -0.13643 -3.24413 0
M  V30 4765 H 445.599 -3.82534 -3.49125 0
M  V30 4766 H 442.276 -1.28963 -3.97083 0
M  V30 4767 H 443.666 -5.32944 -4.0917 0
M  V30 4768 N 446.386 1.0089 -1.21074 0
M  V30 4769 C 447.614 1.78191 -1.05145 0
M  V30 4770 C 448.029 1.84537 0.398952 0
M  V30 4771 O 447.386 1.30393 1.27687 0
M  V30 4772 C 447.437 3.22288 -1.63746 0
M  V30 4773 O 447.158 3.16315 -3.03111 0
M  V30 4774 C 448.659 4.16106 -1.52875 0
M  V30 4775 H 445.879 0.560129 -0.369454 0
M  V30 4776 H 448.423 1.26945 -1.60328 0
M  V30 4777 H 446.578 3.70655 -1.12664 0
M  V30 4778 H 446.992 4.06817 -3.31059 0
M  V30 4779 H 448.466 5.15026 -1.98626 0
M  V30 4780 H 448.943 4.36541 -0.482521 0
M  V30 4781 H 449.549 3.73625 -2.03185 0
M  V30 4782 N 447.864 1.01787 1.20321 0
M  V30 4783 C 448.774 0.598898 2.26827 0
M  V30 4784 C 449.79 -0.36418 1.70146 0
M  V30 4785 O 450.966 -0.224812 2.00141 0
M  V30 4786 C 448.031 -0.0549769 3.46656 0
M  V30 4787 C 447.092 0.954205 4.18561 0
M  V30 4788 C 446.325 0.331439 5.3267 0
M  V30 4789 O 446.548 -0.86851 5.63749 0
M  V30 4790 O 445.482 1.0488 5.92692 0
M  V30 4791 H 449.308 1.48562 2.64883 0
M  V30 4792 H 446.893 0.787434 1.26964 0
M  V30 4793 H 448.775 -0.420102 4.19301 0
M  V30 4794 H 447.45 -0.915876 3.10473 0
M  V30 4795 H 446.357 1.37072 3.48083 0
M  V30 4796 H 447.69 1.78511 4.58688 0
M  V30 4797 N 449.342 -1.36122 0.79427 0
M  V30 4798 C 450.582 -2.00942 0.374376 0
M  V30 4799 C 450.946 -1.61666 -1.03577 0
M  V30 4800 O 452.147 -2.19113 -1.55701 0
M  V30 4801 C 450.418 -3.53323 0.538327 0
M  V30 4802 S 451.977 -4.38311 0.20703 0
M  V30 4803 H 448.795 -0.696515 0.142785 0
M  V30 4804 H 451.397 -1.65929 1.03382 0
M  V30 4805 H 450.101 -3.79395 1.56484 0
M  V30 4806 H 449.632 -3.93162 -0.136882 0
M  V30 4807 H 451.647 -4.8623 -0.989695 0
M  V30 4808 N 450.82 -0.546701 -1.47814 0
M  V30 4809 C 452.06 -0.0209604 -2.04389 0
M  V30 4810 C 452.424 1.29993 -1.413 0
M  V30 4811 O 453.625 1.91273 -1.8886 0
M  V30 4812 C 451.896 0.0812844 -3.57308 0
M  V30 4813 S 453.455 0.55467 -4.3528 0
M  V30 4814 H 450.273 -0.0200865 -0.710716 0
M  V30 4815 H 452.875 -0.731055 -1.81317 0
M  V30 4816 H 451.579 -0.884616 -4.00753 0
M  V30 4817 H 451.11 0.815253 -3.8486 0
M  V30 4818 H 453.125 1.81627 -4.61764 0
M  V30 4819 N 452.299 1.55045 -0.282633 0
M  V30 4820 C 453.249 2.19514 0.616249 0
M  V30 4821 C 454.233 1.16216 1.11277 0
M  V30 4822 O 455.425 1.42004 1.05659 0
M  V30 4823 C 452.554 2.92548 1.7964 0
M  V30 4824 C 451.64 4.03142 1.31671 0
M  V30 4825 N 452.031 5.0276 0.553695 0
M  V30 4826 C 450.329 4.1635 1.59903 0
M  V30 4827 C 451.03 5.80923 0.30054 0
M  V30 4828 N 450.006 5.3651 0.875116 0
M  V30 4829 H 453.808 2.93889 0.0255363 0
M  V30 4830 H 451.322 1.62169 -0.0865362 0
M  V30 4831 H 453.319 3.37188 2.45173 0
M  V30 4832 H 451.979 2.19685 2.39099 0
M  V30 4833 H 452.99 5.17512 0.20032 0
M  V30 4834 H 449.667 3.54682 2.20243 0
M  V30 4835 H 451.057 6.7118 -0.311053 0
M  V30 4836 N 453.777 0.010035 1.57597 0
M  V30 4837 C 455.025 -0.671371 1.90623 0
M  V30 4838 C 455.346 -1.73753 0.885151 0
M  V30 4839 O 454.616 -1.95752 -0.0760611 0
M  V30 4840 H 453.196 -0.250968 0.703579 0
M  V30 4841 H 455.858 0.0533325 1.94827 0
M  V30 4842 H 454.954 -1.13626 2.90681 0
M  V30 4843 N 455.255 -1.55392 -0.262866 0
M  V30 4844 C 456.532 -1.67204 -1.01499 0
M  V30 4845 C 456.912 -0.545186 -2.03939 0
M  V30 4846 O 456.26 0.453467 -2.23955 0
M  V30 4847 C 456.47 -3.06847 -1.6627 0
M  V30 4848 C 457.818 -3.64928 -2.17054 0
M  V30 4849 O 458.842 -3.09545 -1.76239 0
M  V30 4850 O 457.701 -4.61984 -2.91947 0
M  V30 4851 H 454.795 -0.679467 -0.471438 0
M  V30 4852 H 457.341 -1.67729 -0.257918 0
M  V30 4853 H 456.113 -3.80309 -0.920915 0
M  V30 4854 H 455.736 -3.10266 -2.48638 0
M  V30 4855 N 456.733 0.527833 -1.48498 0
M  V30 4856 C 457.663 1.64136 -1.66077 0
M  V30 4857 C 458.644 1.62286 -0.509625 0
M  V30 4858 O 459.829 1.79449 -0.742413 0
M  V30 4859 C 456.959 3.02717 -1.70234 0
M  V30 4860 C 455.913 3.19426 -2.8487 0
M  V30 4861 C 455.239 4.5909 -2.74118 0
M  V30 4862 C 456.539 3.01993 -4.26142 0
M  V30 4863 H 458.233 1.4968 -2.593 0
M  V30 4864 H 455.779 0.718654 -1.24785 0
M  V30 4865 H 457.732 3.80491 -1.8112 0
M  V30 4866 H 456.456 3.18201 -0.735911 0
M  V30 4867 H 455.115 2.4407 -2.73542 0
M  V30 4868 H 454.763 4.71413 -1.7544 0
M  V30 4869 H 454.463 4.71214 -3.51042 0
M  V30 4870 H 455.987 5.3896 -2.86974 0
M  V30 4871 H 457.401 3.69558 -4.38292 0
M  V30 4872 H 455.798 3.2561 -5.04082 0
M  V30 4873 H 456.868 1.98396 -4.42456 0
M  V30 4874 N 458.211 1.37122 0.776871 0
M  V30 4875 C 459.141 1.35164 1.90402 0
M  V30 4876 C 460.122 0.221069 1.68657 0
M  V30 4877 O 461.307 0.420642 1.8959 0
M  V30 4878 C 458.437 1.15274 3.27611 0
M  V30 4879 C 457.391 2.25289 3.63908 0
M  V30 4880 C 456.717 1.90527 4.99603 0
M  V30 4881 C 458.017 3.67446 3.71188 0
M  V30 4882 H 459.711 2.29482 1.92297 0
M  V30 4883 H 457.257 1.10465 0.923773 0
M  V30 4884 H 459.21 1.12536 4.06096 0
M  V30 4885 H 457.934 0.174102 3.26136 0
M  V30 4886 H 456.593 2.27174 2.87728 0
M  V30 4887 H 456.241 0.91206 4.94662 0
M  V30 4888 H 455.941 2.64193 5.24858 0
M  V30 4889 H 457.465 1.89367 5.80493 0
M  V30 4890 H 458.879 3.67719 4.39836 0
M  V30 4891 H 457.276 4.40123 4.07936 0
M  V30 4892 H 458.346 4.01443 2.71977 0
M  V30 4893 N 459.689 -1.00246 1.21608 0
M  V30 4894 C 460.599 -2.12515 0.993709 0
M  V30 4895 C 461.615 -1.73913 -0.0549939 0
M  V30 4896 O 462.791 -2.00943 0.135619 0
M  V30 4897 C 459.856 -3.42083 0.563953 0
M  V30 4898 C 458.917 -3.94843 1.68516 0
M  V30 4899 C 458.15 -5.18226 1.27582 0
M  V30 4900 O 458.373 -5.70201 0.150506 0
M  V30 4901 O 457.307 -5.64497 2.0887 0
M  V30 4902 H 461.133 -2.34152 1.93407 0
M  V30 4903 H 458.718 -1.10891 1.00118 0
M  V30 4904 H 460.6 -4.20073 0.334194 0
M  V30 4905 H 459.275 -3.21828 -0.347665 0
M  V30 4906 H 458.182 -3.18068 1.96935 0
M  V30 4907 H 459.515 -4.19512 2.5743 0
M  V30 4908 N 461.167 -1.02423 -1.1978 0
M  V30 4909 C 462.407 -0.726635 -1.91048 0
M  V30 4910 C 462.771 0.730947 -1.77542 0
M  V30 4911 O 463.972 1.14141 -2.43362 0
M  V30 4912 C 462.243 -1.15964 -3.38064 0
M  V30 4913 S 463.802 -0.985172 -4.27598 0
M  V30 4914 H 460.62 -0.264679 -0.659899 0
M  V30 4915 H 463.222 -1.31309 -1.44838 0
M  V30 4916 H 461.926 -2.21619 -3.45417 0
M  V30 4917 H 461.457 -0.566274 -3.89303 0
M  V30 4918 H 463.472 0.106946 -4.96085 0
M  V30 4919 N 462.645 1.35699 -0.801477 0
M  V30 4920 C 463.608 2.28199 -0.213994 0
M  V30 4921 C 464.608 1.49359 0.595691 0
M  V30 4922 O 465.798 1.69186 0.414921 0
M  V30 4923 C 462.93 3.33587 0.702297 0
M  V30 4924 H 464.123 2.81666 -1.02976 0
M  V30 4925 H 461.676 1.45467 -0.571759 0
M  V30 4926 H 462.411 2.85297 1.54195 0
M  V30 4927 H 462.196 3.91906 0.123484 0
M  V30 4928 H 463.686 4.02638 1.10783 0
M  V30 4929 N 464.123 0.554532 1.47522 0
M  V30 4930 C 465.4 -0.0360704 1.95567 0
M  V30 4931 C 465.78 -1.48828 1.49711 0
M  V30 4932 O 465.128 -2.16366 0.734717 0
M  V30 4933 C 465.338 0.106631 3.48837 0
M  V30 4934 C 466.686 -0.0400899 4.24581 0
M  V30 4935 O 467.71 0.0340453 3.56184 0
M  V30 4936 O 466.569 -0.199111 5.46137 0
M  V30 4937 H 463.663 -0.0656294 0.824392 0
M  V30 4938 H 466.209 0.620867 1.57935 0
M  V30 4939 H 464.981 1.11727 3.7501 0
M  V30 4940 H 464.604 -0.58804 3.93227 0
M  V30 4941 N 465.601 -1.54893 0.290851 0
M  V30 4942 C 466.878 -1.91991 -0.373989 0
M  V30 4943 C 467.258 -1.21694 -1.72493 0
M  V30 4944 O 466.606 -0.34917 -2.25816 0
M  V30 4945 C 466.816 -3.45419 -0.498703 0
M  V30 4946 C 468.164 -4.1748 -0.774298 0
M  V30 4947 O 469.188 -3.51398 -0.582908 0
M  V30 4948 O 468.047 -5.3445 -1.14129 0
M  V30 4949 H 465.141 -0.800593 -0.207315 0
M  V30 4950 H 467.687 -1.66297 0.338164 0
M  V30 4951 H 466.459 -3.88688 0.451392 0
M  V30 4952 H 466.082 -3.77117 -1.25972 0
M  V30 4953 N 467.08 -0.0183926 -1.57589 0
M  V30 4954 C 468.496 0.337897 -1.55982 0
M  V30 4955 C 468.696 1.73604 -1.02294 0
M  V30 4956 O 467.752 2.43589 -0.664895 0
M  V30 4957 C 469.065 0.196305 -3.00059 0
M  V30 4958 C 470.613 0.269875 -3.11834 0
M  V30 4959 C 471.088 0.157197 -4.5773 0
M  V30 4960 N 472.579 0.214521 -4.62703 0
M  V30 4961 C 473.314 0.150955 -5.73201 0
M  V30 4962 N 472.81 0.0369212 -6.9279 0
M  V30 4963 N 474.603 0.204162 -5.61729 0
M  V30 4964 H 466.754 -0.93279 -1.90821 0
M  V30 4965 H 469.017 -0.359253 -0.877292 0
M  V30 4966 H 468.723 -0.766383 -3.43248 0
M  V30 4967 H 468.597 0.970908 -3.6449 0
M  V30 4968 H 470.984 1.22302 -2.68563 0
M  V30 4969 H 471.065 -0.534918 -2.50144 0
M  V30 4970 H 470.709 -0.792479 -5.01679 0
M  V30 4971 H 470.639 0.980717 -5.17387 0
M  V30 4972 H 473.13 0.303238 -3.76681 0
M  V30 4973 H 473.443 -0.00518321 -7.728 0
M  V30 4974 H 471.788 0.0022886 -6.95 0
M  V30 4975 H 474.979 0.291575 -4.67191 0
M  V30 4976 H 475.152 0.15116 -6.47824 0
M  V30 4977 N 468.558 1.5553 0.254621 0
M  V30 4978 C 469.521 1.88872 1.29846 0
M  V30 4979 C 470.521 0.764591 1.41459 0
M  V30 4980 O 471.711 1.03265 1.40293 0
M  V30 4981 C 468.843 2.11032 2.67728 0
M  V30 4982 H 470.036 2.82201 1.01502 0
M  V30 4983 H 467.589 1.48303 0.493556 0
M  V30 4984 H 468.324 1.20146 3.01223 0
M  V30 4985 H 468.109 2.92895 2.60682 0
M  V30 4986 H 469.599 2.38038 3.43115 0
M  V30 4987 N 470.036 -0.519951 1.48776 0
M  V30 4988 C 471.313 -1.28123 1.47797 0
M  V30 4989 C 471.693 -2.10196 0.195157 0
M  V30 4990 O 471.041 -2.13167 -0.822925 0
M  V30 4991 C 471.251 -2.15413 2.74587 0
M  V30 4992 C 472.599 -2.75225 3.23321 0
M  V30 4993 O 473.623 -2.25694 2.75574 0
M  V30 4994 O 472.482 -3.65346 4.06429 0
M  V30 4995 H 469.576 -0.578793 0.590701 0
M  V30 4996 H 472.122 -0.535779 1.6102 0
M  V30 4997 H 470.894 -1.54617 3.59457 0
M  V30 4998 H 470.517 -2.97186 2.64132 0
M  V30 4999 N 471.514 -1.37532 -0.769588 0
M  V30 5000 C 472.444 -1.36172 -1.89682 0
M  V30 5001 C 473.425 -0.23001 -1.68538 0
M  V30 5002 O 474.61 -0.43069 -1.89364 0
M  V30 5003 C 471.74 -1.1701 -3.26995 0
M  V30 5004 C 470.694 -2.27216 -3.62708 0
M  V30 5005 C 470.02 -1.93174 -4.98586 0
M  V30 5006 C 471.32 -3.6941 -3.69234 0
M  V30 5007 H 473.014 -2.30499 -1.91078 0
M  V30 5008 H 470.56 -1.10953 -0.917902 0
M  V30 5009 H 472.513 -1.14688 -4.05493 0
M  V30 5010 H 471.237 -0.191395 -3.26039 0
M  V30 5011 H 469.896 -2.28697 -2.86519 0
M  V30 5012 H 469.544 -0.938281 -4.94171 0
M  V30 5013 H 469.244 -2.66973 -5.23449 0
M  V30 5014 H 470.768 -1.92443 -5.79481 0
M  V30 5015 H 472.182 -3.70047 -4.37879 0
M  V30 5016 H 470.579 -4.4228 -4.05597 0
M  V30 5017 H 471.649 -4.0288 -2.69844 0
M  V30 5018 N 472.992 0.995999 -1.22138 0
M  V30 5019 C 473.955 2.06711 -0.990109 0
M  V30 5020 C 474.955 1.60744 0.0422978 0
M  V30 5021 O 476.145 1.73095 -0.195895 0
M  V30 5022 C 473.277 3.37288 -0.49491 0
M  V30 5023 H 474.47 2.28661 -1.94047 0
M  V30 5024 H 472.023 1.16711 -1.03963 0
M  V30 5025 H 472.758 3.21022 0.459948 0
M  V30 5026 H 472.543 3.71986 -1.23971 0
M  V30 5027 H 474.033 4.16103 -0.353253 0
M  V30 5028 N 474.47 1.03057 1.19235 0
M  V30 5029 C 475.417 0.612832 2.22515 0
M  V30 5030 C 476.387 -0.374224 1.61829 0
M  V30 5031 O 477.572 -0.270501 1.88873 0
M  V30 5032 C 474.712 -0.028475 3.45088 0
M  V30 5033 C 473.825 1.00483 4.20151 0
M  V30 5034 C 472.96 0.333102 5.30155 0
M  V30 5035 C 471.999 1.3522 5.96977 0
M  V30 5036 N 471.136 0.70616 6.9854 0
M  V30 5037 H 475.976 1.49812 2.57605 0
M  V30 5038 H 473.513 0.749658 1.26564 0
M  V30 5039 H 475.471 -0.417548 4.15105 0
M  V30 5040 H 474.101 -0.877334 3.10649 0
M  V30 5041 H 473.153 1.51194 3.49062 0
M  V30 5042 H 474.465 1.77929 4.65986 0
M  V30 5043 H 473.619 -0.110725 6.06599 0
M  V30 5044 H 472.358 -0.473547 4.85396 0
M  V30 5045 H 471.363 1.80627 5.19282 0
M  V30 5046 H 472.588 2.16037 6.4382 0
M  V30 5047 H 470.534 -0.0803667 6.55951 0
M  V30 5048 H 470.451 1.41848 7.42573 0
M  V30 5049 H 471.719 0.286391 7.78974 0
M  V30 5050 N 475.948 -1.35272 0.808662 0
M  V30 5051 C 477.178 -2.02652 0.401953 0
M  V30 5052 C 477.586 -1.6108 -0.992462 0
M  V30 5053 O 476.929 -0.804984 -1.65123 0
M  V30 5054 C 476.991 -3.57174 0.408246 0
M  V30 5055 C 476.655 -4.22019 1.75353 0
M  V30 5056 C 477.652 -4.43552 2.71215 0
M  V30 5057 C 475.337 -4.59093 2.03811 0
M  V30 5058 C 477.331 -5.01264 3.93717 0
M  V30 5059 C 475.018 -5.16519 3.26576 0
M  V30 5060 C 476.016 -5.37546 4.21347 0
M  V30 5061 O 475.704 -5.93761 5.41944 0
M  V30 5062 H 475.436 -0.656495 0.161216 0
M  V30 5063 H 477.99 -1.73829 1.0942 0
M  V30 5064 H 476.22 -3.85197 -0.340608 0
M  V30 5065 H 477.909 -4.05893 0.0235623 0
M  V30 5066 H 478.675 -4.15288 2.50522 0
M  V30 5067 H 474.554 -4.42039 1.30854 0
M  V30 5068 H 478.098 -5.17592 4.67701 0
M  V30 5069 H 473.995 -5.4421 3.47139 0
M  V30 5070 H 474.763 -6.1221 5.43269 0
M  V30 5071 N 477.426 -0.562348 -1.47226 0
M  V30 5072 C 478.675 -0.038041 -2.01664 0
M  V30 5073 C 478.988 1.32199 -1.44162 0
M  V30 5074 O 480.194 1.9365 -1.90294 0
M  V30 5075 C 478.65 -0.0174958 -3.59896 0
M  V30 5076 C 478.258 -1.3746 -4.2639 0
M  V30 5077 C 480.002 0.453934 -4.22066 0
M  V30 5078 C 477.909 -1.31289 -5.76643 0
M  V30 5079 H 476.839 -0.0104511 -0.753928 0
M  V30 5080 H 479.49 -0.710966 -1.69167 0
M  V30 5081 H 477.872 0.721182 -3.89378 0
M  V30 5082 H 479.046 -2.1314 -4.08544 0
M  V30 5083 H 477.361 -1.78438 -3.7623 0
M  V30 5084 H 479.958 0.518584 -5.32179 0
M  V30 5085 H 480.301 1.46706 -3.89594 0
M  V30 5086 H 480.834 -0.230044 -3.97134 0
M  V30 5087 H 477.573 -2.30217 -6.13743 0
M  V30 5088 H 477.093 -0.597973 -5.96812 0
M  V30 5089 H 478.772 -1.01713 -6.38955 0
M  V30 5090 N 478.904 1.54736 -0.299062 0
M  V30 5091 C 480.144 2.0201 0.31168 0
M  V30 5092 C 480.508 1.18281 1.5124 0
M  V30 5093 O 481.709 1.55243 2.19438 0
M  V30 5094 C 479.98 3.5123 0.661227 0
M  V30 5095 S 481.539 4.20467 1.2551 0
M  V30 5096 H 478.357 0.704523 0.0957517 0
M  V30 5097 H 480.959 1.90791 -0.426482 0
M  V30 5098 H 479.663 4.09804 -0.221171 0
M  V30 5099 H 479.194 3.66481 1.43023 0
M  V30 5100 H 481.209 4.26083 2.54298 0
M  V30 5101 N 480.382 0.0267497 1.57577 0
M  V30 5102 C 481.292 -0.971633 2.13533 0
M  V30 5103 C 482.308 -1.35868 1.08701 0
M  V30 5104 O 483.484 -1.44058 1.40746 0
M  V30 5105 C 480.549 -2.23622 2.64941 0
M  V30 5106 C 479.61 -1.90982 3.8448 0
M  V30 5107 C 478.843 -3.11411 4.33427 0
M  V30 5108 O 479.066 -4.23992 3.81558 0
M  V30 5109 O 478 -2.93848 5.25297 0
M  V30 5110 H 481.826 -0.525853 2.99113 0
M  V30 5111 H 479.411 -0.193712 1.48139 0
M  V30 5112 H 481.293 -2.97864 2.98086 0
M  V30 5113 H 479.968 -2.67386 1.82446 0
M  V30 5114 H 478.875 -1.14132 3.56265 0
M  V30 5115 H 480.208 -1.52036 4.6813 0
M  V30 5116 N 481.861 -1.55662 -0.24637 0
M  V30 5117 C 482.809 -1.91186 -1.3248 0
M  V30 5118 C 483.803 -0.790996 -1.49799 0
M  V30 5119 O 485.009 -0.975617 -1.51267 0
M  V30 5120 H 481.384 -0.607207 -0.443626 0
M  V30 5121 H 483.355 -2.81221 -0.997853 0
M  V30 5122 C 482.104 -2.22349 -2.67313 0
M  V30 5123 H 481.427 -3.08097 -2.54786 0
M  V30 5124 H 482.867 -2.51107 -3.41645 0
M  V30 5125 C 481.326 -1.04001 -3.20446 0
M  V30 5126 O 481.856 -0.28828 -4.00664 0
M  V30 5127 N 480.062 -0.830494 -2.7848 0
M  V30 5128 H 479.609 -1.4435 -2.13356 0
M  V30 5129 H 479.567 -0.0403258 -3.14374 0
M  V30 5130 N 483.339 0.512053 -1.4905 0
M  V30 5131 C 484.271 1.63121 -1.6101 0
M  V30 5132 C 485.284 1.55145 -0.493352 0
M  V30 5133 O 486.473 1.61278 -0.764955 0
M  V30 5134 C 483.573 3.01863 -1.54052 0
M  V30 5135 C 482.746 3.35138 -2.81072 0
M  V30 5136 C 481.805 4.5324 -2.67319 0
M  V30 5137 O 480.831 4.55571 -3.41238 0
M  V30 5138 N 482.033 5.52495 -1.78127 0
M  V30 5139 H 484.798 1.53292 -2.5753 0
M  V30 5140 H 482.359 0.699706 -1.45999 0
M  V30 5141 H 484.351 3.78774 -1.42521 0
M  V30 5142 H 482.921 3.05675 -0.654345 0
M  V30 5143 H 482.141 2.4723 -3.07036 0
M  V30 5144 H 483.429 3.54162 -3.65304 0
M  V30 5145 H 482.827 5.53403 -1.17308 0
M  V30 5146 H 481.384 6.28553 -1.72525 0
M  V30 5147 N 484.817 1.37938 0.762283 0
M  V30 5148 C 486.094 1.24196 1.51112 0
M  V30 5149 C 486.474 -0.160409 2.1049 0
M  V30 5150 O 485.822 -1.16904 1.96331 0
M  V30 5151 C 486.032 2.34537 2.58445 0
M  V30 5152 C 487.38 2.7254 3.25588 0
M  V30 5153 O 488.404 2.33783 2.68745 0
M  V30 5154 O 487.263 3.39343 4.28379 0
M  V30 5155 H 484.357 0.485175 0.669727 0
M  V30 5156 H 486.903 1.49743 0.798438 0
M  V30 5157 H 485.675 3.28406 2.12756 0
M  V30 5158 H 485.298 2.10505 3.37303 0
M  V30 5159 N 486.295 -0.989507 1.22664 0
M  V30 5160 C 487.52 -1.77031 1.08051 0
M  V30 5161 C 487.945 -1.84535 -0.364483 0
M  V30 5162 O 487.303 -1.3003 -1.2634 0
M  V30 5163 C 487.351 -3.18 1.70024 0
M  V30 5164 O 486.455 -4.01161 0.956216 0
M  V30 5165 H 485.796 -0.545008 0.379292 0
M  V30 5166 H 488.326 -1.24277 1.62531 0
M  V30 5167 H 488.336 -3.68616 1.74888 0
M  V30 5168 H 487.011 -3.11853 2.75174 0
M  V30 5169 H 485.588 -3.59687 0.98384 0
M  V30 5170 N 487.773 -1.03688 -1.18687 0
M  V30 5171 C 489.022 -0.733235 -1.879 0
M  V30 5172 C 489.335 0.741745 -1.8099 0
M  V30 5173 O 490.541 1.15875 -2.4553 0
M  V30 5174 C 488.997 -1.26127 -3.37076 0
M  V30 5175 C 488.605 -2.76461 -3.52524 0
M  V30 5176 C 490.349 -1.03398 -4.11715 0
M  V30 5177 C 488.256 -3.22642 -4.95637 0
M  V30 5178 H 487.186 -0.270584 -0.703776 0
M  V30 5179 H 489.837 -1.25222 -1.34133 0
M  V30 5180 H 488.219 -0.670165 -3.90288 0
M  V30 5181 H 489.393 -3.41296 -3.09602 0
M  V30 5182 H 487.708 -2.97559 -2.91286 0
M  V30 5183 H 490.305 -1.3542 -5.17267 0
M  V30 5184 H 490.648 0.0289246 -4.1629 0
M  V30 5185 H 491.181 -1.5895 -3.64664 0
M  V30 5186 H 487.92 -4.28296 -4.96228 0
M  V30 5187 H 487.44 -2.62539 -5.39289 0
M  V30 5188 H 489.119 -3.16444 -5.64333 0
M  V30 5189 N 489.251 1.34841 -0.815825 0
M  V30 5190 C 490.476 2.03261 -0.41226 0
M  V30 5191 C 490.901 1.61055 0.971751 0
M  V30 5192 O 490.259 0.7917 1.63101 0
M  V30 5193 C 490.307 3.56914 -0.514289 0
M  V30 5194 O 489.411 4.09728 0.468675 0
M  V30 5195 H 488.752 0.641664 -0.170771 0
M  V30 5196 H 491.282 1.72241 -1.10427 0
M  V30 5197 H 491.292 4.06156 -0.387457 0
M  V30 5198 H 489.967 3.86982 -1.52375 0
M  V30 5199 H 488.544 3.71681 0.301316 0
M  V30 5200 N 490.729 0.570148 1.46925 0
M  V30 5201 C 491.954 0.0542592 2.07329 0
M  V30 5202 C 492.379 -1.23582 1.41806 0
M  V30 5203 O 491.737 -1.74341 0.497479 0
M  V30 5204 C 491.785 -0.111175 3.60429 0
M  V30 5205 O 490.889 -1.17071 3.95434 0
M  V30 5206 H 490.23 0.0571425 0.661537 0
M  V30 5207 H 492.76 0.789516 1.88753 0
M  V30 5208 H 492.77 -0.321315 4.06733 0
M  V30 5209 H 491.445 0.831012 4.07513 0
M  V30 5210 H 490.022 -0.940029 3.60857 0
M  V30 5211 N 492.207 -1.54576 0.307264 0
M  V30 5212 C 493.154 -2.23751 -0.56604 0
M  V30 5213 C 494.124 -1.22235 -1.12462 0
M  V30 5214 O 495.309 -1.50873 -1.16799 0
M  V30 5215 C 492.449 -2.98661 -1.72903 0
M  V30 5216 C 491.562 -4.14963 -1.20124 0
M  V30 5217 C 490.697 -4.77441 -2.3286 0
M  V30 5218 C 489.736 -5.85875 -1.77247 0
M  V30 5219 N 488.873 -6.42282 -2.8358 0
M  V30 5220 H 493.713 -2.97984 0.0304578 0
M  V30 5221 H 491.25 -1.47076 0.0268015 0
M  V30 5222 H 493.208 -3.40329 -2.41313 0
M  V30 5223 H 491.838 -2.26793 -2.29706 0
M  V30 5224 H 490.89 -3.78193 -0.409198 0
M  V30 5225 H 492.202 -4.93066 -0.754171 0
M  V30 5226 H 491.356 -5.21993 -3.09205 0
M  V30 5227 H 490.095 -3.98684 -2.80896 0
M  V30 5228 H 489.1 -5.40741 -0.993926 0
M  V30 5229 H 490.325 -6.6652 -1.30107 0
M  V30 5230 H 488.271 -5.66406 -3.30939 0
M  V30 5231 H 488.188 -7.1575 -2.43388 0
M  V30 5232 H 489.456 -6.91492 -3.59804 0
M  V30 5233 N 493.685 -0.035106 -1.57561 0
M  V30 5234 C 494.615 0.942993 -2.13612 0
M  V30 5235 C 495.596 1.33531 -1.05373 0
M  V30 5236 O 496.781 1.41287 -1.33235 0
M  V30 5237 C 493.911 2.22332 -2.66807 0
M  V30 5238 C 492.865 1.97156 -3.79886 0
M  V30 5239 C 492.191 3.31506 -4.19533 0
M  V30 5240 C 493.491 1.30596 -5.05709 0
M  V30 5241 H 495.185 0.476179 -2.95589 0
M  V30 5242 H 492.731 0.227602 -1.4219 0
M  V30 5243 H 494.684 2.91142 -3.04654 0
M  V30 5244 H 493.408 2.7119 -1.81999 0
M  V30 5245 H 492.067 1.30763 -3.42486 0
M  V30 5246 H 491.715 3.78134 -3.31698 0
M  V30 5247 H 491.415 3.15465 -4.95738 0
M  V30 5248 H 492.939 4.01574 -4.59968 0
M  V30 5249 H 494.353 1.89416 -5.41105 0
M  V30 5250 H 492.75 1.24934 -5.86951 0
M  V30 5251 H 493.82 0.279742 -4.84092 0
M  V30 5252 N 495.163 1.55791 0.238111 0
M  V30 5253 C 496.11 1.9105 1.29493 0
M  V30 5254 C 497.08 0.765733 1.47397 0
M  V30 5255 O 498.265 1.02017 1.61236 0
M  V30 5256 C 495.405 2.21826 2.64362 0
M  V30 5257 C 494.518 3.49153 2.54394 0
M  V30 5258 C 493.653 3.69455 3.81676 0
M  V30 5259 C 492.692 4.90353 3.66361 0
M  V30 5260 N 491.829 5.07131 4.85554 0
M  V30 5261 H 496.669 2.81172 0.987233 0
M  V30 5262 H 494.206 1.39179 0.476203 0
M  V30 5263 H 496.164 2.37675 3.4288 0
M  V30 5264 H 494.794 1.34897 2.93262 0
M  V30 5265 H 493.846 3.41587 1.67399 0
M  V30 5266 H 495.158 4.37818 2.38991 0
M  V30 5267 H 494.312 3.85311 4.68636 0
M  V30 5268 H 493.051 2.7904 3.99985 0
M  V30 5269 H 492.056 4.74464 2.77784 0
M  V30 5270 H 493.281 5.82237 3.49538 0
M  V30 5271 H 491.227 4.19654 5.04209 0
M  V30 5272 H 491.144 5.89899 4.72816 0
M  V30 5273 H 492.412 5.27407 5.73988 0
M  V30 5274 N 496.642 -0.504142 1.49319 0
M  V30 5275 C 497.552 -1.63248 1.68486 0
M  V30 5276 C 498.568 -1.64488 0.567432 0
M  V30 5277 O 499.744 -1.82966 0.841749 0
M  V30 5278 C 496.809 -2.99627 1.74426 0
M  V30 5279 C 495.87 -3.09039 2.97982 0
M  V30 5280 C 495.103 -4.38913 3.0363 0
M  V30 5281 O 495.326 -5.27528 2.16958 0
M  V30 5282 O 494.26 -4.53231 3.96062 0
M  V30 5283 H 498.086 -1.50008 2.64067 0
M  V30 5284 H 495.671 -0.680086 1.33023 0
M  V30 5285 H 497.553 -3.80689 1.80705 0
M  V30 5286 H 496.228 -3.13136 0.820233 0
M  V30 5287 H 495.135 -2.27177 2.97223 0
M  V30 5288 H 496.468 -3.00456 3.89855 0
M  V30 5289 N 498.12 -1.38341 -0.754957 0
M  V30 5290 C 499.36 -1.35888 -1.52689 0
M  V30 5291 C 499.724 0.0513682 -1.91931 0
M  V30 5292 O 500.925 0.200761 -2.68049 0
M  V30 5293 C 499.196 -2.28666 -2.74676 0
M  V30 5294 S 500.755 -2.4422 -3.64558 0
M  V30 5295 H 497.573 -0.482165 -0.522531 0
M  V30 5296 H 500.175 -1.74253 -0.886358 0
M  V30 5297 H 498.879 -3.30023 -2.43953 0
M  V30 5298 H 498.41 -1.91445 -3.43675 0
M  V30 5299 H 500.425 -1.66525 -4.67423 0
M  V30 5300 N 499.598 0.982988 -1.23187 0
M  V30 5301 C 500.838 1.73903 -1.07412 0
M  V30 5302 C 501.202 1.88146 0.382764 0
M  V30 5303 O 502.403 2.6053 0.661638 0
M  V30 5304 C 500.674 3.10105 -1.77678 0
M  V30 5305 S 502.233 4.01323 -1.77441 0
M  V30 5306 H 499.051 0.598093 -0.384456 0
M  V30 5307 H 501.653 1.17456 -1.56283 0
M  V30 5308 H 500.357 2.97388 -2.82822 0
M  V30 5309 H 499.888 3.71622 -1.29077 0
M  V30 5310 H 501.903 4.89189 -0.831162 0
M  V30 5311 N 501.076 1.04316 1.18135 0
M  V30 5312 C 501.986 0.646876 2.25505 0
M  V30 5313 C 503.002 -0.328008 1.7088 0
M  V30 5314 O 504.178 -0.182309 2.00573 0
M  V30 5315 C 501.243 0.0185664 3.46695 0
M  V30 5316 C 500.304 1.04277 4.16443 0
M  V30 5317 C 499.537 0.444352 5.31847 0
M  V30 5318 O 499.76 -0.748735 5.65465 0
M  V30 5319 O 498.694 1.17428 5.90334 0
M  V30 5320 H 502.52 1.54147 2.61672 0
M  V30 5321 H 500.105 0.814188 1.25265 0
M  V30 5322 H 501.987 -0.331068 4.20097 0
M  V30 5323 H 500.662 -0.849814 3.12346 0
M  V30 5324 H 499.569 1.44425 3.45098 0
M  V30 5325 H 500.902 1.882 4.54798 0
M  V30 5326 N 502.554 -1.34406 0.822964 0
M  V30 5327 C 503.501 -2.29519 0.24284 0
M  V30 5328 C 504.471 -1.5359 -0.632397 0
M  V30 5329 O 505.656 -1.8196 -0.57403 0
M  V30 5330 C 502.796 -3.40032 -0.58925 0
M  V30 5331 C 501.909 -4.30899 0.308236 0
M  V30 5332 C 501.044 -5.28515 -0.533425 0
M  V30 5333 C 500.083 -6.1102 0.363444 0
M  V30 5334 N 499.22 -7.00725 -0.439147 0
M  V30 5335 H 504.06 -2.78537 1.05929 0
M  V30 5336 H 501.597 -1.3707 0.533872 0
M  V30 5337 H 503.555 -4.0279 -1.087 0
M  V30 5338 H 502.185 -2.92248 -1.37081 0
M  V30 5339 H 501.237 -3.69002 0.924203 0
M  V30 5340 H 502.549 -4.88717 0.997862 0
M  V30 5341 H 501.703 -5.96725 -1.09565 0
M  V30 5342 H 500.442 -4.71235 -1.25656 0
M  V30 5343 H 499.447 -5.41743 0.937812 0
M  V30 5344 H 500.672 -6.70381 1.08469 0
M  V30 5345 H 498.618 -6.45913 -1.14595 0
M  V30 5346 H 498.535 -7.55756 0.19209 0
M  V30 5347 H 499.803 -7.73263 -0.984124 0
M  V30 5348 N 504.032 -0.577932 -1.46621 0
M  V30 5349 C 505.443 -0.150071 -1.86096 0
M  V30 5350 C 505.794 1.28563 -1.48209 0
M  V30 5351 O 504.919 1.97036 -0.894754 0
M  V30 5352 C 505.514 -0.265576 -3.37758 0
M  V30 5353 C 504.073 0.10738 -3.76247 0
M  V30 5354 C 503.22 -0.603711 -2.70649 0
M  V30 5355 H 506.171 -0.786438 -1.37844 0
M  V30 5356 H 506.192 0.510352 -3.77062 0
M  V30 5357 H 505.704 -1.3106 -3.65301 0
M  V30 5358 H 503.805 1.15272 -3.54321 0
M  V30 5359 H 503.918 -0.26561 -4.78363 0
M  V30 5360 H 502.282 -0.0444884 -2.54661 0
M  V30 5361 H 503.065 -1.65029 -3.01032 0
M  V30 5362 N 505.51 1.54411 -0.315457 0
M  V30 5363 C 506.44 2.27002 0.547039 0
M  V30 5364 C 507.421 1.27492 1.12605 0
M  V30 5365 O 508.606 1.5629 1.15269 0
M  V30 5366 C 505.736 3.02171 1.71201 0
M  V30 5367 C 504.69 4.0895 1.26268 0
M  V30 5368 C 504.016 4.71915 2.51396 0
M  V30 5369 C 505.316 5.20891 0.383419 0
M  V30 5370 H 507.01 2.99343 -0.0584517 0
M  V30 5371 H 504.556 1.4397 -0.0295527 0
M  V30 5372 H 506.509 3.51681 2.32161 0
M  V30 5373 H 505.233 2.27433 2.34397 0
M  V30 5374 H 503.892 3.60312 0.676062 0
M  V30 5375 H 503.54 3.93801 3.12937 0
M  V30 5376 H 503.24 5.44039 2.22026 0
M  V30 5377 H 504.764 5.24195 3.13133 0
M  V30 5378 H 506.178 5.66206 0.899082 0
M  V30 5379 H 504.575 5.99821 0.182857 0
M  V30 5380 H 505.645 4.81324 -0.587821 0
M  V30 5381 N 506.988 0.0434614 1.5754 0
M  V30 5382 C 507.918 -0.931651 2.14109 0
M  V30 5383 C 508.899 -1.32971 1.06079 0
M  V30 5384 O 510.084 -1.40579 1.33982 0
M  V30 5385 C 507.214 -2.20914 2.67982 0
M  V30 5386 C 506.168 -1.95139 3.80926 0
M  V30 5387 C 505.494 -3.29276 4.21285 0
M  V30 5388 C 506.794 -1.27913 5.06395 0
M  V30 5389 H 508.488 -0.460497 2.95837 0
M  V30 5390 H 506.034 -0.220058 1.42309 0
M  V30 5391 H 507.987 -2.89522 3.06194 0
M  V30 5392 H 506.711 -2.70221 1.83434 0
M  V30 5393 H 505.37 -1.28945 3.43175 0
M  V30 5394 H 505.018 -3.76369 3.33699 0
M  V30 5395 H 504.718 -3.12831 4.97404 0
M  V30 5396 H 506.242 -3.99129 4.62091 0
M  V30 5397 H 507.656 -1.86544 5.42102 0
M  V30 5398 H 506.053 -1.2182 5.87605 0
M  V30 5399 H 507.123 -0.254066 4.84234 0
M  V30 5400 N 508.466 -1.55915 -0.229846 0
M  V30 5401 C 509.376 -1.94891 -1.30593 0
M  V30 5402 C 510.392 -0.851604 -1.51736 0
M  V30 5403 O 511.568 -1.15447 -1.65027 0
M  V30 5404 C 508.633 -2.25052 -2.63728 0
M  V30 5405 C 507.694 -3.48306 -2.5096 0
M  V30 5406 C 506.927 -3.77019 -3.77747 0
M  V30 5407 O 507.15 -3.07534 -4.80395 0
M  V30 5408 O 506.084 -4.70523 -3.75356 0
M  V30 5409 H 509.91 -2.86581 -1.00525 0
M  V30 5410 H 507.495 -1.43017 -0.432025 0
M  V30 5411 H 509.377 -2.45682 -3.42372 0
M  V30 5412 H 508.052 -1.36538 -2.93495 0
M  V30 5413 H 506.959 -3.32964 -1.70546 0
M  V30 5414 H 508.292 -4.37177 -2.26136 0
M  V30 5415 N 509.944 0.496216 -1.49584 0
M  V30 5416 C 510.891 1.59722 -1.66606 0
M  V30 5417 C 511.861 1.58158 -0.507477 0
M  V30 5418 O 513.046 1.76072 -0.735076 0
M  V30 5419 C 510.186 2.97844 -1.74308 0
M  V30 5420 C 509.299 3.09388 -3.01502 0
M  V30 5421 C 508.434 4.38271 -3.00153 0
M  V30 5422 C 507.473 4.43466 -4.21906 0
M  V30 5423 N 506.61 5.63784 -4.1844 0
M  V30 5424 H 511.45 1.44515 -2.60613 0
M  V30 5425 H 508.987 0.703048 -1.29212 0
M  V30 5426 H 510.945 3.77907 -1.76754 0
M  V30 5427 H 509.575 3.11743 -0.837619 0
M  V30 5428 H 508.627 2.22357 -3.08645 0
M  V30 5429 H 509.939 3.09085 -3.91494 0
M  V30 5430 H 509.093 5.2666 -3.01188 0
M  V30 5431 H 507.832 4.41146 -2.07947 0
M  V30 5432 H 506.837 3.53478 -4.21109 0
M  V30 5433 H 508.062 4.42303 -5.1531 0
M  V30 5434 H 506.008 5.67491 -3.29074 0
M  V30 5435 H 505.925 5.65118 -5.02173 0
M  V30 5436 H 507.193 6.54367 -4.23585 0
M  V30 5437 N 511.423 1.38739 0.74761 0
M  V30 5438 C 512.648 1.38702 1.54197 0
M  V30 5439 C 513.073 -0.019664 1.8809 0
M  V30 5440 O 512.431 -1.00333 1.51006 0
M  V30 5441 C 512.479 2.25492 2.814 0
M  V30 5442 O 511.583 1.67613 3.76802 0
M  V30 5443 H 510.924 0.472863 0.466151 0
M  V30 5444 H 513.454 1.82577 0.923413 0
M  V30 5445 H 513.464 2.39561 3.30264 0
M  V30 5446 H 512.139 3.27727 2.56062 0
M  V30 5447 H 510.716 1.62718 3.35526 0
M  V30 5448 N 512.901 -0.976442 1.23707 0
M  V30 5449 C 513.851 -2.0544 0.988851 0
M  V30 5450 C 514.835 -1.60762 -0.0665901 0
M  V30 5451 O 516.027 -1.76396 0.14604 0
M  V30 5452 C 513.156 -3.38258 0.586223 0
M  V30 5453 C 512.242 -3.89523 1.67728 0
M  V30 5454 N 512.633 -4.13823 2.90834 0
M  V30 5455 C 510.931 -4.18097 1.55277 0
M  V30 5456 C 511.632 -4.55731 3.61502 0
M  V30 5457 N 510.608 -4.60394 2.8903 0
M  V30 5458 H 514.41 -2.22191 1.92376 0
M  V30 5459 H 511.924 -1.15954 1.13704 0
M  V30 5460 H 513.921 -4.15075 0.389658 0
M  V30 5461 H 512.581 -3.22898 -0.341594 0
M  V30 5462 H 513.592 -4.01529 3.271 0
M  V30 5463 H 510.269 -4.11719 0.692351 0
M  V30 5464 H 511.659 -4.83018 4.67059 0
M  V30 5465 N 514.379 -1.04941 -1.1758 0
M  V30 5466 C 515.619 -0.766996 -1.89464 0
M  V30 5467 C 515.983 0.693123 -1.79053 0
M  V30 5468 O 517.184 1.08953 -2.45729 0
M  V30 5469 C 515.455 -1.23108 -3.35528 0
M  V30 5470 S 517.014 -1.07565 -4.25412 0
M  V30 5471 H 513.832 -0.278616 -0.654136 0
M  V30 5472 H 516.434 -1.34352 -1.4202 0
M  V30 5473 H 515.138 -2.28896 -3.40639 0
M  V30 5474 H 514.669 -0.648724 -3.88014 0
M  V30 5475 H 516.684 0.00169467 -4.962 0
M  V30 5476 N 515.857 1.33968 -0.830081 0
M  V30 5477 C 517.106 1.97323 -0.417928 0
M  V30 5478 C 517.419 1.6652 1.02618 0
M  V30 5479 O 518.625 2.2342 1.54259 0
M  V30 5480 C 517.081 3.53099 -0.696359 0
M  V30 5481 C 516.689 3.92788 -2.15457 0
M  V30 5482 C 518.433 4.23049 -0.350724 0
M  V30 5483 C 516.34 5.41506 -2.37751 0
M  V30 5484 H 515.27 0.738409 -0.152541 0
M  V30 5485 H 517.921 1.52711 -1.01744 0
M  V30 5486 H 516.303 3.95991 -0.0265904 0
M  V30 5487 H 517.477 3.6098 -2.86408 0
M  V30 5488 H 515.792 3.35795 -2.46232 0
M  V30 5489 H 518.389 5.32403 -0.495036 0
M  V30 5490 H 518.732 4.10279 0.705476 0
M  V30 5491 H 519.265 3.85657 -0.975362 0
M  V30 5492 H 516.004 5.5927 -3.41903 0
M  V30 5493 H 515.524 5.74804 -1.7135 0
M  V30 5494 H 517.203 6.0828 -2.20465 0
M  V30 5495 N 517.335 0.585699 1.46312 0
M  V30 5496 C 518.298 -0.135673 2.28798 0
M  V30 5497 C 519.298 -0.815988 1.38558 0
M  V30 5498 O 520.488 -0.667487 1.60904 0
M  V30 5499 C 517.62 -1.20163 3.1902 0
M  V30 5500 H 518.813 0.589257 2.94054 0
M  V30 5501 H 516.366 0.343794 1.52472 0
M  V30 5502 H 517.101 -1.95804 2.58517 0
M  V30 5503 H 516.886 -0.718282 3.85465 0
M  V30 5504 H 518.376 -1.70749 3.81096 0
M  V30 5505 N 518.813 -1.54241 0.323641 0
M  V30 5506 C 519.723 -2.28033 -0.551205 0
M  V30 5507 C 520.739 -1.32388 -1.12913 0
M  V30 5508 O 521.915 -1.65403 -1.14908 0
M  V30 5509 C 518.98 -3.02382 -1.69606 0
M  V30 5510 C 518.041 -4.13612 -1.14993 0
M  V30 5511 C 517.274 -4.84407 -2.24022 0
M  V30 5512 O 517.497 -4.54716 -3.44368 0
M  V30 5513 O 516.431 -5.71312 -1.89436 0
M  V30 5514 H 520.257 -3.03662 0.048066 0
M  V30 5515 H 517.842 -1.49133 0.0893289 0
M  V30 5516 H 519.724 -3.48941 -2.36259 0
M  V30 5517 H 518.399 -2.29628 -2.28151 0
M  V30 5518 H 517.306 -3.71402 -0.448484 0
M  V30 5519 H 518.639 -4.8841 -0.609608 0
M  V30 5520 N 520.291 -0.0518155 -1.57515 0
M  V30 5521 C 521.537 0.622745 -1.93002 0
M  V30 5522 C 521.87 1.70456 -0.930499 0
M  V30 5523 O 521.145 1.94452 0.0434086 0
M  V30 5524 C 521.428 1.21824 -3.38867 0
M  V30 5525 C 521.281 0.144434 -4.49568 0
M  V30 5526 C 522.6 2.12968 -3.8514 0
M  V30 5527 H 519.719 0.22491 -0.701844 0
M  V30 5528 H 522.361 -0.113711 -1.89659 0
M  V30 5529 H 520.511 1.8459 -3.41846 0
M  V30 5530 H 522.183 -0.48753 -4.58717 0
M  V30 5531 H 520.426 -0.527424 -4.30582 0
M  V30 5532 H 521.097 0.601127 -5.48717 0
M  V30 5533 H 523.573 1.60163 -3.8404 0
M  V30 5534 H 522.449 2.51578 -4.87852 0
M  V30 5535 H 522.71 3.03004 -3.21934 0
M  V30 5536 N 521.769 1.56035 0.221574 0
M  V30 5537 C 522.679 1.95581 1.29558 0
M  V30 5538 C 523.695 0.859639 1.51282 0
M  V30 5539 O 524.871 1.16321 1.64413 0
M  V30 5540 C 521.936 2.26447 2.62531 0
M  V30 5541 C 520.997 3.49632 2.4911 0
M  V30 5542 C 520.23 3.79017 3.75742 0
M  V30 5543 O 520.453 3.10077 4.78757 0
M  V30 5544 O 519.387 4.72507 3.72855 0
M  V30 5545 H 523.213 2.8711 0.990035 0
M  V30 5546 H 520.798 1.43244 0.424434 0
M  V30 5547 H 522.68 2.47494 3.41064 0
M  V30 5548 H 521.355 1.38092 2.92766 0
M  V30 5549 H 520.262 3.33864 1.68777 0
M  V30 5550 H 521.595 4.3837 2.23814 0
M  V30 5551 N 523.247 -0.488276 1.49845 0
M  V30 5552 C 524.195 -1.60917 1.67954 0
M  V30 5553 C 525.189 -1.6038 0.54539 0
M  V30 5554 O 526.395 -1.64736 0.7254 0
M  V30 5555 H 522.77 -0.533658 0.529824 0
M  V30 5556 H 524.741 -1.428 2.62013 0
M  V30 5557 C 523.49 -2.98975 1.77509 0
M  V30 5558 H 522.813 -3.00099 2.6416 0
M  V30 5559 H 524.253 -3.76906 1.9421 0
M  V30 5560 C 522.712 -3.3282 0.522745 0
M  V30 5561 O 523.242 -4.00208 -0.345866 0
M  V30 5562 N 521.448 -2.8808 0.381882 0
M  V30 5563 H 520.995 -2.33415 1.08974 0
M  V30 5564 H 520.953 -3.11091 -0.454929 0
M  V30 5565 N 524.725 -1.39134 -0.740242 0
M  V30 5566 C 526.002 -1.26584 -1.49117 0
M  V30 5567 C 526.382 0.126902 -2.10718 0
M  V30 5568 O 525.73 1.13765 -1.98166 0
M  V30 5569 C 525.94 -2.38619 -2.54681 0
M  V30 5570 C 527.288 -2.77685 -3.21211 0
M  V30 5571 O 528.312 -2.38029 -2.64991 0
M  V30 5572 O 527.171 -3.46115 -4.22926 0
M  V30 5573 H 524.265 -0.495769 -0.661923 0
M  V30 5574 H 526.811 -1.50995 -0.774514 0
M  V30 5575 H 525.583 -3.3175 -2.07504 0
M  V30 5576 H 525.206 -2.15845 -3.33911 0
M  V30 5577 N 526.204 0.969867 -1.24223 0
M  V30 5578 C 527.114 2.09806 -1.0497 0
M  V30 5579 C 528.13 1.73998 0.00886455 0
M  V30 5580 O 529.306 2.00513 -0.188848 0
M  V30 5581 C 526.371 3.40467 -0.654452 0
M  V30 5582 C 525.432 3.90236 -1.78926 0
M  V30 5583 C 524.665 5.14662 -1.41277 0
M  V30 5584 O 524.888 5.69602 -0.301632 0
M  V30 5585 O 523.822 5.58761 -2.23763 0
M  V30 5586 H 527.648 2.28942 -1.99548 0
M  V30 5587 H 525.233 1.08197 -1.03023 0
M  V30 5588 H 527.115 4.19039 -0.445452 0
M  V30 5589 H 525.79 3.22636 0.262216 0
M  V30 5590 H 524.697 3.12735 -2.05299 0
M  V30 5591 H 526.03 4.1254 -2.68462 0
M  V30 5592 N 527.682 1.05563 1.17022 0
M  V30 5593 C 528.615 0.604197 2.20056 0
M  V30 5594 C 529.593 -0.369169 1.58354 0
M  V30 5595 O 530.777 -0.279898 1.8641 0
M  V30 5596 C 527.904 -0.115265 3.38504 0
M  V30 5597 C 526.95 0.813698 4.18666 0
M  V30 5598 S 527.783 2.30492 4.83357 0
M  V30 5599 C 528.939 1.59674 6.0519 0
M  V30 5600 H 529.172 1.47713 2.58008 0
M  V30 5601 H 526.705 0.867932 1.27696 0
M  V30 5602 H 528.663 -0.524162 4.0714 0
M  V30 5603 H 527.324 -0.964284 2.98932 0
M  V30 5604 H 526.517 0.256736 5.03346 0
M  V30 5605 H 526.119 1.16213 3.55486 0
M  V30 5606 H 528.411 0.898164 6.7152 0
M  V30 5607 H 529.354 2.42115 6.65422 0
M  V30 5608 H 529.762 1.08252 5.54023 0
M  V30 5609 N 529.16 -1.33526 0.837174 0
M  V30 5610 C 530.571 -1.80182 0.489017 0
M  V30 5611 C 530.922 -1.69285 -0.991826 0
M  V30 5612 O 530.047 -1.24113 -1.77271 0
M  V30 5613 C 530.642 -3.27149 0.880866 0
M  V30 5614 C 529.201 -3.71828 0.584872 0
M  V30 5615 C 528.348 -2.54974 1.09011 0
M  V30 5616 H 531.299 -1.21071 1.02603 0
M  V30 5617 H 531.32 -3.80024 0.190239 0
M  V30 5618 H 530.832 -3.35048 1.95869 0
M  V30 5619 H 528.933 -3.69457 -0.48295 0
M  V30 5620 H 529.046 -4.65366 1.13892 0
M  V30 5621 H 527.41 -2.4952 0.511047 0
M  V30 5622 H 528.193 -2.65637 2.17467 0
M  V30 5623 N 530.638 -0.59345 -1.46 0
M  V30 5624 C 531.601 0.123538 -2.28867 0
M  V30 5625 C 532.601 0.808628 -1.38989 0
M  V30 5626 O 533.791 0.658945 -1.61256 0
M  V30 5627 C 530.923 1.1847 -3.19653 0
M  V30 5628 H 532.116 -0.604843 -2.93737 0
M  V30 5629 H 529.669 -0.351875 -1.52288 0
M  V30 5630 H 530.404 1.94431 -2.59552 0
M  V30 5631 H 530.189 0.69783 -3.8584 0
M  V30 5632 H 531.679 1.68726 -3.81997 0
M  V30 5633 N 532.116 1.54067 -0.331816 0
M  V30 5634 C 533.393 1.92915 0.322955 0
M  V30 5635 C 533.773 1.26225 1.69205 0
M  V30 5636 O 533.121 0.408919 2.24811 0
M  V30 5637 C 533.331 3.46619 0.406946 0
M  V30 5638 C 534.679 4.19386 0.663339 0
M  V30 5639 O 535.703 3.5282 0.489536 0
M  V30 5640 O 534.562 5.37288 0.999193 0
M  V30 5641 H 531.656 0.805808 0.186016 0
M  V30 5642 H 534.202 1.65342 -0.382135 0
M  V30 5643 H 532.974 3.87354 -0.554287 0
M  V30 5644 H 532.597 3.80324 1.15929 0
M  V30 5645 N 533.594 0.0601682 1.57485 0
M  V30 5646 C 534.524 -0.90889 2.15085 0
M  V30 5647 C 535.505 -1.31838 1.07484 0
M  V30 5648 O 536.69 -1.3915 1.35466 0
M  V30 5649 C 533.82 -2.18059 2.7031 0
M  V30 5650 C 532.774 -1.91088 3.82974 0
M  V30 5651 C 532.1 -3.24789 4.24754 0
M  V30 5652 C 533.4 -1.22535 5.07723 0
M  V30 5653 H 535.094 -0.429093 2.96309 0
M  V30 5654 H 532.64 -0.204952 1.42534 0
M  V30 5655 H 534.593 -2.86258 3.09248 0
M  V30 5656 H 533.317 -2.6826 1.8629 0
M  V30 5657 H 531.976 -1.25297 3.44523 0
M  V30 5658 H 531.624 -3.72809 3.37672 0
M  V30 5659 H 531.324 -3.07538 5.00694 0
M  V30 5660 H 532.848 -3.94205 4.66299 0
M  V30 5661 H 534.262 -1.80783 5.4405 0
M  V30 5662 H 532.659 -1.1558 5.88864 0
M  V30 5663 H 533.729 -0.202692 4.84476 0
M  V30 5664 N 535.072 -1.5615 -0.213296 0
M  V30 5665 C 536.483 -1.69645 -0.779582 0
M  V30 5666 C 536.834 -0.663615 -1.84636 0
M  V30 5667 O 535.959 0.183633 -2.15619 0
M  V30 5668 C 536.554 -3.07567 -1.42084 0
M  V30 5669 C 535.113 -3.22889 -1.93442 0
M  V30 5670 C 534.26 -2.65581 -0.797612 0
M  V30 5671 H 537.211 -1.58696 0.0114951 0
M  V30 5672 H 537.232 -3.03884 -2.28986 0
M  V30 5673 H 536.744 -3.82716 -0.644187 0
M  V30 5674 H 534.845 -2.52623 -2.73884 0
M  V30 5675 H 534.958 -4.30197 -2.10872 0
M  V30 5676 H 533.322 -2.24278 -1.20712 0
M  V30 5677 H 534.105 -3.43284 -0.033494 0
M  V30 5678 N 536.55 0.480323 -1.50102 0
M  V30 5679 C 537.775 1.26126 -1.64642 0
M  V30 5680 C 538.2 1.85257 -0.325823 0
M  V30 5681 O 537.558 1.66854 0.709194 0
M  V30 5682 C 537.606 2.35243 -2.73301 0
M  V30 5683 O 536.71 3.39646 -2.33911 0
M  V30 5684 H 536.051 0.371463 -0.550374 0
M  V30 5685 H 538.581 0.572696 -1.96421 0
M  V30 5686 H 538.591 2.80695 -2.96098 0
M  V30 5687 H 537.266 1.91574 -3.6915 0
M  V30 5688 H 535.843 2.99969 -2.21525 0
M  V30 5689 N 538.028 1.39524 0.732853 0
M  V30 5690 C 538.958 1.41153 1.86005 0
M  V30 5691 C 539.939 0.274614 1.67869 0
M  V30 5692 O 541.124 0.480745 1.88155 0
M  V30 5693 C 538.254 1.25638 3.23778 0
M  V30 5694 C 537.208 2.36752 3.56556 0
M  V30 5695 C 536.534 2.06326 4.93289 0
M  V30 5696 C 537.834 3.79069 3.5931 0
M  V30 5697 H 539.528 2.35484 1.84899 0
M  V30 5698 H 537.074 1.13348 0.888162 0
M  V30 5699 H 539.027 1.25398 4.0231 0
M  V30 5700 H 537.751 0.277772 3.25417 0
M  V30 5701 H 536.41 2.36213 2.80355 0
M  V30 5702 H 536.058 1.06897 4.9151 0
M  V30 5703 H 535.758 2.80757 5.16187 0
M  V30 5704 H 537.282 2.07739 5.74175 0
M  V30 5705 H 538.696 3.81526 4.27914 0
M  V30 5706 H 537.093 4.52878 3.93728 0
M  V30 5707 H 538.163 4.09893 2.59068 0
M  V30 5708 N 539.506 -0.963266 1.24736 0
M  V30 5709 C 540.469 -2.04013 1.04457 0
M  V30 5710 C 541.469 -1.608 0.000335555 0
M  V30 5711 O 542.659 -1.72515 0.241719 0
M  V30 5712 C 539.791 -3.35858 0.584162 0
M  V30 5713 H 540.984 -2.23436 2.00041 0
M  V30 5714 H 538.537 -1.13914 1.07021 0
M  V30 5715 H 539.272 -3.22128 -0.374673 0
M  V30 5716 H 539.057 -3.68568 1.3379 0
M  V30 5717 H 540.547 -4.1502 0.463451 0
M  V30 5718 N 540.985 -1.06182 -1.16461 0
M  V30 5719 C 541.948 -0.675723 -2.19013 0
M  V30 5720 C 542.948 0.277963 -1.58379 0
M  V30 5721 O 544.138 0.0604962 -1.74095 0
M  V30 5722 C 541.27 0.00591459 -3.40899 0
M  V30 5723 H 542.463 -1.58353 -2.54685 0
M  V30 5724 H 540.016 -0.856908 -1.30716 0
M  V30 5725 H 540.751 0.92652 -3.10783 0
M  V30 5726 H 540.536 -0.67984 -3.86161 0
M  V30 5727 H 542.026 0.26181 -4.16778 0
M  V30 5728 N 542.463 1.3308 -0.844243 0
M  V30 5729 C 543.74 1.92178 -0.364261 0
M  V30 5730 C 544.12 1.76961 1.15101 0
M  V30 5731 O 543.468 1.16128 1.9679 0
M  V30 5732 C 543.678 3.393 -0.817106 0
M  V30 5733 C 545.026 4.16444 -0.828236 0
M  V30 5734 O 546.05 3.47975 -0.761062 0
M  V30 5735 O 544.909 5.38685 -0.920926 0
M  V30 5736 H 542.003 0.820411 -0.10419 0
M  V30 5737 H 544.549 1.41918 -0.930453 0
M  V30 5738 H 543.321 3.44272 -1.85991 0
M  V30 5739 H 542.944 3.96947 -0.227785 0
M  V30 5740 N 543.941 0.601185 1.45683 0
M  V30 5741 C 545.188 0.0938811 2.02282 0
M  V30 5742 C 545.516 -1.27315 1.47041 0
M  V30 5743 O 544.771 -1.85193 0.632623 0
M  V30 5744 C 545.07 -0.00222425 3.574 0
M  V30 5745 C 544.736 1.29963 4.31764 0
M  V30 5746 C 543.398 1.65625 4.51798 0
M  V30 5747 C 545.75 2.1603 4.74321 0
M  V30 5748 C 543.078 2.87119 5.11644 0
M  V30 5749 C 545.43 3.36766 5.3551 0
M  V30 5750 C 544.094 3.72689 5.53768 0
M  V30 5751 H 543.364 0.0343535 0.740203 0
M  V30 5752 H 546.011 0.781522 1.74827 0
M  V30 5753 H 544.316 -0.773096 3.84097 0
M  V30 5754 H 546.013 -0.410794 3.9889 0
M  V30 5755 H 542.603 1.01204 4.1648 0
M  V30 5756 H 546.787 1.89778 4.58582 0
M  V30 5757 H 542.043 3.15065 5.2397 0
M  V30 5758 H 546.217 4.03713 5.67441 0
M  V30 5759 H 543.844 4.66918 5.99909 0
M  V30 5760 N 545.419 -1.53889 0.339982 0
M  V30 5761 C 546.665 -2.01152 -0.258003 0
M  V30 5762 C 546.998 -1.22749 -1.50487 0
M  V30 5763 O 546.273 -0.314156 -1.91946 0
M  V30 5764 C 546.556 -3.55468 -0.575717 0
M  V30 5765 C 546.409 -4.44584 0.682996 0
M  V30 5766 C 547.728 -4.1768 -1.38677 0
M  V30 5767 H 544.847 -0.731198 -0.0922992 0
M  V30 5768 H 547.489 -1.84352 0.459814 0
M  V30 5769 H 545.639 -3.69914 -1.18725 0
M  V30 5770 H 547.311 -4.41981 1.32102 0
M  V30 5771 H 545.554 -4.13592 1.3086 0
M  V30 5772 H 546.225 -5.5043 0.416001 0
M  V30 5773 H 548.701 -4.0691 -0.869705 0
M  V30 5774 H 547.577 -5.25734 -1.57783 0
M  V30 5775 H 547.838 -3.72069 -2.38782 0
M  V30 5776 N 546.897 -0.0685191 -1.57451 0
M  V30 5777 C 547.807 0.914677 -2.16034 0
M  V30 5778 C 548.823 1.32938 -1.12265 0
M  V30 5779 O 549.999 1.40275 -1.44516 0
M  V30 5780 C 547.064 2.16519 -2.70777 0
M  V30 5781 C 546.125 1.80721 -3.89408 0
M  V30 5782 C 545.358 2.9981 -4.41531 0
M  V30 5783 O 545.581 4.13727 -3.92666 0
M  V30 5784 O 544.515 2.79817 -5.32903 0
M  V30 5785 H 548.341 0.446364 -3.00402 0
M  V30 5786 H 545.926 0.154367 -1.486 0
M  V30 5787 H 547.808 2.89856 -3.05878 0
M  V30 5788 H 546.483 2.62454 -1.89471 0
M  V30 5789 H 545.39 1.04646 -3.59166 0
M  V30 5790 H 546.723 1.39571 -4.71997 0
M  V30 5791 N 548.375 1.56261 0.205012 0
M  V30 5792 C 549.6 1.84491 0.947512 0
M  V30 5793 C 550.025 0.650894 1.76479 0
M  V30 5794 O 549.383 -0.40035 1.76824 0
M  V30 5795 C 549.431 3.10863 1.82747 0
M  V30 5796 O 548.535 2.90719 2.925 0
M  V30 5797 H 547.876 0.607783 0.267386 0
M  V30 5798 H 550.406 2.03485 0.213323 0
M  V30 5799 H 550.416 3.41399 2.23407 0
M  V30 5800 H 549.091 3.97392 1.2269 0
M  V30 5801 H 547.668 2.71457 2.55667 0
M  V30 5802 N 549.853 -0.472356 1.50355 0
M  V30 5803 C 550.8 -1.57051 1.69126 0
M  V30 5804 C 551.77 -1.5733 0.532574 0
M  V30 5805 O 552.955 -1.7488 0.762994 0
M  V30 5806 C 550.095 -2.95033 1.79024 0
M  V30 5807 C 549.208 -3.04552 3.06386 0
M  V30 5808 C 548.343 -4.33441 3.07087 0
M  V30 5809 C 547.382 -4.36697 4.28908 0
M  V30 5810 N 546.519 -5.57056 4.27356 0
M  V30 5811 H 551.359 -1.40351 2.62879 0
M  V30 5812 H 548.896 -0.682403 1.30314 0
M  V30 5813 H 550.854 -3.75048 1.82744 0
M  V30 5814 H 549.484 -3.10371 0.887109 0
M  V30 5815 H 548.536 -2.17419 3.12143 0
M  V30 5816 H 549.848 -3.02818 3.96362 0
M  V30 5817 H 549.002 -5.21801 3.09529 0
M  V30 5818 H 547.741 -4.37782 2.14939 0
M  V30 5819 H 546.746 -3.46734 4.2668 0
M  V30 5820 H 547.971 -4.34049 5.22282 0
M  V30 5821 H 545.917 -5.62184 3.3806 0
M  V30 5822 H 545.834 -5.57058 5.111 0
M  V30 5823 H 547.102 -6.47545 4.33942 0
M  V30 5824 N 551.331 -1.39911 -0.725443 0
M  V30 5825 C 552.608 -1.28158 -1.47766 0
M  V30 5826 C 552.988 0.104545 -2.10841 0
M  V30 5827 O 552.336 1.11657 -1.99361 0
M  V30 5828 C 552.546 -2.41306 -2.52135 0
M  V30 5829 C 553.894 -2.81076 -3.18247 0
M  V30 5830 O 554.918 -2.40827 -2.62452 0
M  V30 5831 O 553.777 -3.50581 -4.19231 0
M  V30 5832 H 550.871 -0.502761 -0.656628 0
M  V30 5833 H 553.417 -1.51808 -0.758456 0
M  V30 5834 H 552.189 -3.33932 -2.03974 0
M  V30 5835 H 551.812 -2.19374 -3.31603 0
M  V30 5836 N 552.809 0.956637 -1.25245 0
M  V30 5837 C 554.055 1.70352 -1.10036 0
M  V30 5838 C 554.388 1.90869 0.358156 0
M  V30 5839 O 553.663 1.47819 1.26411 0
M  V30 5840 C 553.946 3.08766 -1.85298 0
M  V30 5841 C 553.799 2.95672 -3.38966 0
M  V30 5842 C 555.118 4.08622 -1.63451 0
M  V30 5843 H 552.237 0.618279 -0.401123 0
M  V30 5844 H 554.879 1.11212 -1.54051 0
M  V30 5845 H 553.029 3.59252 -1.47887 0
M  V30 5846 H 554.701 2.52527 -3.86041 0
M  V30 5847 H 552.944 2.31634 -3.6678 0
M  V30 5848 H 553.615 3.93776 -3.86839 0
M  V30 5849 H 556.091 3.67038 -1.96015 0
M  V30 5850 H 554.967 5.03514 -2.18551 0
M  V30 5851 H 555.228 4.3834 -0.575357 0
M  V30 5852 N 554.287 1.06798 1.15896 0
M  V30 5853 C 555.527 0.797041 1.8822 0
M  V30 5854 C 555.891 -0.664549 1.80133 0
M  V30 5855 O 557.092 -1.0503 2.47431 0
M  V30 5856 C 555.363 1.28431 3.33527 0
M  V30 5857 S 556.922 1.14319 4.23647 0
M  V30 5858 H 553.74 0.288988 0.649621 0
M  V30 5859 H 556.342 1.36594 1.39865 0
M  V30 5860 H 555.046 2.34286 3.36954 0
M  V30 5861 H 554.577 0.710371 3.86933 0
M  V30 5862 H 556.592 0.0772467 4.9614 0
M  V30 5863 N 555.766 -1.3263 0.851289 0
M  V30 5864 C 556.713 -2.28952 0.291469 0
M  V30 5865 C 557.683 -1.54897 -0.599676 0
M  V30 5866 O 558.868 -1.83137 -0.535305 0
M  V30 5867 C 556.008 -3.41206 -0.516992 0
M  V30 5868 C 555.121 -4.30148 0.399566 0
M  V30 5869 C 554.256 -5.29527 -0.4212 0
M  V30 5870 C 553.295 -6.10112 0.492969 0
M  V30 5871 N 552.432 -7.01499 -0.290414 0
M  V30 5872 H 557.272 -2.76228 1.11813 0
M  V30 5873 H 554.809 -1.35907 0.562826 0
M  V30 5874 H 556.767 -4.05005 -1.00132 0
M  V30 5875 H 555.397 -2.9509 -1.30851 0
M  V30 5876 H 554.449 -3.66959 1.00227 0
M  V30 5877 H 555.761 -4.8649 1.1013 0
M  V30 5878 H 554.915 -5.98914 -0.968832 0
M  V30 5879 H 553.654 -4.73794 -1.15632 0
M  V30 5880 H 552.659 -5.39632 1.05251 0
M  V30 5881 H 553.884 -6.6793 1.22664 0
M  V30 5882 H 551.83 -6.48199 -1.00868 0
M  V30 5883 H 551.747 -7.55178 0.352354 0
M  V30 5884 H 553.015 -7.75176 -0.819882 0
M  V30 5885 N 557.244 -0.608902 -1.45362 0
M  V30 5886 C 558.192 0.121639 -2.32282 0
M  V30 5887 C 559.186 0.858301 -1.46046 0
M  V30 5888 O 560.392 0.773718 -1.62523 0
M  V30 5889 H 556.767 0.058086 -0.749753 0
M  V30 5890 H 558.738 -0.629866 -2.91677 0
M  V30 5891 C 557.487 1.1047 -3.29684 0
M  V30 5892 H 556.81 0.547278 -3.96036 0
M  V30 5893 H 558.25 1.58576 -3.9323 0
M  V30 5894 C 556.709 2.17891 -2.56954 0
M  V30 5895 O 557.239 3.25652 -2.35189 0
M  V30 5896 N 555.445 1.93211 -2.17066 0
M  V30 5897 H 554.992 1.05584 -2.34967 0
M  V30 5898 H 554.95 2.6529 -1.68727 0
M  V30 5899 N 558.722 1.53707 -0.348139 0
M  V30 5900 C 559.952 2.05108 0.247864 0
M  V30 5901 C 560.36 1.22252 1.44399 0
M  V30 5902 O 559.703 0.251853 1.81965 0
M  V30 5903 C 559.765 3.52171 0.722187 0
M  V30 5904 C 559.429 4.5562 -0.354902 0
M  V30 5905 C 560.426 5.05883 -1.19911 0
M  V30 5906 C 558.111 4.99703 -0.510145 0
M  V30 5907 C 560.105 5.98814 -2.18406 0
M  V30 5908 C 557.792 5.92443 -1.49848 0
M  V30 5909 C 558.79 6.41887 -2.33389 0
M  V30 5910 O 558.478 7.32802 -3.3054 0
M  V30 5911 H 558.21 0.674086 0.0508296 0
M  V30 5912 H 560.764 1.99229 -0.49968 0
M  V30 5913 H 558.994 3.55529 1.52105 0
M  V30 5914 H 560.683 3.8652 1.23925 0
M  V30 5915 H 561.449 4.72586 -1.09028 0
M  V30 5916 H 557.328 4.60816 0.130274 0
M  V30 5917 H 560.872 6.3733 -2.83649 0
M  V30 5918 H 556.769 6.25155 -1.60786 0
M  V30 5919 H 557.537 7.50749 -3.26064 0
M  V30 5920 N 560.2 0.0768682 1.57412 0
M  V30 5921 C 561.163 -0.873949 2.11884 0
M  V30 5922 C 562.163 -1.22301 1.04398 0
M  V30 5923 O 563.353 -1.15545 1.30365 0
M  V30 5924 C 560.485 -2.17575 2.62438 0
M  V30 5925 H 561.678 -0.401278 2.97203 0
M  V30 5926 H 559.231 -0.171904 1.55352 0
M  V30 5927 H 559.966 -2.69368 1.80587 0
M  V30 5928 H 559.751 -1.93534 3.41009 0
M  V30 5929 H 561.241 -2.85631 3.04639 0
M  V30 5930 N 561.678 -1.56367 -0.196722 0
M  V30 5931 C 562.588 -1.97617 -1.2643 0
M  V30 5932 C 563.604 -0.883598 -1.49895 0
M  V30 5933 O 564.78 -1.18921 -1.62541 0
M  V30 5934 C 561.845 -2.30595 -2.58895 0
M  V30 5935 C 560.906 -3.53551 -2.43516 0
M  V30 5936 C 560.139 -3.84946 -3.69665 0
M  V30 5937 O 560.362 -3.17655 -4.73763 0
M  V30 5938 O 559.296 -4.78379 -3.65291 0
M  V30 5939 H 563.122 -2.88648 -0.944233 0
M  V30 5940 H 560.707 -1.43901 -0.401592 0
M  V30 5941 H 562.589 -2.52889 -3.37083 0
M  V30 5942 H 561.264 -1.42732 -2.90533 0
M  V30 5943 H 560.171 -3.36507 -1.63445 0
M  V30 5944 H 561.504 -4.41875 -2.16812 0
M  V30 5945 N 563.156 0.464375 -1.50603 0
M  V30 5946 C 564.119 1.54393 -1.69397 0
M  V30 5947 C 565.119 1.50566 -0.564504 0
M  V30 5948 O 566.309 1.53066 -0.831645 0
M  V30 5949 C 563.441 2.9401 -1.72543 0
M  V30 5950 H 564.634 1.39044 -2.65719 0
M  V30 5951 H 562.187 0.69122 -1.40185 0
M  V30 5952 H 562.922 3.14795 -0.77938 0
M  V30 5953 H 562.707 2.98195 -2.54602 0
M  V30 5954 H 564.197 3.72375 -1.89015 0
M  V30 5955 N 564.634 1.40294 0.718013 0
M  V30 5956 C 565.581 1.40367 1.8321 0
M  V30 5957 C 566.551 0.260952 1.64037 0
M  V30 5958 O 567.736 0.458648 1.85205 0
M  V30 5959 C 564.876 1.26965 3.20895 0
M  V30 5960 C 563.989 2.50922 3.51656 0
M  V30 5961 C 563.124 2.29981 4.78834 0
M  V30 5962 C 562.163 3.49527 5.02491 0
M  V30 5963 N 561.3 3.27796 6.20882 0
M  V30 5964 H 566.14 2.35593 1.82482 0
M  V30 5965 H 563.677 1.17012 0.891444 0
M  V30 5966 H 565.635 1.17202 4.00399 0
M  V30 5967 H 564.265 0.353591 3.20858 0
M  V30 5968 H 563.317 2.71223 2.66725 0
M  V30 5969 H 564.629 3.39913 3.65048 0
M  V30 5970 H 563.783 2.17558 5.66351 0
M  V30 5971 H 562.522 1.38411 4.67647 0
M  V30 5972 H 561.527 3.6243 4.1343 0
M  V30 5973 H 562.752 4.42021 5.15553 0
M  V30 5974 H 560.698 2.38906 6.1095 0
M  V30 5975 H 560.615 4.10351 6.34939 0
M  V30 5976 H 561.883 3.19101 7.11193 0
M  V30 5977 N 566.112 -0.949982 1.2575 0
M  V30 5978 C 567.389 -1.6718 1.01539 0
M  V30 5979 C 567.769 -2.06095 -0.456942 0
M  V30 5980 O 567.117 -1.77792 -1.43534 0
M  V30 5981 C 567.327 -2.8906 1.95564 0
M  V30 5982 C 568.675 -3.60909 2.23673 0
M  V30 5983 O 569.699 -2.9915 1.9336 0
M  V30 5984 O 568.558 -4.72127 2.75243 0
M  V30 5985 H 565.652 -0.731697 0.385419 0
M  V30 5986 H 568.198 -1.00249 1.36924 0
M  V30 5987 H 566.97 -2.57128 2.94959 0
M  V30 5988 H 566.593 -3.63719 1.60605 0
M  V30 5989 N 567.59 -1.07411 -1.15328 0
M  V30 5990 C 568.836 -0.798831 -1.86404 0
M  V30 5991 C 569.169 0.673433 -1.8215 0
M  V30 5992 O 568.444 1.49428 -1.24505 0
M  V30 5993 C 568.727 -1.30846 -3.35487 0
M  V30 5994 C 568.58 -2.84532 -3.4837 0
M  V30 5995 C 569.899 -0.925486 -4.30259 0
M  V30 5996 H 567.018 -0.291659 -0.676834 0
M  V30 5997 H 569.66 -1.332 -1.35491 0
M  V30 5998 H 567.81 -0.854916 -3.78977 0
M  V30 5999 H 569.482 -3.3818 -3.13739 0
M  V30 6000 H 567.725 -3.22699 -2.8991 0
M  V30 6001 H 568.396 -3.15259 -4.53118 0
M  V30 6002 H 570.872 -1.3163 -3.94731 0
M  V30 6003 H 569.748 -1.3094 -5.33053 0
M  V30 6004 H 570.009 0.168525 -4.41779 0
M  V30 6005 N 569.068 1.32177 -0.85831 0
M  V30 6006 C 570.315 1.97125 -0.463484 0
M  V30 6007 C 570.643 1.67907 0.981705 0
M  V30 6008 O 569.898 0.961717 1.70439 0
M  V30 6009 C 570.197 3.51372 -0.653658 0
M  V30 6010 C 569.863 4.00584 -2.06987 0
M  V30 6011 C 568.525 4.13733 -2.4572 0
M  V30 6012 C 570.877 4.26624 -2.99402 0
M  V30 6013 C 568.205 4.50268 -3.76132 0
M  V30 6014 C 570.557 4.64618 -4.29316 0
M  V30 6015 C 569.221 4.75975 -4.67979 0
M  V30 6016 H 568.491 0.72133 -0.169601 0
M  V30 6017 H 571.138 1.57517 -1.08907 0
M  V30 6018 H 569.443 3.91761 0.0551328 0
M  V30 6019 H 571.14 3.99655 -0.328163 0
M  V30 6020 H 567.73 3.90837 -1.75911 0
M  V30 6021 H 571.914 4.1597 -2.70708 0
M  V30 6022 H 567.17 4.57256 -4.05865 0
M  V30 6023 H 571.344 4.83722 -5.00985 0
M  V30 6024 H 568.971 5.04041 -5.69076 0
M  V30 6025 N 570.547 0.616602 1.45037 0
M  V30 6026 C 571.477 -0.0840787 2.33349 0
M  V30 6027 C 572.458 -0.849641 1.4736 0
M  V30 6028 O 573.643 -0.818407 1.76113 0
M  V30 6029 C 570.773 -1.07604 3.3021 0
M  V30 6030 C 569.727 -0.423096 4.25904 0
M  V30 6031 C 569.053 -1.52394 5.12523 0
M  V30 6032 C 570.353 0.661457 5.18095 0
M  V30 6033 H 572.047 0.653333 2.92185 0
M  V30 6034 H 569.593 0.315634 1.40498 0
M  V30 6035 H 571.546 -1.57485 3.90866 0
M  V30 6036 H 570.27 -1.84416 2.69552 0
M  V30 6037 H 568.929 0.05493 3.66559 0
M  V30 6038 H 568.577 -2.28257 4.48227 0
M  V30 6039 H 568.277 -1.09251 5.77354 0
M  V30 6040 H 569.801 -2.02485 5.76049 0
M  V30 6041 H 571.215 0.246353 5.7277 0
M  V30 6042 H 569.612 1.01517 5.91451 0
M  V30 6043 H 570.682 1.53446 4.59981 0
M  V30 6044 N 572.025 -1.5352 0.356285 0
M  V30 6045 C 573.273 -2.00719 -0.235837 0
M  V30 6046 C 573.594 -1.24551 -1.5004 0
M  V30 6047 O 572.864 -0.356185 -1.92635 0
M  V30 6048 H 571.444 -0.741542 -0.0901366 0
M  V30 6049 H 574.106 -1.88887 0.480378 0
M  V30 6050 H 573.202 -3.08551 -0.469357 0
M  V30 6051 N 573.503 -0.0852151 -1.57369 0
M  V30 6052 C 574.436 0.913608 -2.09113 0
M  V30 6053 C 575.414 1.28264 -0.999358 0
M  V30 6054 O 576.598 1.3896 -1.27367 0
M  V30 6055 C 573.725 2.21777 -2.55993 0
M  V30 6056 C 572.771 1.99932 -3.76735 0
M  V30 6057 S 573.604 1.24637 -5.20794 0
M  V30 6058 C 574.76 2.56304 -5.71016 0
M  V30 6059 H 574.993 0.473369 -2.93507 0
M  V30 6060 H 572.526 0.127856 -1.5387 0
M  V30 6061 H 574.484 2.96726 -2.83662 0
M  V30 6062 H 573.145 2.62923 -1.71843 0
M  V30 6063 H 572.338 2.96482 -4.07571 0
M  V30 6064 H 571.94 1.33116 -3.49509 0
M  V30 6065 H 574.232 3.5233 -5.78679 0
M  V30 6066 H 575.175 2.3006 -6.69685 0
M  V30 6067 H 575.583 2.64125 -4.98897 0
M  V30 6068 N 574.981 1.5647 0.188427 0
M  V30 6069 C 576.228 1.81013 0.907779 0
M  V30 6070 C 576.556 0.65953 1.82977 0
M  V30 6071 O 575.811 -0.354308 1.92466 0
M  V30 6072 C 576.11 3.11596 1.7505 0
M  V30 6073 C 575.776 4.40145 0.978922 0
M  V30 6074 C 574.438 4.75066 0.765912 0
M  V30 6075 C 576.79 5.19369 0.436498 0
M  V30 6076 C 574.118 5.867 -0.00089868 0
M  V30 6077 C 576.47 6.31805 -0.317136 0
M  V30 6078 C 575.134 6.65303 -0.541103 0
M  V30 6079 H 574.404 0.662373 0.33218 0
M  V30 6080 H 577.051 1.9071 0.173732 0
M  V30 6081 H 575.356 2.97165 2.55343 0
M  V30 6082 H 577.053 3.27793 2.30983 0
M  V30 6083 H 573.643 4.12745 1.15497 0
M  V30 6084 H 577.827 4.92799 0.588449 0
M  V30 6085 H 573.083 6.11122 -0.184329 0
M  V30 6086 H 577.257 6.92406 -0.744788 0
M  V30 6087 H 574.884 7.51646 -1.13718 0
M  V30 6088 N 576.459 -0.456382 1.50847 0
M  V30 6089 C 577.389 -1.56025 1.73719 0
M  V30 6090 C 578.37 -1.5967 0.586473 0
M  V30 6091 O 579.555 -1.75702 0.827185 0
M  V30 6092 C 576.685 -2.94251 1.84483 0
M  V30 6093 C 575.639 -3.05471 2.99786 0
M  V30 6094 C 574.965 -4.45489 2.95709 0
M  V30 6095 C 576.265 -2.81318 4.40065 0
M  V30 6096 H 577.959 -1.37138 2.66146 0
M  V30 6097 H 575.505 -0.658299 1.28072 0
M  V30 6098 H 577.458 -3.71417 1.99067 0
M  V30 6099 H 576.182 -3.14328 0.886891 0
M  V30 6100 H 574.841 -2.30741 2.84876 0
M  V30 6101 H 574.489 -4.62505 1.97732 0
M  V30 6102 H 574.189 -4.53929 3.73125 0
M  V30 6103 H 575.713 -5.24655 3.12362 0
M  V30 6104 H 577.127 -3.48226 4.55425 0
M  V30 6105 H 575.524 -3.01188 5.19043 0
M  V30 6106 H 576.594 -1.7706 4.51418 0
M  V30 6107 N 577.937 -1.40673 -0.710563 0
M  V30 6108 C 579.167 -1.4234 -1.49742 0
M  V30 6109 C 579.575 -0.022821 -1.89186 0
M  V30 6110 O 578.918 0.964773 -1.56326 0
M  V30 6111 C 578.98 -2.25509 -2.79975 0
M  V30 6112 C 578.644 -3.73862 -2.62824 0
M  V30 6113 C 579.641 -4.66379 -2.29752 0
M  V30 6114 C 577.326 -4.17735 -2.78932 0
M  V30 6115 C 579.32 -6.00756 -2.13006 0
M  V30 6116 C 577.007 -5.5218 -2.61802 0
M  V30 6117 C 578.005 -6.43505 -2.28888 0
M  V30 6118 O 577.693 -7.75472 -2.11894 0
M  V30 6119 H 577.425 -0.487311 -0.468513 0
M  V30 6120 H 579.979 -1.8542 -0.883668 0
M  V30 6121 H 578.209 -1.77218 -3.43701 0
M  V30 6122 H 579.898 -2.19058 -3.41714 0
M  V30 6123 H 580.664 -4.33778 -2.16936 0
M  V30 6124 H 576.543 -3.46967 -3.03537 0
M  V30 6125 H 580.087 -6.72003 -1.87237 0
M  V30 6126 H 575.984 -5.84365 -2.74204 0
M  V30 6127 H 576.752 -7.86458 -2.26775 0
M  V30 6128 N 579.415 0.9433 -1.26252 0
M  V30 6129 C 580.325 2.07532 -1.09397 0
M  V30 6130 C 581.341 1.73977 -0.0280449 0
M  V30 6131 O 582.517 2.00067 -0.231337 0
M  V30 6132 C 579.582 3.39002 -0.726523 0
M  V30 6133 C 578.643 3.86353 -1.87163 0
M  V30 6134 C 577.876 5.11549 -1.52162 0
M  V30 6135 O 578.099 5.68834 -0.422385 0
M  V30 6136 O 577.033 5.53889 -2.35565 0
M  V30 6137 H 580.859 2.24658 -2.04359 0
M  V30 6138 H 578.444 1.05988 -1.05295 0
M  V30 6139 H 580.326 4.18 -0.534236 0
M  V30 6140 H 579.001 3.2312 0.193721 0
M  V30 6141 H 577.908 3.0831 -2.11886 0
M  V30 6142 H 579.241 4.06752 -2.77152 0
M  V30 6143 N 580.893 1.08022 1.14757 0
M  V30 6144 C 582.123 0.827646 1.89298 0
M  V30 6145 C 582.531 -0.623506 1.78631 0
M  V30 6146 O 581.874 -1.43991 1.14071 0
M  V30 6147 C 581.936 1.16553 3.40082 0
M  V30 6148 C 581.6 2.61866 3.74533 0
M  V30 6149 C 582.597 3.60116 3.74984 0
M  V30 6150 C 580.282 2.97619 4.04633 0
M  V30 6151 C 582.276 4.92151 4.05051 0
M  V30 6152 C 579.963 4.2985 4.34364 0
M  V30 6153 C 580.961 5.26926 4.34555 0
M  V30 6154 O 580.649 6.5678 4.63568 0
M  V30 6155 H 580.381 0.298396 0.606577 0
M  V30 6156 H 582.935 1.44187 1.46285 0
M  V30 6157 H 581.165 0.494296 3.83528 0
M  V30 6158 H 582.854 0.894407 3.95923 0
M  V30 6159 H 583.62 3.33837 3.51821 0
M  V30 6160 H 579.499 2.22702 4.03639 0
M  V30 6161 H 583.043 5.67915 4.05115 0
M  V30 6162 H 578.94 4.55879 4.56995 0
M  V30 6163 H 579.708 6.62035 4.81303 0
M  V30 6164 N 582.371 -1.3172 0.865308 0
M  V30 6165 C 583.334 -2.26918 0.322627 0
M  V30 6166 C 584.334 -1.52031 -0.523751 0
M  V30 6167 O 585.524 -1.70973 -0.333727 0
M  V30 6168 C 582.656 -3.36558 -0.542338 0
M  V30 6169 H 583.849 -2.76432 1.16298 0
M  V30 6170 H 581.402 -1.42573 0.640512 0
M  V30 6171 H 582.137 -2.92329 -1.40407 0
M  V30 6172 H 581.922 -3.92048 0.0636395 0
M  V30 6173 H 583.412 -4.07465 -0.91446 0
M  V30 6174 N 583.85 -0.624285 -1.44708 0
M  V30 6175 C 585.266 -0.289322 -1.56956 0
M  V30 6176 C 585.466 1.20773 -1.61295 0
M  V30 6177 O 584.522 1.9915 -1.55227 0
M  V30 6178 C 585.835 -0.975215 -2.84447 0
M  V30 6179 C 587.383 -0.952709 -2.98148 0
M  V30 6180 C 587.858 -1.61893 -4.28433 0
M  V30 6181 N 589.349 -1.5852 -4.35231 0
M  V30 6182 C 590.084 -2.06969 -5.34744 0
M  V30 6183 N 589.58 -2.63579 -6.40701 0
M  V30 6184 N 591.373 -1.97638 -5.26209 0
M  V30 6185 H 583.524 -1.59612 -1.40135 0
M  V30 6186 H 585.787 -0.669592 -0.671081 0
M  V30 6187 H 585.493 -2.02999 -2.87201 0
M  V30 6188 H 585.367 -0.508749 -3.73753 0
M  V30 6189 H 587.754 0.093568 -2.94952 0
M  V30 6190 H 587.835 -1.4576 -2.10209 0
M  V30 6191 H 587.479 -2.66463 -4.32389 0
M  V30 6192 H 587.409 -1.08893 -5.15218 0
M  V30 6193 H 589.899 -1.17183 -3.59272 0
M  V30 6194 H 590.213 -2.98298 -7.12908 0
M  V30 6195 H 588.558 -2.67626 -6.41406 0
M  V30 6196 H 591.749 -1.5314 -4.42341 0
M  V30 6197 H 591.922 -2.35708 -6.03611 0
M  V30 6198 N 585.328 1.53329 -0.364422 0
M  V30 6199 C 586.744 1.59594 -0.0133165 0
M  V30 6200 C 586.944 1.37959 1.46865 0
M  V30 6201 O 586 1.18418 2.2301 0
M  V30 6202 C 587.313 2.97032 -0.468213 0
M  V30 6203 C 588.861 3.10138 -0.422334 0
M  V30 6204 C 589.336 4.49986 -0.853024 0
M  V30 6205 N 590.827 4.56098 -0.808037 0
M  V30 6206 C 591.562 5.62495 -1.11299 0
M  V30 6207 N 591.058 6.7665 -1.48717 0
M  V30 6208 N 592.851 5.52473 -1.03586 0
M  V30 6209 H 585.002 1.65644 -1.32951 0
M  V30 6210 H 587.265 0.77684 -0.543345 0
M  V30 6211 H 586.971 3.18 -1.5023 0
M  V30 6212 H 586.845 3.76918 0.145775 0
M  V30 6213 H 589.232 2.88881 0.602622 0
M  V30 6214 H 589.313 2.32263 -1.0718 0
M  V30 6215 H 588.957 4.7198 -1.87609 0
M  V30 6216 H 588.887 5.26289 -0.180819 0
M  V30 6217 H 591.378 3.74131 -0.532361 0
M  V30 6218 H 591.691 7.53776 -1.70415 0
M  V30 6219 H 590.036 6.78044 -1.52581 0
M  V30 6220 H 593.227 4.6217 -0.742736 0
M  V30 6221 H 593.4 6.35295 -1.27686 0
M  V30 6222 N 586.806 0.0935595 1.57322 0
M  V30 6223 C 587.756 -0.876521 2.10478 0
M  V30 6224 C 588.74 -1.24482 1.01946 0
M  V30 6225 O 589.932 -1.22016 1.28223 0
M  V30 6226 C 587.061 -2.13615 2.68745 0
M  V30 6227 C 586.147 -1.79335 3.84317 0
M  V30 6228 N 586.538 -1.15606 4.92411 0
M  V30 6229 C 584.836 -2.08954 3.94023 0
M  V30 6230 C 585.537 -0.999036 5.73057 0
M  V30 6231 N 584.513 -1.51585 5.22037 0
M  V30 6232 H 588.315 -0.379829 2.91435 0
M  V30 6233 H 585.829 -0.109699 1.62029 0
M  V30 6234 H 587.826 -2.84053 3.05155 0
M  V30 6235 H 586.486 -2.63851 1.89242 0
M  V30 6236 H 587.497 -0.823063 5.11318 0
M  V30 6237 H 584.174 -2.61416 3.25527 0
M  V30 6238 H 585.564 -0.500772 6.70031 0
M  V30 6239 N 588.284 -1.56567 -0.180126 0
M  V30 6240 C 589.695 -1.7126 -0.743422 0
M  V30 6241 C 590.046 -0.70263 -1.83187 0
M  V30 6242 O 589.171 0.137856 -2.1596 0
M  V30 6243 C 589.766 -3.10512 -1.35528 0
M  V30 6244 C 588.325 -3.26919 -1.8655 0
M  V30 6245 C 587.472 -2.67213 -0.741099 0
M  V30 6246 H 590.423 -1.58636 0.0451543 0
M  V30 6247 H 590.444 -3.08673 -2.22489 0
M  V30 6248 H 589.956 -3.83997 -0.562862 0
M  V30 6249 H 588.057 -2.58376 -2.68464 0
M  V30 6250 H 588.17 -4.34574 -2.01699 0
M  V30 6251 H 586.534 -2.26788 -1.15927 0
M  V30 6252 H 587.317 -3.43277 0.0393291 0
M  V30 6253 N 589.762 0.448376 -1.51087 0
M  V30 6254 C 591.039 1.20926 -1.53741 0
M  V30 6255 C 591.419 2.09025 -0.295222 0
M  V30 6256 O 590.767 2.16851 0.720283 0
M  V30 6257 C 590.977 2.02067 -2.84552 0
M  V30 6258 C 592.325 2.59486 -3.36084 0
M  V30 6259 O 593.349 2.12289 -2.86028 0
M  V30 6260 O 592.208 3.45539 -4.23397 0
M  V30 6261 H 589.302 0.549951 -0.617643 0
M  V30 6262 H 591.848 0.458344 -1.63393 0
M  V30 6263 H 590.62 1.37291 -3.66425 0
M  V30 6264 H 590.243 2.84246 -2.78011 0
M  V30 6265 N 591.24 1.41047 0.703093 0
M  V30 6266 C 592.47 1.43133 1.48985 0
M  V30 6267 C 592.878 0.0328537 1.89171 0
M  V30 6268 O 592.221 -0.956469 1.56835 0
M  V30 6269 C 592.283 2.26991 2.78775 0
M  V30 6270 C 591.947 3.7525 2.60837 0
M  V30 6271 C 592.944 4.67591 2.27276 0
M  V30 6272 C 590.629 4.19208 2.76712 0
M  V30 6273 C 592.623 6.01877 2.09817 0
M  V30 6274 C 590.31 5.53561 2.5887 0
M  V30 6275 C 591.308 6.4471 2.25472 0
M  V30 6276 O 590.996 7.76584 2.07778 0
M  V30 6277 H 590.728 0.489788 0.465922 0
M  V30 6278 H 593.282 1.85886 0.873822 0
M  V30 6279 H 591.512 1.79038 3.42757 0
M  V30 6280 H 593.201 2.20867 3.40547 0
M  V30 6281 H 593.967 4.34923 2.14633 0
M  V30 6282 H 589.846 3.48572 3.01693 0
M  V30 6283 H 593.39 6.72986 1.83671 0
M  V30 6284 H 589.287 5.85811 2.71102 0
M  V30 6285 H 590.055 7.87649 2.22601 0
M  V30 6286 N 592.718 -0.936591 1.26751 0
M  V30 6287 C 593.943 -1.72288 1.15462 0
M  V30 6288 C 594.368 -1.85915 -0.285887 0
M  V30 6289 O 593.726 -1.35272 -1.20711 0
M  V30 6290 C 593.774 -3.10503 1.83359 0
M  V30 6291 O 592.878 -3.96745 1.1255 0
M  V30 6292 H 592.219 -0.52843 0.402067 0
M  V30 6293 H 594.749 -1.17271 1.67656 0
M  V30 6294 H 594.759 -3.60867 1.90365 0
M  V30 6295 H 593.434 -2.99901 2.88153 0
M  V30 6296 H 592.011 -3.55191 1.13551 0
M  V30 6297 N 594.196 -1.08629 -1.14182 0
M  V30 6298 C 595.442 -0.818556 -1.85546 0
M  V30 6299 C 595.775 0.654076 -1.82854 0
M  V30 6300 O 595.05 1.48099 -1.26083 0
M  V30 6301 C 595.333 -1.34397 -3.3408 0
M  V30 6302 C 595.186 -2.8821 -3.45333 0
M  V30 6303 C 596.505 -0.971069 -4.29253 0
M  V30 6304 H 593.624 -0.298821 -0.673702 0
M  V30 6305 H 596.266 -1.34629 -1.34071 0
M  V30 6306 H 594.416 -0.895064 -3.78049 0
M  V30 6307 H 596.088 -3.41488 -3.10134 0
M  V30 6308 H 594.331 -3.25756 -2.86471 0
M  V30 6309 H 595.002 -3.20047 -4.49749 0
M  V30 6310 H 597.478 -1.35809 -3.93313 0
M  V30 6311 H 596.354 -1.36586 -5.31635 0
M  V30 6312 H 596.615 0.121659 -4.41933 0
M  V30 6313 N 595.674 1.31259 -0.872281 0
M  V30 6314 C 596.92 1.96913 -0.485083 0
M  V30 6315 C 597.253 1.68774 0.960667 0
M  V30 6316 O 596.528 0.985495 1.67685 0
M  V30 6317 C 596.811 3.52299 -0.745502 0
M  V30 6318 C 596.664 3.90002 -2.24095 0
M  V30 6319 C 597.983 4.39582 -0.213516 0
M  V30 6320 H 595.102 0.715252 -0.177716 0
M  V30 6321 H 597.744 1.55347 -1.09395 0
M  V30 6322 H 595.894 3.87835 -0.227276 0
M  V30 6323 H 597.566 3.64555 -2.82661 0
M  V30 6324 H 595.809 3.38526 -2.71261 0
M  V30 6325 H 596.48 4.98352 -2.37381 0
M  V30 6326 H 598.956 4.10882 -0.656902 0
M  V30 6327 H 597.832 5.47251 -0.42516 0
M  V30 6328 H 598.093 4.33158 0.884666 0
M  V30 6329 N 597.152 0.631951 1.44375 0
M  V30 6330 C 598.082 -0.0593243 2.33425 0
M  V30 6331 C 599.063 -0.833964 1.48253 0
M  V30 6332 O 600.248 -0.799682 1.76971 0
M  V30 6333 C 597.378 -1.04096 3.31333 0
M  V30 6334 C 596.332 -0.377899 4.26328 0
M  V30 6335 C 595.658 -1.4695 5.14111 0
M  V30 6336 C 596.958 0.716371 5.17364 0
M  V30 6337 H 598.652 0.684287 2.91475 0
M  V30 6338 H 596.198 0.330518 1.40156 0
M  V30 6339 H 598.151 -1.53331 3.92514 0
M  V30 6340 H 596.875 -1.81547 2.71493 0
M  V30 6341 H 595.534 0.0938054 3.6648 0
M  V30 6342 H 595.182 -2.2349 4.50623 0
M  V30 6343 H 594.882 -1.03121 5.78481 0
M  V30 6344 H 596.406 -1.96363 5.78164 0
M  V30 6345 H 597.82 0.307089 5.72477 0
M  V30 6346 H 596.217 1.07784 5.90341 0
M  V30 6347 H 597.287 1.58316 4.58327 0
M  V30 6348 N 598.631 -1.53133 0.372548 0
M  V30 6349 C 599.561 -2.28876 -0.462412 0
M  V30 6350 C 600.542 -1.31583 -1.07796 0
M  V30 6351 O 601.727 -1.60461 -1.09389 0
M  V30 6352 C 598.857 -3.08317 -1.59868 0
M  V30 6353 C 597.811 -4.13355 -1.11003 0
M  V30 6354 C 597.137 -4.8092 -2.33708 0
M  V30 6355 C 598.437 -5.21955 -0.18983 0
M  V30 6356 H 600.131 -2.9892 0.169511 0
M  V30 6357 H 597.677 -1.43761 0.0829658 0
M  V30 6358 H 599.63 -3.60055 -2.18949 0
M  V30 6359 H 598.354 -2.35976 -2.25794 0
M  V30 6360 H 597.013 -3.62573 -0.541869 0
M  V30 6361 H 596.661 -4.05144 -2.98106 0
M  V30 6362 H 596.361 -5.51904 -2.01682 0
M  V30 6363 H 597.885 -5.35455 -2.93462 0
M  V30 6364 H 599.299 -5.69153 -0.688319 0
M  V30 6365 H 597.696 -6.00087 0.0398887 0
M  V30 6366 H 598.766 -4.78811 0.766057 0
M  V30 6367 N 600.109 -0.101901 -1.5727 0
M  V30 6368 C 601.039 0.851544 -2.17419 0
M  V30 6369 C 602.02 1.28942 -1.10941 0
M  V30 6370 O 603.205 1.35509 -1.39107 0
M  V30 6371 C 600.335 2.10816 -2.75996 0
M  V30 6372 C 599.289 1.80867 -3.87906 0
M  V30 6373 C 598.615 3.13413 -4.33216 0
M  V30 6374 C 599.915 1.0903 -5.10793 0
M  V30 6375 H 601.609 0.350381 -2.97343 0
M  V30 6376 H 599.155 0.16709 -1.43027 0
M  V30 6377 H 601.108 2.77959 -3.16729 0
M  V30 6378 H 599.832 2.63227 -1.93337 0
M  V30 6379 H 598.491 1.16119 -3.47724 0
M  V30 6380 H 598.139 3.63725 -3.47438 0
M  V30 6381 H 597.839 2.94155 -5.08671 0
M  V30 6382 H 599.363 3.81704 -4.76586 0
M  V30 6383 H 600.777 1.66295 -5.48652 0
M  V30 6384 H 599.174 0.99927 -5.91722 0
M  V30 6385 H 600.244 0.0741704 -4.84843 0
M  V30 6386 N 601.587 1.56661 0.17182 0
M  V30 6387 C 603.003 1.50768 0.52357 0
M  V30 6388 C 603.203 0.806072 1.84675 0
M  V30 6389 O 602.259 0.366233 2.4983 0
M  V30 6390 C 603.572 2.955 0.556793 0
M  V30 6391 C 605.12 3.06303 0.644029 0
M  V30 6392 C 605.595 4.52492 0.708148 0
M  V30 6393 N 607.086 4.56737 0.771051 0
M  V30 6394 C 607.821 5.67196 0.841229 0
M  V30 6395 N 607.317 6.87287 0.872272 0
M  V30 6396 N 609.11 5.55165 0.88021 0
M  V30 6397 H 601.261 2.00679 -0.695817 0
M  V30 6398 H 603.524 0.914219 -0.250814 0
M  V30 6399 H 603.23 3.49986 -0.346774 0
M  V30 6400 H 603.104 3.50119 1.40346 0
M  V30 6401 H 605.491 2.51851 1.53802 0
M  V30 6402 H 605.572 2.5477 -0.229297 0
M  V30 6403 H 605.216 5.07575 -0.181585 0
M  V30 6404 H 605.146 5.01781 1.59761 0
M  V30 6405 H 607.637 3.70274 0.755364 0
M  V30 6406 H 607.95 7.6722 0.92698 0
M  V30 6407 H 606.295 6.89898 0.840557 0
M  V30 6408 H 609.486 4.60263 0.852956 0
M  V30 6409 H 609.659 6.41271 0.931439 0
M  V30 6410 N 603.065 -0.440357 1.51323 0
M  V30 6411 C 603.995 -1.54174 1.75364 0
M  V30 6412 C 604.976 -1.59039 0.603375 0
M  V30 6413 O 606.161 -1.74815 0.845774 0
M  V30 6414 C 603.291 -2.92277 1.87593 0
M  V30 6415 C 602.245 -3.02274 3.03009 0
M  V30 6416 C 601.571 -4.42327 3.00418 0
M  V30 6417 C 602.871 -2.76634 4.43024 0
M  V30 6418 H 604.565 -1.34307 2.67585 0
M  V30 6419 H 602.111 -0.644678 1.28763 0
M  V30 6420 H 604.064 -3.69284 2.02995 0
M  V30 6421 H 602.788 -3.13369 0.920179 0
M  V30 6422 H 601.447 -2.27706 2.87307 0
M  V30 6423 H 601.095 -4.60382 2.02626 0
M  V30 6424 H 600.795 -4.49946 3.77918 0
M  V30 6425 H 602.319 -5.21312 3.17909 0
M  V30 6426 H 603.733 -3.43376 4.59093 0
M  V30 6427 H 602.13 -2.95666 5.22208 0
M  V30 6428 H 603.2 -1.72262 4.5327 0
M  V30 6429 N 604.543 -1.41418 -0.695603 0
M  V30 6430 C 605.506 -1.42988 -1.79129 0
M  V30 6431 C 606.506 -0.320514 -1.57573 0
M  V30 6432 O 607.696 -0.58039 -1.64247 0
M  V30 6433 C 604.828 -1.24122 -3.175 0
M  V30 6434 H 606.021 -2.40526 -1.7913 0
M  V30 6435 H 603.574 -1.2756 -0.903225 0
M  V30 6436 H 604.309 -0.274253 -3.23138 0
M  V30 6437 H 604.094 -2.045 -3.34547 0
M  V30 6438 H 605.584 -1.28056 -3.97481 0
M  V30 6439 N 606.021 0.929856 -1.27246 0
M  V30 6440 C 606.968 2.03017 -1.09785 0
M  V30 6441 C 607.938 1.661 0.000456744 0
M  V30 6442 O 609.123 1.90116 -0.161462 0
M  V30 6443 C 606.263 3.36878 -0.748816 0
M  V30 6444 C 605.376 3.86763 -1.92453 0
M  V30 6445 C 604.511 5.09061 -1.51758 0
M  V30 6446 C 603.55 5.51237 -2.66091 0
M  V30 6447 N 602.687 6.64732 -2.25999 0
M  V30 6448 H 607.527 2.17285 -2.03939 0
M  V30 6449 H 605.064 1.06448 -1.01524 0
M  V30 6450 H 607.022 4.13855 -0.527283 0
M  V30 6451 H 605.652 3.22424 0.155771 0
M  V30 6452 H 604.704 3.06086 -2.25867 0
M  V30 6453 H 606.016 4.13994 -2.78227 0
M  V30 6454 H 605.17 5.93532 -1.25716 0
M  V30 6455 H 603.909 4.83602 -0.630896 0
M  V30 6456 H 602.914 4.65316 -2.92849 0
M  V30 6457 H 604.139 5.78692 -3.55377 0
M  V30 6458 H 602.085 6.40935 -1.3978 0
M  V30 6459 H 602.002 6.91607 -3.05313 0
M  V30 6460 H 603.27 7.52549 -2.03199 0
M  V30 6461 N 607.499 1.09233 1.13605 0
M  V30 6462 C 608.727 0.848908 1.88683 0
M  V30 6463 C 609.142 -0.599667 1.79024 0
M  V30 6464 O 608.499 -1.41265 1.15544 0
M  V30 6465 C 608.55 1.27273 3.38355 0
M  V30 6466 O 608.271 2.66449 3.47759 0
M  V30 6467 C 609.772 1.0614 4.30406 0
M  V30 6468 H 606.992 0.305549 0.597395 0
M  V30 6469 H 609.536 1.4538 1.43823 0
M  V30 6470 H 607.691 0.711776 3.80805 0
M  V30 6471 H 608.105 2.84264 4.40788 0
M  V30 6472 H 609.579 1.40725 5.33761 0
M  V30 6473 H 610.056 -0.000960332 4.392 0
M  V30 6474 H 610.662 1.60821 3.93722 0
M  V30 6475 N 608.977 -1.30795 0.87923 0
M  V30 6476 C 610.207 -2.00237 0.50881 0
M  V30 6477 C 610.615 -1.66115 -0.905682 0
M  V30 6478 O 609.958 -0.89138 -1.60624 0
M  V30 6479 C 610.02 -3.54508 0.597003 0
M  V30 6480 C 609.684 -4.12131 1.97477 0
M  V30 6481 C 610.681 -4.28552 2.94346 0
M  V30 6482 C 608.366 -4.47644 2.2786 0
M  V30 6483 C 610.36 -4.79689 4.19735 0
M  V30 6484 C 608.047 -4.98481 3.53496 0
M  V30 6485 C 609.045 -5.14456 4.49248 0
M  V30 6486 O 608.733 -5.64199 5.72656 0
M  V30 6487 H 608.465 -0.647026 0.195788 0
M  V30 6488 H 611.019 -1.67785 1.1848 0
M  V30 6489 H 609.249 -3.86461 -0.135945 0
M  V30 6490 H 610.938 -4.05198 0.238684 0
M  V30 6491 H 611.704 -4.01424 2.72183 0
M  V30 6492 H 607.583 -4.34481 1.54102 0
M  V30 6493 H 611.127 -4.92073 4.9448 0
M  V30 6494 H 607.024 -5.25044 3.75498 0
M  V30 6495 H 607.792 -5.82551 5.74957 0
M  V30 6496 N 610.455 -0.639598 -1.44038 0
M  V30 6497 C 611.365 0.0612377 -2.3452 0
M  V30 6498 C 612.381 0.826717 -1.53106 0
M  V30 6499 O 613.557 0.777059 -1.85806 0
M  V30 6500 C 610.622 1.02492 -3.31204 0
M  V30 6501 C 609.683 0.25788 -4.28525 0
M  V30 6502 C 608.916 1.17566 -5.2059 0
M  V30 6503 O 609.139 2.41461 -5.16771 0
M  V30 6504 O 608.073 0.655407 -5.98321 0
M  V30 6505 H 611.899 -0.68318 -2.95916 0
M  V30 6506 H 609.484 -0.399784 -1.43952 0
M  V30 6507 H 611.366 1.57911 -3.90694 0
M  V30 6508 H 610.041 1.7498 -2.7233 0
M  V30 6509 H 608.948 -0.339566 -3.72556 0
M  V30 6510 H 610.281 -0.427154 -4.90343 0
M  V30 6511 N 611.933 1.52934 -0.380664 0
M  V30 6512 C 613.161 2.05886 0.204599 0
M  V30 6513 C 613.576 1.25305 1.41223 0
M  V30 6514 O 612.933 0.297504 1.80059 0
M  V30 6515 C 612.984 3.56764 0.583249 0
M  V30 6516 O 612.705 4.34292 -0.576398 0
M  V30 6517 C 614.206 4.2603 1.2253 0
M  V30 6518 H 611.426 0.670193 0.0328991 0
M  V30 6519 H 613.97 1.97148 -0.543397 0
M  V30 6520 H 612.125 3.65603 1.28115 0
M  V30 6521 H 612.539 5.23819 -0.267119 0
M  V30 6522 H 614.013 5.32868 1.44068 0
M  V30 6523 H 614.49 3.80698 2.19011 0
M  V30 6524 H 615.096 4.21485 0.568407 0
M  V30 6525 N 613.412 0.11024 1.57214 0
M  V30 6526 C 614.64 -0.557834 1.99238 0
M  V30 6527 C 615.055 -1.60778 0.989734 0
M  V30 6528 O 614.412 -1.82491 -0.0186092 0
M  V30 6529 C 614.463 -1.19189 3.41286 0
M  V30 6530 O 614.184 -0.183919 4.37714 0
M  V30 6531 C 615.685 -1.94413 3.98395 0
M  V30 6532 H 612.905 -0.148392 0.654386 0
M  V30 6533 H 615.449 0.193996 2.03578 0
M  V30 6534 H 613.604 -1.89456 3.37913 0
M  V30 6535 H 614.018 -0.643475 5.20538 0
M  V30 6536 H 615.492 -2.34116 4.99894 0
M  V30 6537 H 615.969 -2.81592 3.3705 0
M  V30 6538 H 616.575 -1.28928 4.05287 0
M  V30 6539 N 614.89 -1.56749 -0.16351 0
M  V30 6540 C 615.82 -2.00042 -1.20438 0
M  V30 6541 C 616.801 -0.877256 -1.45733 0
M  V30 6542 O 617.986 -1.1439 -1.56935 0
M  V30 6543 C 615.116 -2.36697 -2.54149 0
M  V30 6544 C 614.07 -3.52046 -2.43408 0
M  V30 6545 C 613.396 -3.74466 -3.81679 0
M  V30 6546 C 614.696 -4.85247 -1.93216 0
M  V30 6547 H 616.39 -2.87244 -0.844477 0
M  V30 6548 H 613.936 -1.38194 -0.40478 0
M  V30 6549 H 615.889 -2.65582 -3.27176 0
M  V30 6550 H 614.613 -1.46414 -2.91943 0
M  V30 6551 H 613.272 -3.23301 -1.72834 0
M  V30 6552 H 612.92 -2.81461 -4.1688 0
M  V30 6553 H 612.62 -4.52084 -3.75359 0
M  V30 6554 H 614.144 -4.0576 -4.5628 0
M  V30 6555 H 615.558 -5.12957 -2.56023 0
M  V30 6556 H 613.955 -5.66556 -1.97825 0
M  V30 6557 H 615.025 -4.7672 -0.88689 0
M  V30 6558 N 616.368 0.432326 -1.51554 0
M  V30 6559 C 617.278 1.55023 -1.76082 0
M  V30 6560 C 618.294 1.61593 -0.645265 0
M  V30 6561 O 619.47 1.78742 -0.928086 0
M  V30 6562 C 616.535 2.90964 -1.88523 0
M  V30 6563 C 615.596 2.9447 -3.12388 0
M  V30 6564 C 614.829 4.23926 -3.24225 0
M  V30 6565 O 615.052 5.16576 -2.4188 0
M  V30 6566 O 613.986 4.33818 -4.17235 0
M  V30 6567 H 617.812 1.37238 -2.70923 0
M  V30 6568 H 615.397 0.615845 -1.36117 0
M  V30 6569 H 617.279 3.71633 -1.98662 0
M  V30 6570 H 615.954 3.08865 -0.9687 0
M  V30 6571 H 614.861 2.12737 -3.07723 0
M  V30 6572 H 616.194 2.81514 -4.03746 0
M  V30 6573 N 617.846 1.41785 0.688094 0
M  V30 6574 C 618.793 1.44221 1.80191 0
M  V30 6575 C 619.763 0.295688 1.63447 0
M  V30 6576 O 620.948 0.49783 1.84191 0
M  V30 6577 C 618.088 1.33743 3.1813 0
M  V30 6578 C 617.201 2.58325 3.46254 0
M  V30 6579 C 616.336 2.40086 4.73848 0
M  V30 6580 C 615.375 3.60107 4.94964 0
M  V30 6581 N 614.512 3.40892 6.13789 0
M  V30 6582 H 619.352 2.39411 1.77444 0
M  V30 6583 H 616.889 1.18876 0.866423 0
M  V30 6584 H 618.847 1.25669 3.97823 0
M  V30 6585 H 617.477 0.42157 3.20035 0
M  V30 6586 H 616.529 2.7682 2.60912 0
M  V30 6587 H 617.841 3.4758 3.57756 0
M  V30 6588 H 616.995 2.29522 5.61609 0
M  V30 6589 H 615.734 1.483 4.64606 0
M  V30 6590 H 614.739 3.71118 4.05649 0
M  V30 6591 H 615.964 4.52857 5.06061 0
M  V30 6592 H 613.91 2.51812 6.05745 0
M  V30 6593 H 613.827 4.23727 6.26092 0
M  V30 6594 H 615.095 3.34114 7.04264 0
M  V30 6595 N 619.324 -0.923095 1.27737 0
M  V30 6596 C 620.564 -1.6858 1.15586 0
M  V30 6597 C 620.928 -1.89758 -0.292562 0
M  V30 6598 O 622.129 -2.6339 -0.536583 0
M  V30 6599 C 620.4 -3.01275 1.92271 0
M  V30 6600 S 621.959 -3.924 1.96387 0
M  V30 6601 H 618.777 -0.579069 0.412554 0
M  V30 6602 H 621.379 -1.09866 1.61709 0
M  V30 6603 H 620.083 -2.83556 2.96689 0
M  V30 6604 H 619.614 -3.6504 1.46661 0
M  V30 6605 H 621.629 -4.84667 1.06361 0
M  V30 6606 N 620.802 -1.09834 -1.13024 0
M  V30 6607 C 622.042 -0.846664 -1.8604 0
M  V30 6608 C 622.406 0.616557 -1.81831 0
M  V30 6609 O 623.607 0.984329 -2.50129 0
M  V30 6610 C 621.878 -1.37228 -3.30005 0
M  V30 6611 S 623.437 -1.25511 -4.20467 0
M  V30 6612 H 620.255 -0.30611 -0.64173 0
M  V30 6613 H 622.857 -1.40255 -1.36194 0
M  V30 6614 H 621.561 -2.43138 -3.30624 0
M  V30 6615 H 621.092 -0.81271 -3.84914 0
M  V30 6616 H 623.107 -0.208762 -4.95761 0
M  V30 6617 N 622.28 1.30327 -0.886154 0
M  V30 6618 C 623.243 2.26376 -0.358687 0
M  V30 6619 C 624.243 1.52845 0.499498 0
M  V30 6620 O 625.433 1.71483 0.306485 0
M  V30 6621 C 622.565 3.37379 0.488726 0
M  V30 6622 H 623.758 2.74547 -1.20681 0
M  V30 6623 H 621.311 1.41536 -0.663113 0
M  V30 6624 H 622.046 2.94526 1.35739 0
M  V30 6625 H 621.831 3.91897 -0.126003 0
M  V30 6626 H 623.321 4.08868 0.84952 0
M  V30 6627 N 623.758 0.647228 1.43697 0
M  V30 6628 C 624.721 -0.0385101 2.29168 0
M  V30 6629 C 625.721 -0.756487 1.41894 0
M  V30 6630 O 626.911 -0.598641 1.63591 0
M  V30 6631 C 624.043 -1.06524 3.23829 0
M  V30 6632 H 625.236 0.713445 2.9129 0
M  V30 6633 H 622.789 0.408153 1.50877 0
M  V30 6634 H 623.524 -1.84664 2.66589 0
M  V30 6635 H 623.309 -0.554147 3.88164 0
M  V30 6636 H 624.799 -1.54432 3.87996 0
M  V30 6637 N 625.236 -1.5273 0.388769 0
M  V30 6638 C 626.199 -2.25043 -0.434544 0
M  V30 6639 C 627.199 -1.26661 -0.990644 0
M  V30 6640 O 628.389 -1.50762 -0.872731 0
M  V30 6641 C 625.521 -3.00507 -1.60961 0
M  V30 6642 H 626.714 -2.99242 0.198549 0
M  V30 6643 H 624.267 -1.55664 0.140875 0
M  V30 6644 H 625.002 -2.30607 -2.28015 0
M  V30 6645 H 624.787 -3.72716 -1.21757 0
M  V30 6646 H 626.277 -3.55413 -2.19251 0
M  V30 6647 N 626.714 -0.118576 -1.57153 0
M  V30 6648 C 627.991 0.583062 -1.86708 0
M  V30 6649 C 628.371 1.84841 -1.01967 0
M  V30 6650 O 627.719 2.28288 -0.0984673 0
M  V30 6651 C 627.929 0.875912 -3.3783 0
M  V30 6652 C 629.277 1.22916 -4.0642 0
M  V30 6653 O 630.301 0.966188 -3.42846 0
M  V30 6654 O 629.16 1.72269 -5.18638 0
M  V30 6655 H 626.254 0.294185 -0.772906 0
M  V30 6656 H 628.8 -0.153048 -1.69008 0
M  V30 6657 H 627.572 -0.0207776 -3.91294 0
M  V30 6658 H 627.195 1.66719 -3.60958 0
M  V30 6659 N 628.193 1.56834 0.155195 0
M  V30 6660 C 629.604 1.72421 0.716082 0
M  V30 6661 C 629.955 0.731685 1.82046 0
M  V30 6662 O 629.08 -0.103481 2.16152 0
M  V30 6663 C 629.675 3.12629 1.30571 0
M  V30 6664 C 628.234 3.29846 1.81325 0
M  V30 6665 C 627.381 2.68359 0.698494 0
M  V30 6666 H 630.332 1.58544 -0.0703861 0
M  V30 6667 H 630.353 3.12174 2.1755 0
M  V30 6668 H 629.865 3.84844 0.501701 0
M  V30 6669 H 627.966 2.62614 2.64319 0
M  V30 6670 H 628.079 4.37727 1.9476 0
M  V30 6671 H 626.443 2.28604 1.12305 0
M  V30 6672 H 627.226 3.43171 -0.0939366 0
M  V30 6673 N 629.671 -0.424282 1.51781 0
M  V30 6674 C 630.621 -1.51464 1.70419 0
M  V30 6675 C 631.605 -1.50911 0.558094 0
M  V30 6676 O 632.797 -1.57143 0.814552 0
M  V30 6677 C 629.926 -2.89539 1.84451 0
M  V30 6678 C 629.012 -2.94798 3.04886 0
M  V30 6679 N 629.403 -2.69778 4.27848 0
M  V30 6680 C 627.701 -3.25962 3.04408 0
M  V30 6681 C 628.402 -2.81216 5.09208 0
M  V30 6682 N 627.378 -3.13447 4.44131 0
M  V30 6683 H 631.18 -1.30892 2.63144 0
M  V30 6684 H 628.694 -0.631783 1.49607 0
M  V30 6685 H 630.691 -3.67998 1.95917 0
M  V30 6686 H 629.351 -3.11121 0.929168 0
M  V30 6687 H 630.362 -2.44458 4.56575 0
M  V30 6688 H 627.039 -3.53236 2.22555 0
M  V30 6689 H 628.429 -2.65715 6.17127 0
M  V30 6690 N 631.149 -1.42148 -0.680565 0
M  V30 6691 C 632.059 -1.47565 -1.82378 0
M  V30 6692 C 633.075 -0.36489 -1.70131 0
M  V30 6693 O 634.251 -0.614916 -1.91783 0
M  V30 6694 C 631.316 -1.37013 -3.18478 0
M  V30 6695 C 630.377 -2.58532 -3.42724 0
M  V30 6696 C 629.61 -2.48473 -4.72331 0
M  V30 6697 O 629.833 -1.51745 -5.49845 0
M  V30 6698 O 628.767 -3.38503 -4.97694 0
M  V30 6699 H 632.593 -2.44045 -1.80764 0
M  V30 6700 H 630.178 -1.23849 -0.835569 0
M  V30 6701 H 632.06 -1.33468 -3.99705 0
M  V30 6702 H 630.735 -0.436552 -3.20743 0
M  V30 6703 H 629.642 -2.67652 -2.61368 0
M  V30 6704 H 630.975 -3.50769 -3.45286 0
M  V30 6705 N 632.627 0.916307 -1.28225 0
M  V30 6706 C 633.867 1.67964 -1.16479 0
M  V30 6707 C 634.231 1.8991 0.282494 0
M  V30 6708 O 635.432 2.63671 0.522607 0
M  V30 6709 C 633.703 3.00251 -1.93866 0
M  V30 6710 S 635.262 3.91353 -1.98465 0
M  V30 6711 H 632.08 0.576873 -0.415619 0
M  V30 6712 H 634.682 1.09006 -1.62289 0
M  V30 6713 H 633.386 2.81978 -2.98189 0
M  V30 6714 H 632.917 3.64257 -1.48595 0
M  V30 6715 H 634.932 4.84096 -1.0893 0
M  V30 6716 N 634.105 1.10431 1.1244 0
M  V30 6717 C 635.335 0.867612 1.87499 0
M  V30 6718 C 635.743 -0.585475 1.79913 0
M  V30 6719 O 635.086 -1.41539 1.171 0
M  V30 6720 C 635.148 1.2374 3.37533 0
M  V30 6721 C 634.812 2.69751 3.68895 0
M  V30 6722 C 635.809 3.67988 3.67261 0
M  V30 6723 C 633.494 3.06135 3.98229 0
M  V30 6724 C 635.488 5.00632 3.9452 0
M  V30 6725 C 633.175 4.38967 4.25149 0
M  V30 6726 C 634.173 5.36025 4.23281 0
M  V30 6727 O 633.861 6.66465 4.49533 0
M  V30 6728 H 633.593 0.311196 0.600111 0
M  V30 6729 H 636.147 1.47257 1.43194 0
M  V30 6730 H 634.377 0.575537 3.82393 0
M  V30 6731 H 636.066 0.978187 3.93937 0
M  V30 6732 H 636.832 3.41224 3.44661 0
M  V30 6733 H 632.711 2.31214 3.98825 0
M  V30 6734 H 636.255 5.7638 3.92978 0
M  V30 6735 H 632.152 4.6547 4.47223 0
M  V30 6736 H 632.92 6.72095 4.67152 0
M  V30 6737 N 635.583 -1.29855 0.893053 0
M  V30 6738 C 636.546 -2.26183 0.370687 0
M  V30 6739 C 637.546 -1.53108 -0.491385 0
M  V30 6740 O 638.736 -1.71643 -0.297386 0
M  V30 6741 C 635.868 -3.37633 -0.470827 0
M  V30 6742 H 637.061 -2.73903 1.22135 0
M  V30 6743 H 634.614 -1.41183 0.67061 0
M  V30 6744 H 635.349 -2.95241 -1.34175 0
M  V30 6745 H 635.134 -3.91825 0.146784 0
M  V30 6746 H 636.624 -4.09313 -0.827825 0
M  V30 6747 N 637.061 -0.65484 -1.43351 0
M  V30 6748 C 638.008 0.0357713 -2.30772 0
M  V30 6749 C 638.978 0.813035 -1.44841 0
M  V30 6750 O 640.163 0.789314 -1.73708 0
M  V30 6751 C 637.303 0.995084 -3.30442 0
M  V30 6752 C 636.416 0.21375 -4.31471 0
M  V30 6753 C 635.551 1.16701 -5.18222 0
M  V30 6754 C 634.59 0.376201 -6.10943 0
M  V30 6755 N 633.727 1.28113 -6.90313 0
M  V30 6756 H 638.567 -0.71559 -2.89281 0
M  V30 6757 H 636.104 -0.364645 -1.42509 0
M  V30 6758 H 638.062 1.5649 -3.86739 0
M  V30 6759 H 636.692 1.7133 -2.7358 0
M  V30 6760 H 635.744 -0.472377 -3.77456 0
M  V30 6761 H 637.056 -0.401103 -4.97185 0
M  V30 6762 H 636.21 1.8074 -5.79153 0
M  V30 6763 H 634.949 1.81577 -4.52638 0
M  V30 6764 H 633.954 -0.277534 -5.49099 0
M  V30 6765 H 635.179 -0.268178 -6.7857 0
M  V30 6766 H 633.125 1.91666 -6.27376 0
M  V30 6767 H 633.042 0.720879 -7.52555 0
M  V30 6768 H 634.31 1.90962 -7.55747 0
M  V30 6769 N 638.539 1.52521 -0.396863 0
M  V30 6770 C 639.785 2.01971 0.183169 0
M  V30 6771 C 640.118 1.2825 1.45827 0
M  V30 6772 O 639.393 0.385179 1.90648 0
M  V30 6773 C 639.676 3.5736 0.443391 0
M  V30 6774 C 639.529 4.41743 -0.84753 0
M  V30 6775 C 640.848 4.22539 1.2308 0
M  V30 6776 H 637.967 0.734119 0.0650976 0
M  V30 6777 H 640.609 1.82519 -0.527918 0
M  V30 6778 H 638.759 3.74066 1.04914 0
M  V30 6779 H 640.431 4.36773 -1.48414 0
M  V30 6780 H 638.674 4.0845 -1.4612 0
M  V30 6781 H 639.345 5.48507 -0.620003 0
M  V30 6782 H 641.821 4.09857 0.718084 0
M  V30 6783 H 640.697 5.31227 1.38162 0
M  V30 6784 H 640.958 3.80675 2.24808 0
M  V30 6785 N 640.017 0.126909 1.57088 0
M  V30 6786 C 641.264 -0.529168 1.95464 0
M  V30 6787 C 641.592 -1.6618 1.01067 0
M  V30 6788 O 640.847 -1.95667 0.0360254 0
M  V30 6789 C 641.146 -1.095 3.40212 0
M  V30 6790 C 640.812 -0.0829015 4.50824 0
M  V30 6791 C 639.474 0.195377 4.80803 0
M  V30 6792 C 641.826 0.606411 5.1766 0
M  V30 6793 C 639.154 1.16912 5.74933 0
M  V30 6794 C 641.506 1.56884 6.12838 0
M  V30 6795 C 640.17 1.85502 6.41206 0
M  V30 6796 H 639.44 -0.193636 0.715252 0
M  V30 6797 H 642.087 0.209489 1.90351 0
M  V30 6798 H 640.392 -1.91058 3.42059 0
M  V30 6799 H 642.089 -1.61087 3.67222 0
M  V30 6800 H 638.679 -0.309979 4.27478 0
M  V30 6801 H 642.863 0.404597 4.94648 0
M  V30 6802 H 638.119 1.3975 5.95214 0
M  V30 6803 H 642.293 2.10859 6.6371 0
M  V30 6804 H 639.92 2.61109 7.13951 0
M  V30 6805 N 641.495 -1.56914 -0.146875 0
M  V30 6806 C 642.772 -1.74273 -0.888165 0
M  V30 6807 C 643.152 -0.69496 -1.99333 0
M  V30 6808 O 642.5 0.286093 -2.26702 0
M  V30 6809 C 642.71 -3.18336 -1.43051 0
M  V30 6810 C 644.058 -3.80024 -1.89387 0
M  V30 6811 O 645.082 -3.21765 -1.52792 0
M  V30 6812 O 643.941 -4.82367 -2.56874 0
M  V30 6813 H 641.035 -0.712565 -0.419738 0
M  V30 6814 H 643.581 -1.6918 -0.132791 0
M  V30 6815 H 642.353 -3.86092 -0.636274 0
M  V30 6816 H 641.976 -3.27854 -2.24938 0
M  V30 6817 N 642.974 0.416227 -1.52004 0
M  V30 6818 C 643.884 1.53147 -1.77717 0
M  V30 6819 C 644.9 1.609 -0.662368 0
M  V30 6820 O 646.076 1.77747 -0.946991 0
M  V30 6821 C 643.141 2.88948 -1.91598 0
M  V30 6822 C 642.202 2.9114 -3.15493 0
M  V30 6823 C 641.435 4.20464 -3.28703 0
M  V30 6824 O 641.658 5.13981 -2.47345 0
M  V30 6825 O 640.592 4.29368 -4.21813 0
M  V30 6826 H 644.418 1.34357 -2.72363 0
M  V30 6827 H 642.003 0.601373 -1.36762 0
M  V30 6828 H 643.885 3.69505 -2.02593 0
M  V30 6829 H 642.56 3.07821 -1.00141 0
M  V30 6830 H 641.467 2.09461 -3.09962 0
M  V30 6831 H 642.8 2.77216 -4.06709 0
M  V30 6832 N 644.452 1.42507 0.673017 0
M  V30 6833 C 645.699 1.43072 1.43306 0
M  V30 6834 C 646.027 0.0478004 1.94441 0
M  V30 6835 O 645.282 -0.944106 1.71421 0
M  V30 6836 C 645.581 2.40351 2.64511 0
M  V30 6837 C 645.247 3.8669 2.31908 0
M  V30 6838 C 643.909 4.26551 2.22728 0
M  V30 6839 C 646.261 4.78991 2.05467 0
M  V30 6840 C 643.589 5.56691 1.85234 0
M  V30 6841 C 645.941 6.09476 1.69477 0
M  V30 6842 C 644.605 6.48334 1.58808 0
M  V30 6843 H 643.875 0.523536 0.524395 0
M  V30 6844 H 646.522 1.75459 0.76723 0
M  V30 6845 H 644.827 2.01297 3.36135 0
M  V30 6846 H 646.524 2.38051 3.22696 0
M  V30 6847 H 643.114 3.55132 2.39956 0
M  V30 6848 H 647.298 4.48982 2.11492 0
M  V30 6849 H 642.554 5.85657 1.75545 0
M  V30 6850 H 646.728 6.80482 1.48043 0
M  V30 6851 H 644.355 7.49084 1.29525 0
M  V30 6852 N 645.93 -0.909495 1.28709 0
M  V30 6853 C 646.877 -2.01245 1.13 0
M  V30 6854 C 647.847 -1.6608 0.0259684 0
M  V30 6855 O 649.032 -1.89835 0.191687 0
M  V30 6856 C 646.172 -3.35644 0.802315 0
M  V30 6857 C 645.285 -3.83653 1.98582 0
M  V30 6858 C 644.42 -5.06582 1.59837 0
M  V30 6859 C 643.459 -5.46934 2.74827 0
M  V30 6860 N 642.596 -6.61053 2.36546 0
M  V30 6861 H 647.436 -2.14013 2.0737 0
M  V30 6862 H 644.973 -1.0482 1.03205 0
M  V30 6863 H 646.931 -4.12963 0.593057 0
M  V30 6864 H 645.561 -3.22631 -0.104457 0
M  V30 6865 H 644.613 -3.02454 2.30708 0
M  V30 6866 H 645.925 -4.09515 2.84779 0
M  V30 6867 H 645.079 -5.91457 1.35143 0
M  V30 6868 H 643.818 -4.82537 0.707753 0
M  V30 6869 H 642.823 -4.60599 3.00215 0
M  V30 6870 H 644.048 -5.72965 3.64538 0
M  V30 6871 H 641.994 -6.3863 1.49959 0
M  V30 6872 H 641.911 -6.86662 3.16277 0
M  V30 6873 H 643.179 -7.49221 2.15146 0
M  V30 6874 N 647.408 -1.11026 -1.11852 0
M  V30 6875 C 648.819 -0.873203 -1.65021 0
M  V30 6876 C 649.17 0.595364 -1.86949 0
M  V30 6877 O 648.295 1.45645 -1.60051 0
M  V30 6878 C 648.89 -1.57859 -2.99777 0
M  V30 6879 C 647.449 -1.38807 -3.49871 0
M  V30 6880 C 646.596 -1.62403 -2.24768 0
M  V30 6881 H 649.547 -1.26712 -0.955503 0
M  V30 6882 H 649.568 -1.02111 -3.66543 0
M  V30 6883 H 649.08 -2.6474 -2.83786 0
M  V30 6884 H 647.181 -0.341163 -3.71035 0
M  V30 6885 H 647.294 -2.13421 -4.28938 0
M  V30 6886 H 645.658 -1.04714 -2.32179 0
M  V30 6887 H 646.441 -2.70549 -2.11324 0
M  V30 6888 N 648.886 1.2938 -0.899927 0
M  V30 6889 C 649.816 2.30144 -0.39446 0
M  V30 6890 C 650.797 1.61611 0.530639 0
M  V30 6891 O 651.982 1.89119 0.441319 0
M  V30 6892 C 649.112 3.45229 0.37868 0
M  V30 6893 C 648.066 4.25564 -0.456012 0
M  V30 6894 C 647.392 5.32848 0.444637 0
M  V30 6895 C 648.692 4.93651 -1.70605 0
M  V30 6896 H 650.386 2.72673 -1.23653 0
M  V30 6897 H 647.932 1.31086 -0.596034 0
M  V30 6898 H 649.885 4.14797 0.743037 0
M  V30 6899 H 648.609 3.01545 1.25453 0
M  V30 6900 H 647.268 3.57704 -0.802704 0
M  V30 6901 H 646.916 4.85408 1.31863 0
M  V30 6902 H 646.616 5.87497 -0.110154 0
M  V30 6903 H 648.14 6.05268 0.805182 0
M  V30 6904 H 649.554 5.55655 -1.41141 0
M  V30 6905 H 647.951 5.58233 -2.20217 0
M  V30 6906 H 649.021 4.18926 -2.4419 0
M  V30 6907 N 650.364 0.662433 1.43002 0
M  V30 6908 C 651.61 0.179857 2.02001 0
M  V30 6909 C 651.943 -1.20625 1.52195 0
M  V30 6910 O 651.218 -1.80726 0.718911 0
M  V30 6911 C 651.501 0.200845 3.59539 0
M  V30 6912 C 651.354 1.62153 4.19555 0
M  V30 6913 C 652.673 -0.457738 4.37713 0
M  V30 6914 H 649.792 0.0668305 0.733964 0
M  V30 6915 H 652.434 0.84487 1.70182 0
M  V30 6916 H 650.584 -0.365411 3.86778 0
M  V30 6917 H 652.256 2.23908 4.03315 0
M  V30 6918 H 650.499 2.16601 3.75854 0
M  V30 6919 H 651.17 1.58799 5.28665 0
M  V30 6920 H 653.646 0.0241495 4.16093 0
M  V30 6921 H 652.522 -0.412363 5.47349 0
M  V30 6922 H 652.783 -1.53336 4.14657 0
M  V30 6923 N 651.842 -1.52309 0.404946 0
M  V30 6924 C 652.752 -2.30634 -0.429555 0
M  V30 6925 C 653.768 -1.38187 -1.05737 0
M  V30 6926 O 654.944 -1.71261 -1.05979 0
M  V30 6927 C 652.009 -3.10947 -1.53339 0
M  V30 6928 C 651.07 -4.19126 -0.929065 0
M  V30 6929 C 650.303 -4.95601 -1.9803 0
M  V30 6930 O 650.526 -4.72331 -3.1978 0
M  V30 6931 O 649.46 -5.80551 -1.58886 0
M  V30 6932 H 653.286 -3.0298 0.208963 0
M  V30 6933 H 650.871 -1.4845 0.168255 0
M  V30 6934 H 652.753 -3.60974 -2.1743 0
M  V30 6935 H 651.428 -2.41399 -2.15658 0
M  V30 6936 H 650.335 -3.73257 -0.250982 0
M  V30 6937 H 651.668 -4.90955 -0.349855 0
M  V30 6938 N 653.32 -0.135238 -1.57019 0
M  V30 6939 C 654.23 0.822226 -2.19719 0
M  V30 6940 C 655.246 1.28057 -1.17802 0
M  V30 6941 O 656.422 1.3402 -1.50335 0
M  V30 6942 C 653.487 2.0484 -2.79717 0
M  V30 6943 C 652.548 1.64042 -3.96723 0
M  V30 6944 C 651.781 2.80814 -4.53849 0
M  V30 6945 O 652.004 3.967 -4.0986 0
M  V30 6946 O 650.938 2.56963 -5.44292 0
M  V30 6947 H 654.764 0.318552 -3.02025 0
M  V30 6948 H 652.349 0.0912021 -1.49121 0
M  V30 6949 H 654.231 2.76622 -3.17897 0
M  V30 6950 H 652.906 2.54182 -2.00432 0
M  V30 6951 H 651.813 0.893182 -3.63281 0
M  V30 6952 H 653.146 1.19426 -4.77492 0
M  V30 6953 N 654.798 1.5699 0.138552 0
M  V30 6954 C 656.209 1.73171 0.697754 0
M  V30 6955 C 656.56 0.750952 1.8126 0
M  V30 6956 O 655.685 -0.080549 2.1625 0
M  V30 6957 C 656.28 3.13996 1.27248 0
M  V30 6958 C 654.839 3.3175 1.77816 0
M  V30 6959 C 653.986 2.69084 0.669991 0
M  V30 6960 H 656.937 1.5846 -0.0871979 0
M  V30 6961 H 656.958 3.14463 2.14227 0
M  V30 6962 H 656.47 3.85354 0.460855 0
M  V30 6963 H 654.571 2.65403 2.61519 0
M  V30 6964 H 654.684 4.39768 1.90107 0
M  V30 6965 H 653.048 2.29782 1.09874 0
M  V30 6966 H 653.831 3.43053 -0.130329 0
M  V30 6967 N 656.276 -0.40816 1.52223 0
M  V30 6968 C 657.208 -1.51642 1.71864 0
M  V30 6969 C 658.221 -1.51378 0.599056 0
M  V30 6970 O 659.41 -1.55626 0.874239 0
M  V30 6971 C 656.51 -2.90534 1.74481 0
M  V30 6972 C 655.683 -3.14979 3.03491 0
M  V30 6973 C 654.742 -4.33749 2.97907 0
M  V30 6974 O 653.768 -4.30982 3.71811 0
M  V30 6975 N 654.97 -5.38912 2.15764 0
M  V30 6976 H 657.735 -1.35188 2.67478 0
M  V30 6977 H 655.296 -0.597468 1.50472 0
M  V30 6978 H 657.288 -3.68056 1.68275 0
M  V30 6979 H 655.858 -3.00441 0.863363 0
M  V30 6980 H 655.078 -2.25492 3.23337 0
M  V30 6981 H 656.366 -3.28156 3.88833 0
M  V30 6982 H 655.764 -5.44008 1.55152 0
M  V30 6983 H 654.321 -6.15174 2.15415 0
M  V30 6984 N 657.755 -1.42862 -0.66545 0
M  V30 6985 C 658.703 -1.47319 -1.8 0
M  V30 6986 C 659.697 -0.347963 -1.65788 0
M  V30 6987 O 660.903 -0.521406 -1.72283 0
M  V30 6988 H 657.278 -0.461588 -0.593667 0
M  V30 6989 H 659.249 -2.42876 -1.7336 0
M  V30 6990 C 657.998 -1.40152 -3.18203 0
M  V30 6991 H 657.321 -2.26035 -3.2977 0
M  V30 6992 H 658.761 -1.47331 -3.9758 0
M  V30 6993 C 657.22 -0.117493 -3.36695 0
M  V30 6994 O 657.75 0.826058 -3.93115 0
M  V30 6995 N 655.956 -0.0316218 -2.90583 0
M  V30 6996 H 655.503 -0.800247 -2.44855 0
M  V30 6997 H 655.461 0.826835 -3.03333 0
M  V30 6998 N 659.233 0.902656 -1.29189 0
M  V30 6999 C 660.163 2.02294 -1.16616 0
M  V30 7000 C 661.144 1.6999 -0.0611175 0
M  V30 7001 O 662.329 1.9271 -0.240072 0
M  V30 7002 C 659.459 3.37018 -0.83882 0
M  V30 7003 C 658.413 3.83522 -1.89986 0
M  V30 7004 C 657.739 5.15337 -1.42589 0
M  V30 7005 C 659.039 4.04169 -3.30824 0
M  V30 7006 H 660.733 2.13071 -2.10336 0
M  V30 7007 H 658.279 1.02378 -1.01266 0
M  V30 7008 H 660.232 4.14895 -0.737584 0
M  V30 7009 H 658.956 3.26325 0.134071 0
M  V30 7010 H 657.615 3.07859 -1.99043 0
M  V30 7011 H 657.263 5.01056 -0.441759 0
M  V30 7012 H 656.963 5.47423 -2.13547 0
M  V30 7013 H 658.487 5.95758 -1.3381 0
M  V30 7014 H 659.901 4.72537 -3.24626 0
M  V30 7015 H 658.298 4.47604 -3.99713 0
M  V30 7016 H 659.368 3.08604 -3.74021 0
M  V30 7017 N 660.711 1.11618 1.11262 0
M  V30 7018 C 661.96 0.860934 1.82403 0
M  V30 7019 C 662.273 -0.615303 1.8567 0
M  V30 7020 O 663.479 -0.986861 2.52929 0
M  V30 7021 C 661.935 1.49048 3.27586 0
M  V30 7022 C 661.543 3.00089 3.32642 0
M  V30 7023 C 663.287 1.31515 4.03614 0
M  V30 7024 C 661.194 3.56019 4.72234 0
M  V30 7025 H 660.124 0.318423 0.683464 0
M  V30 7026 H 662.775 1.34165 1.25188 0
M  V30 7027 H 661.157 0.937434 3.84744 0
M  V30 7028 H 662.331 3.61813 2.85356 0
M  V30 7029 H 660.646 3.16919 2.70096 0
M  V30 7030 H 663.243 1.70732 5.0671 0
M  V30 7031 H 663.586 0.257917 4.155 0
M  V30 7032 H 664.119 1.83694 3.52848 0
M  V30 7033 H 660.858 4.61463 4.65545 0
M  V30 7034 H 660.378 2.99066 5.19923 0
M  V30 7035 H 662.057 3.54568 5.41193 0
M  V30 7036 N 662.189 -1.289 0.906776 0
M  V30 7037 C 663.136 -2.2751 0.388313 0
M  V30 7038 C 664.106 -1.57301 -0.533439 0
M  V30 7039 O 665.291 -1.85243 -0.457148 0
M  V30 7040 C 662.431 -3.43091 -0.37181 0
M  V30 7041 C 661.544 -4.28066 0.581647 0
M  V30 7042 C 660.679 -5.30837 -0.19623 0
M  V30 7043 C 659.718 -6.07472 0.751294 0
M  V30 7044 N 658.855 -7.021 0.00737727 0
M  V30 7045 H 663.695 -2.71237 1.23428 0
M  V30 7046 H 661.232 -1.33397 0.619962 0
M  V30 7047 H 663.19 -4.08888 -0.828641 0
M  V30 7048 H 661.82 -3.00374 -1.18218 0
M  V30 7049 H 660.872 -3.62378 1.157 0
M  V30 7050 H 662.184 -4.81382 1.30665 0
M  V30 7051 H 661.338 -6.02485 -0.71394 0
M  V30 7052 H 660.077 -4.78272 -0.954324 0
M  V30 7053 H 659.082 -5.34682 1.28044 0
M  V30 7054 H 660.307 -6.62126 1.50883 0
M  V30 7055 H 658.253 -6.51894 -0.732854 0
M  V30 7056 H 658.17 -7.53004 0.672334 0
M  V30 7057 H 659.438 -7.77956 -0.490365 0
M  V30 7058 N 663.667 -0.670007 -1.42649 0
M  V30 7059 C 664.599 0.0501746 -2.29145 0
M  V30 7060 C 665.612 0.770331 -1.43422 0
M  V30 7061 O 666.801 0.625288 -1.6719 0
M  V30 7062 C 663.901 1.09463 -3.20735 0
M  V30 7063 C 663.074 0.44926 -4.35087 0
M  V30 7064 C 662.133 1.39285 -5.07431 0
M  V30 7065 O 661.159 0.894997 -5.6212 0
M  V30 7066 N 662.361 2.72631 -5.12496 0
M  V30 7067 H 665.126 -0.692312 -2.91594 0
M  V30 7068 H 662.687 -0.514056 -1.53522 0
M  V30 7069 H 664.679 1.72705 -3.65999 0
M  V30 7070 H 663.249 1.73891 -2.59771 0
M  V30 7071 H 662.469 -0.362573 -3.92529 0
M  V30 7072 H 663.757 -0.000544776 -5.088 0
M  V30 7073 H 663.155 3.15623 -4.69467 0
M  V30 7074 H 661.712 3.31132 -5.61422 0
M  V30 7075 N 665.145 1.52092 -0.413018 0
M  V30 7076 C 666.093 2.28681 0.425199 0
M  V30 7077 C 667.087 1.3353 1.04241 0
M  V30 7078 O 668.293 1.50973 0.980166 0
M  V30 7079 H 664.668 0.735661 0.155906 0
M  V30 7080 H 666.639 2.97418 -0.241926 0
M  V30 7081 C 665.388 3.1235 1.5275 0
M  V30 7082 H 664.711 3.85439 1.06191 0
M  V30 7083 H 666.151 3.69038 2.08774 0
M  V30 7084 C 664.61 2.26161 2.49706 0
M  V30 7085 O 665.14 1.90452 3.53682 0
M  V30 7086 N 663.346 1.89854 2.20008 0
M  V30 7087 H 662.893 2.19092 1.35486 0
M  V30 7088 H 662.851 1.3248 2.85125 0
M  V30 7089 N 666.623 0.143563 1.56945 0
M  V30 7090 C 667.863 -0.511198 1.97904 0
M  V30 7091 C 668.227 -1.62262 1.0264 0
M  V30 7092 O 669.428 -2.338 1.32631 0
M  V30 7093 C 667.699 -1.00753 3.42905 0
M  V30 7094 S 669.258 -1.66737 4.05887 0
M  V30 7095 H 666.076 -0.165399 0.691494 0
M  V30 7096 H 668.678 0.234464 1.94089 0
M  V30 7097 H 667.382 -0.187817 4.0997 0
M  V30 7098 H 666.913 -1.7879 3.50425 0
M  V30 7099 H 668.928 -2.95444 3.98657 0
M  V30 7100 N 668.101 -1.57061 -0.130224 0
M  V30 7101 C 669.011 -2.02802 -1.17934 0
M  V30 7102 C 670.027 -0.946378 -1.46013 0
M  V30 7103 O 671.203 -1.25708 -1.57351 0
M  V30 7104 C 668.268 -2.41368 -2.48882 0
M  V30 7105 C 667.329 -3.63561 -2.28301 0
M  V30 7106 C 666.562 -4.00279 -3.53005 0
M  V30 7107 O 666.785 -3.37463 -4.59864 0
M  V30 7108 O 665.719 -4.93441 -3.44673 0
M  V30 7109 H 669.545 -2.92394 -0.820958 0
M  V30 7110 H 667.13 -1.45475 -0.340197 0
M  V30 7111 H 669.012 -2.66958 -3.26054 0
M  V30 7112 H 667.687 -1.54926 -2.84217 0
M  V30 7113 H 666.594 -3.43136 -1.49025 0
M  V30 7114 H 667.927 -4.50673 -1.97875 0
M  V30 7115 N 669.579 0.400081 -1.52437 0
M  V30 7116 C 670.509 1.4947 -1.7939 0
M  V30 7117 C 671.49 1.57383 -0.645329 0
M  V30 7118 O 672.675 1.72511 -0.891826 0
M  V30 7119 C 669.805 2.87201 -1.95276 0
M  V30 7120 C 668.759 2.94134 -3.10917 0
M  V30 7121 C 668.085 4.34207 -3.1204 0
M  V30 7122 C 669.385 2.64791 -4.50203 0
M  V30 7123 H 671.079 1.27165 -2.71052 0
M  V30 7124 H 668.625 0.610312 -1.30427 0
M  V30 7125 H 670.578 3.63772 -2.12715 0
M  V30 7126 H 669.302 3.10819 -1.00294 0
M  V30 7127 H 667.961 2.20009 -2.93243 0
M  V30 7128 H 667.609 4.54848 -2.14761 0
M  V30 7129 H 667.309 4.39768 -3.89715 0
M  V30 7130 H 668.833 5.127 -3.31619 0
M  V30 7131 H 670.247 3.31083 -4.68035 0
M  V30 7132 H 668.644 2.81717 -5.29864 0
M  V30 7133 H 669.714 1.60184 -4.57678 0
M  V30 7134 N 671.057 1.43213 0.657864 0
M  V30 7135 C 672.304 1.44584 1.41781 0
M  V30 7136 C 672.632 0.0684208 1.9438 0
M  V30 7137 O 671.887 -0.925872 1.72413 0
M  V30 7138 C 672.186 2.43143 2.61947 0
M  V30 7139 C 671.852 3.89128 2.27794 0
M  V30 7140 C 670.514 4.28889 2.18191 0
M  V30 7141 C 672.866 4.81144 2.00375 0
M  V30 7142 C 670.194 5.58625 1.79319 0
M  V30 7143 C 672.546 6.11239 1.63003 0
M  V30 7144 C 671.21 6.49981 1.51922 0
M  V30 7145 H 670.48 0.529069 0.518813 0
M  V30 7146 H 673.127 1.76263 0.748577 0
M  V30 7147 H 671.432 2.04851 3.33981 0
M  V30 7148 H 673.129 2.4146 3.20153 0
M  V30 7149 H 669.719 3.57657 2.36176 0
M  V30 7150 H 673.903 4.512 2.06718 0
M  V30 7151 H 669.159 5.87486 1.69323 0
M  V30 7152 H 673.333 6.82014 1.40817 0
M  V30 7153 H 670.96 7.50416 1.21572 0
M  V30 7154 N 672.536 -0.895792 1.29666 0
M  V30 7155 C 673.446 -2.03329 1.17024 0
M  V30 7156 C 674.462 -1.73753 0.0925962 0
M  V30 7157 O 675.638 -1.99071 0.305431 0
M  V30 7158 C 672.703 -3.36072 0.851841 0
M  V30 7159 C 671.764 -3.7914 2.01373 0
M  V30 7160 C 670.997 -5.05549 1.71043 0
M  V30 7161 O 671.22 -5.66874 0.633213 0
M  V30 7162 O 670.154 -5.44764 2.5596 0
M  V30 7163 H 673.98 -2.16918 2.12556 0
M  V30 7164 H 671.565 -1.02007 1.09156 0
M  V30 7165 H 673.447 -4.15729 0.689006 0
M  V30 7166 H 672.122 -3.23616 -0.0736634 0
M  V30 7167 H 671.029 -3.00233 2.23183 0
M  V30 7168 H 672.362 -3.96186 2.92058 0
M  V30 7169 N 674.014 -1.12206 -1.10668 0
M  V30 7170 C 674.946 -0.74552 -2.16736 0
M  V30 7171 C 675.959 0.226696 -1.61214 0
M  V30 7172 O 677.148 0.0083936 -1.78498 0
M  V30 7173 C 674.248 -0.0823368 -3.388 0
M  V30 7174 C 673.421 -1.08341 -4.2377 0
M  V30 7175 C 672.48 -0.448292 -5.24287 0
M  V30 7176 O 671.506 -1.10458 -5.58379 0
M  V30 7177 N 672.708 0.785336 -5.75163 0
M  V30 7178 H 675.473 -1.65818 -2.49649 0
M  V30 7179 H 673.034 -1.01335 -1.26265 0
M  V30 7180 H 675.026 0.354476 -4.03145 0
M  V30 7181 H 673.596 0.733041 -3.03884 0
M  V30 7182 H 672.816 -1.69792 -3.55759 0
M  V30 7183 H 674.104 -1.76042 -4.77375 0
M  V30 7184 H 673.502 1.33755 -5.4966 0
M  V30 7185 H 672.059 1.16501 -6.41304 0
M  V30 7186 N 675.492 1.28418 -0.913599 0
M  V30 7187 C 676.422 2.29713 -0.418847 0
M  V30 7188 C 677.403 1.62165 0.513469 0
M  V30 7189 O 678.588 1.89576 0.421235 0
M  V30 7190 C 675.718 3.45612 0.342042 0
M  V30 7191 C 674.672 4.25056 -0.501123 0
M  V30 7192 C 673.998 5.3329 0.388097 0
M  V30 7193 C 675.298 4.91814 -1.75831 0
M  V30 7194 H 676.992 2.71346 -1.26538 0
M  V30 7195 H 674.538 1.30446 -0.609903 0
M  V30 7196 H 676.491 4.15562 0.699 0
M  V30 7197 H 675.215 3.02858 1.22248 0
M  V30 7198 H 673.874 3.56833 -0.840598 0
M  V30 7199 H 673.522 4.8678 1.26707 0
M  V30 7200 H 673.222 5.87347 -0.172459 0
M  V30 7201 H 674.746 6.06088 0.74094 0
M  V30 7202 H 676.16 5.54126 -1.47026 0
M  V30 7203 H 674.557 5.55866 -2.26126 0
M  V30 7204 H 675.627 4.16313 -2.4862 0
M  V30 7205 N 676.97 0.677563 1.42291 0
M  V30 7206 C 678.218 0.200578 2.01102 0
M  V30 7207 C 678.539 -1.19803 1.53858 0
M  V30 7208 O 677.809 -1.80496 0.761439 0
M  V30 7209 H 676.389 0.0711634 0.743603 0
M  V30 7210 H 679.051 0.874691 1.7417 0
M  V30 7211 H 678.147 0.204 3.11433 0
M  V30 7212 N 678.448 -1.51871 0.421078 0
M  V30 7213 C 679.358 -2.31077 -0.405069 0
M  V30 7214 C 680.374 -1.39301 -1.04265 0
M  V30 7215 O 681.55 -1.72376 -1.04157 0
M  V30 7216 C 678.615 -3.12556 -1.50032 0
M  V30 7217 C 677.676 -4.20088 -0.884559 0
M  V30 7218 C 676.909 -4.97673 -1.92762 0
M  V30 7219 O 677.132 -4.75696 -3.14753 0
M  V30 7220 O 676.066 -5.82203 -1.52719 0
M  V30 7221 H 679.892 -3.02742 0.241086 0
M  V30 7222 H 677.477 -1.48263 0.183991 0
M  V30 7223 H 679.359 -3.6326 -2.13589 0
M  V30 7224 H 678.034 -2.43672 -2.13086 0
M  V30 7225 H 676.941 -3.73502 -0.211379 0
M  V30 7226 H 678.274 -4.91298 -0.297763 0
M  V30 7227 N 679.926 -0.151884 -1.56866 0
M  V30 7228 C 681.156 0.504081 -2.00356 0
M  V30 7229 C 681.564 1.58639 -1.03103 0
M  V30 7230 O 680.907 1.83688 -0.0207931 0
M  V30 7231 C 680.969 1.15975 -3.40279 0
M  V30 7232 C 680.633 0.221453 -4.56463 0
M  V30 7233 C 681.63 -0.552766 -5.16953 0
M  V30 7234 C 679.315 0.122936 -5.0215 0
M  V30 7235 C 681.309 -1.4129 -6.21543 0
M  V30 7236 C 678.996 -0.740801 -6.06593 0
M  V30 7237 C 679.994 -1.50732 -6.6616 0
M  V30 7238 O 679.682 -2.35666 -7.68581 0
M  V30 7239 H 679.414 0.135279 -0.662326 0
M  V30 7240 H 681.968 -0.244916 -2.03935 0
M  V30 7241 H 680.198 1.95649 -3.33554 0
M  V30 7242 H 681.887 1.71594 -3.67846 0
M  V30 7243 H 682.653 -0.486716 -4.82552 0
M  V30 7244 H 678.532 0.70931 -4.5551 0
M  V30 7245 H 682.076 -2.01166 -6.67966 0
M  V30 7246 H 677.973 -0.808125 -6.40421 0
M  V30 7247 H 678.741 -2.28967 -7.85822 0
M  V30 7248 N 681.404 1.57128 0.121893 0
M  V30 7249 C 682.351 2.0013 1.14964 0
M  V30 7250 C 683.321 0.872959 1.4131 0
M  V30 7251 O 684.506 1.13696 1.53225 0
M  V30 7252 C 681.646 2.40824 2.4718 0
M  V30 7253 C 680.759 3.67061 2.27794 0
M  V30 7254 C 679.894 3.96749 3.53219 0
M  V30 7255 C 678.933 5.16178 3.28978 0
M  V30 7256 N 678.07 5.41751 4.46599 0
M  V30 7257 H 682.91 2.8772 0.775947 0
M  V30 7258 H 680.447 1.42328 0.371652 0
M  V30 7259 H 682.405 2.62454 3.24305 0
M  V30 7260 H 681.035 1.56279 2.82448 0
M  V30 7261 H 680.087 3.53063 1.416 0
M  V30 7262 H 681.399 4.5434 2.05857 0
M  V30 7263 H 680.553 4.19012 4.38764 0
M  V30 7264 H 679.292 3.07941 3.78185 0
M  V30 7265 H 678.297 4.93762 2.41824 0
M  V30 7266 H 679.522 6.06561 3.05386 0
M  V30 7267 H 677.468 4.55899 4.71691 0
M  V30 7268 H 677.385 6.23347 4.27756 0
M  V30 7269 H 678.653 5.68531 5.33285 0
M  V30 7270 N 682.882 -0.391992 1.52647 0
M  V30 7271 C 684.129 -1.13732 1.67545 0
M  V30 7272 C 684.457 -1.90045 0.413881 0
M  V30 7273 O 683.712 -1.86157 -0.603646 0
M  V30 7274 C 684.011 -2.14401 2.85949 0
M  V30 7275 C 683.677 -1.54767 4.23507 0
M  V30 7276 C 682.339 -1.38229 4.60919 0
M  V30 7277 C 684.691 -1.11382 5.0916 0
M  V30 7278 C 682.019 -0.7685 5.81645 0
M  V30 7279 C 684.371 -0.514143 6.30507 0
M  V30 7280 C 683.035 -0.33604 6.66654 0
M  V30 7281 H 682.305 -0.416174 0.613091 0
M  V30 7282 H 684.952 -0.422327 1.86785 0
M  V30 7283 H 683.257 -2.92108 2.61114 0
M  V30 7284 H 684.954 -2.71974 2.94671 0
M  V30 7285 H 681.544 -1.68626 3.94035 0
M  V30 7286 H 685.728 -1.22962 4.80826 0
M  V30 7287 H 680.984 -0.618681 6.08262 0
M  V30 7288 H 685.158 -0.169657 6.96193 0
M  V30 7289 H 682.785 0.14166 7.60068 0
M  V30 7290 N 684.36 -1.4356 -0.65026 0
M  V30 7291 C 685.292 -1.44918 -1.77571 0
M  V30 7292 C 686.305 -0.344925 -1.59104 0
M  V30 7293 O 687.494 -0.609537 -1.6777 0
M  V30 7294 C 684.594 -1.24914 -3.15039 0
M  V30 7295 C 683.767 -2.48232 -3.60138 0
M  V30 7296 C 682.826 -2.23409 -4.76419 0
M  V30 7297 O 681.852 -2.9678 -4.85706 0
M  V30 7298 N 683.054 -1.25259 -5.66825 0
M  V30 7299 H 685.819 -2.41935 -1.76883 0
M  V30 7300 H 683.38 -1.38754 -0.834202 0
M  V30 7301 H 685.372 -1.06185 -3.90521 0
M  V30 7302 H 683.942 -0.363319 -3.10481 0
M  V30 7303 H 683.162 -2.82366 -2.75069 0
M  V30 7304 H 684.45 -3.30296 -3.87017 0
M  V30 7305 H 683.848 -0.646246 -5.61997 0
M  V30 7306 H 682.405 -1.12513 -6.42016 0
M  V30 7307 N 685.838 0.888903 -1.30139 0
M  V30 7308 C 686.786 2.0156 -1.16088 0
M  V30 7309 C 687.78 1.69239 -0.0737413 0
M  V30 7310 O 688.986 1.78468 -0.234313 0
M  V30 7311 H 685.361 0.660825 -0.358907 0
M  V30 7312 H 687.332 2.10547 -2.11453 0
M  V30 7313 C 686.081 3.36758 -0.865426 0
M  V30 7314 H 685.404 3.62137 -1.69402 0
M  V30 7315 H 686.844 4.16246 -0.807192 0
M  V30 7316 C 685.303 3.34124 0.431577 0
M  V30 7317 O 685.833 3.7445 1.45431 0
M  V30 7318 N 684.039 2.87229 0.441321 0
M  V30 7319 H 683.586 2.54609 -0.391433 0
M  V30 7320 H 683.544 2.8585 1.30909 0
M  V30 7321 N 687.317 1.12792 1.10072 0
M  V30 7322 C 688.28 0.802264 2.14701 0
M  V30 7323 C 689.28 -0.18515 1.59731 0
M  V30 7324 O 690.47 0.041109 1.74151 0
M  V30 7325 C 687.602 0.19285 3.40354 0
M  V30 7326 H 688.795 1.72932 2.45019 0
M  V30 7327 H 686.348 0.931662 1.25498 0
M  V30 7328 H 687.083 -0.743748 3.15656 0
M  V30 7329 H 686.868 0.903827 3.81541 0
M  V30 7330 H 688.358 -0.0183704 4.17596 0
M  V30 7331 N 688.795 -1.27931 0.920396 0
M  V30 7332 C 689.725 -2.29487 0.431024 0
M  V30 7333 C 690.706 -1.62435 -0.504861 0
M  V30 7334 O 691.891 -1.89797 -0.411176 0
M  V30 7335 C 689.021 -3.45788 -0.323709 0
M  V30 7336 C 687.975 -4.24784 0.523658 0
M  V30 7337 C 687.301 -5.33488 -0.359809 0
M  V30 7338 C 688.601 -4.90874 1.78437 0
M  V30 7339 H 690.295 -2.70671 1.27975 0
M  V30 7340 H 687.841 -1.30121 0.616813 0
M  V30 7341 H 689.794 -4.15927 -0.676952 0
M  V30 7342 H 688.518 -3.03502 -1.2064 0
M  V30 7343 H 687.177 -3.56382 0.85951 0
M  V30 7344 H 686.825 -4.87445 -1.24124 0
M  V30 7345 H 686.525 -5.87247 0.203605 0
M  V30 7346 H 688.049 -6.06472 -0.708787 0
M  V30 7347 H 689.463 -5.53339 1.49963 0
M  V30 7348 H 687.86 -5.54659 2.29071 0
M  V30 7349 H 688.93 -4.14988 2.50824 0
M  V30 7350 N 690.273 -0.685099 -1.4193 0
M  V30 7351 C 691.203 -0.0273506 -2.33484 0
M  V30 7352 C 692.184 0.778366 -1.51246 0
M  V30 7353 O 693.369 0.733449 -1.79817 0
M  V30 7354 C 690.499 0.917272 -3.34968 0
M  V30 7355 C 689.453 0.21941 -4.27437 0
M  V30 7356 C 688.779 1.27768 -5.1921 0
M  V30 7357 C 690.079 -0.907894 -5.14349 0
M  V30 7358 H 691.773 -0.791994 -2.88735 0
M  V30 7359 H 689.319 -0.382308 -1.38832 0
M  V30 7360 H 691.272 1.38657 -3.97935 0
M  V30 7361 H 689.996 1.71346 -2.78043 0
M  V30 7362 H 688.655 -0.229757 -3.65879 0
M  V30 7363 H 688.303 2.06612 -4.58607 0
M  V30 7364 H 688.003 0.815803 -5.81909 0
M  V30 7365 H 689.527 1.7477 -5.85054 0
M  V30 7366 H 690.941 -0.519348 -5.70943 0
M  V30 7367 H 689.338 -1.2962 -5.85934 0
M  V30 7368 H 690.408 -1.75218 -4.52136 0
M  V30 7369 N 691.751 1.51645 -0.429126 0
M  V30 7370 C 692.997 2.02314 0.140286 0
M  V30 7371 C 693.33 1.31314 1.43074 0
M  V30 7372 O 692.605 0.425531 1.89788 0
M  V30 7373 C 692.888 3.5822 0.36749 0
M  V30 7374 C 692.741 4.39846 -0.941039 0
M  V30 7375 C 694.06 4.25055 1.14089 0
M  V30 7376 H 691.179 0.735335 0.0495112 0
M  V30 7377 H 693.821 1.81358 -0.566514 0
M  V30 7378 H 691.971 3.76207 0.969556 0
M  V30 7379 H 693.643 4.33527 -1.57646 0
M  V30 7380 H 691.886 4.05259 -1.54751 0
M  V30 7381 H 692.557 5.47069 -0.73621 0
M  V30 7382 H 695.033 4.11288 0.630986 0
M  V30 7383 H 693.909 5.34038 1.26863 0
M  V30 7384 H 694.17 3.85358 2.16683 0
M  V30 7385 N 693.229 0.160201 1.56784 0
M  V30 7386 C 694.645 -0.196089 1.58391 0
M  V30 7387 C 694.845 -1.63689 1.17508 0
M  V30 7388 O 693.901 -2.36613 0.881506 0
M  V30 7389 C 695.214 0.0746449 3.00607 0
M  V30 7390 C 696.762 0.0119762 3.12998 0
M  V30 7391 C 697.237 0.255551 4.57286 0
M  V30 7392 N 698.728 0.202938 4.62755 0
M  V30 7393 C 699.463 0.365731 5.72232 0
M  V30 7394 N 698.959 0.586972 6.90309 0
M  V30 7395 N 700.752 0.302411 5.61286 0
M  V30 7396 H 692.903 1.1008 1.81648 0
M  V30 7397 H 695.166 0.436779 0.841384 0
M  V30 7398 H 694.872 1.07231 3.34954 0
M  V30 7399 H 694.746 -0.638802 3.71751 0
M  V30 7400 H 697.133 -0.976254 2.78484 0
M  V30 7401 H 697.214 0.75796 2.44313 0
M  V30 7402 H 696.858 1.24094 4.92507 0
M  V30 7403 H 696.788 -0.510912 5.24116 0
M  V30 7404 H 699.279 0.0371328 3.77882 0
M  V30 7405 H 699.592 0.700941 7.69615 0
M  V30 7406 H 697.937 0.623453 6.92198 0
M  V30 7407 H 701.128 0.130238 4.67919 0
M  V30 7408 H 701.301 0.432712 6.46554 0
M  V30 7409 N 694.707 -1.5719 -0.113559 0
M  V30 7410 C 695.937 -1.89053 -0.833212 0
M  V30 7411 C 696.345 -0.750139 -1.73694 0
M  V30 7412 O 695.688 0.287808 -1.81431 0
M  V30 7413 C 695.75 -3.15986 -1.71443 0
M  V30 7414 C 695.414 -4.46271 -0.984449 0
M  V30 7415 C 696.411 -5.18897 -0.322741 0
M  V30 7416 C 694.096 -4.92963 -0.964011 0
M  V30 7417 C 696.09 -6.3644 0.349646 0
M  V30 7418 C 693.777 -6.10422 -0.287828 0
M  V30 7419 C 694.775 -6.82009 0.36784 0
M  V30 7420 O 694.463 -7.97233 1.03322 0
M  V30 7421 H 694.195 -0.630225 -0.244526 0
M  V30 7422 H 696.749 -2.05152 -0.100847 0
M  V30 7423 H 694.979 -2.95984 -2.48858 0
M  V30 7424 H 696.668 -3.33826 -2.309 0
M  V30 7425 H 697.434 -4.83875 -0.330114 0
M  V30 7426 H 693.313 -4.37143 -1.46379 0
M  V30 7427 H 696.857 -6.92254 0.861996 0
M  V30 7428 H 692.754 -6.449 -0.278237 0
M  V30 7429 H 693.522 -8.13105 0.938247 0
M  V30 7430 N 696.185 0.383891 -1.52853 0
M  V30 7431 C 697.413 1.1495 -1.7203 0
M  V30 7432 C 697.828 1.83578 -0.440957 0
M  V30 7433 O 697.185 1.72872 0.584925 0
M  V30 7434 C 697.236 2.19368 -2.87333 0
M  V30 7435 O 696.957 1.53536 -4.10315 0
M  V30 7436 C 698.458 3.08616 -3.18231 0
M  V30 7437 H 695.678 0.344445 -0.575846 0
M  V30 7438 H 698.222 0.448397 -1.99524 0
M  V30 7439 H 696.377 2.85105 -2.62286 0
M  V30 7440 H 696.791 2.2296 -4.74752 0
M  V30 7441 H 698.265 3.77902 -4.02361 0
M  V30 7442 H 698.742 3.72409 -2.32826 0
M  V30 7443 H 699.348 2.48518 -3.45136 0
M  V30 7444 N 697.663 1.43903 0.642637 0
M  V30 7445 C 698.61 1.49881 1.75512 0
M  V30 7446 C 699.58 0.347538 1.62423 0
M  V30 7447 O 700.765 0.556177 1.82514 0
M  V30 7448 C 697.905 1.43797 3.13714 0
M  V30 7449 C 697.018 2.6921 3.37861 0
M  V30 7450 C 696.153 2.5504 4.6597 0
M  V30 7451 C 695.192 3.75671 4.83257 0
M  V30 7452 N 694.329 3.60247 6.02633 0
M  V30 7453 H 699.169 2.44935 1.69737 0
M  V30 7454 H 696.706 1.21572 0.828165 0
M  V30 7455 H 698.664 1.38262 3.93624 0
M  V30 7456 H 697.294 0.523173 3.18532 0
M  V30 7457 H 696.346 2.8498 2.51973 0
M  V30 7458 H 697.658 3.58786 3.46517 0
M  V30 7459 H 696.812 2.47273 5.54023 0
M  V30 7460 H 695.551 1.63006 4.59653 0
M  V30 7461 H 694.556 3.83836 3.93637 0
M  V30 7462 H 695.781 4.68728 4.91397 0
M  V30 7463 H 693.727 2.70955 5.97427 0
M  V30 7464 H 693.644 4.43431 6.12295 0
M  V30 7465 H 694.912 3.56351 6.93278 0
M  V30 7466 N 699.141 -0.881989 1.30609 0
M  V30 7467 C 700.088 -1.98803 1.17244 0
M  V30 7468 C 701.058 -1.65987 0.0611905 0
M  V30 7469 O 702.243 -1.89385 0.231911 0
M  V30 7470 C 699.383 -3.33867 0.87333 0
M  V30 7471 C 698.496 -3.79354 2.06675 0
M  V30 7472 C 697.631 -5.03078 1.70547 0
M  V30 7473 C 696.67 -5.40981 2.86366 0
M  V30 7474 N 695.807 -6.55886 2.50514 0
M  V30 7475 H 700.647 -2.09566 2.11863 0
M  V30 7476 H 698.184 -1.02607 1.05405 0
M  V30 7477 H 700.142 -4.11612 0.680519 0
M  V30 7478 H 698.772 -3.2278 -0.0359983 0
M  V30 7479 H 697.824 -2.97492 2.37071 0
M  V30 7480 H 699.136 -4.03382 2.93401 0
M  V30 7481 H 698.29 -5.88457 1.47658 0
M  V30 7482 H 697.029 -4.80927 0.809947 0
M  V30 7483 H 696.034 -4.54127 3.09917 0
M  V30 7484 H 697.259 -5.65104 3.76609 0
M  V30 7485 H 695.205 -6.35306 1.63471 0
M  V30 7486 H 695.122 -6.79799 3.30771 0
M  V30 7487 H 696.39 -7.44489 2.30989 0
M  V30 7488 N 700.619 -1.13374 -1.09472 0
M  V30 7489 C 701.865 -0.896516 -1.81908 0
M  V30 7490 C 702.198 0.575933 -1.85463 0
M  V30 7491 O 701.473 1.42618 -1.32251 0
M  V30 7492 C 701.756 -1.48445 -3.28079 0
M  V30 7493 C 701.609 -3.02598 -3.32798 0
M  V30 7494 C 702.928 -1.15226 -4.24748 0
M  V30 7495 H 700.047 -0.327127 -0.660422 0
M  V30 7496 H 702.689 -1.40195 -1.2824 0
M  V30 7497 H 700.839 -1.0546 -3.73912 0
M  V30 7498 H 702.511 -3.54335 -2.95372 0
M  V30 7499 H 700.754 -3.37613 -2.72397 0
M  V30 7500 H 701.425 -3.38835 -4.3577 0
M  V30 7501 H 703.901 -1.52369 -3.87199 0
M  V30 7502 H 702.777 -1.59012 -5.25363 0
M  V30 7503 H 703.038 -0.0658891 -4.42051 0
M  V30 7504 N 702.098 1.27442 -0.927168 0
M  V30 7505 C 703.509 1.76385 -0.611979 0
M  V30 7506 C 703.86 1.75715 0.872853 0
M  V30 7507 O 702.985 1.3603 1.683 0
M  V30 7508 C 703.58 3.20303 -1.10414 0
M  V30 7509 C 702.139 3.66916 -0.839628 0
M  V30 7510 C 701.286 2.46859 -1.26317 0
M  V30 7511 H 704.237 1.13716 -1.107 0
M  V30 7512 H 704.258 3.77811 -0.451578 0
M  V30 7513 H 703.77 3.20759 -2.18484 0
M  V30 7514 H 701.871 3.71906 0.227292 0
M  V30 7515 H 701.984 4.56415 -1.45679 0
M  V30 7516 H 700.348 2.45407 -0.681723 0
M  V30 7517 H 701.131 2.50025 -2.3525 0
M  V30 7518 N 703.576 0.692616 1.41565 0
M  V30 7519 C 704.508 -0.0137132 2.29196 0
M  V30 7520 C 705.521 -0.747417 1.44629 0
M  V30 7521 O 706.71 -0.598611 1.68163 0
M  V30 7522 C 703.81 -1.04347 3.22436 0
M  V30 7523 C 702.983 -0.379985 4.35746 0
M  V30 7524 C 702.042 -1.31195 5.09583 0
M  V30 7525 O 701.068 -0.805455 5.63472 0
M  V30 7526 N 702.27 -2.64443 5.16769 0
M  V30 7527 H 705.035 0.738614 2.90456 0
M  V30 7528 H 702.596 0.538415 1.52685 0
M  V30 7529 H 704.588 -1.6686 3.687 0
M  V30 7530 H 703.158 -1.69736 2.62504 0
M  V30 7531 H 702.378 0.424975 3.91903 0
M  V30 7532 H 703.666 0.0814904 5.08735 0
M  V30 7533 H 703.064 -3.08114 4.74428 0
M  V30 7534 H 701.621 -3.22159 5.66619 0
M  V30 7535 N 705.054 -1.51416 0.437162 0
M  V30 7536 C 706.3 -2.02386 -0.129555 0
M  V30 7537 C 706.633 -1.32071 -1.42376 0
M  V30 7538 O 705.908 -0.43559 -1.8956 0
M  V30 7539 C 706.191 -3.5841 -0.348487 0
M  V30 7540 C 706.044 -4.39341 0.964352 0
M  V30 7541 C 707.363 -4.25654 -1.11834 0
M  V30 7542 H 704.482 -0.735587 -0.0456109 0
M  V30 7543 H 707.124 -1.81055 0.576124 0
M  V30 7544 H 705.274 -3.76716 -0.949592 0
M  V30 7545 H 706.946 -4.32685 1.59942 0
M  V30 7546 H 705.189 -4.04432 1.56898 0
M  V30 7547 H 705.86 -5.4667 0.765212 0
M  V30 7548 H 708.336 -4.11617 -0.609165 0
M  V30 7549 H 707.212 -5.34704 -1.24029 0
M  V30 7550 H 707.473 -3.86502 -2.14636 0
M  V30 7551 N 706.532 -0.168513 -1.56696 0
M  V30 7552 C 707.757 0.486688 -2.01609 0
M  V30 7553 C 708.182 1.56203 -1.04796 0
M  V30 7554 O 707.54 1.8128 -0.0270596 0
M  V30 7555 C 707.588 1.04451 -3.45141 0
M  V30 7556 O 706.692 2.15862 -3.51393 0
M  V30 7557 H 706.033 0.116831 -0.653641 0
M  V30 7558 H 708.563 -0.271579 -2.0279 0
M  V30 7559 H 708.573 1.36782 -3.84389 0
M  V30 7560 H 707.248 0.257155 -4.15104 0
M  V30 7561 H 705.825 1.84597 -3.24004 0
M  V30 7562 N 708.01 1.57248 0.105221 0
M  V30 7563 C 709.238 1.89768 0.82437 0
M  V30 7564 C 709.653 0.761192 1.72775 0
M  V30 7565 O 709.01 -0.267342 1.80531 0
M  V30 7566 C 709.061 3.2184 1.64625 0
M  V30 7567 O 708.782 4.31115 0.779217 0
M  V30 7568 C 710.283 3.68155 2.46935 0
M  V30 7569 H 707.503 0.628031 0.236259 0
M  V30 7570 H 710.047 2.04321 0.085485 0
M  V30 7571 H 708.202 3.08915 2.33775 0
M  V30 7572 H 708.616 5.06897 1.34745 0
M  V30 7573 H 710.09 4.6329 3.00111 0
M  V30 7574 H 710.567 2.95492 3.24932 0
M  V30 7575 H 711.173 3.83914 1.83002 0
M  V30 7576 N 709.488 -0.375779 1.53054 0
M  V30 7577 C 710.899 -0.95309 1.6054 0
M  V30 7578 C 711.25 -1.90575 0.466446 0
M  V30 7579 O 710.375 -2.12507 -0.408609 0
M  V30 7580 C 710.97 -1.73537 2.90982 0
M  V30 7581 C 709.529 -2.26218 3.00836 0
M  V30 7582 C 708.676 -1.07157 2.55759 0
M  V30 7583 H 711.627 -0.154895 1.57942 0
M  V30 7584 H 711.648 -2.59574 2.78211 0
M  V30 7585 H 711.16 -1.04176 3.73857 0
M  V30 7586 H 709.261 -2.98852 2.22527 0
M  V30 7587 H 709.374 -2.54799 4.05727 0
M  V30 7588 H 707.738 -1.43553 2.10391 0
M  V30 7589 H 708.521 -0.393099 3.41042 0
M  V30 7590 N 710.966 -1.44241 -0.634997 0
M  V30 7591 C 712.194 -1.50296 -1.42193 0
M  V30 7592 C 712.609 -0.12658 -1.88375 0
M  V30 7593 O 711.966 0.86678 -1.60603 0
M  V30 7594 C 712.017 -2.46437 -2.64482 0
M  V30 7595 O 711.738 -3.78724 -2.20226 0
M  V30 7596 C 713.239 -2.61918 -3.57651 0
M  V30 7597 H 710.459 -0.509865 -0.43621 0
M  V30 7598 H 713.003 -1.89167 -0.776921 0
M  V30 7599 H 711.158 -2.10712 -3.25083 0
M  V30 7600 H 711.572 -4.30595 -2.9948 0
M  V30 7601 H 713.046 -3.33225 -4.40074 0
M  V30 7602 H 713.523 -1.67017 -4.06204 0
M  V30 7603 H 714.129 -2.98528 -3.02921 0
M  V30 7604 N 712.444 0.87505 -1.31075 0
M  V30 7605 C 713.374 1.99775 -1.20881 0
M  V30 7606 C 714.355 1.69822 -0.0971612 0
M  V30 7607 O 715.54 1.92158 -0.280895 0
M  V30 7608 C 712.67 3.35163 -0.910118 0
M  V30 7609 C 711.624 3.79406 -1.98078 0
M  V30 7610 C 710.95 5.12197 -1.53488 0
M  V30 7611 C 712.25 3.97061 -3.39323 0
M  V30 7612 H 713.944 2.08562 -2.14808 0
M  V30 7613 H 711.49 1.00207 -1.03415 0
M  V30 7614 H 713.443 4.13237 -0.825423 0
M  V30 7615 H 712.167 3.26536 0.064822 0
M  V30 7616 H 710.826 3.03568 -2.05528 0
M  V30 7617 H 710.474 5.00007 -0.547941 0
M  V30 7618 H 710.174 5.4277 -2.2511 0
M  V30 7619 H 711.698 5.92785 -1.46417 0
M  V30 7620 H 713.112 4.65545 -3.34576 0
M  V30 7621 H 711.509 4.39025 -4.09118 0
M  V30 7622 H 712.579 3.00601 -3.80483 0
M  V30 7623 N 713.922 1.13953 1.08869 0
M  V30 7624 C 715.168 0.906151 1.8143 0
M  V30 7625 C 715.501 -0.566089 1.85766 0
M  V30 7626 O 714.776 -1.41915 1.33006 0
M  V30 7627 C 715.059 1.50183 3.27287 0
M  V30 7628 C 714.912 3.04359 3.31189 0
M  V30 7629 C 716.231 1.17477 4.24131 0
M  V30 7630 H 713.35 0.330624 0.658678 0
M  V30 7631 H 715.992 1.40873 1.27495 0
M  V30 7632 H 714.142 1.07442 3.73348 0
M  V30 7633 H 715.814 3.55896 2.93488 0
M  V30 7634 H 714.057 3.39053 2.70602 0
M  V30 7635 H 714.728 3.41141 4.33966 0
M  V30 7636 H 717.204 1.5442 3.86385 0
M  V30 7637 H 716.08 1.61795 5.24513 0
M  V30 7638 H 716.341 0.0893312 4.4201 0
M  V30 7639 N 715.4 -1.26948 0.933913 0
M  V30 7640 C 716.31 -2.30366 0.443671 0
M  V30 7641 C 717.326 -1.67284 -0.478745 0
M  V30 7642 O 718.502 -1.98156 -0.360043 0
M  V30 7643 C 715.567 -3.45485 -0.289974 0
M  V30 7644 C 714.628 -4.24069 0.668114 0
M  V30 7645 C 713.861 -5.33691 -0.0306138 0
M  V30 7646 O 714.084 -5.5656 -1.24888 0
M  V30 7647 O 713.018 -5.98441 0.644384 0
M  V30 7648 H 716.844 -2.74349 1.30254 0
M  V30 7649 H 714.429 -1.32012 0.699506 0
M  V30 7650 H 716.311 -4.15486 -0.70353 0
M  V30 7651 H 714.986 -3.03546 -1.12435 0
M  V30 7652 H 713.893 -3.56579 1.13147 0
M  V30 7653 H 715.226 -4.69739 1.46989 0
M  V30 7654 N 716.879 -0.700114 -1.41195 0
M  V30 7655 C 718.125 -0.233351 -2.01453 0
M  V30 7656 C 718.458 1.16548 -1.55339 0
M  V30 7657 O 717.733 1.78756 -0.766575 0
M  V30 7658 C 718.016 -0.2961 -3.58881 0
M  V30 7659 C 717.869 -1.7322 -4.15108 0
M  V30 7660 C 719.188 0.341525 -4.38773 0
M  V30 7661 H 716.307 -0.0862667 -0.731934 0
M  V30 7662 H 718.949 -0.889693 -1.67882 0
M  V30 7663 H 717.099 0.262736 -3.87611 0
M  V30 7664 H 718.771 -2.34523 -3.97236 0
M  V30 7665 H 717.014 -2.2649 -3.69979 0
M  V30 7666 H 717.685 -1.7276 -5.24269 0
M  V30 7667 H 720.161 -0.134461 -4.15883 0
M  V30 7668 H 719.037 0.267098 -5.4825 0
M  V30 7669 H 719.298 1.42289 -4.18577 0
M  V30 7670 N 718.357 1.51182 -0.445186 0
M  V30 7671 C 719.582 2.07056 0.119445 0
M  V30 7672 C 720.007 1.30966 1.35016 0
M  V30 7673 O 719.365 0.349827 1.77893 0
M  V30 7674 C 719.413 3.58234 0.412428 0
M  V30 7675 O 718.517 3.84249 1.49754 0
M  V30 7676 H 717.858 0.663998 -0.00157797 0
M  V30 7677 H 720.388 1.94699 -0.628779 0
M  V30 7678 H 720.398 4.02617 0.660583 0
M  V30 7679 H 719.073 4.13038 -0.487049 0
M  V30 7680 H 717.65 3.51724 1.23873 0
M  V30 7681 N 719.835 0.176821 1.56605 0
M  V30 7682 C 721.251 -0.179278 1.5859 0
M  V30 7683 C 721.451 -1.62433 1.19238 0
M  V30 7684 O 720.507 -2.35665 0.906552 0
M  V30 7685 C 721.82 0.106524 3.00511 0
M  V30 7686 C 723.368 0.0451731 3.12967 0
M  V30 7687 C 723.843 0.304038 4.5699 0
M  V30 7688 N 725.334 0.252008 4.62514 0
M  V30 7689 C 726.069 0.426404 5.71812 0
M  V30 7690 N 725.565 0.660155 6.89648 0
M  V30 7691 N 727.358 0.361926 5.60934 0
M  V30 7692 H 719.509 1.12001 1.8047 0
M  V30 7693 H 721.772 0.445679 0.836704 0
M  V30 7694 H 721.478 1.10778 3.33798 0
M  V30 7695 H 721.352 -0.599337 3.72408 0
M  V30 7696 H 723.739 -0.946662 2.79504 0
M  V30 7697 H 723.82 0.78383 2.43495 0
M  V30 7698 H 723.464 1.29311 4.91163 0
M  V30 7699 H 723.394 -0.455294 5.24628 0
M  V30 7700 H 725.885 0.0772102 3.77821 0
M  V30 7701 H 726.198 0.782529 7.68828 0
M  V30 7702 H 724.543 0.696835 6.91498 0
M  V30 7703 H 727.734 0.17986 4.67754 0
M  V30 7704 H 727.907 0.501263 6.46058 0
M  V30 7705 N 721.313 -1.57302 -0.09688 0
M  V30 7706 C 722.261 -2.02942 -1.13654 0
M  V30 7707 C 723.255 -0.930173 -1.41577 0
M  V30 7708 O 724.461 -1.11535 -1.41279 0
M  V30 7709 H 720.836 -0.646726 -0.383731 0
M  V30 7710 H 722.807 -2.89452 -0.725267 0
M  V30 7711 C 721.556 -2.46815 -2.44903 0
M  V30 7712 H 720.879 -3.30979 -2.24261 0
M  V30 7713 H 722.319 -2.82527 -3.16156 0
M  V30 7714 C 720.778 -1.34071 -3.09074 0
M  V30 7715 O 721.308 -0.668856 -3.96092 0
M  V30 7716 N 719.514 -1.09214 -2.69296 0
M  V30 7717 H 719.061 -1.64029 -1.98626 0
M  V30 7718 H 719.019 -0.339785 -3.12559 0
M  V30 7719 N 722.791 0.367657 -1.53252 0
M  V30 7720 C 723.721 1.45632 -1.8252 0
M  V30 7721 C 724.702 1.55979 -0.678568 0
M  V30 7722 O 725.887 1.70581 -0.928217 0
M  V30 7723 C 723.017 2.82994 -2.01325 0
M  V30 7724 C 721.971 2.87473 -3.17086 0
M  V30 7725 C 721.297 4.2749 -3.21179 0
M  V30 7726 C 722.597 2.55182 -4.55719 0
M  V30 7727 H 724.291 1.21387 -2.73689 0
M  V30 7728 H 721.837 0.58251 -1.31692 0
M  V30 7729 H 723.79 3.59179 -2.20383 0
M  V30 7730 H 722.514 3.08622 -1.06864 0
M  V30 7731 H 721.173 2.13739 -2.97844 0
M  V30 7732 H 720.821 4.5019 -2.24361 0
M  V30 7733 H 720.521 4.31403 -3.98955 0
M  V30 7734 H 722.045 5.0555 -3.42419 0
M  V30 7735 H 723.459 3.21081 -4.74953 0
M  V30 7736 H 721.856 2.70414 -5.3572 0
M  V30 7737 H 722.926 1.5044 -4.60973 0
M  V30 7738 N 724.269 1.44576 0.627338 0
M  V30 7739 C 725.517 1.47267 1.38408 0
M  V30 7740 C 725.838 0.107971 1.94701 0
M  V30 7741 O 725.108 -0.860206 1.76004 0
M  V30 7742 H 723.688 0.542276 0.513756 0
M  V30 7743 H 726.35 1.80383 0.738099 0
M  V30 7744 H 725.446 2.20025 2.21349 0
M  V30 7745 N 725.747 -0.868086 1.31537 0
M  V30 7746 C 726.694 -1.97548 1.19346 0
M  V30 7747 C 727.664 -1.65913 0.0787922 0
M  V30 7748 O 728.849 -1.89129 0.251985 0
M  V30 7749 C 725.989 -3.32922 0.908692 0
M  V30 7750 C 725.102 -3.77141 2.10687 0
M  V30 7751 C 724.237 -5.01241 1.75873 0
M  V30 7752 C 723.276 -5.37914 2.92088 0
M  V30 7753 N 722.413 -6.53192 2.57457 0
M  V30 7754 H 727.253 -2.07307 2.14074 0
M  V30 7755 H 724.79 -1.01483 1.06487 0
M  V30 7756 H 726.748 -4.10867 0.724138 0
M  V30 7757 H 725.378 -3.228 -0.0017611 0
M  V30 7758 H 724.43 -2.94961 2.40213 0
M  V30 7759 H 725.742 -4.00248 2.97663 0
M  V30 7760 H 724.896 -5.86858 1.53891 0
M  V30 7761 H 723.635 -4.80041 0.86091 0
M  V30 7762 H 722.64 -4.50814 3.14717 0
M  V30 7763 H 723.865 -5.61077 3.82582 0
M  V30 7764 H 721.811 -6.33536 1.702 0
M  V30 7765 H 721.728 -6.76252 3.37963 0
M  V30 7766 H 722.996 -7.41997 2.38873 0
M  V30 7767 N 727.225 -1.14528 -1.08264 0
M  V30 7768 C 728.471 -0.91576 -1.80947 0
M  V30 7769 C 728.804 0.55623 -1.86064 0
M  V30 7770 O 728.079 1.41207 -1.33756 0
M  V30 7771 C 728.362 -1.51917 -3.26486 0
M  V30 7772 C 728.215 -3.06111 -3.2957 0
M  V30 7773 C 729.534 -1.19724 -4.23502 0
M  V30 7774 H 726.653 -0.334113 -0.656915 0
M  V30 7775 H 729.295 -1.41547 -1.26746 0
M  V30 7776 H 727.445 -1.0942 -3.72773 0
M  V30 7777 H 729.117 -3.57448 -2.91597 0
M  V30 7778 H 727.36 -3.40483 -2.688 0
M  V30 7779 H 728.031 -3.43438 -4.32151 0
M  V30 7780 H 730.507 -1.56467 -3.85561 0
M  V30 7781 H 729.383 -1.64575 -5.23647 0
M  V30 7782 H 729.644 -0.112771 -4.41956 0
M  V30 7783 N 728.703 1.26451 -0.940633 0
M  V30 7784 C 729.951 1.93395 -0.586748 0
M  V30 7785 C 730.272 1.7417 0.876921 0
M  V30 7786 O 729.542 1.097 1.62304 0
M  V30 7787 H 728.122 0.715687 -0.214012 0
M  V30 7788 H 730.784 1.53902 -1.19584 0
M  V30 7789 H 729.88 3.01565 -0.804059 0
M  V30 7790 N 730.181 0.707592 1.40822 0
M  V30 7791 C 731.406 0.251626 2.05868 0
M  V30 7792 C 731.831 -1.09503 1.5294 0
M  V30 7793 O 731.189 -1.68806 0.661385 0
M  V30 7794 C 731.237 0.23287 3.59847 0
M  V30 7795 O 730.341 -0.788477 4.04792 0
M  V30 7796 H 729.682 0.119936 0.653078 0
M  V30 7797 H 732.212 0.96583 1.80369 0
M  V30 7798 H 732.222 0.0678204 4.07944 0
M  V30 7799 H 730.897 1.21565 3.97737 0
M  V30 7800 H 729.474 -0.591802 3.68174 0
M  V30 7801 N 731.66 -1.50943 0.453197 0
M  V30 7802 C 732.607 -2.28128 -0.350197 0
M  V30 7803 C 733.577 -1.32398 -1.00299 0
M  V30 7804 O 734.762 -1.61319 -1.01887 0
M  V30 7805 C 731.902 -3.13782 -1.43649 0
M  V30 7806 C 731.015 -4.24523 -0.800255 0
M  V30 7807 C 730.15 -4.97462 -1.86293 0
M  V30 7808 C 729.189 -6.00102 -1.20598 0
M  V30 7809 N 728.326 -6.66387 -2.21071 0
M  V30 7810 H 733.166 -2.96337 0.31434 0
M  V30 7811 H 730.703 -1.46151 0.166863 0
M  V30 7812 H 732.661 -3.6178 -2.07776 0
M  V30 7813 H 731.291 -2.47655 -2.07044 0
M  V30 7814 H 730.343 -3.80371 -0.0468651 0
M  V30 7815 H 731.655 -4.98009 -0.280777 0
M  V30 7816 H 730.809 -5.49088 -2.58044 0
M  V30 7817 H 729.548 -4.23642 -2.41617 0
M  V30 7818 H 728.553 -5.47753 -0.474 0
M  V30 7819 H 729.778 -6.75887 -0.659859 0
M  V30 7820 H 727.724 -5.9537 -2.75446 0
M  V30 7821 H 727.641 -7.3569 -1.74058 0
M  V30 7822 H 728.909 -7.22638 -2.92257 0
M  V30 7823 N 733.138 -0.185124 -1.56509 0
M  V30 7824 C 734.378 0.458547 -1.9919 0
M  V30 7825 C 734.742 1.59484 -1.06906 0
M  V30 7826 O 735.943 2.30201 -1.38783 0
M  V30 7827 C 734.214 0.916263 -3.45455 0
M  V30 7828 S 735.773 1.55918 -4.10165 0
M  V30 7829 H 732.591 0.147008 -0.695636 0
M  V30 7830 H 735.193 -0.285841 -1.93399 0
M  V30 7831 H 733.897 0.0790543 -4.10324 0
M  V30 7832 H 733.428 1.69436 -3.55042 0
M  V30 7833 H 735.443 2.84771 -4.0635 0
M  V30 7834 N 734.616 1.57351 0.0885366 0
M  V30 7835 C 735.856 1.88248 0.796362 0
M  V30 7836 C 736.22 0.776915 1.75579 0
M  V30 7837 O 737.421 0.968485 2.50747 0
M  V30 7838 C 735.692 3.24385 1.50031 0
M  V30 7839 S 737.251 3.76991 2.24551 0
M  V30 7840 H 734.069 0.659697 0.265181 0
M  V30 7841 H 736.671 1.95428 0.0531843 0
M  V30 7842 H 735.375 4.02764 0.788 0
M  V30 7843 H 734.906 3.20361 2.28325 0
M  V30 7844 H 736.921 3.50933 3.508 0
M  V30 7845 N 736.094 -0.359525 1.53444 0
M  V30 7846 C 737.041 -1.44073 1.8031 0
M  V30 7847 C 738.011 -1.52946 0.647811 0
M  V30 7848 O 739.196 -1.68739 0.890614 0
M  V30 7849 C 736.336 -2.80941 2.00416 0
M  V30 7850 C 735.449 -2.80986 3.28132 0
M  V30 7851 C 734.584 -4.09468 3.38393 0
M  V30 7852 C 733.623 -4.03679 4.60119 0
M  V30 7853 N 732.76 -5.23821 4.675 0
M  V30 7854 H 737.6 -1.20464 2.72566 0
M  V30 7855 H 735.137 -0.583859 1.35017 0
M  V30 7856 H 737.095 -3.60459 2.1006 0
M  V30 7857 H 735.725 -3.02936 1.11489 0
M  V30 7858 H 734.777 -1.93666 3.27411 0
M  V30 7859 H 736.089 -2.72583 4.17732 0
M  V30 7860 H 735.243 -4.97404 3.47382 0
M  V30 7861 H 733.982 -4.20632 2.4682 0
M  V30 7862 H 732.987 -3.14129 4.51224 0
M  V30 7863 H 734.212 -3.94112 5.5304 0
M  V30 7864 H 732.158 -5.35559 3.7883 0
M  V30 7865 H 732.075 -5.17611 5.51013 0
M  V30 7866 H 733.343 -6.13572 4.8078 0
M  V30 7867 N 737.572 -1.44907 -0.619662 0
M  V30 7868 C 738.522 -1.49085 -1.72504 0
M  V30 7869 C 739.506 -0.355372 -1.56926 0
M  V30 7870 O 740.698 -0.601441 -1.66468 0
M  V30 7871 C 737.827 -1.44889 -3.11227 0
M  V30 7872 C 736.913 -2.63593 -3.32234 0
M  V30 7873 N 737.304 -3.88775 -3.23555 0
M  V30 7874 C 735.602 -2.59033 -3.63067 0
M  V30 7875 C 736.303 -4.67932 -3.45564 0
M  V30 7876 N 735.279 -3.9919 -3.68983 0
M  V30 7877 H 739.081 -2.43706 -1.6427 0
M  V30 7878 H 736.595 -1.4003 -0.82252 0
M  V30 7879 H 738.592 -1.45966 -3.90512 0
M  V30 7880 H 737.252 -0.513143 -3.2062 0
M  V30 7881 H 738.263 -4.20574 -3.02221 0
M  V30 7882 H 734.94 -1.7431 -3.79371 0
M  V30 7883 H 736.33 -5.76952 -3.44349 0
M  V30 7884 N 739.05 0.861098 -1.31996 0
M  V30 7885 C 740.461 1.43065 -1.19955 0
M  V30 7886 C 740.812 1.95273 0.190489 0
M  V30 7887 O 739.937 1.87012 1.08882 0
M  V30 7888 C 740.532 2.60052 -2.1716 0
M  V30 7889 C 739.091 3.13026 -2.09026 0
M  V30 7890 C 738.238 1.85756 -2.05888 0
M  V30 7891 H 741.189 0.668834 -1.43918 0
M  V30 7892 H 741.21 3.37016 -1.76637 0
M  V30 7893 H 740.722 2.22024 -3.18319 0
M  V30 7894 H 738.823 3.55653 -1.11092 0
M  V30 7895 H 738.936 3.74707 -2.98549 0
M  V30 7896 H 737.3 2.05088 -1.51033 0
M  V30 7897 H 738.083 1.49954 -3.08818 0
M  V30 7898 N 740.528 1.15101 1.07655 0
M  V30 7899 C 741.438 0.858869 2.18313 0
M  V30 7900 C 742.454 -0.163641 1.73229 0
M  V30 7901 O 743.63 0.00969541 2.01398 0
M  V30 7902 C 740.695 0.34893 3.4494 0
M  V30 7903 C 739.756 1.43495 4.04608 0
M  V30 7904 C 738.989 0.949253 5.2519 0
M  V30 7905 O 739.212 -0.20636 5.70027 0
M  V30 7906 O 738.146 1.73161 5.76454 0
M  V30 7907 H 741.972 1.78386 2.45788 0
M  V30 7908 H 739.557 0.929876 1.16934 0
M  V30 7909 H 741.439 0.070851 4.2134 0
M  V30 7910 H 740.114 -0.548237 3.19024 0
M  V30 7911 H 739.021 1.7666 3.29761 0
M  V30 7912 H 740.354 2.30692 4.3479 0
M  V30 7913 N 742.006 -1.2595 0.947325 0
M  V30 7914 C 742.969 -2.24407 0.466285 0
M  V30 7915 C 743.969 -1.55054 -0.426005 0
M  V30 7916 O 745.159 -1.7275 -0.224319 0
M  V30 7917 C 742.291 -3.39326 -0.327201 0
M  V30 7918 H 743.484 -2.68477 1.33642 0
M  V30 7919 H 741.037 -1.38211 0.729887 0
M  V30 7920 H 741.772 -3.00667 -1.21532 0
M  V30 7921 H 741.557 -3.9085 0.312839 0
M  V30 7922 H 743.047 -4.12455 -0.653477 0
M  V30 7923 N 743.484 -0.715051 -1.40445 0
M  V30 7924 C 744.431 -0.0621393 -2.30716 0
M  V30 7925 C 745.401 0.750871 -1.48159 0
M  V30 7926 O 746.586 0.714928 -1.76899 0
M  V30 7927 C 743.726 0.854036 -3.34365 0
M  V30 7928 C 742.839 0.0305565 -4.31989 0
M  V30 7929 C 741.974 0.946162 -5.22706 0
M  V30 7930 C 741.013 0.116741 -6.11989 0
M  V30 7931 N 740.15 0.987194 -6.95125 0
M  V30 7932 H 744.99 -0.83764 -2.85985 0
M  V30 7933 H 742.527 -0.424759 -1.40834 0
M  V30 7934 H 744.485 1.39946 -3.93028 0
M  V30 7935 H 743.115 1.59572 -2.806 0
M  V30 7936 H 742.167 -0.632044 -3.75112 0
M  V30 7937 H 743.479 -0.611615 -4.95036 0
M  V30 7938 H 742.633 1.56014 -5.86297 0
M  V30 7939 H 741.372 1.62216 -4.59932 0
M  V30 7940 H 740.377 -0.510176 -5.47428 0
M  V30 7941 H 741.602 -0.555742 -6.76822 0
M  V30 7942 H 739.548 1.64885 -6.3494 0
M  V30 7943 H 739.465 0.401046 -7.54936 0
M  V30 7944 H 740.733 1.58737 -7.63166 0
M  V30 7945 N 744.962 1.50701 -0.461195 0
M  V30 7946 C 746.378 1.59187 -0.114786 0
M  V30 7947 C 746.578 1.4702 1.37794 0
M  V30 7948 O 745.634 1.32361 2.15027 0
M  V30 7949 C 746.947 2.93453 -0.656167 0
M  V30 7950 C 748.495 3.06824 -0.618715 0
M  V30 7951 C 748.97 4.4365 -1.13747 0
M  V30 7952 N 750.461 4.50035 -1.09646 0
M  V30 7953 C 751.196 5.54278 -1.46846 0
M  V30 7954 N 750.692 6.65822 -1.91448 0
M  V30 7955 N 752.485 5.44767 -1.38512 0
M  V30 7956 H 744.636 1.56853 -1.43216 0
M  V30 7957 H 746.899 0.740712 -0.59165 0
M  V30 7958 H 746.605 3.07802 -1.7015 0
M  V30 7959 H 746.479 3.77082 -0.0942261 0
M  V30 7960 H 748.866 2.92129 0.417685 0
M  V30 7961 H 748.947 2.24976 -1.21734 0
M  V30 7962 H 748.591 4.59093 -2.17245 0
M  V30 7963 H 748.521 5.24074 -0.515153 0
M  V30 7964 H 751.012 3.69988 -0.769217 0
M  V30 7965 H 751.325 7.41413 -2.18007 0
M  V30 7966 H 749.67 6.66968 -1.95393 0
M  V30 7967 H 752.861 4.56511 -1.03516 0
M  V30 7968 H 753.034 6.25889 -1.6783 0
M  V30 7969 N 746.441 0.193421 1.56409 0
M  V30 7970 C 747.374 -0.767384 2.1491 0
M  V30 7971 C 748.352 -1.21075 1.08534 0
M  V30 7972 O 749.536 -1.29856 1.36637 0
M  V30 7973 C 746.663 -2.03615 2.70663 0
M  V30 7974 C 745.709 -1.73505 3.89613 0
M  V30 7975 S 746.542 -0.884645 5.28142 0
M  V30 7976 C 747.698 -2.1636 5.87315 0
M  V30 7977 H 747.931 -0.270053 2.96071 0
M  V30 7978 H 745.464 -0.0215546 1.54385 0
M  V30 7979 H 747.422 -2.7648 3.03429 0
M  V30 7980 H 746.083 -2.50461 1.89547 0
M  V30 7981 H 745.276 -2.67701 4.27027 0
M  V30 7982 H 744.878 -1.08723 3.57848 0
M  V30 7983 H 747.17 -3.11629 6.01576 0
M  V30 7984 H 748.113 -1.8338 6.83943 0
M  V30 7985 H 748.521 -2.29129 5.15907 0
M  V30 7986 N 747.919 -1.57396 -0.0801906 0
M  V30 7987 C 749.33 -1.75642 -0.633002 0
M  V30 7988 C 749.681 -0.817708 -1.78348 0
M  V30 7989 O 748.806 0.000233743 -2.164 0
M  V30 7990 C 749.401 -3.18502 -1.15507 0
M  V30 7991 C 747.96 -3.38121 -1.65381 0
M  V30 7992 C 747.107 -2.71386 -0.569661 0
M  V30 7993 H 750.058 -1.58027 0.145949 0
M  V30 7994 H 750.079 -3.22198 -2.02408 0
M  V30 7995 H 749.591 -3.86799 -0.317515 0
M  V30 7996 H 747.692 -2.74926 -2.51488 0
M  V30 7997 H 747.805 -4.46521 -1.73654 0
M  V30 7998 H 746.169 -2.33702 -1.0127 0
M  V30 7999 H 746.952 -3.42332 0.257561 0
M  V30 8000 N 749.397 0.351382 -1.53633 0
M  V30 8001 C 750.637 1.10102 -1.72212 0
M  V30 8002 C 751.001 1.86128 -0.471198 0
M  V30 8003 O 752.202 2.63445 -0.533887 0
M  V30 8004 C 750.473 2.02348 -2.94602 0
M  V30 8005 S 752.032 2.84641 -3.33954 0
M  V30 8006 H 748.85 0.372145 -0.60583 0
M  V30 8007 H 751.452 0.38044 -1.91763 0
M  V30 8008 H 750.156 1.45283 -3.83824 0
M  V30 8009 H 749.687 2.78856 -2.77493 0
M  V30 8010 H 751.702 4.04724 -2.87076 0
M  V30 8011 N 750.875 1.45233 0.611969 0
M  V30 8012 C 751.838 1.53189 1.70487 0
M  V30 8013 C 752.838 0.411839 1.55437 0
M  V30 8014 O 754.028 0.675164 1.60584 0
M  V30 8015 C 751.16 1.42422 3.09723 0
M  V30 8016 H 752.353 2.5056 1.64802 0
M  V30 8017 H 749.906 1.32609 0.827318 0
M  V30 8018 H 750.641 0.462185 3.2099 0
M  V30 8019 H 750.426 2.23658 3.22055 0
M  V30 8020 H 751.916 1.51012 3.89339 0
M  V30 8021 N 752.353 -0.854086 1.3245 0
M  V30 8022 C 753.263 -1.99503 1.23434 0
M  V30 8023 C 754.279 -1.73371 0.147828 0
M  V30 8024 O 755.455 -1.97998 0.368609 0
M  V30 8025 C 752.52 -3.33192 0.958328 0
M  V30 8026 C 751.581 -3.72542 2.13333 0
M  V30 8027 C 750.814 -4.99852 1.8704 0
M  V30 8028 O 751.037 -5.64573 0.813239 0
M  V30 8029 O 749.971 -5.36345 2.73161 0
M  V30 8030 H 753.797 -2.10046 2.1935 0
M  V30 8031 H 751.382 -0.984823 1.12346 0
M  V30 8032 H 753.264 -4.13327 0.820918 0
M  V30 8033 H 751.939 -3.23687 0.0293299 0
M  V30 8034 H 750.846 -2.92981 2.32622 0
M  V30 8035 H 752.179 -3.86694 3.04514 0
M  V30 8036 N 753.831 -1.1567 -1.07043 0
M  V30 8037 C 755.108 -0.843948 -1.76456 0
M  V30 8038 C 755.488 0.659806 -2.00524 0
M  V30 8039 O 754.836 1.60518 -1.62623 0
M  V30 8040 C 755.046 -1.65822 -3.0709 0
M  V30 8041 C 756.394 -1.8664 -3.8138 0
M  V30 8042 O 757.418 -1.62624 -3.1691 0
M  V30 8043 O 756.277 -2.26884 -4.97178 0
M  V30 8044 H 753.371 -0.310677 -0.766426 0
M  V30 8045 H 755.917 -1.26266 -1.1338 0
M  V30 8046 H 754.689 -2.67902 -2.85209 0
M  V30 8047 H 754.312 -1.23605 -3.77899 0
M  V30 8048 N 755.309 1.25446 -0.953992 0
M  V30 8049 C 756.539 1.96929 -0.624688 0
M  V30 8050 C 756.947 1.71112 0.807292 0
M  V30 8051 O 756.29 0.983512 1.55154 0
M  V30 8052 C 756.352 3.50425 -0.802676 0
M  V30 8053 C 756.016 3.99916 -2.21169 0
M  V30 8054 C 757.013 4.10662 -3.18831 0
M  V30 8055 C 754.698 4.33598 -2.53571 0
M  V30 8056 C 756.692 4.54401 -4.46988 0
M  V30 8057 C 754.379 4.77024 -3.81958 0
M  V30 8058 C 755.377 4.87388 -4.78478 0
M  V30 8059 O 755.065 5.29851 -6.04577 0
M  V30 8060 H 754.797 0.634511 -0.233179 0
M  V30 8061 H 757.351 1.60591 -1.28061 0
M  V30 8062 H 755.581 3.86596 -0.0896044 0
M  V30 8063 H 757.27 4.03117 -0.47452 0
M  V30 8064 H 758.036 3.84872 -2.95124 0
M  V30 8065 H 753.915 4.24757 -1.79171 0
M  V30 8066 H 757.459 4.62406 -5.22328 0
M  V30 8067 H 753.356 5.02258 -4.05471 0
M  V30 8068 H 754.124 5.48039 -6.07944 0
M  V30 8069 N 756.787 0.722489 1.40064 0
M  V30 8070 C 757.717 0.0892452 2.33329 0
M  V30 8071 C 758.698 -0.737992 1.53257 0
M  V30 8072 O 759.883 -0.685516 1.81698 0
M  V30 8073 C 757.013 -0.828139 3.37282 0
M  V30 8074 C 755.967 -0.106005 4.27869 0
M  V30 8075 C 755.293 -1.13957 5.22415 0
M  V30 8076 C 756.593 1.04395 5.11761 0
M  V30 8077 H 758.287 0.868269 2.86534 0
M  V30 8078 H 755.833 0.418982 1.3777 0
M  V30 8079 H 757.786 -1.28058 4.01471 0
M  V30 8080 H 756.51 -1.63914 2.82489 0
M  V30 8081 H 755.169 0.326683 3.65142 0
M  V30 8082 H 754.817 -1.9438 4.63924 0
M  V30 8083 H 754.517 -0.661233 5.83868 0
M  V30 8084 H 756.041 -1.59197 5.89482 0
M  V30 8085 H 757.455 0.670541 5.69365 0
M  V30 8086 H 755.852 1.4511 5.82291 0
M  V30 8087 H 756.922 1.87144 4.47331 0
M  V30 8088 N 758.265 -1.50454 0.469181 0
M  V30 8089 C 759.49 -2.0722 -0.0864892 0
M  V30 8090 C 759.915 -1.33098 -1.32916 0
M  V30 8091 O 759.273 -0.378084 -1.77314 0
M  V30 8092 C 759.321 -3.58845 -0.355384 0
M  V30 8093 O 758.425 -3.86583 -1.43622 0
M  V30 8094 H 757.766 -0.663889 0.0121414 0
M  V30 8095 H 760.296 -1.93674 0.659674 0
M  V30 8096 H 760.306 -4.03617 -0.596447 0
M  V30 8097 H 758.981 -4.12211 0.552698 0
M  V30 8098 H 757.558 -3.5365 -1.18262 0
M  V30 8099 N 759.743 -0.201713 -1.56304 0
M  V30 8100 C 760.989 0.435952 -1.98059 0
M  V30 8101 C 761.322 1.60811 -1.08873 0
M  V30 8102 O 760.597 1.9398 -0.142128 0
M  V30 8103 C 760.88 0.889706 -3.48936 0
M  V30 8104 C 760.733 -0.284725 -4.48898 0
M  V30 8105 C 762.052 1.7529 -4.03685 0
M  V30 8106 H 759.171 0.15699 -0.720085 0
M  V30 8107 H 761.813 -0.293965 -1.87712 0
M  V30 8108 H 759.963 1.51166 -3.57884 0
M  V30 8109 H 761.635 -0.922531 -4.51981 0
M  V30 8110 H 759.878 -0.935427 -4.23594 0
M  V30 8111 H 760.549 0.0753865 -5.51949 0
M  V30 8112 H 763.025 1.2283 -3.97558 0
M  V30 8113 H 761.901 2.03933 -5.0961 0
M  V30 8114 H 762.162 2.70939 -3.49348 0
M  V30 8115 N 761.222 1.57436 0.0718424 0
M  V30 8116 C 762.468 1.87525 0.772149 0
M  V30 8117 C 762.801 0.79399 1.77227 0
M  V30 8118 O 762.076 -0.195733 1.93513 0
M  V30 8119 C 762.359 3.28272 1.48018 0
M  V30 8120 C 762.212 4.47052 0.49647 0
M  V30 8121 C 763.531 3.67256 2.42509 0
M  V30 8122 H 760.65 0.682049 0.279245 0
M  V30 8123 H 763.292 1.89967 0.03534 0
M  V30 8124 H 761.442 3.26321 2.10824 0
M  V30 8125 H 763.114 4.61127 -0.126375 0
M  V30 8126 H 761.357 4.33392 -0.188205 0
M  V30 8127 H 762.028 5.42315 1.02949 0
M  V30 8128 H 764.504 3.70301 1.89781 0
M  V30 8129 H 763.38 4.66626 2.89053 0
M  V30 8130 H 763.641 2.97186 3.27312 0
M  V30 8131 N 762.7 -0.34323 1.53817 0
M  V30 8132 C 763.63 -1.42709 1.84814 0
M  V30 8133 C 764.611 -1.5488 0.703297 0
M  V30 8134 O 765.796 -1.69082 0.955237 0
M  V30 8135 C 762.926 -2.79756 2.05801 0
M  V30 8136 C 761.88 -2.82392 3.21619 0
M  V30 8137 C 761.206 -4.22326 3.2794 0
M  V30 8138 C 762.506 -2.479 4.59721 0
M  V30 8139 H 764.2 -1.17018 2.75585 0
M  V30 8140 H 761.746 -0.561485 1.32602 0
M  V30 8141 H 763.699 -3.55627 2.26069 0
M  V30 8142 H 762.423 -3.06883 1.11761 0
M  V30 8143 H 761.082 -2.08974 3.01207 0
M  V30 8144 H 760.73 -4.46564 2.31494 0
M  V30 8145 H 760.43 -4.25001 4.05768 0
M  V30 8146 H 761.954 -5.00039 3.50419 0
M  V30 8147 H 763.368 -3.13484 4.80001 0
M  V30 8148 H 761.765 -2.61857 5.39954 0
M  V30 8149 H 762.835 -1.43087 4.63308 0
M  V30 8150 N 764.178 -1.45556 -0.604258 0
M  V30 8151 C 765.126 -1.5482 -1.7359 0
M  V30 8152 C 766.12 -0.417966 -1.64163 0
M  V30 8153 O 767.326 -0.594007 -1.69916 0
M  V30 8154 H 763.701 -0.486352 -0.573556 0
M  V30 8155 H 765.672 -2.5001 -1.62903 0
M  V30 8156 C 764.421 -1.53521 -3.11972 0
M  V30 8157 H 763.744 -2.39818 -3.19886 0
M  V30 8158 H 765.184 -1.64061 -3.90973 0
M  V30 8159 C 763.643 -0.260191 -3.35894 0
M  V30 8160 O 764.173 0.658582 -3.96265 0
M  V30 8161 N 762.379 -0.154839 -2.90187 0
M  V30 8162 H 761.926 -0.903378 -2.4124 0
M  V30 8163 H 761.884 0.697437 -3.06567 0
M  V30 8164 N 765.656 0.84705 -1.32902 0
M  V30 8165 C 766.588 1.96308 -1.18304 0
M  V30 8166 C 767.601 1.62386 -0.116082 0
M  V30 8167 O 768.79 1.74713 -0.365751 0
M  V30 8168 C 765.89 3.29556 -0.790305 0
M  V30 8169 C 765.063 3.91668 -1.94717 0
M  V30 8170 C 764.122 5.0326 -1.53674 0
M  V30 8171 O 763.148 5.22847 -2.24989 0
M  V30 8172 N 764.35 5.78852 -0.437075 0
M  V30 8173 H 767.115 2.09369 -2.14441 0
M  V30 8174 H 764.676 1.02233 -1.25539 0
M  V30 8175 H 766.668 4.01624 -0.49799 0
M  V30 8176 H 765.238 3.12497 0.0801286 0
M  V30 8177 H 764.458 3.12292 -2.40557 0
M  V30 8178 H 765.746 4.299 -2.72146 0
M  V30 8179 H 765.144 5.65484 0.156316 0
M  V30 8180 H 763.701 6.51479 -0.204399 0
M  V30 8181 N 767.134 1.16236 1.06428 0
M  V30 8182 C 768.064 0.890807 2.1584 0
M  V30 8183 C 769.045 -0.162333 1.69324 0
M  V30 8184 O 770.23 -0.0147191 1.94194 0
M  V30 8185 C 767.36 0.389615 3.45108 0
M  V30 8186 C 766.314 1.38051 4.05125 0
M  V30 8187 C 765.64 0.737773 5.29586 0
M  V30 8188 C 766.94 2.74965 4.44062 0
M  V30 8189 H 768.634 1.80577 2.38814 0
M  V30 8190 H 766.18 0.869657 1.14774 0
M  V30 8191 H 768.133 0.187127 4.20984 0
M  V30 8192 H 766.857 -0.560851 3.21748 0
M  V30 8193 H 765.516 1.56952 3.31303 0
M  V30 8194 H 765.164 -0.219135 5.02522 0
M  V30 8195 H 764.864 1.39914 5.70699 0
M  V30 8196 H 766.388 0.545275 6.0816 0
M  V30 8197 H 767.802 2.59855 5.11027 0
M  V30 8198 H 766.199 3.37563 4.96156 0
M  V30 8199 H 767.269 3.30321 3.54987 0
M  V30 8200 N 768.612 -1.24939 0.960631 0
M  V30 8201 C 769.852 -1.94565 0.626414 0
M  V30 8202 C 770.216 -1.73505 -0.822184 0
M  V30 8203 O 771.417 -2.37105 -1.26628 0
M  V30 8204 C 769.688 -3.43631 0.982462 0
M  V30 8205 S 771.247 -4.32138 0.761726 0
M  V30 8206 H 768.065 -0.672757 0.230043 0
M  V30 8207 H 770.667 -1.51464 1.23608 0
M  V30 8208 H 769.371 -3.56463 2.03377 0
M  V30 8209 H 768.902 -3.91719 0.363286 0
M  V30 8210 H 770.917 -4.94859 -0.364493 0
M  V30 8211 N 770.09 -0.729906 -1.39679 0
M  V30 8212 C 771.336 -0.27603 -2.00913 0
M  V30 8213 C 771.669 1.13227 -1.57776 0
M  V30 8214 O 770.944 1.7709 -0.804319 0
M  V30 8215 C 771.227 -0.372157 -3.58172 0
M  V30 8216 C 771.08 -1.81986 -4.11341 0
M  V30 8217 C 772.399 0.248378 -4.39399 0
M  V30 8218 H 769.518 -0.101773 -0.729939 0
M  V30 8219 H 772.16 -0.925104 -1.65957 0
M  V30 8220 H 770.31 0.180459 -3.88081 0
M  V30 8221 H 771.982 -2.42896 -3.92172 0
M  V30 8222 H 770.225 -2.34287 -3.65092 0
M  V30 8223 H 770.896 -1.83842 -5.20486 0
M  V30 8224 H 773.372 -0.222645 -4.15504 0
M  V30 8225 H 772.248 0.150746 -5.48693 0
M  V30 8226 H 772.509 1.33378 -4.21501 0
M  V30 8227 N 771.568 1.50203 -0.477153 0
M  V30 8228 C 772.498 2.31517 0.303646 0
M  V30 8229 C 773.479 1.38696 0.984753 0
M  V30 8230 O 774.664 1.67615 0.980758 0
M  V30 8231 C 771.794 3.18598 1.38249 0
M  V30 8232 C 770.748 4.2002 0.822645 0
M  V30 8233 C 770.074 4.95878 2.00024 0
M  V30 8234 C 771.374 5.22023 -0.170185 0
M  V30 8235 H 773.068 2.97042 -0.375027 0
M  V30 8236 H 770.614 1.42848 -0.181802 0
M  V30 8237 H 772.567 3.74282 1.93625 0
M  V30 8238 H 771.291 2.5097 2.09002 0
M  V30 8239 H 769.95 3.65445 0.290813 0
M  V30 8240 H 769.598 4.24717 2.69489 0
M  V30 8241 H 769.298 5.64487 1.63183 0
M  V30 8242 H 770.822 5.54399 2.55878 0
M  V30 8243 H 772.236 5.72543 0.294606 0
M  V30 8244 H 770.633 5.98386 -0.453181 0
M  V30 8245 H 771.703 4.72396 -1.09408 0
M  V30 8246 N 773.046 0.209999 1.56195 0
M  V30 8247 C 773.996 -0.717978 2.164 0
M  V30 8248 C 774.98 -1.16577 1.10899 0
M  V30 8249 O 776.172 -1.12169 1.3692 0
M  V30 8250 C 773.301 -1.93091 2.8385 0
M  V30 8251 C 772.387 -1.50333 3.96561 0
M  V30 8252 N 772.778 -0.787621 4.9963 0
M  V30 8253 C 771.076 -1.79151 4.08437 0
M  V30 8254 C 771.777 -0.571204 5.78889 0
M  V30 8255 N 770.753 -1.12444 5.31843 0
M  V30 8256 H 774.555 -0.162603 2.9345 0
M  V30 8257 H 772.069 0.0107928 1.62396 0
M  V30 8258 H 774.066 -2.60635 3.25384 0
M  V30 8259 H 772.726 -2.49087 2.08293 0
M  V30 8260 H 773.737 -0.441513 5.16015 0
M  V30 8261 H 770.414 -2.36549 3.44022 0
M  V30 8262 H 771.804 -0.00237941 6.719 0
M  V30 8263 N 774.524 -1.57472 -0.0634922 0
M  V30 8264 C 775.434 -2.07621 -1.09227 0
M  V30 8265 C 776.45 -1.00746 -1.41867 0
M  V30 8266 O 777.626 -1.32269 -1.51878 0
M  V30 8267 C 774.691 -2.51707 -2.38421 0
M  V30 8268 C 773.752 -3.72917 -2.12676 0
M  V30 8269 C 772.985 -4.14891 -3.3571 0
M  V30 8270 O 773.208 -3.56663 -4.45137 0
M  V30 8271 O 772.142 -5.07616 -3.23434 0
M  V30 8272 H 775.968 -2.95612 -0.696205 0
M  V30 8273 H 773.553 -1.46787 -0.27819 0
M  V30 8274 H 775.435 -2.80547 -3.14438 0
M  V30 8275 H 774.11 -1.66842 -2.77391 0
M  V30 8276 H 773.017 -3.49148 -1.34337 0
M  V30 8277 H 774.35 -4.5866 -1.78583 0
M  V30 8278 N 776.003 0.335068 -1.53997 0
M  V30 8279 C 776.95 1.41187 -1.82579 0
M  V30 8280 C 777.92 1.51897 -0.672061 0
M  V30 8281 O 779.105 1.673 -0.917346 0
M  V30 8282 C 776.245 2.77717 -2.0486 0
M  V30 8283 C 775.358 2.7573 -3.32561 0
M  V30 8284 C 774.493 4.04032 -3.44864 0
M  V30 8285 C 773.532 3.96308 -4.66483 0
M  V30 8286 N 772.669 5.16317 -4.75774 0
M  V30 8287 H 777.509 1.16113 -2.74448 0
M  V30 8288 H 775.046 0.562305 -1.35928 0
M  V30 8289 H 777.004 3.57071 -2.15768 0
M  V30 8290 H 775.634 3.01124 -1.16294 0
M  V30 8291 H 774.686 1.88432 -3.3045 0
M  V30 8292 H 775.998 2.65902 -4.22016 0
M  V30 8293 H 775.152 4.91814 -3.55251 0
M  V30 8294 H 773.891 4.16652 -2.53481 0
M  V30 8295 H 772.896 3.06911 -4.56164 0
M  V30 8296 H 774.121 3.85263 -5.5924 0
M  V30 8297 H 772.067 5.29464 -3.87303 0
M  V30 8298 H 771.984 5.08779 -5.59178 0
M  V30 8299 H 773.252 6.05846 -4.9048 0
M  V30 8300 N 777.481 1.45874 0.596531 0
M  V30 8301 C 778.709 1.54013 1.38158 0
M  V30 8302 C 779.124 0.17648 1.87973 0
M  V30 8303 O 778.481 -0.823895 1.62844 0
M  V30 8304 C 778.532 2.53363 2.57855 0
M  V30 8305 O 778.253 3.8443 2.10108 0
M  V30 8306 C 779.754 2.71308 3.50581 0
M  V30 8307 H 776.974 0.521251 0.422538 0
M  V30 8308 H 779.518 1.9116 0.726493 0
M  V30 8309 H 777.673 2.19257 3.19382 0
M  V30 8310 H 778.087 4.38384 2.87958 0
M  V30 8311 H 779.561 3.44776 4.31084 0
M  V30 8312 H 780.038 1.77728 4.01633 0
M  V30 8313 H 780.644 3.06455 2.94899 0
M  V30 8314 N 778.959 -0.83999 1.33349 0
M  V30 8315 C 780.37 -1.41139 1.22216 0
M  V30 8316 C 780.721 -1.95551 -0.159398 0
M  V30 8317 O 779.846 -1.88721 -1.05893 0
M  V30 8318 C 780.441 -2.56564 2.21269 0
M  V30 8319 C 779 -3.09661 2.13979 0
M  V30 8320 C 778.147 -1.82457 2.08818 0
M  V30 8321 H 781.098 -0.645853 1.44964 0
M  V30 8322 H 781.119 -3.34163 1.81976 0
M  V30 8323 H 780.631 -2.16932 3.21811 0
M  V30 8324 H 778.732 -3.53841 1.16736 0
M  V30 8325 H 778.845 -3.6991 3.04472 0
M  V30 8326 H 777.209 -2.0266 1.54276 0
M  V30 8327 H 777.992 -1.45022 3.11165 0
M  V30 8328 N 780.437 -1.16799 -1.0581 0
M  V30 8329 C 781.683 -0.953935 -1.78963 0
M  V30 8330 C 782.016 0.516638 -1.87202 0
M  V30 8331 O 781.291 1.38338 -1.36721 0
M  V30 8332 C 781.574 -1.58808 -3.23191 0
M  V30 8333 C 781.427 -3.13032 -3.23003 0
M  V30 8334 C 782.746 -1.2868 -4.20867 0
M  V30 8335 H 779.865 -0.347972 -0.64968 0
M  V30 8336 H 782.507 -1.44204 -1.23715 0
M  V30 8337 H 780.657 -1.17303 -3.70368 0
M  V30 8338 H 782.329 -3.63553 -2.83949 0
M  V30 8339 H 780.572 -3.46108 -2.61518 0
M  V30 8340 H 781.243 -3.52527 -4.24769 0
M  V30 8341 H 783.719 -1.6461 -3.82155 0
M  V30 8342 H 782.595 -1.75645 -5.20038 0
M  V30 8343 H 782.856 -0.206491 -4.41618 0
M  V30 8344 N 781.915 1.24427 -0.967243 0
M  V30 8345 C 783.14 1.9708 -0.646069 0
M  V30 8346 C 783.565 1.71272 0.777665 0
M  V30 8347 O 782.923 0.976179 1.52776 0
M  V30 8348 C 782.971 3.48501 -0.926266 0
M  V30 8349 O 782.075 4.12398 -0.0114653 0
M  V30 8350 H 781.416 0.617423 -0.244304 0
M  V30 8351 H 783.946 1.58215 -1.29727 0
M  V30 8352 H 783.956 3.98885 -0.857619 0
M  V30 8353 H 782.631 3.66613 -1.96386 0
M  V30 8354 H 781.208 3.72661 -0.133396 0
M  V30 8355 N 783.393 0.737304 1.3929 0
M  V30 8356 C 784.67 0.212464 1.94443 0
M  V30 8357 C 785.05 -1.28621 1.67391 0
M  V30 8358 O 784.398 -2.0529 1.00342 0
M  V30 8359 C 784.608 0.548565 3.44662 0
M  V30 8360 C 785.956 0.499177 4.21656 0
M  V30 8361 O 786.98 0.485892 3.5287 0
M  V30 8362 O 785.839 0.495739 5.44247 0
M  V30 8363 H 782.933 0.0395457 0.826054 0
M  V30 8364 H 785.479 0.816319 1.48776 0
M  V30 8365 H 784.251 1.58426 3.57795 0
M  V30 8366 H 783.874 -0.0841399 3.97511 0
M  V30 8367 N 784.871 -1.49948 0.485112 0
M  V30 8368 C 786.287 -1.58984 0.140096 0
M  V30 8369 C 786.487 -1.49194 -1.35438 0
M  V30 8370 O 785.543 -1.35765 -2.12894 0
M  V30 8371 C 786.856 -2.92372 0.702769 0
M  V30 8372 C 788.404 -3.05801 0.66745 0
M  V30 8373 C 788.879 -4.41785 1.20791 0
M  V30 8374 N 790.37 -4.48234 1.16792 0
M  V30 8375 C 791.105 -5.51871 1.55646 0
M  V30 8376 N 790.601 -6.62692 2.02016 0
M  V30 8377 N 792.394 -5.42494 1.47161 0
M  V30 8378 H 784.545 -1.54555 1.45693 0
M  V30 8379 H 786.808 -0.731206 0.603359 0
M  V30 8380 H 786.514 -3.05056 1.75025 0
M  V30 8381 H 786.388 -3.76885 0.154205 0
M  V30 8382 H 788.775 -2.92757 -0.371157 0
M  V30 8383 H 788.856 -2.23011 1.25298 0
M  V30 8384 H 788.5 -4.55579 2.24522 0
M  V30 8385 H 788.43 -5.23188 0.598464 0
M  V30 8386 H 790.921 -3.68718 0.827982 0
M  V30 8387 H 791.234 -7.3785 2.29775 0
M  V30 8388 H 789.579 -6.63775 2.05979 0
M  V30 8389 H 792.77 -4.54806 1.10765 0
M  V30 8390 H 792.943 -6.2314 1.77766 0
M  V30 8391 N 786.349 -0.21828 -1.56081 0
M  V30 8392 C 787.595 0.414921 -1.9851 0
M  V30 8393 C 787.928 1.59648 -1.10573 0
M  V30 8394 O 787.203 1.93818 -0.162695 0
M  V30 8395 C 787.486 0.852647 -3.4986 0
M  V30 8396 C 787.339 -0.33232 -4.48571 0
M  V30 8397 C 788.658 1.70998 -4.05521 0
M  V30 8398 H 785.777 0.149344 -0.72171 0
M  V30 8399 H 788.419 -0.313858 -1.8739 0
M  V30 8400 H 786.569 1.47362 -3.59467 0
M  V30 8401 H 788.241 -0.970418 -4.50977 0
M  V30 8402 H 786.484 -0.980302 -4.22578 0
M  V30 8403 H 787.155 0.0168407 -5.51997 0
M  V30 8404 H 789.631 1.18606 -3.98838 0
M  V30 8405 H 788.507 1.98517 -5.11744 0
M  V30 8406 H 788.768 2.67219 -3.52202 0
M  V30 8407 N 787.827 1.57504 0.0551401 0
M  V30 8408 C 789.055 1.92294 0.76358 0
M  V30 8409 C 789.47 0.815774 1.70266 0
M  V30 8410 O 788.827 -0.209772 1.8129 0
M  V30 8411 C 788.878 3.26914 1.54302 0
M  V30 8412 O 788.599 4.33375 0.641666 0
M  V30 8413 C 790.1 3.75825 2.35097 0
M  V30 8414 H 787.32 0.635229 0.216159 0
M  V30 8415 H 789.864 2.0449 0.0204385 0
M  V30 8416 H 788.019 3.16196 2.23828 0
M  V30 8417 H 788.433 5.10927 1.1855 0
M  V30 8418 H 789.907 4.72603 2.8522 0
M  V30 8419 H 790.384 3.0568 3.15367 0
M  V30 8420 H 790.99 3.89542 1.70696 0
M  V30 8421 N 789.305 -0.326896 1.54172 0
M  V30 8422 C 790.252 -1.40216 1.83325 0
M  V30 8423 C 791.222 -1.51538 0.680107 0
M  V30 8424 O 792.407 -1.66811 0.926206 0
M  V30 8425 C 789.547 -2.76626 2.0633 0
M  V30 8426 C 788.66 -2.73963 3.34019 0
M  V30 8427 C 787.795 -4.02198 3.47002 0
M  V30 8428 C 786.834 -3.93828 4.68578 0
M  V30 8429 N 785.971 -5.13787 4.78506 0
M  V30 8430 H 790.811 -1.14656 2.7506 0
M  V30 8431 H 788.348 -0.555089 1.36225 0
M  V30 8432 H 790.306 -3.55922 2.17659 0
M  V30 8433 H 788.936 -3.00503 1.1789 0
M  V30 8434 H 787.988 -1.86677 3.31445 0
M  V30 8435 H 789.3 -2.6366 4.2342 0
M  V30 8436 H 788.454 -4.89923 3.57855 0
M  V30 8437 H 787.193 -4.15302 2.55687 0
M  V30 8438 H 786.198 -3.04487 4.57786 0
M  V30 8439 H 787.423 -3.82292 5.61275 0
M  V30 8440 H 785.369 -5.27403 3.90105 0
M  V30 8441 H 785.286 -5.05807 5.61868 0
M  V30 8442 H 786.554 -6.03236 4.93686 0
M  V30 8443 N 790.784 -1.46188 -0.588786 0
M  V30 8444 C 792.024 -1.52738 -1.35833 0
M  V30 8445 C 792.388 -0.172403 -1.91224 0
M  V30 8446 O 793.589 -0.112633 -2.68564 0
M  V30 8447 C 791.86 -2.59085 -2.4619 0
M  V30 8448 S 793.419 -2.84997 -3.3365 0
M  V30 8449 H 790.237 -0.539713 -0.462851 0
M  V30 8450 H 792.839 -1.83386 -0.677489 0
M  V30 8451 H 791.543 -3.56177 -2.03878 0
M  V30 8452 H 791.074 -2.3015 -3.19053 0
M  V30 8453 H 793.089 -2.19804 -4.4486 0
M  V30 8454 N 792.262 0.832906 -1.33792 0
M  V30 8455 C 793.502 1.60217 -1.26925 0
M  V30 8456 C 793.866 1.91323 0.161146 0
M  V30 8457 O 795.067 2.66461 0.353864 0
M  V30 8458 C 793.338 2.87314 -2.12568 0
M  V30 8459 S 794.897 3.77939 -2.22952 0
M  V30 8460 H 791.715 0.549273 -0.451464 0
M  V30 8461 H 794.317 0.984648 -1.68893 0
M  V30 8462 H 793.021 2.62444 -3.15518 0
M  V30 8463 H 792.552 3.5407 -1.71459 0
M  V30 8464 H 794.567 4.76188 -1.39496 0
M  V30 8465 N 793.74 1.17359 1.05189 0
M  V30 8466 C 794.968 0.986529 1.81866 0
M  V30 8467 C 795.383 -0.46522 1.82979 0
M  V30 8468 O 794.74 -1.32305 1.25705 0
M  V30 8469 C 794.791 1.52021 3.27982 0
M  V30 8470 O 794.512 2.91511 3.27037 0
M  V30 8471 C 796.013 1.37774 4.21347 0
M  V30 8472 H 793.233 0.349021 0.573084 0
M  V30 8473 H 795.777 1.55648 1.32643 0
M  V30 8474 H 793.932 0.992287 3.74476 0
M  V30 8475 H 794.346 3.16178 4.18488 0
M  V30 8476 H 795.82 1.7993 5.21852 0
M  V30 8477 H 796.297 0.32483 4.37997 0
M  V30 8478 H 796.903 1.89583 3.80708 0
M  V30 8479 N 795.218 -1.23913 0.973828 0
M  V30 8480 C 796.128 -2.28838 0.516735 0
M  V30 8481 C 797.144 -1.68723 -0.425282 0
M  V30 8482 O 798.32 -1.99201 -0.296819 0
M  V30 8483 C 795.385 -3.46233 -0.179914 0
M  V30 8484 C 794.446 -4.21729 0.80269 0
M  V30 8485 C 793.679 -5.33518 0.139191 0
M  V30 8486 O 793.902 -5.60252 -1.07118 0
M  V30 8487 O 792.836 -5.96088 0.834447 0
M  V30 8488 H 796.662 -2.70067 1.38916 0
M  V30 8489 H 794.247 -1.2972 0.74115 0
M  V30 8490 H 796.129 -4.17514 -0.570991 0
M  V30 8491 H 794.804 -3.06969 -1.02721 0
M  V30 8492 H 793.711 -3.52799 1.24434 0
M  V30 8493 H 795.044 -4.64825 1.61859 0
M  V30 8494 N 796.696 -0.74468 -1.38897 0
M  V30 8495 C 797.921 -0.306119 -2.05128 0
M  V30 8496 C 798.346 1.0541 -1.55789 0
M  V30 8497 O 797.704 1.66993 -0.705909 0
M  V30 8498 C 797.752 -0.328195 -3.59103 0
M  V30 8499 O 796.856 0.680876 -4.06741 0
M  V30 8500 H 796.197 -0.137209 -0.649669 0
M  V30 8501 H 798.727 -1.01331 -1.77745 0
M  V30 8502 H 798.737 -0.175956 -4.0762 0
M  V30 8503 H 797.412 -1.32067 -3.94374 0
M  V30 8504 H 795.989 0.49398 -3.69614 0
M  V30 8505 N 798.174 1.49689 -0.493057 0
M  V30 8506 C 799.104 2.31826 0.279073 0
M  V30 8507 C 800.085 1.39733 0.969987 0
M  V30 8508 O 801.27 1.68646 0.962925 0
M  V30 8509 C 798.4 3.20046 1.34862 0
M  V30 8510 C 797.354 4.20869 0.77805 0
M  V30 8511 C 796.68 4.97971 1.94753 0
M  V30 8512 C 797.98 5.21813 -0.225543 0
M  V30 8513 H 799.674 2.96627 -0.406512 0
M  V30 8514 H 797.22 1.42647 -0.196943 0
M  V30 8515 H 799.173 3.76315 1.89645 0
M  V30 8516 H 797.897 2.53172 2.06328 0
M  V30 8517 H 796.556 3.65733 0.252036 0
M  V30 8518 H 796.204 4.27552 2.64969 0
M  V30 8519 H 795.904 5.66186 1.57187 0
M  V30 8520 H 797.428 5.57082 2.49984 0
M  V30 8521 H 798.842 5.72823 0.233864 0
M  V30 8522 H 797.239 5.97872 -0.516622 0
M  V30 8523 H 798.309 4.71209 -1.14412 0
M  V30 8524 N 799.652 0.226554 1.55963 0
M  V30 8525 C 800.898 -0.404387 1.98727 0
M  V30 8526 C 801.231 -1.59059 1.11418 0
M  V30 8527 O 800.506 -1.93729 0.172971 0
M  V30 8528 C 800.789 -0.834081 3.50307 0
M  V30 8529 C 800.642 0.356104 4.48388 0
M  V30 8530 C 801.961 -1.68845 4.06423 0
M  V30 8531 H 799.08 -0.145515 0.722492 0
M  V30 8532 H 801.722 0.323791 1.87221 0
M  V30 8533 H 799.872 -1.45454 3.60244 0
M  V30 8534 H 801.544 0.99432 4.50456 0
M  V30 8535 H 799.787 1.0027 4.22053 0
M  V30 8536 H 800.458 0.0124333 5.51999 0
M  V30 8537 H 802.934 -1.16489 3.99461 0
M  V30 8538 H 801.81 -1.958 5.1279 0
M  V30 8539 H 802.071 -2.65347 3.53615 0
M  V30 8540 N 801.13 -1.57531 -0.0467866 0
M  V30 8541 C 802.078 -2.06455 -1.0714 0
M  V30 8542 C 803.072 -0.974744 -1.38546 0
M  V30 8543 O 804.278 -1.15974 -1.37659 0
M  V30 8544 H 800.653 -0.658607 -0.362962 0
M  V30 8545 H 802.624 -2.91613 -0.632813 0
M  V30 8546 C 801.373 -2.54481 -2.36927 0
M  V30 8547 H 800.696 -3.37946 -2.13617 0
M  V30 8548 H 802.136 -2.92442 -3.07007 0
M  V30 8549 C 800.595 -1.43836 -3.04652 0
M  V30 8550 O 801.125 -0.794531 -3.93764 0
M  V30 8551 N 799.331 -1.17727 -2.65686 0
M  V30 8552 H 798.878 -1.70265 -1.93307 0
M  V30 8553 H 798.836 -0.439051 -3.11319 0
M  V30 8554 N 802.608 0.318715 -1.54344 0
M  V30 8555 C 804.024 0.663345 -1.45162 0
M  V30 8556 C 804.224 1.9145 -0.62842 0
M  V30 8557 O 803.28 2.5217 -0.129126 0
M  V30 8558 C 804.593 0.832836 -2.88937 0
M  V30 8559 C 806.141 0.929866 -2.98869 0
M  V30 8560 C 806.616 1.13149 -4.43803 0
M  V30 8561 N 808.107 1.19811 -4.47437 0
M  V30 8562 C 808.842 1.37209 -5.56742 0
M  V30 8563 N 808.338 1.51619 -6.76006 0
M  V30 8564 N 810.131 1.39956 -5.44398 0
M  V30 8565 H 802.282 -0.50357 -2.06344 0
M  V30 8566 H 804.545 -0.163528 -0.933789 0
M  V30 8567 H 804.251 -0.0153519 -3.51697 0
M  V30 8568 H 804.125 1.72721 -3.35332 0
M  V30 8569 H 806.512 1.76855 -2.36233 0
M  V30 8570 H 806.593 0.0118561 -2.55797 0
M  V30 8571 H 806.237 0.297636 -5.07027 0
M  V30 8572 H 806.167 2.06345 -4.84489 0
M  V30 8573 H 808.658 1.101 -3.61506 0
M  V30 8574 H 808.971 1.64599 -7.55067 0
M  V30 8575 H 807.316 1.48708 -6.78904 0
M  V30 8576 H 810.507 1.28298 -4.50175 0
M  V30 8577 H 810.68 1.53172 -6.29637 0
M  V30 8578 N 804.086 1.46499 0.581025 0
M  V30 8579 C 805.502 1.31491 0.904563 0
M  V30 8580 C 805.702 0.287598 1.99437 0
M  V30 8581 O 804.758 -0.309247 2.50599 0
M  V30 8582 C 806.071 2.70163 1.32032 0
M  V30 8583 C 807.619 2.78266 1.43308 0
M  V30 8584 C 808.094 4.17524 1.8825 0
M  V30 8585 N 809.585 4.19949 1.9544 0
M  V30 8586 C 810.32 5.24594 2.31493 0
M  V30 8587 N 809.816 6.39564 2.66326 0
M  V30 8588 N 811.609 5.11961 2.32062 0
M  V30 8589 H 803.76 2.11946 -0.138856 0
M  V30 8590 H 806.023 0.948 0.000548528 0
M  V30 8591 H 805.729 3.46655 0.593554 0
M  V30 8592 H 805.603 3.00379 2.2815 0
M  V30 8593 H 807.99 2.02061 2.15071 0
M  V30 8594 H 808.071 2.51732 0.45438 0
M  V30 8595 H 807.715 4.94225 1.17065 0
M  V30 8596 H 807.645 4.41466 2.87081 0
M  V30 8597 H 810.136 3.36996 1.71004 0
M  V30 8598 H 810.449 7.15187 2.92793 0
M  V30 8599 H 808.794 6.42923 2.6396 0
M  V30 8600 H 811.985 4.21177 2.04272 0
M  V30 8601 H 812.158 5.93626 2.5983 0
M  V30 8602 N 805.565 -0.825799 1.34232 0
M  V30 8603 C 806.976 -1.39835 1.23706 0
M  V30 8604 C 807.327 -1.95709 -0.138649 0
M  V30 8605 O 806.452 -1.89833 -1.03886 0
M  V30 8606 C 807.047 -2.54203 2.23978 0
M  V30 8607 C 805.606 -3.07374 2.17251 0
M  V30 8608 C 804.753 -1.80232 2.10741 0
M  V30 8609 H 807.704 -0.630442 1.4564 0
M  V30 8610 H 807.725 -3.32214 1.8551 0
M  V30 8611 H 807.237 -2.13506 3.24094 0
M  V30 8612 H 805.338 -3.52583 1.20483 0
M  V30 8613 H 805.451 -3.6666 3.08379 0
M  V30 8614 H 803.815 -2.01012 1.56417 0
M  V30 8615 H 804.598 -1.41713 3.12686 0
M  V30 8616 N 807.043 -1.17915 -1.04565 0
M  V30 8617 C 808.283 -0.982331 -1.79247 0
M  V30 8618 C 808.647 0.47998 -1.85904 0
M  V30 8619 O 809.848 0.796078 -2.56741 0
M  V30 8620 C 808.119 -1.61329 -3.18916 0
M  V30 8621 S 809.678 -1.56355 -4.09998 0
M  V30 8622 H 806.496 -0.352869 -0.617256 0
M  V30 8623 H 809.098 -1.49971 -1.25415 0
M  V30 8624 H 807.802 -2.66993 -3.11678 0
M  V30 8625 H 807.333 -1.09599 -3.77825 0
M  V30 8626 H 809.348 -0.57593 -4.92846 0
M  V30 8627 N 808.521 1.23394 -0.980386 0
M  V30 8628 C 809.768 1.91809 -0.649261 0
M  V30 8629 C 810.096 1.765 0.817197 0
M  V30 8630 O 809.351 1.11979 1.60497 0
M  V30 8631 C 809.65 3.43542 -0.985588 0
M  V30 8632 C 809.316 3.79031 -2.44225 0
M  V30 8633 C 807.978 3.88429 -2.84035 0
M  V30 8634 C 810.33 3.96145 -3.38702 0
M  V30 8635 C 807.658 4.12368 -4.17336 0
M  V30 8636 C 810.01 4.21583 -4.71646 0
M  V30 8637 C 808.674 4.29203 -5.11215 0
M  V30 8638 H 807.944 0.70188 -0.237581 0
M  V30 8639 H 810.591 1.4642 -1.23424 0
M  V30 8640 H 808.896 3.90503 -0.318521 0
M  V30 8641 H 810.593 3.94708 -0.707596 0
M  V30 8642 H 807.183 3.7229 -2.12362 0
M  V30 8643 H 811.367 3.88274 -3.09123 0
M  V30 8644 H 806.623 4.1649 -4.47601 0
M  V30 8645 H 810.797 4.33769 -5.4481 0
M  V30 8646 H 808.424 4.47505 -6.14527 0
M  V30 8647 N 809.999 0.752036 1.385 0
M  V30 8648 C 811.224 0.316993 2.04963 0
M  V30 8649 C 811.649 -1.04582 1.56346 0
M  V30 8650 O 811.007 -1.66616 0.714755 0
M  V30 8651 C 811.055 0.347235 3.58924 0
M  V30 8652 O 810.159 -0.659296 4.07096 0
M  V30 8653 H 809.5 0.140652 0.648932 0
M  V30 8654 H 812.03 1.02272 1.77205 0
M  V30 8655 H 812.04 0.19757 4.07521 0
M  V30 8656 H 810.715 1.34157 3.93668 0
M  V30 8657 H 809.292 -0.474371 3.6987 0
M  V30 8658 N 811.477 -1.49425 0.500989 0
M  V30 8659 C 812.44 -2.27646 -0.266416 0
M  V30 8660 C 813.44 -1.3366 -0.893961 0
M  V30 8661 O 814.63 -1.5682 -0.758495 0
M  V30 8662 C 811.762 -3.11618 -1.38227 0
M  V30 8663 H 812.955 -2.96945 0.419973 0
M  V30 8664 H 810.508 -1.5419 0.255954 0
M  V30 8665 H 811.243 -2.46885 -2.10281 0
M  V30 8666 H 811.028 -3.80721 -0.937746 0
M  V30 8667 H 812.518 -3.70698 -1.92283 0
M  V30 8668 N 812.955 -0.234822 -1.55841 0
M  V30 8669 C 813.885 0.664217 -2.23854 0
M  V30 8670 C 814.866 1.19076 -1.2147 0
M  V30 8671 O 816.051 1.23232 -1.50091 0
M  V30 8672 C 813.181 1.86666 -2.9287 0
M  V30 8673 C 812.135 1.47341 -4.01839 0
M  V30 8674 C 811.461 2.75571 -4.58219 0
M  V30 8675 C 812.761 0.653479 -5.18196 0
M  V30 8676 H 814.455 0.0971213 -2.99242 0
M  V30 8677 H 812.001 0.0452724 -1.43929 0
M  V30 8678 H 813.954 2.50116 -3.39146 0
M  V30 8679 H 812.678 2.45894 -2.1495 0
M  V30 8680 H 811.337 0.862314 -3.56314 0
M  V30 8681 H 810.985 3.32971 -3.77014 0
M  V30 8682 H 810.685 2.49987 -5.31771 0
M  V30 8683 H 812.209 3.39939 -5.07221 0
M  V30 8684 H 813.623 1.19198 -5.60771 0
M  V30 8685 H 812.02 0.494188 -5.98062 0
M  V30 8686 H 813.09 -0.337004 -4.83728 0
M  V30 8687 N 814.433 1.57553 0.0384317 0
M  V30 8688 C 815.343 2.09333 1.0591 0
M  V30 8689 C 816.359 1.0299 1.40247 0
M  V30 8690 O 817.535 1.34669 1.49754 0
M  V30 8691 C 814.6 2.55468 2.34386 0
M  V30 8692 C 813.661 3.76254 2.06716 0
M  V30 8693 C 812.894 4.20179 3.29067 0
M  V30 8694 O 813.117 3.637 4.39407 0
M  V30 8695 O 812.051 5.12697 3.15317 0
M  V30 8696 H 815.877 2.96683 0.649087 0
M  V30 8697 H 813.462 1.47211 0.254802 0
M  V30 8698 H 815.344 2.85514 3.09935 0
M  V30 8699 H 814.019 1.71234 2.74701 0
M  V30 8700 H 812.926 3.51241 1.28766 0
M  V30 8701 H 814.259 4.61443 1.71263 0
M  V30 8702 N 815.911 -0.310526 1.54511 0
M  V30 8703 C 817.157 -1.04846 1.73595 0
M  V30 8704 C 817.49 -1.87244 0.515118 0
M  V30 8705 O 816.765 -1.88282 -0.48786 0
M  V30 8706 C 817.048 -1.96237 3.01932 0
M  V30 8707 C 816.901 -1.17082 4.34295 0
M  V30 8708 C 818.22 -2.9556 3.26086 0
M  V30 8709 H 815.339 -0.37976 0.631626 0
M  V30 8710 H 817.981 -0.32394 1.87218 0
M  V30 8711 H 816.131 -2.58015 2.90449 0
M  V30 8712 H 817.803 -0.576643 4.57682 0
M  V30 8713 H 816.046 -0.473336 4.3121 0
M  V30 8714 H 816.717 -1.84257 5.20339 0
M  V30 8715 H 819.193 -2.43908 3.37117 0
M  V30 8716 H 818.069 -3.5668 4.17218 0
M  V30 8717 H 818.33 -3.68715 2.4393 0
M  V30 8718 N 817.389 -1.46805 -0.573248 0
M  V30 8719 C 818.666 -1.43082 -1.33368 0
M  V30 8720 C 819.046 -0.119252 -2.10763 0
M  V30 8721 O 818.394 0.899239 -2.10062 0
M  V30 8722 C 818.604 -2.66643 -2.25172 0
M  V30 8723 C 819.952 -3.13188 -2.86702 0
M  V30 8724 O 820.976 -2.67258 -2.35482 0
M  V30 8725 O 819.835 -3.92994 -3.79761 0
M  V30 8726 H 816.929 -0.569451 -0.599712 0
M  V30 8727 H 819.475 -1.58984 -0.59348 0
M  V30 8728 H 818.247 -3.53649 -1.67475 0
M  V30 8729 H 817.87 -2.53247 -3.06516 0
M  V30 8730 N 818.867 0.818669 -1.34668 0
M  V30 8731 C 819.777 1.9616 -1.2868 0
M  V30 8732 C 820.793 1.72918 -0.193742 0
M  V30 8733 O 821.969 1.96951 -0.420975 0
M  V30 8734 C 819.034 3.30534 -1.04633 0
M  V30 8735 C 818.095 3.66755 -2.23136 0
M  V30 8736 C 817.328 4.94717 -2.00227 0
M  V30 8737 O 817.551 5.62218 -0.96264 0
M  V30 8738 O 816.485 5.28915 -2.87286 0
M  V30 8739 H 820.311 2.04157 -2.24842 0
M  V30 8740 H 817.896 0.954691 -1.14917 0
M  V30 8741 H 819.778 4.11005 -0.930216 0
M  V30 8742 H 818.453 3.23495 -0.115139 0
M  V30 8743 H 817.36 2.8671 -2.40308 0
M  V30 8744 H 818.693 3.78484 -3.1466 0
M  V30 8745 N 820.346 1.18468 1.03938 0
M  V30 8746 C 821.574 1.00576 1.80809 0
M  V30 8747 C 821.989 -0.445786 1.83462 0
M  V30 8748 O 821.346 -1.30964 1.27101 0
M  V30 8749 C 821.397 1.55491 3.26351 0
M  V30 8750 O 821.118 2.94963 3.23926 0
M  V30 8751 C 822.619 1.42236 4.19862 0
M  V30 8752 H 819.839 0.35508 0.56935 0
M  V30 8753 H 822.383 1.57046 1.30984 0
M  V30 8754 H 820.538 1.03195 3.73403 0
M  V30 8755 H 820.952 3.20598 4.15111 0
M  V30 8756 H 822.426 1.85455 5.19914 0
M  V30 8757 H 822.903 0.371267 4.37628 0
M  V30 8758 H 823.509 1.9361 3.78675 0
M  V30 8759 N 821.824 -1.22873 0.986916 0
M  V30 8760 C 823.054 -1.95204 0.67668 0
M  V30 8761 C 823.462 -1.73193 -0.761641 0
M  V30 8762 O 822.805 -1.0243 -1.52492 0
M  V30 8763 C 822.867 -3.48173 0.895302 0
M  V30 8764 C 822.531 -3.93912 2.31695 0
M  V30 8765 C 823.528 -4.02064 3.29607 0
M  V30 8766 C 821.213 -4.26722 2.64978 0
M  V30 8767 C 823.207 -4.42391 4.58878 0
M  V30 8768 C 820.894 -4.66729 3.94471 0
M  V30 8769 C 821.892 -4.74531 4.91232 0
M  V30 8770 O 821.58 -5.13636 6.18412 0
M  V30 8771 H 821.312 -0.628105 0.24992 0
M  V30 8772 H 823.866 -1.5714 1.32274 0
M  V30 8773 H 822.096 -3.86223 0.192072 0
M  V30 8774 H 823.785 -4.01717 0.581233 0
M  V30 8775 H 824.551 -3.76912 3.05225 0
M  V30 8776 H 820.43 -4.19858 1.9037 0
M  V30 8777 H 823.974 -4.48395 5.34404 0
M  V30 8778 H 819.871 -4.91332 4.18645 0
M  V30 8779 H 820.639 -5.31728 6.2226 0
M  V30 8780 N 823.302 -0.75937 -1.38099 0
M  V30 8781 C 824.548 -0.318584 -2.00282 0
M  V30 8782 C 824.881 1.09854 -1.60143 0
M  V30 8783 O 824.156 1.75344 -0.841702 0
M  V30 8784 C 824.439 -0.448047 -3.57302 0
M  V30 8785 C 824.292 -1.9067 -4.07388 0
M  V30 8786 C 825.611 0.155119 -4.39827 0
M  V30 8787 H 822.73 -0.117233 -0.727616 0
M  V30 8788 H 825.372 -0.960097 -1.63958 0
M  V30 8789 H 823.522 0.0981003 -3.88376 0
M  V30 8790 H 825.194 -2.5116 -3.86932 0
M  V30 8791 H 823.437 -2.41979 -3.6004 0
M  V30 8792 H 824.108 -1.94841 -5.1647 0
M  V30 8793 H 826.584 -0.31073 -4.14938 0
M  V30 8794 H 825.46 0.0343264 -5.48889 0
M  V30 8795 H 825.721 1.24407 -4.24235 0
M  V30 8796 N 824.78 1.49157 -0.508906 0
M  V30 8797 C 826.191 1.86593 -0.0630975 0
M  V30 8798 C 826.542 1.42051 1.35337 0
M  V30 8799 O 825.667 0.801866 2.00995 0
M  V30 8800 C 826.262 3.38629 -0.107729 0
M  V30 8801 C 824.821 3.75336 0.282776 0
M  V30 8802 C 823.968 2.7317 -0.4768 0
M  V30 8803 H 826.919 1.41362 -0.72128 0
M  V30 8804 H 826.94 3.74271 0.685689 0
M  V30 8805 H 826.452 3.71017 -1.13876 0
M  V30 8806 H 824.553 3.48558 1.31675 0
M  V30 8807 H 824.666 4.79081 -0.0421728 0
M  V30 8808 H 823.03 2.54591 0.0743552 0
M  V30 8809 H 823.813 3.08403 -1.50807 0
M  V30 8810 N 826.258 0.243083 1.55714 0
M  V30 8811 C 827.205 -0.658078 2.21219 0
M  V30 8812 C 828.175 -1.1742 1.17481 0
M  V30 8813 O 829.36 -1.22937 1.45915 0
M  V30 8814 C 826.5 -1.85104 2.91257 0
M  V30 8815 C 825.613 -1.3718 4.09641 0
M  V30 8816 C 824.748 -2.52403 4.67404 0
M  V30 8817 C 823.787 -2.01321 5.78045 0
M  V30 8818 N 822.924 -3.09896 6.30007 0
M  V30 8819 H 827.764 -0.0927854 2.97856 0
M  V30 8820 H 825.301 -0.0340375 1.47061 0
M  V30 8821 H 827.259 -2.55179 3.3006 0
M  V30 8822 H 825.889 -2.38887 2.17101 0
M  V30 8823 H 824.941 -0.565232 3.76177 0
M  V30 8824 H 826.253 -0.957409 4.89525 0
M  V30 8825 H 825.407 -3.30525 5.08761 0
M  V30 8826 H 824.146 -2.97142 3.86728 0
M  V30 8827 H 823.151 -1.21667 5.36169 0
M  V30 8828 H 824.376 -1.57556 6.6057 0
M  V30 8829 H 822.322 -3.54077 5.52237 0
M  V30 8830 H 822.239 -2.72776 7.05074 0
M  V30 8831 H 823.507 -3.8809 6.76023 0
M  V30 8832 N 827.736 -1.57571 -0.0300757 0
M  V30 8833 C 828.646 -2.09892 -1.04798 0
M  V30 8834 C 829.662 -1.03732 -1.39698 0
M  V30 8835 O 830.838 -1.35461 -1.49038 0
M  V30 8836 C 827.903 -2.56707 -2.33028 0
M  V30 8837 C 826.964 -3.77345 -2.04718 0
M  V30 8838 C 826.197 -4.21918 -3.26834 0
M  V30 8839 O 826.42 -3.66025 -4.37472 0
M  V30 8840 O 825.354 -5.14362 -3.12594 0
M  V30 8841 H 829.18 -2.97023 -0.633344 0
M  V30 8842 H 826.765 -1.47344 -0.246991 0
M  V30 8843 H 828.647 -2.87154 -3.08417 0
M  V30 8844 H 827.322 -1.72688 -2.73789 0
M  V30 8845 H 826.229 -3.51919 -1.26901 0
M  V30 8846 H 827.562 -4.62345 -1.68813 0
M  V30 8847 N 829.214 0.302327 -1.54673 0
M  V30 8848 C 830.461 1.0377 -1.73891 0
M  V30 8849 C 830.789 1.87309 -0.523979 0
M  V30 8850 O 830.044 1.8936 0.494084 0
M  V30 8851 C 830.343 1.97365 -2.97963 0
M  V30 8852 C 830.009 1.29812 -4.3181 0
M  V30 8853 C 828.671 1.11121 -4.68194 0
M  V30 8854 C 831.023 0.815073 -5.14787 0
M  V30 8855 C 828.351 0.428077 -5.85136 0
M  V30 8856 C 830.703 0.145665 -6.32432 0
M  V30 8857 C 829.367 -0.0532098 -6.67479 0
M  V30 8858 H 828.637 0.379721 -0.636312 0
M  V30 8859 H 831.284 0.312708 -1.8893 0
M  V30 8860 H 829.589 2.76387 -2.777 0
M  V30 8861 H 831.286 2.54331 -3.10027 0
M  V30 8862 H 827.876 1.45366 -4.03196 0
M  V30 8863 H 832.06 0.947191 -4.87178 0
M  V30 8864 H 827.316 0.262995 -6.10834 0
M  V30 8865 H 831.49 -0.236533 -6.95998 0
M  V30 8866 H 829.117 -0.58456 -7.57949 0
M  V30 8867 N 830.692 1.47107 0.565454 0
M  V30 8868 C 831.64 1.59368 1.69424 0
M  V30 8869 C 832.634 0.461344 1.62997 0
M  V30 8870 O 833.84 0.638849 1.68282 0
M  V30 8871 H 830.215 0.501387 0.560459 0
M  V30 8872 H 832.186 2.54242 1.56217 0
M  V30 8873 C 830.935 1.61739 3.07792 0
M  V30 8874 H 830.258 2.48215 3.13416 0
M  V30 8875 H 831.698 1.7437 3.86486 0
M  V30 8876 C 830.157 0.349156 3.35086 0
M  V30 8877 O 830.687 -0.553287 3.97871 0
M  V30 8878 N 828.893 0.231723 2.89675 0
M  V30 8879 H 828.44 0.967021 2.3876 0
M  V30 8880 H 828.398 -0.615911 3.08308 0
M  V30 8881 N 832.17 -0.811516 1.35101 0
M  V30 8882 C 833.133 -1.90467 1.27495 0
M  V30 8883 C 834.133 -1.59703 0.187516 0
M  V30 8884 O 835.323 -1.68528 0.440896 0
M  V30 8885 C 832.455 -3.26774 0.971154 0
M  V30 8886 H 833.648 -1.98631 2.2469 0
M  V30 8887 H 831.201 -1.00681 1.19553 0
M  V30 8888 H 831.936 -3.243 0.0028557 0
M  V30 8889 H 831.721 -3.50488 1.75785 0
M  V30 8890 H 833.211 -4.06804 0.943414 0
M  V30 8891 N 833.648 -1.19017 -1.03309 0
M  V30 8892 C 834.558 -0.939303 -2.14975 0
M  V30 8893 C 835.574 0.0992359 -1.73717 0
M  V30 8894 O 836.75 -0.0844362 -2.01223 0
M  V30 8895 C 833.815 -0.476712 -3.43407 0
M  V30 8896 C 832.876 -1.58413 -3.99003 0
M  V30 8897 C 832.109 -1.14352 -5.21305 0
M  V30 8898 O 832.332 -0.00534408 -5.704 0
M  V30 8899 O 831.266 -1.94436 -5.6963 0
M  V30 8900 H 835.092 -1.87386 -2.38998 0
M  V30 8901 H 832.677 -0.972635 -1.13403 0
M  V30 8902 H 834.559 -0.22718 -4.20787 0
M  V30 8903 H 833.234 0.429455 -3.20839 0
M  V30 8904 H 832.141 -1.88777 -3.22977 0
M  V30 8905 H 833.474 -2.4667 -4.25928 0
M  V30 8906 N 835.127 1.22348 -0.993418 0
M  V30 8907 C 836.355 1.95125 -0.688021 0
M  V30 8908 C 836.77 1.73377 0.747388 0
M  V30 8909 O 836.127 1.03317 1.50439 0
M  V30 8910 C 836.178 3.47819 -0.985097 0
M  V30 8911 O 835.899 3.68838 -2.3641 0
M  V30 8912 C 837.4 4.37779 -0.697474 0
M  V30 8913 H 834.62 0.62087 -0.254481 0
M  V30 8914 H 837.164 1.55485 -1.32833 0
M  V30 8915 H 835.319 3.85426 -0.390583 0
M  V30 8916 H 835.733 4.63032 -2.46377 0
M  V30 8917 H 837.207 5.43666 -0.955604 0
M  V30 8918 H 837.684 4.37651 0.368524 0
M  V30 8919 H 838.29 4.05799 -1.27306 0
M  V30 8920 N 836.605 0.766683 1.37694 0
M  V30 8921 C 837.852 0.328714 1.99814 0
M  V30 8922 C 838.18 -1.09333 1.60862 0
M  V30 8923 O 837.435 -1.7657 0.8439 0
M  V30 8924 C 837.734 0.413831 3.54996 0
M  V30 8925 C 837.4 1.7934 4.137 0
M  V30 8926 C 836.062 2.17092 4.29447 0
M  V30 8927 C 838.414 2.69776 4.45949 0
M  V30 8928 C 835.742 3.44726 4.74743 0
M  V30 8929 C 838.094 3.96814 4.92667 0
M  V30 8930 C 836.758 4.34618 5.0662 0
M  V30 8931 H 836.028 0.120285 0.731172 0
M  V30 8932 H 838.675 0.97972 1.64541 0
M  V30 8933 H 836.98 -0.320723 3.90485 0
M  V30 8934 H 838.677 0.0563369 4.0096 0
M  V30 8935 H 835.267 1.48997 4.01868 0
M  V30 8936 H 839.451 2.41871 4.33373 0
M  V30 8937 H 834.707 3.73917 4.83731 0
M  V30 8938 H 838.881 4.67022 5.16588 0
M  V30 8939 H 836.508 5.33578 5.41478 0
M  V30 8940 N 838.083 -1.48885 0.516809 0
M  V30 8941 C 839.311 -2.06892 -0.0184017 0
M  V30 8942 C 839.726 -1.37511 -1.29368 0
M  V30 8943 O 839.083 -0.458409 -1.76649 0
M  V30 8944 C 839.134 -3.60566 -0.259673 0
M  V30 8945 O 838.855 -4.27338 0.965065 0
M  V30 8946 C 840.356 -4.35331 -0.836751 0
M  V30 8947 H 837.576 -0.670433 0.0275743 0
M  V30 8948 H 840.12 -1.91455 0.718689 0
M  V30 8949 H 838.275 -3.75653 -0.94678 0
M  V30 8950 H 838.689 -5.19287 0.737647 0
M  V30 8951 H 840.163 -5.43675 -0.955065 0
M  V30 8952 H 840.64 -3.9887 -1.83845 0
M  V30 8953 H 841.246 -4.2489 -0.186622 0
M  V30 8954 N 839.561 -0.251338 -1.55583 0
M  V30 8955 C 840.808 0.372169 -1.99051 0
M  V30 8956 C 841.136 1.57623 -1.13953 0
M  V30 8957 O 840.391 1.94762 -0.191398 0
M  V30 8958 C 840.69 0.821186 -3.47838 0
M  V30 8959 C 840.356 -0.275608 -4.50057 0
M  V30 8960 C 839.018 -0.57683 -4.7773 0
M  V30 8961 C 841.37 -1.01585 -5.11204 0
M  V30 8962 C 838.698 -1.62229 -5.63825 0
M  V30 8963 C 841.05 -2.05087 -5.98433 0
M  V30 8964 C 839.714 -2.35869 -6.24437 0
M  V30 8965 H 838.984 0.136186 -0.728378 0
M  V30 8966 H 841.631 -0.360089 -1.88084 0
M  V30 8967 H 839.936 1.63272 -3.56159 0
M  V30 8968 H 841.633 1.31396 -3.78861 0
M  V30 8969 H 838.223 -0.030697 -4.28589 0
M  V30 8970 H 842.407 -0.79639 -4.89869 0
M  V30 8971 H 837.663 -1.86607 -5.82226 0
M  V30 8972 H 841.837 -2.62934 -6.44855 0
M  V30 8973 H 839.464 -3.17017 -6.90944 0
M  V30 8974 N 841.039 1.57585 0.0217189 0
M  V30 8975 C 841.989 2.03506 1.02807 0
M  V30 8976 C 842.973 0.925716 1.31603 0
M  V30 8977 O 844.165 1.18958 1.31065 0
M  V30 8978 C 841.294 2.52407 2.32693 0
M  V30 8979 C 840.38 3.70176 2.06955 0
M  V30 8980 N 840.771 4.82641 1.513 0
M  V30 8981 C 839.069 3.77691 2.37204 0
M  V30 8982 C 839.77 5.64218 1.41536 0
M  V30 8983 N 838.746 5.09557 1.89348 0
M  V30 8984 H 842.548 2.87878 0.591899 0
M  V30 8985 H 840.062 1.60793 0.227875 0
M  V30 8986 H 842.059 2.83569 3.05605 0
M  V30 8987 H 840.719 1.69444 2.76982 0
M  V30 8988 H 841.73 5.03931 1.19472 0
M  V30 8989 H 838.407 3.05542 2.84517 0
M  V30 8990 H 839.797 6.64576 0.989333 0
M  V30 8991 N 842.517 -0.29412 1.54831 0
M  V30 8992 C 843.48 -1.3461 1.85507 0
M  V30 8993 C 844.48 -1.43359 0.728343 0
M  V30 8994 O 845.67 -1.42875 0.996609 0
M  V30 8995 C 842.802 -2.73012 2.0415 0
M  V30 8996 H 843.995 -1.08651 2.79526 0
M  V30 8997 H 841.548 -0.531138 1.46999 0
M  V30 8998 H 842.283 -3.04183 1.12441 0
M  V30 8999 H 842.068 -2.68051 2.86166 0
M  V30 9000 H 843.558 -3.49061 2.29229 0
M  V30 9001 N 843.995 -1.47404 -0.557645 0
M  V30 9002 C 845.272 -1.44488 -1.31843 0
M  V30 9003 C 845.652 -0.1416 -2.10625 0
M  V30 9004 O 845 0.876908 -2.11004 0
M  V30 9005 C 845.21 -2.69016 -2.22331 0
M  V30 9006 C 846.558 -3.16212 -2.83364 0
M  V30 9007 O 847.582 -2.69741 -2.32634 0
M  V30 9008 O 846.441 -3.96999 -3.75571 0
M  V30 9009 H 843.535 -0.57578 -0.593639 0
M  V30 9010 H 846.081 -1.59605 -0.576584 0
M  V30 9011 H 844.853 -3.55406 -1.63715 0
M  V30 9012 H 844.476 -2.56484 -3.03812 0
M  V30 9013 N 845.473 0.80434 -1.35529 0
M  V30 9014 C 846.722 1.55665 -1.28263 0
M  V30 9015 C 847.035 1.95096 0.140352 0
M  V30 9016 O 848.241 2.69422 0.335303 0
M  V30 9017 C 846.697 2.80935 -2.24952 0
M  V30 9018 C 846.305 2.48733 -3.72607 0
M  V30 9019 C 848.049 3.5894 -2.26632 0
M  V30 9020 C 845.956 3.70308 -4.61114 0
M  V30 9021 H 844.886 0.584301 -0.476559 0
M  V30 9022 H 847.537 0.88395 -1.60806 0
M  V30 9023 H 845.919 3.49927 -1.85383 0
M  V30 9024 H 847.093 1.87733 -4.20824 0
M  V30 9025 H 845.408 1.83969 -3.73557 0
M  V30 9026 H 848.005 4.49244 -2.89973 0
M  V30 9027 H 848.348 3.96433 -1.27069 0
M  V30 9028 H 848.881 2.96912 -2.64742 0
M  V30 9029 H 845.62 3.37922 -5.61684 0
M  V30 9030 H 845.14 4.30526 -4.17621 0
M  V30 9031 H 846.819 4.37511 -4.76648 0
M  V30 9032 N 846.951 1.19563 1.02676 0
M  V30 9033 C 848.191 1.01072 1.77662 0
M  V30 9034 C 848.555 -0.450344 1.86644 0
M  V30 9035 O 849.756 -0.755132 2.57975 0
M  V30 9036 C 848.027 1.66383 3.16309 0
M  V30 9037 S 849.586 1.62858 4.07459 0
M  V30 9038 H 846.404 0.362644 0.611564 0
M  V30 9039 H 849.006 1.51947 1.23014 0
M  V30 9040 H 847.71 2.71917 3.07391 0
M  V30 9041 H 847.241 1.15596 3.76033 0
M  V30 9042 H 849.256 0.654265 4.91868 0
M  V30 9043 N 848.429 -1.21819 0.999893 0
M  V30 9044 C 849.657 -1.94758 0.698359 0
M  V30 9045 C 850.072 -1.73771 -0.738183 0
M  V30 9046 O 849.429 -1.04113 -1.49889 0
M  V30 9047 C 849.48 -3.47292 1.00353 0
M  V30 9048 O 849.201 -3.67579 2.38363 0
M  V30 9049 C 850.702 -4.37403 0.72068 0
M  V30 9050 H 847.922 -0.619512 0.257771 0
M  V30 9051 H 850.466 -1.54778 1.33656 0
M  V30 9052 H 848.621 -3.85213 0.411018 0
M  V30 9053 H 849.035 -4.61719 2.48829 0
M  V30 9054 H 850.509 -5.43151 0.984422 0
M  V30 9055 H 850.986 -4.3784 -0.345309 0
M  V30 9056 H 851.592 -4.05119 1.29456 0
M  V30 9057 N 849.908 -0.773975 -1.37286 0
M  V30 9058 C 850.838 -0.175782 -2.32837 0
M  V30 9059 C 851.819 0.680603 -1.5589 0
M  V30 9060 O 853.004 0.617607 -1.84117 0
M  V30 9061 C 850.134 0.702388 -3.40123 0
M  V30 9062 C 849.088 -0.0528687 -4.27967 0
M  V30 9063 C 848.414 0.944891 -5.26285 0
M  V30 9064 C 849.714 -1.23316 -5.07534 0
M  V30 9065 H 851.408 -0.974016 -2.83114 0
M  V30 9066 H 848.954 -0.469826 -1.3612 0
M  V30 9067 H 850.907 1.13069 -4.05947 0
M  V30 9068 H 849.631 1.53316 -2.88378 0
M  V30 9069 H 848.29 -0.461978 -3.63678 0
M  V30 9070 H 847.938 1.77028 -4.70819 0
M  V30 9071 H 847.638 0.444079 -5.8592 0
M  V30 9072 H 849.162 1.37209 -5.94984 0
M  V30 9073 H 850.576 -0.881395 -5.66484 0
M  V30 9074 H 848.973 -1.66621 -5.76504 0
M  V30 9075 H 850.043 -2.03617 -4.40077 0
M  V30 9076 N 851.386 1.48609 -0.524698 0
M  V30 9077 C 852.611 2.07398 0.00952139 0
M  V30 9078 C 853.036 1.37939 1.27884 0
M  V30 9079 O 852.394 0.443633 1.75788 0
M  V30 9080 C 852.442 3.59916 0.221956 0
M  V30 9081 O 851.546 3.91647 1.29175 0
M  V30 9082 H 850.887 0.662981 -0.0367729 0
M  V30 9083 H 853.417 1.91092 -0.7311 0
M  V30 9084 H 853.427 4.05552 0.446236 0
M  V30 9085 H 852.102 4.09876 -0.705306 0
M  V30 9086 H 850.679 3.57796 1.05055 0
M  V30 9087 N 852.864 0.259585 1.55447 0
M  V30 9088 C 853.774 -0.645026 2.25558 0
M  V30 9089 C 854.79 -1.18291 1.27606 0
M  V30 9090 O 855.966 -1.21649 1.6051 0
M  V30 9091 C 853.031 -1.81964 2.9511 0
M  V30 9092 C 852.092 -1.31997 4.08504 0
M  V30 9093 C 851.325 -2.43861 4.74729 0
M  V30 9094 O 851.548 -3.62876 4.40088 0
M  V30 9095 O 850.482 -2.12898 5.6299 0
M  V30 9096 H 854.308 -0.0775399 3.03601 0
M  V30 9097 H 851.893 0.0275859 1.49375 0
M  V30 9098 H 853.775 -2.50485 3.38873 0
M  V30 9099 H 852.45 -2.37451 2.19997 0
M  V30 9100 H 851.357 -0.601676 3.6923 0
M  V30 9101 H 852.69 -0.811045 4.85472 0
M  V30 9102 N 854.342 -1.57594 -0.0133615 0
M  V30 9103 C 855.289 -2.07574 -1.00905 0
M  V30 9104 C 856.259 -0.968231 -1.34961 0
M  V30 9105 O 857.444 -1.23981 -1.45028 0
M  V30 9106 C 854.584 -2.5728 -2.30002 0
M  V30 9107 C 853.697 -3.81881 -2.01967 0
M  V30 9108 C 852.832 -4.20139 -3.25049 0
M  V30 9109 C 851.871 -5.37614 -2.92639 0
M  V30 9110 N 851.008 -5.71229 -4.08218 0
M  V30 9111 H 855.848 -2.92382 -0.575899 0
M  V30 9112 H 853.385 -1.4455 -0.272722 0
M  V30 9113 H 855.343 -2.84171 -3.05454 0
M  V30 9114 H 853.973 -1.75365 -2.71011 0
M  V30 9115 H 853.025 -3.61979 -1.16942 0
M  V30 9116 H 854.337 -4.67441 -1.74069 0
M  V30 9117 H 853.491 -4.48242 -4.08857 0
M  V30 9118 H 852.23 -3.33262 -3.56073 0
M  V30 9119 H 851.235 -5.09248 -2.07235 0
M  V30 9120 H 852.46 -6.26157 -2.62876 0
M  V30 9121 H 850.406 -4.8731 -4.39164 0
M  V30 9122 H 850.323 -6.51333 -3.83799 0
M  V30 9123 H 851.591 -6.03917 -4.92854 0
M  V30 9124 N 855.82 0.285905 -1.54985 0
M  V30 9125 C 856.73 1.37534 -1.90057 0
M  V30 9126 C 857.746 1.54707 -0.796348 0
M  V30 9127 O 858.922 1.69082 -1.09423 0
M  V30 9128 C 855.987 2.7167 -2.15398 0
M  V30 9129 C 855.048 2.63354 -3.39033 0
M  V30 9130 C 854.281 3.91093 -3.63155 0
M  V30 9131 O 854.504 4.91169 -2.90015 0
M  V30 9132 O 853.438 3.92075 -4.56685 0
M  V30 9133 H 857.264 1.10791 -2.8277 0
M  V30 9134 H 854.849 0.483303 -1.41367 0
M  V30 9135 H 856.731 3.51006 -2.33179 0
M  V30 9136 H 855.406 2.98226 -1.25868 0
M  V30 9137 H 854.313 1.82438 -3.26599 0
M  V30 9138 H 855.646 2.41749 -4.2874 0
M  V30 9139 N 857.298 1.47698 0.54982 0
M  V30 9140 C 858.714 1.3338 0.876468 0
M  V30 9141 C 858.914 0.329837 1.98782 0
M  V30 9142 O 857.97 -0.256022 2.51199 0
M  V30 9143 C 859.283 2.72903 1.26272 0
M  V30 9144 C 860.831 2.81243 1.37373 0
M  V30 9145 C 861.306 4.21423 1.79351 0
M  V30 9146 N 862.797 4.24 1.86489 0
M  V30 9147 C 863.532 5.29386 2.20313 0
M  V30 9148 N 863.028 6.4507 2.527 0
M  V30 9149 N 864.821 5.16768 2.2115 0
M  V30 9150 H 856.972 2.11603 -0.183781 0
M  V30 9151 H 859.235 0.947798 -0.0195601 0
M  V30 9152 H 858.941 3.47836 0.519889 0
M  V30 9153 H 858.815 3.05151 2.21727 0
M  V30 9154 H 861.202 2.06577 2.10737 0
M  V30 9155 H 861.283 2.52639 0.400882 0
M  V30 9156 H 860.927 4.96597 1.06555 0
M  V30 9157 H 860.857 4.47456 2.77652 0
M  V30 9158 H 863.348 3.40547 1.63817 0
M  V30 9159 H 863.661 7.21236 2.77557 0
M  V30 9160 H 862.006 6.48377 2.50263 0
M  V30 9161 H 865.197 4.25416 1.95293 0
M  V30 9162 H 865.37 5.99004 2.4718 0
M  V30 9163 N 858.776 -0.797141 1.35954 0
M  V30 9164 C 859.708 -1.91782 1.25509 0
M  V30 9165 C 860.721 -1.61843 0.176271 0
M  V30 9166 O 861.91 -1.73235 0.430343 0
M  V30 9167 C 859.01 -3.26396 0.912073 0
M  V30 9168 C 858.183 -3.84171 2.0912 0
M  V30 9169 C 857.242 -4.9721 1.72246 0
M  V30 9170 O 856.268 -5.14136 2.44239 0
M  V30 9171 N 857.47 -5.76831 0.651611 0
M  V30 9172 H 860.235 -2.01266 2.22063 0
M  V30 9173 H 857.796 -0.975033 1.29247 0
M  V30 9174 H 859.788 -3.99499 0.646707 0
M  V30 9175 H 858.358 -3.12579 0.0359079 0
M  V30 9176 H 857.578 -3.03148 2.51982 0
M  V30 9177 H 858.866 -4.19503 2.87914 0
M  V30 9178 H 858.264 -5.65675 0.0536678 0
M  V30 9179 H 856.821 -6.50272 0.44605 0
M  V30 9180 N 860.254 -1.20106 -1.0204 0
M  V30 9181 C 861.503 -1.00316 -1.74985 0
M  V30 9182 C 861.816 0.465814 -1.89972 0
M  V30 9183 O 863.022 0.782749 -2.59972 0
M  V30 9184 C 861.478 -1.74608 -3.14706 0
M  V30 9185 C 861.086 -3.25573 -3.07744 0
M  V30 9186 C 862.83 -1.63172 -3.91887 0
M  V30 9187 C 860.737 -3.92419 -4.42449 0
M  V30 9188 H 859.667 -0.371728 -0.655999 0
M  V30 9189 H 862.318 -1.43688 -1.14131 0
M  V30 9190 H 860.7 -1.24021 -3.76078 0
M  V30 9191 H 861.874 -3.83345 -2.55702 0
M  V30 9192 H 860.189 -3.3738 -2.44057 0
M  V30 9193 H 862.786 -2.10457 -4.9154 0
M  V30 9194 H 863.129 -0.58728 -4.12137 0
M  V30 9195 H 863.662 -2.11152 -3.37135 0
M  V30 9196 H 860.401 -4.96998 -4.27403 0
M  V30 9197 H 859.921 -3.39436 -4.94513 0
M  V30 9198 H 861.6 -3.96453 -5.11306 0
M  V30 9199 N 861.732 1.21287 -1.00634 0
M  V30 9200 C 862.679 2.23705 -0.567876 0
M  V30 9201 C 863.649 1.61043 0.406753 0
M  V30 9202 O 864.834 1.88289 0.308499 0
M  V30 9203 C 861.974 3.44961 0.097996 0
M  V30 9204 C 861.087 4.22091 -0.919972 0
M  V30 9205 C 860.222 5.30718 -0.226222 0
M  V30 9206 C 859.261 5.99581 -1.23165 0
M  V30 9207 N 858.398 6.99821 -0.565278 0
M  V30 9208 H 863.238 2.60571 -1.44592 0
M  V30 9209 H 860.775 1.28049 -0.724006 0
M  V30 9210 H 862.733 4.1418 0.501097 0
M  V30 9211 H 861.363 3.08818 0.939744 0
M  V30 9212 H 860.415 3.52038 -1.44131 0
M  V30 9213 H 861.727 4.69476 -1.68505 0
M  V30 9214 H 860.881 6.06253 0.232917 0
M  V30 9215 H 859.62 4.84343 0.571247 0
M  V30 9216 H 858.625 5.22816 -1.70128 0
M  V30 9217 H 859.85 6.48042 -2.03022 0
M  V30 9218 H 857.796 6.55656 0.212508 0
M  V30 9219 H 857.713 7.4528 -1.26858 0
M  V30 9220 H 858.981 7.79393 -0.129389 0
M  V30 9221 N 863.21 0.781244 1.36873 0
M  V30 9222 C 864.157 0.172146 2.30157 0
M  V30 9223 C 865.127 -0.679328 1.51573 0
M  V30 9224 O 866.312 -0.629713 1.80109 0
M  V30 9225 C 863.452 -0.693534 3.38059 0
M  V30 9226 C 862.565 0.175586 4.31643 0
M  V30 9227 C 861.7 -0.695695 5.26625 0
M  V30 9228 C 860.739 0.17538 6.11849 0
M  V30 9229 N 859.876 -0.654416 6.99043 0
M  V30 9230 H 864.716 0.973133 2.81663 0
M  V30 9231 H 862.253 0.491469 1.38647 0
M  V30 9232 H 864.211 -1.21035 3.99257 0
M  V30 9233 H 862.841 -1.46003 2.87894 0
M  V30 9234 H 861.893 0.810295 3.7167 0
M  V30 9235 H 863.205 0.847107 4.91554 0
M  V30 9236 H 862.359 -1.27863 5.93073 0
M  V30 9237 H 861.098 -1.40087 4.67148 0
M  V30 9238 H 860.103 0.77078 5.4437 0
M  V30 9239 H 861.328 0.87803 6.734 0
M  V30 9240 H 859.274 -1.34403 6.42084 0
M  V30 9241 H 859.191 -0.0403998 7.55989 0
M  V30 9242 H 860.459 -1.22144 7.69871 0
M  V30 9243 N 864.689 -1.48329 0.532571 0
M  V30 9244 C 865.621 -2.27652 -0.265931 0
M  V30 9245 C 866.634 -1.35522 -0.902083 0
M  V30 9246 O 867.823 -1.60552 -0.780088 0
M  V30 9247 C 864.923 -3.0899 -1.39207 0
M  V30 9248 C 864.096 -4.28915 -0.857349 0
M  V30 9249 C 863.155 -4.92044 -1.86493 0
M  V30 9250 O 862.181 -5.51181 -1.42084 0
M  V30 9251 N 863.383 -4.84518 -3.19723 0
M  V30 9252 H 866.148 -2.96821 0.414389 0
M  V30 9253 H 863.709 -1.57684 0.367066 0
M  V30 9254 H 865.701 -3.48091 -2.06433 0
M  V30 9255 H 864.271 -2.42224 -1.97601 0
M  V30 9256 H 863.491 -3.94199 -0.00901765 0
M  V30 9257 H 864.779 -5.0654 -0.479025 0
M  V30 9258 H 864.177 -4.37628 -3.58467 0
M  V30 9259 H 862.734 -5.27712 -3.82575 0
M  V30 9260 N 866.167 -0.267825 -1.55308 0
M  V30 9261 C 867.395 0.354587 -2.03839 0
M  V30 9262 C 867.81 1.50007 -1.14644 0
M  V30 9263 O 867.167 1.81752 -0.165055 0
M  V30 9264 C 867.218 0.84254 -3.51544 0
M  V30 9265 O 866.939 -0.257318 -4.37344 0
M  V30 9266 C 868.44 1.53351 -4.15931 0
M  V30 9267 H 865.66 0.0818131 -0.665994 0
M  V30 9268 H 868.204 -0.397795 -2.00594 0
M  V30 9269 H 866.359 1.54503 -3.55257 0
M  V30 9270 H 866.773 0.116593 -5.2437 0
M  V30 9271 H 868.247 1.82643 -5.20908 0
M  V30 9272 H 868.724 2.4626 -3.63666 0
M  V30 9273 H 869.33 0.87506 -4.162 0
M  V30 9274 N 867.645 1.57599 0.00500368 0
M  V30 9275 C 868.608 2.07058 0.982832 0
M  V30 9276 C 869.608 0.979045 1.27559 0
M  V30 9277 O 870.798 1.24187 1.22161 0
M  V30 9278 C 867.93 2.50782 2.30914 0
M  V30 9279 H 869.123 2.94718 0.555119 0
M  V30 9280 H 866.676 1.54249 0.25237 0
M  V30 9281 H 867.411 1.66351 2.78385 0
M  V30 9282 H 867.196 3.30495 2.10987 0
M  V30 9283 H 868.686 2.89391 3.0107 0
M  V30 9284 N 869.123 -0.277682 1.55134 0
M  V30 9285 C 870.053 -1.34742 1.90701 0
M  V30 9286 C 871.034 -1.51757 0.768354 0
M  V30 9287 O 872.219 -1.64879 1.02609 0
M  V30 9288 C 869.349 -2.70775 2.17481 0
M  V30 9289 C 868.303 -2.68497 3.33307 0
M  V30 9290 C 867.629 -4.08037 3.45557 0
M  V30 9291 C 868.929 -2.28178 4.69821 0
M  V30 9292 H 870.623 -1.05224 2.803 0
M  V30 9293 H 868.169 -0.504738 1.34864 0
M  V30 9294 H 870.122 -3.45719 2.40949 0
M  V30 9295 H 868.846 -3.01867 1.24676 0
M  V30 9296 H 867.505 -1.9601 3.09799 0
M  V30 9297 H 867.153 -4.36344 2.50226 0
M  V30 9298 H 866.853 -4.07409 4.23429 0
M  V30 9299 H 868.377 -4.84726 3.71312 0
M  V30 9300 H 869.791 -2.92843 4.92865 0
M  V30 9301 H 868.188 -2.3872 5.50575 0
M  V30 9302 H 869.258 -1.23308 4.6896 0
M  V30 9303 N 870.601 -1.47988 -0.541979 0
M  V30 9304 C 871.847 -1.55623 -1.30036 0
M  V30 9305 C 872.18 -0.224254 -1.92901 0
M  V30 9306 O 871.455 0.768629 -1.78668 0
M  V30 9307 C 871.738 -2.68562 -2.39888 0
M  V30 9308 C 871.591 -4.11426 -1.81792 0
M  V30 9309 C 872.91 -2.77325 -3.41729 0
M  V30 9310 H 870.029 -0.566498 -0.471433 0
M  V30 9311 H 872.671 -1.8011 -0.604998 0
M  V30 9312 H 870.821 -2.47814 -2.992 0
M  V30 9313 H 872.493 -4.43581 -1.26624 0
M  V30 9314 H 870.736 -4.18989 -1.12386 0
M  V30 9315 H 871.407 -4.8625 -2.61276 0
M  V30 9316 H 873.883 -2.96085 -2.92357 0
M  V30 9317 H 872.759 -3.58097 -4.16002 0
M  V30 9318 H 873.02 -1.84995 -4.01534 0
M  V30 9319 N 872.079 0.78992 -1.36375 0
M  V30 9320 C 872.989 1.93386 -1.32812 0
M  V30 9321 C 874.005 1.72468 -0.230377 0
M  V30 9322 O 875.181 1.96014 -0.462657 0
M  V30 9323 C 872.246 3.2824 -1.11621 0
M  V30 9324 C 871.307 3.61939 -2.30865 0
M  V30 9325 C 870.54 4.90359 -2.10675 0
M  V30 9326 O 870.763 5.6005 -1.08168 0
M  V30 9327 O 869.697 5.22702 -2.9844 0
M  V30 9328 H 873.523 1.99342 -2.29121 0
M  V30 9329 H 871.108 0.9301 -1.16917 0
M  V30 9330 H 872.99 4.08939 -1.01719 0
M  V30 9331 H 871.665 3.23178 -0.183732 0
M  V30 9332 H 870.572 2.81549 -2.46335 0
M  V30 9333 H 871.905 3.71725 -3.22617 0
M  V30 9334 N 873.557 1.20646 1.01402 0
M  V30 9335 C 874.487 0.98155 2.11867 0
M  V30 9336 C 875.468 -0.0903712 1.6986 0
M  V30 9337 O 876.653 0.0676586 1.94082 0
M  V30 9338 C 873.783 0.535636 3.43145 0
M  V30 9339 C 872.737 1.55109 3.98905 0
M  V30 9340 C 872.063 0.961725 5.2598 0
M  V30 9341 C 873.363 2.93552 4.32001 0
M  V30 9342 H 875.057 1.90544 2.3094 0
M  V30 9343 H 872.603 0.917554 1.10982 0
M  V30 9344 H 874.556 0.365512 4.19812 0
M  V30 9345 H 873.28 -0.423882 3.23838 0
M  V30 9346 H 871.939 1.70862 3.24348 0
M  V30 9347 H 871.587 -0.00580108 5.03 0
M  V30 9348 H 871.287 1.63993 5.64252 0
M  V30 9349 H 872.811 0.802726 6.053 0
M  V30 9350 H 874.225 2.81295 4.99546 0
M  V30 9351 H 872.622 3.58303 4.81393 0
M  V30 9352 H 873.692 3.4508 3.40658 0
M  V30 9353 N 875.035 -1.20752 1.01276 0
M  V30 9354 C 876.281 -1.90302 0.700924 0
M  V30 9355 C 876.614 -1.78406 -0.767142 0
M  V30 9356 O 875.889 -1.16575 -1.55694 0
M  V30 9357 C 876.172 -3.41831 1.13242 0
M  V30 9358 C 876.025 -3.6268 2.66051 0
M  V30 9359 C 877.344 -4.34486 0.700738 0
M  V30 9360 H 874.463 -0.69107 0.256107 0
M  V30 9361 H 877.105 -1.42227 1.25982 0
M  V30 9362 H 875.255 -3.82906 0.656902 0
M  V30 9363 H 876.927 -3.30882 3.21426 0
M  V30 9364 H 875.17 -3.06281 3.07204 0
M  V30 9365 H 875.841 -4.68882 2.91296 0
M  V30 9366 H 878.317 -4.01036 1.10948 0
M  V30 9367 H 877.193 -5.39136 1.03073 0
M  V30 9368 H 877.454 -4.40307 -0.39778 0
M  V30 9369 N 876.513 -0.788492 -1.36457 0
M  V30 9370 C 877.46 -0.18435 -2.30063 0
M  V30 9371 C 878.43 0.67128 -1.51931 0
M  V30 9372 O 879.615 0.620152 -1.8044 0
M  V30 9373 C 876.755 0.675596 -3.38422 0
M  V30 9374 C 875.868 -0.198475 -4.31544 0
M  V30 9375 C 875.003 0.667757 -5.26986 0
M  V30 9376 C 874.042 -0.207825 -6.11747 0
M  V30 9377 N 873.179 0.617335 -6.99381 0
M  V30 9378 H 878.019 -0.988056 -2.81143 0
M  V30 9379 H 875.556 -0.498815 -1.38384 0
M  V30 9380 H 877.514 1.18916 -3.99894 0
M  V30 9381 H 876.144 1.44474 -2.88664 0
M  V30 9382 H 875.196 -0.829995 -3.71235 0
M  V30 9383 H 876.508 -0.873163 -4.91098 0
M  V30 9384 H 875.662 1.24716 -5.93743 0
M  V30 9385 H 874.401 1.37607 -4.67884 0
M  V30 9386 H 873.406 -0.799638 -5.43954 0
M  V30 9387 H 874.631 -0.913729 -6.72925 0
M  V30 9388 H 872.577 1.30996 -6.42788 0
M  V30 9389 H 872.494 0.000307255 -7.56 0
M  V30 9390 H 873.762 1.1806 -7.70508 0
M  V30 9391 N 877.991 1.48044 -0.54043 0
M  V30 9392 C 878.941 2.26768 0.236657 0
M  V30 9393 C 879.925 1.33341 0.900505 0
M  V30 9394 O 881.117 1.57809 0.801584 0
M  V30 9395 C 878.246 3.18685 1.27651 0
M  V30 9396 C 877.332 4.19589 0.616923 0
M  V30 9397 N 877.723 5.04889 -0.303377 0
M  V30 9398 C 876.021 4.37375 0.872879 0
M  V30 9399 C 876.722 5.77654 -0.684905 0
M  V30 9400 N 875.698 5.43583 -0.0435728 0
M  V30 9401 H 879.5 2.90098 -0.471183 0
M  V30 9402 H 877.014 1.58378 -0.359183 0
M  V30 9403 H 879.011 3.73752 1.84702 0
M  V30 9404 H 877.671 2.56911 1.98562 0
M  V30 9405 H 878.682 5.13461 -0.676591 0
M  V30 9406 H 875.359 3.86784 1.57177 0
M  V30 9407 H 876.749 6.56285 -1.44015 0
M  V30 9408 N 879.47 0.276058 1.55163 0
M  V30 9409 C 880.417 -0.611006 2.22565 0
M  V30 9410 C 881.387 -1.14902 1.19945 0
M  V30 9411 O 882.572 -1.19815 1.48489 0
M  V30 9412 C 879.712 -1.78885 2.95117 0
M  V30 9413 C 878.825 -1.2846 4.12458 0
M  V30 9414 C 877.96 -2.42432 4.72652 0
M  V30 9415 C 876.999 -1.89015 5.82185 0
M  V30 9416 N 876.136 -2.96463 6.36439 0
M  V30 9417 H 880.976 -0.0295849 2.97985 0
M  V30 9418 H 878.513 -0.00283607 1.471 0
M  V30 9419 H 880.471 -2.48121 3.35398 0
M  V30 9420 H 879.101 -2.34229 2.22119 0
M  V30 9421 H 878.153 -0.485312 3.77292 0
M  V30 9422 H 879.465 -0.853358 4.91446 0
M  V30 9423 H 878.619 -3.19659 5.15658 0
M  V30 9424 H 877.358 -2.88872 3.92943 0
M  V30 9425 H 876.363 -1.10267 5.38629 0
M  V30 9426 H 877.588 -1.43509 6.63763 0
M  V30 9427 H 875.534 -3.42283 5.59623 0
M  V30 9428 H 875.451 -2.57759 7.10701 0
M  V30 9429 H 876.719 -3.73663 6.84103 0
M  V30 9430 N 880.948 -1.576 0.00335426 0
M  V30 9431 C 882.359 -1.7875 -0.539008 0
M  V30 9432 C 882.71 -0.911097 -1.73763 0
M  V30 9433 O 881.835 -0.114476 -2.16097 0
M  V30 9434 C 882.43 -3.24177 -0.984611 0
M  V30 9435 C 880.989 -3.46412 -1.47226 0
M  V30 9436 C 880.136 -2.74024 -0.425004 0
M  V30 9437 H 883.087 -1.57032 0.229511 0
M  V30 9438 H 883.108 -3.32474 -1.85044 0
M  V30 9439 H 882.62 -3.87938 -0.112035 0
M  V30 9440 H 880.721 -2.8787 -2.36562 0
M  V30 9441 H 880.834 -4.55098 -1.49741 0
M  V30 9442 H 879.198 -2.38741 -0.887394 0
M  V30 9443 H 879.981 -3.40486 0.438662 0
M  V30 9444 N 882.426 0.269451 -1.5528 0
M  V30 9445 C 883.373 1.33316 -1.88403 0
M  V30 9446 C 884.343 1.48909 -0.735881 0
M  V30 9447 O 885.528 1.63259 -0.987479 0
M  V30 9448 C 882.668 2.68778 -2.16454 0
M  V30 9449 C 881.781 2.61377 -3.43956 0
M  V30 9450 C 880.916 3.89042 -3.6169 0
M  V30 9451 C 879.955 3.76166 -4.82872 0
M  V30 9452 N 879.092 4.95673 -4.97245 0
M  V30 9453 H 883.932 1.04368 -2.79126 0
M  V30 9454 H 881.469 0.504147 -1.38191 0
M  V30 9455 H 883.427 3.47599 -2.30719 0
M  V30 9456 H 882.057 2.9592 -1.28961 0
M  V30 9457 H 881.109 1.74247 -3.38145 0
M  V30 9458 H 882.421 2.47764 -4.32914 0
M  V30 9459 H 881.575 4.76304 -3.75791 0
M  V30 9460 H 880.314 4.05526 -2.70924 0
M  V30 9461 H 879.319 2.87287 -4.68771 0
M  V30 9462 H 880.544 3.61198 -5.75077 0
M  V30 9463 H 878.49 5.12561 -4.09411 0
M  V30 9464 H 878.407 4.84605 -5.80254 0
M  V30 9465 H 879.675 5.84498 -5.15735 0
M  V30 9466 N 883.904 1.48273 0.534124 0
M  V30 9467 C 884.867 1.6201 1.62127 0
M  V30 9468 C 885.867 0.493653 1.53035 0
M  V30 9469 O 887.057 0.759337 1.56779 0
M  V30 9470 C 884.189 1.5864 3.01739 0
M  V30 9471 H 885.382 2.58944 1.51288 0
M  V30 9472 H 882.935 1.36808 0.755861 0
M  V30 9473 H 883.67 0.631685 3.18088 0
M  V30 9474 H 883.455 2.40415 3.09747 0
M  V30 9475 H 884.945 1.71438 3.80787 0
M  V30 9476 N 885.382 -0.782676 1.36792 0
M  V30 9477 C 886.61 -1.57162 1.34565 0
M  V30 9478 C 887.025 -1.88664 -0.0715501 0
M  V30 9479 O 886.382 -1.50633 -1.03033 0
M  V30 9480 C 886.433 -2.88854 2.1736 0
M  V30 9481 O 886.154 -2.58707 3.53557 0
M  V30 9482 C 887.655 -3.83132 2.2299 0
M  V30 9483 H 884.875 -0.487245 0.461338 0
M  V30 9484 H 887.419 -0.970905 1.79982 0
M  V30 9485 H 885.574 -3.45377 1.7548 0
M  V30 9486 H 885.988 -3.42961 3.96835 0
M  V30 9487 H 887.462 -4.72575 2.85266 0
M  V30 9488 H 887.939 -4.21472 1.23524 0
M  V30 9489 H 888.545 -3.32541 2.65135 0
M  V30 9490 N 886.86 -1.21182 -1.00761 0
M  V30 9491 C 887.807 -0.968741 -2.09485 0
M  V30 9492 C 888.777 0.104325 -1.65772 0
M  V30 9493 O 889.962 -0.0422587 -1.90753 0
M  V30 9494 C 887.102 -0.536686 -3.40901 0
M  V30 9495 C 886.215 -1.6789 -3.98041 0
M  V30 9496 C 885.35 -1.19627 -5.17555 0
M  V30 9497 C 884.389 -2.31099 -5.66798 0
M  V30 9498 N 883.526 -1.83988 -6.77564 0
M  V30 9499 H 888.366 -1.89952 -2.29613 0
M  V30 9500 H 885.903 -0.946688 -1.12589 0
M  V30 9501 H 887.861 -0.26745 -4.16342 0
M  V30 9502 H 886.491 0.357092 -3.20819 0
M  V30 9503 H 885.543 -2.06284 -3.19611 0
M  V30 9504 H 886.855 -2.51794 -4.30582 0
M  V30 9505 H 886.009 -0.883539 -6.00232 0
M  V30 9506 H 884.748 -0.327244 -4.86601 0
M  V30 9507 H 883.753 -2.63178 -4.82719 0
M  V30 9508 H 884.978 -3.18493 -5.99782 0
M  V30 9509 H 882.924 -0.994257 -6.48422 0
M  V30 9510 H 882.841 -2.61466 -7.09346 0
M  V30 9511 H 884.109 -1.55741 -7.63783 0
M  V30 9512 N 888.338 1.20213 -1.01915 0
M  V30 9513 C 889.248 2.26763 -0.601311 0
M  V30 9514 C 890.264 1.70185 0.362369 0
M  V30 9515 O 891.44 2.00165 0.222682 0
M  V30 9516 C 888.505 3.46662 0.0512879 0
M  V30 9517 C 887.566 4.18459 -0.958659 0
M  V30 9518 C 886.799 5.32634 -0.337107 0
M  V30 9519 O 887.022 5.63841 0.86251 0
M  V30 9520 O 885.956 5.9258 -1.05511 0
M  V30 9521 H 889.782 2.64725 -1.48844 0
M  V30 9522 H 887.367 1.2688 -0.788784 0
M  V30 9523 H 889.249 4.19345 0.41564 0
M  V30 9524 H 887.924 3.1057 0.912572 0
M  V30 9525 H 886.831 3.47937 -1.37442 0
M  V30 9526 H 888.164 4.58498 -1.78999 0
M  V30 9527 N 889.816 0.795718 1.36037 0
M  V30 9528 C 890.748 0.156336 2.28666 0
M  V30 9529 C 891.761 -0.638075 1.49775 0
M  V30 9530 O 892.95 -0.472222 1.7214 0
M  V30 9531 C 890.05 -0.801417 3.29288 0
M  V30 9532 C 889.223 -0.0557118 4.37365 0
M  V30 9533 C 888.282 -0.930338 5.1791 0
M  V30 9534 O 887.308 -0.385266 5.67895 0
M  V30 9535 N 888.51 -2.25382 5.34961 0
M  V30 9536 H 891.275 0.952033 2.84177 0
M  V30 9537 H 888.836 0.650189 1.48271 0
M  V30 9538 H 890.828 -1.39051 3.80062 0
M  V30 9539 H 889.398 -1.49796 2.74372 0
M  V30 9540 H 888.618 0.714508 3.87671 0
M  V30 9541 H 889.906 0.458633 5.06729 0
M  V30 9542 H 889.304 -2.72073 4.95977 0
M  V30 9543 H 887.861 -2.79241 5.88955 0
M  V30 9544 N 891.294 -1.47756 0.548274 0
M  V30 9545 C 892.224 -2.32702 -0.19284 0
M  V30 9546 C 893.205 -1.43237 -0.917457 0
M  V30 9547 O 894.39 -1.72103 -0.89967 0
M  V30 9548 C 891.52 -3.24831 -1.22891 0
M  V30 9549 C 890.474 -4.23466 -0.621312 0
M  V30 9550 C 889.8 -5.04856 -1.76137 0
M  V30 9551 C 891.1 -5.20616 0.419055 0
M  V30 9552 H 892.794 -2.94914 0.516323 0
M  V30 9553 H 890.34 -1.41818 0.24975 0
M  V30 9554 H 892.293 -3.83094 -1.75547 0
M  V30 9555 H 891.017 -2.60656 -1.9679 0
M  V30 9556 H 889.676 -3.66416 -0.116123 0
M  V30 9557 H 889.324 -4.37091 -2.48918 0
M  V30 9558 H 889.024 -5.71629 -1.36065 0
M  V30 9559 H 890.548 -5.65976 -2.29136 0
M  V30 9560 H 891.962 -5.73296 -0.0211034 0
M  V30 9561 H 890.359 -5.95543 0.738163 0
M  V30 9562 H 891.429 -4.66638 1.31822 0
M  V30 9563 N 892.772 -0.284283 -1.55015 0
M  V30 9564 C 893.719 0.599194 -2.22886 0
M  V30 9565 C 894.689 1.14264 -1.20553 0
M  V30 9566 O 895.874 1.19025 -1.49123 0
M  V30 9567 C 893.014 1.77317 -2.96062 0
M  V30 9568 C 892.127 1.26271 -4.13134 0
M  V30 9569 C 891.262 2.39922 -4.73931 0
M  V30 9570 C 890.301 1.85925 -5.8318 0
M  V30 9571 N 889.438 2.93084 -6.38002 0
M  V30 9572 H 894.278 0.0137816 -2.97997 0
M  V30 9573 H 891.815 -0.00496503 -1.47099 0
M  V30 9574 H 893.773 2.46339 -3.36709 0
M  V30 9575 H 892.403 2.33047 -2.23358 0
M  V30 9576 H 891.455 0.465296 -3.77544 0
M  V30 9577 H 892.767 0.827284 -4.91892 0
M  V30 9578 H 891.921 3.1692 -5.17346 0
M  V30 9579 H 890.66 2.86784 -3.9447 0
M  V30 9580 H 889.665 1.07409 -5.39206 0
M  V30 9581 H 890.89 1.39987 -6.64515 0
M  V30 9582 H 888.836 3.3931 -5.61431 0
M  V30 9583 H 888.753 2.53986 -7.12058 0
M  V30 9584 H 890.021 3.7003 -6.86075 0
M  V30 9585 N 894.251 1.57596 -0.0117121 0
M  V30 9586 C 895.214 2.08089 0.960816 0
M  V30 9587 C 896.214 0.992519 1.26514 0
M  V30 9588 O 897.404 1.25475 1.20837 0
M  V30 9589 C 894.536 2.53217 2.28241 0
M  V30 9590 H 895.729 2.9529 0.523829 0
M  V30 9591 H 893.282 1.54508 0.235995 0
M  V30 9592 H 894.017 1.69294 2.76604 0
M  V30 9593 H 893.802 3.32714 2.0747 0
M  V30 9594 H 895.292 2.92568 2.97983 0
M  V30 9595 N 895.729 -0.261212 1.5542 0
M  V30 9596 C 896.975 -0.992699 1.76843 0
M  V30 9597 C 897.308 -1.8551 0.574428 0
M  V30 9598 O 896.583 -1.89739 -0.427713 0
M  V30 9599 C 896.866 -1.86532 3.08022 0
M  V30 9600 C 896.719 -1.03206 4.378 0
M  V30 9601 C 898.038 -2.85036 3.35324 0
M  V30 9602 H 895.157 -0.359473 0.643388 0
M  V30 9603 H 897.799 -0.264214 1.88154 0
M  V30 9604 H 895.949 -2.48644 2.9851 0
M  V30 9605 H 897.621 -0.430743 4.59285 0
M  V30 9606 H 895.864 -0.335911 4.32497 0
M  V30 9607 H 896.535 -1.6761 5.25938 0
M  V30 9608 H 899.011 -2.3306 3.44706 0
M  V30 9609 H 897.887 -3.43226 4.28354 0
M  V30 9610 H 898.148 -3.60768 2.55537 0
M  V30 9611 N 897.207 -1.48554 -0.526253 0
M  V30 9612 C 898.14 -1.57928 -1.64724 0
M  V30 9613 C 899.118 -0.429536 -1.56824 0
M  V30 9614 O 900.302 -0.641651 -1.77243 0
M  V30 9615 C 897.429 -1.51075 -3.0314 0
M  V30 9616 C 896.475 -2.70937 -3.29386 0
M  V30 9617 S 897.308 -4.3287 -3.15251 0
M  V30 9618 C 898.464 -4.28622 -4.56108 0
M  V30 9619 H 898.697 -2.52761 -1.56523 0
M  V30 9620 H 896.23 -1.37133 -0.7095 0
M  V30 9621 H 898.188 -1.47808 -3.82966 0
M  V30 9622 H 896.849 -0.57574 -3.08778 0
M  V30 9623 H 896.042 -2.62291 -4.30371 0
M  V30 9624 H 895.644 -2.71486 -2.57238 0
M  V30 9625 H 897.936 -3.98784 -5.47702 0
M  V30 9626 H 898.879 -5.29798 -4.69808 0
M  V30 9627 H 899.287 -3.59038 -4.35605 0
M  V30 9628 N 898.685 0.775411 -1.37205 0
M  V30 9629 C 899.962 1.5229 -1.22748 0
M  V30 9630 C 900.342 2.10327 0.180487 0
M  V30 9631 O 899.69 1.95206 1.18772 0
M  V30 9632 C 899.9 2.60671 -2.3206 0
M  V30 9633 C 901.248 3.28173 -2.6942 0
M  V30 9634 O 902.272 2.70963 -2.31208 0
M  V30 9635 O 901.131 4.31598 -3.3524 0
M  V30 9636 H 898.225 0.674326 -0.478762 0
M  V30 9637 H 900.771 0.812691 -1.48975 0
M  V30 9638 H 899.543 2.1588 -3.26361 0
M  V30 9639 H 899.166 3.39296 -2.07277 0
M  V30 9640 N 900.163 1.21714 1.00117 0
M  V30 9641 C 901.44 0.945391 1.71236 0
M  V30 9642 C 901.82 -0.541772 2.0403 0
M  V30 9643 O 901.168 -1.50763 1.71705 0
M  V30 9644 C 901.378 1.83444 2.96899 0
M  V30 9645 C 902.726 2.08558 3.69849 0
M  V30 9646 O 903.75 1.80824 3.06889 0
M  V30 9647 O 902.609 2.55485 4.83104 0
M  V30 9648 H 899.703 0.354834 0.747009 0
M  V30 9649 H 902.249 1.32661 1.05825 0
M  V30 9650 H 901.021 2.84075 2.69105 0
M  V30 9651 H 900.644 1.45428 3.70049 0
M  V30 9652 N 901.641 -1.19671 1.02551 0
M  V30 9653 C 902.888 -1.89268 0.720002 0
M  V30 9654 C 903.216 -1.79411 -0.751127 0
M  V30 9655 O 902.471 -1.17859 -1.5623 0
M  V30 9656 C 902.77 -3.39647 1.11241 0
M  V30 9657 C 902.436 -3.69706 2.58125 0
M  V30 9658 C 901.098 -3.7762 2.98256 0
M  V30 9659 C 903.45 -3.83301 3.53171 0
M  V30 9660 C 900.778 -3.96594 4.32354 0
M  V30 9661 C 903.13 -4.03788 4.86968 0
M  V30 9662 C 901.794 -4.09934 5.26793 0
M  V30 9663 H 901.064 -0.692579 0.263467 0
M  V30 9664 H 903.711 -1.41738 1.28774 0
M  V30 9665 H 902.016 -3.89052 0.463234 0
M  V30 9666 H 903.713 -3.91809 0.853602 0
M  V30 9667 H 900.303 -3.64152 2.26033 0
M  V30 9668 H 904.487 -3.76534 3.2332 0
M  V30 9669 H 899.743 -3.9959 4.6275 0
M  V30 9670 H 903.917 -4.1325 5.60533 0
M  V30 9671 H 901.544 -4.24389 6.30712 0
M  V30 9672 N 903.119 -0.802921 -1.35613 0
M  V30 9673 C 904.082 -0.216422 -2.28176 0
M  V30 9674 C 905.082 0.594101 -1.49422 0
M  V30 9675 O 906.272 0.41312 -1.6923 0
M  V30 9676 C 903.404 0.698746 -3.33662 0
M  V30 9677 H 904.597 -1.03276 -2.81557 0
M  V30 9678 H 902.15 -0.573307 -1.45406 0
M  V30 9679 H 902.885 1.53891 -2.85461 0
M  V30 9680 H 902.67 0.119314 -3.91918 0
M  V30 9681 H 904.16 1.10354 -4.02755 0
M  V30 9682 N 904.597 1.47463 -0.556102 0
M  V30 9683 C 905.56 2.28478 0.181743 0
M  V30 9684 C 906.56 1.36886 0.843738 0
M  V30 9685 O 907.75 1.59527 0.69977 0
M  V30 9686 C 904.882 3.16534 1.26566 0
M  V30 9687 H 906.075 2.95182 -0.529892 0
M  V30 9688 H 903.628 1.53134 -0.313005 0
M  V30 9689 H 904.363 2.5452 2.00973 0
M  V30 9690 H 904.148 3.83939 0.795798 0
M  V30 9691 H 905.638 3.77579 1.78393 0
M  V30 9692 N 906.075 0.2925 1.54862 0
M  V30 9693 C 907.322 -0.319263 1.99967 0
M  V30 9694 C 907.65 -1.54547 1.18092 0
M  V30 9695 O 906.905 -1.94186 0.242969 0
M  V30 9696 C 907.204 -0.728674 3.49893 0
M  V30 9697 C 906.87 0.394836 4.49168 0
M  V30 9698 C 905.532 0.703289 4.76033 0
M  V30 9699 C 907.884 1.15103 5.08331 0
M  V30 9700 C 905.212 1.77121 5.59325 0
M  V30 9701 C 907.564 2.20881 5.92785 0
M  V30 9702 C 906.228 2.52342 6.17964 0
M  V30 9703 H 905.498 -0.116827 0.731733 0
M  V30 9704 H 908.145 0.40983 1.87063 0
M  V30 9705 H 906.45 -1.53772 3.60363 0
M  V30 9706 H 908.147 -1.21305 3.82212 0
M  V30 9707 H 904.737 0.144319 4.28357 0
M  V30 9708 H 908.921 0.92599 4.87585 0
M  V30 9709 H 904.177 2.01978 5.77074 0
M  V30 9710 H 908.351 2.79939 6.37657 0
M  V30 9711 H 905.978 3.35225 6.82296 0
M  V30 9712 N 907.553 -1.57587 0.0200696 0
M  V30 9713 C 908.799 -1.91708 -0.661503 0
M  V30 9714 C 909.132 -0.895968 -1.72296 0
M  V30 9715 O 908.407 0.082577 -1.94325 0
M  V30 9716 C 908.69 -3.36344 -1.28627 0
M  V30 9717 C 908.543 -4.49186 -0.234982 0
M  V30 9718 C 909.862 -3.80771 -2.20685 0
M  V30 9719 H 906.981 -0.69717 -0.239005 0
M  V30 9720 H 909.623 -1.8985 0.0754764 0
M  V30 9721 H 907.773 -3.38058 -1.91439 0
M  V30 9722 H 909.445 -4.59606 0.395011 0
M  V30 9723 H 907.688 -4.31557 0.440565 0
M  V30 9724 H 908.359 -5.47395 -0.711558 0
M  V30 9725 H 910.835 -3.80735 -1.67868 0
M  V30 9726 H 909.711 -4.82685 -2.61356 0
M  V30 9727 H 909.972 -3.15764 -3.09428 0
M  V30 9728 N 909.032 0.252966 -1.55557 0
M  V30 9729 C 909.942 1.33472 -1.92931 0
M  V30 9730 C 910.958 1.52983 -0.828985 0
M  V30 9731 O 912.134 1.66723 -1.12984 0
M  V30 9732 C 909.199 2.6704 -2.21112 0
M  V30 9733 C 908.26 2.56103 -3.44542 0
M  V30 9734 C 907.493 3.83302 -3.71369 0
M  V30 9735 O 907.716 4.84907 -3.00368 0
M  V30 9736 O 906.65 3.823 -4.64898 0
M  V30 9737 H 910.476 1.04768 -2.85057 0
M  V30 9738 H 908.061 0.453208 -1.4236 0
M  V30 9739 H 909.943 3.45981 -2.40572 0
M  V30 9740 H 908.618 2.95489 -1.32166 0
M  V30 9741 H 907.525 1.7547 -3.30396 0
M  V30 9742 H 908.858 2.32601 -4.33772 0
M  V30 9743 N 910.51 1.48831 0.518367 0
M  V30 9744 C 911.457 1.64216 1.62178 0
M  V30 9745 C 912.427 0.483942 1.58894 0
M  V30 9746 O 913.612 0.708857 1.77144 0
M  V30 9747 C 910.752 1.69867 3.00399 0
M  V30 9748 C 909.865 2.96875 3.1383 0
M  V30 9749 C 909 2.93613 4.42679 0
M  V30 9750 C 908.039 4.15276 4.4968 0
M  V30 9751 N 907.176 4.10024 5.69934 0
M  V30 9752 H 912.016 2.58439 1.48368 0
M  V30 9753 H 909.553 1.28154 0.722152 0
M  V30 9754 H 911.511 1.71124 3.8049 0
M  V30 9755 H 910.141 0.791249 3.12952 0
M  V30 9756 H 909.193 3.0531 2.26914 0
M  V30 9757 H 910.505 3.86863 3.14863 0
M  V30 9758 H 909.659 2.93337 5.31073 0
M  V30 9759 H 908.398 2.01375 4.44184 0
M  V30 9760 H 907.403 4.15816 3.59691 0
M  V30 9761 H 908.628 5.08687 4.49904 0
M  V30 9762 H 906.574 3.20613 5.72314 0
M  V30 9763 H 906.491 4.93728 5.72511 0
M  V30 9764 H 907.759 4.13824 6.60583 0
M  V30 9765 N 911.988 -0.768124 1.37614 0
M  V30 9766 C 913.228 -1.53979 1.34424 0
M  V30 9767 C 913.592 -1.91874 -0.0696803 0
M  V30 9768 O 914.793 -2.67845 -0.22633 0
M  V30 9769 C 913.064 -2.76845 2.26034 0
M  V30 9770 S 914.623 -3.66871 2.4073 0
M  V30 9771 H 911.441 -0.527108 0.477157 0
M  V30 9772 H 914.043 -0.902945 1.73399 0
M  V30 9773 H 912.747 -2.47091 3.2768 0
M  V30 9774 H 912.278 -3.45486 1.88157 0
M  V30 9775 H 914.293 -4.6899 1.62057 0
M  V30 9776 N 913.466 -1.22244 -0.994698 0
M  V30 9777 C 914.706 -1.05747 -1.7492 0
M  V30 9778 C 915.07 0.4007 -1.87772 0
M  V30 9779 O 916.271 0.686469 -2.59887 0
M  V30 9780 C 914.542 -1.7471 -3.11787 0
M  V30 9781 S 916.101 -1.73604 -4.02998 0
M  V30 9782 H 912.919 -0.378731 -0.601734 0
M  V30 9783 H 915.521 -1.55155 -1.18942 0
M  V30 9784 H 914.225 -2.79972 -3.00073 0
M  V30 9785 H 913.756 -1.25525 -3.72836 0
M  V30 9786 H 915.771 -0.784445 -4.8996 0
M  V30 9787 N 914.944 1.19125 -1.03184 0
M  V30 9788 C 915.891 2.2245 -0.6152 0
M  V30 9789 C 916.861 1.61869 0.372502 0
M  V30 9790 O 918.046 1.88901 0.268491 0
M  V30 9791 C 915.186 3.45091 0.0248027 0
M  V30 9792 C 914.299 4.20044 -1.0093 0
M  V30 9793 C 913.434 5.30119 -0.338744 0
M  V30 9794 C 912.473 5.96833 -1.35855 0
M  V30 9795 N 911.61 6.98464 -0.713594 0
M  V30 9796 H 916.45 2.57445 -1.50086 0
M  V30 9797 H 913.987 1.26485 -0.751005 0
M  V30 9798 H 915.945 4.15149 0.413131 0
M  V30 9799 H 914.575 3.10742 0.874028 0
M  V30 9800 H 913.627 3.48901 -1.51566 0
M  V30 9801 H 914.939 4.65796 -1.78425 0
M  V30 9802 H 914.093 6.0661 0.104269 0
M  V30 9803 H 912.832 4.85446 0.468382 0
M  V30 9804 H 911.837 5.1909 -1.81179 0
M  V30 9805 H 913.062 6.4359 -2.16722 0
M  V30 9806 H 911.008 6.55959 0.0733863 0
M  V30 9807 H 910.925 7.42422 -1.42638 0
M  V30 9808 H 912.193 7.78943 -0.294681 0
M  V30 9809 N 916.422 0.810101 1.35185 0
M  V30 9810 C 917.385 0.22852 2.28058 0
M  V30 9811 C 918.385 -0.586168 1.49735 0
M  V30 9812 O 919.575 -0.40414 1.69447 0
M  V30 9813 C 916.707 -0.681041 3.34028 0
M  V30 9814 H 917.9 1.04768 2.81005 0
M  V30 9815 H 915.453 0.58101 1.451 0
M  V30 9816 H 916.188 -1.52375 2.86273 0
M  V30 9817 H 915.973 -0.0985276 3.91976 0
M  V30 9818 H 917.463 -1.08217 4.03335 0
M  V30 9819 N 917.9 -1.47166 0.563914 0
M  V30 9820 C 919.177 -1.95586 -0.0236172 0
M  V30 9821 C 919.557 -1.50655 -1.47872 0
M  V30 9822 O 918.905 -0.748479 -2.15894 0
M  V30 9823 C 919.115 -3.48762 0.128841 0
M  V30 9824 C 920.463 -4.24598 -0.0130544 0
M  V30 9825 O 921.487 -3.56155 0.0567242 0
M  V30 9826 O 920.346 -5.46253 -0.164332 0
M  V30 9827 H 917.44 -0.824793 -0.0603789 0
M  V30 9828 H 919.986 -1.57536 0.63091 0
M  V30 9829 H 918.758 -3.74291 1.14113 0
M  V30 9830 H 918.381 -3.93594 -0.56299 0
M  V30 9831 N 919.378 -0.300708 -1.54705 0
M  V30 9832 C 920.655 0.361757 -1.92226 0
M  V30 9833 C 921.035 1.71714 -1.2279 0
M  V30 9834 O 920.383 2.2559 -0.363542 0
M  V30 9835 C 920.593 0.476699 -3.45729 0
M  V30 9836 C 921.941 0.7477 -4.17965 0
M  V30 9837 O 922.965 0.560521 -3.51762 0
M  V30 9838 O 921.824 1.10724 -5.35166 0
M  V30 9839 H 918.918 0.202213 -0.801897 0
M  V30 9840 H 921.464 -0.348746 -1.66078 0
M  V30 9841 H 920.236 -0.476132 -3.88392 0
M  V30 9842 H 919.859 1.23568 -3.77911 0
M  V30 9843 N 920.856 1.57574 -0.0284266 0
M  V30 9844 C 921.803 2.10176 0.953658 0
M  V30 9845 C 922.773 1.00367 1.32347 0
M  V30 9846 O 923.958 1.27783 1.4169 0
M  V30 9847 C 921.098 2.63287 2.231 0
M  V30 9848 C 920.211 3.87102 1.91771 0
M  V30 9849 C 919.346 4.28609 3.13795 0
M  V30 9850 C 918.385 5.45184 2.78282 0
M  V30 9851 N 917.522 5.81851 3.92929 0
M  V30 9852 H 922.362 2.93806 0.498176 0
M  V30 9853 H 919.899 1.45222 0.234302 0
M  V30 9854 H 921.857 2.9217 2.97813 0
M  V30 9855 H 920.487 1.82489 2.66266 0
M  V30 9856 H 919.539 3.64952 1.07303 0
M  V30 9857 H 920.851 4.71892 1.61615 0
M  V30 9858 H 920.005 4.58925 3.96829 0
M  V30 9859 H 918.744 3.42585 3.47112 0
M  V30 9860 H 917.749 5.14563 1.93661 0
M  V30 9861 H 918.974 6.32907 2.46182 0
M  V30 9862 H 916.92 4.98782 4.2609 0
M  V30 9863 H 916.837 6.6128 3.66395 0
M  V30 9864 H 918.105 6.16772 4.76669 0
M  V30 9865 N 922.334 -0.244713 1.55689 0
M  V30 9866 C 923.244 -1.32447 1.93636 0
M  V30 9867 C 924.26 -1.52541 0.837086 0
M  V30 9868 O 925.436 -1.66121 1.13867 0
M  V30 9869 C 922.501 -2.65864 2.22525 0
M  V30 9870 C 921.562 -2.54273 3.45896 0
M  V30 9871 C 920.795 -3.81327 3.73397 0
M  V30 9872 O 921.018 -4.83307 3.02936 0
M  V30 9873 O 919.952 -3.79829 4.66919 0
M  V30 9874 H 923.778 -1.03255 2.85608 0
M  V30 9875 H 921.363 -0.445652 1.42598 0
M  V30 9876 H 923.245 -3.447 2.42404 0
M  V30 9877 H 921.92 -2.94784 1.33731 0
M  V30 9878 H 920.827 -1.73715 3.31321 0
M  V30 9879 H 922.16 -2.30297 4.34999 0
M  V30 9880 N 923.813 -1.49104 -0.510467 0
M  V30 9881 C 925.041 -1.61806 -1.28944 0
M  V30 9882 C 925.456 -0.285774 -1.86625 0
M  V30 9883 O 924.813 0.727551 -1.67371 0
M  V30 9884 C 924.864 -2.67966 -2.42645 0
M  V30 9885 O 924.585 -3.96026 -1.87337 0
M  V30 9886 C 926.086 -2.91286 -3.34166 0
M  V30 9887 H 923.306 -0.544999 -0.391429 0
M  V30 9888 H 925.85 -1.95071 -0.613805 0
M  V30 9889 H 924.005 -2.37505 -3.06056 0
M  V30 9890 H 924.419 -4.54427 -2.61909 0
M  V30 9891 H 925.893 -3.69323 -4.1025 0
M  V30 9892 H 926.37 -2.00842 -3.90588 0
M  V30 9893 H 926.976 -3.23127 -2.76531 0
M  V30 9894 N 925.291 0.760815 -1.38019 0
M  V30 9895 C 926.531 1.53264 -1.35239 0
M  V30 9896 C 926.895 1.91908 0.0595038 0
M  V30 9897 O 928.096 2.67962 0.212122 0
M  V30 9898 C 926.367 2.75643 -2.27499 0
M  V30 9899 S 927.926 3.6559 -2.42672 0
M  V30 9900 H 924.744 0.52457 -0.479945 0
M  V30 9901 H 927.346 0.893737 -1.73875 0
M  V30 9902 H 926.05 2.4535 -3.28986 0
M  V30 9903 H 925.581 3.44483 -1.89987 0
M  V30 9904 H 927.596 4.68124 -1.64542 0
M  V30 9905 N 926.769 1.22769 0.988202 0
M  V30 9906 C 928.016 1.05509 1.72841 0
M  V30 9907 C 928.344 -0.409145 1.90148 0
M  V30 9908 O 927.599 -1.3195 1.44526 0
M  V30 9909 C 927.898 1.71679 3.13466 0
M  V30 9910 C 927.564 3.21584 3.16061 0
M  V30 9911 C 926.226 3.62486 3.16476 0
M  V30 9912 C 928.578 4.17511 3.11984 0
M  V30 9913 C 925.906 4.97789 3.10521 0
M  V30 9914 C 928.258 5.52796 3.0757 0
M  V30 9915 C 926.922 5.93072 3.06304 0
M  V30 9916 H 926.192 0.386085 0.632471 0
M  V30 9917 H 928.839 1.52596 1.157 0
M  V30 9918 H 927.144 1.1693 3.73945 0
M  V30 9919 H 928.841 1.55809 3.69492 0
M  V30 9920 H 925.431 2.89019 3.1649 0
M  V30 9921 H 929.615 3.86926 3.10809 0
M  V30 9922 H 924.871 5.28218 3.07888 0
M  V30 9923 H 929.045 6.26848 3.03372 0
M  V30 9924 H 926.672 6.97879 3.01444 0
M  V30 9925 N 928.247 -1.18576 1.03814 0
M  V30 9926 C 929.21 -2.2033 0.63146 0
M  V30 9927 C 930.21 -1.57787 -0.309816 0
M  V30 9928 O 931.4 -1.73938 -0.0955598 0
M  V30 9929 C 928.532 -3.40818 -0.0745963 0
M  V30 9930 H 929.725 -2.57824 1.53189 0
M  V30 9931 H 927.278 -1.32416 0.830398 0
M  V30 9932 H 928.013 -3.08853 -0.988947 0
M  V30 9933 H 927.798 -3.87453 0.6019 0
M  V30 9934 H 929.288 -4.16166 -0.345727 0
M  V30 9935 N 929.725 -0.817259 -1.34754 0
M  V30 9936 C 930.635 -0.236946 -2.334 0
M  V30 9937 C 931.651 0.625685 -1.62361 0
M  V30 9938 O 932.827 0.534921 -1.94166 0
M  V30 9939 C 929.892 0.596215 -3.41535 0
M  V30 9940 C 928.953 -0.288154 -4.28332 0
M  V30 9941 C 928.186 0.505337 -5.31302 0
M  V30 9942 O 928.409 1.73912 -5.43241 0
M  V30 9943 O 927.343 -0.109374 -6.01801 0
M  V30 9944 H 931.169 -1.05327 -2.84851 0
M  V30 9945 H 928.754 -0.579275 -1.37713 0
M  V30 9946 H 930.636 1.07041 -4.07578 0
M  V30 9947 H 929.311 1.38997 -2.92338 0
M  V30 9948 H 928.218 -0.809724 -3.65232 0
M  V30 9949 H 929.551 -1.04612 -4.80955 0
M  V30 9950 N 931.203 1.46865 -0.571711 0
M  V30 9951 C 932.113 2.33979 0.170571 0
M  V30 9952 C 933.129 1.49083 0.897239 0
M  V30 9953 O 934.305 1.81979 0.862888 0
M  V30 9954 C 931.37 3.26063 1.17831 0
M  V30 9955 C 930.431 4.26855 0.457499 0
M  V30 9956 C 929.664 5.14539 1.41722 0
M  V30 9957 O 929.887 5.04945 2.65305 0
M  V30 9958 O 928.821 5.94612 0.9338 0
M  V30 9959 H 932.647 2.98781 -0.544396 0
M  V30 9960 H 930.232 1.4566 -0.332198 0
M  V30 9961 H 932.114 3.82903 1.75965 0
M  V30 9962 H 930.789 2.63871 1.87493 0
M  V30 9963 H 929.696 3.73734 -0.165406 0
M  V30 9964 H 931.029 4.91802 -0.197953 0
M  V30 9965 N 932.681 0.308908 1.54543 0
M  V30 9966 C 933.929 -0.297447 1.99899 0
M  V30 9967 C 934.25 -1.53799 1.19878 0
M  V30 9968 O 933.52 -1.93639 0.29678 0
M  V30 9969 H 932.1 -0.112897 0.738419 0
M  V30 9970 H 934.762 0.422067 1.90275 0
M  V30 9971 H 933.858 -0.564016 3.06961 0
M  V30 9972 N 934.159 -1.57557 0.0367827 0
M  V30 9973 C 935.106 -2.10679 -0.942499 0
M  V30 9974 C 936.076 -1.01068 -1.31812 0
M  V30 9975 O 937.261 -1.28533 -1.41011 0
M  V30 9976 C 934.401 -2.64467 -2.21701 0
M  V30 9977 C 933.514 -3.88114 -1.89715 0
M  V30 9978 C 932.649 -4.30268 -3.11518 0
M  V30 9979 C 931.688 -5.46652 -2.75387 0
M  V30 9980 N 930.825 -5.83927 -3.89838 0
M  V30 9981 H 935.665 -2.94066 -0.482588 0
M  V30 9982 H 933.202 -1.45344 -0.226597 0
M  V30 9983 H 935.16 -2.93745 -2.96259 0
M  V30 9984 H 933.79 -1.83898 -2.65295 0
M  V30 9985 H 932.842 -3.65516 -1.05366 0
M  V30 9986 H 934.154 -4.72743 -1.5911 0
M  V30 9987 H 933.308 -4.61023 -3.94389 0
M  V30 9988 H 932.047 -3.44421 -3.4529 0
M  V30 9989 H 931.052 -5.15583 -1.90929 0
M  V30 9990 H 932.277 -6.34204 -2.42822 0
M  V30 9991 H 930.223 -5.01035 -4.23438 0
M  V30 9992 H 930.14 -6.63214 -3.62883 0
M  V30 9993 H 931.408 -6.19291 -4.73391 0
M  V30 9994 N 935.637 0.236453 -1.55816 0
M  V30 9995 C 936.584 1.29289 -1.91188 0
M  V30 9996 C 937.554 1.47315 -0.767301 0
M  V30 9997 O 938.739 1.61128 -1.02189 0
M  V30 9998 C 935.879 2.64126 -2.22107 0
M  V30 9999 C 934.992 2.54022 -3.49423 0
M  V30 10000 C 934.127 3.81282 -3.69861 0
M  V30 10001 C 933.166 3.65839 -4.90743 0
M  V30 10002 N 932.303 4.85014 -5.07647 0
M  V30 10003 H 937.143 0.98424 -2.81277 0
M  V30 10004 H 934.68 0.474722 -1.39229 0
M  V30 10005 H 936.638 3.42626 -2.3804 0
M  V30 10006 H 935.268 2.93118 -1.35209 0
M  V30 10007 H 934.32 1.67036 -3.41765 0
M  V30 10008 H 935.632 2.38525 -4.38072 0
M  V30 10009 H 934.786 4.68226 -3.8581 0
M  V30 10010 H 933.525 3.99688 -2.79465 0
M  V30 10011 H 932.53 2.77279 -4.74759 0
M  V30 10012 H 933.755 3.48918 -5.82609 0
M  V30 10013 H 931.701 5.03762 -4.20191 0
M  V30 10014 H 931.618 4.72188 -5.90402 0
M  V30 10015 H 932.886 5.73427 -5.28017 0
M  V30 10016 N 937.115 1.49373 0.502552 0
M  V30 10017 C 938.045 1.68839 1.61294 0
M  V30 10018 C 939.026 0.537096 1.61398 0
M  V30 10019 O 940.211 0.772764 1.78163 0
M  V30 10020 C 937.341 1.75347 2.99784 0
M  V30 10021 C 936.295 2.90251 3.14545 0
M  V30 10022 C 935.621 2.8187 4.54371 0
M  V30 10023 C 936.921 4.31207 2.94717 0
M  V30 10024 H 938.615 2.61803 1.45257 0
M  V30 10025 H 936.161 1.25987 0.697371 0
M  V30 10026 H 938.114 1.87552 3.77362 0
M  V30 10027 H 936.838 0.789814 3.16906 0
M  V30 10028 H 935.497 2.77646 2.39392 0
M  V30 10029 H 935.145 1.83416 4.68367 0
M  V30 10030 H 934.845 3.5899 4.65188 0
M  V30 10031 H 936.369 2.96081 5.34012 0
M  V30 10032 H 937.783 4.44501 3.62065 0
M  V30 10033 H 936.18 5.09536 3.17007 0
M  V30 10034 H 937.25 4.45759 1.90857 0
M  V30 10035 N 938.594 -0.753485 1.38421 0
M  V30 10036 C 939.84 -1.51485 1.34834 0
M  V30 10037 C 940.173 -1.94102 -0.0615381 0
M  V30 10038 O 939.448 -1.65439 -1.02274 0
M  V30 10039 C 939.731 -2.76736 2.30411 0
M  V30 10040 C 939.584 -2.40256 3.80259 0
M  V30 10041 C 940.903 -3.7876 2.24119 0
M  V30 10042 H 938.022 -0.549534 0.491102 0
M  V30 10043 H 940.664 -0.863006 1.6927 0
M  V30 10044 H 938.814 -3.32357 2.01175 0
M  V30 10045 H 940.486 -1.90409 4.20169 0
M  V30 10046 H 938.729 -1.72714 3.97935 0
M  V30 10047 H 939.4 -3.29869 4.42595 0
M  V30 10048 H 941.876 -3.32679 2.49928 0
M  V30 10049 H 940.752 -4.64092 2.93104 0
M  V30 10050 H 941.013 -4.24352 1.24006 0
M  V30 10051 N 940.072 -1.23292 -0.981677 0
M  V30 10052 C 941.035 -1.01417 -2.05542 0
M  V30 10053 C 942.035 0.0235354 -1.60783 0
M  V30 10054 O 943.225 -0.216082 -1.72855 0
M  V30 10055 C 940.357 -0.534239 -3.36688 0
M  V30 10056 H 941.55 -1.96702 -2.26381 0
M  V30 10057 H 939.103 -1.05318 -1.1549 0
M  V30 10058 H 939.838 0.422452 -3.21537 0
M  V30 10059 H 939.623 -1.28304 -3.70514 0
M  V30 10060 H 941.113 -0.40179 -4.15663 0
M  V30 10061 N 941.55 1.18024 -1.04442 0
M  V30 10062 C 942.513 2.19992 -0.643136 0
M  V30 10063 C 943.513 1.57949 0.301444 0
M  V30 10064 O 944.703 1.73986 0.0863341 0
M  V30 10065 C 941.835 3.40853 0.0565208 0
M  V30 10066 H 943.028 2.57008 -1.54554 0
M  V30 10067 H 940.581 1.31974 -0.837408 0
M  V30 10068 H 941.316 3.09373 0.972553 0
M  V30 10069 H 941.101 3.87128 -0.622439 0
M  V30 10070 H 942.591 4.16344 0.323652 0
M  V30 10071 N 943.028 0.824394 1.34319 0
M  V30 10072 C 944.253 0.425194 2.02995 0
M  V30 10073 C 944.678 -0.961476 1.6167 0
M  V30 10074 O 944.036 -1.62593 0.80207 0
M  V30 10075 C 944.084 0.537004 3.56579 0
M  V30 10076 O 943.188 -0.442576 4.10018 0
M  V30 10077 H 942.529 0.174853 0.640564 0
M  V30 10078 H 945.059 1.11522 1.71534 0
M  V30 10079 H 945.069 0.413311 4.05901 0
M  V30 10080 H 943.744 1.54836 3.86004 0
M  V30 10081 H 942.321 -0.277644 3.71865 0
M  V30 10082 N 944.506 -1.46559 0.579492 0
M  V30 10083 C 945.438 -2.28383 -0.19337 0
M  V30 10084 C 946.451 -1.38324 -0.858511 0
M  V30 10085 O 947.64 -1.62952 -0.728615 0
M  V30 10086 C 944.74 -3.13262 -1.29306 0
M  V30 10087 C 943.913 -4.31426 -0.720459 0
M  V30 10088 C 942.972 -4.97728 -1.70744 0
M  V30 10089 O 941.998 -5.55423 -1.24476 0
M  V30 10090 N 943.2 -4.94445 -3.04146 0
M  V30 10091 H 945.965 -2.95353 0.508611 0
M  V30 10092 H 943.526 -1.56436 0.417046 0
M  V30 10093 H 945.518 -3.54483 -1.95254 0
M  V30 10094 H 944.088 -2.48388 -1.89795 0
M  V30 10095 H 943.308 -3.94028 0.116398 0
M  V30 10096 H 944.596 -5.07808 -0.31763 0
M  V30 10097 H 943.994 -4.4881 -3.44363 0
M  V30 10098 H 942.551 -5.39616 -3.65592 0
M  V30 10099 N 945.984 -0.3171 -1.54377 0
M  V30 10100 C 946.947 0.53905 -2.22771 0
M  V30 10101 C 947.947 1.04865 -1.21901 0
M  V30 10102 O 949.137 0.942108 -1.46526 0
M  V30 10103 C 946.269 1.74804 -2.92671 0
M  V30 10104 H 947.462 -0.0587417 -2.99842 0
M  V30 10105 H 945.015 -0.068107 -1.56152 0
M  V30 10106 H 945.75 2.38524 -2.1972 0
M  V30 10107 H 945.535 1.39011 -3.66631 0
M  V30 10108 H 947.025 2.35592 -3.44799 0
M  V30 10109 N 947.462 1.57535 -0.0451378 0
M  V30 10110 C 948.425 2.1008 0.916461 0
M  V30 10111 C 949.425 1.01913 1.2438 0
M  V30 10112 O 950.615 1.2801 1.18148 0
M  V30 10113 C 947.747 2.58001 2.22818 0
M  V30 10114 H 948.94 2.96334 0.461076 0
M  V30 10115 H 946.493 1.54974 0.203169 0
M  V30 10116 H 947.228 1.75123 2.72951 0
M  V30 10117 H 947.013 3.3704 2.00366 0
M  V30 10118 H 948.503 2.98822 2.9171 0
M  V30 10119 N 948.94 -0.228186 1.55939 0
M  V30 10120 C 949.87 -1.28607 1.94891 0
M  V30 10121 C 950.851 -1.49236 0.816245 0
M  V30 10122 O 952.036 -1.61531 1.07803 0
M  V30 10123 C 949.166 -2.63719 2.25986 0
M  V30 10124 C 948.12 -2.57757 3.4168 0
M  V30 10125 C 947.446 -3.96837 3.58364 0
M  V30 10126 C 948.746 -2.13116 4.76843 0
M  V30 10127 H 950.44 -0.962531 2.83506 0
M  V30 10128 H 947.986 -0.461577 1.36402 0
M  V30 10129 H 949.939 -3.37878 2.51826 0
M  V30 10130 H 948.663 -2.97747 1.34217 0
M  V30 10131 H 947.322 -1.86055 3.15878 0
M  V30 10132 H 946.97 -4.28162 2.63982 0
M  V30 10133 H 946.67 -3.93731 4.36176 0
M  V30 10134 H 948.194 -4.72668 3.86545 0
M  V30 10135 H 949.608 -2.77015 5.01932 0
M  V30 10136 H 948.005 -2.21083 5.57891 0
M  V30 10137 H 949.075 -1.08326 4.72645 0
M  V30 10138 N 950.418 -1.49637 -0.494624 0
M  V30 10139 C 951.666 -1.5913 -1.24587 0
M  V30 10140 C 951.987 -0.282828 -1.92938 0
M  V30 10141 O 951.257 0.69825 -1.83034 0
M  V30 10142 H 949.837 -0.586329 -0.462847 0
M  V30 10143 H 952.499 -1.86296 -0.572696 0
M  V30 10144 H 951.595 -2.3906 -2.00641 0
M  V30 10145 N 951.896 0.746133 -1.38819 0
M  V30 10146 C 952.826 1.87344 -1.39372 0
M  V30 10147 C 953.807 1.68123 -0.258583 0
M  V30 10148 O 954.992 1.88606 -0.462769 0
M  V30 10149 C 952.122 3.24962 -1.22543 0
M  V30 10150 C 951.076 3.58799 -2.33339 0
M  V30 10151 C 950.402 4.95235 -2.01609 0
M  V30 10152 C 951.702 3.62911 -3.75624 0
M  V30 10153 H 953.396 1.87138 -2.33709 0
M  V30 10154 H 950.942 0.898937 -1.12495 0
M  V30 10155 H 952.895 4.03488 -1.21554 0
M  V30 10156 H 951.619 3.25667 -0.246707 0
M  V30 10157 H 950.278 2.82596 -2.33527 0
M  V30 10158 H 949.926 4.92508 -1.02202 0
M  V30 10159 H 949.626 5.18843 -2.75819 0
M  V30 10160 H 951.15 5.76131 -2.02251 0
M  V30 10161 H 952.564 4.31535 -3.77426 0
M  V30 10162 H 950.961 3.98031 -4.491 0
M  V30 10163 H 952.031 2.62967 -4.07402 0
M  V30 10164 O 953.413 1.34966 0.886936 0
M  V30 10165 H 954.104 1.19586 1.52377 0
M  V30 END ATOM
M  V30 BEGIN BOND
M  V30 END BOND
M  V30 END CTAB
M  END
$$$$
