drugbank_drug|DB11300 sp|P00735|THRB_BOVIN Prothrombin OS=Bos taurus OX=9913 GN=F2 PE=1 SV=2
 OpenBabel12092119103D

  0  0  0     0  0            999 V3000
M  V30 BEGIN CTAB
M  V30 COUNTS 9755 9872 0 0 0
M  V30 BEGIN ATOM
M  V30 1 H -0.908 1.98254 -0.117106 0
M  V30 2 N 0 1.576 0 0
M  V30 3 C 0.933 2.03868 1.02534 0
M  V30 4 C 1.911 0.928543 1.3348 0
M  V30 5 O 3.095 1.19667 1.45644 0
M  V30 6 C 0.222 2.43627 2.35294 0
M  V30 7 C -0.732 3.65373 2.2001 0
M  V30 8 S 0.101 5.13292 1.52614 0
M  V30 9 C 1.257 5.56322 2.86805 0
M  V30 10 H 1.49 2.90518 0.631377 0
M  V30 11 H -0.977 1.52953 0.210867 0
M  V30 12 H 0.981 2.67203 3.11629 0
M  V30 13 H -0.358 1.57376 2.7183 0
M  V30 14 H -1.165 3.90944 3.18086 0
M  V30 15 H -1.563 3.418 1.51819 0
M  V30 16 H 0.729 5.58782 3.83104 0
M  V30 17 H 1.672 6.56266 2.65933 0
M  V30 18 H 2.08 4.83886 2.90714 0
M  V30 19 N 1.4781 -0.272755 1.55222 0
M  V30 20 C 2.4411 -1.32041 1.87344 0
M  V30 21 C 3.4411 -1.42342 0.74803 0
M  V30 22 O 4.6311 -1.41488 1.0162 0
M  V30 23 C 1.7631 -2.70173 2.07893 0
M  V30 24 H 2.9561 -1.04789 2.80997 0
M  V30 25 H 0.5091 -0.51083 1.47717 0
M  V30 26 H 1.2441 -3.02605 1.16622 0
M  V30 27 H 1.0291 -2.64082 2.89833 0
M  V30 28 H 2.5191 -3.45869 2.34017 0
M  V30 29 N 2.9562 -1.48159 -0.537278 0
M  V30 30 C 4.3722 -1.34118 -0.865129 0
M  V30 31 C 4.5722 -0.346678 -1.98495 0
M  V30 32 O 3.6282 0.234715 -2.51407 0
M  V30 33 C 4.9412 -2.73963 -1.23954 0
M  V30 34 C 6.4892 -2.82397 -1.34984 0
M  V30 35 C 6.9642 -4.22928 -1.75772 0
M  V30 36 N 8.4552 -4.25566 -1.82887 0
M  V30 37 C 9.1902 -5.31235 -2.15817 0
M  V30 38 N 8.6862 -6.47189 -2.47222 0
M  V30 39 N 10.4792 -5.18624 -2.16761 0
M  V30 40 H 2.6302 -2.1144 0.201715 0
M  V30 41 H 4.8932 -0.947598 0.0275949 0
M  V30 42 H 4.5992 -3.48264 -0.490381 0
M  V30 43 H 4.4732 -3.0702 -2.19132 0
M  V30 44 H 6.8602 -2.08356 -2.08978 0
M  V30 45 H 6.9412 -2.5297 -0.379448 0
M  V30 46 H 6.5852 -4.97482 -1.02341 0
M  V30 47 H 6.5152 -4.49794 -2.73848 0
M  V30 48 H 9.0062 -3.41924 -1.60924 0
M  V30 49 H 9.3192 -7.23564 -2.71433 0
M  V30 50 H 7.6642 -6.50476 -2.44757 0
M  V30 51 H 10.8552 -4.27056 -1.91679 0
M  V30 52 H 11.0282 -6.01078 -2.42093 0
M  V30 53 N 4.4343 0.785586 -1.36625 0
M  V30 54 C 5.6803 1.54591 -1.31261 0
M  V30 55 C 6.0133 1.93906 0.106823 0
M  V30 56 O 5.2883 1.63007 1.06108 0
M  V30 57 C 5.5713 2.82038 -2.23889 0
M  V30 58 C 5.4243 2.49066 -3.74548 0
M  V30 59 C 6.7433 3.83887 -2.15217 0
M  V30 60 H 3.8623 0.560846 -0.478143 0
M  V30 61 H 6.5043 0.902278 -1.67209 0
M  V30 62 H 4.6543 3.36961 -1.93363 0
M  V30 63 H 6.3263 2.00164 -4.15611 0
M  V30 64 H 4.5693 1.81954 -3.93796 0
M  V30 65 H 5.2403 3.40109 -4.34776 0
M  V30 66 H 7.7163 3.38421 -2.42096 0
M  V30 67 H 6.5923 4.70806 -2.82193 0
M  V30 68 H 6.8533 4.27131 -1.14068 0
M  V30 69 N 5.9124 1.20967 1.01018 0
M  V30 70 C 7.3284 0.965905 1.27053 0
M  V30 71 C 7.5284 -0.350785 1.98423 0
M  V30 72 O 6.5844 -1.07773 2.28344 0
M  V30 73 C 7.8974 2.15294 2.09926 0
M  V30 74 C 9.4454 2.19463 2.23171 0
M  V30 75 C 9.9204 3.3767 3.09424 0
M  V30 76 N 11.4114 3.37724 3.17012 0
M  V30 77 C 12.1464 4.25837 3.83993 0
M  V30 78 N 11.6424 5.24138 4.53047 0
M  V30 79 N 13.4354 4.1366 3.80581 0
M  V30 80 H 5.5864 2.0565 0.531194 0
M  V30 81 H 7.8494 0.90024 0.297106 0
M  V30 82 H 7.5554 3.10684 1.64828 0
M  V30 83 H 7.4294 2.13923 3.10672 0
M  V30 84 H 9.8164 1.24632 2.6749 0
M  V30 85 H 9.8974 2.2488 1.21912 0
M  V30 86 H 9.5414 4.32791 2.65808 0
M  V30 87 H 9.4714 3.29491 4.10784 0
M  V30 88 H 11.9624 2.6658 2.6785 0
M  V30 89 H 12.2754 5.87684 5.01844 0
M  V30 90 H 10.6204 5.28068 4.5185 0
M  V30 91 H 13.8114 3.36127 3.25785 0
M  V30 92 H 13.9844 4.82538 4.32505 0
M  V30 93 N 7.3905 -1.2043 1.01659 0
M  V30 94 C 8.6385 -1.89423 0.704522 0
M  V30 95 C 8.9595 -1.79231 -0.768197 0
M  V30 96 O 8.2295 -1.1947 -1.55254 0
M  V30 97 H 6.8095 -0.701178 0.257602 0
M  V30 98 H 9.4715 -1.4626 1.28818 0
M  V30 99 H 8.5675 -2.96052 0.987916 0
M  V30 100 N 8.8686 -0.792821 -1.36206 0
M  V30 101 C 10.2796 -0.429513 -1.81692 0
M  V30 102 C 10.6306 1.04695 -1.65932 0
M  V30 103 O 9.7556 1.81256 -1.18218 0
M  V30 104 C 10.3506 -0.772831 -3.29868 0
M  V30 105 C 8.9096 -0.462307 -3.7355 0
M  V30 106 C 8.0566 -1.00569 -2.5842 0
M  V30 107 H 11.0076 -0.985672 -1.24379 0
M  V30 108 H 11.0286 -0.0651928 -3.80444 0
M  V30 109 H 10.5406 -1.84747 -3.41307 0
M  V30 110 H 8.6416 0.604158 -3.67669 0
M  V30 111 H 8.7546 -0.985299 -4.68859 0
M  V30 112 H 7.1186 -0.428734 -2.51066 0
M  V30 113 H 7.9016 -2.08616 -2.72643 0
M  V30 114 N 10.3467 1.47872 -0.545128 0
M  V30 115 C 11.7627 1.5829 -0.204032 0
M  V30 116 C 11.9627 1.54529 1.29317 0
M  V30 117 O 11.0187 1.44232 2.07252 0
M  V30 118 C 12.3317 2.89304 -0.819987 0
M  V30 119 C 13.8797 3.02864 -0.790105 0
M  V30 120 C 14.3547 4.3656 -1.38491 0
M  V30 121 N 15.8457 4.43165 -1.34755 0
M  V30 122 C 16.5807 5.45153 -1.77753 0
M  V30 123 N 16.0767 6.54016 -2.2855 0
M  V30 124 N 17.8697 5.36125 -1.68897 0
M  V30 125 H 10.0207 1.4856 -1.51802 0
M  V30 126 H 12.2837 0.706305 -0.632327 0
M  V30 127 H 11.9897 2.97757 -1.87173 0
M  V30 128 H 11.8637 3.75957 -0.305915 0
M  V30 129 H 14.2507 2.94014 0.252913 0
M  V30 130 H 14.3317 2.17782 -1.34181 0
M  V30 131 H 13.9757 4.46164 -2.42693 0
M  V30 132 H 13.9057 5.20353 -0.808754 0
M  V30 133 H 16.3967 3.65083 -0.975855 0
M  V30 134 H 16.7097 7.27994 -2.59314 0
M  V30 135 H 15.0547 6.54938 -2.32553 0
M  V30 136 H 18.2457 4.49975 -1.28998 0
M  V30 137 H 18.4187 6.15472 -2.02726 0
M  V30 138 N 11.8248 0.280983 1.55075 0
M  V30 139 C 12.7548 -0.597469 2.25727 0
M  V30 140 C 13.7358 -1.15417 1.24952 0
M  V30 141 O 14.9208 -1.18722 1.53684 0
M  V30 142 C 12.0508 -1.7789 2.98283 0
M  V30 143 C 11.0048 -1.35347 4.06036 0
M  V30 144 C 10.3308 -2.61846 4.66198 0
M  V30 145 C 11.6308 -0.499354 5.19907 0
M  V30 146 H 13.3248 -0.00824265 2.99399 0
M  V30 147 H 10.8708 -0.0025244 1.44 0
M  V30 148 H 12.8238 -2.39937 3.46422 0
M  V30 149 H 11.5478 -2.39405 2.22155 0
M  V30 150 H 10.2068 -0.756156 3.58717 0
M  V30 151 H 9.8548 -3.21632 3.86732 0
M  V30 152 H 9.5548 -2.3409 5.38958 0
M  V30 153 H 11.0788 -3.24732 5.1709 0
M  V30 154 H 12.4928 -1.02498 5.64063 0
M  V30 155 H 10.8898 -0.316424 5.99265 0
M  V30 156 H 11.9598 0.480459 4.82514 0
M  V30 157 N 13.3029 -1.57598 0.00835791 0
M  V30 158 C 14.7139 -1.7892 -0.53333 0
M  V30 159 C 15.0649 -0.916609 -1.73473 0
M  V30 160 O 14.1899 -0.121336 -2.1606 0
M  V30 161 C 14.7849 -3.24488 -0.974313 0
M  V30 162 C 13.3439 -3.46878 -1.46125 0
M  V30 163 C 12.4909 -2.74157 -0.416302 0
M  V30 164 H 15.4419 -1.56958 0.234495 0
M  V30 165 H 15.4629 -3.3306 -1.83988 0
M  V30 166 H 14.9749 -3.87972 -0.099718 0
M  V30 167 H 13.0759 -2.8862 -2.35646 0
M  V30 168 H 13.1889 -4.55572 -1.48295 0
M  V30 169 H 11.5529 -2.39022 -0.87981 0
M  V30 170 H 12.3359 -3.40345 0.44947 0
M  V30 171 N 14.781 0.264519 -1.55364 0
M  V30 172 C 16.029 0.993021 -1.76021 0
M  V30 173 C 16.35 1.86511 -0.569099 0
M  V30 174 O 15.62 1.91438 0.415735 0
M  V30 175 H 14.2 0.369639 -0.649135 0
M  V30 176 H 16.862 0.286707 -1.9278 0
M  V30 177 H 15.958 1.62502 -2.66457 0
M  V30 178 N 16.2591 1.48442 0.529413 0
M  V30 179 C 17.4991 1.58086 1.29569 0
M  V30 180 C 17.8631 0.249302 1.90375 0
M  V30 181 O 19.0641 0.220738 2.67892 0
M  V30 182 C 17.3351 2.68793 2.35552 0
M  V30 183 S 18.8941 2.98207 3.21898 0
M  V30 184 H 15.7121 0.557922 0.440732 0
M  V30 185 H 18.3141 1.85966 0.603059 0
M  V30 186 H 17.0181 3.64102 1.89363 0
M  V30 187 H 16.5491 2.42817 3.09522 0
M  V30 188 H 18.5641 2.37548 4.35644 0
M  V30 189 N 17.7372 -0.778329 1.37039 0
M  V30 190 C 18.6672 -1.90546 1.34962 0
M  V30 191 C 19.6482 -1.68681 0.219274 0
M  V30 192 O 20.8332 -1.89634 0.418624 0
M  V30 193 C 17.9632 -3.27734 1.14925 0
M  V30 194 C 16.9172 -3.64147 2.24902 0
M  V30 195 C 16.2432 -4.99806 1.89996 0
M  V30 196 C 17.5432 -3.71579 3.67051 0
M  V30 197 H 19.2372 -1.92541 2.29277 0
M  V30 198 H 16.7832 -0.924948 1.10366 0
M  V30 199 H 18.7362 -4.06215 1.12104 0
M  V30 200 H 17.4602 -3.26154 0.170631 0
M  V30 201 H 16.1192 -2.8797 2.26868 0
M  V30 202 H 15.7672 -4.94759 0.906796 0
M  V30 203 H 15.4672 -5.25139 2.63634 0
M  V30 204 H 16.9912 -5.80694 1.88749 0
M  V30 205 H 18.4052 -4.40227 3.67251 0
M  V30 206 H 16.8022 -4.08405 4.39688 0
M  V30 207 H 17.8722 -2.72404 4.01154 0
M  V30 208 N 19.2153 -1.21501 -1.00376 0
M  V30 209 C 20.1783 -0.976927 -2.07337 0
M  V30 210 C 21.1783 0.0525322 -1.60714 0
M  V30 211 O 22.3683 -0.184869 -1.73216 0
M  V30 212 C 19.5003 -0.473423 -3.37597 0
M  V30 213 H 20.6933 -1.92587 -2.29892 0
M  V30 214 H 18.2463 -1.03217 -1.17371 0
M  V30 215 H 18.9813 0.480379 -3.20722 0
M  V30 216 H 18.7663 -1.216 -3.72768 0
M  V30 217 H 20.2563 -0.32675 -4.1632 0
M  V30 218 N 20.6934 1.19889 -1.02296 0
M  V30 219 C 21.6234 2.25141 -0.619174 0
M  V30 220 C 22.6044 1.66051 0.368915 0
M  V30 221 O 23.7894 1.92546 0.252941 0
M  V30 222 C 20.9194 3.4728 0.0368783 0
M  V30 223 C 19.8734 4.19005 -0.872865 0
M  V30 224 C 19.1994 5.34637 -0.0822402 0
M  V30 225 C 20.4994 4.74452 -2.18387 0
M  V30 226 H 22.1934 2.59171 -1.49903 0
M  V30 227 H 19.7394 1.24579 -0.722222 0
M  V30 228 H 21.6924 4.20098 0.330958 0
M  V30 229 H 20.4164 3.12433 0.95149 0
M  V30 230 H 19.0754 3.48061 -1.15105 0
M  V30 231 H 18.7234 4.96034 0.83422 0
M  V30 232 H 18.4234 5.83557 -0.688149 0
M  V30 233 H 19.9474 6.10255 0.205238 0
M  V30 234 H 21.3614 5.39055 -1.95172 0
M  V30 235 H 19.7584 5.33834 -2.74119 0
M  V30 236 H 20.8284 3.92844 -2.84257 0
M  V30 237 N 22.1715 0.800033 1.35784 0
M  V30 238 C 23.1345 0.211565 2.28221 0
M  V30 239 C 24.1345 -0.59728 1.49296 0
M  V30 240 O 25.3245 -0.416721 1.69142 0
M  V30 241 C 22.4565 -0.705846 3.33513 0
M  V30 242 H 23.6495 1.02677 2.81776 0
M  V30 243 H 21.2025 0.570211 1.45528 0
M  V30 244 H 21.9375 -1.54498 2.85133 0
M  V30 245 H 21.7225 -0.127655 3.91892 0
M  V30 246 H 23.2125 -1.11211 4.02519 0
M  V30 247 N 23.6496 -1.47581 0.552962 0
M  V30 248 C 24.6126 -2.28439 -0.186605 0
M  V30 249 C 25.6126 -1.36706 -0.84665 0
M  V30 250 O 26.8026 -1.59378 -0.703164 0
M  V30 251 C 23.9346 -3.16264 -1.2724 0
M  V30 252 H 25.1276 -2.95294 0.523609 0
M  V30 253 H 22.6806 -1.532 0.309745 0
M  V30 254 H 23.4156 -2.54091 -2.01514 0
M  V30 255 H 23.2006 -3.83769 -0.803968 0
M  V30 256 H 24.6906 -3.77198 -1.79196 0
M  V30 257 N 25.1277 -0.289203 -1.54924 0
M  V30 258 C 26.0577 0.58549 -2.2604 0
M  V30 259 C 27.0387 1.14753 -1.25562 0
M  V30 260 O 28.2237 1.17906 -1.54311 0
M  V30 261 C 25.3537 1.76305 -2.99222 0
M  V30 262 C 24.3077 1.33191 -4.06748 0
M  V30 263 C 23.6337 2.5937 -4.6758 0
M  V30 264 C 24.9337 0.471775 -5.20165 0
M  V30 265 H 26.6277 -0.00763532 -2.99399 0
M  V30 266 H 24.1737 -0.00511229 -1.43999 0
M  V30 267 H 26.1267 2.38097 -3.47689 0
M  V30 268 H 24.8507 2.38223 -2.23422 0
M  V30 269 H 23.5097 0.737121 -3.59113 0
M  V30 270 H 23.1577 3.19576 -3.88433 0
M  V30 271 H 22.8577 2.31228 -5.40192 0
M  V30 272 H 24.3817 3.21985 -5.18804 0
M  V30 273 H 25.7957 0.995056 -5.64599 0
M  V30 274 H 24.1927 0.284639 -5.99425 0
M  V30 275 H 25.2627 -0.506041 -4.82252 0
M  V30 276 N 26.6058 1.57591 -0.0167156 0
M  V30 277 C 27.8528 1.91283 0.664597 0
M  V30 278 C 28.1808 0.891949 1.72842 0
M  V30 279 O 27.4358 -0.100931 1.9544 0
M  V30 280 C 27.7348 3.3172 1.33029 0
M  V30 281 C 27.4008 4.4914 0.398047 0
M  V30 282 C 26.0628 4.80992 0.141421 0
M  V30 283 C 28.4148 5.20634 -0.242825 0
M  V30 284 C 25.7428 5.81703 -0.764092 0
M  V30 285 C 28.0948 6.22311 -1.13632 0
M  V30 286 C 26.7588 6.52611 -1.40196 0
M  V30 287 H 26.0288 0.699956 0.243193 0
M  V30 288 H 28.6758 1.9135 -0.0758267 0
M  V30 289 H 26.9808 3.27856 2.14517 0
M  V30 290 H 28.6778 3.55055 1.86379 0
M  V30 291 H 25.2678 4.24262 0.608238 0
M  V30 292 H 29.4518 4.96267 -0.0576019 0
M  V30 293 H 24.7078 6.03532 -0.977732 0
M  V30 294 H 28.8818 6.76834 -1.63917 0
M  V30 295 H 26.5088 7.30467 -2.10529 0
M  V30 296 N 28.0839 -0.256276 1.55502 0
M  V30 297 C 29.3089 -1.00766 1.81276 0
M  V30 298 C 29.7339 -1.78524 0.59252 0
M  V30 299 O 29.0919 -1.75413 -0.45827 0
M  V30 300 C 29.1399 -1.92869 3.04687 0
M  V30 301 O 28.2439 -3.019 2.80945 0
M  V30 302 H 27.5849 -0.287224 0.598664 0
M  V30 303 H 30.1149 -0.280109 2.02674 0
M  V30 304 H 30.1249 -2.34511 3.33869 0
M  V30 305 H 28.7999 -1.35689 3.93143 0
M  V30 306 H 27.3769 -2.64454 2.62904 0
M  V30 307 N 29.562 -1.4872 -0.521534 0
M  V30 308 C 30.492 -1.66771 -1.63431 0
M  V30 309 C 31.473 -0.516499 -1.62069 0
M  V30 310 O 32.658 -0.750013 -1.79132 0
M  V30 311 C 29.788 -1.71515 -3.01993 0
M  V30 312 C 28.742 -2.86222 -3.18216 0
M  V30 313 C 28.068 -2.76061 -4.57924 0
M  V30 314 C 29.368 -4.27419 -3.00184 0
M  V30 315 H 31.062 -2.59932 -1.48579 0
M  V30 316 H 28.608 -1.25089 -0.713358 0
M  V30 317 H 30.561 -1.82731 -3.7972 0
M  V30 318 H 29.285 -0.749393 -3.17886 0
M  V30 319 H 27.944 -2.74575 -2.42908 0
M  V30 320 H 27.592 -1.77437 -4.70665 0
M  V30 321 H 27.292 -3.53037 -4.69722 0
M  V30 322 H 28.816 -2.89256 -5.37739 0
M  V30 323 H 30.23 -4.39855 -3.67697 0
M  V30 324 H 28.627 -5.05458 -3.2347 0
M  V30 325 H 29.697 -4.43293 -1.96518 0
M  V30 326 N 31.0401 0.771051 -1.3745 0
M  V30 327 C 32.2861 1.5319 -1.32894 0
M  V30 328 C 32.6191 1.94008 0.0862511 0
M  V30 329 O 31.8941 1.64124 1.04373 0
M  V30 330 C 32.1771 2.79648 -2.26868 0
M  V30 331 C 32.0301 2.45079 -3.77169 0
M  V30 332 C 33.3491 3.81583 -2.19277 0
M  V30 333 H 30.4681 0.555744 -0.484064 0
M  V30 334 H 33.1101 0.884492 -1.68157 0
M  V30 335 H 31.2601 3.34891 -1.96926 0
M  V30 336 H 32.9321 1.95745 -4.1771 0
M  V30 337 H 31.1751 1.77767 -3.95704 0
M  V30 338 H 31.8461 3.35478 -4.38359 0
M  V30 339 H 34.3221 3.35835 -2.45671 0
M  V30 340 H 33.1981 4.67787 -2.87171 0
M  V30 341 H 33.4591 4.25897 -1.18592 0
M  V30 342 N 32.5182 1.22032 0.997298 0
M  V30 343 C 33.4682 0.953838 2.07089 0
M  V30 344 C 34.4522 -0.0938669 1.60626 0
M  V30 345 O 35.6442 0.116078 1.76619 0
M  V30 346 C 32.7732 0.528726 3.39204 0
M  V30 347 C 31.8592 1.61092 3.92314 0
M  V30 348 N 32.2502 2.83768 4.18699 0
M  V30 349 C 30.5482 1.48158 4.20672 0
M  V30 350 C 31.2492 3.53715 4.61802 0
M  V30 351 N 30.2252 2.81174 4.65233 0
M  V30 352 H 34.0272 1.88577 2.25424 0
M  V30 353 H 31.5412 1.11719 1.17867 0
M  V30 354 H 33.5382 0.31915 4.15677 0
M  V30 355 H 32.1982 -0.39635 3.22272 0
M  V30 356 H 33.2092 3.20238 4.07023 0
M  V30 357 H 29.8862 0.622369 4.12835 0
M  V30 358 H 31.2762 4.58793 4.90875 0
M  V30 359 N 33.9963 -1.19345 1.0293 0
M  V30 360 C 35.2213 -1.93538 0.745511 0
M  V30 361 C 35.6463 -1.75007 -0.689511 0
M  V30 362 O 35.0043 -1.05265 -1.47611 0
M  V30 363 C 35.0523 -3.43336 1.10239 0
M  V30 364 O 34.1563 -4.11806 0.221289 0
M  V30 365 H 33.4973 -0.604193 0.275404 0
M  V30 366 H 36.0273 -1.5141 1.37609 0
M  V30 367 H 36.0373 -3.94004 1.05947 0
M  V30 368 H 34.7123 -3.56146 2.14786 0
M  V30 369 H 33.2893 -3.715 0.322842 0
M  V30 370 N 35.4744 -0.807222 -1.35358 0
M  V30 371 C 36.4064 -0.175717 -2.28525 0
M  V30 372 C 37.4194 0.625354 -1.5031 0
M  V30 373 O 38.6084 0.457611 -1.72535 0
M  V30 374 C 35.7084 0.773471 -3.29956 0
M  V30 375 C 34.8814 0.0186296 -4.37396 0
M  V30 376 C 33.9404 0.886395 -5.18681 0
M  V30 377 O 32.9664 0.337106 -5.68201 0
M  V30 378 N 34.1684 2.20839 -5.36852 0
M  V30 379 H 36.9334 -0.976091 -2.83359 0
M  V30 380 H 34.4944 -0.662737 -1.47714 0
M  V30 381 H 36.4864 1.35824 -3.81227 0
M  V30 382 H 35.0564 1.47465 -2.75632 0
M  V30 383 H 34.2764 -0.747349 -3.87051 0
M  V30 384 H 35.5644 -0.501577 -5.06322 0
M  V30 385 H 34.9624 2.67858 -4.98265 0
M  V30 386 H 33.5194 2.74237 -5.91301 0
M  V30 387 N 36.9525 1.47285 -0.560781 0
M  V30 388 C 37.9025 2.27073 0.205384 0
M  V30 389 C 38.8865 1.34569 0.882044 0
M  V30 390 O 40.0785 1.58899 0.77976 0
M  V30 391 C 37.2075 3.20414 1.23247 0
M  V30 392 C 36.2935 4.20399 0.559041 0
M  V30 393 N 36.6845 5.04423 -0.372927 0
M  V30 394 C 34.9825 4.38536 0.812522 0
M  V30 395 C 35.6835 5.76655 -0.764446 0
M  V30 396 N 34.6595 5.43471 -0.11848 0
M  V30 397 H 38.4615 2.89422 -0.511117 0
M  V30 398 H 35.9755 1.57868 -0.380975 0
M  V30 399 H 37.9725 3.76262 1.79534 0
M  V30 400 H 36.6325 2.59623 1.95002 0
M  V30 401 H 37.6435 5.1248 -0.747287 0
M  V30 402 H 34.3205 3.88913 1.51832 0
M  V30 403 H 35.7105 6.54238 -1.53045 0
M  V30 404 N 38.4306 0.297415 1.54768 0
M  V30 405 C 39.6766 -0.313376 2.00364 0
M  V30 406 C 40.0096 -1.53815 1.18553 0
M  V30 407 O 39.2846 -1.92739 0.261103 0
M  V30 408 C 39.5676 -0.673525 3.53745 0
M  V30 409 C 39.4206 0.560133 4.46299 0
M  V30 410 C 40.7396 -1.50143 4.13697 0
M  V30 411 H 37.8586 -0.112428 0.728374 0
M  V30 412 H 40.5006 0.4088 1.8555 0
M  V30 413 H 38.6506 -1.28881 3.665 0
M  V30 414 H 40.3226 1.19863 4.45455 0
M  V30 415 H 38.5656 1.19405 4.17043 0
M  V30 416 H 39.2366 0.26405 5.51368 0
M  V30 417 H 41.7126 -0.981588 4.04356 0
M  V30 418 H 40.5886 -1.72221 5.21182 0
M  V30 419 H 40.8496 -2.48952 3.65343 0
M  V30 420 N 39.9087 -1.5758 0.0250728 0
M  V30 421 C 41.1557 -1.91633 -0.654444 0
M  V30 422 C 41.4837 -0.901103 -1.72367 0
M  V30 423 O 40.7387 0.0905647 -1.9549 0
M  V30 424 C 41.0377 -3.32421 -1.31268 0
M  V30 425 C 40.7037 -4.49344 -0.374223 0
M  V30 426 C 39.3657 -4.8106 -0.115911 0
M  V30 427 C 41.7177 -5.20498 0.270432 0
M  V30 428 C 39.0457 -5.8129 0.79493 0
M  V30 429 C 41.3977 -6.21699 1.1693 0
M  V30 430 C 40.0617 -6.51859 1.43655 0
M  V30 431 H 39.3317 -0.701236 -0.239478 0
M  V30 432 H 41.9787 -1.91307 0.0859734 0
M  V30 433 H 40.2837 -3.28989 -2.12775 0
M  V30 434 H 41.9807 -3.56038 -1.84494 0
M  V30 435 H 38.5707 -4.24579 -0.58573 0
M  V30 436 H 42.7547 -4.96229 0.0839194 0
M  V30 437 H 38.0107 -6.03005 1.00973 0
M  V30 438 H 42.1847 -6.75955 1.67504 0
M  V30 439 H 39.8117 -7.2934 2.144 0
M  V30 440 N 41.3868 0.248026 -1.55636 0
M  V30 441 C 42.3168 1.31079 -1.93237 0
M  V30 442 C 43.2978 1.50264 -0.797174 0
M  V30 443 O 44.4828 1.62891 -1.05737 0
M  V30 444 C 41.6128 2.66575 -2.22609 0
M  V30 445 C 40.5668 2.62087 -3.3837 0
M  V30 446 C 39.8928 4.01369 -3.53281 0
M  V30 447 C 41.1928 2.19171 -4.7409 0
M  V30 448 H 42.8868 0.998556 -2.82257 0
M  V30 449 H 40.4328 0.47891 -1.35803 0
M  V30 450 H 42.3858 3.41057 -2.47503 0
M  V30 451 H 41.1098 2.99432 -1.30414 0
M  V30 452 H 39.7688 1.90063 -3.13483 0
M  V30 453 H 39.4168 4.31489 -2.58508 0
M  V30 454 H 39.1168 3.99254 -4.31127 0
M  V30 455 H 40.6408 4.77552 -3.80495 0
M  V30 456 H 42.0548 2.83384 -4.98363 0
M  V30 457 H 40.4518 2.2817 -5.5503 0
M  V30 458 H 41.5218 1.14336 -4.71227 0
M  V30 459 N 42.8649 1.48995 0.513639 0
M  V30 460 C 43.8279 1.64229 1.59879 0
M  V30 461 C 44.8279 0.514696 1.5234 0
M  V30 462 O 46.0179 0.78087 1.55718 0
M  V30 463 C 43.1499 1.62783 2.99524 0
M  V30 464 H 44.3429 2.61004 1.47705 0
M  V30 465 H 41.8959 1.37837 0.736936 0
M  V30 466 H 42.6309 0.675461 3.17188 0
M  V30 467 H 42.4159 2.4466 3.06404 0
M  V30 468 H 43.9059 1.76669 3.78388 0
M  V30 469 N 44.343 -0.763751 1.37857 0
M  V30 470 C 45.293 -1.86765 1.30777 0
M  V30 471 C 46.277 -1.59726 0.194015 0
M  V30 472 O 47.469 -1.7172 0.42911 0
M  V30 473 C 44.598 -3.24343 1.12502 0
M  V30 474 C 43.684 -3.57307 2.28456 0
M  V30 475 N 44.075 -3.61398 3.53871 0
M  V30 476 C 42.373 -3.87517 2.20786 0
M  V30 477 C 43.074 -3.91339 4.30382 0
M  V30 478 N 42.05 -4.07649 3.59615 0
M  V30 479 H 45.852 -1.88191 2.25746 0
M  V30 480 H 43.366 -0.9606 1.30944 0
M  V30 481 H 45.363 -4.03327 1.05514 0
M  V30 482 H 44.023 -3.24175 0.184574 0
M  V30 483 H 45.034 -3.43407 3.87675 0
M  V30 484 H 41.711 -3.95125 1.34844 0
M  V30 485 H 43.101 -4.01213 5.3896 0
M  V30 486 N 45.8211 -1.22559 -0.990812 0
M  V30 487 C 46.7531 -0.955325 -2.08342 0
M  V30 488 C 47.7661 0.0668408 -1.62663 0
M  V30 489 O 48.9551 -0.167421 -1.77713 0
M  V30 490 C 46.0551 -0.415566 -3.36342 0
M  V30 491 C 45.2281 -1.49544 -4.11042 0
M  V30 492 C 44.2871 -0.962399 -5.17324 0
M  V30 493 O 43.3131 -1.64907 -5.44788 0
M  V30 494 N 44.5151 0.215134 -5.80101 0
M  V30 495 H 47.2801 -1.89596 -2.32106 0
M  V30 496 H 44.8411 -1.13276 -1.15673 0
M  V30 497 H 46.8331 -0.0442386 -4.04676 0
M  V30 498 H 45.4031 0.430232 -3.09625 0
M  V30 499 H 44.6231 -2.04 -3.37309 0
M  V30 500 H 45.9111 -2.22195 -4.57719 0
M  V30 501 H 45.3091 0.789779 -5.6016 0
M  V30 502 H 43.8661 0.527826 -6.49659 0
M  V30 503 N 47.2992 1.18797 -1.03562 0
M  V30 504 C 48.2312 2.21731 -0.580337 0
M  V30 505 C 49.2442 1.59051 0.347349 0
M  V30 506 O 50.4332 1.77929 0.142669 0
M  V30 507 C 47.5332 3.38459 0.172805 0
M  V30 508 C 46.7062 4.3072 -0.761496 0
M  V30 509 C 45.7652 5.26174 -0.0525547 0
M  V30 510 O 44.7912 5.65108 -0.681333 0
M  V30 511 N 45.9932 5.67624 1.21586 0
M  V30 512 H 48.7582 2.61417 -1.46565 0
M  V30 513 H 46.3192 1.33531 -0.915476 0
M  V30 514 H 48.3112 3.99335 0.656793 0
M  V30 515 H 46.8812 2.97507 0.959602 0
M  V30 516 H 46.1012 3.67525 -1.42544 0
M  V30 517 H 47.3892 4.89267 -1.39626 0
M  V30 518 H 46.7872 5.38038 1.74732 0
M  V30 519 H 45.3442 6.30721 1.64421 0
M  V30 520 N 48.7773 0.814389 1.34928 0
M  V30 521 C 49.7403 0.235759 2.27984 0
M  V30 522 C 50.7403 -0.581412 1.49921 0
M  V30 523 O 51.9303 -0.398758 1.69575 0
M  V30 524 C 49.0623 -0.670433 3.34242 0
M  V30 525 H 50.2553 1.05659 2.80671 0
M  V30 526 H 47.8083 0.585614 1.44915 0
M  V30 527 H 48.5433 -1.51466 2.86755 0
M  V30 528 H 48.3283 -0.0860822 3.92005 0
M  V30 529 H 49.8183 -1.06935 4.03676 0
M  V30 530 N 50.2554 -1.46986 0.568584 0
M  V30 531 C 51.4804 -2.07335 0.0520528 0
M  V30 532 C 51.9054 -1.41675 -1.23733 0
M  V30 533 O 51.2634 -0.495623 -1.74394 0
M  V30 534 C 51.3114 -3.60417 -0.11501 0
M  V30 535 O 50.4154 -3.95309 -1.17492 0
M  V30 536 H 49.7564 -0.661597 0.0564385 0
M  V30 537 H 52.2864 -1.88837 0.787507 0
M  V30 538 H 52.2964 -4.06698 -0.325644 0
M  V30 539 H 50.9714 -4.07601 0.826675 0
M  V30 540 H 49.5484 -3.60757 -0.943869 0
M  V30 541 N 51.7335 -0.305618 -1.54608 0
M  V30 542 C 52.9585 0.307562 -2.05107 0
M  V30 543 C 53.3835 1.46385 -1.18123 0
M  V30 544 O 52.7415 1.8034 -0.186324 0
M  V30 545 C 52.7895 0.73704 -3.52987 0
M  V30 546 O 51.8935 1.84134 -3.6901 0
M  V30 547 H 51.2345 0.0589143 -0.661381 0
M  V30 548 H 53.7645 -0.448807 -1.99617 0
M  V30 549 H 53.7745 1.02459 -3.94925 0
M  V30 550 H 52.4495 -0.108773 -4.15758 0
M  V30 551 H 51.0265 1.55398 -3.38978 0
M  V30 552 N 53.2116 1.57565 -0.0334293 0
M  V30 553 C 54.1416 2.13511 0.945265 0
M  V30 554 C 55.1226 1.05231 1.33643 0
M  V30 555 O 56.3076 1.33084 1.41429 0
M  V30 556 C 53.4376 2.6657 2.22616 0
M  V30 557 C 52.3916 3.79676 1.97561 0
M  V30 558 C 51.7176 4.1918 3.31952 0
M  V30 559 C 53.0176 5.0557 1.31135 0
M  V30 560 H 54.7116 2.95538 0.479325 0
M  V30 561 H 52.2576 1.42166 0.229115 0
M  V30 562 H 54.2106 3.04344 2.91466 0
M  V30 563 H 52.9346 1.8171 2.71384 0
M  V30 564 H 51.5936 3.42347 1.31127 0
M  V30 565 H 51.2416 3.31296 3.78487 0
M  V30 566 H 50.9416 4.95402 3.15992 0
M  V30 567 H 52.4656 4.59541 4.02063 0
M  V30 568 H 53.8796 5.40903 1.89992 0
M  V30 569 H 52.2766 5.86818 1.25559 0
M  V30 570 H 53.3466 4.84062 0.284894 0
M  V30 571 N 54.6897 -0.239769 1.55765 0
M  V30 572 C 55.6197 -1.30052 1.9393 0
M  V30 573 C 56.6007 -1.49839 0.805132 0
M  V30 574 O 57.7857 -1.62328 1.06599 0
M  V30 575 C 54.9157 -2.65391 2.2402 0
M  V30 576 C 53.8697 -2.60289 3.39755 0
M  V30 577 C 53.1957 -3.99489 3.55405 0
M  V30 578 C 54.4957 -2.16654 4.75246 0
M  V30 579 H 56.1897 -0.983573 2.82783 0
M  V30 580 H 53.7357 -0.471701 1.36055 0
M  V30 581 H 55.6887 -3.3974 2.49308 0
M  V30 582 H 54.4127 -2.98736 1.32 0
M  V30 583 H 53.0717 -1.88398 3.14487 0
M  V30 584 H 52.7197 -4.30112 2.60793 0
M  V30 585 H 52.4197 -3.96962 4.33238 0
M  V30 586 H 53.9437 -4.75528 3.83022 0
M  V30 587 H 55.3577 -2.80737 4.99859 0
M  V30 588 H 53.7547 -2.25223 5.56232 0
M  V30 589 H 54.8247 -1.11835 4.71827 0
M  V30 590 N 56.1678 -1.49265 -0.50573 0
M  V30 591 C 57.0998 -1.617 -1.62437 0
M  V30 592 C 58.1128 -0.499924 -1.54934 0
M  V30 593 O 59.3018 -0.771785 -1.60953 0
M  V30 594 C 56.4018 -1.5533 -3.01207 0
M  V30 595 C 55.5748 -2.8249 -3.33943 0
M  V30 596 C 54.6338 -2.69238 -4.52103 0
M  V30 597 O 53.6598 -3.43167 -4.5412 0
M  V30 598 N 54.8618 -1.80468 -5.51735 0
M  V30 599 H 57.6268 -2.58177 -1.52199 0
M  V30 600 H 55.1878 -1.46294 -0.693511 0
M  V30 601 H 57.1798 -1.44125 -3.78167 0
M  V30 602 H 55.7498 -0.667297 -3.05395 0
M  V30 603 H 54.9698 -3.08081 -2.45926 0
M  V30 604 H 56.2578 -3.66802 -3.5261 0
M  V30 605 H 55.6558 -1.19653 -5.52901 0
M  V30 606 H 54.2128 -1.75188 -6.27816 0
M  V30 607 N 57.6459 0.756429 -1.3826 0
M  V30 608 C 59.0619 1.0591 -1.19395 0
M  V30 609 C 59.2619 2.01459 -0.0406567 0
M  V30 610 O 58.3179 2.44909 0.614467 0
M  V30 611 C 59.6309 1.64191 -2.51916 0
M  V30 612 C 61.1789 1.76376 -2.58574 0
M  V30 613 C 61.6539 2.38069 -3.91264 0
M  V30 614 N 63.1449 2.45503 -3.92788 0
M  V30 615 C 63.8799 2.94126 -4.92217 0
M  V30 616 N 63.3759 3.42805 -6.02043 0
M  V30 617 N 65.1689 2.9314 -4.7961 0
M  V30 618 H 57.3199 0.122313 -2.12048 0
M  V30 619 H 59.5829 0.116892 -0.940766 0
M  V30 620 H 59.2889 1.01451 -3.3675 0
M  V30 621 H 59.1629 2.6329 -2.70108 0
M  V30 622 H 61.5499 2.38244 -1.74137 0
M  V30 623 H 61.6309 0.759894 -2.44252 0
M  V30 624 H 61.2749 1.76835 -4.76121 0
M  V30 625 H 61.2049 3.39091 -4.02895 0
M  V30 626 H 63.6959 2.1107 -3.13461 0
M  V30 627 H 64.0089 3.78354 -6.73846 0
M  V30 628 H 62.3539 3.4087 -6.05667 0
M  V30 629 H 65.5449 2.54419 -3.92923 0
M  V30 630 H 65.7179 3.30721 -5.5725 0
M  V30 631 N 59.124 1.23083 0.984299 0
M  V30 632 C 60.087 1.00979 2.05757 0
M  V30 633 C 61.087 -0.0269573 1.60777 0
M  V30 634 O 62.277 0.212403 1.729 0
M  V30 635 C 59.409 0.527072 3.36801 0
M  V30 636 H 60.602 1.9622 2.26799 0
M  V30 637 H 58.155 1.05072 1.15714 0
M  V30 638 H 58.89 -0.429294 3.21446 0
M  V30 639 H 58.675 1.27515 3.70786 0
M  V30 640 H 60.165 0.392942 4.15747 0
M  V30 641 N 60.6021 -1.18246 1.0419 0
M  V30 642 C 62.0181 -1.40269 0.761366 0
M  V30 643 C 62.2181 -1.90777 -0.648578 0
M  V30 644 O 61.2741 -2.0929 -1.41258 0
M  V30 645 C 62.5871 -2.40237 1.8085 0
M  V30 646 C 64.1351 -2.53961 1.82955 0
M  V30 647 C 64.6101 -3.57194 2.86664 0
M  V30 648 N 66.1011 -3.64702 2.85563 0
M  V30 649 C 66.8361 -4.44309 3.6246 0
M  V30 650 N 66.3321 -5.27514 4.49111 0
M  V30 651 N 68.1251 -4.39084 3.50944 0
M  V30 652 H 60.2761 -0.837882 1.95175 0
M  V30 653 H 62.5391 -0.430608 0.84456 0
M  V30 654 H 62.2451 -2.10176 2.81991 0
M  V30 655 H 62.1191 -3.39601 1.64168 0
M  V30 656 H 64.5061 -2.83338 0.824855 0
M  V30 657 H 64.5871 -1.54706 2.03715 0
M  V30 658 H 64.2311 -3.28558 3.87314 0
M  V30 659 H 64.1611 -4.5613 2.6316 0
M  V30 660 H 66.6521 -3.05289 2.22727 0
M  V30 661 H 66.9651 -5.85411 5.04493 0
M  V30 662 H 65.3101 -5.2693 4.53178 0
M  V30 663 H 68.5011 -3.7313 2.82651 0
M  V30 664 H 68.6741 -5.00883 4.11121 0
M  V30 665 N 62.0802 -0.821533 -1.34494 0
M  V30 666 C 63.4962 -0.507117 -1.51329 0
M  V30 667 C 63.6962 0.968964 -1.76673 0
M  V30 668 O 62.7522 1.75348 -1.81685 0
M  V30 669 C 64.0652 -1.36544 -2.67911 0
M  V30 670 C 65.6132 -1.36242 -2.81793 0
M  V30 671 C 66.0882 -2.2052 -4.01416 0
M  V30 672 N 67.5792 -2.18136 -4.08621 0
M  V30 673 C 68.3142 -2.80095 -5.00334 0
M  V30 674 N 67.8102 -3.51039 -5.9728 0
M  V30 675 N 69.6032 -2.69656 -4.93196 0
M  V30 676 H 61.7542 -1.77729 -1.16302 0
M  V30 677 H 64.0172 -0.757291 -0.570276 0
M  V30 678 H 63.7232 -2.41361 -2.55808 0
M  V30 679 H 63.5972 -1.02917 -3.62888 0
M  V30 680 H 65.9842 -0.322041 -2.93338 0
M  V30 681 H 66.0652 -1.73866 -1.87628 0
M  V30 682 H 65.7092 -3.24607 -3.90631 0
M  V30 683 H 65.6392 -1.80247 -4.94791 0
M  V30 684 H 68.1302 -1.6653 -3.39229 0
M  V30 685 H 68.4432 -3.95565 -6.63889 0
M  V30 686 H 66.7882 -3.55145 -5.97409 0
M  V30 687 H 69.9792 -2.13808 -4.16418 0
M  V30 688 H 70.1522 -3.1823 -5.64476 0
M  V30 689 N 63.5583 1.46682 -0.576371 0
M  V30 690 C 64.5213 2.28707 0.150239 0
M  V30 691 C 65.5213 1.38035 0.824794 0
M  V30 692 O 66.7113 1.60476 0.677719 0
M  V30 693 C 63.8433 3.18248 1.22192 0
M  V30 694 H 65.0363 2.94423 -0.570521 0
M  V30 695 H 62.5893 1.52688 -0.334078 0
M  V30 696 H 63.3243 2.57265 1.97447 0
M  V30 697 H 63.1093 3.85 0.742812 0
M  V30 698 H 64.5993 3.80001 1.73172 0
M  V30 699 N 65.0364 0.313813 1.54444 0
M  V30 700 C 65.9844 -0.572171 2.25453 0
M  V30 701 C 66.9784 -1.12657 1.2651 0
M  V30 702 O 68.1844 -1.07573 1.44319 0
M  V30 703 H 64.5594 -0.203146 0.724041 0
M  V30 704 H 66.5304 0.0491145 2.9836 0
M  V30 705 C 65.2794 -1.72626 3.0182 0
M  V30 706 H 64.6024 -1.30891 3.77767 0
M  V30 707 H 66.0424 -2.32199 3.54767 0
M  V30 708 C 64.5014 -2.63806 2.09542 0
M  V30 709 O 65.0314 -3.65256 1.67185 0
M  V30 710 N 63.2374 -2.31824 1.75232 0
M  V30 711 H 62.7844 -1.49368 2.09873 0
M  V30 712 H 62.7424 -2.93095 1.13767 0
M  V30 713 N 66.5145 -1.57545 0.0417849 0
M  V30 714 C 67.4615 -2.10977 -0.935805 0
M  V30 715 C 68.4315 -1.01486 -1.31491 0
M  V30 716 O 69.6165 -1.2898 -1.40602 0
M  V30 717 C 66.7565 -2.65169 -2.2086 0
M  V30 718 C 65.8695 -3.88714 -1.88482 0
M  V30 719 C 65.0045 -4.31254 -3.1015 0
M  V30 720 C 64.0435 -5.47524 -2.7365 0
M  V30 721 N 63.1805 -5.85162 -3.87982 0
M  V30 722 H 68.0205 -2.94218 -0.473249 0
M  V30 723 H 65.5575 -1.45415 -0.221981 0
M  V30 724 H 67.5155 -2.94685 -2.95325 0
M  V30 725 H 66.1455 -1.8474 -2.64709 0
M  V30 726 H 65.1975 -3.65849 -1.04205 0
M  V30 727 H 66.5095 -4.73245 -1.57608 0
M  V30 728 H 65.6635 -4.62273 -3.92923 0
M  V30 729 H 64.4025 -3.45516 -3.44195 0
M  V30 730 H 63.4075 -5.16187 -1.89291 0
M  V30 731 H 64.6325 -6.34971 -2.40807 0
M  V30 732 H 62.5785 -5.02377 -4.21846 0
M  V30 733 H 62.4955 -6.64362 -3.60775 0
M  V30 734 H 63.7635 -6.20791 -4.71422 0
M  V30 735 N 67.9926 0.231505 -1.5589 0
M  V30 736 C 69.2406 0.955461 -1.78088 0
M  V30 737 C 69.5616 1.85262 -0.608533 0
M  V30 738 O 68.8316 1.92277 0.375035 0
M  V30 739 H 67.4116 0.355787 -0.656829 0
M  V30 740 H 70.0736 0.245751 -1.93344 0
M  V30 741 H 69.1696 1.56814 -2.69844 0
M  V30 742 N 69.4707 1.49531 0.497807 0
M  V30 743 C 70.7177 1.59179 1.25173 0
M  V30 744 C 71.0457 0.279932 1.92475 0
M  V30 745 O 70.3007 -0.732383 1.81479 0
M  V30 746 C 70.5997 2.70252 2.33878 0
M  V30 747 C 70.2657 4.11644 1.84012 0
M  V30 748 C 68.9277 4.50121 1.70132 0
M  V30 749 C 71.2797 5.00121 1.46725 0
M  V30 750 C 68.6077 5.74845 1.17348 0
M  V30 751 C 70.9597 6.25366 0.95392 0
M  V30 752 C 69.6237 6.6267 0.801538 0
M  V30 753 H 68.8937 0.582478 0.45804 0
M  V30 754 H 71.5407 1.83373 0.551948 0
M  V30 755 H 69.8457 2.40041 3.09657 0
M  V30 756 H 71.5427 2.74925 2.9192 0
M  V30 757 H 68.1327 3.81274 1.95775 0
M  V30 758 H 72.3167 4.71048 1.56294 0
M  V30 759 H 67.5727 6.02444 1.04264 0
M  V30 760 H 71.7467 6.93301 0.656225 0
M  V30 761 H 69.3737 7.59197 0.390351 0
M  V30 762 N 70.9488 -0.749086 1.3866 0
M  V30 763 C 71.8788 -1.8764 1.38973 0
M  V30 764 C 72.8598 -1.68178 0.255004 0
M  V30 765 O 74.0448 -1.88704 0.458754 0
M  V30 766 C 71.1748 -3.25222 1.21851 0
M  V30 767 C 70.1288 -3.59295 2.32575 0
M  V30 768 C 69.4548 -4.95663 2.00555 0
M  V30 769 C 70.7548 -3.63709 3.7485 0
M  V30 770 H 72.4488 -1.87635 2.3331 0
M  V30 771 H 69.9948 -0.901329 1.12303 0
M  V30 772 H 71.9478 -4.03746 1.20695 0
M  V30 773 H 70.6718 -3.25719 0.239775 0
M  V30 774 H 69.3308 -2.83093 2.32925 0
M  V30 775 H 68.9788 -4.92724 1.01154 0
M  V30 776 H 68.6788 -5.19429 2.74714 0
M  V30 777 H 70.2028 -5.7656 2.01024 0
M  V30 778 H 71.6168 -4.32338 3.76506 0
M  V30 779 H 70.0138 -3.98986 4.48252 0
M  V30 780 H 71.0838 -2.63834 4.06841 0
M  V30 781 N 72.4269 -1.23603 -0.977757 0
M  V30 782 C 73.3369 -1.03632 -2.1047 0
M  V30 783 C 74.3529 0.0199435 -1.73989 0
M  V30 784 O 75.5289 -0.176076 -2.00629 0
M  V30 785 C 72.5939 -0.63276 -3.40877 0
M  V30 786 C 71.6549 -1.76437 -3.91367 0
M  V30 787 C 70.8879 -1.37997 -5.15551 0
M  V30 788 O 71.1109 -0.265357 -5.69782 0
M  V30 789 O 70.0449 -2.20201 -5.60174 0
M  V30 790 H 73.8709 -1.98086 -2.30208 0
M  V30 791 H 71.4559 -1.02332 -1.08851 0
M  V30 792 H 73.3379 -0.418761 -4.19314 0
M  V30 793 H 72.0129 0.282754 -3.22463 0
M  V30 794 H 70.9199 -2.03304 -3.14036 0
M  V30 795 H 72.2529 -2.6583 -4.14241 0
M  V30 796 N 73.905 1.17692 -1.04816 0
M  V30 797 C 74.815 2.25229 -0.65643 0
M  V30 798 C 75.831 1.71018 0.320761 0
M  V30 799 O 77.007 2.00649 0.173805 0
M  V30 800 C 74.072 3.46684 -0.0332629 0
M  V30 801 C 73.133 4.15997 -1.06042 0
M  V30 802 C 72.366 5.31654 -0.466893 0
M  V30 803 O 72.589 5.65777 0.724758 0
M  V30 804 O 71.523 5.89831 -1.1993 0
M  V30 805 H 75.349 2.61016 -1.55255 0
M  V30 806 H 72.934 1.24919 -0.81949 0
M  V30 807 H 74.816 4.20234 0.313256 0
M  V30 808 H 73.491 3.12703 0.836566 0
M  V30 809 H 72.398 3.44482 -1.45886 0
M  V30 810 H 73.731 4.53996 -1.90127 0
M  V30 811 N 75.3831 0.828654 1.34056 0
M  V30 812 C 76.6291 0.42008 1.98402 0
M  V30 813 C 76.9621 -1.01564 1.65525 0
M  V30 814 O 76.2371 -1.70834 0.929831 0
M  V30 815 C 76.5201 0.62927 3.54559 0
M  V30 816 C 76.3731 2.11152 3.97159 0
M  V30 817 C 77.6921 0.0688756 4.40046 0
M  V30 818 H 74.8111 0.154104 0.720709 0
M  V30 819 H 77.4531 1.04228 1.5886 0
M  V30 820 H 75.6031 0.0996418 3.88372 0
M  V30 821 H 77.2751 2.70522 3.73651 0
M  V30 822 H 75.5181 2.59985 3.47261 0
M  V30 823 H 76.1891 2.20868 5.05887 0
M  V30 824 H 78.6651 0.521458 4.1282 0
M  V30 825 H 77.5411 0.245006 5.48353 0
M  V30 826 H 77.8021 -1.0266 4.30015 0
M  V30 827 N 76.8612 -1.46375 0.584142 0
M  V30 828 C 78.2772 -1.57694 0.245929 0
M  V30 829 C 78.4772 -1.57903 -1.25175 0
M  V30 830 O 77.5332 -1.49676 -2.03355 0
M  V30 831 C 78.8462 -2.87028 0.896402 0
M  V30 832 C 80.3942 -3.00662 0.870127 0
M  V30 833 C 80.8692 -4.32734 1.50017 0
M  V30 834 N 82.3602 -4.39436 1.46458 0
M  V30 835 C 83.0952 -5.40248 1.92144 0
M  V30 836 N 82.5912 -6.47726 2.4581 0
M  V30 837 N 84.3842 -5.31459 1.83052 0
M  V30 838 H 76.5352 -1.44483 1.55687 0
M  V30 839 H 78.7982 -0.689291 0.650831 0
M  V30 840 H 78.5042 -2.9269 1.95002 0
M  V30 841 H 78.3782 -3.75014 0.405486 0
M  V30 842 H 80.7652 -2.94581 -0.174871 0
M  V30 843 H 80.8462 -2.14148 1.39908 0
M  V30 844 H 80.4902 -4.39573 2.54437 0
M  V30 845 H 80.4202 -5.18025 0.946432 0
M  V30 846 H 82.9112 -3.62367 1.07231 0
M  V30 847 H 83.2242 -7.20863 2.78525 0
M  V30 848 H 81.5692 -6.48542 2.49836 0
M  V30 849 H 84.7602 -4.46396 1.40883 0
M  V30 850 H 84.9332 -6.09881 2.18973 0
M  V30 851 N 78.3393 -0.321999 -1.54275 0
M  V30 852 C 79.2863 0.544664 -2.24281 0
M  V30 853 C 80.2563 1.1129 -1.23303 0
M  V30 854 O 81.4413 1.15354 -1.51981 0
M  V30 855 C 78.5813 1.70045 -3.00298 0
M  V30 856 C 77.6943 1.16159 -4.1609 0
M  V30 857 C 76.8293 2.28293 -4.79641 0
M  V30 858 C 75.8683 1.71648 -5.8754 0
M  V30 859 N 75.0053 2.77438 -6.44959 0
M  V30 860 H 79.8453 -0.0588907 -2.97942 0
M  V30 861 H 77.3823 -0.0408345 -1.47043 0
M  V30 862 H 79.3403 2.38054 -3.42616 0
M  V30 863 H 77.9703 2.27531 -2.28975 0
M  V30 864 H 77.0223 0.373092 -3.78566 0
M  V30 865 H 78.3343 0.707087 -4.93763 0
M  V30 866 H 77.4883 3.0421 -5.2492 0
M  V30 867 H 76.2273 2.77079 -4.01346 0
M  V30 868 H 75.2323 0.942282 -5.41665 0
M  V30 869 H 76.4573 1.23741 -6.67731 0
M  V30 870 H 74.4033 3.25519 -5.69538 0
M  V30 871 H 74.3203 2.36547 -7.1804 0
M  V30 872 H 75.5883 3.53189 -6.94894 0
M  V30 873 N 79.8174 1.5752 -0.0501392 0
M  V30 874 C 81.0654 1.9227 0.622642 0
M  V30 875 C 81.3864 0.929083 1.71444 0
M  V30 876 O 80.6564 -0.0262186 1.95882 0
M  V30 877 H 79.2364 0.709739 0.232981 0
M  V30 878 H 81.8984 1.94628 -0.102898 0
M  V30 879 H 80.9944 2.93479 1.06191 0
M  V30 880 N 81.2955 -0.223234 1.56011 0
M  V30 881 C 82.2435 -1.29627 1.93131 0
M  V30 882 C 83.2375 -1.48608 0.813146 0
M  V30 883 O 84.4435 -1.49802 0.997966 0
M  V30 884 H 80.8185 -0.434563 0.613726 0
M  V30 885 H 82.7895 -0.955995 2.82672 0
M  V30 886 C 81.5385 -2.63983 2.26292 0
M  V30 887 H 80.8615 -2.50185 3.11846 0
M  V30 888 H 82.3015 -3.3788 2.56151 0
M  V30 889 C 80.7605 -3.18866 1.08747 0
M  V30 890 O 81.2905 -4.00192 0.347727 0
M  V30 891 N 79.4965 -2.77217 0.871743 0
M  V30 892 H 79.0435 -2.1119 1.47501 0
M  V30 893 H 79.0015 -3.1428 0.0869905 0
M  V30 894 N 82.7736 -1.49793 -0.48987 0
M  V30 895 C 83.7036 -1.70201 -1.59856 0
M  V30 896 C 84.6846 -0.55076 -1.60937 0
M  V30 897 O 85.8696 -0.787841 -1.77501 0
M  V30 898 C 82.9996 -1.77882 -2.98287 0
M  V30 899 C 81.9536 -2.92907 -3.12073 0
M  V30 900 C 81.2796 -2.85712 -4.51965 0
M  V30 901 C 82.5796 -4.3369 -2.91051 0
M  V30 902 H 84.2736 -2.63025 -1.43032 0
M  V30 903 H 81.8196 -1.26574 -0.686664 0
M  V30 904 H 83.7726 -1.90744 -3.75759 0
M  V30 905 H 82.4966 -0.816653 -3.16225 0
M  V30 906 H 81.1556 -2.79665 -2.37029 0
M  V30 907 H 80.8036 -1.8738 -4.66795 0
M  V30 908 H 80.5036 -3.62921 -4.62128 0
M  V30 909 H 82.0276 -3.00598 -5.31482 0
M  V30 910 H 83.4416 -4.47555 -3.58284 0
M  V30 911 H 81.8386 -5.12205 -3.12675 0
M  V30 912 H 82.9086 -4.47362 -1.87071 0
M  V30 913 N 84.2517 0.741722 -1.39055 0
M  V30 914 C 85.1617 1.88621 -1.39496 0
M  V30 915 C 86.1777 1.71557 -0.290578 0
M  V30 916 O 87.3537 1.94275 -0.530954 0
M  V30 917 C 84.4187 3.24134 -1.23037 0
M  V30 918 C 83.4797 3.5364 -2.43387 0
M  V30 919 C 82.7127 4.82687 -2.27703 0
M  V30 920 O 82.9357 5.55922 -1.27696 0
M  V30 921 O 81.8697 5.1194 -3.16545 0
M  V30 922 H 85.6957 1.91203 -2.35956 0
M  V30 923 H 83.2807 0.888625 -1.20099 0
M  V30 924 H 85.1627 4.0513 -1.15964 0
M  V30 925 H 83.8377 3.22337 -0.296691 0
M  V30 926 H 82.7447 2.72758 -2.56035 0
M  V30 927 H 84.0777 3.60209 -3.35425 0
M  V30 928 N 85.7298 1.2412 0.971189 0
M  V30 929 C 87.1458 1.00584 1.23916 0
M  V30 930 C 87.3458 -0.287481 1.99439 0
M  V30 931 O 86.4018 -1.00454 2.31658 0
M  V30 932 C 87.7148 2.21864 2.0297 0
M  V30 933 C 89.2628 2.26452 2.16076 0
M  V30 934 C 89.7378 3.47343 2.98524 0
M  V30 935 N 91.2288 3.47639 3.06107 0
M  V30 936 C 91.9638 4.37837 3.70251 0
M  V30 937 N 91.4598 5.38286 4.36142 0
M  V30 938 N 93.2528 4.25558 3.67228 0
M  V30 939 H 85.4038 2.07236 0.465499 0
M  V30 940 H 87.6668 0.909236 0.268315 0
M  V30 941 H 87.3728 3.15771 1.54861 0
M  V30 942 H 87.2468 2.23698 3.03709 0
M  V30 943 H 89.6338 1.33078 2.6339 0
M  V30 944 H 89.7148 2.28645 1.14696 0
M  V30 945 H 89.3588 4.41029 2.51905 0
M  V30 946 H 89.2888 3.42393 4.00093 0
M  V30 947 H 91.7798 2.74966 2.59233 0
M  V30 948 H 92.0928 6.03352 4.82894 0
M  V30 949 H 90.4378 5.42176 4.34822 0
M  V30 950 H 93.6288 3.46322 3.14927 0
M  V30 951 H 93.8018 4.96054 4.16935 0
M  V30 952 N 87.2079 -1.17134 1.05439 0
M  V30 953 C 88.1179 -2.24878 0.668365 0
M  V30 954 C 89.1339 -1.71186 -0.311687 0
M  V30 955 O 90.3099 -2.00738 -0.163161 0
M  V30 956 C 87.3749 -3.46662 0.051648 0
M  V30 957 C 86.4359 -4.15429 1.08246 0
M  V30 958 C 85.6689 -5.31399 0.495082 0
M  V30 959 O 85.8919 -5.66153 -0.694743 0
M  V30 960 O 84.8259 -5.89187 1.23056 0
M  V30 961 H 88.6519 -2.60189 1.56637 0
M  V30 962 H 86.2369 -1.24482 0.826104 0
M  V30 963 H 88.1189 -4.20394 -0.290966 0
M  V30 964 H 86.7939 -3.13142 -0.819971 0
M  V30 965 H 85.7009 -3.43704 1.47711 0
M  V30 966 H 87.0339 -4.52982 1.92532 0
M  V30 967 N 88.686 -0.835752 -1.33615 0
M  V30 968 C 89.926 -0.43599 -1.99696 0
M  V30 969 C 90.29 0.98557 -1.64774 0
M  V30 970 O 91.491 1.48889 -2.23798 0
M  V30 971 C 89.762 -0.646721 -3.515 0
M  V30 972 S 91.321 -0.341715 -4.37467 0
M  V30 973 H 88.139 -0.164136 -0.691795 0
M  V30 974 H 90.741 -1.08436 -1.62671 0
M  V30 975 H 89.445 -1.68077 -3.74404 0
M  V30 976 H 88.976 0.0159173 -3.93397 0
M  V30 977 H 90.991 0.839708 -4.89043 0
M  V30 978 N 90.1641 1.46063 -0.591896 0
M  V30 979 C 91.0941 2.33172 0.123673 0
M  V30 980 C 92.0751 1.45897 0.87453 0
M  V30 981 O 93.2601 1.74698 0.848181 0
M  V30 982 C 90.3901 3.28336 1.13194 0
M  V30 983 C 89.3441 4.25124 0.495324 0
M  V30 984 C 88.6701 5.09863 1.61071 0
M  V30 985 C 89.9701 5.19143 -0.573425 0
M  V30 986 H 91.6641 2.93252 -0.603646 0
M  V30 987 H 89.2101 1.41014 -0.291741 0
M  V30 988 H 91.1631 3.88137 1.64097 0
M  V30 989 H 89.8871 2.66383 1.88965 0
M  V30 990 H 88.5461 3.66599 0.00729452 0
M  V30 991 H 88.1941 4.44288 2.35832 0
M  V30 992 H 87.8941 5.75417 1.19035 0
M  V30 993 H 89.4181 5.72529 2.12233 0
M  V30 994 H 90.8321 5.73106 -0.1491 0
M  V30 995 H 89.2291 5.93089 -0.914636 0
M  V30 996 H 90.2991 4.62519 -1.45617 0
M  V30 997 N 91.6422 0.330177 1.54103 0
M  V30 998 C 92.5522 -0.541534 2.28264 0
M  V30 999 C 93.5682 -1.12351 1.32866 0
M  V30 1000 O 94.7442 -1.14206 1.65888 0
M  V30 1001 C 91.8092 -1.68322 3.03098 0
M  V30 1002 C 90.8702 -1.13238 4.14096 0
M  V30 1003 C 90.1032 -2.21966 4.85352 0
M  V30 1004 O 90.3262 -3.42437 4.56172 0
M  V30 1005 O 89.2602 -1.87013 5.7211 0
M  V30 1006 H 93.0862 0.060938 3.03639 0
M  V30 1007 H 90.6712 0.09565 1.49093 0
M  V30 1008 H 92.5532 -2.34777 3.49939 0
M  V30 1009 H 91.2282 -2.27176 2.30593 0
M  V30 1010 H 90.1352 -0.432736 3.71589 0
M  V30 1011 H 91.4682 -0.588898 4.88664 0
M  V30 1012 N 93.1203 -1.57491 0.0584922 0
M  V30 1013 C 94.0303 -2.15448 -0.928414 0
M  V30 1014 C 95.0463 -1.11416 -1.3365 0
M  V30 1015 O 96.2223 -1.4362 -1.41193 0
M  V30 1016 C 93.2873 -2.69393 -2.18239 0
M  V30 1017 C 92.3483 -3.88249 -1.83196 0
M  V30 1018 C 91.5813 -4.39613 -3.02616 0
M  V30 1019 O 91.8043 -3.90023 -4.16219 0
M  V30 1020 O 90.7383 -5.31111 -2.83204 0
M  V30 1021 H 94.5643 -3.00112 -0.465483 0
M  V30 1022 H 92.1493 -1.48499 -0.163826 0
M  V30 1023 H 94.0313 -3.04026 -2.91798 0
M  V30 1024 H 92.7063 -1.87796 -2.63656 0
M  V30 1025 H 91.6133 -3.58492 -1.06931 0
M  V30 1026 H 92.9463 -4.71098 -1.42573 0
M  V30 1027 N 94.5984 0.214957 -1.56127 0
M  V30 1028 C 96.0094 0.781386 -1.69562 0
M  V30 1029 C 96.3604 1.84707 -0.66165 0
M  V30 1030 O 95.4854 2.156 0.185927 0
M  V30 1031 C 96.0804 1.42411 -3.07416 0
M  V30 1032 C 94.6394 1.93786 -3.22683 0
M  V30 1033 C 93.7864 0.800438 -2.65496 0
M  V30 1034 H 96.7374 -0.00980633 -1.58697 0
M  V30 1035 H 96.7584 2.29309 -3.0364 0
M  V30 1036 H 96.2704 0.64826 -3.82648 0
M  V30 1037 H 94.3714 2.74152 -2.52332 0
M  V30 1038 H 94.4844 2.1133 -4.29973 0
M  V30 1039 H 92.8484 1.2095 -2.2415 0
M  V30 1040 H 93.6314 0.0371471 -3.4328 0
M  V30 1041 N 96.0765 1.50051 0.48192 0
M  V30 1042 C 97.3165 1.62128 1.24474 0
M  V30 1043 C 97.6805 0.309742 1.89485 0
M  V30 1044 O 98.8815 0.305854 2.67054 0
M  V30 1045 C 97.1525 2.76151 2.26882 0
M  V30 1046 S 98.7115 3.08297 3.12247 0
M  V30 1047 H 95.5295 0.571661 0.422759 0
M  V30 1048 H 98.1315 1.87791 0.54359 0
M  V30 1049 H 96.8355 3.69942 1.77683 0
M  V30 1050 H 96.3665 2.52541 3.0164 0
M  V30 1051 H 98.3815 2.51287 4.27866 0
M  V30 1052 N 97.5546 -0.734337 1.39446 0
M  V30 1053 C 98.7796 -1.52866 1.40167 0
M  V30 1054 C 99.2046 -1.881 -0.00171513 0
M  V30 1055 O 98.5626 -1.51957 -0.988879 0
M  V30 1056 C 98.6106 -2.79235 2.28167 0
M  V30 1057 O 97.7146 -3.75185 1.71201 0
M  V30 1058 H 97.0556 -0.461618 0.477289 0
M  V30 1059 H 99.5856 -0.905949 1.8345 0
M  V30 1060 H 99.5956 -3.27963 2.42702 0
M  V30 1061 H 98.2706 -2.52923 3.30156 0
M  V30 1062 H 96.8476 -3.33958 1.65912 0
M  V30 1063 N 99.0327 -1.24633 -0.964593 0
M  V30 1064 C 100.449 -1.01239 -1.2338 0
M  V30 1065 C 100.649 0.2769 -1.99588 0
M  V30 1066 O 99.7047 0.992241 -2.32187 0
M  V30 1067 C 101.018 -2.22937 -2.01791 0
M  V30 1068 C 102.566 -2.27594 -2.14872 0
M  V30 1069 C 103.041 -3.48921 -2.96678 0
M  V30 1070 N 104.532 -3.49257 -3.04259 0
M  V30 1071 C 105.267 -4.39795 -3.67924 0
M  V30 1072 N 104.763 -5.40591 -4.33281 0
M  V30 1073 N 106.556 -4.275 -3.64966 0
M  V30 1074 H 98.7067 -2.0748 -0.454502 0
M  V30 1075 H 100.97 -0.910647 -0.26349 0
M  V30 1076 H 100.676 -3.16587 -1.53184 0
M  V30 1077 H 100.55 -2.25306 -3.02518 0
M  V30 1078 H 102.937 -1.34473 -2.6268 0
M  V30 1079 H 103.018 -2.2925 -1.13482 0
M  V30 1080 H 102.662 -4.42359 -2.49562 0
M  V30 1081 H 102.592 -3.4451 -3.98272 0
M  V30 1082 H 105.083 -2.76337 -2.57771 0
M  V30 1083 H 105.396 -6.05904 -4.79687 0
M  V30 1084 H 103.741 -5.44475 -4.3194 0
M  V30 1085 H 106.932 -3.47987 -3.13086 0
M  V30 1086 H 107.105 -4.98258 -4.14298 0
M  V30 1087 N 100.511 1.16574 -1.06058 0
M  V30 1088 C 101.421 2.2452 -0.680282 0
M  V30 1089 C 102.437 1.71348 0.302604 0
M  V30 1090 O 103.613 2.00822 0.152513 0
M  V30 1091 C 100.678 3.46629 -0.0700315 0
M  V30 1092 C 99.7388 4.14849 -1.10448 0
M  V30 1093 C 98.9718 5.31129 -0.523256 0
M  V30 1094 O 99.1948 5.66514 0.664709 0
M  V30 1095 O 98.1288 5.88526 -1.26179 0
M  V30 1096 H 101.955 2.59355 -1.58015 0
M  V30 1097 H 99.5398 1.24043 -0.832694 0
M  V30 1098 H 101.422 4.20543 0.268667 0
M  V30 1099 H 100.097 3.13573 0.803353 0
M  V30 1100 H 99.0038 3.42916 -1.49532 0
M  V30 1101 H 100.337 4.51954 -1.94931 0
M  V30 1102 N 101.989 0.842826 1.3317 0
M  V30 1103 C 102.899 0.281444 2.32906 0
M  V30 1104 C 103.915 -0.594587 1.63526 0
M  V30 1105 O 105.091 -0.49777 1.95152 0
M  V30 1106 C 102.156 -0.530929 3.42611 0
M  V30 1107 C 101.217 0.369843 4.27704 0
M  V30 1108 C 100.45 -0.403853 5.3217 0
M  V30 1109 O 100.673 -1.63513 5.46461 0
M  V30 1110 O 99.6069 0.224199 6.01482 0
M  V30 1111 H 103.433 1.10744 2.82789 0
M  V30 1112 H 101.018 0.60545 1.36582 0
M  V30 1113 H 102.9 -0.992437 4.09547 0
M  V30 1114 H 101.575 -1.33392 2.94938 0
M  V30 1115 H 100.482 0.879275 3.6362 0
M  V30 1116 H 101.815 1.13771 4.78871 0
M  V30 1117 N 103.467 -1.45747 0.599634 0
M  V30 1118 C 104.43 -2.28917 -0.113835 0
M  V30 1119 C 105.43 -1.3933 -0.802729 0
M  V30 1120 O 106.62 -1.61534 -0.652103 0
M  V30 1121 C 103.752 -3.20152 -1.17114 0
M  V30 1122 H 104.945 -2.93478 0.617289 0
M  V30 1123 H 102.498 -1.52137 0.358327 0
M  V30 1124 H 103.233 -2.60374 -1.93329 0
M  V30 1125 H 103.018 -3.86133 -0.681468 0
M  V30 1126 H 104.508 -3.82708 -1.67105 0
M  V30 1127 N 104.945 -0.338344 -1.53925 0
M  V30 1128 C 106.192 0.259758 -2.00827 0
M  V30 1129 C 106.52 1.50973 -1.22628 0
M  V30 1130 O 105.775 1.93379 -0.300509 0
M  V30 1131 C 106.074 0.62448 -3.51902 0
M  V30 1132 C 105.74 -0.528006 -4.47798 0
M  V30 1133 C 104.402 -0.844298 -4.73735 0
M  V30 1134 C 106.754 -1.30143 -5.0469 0
M  V30 1135 C 104.082 -1.93648 -5.53821 0
M  V30 1136 C 106.434 -2.38382 -5.85967 0
M  V30 1137 C 105.098 -2.70576 -6.10201 0
M  V30 1138 H 104.368 0.0950523 -0.734878 0
M  V30 1139 H 107.015 -0.465182 -1.85764 0
M  V30 1140 H 105.32 1.43006 -3.64769 0
M  V30 1141 H 107.017 1.09905 -3.85645 0
M  V30 1142 H 103.607 -0.271421 -4.2774 0
M  V30 1143 H 107.791 -1.07033 -4.84621 0
M  V30 1144 H 103.047 -2.19021 -5.70824 0
M  V30 1145 H 107.221 -2.98746 -6.29066 0
M  V30 1146 H 104.848 -3.55333 -6.72044 0
M  V30 1147 N 106.423 1.57458 -0.0668435 0
M  V30 1148 C 107.333 2.15937 0.916975 0
M  V30 1149 C 108.349 1.12123 1.33058 0
M  V30 1150 O 109.525 1.44366 1.40429 0
M  V30 1151 C 106.59 2.70547 2.16807 0
M  V30 1152 C 105.651 3.89215 1.81135 0
M  V30 1153 C 104.884 4.41211 3.0028 0
M  V30 1154 O 105.107 3.92225 4.14144 0
M  V30 1155 O 104.041 5.32605 2.80384 0
M  V30 1156 H 107.867 3.00354 0.449561 0
M  V30 1157 H 105.452 1.48584 0.155949 0
M  V30 1158 H 107.334 3.0557 2.90181 0
M  V30 1159 H 106.009 1.89192 2.62656 0
M  V30 1160 H 104.916 3.59054 1.05028 0
M  V30 1161 H 106.249 4.71848 1.40073 0
M  V30 1162 N 107.901 -0.206675 1.56239 0
M  V30 1163 C 108.864 -1.23976 1.92776 0
M  V30 1164 C 109.864 -1.39041 0.807729 0
M  V30 1165 O 111.054 -1.37051 1.0753 0
M  V30 1166 C 108.186 -2.61112 2.19165 0
M  V30 1167 H 109.379 -0.927764 2.85189 0
M  V30 1168 H 106.932 -0.447718 1.4975 0
M  V30 1169 H 107.667 -2.97386 1.29352 0
M  V30 1170 H 107.452 -2.51552 3.00772 0
M  V30 1171 H 108.942 -3.35633 2.48476 0
M  V30 1172 N 109.379 -1.50304 -0.473955 0
M  V30 1173 C 110.309 -1.71886 -1.58042 0
M  V30 1174 C 111.29 -0.567799 -1.60344 0
M  V30 1175 O 112.475 -0.806623 -1.76656 0
M  V30 1176 C 109.605 -1.81036 -2.96384 0
M  V30 1177 C 108.559 -2.962 -3.08949 0
M  V30 1178 C 107.885 -2.9049 -4.48909 0
M  V30 1179 C 109.185 -4.36752 -2.86434 0
M  V30 1180 H 110.879 -2.64527 -1.40234 0
M  V30 1181 H 108.425 -1.27295 -0.673201 0
M  V30 1182 H 110.378 -1.94719 -3.73714 0
M  V30 1183 H 109.102 -0.850147 -3.15341 0
M  V30 1184 H 107.761 -2.82164 -2.3405 0
M  V30 1185 H 107.409 -1.92321 -4.64781 0
M  V30 1186 H 107.109 -3.67802 -4.58253 0
M  V30 1187 H 108.633 -3.06218 -5.28264 0
M  V30 1188 H 110.047 -4.5133 -3.53517 0
M  V30 1189 H 108.444 -5.15493 -3.07225 0
M  V30 1190 H 109.514 -4.49321 -1.82316 0
M  V30 1191 N 110.857 0.726932 -1.39834 0
M  V30 1192 C 111.767 1.87131 -1.41489 0
M  V30 1193 C 112.783 1.71239 -0.308757 0
M  V30 1194 O 113.959 1.93701 -0.551529 0
M  V30 1195 C 111.024 3.22811 -1.26468 0
M  V30 1196 C 110.085 3.51039 -2.47124 0
M  V30 1197 C 109.318 4.80245 -2.3281 0
M  V30 1198 O 109.541 5.54537 -1.33585 0
M  V30 1199 O 108.475 5.08554 -3.21957 0
M  V30 1200 H 112.301 1.8869 -2.3797 0
M  V30 1201 H 109.886 0.875837 -1.21035 0
M  V30 1202 H 111.768 4.03877 -1.20255 0
M  V30 1203 H 110.443 3.22005 -0.330862 0
M  V30 1204 H 109.35 2.70027 -2.58914 0
M  V30 1205 H 110.683 3.56632 -3.39227 0
M  V30 1206 N 112.336 1.25143 0.95797 0
M  V30 1207 C 113.561 1.12521 1.74223 0
M  V30 1208 C 113.986 -0.317402 1.85403 0
M  V30 1209 O 113.344 -1.2299 1.33204 0
M  V30 1210 C 113.392 1.78062 3.1357 0
M  V30 1211 O 112.496 1.058 3.98598 0
M  V30 1212 H 111.837 0.39304 0.535178 0
M  V30 1213 H 114.367 1.65641 1.201 0
M  V30 1214 H 114.377 1.84213 3.64046 0
M  V30 1215 H 113.052 2.83021 3.04749 0
M  V30 1216 H 111.629 1.07506 3.57067 0
M  V30 1217 N 113.814 -1.1601 1.06675 0
M  V30 1218 C 114.744 -2.22688 0.702307 0
M  V30 1219 C 115.725 -1.67306 -0.307032 0
M  V30 1220 O 116.91 -1.93352 -0.181305 0
M  V30 1221 C 114.04 -3.47178 0.092038 0
M  V30 1222 C 112.994 -4.15477 1.02777 0
M  V30 1223 C 112.32 -5.33963 0.28061 0
M  V30 1224 C 113.62 -4.66019 2.35846 0
M  V30 1225 H 115.314 -2.53429 1.59419 0
M  V30 1226 H 112.86 -1.21813 0.767961 0
M  V30 1227 H 114.813 -4.21037 -0.174814 0
M  V30 1228 H 113.537 -3.15749 -0.834877 0
M  V30 1229 H 112.196 -3.43549 1.27944 0
M  V30 1230 H 111.844 -4.98788 -0.649545 0
M  V30 1231 H 111.544 -5.806 0.904258 0
M  V30 1232 H 113.068 -6.10596 0.021396 0
M  V30 1233 H 114.482 -5.3144 2.15045 0
M  V30 1234 H 112.879 -5.23293 2.93743 0
M  V30 1235 H 113.949 -3.82023 2.98641 0
M  V30 1236 N 115.292 -0.849877 -1.32721 0
M  V30 1237 C 116.517 -0.463856 -2.02146 0
M  V30 1238 C 116.942 0.930449 -1.63476 0
M  V30 1239 O 116.3 1.61033 -0.832952 0
M  V30 1240 C 116.348 -0.604955 -3.55489 0
M  V30 1241 O 115.452 0.36425 -4.10788 0
M  V30 1242 H 114.793 -0.187046 -0.637111 0
M  V30 1243 H 117.323 -1.14775 -1.69375 0
M  V30 1244 H 117.333 -0.490696 -4.05038 0
M  V30 1245 H 116.008 -1.62174 -3.82978 0
M  V30 1246 H 114.585 0.206628 -3.72327 0
M  V30 1247 N 116.77 1.45427 -0.607355 0
M  V30 1248 C 117.733 2.28974 0.101693 0
M  V30 1249 C 118.733 1.39754 0.795329 0
M  V30 1250 O 119.923 1.61878 0.643527 0
M  V30 1251 C 117.055 3.20768 1.15414 0
M  V30 1252 H 118.248 2.93147 -0.632844 0
M  V30 1253 H 115.801 1.51945 -0.366391 0
M  V30 1254 H 116.536 2.61395 1.91945 0
M  V30 1255 H 116.321 3.86489 0.66098 0
M  V30 1256 H 117.811 3.83589 1.65073 0
M  V30 1257 N 118.248 0.346503 1.53744 0
M  V30 1258 C 119.476 -0.25041 2.05379 0
M  V30 1259 C 119.891 -1.43979 1.22129 0
M  V30 1260 O 119.248 -1.80677 0.257321 0
M  V30 1261 C 119.299 -0.662575 3.55376 0
M  V30 1262 O 119.02 0.479515 4.35468 0
M  V30 1263 C 120.521 -1.31989 4.23195 0
M  V30 1264 H 117.741 -0.0478198 0.669294 0
M  V30 1265 H 120.285 0.499346 1.9831 0
M  V30 1266 H 118.44 -1.36227 3.62658 0
M  V30 1267 H 118.854 0.15037 5.24284 0
M  V30 1268 H 120.328 -1.55902 5.29527 0
M  V30 1269 H 120.805 -2.27436 3.75725 0
M  V30 1270 H 121.411 -0.662154 4.20114 0
M  V30 1271 N 119.726 -1.57421 0.075193 0
M  V30 1272 C 121.003 -1.85029 -0.634329 0
M  V30 1273 C 121.383 -0.968305 -1.87582 0
M  V30 1274 O 120.731 -0.0354749 -2.28472 0
M  V30 1275 C 120.941 -3.35286 -0.968742 0
M  V30 1276 C 122.289 -4.02875 -1.34077 0
M  V30 1277 O 123.313 -3.40051 -1.06037 0
M  V30 1278 O 122.172 -5.13691 -1.86506 0
M  V30 1279 H 119.266 -0.7645 -0.315387 0
M  V30 1280 H 121.812 -1.69366 0.106382 0
M  V30 1281 H 120.584 -3.91203 -0.0871376 0
M  V30 1282 H 120.207 -3.56223 -1.7661 0
M  V30 1283 N 121.204 0.198386 -1.56346 0
M  V30 1284 C 122.167 1.22952 -1.93431 0
M  V30 1285 C 123.167 1.38611 -0.815092 0
M  V30 1286 O 124.357 1.36479 -1.08255 0
M  V30 1287 C 121.489 2.59946 -2.20546 0
M  V30 1288 H 122.682 0.912626 -2.85677 0
M  V30 1289 H 120.235 0.43977 -1.49986 0
M  V30 1290 H 120.97 2.96696 -1.30927 0
M  V30 1291 H 120.755 2.49953 -3.02102 0
M  V30 1292 H 122.245 3.3431 -2.50253 0
M  V30 1293 N 122.682 1.50554 0.465978 0
M  V30 1294 C 123.929 1.61798 1.21768 0
M  V30 1295 C 124.257 0.320696 1.91838 0
M  V30 1296 O 123.512 -0.693724 1.82992 0
M  V30 1297 C 123.811 2.75152 2.28093 0
M  V30 1298 C 123.477 4.15454 1.75239 0
M  V30 1299 C 122.139 4.53628 1.60546 0
M  V30 1300 C 124.491 5.03121 1.36083 0
M  V30 1301 C 121.819 5.77204 1.05128 0
M  V30 1302 C 124.171 6.27249 0.821056 0
M  V30 1303 C 122.835 6.64221 0.660795 0
M  V30 1304 H 122.105 0.592063 0.445582 0
M  V30 1305 H 124.752 1.84503 0.512927 0
M  V30 1306 H 123.057 2.46556 3.04496 0
M  V30 1307 H 124.754 2.81055 2.86023 0
M  V30 1308 H 121.344 3.85341 1.87644 0
M  V30 1309 H 125.528 4.74257 1.46267 0
M  V30 1310 H 120.784 6.0452 0.91462 0
M  V30 1311 H 124.958 6.94537 0.509018 0
M  V30 1312 H 122.585 7.59854 0.229226 0
M  V30 1313 N 124.16 -0.719506 1.40217 0
M  V30 1314 C 125.406 -1.48034 1.39491 0
M  V30 1315 C 125.761 -1.92399 -0.00443536 0
M  V30 1316 O 125.054 -1.64993 -0.974061 0
M  V30 1317 C 125.248 -2.72271 2.31524 0
M  V30 1318 C 125.077 -2.40055 3.80268 0
M  V30 1319 C 123.847 -2.31588 4.49105 0
M  V30 1320 C 126.045 -2.04581 4.71859 0
M  V30 1321 N 124.027 -1.92006 5.83101 0
M  V30 1322 C 125.398 -1.75568 5.94623 0
M  V30 1323 C 127.453 -1.91183 4.59732 0
M  V30 1324 C 126.156 -1.34505 7.06612 0
M  V30 1325 C 128.182 -1.51524 5.71659 0
M  V30 1326 C 127.544 -1.23406 6.93506 0
M  V30 1327 H 123.643 -0.539927 0.565688 0
M  V30 1328 H 126.227 -0.834764 1.75897 0
M  V30 1329 H 124.398 -3.34584 1.97251 0
M  V30 1330 H 126.13 -3.38584 2.21682 0
M  V30 1331 H 122.885 -2.49199 4.02737 0
M  V30 1332 H 123.309 -1.74764 6.54054 0
M  V30 1333 H 127.951 -2.11584 3.66049 0
M  V30 1334 H 125.669 -1.12846 8.00182 0
M  V30 1335 H 129.255 -1.41741 5.6427 0
M  V30 1336 H 128.135 -0.931788 7.78645 0
M  V30 1337 N 125.638 -1.25649 -0.95132 0
M  V30 1338 C 126.601 -1.06399 -2.03007 0
M  V30 1339 C 127.601 -0.0156794 -1.60792 0
M  V30 1340 O 128.791 -0.25817 -1.72276 0
M  V30 1341 C 125.923 -0.616184 -3.35285 0
M  V30 1342 H 127.116 -2.02164 -2.21517 0
M  V30 1343 H 124.669 -1.08103 -1.12887 0
M  V30 1344 H 125.404 0.343917 -3.22471 0
M  V30 1345 H 125.189 -1.37301 -3.67275 0
M  V30 1346 H 126.679 -0.503032 -4.14559 0
M  V30 1347 N 127.117 1.15442 -1.07289 0
M  V30 1348 C 128.064 2.20161 -0.692653 0
M  V30 1349 C 129.034 1.63073 0.31564 0
M  V30 1350 O 130.219 1.89725 0.202235 0
M  V30 1351 C 127.359 3.44967 -0.0959509 0
M  V30 1352 C 126.472 4.16256 -1.15564 0
M  V30 1353 C 125.607 5.28609 -0.524011 0
M  V30 1354 C 124.646 5.91715 -1.56653 0
M  V30 1355 N 123.783 6.9554 -0.957531 0
M  V30 1356 H 128.623 2.52037 -1.59002 0
M  V30 1357 H 126.16 1.2378 -0.794798 0
M  V30 1358 H 128.118 4.16341 0.267628 0
M  V30 1359 H 126.748 3.1361 0.764772 0
M  V30 1360 H 125.8 3.43385 -1.6368 0
M  V30 1361 H 127.112 4.59268 -1.94613 0
M  V30 1362 H 126.266 6.06604 -0.108032 0
M  V30 1363 H 125.005 4.86787 0.29825 0
M  V30 1364 H 124.01 5.12433 -1.9923 0
M  V30 1365 H 125.235 6.35614 -2.39107 0
M  V30 1366 H 123.181 6.55814 -0.156162 0
M  V30 1367 H 123.098 7.36977 -1.68526 0
M  V30 1368 H 124.366 7.77435 -0.567032 0
M  V30 1369 N 128.595 0.856903 1.32268 0
M  V30 1370 C 129.825 0.47475 2.01071 0
M  V30 1371 C 130.233 -0.933746 1.64553 0
M  V30 1372 O 129.576 -1.62114 0.863989 0
M  V30 1373 C 129.638 0.536746 3.55471 0
M  V30 1374 C 129.302 1.90453 4.15423 0
M  V30 1375 C 130.299 2.87029 4.33486 0
M  V30 1376 C 127.984 2.20229 4.51447 0
M  V30 1377 C 129.978 4.11532 4.86744 0
M  V30 1378 C 127.665 3.44984 5.0441 0
M  V30 1379 C 128.663 4.40452 5.22007 0
M  V30 1380 O 128.351 5.62998 5.73837 0
M  V30 1381 H 128.083 0.184778 0.650256 0
M  V30 1382 H 130.637 1.15615 1.69771 0
M  V30 1383 H 128.867 -0.20152 3.86175 0
M  V30 1384 H 130.556 0.169875 4.05544 0
M  V30 1385 H 131.322 2.6533 4.05986 0
M  V30 1386 H 127.201 1.46705 4.37034 0
M  V30 1387 H 130.745 4.86056 5.00395 0
M  V30 1388 H 126.642 3.66532 5.31342 0
M  V30 1389 H 127.41 5.64987 5.92226 0
M  V30 1390 N 130.073 -1.45103 0.615059 0
M  V30 1391 C 131.301 -2.06553 0.11977 0
M  V30 1392 C 131.716 -1.45842 -1.19898 0
M  V30 1393 O 131.073 -0.575325 -1.73194 0
M  V30 1394 C 131.124 -3.61495 -0.018364 0
M  V30 1395 O 130.845 -4.19942 1.24822 0
M  V30 1396 C 132.346 -4.39947 -0.544237 0
M  V30 1397 H 129.566 -0.667096 0.0722739 0
M  V30 1398 H 132.11 -1.8623 0.84491 0
M  V30 1399 H 130.265 -3.81135 -0.693865 0
M  V30 1400 H 130.679 -5.13204 1.0827 0
M  V30 1401 H 132.153 -5.48838 -0.589953 0
M  V30 1402 H 132.63 -4.10255 -1.56805 0
M  V30 1403 H 133.236 -4.25188 0.0974703 0
M  V30 1404 N 131.551 -0.354651 -1.53558 0
M  V30 1405 C 132.514 0.484566 -2.24019 0
M  V30 1406 C 133.514 1.01861 -1.24422 0
M  V30 1407 O 134.704 0.906097 -1.4878 0
M  V30 1408 C 131.836 1.67615 -2.96847 0
M  V30 1409 H 133.029 -0.131843 -2.9961 0
M  V30 1410 H 130.582 -0.106165 -1.55939 0
M  V30 1411 H 131.317 2.33095 -2.25471 0
M  V30 1412 H 131.102 1.30029 -3.69912 0
M  V30 1413 H 132.592 2.27114 -3.50441 0
M  V30 1414 N 133.029 1.57378 -0.0835403 0
M  V30 1415 C 134.269 1.95808 0.586381 0
M  V30 1416 C 134.633 0.963706 1.66062 0
M  V30 1417 O 135.834 1.23608 2.38693 0
M  V30 1418 C 134.105 3.38808 1.13771 0
M  V30 1419 S 135.664 3.99225 1.82112 0
M  V30 1420 H 132.482 0.684675 0.191679 0
M  V30 1421 H 135.084 1.94843 -0.160194 0
M  V30 1422 H 133.788 4.08954 0.344197 0
M  V30 1423 H 133.319 3.43344 1.92038 0
M  V30 1424 H 135.334 3.87087 3.10449 0
M  V30 1425 N 134.507 -0.190092 1.56449 0
M  V30 1426 C 135.417 -1.25591 1.98152 0
M  V30 1427 C 136.433 -1.49519 0.889944 0
M  V30 1428 O 137.609 -1.62036 1.19609 0
M  V30 1429 C 134.674 -2.57916 2.3169 0
M  V30 1430 C 133.735 -2.42015 3.5458 0
M  V30 1431 C 132.968 -3.6803 3.8651 0
M  V30 1432 O 133.191 -4.72413 3.1966 0
M  V30 1433 O 132.125 -3.6326 4.79923 0
M  V30 1434 H 135.951 -0.931988 2.89046 0
M  V30 1435 H 133.536 -0.395488 1.4407 0
M  V30 1436 H 135.418 -3.36008 2.54316 0
M  V30 1437 H 134.093 -2.89925 1.43963 0
M  V30 1438 H 133 -1.62017 3.37196 0
M  V30 1439 H 134.333 -2.14937 4.4279 0
M  V30 1440 N 135.985 -1.50799 -0.457987 0
M  V30 1441 C 137.21 -1.66496 -1.23668 0
M  V30 1442 C 137.635 -0.353288 -1.84752 0
M  V30 1443 O 136.993 0.684346 -1.67888 0
M  V30 1444 C 137.041 -2.76763 -2.3116 0
M  V30 1445 O 136.145 -2.38928 -3.36136 0
M  V30 1446 H 135.486 -0.555828 -0.363252 0
M  V30 1447 H 138.016 -1.9725 -0.543474 0
M  V30 1448 H 138.026 -3.00232 -2.76269 0
M  V30 1449 H 136.701 -3.71954 -1.86073 0
M  V30 1450 H 135.278 -2.25953 -2.96647 0
M  V30 1451 N 137.463 0.71206 -1.40597 0
M  V30 1452 C 138.426 1.80785 -1.40888 0
M  V30 1453 C 139.426 1.57937 -0.302103 0
M  V30 1454 O 140.616 1.64913 -0.561182 0
M  V30 1455 C 137.748 3.18927 -1.20409 0
M  V30 1456 H 138.941 1.81924 -2.38419 0
M  V30 1457 H 136.494 0.91805 -1.26497 0
M  V30 1458 H 137.229 3.23436 -0.236522 0
M  V30 1459 H 137.014 3.36911 -2.00582 0
M  V30 1460 H 138.504 3.98949 -1.23408 0
M  V30 1461 N 138.941 1.26152 0.944643 0
M  V30 1462 C 140.357 1.03189 1.21754 0
M  V30 1463 C 140.557 -0.245112 2.00004 0
M  V30 1464 O 139.613 -0.955176 2.33736 0
M  V30 1465 C 140.926 2.26119 1.98219 0
M  V30 1466 C 142.474 2.30984 2.11224 0
M  V30 1467 C 142.949 3.53597 2.91089 0
M  V30 1468 N 144.44 3.54053 2.98664 0
M  V30 1469 C 145.175 4.45593 3.60881 0
M  V30 1470 N 144.671 5.47416 4.24626 0
M  V30 1471 N 146.464 4.33252 3.58119 0
M  V30 1472 H 138.615 2.08177 0.421437 0
M  V30 1473 H 140.878 0.914723 0.248969 0
M  V30 1474 H 140.584 3.18984 1.48128 0
M  V30 1475 H 140.458 2.3009 2.98895 0
M  V30 1476 H 142.845 1.38635 2.60508 0
M  V30 1477 H 142.926 2.31026 1.09821 0
M  V30 1478 H 142.57 4.46273 2.42493 0
M  V30 1479 H 142.5 3.50802 3.92741 0
M  V30 1480 H 144.991 2.80403 2.53343 0
M  V30 1481 H 145.304 6.13459 4.69987 0
M  V30 1482 H 143.649 5.51278 4.23223 0
M  V30 1483 H 146.84 3.52924 3.0751 0
M  V30 1484 H 147.013 5.04786 4.06319 0
M  V30 1485 N 140.419 -1.14872 1.07899 0
M  V30 1486 C 141.367 -2.21857 0.698727 0
M  V30 1487 C 142.361 -1.66845 -0.293086 0
M  V30 1488 O 143.567 -1.79321 -0.156204 0
M  V30 1489 H 139.942 -0.722691 0.207899 0
M  V30 1490 H 141.913 -2.51205 1.61054 0
M  V30 1491 C 140.662 -3.47498 0.11858 0
M  V30 1492 H 139.985 -3.90154 0.872914 0
M  V30 1493 H 141.425 -4.23858 -0.109759 0
M  V30 1494 C 139.884 -3.16947 -1.1422 0
M  V30 1495 O 140.414 -3.3426 -2.22785 0
M  V30 1496 N 138.62 -2.70946 -1.05055 0
M  V30 1497 H 138.167 -2.57058 -0.167038 0
M  V30 1498 H 138.125 -2.50879 -1.89491 0
M  V30 1499 N 141.898 -0.863906 -1.31812 0
M  V30 1500 C 143.309 -0.52522 -1.7916 0
M  V30 1501 C 143.66 0.957518 -1.71248 0
M  V30 1502 O 142.785 1.74734 -1.27659 0
M  V30 1503 C 143.38 -0.9466 -3.25307 0
M  V30 1504 C 141.939 -0.659668 -3.70574 0
M  V30 1505 C 141.086 -1.14126 -2.52726 0
M  V30 1506 H 144.037 -1.05022 -1.1898 0
M  V30 1507 H 144.058 -0.266766 -3.79564 0
M  V30 1508 H 143.57 -2.02579 -3.31034 0
M  V30 1509 H 141.671 0.408416 -3.70355 0
M  V30 1510 H 141.784 -1.23245 -4.62977 0
M  V30 1511 H 140.148 -0.561216 -2.4844 0
M  V30 1512 H 140.931 -2.22775 -2.61201 0
M  V30 1513 N 143.376 1.44774 -0.622745 0
M  V30 1514 C 144.792 1.56986 -0.287652 0
M  V30 1515 C 144.992 1.61167 1.20944 0
M  V30 1516 O 144.048 1.55015 1.99315 0
M  V30 1517 C 145.361 2.84551 -0.972188 0
M  V30 1518 C 146.909 2.9825 -0.949536 0
M  V30 1519 C 147.384 4.28605 -1.61437 0
M  V30 1520 N 148.875 4.35399 -1.58057 0
M  V30 1521 C 149.61 5.34964 -2.064 0
M  V30 1522 N 149.106 6.40981 -2.62897 0
M  V30 1523 N 150.899 5.26419 -1.97078 0
M  V30 1524 H 143.05 1.40304 -1.59463 0
M  V30 1525 H 145.313 0.671794 -0.668878 0
M  V30 1526 H 145.019 2.87417 -2.02693 0
M  V30 1527 H 144.893 3.73807 -0.504771 0
M  V30 1528 H 147.28 2.94941 0.0967067 0
M  V30 1529 H 147.361 2.10364 -1.45536 0
M  V30 1530 H 147.005 4.32672 -2.66002 0
M  V30 1531 H 146.935 5.15334 -1.08344 0
M  V30 1532 H 149.426 3.59397 -1.16801 0
M  V30 1533 H 149.739 7.13225 -2.97539 0
M  V30 1534 H 148.084 6.4169 -2.66943 0
M  V30 1535 H 151.275 4.42504 -1.52669 0
M  V30 1536 H 151.448 6.03861 -2.35066 0
M  V30 1537 N 144.854 0.36279 1.53368 0
M  V30 1538 C 145.764 -0.492994 2.29362 0
M  V30 1539 C 146.78 -1.09507 1.35219 0
M  V30 1540 O 147.956 -1.10662 1.68273 0
M  V30 1541 C 145.021 -1.61855 3.066 0
M  V30 1542 C 144.082 -1.04429 4.16405 0
M  V30 1543 C 143.315 -2.11621 4.89951 0
M  V30 1544 O 143.538 -3.32684 4.63333 0
M  V30 1545 O 142.472 -1.74835 5.75948 0
M  V30 1546 H 146.298 0.125331 3.03441 0
M  V30 1547 H 143.883 0.127253 1.48857 0
M  V30 1548 H 145.765 -2.27302 3.54841 0
M  V30 1549 H 144.44 -2.22233 2.3536 0
M  V30 1550 H 143.347 -0.353819 3.72423 0
M  V30 1551 H 144.68 -0.485113 4.89804 0
M  V30 1552 N 146.332 -1.57332 0.0918853 0
M  V30 1553 C 147.279 -2.13847 -0.868211 0
M  V30 1554 C 148.249 -1.05618 -1.28196 0
M  V30 1555 O 149.434 -1.33387 -1.36427 0
M  V30 1556 C 146.574 -2.72062 -2.12312 0
M  V30 1557 C 145.687 -3.94514 -1.7602 0
M  V30 1558 C 144.822 -4.40903 -2.96273 0
M  V30 1559 C 143.861 -5.55953 -2.56092 0
M  V30 1560 N 142.998 -5.97209 -3.69169 0
M  V30 1561 H 147.838 -2.95575 -0.379406 0
M  V30 1562 H 145.375 -1.46048 -0.175606 0
M  V30 1563 H 147.333 -3.03931 -2.858 0
M  V30 1564 H 145.963 -1.93068 -2.58698 0
M  V30 1565 H 145.015 -3.68979 -0.925135 0
M  V30 1566 H 146.327 -4.7802 -1.42472 0
M  V30 1567 H 145.481 -4.74539 -3.78018 0
M  V30 1568 H 144.22 -3.56291 -3.33029 0
M  V30 1569 H 143.225 -5.21948 -1.72773 0
M  V30 1570 H 144.45 -6.42311 -2.20484 0
M  V30 1571 H 142.396 -5.15543 -4.05649 0
M  V30 1572 H 142.313 -6.75504 -3.39456 0
M  V30 1573 H 143.581 -6.35475 -4.51434 0
M  V30 1574 N 147.81 0.181792 -1.56548 0
M  V30 1575 C 148.74 1.22765 -1.98623 0
M  V30 1576 C 149.721 1.46747 -0.860189 0
M  V30 1577 O 150.906 1.58259 -1.12551 0
M  V30 1578 C 148.036 2.56894 -2.33715 0
M  V30 1579 C 146.99 2.475 -3.49182 0
M  V30 1580 C 146.316 3.86023 -3.69986 0
M  V30 1581 C 147.616 1.98866 -4.82959 0
M  V30 1582 H 149.31 0.877942 -2.86239 0
M  V30 1583 H 146.856 0.42088 -1.37712 0
M  V30 1584 H 148.809 3.30253 -2.61746 0
M  V30 1585 H 147.533 2.93632 -1.42997 0
M  V30 1586 H 146.192 1.76596 -3.21262 0
M  V30 1587 H 145.84 4.20136 -2.76576 0
M  V30 1588 H 145.54 3.80609 -4.47672 0
M  V30 1589 H 147.064 4.60984 -4.00407 0
M  V30 1590 H 148.478 2.61992 -5.09934 0
M  V30 1591 H 146.875 2.04424 -5.64208 0
M  V30 1592 H 147.945 0.942465 -4.75653 0
M  V30 1593 N 149.288 1.51039 0.449983 0
M  V30 1594 C 150.236 1.71995 1.5659 0
M  V30 1595 C 151.23 0.586029 1.5894 0
M  V30 1596 O 152.436 0.76709 1.62837 0
M  V30 1597 H 148.811 0.543233 0.520001 0
M  V30 1598 H 150.782 2.65562 1.36085 0
M  V30 1599 C 149.531 1.8506 2.9436 0
M  V30 1600 H 148.854 2.71712 2.93279 0
M  V30 1601 H 150.294 2.0374 3.71842 0
M  V30 1602 C 148.753 0.607277 3.31382 0
M  V30 1603 O 149.283 -0.243903 4.00959 0
M  V30 1604 N 147.489 0.455073 2.87015 0
M  V30 1605 H 147.036 1.14879 2.30566 0
M  V30 1606 H 146.994 -0.375611 3.12148 0
M  V30 1607 N 150.766 -0.704594 1.40972 0
M  V30 1608 C 151.676 -1.84856 1.44448 0
M  V30 1609 C 152.692 -1.70726 0.335961 0
M  V30 1610 O 153.868 -1.92799 0.582276 0
M  V30 1611 C 150.933 -3.20758 1.31587 0
M  V30 1612 C 149.994 -3.47063 2.52677 0
M  V30 1613 C 149.227 -4.76481 2.4042 0
M  V30 1614 O 149.45 -5.52341 1.42391 0
M  V30 1615 O 148.384 -5.03367 3.30007 0
M  V30 1616 H 152.21 -1.8488 2.40942 0
M  V30 1617 H 149.795 -0.85647 1.22413 0
M  V30 1618 H 151.677 -4.01913 1.26665 0
M  V30 1619 H 150.352 -3.21438 0.382049 0
M  V30 1620 H 149.259 -2.65873 2.63177 0
M  V30 1621 H 150.592 -3.5119 3.44858 0
M  V30 1622 N 152.244 -1.26651 -0.937939 0
M  V30 1623 C 153.484 -1.13611 -1.69917 0
M  V30 1624 C 153.848 0.314687 -1.89404 0
M  V30 1625 O 155.049 0.567285 -2.62746 0
M  V30 1626 C 153.32 -1.88742 -3.03498 0
M  V30 1627 S 154.879 -1.91794 -3.94665 0
M  V30 1628 H 151.697 -0.405767 -0.583844 0
M  V30 1629 H 154.299 -1.60416 -1.11745 0
M  V30 1630 H 153.003 -2.9336 -2.86999 0
M  V30 1631 H 152.534 -1.42391 -3.66727 0
M  V30 1632 H 154.549 -1.00698 -4.85875 0
M  V30 1633 N 153.722 1.14298 -1.08507 0
M  V30 1634 C 154.652 2.21542 -0.737646 0
M  V30 1635 C 155.633 1.67773 0.280377 0
M  V30 1636 O 156.818 1.93616 0.150521 0
M  V30 1637 C 153.948 3.46988 -0.147259 0
M  V30 1638 C 152.902 4.13789 -1.09374 0
M  V30 1639 C 152.228 5.33449 -0.365524 0
M  V30 1640 C 153.528 4.62208 -2.4323 0
M  V30 1641 H 155.222 2.5086 -1.6343 0
M  V30 1642 H 152.768 1.20576 -0.787243 0
M  V30 1643 H 154.721 4.21262 0.107808 0
M  V30 1644 H 153.445 3.17037 0.784538 0
M  V30 1645 H 152.104 3.4147 -1.33393 0
M  V30 1646 H 151.752 4.99759 0.57011 0
M  V30 1647 H 151.452 5.79088 -0.996512 0
M  V30 1648 H 152.976 6.10485 -0.118534 0
M  V30 1649 H 154.39 5.27952 -2.23472 0
M  V30 1650 H 152.787 5.18553 -3.02031 0
M  V30 1651 H 153.857 3.77224 -3.04681 0
M  V30 1652 N 155.201 0.870884 1.31352 0
M  V30 1653 C 156.111 0.330783 2.32256 0
M  V30 1654 C 157.127 -0.559767 1.6475 0
M  V30 1655 O 158.303 -0.456263 1.96164 0
M  V30 1656 C 155.368 -0.458137 3.4366 0
M  V30 1657 C 154.429 0.460482 4.26823 0
M  V30 1658 C 153.662 -0.290881 5.32907 0
M  V30 1659 O 153.885 -1.51885 5.49806 0
M  V30 1660 O 152.819 0.351732 6.00871 0
M  V30 1661 H 156.645 1.16718 2.80376 0
M  V30 1662 H 154.23 0.634285 1.35267 0
M  V30 1663 H 156.112 -0.905343 4.1156 0
M  V30 1664 H 154.787 -1.27106 2.97701 0
M  V30 1665 H 153.694 0.956207 3.61673 0
M  V30 1666 H 155.027 1.23903 4.7635 0
M  V30 1667 N 156.679 -1.44442 0.630414 0
M  V30 1668 C 157.927 -2.01653 0.134351 0
M  V30 1669 C 158.248 -1.49836 -1.24796 0
M  V30 1670 O 157.518 -0.701684 -1.82902 0
M  V30 1671 H 156.098 -0.74554 0.0466769 0
M  V30 1672 H 158.76 -1.76952 0.816955 0
M  V30 1673 H 157.856 -3.11935 0.101498 0
M  V30 1674 N 158.157 -0.370918 -1.53173 0
M  V30 1675 C 159.105 0.488101 -2.27421 0
M  V30 1676 C 160.099 1.07884 -1.30604 0
M  V30 1677 O 161.305 1.02143 -1.48212 0
M  V30 1678 H 157.68 0.176134 -0.731082 0
M  V30 1679 H 159.651 -0.159815 -2.97972 0
M  V30 1680 C 158.4 1.61306 -3.08019 0
M  V30 1681 H 157.723 1.1678 -3.82364 0
M  V30 1682 H 159.163 2.18872 -3.63141 0
M  V30 1683 C 157.622 2.55848 -2.19188 0
M  V30 1684 O 158.152 3.58799 -1.80626 0
M  V30 1685 N 156.358 2.2516 -1.83715 0
M  V30 1686 H 155.905 1.41476 -2.15273 0
M  V30 1687 H 155.863 2.8867 -1.24567 0
M  V30 1688 N 159.635 1.57281 -0.100228 0
M  V30 1689 C 160.875 1.96419 0.56558 0
M  V30 1690 C 161.239 0.981265 1.65031 0
M  V30 1691 O 162.44 1.26133 2.37369 0
M  V30 1692 C 160.711 3.39996 1.10171 0
M  V30 1693 S 162.27 4.01134 1.77867 0
M  V30 1694 H 159.088 0.68667 0.184406 0
M  V30 1695 H 161.69 1.94662 -0.180851 0
M  V30 1696 H 160.394 4.09296 0.300803 0
M  V30 1697 H 159.925 3.45361 1.88385 0
M  V30 1698 H 161.94 3.90358 3.06326 0
M  V30 1699 N 161.113 -0.173488 1.56642 0
M  V30 1700 C 162.076 -1.19859 1.95362 0
M  V30 1701 C 163.076 -1.37296 0.83704 0
M  V30 1702 O 164.266 -1.34739 1.10413 0
M  V30 1703 C 161.398 -2.56405 2.24654 0
M  V30 1704 H 162.591 -0.867062 2.87092 0
M  V30 1705 H 160.144 -0.415853 1.50666 0
M  V30 1706 H 160.879 -2.94576 1.35631 0
M  V30 1707 H 160.664 -2.45115 3.06041 0
M  V30 1708 H 162.154 -3.30287 2.5554 0
M  V30 1709 N 162.591 -1.51276 -0.441967 0
M  V30 1710 C 163.501 -1.75092 -1.56141 0
M  V30 1711 C 164.517 -0.634963 -1.62001 0
M  V30 1712 O 165.693 -0.916686 -1.79329 0
M  V30 1713 C 162.758 -1.86666 -2.92158 0
M  V30 1714 C 161.819 -3.10506 -2.96453 0
M  V30 1715 C 161.052 -3.21519 -4.25982 0
M  V30 1716 O 161.275 -2.38586 -5.18105 0
M  V30 1717 O 160.209 -4.14465 -4.36466 0
M  V30 1718 H 164.035 -2.70044 -1.38961 0
M  V30 1719 H 161.62 -1.35722 -0.624499 0
M  V30 1720 H 163.502 -1.96292 -3.72891 0
M  V30 1721 H 162.177 -0.949014 -3.09476 0
M  V30 1722 H 161.084 -3.06363 -2.14692 0
M  V30 1723 H 162.417 -4.01945 -2.84079 0
M  V30 1724 N 164.069 0.697108 -1.41344 0
M  V30 1725 C 165.317 1.45426 -1.40341 0
M  V30 1726 C 165.638 1.94996 -0.0128787 0
M  V30 1727 O 164.908 1.71599 0.945027 0
M  V30 1728 H 163.488 0.539594 -0.516573 0
M  V30 1729 H 166.15 0.825201 -1.76569 0
M  V30 1730 H 165.246 2.31817 -2.08967 0
M  V30 1731 N 165.547 1.27147 0.931209 0
M  V30 1732 C 166.793 1.13446 1.68101 0
M  V30 1733 C 167.126 -0.319628 1.91552 0
M  V30 1734 O 166.401 -1.23407 1.50336 0
M  V30 1735 C 166.684 1.91482 3.0497 0
M  V30 1736 C 166.537 3.44855 2.88782 0
M  V30 1737 C 167.856 1.71651 4.05246 0
M  V30 1738 H 164.975 0.413498 0.610072 0
M  V30 1739 H 167.617 1.56261 1.08086 0
M  V30 1740 H 165.767 1.55095 3.56199 0
M  V30 1741 H 167.439 3.9105 2.44698 0
M  V30 1742 H 165.682 3.71373 2.24198 0
M  V30 1743 H 166.353 3.94694 3.85902 0
M  V30 1744 H 168.829 2.0337 3.63015 0
M  V30 1745 H 167.705 2.28651 4.99009 0
M  V30 1746 H 167.966 0.663555 4.37092 0
M  V30 1747 N 167.025 -1.13721 1.09112 0
M  V30 1748 C 168.273 -1.84559 0.823562 0
M  V30 1749 C 168.594 -1.83754 -0.652658 0
M  V30 1750 O 167.864 -1.29102 -1.47342 0
M  V30 1751 H 166.444 -0.683376 0.301673 0
M  V30 1752 H 169.106 -1.37771 1.37859 0
M  V30 1753 H 168.202 -2.8917 1.17419 0
M  V30 1754 N 168.503 -0.877838 -1.30888 0
M  V30 1755 C 169.436 -0.283995 -2.26426 0
M  V30 1756 C 170.414 0.591361 -1.51465 0
M  V30 1757 O 171.598 0.54304 -1.80509 0
M  V30 1758 C 168.725 0.597129 -3.33395 0
M  V30 1759 C 167.771 -0.207937 -4.25993 0
M  V30 1760 S 168.604 -1.59158 -5.11301 0
M  V30 1761 C 169.76 -0.716791 -6.21782 0
M  V30 1762 H 169.993 -1.09383 -2.76446 0
M  V30 1763 H 167.526 -0.676828 -1.38775 0
M  V30 1764 H 169.484 1.09978 -3.95493 0
M  V30 1765 H 168.145 1.38099 -2.82113 0
M  V30 1766 H 167.338 0.464163 -5.01858 0
M  V30 1767 H 166.94 -0.642963 -3.68432 0
M  V30 1768 H 169.232 0.0692833 -6.77465 0
M  V30 1769 H 170.175 -1.44682 -6.93161 0
M  V30 1770 H 170.583 -0.280855 -5.63801 0
M  V30 1771 N 169.982 1.44106 -0.638065 0
M  V30 1772 C 170.93 2.3248 0.0748149 0
M  V30 1773 C 171.924 1.47746 0.828702 0
M  V30 1774 O 173.13 1.64049 0.740816 0
M  V30 1775 H 169.505 0.750771 0.0429686 0
M  V30 1776 H 171.476 2.90348 -0.688504 0
M  V30 1777 C 170.225 3.31843 1.03805 0
M  V30 1778 H 169.548 3.97059 0.467375 0
M  V30 1779 H 170.988 3.96345 1.50622 0
M  V30 1780 C 169.447 2.61291 2.1267 0
M  V30 1781 O 169.977 2.41702 3.20847 0
M  V30 1782 N 168.183 2.20915 1.88798 0
M  V30 1783 H 167.73 2.37047 1.00829 0
M  V30 1784 H 167.688 1.74038 2.61836 0
M  V30 1785 N 171.46 0.379036 1.52974 0
M  V30 1786 C 172.69 -0.20649 2.05566 0
M  V30 1787 C 173.098 -1.41906 1.25137 0
M  V30 1788 O 172.441 -1.81421 0.288464 0
M  V30 1789 C 172.503 -0.651086 3.53555 0
M  V30 1790 C 172.167 0.446626 4.54812 0
M  V30 1791 C 173.164 1.30079 5.03364 0
M  V30 1792 C 170.849 0.610719 4.98573 0
M  V30 1793 C 172.843 2.30426 5.94292 0
M  V30 1794 C 170.53 1.61754 5.89304 0
M  V30 1795 C 171.528 2.46274 6.37054 0
M  V30 1796 O 171.216 3.45237 7.25994 0
M  V30 1797 H 170.948 -0.0372381 0.674974 0
M  V30 1798 H 173.502 0.539718 1.98182 0
M  V30 1799 H 171.732 -1.44911 3.58522 0
M  V30 1800 H 173.421 -1.16112 3.88938 0
M  V30 1801 H 174.187 1.18527 4.70294 0
M  V30 1802 H 170.066 -0.0374044 4.60985 0
M  V30 1803 H 173.61 2.96432 6.31485 0
M  V30 1804 H 169.507 1.73348 6.21788 0
M  V30 1805 H 170.275 3.41124 7.44027 0
M  V30 1806 N 172.938 -1.57226 0.108567 0
M  V30 1807 C 174.354 -1.5766 -0.248058 0
M  V30 1808 C 174.554 -1.12063 -1.67464 0
M  V30 1809 O 173.61 -0.803236 -2.39383 0
M  V30 1810 C 174.923 -3.0069 -0.0242287 0
M  V30 1811 C 176.471 -3.12868 -0.0909372 0
M  V30 1812 C 176.946 -4.57879 0.105067 0
M  V30 1813 N 178.437 -4.63172 0.0506846 0
M  V30 1814 C 179.172 -5.73126 0.177396 0
M  V30 1815 N 178.668 -6.91866 0.359696 0
M  V30 1816 N 180.461 -5.61977 0.117709 0
M  V30 1817 H 172.612 -1.85169 1.04049 0
M  V30 1818 H 174.875 -0.85529 0.40888 0
M  V30 1819 H 174.581 -3.38299 0.961604 0
M  V30 1820 H 174.455 -3.6945 -0.76068 0
M  V30 1821 H 176.842 -2.75124 -1.06729 0
M  V30 1822 H 176.923 -2.46672 0.677225 0
M  V30 1823 H 176.567 -4.96321 1.07834 0
M  V30 1824 H 176.497 -5.22153 -0.682954 0
M  V30 1825 H 178.988 -3.778 -0.0871266 0
M  V30 1826 H 179.301 -7.71503 0.447529 0
M  V30 1827 H 177.646 -6.93874 0.395536 0
M  V30 1828 H 180.837 -4.68094 -0.0236741 0
M  V30 1829 H 181.01 -6.47627 0.219905 0
M  V30 1830 N 174.416 0.165178 -1.56732 0
M  V30 1831 C 175.664 0.879068 -1.8198 0
M  V30 1832 C 175.985 1.82514 -0.686561 0
M  V30 1833 O 175.255 1.93694 0.293146 0
M  V30 1834 H 173.835 0.327608 -0.671329 0
M  V30 1835 H 176.497 0.163526 -1.94213 0
M  V30 1836 H 175.593 1.45228 -2.76252 0
M  V30 1837 N 175.894 1.51508 0.433938 0
M  V30 1838 C 176.842 1.73646 1.54757 0
M  V30 1839 C 177.836 0.602854 1.5831 0
M  V30 1840 O 179.042 0.784318 1.62014 0
M  V30 1841 H 175.417 0.548718 0.51421 0
M  V30 1842 H 177.388 2.66991 1.33261 0
M  V30 1843 C 176.137 1.88172 2.92381 0
M  V30 1844 H 175.46 2.74808 2.90381 0
M  V30 1845 H 176.9 2.07672 3.6966 0
M  V30 1846 C 175.359 0.64239 3.30719 0
M  V30 1847 O 175.889 -0.201362 4.01195 0
M  V30 1848 N 174.095 0.485489 2.86516 0
M  V30 1849 H 173.642 1.17318 2.29334 0
M  V30 1850 H 173.6 -0.342482 3.12529 0
M  V30 1851 N 177.372 -0.689602 1.41712 0
M  V30 1852 C 178.618 -1.45181 1.41599 0
M  V30 1853 C 178.951 -1.94181 0.0270081 0
M  V30 1854 O 178.226 -1.6993 -0.946265 0
M  V30 1855 C 178.509 -2.65945 2.42787 0
M  V30 1856 C 178.362 -2.22672 3.90816 0
M  V30 1857 C 179.681 -3.68149 2.41151 0
M  V30 1858 H 176.8 -0.526576 0.515642 0
M  V30 1859 H 179.442 -0.784947 1.73028 0
M  V30 1860 H 177.592 -3.2284 2.16116 0
M  V30 1861 H 179.264 -1.71058 4.28412 0
M  V30 1862 H 177.507 -1.54394 4.05395 0
M  V30 1863 H 178.178 -3.0935 4.57172 0
M  V30 1864 H 180.654 -3.2094 2.64834 0
M  V30 1865 H 179.53 -4.50248 3.13955 0
M  V30 1866 H 179.791 -4.18259 1.43221 0
M  V30 1867 N 178.85 -1.27639 -0.924453 0
M  V30 1868 C 180.075 -1.17101 -1.71179 0
M  V30 1869 C 180.5 0.268134 -1.86179 0
M  V30 1870 O 179.858 1.19415 -1.36418 0
M  V30 1871 C 179.906 -1.86313 -3.08739 0
M  V30 1872 O 179.01 -1.16331 -3.95652 0
M  V30 1873 H 178.351 -0.407091 -0.524569 0
M  V30 1874 H 180.881 -1.68767 -1.15666 0
M  V30 1875 H 180.891 -1.938 -3.59034 0
M  V30 1876 H 179.566 -2.91001 -2.97138 0
M  V30 1877 H 178.143 -1.16935 -3.54091 0
M  V30 1878 N 180.328 1.1314 -1.09713 0
M  V30 1879 C 181.574 1.84757 -0.836224 0
M  V30 1880 C 181.907 1.8347 0.636598 0
M  V30 1881 O 181.182 1.27491 1.46889 0
M  V30 1882 C 181.465 3.32782 -1.37578 0
M  V30 1883 C 181.318 3.42567 -2.91493 0
M  V30 1884 C 182.637 4.28307 -1.01198 0
M  V30 1885 H 179.756 0.67082 -0.305236 0
M  V30 1886 H 182.398 1.3278 -1.35903 0
M  V30 1887 H 180.548 3.77177 -0.931097 0
M  V30 1888 H 182.22 3.06862 -3.44432 0
M  V30 1889 H 180.463 2.83349 -3.28475 0
M  V30 1890 H 181.134 4.46674 -3.24324 0
M  V30 1891 H 183.61 3.91999 -1.39556 0
M  V30 1892 H 182.486 5.30307 -1.41653 0
M  V30 1893 H 182.747 4.42029 0.0794833 0
M  V30 1894 N 181.806 0.884767 1.30421 0
M  V30 1895 C 183.034 0.518044 2.0031 0
M  V30 1896 C 183.449 -0.893408 1.66324 0
M  V30 1897 O 182.806 -1.5875 0.900262 0
M  V30 1898 C 182.857 0.682997 3.54989 0
M  V30 1899 O 182.578 2.03888 3.87764 0
M  V30 1900 C 184.079 0.31924 4.42149 0
M  V30 1901 H 181.299 0.200265 0.640418 0
M  V30 1902 H 183.843 1.19001 1.6631 0
M  V30 1903 H 181.998 0.0584052 3.87356 0
M  V30 1904 H 182.412 2.05735 4.82466 0
M  V30 1905 H 183.886 0.485555 5.4986 0
M  V30 1906 H 184.363 -0.742717 4.32875 0
M  V30 1907 H 184.969 0.920147 4.15227 0
M  V30 1908 N 183.284 -1.43765 0.645699 0
M  V30 1909 C 184.7 -1.56509 0.312591 0
M  V30 1910 C 184.9 -1.6307 -1.18365 0
M  V30 1911 O 183.956 -1.58167 -1.96824 0
M  V30 1912 C 185.269 -2.82968 1.01733 0
M  V30 1913 C 186.817 -2.96701 0.996865 0
M  V30 1914 C 187.292 -4.25982 1.68236 0
M  V30 1915 N 188.783 -4.32829 1.64964 0
M  V30 1916 C 189.518 -5.31613 2.14885 0
M  V30 1917 N 189.014 -6.36718 2.73061 0
M  V30 1918 N 190.807 -5.23217 2.05428 0
M  V30 1919 H 182.958 -1.3775 1.61675 0
M  V30 1920 H 185.221 -0.661067 0.679481 0
M  V30 1921 H 184.927 -2.84156 2.0724 0
M  V30 1922 H 184.801 -3.72957 0.564177 0
M  V30 1923 H 187.188 -2.95058 -0.0497719 0
M  V30 1924 H 187.269 -2.08022 1.48865 0
M  V30 1925 H 186.913 -4.28386 2.72852 0
M  V30 1926 H 186.843 -5.13545 1.16529 0
M  V30 1927 H 189.334 -3.57493 1.22503 0
M  V30 1928 H 189.647 -7.08401 3.08848 0
M  V30 1929 H 187.992 -6.37362 2.77118 0
M  V30 1930 H 191.183 -4.40019 1.59689 0
M  V30 1931 H 191.356 -6.00045 2.44643 0
M  V30 1932 N 184.763 -0.387143 -1.52771 0
M  V30 1933 C 185.988 0.198407 -2.06449 0
M  V30 1934 C 186.413 1.39918 -1.25716 0
M  V30 1935 O 185.771 1.79099 -0.281657 0
M  V30 1936 C 185.819 0.548893 -3.56398 0
M  V30 1937 O 184.923 1.64315 -3.78252 0
M  V30 1938 H 184.264 0.0237731 -0.663574 0
M  V30 1939 H 186.794 -0.553989 -1.96957 0
M  V30 1940 H 186.804 0.813812 -3.99801 0
M  V30 1941 H 185.479 -0.329005 -4.14597 0
M  V30 1942 H 184.056 1.37211 -3.46738 0
M  V30 1943 N 186.241 1.57166 -0.116904 0
M  V30 1944 C 187.489 1.94737 0.540533 0
M  V30 1945 C 187.81 1.00096 1.67349 0
M  V30 1946 O 187.08 0.0568854 1.95817 0
M  V30 1947 H 185.66 0.718981 0.202669 0
M  V30 1948 H 188.322 1.94017 -0.185353 0
M  V30 1949 H 187.418 2.97719 0.936483 0
M  V30 1950 N 187.719 -0.156864 1.56817 0
M  V30 1951 C 188.968 -0.869504 1.81996 0
M  V30 1952 C 189.281 -1.82777 0.696545 0
M  V30 1953 O 190.487 -2.58384 0.833658 0
M  V30 1954 C 188.943 -1.59679 3.22538 0
M  V30 1955 C 188.551 -0.681431 4.42787 0
M  V30 1956 C 190.295 -2.2968 3.56997 0
M  V30 1957 C 188.202 -1.40978 5.74351 0
M  V30 1958 H 187.132 -0.328438 0.678708 0
M  V30 1959 H 189.783 -0.1223 1.83092 0
M  V30 1960 H 188.165 -2.38927 3.158 0
M  V30 1961 H 189.339 0.0751166 4.60739 0
M  V30 1962 H 187.654 -0.0903431 4.16302 0
M  V30 1963 H 190.251 -2.84794 4.52544 0
M  V30 1964 H 190.594 -3.05707 2.82576 0
M  V30 1965 H 191.127 -1.57361 3.65352 0
M  V30 1966 H 187.866 -0.691561 6.51842 0
M  V30 1967 H 187.386 -2.13929 5.60352 0
M  V30 1968 H 189.065 -1.95337 6.16808 0
M  V30 1969 N 189.197 -1.51736 -0.425897 0
M  V30 1970 C 190.107 -1.76738 -1.54275 0
M  V30 1971 C 191.123 -0.65211 -1.61318 0
M  V30 1972 O 192.299 -0.935654 -1.78346 0
M  V30 1973 C 189.364 -1.89755 -2.90162 0
M  V30 1974 C 188.425 -3.13633 -2.93143 0
M  V30 1975 C 187.658 -3.2602 -4.22548 0
M  V30 1976 O 187.881 -2.44067 -5.15546 0
M  V30 1977 O 186.815 -4.19071 -4.32046 0
M  V30 1978 H 190.641 -2.71502 -1.36089 0
M  V30 1979 H 188.226 -1.36376 -0.610069 0
M  V30 1980 H 190.108 -2.00236 -3.70788 0
M  V30 1981 H 188.783 -0.981785 -3.08452 0
M  V30 1982 H 187.69 -3.08622 -2.11431 0
M  V30 1983 H 189.023 -4.04936 -2.798 0
M  V30 1984 N 190.675 0.682077 -1.42076 0
M  V30 1985 C 191.915 1.45424 -1.43636 0
M  V30 1986 C 192.279 1.91939 -0.0484001 0
M  V30 1987 O 193.48 2.6873 0.0612514 0
M  V30 1988 C 191.751 2.62427 -2.42625 0
M  V30 1989 S 193.31 3.51379 -2.62827 0
M  V30 1990 H 190.128 0.496779 -0.508657 0
M  V30 1991 H 192.73 0.794645 -1.78621 0
M  V30 1992 H 191.434 2.26481 -3.42249 0
M  V30 1993 H 190.965 3.33266 -2.09039 0
M  V30 1994 H 192.98 4.58141 -1.9058 0
M  V30 1995 N 192.153 1.28127 0.917671 0
M  V30 1996 C 193.085 1.07517 2.02417 0
M  V30 1997 C 194.098 0.0281099 1.62776 0
M  V30 1998 O 195.287 0.270748 1.76435 0
M  V30 1999 C 192.387 0.610957 3.33347 0
M  V30 2000 C 191.56 1.73255 4.01624 0
M  V30 2001 C 190.619 1.26238 5.10833 0
M  V30 2002 O 189.645 1.96389 5.34247 0
M  V30 2003 N 190.847 0.123448 5.80369 0
M  V30 2004 H 193.612 2.02806 2.20658 0
M  V30 2005 H 191.173 1.19827 1.08871 0
M  V30 2006 H 193.165 0.280101 4.0373 0
M  V30 2007 H 191.735 -0.24898 3.11607 0
M  V30 2008 H 190.955 2.23319 3.24842 0
M  V30 2009 H 192.243 2.48503 4.43986 0
M  V30 2010 H 191.641 -0.461847 5.63812 0
M  V30 2011 H 190.198 -0.148158 6.51632 0
M  V30 2012 N 193.631 -1.12557 1.10312 0
M  V30 2013 C 194.561 -2.20341 0.772798 0
M  V30 2014 C 195.542 -1.68198 -0.25365 0
M  V30 2015 O 196.727 -1.93831 -0.119699 0
M  V30 2016 C 193.857 -3.46709 0.202443 0
M  V30 2017 C 192.811 -4.11996 1.15943 0
M  V30 2018 C 192.137 -5.328 0.450345 0
M  V30 2019 C 193.437 -4.5828 2.50552 0
M  V30 2020 H 195.131 -2.48229 1.674 0
M  V30 2021 H 192.677 -1.19308 0.806326 0
M  V30 2022 H 194.63 -4.2138 -0.0407752 0
M  V30 2023 H 193.354 -3.18245 -0.734001 0
M  V30 2024 H 192.013 -3.39305 1.38808 0
M  V30 2025 H 191.661 -5.00602 -0.490531 0
M  V30 2026 H 191.361 -5.7743 1.08851 0
M  V30 2027 H 192.885 -6.10219 0.215642 0
M  V30 2028 H 194.299 -5.2433 2.31843 0
M  V30 2029 H 192.696 -5.13683 3.10242 0
M  V30 2030 H 193.766 -3.72329 3.10643 0
M  V30 2031 N 195.109 -0.891671 -1.2995 0
M  V30 2032 C 196.355 -0.523649 -1.96544 0
M  V30 2033 C 196.71 0.918394 -1.69066 0
M  V30 2034 O 196.003 1.64122 -0.988659 0
M  V30 2035 C 196.197 -0.742868 -3.49594 0
M  V30 2036 C 196.026 -2.20467 -3.9195 0
M  V30 2037 C 194.796 -2.85055 -4.17219 0
M  V30 2038 C 196.994 -3.17912 -4.04273 0
M  V30 2039 N 194.976 -4.21762 -4.46083 0
M  V30 2040 C 196.347 -4.39712 -4.37097 0
M  V30 2041 C 198.402 -3.1361 -3.86721 0
M  V30 2042 C 197.105 -5.5776 -4.54199 0
M  V30 2043 C 199.131 -4.30936 -4.05028 0
M  V30 2044 C 198.493 -5.51504 -4.38204 0
M  V30 2045 H 194.592 -0.241072 -0.743914 0
M  V30 2046 H 197.176 -1.15081 -1.5705 0
M  V30 2047 H 195.347 -0.14515 -3.88129 0
M  V30 2048 H 197.079 -0.341081 -4.0326 0
M  V30 2049 H 193.834 -2.35889 -4.10674 0
M  V30 2050 H 194.258 -4.92382 -4.64638 0
M  V30 2051 H 198.9 -2.21489 -3.60142 0
M  V30 2052 H 196.618 -6.50379 -4.79618 0
M  V30 2053 H 200.204 -4.29085 -3.92909 0
M  V30 2054 H 199.084 -6.40778 -4.52077 0
M  V30 2055 N 196.587 1.43421 -0.653314 0
M  V30 2056 C 198.003 1.56341 -0.320886 0
M  V30 2057 C 198.203 1.63696 1.17499 0
M  V30 2058 O 197.259 1.59208 1.95982 0
M  V30 2059 C 198.572 2.82424 -1.03233 0
M  V30 2060 C 200.12 2.96168 -1.01259 0
M  V30 2061 C 200.595 4.25084 -1.70492 0
M  V30 2062 N 202.086 4.31948 -1.67257 0
M  V30 2063 C 202.821 5.30466 -2.17701 0
M  V30 2064 N 202.317 6.35261 -2.76434 0
M  V30 2065 N 204.11 5.2212 -2.082 0
M  V30 2066 H 196.261 1.3689 -1.62403 0
M  V30 2067 H 198.524 0.657455 -0.682977 0
M  V30 2068 H 198.23 2.83053 -2.08744 0
M  V30 2069 H 198.104 3.72653 -0.583948 0
M  V30 2070 H 200.491 2.9508 0.0341235 0
M  V30 2071 H 200.572 2.07229 -1.49966 0
M  V30 2072 H 200.216 4.26932 -2.7512 0
M  V30 2073 H 200.146 5.1292 -1.19251 0
M  V30 2074 H 202.637 3.56838 -1.24398 0
M  V30 2075 H 202.95 7.06754 -3.12601 0
M  V30 2076 H 201.295 6.35884 -2.80495 0
M  V30 2077 H 204.486 4.39166 -1.62021 0
M  V30 2078 H 204.659 5.98739 -2.47822 0
M  V30 2079 N 198.065 0.39524 1.52563 0
M  V30 2080 C 199.29 -0.187456 2.06551 0
M  V30 2081 C 199.715 -1.39249 1.26457 0
M  V30 2082 O 199.073 -1.78947 0.291151 0
M  V30 2083 C 199.121 -0.529985 3.56684 0
M  V30 2084 O 198.225 -1.62307 3.79118 0
M  V30 2085 H 197.566 -0.0202537 0.663691 0
M  V30 2086 H 200.096 0.564426 1.96661 0
M  V30 2087 H 200.106 -0.792598 4.00227 0
M  V30 2088 H 198.781 0.350987 4.14416 0
M  V30 2089 H 197.358 -1.3537 3.47461 0
M  V30 2090 N 199.544 -1.57102 0.125237 0
M  V30 2091 C 200.96 -1.57915 -0.231322 0
M  V30 2092 C 201.16 -1.13833 -1.66266 0
M  V30 2093 O 200.216 -0.828581 -2.38518 0
M  V30 2094 C 201.529 -3.00699 0.00766489 0
M  V30 2095 C 203.077 -3.12947 -0.0577483 0
M  V30 2096 C 203.552 -4.57742 0.153626 0
M  V30 2097 N 205.043 -4.63092 0.0998073 0
M  V30 2098 C 205.778 -5.72905 0.238174 0
M  V30 2099 N 205.274 -6.91445 0.433057 0
M  V30 2100 N 207.067 -5.6182 0.177308 0
M  V30 2101 H 199.218 -1.84055 1.06007 0
M  V30 2102 H 201.481 -0.850905 0.417929 0
M  V30 2103 H 201.187 -3.3726 0.997431 0
M  V30 2104 H 201.061 -3.70236 -0.721452 0
M  V30 2105 H 203.448 -2.7624 -1.03804 0
M  V30 2106 H 203.529 -2.4594 0.70335 0
M  V30 2107 H 203.173 -4.95149 1.13092 0
M  V30 2108 H 203.103 -5.22848 -0.627534 0
M  V30 2109 H 205.594 -3.77871 -0.047051 0
M  V30 2110 H 205.907 -7.70985 0.529332 0
M  V30 2111 H 204.252 -6.93415 0.469109 0
M  V30 2112 H 207.443 -4.68093 0.0259748 0
M  V30 2113 H 207.616 -6.47357 0.288582 0
M  V30 2114 N 201.022 0.148545 -1.56898 0
M  V30 2115 C 202.252 0.875118 -1.8715 0
M  V30 2116 C 202.66 1.75322 -0.711262 0
M  V30 2117 O 202.003 1.80745 0.328151 0
M  V30 2118 C 202.065 1.7844 -3.12089 0
M  V30 2119 C 201.729 1.08361 -4.43967 0
M  V30 2120 C 202.726 0.438247 -5.1805 0
M  V30 2121 C 200.411 1.07358 -4.90693 0
M  V30 2122 C 202.405 -0.20779 -6.37061 0
M  V30 2123 C 200.092 0.42373 -6.09629 0
M  V30 2124 C 201.09 -0.215829 -6.82659 0
M  V30 2125 O 200.778 -0.855378 -7.99336 0
M  V30 2126 H 200.51 0.258504 -0.624621 0
M  V30 2127 H 203.064 0.14652 -2.04877 0
M  V30 2128 H 201.294 2.55389 -2.90367 0
M  V30 2129 H 202.983 2.38279 -3.286 0
M  V30 2130 H 203.749 0.437817 -4.8302 0
M  V30 2131 H 199.628 1.5608 -4.33774 0
M  V30 2132 H 203.172 -0.70758 -6.94002 0
M  V30 2133 H 199.069 0.421822 -6.4412 0
M  V30 2134 H 199.837 -0.756892 -8.14993 0
M  V30 2135 N 202.5 1.5196 0.417844 0
M  V30 2136 C 203.911 1.57851 0.997 0
M  V30 2137 C 204.262 0.413714 1.91789 0
M  V30 2138 O 203.387 -0.467057 2.113 0
M  V30 2139 C 203.982 2.86085 1.81496 0
M  V30 2140 C 202.541 2.94483 2.34428 0
M  V30 2141 C 201.688 2.52707 1.14169 0
M  V30 2142 H 204.639 1.57455 0.198392 0
M  V30 2143 H 204.66 2.70947 2.67148 0
M  V30 2144 H 204.172 3.70842 1.14446 0
M  V30 2145 H 202.273 2.142 3.04875 0
M  V30 2146 H 202.386 3.98546 2.65891 0
M  V30 2147 H 200.75 2.06353 1.49301 0
M  V30 2148 H 201.533 3.39828 0.486999 0
M  V30 2149 N 203.978 -0.674533 1.42435 0
M  V30 2150 C 204.928 -1.7807 1.4239 0
M  V30 2151 C 205.912 -1.58169 0.295202 0
M  V30 2152 O 207.104 -1.68643 0.537449 0
M  V30 2153 C 204.233 -3.16532 1.32901 0
M  V30 2154 C 203.319 -3.42055 2.50717 0
M  V30 2155 N 203.71 -3.38162 3.76139 0
M  V30 2156 C 202.008 -3.72692 2.44983 0
M  V30 2157 C 202.709 -3.63177 4.54398 0
M  V30 2158 N 201.685 -3.83954 3.84812 0
M  V30 2159 H 205.487 -1.73454 2.37257 0
M  V30 2160 H 203.001 -0.875381 1.36788 0
M  V30 2161 H 204.998 -3.958 1.30951 0
M  V30 2162 H 203.658 -3.22345 0.390363 0
M  V30 2163 H 204.669 -3.18057 4.0873 0
M  V30 2164 H 201.346 -3.85749 1.59699 0
M  V30 2165 H 202.736 -3.66125 5.63384 0
M  V30 2166 N 205.456 -1.28612 -0.910864 0
M  V30 2167 C 206.403 -1.12786 -2.01365 0
M  V30 2168 C 207.373 -0.024201 -1.66082 0
M  V30 2169 O 208.558 -0.189667 -1.89855 0
M  V30 2170 C 205.698 -0.798743 -3.35729 0
M  V30 2171 C 204.811 -1.98173 -3.83864 0
M  V30 2172 C 203.946 -1.59298 -5.06752 0
M  V30 2173 C 202.985 -2.74245 -5.47226 0
M  V30 2174 N 202.122 -2.35842 -6.61304 0
M  V30 2175 H 206.962 -2.07142 -2.14234 0
M  V30 2176 H 204.499 -1.03093 -1.0493 0
M  V30 2177 H 206.457 -0.588662 -4.13026 0
M  V30 2178 H 205.087 0.10789 -3.2262 0
M  V30 2179 H 204.139 -2.30386 -3.02699 0
M  V30 2180 H 205.451 -2.84343 -4.09818 0
M  V30 2181 H 204.605 -1.34513 -5.916 0
M  V30 2182 H 203.344 -0.702618 -4.82612 0
M  V30 2183 H 202.349 -2.99725 -4.60918 0
M  V30 2184 H 203.574 -3.63928 -5.73353 0
M  V30 2185 H 201.52 -1.49279 -6.38789 0
M  V30 2186 H 201.437 -3.15546 -6.86998 0
M  V30 2187 H 202.705 -2.14348 -7.4945 0
M  V30 2188 N 206.934 1.1197 -1.10907 0
M  V30 2189 C 208.345 1.65114 -0.871446 0
M  V30 2190 C 208.696 1.86885 0.597353 0
M  V30 2191 O 207.821 1.59896 1.45816 0
M  V30 2192 C 208.416 2.99944 -1.5754 0
M  V30 2193 C 206.975 3.50018 -1.38435 0
M  V30 2194 C 206.122 2.24941 -1.62164 0
M  V30 2195 H 209.073 0.956851 -1.2661 0
M  V30 2196 H 209.094 3.66651 -1.01721 0
M  V30 2197 H 208.606 2.84067 -2.64438 0
M  V30 2198 H 206.707 3.71071 -0.337214 0
M  V30 2199 H 206.82 4.29165 -2.12965 0
M  V30 2200 H 205.184 2.3229 -1.04467 0
M  V30 2201 H 205.967 2.11612 -2.70324 0
M  V30 2202 N 208.412 0.89855 1.29475 0
M  V30 2203 C 209.322 0.379974 2.31502 0
M  V30 2204 C 210.338 -0.524695 1.659 0
M  V30 2205 O 211.514 -0.414551 1.97087 0
M  V30 2206 C 208.579 -0.385138 3.44554 0
M  V30 2207 C 207.64 0.550914 4.2575 0
M  V30 2208 C 206.873 -0.177778 5.33404 0
M  V30 2209 O 207.096 -1.40189 5.52904 0
M  V30 2210 O 206.03 0.479106 5.9999 0
M  V30 2211 H 209.856 1.22639 2.77837 0
M  V30 2212 H 207.441 0.662834 1.33891 0
M  V30 2213 H 209.323 -0.817841 4.13388 0
M  V30 2214 H 207.998 -1.20763 3.0033 0
M  V30 2215 H 206.905 1.03271 3.59564 0
M  V30 2216 H 208.238 1.33979 4.73614 0
M  V30 2217 N 209.89 -1.43072 0.660911 0
M  V30 2218 C 211.139 -2.00942 0.174735 0
M  V30 2219 C 211.452 -1.52797 -1.22117 0
M  V30 2220 O 212.658 -2.02991 -1.80297 0
M  V30 2221 C 211.114 -3.58948 0.261559 0
M  V30 2222 C 210.722 -4.16085 1.66064 0
M  V30 2223 C 212.466 -4.24173 -0.166617 0
M  V30 2224 C 210.373 -5.6641 1.70098 0
M  V30 2225 H 209.303 -0.751483 0.0615631 0
M  V30 2226 H 211.954 -1.63955 0.824069 0
M  V30 2227 H 210.336 -3.93372 -0.455421 0
M  V30 2228 H 211.51 -3.93147 2.40359 0
M  V30 2229 H 209.825 -3.6326 2.03546 0
M  V30 2230 H 212.422 -5.34471 -0.156433 0
M  V30 2231 H 212.765 -3.98647 -1.19943 0
M  V30 2232 H 213.298 -3.94659 0.498875 0
M  V30 2233 H 210.037 -5.96715 2.71315 0
M  V30 2234 H 209.557 -5.91382 1.00139 0
M  V30 2235 H 211.236 -6.30585 1.44816 0
M  V30 2236 N 211.368 -0.403325 -1.52352 0
M  V30 2237 C 212.316 0.439752 -2.28405 0
M  V30 2238 C 213.31 1.05089 -1.32863 0
M  V30 2239 O 214.516 0.989759 -1.50345 0
M  V30 2240 H 210.891 0.160587 -0.734653 0
M  V30 2241 H 212.862 -0.222983 -2.97566 0
M  V30 2242 C 211.611 1.54736 -3.11371 0
M  V30 2243 H 210.934 1.08643 -3.84755 0
M  V30 2244 H 212.374 2.1112 -3.67701 0
M  V30 2245 C 210.833 2.51141 -2.24566 0
M  V30 2246 O 211.363 3.54887 -1.88196 0
M  V30 2247 N 209.569 2.21213 -1.8845 0
M  V30 2248 H 209.116 1.36878 -2.18225 0
M  V30 2249 H 209.074 2.85963 -1.30662 0
M  V30 2250 N 212.846 1.57033 -0.133567 0
M  V30 2251 C 214.071 2.00475 0.531477 0
M  V30 2252 C 214.496 1.01291 1.58499 0
M  V30 2253 O 213.854 -0.0133279 1.81295 0
M  V30 2254 C 213.902 3.42729 1.12113 0
M  V30 2255 O 213.006 3.46498 2.23636 0
M  V30 2256 H 212.347 0.650876 0.131362 0
M  V30 2257 H 214.877 2.03344 -0.22634 0
M  V30 2258 H 214.887 3.81246 1.4531 0
M  V30 2259 H 213.562 4.14428 0.349557 0
M  V30 2260 H 212.139 3.19811 1.91769 0
M  V30 2261 N 214.325 -0.140222 1.56975 0
M  V30 2262 C 215.553 -0.866437 1.87884 0
M  V30 2263 C 215.968 -1.74428 0.722517 0
M  V30 2264 O 215.325 -1.79891 -0.30749 0
M  V30 2265 C 215.376 -1.71753 3.18093 0
M  V30 2266 O 215.097 -0.875056 4.29272 0
M  V30 2267 C 216.598 -2.55074 3.62563 0
M  V30 2268 H 213.818 -0.25019 0.622612 0
M  V30 2269 H 216.362 -0.130977 2.0408 0
M  V30 2270 H 214.517 -2.40598 3.03631 0
M  V30 2271 H 214.931 -1.46002 5.03769 0
M  V30 2272 H 216.405 -3.10356 4.5649 0
M  V30 2273 H 216.882 -3.31434 2.88181 0
M  V30 2274 H 217.488 -1.91509 3.79743 0
M  V30 2275 N 215.803 -1.52179 -0.40978 0
M  V30 2276 C 217.031 -1.70054 -1.17853 0
M  V30 2277 C 217.446 -0.409735 -1.843 0
M  V30 2278 O 216.803 0.614183 -1.71855 0
M  V30 2279 C 216.854 -2.83568 -2.24213 0
M  V30 2280 O 216.575 -4.0765 -1.60478 0
M  V30 2281 C 218.076 -3.12947 -3.13973 0
M  V30 2282 H 215.296 -0.569917 -0.354169 0
M  V30 2283 H 217.84 -1.98734 -0.482198 0
M  V30 2284 H 215.995 -2.57409 -2.89516 0
M  V30 2285 H 216.409 -4.70899 -2.30986 0
M  V30 2286 H 217.883 -3.95889 -3.84677 0
M  V30 2287 H 218.36 -2.26472 -3.76307 0
M  V30 2288 H 218.966 -3.40868 -2.5434 0
M  V30 2289 N 217.281 0.66697 -1.42791 0
M  V30 2290 C 218.231 1.77313 -1.43332 0
M  V30 2291 C 219.215 1.5801 -0.303586 0
M  V30 2292 O 220.407 1.68356 -0.546385 0
M  V30 2293 C 217.536 3.15822 -1.34578 0
M  V30 2294 C 216.622 3.40721 -2.52528 0
M  V30 2295 N 217.013 3.36162 -3.77927 0
M  V30 2296 C 215.311 3.71387 -2.46956 0
M  V30 2297 C 216.012 3.60762 -4.56318 0
M  V30 2298 N 214.988 3.81908 -3.86843 0
M  V30 2299 H 218.79 1.72193 -2.38174 0
M  V30 2300 H 216.304 0.868114 -1.3725 0
M  V30 2301 H 218.301 3.951 -1.33048 0
M  V30 2302 H 216.961 3.22133 -0.407453 0
M  V30 2303 H 217.972 3.15885 -4.10411 0
M  V30 2304 H 214.649 3.84897 -1.61743 0
M  V30 2305 H 216.039 3.63132 -5.65318 0
M  V30 2306 N 218.759 1.29093 0.90403 0
M  V30 2307 C 220.17 1.15186 1.46932 0
M  V30 2308 C 220.521 -0.254587 1.94541 0
M  V30 2309 O 219.646 -1.14972 1.83332 0
M  V30 2310 C 220.241 2.08492 2.67051 0
M  V30 2311 C 218.8 1.98621 3.19729 0
M  V30 2312 C 217.947 1.9967 1.92425 0
M  V30 2313 H 220.898 1.41641 0.715789 0
M  V30 2314 H 220.919 1.65461 3.42641 0
M  V30 2315 H 220.431 3.10847 2.3237 0
M  V30 2316 H 218.532 0.993389 3.59114 0
M  V30 2317 H 218.645 2.86068 3.8432 0
M  V30 2318 H 217.009 1.44208 2.09943 0
M  V30 2319 H 217.792 3.03721 1.60026 0
M  V30 2320 N 220.237 -1.11381 1.11499 0
M  V30 2321 C 221.485 -1.8277 0.862524 0
M  V30 2322 C 221.806 -1.85097 -0.613534 0
M  V30 2323 O 221.076 -1.32198 -1.4457 0
M  V30 2324 H 219.656 -0.676823 0.316101 0
M  V30 2325 H 222.318 -1.34816 1.4075 0
M  V30 2326 H 221.414 -2.86614 1.23527 0
M  V30 2327 N 221.715 -0.905404 -1.28997 0
M  V30 2328 C 222.678 -0.392253 -2.25819 0
M  V30 2329 C 223.678 0.476753 -1.5357 0
M  V30 2330 O 224.868 0.280994 -1.71919 0
M  V30 2331 C 222 0.438588 -3.38067 0
M  V30 2332 H 223.193 -1.24743 -2.72725 0
M  V30 2333 H 220.746 -0.684051 -1.40536 0
M  V30 2334 H 221.481 1.31352 -2.96508 0
M  V30 2335 H 221.266 -0.184167 -3.91667 0
M  V30 2336 H 222.756 0.78873 -4.10084 0
M  V30 2337 N 223.193 1.4272 -0.668489 0
M  V30 2338 C 224.47 1.95248 -0.117373 0
M  V30 2339 C 224.85 1.60919 1.36632 0
M  V30 2340 O 224.198 0.902095 2.09939 0
M  V30 2341 C 224.408 3.46927 -0.379806 0
M  V30 2342 C 225.756 4.23588 -0.292923 0
M  V30 2343 O 226.78 3.5482 -0.313204 0
M  V30 2344 O 225.639 5.46017 -0.229697 0
M  V30 2345 H 222.733 0.827 0.00079152 0
M  V30 2346 H 225.279 1.52581 -0.742783 0
M  V30 2347 H 224.051 3.65096 -1.40786 0
M  V30 2348 H 223.674 3.96627 0.277923 0
M  V30 2349 N 224.671 0.411399 1.52136 0
M  V30 2350 C 225.601 -0.404015 2.29978 0
M  V30 2351 C 226.582 -1.04412 1.34284 0
M  V30 2352 O 227.767 -1.0527 1.63192 0
M  V30 2353 C 224.897 -1.5197 3.12286 0
M  V30 2354 C 223.851 -1.00448 4.16046 0
M  V30 2355 C 223.177 -2.21393 4.86712 0
M  V30 2356 C 224.477 -0.0569336 5.22269 0
M  V30 2357 H 226.171 0.245529 2.98392 0
M  V30 2358 H 223.717 0.119525 1.43503 0
M  V30 2359 H 225.67 -2.09715 3.6551 0
M  V30 2360 H 224.394 -2.19716 2.41646 0
M  V30 2361 H 223.053 -0.449421 3.63835 0
M  V30 2362 H 222.701 -2.87699 4.12599 0
M  V30 2363 H 222.401 -1.87571 5.56858 0
M  V30 2364 H 223.925 -2.7974 5.4275 0
M  V30 2365 H 225.339 -0.54325 5.7072 0
M  V30 2366 H 223.736 0.192594 5.99791 0
M  V30 2367 H 224.806 0.887663 4.76706 0
M  V30 2368 N 226.149 -1.5696 0.141893 0
M  V30 2369 C 227.565 -1.58151 -0.21456 0
M  V30 2370 C 227.765 -1.1559 -1.65049 0
M  V30 2371 O 226.821 -0.853832 -2.37626 0
M  V30 2372 C 228.134 -3.00674 0.0395576 0
M  V30 2373 C 229.682 -3.1299 -0.0245529 0
M  V30 2374 C 230.157 -4.57554 0.202167 0
M  V30 2375 N 231.648 -4.62961 0.148919 0
M  V30 2376 C 232.383 -5.7262 0.298924 0
M  V30 2377 N 231.879 -6.90947 0.50637 0
M  V30 2378 N 233.672 -5.61601 0.236886 0
M  V30 2379 H 225.823 -1.8292 1.07953 0
M  V30 2380 H 228.086 -0.846425 0.42693 0
M  V30 2381 H 227.792 -3.36183 1.03315 0
M  V30 2382 H 227.666 -3.70981 -0.682143 0
M  V30 2383 H 230.053 -2.77326 -1.00869 0
M  V30 2384 H 230.134 -2.4518 0.729396 0
M  V30 2385 H 229.778 -4.93922 1.18338 0
M  V30 2386 H 229.708 -5.23484 -0.572044 0
M  V30 2387 H 232.199 -3.77899 -0.00697015 0
M  V30 2388 H 232.512 -7.7038 0.611076 0
M  V30 2389 H 230.857 -6.92878 0.542628 0
M  V30 2390 H 234.048 -4.68039 0.0756209 0
M  V30 2391 H 234.221 -6.47015 0.357227 0
M  V30 2392 N 227.627 0.131896 -1.57047 0
M  V30 2393 C 228.537 1.1815 -2.02676 0
M  V30 2394 C 229.553 1.46113 -0.944824 0
M  V30 2395 O 230.729 1.57485 -1.25541 0
M  V30 2396 C 227.794 2.49139 -2.41103 0
M  V30 2397 C 226.855 2.28688 -3.63318 0
M  V30 2398 C 226.088 3.53431 -3.99903 0
M  V30 2399 O 226.311 4.60223 -3.36973 0
M  V30 2400 O 225.245 3.45198 -4.93074 0
M  V30 2401 H 229.071 0.824069 -2.92306 0
M  V30 2402 H 226.656 0.341745 -1.45439 0
M  V30 2403 H 228.538 3.26338 -2.66611 0
M  V30 2404 H 227.213 2.84382 -1.54624 0
M  V30 2405 H 226.12 1.4939 -3.42977 0
M  V30 2406 H 227.453 1.98355 -4.50462 0
M  V30 2407 N 229.106 1.52395 0.401703 0
M  V30 2408 C 230.054 1.7689 1.51039 0
M  V30 2409 C 231.048 0.636298 1.56996 0
M  V30 2410 O 232.254 0.818507 1.60314 0
M  V30 2411 H 228.629 0.559502 0.502456 0
M  V30 2412 H 230.6 2.69757 1.27568 0
M  V30 2413 C 229.349 1.94331 2.88324 0
M  V30 2414 H 228.672 2.80905 2.84486 0
M  V30 2415 H 230.112 2.15466 3.65172 0
M  V30 2416 C 228.571 0.712396 3.29282 0
M  V30 2417 O 229.101 -0.116218 4.01532 0
M  V30 2418 N 227.307 0.546154 2.85422 0
M  V30 2419 H 226.854 1.22156 2.26794 0
M  V30 2420 H 226.812 -0.276113 3.13185 0
M  V30 2421 N 230.584 -0.659388 1.43143 0
M  V30 2422 C 231.831 -1.41935 1.44433 0
M  V30 2423 C 232.159 -1.94387 0.0663522 0
M  V30 2424 O 231.414 -1.72314 -0.927706 0
M  V30 2425 C 231.713 -2.62206 2.42864 0
M  V30 2426 C 231.379 -2.28208 3.88886 0
M  V30 2427 C 230.041 -2.18647 4.28657 0
M  V30 2428 C 232.393 -2.00887 4.8093 0
M  V30 2429 C 229.721 -1.79914 5.58433 0
M  V30 2430 C 232.073 -1.63653 6.11065 0
M  V30 2431 C 230.737 -1.52614 6.49819 0
M  V30 2432 H 230.007 -0.519376 0.528517 0
M  V30 2433 H 232.654 -0.750453 1.76183 0
M  V30 2434 H 230.959 -3.34199 2.04495 0
M  V30 2435 H 232.656 -3.2041 2.41119 0
M  V30 2436 H 229.246 -2.36557 3.57406 0
M  V30 2437 H 233.43 -2.07198 4.5098 0
M  V30 2438 H 228.686 -1.69948 5.87305 0
M  V30 2439 H 232.86 -1.41543 6.81864 0
M  V30 2440 H 230.487 -1.22371 7.50286 0
M  V30 2441 N 232.062 -1.29571 -0.897171 0
M  V30 2442 C 233.302 -1.18959 -1.66217 0
M  V30 2443 C 233.666 0.254271 -1.90309 0
M  V30 2444 O 234.867 0.483407 -2.64417 0
M  V30 2445 C 233.138 -1.98302 -2.9734 0
M  V30 2446 S 234.697 -2.04253 -3.88364 0
M  V30 2447 H 231.515 -0.424137 -0.570639 0
M  V30 2448 H 234.117 -1.6389 -1.06585 0
M  V30 2449 H 232.821 -3.02342 -2.77521 0
M  V30 2450 H 232.352 -1.53986 -3.62011 0
M  V30 2451 H 234.367 -1.16105 -4.82425 0
M  V30 2452 N 233.54 1.10788 -1.12088 0
M  V30 2453 C 234.956 1.34691 -0.856186 0
M  V30 2454 C 235.156 1.94791 0.515615 0
M  V30 2455 O 234.212 2.18524 1.26505 0
M  V30 2456 C 235.525 2.27208 -1.9697 0
M  V30 2457 C 237.073 2.40755 -2.00016 0
M  V30 2458 C 237.548 3.36598 -3.1059 0
M  V30 2459 N 239.039 3.44164 -3.10008 0
M  V30 2460 C 239.774 4.18284 -3.92206 0
M  V30 2461 N 239.27 4.95322 -4.84384 0
M  V30 2462 N 241.063 4.13865 -3.80357 0
M  V30 2463 H 233.214 0.70144 -2.00483 0
M  V30 2464 H 235.477 0.371405 -0.872217 0
M  V30 2465 H 235.183 1.90251 -2.958 0
M  V30 2466 H 235.057 3.27485 -1.87172 0
M  V30 2467 H 237.444 2.76982 -1.01808 0
M  V30 2468 H 237.525 1.40305 -2.13888 0
M  V30 2469 H 237.169 3.01096 -4.09028 0
M  V30 2470 H 237.099 4.36918 -2.93956 0
M  V30 2471 H 239.59 2.8922 -2.43228 0
M  V30 2472 H 239.903 5.49267 -5.43623 0
M  V30 2473 H 238.248 4.94459 -4.884 0
M  V30 2474 H 241.439 3.52773 -3.07683 0
M  V30 2475 H 241.612 4.71372 -4.44649 0
M  V30 2476 N 235.018 0.912232 1.28515 0
M  V30 2477 C 235.966 0.389597 2.29314 0
M  V30 2478 C 236.96 -0.517915 1.61289 0
M  V30 2479 O 238.166 -0.399328 1.75515 0
M  V30 2480 H 234.541 0.107386 0.744293 0
M  V30 2481 H 236.512 1.25286 2.70825 0
M  V30 2482 C 235.261 -0.356496 3.45868 0
M  V30 2483 H 234.584 0.332608 3.98414 0
M  V30 2484 H 236.024 -0.686851 4.184 0
M  V30 2485 C 234.483 -1.56383 2.98406 0
M  V30 2486 O 235.013 -2.66294 3.00749 0
M  V30 2487 N 233.219 -1.41029 2.54085 0
M  V30 2488 H 232.766 -0.516089 2.52377 0
M  V30 2489 H 232.724 -2.21939 2.22689 0
M  V30 2490 N 236.496 -1.42363 0.676048 0
M  V30 2491 C 237.907 -1.84649 0.275948 0
M  V30 2492 C 238.258 -1.56588 -1.18214 0
M  V30 2493 O 237.383 -1.02634 -1.90513 0
M  V30 2494 C 237.978 -3.35178 0.494053 0
M  V30 2495 C 236.537 -3.76109 0.148061 0
M  V30 2496 C 235.684 -2.65931 0.785891 0
M  V30 2497 H 238.635 -1.32192 0.878121 0
M  V30 2498 H 238.656 -3.79655 -0.25343 0
M  V30 2499 H 238.168 -3.55571 1.55535 0
M  V30 2500 H 236.269 -3.61323 -0.909742 0
M  V30 2501 H 236.382 -4.7546 0.589454 0
M  V30 2502 H 234.746 -2.53773 0.217113 0
M  V30 2503 H 235.529 -2.89146 1.85067 0
M  V30 2504 N 237.974 -0.419461 -1.51915 0
M  V30 2505 C 239.251 0.211999 -1.94448 0
M  V30 2506 C 239.631 1.61703 -1.35703 0
M  V30 2507 O 238.979 2.22102 -0.536931 0
M  V30 2508 C 239.189 0.207872 -3.4838 0
M  V30 2509 C 240.537 0.422192 -4.22496 0
M  V30 2510 O 241.561 0.286778 -3.55044 0
M  V30 2511 O 240.42 0.690009 -5.42126 0
M  V30 2512 H 237.514 0.139586 -0.815135 0
M  V30 2513 H 240.06 -0.476151 -1.62883 0
M  V30 2514 H 238.832 -0.775102 -3.83546 0
M  V30 2515 H 238.455 0.939688 -3.86336 0
M  V30 2516 N 239.452 1.56882 -0.150215 0
M  V30 2517 C 240.7 1.9584 0.499105 0
M  V30 2518 C 241.021 1.03623 1.65188 0
M  V30 2519 O 240.291 0.0984084 1.95653 0
M  V30 2520 H 238.871 0.723119 0.187373 0
M  V30 2521 H 241.533 1.9358 -0.226466 0
M  V30 2522 H 240.629 2.99638 0.873122 0
M  V30 2523 N 240.93 -0.123565 1.57115 0
M  V30 2524 C 242.155 -0.850398 1.89164 0
M  V30 2525 C 242.58 -1.7286 0.741688 0
M  V30 2526 O 241.938 -1.78665 -0.307958 0
M  V30 2527 C 241.986 -1.66353 3.19936 0
M  V30 2528 O 241.09 -2.77004 3.0552 0
M  V30 2529 H 240.431 -0.235454 0.620852 0
M  V30 2530 H 242.961 -0.107335 2.04318 0
M  V30 2531 H 242.971 -2.05372 3.52543 0
M  V30 2532 H 241.646 -1.01881 4.03228 0
M  V30 2533 H 240.223 -2.41221 2.84371 0
M  V30 2534 N 242.408 -1.52605 -0.393616 0
M  V30 2535 C 243.657 -1.66649 -1.13627 0
M  V30 2536 C 243.97 -0.410364 -1.91247 0
M  V30 2537 O 245.176 -0.430854 -2.68059 0
M  V30 2538 C 243.632 -2.9449 -2.06891 0
M  V30 2539 C 243.24 -4.27266 -1.34714 0
M  V30 2540 C 244.984 -3.17899 -2.81319 0
M  V30 2541 C 242.891 -5.46217 -2.26717 0
M  V30 2542 H 241.821 -0.62084 -0.427871 0
M  V30 2543 H 244.472 -1.791 -0.399428 0
M  V30 2544 H 242.854 -2.75774 -2.84191 0
M  V30 2545 H 244.028 -4.56518 -0.626714 0
M  V30 2546 H 242.343 -4.10081 -0.722643 0
M  V30 2547 H 244.94 -4.03949 -3.50328 0
M  V30 2548 H 245.283 -2.32777 -3.45139 0
M  V30 2549 H 245.816 -3.37159 -2.11113 0
M  V30 2550 H 242.555 -6.33733 -1.67521 0
M  V30 2551 H 242.075 -5.21283 -2.96689 0
M  V30 2552 H 243.754 -5.7991 -2.86903 0
M  V30 2553 N 243.887 0.651787 -1.4349 0
M  V30 2554 C 245.115 1.43937 -1.48626 0
M  V30 2555 C 245.53 1.8851 -0.104587 0
M  V30 2556 O 244.887 1.5958 0.885464 0
M  V30 2557 C 244.938 2.6734 -2.43334 0
M  V30 2558 O 244.659 2.24631 -3.76128 0
M  V30 2559 C 246.16 3.60683 -2.57726 0
M  V30 2560 H 243.38 0.44213 -0.504739 0
M  V30 2561 H 245.924 0.798944 -1.88248 0
M  V30 2562 H 244.079 3.2752 -2.06904 0
M  V30 2563 H 244.493 3.04485 -4.2707 0
M  V30 2564 H 245.967 4.43933 -3.28067 0
M  V30 2565 H 246.444 4.08126 -1.62265 0
M  V30 2566 H 247.05 3.06384 -2.94973 0
M  V30 2567 N 245.365 1.30045 0.890287 0
M  V30 2568 C 246.613 1.18327 1.63839 0
M  V30 2569 C 246.934 -0.263455 1.93212 0
M  V30 2570 O 246.204 -1.17856 1.56482 0
M  V30 2571 H 244.784 0.434933 0.607324 0
M  V30 2572 H 247.446 1.631 1.06698 0
M  V30 2573 H 246.542 1.74024 2.59079 0
M  V30 2574 N 246.843 -1.10192 1.12674 0
M  V30 2575 C 248.254 -1.63707 0.897604 0
M  V30 2576 C 248.605 -1.87812 -0.567546 0
M  V30 2577 O 247.73 -1.62196 -1.43253 0
M  V30 2578 C 248.325 -2.974 1.62292 0
M  V30 2579 C 246.884 -3.47772 1.43986 0
M  V30 2580 C 246.031 -2.22332 1.65722 0
M  V30 2581 H 248.982 -0.936587 1.28116 0
M  V30 2582 H 249.003 -3.64986 1.07541 0
M  V30 2583 H 248.515 -2.79824 2.68924 0
M  V30 2584 H 246.616 -3.70487 0.396206 0
M  V30 2585 H 246.729 -4.25723 2.19765 0
M  V30 2586 H 245.093 -2.30599 1.08149 0
M  V30 2587 H 245.876 -2.07285 2.73657 0
M  V30 2588 N 248.321 -0.919034 -1.28029 0
M  V30 2589 C 249.567 -0.565221 -1.95389 0
M  V30 2590 C 249.922 0.882325 -1.70976 0
M  V30 2591 O 249.215 1.61988 -1.02325 0
M  V30 2592 C 249.409 -0.816855 -3.4794 0
M  V30 2593 C 249.238 -2.28731 -3.87185 0
M  V30 2594 C 248.008 -2.93841 -4.11079 0
M  V30 2595 C 250.206 -3.26415 -3.97439 0
M  V30 2596 N 248.188 -4.31129 -4.37037 0
M  V30 2597 C 249.559 -4.48884 -4.27672 0
M  V30 2598 C 251.614 -3.21742 -3.79982 0
M  V30 2599 C 250.317 -5.67268 -4.42266 0
M  V30 2600 C 252.343 -4.39431 -3.95796 0
M  V30 2601 C 251.705 -5.60675 -4.26407 0
M  V30 2602 H 247.804 -0.256797 -0.738633 0
M  V30 2603 H 250.388 -1.18386 -1.54573 0
M  V30 2604 H 248.559 -0.227445 -3.87733 0
M  V30 2605 H 250.291 -0.426542 -4.02446 0
M  V30 2606 H 247.046 -2.44547 -4.05578 0
M  V30 2607 H 247.47 -5.02127 -4.5409 0
M  V30 2608 H 252.112 -2.29079 -3.55363 0
M  V30 2609 H 249.83 -6.60406 -4.65714 0
M  V30 2610 H 253.416 -4.37323 -3.83719 0
M  V30 2611 H 252.296 -6.50223 -4.38383 0
M  V30 2612 N 249.799 1.42003 -0.683588 0
M  V30 2613 C 251.039 2.03282 -0.213513 0
M  V30 2614 C 251.403 1.52924 1.16097 0
M  V30 2615 O 252.604 2.06048 1.7262 0
M  V30 2616 C 250.875 3.56483 -0.255856 0
M  V30 2617 S 252.434 4.3857 0.14193 0
M  V30 2618 H 249.252 0.705659 -0.0869853 0
M  V30 2619 H 251.854 1.73619 -0.8987 0
M  V30 2620 H 250.558 3.90631 -1.25841 0
M  V30 2621 H 250.089 3.90831 0.448875 0
M  V30 2622 H 252.104 4.76828 1.37295 0
M  V30 2623 N 251.277 0.427512 1.51691 0
M  V30 2624 C 252.507 -0.140986 2.06118 0
M  V30 2625 C 252.915 -1.37854 1.29588 0
M  V30 2626 O 252.258 -1.80411 0.346036 0
M  V30 2627 C 252.32 -0.538276 3.55447 0
M  V30 2628 C 251.984 0.591095 4.53161 0
M  V30 2629 C 252.981 1.46027 4.98971 0
M  V30 2630 C 250.666 0.769028 4.96378 0
M  V30 2631 C 252.66 2.49216 5.8666 0
M  V30 2632 C 250.347 1.80421 5.83859 0
M  V30 2633 C 251.345 2.66417 6.28897 0
M  V30 2634 O 251.033 3.68159 7.14643 0
M  V30 2635 H 250.765 -0.0157455 0.675817 0
M  V30 2636 H 253.319 0.602495 1.96365 0
M  V30 2637 H 251.549 -1.33432 3.6295 0
M  V30 2638 H 253.238 -1.0368 3.92435 0
M  V30 2639 H 254.004 1.33429 4.66285 0
M  V30 2640 H 249.883 0.109273 4.6087 0
M  V30 2641 H 253.427 3.16372 6.21735 0
M  V30 2642 H 249.324 1.93042 6.15959 0
M  V30 2643 H 250.092 3.64622 7.32798 0
M  V30 2644 N 252.755 -1.56801 0.158532 0
M  V30 2645 C 253.983 -2.00859 -0.496303 0
M  V30 2646 C 254.398 -1.03871 -1.57659 0
M  V30 2647 O 253.755 -0.0375165 -1.82461 0
M  V30 2648 C 253.806 -3.4479 -1.08638 0
M  V30 2649 O 253.527 -4.38072 -0.0492322 0
M  V30 2650 C 255.028 -4.04185 -1.8207 0
M  V30 2651 H 252.248 -0.65864 -0.128199 0
M  V30 2652 H 254.792 -2.02885 0.256506 0
M  V30 2653 H 252.947 -3.43579 -1.78975 0
M  V30 2654 H 253.361 -5.2227 -0.483102 0
M  V30 2655 H 254.835 -5.06857 -2.18633 0
M  V30 2656 H 255.312 -3.45549 -2.71095 0
M  V30 2657 H 255.918 -4.0906 -1.16405 0
M  V30 2658 N 254.233 0.115231 -1.57178 0
M  V30 2659 C 255.461 0.836437 -1.89239 0
M  V30 2660 C 255.876 1.73256 -0.750175 0
M  V30 2661 O 255.233 1.80357 0.278832 0
M  V30 2662 C 255.284 1.66671 -3.20785 0
M  V30 2663 O 255.005 0.806652 -4.3061 0
M  V30 2664 C 256.506 2.49274 -3.66575 0
M  V30 2665 H 253.726 0.240253 -0.626514 0
M  V30 2666 H 256.27 0.0984932 -2.04263 0
M  V30 2667 H 254.425 2.35737 -3.0742 0
M  V30 2668 H 254.839 1.37969 -5.06028 0
M  V30 2669 H 256.313 3.03055 -4.6137 0
M  V30 2670 H 256.79 3.26807 -2.93417 0
M  V30 2671 H 257.396 1.85443 -3.82741 0
M  V30 2672 N 255.711 1.52812 0.385517 0
M  V30 2673 C 256.936 1.72207 1.15583 0
M  V30 2674 C 257.361 0.441034 1.82857 0
M  V30 2675 O 256.719 -0.603465 1.70962 0
M  V30 2676 C 256.767 2.87476 2.17692 0
M  V30 2677 O 255.871 2.54693 3.24354 0
M  V30 2678 H 255.212 0.572526 0.336319 0
M  V30 2679 H 257.742 1.99618 0.448744 0
M  V30 2680 H 257.752 3.13072 2.6163 0
M  V30 2681 H 256.427 3.80408 1.68115 0
M  V30 2682 H 255.004 2.3985 2.85529 0
M  V30 2683 N 257.189 -0.644168 1.43834 0
M  V30 2684 C 258.6 -1.22554 1.40845 0
M  V30 2685 C 258.951 -1.9585 0.117115 0
M  V30 2686 O 258.076 -2.01734 -0.783086 0
M  V30 2687 C 258.671 -2.22907 2.55143 0
M  V30 2688 C 257.23 -2.76501 2.5539 0
M  V30 2689 C 256.377 -1.51287 2.32396 0
M  V30 2690 H 259.328 -0.43563 1.52604 0
M  V30 2691 H 259.349 -3.05259 2.2715 0
M  V30 2692 H 258.861 -1.69533 3.49114 0
M  V30 2693 H 256.962 -3.33914 1.65324 0
M  V30 2694 H 257.075 -3.23429 3.53455 0
M  V30 2695 H 255.439 -1.78957 1.81236 0
M  V30 2696 H 256.222 -0.998336 3.28463 0
M  V30 2697 N 258.668 -1.30515 -0.883378 0
M  V30 2698 C 259.896 -1.22359 -1.66841 0
M  V30 2699 C 260.311 0.213296 -1.87591 0
M  V30 2700 O 259.668 1.14075 -1.42454 0
M  V30 2701 C 259.719 -1.95011 -3.04389 0
M  V30 2702 O 259.44 -3.3309 -2.84575 0
M  V30 2703 C 260.941 -1.93532 -3.98824 0
M  V30 2704 H 258.161 -0.423371 -0.520575 0
M  V30 2705 H 260.705 -1.72167 -1.10357 0
M  V30 2706 H 258.86 -1.48997 -3.57601 0
M  V30 2707 H 259.274 -3.69907 -3.71846 0
M  V30 2708 H 260.748 -2.48902 -4.92699 0
M  V30 2709 H 261.225 -0.914627 -4.29571 0
M  V30 2710 H 261.831 -2.39364 -3.51547 0
M  V30 2711 N 260.146 1.09593 -1.13257 0
M  V30 2712 C 261.076 2.18214 -0.830946 0
M  V30 2713 C 262.057 1.68812 0.208966 0
M  V30 2714 O 263.242 1.9408 0.0682666 0
M  V30 2715 C 260.372 3.46051 -0.294296 0
M  V30 2716 C 259.326 4.08778 -1.26826 0
M  V30 2717 C 258.652 5.31419 -0.591449 0
M  V30 2718 C 259.952 4.51476 -2.62615 0
M  V30 2719 H 261.646 2.43703 -1.73923 0
M  V30 2720 H 259.192 1.17128 -0.837675 0
M  V30 2721 H 261.145 4.2134 -0.0709606 0
M  V30 2722 H 259.869 3.20079 0.649366 0
M  V30 2723 H 258.528 3.35505 -1.47756 0
M  V30 2724 H 258.176 5.01727 0.357633 0
M  V30 2725 H 257.876 5.74341 -1.24123 0
M  V30 2726 H 259.4 6.09433 -0.377355 0
M  V30 2727 H 260.814 5.17999 -2.45663 0
M  V30 2728 H 259.211 5.05277 -3.23752 0
M  V30 2729 H 260.281 3.63962 -3.20406 0
M  V30 2730 N 261.624 0.925811 1.2754 0
M  V30 2731 C 263.04 0.625767 1.46821 0
M  V30 2732 C 263.24 -0.825506 1.83814 0
M  V30 2733 O 262.296 -1.60356 1.95044 0
M  V30 2734 C 263.609 1.57402 2.56213 0
M  V30 2735 C 265.157 1.58204 2.70075 0
M  V30 2736 C 265.632 2.51721 3.82623 0
M  V30 2737 N 267.123 2.49917 3.89994 0
M  V30 2738 C 267.858 3.18968 4.76494 0
M  V30 2739 N 267.354 3.97391 5.67496 0
M  V30 2740 N 269.147 3.07996 4.70208 0
M  V30 2741 H 261.298 1.86409 1.01811 0
M  V30 2742 H 263.561 0.800213 0.508295 0
M  V30 2743 H 263.267 2.60925 2.35819 0
M  V30 2744 H 263.141 1.31428 3.53563 0
M  V30 2745 H 265.528 0.554124 2.89851 0
M  V30 2746 H 265.609 1.88226 1.73218 0
M  V30 2747 H 265.253 3.54622 3.63601 0
M  V30 2748 H 265.183 2.18996 4.78903 0
M  V30 2749 H 267.674 1.9296 3.24923 0
M  V30 2750 H 267.987 4.4707 6.30356 0
M  V30 2751 H 266.332 4.01495 5.67298 0
M  V30 2752 H 269.523 2.46223 3.9811 0
M  V30 2753 H 269.696 3.6208 5.37403 0
M  V30 2754 N 263.102 -1.41638 0.69111 0
M  V30 2755 C 264.518 -1.55435 0.362224 0
M  V30 2756 C 264.718 -1.66754 -1.13117 0
M  V30 2757 O 263.774 -1.64348 -1.91692 0
M  V30 2758 C 265.087 -2.79588 1.10684 0
M  V30 2759 C 266.635 -2.9338 1.09075 0
M  V30 2760 C 267.11 -4.20414 1.81703 0
M  V30 2761 N 268.601 -4.27362 1.7865 0
M  V30 2762 C 269.336 -5.24507 2.31689 0
M  V30 2763 N 268.832 -6.27708 2.93179 0
M  V30 2764 N 270.625 -5.16416 2.2197 0
M  V30 2765 H 262.776 -1.32536 1.65976 0
M  V30 2766 H 265.039 -0.639115 0.700168 0
M  V30 2767 H 264.745 -2.77419 2.16175 0
M  V30 2768 H 264.619 -3.70973 0.682545 0
M  V30 2769 H 267.006 -2.95067 0.0441238 0
M  V30 2770 H 267.087 -2.0318 1.55407 0
M  V30 2771 H 266.731 -4.19488 2.86343 0
M  V30 2772 H 266.661 -5.09578 1.32808 0
M  V30 2773 H 269.152 -3.53415 1.33815 0
M  V30 2774 H 269.465 -6.98217 3.31229 0
M  V30 2775 H 267.81 -6.28223 2.97255 0
M  V30 2776 H 271.001 -4.34716 1.73607 0
M  V30 2777 H 271.174 -5.91958 2.63609 0
M  V30 2778 N 264.58 -0.43555 -1.51462 0
M  V30 2779 C 265.49 0.383001 -2.31453 0
M  V30 2780 C 266.506 1.02931 -1.4029 0
M  V30 2781 O 267.682 1.02507 -1.73362 0
M  V30 2782 C 264.747 1.47043 -3.13973 0
M  V30 2783 C 263.808 0.844433 -4.20913 0
M  V30 2784 C 263.041 1.88004 -4.9949 0
M  V30 2785 O 263.264 3.10199 -4.78678 0
M  V30 2786 O 262.198 1.47157 -5.83634 0
M  V30 2787 H 266.024 -0.269964 -3.02498 0
M  V30 2788 H 263.609 -0.19813 -1.4808 0
M  V30 2789 H 265.491 2.10113 -3.65281 0
M  V30 2790 H 264.166 2.10751 -2.45695 0
M  V30 2791 H 263.073 0.175729 -3.73687 0
M  V30 2792 H 264.406 0.250869 -4.9156 0
M  V30 2793 N 266.058 1.56714 -0.166846 0
M  V30 2794 C 266.968 2.21331 0.777791 0
M  V30 2795 C 267.984 1.20358 1.25658 0
M  V30 2796 O 269.16 1.53005 1.30964 0
M  V30 2797 C 266.225 2.83787 1.99163 0
M  V30 2798 C 265.286 3.99947 1.56016 0
M  V30 2799 C 264.519 4.59415 2.71613 0
M  V30 2800 O 264.742 4.17769 3.88362 0
M  V30 2801 O 263.676 5.49359 2.45945 0
M  V30 2802 H 267.502 3.02605 0.257636 0
M  V30 2803 H 265.087 1.49275 0.0611393 0
M  V30 2804 H 266.969 3.23405 2.70161 0
M  V30 2805 H 265.644 2.05513 2.50092 0
M  V30 2806 H 264.551 3.65007 0.819809 0
M  V30 2807 H 265.884 4.79801 1.09782 0
M  V30 2808 N 267.536 -0.106894 1.57237 0
M  V30 2809 C 268.776 -0.818277 1.87306 0
M  V30 2810 C 269.14 -1.76474 0.756371 0
M  V30 2811 O 270.341 -2.5186 0.939155 0
M  V30 2812 C 268.612 -1.53806 3.22612 0
M  V30 2813 S 270.171 -2.28935 3.74345 0
M  V30 2814 H 266.989 -0.272862 0.656557 0
M  V30 2815 H 269.591 -0.075988 1.95352 0
M  V30 2816 H 268.295 -0.834951 4.01817 0
M  V30 2817 H 267.826 -2.32049 3.17674 0
M  V30 2818 H 269.841 -3.54871 3.46815 0
M  V30 2819 N 269.014 -1.53014 -0.377408 0
M  V30 2820 C 270.239 -1.72818 -1.14668 0
M  V30 2821 C 270.664 -0.450725 -1.8262 0
M  V30 2822 O 270.022 0.59439 -1.7128 0
M  V30 2823 C 270.07 -2.88627 -2.16164 0
M  V30 2824 O 269.174 -2.56409 -3.22998 0
M  V30 2825 H 268.515 -0.574301 -0.333278 0
M  V30 2826 H 271.045 -1.99853 -0.438152 0
M  V30 2827 H 271.055 -3.14455 -2.59966 0
M  V30 2828 H 269.73 -3.81294 -1.66095 0
M  V30 2829 H 268.307 -2.4136 -2.84253 0
M  V30 2830 N 270.492 0.636531 -1.44174 0
M  V30 2831 C 271.738 1.39826 -1.4689 0
M  V30 2832 C 272.071 1.93947 -0.0990585 0
M  V30 2833 O 271.346 1.73325 0.882544 0
M  V30 2834 C 271.629 2.56751 -2.5249 0
M  V30 2835 C 271.482 2.08014 -3.98811 0
M  V30 2836 C 272.801 3.58946 -2.54649 0
M  V30 2837 H 269.92 0.507075 -0.53483 0
M  V30 2838 H 272.562 0.720188 -1.75822 0
M  V30 2839 H 270.712 3.14597 -2.2795 0
M  V30 2840 H 272.384 1.5504 -4.34466 0
M  V30 2841 H 270.627 1.39242 -4.10846 0
M  V30 2842 H 271.298 2.92169 -4.68339 0
M  V30 2843 H 273.774 3.1089 -2.76563 0
M  V30 2844 H 272.65 4.38286 -3.3045 0
M  V30 2845 H 272.911 4.12655 -1.58646 0
M  V30 2846 N 271.97 1.30982 0.876444 0
M  V30 2847 C 273.381 1.18277 1.44456 0
M  V30 2848 C 273.732 -0.213265 1.95037 0
M  V30 2849 O 272.857 -1.11057 1.85729 0
M  V30 2850 C 273.452 2.1411 2.62569 0
M  V30 2851 C 272.011 2.05358 3.15444 0
M  V30 2852 C 271.158 2.03706 1.88146 0
M  V30 2853 H 274.109 1.43127 0.685584 0
M  V30 2854 H 274.13 1.72692 3.39054 0
M  V30 2855 H 273.642 3.15706 2.25724 0
M  V30 2856 H 271.743 1.06934 3.56926 0
M  V30 2857 H 271.856 2.94156 3.78166 0
M  V30 2858 H 270.22 1.48629 2.06837 0
M  V30 2859 H 271.003 3.07047 1.53547 0
M  V30 2860 N 273.449 -1.08991 1.13837 0
M  V30 2861 C 274.695 -1.81526 0.90422 0
M  V30 2862 C 275.028 -1.85706 -0.568066 0
M  V30 2863 O 274.303 -1.32855 -1.42056 0
M  V30 2864 C 274.586 -3.27447 1.49835 0
M  V30 2865 C 274.439 -3.31512 3.04006 0
M  V30 2866 C 275.758 -4.24256 1.17025 0
M  V30 2867 H 272.877 -0.659029 0.329923 0
M  V30 2868 H 275.519 -1.27644 1.40737 0
M  V30 2869 H 273.669 -3.73462 1.07044 0
M  V30 2870 H 275.341 -2.93867 3.55584 0
M  V30 2871 H 273.584 -2.70963 3.38765 0
M  V30 2872 H 274.255 -4.34329 3.40679 0
M  V30 2873 H 276.731 -3.86549 1.54009 0
M  V30 2874 H 275.607 -5.24684 1.61237 0
M  V30 2875 H 275.868 -4.42019 0.0846274 0
M  V30 2876 N 274.927 -0.932562 -1.27047 0
M  V30 2877 C 276.167 -0.582919 -1.95912 0
M  V30 2878 C 276.531 0.860629 -1.71631 0
M  V30 2879 O 277.732 1.31878 -2.34225 0
M  V30 2880 C 276.003 -0.905673 -3.45734 0
M  V30 2881 S 277.562 -0.665277 -4.33727 0
M  V30 2882 H 274.38 -0.215 -0.677714 0
M  V30 2883 H 276.982 -1.20204 -1.54179 0
M  V30 2884 H 275.686 -1.95386 -3.60905 0
M  V30 2885 H 275.217 -0.275939 -3.92431 0
M  V30 2886 H 277.232 0.474635 -4.93925 0
M  V30 2887 N 276.405 1.4127 -0.698611 0
M  V30 2888 C 277.653 2.00782 -0.230409 0
M  V30 2889 C 277.974 1.5562 1.17505 0
M  V30 2890 O 277.244 0.78815 1.79346 0
M  V30 2891 H 275.824 0.742464 -0.0821944 0
M  V30 2892 H 278.486 1.72852 -0.90045 0
M  V30 2893 H 277.582 3.11095 -0.25021 0
M  V30 2894 N 277.883 0.443576 1.51229 0
M  V30 2895 C 278.815 -0.400608 2.25672 0
M  V30 2896 C 279.828 -0.980945 1.29928 0
M  V30 2897 O 281.017 -0.874024 1.55638 0
M  V30 2898 C 278.117 -1.57304 3.00181 0
M  V30 2899 C 277.29 -1.11046 4.23069 0
M  V30 2900 C 276.349 -2.15374 4.80105 0
M  V30 2901 O 275.375 -1.74554 5.41774 0
M  V30 2902 N 276.577 -3.47922 4.64683 0
M  V30 2903 H 279.342 0.23745 2.98758 0
M  V30 2904 H 276.903 0.272809 1.59585 0
M  V30 2905 H 278.895 -2.26733 3.35223 0
M  V30 2906 H 277.465 -2.11632 2.30066 0
M  V30 2907 H 276.685 -0.243019 3.9345 0
M  V30 2908 H 277.973 -0.778888 5.02803 0
M  V30 2909 H 277.371 -3.83815 4.15575 0
M  V30 2910 H 275.928 -4.13228 5.0407 0
M  V30 2911 N 279.361 -1.56624 0.175154 0
M  V30 2912 C 280.638 -1.88688 -0.515373 0
M  V30 2913 C 281.018 -1.08564 -1.81044 0
M  V30 2914 O 280.366 -0.180703 -2.27784 0
M  V30 2915 C 280.576 -3.40768 -0.753552 0
M  V30 2916 C 281.924 -4.10587 -1.08184 0
M  V30 2917 O 282.948 -3.46106 -0.841961 0
M  V30 2918 O 281.807 -5.24512 -1.53459 0
M  V30 2919 H 278.901 -0.78301 -0.26613 0
M  V30 2920 H 281.447 -1.68347 0.213877 0
M  V30 2921 H 280.219 -3.90965 0.161829 0
M  V30 2922 H 279.842 -3.66733 -1.53598 0
M  V30 2923 N 280.839 0.0985539 -1.57292 0
M  V30 2924 C 282.255 0.45267 -1.53046 0
M  V30 2925 C 282.455 1.80713 -0.891342 0
M  V30 2926 O 281.511 2.4785 -0.482375 0
M  V30 2927 C 282.824 0.418341 -2.97776 0
M  V30 2928 C 284.372 0.500443 -3.08973 0
M  V30 2929 C 284.847 0.496297 -4.55303 0
M  V30 2930 N 286.338 0.557151 -4.59837 0
M  V30 2931 C 287.073 0.575726 -5.70502 0
M  V30 2932 N 286.569 0.550714 -6.90608 0
M  V30 2933 N 288.362 0.620277 -5.58667 0
M  V30 2934 H 280.513 -0.788673 -1.97215 0
M  V30 2935 H 282.776 -0.293188 -0.901524 0
M  V30 2936 H 282.482 -0.509659 -3.47988 0
M  V30 2937 H 282.356 1.2386 -3.56284 0
M  V30 2938 H 284.743 1.41886 -2.58751 0
M  V30 2939 H 284.824 -0.347894 -2.53423 0
M  V30 2940 H 284.468 -0.418162 -5.06176 0
M  V30 2941 H 284.398 1.3618 -5.08687 0
M  V30 2942 H 286.889 0.581816 -3.73394 0
M  V30 2943 H 287.202 0.568075 -7.70709 0
M  V30 2944 H 285.547 0.517816 -6.93068 0
M  V30 2945 H 288.738 0.637322 -4.63741 0
M  V30 2946 H 288.911 0.631283 -6.44918 0
M  V30 2947 N 282.317 1.53212 0.369288 0
M  V30 2948 C 283.563 1.69466 1.11397 0
M  V30 2949 C 283.896 0.443257 1.89074 0
M  V30 2950 O 283.171 -0.559386 1.86282 0
M  V30 2951 C 283.454 2.9422 2.07621 0
M  V30 2952 C 283.307 4.29508 1.33577 0
M  V30 2953 C 284.626 3.14565 3.07794 0
M  V30 2954 H 281.745 0.616667 0.403597 0
M  V30 2955 H 284.387 1.85845 0.395179 0
M  V30 2956 H 282.537 2.80387 2.68916 0
M  V30 2957 H 284.209 4.55147 0.750955 0
M  V30 2958 H 282.452 4.29088 0.637618 0
M  V30 2959 H 283.123 5.12926 2.03989 0
M  V30 2960 H 285.599 3.2756 2.56601 0
M  V30 2961 H 284.475 4.03297 3.72348 0
M  V30 2962 H 284.736 2.29675 3.77759 0
M  V30 2963 N 283.795 -0.628877 1.44509 0
M  V30 2964 C 285.023 -1.41554 1.50897 0
M  V30 2965 C 285.438 -1.8832 0.134564 0
M  V30 2966 O 284.795 -1.60969 -0.859965 0
M  V30 2967 C 284.846 -2.63435 2.47556 0
M  V30 2968 O 284.567 -2.18619 3.79654 0
M  V30 2969 C 286.068 -3.56537 2.63431 0
M  V30 2970 H 283.288 -0.434044 0.511709 0
M  V30 2971 H 285.832 -0.768895 1.89495 0
M  V30 2972 H 283.987 -3.24187 2.12089 0
M  V30 2973 H 284.401 -2.97652 4.31861 0
M  V30 2974 H 285.875 -4.38657 3.35088 0
M  V30 2975 H 286.352 -4.05493 1.68738 0
M  V30 2976 H 286.958 -3.01653 2.9981 0
M  V30 2977 N 285.273 -1.31445 -0.869486 0
M  V30 2978 C 286.519 -1.21337 -1.62496 0
M  V30 2979 C 286.852 0.227872 -1.92858 0
M  V30 2980 O 286.127 1.16094 -1.56053 0
M  V30 2981 C 286.41 -2.05814 -2.95487 0
M  V30 2982 C 286.263 -3.5824 -2.72 0
M  V30 2983 C 287.582 -1.9079 -3.96594 0
M  V30 2984 H 284.701 -0.442135 -0.589649 0
M  V30 2985 H 287.343 -1.6124 -1.00507 0
M  V30 2986 H 285.493 -1.71913 -3.48394 0
M  V30 2987 H 287.165 -4.0228 -2.25762 0
M  V30 2988 H 285.408 -3.81647 -2.06224 0
M  V30 2989 H 286.079 -4.12657 -3.66631 0
M  V30 2990 H 288.555 -2.20459 -3.52898 0
M  V30 2991 H 287.431 -2.52199 -4.87531 0
M  V30 2992 H 287.692 -0.871341 -4.33428 0
M  V30 2993 N 286.751 1.08385 -1.14413 0
M  V30 2994 C 287.661 2.18856 -0.844951 0
M  V30 2995 C 288.677 1.73121 0.174668 0
M  V30 2996 O 289.853 2.014 0.00312857 0
M  V30 2997 C 286.918 3.45155 -0.32696 0
M  V30 2998 C 285.979 4.05513 -1.40916 0
M  V30 2999 C 285.212 5.25784 -0.915793 0
M  V30 3000 O 285.435 5.69884 0.242651 0
M  V30 3001 O 284.369 5.77545 -1.69487 0
M  V30 3002 H 288.195 2.46919 -1.76818 0
M  V30 3003 H 285.78 1.17524 -0.922411 0
M  V30 3004 H 287.662 4.21377 -0.0440211 0
M  V30 3005 H 286.337 3.18668 0.568539 0
M  V30 3006 H 285.244 3.30879 -1.74556 0
M  V30 3007 H 286.577 4.3625 -2.27919 0
M  V30 3008 N 288.23 0.939286 1.26551 0
M  V30 3009 C 289.476 0.586715 1.94128 0
M  V30 3010 C 289.809 -0.8717 1.73537 0
M  V30 3011 O 289.084 -1.62339 1.07127 0
M  V30 3012 C 289.367 0.927497 3.4795 0
M  V30 3013 C 289.22 2.44052 3.77834 0
M  V30 3014 C 290.539 0.441569 4.37879 0
M  V30 3015 H 287.658 0.21463 0.705055 0
M  V30 3016 H 290.3 1.17316 1.49455 0
M  V30 3017 H 288.45 0.428431 3.8613 0
M  V30 3018 H 290.122 3.01216 3.4938 0
M  V30 3019 H 288.365 2.8848 3.23978 0
M  V30 3020 H 289.036 2.62947 4.85348 0
M  V30 3021 H 291.512 0.869448 4.06915 0
M  V30 3022 H 290.388 0.708856 5.44304 0
M  V30 3023 H 290.649 -0.658467 4.37169 0
M  V30 3024 N 289.708 -1.40897 0.706093 0
M  V30 3025 C 290.957 -2.00284 0.238574 0
M  V30 3026 C 291.27 -1.56604 -1.17194 0
M  V30 3027 O 292.476 -2.08624 -1.73748 0
M  V30 3028 C 290.932 -3.57934 0.375623 0
M  V30 3029 C 290.54 -4.10591 1.79217 0
M  V30 3030 C 292.284 -4.24488 -0.0315857 0
M  V30 3031 C 290.191 -5.60712 1.88032 0
M  V30 3032 H 289.121 -0.749144 0.0854398 0
M  V30 3033 H 291.772 -1.61251 0.875813 0
M  V30 3034 H 290.154 -3.94622 -0.330042 0
M  V30 3035 H 291.328 -3.85301 2.52745 0
M  V30 3036 H 289.643 -3.56601 2.15 0
M  V30 3037 H 292.24 -5.34698 0.0136842 0
M  V30 3038 H 292.583 -4.02261 -1.072 0
M  V30 3039 H 293.116 -3.92873 0.624181 0
M  V30 3040 H 289.855 -5.87781 2.90161 0
M  V30 3041 H 289.375 -5.87896 1.18903 0
M  V30 3042 H 291.054 -6.25658 1.64805 0
M  V30 3043 N 291.186 -0.45159 -1.50991 0
M  V30 3044 C 292.597 0.00818571 -1.86698 0
M  V30 3045 C 292.948 1.40661 -1.3678 0
M  V30 3046 O 292.073 2.0391 -0.724546 0
M  V30 3047 C 292.668 0.0216303 -3.38793 0
M  V30 3048 C 291.227 0.425865 -3.73983 0
M  V30 3049 C 290.374 -0.372163 -2.74791 0
M  V30 3050 H 293.325 -0.666785 -1.44013 0
M  V30 3051 H 293.346 0.828078 -3.7138 0
M  V30 3052 H 292.858 -0.996288 -3.75094 0
M  V30 3053 H 290.959 1.44886 -3.43277 0
M  V30 3054 H 291.072 0.140761 -4.78893 0
M  V30 3055 H 289.436 0.171498 -2.54122 0
M  V30 3056 H 290.219 -1.38922 -3.13935 0
M  V30 3057 N 292.664 1.56529 -0.183458 0
M  V30 3058 C 294.08 1.58664 0.172554 0
M  V30 3059 C 294.28 1.19925 1.61926 0
M  V30 3060 O 293.336 0.916534 2.35278 0
M  V30 3061 C 294.649 3.00463 -0.119262 0
M  V30 3062 C 296.197 3.12945 -0.0584396 0
M  V30 3063 C 296.672 4.56857 -0.323408 0
M  V30 3064 N 298.163 4.62403 -0.271612 0
M  V30 3065 C 298.898 5.71626 -0.450639 0
M  V30 3066 N 298.394 6.89362 -0.689384 0
M  V30 3067 N 300.187 5.60775 -0.385701 0
M  V30 3068 H 292.338 1.79994 -1.12765 0
M  V30 3069 H 294.601 0.834808 -0.449222 0
M  V30 3070 H 294.307 3.33326 -1.12192 0
M  V30 3071 H 294.181 3.72659 0.583544 0
M  V30 3072 H 296.568 2.79902 0.934805 0
M  V30 3073 H 296.649 2.4316 -0.794144 0
M  V30 3074 H 296.293 4.9061 -1.31392 0
M  V30 3075 H 296.223 5.24816 0.43305 0
M  V30 3076 H 298.714 3.77785 -0.0932256 0
M  V30 3077 H 299.027 7.68489 -0.815113 0
M  V30 3078 H 297.372 6.91196 -0.726142 0
M  V30 3079 H 300.563 4.67674 -0.199687 0
M  V30 3080 H 300.736 6.4584 -0.528646 0
M  V30 3081 N 294.142 -0.090211 1.57342 0
M  V30 3082 C 295.367 -0.810082 1.90925 0
M  V30 3083 C 295.792 -1.71248 0.778187 0
M  V30 3084 O 295.15 -1.79278 -0.269991 0
M  V30 3085 C 295.198 -1.59529 3.23393 0
M  V30 3086 O 294.302 -2.70461 3.11327 0
M  V30 3087 H 293.643 -0.222231 0.625707 0
M  V30 3088 H 296.173 -0.0639716 2.045 0
M  V30 3089 H 296.183 -1.97847 3.5682 0
M  V30 3090 H 294.858 -0.933055 4.05299 0
M  V30 3091 H 293.435 -2.35135 2.89423 0
M  V30 3092 N 295.62 -1.53406 -0.361157 0
M  V30 3093 C 296.868 -1.69467 -1.10115 0
M  V30 3094 C 297.189 -0.451352 -1.89705 0
M  V30 3095 O 296.459 0.534636 -1.88463 0
M  V30 3096 H 295.039 -0.624749 -0.409508 0
M  V30 3097 H 297.701 -1.90609 -0.406699 0
M  V30 3098 H 296.797 -2.55774 -1.78847 0
M  V30 3099 N 297.098 0.621204 -1.44841 0
M  V30 3100 C 298.346 1.37783 -1.47852 0
M  V30 3101 C 298.667 1.94653 -0.116224 0
M  V30 3102 O 297.937 1.76367 0.852737 0
M  V30 3103 H 296.517 0.511453 -0.544449 0
M  V30 3104 H 299.179 0.730446 -1.80694 0
M  V30 3105 H 298.275 2.20414 -2.20961 0
M  V30 3106 N 298.576 1.31904 0.862503 0
M  V30 3107 C 299.801 1.25135 1.65397 0
M  V30 3108 C 300.226 -0.179 1.87246 0
M  V30 3109 O 299.584 -1.1277 1.4196 0
M  V30 3110 C 299.632 2.00832 2.99498 0
M  V30 3111 O 298.736 1.35075 3.89652 0
M  V30 3112 H 298.077 0.431655 0.504549 0
M  V30 3113 H 300.607 1.74094 1.07483 0
M  V30 3114 H 300.617 2.10709 3.49379 0
M  V30 3115 H 299.292 3.04847 2.82916 0
M  V30 3116 H 297.869 1.33696 3.48109 0
M  V30 3117 N 300.054 -1.07777 1.14986 0
M  V30 3118 C 301.282 -1.84018 0.945773 0
M  V30 3119 C 301.697 -1.81897 -0.505863 0
M  V30 3120 O 301.054 -1.22726 -1.35072 0
M  V30 3121 C 301.105 -3.31287 1.44677 0
M  V30 3122 O 300.826 -3.33449 2.84154 0
M  V30 3123 C 302.327 -4.24311 1.28355 0
M  V30 3124 H 299.547 -0.580716 0.336169 0
M  V30 3125 H 302.091 -1.36077 1.52654 0
M  V30 3126 H 300.246 -3.76594 0.908625 0
M  V30 3127 H 300.66 -4.25427 3.06777 0
M  V30 3128 H 302.134 -5.2573 1.68261 0
M  V30 3129 H 302.611 -4.38612 0.227184 0
M  V30 3130 H 303.217 -3.84836 1.81056 0
M  V30 3131 N 301.532 -0.945985 -1.26051 0
M  V30 3132 C 302.76 -0.613025 -1.9761 0
M  V30 3133 C 303.175 0.813035 -1.70397 0
M  V30 3134 O 302.532 1.54274 -0.974979 0
M  V30 3135 C 302.583 -0.85159 -3.51326 0
M  V30 3136 O 302.304 -2.22157 -3.77595 0
M  V30 3137 C 303.805 -0.529831 -4.40122 0
M  V30 3138 H 301.025 -0.230593 -0.630133 0
M  V30 3139 H 303.569 -1.268 -1.60443 0
M  V30 3140 H 301.724 -0.243151 -3.86636 0
M  V30 3141 H 302.138 -2.2852 -4.721 0
M  V30 3142 H 303.612 -0.747348 -5.46917 0
M  V30 3143 H 304.089 0.535341 -4.35925 0
M  V30 3144 H 304.695 -1.11721 -4.10364 0
M  V30 3145 N 303.011 1.40521 -0.713556 0
M  V30 3146 C 304.236 2.05759 -0.26035 0
M  V30 3147 C 304.661 1.53403 1.08854 0
M  V30 3148 O 304.019 0.668535 1.68524 0
M  V30 3149 C 304.067 3.59745 -0.248122 0
M  V30 3150 O 303.171 4.05123 0.77131 0
M  V30 3151 H 302.512 0.652564 -0.122703 0
M  V30 3152 H 305.042 1.79958 -0.973467 0
M  V30 3153 H 305.052 4.07911 -0.0851129 0
M  V30 3154 H 303.727 3.97218 -1.2325 0
M  V30 3155 H 302.304 3.68422 0.57619 0
M  V30 3156 N 304.489 0.459591 1.5075 0
M  V30 3157 C 305.421 -0.37665 2.26084 0
M  V30 3158 C 306.434 -0.967109 1.30961 0
M  V30 3159 O 307.623 -0.857468 1.56556 0
M  V30 3160 C 304.723 -1.54112 3.01832 0
M  V30 3161 C 303.896 -1.06553 4.24223 0
M  V30 3162 C 302.955 -2.1027 4.82362 0
M  V30 3163 O 301.981 -1.68798 5.43595 0
M  V30 3164 N 303.183 -3.42974 4.68347 0
M  V30 3165 H 305.948 0.269124 2.98489 0
M  V30 3166 H 303.509 0.28972 1.59287 0
M  V30 3167 H 305.501 -2.23165 3.37608 0
M  V30 3168 H 304.071 -2.0918 2.32298 0
M  V30 3169 H 303.291 -0.201274 3.93686 0
M  V30 3170 H 304.579 -0.725516 5.03601 0
M  V30 3171 H 303.977 -3.79385 4.19623 0
M  V30 3172 H 302.534 -4.07858 5.08424 0
M  V30 3173 N 305.967 -1.56429 0.191757 0
M  V30 3174 C 307.192 -2.02309 -0.456706 0
M  V30 3175 C 307.617 -1.07103 -1.5463 0
M  V30 3176 O 306.975 -0.0539677 -1.8122 0
M  V30 3177 C 307.023 -3.46654 -0.993159 0
M  V30 3178 O 306.127 -3.54559 -2.10622 0
M  V30 3179 H 305.468 -0.655303 -0.107114 0
M  V30 3180 H 307.998 -2.02364 0.301653 0
M  V30 3181 H 308.008 -3.86377 -1.31061 0
M  V30 3182 H 306.683 -4.1544 -0.195504 0
M  V30 3183 H 305.26 -3.26708 -1.79767 0
M  V30 3184 N 307.445 0.0818655 -1.57387 0
M  V30 3185 C 308.856 0.634871 -1.75574 0
M  V30 3186 C 309.207 1.78435 -0.815809 0
M  V30 3187 O 308.332 2.164 0.0025366 0
M  V30 3188 C 308.927 1.15845 -3.18379 0
M  V30 3189 C 307.486 1.65741 -3.37945 0
M  V30 3190 C 306.633 0.572549 -2.71325 0
M  V30 3191 H 309.584 -0.144268 -1.58043 0
M  V30 3192 H 309.605 2.02751 -3.21982 0
M  V30 3193 H 309.117 0.321631 -3.86765 0
M  V30 3194 H 307.218 2.51781 -2.74658 0
M  V30 3195 H 307.331 1.74129 -4.46336 0
M  V30 3196 H 305.695 1.01518 -2.33594 0
M  V30 3197 H 306.478 -0.253918 -3.4236 0
M  V30 3198 N 308.923 1.53595 0.353017 0
M  V30 3199 C 309.853 1.83902 1.43883 0
M  V30 3200 C 310.834 0.693421 1.55324 0
M  V30 3201 O 312.019 0.944452 1.69687 0
M  V30 3202 C 309.149 2.04016 2.8106 0
M  V30 3203 C 308.103 3.19814 2.84434 0
M  V30 3204 C 307.429 3.25244 4.24406 0
M  V30 3205 C 308.729 4.58133 2.50822 0
M  V30 3206 H 310.423 2.74835 1.1877 0
M  V30 3207 H 307.969 1.32242 0.569917 0
M  V30 3208 H 309.922 2.238 3.57059 0
M  V30 3209 H 308.646 1.09804 3.07588 0
M  V30 3210 H 307.305 2.9987 2.10887 0
M  V30 3211 H 306.953 2.28646 4.48029 0
M  V30 3212 H 306.653 4.03054 4.27576 0
M  V30 3213 H 308.177 3.47228 5.0226 0
M  V30 3214 H 309.591 4.77995 3.16534 0
M  V30 3215 H 307.988 5.38276 2.6529 0
M  V30 3216 H 309.058 4.62387 1.46034 0
M  V30 3217 N 310.401 -0.613514 1.45168 0
M  V30 3218 C 311.331 -1.7354 1.56225 0
M  V30 3219 C 312.312 -1.64981 0.41414 0
M  V30 3220 O 313.497 -1.83472 0.636526 0
M  V30 3221 C 310.627 -3.12128 1.52295 0
M  V30 3222 C 309.581 -3.35491 2.65762 0
M  V30 3223 C 308.907 -4.74291 2.46885 0
M  V30 3224 C 310.207 -3.26325 4.0781 0
M  V30 3225 H 311.901 -1.64543 2.50132 0
M  V30 3226 H 309.447 -0.790185 1.20383 0
M  V30 3227 H 311.4 -3.90404 1.58628 0
M  V30 3228 H 310.124 -3.2195 0.549139 0
M  V30 3229 H 308.783 -2.59603 2.58847 0
M  V30 3230 H 308.431 -4.80839 1.47657 0
M  V30 3231 H 308.131 -4.9088 3.22972 0
M  V30 3232 H 309.655 -5.54775 2.55063 0
M  V30 3233 H 311.069 -3.94483 4.16 0
M  V30 3234 H 309.466 -3.54445 4.8424 0
M  V30 3235 H 310.536 -2.23855 4.30136 0
M  V30 3236 N 311.879 -1.3236 -0.855495 0
M  V30 3237 C 312.789 -1.23221 -1.99634 0
M  V30 3238 C 313.805 -0.145983 -1.73387 0
M  V30 3239 O 314.981 -0.366502 -1.98037 0
M  V30 3240 C 312.046 -0.954782 -3.33294 0
M  V30 3241 C 311.107 -2.12937 -3.72769 0
M  V30 3242 C 310.34 -1.86508 -5.00051 0
M  V30 3243 O 310.563 -0.807231 -5.64659 0
M  V30 3244 O 309.497 -2.72591 -5.36636 0
M  V30 3245 H 313.323 -2.19126 -2.1028 0
M  V30 3246 H 310.908 -1.12241 -0.986018 0
M  V30 3247 H 312.79 -0.816519 -4.13414 0
M  V30 3248 H 311.465 -0.0258854 -3.2369 0
M  V30 3249 H 310.372 -2.3231 -2.93228 0
M  V30 3250 H 311.705 -3.04102 -3.87018 0
M  V30 3251 N 313.357 1.07166 -1.15556 0
M  V30 3252 C 314.585 1.83514 -0.955519 0
M  V30 3253 C 315 1.82163 0.49621 0
M  V30 3254 O 314.357 1.23441 1.34419 0
M  V30 3255 C 314.408 3.30515 -1.46432 0
M  V30 3256 O 314.129 3.31937 -2.85918 0
M  V30 3257 C 315.63 4.23625 -1.30603 0
M  V30 3258 H 312.85 0.578926 -0.339244 0
M  V30 3259 H 315.394 1.35265 -1.53374 0
M  V30 3260 H 313.549 3.76106 -0.928584 0
M  V30 3261 H 313.963 4.23794 -3.09029 0
M  V30 3262 H 315.437 5.24831 -1.71047 0
M  V30 3263 H 315.914 4.38485 -0.250441 0
M  V30 3264 H 316.52 3.83871 -1.83094 0
M  V30 3265 N 314.835 0.952656 1.25548 0
M  V30 3266 C 316.075 0.614013 1.9496 0
M  V30 3267 C 316.439 -0.833215 1.72978 0
M  V30 3268 O 317.64 -1.28135 2.36294 0
M  V30 3269 C 315.911 0.960562 3.4425 0
M  V30 3270 S 317.47 0.734195 4.32614 0
M  V30 3271 H 314.288 0.225754 0.674208 0
M  V30 3272 H 316.89 1.22641 1.52248 0
M  V30 3273 H 315.594 2.01103 3.57751 0
M  V30 3274 H 315.125 0.338336 3.91942 0
M  V30 3275 H 317.14 -0.395995 4.94617 0
M  V30 3276 N 316.313 -1.40141 0.720998 0
M  V30 3277 C 317.559 -2.01084 0.263231 0
M  V30 3278 C 317.892 -1.57052 -1.14229 0
M  V30 3279 O 317.167 -0.793027 -1.77599 0
M  V30 3280 C 317.45 -3.58401 0.349344 0
M  V30 3281 C 317.303 -4.12491 1.79363 0
M  V30 3282 C 318.622 -4.39231 -0.276351 0
M  V30 3283 H 315.741 -0.730572 0.0971228 0
M  V30 3284 H 318.383 -1.66543 0.914518 0
M  V30 3285 H 316.533 -3.87958 -0.205165 0
M  V30 3286 H 318.205 -3.93711 2.40394 0
M  V30 3287 H 316.448 -3.66576 2.31958 0
M  V30 3288 H 317.119 -5.21646 1.80524 0
M  V30 3289 H 319.595 -4.15637 0.196184 0
M  V30 3290 H 318.471 -5.48586 -0.185681 0
M  V30 3291 H 318.732 -4.20643 -1.36059 0
M  V30 3292 N 317.792 -0.46758 -1.50504 0
M  V30 3293 C 319.203 -0.0116166 -1.86696 0
M  V30 3294 C 319.554 1.39202 -1.38265 0
M  V30 3295 O 318.679 2.0313 -0.746132 0
M  V30 3296 C 319.274 -0.0143044 -3.38797 0
M  V30 3297 C 317.833 0.386175 -3.74414 0
M  V30 3298 C 316.98 -0.401287 -2.74381 0
M  V30 3299 H 319.931 -0.682022 -1.43297 0
M  V30 3300 H 319.952 0.788641 -3.72237 0
M  V30 3301 H 319.464 -1.03602 -3.74016 0
M  V30 3302 H 317.565 1.41237 -3.44794 0
M  V30 3303 H 317.678 0.0899596 -4.79016 0
M  V30 3304 H 316.042 0.144536 -2.5429 0
M  V30 3305 H 316.825 -1.42244 -3.12444 0
M  V30 3306 N 319.27 1.56325 -0.20005 0
M  V30 3307 C 320.547 1.89484 0.48529 0
M  V30 3308 C 320.927 1.1143 1.79294 0
M  V30 3309 O 320.275 0.216919 2.27468 0
M  V30 3310 C 320.485 3.41923 0.699243 0
M  V30 3311 C 321.833 4.12256 1.01638 0
M  V30 3312 O 322.857 3.47402 0.786792 0
M  V30 3313 O 321.716 5.26887 1.45095 0
M  V30 3314 H 318.81 0.787144 0.253639 0
M  V30 3315 H 321.356 1.67985 -0.240633 0
M  V30 3316 H 320.128 3.90658 -0.224008 0
M  V30 3317 H 319.751 3.69131 1.47744 0
M  V30 3318 N 320.748 -0.0735177 1.57428 0
M  V30 3319 C 322.164 -0.428264 1.53747 0
M  V30 3320 C 322.364 -1.79272 0.91998 0
M  V30 3321 O 321.42 -2.47051 0.521745 0
M  V30 3322 C 322.733 -0.370914 2.98404 0
M  V30 3323 C 324.281 -0.451224 3.0973 0
M  V30 3324 C 324.756 -0.4238 4.56035 0
M  V30 3325 N 326.247 -0.483925 4.60665 0
M  V30 3326 C 326.982 -0.484891 5.71346 0
M  V30 3327 N 326.478 -0.440775 6.91396 0
M  V30 3328 N 328.271 -0.531319 5.59583 0
M  V30 3329 H 320.422 0.819949 1.95935 0
M  V30 3330 H 322.685 0.307493 0.896745 0
M  V30 3331 H 322.391 0.564956 3.47133 0
M  V30 3332 H 322.265 -1.18176 3.5821 0
M  V30 3333 H 324.652 -1.37752 2.60976 0
M  V30 3334 H 324.733 0.388167 2.52838 0
M  V30 3335 H 324.377 0.498638 5.05446 0
M  V30 3336 H 324.307 -1.2807 5.10789 0
M  V30 3337 H 326.798 -0.522338 3.74273 0
M  V30 3338 H 327.111 -0.44539 7.71515 0
M  V30 3339 H 325.456 -0.40749 6.93804 0
M  V30 3340 H 328.647 -0.563464 4.64696 0
M  V30 3341 H 328.82 -0.528603 6.4584 0
M  V30 3342 N 322.226 -1.5378 -0.344866 0
M  V30 3343 C 323.474 -1.70625 -1.08311 0
M  V30 3344 C 323.795 -0.471447 -1.89215 0
M  V30 3345 O 323.065 0.514616 -1.8902 0
M  V30 3346 H 321.645 -0.629058 -0.402859 0
M  V30 3347 H 324.307 -1.9103 -0.386459 0
M  V30 3348 H 323.403 -2.57656 -1.76124 0
M  V30 3349 N 323.704 0.605807 -1.45491 0
M  V30 3350 C 325.12 0.926751 -1.29936 0
M  V30 3351 C 325.32 1.99896 -0.253706 0
M  V30 3352 O 324.376 2.50038 0.351737 0
M  V30 3353 C 325.689 1.36599 -2.67883 0
M  V30 3354 C 327.237 1.4801 -2.75793 0
M  V30 3355 C 327.712 1.95309 -4.14268 0
M  V30 3356 N 329.203 2.0254 -4.16571 0
M  V30 3357 C 329.938 2.40363 -5.20589 0
M  V30 3358 N 329.434 2.77143 -6.34952 0
M  V30 3359 N 331.227 2.40718 -5.07948 0
M  V30 3360 H 323.378 -0.102862 -2.12151 0
M  V30 3361 H 325.641 0.016639 -0.947854 0
M  V30 3362 H 325.347 0.652306 -3.45598 0
M  V30 3363 H 325.221 2.33215 -2.96463 0
M  V30 3364 H 327.608 2.1847 -1.98381 0
M  V30 3365 H 327.689 0.497041 -2.50925 0
M  V30 3366 H 327.333 1.25436 -4.92167 0
M  V30 3367 H 327.263 2.94532 -4.3653 0
M  V30 3368 H 329.754 1.76699 -3.34045 0
M  V30 3369 H 330.067 3.0489 -7.10114 0
M  V30 3370 H 328.412 2.74834 -6.3835 0
M  V30 3371 H 331.603 2.11392 -4.1765 0
M  V30 3372 H 331.776 2.69869 -5.89131 0
M  V30 3373 N 325.182 1.32811 0.848464 0
M  V30 3374 C 326.092 1.24278 1.98978 0
M  V30 3375 C 327.108 0.155176 1.73307 0
M  V30 3376 O 328.284 0.376999 1.9784 0
M  V30 3377 C 325.349 0.972444 3.32783 0
M  V30 3378 C 324.41 2.14911 3.71634 0
M  V30 3379 C 323.643 1.89157 4.99054 0
M  V30 3380 O 323.866 0.837165 5.64223 0
M  V30 3381 O 322.8 2.75433 5.35183 0
M  V30 3382 H 326.626 2.20238 2.09115 0
M  V30 3383 H 324.211 1.12762 0.980052 0
M  V30 3384 H 326.093 0.838432 4.12975 0
M  V30 3385 H 324.768 0.043051 3.23671 0
M  V30 3386 H 323.675 2.33862 2.91992 0
M  V30 3387 H 325.008 3.06151 3.85399 0
M  V30 3388 N 326.66 -1.06551 1.16123 0
M  V30 3389 C 327.89 -1.8274 0.963838 0
M  V30 3390 C 328.298 -1.82712 -0.491228 0
M  V30 3391 O 327.641 -1.24294 -1.35265 0
M  V30 3392 C 327.703 -3.3065 1.41106 0
M  V30 3393 C 327.367 -3.54384 2.88549 0
M  V30 3394 C 328.364 -3.4765 3.86569 0
M  V30 3395 C 326.049 -3.81789 3.26408 0
M  V30 3396 C 328.043 -3.67982 5.2045 0
M  V30 3397 C 325.73 -4.01772 4.60459 0
M  V30 3398 C 326.728 -3.94866 5.57288 0
M  V30 3399 O 326.416 -4.14306 6.88916 0
M  V30 3400 H 326.148 -0.583136 0.341948 0
M  V30 3401 H 328.702 -1.35351 1.54497 0
M  V30 3402 H 326.932 -3.78887 0.773394 0
M  V30 3403 H 328.621 -3.88324 1.1815 0
M  V30 3404 H 329.387 -3.2647 3.58667 0
M  V30 3405 H 325.266 -3.86276 2.51619 0
M  V30 3406 H 328.81 -3.62507 5.96015 0
M  V30 3407 H 324.707 -4.2244 4.88072 0
M  V30 3408 H 325.475 -4.31609 6.95454 0
M  V30 3409 N 328.138 -0.959301 -1.25041 0
M  V30 3410 C 329.554 -0.664474 -1.4511 0
M  V30 3411 C 329.754 0.776481 -1.85938 0
M  V30 3412 O 328.81 1.55128 -1.99227 0
M  V30 3413 C 330.123 -1.64139 -2.5195 0
M  V30 3414 C 331.671 -1.65309 -2.65786 0
M  V30 3415 C 332.146 -2.61777 -3.75815 0
M  V30 3416 N 333.637 -2.60169 -3.83231 0
M  V30 3417 C 334.372 -3.31489 -4.6787 0
M  V30 3418 N 333.868 -4.12298 -5.56761 0
M  V30 3419 N 335.661 -3.20354 -4.61876 0
M  V30 3420 H 327.812 -1.89043 -0.968332 0
M  V30 3421 H 330.075 -0.813408 -0.4869 0
M  V30 3422 H 329.781 -2.67086 -2.28819 0
M  V30 3423 H 329.655 -1.40756 -3.49954 0
M  V30 3424 H 332.042 -0.630778 -2.8828 0
M  V30 3425 H 332.123 -1.92753 -1.68167 0
M  V30 3426 H 331.767 -3.64137 -3.54071 0
M  V30 3427 H 331.697 -2.31616 -4.72929 0
M  V30 3428 H 334.188 -2.01507 -3.19692 0
M  V30 3429 H 334.501 -4.63625 -6.18281 0
M  V30 3430 H 332.846 -4.16395 -5.56454 0
M  V30 3431 H 336.037 -2.56692 -3.91442 0
M  V30 3432 H 336.21 -3.76201 -5.27614 0
M  V30 3433 N 329.616 1.39756 -0.72842 0
M  V30 3434 C 330.864 2.00248 -0.272946 0
M  V30 3435 C 331.185 1.58077 1.14178 0
M  V30 3436 O 330.455 0.826014 1.77634 0
M  V30 3437 H 329.035 0.740554 -0.0979247 0
M  V30 3438 H 331.697 1.70903 -0.936912 0
M  V30 3439 H 330.793 3.10495 -0.316142 0
M  V30 3440 N 331.094 0.475555 1.50254 0
M  V30 3441 C 332.51 0.12997 1.5907 0
M  V30 3442 C 332.71 -1.36385 1.48328 0
M  V30 3443 O 331.766 -2.13754 1.34407 0
M  V30 3444 C 333.079 0.684139 2.92814 0
M  V30 3445 C 334.627 0.647965 3.0622 0
M  V30 3446 C 335.102 1.17975 4.42545 0
M  V30 3447 N 336.593 1.13936 4.48969 0
M  V30 3448 C 337.328 1.52129 5.52851 0
M  V30 3449 N 336.824 1.97793 6.63965 0
M  V30 3450 N 338.617 1.43704 5.4342 0
M  V30 3451 H 330.768 1.44706 1.55479 0
M  V30 3452 H 333.031 0.598691 0.735033 0
M  V30 3453 H 332.737 1.73079 3.06164 0
M  V30 3454 H 332.611 0.130204 3.76975 0
M  V30 3455 H 334.998 -0.38979 2.92514 0
M  V30 3456 H 335.079 1.23876 2.23805 0
M  V30 3457 H 334.723 2.21616 4.57 0
M  V30 3458 H 334.653 0.565138 5.23559 0
M  V30 3459 H 337.144 0.804488 3.69238 0
M  V30 3460 H 337.457 2.25072 7.39299 0
M  V30 3461 H 335.802 2.01749 6.65073 0
M  V30 3462 H 338.993 1.07867 4.55502 0
M  V30 3463 H 339.166 1.73794 6.24259 0
M  V30 3464 N 332.573 -1.56217 0.208337 0
M  V30 3465 C 333.503 -2.22694 -0.702116 0
M  V30 3466 C 334.484 -1.19432 -1.2112 0
M  V30 3467 O 335.669 -1.47978 -1.25762 0
M  V30 3468 C 332.799 -2.8966 -1.9161 0
M  V30 3469 C 331.753 -3.9928 -1.5414 0
M  V30 3470 C 331.079 -4.53476 -2.83308 0
M  V30 3471 C 332.379 -5.17012 -0.741339 0
M  V30 3472 H 334.073 -2.99034 -0.147898 0
M  V30 3473 H 331.619 -1.43831 -0.0696951 0
M  V30 3474 H 333.572 -3.34852 -2.55836 0
M  V30 3475 H 332.296 -2.10746 -2.49507 0
M  V30 3476 H 330.955 -3.54799 -0.922668 0
M  V30 3477 H 330.603 -3.71308 -3.39322 0
M  V30 3478 H 330.303 -5.27451 -2.58976 0
M  V30 3479 H 331.827 -5.01378 -3.485 0
M  V30 3480 H 333.241 -5.58667 -1.28699 0
M  V30 3481 H 331.638 -5.97137 -0.595627 0
M  V30 3482 H 332.708 -4.8423 0.254851 0
M  V30 3483 N 334.051 0.0651679 -1.57465 0
M  V30 3484 C 335.014 1.06117 -2.03155 0
M  V30 3485 C 336.014 1.31204 -0.929632 0
M  V30 3486 O 337.204 1.26813 -1.19432 0
M  V30 3487 C 334.336 2.4032 -2.41783 0
M  V30 3488 H 335.529 0.667231 -2.92383 0
M  V30 3489 H 333.082 0.311075 -1.53173 0
M  V30 3490 H 333.817 2.84532 -1.55601 0
M  V30 3491 H 333.602 2.23451 -3.22199 0
M  V30 3492 H 335.092 3.11898 -2.77685 0
M  V30 3493 N 335.529 1.53961 0.336706 0
M  V30 3494 C 336.775 1.7179 1.07777 0
M  V30 3495 C 337.108 0.483263 1.88091 0
M  V30 3496 O 336.383 -0.519747 1.87427 0
M  V30 3497 C 336.666 2.98558 2.01334 0
M  V30 3498 C 336.519 4.32245 1.24437 0
M  V30 3499 C 337.838 3.21023 3.01052 0
M  V30 3500 H 334.957 0.625089 0.390426 0
M  V30 3501 H 337.599 1.86641 0.35567 0
M  V30 3502 H 335.749 2.86028 2.62908 0
M  V30 3503 H 337.421 4.56637 0.654243 0
M  V30 3504 H 335.664 4.30344 0.546458 0
M  V30 3505 H 336.335 5.17137 1.93063 0
M  V30 3506 H 338.811 3.32929 2.49595 0
M  V30 3507 H 337.687 4.11104 3.6371 0
M  V30 3508 H 337.948 2.37637 3.72802 0
M  V30 3509 N 337.007 -0.598083 1.45811 0
M  V30 3510 C 338.235 -1.38322 1.53866 0
M  V30 3511 C 338.65 -1.87992 0.174479 0
M  V30 3512 O 338.007 -1.62756 -0.825627 0
M  V30 3513 C 338.058 -2.58125 2.53089 0
M  V30 3514 O 337.779 -2.10516 3.84206 0
M  V30 3515 C 339.28 -3.50869 2.70935 0
M  V30 3516 H 336.5 -0.423093 0.520801 0
M  V30 3517 H 339.044 -0.728527 1.91083 0
M  V30 3518 H 337.199 -3.19615 2.18917 0
M  V30 3519 H 337.613 -2.88425 4.38077 0
M  V30 3520 H 339.087 -4.31451 3.44317 0
M  V30 3521 H 339.564 -4.01822 1.77301 0
M  V30 3522 H 340.17 -2.95225 3.06141 0
M  V30 3523 N 338.485 -1.33259 -0.841409 0
M  V30 3524 C 339.713 -1.27605 -1.62864 0
M  V30 3525 C 340.128 0.153507 -1.88175 0
M  V30 3526 O 339.485 1.09485 -1.46011 0
M  V30 3527 C 339.536 -2.04596 -2.98031 0
M  V30 3528 O 339.257 -3.41975 -2.73834 0
M  V30 3529 C 340.758 -2.06122 -3.92465 0
M  V30 3530 H 337.978 -0.439718 -0.506842 0
M  V30 3531 H 340.522 -1.75591 -1.04824 0
M  V30 3532 H 338.677 -1.60299 -3.5268 0
M  V30 3533 H 339.091 -3.81549 -3.59889 0
M  V30 3534 H 340.565 -2.64451 -4.84531 0
M  V30 3535 H 341.042 -1.05083 -4.26444 0
M  V30 3536 H 341.648 -2.50427 -3.43753 0
M  V30 3537 N 339.963 1.05934 -1.16686 0
M  V30 3538 C 341.188 1.83029 -0.975455 0
M  V30 3539 C 341.613 1.82096 0.471452 0
M  V30 3540 O 340.971 1.22443 1.33706 0
M  V30 3541 C 341.019 3.27372 -1.51195 0
M  V30 3542 O 340.123 4.06054 -0.720701 0
M  V30 3543 H 339.464 0.566194 -0.346872 0
M  V30 3544 H 341.994 1.33541 -1.55009 0
M  V30 3545 H 342.004 3.78186 -1.53099 0
M  V30 3546 H 340.679 3.27366 -2.56523 0
M  V30 3547 H 339.256 3.64812 -0.772458 0
M  V30 3548 N 341.441 0.965919 1.2453 0
M  V30 3549 C 342.689 0.625593 1.92174 0
M  V30 3550 C 343.01 -0.841652 1.75901 0
M  V30 3551 O 342.28 -1.60061 1.12948 0
M  V30 3552 H 340.86 0.228388 0.71123 0
M  V30 3553 H 343.522 1.2266 1.51461 0
M  V30 3554 H 342.618 0.864653 2.99884 0
M  V30 3555 N 342.919 -1.39368 0.735821 0
M  V30 3556 C 344.144 -2.05319 0.293052 0
M  V30 3557 C 344.569 -1.55115 -1.064 0
M  V30 3558 O 343.927 -0.695261 -1.67439 0
M  V30 3559 C 343.975 -3.59305 0.305323 0
M  V30 3560 O 343.079 -4.06299 -0.706761 0
M  V30 3561 H 342.42 -0.650529 0.13307 0
M  V30 3562 H 344.95 -1.78386 1.00197 0
M  V30 3563 H 344.96 -4.07724 0.149997 0
M  V30 3564 H 343.635 -3.95207 1.29553 0
M  V30 3565 H 342.212 -3.69292 -0.517504 0
M  V30 3566 N 344.397 -0.483516 -1.5 0
M  V30 3567 C 345.813 -0.138404 -1.58999 0
M  V30 3568 C 346.013 1.35597 -1.4905 0
M  V30 3569 O 345.069 2.13039 -1.35539 0
M  V30 3570 C 346.382 -0.699658 -2.92447 0
M  V30 3571 C 347.93 -0.664195 -3.05872 0
M  V30 3572 C 348.405 -1.20321 -4.41913 0
M  V30 3573 N 349.896 -1.16315 -4.48358 0
M  V30 3574 C 350.631 -1.55058 -5.52037 0
M  V30 3575 N 350.127 -2.01311 -6.62907 0
M  V30 3576 N 351.92 -1.46584 -5.42651 0
M  V30 3577 H 344.071 -1.45529 -1.5471 0
M  V30 3578 H 346.334 -0.60258 -0.731848 0
M  V30 3579 H 346.04 -1.747 -3.05242 0
M  V30 3580 H 345.914 -0.150194 -3.76901 0
M  V30 3581 H 348.301 0.374272 -2.92717 0
M  V30 3582 H 348.382 -1.25061 -2.23144 0
M  V30 3583 H 348.026 -2.24037 -4.55818 0
M  V30 3584 H 347.956 -0.592896 -5.23252 0
M  V30 3585 H 350.447 -0.824058 -3.68806 0
M  V30 3586 H 350.76 -2.2899 -7.38095 0
M  V30 3587 H 349.105 -2.05273 -6.63994 0
M  V30 3588 H 352.296 -1.10281 -4.54924 0
M  V30 3589 H 352.469 -1.77103 -6.23329 0
M  V30 3590 N 345.875 1.56104 -0.216619 0
M  V30 3591 C 347.115 2.00074 0.418322 0
M  V30 3592 C 347.479 1.10098 1.57297 0
M  V30 3593 O 348.68 1.43393 2.27359 0
M  V30 3594 C 346.951 3.47231 0.846477 0
M  V30 3595 S 348.51 4.13223 1.47622 0
M  V30 3596 H 345.328 0.698457 0.132962 0
M  V30 3597 H 347.93 1.92784 -0.324748 0
M  V30 3598 H 346.634 4.104 -0.0036319 0
M  V30 3599 H 346.165 3.58384 1.62248 0
M  V30 3600 H 348.18 4.12005 2.76526 0
M  V30 3601 N 347.353 -0.0568162 1.57498 0
M  V30 3602 C 348.283 -1.06593 2.0775 0
M  V30 3603 C 349.264 -1.39448 0.974082 0
M  V30 3604 O 350.449 -1.48815 1.24771 0
M  V30 3605 C 347.579 -2.37509 2.5339 0
M  V30 3606 C 346.533 -2.1897 3.67745 0
M  V30 3607 C 345.859 -3.55402 3.99492 0
M  V30 3608 C 347.159 -1.59859 4.97235 0
M  V30 3609 H 348.853 -0.647706 2.9231 0
M  V30 3610 H 346.399 -0.310116 1.40621 0
M  V30 3611 H 348.352 -3.08409 2.87162 0
M  V30 3612 H 347.076 -2.8134 1.65878 0
M  V30 3613 H 345.735 -1.50508 3.3428 0
M  V30 3614 H 345.383 -3.9683 3.09088 0
M  V30 3615 H 345.083 -3.43831 4.76502 0
M  V30 3616 H 346.607 -4.27708 4.35773 0
M  V30 3617 H 348.021 -2.20642 5.29141 0
M  V30 3618 H 346.418 -1.58942 5.78669 0
M  V30 3619 H 347.488 -0.561506 4.81638 0
M  V30 3620 N 348.832 -1.54138 -0.328536 0
M  V30 3621 C 349.795 -1.82462 -1.38709 0
M  V30 3622 C 350.795 -0.696229 -1.44946 0
M  V30 3623 O 351.985 -0.964535 -1.4506 0
M  V30 3624 C 349.117 -1.98018 -2.77492 0
M  V30 3625 H 350.31 -2.77037 -1.14851 0
M  V30 3626 H 347.863 -1.45779 -0.563751 0
M  V30 3627 H 348.598 -1.05637 -3.06613 0
M  V30 3628 H 348.383 -2.80124 -2.74359 0
M  V30 3629 H 349.873 -2.21396 -3.54081 0
M  V30 3630 N 350.31 0.590341 -1.46126 0
M  V30 3631 C 351.556 1.34874 -1.52252 0
M  V30 3632 C 351.911 1.91658 -0.168807 0
M  V30 3633 O 351.204 1.73093 0.821556 0
M  V30 3634 C 351.398 2.5032 -2.55097 0
M  V30 3635 C 351.227 2.04843 -4.00337 0
M  V30 3636 C 349.997 1.90213 -4.68132 0
M  V30 3637 C 352.195 1.61267 -4.88362 0
M  V30 3638 N 350.177 1.38727 -5.9802 0
M  V30 3639 C 351.548 1.21319 -6.08015 0
M  V30 3640 C 353.603 1.49015 -4.75078 0
M  V30 3641 C 352.306 0.7034 -7.15852 0
M  V30 3642 C 354.332 0.994401 -5.8298 0
M  V30 3643 C 353.694 0.604659 -7.018 0
M  V30 3644 H 349.793 0.486803 -0.612002 0
M  V30 3645 H 352.377 0.673007 -1.82698 0
M  V30 3646 H 350.548 3.15466 -2.26574 0
M  V30 3647 H 352.28 3.1725 -2.51266 0
M  V30 3648 H 349.035 2.11927 -4.23537 0
M  V30 3649 H 349.459 1.15168 -6.67132 0
M  V30 3650 H 354.101 1.77768 -3.83612 0
M  V30 3651 H 351.819 0.403446 -8.07092 0
M  V30 3652 H 355.405 0.903621 -5.7474 0
M  V30 3653 H 354.285 0.226963 -7.83871 0
M  V30 3654 N 351.788 1.33704 0.83433 0
M  V30 3655 C 353.013 1.28615 1.62705 0
M  V30 3656 C 353.438 -0.139242 1.87584 0
M  V30 3657 O 352.796 -1.09734 1.4432 0
M  V30 3658 C 352.844 2.07139 2.95171 0
M  V30 3659 O 351.948 1.4331 3.86699 0
M  V30 3660 H 351.289 0.44226 0.49528 0
M  V30 3661 H 353.819 1.76335 1.03766 0
M  V30 3662 H 353.829 2.18073 3.44831 0
M  V30 3663 H 352.504 3.10779 2.76386 0
M  V30 3664 H 351.081 1.4105 3.45195 0
M  V30 3665 N 353.266 -1.05314 1.17247 0
M  V30 3666 C 354.491 -1.82509 0.985148 0
M  V30 3667 C 354.916 -1.82343 -0.461788 0
M  V30 3668 O 354.274 -1.23151 -1.33055 0
M  V30 3669 C 354.322 -3.26566 1.52929 0
M  V30 3670 O 353.426 -4.05666 0.742225 0
M  V30 3671 H 352.767 -0.564347 0.349869 0
M  V30 3672 H 355.297 -1.32718 1.55715 0
M  V30 3673 H 355.307 -3.77369 1.55103 0
M  V30 3674 H 353.982 -3.26001 2.58256 0
M  V30 3675 H 352.559 -3.64397 0.791794 0
M  V30 3676 N 354.744 -0.972509 -1.24016 0
M  V30 3677 C 355.654 -0.5143 -2.28893 0
M  V30 3678 C 356.67 0.427078 -1.68677 0
M  V30 3679 O 357.846 0.298939 -1.99169 0
M  V30 3680 C 354.911 0.183598 -3.46214 0
M  V30 3681 C 353.972 -0.798202 -4.21814 0
M  V30 3682 C 353.205 -0.133514 -5.33533 0
M  V30 3683 O 353.428 1.07714 -5.60137 0
M  V30 3684 O 352.362 -0.828103 -5.96176 0
M  V30 3685 H 356.188 -1.38629 -2.70214 0
M  V30 3686 H 353.773 -0.739769 -1.29799 0
M  V30 3687 H 355.655 0.575433 -4.17453 0
M  V30 3688 H 354.33 1.03048 -3.0686 0
M  V30 3689 H 353.237 -1.24059 -3.52931 0
M  V30 3690 H 354.57 -1.61364 -4.64997 0
M  V30 3691 N 356.222 1.38976 -0.743202 0
M  V30 3692 C 357.154 2.29096 -0.0689228 0
M  V30 3693 C 358.167 1.47229 0.694791 0
M  V30 3694 O 359.356 1.70212 0.537597 0
M  V30 3695 C 356.456 3.25988 0.926548 0
M  V30 3696 C 355.629 4.36833 0.222647 0
M  V30 3697 C 354.688 5.13981 1.12739 0
M  V30 3698 O 353.714 5.6601 0.601795 0
M  V30 3699 N 354.916 5.25966 2.45641 0
M  V30 3700 H 357.681 2.87604 -0.842846 0
M  V30 3701 H 355.242 1.50645 -0.593109 0
M  V30 3702 H 357.234 3.74476 1.5346 0
M  V30 3703 H 355.804 2.68453 1.60162 0
M  V30 3704 H 355.024 3.90116 -0.565983 0
M  V30 3705 H 356.312 5.0811 -0.264841 0
M  V30 3706 H 355.71 4.85228 2.9081 0
M  V30 3707 H 354.267 5.77865 3.01522 0
M  V30 3708 N 357.7 0.491464 1.49741 0
M  V30 3709 C 358.663 -0.280906 2.27472 0
M  V30 3710 C 359.663 -0.902454 1.33088 0
M  V30 3711 O 360.853 -0.768465 1.56334 0
M  V30 3712 C 357.985 -1.40209 3.10732 0
M  V30 3713 H 359.178 0.401056 2.97206 0
M  V30 3714 H 356.731 0.246131 1.5435 0
M  V30 3715 H 357.466 -2.11849 2.45541 0
M  V30 3716 H 357.251 -0.961969 3.80117 0
M  V30 3717 H 358.741 -1.9464 3.69466 0
M  V30 3718 N 359.178 -1.55987 0.224894 0
M  V30 3719 C 360.125 -2.20436 -0.68385 0
M  V30 3720 C 361.095 -1.16102 -1.18783 0
M  V30 3721 O 362.28 -1.4447 -1.24632 0
M  V30 3722 C 359.42 -2.89076 -1.88491 0
M  V30 3723 C 358.533 -4.08012 -1.41951 0
M  V30 3724 C 357.668 -4.64426 -2.5784 0
M  V30 3725 C 356.707 -5.75656 -2.08053 0
M  V30 3726 N 355.844 -6.26347 -3.17227 0
M  V30 3727 H 360.684 -2.97727 -0.12754 0
M  V30 3728 H 358.221 -1.47011 -0.0511978 0
M  V30 3729 H 360.179 -3.27059 -2.59014 0
M  V30 3730 H 358.809 -2.14298 -2.41405 0
M  V30 3731 H 357.861 -3.75492 -0.609095 0
M  V30 3732 H 359.173 -4.88375 -1.01447 0
M  V30 3733 H 358.327 -5.04869 -3.3644 0
M  V30 3734 H 357.066 -3.83233 -3.01635 0
M  V30 3735 H 356.071 -5.34712 -1.27916 0
M  V30 3736 H 357.296 -6.58686 -1.65255 0
M  V30 3737 H 355.242 -5.48067 -3.60497 0
M  V30 3738 H 355.159 -7.01843 -2.80986 0
M  V30 3739 H 356.427 -6.71447 -3.95953 0
M  V30 3740 N 360.656 0.0484629 -1.57525 0
M  V30 3741 C 361.619 1.03956 -2.04269 0
M  V30 3742 C 362.619 1.30211 -0.943496 0
M  V30 3743 O 363.809 1.25539 -1.20771 0
M  V30 3744 C 360.941 2.37742 -2.44319 0
M  V30 3745 H 362.134 0.636182 -2.93075 0
M  V30 3746 H 359.687 0.294811 -1.53494 0
M  V30 3747 H 360.422 2.82866 -1.5861 0
M  V30 3748 H 360.207 2.20021 -3.24551 0
M  V30 3749 H 361.697 3.08936 -2.80978 0
M  V30 3750 N 362.134 1.5431 0.320358 0
M  V30 3751 C 363.064 1.86912 1.3995 0
M  V30 3752 C 364.045 0.726211 1.53819 0
M  V30 3753 O 365.23 0.980233 1.67646 0
M  V30 3754 C 362.36 2.09932 2.7667 0
M  V30 3755 C 361.314 3.25776 2.77586 0
M  V30 3756 C 360.64 3.34173 4.17412 0
M  V30 3757 C 361.94 4.6335 2.41048 0
M  V30 3758 H 363.634 2.77292 1.12914 0
M  V30 3759 H 361.18 1.33421 0.541738 0
M  V30 3760 H 363.133 2.31324 3.52232 0
M  V30 3761 H 361.857 1.16304 3.0519 0
M  V30 3762 H 360.516 3.04276 2.04479 0
M  V30 3763 H 360.164 2.38098 4.43078 0
M  V30 3764 H 359.864 4.12033 4.18931 0
M  V30 3765 H 361.388 3.57803 4.94782 0
M  V30 3766 H 362.802 4.84602 3.06324 0
M  V30 3767 H 361.199 5.43782 2.53813 0
M  V30 3768 H 362.269 4.65381 1.36193 0
M  V30 3769 N 363.613 -0.582584 1.46437 0
M  V30 3770 C 364.838 -1.37168 1.55563 0
M  V30 3771 C 365.263 -1.87061 0.19743 0
M  V30 3772 O 364.621 -1.61572 -0.822451 0
M  V30 3773 C 364.669 -2.53511 2.56446 0
M  V30 3774 O 363.773 -3.54953 2.09958 0
M  V30 3775 H 363.114 -0.408494 0.523477 0
M  V30 3776 H 365.644 -0.706646 1.9201 0
M  V30 3777 H 365.654 -3.00426 2.76058 0
M  V30 3778 H 364.329 -2.16549 3.55076 0
M  V30 3779 H 362.906 -3.14516 2.00334 0
M  V30 3780 N 365.091 -1.34144 -0.827227 0
M  V30 3781 C 366.038 -1.25364 -1.93785 0
M  V30 3782 C 367.008 -0.129774 -1.65592 0
M  V30 3783 O 368.193 -0.310024 -1.88264 0
M  V30 3784 C 365.333 -1.01064 -3.2997 0
M  V30 3785 C 364.446 -2.22185 -3.70484 0
M  V30 3786 C 363.581 -1.91203 -4.95595 0
M  V30 3787 C 362.62 -3.08491 -5.28677 0
M  V30 3788 N 361.757 -2.77421 -6.44967 0
M  V30 3789 H 366.597 -2.20347 -2.00627 0
M  V30 3790 H 364.134 -1.09558 -0.981608 0
M  V30 3791 H 366.092 -0.850139 -4.08446 0
M  V30 3792 H 364.722 -0.0975026 -3.22653 0
M  V30 3793 H 363.774 -2.4917 -2.87434 0
M  V30 3794 H 365.086 -3.0983 -3.90905 0
M  V30 3795 H 364.24 -1.71864 -5.81848 0
M  V30 3796 H 362.979 -1.00812 -4.77167 0
M  V30 3797 H 361.984 -3.28431 -4.40923 0
M  V30 3798 H 363.209 -3.99655 -5.49047 0
M  V30 3799 H 361.155 -1.89601 -6.28003 0
M  V30 3800 H 361.072 -3.58598 -6.6554 0
M  V30 3801 H 362.34 -2.61577 -7.34301 0
M  V30 3802 N 366.569 1.04691 -1.17803 0
M  V30 3803 C 367.846 1.7472 -0.879328 0
M  V30 3804 C 368.226 2.01812 0.619271 0
M  V30 3805 O 367.574 1.65824 1.57209 0
M  V30 3806 C 367.784 3.03686 -1.71976 0
M  V30 3807 C 369.132 3.77542 -1.94286 0
M  V30 3808 O 370.156 3.13569 -1.68976 0
M  V30 3809 O 369.015 4.92506 -2.36855 0
M  V30 3810 H 366.109 0.760011 -0.326056 0
M  V30 3811 H 368.655 1.10813 -1.28525 0
M  V30 3812 H 367.427 2.79754 -2.73594 0
M  V30 3813 H 367.05 3.75332 -1.31194 0
M  V30 3814 N 368.047 0.979072 1.23499 0
M  V30 3815 C 368.979 0.476271 2.24197 0
M  V30 3816 C 369.992 -0.421166 1.57258 0
M  V30 3817 O 371.181 -0.225515 1.7707 0
M  V30 3818 C 368.281 -0.330503 3.37285 0
M  V30 3819 C 367.454 0.559744 4.33804 0
M  V30 3820 C 366.513 -0.192954 5.25846 0
M  V30 3821 O 365.539 0.416978 5.67671 0
M  V30 3822 N 366.741 -1.47932 5.61334 0
M  V30 3823 H 369.506 1.34211 2.67969 0
M  V30 3824 H 367.067 0.852189 1.37657 0
M  V30 3825 H 369.059 -0.842361 3.95836 0
M  V30 3826 H 367.629 -1.09734 2.92707 0
M  V30 3827 H 366.849 1.25245 3.73775 0
M  V30 3828 H 368.137 1.1665 4.95248 0
M  V30 3829 H 367.535 -1.9964 5.29302 0
M  V30 3830 H 366.092 -1.93664 6.22364 0
M  V30 3831 N 369.525 -1.3858 0.750561 0
M  V30 3832 C 370.802 -1.94231 0.231009 0
M  V30 3833 C 371.182 -1.68611 -1.27018 0
M  V30 3834 O 370.53 -1.02296 -2.04323 0
M  V30 3835 C 370.74 -3.44123 0.581428 0
M  V30 3836 C 372.088 -4.2116 0.539389 0
M  V30 3837 O 373.112 -3.52391 0.519541 0
M  V30 3838 O 371.971 -5.43749 0.54765 0
M  V30 3839 H 369.065 -0.825639 0.0474263 0
M  V30 3840 H 371.611 -1.4799 0.830478 0
M  V30 3841 H 370.383 -3.56267 1.61833 0
M  V30 3842 H 370.006 -3.97573 -0.0462047 0
M  V30 3843 N 371.003 -0.499398 -1.49478 0
M  V30 3844 C 372.25 0.0456899 -2.02448 0
M  V30 3845 C 372.578 1.37142 -1.37921 0
M  V30 3846 O 371.833 1.89111 -0.503544 0
M  V30 3847 C 372.132 0.248424 -3.56536 0
M  V30 3848 C 371.798 -0.999107 -4.39692 0
M  V30 3849 C 370.46 -1.34108 -4.62135 0
M  V30 3850 C 372.812 -1.82842 -4.88076 0
M  V30 3851 C 370.14 -2.51191 -5.30208 0
M  V30 3852 C 372.492 -2.99076 -5.57437 0
M  V30 3853 C 371.156 -3.33655 -5.78127 0
M  V30 3854 H 370.426 0.0167191 -0.740811 0
M  V30 3855 H 373.073 -0.65923 -1.79795 0
M  V30 3856 H 371.378 1.03586 -3.77859 0
M  V30 3857 H 373.075 0.684605 -3.95113 0
M  V30 3858 H 369.665 -0.722729 -4.22463 0
M  V30 3859 H 373.849 -1.57737 -4.70566 0
M  V30 3860 H 369.105 -2.78221 -5.44429 0
M  V30 3861 H 373.279 -3.63664 -5.93904 0
M  V30 3862 H 370.906 -4.24483 -6.30649 0
M  V30 3863 N 372.481 1.55866 -0.233164 0
M  V30 3864 C 373.429 2.22176 0.68851 0
M  V30 3865 C 374.423 1.20487 1.19076 0
M  V30 3866 O 375.629 1.38536 1.14925 0
M  V30 3867 H 372.004 0.712511 0.240483 0
M  V30 3868 H 373.975 2.98212 0.105935 0
M  V30 3869 C 372.724 2.92446 1.88071 0
M  V30 3870 H 372.047 3.70458 1.50337 0
M  V30 3871 H 373.487 3.42226 2.50314 0
M  V30 3872 C 371.946 1.95555 2.74335 0
M  V30 3873 O 372.476 1.47986 3.73447 0
M  V30 3874 N 370.682 1.62953 2.40613 0
M  V30 3875 H 370.229 2.01831 1.60069 0
M  V30 3876 H 370.187 0.983886 2.98609 0
M  V30 3877 N 373.959 -0.0401083 1.57549 0
M  V30 3878 C 375.37 -0.588097 1.77196 0
M  V30 3879 C 375.721 -1.76209 0.862832 0
M  V30 3880 O 374.846 -2.16331 0.0548389 0
M  V30 3881 C 375.441 -1.07363 3.21339 0
M  V30 3882 C 374 -1.56723 3.42221 0
M  V30 3883 C 373.147 -0.50041 2.72747 0
M  V30 3884 H 376.098 0.186119 1.57605 0
M  V30 3885 H 376.119 -1.94143 3.27244 0
M  V30 3886 H 375.631 -0.218975 3.87482 0
M  V30 3887 H 373.732 -2.4441 2.81237 0
M  V30 3888 H 373.845 -1.62234 4.50796 0
M  V30 3889 H 372.209 -0.952894 2.36203 0
M  V30 3890 H 372.992 0.344599 3.41566 0
M  V30 3891 N 375.437 -1.54477 -0.31217 0
M  V30 3892 C 376.4 -1.83923 -1.36766 0
M  V30 3893 C 377.4 -0.711563 -1.44199 0
M  V30 3894 O 378.59 -0.979866 -1.44029 0
M  V30 3895 C 375.722 -2.0095 -2.75376 0
M  V30 3896 H 376.915 -2.78239 -1.11906 0
M  V30 3897 H 374.468 -1.46369 -0.548257 0
M  V30 3898 H 375.203 -1.08883 -3.05475 0
M  V30 3899 H 374.988 -2.83018 -2.71373 0
M  V30 3900 H 376.478 -2.2514 -3.51713 0
M  V30 3901 N 376.915 0.57481 -1.46744 0
M  V30 3902 C 378.161 1.3347 -1.52688 0
M  V30 3903 C 378.494 1.93353 -0.181229 0
M  V30 3904 O 377.769 1.76912 0.808237 0
M  V30 3905 C 378.052 2.45811 -2.63152 0
M  V30 3906 C 377.905 1.90912 -4.07275 0
M  V30 3907 C 379.224 3.47822 -2.69644 0
M  V30 3908 H 376.343 0.483935 -0.555856 0
M  V30 3909 H 378.985 0.644968 -1.78718 0
M  V30 3910 H 377.135 3.04646 -2.41088 0
M  V30 3911 H 378.807 1.36473 -4.4065 0
M  V30 3912 H 377.05 1.21691 -4.16382 0
M  V30 3913 H 377.721 2.72042 -4.80309 0
M  V30 3914 H 380.197 2.9888 -2.895 0
M  V30 3915 H 379.073 4.23876 -3.48742 0
M  V30 3916 H 379.334 4.05555 -1.76005 0
M  V30 3917 N 378.394 1.34581 0.820102 0
M  V30 3918 C 379.805 1.24298 1.39309 0
M  V30 3919 C 380.156 -0.130351 1.95767 0
M  V30 3920 O 379.281 -1.0308 1.90272 0
M  V30 3921 C 379.876 2.25054 2.53251 0
M  V30 3922 C 378.435 2.18552 3.0645 0
M  V30 3923 C 377.582 2.11503 1.79337 0
M  V30 3924 H 380.533 1.45906 0.624262 0
M  V30 3925 H 380.554 1.86917 3.31425 0
M  V30 3926 H 380.066 3.24996 2.1213 0
M  V30 3927 H 378.167 1.21976 3.52069 0
M  V30 3928 H 378.28 3.0993 3.65349 0
M  V30 3929 H 376.644 1.57268 2.00347 0
M  V30 3930 H 377.427 3.13284 1.40386 0
M  V30 3931 N 379.872 -1.04064 1.18357 0
M  V30 3932 C 380.802 -2.14001 0.934113 0
M  V30 3933 C 381.783 -1.69616 -0.128186 0
M  V30 3934 O 382.968 -1.94185 0.0244093 0
M  V30 3935 C 380.098 -3.44253 0.459066 0
M  V30 3936 C 379.052 -4.02261 1.46185 0
M  V30 3937 C 378.378 -5.27992 0.844322 0
M  V30 3938 C 379.678 -4.38432 2.83856 0
M  V30 3939 H 381.372 -2.35127 1.85352 0
M  V30 3940 H 378.918 -1.12998 0.892604 0
M  V30 3941 H 380.871 -4.20522 0.271907 0
M  V30 3942 H 379.595 -3.22813 -0.495912 0
M  V30 3943 H 378.254 -3.28074 1.63595 0
M  V30 3944 H 377.902 -5.02862 -0.117845 0
M  V30 3945 H 377.602 -5.67765 1.51384 0
M  V30 3946 H 379.126 -6.06938 0.667693 0
M  V30 3947 H 380.54 -5.05688 2.70098 0
M  V30 3948 H 378.937 -4.89254 3.47491 0
M  V30 3949 H 380.007 -3.4826 3.37406 0
M  V30 3950 N 381.35 -0.985608 -1.22978 0
M  V30 3951 C 382.313 -0.535071 -2.22867 0
M  V30 3952 C 383.313 0.378123 -1.56291 0
M  V30 3953 O 384.503 0.171092 -1.73358 0
M  V30 3954 C 381.635 0.222702 -3.40172 0
M  V30 3955 H 382.828 -1.41835 -2.6424 0
M  V30 3956 H 380.381 -0.772042 -1.35901 0
M  V30 3957 H 381.116 1.12229 -3.04262 0
M  V30 3958 H 380.901 -0.43288 -3.89703 0
M  V30 3959 H 382.391 0.526335 -4.1427 0
M  V30 3960 N 382.828 1.3818 -0.7579 0
M  V30 3961 C 383.738 2.3421 -0.135247 0
M  V30 3962 C 384.754 1.59487 0.695683 0
M  V30 3963 O 385.93 1.91657 0.618832 0
M  V30 3964 C 382.995 3.3862 0.744139 0
M  V30 3965 C 382.056 4.2918 -0.101658 0
M  V30 3966 C 381.289 5.28603 0.735851 0
M  V30 3967 O 381.512 5.35166 1.97366 0
M  V30 3968 O 380.446 6.01707 0.152372 0
M  V30 3969 H 384.272 2.8916 -0.928436 0
M  V30 3970 H 381.857 1.40101 -0.518855 0
M  V30 3971 H 383.739 4.02539 1.2466 0
M  V30 3972 H 382.414 2.86019 1.51575 0
M  V30 3973 H 381.321 3.68407 -0.650167 0
M  V30 3974 H 382.654 4.85048 -0.836024 0
M  V30 3975 N 384.306 0.507319 1.49211 0
M  V30 3976 C 385.254 -0.281364 2.30892 0
M  V30 3977 C 386.248 -0.95687 1.39787 0
M  V30 3978 O 387.454 -0.883838 1.56807 0
M  V30 3979 H 383.829 -0.109597 0.743971 0
M  V30 3980 H 385.8 0.42744 2.95323 0
M  V30 3981 C 384.549 -1.32918 3.21291 0
M  V30 3982 H 383.872 -0.818799 3.91326 0
M  V30 3983 H 385.312 -1.85288 3.81372 0
M  V30 3984 C 383.771 -2.35074 2.41333 0
M  V30 3985 O 384.301 -3.4108 2.12197 0
M  V30 3986 N 382.507 -2.07705 2.03241 0
M  V30 3987 H 382.054 -1.2152 2.27136 0
M  V30 3988 H 382.012 -2.76283 1.50051 0
M  V30 3989 N 385.784 -1.5574 0.241426 0
M  V30 3990 C 387.031 -1.9881 -0.384836 0
M  V30 3991 C 387.359 -1.12947 -1.58346 0
M  V30 3992 O 386.614 -0.178993 -1.9488 0
M  V30 3993 C 386.913 -3.47308 -0.843317 0
M  V30 3994 C 386.579 -4.50223 0.246946 0
M  V30 3995 C 385.241 -4.78088 0.546399 0
M  V30 3996 C 387.593 -5.11841 0.983282 0
M  V30 3997 C 384.921 -5.64846 1.58636 0
M  V30 3998 C 387.273 -5.99727 2.01272 0
M  V30 3999 C 385.937 -6.25927 2.31888 0
M  V30 4000 H 385.207 -0.727496 -0.140821 0
M  V30 4001 H 387.854 -1.8831 0.348106 0
M  V30 4002 H 386.159 -3.55112 -1.65537 0
M  V30 4003 H 387.856 -3.78017 -1.33806 0
M  V30 4004 H 384.446 -4.286 0.00340639 0
M  V30 4005 H 388.63 -4.90366 0.765182 0
M  V30 4006 H 383.886 -5.83403 1.82896 0
M  V30 4007 H 388.06 -6.46517 2.58823 0
M  V30 4008 H 385.687 -6.92949 3.12611 0
M  V30 4009 N 387.262 0.0317525 -1.57568 0
M  V30 4010 C 388.502 0.727979 -1.90997 0
M  V30 4011 C 388.866 1.72664 -0.839708 0
M  V30 4012 O 390.067 2.47092 -1.05825 0
M  V30 4013 C 388.338 1.38239 -3.29583 0
M  V30 4014 S 389.897 2.10814 -3.84841 0
M  V30 4015 H 386.715 0.241226 -0.668828 0
M  V30 4016 H 389.317 -0.0173037 -1.95492 0
M  V30 4017 H 388.021 0.642288 -4.05343 0
M  V30 4018 H 387.552 2.16628 -3.28384 0
M  V30 4019 H 389.567 3.3792 -3.63352 0
M  V30 4020 N 388.74 1.54641 0.303973 0
M  V30 4021 C 390.156 1.45788 0.649463 0
M  V30 4022 C 390.356 0.64666 1.90842 0
M  V30 4023 O 389.412 0.153183 2.52035 0
M  V30 4024 C 390.725 2.89718 0.805227 0
M  V30 4025 C 392.273 2.99742 0.901305 0
M  V30 4026 C 392.748 4.44863 1.08909 0
M  V30 4027 N 394.239 4.48559 1.15536 0
M  V30 4028 C 394.974 5.58026 1.3189 0
M  V30 4029 N 394.47 6.77422 1.45161 0
M  V30 4030 N 396.263 5.45708 1.34755 0
M  V30 4031 H 388.414 2.05854 -0.523237 0
M  V30 4032 H 390.677 0.932186 -0.172431 0
M  V30 4033 H 390.383 3.51666 -0.0489108 0
M  V30 4034 H 390.257 3.36964 1.69513 0
M  V30 4035 H 392.644 2.3791 1.74593 0
M  V30 4036 H 392.725 2.55797 -0.0125531 0
M  V30 4037 H 392.369 5.07288 0.249241 0
M  V30 4038 H 392.299 4.86436 2.01713 0
M  V30 4039 H 394.79 3.6254 1.06646 0
M  V30 4040 H 395.103 7.56604 1.57387 0
M  V30 4041 H 393.448 6.80292 1.42223 0
M  V30 4042 H 396.639 4.51378 1.23996 0
M  V30 4043 H 396.812 6.3107 1.47157 0
M  V30 4044 N 390.218 -0.567019 1.47046 0
M  V30 4045 C 391.166 -1.69593 1.59188 0
M  V30 4046 C 392.16 -1.63046 0.459609 0
M  V30 4047 O 393.366 -1.6835 0.637058 0
M  V30 4048 H 389.741 -0.560993 0.500791 0
M  V30 4049 H 391.712 -1.56488 2.54075 0
M  V30 4050 C 390.461 -3.07964 1.61411 0
M  V30 4051 H 389.784 -3.13679 2.47881 0
M  V30 4052 H 391.224 -3.86671 1.73958 0
M  V30 4053 C 389.683 -3.35123 0.34559 0
M  V30 4054 O 390.213 -3.97812 -0.557521 0
M  V30 4055 N 388.419 -2.89699 0.22864 0
M  V30 4056 H 387.966 -2.38863 0.964479 0
M  V30 4057 H 387.924 -3.08242 -0.619192 0
M  V30 4058 N 391.696 -1.35014 -0.812953 0
M  V30 4059 C 393.107 -1.25035 -1.38648 0
M  V30 4060 C 393.458 0.119967 -1.95833 0
M  V30 4061 O 392.583 1.02069 -1.90816 0
M  V30 4062 C 393.178 -2.26394 -2.52054 0
M  V30 4063 C 391.737 -2.20175 -3.05287 0
M  V30 4064 C 390.884 -2.12451 -1.78213 0
M  V30 4065 H 393.835 -1.46235 -0.616516 0
M  V30 4066 H 393.856 -1.88672 -3.30429 0
M  V30 4067 H 393.368 -3.26116 -2.10404 0
M  V30 4068 H 391.469 -1.23841 -3.51417 0
M  V30 4069 H 391.582 -3.11863 -3.63701 0
M  V30 4070 H 389.946 -1.58328 -1.9951 0
M  V30 4071 H 390.729 -3.14024 -1.38723 0
M  V30 4072 N 393.175 1.03435 -1.18907 0
M  V30 4073 C 394.452 1.73778 -0.89781 0
M  V30 4074 C 394.832 2.02458 0.597832 0
M  V30 4075 O 394.18 1.67482 1.55441 0
M  V30 4076 C 394.39 3.01845 -1.75187 0
M  V30 4077 C 395.738 3.7546 -1.9828 0
M  V30 4078 O 396.762 3.11759 -1.72293 0
M  V30 4079 O 395.621 4.89966 -2.42065 0
M  V30 4080 H 392.715 0.75651 -0.334098 0
M  V30 4081 H 395.261 1.09444 -1.29693 0
M  V30 4082 H 394.033 2.76836 -2.76545 0
M  V30 4083 H 393.656 3.73919 -1.35167 0
M  V30 4084 N 394.653 0.992116 1.22453 0
M  V30 4085 C 395.901 0.666215 1.90804 0
M  V30 4086 C 396.222 -0.804152 1.77647 0
M  V30 4087 O 395.492 -1.57629 1.16318 0
M  V30 4088 H 394.072 0.243423 0.706225 0
M  V30 4089 H 396.734 1.25845 1.48825 0
M  V30 4090 H 395.83 0.928069 2.97982 0
M  V30 4091 N 396.131 -1.37776 0.765217 0
M  V30 4092 C 397.408 -1.93975 0.251596 0
M  V30 4093 C 397.788 -1.69949 -1.25222 0
M  V30 4094 O 397.136 -1.04457 -2.03226 0
M  V30 4095 C 397.346 -3.43487 0.617895 0
M  V30 4096 C 398.694 -4.20564 0.584029 0
M  V30 4097 O 399.718 -3.5182 0.556888 0
M  V30 4098 O 398.577 -5.43138 0.605291 0
M  V30 4099 H 395.671 -0.82509 0.0561806 0
M  V30 4100 H 398.217 -1.47101 0.846128 0
M  V30 4101 H 396.989 -3.5453 1.65602 0
M  V30 4102 H 396.612 -3.976 -0.00403411 0
M  V30 4103 N 397.609 -0.515225 -1.4894 0
M  V30 4104 C 398.519 0.259774 -2.33157 0
M  V30 4105 C 399.535 0.953501 -1.45548 0
M  V30 4106 O 400.711 0.931735 -1.78552 0
M  V30 4107 C 397.776 1.30193 -3.21326 0
M  V30 4108 C 396.837 0.620129 -4.24797 0
M  V30 4109 C 396.07 1.61263 -5.08753 0
M  V30 4110 O 396.293 2.84389 -4.94448 0
M  V30 4111 O 395.227 1.16013 -5.90614 0
M  V30 4112 H 399.053 -0.429932 -3.00641 0
M  V30 4113 H 396.638 -0.276346 -1.46822 0
M  V30 4114 H 398.52 1.90455 -3.75905 0
M  V30 4115 H 397.195 1.97431 -2.56521 0
M  V30 4116 H 396.102 -0.0226019 -3.74093 0
M  V30 4117 H 397.435 -0.0100493 -4.92199 0
M  V30 4118 N 399.087 1.5561 -0.249682 0
M  V30 4119 C 399.997 2.25143 0.659375 0
M  V30 4120 C 401.013 1.2685 1.19101 0
M  V30 4121 O 402.189 1.59732 1.22669 0
M  V30 4122 C 399.254 2.93945 1.8384 0
M  V30 4123 C 398.315 4.07655 1.34596 0
M  V30 4124 C 397.548 4.73167 2.46878 0
M  V30 4125 O 397.771 4.37768 3.65671 0
M  V30 4126 O 396.705 5.61623 2.16478 0
M  V30 4127 H 400.531 3.03545 0.0968698 0
M  V30 4128 H 398.116 1.49389 -0.018074 0
M  V30 4129 H 399.998 3.37271 2.52638 0
M  V30 4130 H 398.673 2.18481 2.38847 0
M  V30 4131 H 397.58 3.68839 0.625174 0
M  V30 4132 H 398.913 4.84946 0.841941 0
M  V30 4133 N 400.565 -0.0233959 1.57583 0
M  V30 4134 C 401.813 -0.711654 1.89156 0
M  V30 4135 C 402.134 -1.75591 0.848096 0
M  V30 4136 O 401.404 -1.95547 -0.117566 0
M  V30 4137 H 399.984 -0.265835 0.698098 0
M  V30 4138 H 402.646 0.0119948 1.94896 0
M  V30 4139 H 401.742 -1.19766 2.88206 0
M  V30 4140 N 402.043 -1.548 -0.295768 0
M  V30 4141 C 403.006 -1.85363 -1.34808 0
M  V30 4142 C 404.006 -0.726817 -1.43436 0
M  V30 4143 O 405.196 -0.995088 -1.42981 0
M  V30 4144 C 402.328 -2.03859 -2.73229 0
M  V30 4145 H 403.521 -2.7941 -1.08949 0
M  V30 4146 H 401.074 -1.46942 -0.532702 0
M  V30 4147 H 401.809 -1.12117 -3.04303 0
M  V30 4148 H 401.594 -2.8588 -2.68356 0
M  V30 4149 H 403.084 -2.28857 -3.49305 0
M  V30 4150 N 403.521 0.559213 -1.47345 0
M  V30 4151 C 404.767 1.31614 -1.55079 0
M  V30 4152 C 405.122 1.91257 -0.209422 0
M  V30 4153 O 404.415 1.74796 0.784656 0
M  V30 4154 C 404.609 2.44853 -2.6035 0
M  V30 4155 C 404.438 1.96305 -4.04591 0
M  V30 4156 C 403.208 1.8024 -4.72061 0
M  V30 4157 C 405.406 1.50872 -4.91673 0
M  V30 4158 N 403.388 1.26011 -6.00828 0
M  V30 4159 C 404.759 1.08395 -6.10451 0
M  V30 4160 C 406.814 1.38905 -4.78132 0
M  V30 4161 C 405.517 0.551399 -7.17183 0
M  V30 4162 C 407.543 0.870518 -5.84958 0
M  V30 4163 C 406.905 0.455661 -7.02925 0
M  V30 4164 H 403.004 0.473712 -0.62219 0
M  V30 4165 H 405.588 0.634103 -1.84085 0
M  V30 4166 H 403.759 3.10589 -2.33215 0
M  V30 4167 H 405.491 3.11849 -2.57938 0
M  V30 4168 H 402.246 2.02895 -4.27937 0
M  V30 4169 H 402.67 1.00991 -6.69425 0
M  V30 4170 H 407.312 1.69591 -3.87297 0
M  V30 4171 H 405.03 0.232159 -8.07766 0
M  V30 4172 H 408.616 0.781507 -5.76527 0
M  V30 4173 H 407.496 0.0606414 -7.84177 0
M  V30 4174 N 404.999 1.35443 0.805782 0
M  V30 4175 C 406.239 1.30127 1.57627 0
M  V30 4176 C 406.603 -0.122567 1.91608 0
M  V30 4177 O 407.804 -0.300107 2.67119 0
M  V30 4178 C 406.075 2.18314 2.82973 0
M  V30 4179 S 407.634 2.30521 3.7337 0
M  V30 4180 H 404.452 0.462439 0.540066 0
M  V30 4181 H 407.054 1.70843 0.95042 0
M  V30 4182 H 405.758 3.20741 2.56034 0
M  V30 4183 H 405.289 1.78558 3.50543 0
M  V30 4184 H 407.304 1.49062 4.73281 0
M  V30 4185 N 406.477 -1.02803 1.19454 0
M  V30 4186 C 407.707 -1.79581 1.02149 0
M  V30 4187 C 408.115 -1.84182 -0.432851 0
M  V30 4188 O 407.458 -1.28534 -1.31243 0
M  V30 4189 C 407.52 -3.25993 1.51554 0
M  V30 4190 C 407.184 -3.45025 2.99678 0
M  V30 4191 C 408.181 -3.35175 3.97434 0
M  V30 4192 C 405.866 -3.71212 3.38389 0
M  V30 4193 C 407.86 -3.51238 5.31893 0
M  V30 4194 C 405.547 -3.8692 4.73008 0
M  V30 4195 C 406.545 -3.76936 5.69569 0
M  V30 4196 O 406.233 -3.92179 7.01748 0
M  V30 4197 H 405.965 -0.571962 0.360327 0
M  V30 4198 H 408.519 -1.30367 1.58725 0
M  V30 4199 H 406.749 -3.76235 0.893543 0
M  V30 4200 H 408.438 -3.84368 1.30444 0
M  V30 4201 H 409.204 -3.14895 3.68872 0
M  V30 4202 H 405.083 -3.78075 2.6378 0
M  V30 4203 H 408.627 -3.43362 6.07247 0
M  V30 4204 H 404.524 -4.06699 5.01265 0
M  V30 4205 H 405.292 -4.09265 7.08833 0
M  V30 4206 N 407.956 -0.998596 -1.21925 0
M  V30 4207 C 409.202 -0.678667 -1.91107 0
M  V30 4208 C 409.535 0.78791 -1.77498 0
M  V30 4209 O 408.81 1.57043 -1.1475 0
M  V30 4210 C 409.093 -1.09245 -3.43129 0
M  V30 4211 C 408.946 -2.61801 -3.6576 0
M  V30 4212 C 410.265 -0.649984 -4.35274 0
M  V30 4213 H 407.384 -0.248025 -0.694012 0
M  V30 4214 H 410.026 -1.24314 -1.43688 0
M  V30 4215 H 408.176 -0.612171 -3.83647 0
M  V30 4216 H 409.848 -3.17543 -3.34611 0
M  V30 4217 H 408.091 -3.03609 -3.09845 0
M  V30 4218 H 408.762 -2.85804 -4.7225 0
M  V30 4219 H 411.238 -1.0626 -4.02303 0
M  V30 4220 H 410.114 -0.967743 -5.40302 0
M  V30 4221 H 410.375 0.449139 -4.39813 0
M  V30 4222 N 409.434 1.37368 -0.772513 0
M  V30 4223 C 410.397 2.28601 -0.165541 0
M  V30 4224 C 411.397 1.48062 0.627238 0
M  V30 4225 O 412.587 1.68268 0.450715 0
M  V30 4226 C 409.719 3.32023 0.772897 0
M  V30 4227 H 410.912 2.83787 -0.969787 0
M  V30 4228 H 408.465 1.46647 -0.540775 0
M  V30 4229 H 409.2 2.81962 1.60212 0
M  V30 4230 H 408.985 3.91555 0.206585 0
M  V30 4231 H 410.475 4.00197 1.19298 0
M  V30 4232 N 410.912 0.523116 1.48665 0
M  V30 4233 C 412.189 -0.0775449 1.95446 0
M  V30 4234 C 412.569 -1.5197 1.4652 0
M  V30 4235 O 411.917 -2.17876 0.688657 0
M  V30 4236 C 412.127 0.0326135 3.48985 0
M  V30 4237 C 413.475 -0.130141 4.24401 0
M  V30 4238 O 414.499 -0.0415142 3.56176 0
M  V30 4239 O 413.358 -0.31491 5.45592 0
M  V30 4240 H 410.452 -0.0831012 0.822814 0
M  V30 4241 H 412.998 0.587227 1.59216 0
M  V30 4242 H 411.77 1.03748 3.77296 0
M  V30 4243 H 411.393 -0.671317 3.91892 0
M  V30 4244 N 412.39 -1.55475 0.257931 0
M  V30 4245 C 413.322 -2.19192 -0.669881 0
M  V30 4246 C 414.335 -1.17148 -1.1305 0
M  V30 4247 O 415.524 -1.43959 -1.05537 0
M  V30 4248 C 412.624 -2.79016 -1.92363 0
M  V30 4249 C 411.797 -4.06586 -1.61265 0
M  V30 4250 C 410.856 -4.50622 -2.7171 0
M  V30 4251 O 409.882 -5.16765 -2.38627 0
M  V30 4252 N 411.084 -4.19325 -4.01431 0
M  V30 4253 H 413.849 -2.99441 -0.124635 0
M  V30 4254 H 411.41 -1.6171 0.0783311 0
M  V30 4255 H 413.402 -3.05427 -2.65511 0
M  V30 4256 H 411.972 -2.0286 -2.37837 0
M  V30 4257 H 411.192 -3.87646 -0.715811 0
M  V30 4258 H 412.48 -4.89737 -1.37967 0
M  V30 4259 H 411.878 -3.66247 -4.31138 0
M  V30 4260 H 410.435 -4.50547 -4.7101 0
M  V30 4261 N 413.868 0.0150385 -1.57593 0
M  V30 4262 C 415.279 0.559832 -1.78109 0
M  V30 4263 C 415.63 1.74814 -0.890756 0
M  V30 4264 O 414.755 2.16216 -0.0892482 0
M  V30 4265 C 415.35 1.02238 -3.23006 0
M  V30 4266 C 413.909 1.51258 -3.44671 0
M  V30 4267 C 413.056 0.456955 -2.73509 0
M  V30 4268 H 416.007 -0.211169 -1.57289 0
M  V30 4269 H 416.028 1.88912 -3.30292 0
M  V30 4270 H 415.54 0.157302 -3.87781 0
M  V30 4271 H 413.641 2.39905 -2.8509 0
M  V30 4272 H 413.754 1.55042 -4.5332 0
M  V30 4273 H 412.118 0.915196 -2.37689 0
M  V30 4274 H 412.901 -0.398896 -3.40975 0
M  V30 4275 N 415.346 1.54954 0.287554 0
M  V30 4276 C 416.594 1.74528 1.01904 0
M  V30 4277 C 416.915 0.541349 1.87335 0
M  V30 4278 O 416.185 -0.444108 1.908 0
M  V30 4279 H 414.765 0.643576 0.379235 0
M  V30 4280 H 417.427 1.92333 0.315294 0
M  V30 4281 H 416.523 2.64015 1.6644 0
M  V30 4282 N 416.824 -0.551391 1.4764 0
M  V30 4283 C 418.101 -1.31229 1.45046 0
M  V30 4284 C 418.481 -2.10563 0.150527 0
M  V30 4285 O 417.829 -2.11374 -0.867956 0
M  V30 4286 C 418.039 -2.21189 2.69956 0
M  V30 4287 C 419.387 -2.82021 3.1741 0
M  V30 4288 O 420.411 -2.31488 2.70724 0
M  V30 4289 O 419.27 -3.73885 3.98588 0
M  V30 4290 H 416.364 -0.591193 0.578291 0
M  V30 4291 H 418.91 -0.569813 1.59847 0
M  V30 4292 H 417.682 -1.62207 3.56096 0
M  V30 4293 H 417.305 -3.02722 2.57769 0
M  V30 4294 N 418.302 -1.35869 -0.798587 0
M  V30 4295 C 419.549 -1.29588 -1.55606 0
M  V30 4296 C 419.877 0.127456 -1.94082 0
M  V30 4297 O 419.132 1.09461 -1.62225 0
M  V30 4298 C 419.431 -2.1556 -2.85077 0
M  V30 4299 C 419.097 -3.6424 -2.65781 0
M  V30 4300 C 417.759 -4.04766 -2.60227 0
M  V30 4301 C 420.111 -4.58547 -2.47758 0
M  V30 4302 C 417.439 -5.37753 -2.34603 0
M  V30 4303 C 419.791 -5.91742 -2.23662 0
M  V30 4304 C 418.455 -6.31402 -2.16534 0
M  V30 4305 H 417.725 -0.474197 -0.569402 0
M  V30 4306 H 420.372 -1.67839 -0.922086 0
M  V30 4307 H 418.677 -1.70216 -3.52893 0
M  V30 4308 H 420.374 -2.08031 -3.42818 0
M  V30 4309 H 416.964 -3.32086 -2.70956 0
M  V30 4310 H 421.148 -4.28117 -2.51056 0
M  V30 4311 H 416.404 -5.67474 -2.2756 0
M  V30 4312 H 420.578 -6.6439 -2.08708 0
M  V30 4313 H 418.205 -7.34381 -1.96441 0
M  V30 4314 N 419.78 1.02168 -1.19998 0
M  V30 4315 C 420.69 2.14069 -0.959774 0
M  V30 4316 C 421.706 1.73804 0.082655 0
M  V30 4317 O 422.882 2.01133 -0.103633 0
M  V30 4318 C 419.947 3.42936 -0.509459 0
M  V30 4319 C 419.008 3.97474 -1.62213 0
M  V30 4320 C 418.241 5.2019 -1.19321 0
M  V30 4321 O 418.464 5.70369 -0.0597726 0
M  V30 4322 O 417.398 5.67749 -1.99863 0
M  V30 4323 H 421.224 2.37199 -1.89658 0
M  V30 4324 H 418.809 1.12469 -0.983411 0
M  V30 4325 H 420.691 4.20551 -0.267322 0
M  V30 4326 H 419.366 3.21234 0.398821 0
M  V30 4327 H 418.273 3.21161 -1.9185 0
M  V30 4328 H 419.606 4.23555 -2.50723 0
M  V30 4329 N 421.258 1.00505 1.21394 0
M  V30 4330 C 422.488 0.705584 1.94178 0
M  V30 4331 C 422.896 -0.735846 1.74304 0
M  V30 4332 O 422.239 -1.50954 1.04683 0
M  V30 4333 C 422.301 0.94689 3.46806 0
M  V30 4334 C 421.965 2.37517 3.90429 0
M  V30 4335 C 422.962 3.35539 3.97127 0
M  V30 4336 C 420.647 2.71284 4.22742 0
M  V30 4337 C 422.641 4.65395 4.3553 0
M  V30 4338 C 420.328 4.01356 4.60822 0
M  V30 4339 C 421.326 4.98223 4.67186 0
M  V30 4340 O 421.014 6.25969 5.04399 0
M  V30 4341 H 420.746 0.259216 0.624326 0
M  V30 4342 H 423.3 1.34592 1.55159 0
M  V30 4343 H 421.53 0.249386 3.85895 0
M  V30 4344 H 423.219 0.640804 4.0081 0
M  V30 4345 H 423.985 3.10786 3.7234 0
M  V30 4346 H 419.864 1.96581 4.16985 0
M  V30 4347 H 423.408 5.41002 4.40412 0
M  V30 4348 H 419.305 4.25893 4.85063 0
M  V30 4349 H 420.073 6.30085 5.22431 0
M  V30 4350 N 422.737 -1.36956 0.779787 0
M  V30 4351 C 423.977 -2.01328 0.353043 0
M  V30 4352 C 424.341 -1.60558 -1.05286 0
M  V30 4353 O 425.542 -2.1745 -1.58016 0
M  V30 4354 C 423.813 -3.53874 0.500822 0
M  V30 4355 S 425.372 -4.38506 0.16053 0
M  V30 4356 H 422.19 -0.69799 0.13539 0
M  V30 4357 H 424.792 -1.67016 1.01617 0
M  V30 4358 H 423.496 -3.81034 1.52451 0
M  V30 4359 H 423.027 -3.92994 -0.178574 0
M  V30 4360 H 425.042 -4.85153 -1.04121 0
M  V30 4361 N 424.215 -0.530993 -1.48385 0
M  V30 4362 C 425.492 0.0671788 -1.95485 0
M  V30 4363 C 425.872 1.51191 -1.47324 0
M  V30 4364 O 425.22 2.17507 -0.700202 0
M  V30 4365 C 425.43 -0.0511206 -3.48963 0
M  V30 4366 C 426.778 0.107632 -4.24464 0
M  V30 4367 O 427.802 0.0226248 -3.56193 0
M  V30 4368 O 426.661 0.285972 -5.45751 0
M  V30 4369 H 423.755 0.0787365 -0.823243 0
M  V30 4370 H 426.301 -0.595662 -1.58902 0
M  V30 4371 H 425.073 -1.05747 -3.7674 0
M  V30 4372 H 424.696 0.650525 -3.92242 0
M  V30 4373 N 425.693 1.55336 -0.266172 0
M  V30 4374 C 426.623 2.25146 0.618981 0
M  V30 4375 C 427.604 1.23845 1.16604 0
M  V30 4376 O 428.789 1.52544 1.20183 0
M  V30 4377 C 425.919 2.96572 1.80728 0
M  V30 4378 C 424.873 4.04726 1.39215 0
M  V30 4379 C 424.199 4.63678 2.66283 0
M  V30 4380 C 425.499 5.19407 0.548942 0
M  V30 4381 H 427.193 2.99377 0.0368116 0
M  V30 4382 H 424.739 1.43991 0.0162651 0
M  V30 4383 H 426.692 3.44116 2.43232 0
M  V30 4384 H 425.416 2.19861 2.41514 0
M  V30 4385 H 424.075 3.57979 0.790351 0
M  V30 4386 H 423.723 3.83646 3.25308 0
M  V30 4387 H 423.423 5.367 2.39222 0
M  V30 4388 H 424.947 5.13967 3.29651 0
M  V30 4389 H 426.361 5.63059 1.07876 0
M  V30 4390 H 424.758 5.98936 0.373593 0
M  V30 4391 H 425.828 4.8295 -0.434394 0
M  V30 4392 N 427.171 -0.0066808 1.57599 0
M  V30 4393 C 428.119 -1.01851 2.09115 0
M  V30 4394 C 429.113 -1.36021 1.00969 0
M  V30 4395 O 430.319 -1.34663 1.19439 0
M  V30 4396 H 426.694 -0.346083 0.667631 0
M  V30 4397 H 428.665 -0.558394 2.93129 0
M  V30 4398 C 427.414 -2.30374 2.60429 0
M  V30 4399 H 426.737 -2.04947 3.43273 0
M  V30 4400 H 428.177 -2.99466 3.00161 0
M  V30 4401 C 426.636 -3.00893 1.51542 0
M  V30 4402 O 427.166 -3.91614 0.894484 0
M  V30 4403 N 425.372 -2.62603 1.2445 0
M  V30 4404 H 424.919 -1.88911 1.75129 0
M  V30 4405 H 424.877 -3.10101 0.518137 0
M  V30 4406 N 428.649 -1.55105 -0.279332 0
M  V30 4407 C 429.879 -1.7917 -1.02867 0
M  V30 4408 C 430.287 -0.56204 -1.80659 0
M  V30 4409 O 429.63 0.478266 -1.77365 0
M  V30 4410 C 429.692 -2.96061 -2.03932 0
M  V30 4411 C 429.356 -4.33341 -1.45137 0
M  V30 4412 C 430.353 -5.12565 -0.870266 0
M  V30 4413 C 428.038 -4.79987 -1.48048 0
M  V30 4414 C 430.032 -6.36565 -0.326097 0
M  V30 4415 C 427.719 -6.03944 -0.932443 0
M  V30 4416 C 428.717 -6.8207 -0.356247 0
M  V30 4417 O 428.405 -8.03691 0.183412 0
M  V30 4418 H 428.137 -0.600796 -0.309872 0
M  V30 4419 H 430.691 -2.02932 -0.317468 0
M  V30 4420 H 428.921 -2.67975 -2.78794 0
M  V30 4421 H 430.61 -3.07506 -2.64943 0
M  V30 4422 H 431.376 -4.77661 -0.840521 0
M  V30 4423 H 427.255 -4.1919 -1.91835 0
M  V30 4424 H 430.799 -6.97489 0.124286 0
M  V30 4425 H 426.696 -6.3833 -0.959407 0
M  V30 4426 H 427.464 -8.18468 0.0721681 0
M  V30 4427 N 430.127 0.543554 -1.4793 0
M  V30 4428 C 431.367 1.31072 -1.56843 0
M  V30 4429 C 431.731 1.90604 -0.231124 0
M  V30 4430 O 432.932 2.68091 -0.195165 0
M  V30 4431 C 431.203 2.38106 -2.66533 0
M  V30 4432 S 432.762 3.24729 -2.95122 0
M  V30 4433 H 429.58 0.446035 -0.553691 0
M  V30 4434 H 432.182 0.620777 -1.85382 0
M  V30 4435 H 430.886 1.92828 -3.62278 0
M  V30 4436 H 430.417 3.11824 -2.39852 0
M  V30 4437 H 432.432 4.37891 -2.3338 0
M  V30 4438 N 431.605 1.3629 0.791371 0
M  V30 4439 C 432.515 1.32606 1.93527 0
M  V30 4440 C 433.531 0.228541 1.72493 0
M  V30 4441 O 434.707 0.460571 1.96063 0
M  V30 4442 C 431.772 1.11271 3.28359 0
M  V30 4443 C 430.833 2.3048 3.62185 0
M  V30 4444 C 430.066 2.10154 4.90583 0
M  V30 4445 O 430.289 1.07572 5.60165 0
M  V30 4446 O 429.223 2.97884 5.23019 0
M  V30 4447 H 433.049 2.28909 1.99585 0
M  V30 4448 H 430.634 1.16818 0.931344 0
M  V30 4449 H 432.516 1.01283 4.09047 0
M  V30 4450 H 431.191 0.180292 3.23198 0
M  V30 4451 H 430.098 2.46036 2.81811 0
M  V30 4452 H 431.431 3.22221 3.72068 0
M  V30 4453 N 433.083 -1.0153 1.20538 0
M  V30 4454 C 433.993 -2.13557 0.971113 0
M  V30 4455 C 435.009 -1.73845 -0.0734366 0
M  V30 4456 O 436.185 -2.01075 0.114299 0
M  V30 4457 C 433.25 -3.42661 0.527639 0
M  V30 4458 C 432.311 -3.96608 1.64319 0
M  V30 4459 C 431.544 -5.1955 1.22078 0
M  V30 4460 O 431.767 -5.70329 0.0900198 0
M  V30 4461 O 430.701 -5.66681 2.02871 0
M  V30 4462 H 434.527 -2.3619 1.90913 0
M  V30 4463 H 432.112 -1.11946 0.989362 0
M  V30 4464 H 433.994 -4.20404 0.289621 0
M  V30 4465 H 432.669 -3.21441 -0.381779 0
M  V30 4466 H 431.576 -3.20139 1.93551 0
M  V30 4467 H 432.909 -4.22219 2.52966 0
M  V30 4468 N 434.561 -1.01147 -1.20859 0
M  V30 4469 C 435.972 -0.730205 -1.71828 0
M  V30 4470 C 436.323 0.751662 -1.8123 0
M  V30 4471 O 435.448 1.58686 -1.47132 0
M  V30 4472 C 436.043 -1.31885 -3.12077 0
M  V30 4473 C 434.602 -1.08656 -3.60376 0
M  V30 4474 C 433.749 -1.42769 -2.37723 0
M  V30 4475 H 436.7 -1.18158 -1.05945 0
M  V30 4476 H 436.721 -0.706793 -3.73878 0
M  V30 4477 H 436.233 -2.39737 -3.05201 0
M  V30 4478 H 434.334 -0.0254814 -3.72591 0
M  V30 4479 H 434.447 -1.76301 -4.45483 0
M  V30 4480 H 432.811 -0.846603 -2.40218 0
M  V30 4481 H 433.594 -2.51666 -2.33493 0
M  V30 4482 N 436.039 1.36541 -0.78704 0
M  V30 4483 C 437.285 1.99599 -0.358872 0
M  V30 4484 C 437.618 1.62323 1.06606 0
M  V30 4485 O 436.893 0.876858 1.73613 0
M  V30 4486 C 437.176 3.56327 -0.519944 0
M  V30 4487 C 437.029 4.03464 -1.98839 0
M  V30 4488 C 438.348 4.4005 0.0664737 0
M  V30 4489 H 435.467 0.725107 -0.131869 0
M  V30 4490 H 438.109 1.6199 -0.992936 0
M  V30 4491 H 436.259 3.88495 0.0198321 0
M  V30 4492 H 437.931 3.81793 -2.58905 0
M  V30 4493 H 436.174 3.55092 -2.49183 0
M  V30 4494 H 436.845 5.12439 -2.05207 0
M  V30 4495 H 439.321 4.14228 -0.394267 0
M  V30 4496 H 438.197 5.48847 -0.0762682 0
M  V30 4497 H 438.458 4.26655 1.15835 0
M  V30 4498 N 437.518 0.538854 1.48102 0
M  V30 4499 C 438.795 -0.0568108 1.95517 0
M  V30 4500 C 439.175 -1.50408 1.48124 0
M  V30 4501 O 438.523 -2.17133 0.711727 0
M  V30 4502 C 438.733 0.0696262 3.48931 0
M  V30 4503 C 440.081 -0.0851202 4.24515 0
M  V30 4504 O 441.105 -0.0037347 3.562 0
M  V30 4505 O 439.964 -0.257025 5.45895 0
M  V30 4506 H 437.058 -0.0743695 0.823649 0
M  V30 4507 H 439.604 0.604081 1.58584 0
M  V30 4508 H 438.376 1.07744 3.76174 0
M  V30 4509 H 437.999 -0.629714 3.92582 0
M  V30 4510 N 438.996 -1.55193 0.274407 0
M  V30 4511 C 440.244 -1.99187 -0.341902 0
M  V30 4512 C 440.565 -1.16422 -1.56431 0
M  V30 4513 O 439.835 -0.253573 -1.94252 0
M  V30 4514 H 438.415 -0.735721 -0.129317 0
M  V30 4515 H 441.077 -1.91168 0.379578 0
M  V30 4516 H 440.173 -3.05629 -0.632253 0
M  V30 4517 N 440.474 -0.00167713 -1.576 0
M  V30 4518 C 441.751 0.719951 -1.81868 0
M  V30 4519 C 442.131 1.91895 -0.879747 0
M  V30 4520 O 441.479 2.28389 0.0711423 0
M  V30 4521 C 441.689 1.12409 -3.30402 0
M  V30 4522 C 443.037 1.52724 -3.96182 0
M  V30 4523 O 444.061 1.21784 -3.34734 0
M  V30 4524 O 442.92 2.10265 -5.04431 0
M  V30 4525 H 440.014 0.350707 -0.748955 0
M  V30 4526 H 442.56 -0.0272597 -1.69678 0
M  V30 4527 H 441.332 0.269532 -3.90371 0
M  V30 4528 H 440.955 1.93035 -3.47596 0
M  V30 4529 N 441.952 1.55251 0.271103 0
M  V30 4530 C 442.882 1.9127 1.33933 0
M  V30 4531 C 443.863 0.77478 1.5143 0
M  V30 4532 O 445.048 1.03307 1.64442 0
M  V30 4533 C 442.178 2.18627 2.69851 0
M  V30 4534 C 441.132 3.34442 2.67081 0
M  V30 4535 C 440.458 3.47284 4.06569 0
M  V30 4536 C 441.758 4.70784 2.26185 0
M  V30 4537 H 443.452 2.80744 1.04035 0
M  V30 4538 H 440.998 1.35077 0.499017 0
M  V30 4539 H 442.951 2.42413 3.44694 0
M  V30 4540 H 441.675 1.25955 3.01335 0
M  V30 4541 H 440.334 3.10627 1.94695 0
M  V30 4542 H 439.982 2.52074 4.35279 0
M  V30 4543 H 439.682 4.25152 4.0561 0
M  V30 4544 H 441.206 3.73363 4.83148 0
M  V30 4545 H 442.62 4.94102 2.90751 0
M  V30 4546 H 441.017 5.51582 2.36384 0
M  V30 4547 H 442.087 4.69478 1.21319 0
M  V30 4548 N 443.43 -0.535701 1.48216 0
M  V30 4549 C 444.678 -1.28928 1.55634 0
M  V30 4550 C 444.999 -1.93645 0.229514 0
M  V30 4551 O 444.269 -1.81038 -0.74846 0
M  V30 4552 H 442.849 -0.47884 0.573342 0
M  V30 4553 H 445.511 -0.623853 1.84646 0
M  V30 4554 H 444.607 -2.07157 2.33436 0
M  V30 4555 N 444.908 -1.36708 -0.784132 0
M  V30 4556 C 446.185 -1.21776 -1.53069 0
M  V30 4557 C 446.565 0.193876 -2.10208 0
M  V30 4558 O 445.913 1.20012 -1.94446 0
M  V30 4559 C 446.123 -2.30395 -2.62143 0
M  V30 4560 C 447.471 -2.67325 -3.29882 0
M  V30 4561 O 448.495 -2.29478 -2.7243 0
M  V30 4562 O 447.354 -3.32485 -4.33724 0
M  V30 4563 H 444.448 -0.474459 -0.677361 0
M  V30 4564 H 446.994 -1.48454 -0.82216 0
M  V30 4565 H 445.766 -3.2498 -2.17953 0
M  V30 4566 H 445.389 -2.05112 -3.40609 0
M  V30 4567 N 446.386 1.0089 -1.21074 0
M  V30 4568 C 447.802 1.2695 -0.967257 0
M  V30 4569 C 448.002 1.9846 0.348673 0
M  V30 4570 O 447.058 2.28459 1.0753 0
M  V30 4571 C 448.371 2.09697 -2.15517 0
M  V30 4572 C 449.919 2.22937 -2.197 0
M  V30 4573 C 450.394 3.09064 -3.37999 0
M  V30 4574 N 451.885 3.16653 -3.38061 0
M  V30 4575 C 452.62 3.8354 -4.26245 0
M  V30 4576 N 452.116 4.52488 -5.2462 0
M  V30 4577 N 453.909 3.80141 -4.14064 0
M  V30 4578 H 446.06 0.529005 -2.05707 0
M  V30 4579 H 448.323 0.296148 -0.900556 0
M  V30 4580 H 448.029 1.64497 -3.10859 0
M  V30 4581 H 447.903 3.10444 -2.14253 0
M  V30 4582 H 450.29 2.67357 -1.24916 0
M  V30 4583 H 450.371 1.21673 -2.2501 0
M  V30 4584 H 450.015 2.65347 -4.33074 0
M  V30 4585 H 449.945 4.10433 -3.29928 0
M  V30 4586 H 452.436 2.67566 -2.66865 0
M  V30 4587 H 452.749 5.01219 -5.88217 0
M  V30 4588 H 451.094 4.51288 -5.28549 0
M  V30 4589 H 454.285 3.25427 -3.36474 0
M  V30 4590 H 454.458 4.31992 -4.82998 0
M  V30 4591 N 447.864 1.01787 1.20321 0
M  V30 4592 C 448.794 0.609625 2.25401 0
M  V30 4593 C 449.775 -0.375951 1.65893 0
M  V30 4594 O 450.96 -0.261101 1.92437 0
M  V30 4595 C 448.09 -0.0515995 3.47262 0
M  V30 4596 C 447.044 0.855095 4.19371 0
M  V30 4597 C 446.37 0.0595757 5.34667 0
M  V30 4598 C 447.67 2.16374 4.75373 0
M  V30 4599 H 449.364 1.48803 2.59804 0
M  V30 4600 H 446.91 0.716934 1.24884 0
M  V30 4601 H 448.863 -0.348764 4.19954 0
M  V30 4602 H 447.587 -0.964726 3.12027 0
M  V30 4603 H 446.246 1.13628 3.48546 0
M  V30 4604 H 445.894 -0.85524 4.95676 0
M  V30 4605 H 445.594 0.663406 5.83843 0
M  V30 4606 H 447.118 -0.231105 6.10162 0
M  V30 4607 H 448.532 1.92885 5.39878 0
M  V30 4608 H 446.929 2.71853 5.34991 0
M  V30 4609 H 447.999 2.82589 3.94045 0
M  V30 4610 N 449.342 -1.36122 0.79427 0
M  V30 4611 C 450.59 -1.98718 0.368177 0
M  V30 4612 C 450.911 -1.63345 -1.06506 0
M  V30 4613 O 450.181 -0.909825 -1.73491 0
M  V30 4614 H 448.761 -0.735038 0.133146 0
M  V30 4615 H 451.423 -1.66239 1.01739 0
M  V30 4616 H 450.519 -3.08633 0.463923 0
M  V30 4617 N 450.82 -0.546701 -1.47814 0
M  V30 4618 C 451.73 0.21026 -2.33656 0
M  V30 4619 C 452.746 0.922413 -1.47538 0
M  V30 4620 O 453.922 0.893652 -1.80488 0
M  V30 4621 C 450.987 1.23348 -3.24016 0
M  V30 4622 C 450.048 0.529883 -4.26017 0
M  V30 4623 C 449.281 1.50435 -5.12059 0
M  V30 4624 O 449.504 2.73837 -5.00369 0
M  V30 4625 O 448.438 1.03459 -5.92942 0
M  V30 4626 H 452.264 -0.493605 -2.99662 0
M  V30 4627 H 449.849 -0.307427 -1.46203 0
M  V30 4628 H 451.731 1.82438 -3.79861 0
M  V30 4629 H 450.406 1.91945 -2.60651 0
M  V30 4630 H 449.313 -0.101948 -3.73961 0
M  V30 4631 H 450.646 -0.11445 -4.92067 0
M  V30 4632 N 452.299 1.55045 -0.282633 0
M  V30 4633 C 453.576 1.9179 0.384166 0
M  V30 4634 C 453.956 1.20778 1.73136 0
M  V30 4635 O 453.304 0.33719 2.25998 0
M  V30 4636 C 453.514 3.45149 0.517014 0
M  V30 4637 C 454.862 4.17064 0.796427 0
M  V30 4638 O 455.886 3.51084 0.601535 0
M  V30 4639 O 454.745 5.33837 1.16962 0
M  V30 4640 H 451.839 0.799483 0.211558 0
M  V30 4641 H 454.385 1.66474 -0.32934 0
M  V30 4642 H 453.157 3.88922 -0.430772 0
M  V30 4643 H 452.78 3.76443 1.2797 0
M  V30 4644 N 453.777 0.010035 1.57597 0
M  V30 4645 C 455.188 -0.531426 1.78977 0
M  V30 4646 C 455.539 -1.73375 0.918454 0
M  V30 4647 O 454.664 -2.16047 0.123635 0
M  V30 4648 C 455.259 -0.97086 3.24592 0
M  V30 4649 C 453.818 -1.45756 3.47033 0
M  V30 4650 C 452.965 -0.413384 2.74201 0
M  V30 4651 H 455.916 0.236166 1.56933 0
M  V30 4652 H 455.937 -1.83633 3.33255 0
M  V30 4653 H 455.449 -0.0955893 3.87982 0
M  V30 4654 H 453.55 -2.35339 2.88871 0
M  V30 4655 H 453.663 -1.4781 4.55729 0
M  V30 4656 H 452.027 -0.877266 2.39115 0
M  V30 4657 H 452.81 0.453092 3.40297 0
M  V30 4658 N 455.255 -1.55392 -0.262866 0
M  V30 4659 C 456.532 -1.67204 -1.01499 0
M  V30 4660 C 456.912 -0.545186 -2.03939 0
M  V30 4661 O 456.26 0.453467 -2.23955 0
M  V30 4662 C 456.47 -3.06847 -1.6627 0
M  V30 4663 C 457.818 -3.64928 -2.17054 0
M  V30 4664 O 458.842 -3.09545 -1.76239 0
M  V30 4665 O 457.701 -4.61984 -2.91947 0
M  V30 4666 H 454.795 -0.679467 -0.471438 0
M  V30 4667 H 457.341 -1.67729 -0.257918 0
M  V30 4668 H 456.113 -3.80309 -0.920915 0
M  V30 4669 H 455.736 -3.10266 -2.48638 0
M  V30 4670 N 456.733 0.527833 -1.48498 0
M  V30 4671 C 458.144 1.10975 -1.50138 0
M  V30 4672 C 458.495 1.943 -0.272378 0
M  V30 4673 O 457.62 2.07319 0.620301 0
M  V30 4674 C 458.215 2.01927 -2.72049 0
M  V30 4675 C 456.774 2.55332 -2.76554 0
M  V30 4676 C 455.921 1.32341 -2.43683 0
M  V30 4677 H 458.872 0.312986 -1.55583 0
M  V30 4678 H 458.893 2.86244 -2.50689 0
M  V30 4679 H 458.405 1.41254 -3.61481 0
M  V30 4680 H 456.506 3.19721 -1.91336 0
M  V30 4681 H 456.619 2.94319 -3.78038 0
M  V30 4682 H 454.983 1.63989 -1.94884 0
M  V30 4683 H 455.766 0.734165 -3.35358 0
M  V30 4684 N 458.211 1.37122 0.776871 0
M  V30 4685 C 459.488 1.22586 1.52421 0
M  V30 4686 C 459.868 -0.182726 2.10308 0
M  V30 4687 O 459.216 -1.18979 1.9508 0
M  V30 4688 C 459.426 2.31782 2.60918 0
M  V30 4689 C 460.774 2.69071 3.2846 0
M  V30 4690 O 461.798 2.3092 2.71209 0
M  V30 4691 O 460.657 3.3478 4.31954 0
M  V30 4692 H 457.751 0.478045 0.674835 0
M  V30 4693 H 460.297 1.48888 0.814275 0
M  V30 4694 H 459.069 3.26131 2.16227 0
M  V30 4695 H 458.692 2.06916 3.39517 0
M  V30 4696 N 459.689 -1.00246 1.21608 0
M  V30 4697 C 460.652 -2.07233 0.979133 0
M  V30 4698 C 461.652 -1.6072 -0.0508219 0
M  V30 4699 O 462.842 -1.73196 0.186712 0
M  V30 4700 C 459.974 -3.37546 0.477016 0
M  V30 4701 H 461.167 -2.29687 1.92831 0
M  V30 4702 H 458.72 -1.17261 1.03342 0
M  V30 4703 H 459.455 -3.20773 -0.476966 0
M  V30 4704 H 459.24 -3.72638 1.21997 0
M  V30 4705 H 460.73 -4.16285 0.331181 0
M  V30 4706 N 461.167 -1.02423 -1.1978 0
M  V30 4707 C 462.13 -0.605703 -2.21052 0
M  V30 4708 C 463.13 0.328209 -1.57415 0
M  V30 4709 O 464.32 0.115853 -1.73814 0
M  V30 4710 C 461.452 0.114366 -3.40708 0
M  V30 4711 H 462.645 -1.5017 -2.59594 0
M  V30 4712 H 460.198 -0.814888 -1.33376 0
M  V30 4713 H 460.933 1.02492 -3.07678 0
M  V30 4714 H 460.718 -0.556641 -3.88129 0
M  V30 4715 H 462.208 0.394272 -4.15735 0
M  V30 4716 N 462.645 1.35699 -0.801477 0
M  V30 4717 C 463.894 1.98165 -0.375979 0
M  V30 4718 C 464.207 1.64306 1.06127 0
M  V30 4719 O 465.413 2.20097 1.58964 0
M  V30 4720 C 463.869 3.54497 -0.621305 0
M  V30 4721 C 463.477 3.9727 -2.07076 0
M  V30 4722 C 465.221 4.23697 -0.26091 0
M  V30 4723 C 463.128 5.46427 -2.26211 0
M  V30 4724 H 462.058 0.741478 -0.136844 0
M  V30 4725 H 464.709 1.54834 -0.984814 0
M  V30 4726 H 463.091 3.95958 0.0574112 0
M  V30 4727 H 464.265 3.66974 -2.78687 0
M  V30 4728 H 462.58 3.40943 -2.39054 0
M  V30 4729 H 465.177 5.33334 -0.381994 0
M  V30 4730 H 465.52 4.0869 0.792344 0
M  V30 4731 H 466.053 3.87639 -0.893339 0
M  V30 4732 H 462.792 5.66396 -3.29963 0
M  V30 4733 H 462.312 5.78309 -1.59119 0
M  V30 4734 H 463.991 6.12819 -2.07513 0
M  V30 4735 N 464.123 0.554532 1.47522 0
M  V30 4736 C 465.033 -0.197865 2.33764 0
M  V30 4737 C 466.049 -0.914576 1.48025 0
M  V30 4738 O 467.225 -0.884067 1.80959 0
M  V30 4739 C 464.29 -1.21628 3.24665 0
M  V30 4740 C 463.351 -0.507283 4.26292 0
M  V30 4741 C 462.584 -1.47718 5.1285 0
M  V30 4742 O 462.807 -2.7118 5.01814 0
M  V30 4743 O 461.741 -1.00313 5.93482 0
M  V30 4744 H 465.567 0.50949 2.99396 0
M  V30 4745 H 463.152 0.315176 1.46038 0
M  V30 4746 H 465.034 -1.80421 3.80823 0
M  V30 4747 H 463.709 -1.9056 2.61665 0
M  V30 4748 H 462.616 0.121778 3.73902 0
M  V30 4749 H 463.949 0.140544 4.91999 0
M  V30 4750 N 465.601 -1.54893 0.290851 0
M  V30 4751 C 466.849 -1.99538 -0.320756 0
M  V30 4752 C 467.17 -1.18075 -1.55188 0
M  V30 4753 O 466.44 -0.274162 -1.93972 0
M  V30 4754 H 465.02 -0.737052 -0.121507 0
M  V30 4755 H 467.682 -1.90755 0.399832 0
M  V30 4756 H 466.778 -3.06282 -0.599802 0
M  V30 4757 N 467.08 -0.0183926 -1.57589 0
M  V30 4758 C 468.496 0.337897 -1.55982 0
M  V30 4759 C 468.696 1.73604 -1.02294 0
M  V30 4760 O 467.752 2.43589 -0.664895 0
M  V30 4761 C 469.065 0.196305 -3.00059 0
M  V30 4762 C 470.613 0.269875 -3.11834 0
M  V30 4763 C 471.088 0.157197 -4.5773 0
M  V30 4764 N 472.579 0.214521 -4.62703 0
M  V30 4765 C 473.314 0.150955 -5.73201 0
M  V30 4766 N 472.81 0.0369212 -6.9279 0
M  V30 4767 N 474.603 0.204162 -5.61729 0
M  V30 4768 H 466.754 -0.93279 -1.90821 0
M  V30 4769 H 469.017 -0.359253 -0.877292 0
M  V30 4770 H 468.723 -0.766383 -3.43248 0
M  V30 4771 H 468.597 0.970908 -3.6449 0
M  V30 4772 H 470.984 1.22302 -2.68563 0
M  V30 4773 H 471.065 -0.534918 -2.50144 0
M  V30 4774 H 470.709 -0.792479 -5.01679 0
M  V30 4775 H 470.639 0.980717 -5.17387 0
M  V30 4776 H 473.13 0.303238 -3.76681 0
M  V30 4777 H 473.443 -0.00518321 -7.728 0
M  V30 4778 H 471.788 0.0022886 -6.95 0
M  V30 4779 H 474.979 0.291575 -4.67191 0
M  V30 4780 H 475.152 0.15116 -6.47824 0
M  V30 4781 N 468.558 1.5553 0.254621 0
M  V30 4782 C 469.786 1.81046 1.00149 0
M  V30 4783 C 470.201 0.593047 1.79244 0
M  V30 4784 O 469.558 -0.438196 1.77161 0
M  V30 4785 C 469.609 3.04684 1.94551 0
M  V30 4786 O 469.33 4.21725 1.18658 0
M  V30 4787 C 470.831 3.42943 2.80901 0
M  V30 4788 H 468.051 0.602653 0.295044 0
M  V30 4789 H 470.595 2.02576 0.279842 0
M  V30 4790 H 468.75 2.85226 2.62154 0
M  V30 4791 H 469.164 4.91746 1.82445 0
M  V30 4792 H 470.638 4.32576 3.42902 0
M  V30 4793 H 471.115 2.63176 3.51617 0
M  V30 4794 H 471.721 3.64724 2.18762 0
M  V30 4795 N 470.036 -0.519951 1.48776 0
M  V30 4796 C 471.261 -1.30447 1.6124 0
M  V30 4797 C 471.686 -1.86055 0.276591 0
M  V30 4798 O 471.044 -1.64915 -0.753183 0
M  V30 4799 C 471.092 -2.42406 2.66967 0
M  V30 4800 O 470.196 -3.45728 2.24824 0
M  V30 4801 H 469.537 -0.385924 0.540332 0
M  V30 4802 H 472.067 -0.624572 1.94834 0
M  V30 4803 H 472.077 -2.88447 2.88552 0
M  V30 4804 H 470.752 -2.01294 3.63941 0
M  V30 4805 H 469.329 -3.05737 2.13494 0
M  V30 4806 N 471.514 -1.37532 -0.769588 0
M  V30 4807 C 472.424 -1.35668 -1.91393 0
M  V30 4808 C 473.44 -0.255954 -1.72107 0
M  V30 4809 O 474.616 -0.491704 -1.95305 0
M  V30 4810 C 471.681 -1.16481 -3.26547 0
M  V30 4811 C 470.742 -2.36212 -3.58472 0
M  V30 4812 C 469.975 -2.17932 -4.87177 0
M  V30 4813 O 470.198 -1.1647 -5.58382 0
M  V30 4814 O 469.132 -3.06167 -5.18214 0
M  V30 4815 H 472.958 -2.32055 -1.95918 0
M  V30 4816 H 470.543 -1.18284 -0.912641 0
M  V30 4817 H 472.425 -1.07778 -4.07384 0
M  V30 4818 H 471.1 -0.231687 -3.2287 0
M  V30 4819 H 470.007 -2.50488 -2.77861 0
M  V30 4820 H 471.34 -3.281 -3.66894 0
M  V30 4821 N 472.992 0.995999 -1.22138 0
M  V30 4822 C 474.269 1.70834 -0.952642 0
M  V30 4823 C 474.649 2.04257 0.533119 0
M  V30 4824 O 473.997 1.72343 1.50034 0
M  V30 4825 C 474.207 2.96119 -1.84701 0
M  V30 4826 C 475.555 3.68962 -2.10124 0
M  V30 4827 O 476.579 3.0612 -1.82124 0
M  V30 4828 O 475.438 4.82017 -2.57531 0
M  V30 4829 H 472.532 0.745498 -0.357997 0
M  V30 4830 H 475.078 1.05262 -1.33109 0
M  V30 4831 H 473.85 2.67898 -2.85213 0
M  V30 4832 H 473.473 3.6943 -1.46995 0
M  V30 4833 N 474.47 1.03057 1.19235 0
M  V30 4834 C 475.42 0.583386 2.2041 0
M  V30 4835 C 476.404 -0.368776 1.56617 0
M  V30 4836 O 477.596 -0.189471 1.75983 0
M  V30 4837 C 474.725 -0.0626534 3.43243 0
M  V30 4838 C 473.811 0.91205 4.14177 0
M  V30 4839 N 474.202 2.07514 4.61272 0
M  V30 4840 C 472.5 0.735859 4.39888 0
M  V30 4841 C 473.201 2.69003 5.15764 0
M  V30 4842 N 472.177 1.96954 5.06666 0
M  V30 4843 H 475.979 1.46988 2.54503 0
M  V30 4844 H 473.493 0.897785 1.35328 0
M  V30 4845 H 475.49 -0.400653 4.1497 0
M  V30 4846 H 474.15 -0.944813 3.1065 0
M  V30 4847 H 475.161 2.45448 4.56043 0
M  V30 4848 H 471.838 -0.0970656 4.17387 0
M  V30 4849 H 473.228 3.67514 5.6248 0
M  V30 4850 N 475.948 -1.35272 0.808662 0
M  V30 4851 C 477.195 -1.98709 0.390003 0
M  V30 4852 C 477.523 -1.64148 -1.04335 0
M  V30 4853 O 476.778 -0.897797 -1.73891 0
M  V30 4854 C 477.077 -3.53556 0.522798 0
M  V30 4855 C 476.743 -4.0799 1.91977 0
M  V30 4856 C 475.405 -4.22568 2.30195 0
M  V30 4857 C 477.757 -4.37442 2.83361 0
M  V30 4858 C 475.085 -4.63918 3.59162 0
M  V30 4859 C 477.437 -4.80232 4.11776 0
M  V30 4860 C 476.101 -4.93016 4.49991 0
M  V30 4861 H 475.371 -0.727127 0.142712 0
M  V30 4862 H 478.018 -1.6145 1.02985 0
M  V30 4863 H 476.323 -3.91287 -0.200494 0
M  V30 4864 H 478.02 -4.00598 0.179608 0
M  V30 4865 H 474.61 -3.97096 1.61284 0
M  V30 4866 H 478.794 -4.25731 2.55083 0
M  V30 4867 H 474.05 -4.72005 3.88615 0
M  V30 4868 H 478.224 -5.01982 4.82687 0
M  V30 4869 H 475.851 -5.24814 5.49976 0
M  V30 4870 N 477.426 -0.562348 -1.47226 0
M  V30 4871 C 478.358 0.220011 -2.28142 0
M  V30 4872 C 479.371 0.874596 -1.37312 0
M  V30 4873 O 480.56 0.747583 -1.62091 0
M  V30 4874 C 477.66 1.32953 -3.11732 0
M  V30 4875 C 476.833 0.770759 -4.30556 0
M  V30 4876 C 475.892 1.76541 -4.95701 0
M  V30 4877 O 474.918 1.3095 -5.53932 0
M  V30 4878 N 476.12 3.09896 -4.90861 0
M  V30 4879 H 478.885 -0.474107 -2.95926 0
M  V30 4880 H 476.446 -0.398761 -1.56912 0
M  V30 4881 H 478.438 1.99378 -3.5218 0
M  V30 4882 H 477.008 1.92681 -2.46156 0
M  V30 4883 H 476.228 -0.0704056 -3.94137 0
M  V30 4884 H 477.516 0.376872 -5.07402 0
M  V30 4885 H 476.914 3.49577 -4.44761 0
M  V30 4886 H 475.471 3.71865 -5.35313 0
M  V30 4887 N 478.904 1.54736 -0.299062 0
M  V30 4888 C 480.315 1.8569 0.193971 0
M  V30 4889 C 480.666 1.22101 1.53577 0
M  V30 4890 O 479.791 0.51799 2.10109 0
M  V30 4891 C 480.386 3.36895 0.358733 0
M  V30 4892 C 478.945 3.67887 0.795986 0
M  V30 4893 C 478.092 2.77131 -0.096807 0
M  V30 4894 H 481.043 1.49934 -0.520134 0
M  V30 4895 H 481.064 3.61294 1.19361 0
M  V30 4896 H 480.576 3.83148 -0.617998 0
M  V30 4897 H 478.677 3.27151 1.78334 0
M  V30 4898 H 478.79 4.75114 0.616718 0
M  V30 4899 H 477.154 2.51153 0.423581 0
M  V30 4900 H 477.937 3.26204 -1.06986 0
M  V30 4901 N 480.382 0.0267497 1.57577 0
M  V30 4902 C 481.629 -0.652404 1.91703 0
M  V30 4903 C 481.957 -1.72271 0.902936 0
M  V30 4904 O 481.212 -1.955 -0.0884843 0
M  V30 4905 C 481.511 -1.30914 3.3256 0
M  V30 4906 C 481.177 -0.369441 4.49384 0
M  V30 4907 C 479.839 -0.110791 4.81072 0
M  V30 4908 C 482.191 0.275971 5.20469 0
M  V30 4909 C 479.519 0.801116 5.81205 0
M  V30 4910 C 481.871 1.17592 6.21575 0
M  V30 4911 C 480.535 1.44348 6.51705 0
M  V30 4912 H 479.805 -0.238732 0.70149 0
M  V30 4913 H 482.452 0.0880091 1.91298 0
M  V30 4914 H 480.757 -2.12425 3.29216 0
M  V30 4915 H 482.454 -1.84115 3.56234 0
M  V30 4916 H 479.044 -0.581211 4.24641 0
M  V30 4917 H 483.228 0.0892 4.9622 0
M  V30 4918 H 478.484 1.01614 6.02897 0
M  V30 4919 H 482.658 1.68223 6.75777 0
M  V30 4920 H 480.285 2.15176 7.29111 0
M  V30 4921 N 481.861 -1.55662 -0.24637 0
M  V30 4922 C 483.108 -1.77519 -0.974335 0
M  V30 4923 C 483.436 -0.591165 -1.85298 0
M  V30 4924 O 482.691 0.425497 -1.91018 0
M  V30 4925 C 482.99 -3.04885 -1.86494 0
M  V30 4926 C 482.656 -4.36209 -1.14161 0
M  V30 4927 C 481.318 -4.71896 -0.941701 0
M  V30 4928 C 483.67 -5.17391 -0.628957 0
M  V30 4929 C 480.998 -5.86299 -0.216852 0
M  V30 4930 C 483.35 -6.32546 0.0824273 0
M  V30 4931 C 482.014 -6.66853 0.293807 0
M  V30 4932 H 481.284 -0.649588 -0.356535 0
M  V30 4933 H 483.931 -1.89934 -0.244394 0
M  V30 4934 H 482.236 -2.87484 -2.66196 0
M  V30 4935 H 483.933 -3.18994 -2.42989 0
M  V30 4936 H 480.523 -4.08174 -1.30736 0
M  V30 4937 H 484.707 -4.90276 -0.770943 0
M  V30 4938 H 479.963 -6.11385 -0.0426124 0
M  V30 4939 H 484.137 -6.94693 0.487292 0
M  V30 4940 H 481.764 -7.55349 0.857428 0
M  V30 4941 N 483.339 0.512053 -1.4905 0
M  V30 4942 C 484.287 1.63568 -1.65373 0
M  V30 4943 C 485.281 1.61228 -0.519806 0
M  V30 4944 O 486.487 1.65869 -0.699101 0
M  V30 4945 H 482.862 0.542019 -0.521267 0
M  V30 4946 H 484.833 1.4695 -2.59708 0
M  V30 4947 C 483.582 3.01761 -1.7273 0
M  V30 4948 H 482.905 3.04263 -2.59353 0
M  V30 4949 H 484.345 3.79948 -1.8819 0
M  V30 4950 C 482.804 3.33609 -0.46973 0
M  V30 4951 O 483.334 3.99607 0.409492 0
M  V30 4952 N 481.54 2.88651 -0.336003 0
M  V30 4953 H 481.087 2.35119 -1.05247 0
M  V30 4954 H 481.045 3.10328 0.504363 0
M  V30 4955 N 484.817 1.37938 0.762283 0
M  V30 4956 C 485.727 1.36681 1.90671 0
M  V30 4957 C 486.743 0.265078 1.71969 0
M  V30 4958 O 487.919 0.502055 1.95042 0
M  V30 4959 C 484.984 1.18211 3.25925 0
M  V30 4960 C 484.045 2.3811 3.57214 0
M  V30 4961 C 483.278 2.20512 4.86014 0
M  V30 4962 O 483.501 1.19429 5.57757 0
M  V30 4963 O 482.435 3.08911 5.16583 0
M  V30 4964 H 486.261 2.33091 1.94685 0
M  V30 4965 H 483.846 1.18767 0.906356 0
M  V30 4966 H 485.728 1.09937 4.06807 0
M  V30 4967 H 484.403 0.248807 3.22742 0
M  V30 4968 H 483.31 2.51958 2.76529 0
M  V30 4969 H 484.643 3.30041 3.65149 0
M  V30 4970 N 486.295 -0.989507 1.22664 0
M  V30 4971 C 487.242 -2.08024 0.999733 0
M  V30 4972 C 488.212 -1.65909 -0.0797047 0
M  V30 4973 O 489.397 -1.90669 0.0705715 0
M  V30 4974 C 486.537 -3.40067 0.587234 0
M  V30 4975 C 485.65 -3.95505 1.73781 0
M  V30 4976 C 484.785 -5.15722 1.27297 0
M  V30 4977 C 483.824 -5.63305 2.39488 0
M  V30 4978 N 482.961 -6.74758 1.94026 0
M  V30 4979 H 487.801 -2.26768 1.9334 0
M  V30 4980 H 485.338 -1.11171 0.963297 0
M  V30 4981 H 487.296 -4.15899 0.329227 0
M  V30 4982 H 485.926 -3.21314 -0.309426 0
M  V30 4983 H 484.978 -3.16513 2.11006 0
M  V30 4984 H 486.29 -4.26797 2.58158 0
M  V30 4985 H 485.444 -5.98854 0.972546 0
M  V30 4986 H 484.183 -4.86061 0.399445 0
M  V30 4987 H 483.188 -4.78759 2.70315 0
M  V30 4988 H 484.413 -5.94988 3.27362 0
M  V30 4989 H 482.359 -6.46874 1.09041 0
M  V30 4990 H 482.276 -7.05386 2.71968 0
M  V30 4991 H 483.544 -7.61387 1.67062 0
M  V30 4992 N 487.773 -1.03688 -1.18687 0
M  V30 4993 C 489.001 -0.757918 -1.92518 0
M  V30 4994 C 489.416 0.684398 -1.75959 0
M  V30 4995 O 488.773 1.46617 -1.08673 0
M  V30 4996 C 488.824 -1.10985 -3.44042 0
M  V30 4997 O 488.545 -2.49554 -3.60076 0
M  V30 4998 C 490.046 -0.854844 -4.3498 0
M  V30 4999 H 487.266 -0.276699 -0.611293 0
M  V30 5000 H 489.81 -1.38352 -1.50595 0
M  V30 5001 H 487.965 -0.529279 -3.83767 0
M  V30 5002 H 488.379 -2.6291 -4.53849 0
M  V30 5003 H 489.853 -1.15098 -5.39867 0
M  V30 5004 H 490.33 0.210507 -4.38695 0
M  V30 5005 H 490.936 -1.41853 -4.00946 0
M  V30 5006 N 489.251 1.34841 -0.815825 0
M  V30 5007 C 490.498 1.98499 -0.400535 0
M  V30 5008 C 490.826 1.64699 1.03463 0
M  V30 5009 O 490.081 0.907006 1.73412 0
M  V30 5010 C 490.38 3.53273 -0.541541 0
M  V30 5011 C 490.046 4.06966 -1.94138 0
M  V30 5012 C 488.708 4.21341 -2.32433 0
M  V30 5013 C 491.06 4.35933 -2.85677 0
M  V30 5014 C 488.388 4.62007 -3.61617 0
M  V30 5015 C 490.74 4.78042 -4.14317 0
M  V30 5016 C 489.404 4.90622 -4.52599 0
M  V30 5017 H 488.674 0.72636 -0.146566 0
M  V30 5018 H 491.321 1.60902 -1.0384 0
M  V30 5019 H 489.626 3.91387 0.179741 0
M  V30 5020 H 491.323 4.00497 -0.20085 0
M  V30 5021 H 487.913 3.96235 -1.63388 0
M  V30 5022 H 492.097 4.24372 -2.57337 0
M  V30 5023 H 487.353 4.69937 -3.91113 0
M  V30 5024 H 491.527 4.99415 -4.85342 0
M  V30 5025 H 489.154 5.2189 -5.52752 0
M  V30 5026 N 490.729 0.570148 1.46925 0
M  V30 5027 C 491.977 0.0508523 2.02036 0
M  V30 5028 C 492.298 -1.30885 1.44548 0
M  V30 5029 O 491.568 -1.85647 0.625453 0
M  V30 5030 H 490.148 0.0158088 0.746833 0
M  V30 5031 H 492.81 0.743086 1.80178 0
M  V30 5032 H 491.906 -0.027575 3.12088 0
M  V30 5033 N 492.207 -1.54576 0.307264 0
M  V30 5034 C 493.17 -2.22423 -0.553224 0
M  V30 5035 C 494.17 -1.21231 -1.05639 0
M  V30 5036 O 495.36 -1.45923 -0.951419 0
M  V30 5037 C 492.492 -2.91552 -1.76664 0
M  V30 5038 H 493.685 -2.99874 0.0396484 0
M  V30 5039 H 491.238 -1.56192 0.0581629 0
M  V30 5040 H 491.973 -2.18196 -2.39918 0
M  V30 5041 H 491.758 -3.65738 -1.41343 0
M  V30 5042 H 493.248 -3.43292 -2.37783 0
M  V30 5043 N 493.685 -0.035106 -1.57561 0
M  V30 5044 C 494.933 0.64096 -1.91667 0
M  V30 5045 C 495.254 1.72323 -0.912681 0
M  V30 5046 O 494.524 1.95849 0.0449089 0
M  V30 5047 H 493.104 0.239743 -0.707483 0
M  V30 5048 H 495.766 -0.084321 -1.94718 0
M  V30 5049 H 494.862 1.08987 -2.92452 0
M  V30 5050 N 495.163 1.55791 0.238111 0
M  V30 5051 C 496.073 1.94196 1.31625 0
M  V30 5052 C 497.089 0.843545 1.52185 0
M  V30 5053 O 498.265 1.1457 1.65637 0
M  V30 5054 C 495.33 2.2365 2.64918 0
M  V30 5055 C 494.391 3.46971 2.52804 0
M  V30 5056 C 493.624 3.7501 3.79741 0
M  V30 5057 O 493.847 3.04982 4.82019 0
M  V30 5058 O 492.781 4.68525 3.77846 0
M  V30 5059 H 496.607 2.86044 1.02043 0
M  V30 5060 H 494.192 1.42786 0.439603 0
M  V30 5061 H 496.074 2.43863 3.4367 0
M  V30 5062 H 494.749 1.34979 2.94215 0
M  V30 5063 H 493.656 3.32055 1.72309 0
M  V30 5064 H 494.989 4.35971 2.28451 0
M  V30 5065 N 496.642 -0.504142 1.49319 0
M  V30 5066 C 497.605 -1.5883 1.65244 0
M  V30 5067 C 498.605 -1.52009 0.524386 0
M  V30 5068 O 499.795 -1.55218 0.79077 0
M  V30 5069 C 496.927 -2.98481 1.64687 0
M  V30 5070 H 498.12 -1.4604 2.61939 0
M  V30 5071 H 495.673 -0.728144 1.38303 0
M  V30 5072 H 496.408 -3.16751 0.695644 0
M  V30 5073 H 496.193 -3.0484 2.46607 0
M  V30 5074 H 497.683 -3.77256 1.79075 0
M  V30 5075 N 498.12 -1.38341 -0.754957 0
M  V30 5076 C 499.397 -1.24995 -1.50451 0
M  V30 5077 C 499.777 0.149244 -2.10572 0
M  V30 5078 O 499.125 1.15861 -1.96948 0
M  V30 5079 C 499.335 -2.35904 -2.57197 0
M  V30 5080 C 500.683 -2.74262 -3.24138 0
M  V30 5081 O 501.707 -2.35205 -2.67501 0
M  V30 5082 O 500.566 -3.4161 -4.26574 0
M  V30 5083 H 497.66 -0.48872 -0.667144 0
M  V30 5084 H 500.206 -1.50165 -0.790486 0
M  V30 5085 H 498.978 -3.2953 -2.11011 0
M  V30 5086 H 498.601 -2.12291 -3.36182 0
M  V30 5087 N 499.598 0.982988 -1.23187 0
M  V30 5088 C 500.838 1.73903 -1.07412 0
M  V30 5089 C 501.202 1.88146 0.382764 0
M  V30 5090 O 502.403 2.6053 0.661638 0
M  V30 5091 C 500.674 3.10105 -1.77678 0
M  V30 5092 S 502.233 4.01323 -1.77441 0
M  V30 5093 H 499.051 0.598093 -0.384456 0
M  V30 5094 H 501.653 1.17456 -1.56283 0
M  V30 5095 H 500.357 2.97388 -2.82822 0
M  V30 5096 H 499.888 3.71622 -1.29077 0
M  V30 5097 H 501.903 4.89189 -0.831162 0
M  V30 5098 N 501.076 1.04316 1.18135 0
M  V30 5099 C 502.324 0.746542 1.87806 0
M  V30 5100 C 502.645 -0.728082 1.80898 0
M  V30 5101 O 501.915 -1.52554 1.22899 0
M  V30 5102 H 500.495 0.273157 0.695265 0
M  V30 5103 H 503.157 1.32044 1.43354 0
M  V30 5104 H 502.253 1.05362 2.93778 0
M  V30 5105 N 502.554 -1.34406 0.822964 0
M  V30 5106 C 503.484 -2.32052 0.259608 0
M  V30 5107 C 504.465 -1.58243 -0.623961 0
M  V30 5108 O 505.65 -1.86224 -0.55083 0
M  V30 5109 C 502.78 -3.42434 -0.579314 0
M  V30 5110 C 501.734 -4.27499 0.20712 0
M  V30 5111 C 501.06 -5.29349 -0.754547 0
M  V30 5112 C 502.36 -5.02758 1.41533 0
M  V30 5113 H 504.054 -2.79418 1.07545 0
M  V30 5114 H 501.6 -1.34338 0.518593 0
M  V30 5115 H 503.553 -4.0976 -0.983612 0
M  V30 5116 H 502.277 -2.93717 -1.4282 0
M  V30 5117 H 500.936 -3.61776 0.592787 0
M  V30 5118 H 500.584 -4.76895 -1.59939 0
M  V30 5119 H 500.284 -5.8714 -0.232561 0
M  V30 5120 H 501.808 -5.99544 -1.1567 0
M  V30 5121 H 503.222 -5.62938 1.08504 0
M  V30 5122 H 501.619 -5.70123 1.87296 0
M  V30 5123 H 502.689 -4.32451 2.1935 0
M  V30 5124 N 504.032 -0.577932 -1.46621 0
M  V30 5125 C 505.448 -0.239242 -1.57797 0
M  V30 5126 C 505.648 1.25843 -1.57371 0
M  V30 5127 O 504.704 2.03988 -1.48813 0
M  V30 5128 C 506.017 -0.884227 -2.87405 0
M  V30 5129 C 507.565 -0.857373 -3.01028 0
M  V30 5130 C 508.04 -1.48181 -4.33366 0
M  V30 5131 N 509.531 -1.44593 -4.40053 0
M  V30 5132 C 510.266 -1.89852 -5.41058 0
M  V30 5133 N 509.762 -2.43062 -6.48762 0
M  V30 5134 N 511.555 -1.80797 -5.3223 0
M  V30 5135 H 503.706 -1.55073 -1.45142 0
M  V30 5136 H 505.969 -0.647903 -0.692044 0
M  V30 5137 H 505.675 -1.93759 -2.93514 0
M  V30 5138 H 505.549 -0.389585 -3.75183 0
M  V30 5139 H 507.936 0.187357 -2.94505 0
M  V30 5140 H 508.017 -1.38999 -2.14739 0
M  V30 5141 H 507.661 -2.52572 -4.40647 0
M  V30 5142 H 507.591 -0.924464 -5.18422 0
M  V30 5143 H 510.082 -1.05694 -3.62819 0
M  V30 5144 H 510.395 -2.75466 -7.22038 0
M  V30 5145 H 508.74 -2.47085 -6.49595 0
M  V30 5146 H 511.931 -1.38989 -4.46989 0
M  V30 5147 H 512.104 -2.16385 -6.10804 0
M  V30 5148 N 505.51 1.54411 -0.315457 0
M  V30 5149 C 506.921 1.85885 0.174265 0
M  V30 5150 C 507.272 1.23723 1.52273 0
M  V30 5151 O 506.397 0.540246 2.09548 0
M  V30 5152 C 506.992 3.37257 0.322981 0
M  V30 5153 C 505.551 3.68711 0.756922 0
M  V30 5154 C 504.698 2.77013 -0.126195 0
M  V30 5155 H 507.649 1.49374 -0.536007 0
M  V30 5156 H 507.67 3.62539 1.15522 0
M  V30 5157 H 507.182 3.82471 -0.658602 0
M  V30 5158 H 505.283 3.29024 1.74854 0
M  V30 5159 H 505.396 4.75741 0.566291 0
M  V30 5160 H 503.76 2.51588 0.39692 0
M  V30 5161 H 504.543 3.25051 -1.1044 0
M  V30 5162 N 506.988 0.0434614 1.5754 0
M  V30 5163 C 507.918 -0.931651 2.14109 0
M  V30 5164 C 508.899 -1.32971 1.06079 0
M  V30 5165 O 510.084 -1.40579 1.33982 0
M  V30 5166 C 507.214 -2.20914 2.67982 0
M  V30 5167 C 506.168 -1.95139 3.80926 0
M  V30 5168 C 505.494 -3.29276 4.21285 0
M  V30 5169 C 506.794 -1.27913 5.06395 0
M  V30 5170 H 508.488 -0.460497 2.95837 0
M  V30 5171 H 506.034 -0.220058 1.42309 0
M  V30 5172 H 507.987 -2.89522 3.06194 0
M  V30 5173 H 506.711 -2.70221 1.83434 0
M  V30 5174 H 505.37 -1.28945 3.43175 0
M  V30 5175 H 505.018 -3.76369 3.33699 0
M  V30 5176 H 504.718 -3.12831 4.97404 0
M  V30 5177 H 506.242 -3.99129 4.62091 0
M  V30 5178 H 507.656 -1.86544 5.42102 0
M  V30 5179 H 506.053 -1.2182 5.87605 0
M  V30 5180 H 507.123 -0.254066 4.84234 0
M  V30 5181 N 508.466 -1.55915 -0.229846 0
M  V30 5182 C 509.713 -1.78542 -0.955452 0
M  V30 5183 C 510.041 -0.610785 -1.84661 0
M  V30 5184 O 509.296 0.405213 -1.91459 0
M  V30 5185 C 509.595 -3.06845 -1.8325 0
M  V30 5186 C 509.261 -4.37395 -1.09528 0
M  V30 5187 C 507.923 -4.72868 -0.891598 0
M  V30 5188 C 510.275 -5.18029 -0.574046 0
M  V30 5189 C 507.603 -5.86496 -0.154655 0
M  V30 5190 C 509.955 -6.32423 0.149513 0
M  V30 5191 C 508.619 -6.66504 0.364519 0
M  V30 5192 H 507.889 -0.653333 -0.349625 0
M  V30 5193 H 510.536 -1.90183 -0.224235 0
M  V30 5194 H 508.841 -2.90291 -2.63132 0
M  V30 5195 H 510.538 -3.21553 -2.39592 0
M  V30 5196 H 507.128 -4.09538 -1.26399 0
M  V30 5197 H 511.312 -4.91066 -0.718899 0
M  V30 5198 H 506.568 -6.11396 0.0222356 0
M  V30 5199 H 510.742 -6.94137 0.560947 0
M  V30 5200 H 508.369 -7.54397 0.937495 0
M  V30 5201 N 509.944 0.496216 -1.49584 0
M  V30 5202 C 510.854 1.62352 -1.69349 0
M  V30 5203 C 511.87 1.64184 -0.576147 0
M  V30 5204 O 513.046 1.82517 -0.85144 0
M  V30 5205 C 510.111 2.98698 -1.76013 0
M  V30 5206 C 509.172 3.07454 -2.99617 0
M  V30 5207 C 508.405 4.37296 -3.05953 0
M  V30 5208 O 508.628 5.2637 -2.19752 0
M  V30 5209 O 507.562 4.51124 -3.9846 0
M  V30 5210 H 511.388 1.48606 -2.64859 0
M  V30 5211 H 508.973 0.673022 -1.33382 0
M  V30 5212 H 510.855 3.79725 -1.82721 0
M  V30 5213 H 509.53 3.12696 -0.836828 0
M  V30 5214 H 508.437 2.25597 -2.98424 0
M  V30 5215 H 509.77 2.98385 -3.91443 0
M  V30 5216 N 511.423 1.38739 0.74761 0
M  V30 5217 C 512.37 1.36449 1.86146 0
M  V30 5218 C 513.34 0.226098 1.64554 0
M  V30 5219 O 514.525 0.41926 1.86137 0
M  V30 5220 C 511.665 1.2013 3.23516 0
M  V30 5221 C 510.778 2.43407 3.56899 0
M  V30 5222 C 509.913 2.19773 4.83605 0
M  V30 5223 C 508.952 3.3879 5.09792 0
M  V30 5224 N 508.089 3.14553 6.27695 0
M  V30 5225 H 512.929 2.3167 1.87438 0
M  V30 5226 H 510.466 1.15094 0.916063 0
M  V30 5227 H 512.424 1.08683 4.02795 0
M  V30 5228 H 511.054 0.285453 3.21535 0
M  V30 5229 H 510.106 2.65504 2.72418 0
M  V30 5230 H 511.418 3.32094 3.72176 0
M  V30 5231 H 510.572 2.05496 5.70838 0
M  V30 5232 H 509.311 1.28461 4.70478 0
M  V30 5233 H 508.316 3.53579 4.21025 0
M  V30 5234 H 509.541 4.30986 5.24812 0
M  V30 5235 H 507.487 2.25893 6.1588 0
M  V30 5236 H 507.404 3.96791 6.435 0
M  V30 5237 H 508.672 3.03943 7.17801 0
M  V30 5238 N 512.901 -0.976442 1.23707 0
M  V30 5239 C 513.848 -2.06952 1.02174 0
M  V30 5240 C 514.818 -1.65984 -0.0621034 0
M  V30 5241 O 516.003 -1.90584 0.0907906 0
M  V30 5242 C 513.143 -3.39425 0.62327 0
M  V30 5243 C 512.256 -3.9364 1.77966 0
M  V30 5244 C 511.391 -5.14343 1.3276 0
M  V30 5245 C 510.43 -5.60733 2.45449 0
M  V30 5246 N 509.567 -6.72662 2.01172 0
M  V30 5247 H 514.407 -2.24704 1.95734 0
M  V30 5248 H 511.944 -1.10143 0.975034 0
M  V30 5249 H 513.902 -4.15526 0.37332 0
M  V30 5250 H 512.532 -3.21624 -0.275329 0
M  V30 5251 H 511.584 -3.14258 2.14351 0
M  V30 5252 H 512.896 -4.24035 2.62671 0
M  V30 5253 H 512.05 -5.97789 1.03601 0
M  V30 5254 H 510.789 -4.8561 0.450975 0
M  V30 5255 H 509.794 -4.75865 2.75378 0
M  V30 5256 H 511.019 -5.91483 3.33654 0
M  V30 5257 H 508.965 -6.45681 1.15895 0
M  V30 5258 H 508.882 -7.02462 2.79434 0
M  V30 5259 H 510.15 -7.59572 1.75129 0
M  V30 5260 N 514.379 -1.04941 -1.1758 0
M  V30 5261 C 515.311 -0.606174 -2.21039 0
M  V30 5262 C 516.324 0.328763 -1.59446 0
M  V30 5263 O 517.513 0.121895 -1.78083 0
M  V30 5264 C 514.613 0.133294 -3.38638 0
M  V30 5265 C 513.786 -0.811711 -4.29802 0
M  V30 5266 C 512.845 -0.113958 -5.26077 0
M  V30 5267 O 511.871 -0.747237 -5.64274 0
M  V30 5268 N 513.073 1.14953 -5.69004 0
M  V30 5269 H 515.838 -1.49606 -2.59689 0
M  V30 5270 H 513.399 -0.930997 -1.32454 0
M  V30 5271 H 515.391 0.610144 -4.00074 0
M  V30 5272 H 513.961 0.924816 -2.98607 0
M  V30 5273 H 513.181 -1.46824 -3.65837 0
M  V30 5274 H 514.469 -1.45326 -4.87604 0
M  V30 5275 H 513.867 1.68441 -5.40041 0
M  V30 5276 H 512.424 1.57049 -6.32597 0
M  V30 5277 N 515.857 1.33968 -0.830081 0
M  V30 5278 C 517.103 1.98357 -0.422191 0
M  V30 5279 C 517.436 1.65633 1.01387 0
M  V30 5280 O 516.711 0.931648 1.70735 0
M  V30 5281 C 516.994 3.54492 -0.633043 0
M  V30 5282 C 516.847 3.96934 -2.11574 0
M  V30 5283 C 518.166 4.40039 -0.0735584 0
M  V30 5284 H 515.285 0.720544 -0.154871 0
M  V30 5285 H 517.927 1.58749 -1.04397 0
M  V30 5286 H 516.077 3.88361 -0.103775 0
M  V30 5287 H 517.749 3.73363 -2.7092 0
M  V30 5288 H 515.992 3.46984 -2.60354 0
M  V30 5289 H 516.663 5.05651 -2.21406 0
M  V30 5290 H 519.139 4.12764 -0.52585 0
M  V30 5291 H 518.015 5.48327 -0.250841 0
M  V30 5292 H 518.276 4.30124 1.02202 0
M  V30 5293 N 517.335 0.585699 1.46312 0
M  V30 5294 C 518.267 -0.183687 2.28463 0
M  V30 5295 C 519.28 -0.85264 1.38686 0
M  V30 5296 O 520.469 -0.721701 1.6326 0
M  V30 5297 C 517.569 -1.27977 3.13808 0
M  V30 5298 C 516.742 -0.702164 4.31727 0
M  V30 5299 C 515.801 -1.68633 4.98447 0
M  V30 5300 O 514.827 -1.22121 5.55945 0
M  V30 5301 N 516.029 -3.02047 4.95729 0
M  V30 5302 H 518.794 0.521127 2.95134 0
M  V30 5303 H 516.355 0.423673 1.56258 0
M  V30 5304 H 518.347 -1.9375 3.55307 0
M  V30 5305 H 516.917 -1.8874 2.4919 0
M  V30 5306 H 516.137 0.1331 3.93975 0
M  V30 5307 H 517.425 -0.296101 5.07938 0
M  V30 5308 H 516.823 -3.42457 4.50266 0
M  V30 5309 H 515.38 -3.63301 5.41161 0
M  V30 5310 N 518.813 -1.54241 0.323641 0
M  V30 5311 C 520.09 -1.92741 -0.333181 0
M  V30 5312 C 520.47 -1.25326 -1.69872 0
M  V30 5313 O 519.818 -0.396991 -2.25025 0
M  V30 5314 C 520.028 -3.46399 -0.425322 0
M  V30 5315 C 521.376 -4.19029 -0.68557 0
M  V30 5316 O 522.4 -3.52555 -0.50824 0
M  V30 5317 O 521.259 -5.36751 -1.02767 0
M  V30 5318 H 518.353 -0.804811 -0.190286 0
M  V30 5319 H 520.899 -1.65542 0.373361 0
M  V30 5320 H 519.671 -3.87643 0.533737 0
M  V30 5321 H 519.294 -3.79704 -1.17944 0
M  V30 5322 N 520.291 -0.0518155 -1.57515 0
M  V30 5323 C 521.223 0.951542 -2.08515 0
M  V30 5324 C 522.236 1.27436 -1.01311 0
M  V30 5325 O 523.425 1.23504 -1.28876 0
M  V30 5326 C 520.525 2.27291 -2.5138 0
M  V30 5327 C 519.698 2.13191 -3.81927 0
M  V30 5328 C 518.757 3.28458 -4.11098 0
M  V30 5329 O 517.783 3.04334 -4.81009 0
M  V30 5330 N 518.985 4.52954 -3.63061 0
M  V30 5331 H 521.75 0.516242 -2.9522 0
M  V30 5332 H 519.311 0.13441 -1.61341 0
M  V30 5333 H 521.303 3.03272 -2.67971 0
M  V30 5334 H 519.873 2.62386 -1.69919 0
M  V30 5335 H 519.093 1.21798 -3.74912 0
M  V30 5336 H 520.381 2.00999 -4.67415 0
M  V30 5337 H 519.779 4.75444 -3.06545 0
M  V30 5338 H 518.336 5.26026 -3.84889 0
M  V30 5339 N 521.769 1.56035 0.221574 0
M  V30 5340 C 522.997 1.8313 0.962864 0
M  V30 5341 C 523.412 0.630934 1.77946 0
M  V30 5342 O 522.769 -0.400519 1.78051 0
M  V30 5343 C 522.82 3.08742 1.88045 0
M  V30 5344 O 522.541 4.24147 1.09686 0
M  V30 5345 C 524.042 3.48824 2.73563 0
M  V30 5346 H 521.262 0.608775 0.282194 0
M  V30 5347 H 523.806 2.03124 0.23681 0
M  V30 5348 H 521.961 2.90723 2.56045 0
M  V30 5349 H 522.375 4.95505 1.71974 0
M  V30 5350 H 523.849 4.39752 3.3365 0
M  V30 5351 H 524.326 2.70575 3.45956 0
M  V30 5352 H 524.932 3.69282 2.10976 0
M  V30 5353 N 523.247 -0.488276 1.49845 0
M  V30 5354 C 524.157 -1.61451 1.70207 0
M  V30 5355 C 525.173 -1.63877 0.584846 0
M  V30 5356 O 526.349 -1.82063 0.861107 0
M  V30 5357 C 523.414 -2.9776 1.77594 0
M  V30 5358 C 522.475 -3.05861 3.01243 0
M  V30 5359 C 521.708 -4.35668 3.08268 0
M  V30 5360 O 521.931 -5.25197 2.22541 0
M  V30 5361 O 520.865 -4.49005 4.00847 0
M  V30 5362 H 524.691 -1.47199 2.65643 0
M  V30 5363 H 522.276 -0.665939 1.33737 0
M  V30 5364 H 524.158 -3.7875 1.84732 0
M  V30 5365 H 522.833 -3.12248 0.8534 0
M  V30 5366 H 521.74 -2.24012 2.99616 0
M  V30 5367 H 523.073 -2.96304 3.9302 0
M  V30 5368 N 524.725 -1.39134 -0.740242 0
M  V30 5369 C 525.672 -1.37434 -1.8542 0
M  V30 5370 C 526.642 -0.234822 -1.64432 0
M  V30 5371 O 527.827 -0.429125 -1.85912 0
M  V30 5372 C 524.967 -1.21844 -3.22875 0
M  V30 5373 C 524.08 -2.45296 -3.55603 0
M  V30 5374 C 523.215 -2.22334 -4.82432 0
M  V30 5375 C 522.254 -3.41488 -5.07988 0
M  V30 5376 N 521.391 -3.17877 -6.26018 0
M  V30 5377 H 526.231 -2.3266 -1.86207 0
M  V30 5378 H 523.768 -1.15578 -0.909946 0
M  V30 5379 H 525.726 -1.10818 -4.02213 0
M  V30 5380 H 524.356 -0.3025 -3.21379 0
M  V30 5381 H 523.408 -2.66945 -2.71006 0
M  V30 5382 H 524.72 -3.34063 -3.7041 0
M  V30 5383 H 523.874 -2.0852 -5.69741 0
M  V30 5384 H 522.613 -1.30954 -4.6979 0
M  V30 5385 H 521.618 -3.55807 -4.19144 0
M  V30 5386 H 522.843 -4.33763 -5.22519 0
M  V30 5387 H 520.789 -2.29156 -6.14673 0
M  V30 5388 H 520.706 -4.00198 -6.41387 0
M  V30 5389 H 521.974 -3.07746 -7.16179 0
M  V30 5390 N 526.204 0.969867 -1.24223 0
M  V30 5391 C 527.114 2.09806 -1.0497 0
M  V30 5392 C 528.13 1.73998 0.00886455 0
M  V30 5393 O 529.306 2.00513 -0.188848 0
M  V30 5394 C 526.371 3.40467 -0.654452 0
M  V30 5395 C 525.432 3.90236 -1.78926 0
M  V30 5396 C 524.665 5.14662 -1.41277 0
M  V30 5397 O 524.888 5.69602 -0.301632 0
M  V30 5398 O 523.822 5.58761 -2.23763 0
M  V30 5399 H 527.648 2.28942 -1.99548 0
M  V30 5400 H 525.233 1.08197 -1.03023 0
M  V30 5401 H 527.115 4.19039 -0.445452 0
M  V30 5402 H 525.79 3.22636 0.262216 0
M  V30 5403 H 524.697 3.12735 -2.05299 0
M  V30 5404 H 526.03 4.1254 -2.68462 0
M  V30 5405 N 527.682 1.05563 1.17022 0
M  V30 5406 C 528.612 0.681026 2.23348 0
M  V30 5407 C 529.593 -0.322983 1.67005 0
M  V30 5408 O 530.778 -0.199746 1.9317 0
M  V30 5409 C 527.908 0.0589053 3.4725 0
M  V30 5410 C 526.862 0.988082 4.16438 0
M  V30 5411 C 526.188 0.229646 5.34207 0
M  V30 5412 C 527.488 2.31388 4.68249 0
M  V30 5413 H 529.182 1.56993 2.54938 0
M  V30 5414 H 526.728 0.756302 1.2254 0
M  V30 5415 H 528.681 -0.214982 4.20851 0
M  V30 5416 H 527.405 -0.864968 3.14938 0
M  V30 5417 H 526.064 1.24659 3.44754 0
M  V30 5418 H 525.712 -0.697111 4.98146 0
M  V30 5419 H 525.412 0.848815 5.81437 0
M  V30 5420 H 526.936 -0.0368694 6.10589 0
M  V30 5421 H 528.35 2.09964 5.33468 0
M  V30 5422 H 526.747 2.88736 5.26072 0
M  V30 5423 H 527.817 2.94982 3.84855 0
M  V30 5424 N 529.16 -1.33526 0.837174 0
M  V30 5425 C 530.407 -1.97837 0.432064 0
M  V30 5426 C 530.735 -1.66324 -1.00829 0
M  V30 5427 O 529.99 -0.93448 -1.71948 0
M  V30 5428 C 530.289 -3.52367 0.597675 0
M  V30 5429 C 529.955 -4.03826 2.00587 0
M  V30 5430 C 528.617 -4.1759 2.39106 0
M  V30 5431 C 530.969 -4.31333 2.92576 0
M  V30 5432 C 528.297 -4.56195 3.68921 0
M  V30 5433 C 530.649 -4.7139 4.2187 0
M  V30 5434 C 529.313 -4.8336 4.60347 0
M  V30 5435 H 528.583 -0.723937 0.158104 0
M  V30 5436 H 531.23 -1.5923 1.06387 0
M  V30 5437 H 529.535 -3.91624 -0.117452 0
M  V30 5438 H 531.232 -4.00126 0.26454 0
M  V30 5439 H 527.822 -3.93586 1.69671 0
M  V30 5440 H 532.006 -4.20224 2.64056 0
M  V30 5441 H 527.262 -4.63655 3.9854 0
M  V30 5442 H 531.436 -4.91631 4.93226 0
M  V30 5443 H 529.063 -5.1303 5.60985 0
M  V30 5444 N 530.638 -0.59345 -1.46 0
M  V30 5445 C 531.548 0.135817 -2.34207 0
M  V30 5446 C 532.564 0.875008 -1.50398 0
M  V30 5447 O 533.74 0.835778 -1.83239 0
M  V30 5448 C 530.805 1.12977 -3.27776 0
M  V30 5449 C 529.866 0.394081 -4.27487 0
M  V30 5450 C 529.099 1.34068 -5.16586 0
M  V30 5451 O 529.322 2.5778 -5.08828 0
M  V30 5452 O 528.256 0.845426 -5.95933 0
M  V30 5453 H 532.082 -0.588691 -2.9794 0
M  V30 5454 H 529.667 -0.353784 -1.45151 0
M  V30 5455 H 531.549 1.70261 -3.85473 0
M  V30 5456 H 530.224 1.83556 -2.66625 0
M  V30 5457 H 529.131 -0.220869 -3.73447 0
M  V30 5458 H 530.464 -0.270939 -4.91454 0
M  V30 5459 N 532.116 1.54067 -0.331816 0
M  V30 5460 C 533.341 2.05599 0.272705 0
M  V30 5461 C 533.766 1.2059 1.44359 0
M  V30 5462 O 533.124 0.216907 1.79998 0
M  V30 5463 C 533.172 3.54188 0.677021 0
M  V30 5464 O 532.276 3.72082 1.77844 0
M  V30 5465 H 531.617 0.662286 0.0476801 0
M  V30 5466 H 534.147 1.98826 -0.482624 0
M  V30 5467 H 534.157 3.96608 0.957415 0
M  V30 5468 H 532.832 4.15513 -0.179325 0
M  V30 5469 H 531.409 3.41566 1.49622 0
M  V30 5470 N 533.594 0.0601682 1.57485 0
M  V30 5471 C 534.824 -0.620037 1.97076 0
M  V30 5472 C 535.232 -1.64381 0.936784 0
M  V30 5473 O 534.575 -1.83497 -0.0863377 0
M  V30 5474 C 534.637 -1.35617 3.32939 0
M  V30 5475 C 534.301 -0.487208 4.54396 0
M  V30 5476 C 535.298 0.250428 5.19297 0
M  V30 5477 C 532.983 -0.415494 5.00579 0
M  V30 5478 C 534.977 1.04812 6.28723 0
M  V30 5479 C 532.664 0.385879 6.0988 0
M  V30 5480 C 533.662 1.11637 6.73815 0
M  V30 5481 O 533.35 1.90454 7.81014 0
M  V30 5482 H 533.082 -0.173664 0.653312 0
M  V30 5483 H 535.636 0.1256 2.05016 0
M  V30 5484 H 533.866 -2.14763 3.2158 0
M  V30 5485 H 535.555 -1.92749 3.57215 0
M  V30 5486 H 536.321 0.204546 4.84568 0
M  V30 5487 H 532.2 -0.973679 4.506 0
M  V30 5488 H 535.744 1.6188 6.78558 0
M  V30 5489 H 531.641 0.433366 6.44044 0
M  V30 5490 H 532.409 1.82762 7.97835 0
M  V30 5491 N 535.072 -1.5615 -0.213296 0
M  V30 5492 C 536.321 -1.78743 -0.93455 0
M  V30 5493 C 536.634 -0.630199 -1.8517 0
M  V30 5494 O 537.84 -0.739966 -2.61222 0
M  V30 5495 C 536.296 -3.16571 -1.71203 0
M  V30 5496 C 535.904 -4.40043 -0.840617 0
M  V30 5497 C 537.648 -3.48485 -2.42401 0
M  V30 5498 C 535.555 -5.68895 -1.61592 0
M  V30 5499 H 534.485 -0.666426 -0.352692 0
M  V30 5500 H 537.136 -1.82532 -0.188227 0
M  V30 5501 H 535.518 -3.06981 -2.50157 0
M  V30 5502 H 536.692 -4.6071 -0.0910326 0
M  V30 5503 H 535.007 -4.15706 -0.240365 0
M  V30 5504 H 537.604 -4.41983 -3.00924 0
M  V30 5505 H 537.947 -2.71371 -3.15695 0
M  V30 5506 H 538.48 -3.59442 -1.7043 0
M  V30 5507 H 535.219 -6.48925 -0.926106 0
M  V30 5508 H 534.739 -5.52275 -2.33991 0
M  V30 5509 H 536.418 -6.09365 -2.17447 0
M  V30 5510 N 536.55 0.480323 -1.50102 0
M  V30 5511 C 537.46 1.60547 -1.71061 0
M  V30 5512 C 538.476 1.63564 -0.593529 0
M  V30 5513 O 539.652 1.81604 -0.870751 0
M  V30 5514 C 536.717 2.96814 -1.79171 0
M  V30 5515 C 535.778 3.04259 -3.02861 0
M  V30 5516 C 535.011 4.34027 -3.10574 0
M  V30 5517 O 535.234 5.24009 -2.25323 0
M  V30 5518 O 534.168 4.46873 -4.03223 0
M  V30 5519 H 537.994 1.45788 -2.6642 0
M  V30 5520 H 535.579 0.658838 -1.34088 0
M  V30 5521 H 537.461 3.77765 -1.86738 0
M  V30 5522 H 536.136 3.11791 -0.869947 0
M  V30 5523 H 535.043 2.22419 -3.008 0
M  V30 5524 H 536.376 2.94216 -3.94586 0
M  V30 5525 N 538.028 1.39524 0.732853 0
M  V30 5526 C 539.276 1.36594 1.48951 0
M  V30 5527 C 539.597 -0.0367507 1.94965 0
M  V30 5528 O 538.867 -0.988391 1.69138 0
M  V30 5529 H 537.447 0.502673 0.552566 0
M  V30 5530 H 540.109 1.74411 0.869869 0
M  V30 5531 H 539.205 2.03 2.3706 0
M  V30 5532 N 539.506 -0.963266 1.24736 0
M  V30 5533 C 540.922 -1.23273 1.01371 0
M  V30 5534 C 541.122 -1.99618 -0.274776 0
M  V30 5535 O 540.178 -2.32293 -0.989769 0
M  V30 5536 C 541.491 -2.01554 2.23152 0
M  V30 5537 C 543.039 -2.14629 2.27823 0
M  V30 5538 C 543.514 -2.96307 3.49237 0
M  V30 5539 N 545.005 -3.03887 3.49581 0
M  V30 5540 C 545.74 -3.67456 4.40186 0
M  V30 5541 N 545.236 -4.32706 5.41052 0
M  V30 5542 N 547.029 -3.64511 4.27888 0
M  V30 5543 H 539.18 -0.452294 2.07528 0
M  V30 5544 H 541.443 -0.262521 0.910926 0
M  V30 5545 H 541.149 -1.52847 3.1675 0
M  V30 5546 H 541.023 -3.02278 2.25628 0
M  V30 5547 H 543.41 -2.62537 1.34753 0
M  V30 5548 H 543.491 -1.13238 2.2937 0
M  V30 5549 H 543.135 -2.49091 4.42624 0
M  V30 5550 H 543.065 -3.97905 3.44933 0
M  V30 5551 H 545.556 -2.57477 2.76611 0
M  V30 5552 H 545.869 -4.79042 6.06415 0
M  V30 5553 H 544.214 -4.31361 5.44934 0
M  V30 5554 H 547.405 -3.12715 3.4832 0
M  V30 5555 H 547.578 -4.13768 4.98698 0
M  V30 5556 N 540.985 -1.06182 -1.16461 0
M  V30 5557 C 542.234 -0.772927 -1.86303 0
M  V30 5558 C 542.547 0.703187 -1.82523 0
M  V30 5559 O 543.753 1.10641 -2.47933 0
M  V30 5560 C 542.209 -1.33249 -3.34324 0
M  V30 5561 C 541.817 -2.83876 -3.46581 0
M  V30 5562 C 543.561 -1.12108 -4.09429 0
M  V30 5563 C 541.468 -3.33082 -4.88682 0
M  V30 5564 H 540.398 -0.285452 -0.697878 0
M  V30 5565 H 543.049 -1.28039 -1.31447 0
M  V30 5566 H 541.431 -0.7528 -3.88779 0
M  V30 5567 H 542.605 -3.47786 -3.02293 0
M  V30 5568 H 540.92 -3.03671 -2.84909 0
M  V30 5569 H 543.517 -1.46361 -5.14279 0
M  V30 5570 H 543.86 -0.0593832 -4.16258 0
M  V30 5571 H 544.393 -1.6665 -3.6121 0
M  V30 5572 H 541.132 -4.38726 -4.87032 0
M  V30 5573 H 540.652 -2.73919 -5.33599 0
M  V30 5574 H 542.331 -3.28344 -5.57494 0
M  V30 5575 N 542.463 1.3308 -0.844243 0
M  V30 5576 C 543.709 1.97898 -0.443206 0
M  V30 5577 C 544.042 1.66699 0.99625 0
M  V30 5578 O 543.317 0.949704 1.69738 0
M  V30 5579 C 543.6 3.53801 -0.670606 0
M  V30 5580 C 543.453 3.94667 -2.15772 0
M  V30 5581 C 544.772 4.39936 -0.120226 0
M  V30 5582 H 541.891 0.718861 -0.162504 0
M  V30 5583 H 544.533 1.57633 -1.06075 0
M  V30 5584 H 542.683 3.88229 -0.14496 0
M  V30 5585 H 544.355 3.70469 -2.74865 0
M  V30 5586 H 542.598 3.44203 -2.6402 0
M  V30 5587 H 543.269 5.03275 -2.26757 0
M  V30 5588 H 545.745 4.12183 -0.5696 0
M  V30 5589 H 544.621 5.4803 -0.308984 0
M  V30 5590 H 544.882 4.31184 0.976347 0
M  V30 5591 N 543.941 0.601185 1.45683 0
M  V30 5592 C 544.851 -0.123395 2.34275 0
M  V30 5593 C 545.867 -0.86702 1.5086 0
M  V30 5594 O 547.043 -0.826049 1.8368 0
M  V30 5595 C 544.108 -1.11237 3.2837 0
M  V30 5596 C 543.169 -0.371405 4.2769 0
M  V30 5597 C 542.402 -1.31327 5.1729 0
M  V30 5598 O 542.625 -2.55078 5.10188 0
M  V30 5599 O 541.559 -0.813811 5.96373 0
M  V30 5600 H 545.385 0.604483 2.97623 0
M  V30 5601 H 542.97 0.361477 1.44961 0
M  V30 5602 H 544.852 -1.68214 3.8637 0
M  V30 5603 H 543.527 -1.82139 2.67595 0
M  V30 5604 H 542.434 0.24067 3.73325 0
M  V30 5605 H 543.767 0.296998 4.91303 0
M  V30 5606 N 545.419 -1.53889 0.339982 0
M  V30 5607 C 546.667 -2.00458 -0.257112 0
M  V30 5608 C 546.988 -1.22953 -1.51353 0
M  V30 5609 O 546.258 -0.335734 -1.93002 0
M  V30 5610 H 544.838 -0.740544 -0.0979965 0
M  V30 5611 H 547.5 -1.89386 0.460317 0
M  V30 5612 H 546.596 -3.08035 -0.502057 0
M  V30 5613 N 546.897 -0.0685191 -1.57451 0
M  V30 5614 C 547.829 0.929372 -2.09512 0
M  V30 5615 C 548.842 1.26354 -1.02657 0
M  V30 5616 O 550.031 1.2213 -1.30179 0
M  V30 5617 C 547.131 2.24612 -2.53777 0
M  V30 5618 C 546.304 2.09128 -3.84167 0
M  V30 5619 C 545.363 3.24079 -4.14559 0
M  V30 5620 O 544.389 2.99215 -4.8421 0
M  V30 5621 N 545.591 4.49077 -3.67845 0
M  V30 5622 H 548.356 0.484901 -2.95751 0
M  V30 5623 H 545.917 0.11729 -1.61475 0
M  V30 5624 H 547.909 3.00412 -2.71172 0
M  V30 5625 H 546.479 2.60569 -1.72692 0
M  V30 5626 H 545.699 1.17815 -3.76182 0
M  V30 5627 H 546.987 1.9603 -4.69521 0
M  V30 5628 H 546.385 4.72165 -3.11571 0
M  V30 5629 H 544.942 5.21915 -3.90446 0
M  V30 5630 N 548.375 1.56261 0.205012 0
M  V30 5631 C 549.652 1.70856 0.952233 0
M  V30 5632 C 550.032 0.620501 2.01775 0
M  V30 5633 O 549.38 -0.370035 2.25484 0
M  V30 5634 C 549.59 3.12807 1.54767 0
M  V30 5635 C 550.938 3.72733 2.0336 0
M  V30 5636 O 551.962 3.15873 1.64629 0
M  V30 5637 O 550.821 4.72501 2.746 0
M  V30 5638 H 547.915 0.696496 0.445895 0
M  V30 5639 H 550.461 1.6857 0.195489 0
M  V30 5640 H 549.233 3.83465 0.779132 0
M  V30 5641 H 548.856 3.1928 2.36951 0
M  V30 5642 N 549.853 -0.472356 1.50355 0
M  V30 5643 C 550.816 -1.5529 1.68576 0
M  V30 5644 C 551.816 -1.50863 0.556511 0
M  V30 5645 O 553.006 -1.53505 0.823516 0
M  V30 5646 C 550.138 -2.94921 1.70981 0
M  V30 5647 H 551.331 -1.40451 2.64978 0
M  V30 5648 H 548.884 -0.698645 1.39816 0
M  V30 5649 H 549.619 -3.15204 0.762675 0
M  V30 5650 H 549.404 -2.99541 2.53017 0
M  V30 5651 H 550.894 -3.73372 1.87037 0
M  V30 5652 N 551.331 -1.39911 -0.725443 0
M  V30 5653 C 552.241 -1.41688 -1.8698 0
M  V30 5654 C 553.257 -0.310579 -1.71206 0
M  V30 5655 O 554.433 -0.55359 -1.93642 0
M  V30 5656 C 551.498 -1.26811 -3.22676 0
M  V30 5657 C 550.559 -2.47497 -3.50776 0
M  V30 5658 C 549.792 -2.3332 -4.79997 0
M  V30 5659 O 550.015 -1.34175 -5.54394 0
M  V30 5660 O 548.949 -3.22498 -5.08211 0
M  V30 5661 H 552.775 -2.38171 -1.88436 0
M  V30 5662 H 550.36 -1.21128 -0.874548 0
M  V30 5663 H 552.242 -1.20684 -4.03749 0
M  V30 5664 H 550.917 -0.334289 -3.21969 0
M  V30 5665 H 549.824 -2.59201 -2.69751 0
M  V30 5666 H 551.157 -3.39606 -3.5627 0
M  V30 5667 N 552.809 0.956637 -1.25245 0
M  V30 5668 C 554.055 1.70352 -1.10036 0
M  V30 5669 C 554.388 1.90869 0.358156 0
M  V30 5670 O 553.663 1.47819 1.26411 0
M  V30 5671 C 553.946 3.08766 -1.85298 0
M  V30 5672 C 553.799 2.95672 -3.38966 0
M  V30 5673 C 555.118 4.08622 -1.63451 0
M  V30 5674 H 552.237 0.618279 -0.401123 0
M  V30 5675 H 554.879 1.11212 -1.54051 0
M  V30 5676 H 553.029 3.59252 -1.47887 0
M  V30 5677 H 554.701 2.52527 -3.86041 0
M  V30 5678 H 552.944 2.31634 -3.6678 0
M  V30 5679 H 553.615 3.93776 -3.86839 0
M  V30 5680 H 556.091 3.67038 -1.96015 0
M  V30 5681 H 554.967 5.03514 -2.18551 0
M  V30 5682 H 555.228 4.3834 -0.575357 0
M  V30 5683 N 554.287 1.06798 1.15896 0
M  V30 5684 C 555.535 0.786211 1.8618 0
M  V30 5685 C 555.856 -0.689547 1.82401 0
M  V30 5686 O 555.126 -1.49913 1.26107 0
M  V30 5687 H 553.706 0.287843 0.689315 0
M  V30 5688 H 556.368 1.35055 1.40521 0
M  V30 5689 H 555.464 1.1157 2.91477 0
M  V30 5690 N 555.766 -1.3263 0.851289 0
M  V30 5691 C 556.696 -2.31449 0.308771 0
M  V30 5692 C 557.677 -1.59531 -0.590255 0
M  V30 5693 O 558.862 -1.87351 -0.511205 0
M  V30 5694 C 555.992 -3.43586 -0.506548 0
M  V30 5695 C 554.946 -4.26963 0.297753 0
M  V30 5696 C 554.272 -5.30831 -0.642094 0
M  V30 5697 C 555.572 -4.99643 1.52166 0
M  V30 5698 H 557.266 -2.77074 1.13447 0
M  V30 5699 H 554.812 -1.33207 0.546971 0
M  V30 5700 H 556.765 -4.11754 -0.896474 0
M  V30 5701 H 555.489 -2.96681 -1.36558 0
M  V30 5702 H 554.148 -3.60437 0.669391 0
M  V30 5703 H 553.796 -4.8018 -1.49788 0
M  V30 5704 H 553.496 -5.87501 -0.107968 0
M  V30 5705 H 555.02 -6.01862 -1.02927 0
M  V30 5706 H 556.434 -5.6051 1.20421 0
M  V30 5707 H 554.831 -5.66022 1.99347 0
M  V30 5708 H 555.901 -4.27701 2.28474 0
M  V30 5709 N 557.244 -0.608902 -1.45362 0
M  V30 5710 C 558.469 -0.10921 -2.07112 0
M  V30 5711 C 558.894 1.19779 -1.45033 0
M  V30 5712 O 558.252 1.72961 -0.543527 0
M  V30 5713 C 558.3 0.0155745 -3.60597 0
M  V30 5714 O 557.404 1.06546 -3.98399 0
M  V30 5715 H 556.745 -0.0746619 -0.659789 0
M  V30 5716 H 559.275 -0.839283 -1.86594 0
M  V30 5717 H 559.285 0.213364 -4.07442 0
M  V30 5718 H 557.96 -0.938765 -4.05167 0
M  V30 5719 H 556.537 0.844024 -3.63223 0
M  V30 5720 N 558.722 1.53707 -0.348139 0
M  V30 5721 C 560.133 1.86213 0.134797 0
M  V30 5722 C 560.484 1.26925 1.49614 0
M  V30 5723 O 559.609 0.584573 2.08355 0
M  V30 5724 C 560.204 3.37866 0.251371 0
M  V30 5725 C 558.763 3.70233 0.678543 0
M  V30 5726 C 557.91 2.76683 -0.184925 0
M  V30 5727 H 560.861 1.48204 -0.567571 0
M  V30 5728 H 560.882 3.64908 1.07806 0
M  V30 5729 H 560.394 3.80988 -0.739581 0
M  V30 5730 H 558.495 3.32659 1.67835 0
M  V30 5731 H 558.608 4.76836 0.465251 0
M  V30 5732 H 556.972 2.52374 0.343465 0
M  V30 5733 H 557.755 3.22635 -1.1731 0
M  V30 5734 N 560.2 0.0768682 1.57412 0
M  V30 5735 C 561.446 -0.585926 1.94778 0
M  V30 5736 C 561.801 -1.66912 0.956982 0
M  V30 5737 O 561.094 -1.9159 -0.0199454 0
M  V30 5738 C 561.288 -1.20268 3.36557 0
M  V30 5739 C 561.117 -0.18076 4.49337 0
M  V30 5740 C 559.887 0.236362 5.04747 0
M  V30 5741 C 562.085 0.583978 5.10974 0
M  V30 5742 N 560.067 1.24846 6.01071 0
M  V30 5743 C 561.438 1.44841 6.02844 0
M  V30 5744 C 563.493 0.639492 4.93776 0
M  V30 5745 C 562.196 2.36343 6.79363 0
M  V30 5746 C 564.222 1.54204 5.70942 0
M  V30 5747 C 563.584 2.39414 6.62465 0
M  V30 5748 H 559.683 -0.185281 0.759734 0
M  V30 5749 H 562.267 0.155193 1.9408 0
M  V30 5750 H 560.438 -1.9137 3.37982 0
M  V30 5751 H 562.17 -1.82636 3.61146 0
M  V30 5752 H 558.925 -0.14777 4.73369 0
M  V30 5753 H 559.349 1.75217 6.53933 0
M  V30 5754 H 563.991 -0.00510074 4.228 0
M  V30 5755 H 561.709 3.01836 7.49614 0
M  V30 5756 H 565.295 1.5899 5.59655 0
M  V30 5757 H 564.175 3.0812 7.21132 0
M  V30 5758 N 561.678 -1.56367 -0.196722 0
M  V30 5759 C 562.61 -1.90941 -1.26784 0
M  V30 5760 C 563.623 -0.799928 -1.41792 0
M  V30 5761 O 564.812 -1.07833 -1.42247 0
M  V30 5762 C 561.912 -2.12477 -2.6402 0
M  V30 5763 C 561.085 -3.43616 -2.70641 0
M  V30 5764 C 560.144 -3.54284 -3.89062 0
M  V30 5765 O 559.17 -4.2712 -3.76241 0
M  V30 5766 N 560.372 -2.87252 -5.04447 0
M  V30 5767 H 563.137 -2.83417 -0.974417 0
M  V30 5768 H 560.698 -1.57215 -0.386649 0
M  V30 5769 H 562.69 -2.16904 -3.41665 0
M  V30 5770 H 561.26 -1.26508 -2.85857 0
M  V30 5771 H 560.48 -3.51072 -1.79283 0
M  V30 5772 H 561.768 -4.29958 -2.72054 0
M  V30 5773 H 561.166 -2.27901 -5.17762 0
M  V30 5774 H 559.723 -2.97308 -5.80044 0
M  V30 5775 N 563.156 0.464375 -1.50603 0
M  V30 5776 C 564.402 1.21776 -1.62168 0
M  V30 5777 C 564.735 1.91476 -0.324154 0
M  V30 5778 O 564.01 1.8242 0.674782 0
M  V30 5779 C 564.293 2.25614 -2.80661 0
M  V30 5780 C 564.146 1.60175 -4.20314 0
M  V30 5781 C 565.465 3.26862 -2.94702 0
M  V30 5782 H 562.584 0.44137 -0.590222 0
M  V30 5783 H 565.226 0.510623 -1.8301 0
M  V30 5784 H 563.376 2.85923 -2.63021 0
M  V30 5785 H 565.048 1.03411 -4.4956 0
M  V30 5786 H 563.291 0.904697 -4.24261 0
M  V30 5787 H 563.962 2.35665 -4.99165 0
M  V30 5788 H 566.438 2.76582 -3.10872 0
M  V30 5789 H 565.314 3.96839 -3.79223 0
M  V30 5790 H 565.575 3.91382 -2.05603 0
M  V30 5791 N 564.634 1.40294 0.718013 0
M  V30 5792 C 565.567 1.34767 1.84155 0
M  V30 5793 C 566.545 0.218455 1.61126 0
M  V30 5794 O 567.729 0.401716 1.8417 0
M  V30 5795 C 564.856 1.09676 3.20451 0
M  V30 5796 C 563.902 2.25016 3.62312 0
M  V30 5797 S 564.735 3.87397 3.69707 0
M  V30 5798 C 565.891 3.64565 5.08766 0
M  V30 5799 H 566.124 2.29851 1.88562 0
M  V30 5800 H 563.657 1.2655 0.884555 0
M  V30 5801 H 565.615 0.95885 3.99144 0
M  V30 5802 H 564.276 0.162502 3.13679 0
M  V30 5803 H 563.469 2.03097 4.61268 0
M  V30 5804 H 563.071 2.35098 2.90869 0
M  V30 5805 H 565.363 3.22882 5.95612 0
M  V30 5806 H 566.306 4.63043 5.35721 0
M  V30 5807 H 566.714 2.98303 4.79245 0
M  V30 5808 N 566.112 -0.949982 1.2575 0
M  V30 5809 C 567.042 -2.06483 1.09028 0
M  V30 5810 C 568.023 -1.701 -0.00201532 0
M  V30 5811 O 569.208 -1.93469 0.168383 0
M  V30 5812 C 566.338 -3.39899 0.71316 0
M  V30 5813 C 565.292 -3.90309 1.75621 0
M  V30 5814 C 564.618 -5.20274 1.23365 0
M  V30 5815 C 565.918 -4.16169 3.15596 0
M  V30 5816 H 567.612 -2.20731 2.02283 0
M  V30 5817 H 565.158 -1.06066 0.973964 0
M  V30 5818 H 567.111 -4.17346 0.58309 0
M  V30 5819 H 565.835 -3.25602 -0.255091 0
M  V30 5820 H 564.494 -3.15035 1.8748 0
M  V30 5821 H 564.142 -5.02351 0.255491 0
M  V30 5822 H 563.842 -5.54971 1.93082 0
M  V30 5823 H 565.366 -6.00314 1.11607 0
M  V30 5824 H 566.78 -4.84259 3.06864 0
M  V30 5825 H 565.177 -4.62131 3.82825 0
M  V30 5826 H 566.247 -3.22273 3.6231 0
M  V30 5827 N 567.59 -1.07411 -1.15328 0
M  V30 5828 C 568.837 -0.797649 -1.86128 0
M  V30 5829 C 569.165 0.676298 -1.82364 0
M  V30 5830 O 568.42 1.51223 -1.24218 0
M  V30 5831 C 568.719 -1.25191 -3.34757 0
M  V30 5832 C 568.385 -2.73191 -3.58716 0
M  V30 5833 C 567.047 -3.13616 -3.64964 0
M  V30 5834 C 569.399 -3.68718 -3.6837 0
M  V30 5835 C 566.727 -4.48383 -3.78377 0
M  V30 5836 C 569.079 -5.03248 -3.83306 0
M  V30 5837 C 567.743 -5.43293 -3.878 0
M  V30 5838 H 567.013 -0.29188 -0.681092 0
M  V30 5839 H 569.66 -1.34524 -1.36292 0
M  V30 5840 H 567.965 -0.623712 -3.86804 0
M  V30 5841 H 569.662 -1.01489 -3.87945 0
M  V30 5842 H 566.252 -2.40898 -3.54494 0
M  V30 5843 H 570.436 -3.38614 -3.62842 0
M  V30 5844 H 565.692 -4.78877 -3.80114 0
M  V30 5845 H 569.866 -5.77142 -3.89718 0
M  V30 5846 H 567.493 -6.47721 -3.97946 0
M  V30 5847 N 569.068 1.32177 -0.85831 0
M  V30 5848 C 570.484 1.49873 -0.548656 0
M  V30 5849 C 570.684 1.79278 0.919874 0
M  V30 5850 O 569.74 1.86451 1.70271 0
M  V30 5851 C 571.053 2.64043 -1.4388 0
M  V30 5852 C 572.601 2.77928 -1.43961 0
M  V30 5853 C 573.076 3.95182 -2.31506 0
M  V30 5854 N 574.567 4.0245 -2.29321 0
M  V30 5855 C 575.302 4.9242 -2.93786 0
M  V30 5856 N 574.798 5.87373 -3.67376 0
M  V30 5857 N 576.591 4.85572 -2.83155 0
M  V30 5858 H 568.742 1.11357 -1.80868 0
M  V30 5859 H 571.005 0.549175 -0.772729 0
M  V30 5860 H 570.711 2.49055 -2.48324 0
M  V30 5861 H 570.585 3.59912 -1.12885 0
M  V30 5862 H 572.972 2.92338 -0.402813 0
M  V30 5863 H 573.053 1.82762 -1.78974 0
M  V30 5864 H 572.697 3.81531 -3.35256 0
M  V30 5865 H 572.627 4.89633 -1.93823 0
M  V30 5866 H 575.118 3.34507 -1.75822 0
M  V30 5867 H 575.431 6.52728 -4.13722 0
M  V30 5868 H 573.776 5.87388 -3.71484 0
M  V30 5869 H 576.967 4.10363 -2.25211 0
M  V30 5870 H 577.14 5.55486 -3.33676 0
M  V30 5871 N 570.547 0.616602 1.45037 0
M  V30 5872 C 571.494 -0.0969439 2.30596 0
M  V30 5873 C 572.464 -0.851151 1.42635 0
M  V30 5874 O 573.649 -0.835092 1.71554 0
M  V30 5875 C 570.789 -1.08234 3.27688 0
M  V30 5876 C 569.902 -0.328072 4.30752 0
M  V30 5877 C 569.037 -1.30399 5.14946 0
M  V30 5878 C 568.076 -0.538049 6.09731 0
M  V30 5879 N 567.213 -1.46371 6.86673 0
M  V30 5880 H 572.053 0.63864 2.91076 0
M  V30 5881 H 569.59 0.326733 1.43425 0
M  V30 5882 H 571.548 -1.66688 3.82454 0
M  V30 5883 H 570.178 -1.78523 2.68941 0
M  V30 5884 H 569.23 0.372136 3.78575 0
M  V30 5885 H 570.542 0.269142 4.98073 0
M  V30 5886 H 569.696 -1.96032 5.74157 0
M  V30 5887 H 568.435 -1.93514 4.47665 0
M  V30 5888 H 567.44 0.131852 5.49642 0
M  V30 5889 H 568.665 0.0881732 6.79043 0
M  V30 5890 H 566.611 -2.08233 6.22073 0
M  V30 5891 H 566.528 -0.920152 7.50379 0
M  V30 5892 H 567.796 -2.10932 7.50418 0
M  V30 5893 N 572.025 -1.5352 0.356285 0
M  V30 5894 C 573.25 -2.06007 -0.239961 0
M  V30 5895 C 573.675 -1.22872 -1.42422 0
M  V30 5896 O 573.033 -0.245516 -1.7963 0
M  V30 5897 C 573.081 -3.5522 -0.620587 0
M  V30 5898 O 572.185 -3.74864 -1.71902 0
M  V30 5899 H 571.526 -0.662961 -0.0371377 0
M  V30 5900 H 574.056 -1.98033 0.514194 0
M  V30 5901 H 574.066 -3.98081 -0.894197 0
M  V30 5902 H 572.741 -4.15175 0.245407 0
M  V30 5903 H 571.318 -3.43904 -1.44169 0
M  V30 5904 N 573.503 -0.0852151 -1.57369 0
M  V30 5905 C 574.914 0.445428 -1.81309 0
M  V30 5906 C 575.265 1.68795 -1.00013 0
M  V30 5907 O 574.39 2.15211 -0.226573 0
M  V30 5908 C 574.985 0.814887 -3.28854 0
M  V30 5909 C 573.544 1.29032 -3.53592 0
M  V30 5910 C 572.691 0.282089 -2.75861 0
M  V30 5911 H 575.642 -0.310771 -1.55627 0
M  V30 5912 H 575.663 1.67524 -3.41637 0
M  V30 5913 H 575.175 -0.0896309 -3.87996 0
M  V30 5914 H 573.276 2.21289 -2.9977 0
M  V30 5915 H 573.389 1.25898 -4.62262 0
M  V30 5916 H 571.753 0.762182 -2.43029 0
M  V30 5917 H 572.536 -0.614936 -3.37748 0
M  V30 5918 N 574.981 1.5647 0.188427 0
M  V30 5919 C 575.913 1.91611 1.25769 0
M  V30 5920 C 576.926 0.807436 1.41366 0
M  V30 5921 O 578.115 1.08586 1.41673 0
M  V30 5922 C 575.215 2.13874 2.6289 0
M  V30 5923 C 574.388 3.45047 2.68815 0
M  V30 5924 C 573.447 3.56342 3.87178 0
M  V30 5925 O 572.473 4.29109 3.73971 0
M  V30 5926 N 573.675 2.89924 5.02916 0
M  V30 5927 H 576.44 2.8393 0.959373 0
M  V30 5928 H 574.001 1.57418 0.378306 0
M  V30 5929 H 575.993 2.18713 3.4051 0
M  V30 5930 H 574.563 1.28022 2.85183 0
M  V30 5931 H 573.783 3.52017 1.77419 0
M  V30 5932 H 575.071 4.31395 2.6977 0
M  V30 5933 H 574.469 2.30644 5.16546 0
M  V30 5934 H 573.026 3.0038 5.78459 0
M  V30 5935 N 576.459 -0.456382 1.50847 0
M  V30 5936 C 577.369 -1.57805 1.73594 0
M  V30 5937 C 578.385 -1.62599 0.619476 0
M  V30 5938 O 579.561 -1.80195 0.899532 0
M  V30 5939 C 576.626 -2.93926 1.8387 0
M  V30 5940 C 575.687 -2.99402 3.07663 0
M  V30 5941 C 574.92 -4.29031 3.1744 0
M  V30 5942 O 575.143 -5.20358 2.33631 0
M  V30 5943 O 574.077 -4.40401 4.10281 0
M  V30 5944 H 577.903 -1.41531 2.68705 0
M  V30 5945 H 575.488 -0.637422 1.3512 0
M  V30 5946 H 577.37 -3.74747 1.92725 0
M  V30 5947 H 576.045 -3.10368 0.91944 0
M  V30 5948 H 574.952 -2.17606 3.043 0
M  V30 5949 H 576.285 -2.87901 3.99216 0
M  V30 5950 N 577.937 -1.40673 -0.710563 0
M  V30 5951 C 578.867 -1.44095 -1.83736 0
M  V30 5952 C 579.848 -0.301286 -1.67411 0
M  V30 5953 O 581.033 -0.510618 -1.87367 0
M  V30 5954 C 578.163 -1.30773 -3.21738 0
M  V30 5955 C 577.117 -2.42395 -3.52745 0
M  V30 5956 C 576.443 -2.14147 -4.89944 0
M  V30 5957 C 577.743 -3.84738 -3.53234 0
M  V30 5958 H 579.437 -2.38396 -1.81129 0
M  V30 5959 H 576.983 -1.14746 -0.870017 0
M  V30 5960 H 578.936 -1.31783 -4.00264 0
M  V30 5961 H 577.66 -0.329507 -3.24934 0
M  V30 5962 H 576.319 -2.40643 -2.76562 0
M  V30 5963 H 575.967 -1.14703 -4.89747 0
M  V30 5964 H 575.667 -2.88934 -5.11655 0
M  V30 5965 H 577.191 -2.16848 -5.70797 0
M  V30 5966 H 578.605 -3.88286 -4.2179 0
M  V30 5967 H 577.002 -4.59085 -3.86473 0
M  V30 5968 H 578.072 -4.13962 -2.52514 0
M  V30 5969 N 579.415 0.9433 -1.26252 0
M  V30 5970 C 580.345 2.05902 -1.10122 0
M  V30 5971 C 581.326 1.70099 -0.00700552 0
M  V30 5972 O 582.511 1.93377 -0.178641 0
M  V30 5973 C 579.641 3.39516 -0.731175 0
M  V30 5974 C 578.595 3.89372 -1.77688 0
M  V30 5975 C 577.921 5.19613 -1.26122 0
M  V30 5976 C 579.221 4.14489 -3.17799 0
M  V30 5977 H 580.915 2.19655 -2.03451 0
M  V30 5978 H 578.461 1.05548 -0.979576 0
M  V30 5979 H 580.414 4.17031 -0.605215 0
M  V30 5980 H 579.138 3.25733 0.23782 0
M  V30 5981 H 577.797 3.14036 -1.89148 0
M  V30 5982 H 577.445 5.02208 -0.282128 0
M  V30 5983 H 577.145 5.53939 -1.96023 0
M  V30 5984 H 578.669 5.99713 -1.14789 0
M  V30 5985 H 580.083 4.82625 -3.09428 0
M  V30 5986 H 578.48 4.60094 -3.85271 0
M  V30 5987 H 579.55 3.20347 -3.64014 0
M  V30 5988 N 580.893 1.08022 1.14757 0
M  V30 5989 C 582.133 0.816959 1.87364 0
M  V30 5990 C 582.497 -0.645407 1.80827 0
M  V30 5991 O 583.698 -1.024 2.48531 0
M  V30 5992 C 581.969 1.31961 3.32146 0
M  V30 5993 S 583.528 1.18806 4.2241 0
M  V30 5994 H 580.346 0.295862 0.646519 0
M  V30 5995 H 582.948 1.3807 1.38408 0
M  V30 5996 H 581.652 2.37847 3.3445 0
M  V30 5997 H 581.183 0.751371 3.86158 0
M  V30 5998 H 583.198 0.129865 4.9603 0
M  V30 5999 N 582.371 -1.3172 0.865308 0
M  V30 6000 C 583.619 -1.96487 0.472995 0
M  V30 6001 C 583.94 -1.68761 -0.976975 0
M  V30 6002 O 583.21 -1.00051 -1.68424 0
M  V30 6003 H 581.79 -0.726947 0.171922 0
M  V30 6004 H 584.452 -1.60612 1.10407 0
M  V30 6005 H 583.548 -3.0574 0.62687 0
M  V30 6006 N 583.85 -0.624285 -1.44708 0
M  V30 6007 C 584.812 0.0749638 -2.29077 0
M  V30 6008 C 585.812 0.778965 -1.40673 0
M  V30 6009 O 587.003 0.624591 -1.62618 0
M  V30 6010 C 584.135 1.11663 -3.22094 0
M  V30 6011 H 585.327 -0.667013 -2.92388 0
M  V30 6012 H 582.88 -0.384098 -1.51507 0
M  V30 6013 H 583.615 1.88881 -2.63618 0
M  V30 6014 H 583.401 0.61583 -3.87234 0
M  V30 6015 H 584.891 1.60585 -3.8549 0
M  V30 6016 N 585.328 1.53329 -0.364422 0
M  V30 6017 C 586.553 2.06132 0.229033 0
M  V30 6018 C 586.978 1.23625 1.41769 0
M  V30 6019 O 586.336 0.255038 1.79497 0
M  V30 6020 C 586.384 3.55544 0.60174 0
M  V30 6021 O 585.488 3.75771 1.69912 0
M  V30 6022 H 584.829 0.663148 0.0336213 0
M  V30 6023 H 587.359 1.97758 -0.524689 0
M  V30 6024 H 587.369 3.98549 0.873073 0
M  V30 6025 H 586.044 4.15039 -0.267421 0
M  V30 6026 H 584.621 3.44663 1.42343 0
M  V30 6027 N 586.806 0.0935595 1.57322 0
M  V30 6028 C 587.736 -0.863062 2.16964 0
M  V30 6029 C 588.717 -1.29528 1.10256 0
M  V30 6030 O 589.902 -1.36245 1.38387 0
M  V30 6031 C 587.032 -2.12276 2.74875 0
M  V30 6032 C 585.986 -1.82921 3.86942 0
M  V30 6033 C 585.312 -3.15707 4.31548 0
M  V30 6034 C 586.612 -1.11737 5.10208 0
M  V30 6035 H 588.306 -0.366145 2.97153 0
M  V30 6036 H 585.852 -0.174673 1.42937 0
M  V30 6037 H 587.805 -2.79634 3.1525 0
M  V30 6038 H 586.529 -2.64248 1.91938 0
M  V30 6039 H 585.188 -1.17961 3.47103 0
M  V30 6040 H 584.836 -3.65563 3.45504 0
M  V30 6041 H 584.536 -2.96849 5.07104 0
M  V30 6042 H 586.06 -3.84226 4.74555 0
M  V30 6043 H 587.474 -1.69203 5.47762 0
M  V30 6044 H 585.871 -1.03064 5.91183 0
M  V30 6045 H 586.941 -0.0998818 4.84797 0
M  V30 6046 N 588.284 -1.56567 -0.180126 0
M  V30 6047 C 589.533 -1.80685 -0.896426 0
M  V30 6048 C 589.846 -0.669335 -1.83791 0
M  V30 6049 O 591.052 -0.795209 -2.59593 0
M  V30 6050 C 589.508 -3.20132 -1.6445 0
M  V30 6051 C 589.116 -4.41727 -0.747088 0
M  V30 6052 C 590.86 -3.53549 -2.34955 0
M  V30 6053 C 588.767 -5.72195 -1.49489 0
M  V30 6054 H 587.697 -0.673758 -0.338477 0
M  V30 6055 H 590.348 -1.8289 -0.149467 0
M  V30 6056 H 588.73 -3.12218 -2.43589 0
M  V30 6057 H 589.904 -4.608 0.00671129 0
M  V30 6058 H 588.219 -4.16122 -0.152134 0
M  V30 6059 H 590.816 -4.48267 -2.91481 0
M  V30 6060 H 591.159 -2.78006 -3.09868 0
M  V30 6061 H 591.692 -3.62976 -1.62768 0
M  V30 6062 H 588.431 -6.50743 -0.788251 0
M  V30 6063 H 587.951 -5.57115 -2.22224 0
M  V30 6064 H 589.63 -6.1384 -2.04472 0
M  V30 6065 N 589.762 0.448376 -1.51087 0
M  V30 6066 C 590.987 1.22605 -1.6728 0
M  V30 6067 C 591.412 1.84524 -0.365045 0
M  V30 6068 O 590.77 1.6832 0.673642 0
M  V30 6069 C 590.818 2.29393 -2.78229 0
M  V30 6070 O 589.922 3.34608 -2.41063 0
M  V30 6071 H 589.263 0.359705 -0.558129 0
M  V30 6072 H 591.793 0.530903 -1.97592 0
M  V30 6073 H 591.803 2.74352 -3.01986 0
M  V30 6074 H 590.478 1.83701 -3.73131 0
M  V30 6075 H 589.055 2.95202 -2.27838 0
M  V30 6076 N 591.24 1.41047 0.703093 0
M  V30 6077 C 592.517 1.30493 1.45708 0
M  V30 6078 C 592.897 -0.0709892 2.10981 0
M  V30 6079 O 592.245 -1.08471 2.01113 0
M  V30 6080 C 592.455 2.45287 2.48265 0
M  V30 6081 C 593.803 2.86104 3.13735 0
M  V30 6082 O 594.827 2.44971 2.58587 0
M  V30 6083 O 593.686 3.57206 4.13601 0
M  V30 6084 H 590.78 0.513144 0.648546 0
M  V30 6085 H 593.326 1.52995 0.734208 0
M  V30 6086 H 592.098 3.37135 1.98635 0
M  V30 6087 H 591.721 2.24622 3.28071 0
M  V30 6088 N 592.718 -0.936591 1.26751 0
M  V30 6089 C 594.134 -1.21095 1.03963 0
M  V30 6090 C 594.334 -2.00156 -0.232372 0
M  V30 6091 O 593.39 -2.3434 -0.940274 0
M  V30 6092 C 594.703 -1.96775 2.27377 0
M  V30 6093 C 596.251 -2.09749 2.32324 0
M  V30 6094 C 596.726 -2.88832 3.55443 0
M  V30 6095 N 598.217 -2.96404 3.55948 0
M  V30 6096 C 598.952 -3.58036 4.47881 0
M  V30 6097 N 598.448 -4.21132 5.50109 0
M  V30 6098 N 600.241 -3.55353 4.35523 0
M  V30 6099 H 592.392 -0.408173 2.08441 0
M  V30 6100 H 594.655 -0.243139 0.91629 0
M  V30 6101 H 594.361 -1.46094 3.19921 0
M  V30 6102 H 594.235 -2.97424 2.31989 0
M  V30 6103 H 596.622 -2.5962 1.40291 0
M  V30 6104 H 596.703 -1.08347 2.31721 0
M  V30 6105 H 596.347 -2.39647 4.47808 0
M  V30 6106 H 596.277 -3.90499 3.53296 0
M  V30 6107 H 598.768 -2.51552 2.82011 0
M  V30 6108 H 599.081 -4.66071 6.16439 0
M  V30 6109 H 597.426 -4.19705 5.53961 0
M  V30 6110 H 600.617 -3.05256 3.54875 0
M  V30 6111 H 600.79 -4.03097 5.07363 0
M  V30 6112 N 594.196 -1.08629 -1.14182 0
M  V30 6113 C 595.442 -0.828415 -1.85766 0
M  V30 6114 C 595.797 0.638947 -1.81481 0
M  V30 6115 O 595.09 1.46386 -1.23619 0
M  V30 6116 C 595.284 -1.28734 -3.3341 0
M  V30 6117 C 595.113 -2.79778 -3.52071 0
M  V30 6118 C 593.883 -3.47554 -3.66789 0
M  V30 6119 C 596.081 -3.77945 -3.48801 0
M  V30 6120 N 594.063 -4.87107 -3.73631 0
M  V30 6121 C 595.434 -5.03406 -3.61914 0
M  V30 6122 C 597.489 -3.70917 -3.32152 0
M  V30 6123 C 596.192 -6.22673 -3.60098 0
M  V30 6124 C 598.218 -4.89662 -3.31641 0
M  V30 6125 C 597.58 -6.13962 -3.45296 0
M  V30 6126 H 593.679 -0.355884 -0.696327 0
M  V30 6127 H 596.263 -1.38508 -1.36834 0
M  V30 6128 H 594.434 -0.75822 -3.80927 0
M  V30 6129 H 596.166 -0.975649 -3.92764 0
M  V30 6130 H 592.921 -2.97972 -3.68116 0
M  V30 6131 H 593.345 -5.59775 -3.80763 0
M  V30 6132 H 597.987 -2.75749 -3.20504 0
M  V30 6133 H 595.705 -7.1815 -3.70522 0
M  V30 6134 H 599.291 -4.85914 -3.19968 0
M  V30 6135 H 598.171 -7.04307 -3.44851 0
M  V30 6136 N 595.674 1.31259 -0.872281 0
M  V30 6137 C 596.92 1.96913 -0.485083 0
M  V30 6138 C 597.253 1.68774 0.960667 0
M  V30 6139 O 596.528 0.985495 1.67685 0
M  V30 6140 C 596.811 3.52299 -0.745502 0
M  V30 6141 C 596.664 3.90002 -2.24095 0
M  V30 6142 C 597.983 4.39582 -0.213516 0
M  V30 6143 H 595.102 0.715252 -0.177716 0
M  V30 6144 H 597.744 1.55347 -1.09395 0
M  V30 6145 H 595.894 3.87835 -0.227276 0
M  V30 6146 H 597.566 3.64555 -2.82661 0
M  V30 6147 H 595.809 3.38526 -2.71261 0
M  V30 6148 H 596.48 4.98352 -2.37381 0
M  V30 6149 H 598.956 4.10882 -0.656902 0
M  V30 6150 H 597.832 5.47251 -0.42516 0
M  V30 6151 H 598.093 4.33158 0.884666 0
M  V30 6152 N 597.152 0.631951 1.44375 0
M  V30 6153 C 598.082 -0.0593243 2.33425 0
M  V30 6154 C 599.063 -0.833964 1.48253 0
M  V30 6155 O 600.248 -0.799682 1.76971 0
M  V30 6156 C 597.378 -1.04096 3.31333 0
M  V30 6157 C 596.332 -0.377899 4.26328 0
M  V30 6158 C 595.658 -1.4695 5.14111 0
M  V30 6159 C 596.958 0.716371 5.17364 0
M  V30 6160 H 598.652 0.684287 2.91475 0
M  V30 6161 H 596.198 0.330518 1.40156 0
M  V30 6162 H 598.151 -1.53331 3.92514 0
M  V30 6163 H 596.875 -1.81547 2.71493 0
M  V30 6164 H 595.534 0.0938054 3.6648 0
M  V30 6165 H 595.182 -2.2349 4.50623 0
M  V30 6166 H 594.882 -1.03121 5.78481 0
M  V30 6167 H 596.406 -1.96363 5.78164 0
M  V30 6168 H 597.82 0.307089 5.72477 0
M  V30 6169 H 596.217 1.07784 5.90341 0
M  V30 6170 H 597.287 1.58316 4.58327 0
M  V30 6171 N 598.631 -1.53133 0.372548 0
M  V30 6172 C 599.859 -2.05774 -0.215515 0
M  V30 6173 C 600.274 -1.24555 -1.41886 0
M  V30 6174 O 599.631 -0.287951 -1.80214 0
M  V30 6175 C 599.682 -3.5645 -0.602161 0
M  V30 6176 O 599.403 -4.34591 0.553359 0
M  V30 6177 C 600.904 -4.25374 -1.24787 0
M  V30 6178 H 598.124 -0.670009 -0.0364529 0
M  V30 6179 H 600.668 -1.97434 0.532934 0
M  V30 6180 H 598.823 -3.64918 -1.30052 0
M  V30 6181 H 599.237 -5.23954 0.239336 0
M  V30 6182 H 600.711 -5.32097 -1.46891 0
M  V30 6183 H 601.188 -3.79531 -2.21026 0
M  V30 6184 H 601.794 -4.21177 -0.590752 0
M  V30 6185 N 600.109 -0.101901 -1.5727 0
M  V30 6186 C 601.072 0.840129 -2.13247 0
M  V30 6187 C 602.072 1.20625 -1.06331 0
M  V30 6188 O 603.262 1.13456 -1.32186 0
M  V30 6189 C 600.394 2.13372 -2.65867 0
M  V30 6190 H 601.587 0.353945 -2.97804 0
M  V30 6191 H 599.14 0.147167 -1.55606 0
M  V30 6192 H 599.875 2.66461 -1.84849 0
M  V30 6193 H 599.66 1.88085 -3.44044 0
M  V30 6194 H 601.15 2.80748 -3.09145 0
M  V30 6195 N 601.587 1.56661 0.17182 0
M  V30 6196 C 602.55 1.9549 1.19651 0
M  V30 6197 C 603.55 0.838501 1.37207 0
M  V30 6198 O 604.74 1.10556 1.34622 0
M  V30 6199 C 601.872 2.24927 2.56166 0
M  V30 6200 H 603.065 2.87184 0.864007 0
M  V30 6201 H 600.618 1.50711 0.41425 0
M  V30 6202 H 601.353 1.35944 2.94431 0
M  V30 6203 H 601.138 3.06301 2.4479 0
M  V30 6204 H 602.628 2.55891 3.30014 0
M  V30 6205 N 603.065 -0.440357 1.51323 0
M  V30 6206 C 604.015 -1.53263 1.68803 0
M  V30 6207 C 604.999 -1.51494 0.542057 0
M  V30 6208 O 606.191 -1.57999 0.797839 0
M  V30 6209 C 603.32 -2.91479 1.8137 0
M  V30 6210 C 602.406 -2.98015 3.01742 0
M  V30 6211 N 602.797 -2.743 4.24962 0
M  V30 6212 C 601.095 -3.29173 3.00934 0
M  V30 6213 C 601.796 -2.86601 5.06197 0
M  V30 6214 N 600.772 -3.1814 4.40781 0
M  V30 6215 H 604.574 -1.33675 2.61741 0
M  V30 6216 H 602.088 -0.647616 1.48929 0
M  V30 6217 H 604.085 -3.70055 1.92002 0
M  V30 6218 H 602.745 -3.12089 0.896117 0
M  V30 6219 H 603.756 -2.49287 4.53957 0
M  V30 6220 H 600.433 -3.55577 2.18796 0
M  V30 6221 H 601.823 -2.72246 6.14274 0
M  V30 6222 N 604.543 -1.41418 -0.695603 0
M  V30 6223 C 605.783 -1.42241 -1.46788 0
M  V30 6224 C 606.147 -0.0300827 -1.91976 0
M  V30 6225 O 607.348 0.0868914 -2.6866 0
M  V30 6226 C 605.619 -2.4011 -2.6473 0
M  V30 6227 S 607.178 -2.59462 -3.53871 0
M  V30 6228 H 603.996 -0.503893 -0.50161 0
M  V30 6229 H 606.598 -1.77855 -0.811654 0
M  V30 6230 H 605.302 -3.40073 -2.29736 0
M  V30 6231 H 604.833 -2.05849 -3.35246 0
M  V30 6232 H 606.848 -1.862 -4.59939 0
M  V30 6233 N 606.021 0.929856 -1.27246 0
M  V30 6234 C 606.951 2.04722 -1.12299 0
M  V30 6235 C 607.932 1.70082 -0.0250464 0
M  V30 6236 O 609.117 1.93176 -0.199141 0
M  V30 6237 C 606.247 3.38721 -0.767145 0
M  V30 6238 C 605.201 3.87466 -1.81808 0
M  V30 6239 C 604.527 5.18246 -1.31626 0
M  V30 6240 C 605.827 4.11095 -3.22177 0
M  V30 6241 H 607.521 2.17485 -2.05769 0
M  V30 6242 H 605.067 1.04503 -0.990715 0
M  V30 6243 H 607.02 4.16366 -0.649413 0
M  V30 6244 H 605.744 3.25967 0.203259 0
M  V30 6245 H 604.403 3.12012 -1.92468 0
M  V30 6246 H 604.051 5.01881 -0.335378 0
M  V30 6247 H 603.751 5.51829 -2.01887 0
M  V30 6248 H 605.275 5.98462 -1.21143 0
M  V30 6249 H 606.689 4.79316 -3.1453 0
M  V30 6250 H 605.086 4.55982 -3.90129 0
M  V30 6251 H 606.156 3.16468 -3.67391 0
M  V30 6252 N 607.499 1.09233 1.13605 0
M  V30 6253 C 608.429 0.751738 2.21068 0
M  V30 6254 C 609.41 -0.269688 1.67948 0
M  V30 6255 O 610.595 -0.13819 1.93708 0
M  V30 6256 C 607.725 0.16935 3.46887 0
M  V30 6257 C 606.679 1.12007 4.13084 0
M  V30 6258 C 606.005 0.399483 5.33206 0
M  V30 6259 C 607.305 2.46168 4.6065 0
M  V30 6260 H 608.999 1.65024 2.49815 0
M  V30 6261 H 606.545 0.794905 1.20072 0
M  V30 6262 H 608.498 -0.0809824 4.21322 0
M  V30 6263 H 607.222 -0.764335 3.1753 0
M  V30 6264 H 605.881 1.35564 3.40614 0
M  V30 6265 H 605.529 -0.538277 5.00112 0
M  V30 6266 H 605.229 1.03337 5.78442 0
M  V30 6267 H 606.753 0.157403 6.10397 0
M  V30 6268 H 608.167 2.26829 5.26518 0
M  V30 6269 H 606.564 3.05326 5.1662 0
M  V30 6270 H 607.634 3.07076 3.75276 0
M  V30 6271 N 608.977 -1.30795 0.87923 0
M  V30 6272 C 610.207 -2.00237 0.50881 0
M  V30 6273 C 610.615 -1.66115 -0.905682 0
M  V30 6274 O 609.958 -0.89138 -1.60624 0
M  V30 6275 C 610.02 -3.54508 0.597003 0
M  V30 6276 C 609.684 -4.12131 1.97477 0
M  V30 6277 C 610.681 -4.28552 2.94346 0
M  V30 6278 C 608.366 -4.47644 2.2786 0
M  V30 6279 C 610.36 -4.79689 4.19735 0
M  V30 6280 C 608.047 -4.98481 3.53496 0
M  V30 6281 C 609.045 -5.14456 4.49248 0
M  V30 6282 O 608.733 -5.64199 5.72656 0
M  V30 6283 H 608.465 -0.647026 0.195788 0
M  V30 6284 H 611.019 -1.67785 1.1848 0
M  V30 6285 H 609.249 -3.86461 -0.135945 0
M  V30 6286 H 610.938 -4.05198 0.238684 0
M  V30 6287 H 611.704 -4.01424 2.72183 0
M  V30 6288 H 607.583 -4.34481 1.54102 0
M  V30 6289 H 611.127 -4.92073 4.9448 0
M  V30 6290 H 607.024 -5.25044 3.75498 0
M  V30 6291 H 607.792 -5.82551 5.74957 0
M  V30 6292 N 610.455 -0.639598 -1.44038 0
M  V30 6293 C 611.866 -0.228866 -1.85292 0
M  V30 6294 C 612.217 1.22161 -1.53529 0
M  V30 6295 O 611.342 1.93064 -0.977518 0
M  V30 6296 C 611.937 -0.408592 -3.36327 0
M  V30 6297 C 610.496 -0.0522953 -3.76364 0
M  V30 6298 C 609.643 -0.717959 -2.67844 0
M  V30 6299 H 612.594 -0.844194 -1.34384 0
M  V30 6300 H 612.615 0.349968 -3.78887 0
M  V30 6301 H 612.127 -1.46435 -3.59414 0
M  V30 6302 H 610.228 1.0014 -3.58891 0
M  V30 6303 H 610.341 -0.468261 -4.76806 0
M  V30 6304 H 608.705 -0.152459 -2.54243 0
M  V30 6305 H 609.488 -1.77648 -2.93762 0
M  V30 6306 N 611.933 1.52934 -0.380664 0
M  V30 6307 C 613.344 1.86457 0.0952684 0
M  V30 6308 C 613.695 1.3007 1.46889 0
M  V30 6309 O 612.82 0.628636 2.07068 0
M  V30 6310 C 613.415 3.38323 0.179648 0
M  V30 6311 C 611.974 3.71589 0.599858 0
M  V30 6312 C 611.121 2.76228 -0.243572 0
M  V30 6313 H 614.072 1.46966 -0.59888 0
M  V30 6314 H 614.093 3.67113 1.00042 0
M  V30 6315 H 613.605 3.79333 -0.820228 0
M  V30 6316 H 611.706 3.36144 1.60742 0
M  V30 6317 H 611.819 4.77715 0.364003 0
M  V30 6318 H 610.183 2.53045 0.289855 0
M  V30 6319 H 610.966 3.20074 -1.24127 0
M  V30 6320 N 613.412 0.11024 1.57214 0
M  V30 6321 C 614.658 -0.544479 1.95977 0
M  V30 6322 C 615.013 -1.64845 0.992171 0
M  V30 6323 O 614.306 -1.91589 0.0206981 0
M  V30 6324 C 614.5 -1.13102 3.39032 0
M  V30 6325 C 614.329 -0.0854079 4.49619 0
M  V30 6326 C 613.099 0.343373 5.04132 0
M  V30 6327 C 615.297 0.692232 5.0962 0
M  V30 6328 N 613.279 1.37567 5.98288 0
M  V30 6329 C 614.65 1.57596 5.99636 0
M  V30 6330 C 616.705 0.744085 4.92309 0
M  V30 6331 C 615.408 2.50701 6.74197 0
M  V30 6332 C 617.434 1.6628 5.67543 0
M  V30 6333 C 616.796 2.53412 6.57238 0
M  V30 6334 H 612.895 -0.169124 0.763493 0
M  V30 6335 H 615.479 0.196326 1.93708 0
M  V30 6336 H 613.65 -1.84158 3.41965 0
M  V30 6337 H 615.382 -1.74934 3.64939 0
M  V30 6338 H 612.137 -0.0473277 4.73576 0
M  V30 6339 H 612.561 1.89048 6.50069 0
M  V30 6340 H 617.203 0.0845825 4.22715 0
M  V30 6341 H 614.921 3.17669 7.43043 0
M  V30 6342 H 618.507 1.70825 5.56156 0
M  V30 6343 H 617.387 3.23347 7.14434 0
M  V30 6344 N 614.89 -1.56749 -0.16351 0
M  V30 6345 C 616.167 -1.73321 -0.906599 0
M  V30 6346 C 616.547 -0.673779 -2.00059 0
M  V30 6347 O 615.895 0.310121 -2.26386 0
M  V30 6348 C 616.105 -3.168 -1.46419 0
M  V30 6349 C 617.453 -3.77993 -1.93407 0
M  V30 6350 O 618.477 -3.20127 -1.56196 0
M  V30 6351 O 617.336 -4.79615 -2.61976 0
M  V30 6352 H 614.43 -0.708073 -0.427272 0
M  V30 6353 H 616.976 -1.69029 -0.150727 0
M  V30 6354 H 615.748 -3.85396 -0.677189 0
M  V30 6355 H 615.371 -3.2545 -2.28403 0
M  V30 6356 N 616.368 0.432326 -1.51554 0
M  V30 6357 C 617.315 1.52512 -1.7323 0
M  V30 6358 C 618.285 1.55863 -0.5741 0
M  V30 6359 O 619.47 1.72796 -0.809093 0
M  V30 6360 C 616.61 2.90183 -1.86783 0
M  V30 6361 C 615.723 2.96322 -3.14352 0
M  V30 6362 C 614.858 4.25147 -3.18471 0
M  V30 6363 C 613.897 4.25172 -4.40335 0
M  V30 6364 N 613.034 5.45529 -4.41975 0
M  V30 6365 H 617.874 1.33332 -2.66508 0
M  V30 6366 H 615.411 0.647613 -1.32077 0
M  V30 6367 H 617.369 3.70071 -1.92623 0
M  V30 6368 H 615.999 3.0791 -0.969087 0
M  V30 6369 H 615.051 2.09066 -3.17798 0
M  V30 6370 H 616.363 2.92203 -4.04251 0
M  V30 6371 H 615.517 5.13411 -3.23255 0
M  V30 6372 H 614.256 4.31929 -2.2647 0
M  V30 6373 H 613.261 3.353 -4.35723 0
M  V30 6374 H 614.486 4.20049 -5.33606 0
M  V30 6375 H 612.432 5.53024 -3.52847 0
M  V30 6376 H 612.349 5.43311 -5.25689 0
M  V30 6377 H 613.617 6.35812 -4.50958 0
M  V30 6378 N 617.846 1.41785 0.688094 0
M  V30 6379 C 618.794 1.44436 1.82321 0
M  V30 6380 C 619.788 0.321544 1.6632 0
M  V30 6381 O 620.994 0.493931 1.73091 0
M  V30 6382 H 617.369 0.452084 0.600936 0
M  V30 6383 H 619.34 2.40087 1.77202 0
M  V30 6384 C 618.089 1.35071 3.20392 0
M  V30 6385 H 617.412 2.2076 3.33324 0
M  V30 6386 H 618.852 1.40988 3.99873 0
M  V30 6387 C 617.311 0.0639127 3.36839 0
M  V30 6388 O 617.841 -0.888495 3.91751 0
M  V30 6389 N 616.047 -0.0146114 2.90596 0
M  V30 6390 H 615.594 0.761191 2.46097 0
M  V30 6391 H 615.552 -0.874988 3.01979 0
M  V30 6392 N 619.324 -0.923095 1.27737 0
M  V30 6393 C 620.571 -1.67127 1.14345 0
M  V30 6394 C 620.899 -1.92017 -0.30982 0
M  V30 6395 O 620.154 -1.51185 -1.24264 0
M  V30 6396 C 620.453 -3.04125 1.8773 0
M  V30 6397 C 620.119 -2.98929 3.37568 0
M  V30 6398 C 618.781 -2.9722 3.78436 0
M  V30 6399 C 621.133 -2.89875 4.33154 0
M  V30 6400 C 618.461 -2.84244 5.13247 0
M  V30 6401 C 620.813 -2.7844 5.68026 0
M  V30 6402 C 619.477 -2.75083 6.08182 0
M  V30 6403 H 618.747 -0.611562 0.418417 0
M  V30 6404 H 621.394 -1.07618 1.584 0
M  V30 6405 H 619.699 -3.67366 1.36196 0
M  V30 6406 H 621.396 -3.609 1.74792 0
M  V30 6407 H 617.986 -3.0105 3.05069 0
M  V30 6408 H 622.17 -2.9029 4.02548 0
M  V30 6409 H 617.426 -2.80034 5.43499 0
M  V30 6410 H 621.6 -2.70401 6.4176 0
M  V30 6411 H 619.227 -2.64786 7.12596 0
M  V30 6412 N 620.802 -1.09834 -1.13024 0
M  V30 6413 C 622.03 -0.858902 -1.8823 0
M  V30 6414 C 622.445 0.590164 -1.79339 0
M  V30 6415 O 621.802 1.4065 -1.16292 0
M  V30 6416 C 621.853 -1.29066 -3.37675 0
M  V30 6417 O 621.574 -2.6829 -3.46341 0
M  V30 6418 C 623.075 -1.08421 -4.29837 0
M  V30 6419 H 620.295 -0.308713 -0.595766 0
M  V30 6420 H 622.839 -1.4614 -1.4305 0
M  V30 6421 H 620.994 -0.731961 -3.80422 0
M  V30 6422 H 621.408 -2.86598 -4.39274 0
M  V30 6423 H 622.882 -1.43553 -5.33007 0
M  V30 6424 H 623.359 -0.0223315 -4.39194 0
M  V30 6425 H 623.965 -1.62907 -3.92863 0
M  V30 6426 N 622.28 1.30327 -0.886154 0
M  V30 6427 C 623.526 1.96388 -0.505941 0
M  V30 6428 C 623.859 1.69784 0.942712 0
M  V30 6429 O 623.134 1.00322 1.6663 0
M  V30 6430 C 623.417 3.51488 -0.782826 0
M  V30 6431 C 623.27 3.87603 -2.28219 0
M  V30 6432 C 624.589 4.39331 -0.260128 0
M  V30 6433 H 621.708 0.713327 -0.185292 0
M  V30 6434 H 624.35 1.54178 -1.11036 0
M  V30 6435 H 622.5 3.87572 -0.268399 0
M  V30 6436 H 624.172 3.61537 -2.86512 0
M  V30 6437 H 622.415 3.3563 -2.74837 0
M  V30 6438 H 623.086 4.95806 -2.42653 0
M  V30 6439 H 625.562 4.10162 -0.700444 0
M  V30 6440 H 624.438 5.46769 -0.483179 0
M  V30 6441 H 624.699 4.34072 0.838674 0
M  V30 6442 N 623.758 0.647228 1.43697 0
M  V30 6443 C 625.035 0.0883758 1.954 0
M  V30 6444 C 625.415 -1.39006 1.58873 0
M  V30 6445 O 624.763 -2.11255 0.87083 0
M  V30 6446 C 624.973 0.328263 3.47453 0
M  V30 6447 C 626.321 0.230009 4.23977 0
M  V30 6448 O 627.345 0.260496 3.55246 0
M  V30 6449 O 626.204 0.148615 5.46298 0
M  V30 6450 H 623.298 -0.0130683 0.826897 0
M  V30 6451 H 625.844 0.72005 1.53666 0
M  V30 6452 H 624.616 1.3535 3.67146 0
M  V30 6453 H 624.239 -0.336772 3.96171 0
M  V30 6454 N 625.236 -1.5273 0.388769 0
M  V30 6455 C 626.513 -1.93981 -0.251133 0
M  V30 6456 C 626.893 -1.32418 -1.64404 0
M  V30 6457 O 626.241 -0.492074 -2.23139 0
M  V30 6458 C 626.451 -3.47891 -0.27802 0
M  V30 6459 C 627.799 -4.21559 -0.507229 0
M  V30 6460 O 628.823 -3.54394 -0.358252 0
M  V30 6461 O 627.682 -5.40626 -0.799094 0
M  V30 6462 H 624.776 -0.812157 -0.15598 0
M  V30 6463 H 627.322 -1.63809 0.443237 0
M  V30 6464 H 626.094 -3.8503 0.697669 0
M  V30 6465 H 625.717 -3.84364 -1.01733 0
M  V30 6466 N 626.714 -0.118576 -1.57153 0
M  V30 6467 C 627.644 0.828436 -2.1831 0
M  V30 6468 C 628.625 1.27758 -1.12303 0
M  V30 6469 O 629.81 1.34026 -1.40537 0
M  V30 6470 C 626.94 2.07876 -2.78217 0
M  V30 6471 C 625.894 1.76742 -3.89803 0
M  V30 6472 C 625.22 3.08801 -4.36516 0
M  V30 6473 C 626.52 1.03606 -5.11921 0
M  V30 6474 H 628.214 0.318824 -2.97698 0
M  V30 6475 H 625.76 0.151911 -1.43196 0
M  V30 6476 H 627.713 2.74584 -3.19659 0
M  V30 6477 H 626.437 2.61161 -1.96118 0
M  V30 6478 H 625.096 1.12424 -3.48936 0
M  V30 6479 H 624.744 3.6002 -3.51276 0
M  V30 6480 H 624.444 2.88743 -5.11763 0
M  V30 6481 H 625.968 3.76627 -4.80608 0
M  V30 6482 H 627.382 1.60467 -5.50385 0
M  V30 6483 H 625.779 0.936454 -5.92748 0
M  V30 6484 H 626.849 0.0227421 -4.84895 0
M  V30 6485 N 628.193 1.56834 0.155195 0
M  V30 6486 C 629.123 2.00678 1.19376 0
M  V30 6487 C 630.104 0.884973 1.45266 0
M  V30 6488 O 631.289 1.1522 1.56326 0
M  V30 6489 C 628.419 2.38042 2.5289 0
M  V30 6490 C 627.373 3.53332 2.41538 0
M  V30 6491 C 626.699 3.76485 3.79688 0
M  V30 6492 C 627.999 4.86265 1.9064 0
M  V30 6493 H 629.693 2.87688 0.829232 0
M  V30 6494 H 627.239 1.38407 0.397445 0
M  V30 6495 H 629.192 2.67314 3.25763 0
M  V30 6496 H 627.916 1.4796 2.91162 0
M  V30 6497 H 626.575 3.24213 1.71117 0
M  V30 6498 H 626.223 2.83667 4.15382 0
M  V30 6499 H 625.923 4.54068 3.72956 0
M  V30 6500 H 627.447 4.08174 4.54122 0
M  V30 6501 H 628.861 5.14308 2.53299 0
M  V30 6502 H 627.258 5.67597 1.94818 0
M  V30 6503 H 628.328 4.77184 0.861596 0
M  V30 6504 N 629.671 -0.424282 1.51781 0
M  V30 6505 C 630.917 -1.17434 1.6534 0
M  V30 6506 C 631.25 -1.90549 0.374806 0
M  V30 6507 O 630.525 -1.84145 -0.626179 0
M  V30 6508 C 630.808 -2.18093 2.86544 0
M  V30 6509 C 630.661 -1.48975 4.24413 0
M  V30 6510 C 631.98 -3.18934 3.03264 0
M  V30 6511 H 629.099 -0.425566 0.601716 0
M  V30 6512 H 631.741 -0.461921 1.84299 0
M  V30 6513 H 629.891 -2.78849 2.7051 0
M  V30 6514 H 631.563 -0.914551 4.52143 0
M  V30 6515 H 629.806 -0.791893 4.26511 0
M  V30 6516 H 630.477 -2.22347 5.05238 0
M  V30 6517 H 632.953 -2.68243 3.18096 0
M  V30 6518 H 631.829 -3.86645 3.89611 0
M  V30 6519 H 632.09 -3.85793 2.15908 0
M  V30 6520 N 631.149 -1.42148 -0.680565 0
M  V30 6521 C 632.565 -1.24947 -0.992995 0
M  V30 6522 C 632.765 -0.149527 -2.00944 0
M  V30 6523 O 631.821 0.481145 -2.47873 0
M  V30 6524 C 633.134 -2.60426 -1.5033 0
M  V30 6525 C 634.682 -2.67733 -1.62137 0
M  V30 6526 C 635.157 -4.03564 -2.16565 0
M  V30 6527 N 636.648 -4.05488 -2.23905 0
M  V30 6528 C 637.383 -5.07401 -2.67081 0
M  V30 6529 N 636.879 -6.19698 -3.09751 0
M  V30 6530 N 638.672 -4.94758 -2.66778 0
M  V30 6531 H 630.823 -2.12399 -0.0074788 0
M  V30 6532 H 633.086 -0.94571 -0.0658529 0
M  V30 6533 H 632.792 -3.41743 -0.830947 0
M  V30 6534 H 632.666 -2.83949 -2.483 0
M  V30 6535 H 635.053 -1.86765 -2.2848 0
M  V30 6536 H 635.134 -2.48004 -0.626713 0
M  V30 6537 H 634.778 -4.84987 -1.50833 0
M  V30 6538 H 634.708 -4.20641 -3.1681 0
M  V30 6539 H 637.199 -3.24415 -1.93812 0
M  V30 6540 H 637.512 -6.93318 -3.41365 0
M  V30 6541 H 635.857 -6.23212 -3.07623 0
M  V30 6542 H 639.048 -4.06105 -2.32801 0
M  V30 6543 H 639.221 -5.74317 -3.00107 0
M  V30 6544 N 632.627 0.916307 -1.28225 0
M  V30 6545 C 633.876 1.65975 -1.14608 0
M  V30 6546 C 634.189 1.93204 0.305191 0
M  V30 6547 O 635.395 2.65611 0.562432 0
M  V30 6548 C 633.851 2.98989 -2.00333 0
M  V30 6549 C 633.459 2.79417 -3.50186 0
M  V30 6550 C 635.203 3.76856 -1.95397 0
M  V30 6551 C 633.11 4.08056 -4.28071 0
M  V30 6552 H 632.04 0.622587 -0.425324 0
M  V30 6553 H 634.691 1.01705 -1.52736 0
M  V30 6554 H 633.073 3.6438 -1.5506 0
M  V30 6555 H 634.247 2.22723 -4.034 0
M  V30 6556 H 632.562 2.14966 -3.56621 0
M  V30 6557 H 635.159 4.72203 -2.50856 0
M  V30 6558 H 635.502 4.05776 -0.930137 0
M  V30 6559 H 636.035 3.1828 -2.38626 0
M  V30 6560 H 632.774 3.8431 -5.31024 0
M  V30 6561 H 632.294 4.64371 -3.79631 0
M  V30 6562 H 633.973 4.76333 -4.37854 0
M  V30 6563 N 634.105 1.10431 1.1244 0
M  V30 6564 C 635.353 0.845045 1.83585 0
M  V30 6565 C 635.674 -0.631168 1.84503 0
M  V30 6566 O 634.944 -1.45825 1.30813 0
M  V30 6567 H 633.524 0.309628 0.679809 0
M  V30 6568 H 636.186 1.39458 1.36153 0
M  V30 6569 H 635.282 1.20786 2.8778 0
M  V30 6570 N 635.583 -1.29855 0.893053 0
M  V30 6571 C 636.53 -2.27909 0.364161 0
M  V30 6572 C 637.5 -1.56726 -0.550093 0
M  V30 6573 O 638.685 -1.84747 -0.47677 0
M  V30 6574 C 635.825 -3.42678 -0.408178 0
M  V30 6575 C 634.938 -4.28659 0.536212 0
M  V30 6576 C 634.073 -5.30599 -0.252521 0
M  V30 6577 C 633.112 -6.08234 0.686822 0
M  V30 6578 N 632.249 -7.02068 -0.0670902 0
M  V30 6579 H 637.089 -2.72531 1.20544 0
M  V30 6580 H 634.626 -1.34047 0.605779 0
M  V30 6581 H 636.584 -4.07986 -0.871962 0
M  V30 6582 H 635.214 -2.99103 -1.21397 0
M  V30 6583 H 634.266 -3.63584 1.1185 0
M  V30 6584 H 635.578 -4.8274 1.25552 0
M  V30 6585 H 634.732 -6.01694 -0.777801 0
M  V30 6586 H 633.471 -4.77233 -1.005 0
M  V30 6587 H 632.476 -5.3601 1.22366 0
M  V30 6588 H 633.701 -6.63689 1.43852 0
M  V30 6589 H 631.647 -6.5108 -0.801955 0
M  V30 6590 H 631.564 -7.53675 0.59243 0
M  V30 6591 H 632.832 -7.77392 -0.572851 0
M  V30 6592 N 637.061 -0.65484 -1.43351 0
M  V30 6593 C 638.011 0.0581325 -2.27926 0
M  V30 6594 C 638.995 0.793188 -1.3999 0
M  V30 6595 O 640.187 0.675387 -1.63608 0
M  V30 6596 C 637.316 1.02272 -3.27712 0
M  V30 6597 C 636.402 0.286048 -4.23134 0
M  V30 6598 N 636.793 -0.698298 -5.00957 0
M  V30 6599 C 635.091 0.527272 -4.42872 0
M  V30 6600 C 635.792 -1.1357 -5.70506 0
M  V30 6601 N 634.768 -0.469631 -5.41568 0
M  V30 6602 H 638.57 -0.697182 -2.85511 0
M  V30 6603 H 636.084 -0.482252 -1.55074 0
M  V30 6604 H 638.081 1.5483 -3.87083 0
M  V30 6605 H 636.741 1.77807 -2.71688 0
M  V30 6606 H 637.752 -1.07708 -5.06576 0
M  V30 6607 H 634.429 1.26367 -3.97916 0
M  V30 6608 H 635.819 -1.95027 -6.42973 0
M  V30 6609 N 638.539 1.52521 -0.396863 0
M  V30 6610 C 639.764 2.06571 0.185258 0
M  V30 6611 C 640.189 1.26605 1.39115 0
M  V30 6612 O 639.547 0.293055 1.78916 0
M  V30 6613 C 639.595 3.5674 0.526189 0
M  V30 6614 O 638.699 3.7929 1.61903 0
M  V30 6615 H 638.04 0.663712 0.0195474 0
M  V30 6616 H 640.57 1.966 -0.566519 0
M  V30 6617 H 640.58 4.00311 0.788338 0
M  V30 6618 H 639.255 4.14379 -0.355397 0
M  V30 6619 H 637.832 3.47605 1.35 0
M  V30 6620 N 640.017 0.126909 1.57088 0
M  V30 6621 C 641.433 -0.229641 1.57939 0
M  V30 6622 C 641.633 -1.66145 1.1401 0
M  V30 6623 O 640.689 -2.3843 0.831119 0
M  V30 6624 C 642.002 0.0108648 3.00698 0
M  V30 6625 C 643.55 -0.054418 3.12953 0
M  V30 6626 C 644.025 0.158497 4.57726 0
M  V30 6627 N 645.516 0.104735 4.63082 0
M  V30 6628 C 646.251 0.24427 5.72879 0
M  V30 6629 N 645.747 0.440415 6.91399 0
M  V30 6630 N 647.54 0.183286 5.61801 0
M  V30 6631 H 639.691 1.06203 1.83942 0
M  V30 6632 H 641.954 0.418834 0.85046 0
M  V30 6633 H 641.66 1.00102 3.37154 0
M  V30 6634 H 641.534 -0.717512 3.70313 0
M  V30 6635 H 643.921 -1.0351 2.7635 0
M  V30 6636 H 644.002 0.705967 2.45865 0
M  V30 6637 H 643.646 1.13619 4.95028 0
M  V30 6638 H 643.576 -0.62197 5.22914 0
M  V30 6639 H 646.067 -0.0430298 3.77876 0
M  V30 6640 H 646.38 0.537536 7.70928 0
M  V30 6641 H 644.725 0.476488 6.93365 0
M  V30 6642 H 647.916 0.0309561 4.6809 0
M  V30 6643 H 648.089 0.295471 6.47326 0
M  V30 6644 N 641.495 -1.56914 -0.146875 0
M  V30 6645 C 642.723 -1.87515 -0.874394 0
M  V30 6646 C 643.138 -0.715116 -1.74733 0
M  V30 6647 O 642.495 0.315113 -1.79759 0
M  V30 6648 C 642.546 -3.17362 -1.731 0
M  V30 6649 O 642.267 -4.28897 -0.893245 0
M  V30 6650 C 643.768 -3.61479 -2.56609 0
M  V30 6651 H 640.988 -0.621546 -0.252827 0
M  V30 6652 H 643.532 -2.04023 -0.139627 0
M  V30 6653 H 641.687 -3.02608 -2.41883 0
M  V30 6654 H 642.101 -5.03146 -1.48137 0
M  V30 6655 H 643.575 -4.5517 -3.12289 0
M  V30 6656 H 644.052 -2.86773 -3.32653 0
M  V30 6657 H 644.658 -3.78927 -1.93117 0
M  V30 6658 N 642.974 0.416227 -1.52004 0
M  V30 6659 C 644.39 0.754319 -1.40649 0
M  V30 6660 C 644.59 1.95059 -0.505392 0
M  V30 6661 O 643.646 2.5248 0.0315057 0
M  V30 6662 C 644.959 1.0149 -2.83055 0
M  V30 6663 C 646.507 1.11805 -2.9235 0
M  V30 6664 C 646.982 1.41144 -4.35709 0
M  V30 6665 N 648.473 1.48024 -4.38911 0
M  V30 6666 C 649.208 1.72338 -5.46889 0
M  V30 6667 N 648.704 1.94303 -6.64995 0
M  V30 6668 N 650.497 1.74294 -5.34395 0
M  V30 6669 H 642.648 -0.371324 -2.09129 0
M  V30 6670 H 644.911 -0.103811 -0.942299 0
M  V30 6671 H 644.617 0.208345 -3.51082 0
M  V30 6672 H 644.491 1.93697 -3.23668 0
M  V30 6673 H 646.878 1.91521 -2.24508 0
M  V30 6674 H 646.959 0.17451 -2.55204 0
M  V30 6675 H 646.603 0.619484 -5.04108 0
M  V30 6676 H 646.533 2.36739 -4.70385 0
M  V30 6677 H 649.024 1.32868 -3.53772 0
M  V30 6678 H 649.337 2.12286 -7.43071 0
M  V30 6679 H 647.682 1.91582 -6.68073 0
M  V30 6680 H 650.873 1.56667 -4.41104 0
M  V30 6681 H 651.046 1.92904 -6.18621 0
M  V30 6682 N 644.452 1.42507 0.673017 0
M  V30 6683 C 645.682 1.46261 1.45916 0
M  V30 6684 C 646.09 0.0729724 1.89059 0
M  V30 6685 O 645.433 -0.922987 1.58829 0
M  V30 6686 C 645.495 2.32853 2.73898 0
M  V30 6687 C 645.159 3.80699 2.52819 0
M  V30 6688 C 646.156 4.72307 2.17306 0
M  V30 6689 C 643.841 4.24983 2.67758 0
M  V30 6690 C 645.835 6.06192 1.97003 0
M  V30 6691 C 643.522 5.58927 2.4707 0
M  V30 6692 C 644.52 6.49348 2.11746 0
M  V30 6693 O 644.208 7.80817 1.91259 0
M  V30 6694 H 643.94 0.499561 0.455428 0
M  V30 6695 H 646.494 1.87697 0.834196 0
M  V30 6696 H 644.724 1.86268 3.38882 0
M  V30 6697 H 646.413 2.28041 3.35786 0
M  V30 6698 H 647.179 4.39378 2.05359 0
M  V30 6699 H 643.058 3.54893 2.94231 0
M  V30 6700 H 646.602 6.76731 1.69355 0
M  V30 6701 H 642.499 5.91429 2.58615 0
M  V30 6702 H 643.267 7.92194 2.05843 0
M  V30 6703 N 645.93 -0.909495 1.28709 0
M  V30 6704 C 646.84 -2.04558 1.14861 0
M  V30 6705 C 647.856 -1.73842 0.0741621 0
M  V30 6706 O 649.032 -1.99383 0.2843 0
M  V30 6707 C 646.097 -3.36957 0.816148 0
M  V30 6708 C 645.158 -3.81255 1.97341 0
M  V30 6709 C 644.391 -5.07335 1.65671 0
M  V30 6710 O 644.614 -5.67514 0.573053 0
M  V30 6711 O 643.548 -5.47449 2.50167 0
M  V30 6712 H 647.374 -2.19161 2.10243 0
M  V30 6713 H 644.959 -1.03159 1.08068 0
M  V30 6714 H 646.841 -4.16436 0.644873 0
M  V30 6715 H 645.516 -3.2352 -0.107983 0
M  V30 6716 H 644.423 -3.02584 2.19986 0
M  V30 6717 H 645.756 -3.99261 2.87839 0
M  V30 6718 N 647.408 -1.11026 -1.11852 0
M  V30 6719 C 648.824 -0.843294 -1.35502 0
M  V30 6720 C 649.024 0.534179 -1.9429 0
M  V30 6721 O 648.08 1.28585 -2.17307 0
M  V30 6722 C 649.393 -1.94793 -2.29077 0
M  V30 6723 C 650.941 -1.97709 -2.42652 0
M  V30 6724 C 651.416 -3.07364 -3.39546 0
M  V30 6725 N 652.907 -3.0671 -3.47107 0
M  V30 6726 C 653.642 -3.88197 -4.22008 0
M  V30 6727 N 653.138 -4.79635 -4.99922 0
M  V30 6728 N 654.931 -3.76391 -4.17476 0
M  V30 6729 H 647.082 -1.99805 -0.720538 0
M  V30 6730 H 649.345 -0.868633 -0.379711 0
M  V30 6731 H 649.051 -2.93971 -1.93065 0
M  V30 6732 H 648.925 -1.84039 -3.29256 0
M  V30 6733 H 651.312 -0.991604 -2.77941 0
M  V30 6734 H 651.393 -2.1254 -1.4234 0
M  V30 6735 H 651.037 -4.06136 -3.04985 0
M  V30 6736 H 650.967 -2.89774 -4.39703 0
M  V30 6737 H 653.458 -2.40457 -2.91528 0
M  V30 6738 H 653.771 -5.38357 -5.54429 0
M  V30 6739 H 652.116 -4.8366 -4.99097 0
M  V30 6740 H 655.307 -3.04303 -3.55693 0
M  V30 6741 H 655.48 -4.40131 -4.75593 0
M  V30 6742 N 648.886 1.2938 -0.899927 0
M  V30 6743 C 649.833 2.27713 -0.376243 0
M  V30 6744 C 650.803 1.57016 0.541774 0
M  V30 6745 O 651.988 1.84997 0.466966 0
M  V30 6746 C 649.128 3.42889 0.39 0
M  V30 6747 C 648.241 4.28369 -0.558938 0
M  V30 6748 C 647.376 5.30726 0.224379 0
M  V30 6749 C 646.415 6.07862 -0.719068 0
M  V30 6750 N 645.552 7.02094 0.0298569 0
M  V30 6751 H 650.392 2.71888 -1.21988 0
M  V30 6752 H 647.929 1.33724 -0.612879 0
M  V30 6753 H 649.887 4.08443 0.850314 0
M  V30 6754 H 648.517 2.99743 1.19809 0
M  V30 6755 H 647.569 3.62986 -1.13777 0
M  V30 6756 H 648.881 4.82068 -1.2811 0
M  V30 6757 H 648.035 6.02098 0.745881 0
M  V30 6758 H 646.774 4.77759 0.979674 0
M  V30 6759 H 645.779 5.35353 -1.25207 0
M  V30 6760 H 647.004 6.62917 -1.4737 0
M  V30 6761 H 644.95 6.51496 0.767415 0
M  V30 6762 H 644.867 7.5335 -0.632391 0
M  V30 6763 H 646.135 7.77685 0.531615 0
M  V30 6764 N 650.364 0.662433 1.43002 0
M  V30 6765 C 651.61 0.179857 2.02001 0
M  V30 6766 C 651.943 -1.20625 1.52195 0
M  V30 6767 O 651.218 -1.80726 0.718911 0
M  V30 6768 C 651.501 0.200845 3.59539 0
M  V30 6769 C 651.354 1.62153 4.19555 0
M  V30 6770 C 652.673 -0.457738 4.37713 0
M  V30 6771 H 649.792 0.0668305 0.733964 0
M  V30 6772 H 652.434 0.84487 1.70182 0
M  V30 6773 H 650.584 -0.365411 3.86778 0
M  V30 6774 H 652.256 2.23908 4.03315 0
M  V30 6775 H 650.499 2.16601 3.75854 0
M  V30 6776 H 651.17 1.58799 5.28665 0
M  V30 6777 H 653.646 0.0241495 4.16093 0
M  V30 6778 H 652.522 -0.412363 5.47349 0
M  V30 6779 H 652.783 -1.53336 4.14657 0
M  V30 6780 N 651.842 -1.52309 0.404946 0
M  V30 6781 C 652.752 -2.30634 -0.429555 0
M  V30 6782 C 653.768 -1.38187 -1.05737 0
M  V30 6783 O 654.944 -1.71261 -1.05979 0
M  V30 6784 C 652.009 -3.10947 -1.53339 0
M  V30 6785 C 651.07 -4.19126 -0.929065 0
M  V30 6786 C 650.303 -4.95601 -1.9803 0
M  V30 6787 O 650.526 -4.72331 -3.1978 0
M  V30 6788 O 649.46 -5.80551 -1.58886 0
M  V30 6789 H 653.286 -3.0298 0.208963 0
M  V30 6790 H 650.871 -1.4845 0.168255 0
M  V30 6791 H 652.753 -3.60974 -2.1743 0
M  V30 6792 H 651.428 -2.41399 -2.15658 0
M  V30 6793 H 650.335 -3.73257 -0.250982 0
M  V30 6794 H 651.668 -4.90955 -0.349855 0
M  V30 6795 N 653.32 -0.135238 -1.57019 0
M  V30 6796 C 654.267 0.808908 -2.1616 0
M  V30 6797 C 655.237 1.25234 -1.09113 0
M  V30 6798 O 656.422 1.32697 -1.37099 0
M  V30 6799 C 653.562 2.04729 -2.77813 0
M  V30 6800 C 652.675 1.65074 -3.99218 0
M  V30 6801 C 651.81 2.84002 -4.48906 0
M  V30 6802 C 650.849 2.40663 -5.62803 0
M  V30 6803 N 649.986 3.5256 -6.07162 0
M  V30 6804 H 654.826 0.297751 -2.96509 0
M  V30 6805 H 652.363 0.135264 -1.46477 0
M  V30 6806 H 654.321 2.7731 -3.11697 0
M  V30 6807 H 652.951 2.53275 -2.00128 0
M  V30 6808 H 652.003 0.823029 -3.7139 0
M  V30 6809 H 653.315 1.29236 -4.81767 0
M  V30 6810 H 652.469 3.64788 -4.84783 0
M  V30 6811 H 651.208 3.23076 -3.65339 0
M  V30 6812 H 650.213 1.58314 -5.26514 0
M  V30 6813 H 651.438 2.02687 -6.48147 0
M  V30 6814 H 649.384 3.91278 -5.26534 0
M  V30 6815 H 649.301 3.20699 -6.84608 0
M  V30 6816 H 650.569 4.33738 -6.47682 0
M  V30 6817 N 654.798 1.5699 0.138552 0
M  V30 6818 C 656.047 1.82998 0.848205 0
M  V30 6819 C 656.36 0.717829 1.81952 0
M  V30 6820 O 657.566 0.863756 2.57394 0
M  V30 6821 C 656.022 3.24379 1.55904 0
M  V30 6822 C 655.63 4.43552 0.62971 0
M  V30 6823 C 657.374 3.59654 2.25498 0
M  V30 6824 C 655.281 5.75957 1.34266 0
M  V30 6825 H 654.211 0.682495 0.320495 0
M  V30 6826 H 656.862 1.83222 0.100924 0
M  V30 6827 H 655.244 3.18567 2.35226 0
M  V30 6828 H 656.418 4.6062 -0.128882 0
M  V30 6829 H 654.733 4.16379 0.0417526 0
M  V30 6830 H 657.33 4.55837 2.79493 0
M  V30 6831 H 657.673 2.86124 3.02388 0
M  V30 6832 H 658.206 3.67164 1.53087 0
M  V30 6833 H 654.945 6.52604 0.615441 0
M  V30 6834 H 654.465 5.62811 2.07375 0
M  V30 6835 H 656.144 6.19046 1.88126 0
M  V30 6836 N 656.276 -0.40816 1.52223 0
M  V30 6837 C 657.501 -1.18127 1.70472 0
M  V30 6838 C 657.926 -1.83491 0.41384 0
M  V30 6839 O 657.284 -1.70047 -0.628778 0
M  V30 6840 C 657.332 -2.21935 2.84213 0
M  V30 6841 O 656.436 -3.28099 2.4985 0
M  V30 6842 H 655.777 -0.344781 0.56747 0
M  V30 6843 H 658.307 -0.478328 1.9893 0
M  V30 6844 H 658.317 -2.66248 3.09153 0
M  V30 6845 H 656.992 -1.73744 3.7787 0
M  V30 6846 H 655.569 -2.89058 2.35584 0
M  V30 6847 N 657.755 -1.42862 -0.66545 0
M  V30 6848 C 658.688 -1.41509 -1.79026 0
M  V30 6849 C 659.666 -0.278106 -1.60204 0
M  V30 6850 O 660.85 -0.469792 -1.82552 0
M  V30 6851 C 657.977 -1.21494 -3.1616 0
M  V30 6852 C 657.023 -2.38308 -3.53711 0
M  V30 6853 S 657.856 -4.00852 -3.55075 0
M  V30 6854 C 659.012 -3.83197 -4.94885 0
M  V30 6855 H 659.245 -2.36691 -1.79902 0
M  V30 6856 H 656.778 -1.29746 -0.836977 0
M  V30 6857 H 658.736 -1.10633 -3.95311 0
M  V30 6858 H 657.397 -0.27881 -3.1286 0
M  V30 6859 H 656.59 -2.20076 -4.53412 0
M  V30 6860 H 656.192 -2.45732 -2.81943 0
M  V30 6861 H 658.484 -3.44765 -5.83218 0
M  V30 6862 H 659.427 -4.82607 -5.18166 0
M  V30 6863 H 659.835 -3.15884 -4.67843 0
M  V30 6864 N 659.233 0.902656 -1.29189 0
M  V30 6865 C 660.163 2.02294 -1.16616 0
M  V30 6866 C 661.144 1.6999 -0.0611175 0
M  V30 6867 O 662.329 1.9271 -0.240072 0
M  V30 6868 C 659.459 3.37018 -0.83882 0
M  V30 6869 C 658.413 3.83522 -1.89986 0
M  V30 6870 C 657.739 5.15337 -1.42589 0
M  V30 6871 C 659.039 4.04169 -3.30824 0
M  V30 6872 H 660.733 2.13071 -2.10336 0
M  V30 6873 H 658.279 1.02378 -1.01266 0
M  V30 6874 H 660.232 4.14895 -0.737584 0
M  V30 6875 H 658.956 3.26325 0.134071 0
M  V30 6876 H 657.615 3.07859 -1.99043 0
M  V30 6877 H 657.263 5.01056 -0.441759 0
M  V30 6878 H 656.963 5.47423 -2.13547 0
M  V30 6879 H 658.487 5.95758 -1.3381 0
M  V30 6880 H 659.901 4.72537 -3.24626 0
M  V30 6881 H 658.298 4.47604 -3.99713 0
M  V30 6882 H 659.368 3.08604 -3.74021 0
M  V30 6883 N 660.711 1.11618 1.11262 0
M  V30 6884 C 661.988 0.777876 1.79467 0
M  V30 6885 C 662.368 -0.733774 1.97937 0
M  V30 6886 O 661.716 -1.66443 1.56554 0
M  V30 6887 C 661.926 1.5431 3.13032 0
M  V30 6888 C 663.274 1.72357 3.88044 0
M  V30 6889 O 664.298 1.5075 3.22727 0
M  V30 6890 O 663.157 2.08276 5.05256 0
M  V30 6891 H 660.251 0.282018 0.777428 0
M  V30 6892 H 662.797 1.21971 1.17988 0
M  V30 6893 H 661.569 2.57132 2.94956 0
M  V30 6894 H 661.192 1.09495 3.82226 0
M  V30 6895 N 662.189 -1.289 0.906776 0
M  V30 6896 C 663.136 -2.2751 0.388313 0
M  V30 6897 C 664.106 -1.57301 -0.533439 0
M  V30 6898 O 665.291 -1.85243 -0.457148 0
M  V30 6899 C 662.431 -3.43091 -0.37181 0
M  V30 6900 C 661.544 -4.28066 0.581647 0
M  V30 6901 C 660.679 -5.30837 -0.19623 0
M  V30 6902 C 659.718 -6.07472 0.751294 0
M  V30 6903 N 658.855 -7.021 0.00737727 0
M  V30 6904 H 663.695 -2.71237 1.23428 0
M  V30 6905 H 661.232 -1.33397 0.619962 0
M  V30 6906 H 663.19 -4.08888 -0.828641 0
M  V30 6907 H 661.82 -3.00374 -1.18218 0
M  V30 6908 H 660.872 -3.62378 1.157 0
M  V30 6909 H 662.184 -4.81382 1.30665 0
M  V30 6910 H 661.338 -6.02485 -0.71394 0
M  V30 6911 H 660.077 -4.78272 -0.954324 0
M  V30 6912 H 659.082 -5.34682 1.28044 0
M  V30 6913 H 660.307 -6.62126 1.50883 0
M  V30 6914 H 658.253 -6.51894 -0.732854 0
M  V30 6915 H 658.17 -7.53004 0.672334 0
M  V30 6916 H 659.438 -7.77956 -0.490365 0
M  V30 6917 N 663.667 -0.670007 -1.42649 0
M  V30 6918 C 664.916 -0.187526 -2.00826 0
M  V30 6919 C 665.229 1.21142 -1.53571 0
M  V30 6920 O 666.435 1.79001 -2.04134 0
M  V30 6921 C 664.891 -0.284409 -3.58774 0
M  V30 6922 C 664.499 -1.6871 -4.15019 0
M  V30 6923 C 666.243 0.139605 -4.2427 0
M  V30 6924 C 664.15 -1.73701 -5.65316 0
M  V30 6925 H 663.08 -0.0663468 -0.751075 0
M  V30 6926 H 665.731 -0.834492 -1.63427 0
M  V30 6927 H 664.113 0.430364 -3.93655 0
M  V30 6928 H 665.287 -2.42857 -3.91608 0
M  V30 6929 H 663.602 -2.05855 -3.61957 0
M  V30 6930 H 666.199 0.122398 -5.3456 0
M  V30 6931 H 666.542 1.17403 -3.99402 0
M  V30 6932 H 667.075 -0.523995 -3.94334 0
M  V30 6933 H 663.814 -2.75109 -5.94975 0
M  V30 6934 H 663.334 -1.03903 -5.90732 0
M  V30 6935 H 665.013 -1.48829 -6.2965 0
M  V30 6936 N 665.145 1.52092 -0.413018 0
M  V30 6937 C 666.375 2.05974 0.160648 0
M  V30 6938 C 666.783 1.28267 1.39084 0
M  V30 6939 O 666.126 0.328805 1.80733 0
M  V30 6940 C 666.188 3.54918 0.572169 0
M  V30 6941 C 665.852 4.53705 -0.547826 0
M  V30 6942 C 666.849 5.00342 -1.41259 0
M  V30 6943 C 664.534 4.97089 -0.721627 0
M  V30 6944 C 666.528 5.89011 -2.43607 0
M  V30 6945 C 664.215 5.85554 -1.74841 0
M  V30 6946 C 665.213 6.3141 -2.60403 0
M  V30 6947 O 664.901 7.18123 -3.61323 0
M  V30 6948 H 664.633 0.675636 0.0221936 0
M  V30 6949 H 667.187 1.96931 -0.58373 0
M  V30 6950 H 665.417 3.61661 1.36889 0
M  V30 6951 H 667.106 3.91428 1.0742 0
M  V30 6952 H 667.872 4.67537 -1.28974 0
M  V30 6953 H 663.751 4.60954 -0.0652911 0
M  V30 6954 H 667.295 6.24725 -3.10425 0
M  V30 6955 H 663.192 6.17773 -1.87156 0
M  V30 6956 H 663.96 7.36244 -3.57613 0
M  V30 6957 N 666.623 0.143563 1.56945 0
M  V30 6958 C 667.872 -0.50835 1.95189 0
M  V30 6959 C 668.185 -1.66239 1.03073 0
M  V30 6960 O 669.391 -2.3787 1.30882 0
M  V30 6961 C 667.847 -0.955735 3.46978 0
M  V30 6962 C 667.455 0.171183 4.47673 0
M  V30 6963 C 669.199 -1.57763 3.94095 0
M  V30 6964 C 667.106 -0.294279 5.90667 0
M  V30 6965 H 666.036 -0.193679 0.728701 0
M  V30 6966 H 668.687 0.227357 1.82086 0
M  V30 6967 H 667.069 -1.7466 3.55401 0
M  V30 6968 H 668.243 0.948049 4.50942 0
M  V30 6969 H 666.558 0.701273 4.10452 0
M  V30 6970 H 669.155 -1.93745 4.98364 0
M  V30 6971 H 669.498 -2.46531 3.35452 0
M  V30 6972 H 670.031 -0.851728 3.88575 0
M  V30 6973 H 666.77 0.557939 6.53121 0
M  V30 6974 H 666.29 -1.0371 5.90766 0
M  V30 6975 H 667.969 -0.747426 6.42668 0
M  V30 6976 N 668.101 -1.57061 -0.130224 0
M  V30 6977 C 669.051 -1.95941 -1.16582 0
M  V30 6978 C 670.035 -0.832858 -1.37667 0
M  V30 6979 O 671.227 -1.09647 -1.38948 0
M  V30 6980 C 668.356 -2.35777 -2.49528 0
M  V30 6981 C 667.442 -3.5504 -2.31964 0
M  V30 6982 N 667.833 -4.71071 -1.84189 0
M  V30 6983 C 666.131 -3.60453 -2.62659 0
M  V30 6984 C 666.832 -5.53128 -1.80068 0
M  V30 6985 N 665.808 -4.95303 -2.24001 0
M  V30 6986 H 669.61 -2.83117 -0.788806 0
M  V30 6987 H 667.124 -1.58842 -0.3381 0
M  V30 6988 H 669.121 -2.61843 -3.24413 0
M  V30 6989 H 667.781 -1.49961 -2.87996 0
M  V30 6990 H 668.792 -4.94504 -1.53903 0
M  V30 6991 H 665.469 -2.85217 -3.0489 0
M  V30 6992 H 666.859 -6.56182 -1.4448 0
M  V30 6993 N 669.579 0.400081 -1.52437 0
M  V30 6994 C 670.99 0.97851 -1.59003 0
M  V30 6995 C 671.341 1.91293 -0.436068 0
M  V30 6996 O 670.466 2.1183 0.442365 0
M  V30 6997 C 671.061 1.78145 -2.88184 0
M  V30 6998 C 669.62 2.30976 -2.97199 0
M  V30 6999 C 668.767 1.11212 -2.54022 0
M  V30 7000 H 671.718 0.180002 -1.57676 0
M  V30 7001 H 671.739 2.63968 -2.74046 0
M  V30 7002 H 671.251 1.1011 -3.72152 0
M  V30 7003 H 669.352 3.02355 -2.17744 0
M  V30 7004 H 669.465 2.61221 -4.01622 0
M  V30 7005 H 667.829 1.46882 -2.08081 0
M  V30 7006 H 668.612 0.447307 -3.40373 0
M  V30 7007 N 671.057 1.43213 0.657864 0
M  V30 7008 C 672.473 1.26511 0.972992 0
M  V30 7009 C 672.673 0.181477 2.00681 0
M  V30 7010 O 671.729 -0.441649 2.48608 0
M  V30 7011 C 673.042 2.62784 1.46168 0
M  V30 7012 C 674.59 2.70278 1.57857 0
M  V30 7013 C 675.065 4.06958 2.10117 0
M  V30 7014 N 676.556 4.08999 2.17426 0
M  V30 7015 C 677.291 5.11585 2.58975 0
M  V30 7016 N 676.787 6.24548 2.99853 0
M  V30 7017 N 678.58 4.9894 2.58873 0
M  V30 7018 H 670.731 2.12384 -0.0263129 0
M  V30 7019 H 672.994 0.946638 0.0507992 0
M  V30 7020 H 672.7 3.43022 0.776474 0
M  V30 7021 H 672.574 2.87863 2.43751 0
M  V30 7022 H 674.961 1.90376 2.25479 0
M  V30 7023 H 675.042 2.4897 0.587179 0
M  V30 7024 H 674.686 4.87325 1.43098 0
M  V30 7025 H 674.616 4.25628 3.10078 0
M  V30 7026 H 677.107 3.27457 1.88627 0
M  V30 7027 H 677.42 6.98661 3.30292 0
M  V30 7028 H 675.765 6.28027 2.97669 0
M  V30 7029 H 678.956 4.09757 2.26311 0
M  V30 7030 H 679.129 5.79019 2.90932 0
M  V30 7031 N 672.536 -0.895792 1.29666 0
M  V30 7032 C 673.766 -1.67757 1.20586 0
M  V30 7033 C 674.174 -1.87729 -0.235432 0
M  V30 7034 O 673.517 -1.41706 -1.16898 0
M  V30 7035 C 673.579 -3.08117 1.85215 0
M  V30 7036 C 673.243 -3.1136 3.3452 0
M  V30 7037 C 674.24 -2.91217 4.30684 0
M  V30 7038 C 671.925 -3.33302 3.75786 0
M  V30 7039 C 673.919 -2.92955 5.66089 0
M  V30 7040 C 671.606 -3.3467 5.11311 0
M  V30 7041 C 672.604 -3.14519 6.06273 0
M  V30 7042 O 672.292 -3.15684 7.39323 0
M  V30 7043 H 672.024 -0.530601 0.418854 0
M  V30 7044 H 674.578 -1.12831 1.71634 0
M  V30 7045 H 672.808 -3.64661 1.28683 0
M  V30 7046 H 674.497 -3.68399 1.70403 0
M  V30 7047 H 675.263 -2.74074 4.00136 0
M  V30 7048 H 671.142 -3.48025 3.02324 0
M  V30 7049 H 674.686 -2.77145 6.40185 0
M  V30 7050 H 670.583 -3.51346 5.41504 0
M  V30 7051 H 671.351 -3.31924 7.48177 0
M  V30 7052 N 674.014 -1.12206 -1.10668 0
M  V30 7053 C 674.962 -0.782918 -2.19028 0
M  V30 7054 C 675.956 0.229175 -1.67843 0
M  V30 7055 O 677.162 0.0876295 -1.79787 0
M  V30 7056 H 673.537 -0.235339 -0.714227 0
M  V30 7057 H 675.508 -1.70527 -2.44874 0
M  V30 7058 C 674.257 -0.25116 -3.46792 0
M  V30 7059 H 673.58 -1.02123 -3.86537 0
M  V30 7060 H 675.02 -0.0521409 -4.23968 0
M  V30 7061 C 673.479 1.02037 -3.21076 0
M  V30 7062 O 674.009 2.09862 -3.42522 0
M  V30 7063 N 672.215 0.946348 -2.74759 0
M  V30 7064 H 671.762 0.068777 -2.57508 0
M  V30 7065 H 671.72 1.79775 -2.57931 0
M  V30 7066 N 675.492 1.28418 -0.913599 0
M  V30 7067 C 676.738 1.95627 -0.556933 0
M  V30 7068 C 677.093 1.706 0.889565 0
M  V30 7069 O 676.386 1.01637 1.6242 0
M  V30 7070 C 676.58 3.48283 -0.802099 0
M  V30 7071 C 676.409 3.88151 -2.27088 0
M  V30 7072 C 675.179 4.1232 -2.92096 0
M  V30 7073 C 677.377 3.98819 -3.24728 0
M  V30 7074 N 675.359 4.3886 -4.29272 0
M  V30 7075 C 676.73 4.29571 -4.47067 0
M  V30 7076 C 678.785 3.81342 -3.20129 0
M  V30 7077 C 677.488 4.44667 -5.65388 0
M  V30 7078 C 679.514 3.97656 -4.37749 0
M  V30 7079 C 678.876 4.2878 -5.58862 0
M  V30 7080 H 674.975 0.739715 -0.253664 0
M  V30 7081 H 677.559 1.55074 -1.1773 0
M  V30 7082 H 675.73 3.87826 -0.211007 0
M  V30 7083 H 677.462 4.02623 -0.409478 0
M  V30 7084 H 674.217 4.06611 -2.42826 0
M  V30 7085 H 674.641 4.56214 -5.00198 0
M  V30 7086 H 679.283 3.56331 -2.2757 0
M  V30 7087 H 677.001 4.68509 -6.58426 0
M  V30 7088 H 680.587 3.85569 -4.35692 0
M  V30 7089 H 679.467 4.41136 -6.48359 0
M  V30 7090 N 676.97 0.677563 1.42291 0
M  V30 7091 C 677.917 0.000947061 2.308 0
M  V30 7092 C 678.887 -0.789889 1.46116 0
M  V30 7093 O 680.072 -0.761578 1.74942 0
M  V30 7094 C 677.212 -0.942387 3.31984 0
M  V30 7095 C 676.325 -0.14508 4.31756 0
M  V30 7096 C 675.46 -1.08442 5.20013 0
M  V30 7097 C 674.499 -0.278958 6.11464 0
M  V30 7098 N 673.636 -1.17115 6.92263 0
M  V30 7099 H 678.476 0.761521 2.88106 0
M  V30 7100 H 676.013 0.38727 1.41911 0
M  V30 7101 H 677.971 -1.50317 3.89179 0
M  V30 7102 H 676.601 -1.66956 2.76271 0
M  V30 7103 H 675.653 0.532368 3.76656 0
M  V30 7104 H 676.965 0.48015 4.96484 0
M  V30 7105 H 676.119 -1.71504 5.81955 0
M  V30 7106 H 674.858 -1.74353 4.55469 0
M  V30 7107 H 673.863 0.364856 5.48588 0
M  V30 7108 H 675.088 0.376099 6.78058 0
M  V30 7109 H 673.034 -1.81661 6.30345 0
M  V30 7110 H 672.951 -0.601063 7.53607 0
M  V30 7111 H 674.219 -1.78915 7.58689 0
M  V30 7112 N 678.448 -1.51871 0.421078 0
M  V30 7113 C 679.358 -2.31077 -0.405069 0
M  V30 7114 C 680.374 -1.39301 -1.04265 0
M  V30 7115 O 681.55 -1.72376 -1.04157 0
M  V30 7116 C 678.615 -3.12556 -1.50032 0
M  V30 7117 C 677.676 -4.20088 -0.884559 0
M  V30 7118 C 676.909 -4.97673 -1.92762 0
M  V30 7119 O 677.132 -4.75696 -3.14753 0
M  V30 7120 O 676.066 -5.82203 -1.52719 0
M  V30 7121 H 679.892 -3.02742 0.241086 0
M  V30 7122 H 677.477 -1.48263 0.183991 0
M  V30 7123 H 679.359 -3.6326 -2.13589 0
M  V30 7124 H 678.034 -2.43672 -2.13086 0
M  V30 7125 H 676.941 -3.73502 -0.211379 0
M  V30 7126 H 678.274 -4.91298 -0.297763 0
M  V30 7127 N 679.926 -0.151884 -1.56866 0
M  V30 7128 C 680.874 0.80299 -2.183 0
M  V30 7129 C 681.868 1.25174 -1.14139 0
M  V30 7130 O 683.074 1.21966 -1.3238 0
M  V30 7131 H 679.449 0.277169 -0.699057 0
M  V30 7132 H 681.42 0.260699 -2.97259 0
M  V30 7133 C 680.169 2.03009 -2.82281 0
M  V30 7134 H 679.492 1.69377 -3.62148 0
M  V30 7135 H 680.932 2.67753 -3.28762 0
M  V30 7136 C 679.391 2.84123 -1.81041 0
M  V30 7137 O 679.921 3.8063 -1.28388 0
M  V30 7138 N 678.127 2.48753 -1.50234 0
M  V30 7139 H 677.674 1.70337 -1.93244 0
M  V30 7140 H 677.632 3.03316 -0.827445 0
M  V30 7141 N 681.404 1.57128 0.121893 0
M  V30 7142 C 682.334 2.03165 1.15092 0
M  V30 7143 C 683.315 0.915587 1.43356 0
M  V30 7144 O 684.5 1.1851 1.53847 0
M  V30 7145 C 681.63 2.43352 2.47784 0
M  V30 7146 C 680.584 3.58376 2.33989 0
M  V30 7147 C 679.91 3.84454 3.71617 0
M  V30 7148 C 681.21 4.90199 1.80283 0
M  V30 7149 H 682.904 2.89382 0.768023 0
M  V30 7150 H 680.45 1.39218 0.367998 0
M  V30 7151 H 682.403 2.74163 3.20019 0
M  V30 7152 H 681.127 1.54103 2.87958 0
M  V30 7153 H 679.786 3.2777 1.64202 0
M  V30 7154 H 679.434 2.92414 4.09271 0
M  V30 7155 H 679.134 4.61877 3.6324 0
M  V30 7156 H 680.658 4.17714 4.45362 0
M  V30 7157 H 682.072 5.19565 2.42333 0
M  V30 7158 H 680.469 5.71601 1.82735 0
M  V30 7159 H 681.539 4.78904 0.760184 0
M  V30 7160 N 682.882 -0.391992 1.52647 0
M  V30 7161 C 684.159 -1.15136 1.58123 0
M  V30 7162 C 684.539 -2.07786 0.372597 0
M  V30 7163 O 683.887 -2.19374 -0.639304 0
M  V30 7164 C 684.097 -1.91367 2.91856 0
M  V30 7165 C 685.445 -2.46833 3.45483 0
M  V30 7166 O 686.469 -2.01527 2.9371 0
M  V30 7167 O 685.328 -3.29587 4.3593 0
M  V30 7168 H 682.422 -0.526649 0.637629 0
M  V30 7169 H 684.968 -0.397386 1.64982 0
M  V30 7170 H 683.74 -1.23597 3.71268 0
M  V30 7171 H 683.363 -2.73732 2.88369 0
M  V30 7172 N 684.36 -1.4356 -0.65026 0
M  V30 7173 C 685.776 -1.27025 -0.966269 0
M  V30 7174 C 685.976 -0.192117 -2.00582 0
M  V30 7175 O 685.032 0.428459 -2.48838 0
M  V30 7176 C 686.345 -2.63556 -1.44772 0
M  V30 7177 C 687.893 -2.71111 -1.56421 0
M  V30 7178 C 688.368 -4.08067 -2.07956 0
M  V30 7179 N 689.859 -4.10146 -2.15254 0
M  V30 7180 C 690.594 -5.12952 -2.56258 0
M  V30 7181 N 690.09 -6.26129 -2.96537 0
M  V30 7182 N 691.883 -5.00306 -2.56224 0
M  V30 7183 H 684.034 -2.12367 0.0375758 0
M  V30 7184 H 686.297 -0.946894 -0.0457782 0
M  V30 7185 H 686.003 -3.43429 -0.758271 0
M  V30 7186 H 685.877 -2.89152 -2.42221 0
M  V30 7187 H 688.264 -1.91569 -2.24467 0
M  V30 7188 H 688.345 -2.49277 -0.573967 0
M  V30 7189 H 687.989 -4.88077 -1.40511 0
M  V30 7190 H 687.919 -4.27266 -3.07817 0
M  V30 7191 H 690.41 -3.28453 -1.86887 0
M  V30 7192 H 690.723 -7.00403 -3.26582 0
M  V30 7193 H 689.068 -6.29597 -2.94334 0
M  V30 7194 H 692.259 -4.10952 -2.24135 0
M  V30 7195 H 692.432 -5.80553 -2.87857 0
M  V30 7196 N 685.838 0.888903 -1.30139 0
M  V30 7197 C 687.115 1.62145 -1.094 0
M  V30 7198 C 687.495 2.08041 0.358091 0
M  V30 7199 O 686.843 1.84438 1.34888 0
M  V30 7200 C 687.053 2.794 -2.09133 0
M  V30 7201 C 688.401 3.49826 -2.40638 0
M  V30 7202 O 689.425 2.89583 -2.07412 0
M  V30 7203 O 688.284 4.58457 -2.97455 0
M  V30 7204 H 685.378 0.712475 -0.41989 0
M  V30 7205 H 687.924 0.936023 -1.41551 0
M  V30 7206 H 686.696 2.42762 -3.06891 0
M  V30 7207 H 686.319 3.55643 -1.77776 0
M  V30 7208 N 687.317 1.12792 1.10072 0
M  V30 7209 C 688.566 0.880232 1.81479 0
M  V30 7210 C 688.879 -0.595575 1.86312 0
M  V30 7211 O 690.085 -0.959979 2.53962 0
M  V30 7212 C 688.541 1.52514 3.25987 0
M  V30 7213 C 688.149 3.036 3.29441 0
M  V30 7214 C 689.893 1.35788 4.02196 0
M  V30 7215 C 687.8 3.61007 4.68431 0
M  V30 7216 H 686.73 0.325654 0.680048 0
M  V30 7217 H 689.381 1.35485 1.23758 0
M  V30 7218 H 687.763 0.978188 3.83728 0
M  V30 7219 H 688.937 3.64819 2.81502 0
M  V30 7220 H 687.252 3.19765 2.66719 0
M  V30 7221 H 689.849 1.76096 5.0487 0
M  V30 7222 H 690.192 0.301972 4.15203 0
M  V30 7223 H 690.725 1.87426 3.50879 0
M  V30 7224 H 687.464 4.66375 4.60625 0
M  V30 7225 H 686.984 3.04564 5.16721 0
M  V30 7226 H 688.663 3.60289 5.37402 0
M  V30 7227 N 688.795 -1.27931 0.920396 0
M  V30 7228 C 689.758 -2.25345 0.41858 0
M  V30 7229 C 690.758 -1.54116 -0.458798 0
M  V30 7230 O 691.948 -1.72235 -0.260912 0
M  V30 7231 C 689.08 -3.38556 -0.399104 0
M  V30 7232 H 690.273 -2.71251 1.27918 0
M  V30 7233 H 687.826 -1.39728 0.700406 0
M  V30 7234 H 688.561 -2.98021 -1.27882 0
M  V30 7235 H 688.346 -3.91426 0.229863 0
M  V30 7236 H 689.836 -4.10976 -0.740817 0
M  V30 7237 N 690.273 -0.685099 -1.4193 0
M  V30 7238 C 691.203 -0.0273506 -2.33484 0
M  V30 7239 C 692.184 0.778366 -1.51246 0
M  V30 7240 O 693.369 0.733449 -1.79817 0
M  V30 7241 C 690.499 0.917272 -3.34968 0
M  V30 7242 C 689.453 0.21941 -4.27437 0
M  V30 7243 C 688.779 1.27768 -5.1921 0
M  V30 7244 C 690.079 -0.907894 -5.14349 0
M  V30 7245 H 691.773 -0.791994 -2.88735 0
M  V30 7246 H 689.319 -0.382308 -1.38832 0
M  V30 7247 H 691.272 1.38657 -3.97935 0
M  V30 7248 H 689.996 1.71346 -2.78043 0
M  V30 7249 H 688.655 -0.229757 -3.65879 0
M  V30 7250 H 688.303 2.06612 -4.58607 0
M  V30 7251 H 688.003 0.815803 -5.81909 0
M  V30 7252 H 689.527 1.7477 -5.85054 0
M  V30 7253 H 690.941 -0.519348 -5.70943 0
M  V30 7254 H 689.338 -1.2962 -5.85934 0
M  V30 7255 H 690.408 -1.75218 -4.52136 0
M  V30 7256 N 691.751 1.51645 -0.429126 0
M  V30 7257 C 692.681 2.30434 0.377148 0
M  V30 7258 C 693.662 1.35493 1.02838 0
M  V30 7259 O 694.847 1.6441 1.03359 0
M  V30 7260 C 691.977 3.14038 1.48315 0
M  V30 7261 C 690.931 4.1719 0.955855 0
M  V30 7262 C 690.257 4.89263 2.15698 0
M  V30 7263 C 691.557 5.223 -0.00402136 0
M  V30 7264 H 693.251 2.98085 -0.280336 0
M  V30 7265 H 690.797 1.43354 -0.136265 0
M  V30 7266 H 692.75 3.67933 2.05435 0
M  V30 7267 H 691.474 2.44193 2.16881 0
M  V30 7268 H 690.133 3.64335 0.406929 0
M  V30 7269 H 689.781 4.15929 2.82864 0
M  V30 7270 H 689.481 5.59009 1.81059 0
M  V30 7271 H 691.005 5.45978 2.73387 0
M  V30 7272 H 692.419 5.71315 0.476607 0
M  V30 7273 H 690.816 5.99525 -0.26258 0
M  V30 7274 H 691.886 4.75638 -0.943236 0
M  V30 7275 N 693.229 0.160201 1.56784 0
M  V30 7276 C 694.176 -0.774416 2.1742 0
M  V30 7277 C 695.146 -1.23483 1.11091 0
M  V30 7278 O 696.331 -1.30499 1.39193 0
M  V30 7279 C 693.471 -2.00283 2.81035 0
M  V30 7280 C 692.584 -1.58701 4.01793 0
M  V30 7281 C 691.719 -2.76824 4.53367 0
M  V30 7282 C 690.758 -2.31679 5.66561 0
M  V30 7283 N 689.895 -3.42856 6.12694 0
M  V30 7284 H 694.735 -0.250542 2.96945 0
M  V30 7285 H 692.272 -0.111943 1.46673 0
M  V30 7286 H 694.23 -2.72316 3.16069 0
M  V30 7287 H 692.86 -2.5006 2.04132 0
M  V30 7288 H 691.912 -0.76384 3.72652 0
M  V30 7289 H 693.224 -1.21555 4.83762 0
M  V30 7290 H 692.378 -3.57029 4.90525 0
M  V30 7291 H 691.117 -3.17223 3.70433 0
M  V30 7292 H 690.122 -1.49917 5.28966 0
M  V30 7293 H 691.347 -1.9235 6.5129 0
M  V30 7294 H 689.293 -3.82852 5.32692 0
M  V30 7295 H 689.21 -3.09767 6.89624 0
M  V30 7296 H 690.478 -4.23379 6.545 0
M  V30 7297 N 694.707 -1.5719 -0.113559 0
M  V30 7298 C 695.637 -2.03772 -1.14013 0
M  V30 7299 C 696.618 -0.923176 -1.42869 0
M  V30 7300 O 697.803 -1.19325 -1.53216 0
M  V30 7301 C 694.933 -2.44663 -2.4649 0
M  V30 7302 C 693.887 -3.59612 -2.32085 0
M  V30 7303 C 693.213 -3.8642 -3.69573 0
M  V30 7304 C 694.513 -4.91149 -1.7768 0
M  V30 7305 H 696.207 -2.89785 -0.752665 0
M  V30 7306 H 693.753 -1.39412 -0.360609 0
M  V30 7307 H 695.706 -2.75857 -3.18561 0
M  V30 7308 H 694.43 -1.55628 -2.87137 0
M  V30 7309 H 693.089 -3.28636 -1.62461 0
M  V30 7310 H 692.737 -2.94581 -4.07715 0
M  V30 7311 H 692.437 -4.63797 -3.60786 0
M  V30 7312 H 693.961 -4.2007 -4.4314 0
M  V30 7313 H 695.375 -5.20843 -2.39574 0
M  V30 7314 H 693.772 -5.72562 -1.79701 0
M  V30 7315 H 694.842 -4.79301 -0.734776 0
M  V30 7316 N 696.185 0.383891 -1.52853 0
M  V30 7317 C 697.132 1.46924 -1.77995 0
M  V30 7318 C 698.102 1.53958 -0.623396 0
M  V30 7319 O 699.287 1.70134 -0.863657 0
M  V30 7320 C 696.427 2.84093 -1.95921 0
M  V30 7321 C 695.54 2.86171 -3.23621 0
M  V30 7322 C 694.675 4.14799 -3.31836 0
M  V30 7323 C 693.714 4.10948 -4.53639 0
M  V30 7324 N 692.851 5.31192 -4.59107 0
M  V30 7325 H 697.691 1.24786 -2.70615 0
M  V30 7326 H 695.228 0.605265 -1.34071 0
M  V30 7327 H 697.186 3.63755 -2.04299 0
M  V30 7328 H 695.816 3.04671 -1.06656 0
M  V30 7329 H 694.868 1.9885 -3.24288 0
M  V30 7330 H 696.18 2.79194 -4.13343 0
M  V30 7331 H 695.334 5.02867 -3.39425 0
M  V30 7332 H 694.073 4.24505 -2.40097 0
M  V30 7333 H 693.078 3.21268 -4.46169 0
M  V30 7334 H 694.303 4.0286 -5.467 0
M  V30 7335 H 692.249 5.41518 -3.70262 0
M  V30 7336 H 692.166 5.26311 -5.42708 0
M  V30 7337 H 693.434 6.21143 -4.70958 0
M  V30 7338 N 697.663 1.43903 0.642637 0
M  V30 7339 C 699.079 1.27536 0.959519 0
M  V30 7340 C 699.279 0.202751 2.00477 0
M  V30 7341 O 698.335 -0.415256 2.49062 0
M  V30 7342 C 699.648 2.6432 1.43372 0
M  V30 7343 C 701.196 2.71937 1.54981 0
M  V30 7344 C 701.671 4.09164 2.05789 0
M  V30 7345 N 703.162 4.11282 2.13076 0
M  V30 7346 C 703.897 5.14303 2.53534 0
M  V30 7347 N 703.393 6.27693 2.93212 0
M  V30 7348 N 705.186 5.01657 2.53567 0
M  V30 7349 H 697.337 2.12344 -0.0488376 0
M  V30 7350 H 699.6 0.947124 0.0407559 0
M  V30 7351 H 699.306 3.43826 0.740048 0
M  V30 7352 H 699.18 2.90432 2.40685 0
M  V30 7353 H 701.567 1.92757 2.23448 0
M  V30 7354 H 701.648 2.49578 0.560739 0
M  V30 7355 H 701.292 4.88815 1.37921 0
M  V30 7356 H 701.222 4.28893 3.05546 0
M  V30 7357 H 703.713 3.2944 1.85143 0
M  V30 7358 H 704.026 7.02125 3.22863 0
M  V30 7359 H 702.371 6.31149 2.90991 0
M  V30 7360 H 705.562 4.12134 2.21952 0
M  V30 7361 H 705.735 5.82072 2.84774 0
M  V30 7362 N 699.141 -0.881989 1.30609 0
M  V30 7363 C 700.552 -1.44956 1.17664 0
M  V30 7364 C 700.903 -1.94945 -0.221531 0
M  V30 7365 O 700.028 -1.85257 -1.11844 0
M  V30 7366 C 700.623 -2.63474 2.12995 0
M  V30 7367 C 699.182 -3.16312 2.04019 0
M  V30 7368 C 698.329 -1.89008 2.02907 0
M  V30 7369 H 701.28 -0.691645 1.42835 0
M  V30 7370 H 701.301 -3.39783 1.71253 0
M  V30 7371 H 700.813 -2.2706 3.14746 0
M  V30 7372 H 698.914 -3.57376 1.0542 0
M  V30 7373 H 699.027 -3.79409 2.9255 0
M  V30 7374 H 697.391 -2.07465 1.47751 0
M  V30 7375 H 698.174 -1.54848 3.06394 0
M  V30 7376 N 700.619 -1.13374 -1.09472 0
M  V30 7377 C 701.868 -0.889844 -1.8101 0
M  V30 7378 C 702.181 0.585686 -1.86625 0
M  V30 7379 O 703.387 0.946497 -2.54467 0
M  V30 7380 C 701.843 -1.54241 -3.25174 0
M  V30 7381 C 701.451 -3.05343 -3.27826 0
M  V30 7382 C 703.195 -1.37919 -4.0147 0
M  V30 7383 C 701.102 -3.63486 -4.6651 0
M  V30 7384 H 700.032 -0.329256 -0.678311 0
M  V30 7385 H 702.683 -1.36139 -1.23038 0
M  V30 7386 H 701.065 -0.998525 -3.83204 0
M  V30 7387 H 702.239 -3.66307 -2.79563 0
M  V30 7388 H 700.554 -3.21175 -2.65019 0
M  V30 7389 H 703.151 -1.78771 -5.03929 0
M  V30 7390 H 703.494 -0.323987 -4.15037 0
M  V30 7391 H 704.027 -1.89284 -3.49881 0
M  V30 7392 H 700.766 -4.68811 -4.58145 0
M  V30 7393 H 700.286 -3.073 -5.15099 0
M  V30 7394 H 701.965 -3.63134 -5.35484 0
M  V30 7395 N 702.098 1.27442 -0.927168 0
M  V30 7396 C 703.008 2.30599 -0.431448 0
M  V30 7397 C 704.024 1.67028 0.48761 0
M  V30 7398 O 705.2 1.97962 0.370546 0
M  V30 7399 C 702.265 3.45327 0.308292 0
M  V30 7400 C 701.326 4.24418 -0.645615 0
M  V30 7401 C 700.559 5.33667 0.0589164 0
M  V30 7402 O 700.782 5.5589 1.27838 0
M  V30 7403 O 699.716 5.98774 -0.612638 0
M  V30 7404 H 703.542 2.75036 -1.28797 0
M  V30 7405 H 701.127 1.32382 -0.692495 0
M  V30 7406 H 703.009 4.15107 0.725555 0
M  V30 7407 H 701.684 3.02945 1.14043 0
M  V30 7408 H 700.591 3.57174 -1.11255 0
M  V30 7409 H 701.924 4.70512 -1.44496 0
M  V30 7410 N 703.576 0.692616 1.41565 0
M  V30 7411 C 704.506 0.0397325 2.33466 0
M  V30 7412 C 705.487 -0.770334 1.51657 0
M  V30 7413 O 706.672 -0.723903 1.80203 0
M  V30 7414 C 703.802 -0.899495 3.3545 0
M  V30 7415 C 702.756 -0.196738 4.27548 0
M  V30 7416 C 702.082 -1.25012 5.19881 0
M  V30 7417 C 703.382 0.935158 5.1386 0
M  V30 7418 H 705.076 0.807296 2.88311 0
M  V30 7419 H 702.622 0.389665 1.38628 0
M  V30 7420 H 704.575 -1.36545 3.98665 0
M  V30 7421 H 703.299 -1.69869 2.78948 0
M  V30 7422 H 701.958 0.249158 3.65752 0
M  V30 7423 H 701.606 -2.04177 4.59696 0
M  V30 7424 H 701.306 -0.784931 5.82334 0
M  V30 7425 H 702.83 -1.71665 5.85972 0
M  V30 7426 H 704.244 0.549619 5.70659 0
M  V30 7427 H 702.641 1.32726 5.85238 0
M  V30 7428 H 703.711 1.77613 4.512 0
M  V30 7429 N 705.054 -1.51416 0.437162 0
M  V30 7430 C 706.279 -2.0699 -0.130424 0
M  V30 7431 C 706.704 -1.30249 -1.35709 0
M  V30 7432 O 706.062 -0.340388 -1.78076 0
M  V30 7433 C 706.11 -3.5801 -0.43142 0
M  V30 7434 O 705.214 -3.8345 -1.5179 0
M  V30 7435 H 704.555 -0.663997 -0.00194339 0
M  V30 7436 H 707.085 -1.95029 0.618445 0
M  V30 7437 H 707.095 -4.02261 -0.681926 0
M  V30 7438 H 705.77 -4.13291 0.465137 0
M  V30 7439 H 704.347 -3.51062 -1.25737 0
M  V30 7440 N 706.532 -0.168513 -1.56696 0
M  V30 7441 C 707.809 0.523367 -1.88468 0
M  V30 7442 C 708.189 1.81503 -1.07796 0
M  V30 7443 O 707.537 2.27859 -0.171045 0
M  V30 7444 C 707.747 0.767991 -3.40445 0
M  V30 7445 C 709.095 1.09924 -4.10124 0
M  V30 7446 O 710.119 0.856625 -3.45746 0
M  V30 7447 O 708.978 1.55681 -5.23856 0
M  V30 7448 H 706.072 0.269447 -0.781874 0
M  V30 7449 H 708.618 -0.206739 -1.68436 0
M  V30 7450 H 707.39 -0.145254 -3.9103 0
M  V30 7451 H 707.013 1.55151 -3.66079 0
M  V30 7452 N 708.01 1.57248 0.105221 0
M  V30 7453 C 709.24 1.89492 0.823175 0
M  V30 7454 C 709.648 0.75934 1.73294 0
M  V30 7455 O 708.991 -0.278182 1.81581 0
M  V30 7456 C 709.053 3.16891 1.69765 0
M  V30 7457 C 708.717 4.46787 0.960769 0
M  V30 7458 C 709.714 5.19061 0.295218 0
M  V30 7459 C 707.399 4.93467 0.937854 0
M  V30 7460 C 709.393 6.36246 -0.383393 0
M  V30 7461 C 707.08 6.10566 0.255452 0
M  V30 7462 C 708.078 6.81804 -0.404003 0
M  V30 7463 O 707.766 7.96673 -1.07549 0
M  V30 7464 H 707.498 0.631512 0.24118 0
M  V30 7465 H 710.052 2.05203 0.0899655 0
M  V30 7466 H 708.282 2.973 2.47285 0
M  V30 7467 H 709.971 3.35046 2.29126 0
M  V30 7468 H 710.737 4.84044 0.304448 0
M  V30 7469 H 706.616 4.37913 1.44058 0
M  V30 7470 H 710.16 6.91787 -0.898696 0
M  V30 7471 H 706.057 6.45039 0.244032 0
M  V30 7472 H 706.825 8.12596 -0.981355 0
M  V30 7473 N 709.488 -0.375779 1.53054 0
M  V30 7474 C 710.737 -1.11674 1.67964 0
M  V30 7475 C 711.05 -1.90755 0.432655 0
M  V30 7476 O 712.256 -2.67538 0.462109 0
M  V30 7477 C 710.712 -2.0344 2.96884 0
M  V30 7478 C 710.32 -1.29719 4.28809 0
M  V30 7479 C 712.064 -2.7759 3.2116 0
M  V30 7480 C 709.971 -2.20327 5.48826 0
M  V30 7481 H 708.901 -0.420597 0.625791 0
M  V30 7482 H 711.552 -0.378499 1.79554 0
M  V30 7483 H 709.934 -2.80953 2.79072 0
M  V30 7484 H 711.108 -0.573394 4.57219 0
M  V30 7485 H 709.423 -0.674735 4.10897 0
M  V30 7486 H 712.02 -3.4559 4.0801 0
M  V30 7487 H 712.363 -3.42399 2.36789 0
M  V30 7488 H 712.896 -2.07164 3.396 0
M  V30 7489 H 709.635 -1.60113 6.35645 0
M  V30 7490 H 709.155 -2.90585 5.2471 0
M  V30 7491 H 710.834 -2.80116 5.83219 0
M  V30 7492 N 710.966 -1.44241 -0.634997 0
M  V30 7493 C 711.916 -1.47247 -1.74076 0
M  V30 7494 C 712.9 -0.338708 -1.57295 0
M  V30 7495 O 714.092 -0.583751 -1.67097 0
M  V30 7496 C 711.221 -1.41579 -3.12746 0
M  V30 7497 C 710.307 -2.60055 -3.35011 0
M  V30 7498 N 710.698 -3.85321 -3.27661 0
M  V30 7499 C 708.996 -2.55168 -3.65794 0
M  V30 7500 C 709.697 -4.64241 -3.50508 0
M  V30 7501 N 708.673 -3.95254 -3.73196 0
M  V30 7502 H 712.475 -2.4195 -1.66845 0
M  V30 7503 H 709.989 -1.3915 -0.837326 0
M  V30 7504 H 711.986 -1.41816 -3.92038 0
M  V30 7505 H 710.646 -0.479108 -3.21146 0
M  V30 7506 H 711.657 -4.17345 -3.06665 0
M  V30 7507 H 708.334 -1.70276 -3.81198 0
M  V30 7508 H 709.724 -5.73267 -3.50449 0
M  V30 7509 N 712.444 0.87505 -1.31075 0
M  V30 7510 C 713.855 1.4433 -1.18431 0
M  V30 7511 C 714.206 1.9506 0.211189 0
M  V30 7512 O 713.331 1.85847 1.10859 0
M  V30 7513 C 713.926 2.62341 -2.14389 0
M  V30 7514 C 712.485 3.15225 -2.05694 0
M  V30 7515 C 711.632 1.87929 -2.03907 0
M  V30 7516 H 714.583 0.684061 -1.432 0
M  V30 7517 H 714.604 3.3887 -1.73053 0
M  V30 7518 H 714.116 2.25388 -3.15946 0
M  V30 7519 H 712.217 3.56812 -1.07314 0
M  V30 7520 H 712.33 3.77853 -2.94558 0
M  V30 7521 H 710.694 2.06679 -1.48849 0
M  V30 7522 H 711.477 1.53221 -3.07211 0
M  V30 7523 N 713.922 1.13953 1.08869 0
M  V30 7524 C 715.168 0.906151 1.8143 0
M  V30 7525 C 715.501 -0.566089 1.85766 0
M  V30 7526 O 714.776 -1.41915 1.33006 0
M  V30 7527 C 715.059 1.50183 3.27287 0
M  V30 7528 C 714.912 3.04359 3.31189 0
M  V30 7529 C 716.231 1.17477 4.24131 0
M  V30 7530 H 713.35 0.330624 0.658678 0
M  V30 7531 H 715.992 1.40873 1.27495 0
M  V30 7532 H 714.142 1.07442 3.73348 0
M  V30 7533 H 715.814 3.55896 2.93488 0
M  V30 7534 H 714.057 3.39053 2.70602 0
M  V30 7535 H 714.728 3.41141 4.33966 0
M  V30 7536 H 717.204 1.5442 3.86385 0
M  V30 7537 H 716.08 1.61795 5.24513 0
M  V30 7538 H 716.341 0.0893312 4.4201 0
M  V30 7539 N 715.4 -1.26948 0.933913 0
M  V30 7540 C 716.64 -1.9585 0.585003 0
M  V30 7541 C 717.004 -1.71722 -0.858802 0
M  V30 7542 O 718.205 -2.34366 -1.31629 0
M  V30 7543 C 716.476 -3.45638 0.909352 0
M  V30 7544 S 718.035 -4.33656 0.669892 0
M  V30 7545 H 714.853 -0.677485 0.215721 0
M  V30 7546 H 717.455 -1.54051 1.20368 0
M  V30 7547 H 716.159 -3.60697 1.9577 0
M  V30 7548 H 715.69 -3.92401 0.280115 0
M  V30 7549 H 717.705 -4.93975 -0.469378 0
M  V30 7550 N 716.879 -0.700114 -1.41195 0
M  V30 7551 C 717.809 -0.0521132 -2.33442 0
M  V30 7552 C 718.79 0.76228 -1.52063 0
M  V30 7553 O 719.975 0.714336 -1.80585 0
M  V30 7554 C 717.105 0.881693 -3.35922 0
M  V30 7555 C 716.059 0.174062 -4.27646 0
M  V30 7556 C 715.385 1.22254 -5.20536 0
M  V30 7557 C 716.685 -0.962396 -5.13357 0
M  V30 7558 H 718.379 -0.822574 -2.87879 0
M  V30 7559 H 715.925 -0.397011 -1.38419 0
M  V30 7560 H 717.878 1.34429 -3.99383 0
M  V30 7561 H 716.602 1.68387 -2.79845 0
M  V30 7562 H 715.261 -0.268551 -3.65615 0
M  V30 7563 H 714.909 2.01736 -4.60773 0
M  V30 7564 H 714.609 0.754038 -5.82742 0
M  V30 7565 H 716.133 1.68555 -5.86874 0
M  V30 7566 H 717.547 -0.579875 -5.7036 0
M  V30 7567 H 715.944 -1.35828 -5.84526 0
M  V30 7568 H 717.014 -1.80003 -4.50252 0
M  V30 7569 N 718.357 1.51182 -0.445186 0
M  V30 7570 C 719.768 1.86693 0.0160999 0
M  V30 7571 C 720.119 1.36183 1.4124 0
M  V30 7572 O 719.244 0.715895 2.04215 0
M  V30 7573 C 719.839 3.38781 0.0359918 0
M  V30 7574 C 718.398 3.73799 0.441715 0
M  V30 7575 C 717.545 2.74947 -0.360511 0
M  V30 7576 H 720.496 1.44294 -0.660674 0
M  V30 7577 H 720.517 3.71026 0.843813 0
M  V30 7578 H 720.029 3.75513 -0.980378 0
M  V30 7579 H 718.13 3.42659 1.4634 0
M  V30 7580 H 718.243 4.78829 0.16106 0
M  V30 7581 H 716.607 2.54047 0.182269 0
M  V30 7582 H 717.39 3.14521 -1.3759 0
M  V30 7583 N 719.835 0.176821 1.56605 0
M  V30 7584 C 721.112 -0.513365 1.88743 0
M  V30 7585 C 721.492 -1.80929 1.08757 0
M  V30 7586 O 720.84 -2.27765 0.183127 0
M  V30 7587 C 721.05 -0.749925 3.40848 0
M  V30 7588 C 722.398 -1.07747 4.10701 0
M  V30 7589 O 723.422 -0.838277 3.46196 0
M  V30 7590 O 722.281 -1.52901 5.24675 0
M  V30 7591 H 719.375 -0.265296 0.783292 0
M  V30 7592 H 721.921 0.215669 1.68324 0
M  V30 7593 H 720.693 0.16599 3.90948 0
M  V30 7594 H 720.316 -1.53208 3.66897 0
M  V30 7595 N 721.313 -1.57302 -0.09688 0
M  V30 7596 C 722.26 -2.01933 -1.11766 0
M  V30 7597 C 723.23 -0.895329 -1.39904 0
M  V30 7598 O 724.415 -1.16119 -1.51397 0
M  V30 7599 C 721.555 -2.44726 -2.43317 0
M  V30 7600 C 720.668 -3.70639 -2.21925 0
M  V30 7601 C 719.803 -4.02318 -3.46862 0
M  V30 7602 C 718.842 -5.21346 -3.20725 0
M  V30 7603 N 717.979 -5.48787 -4.37924 0
M  V30 7604 H 722.819 -2.88919 -0.730075 0
M  V30 7605 H 720.356 -1.42901 -0.348962 0
M  V30 7606 H 722.314 -2.6758 -3.20088 0
M  V30 7607 H 720.944 -1.60753 -2.79926 0
M  V30 7608 H 719.996 -3.55271 -1.35965 0
M  V30 7609 H 721.308 -4.57557 -1.98603 0
M  V30 7610 H 720.462 -4.25939 -4.32042 0
M  V30 7611 H 719.201 -3.13918 -3.73238 0
M  V30 7612 H 718.206 -4.97547 -2.33938 0
M  V30 7613 H 719.431 -6.11343 -2.95697 0
M  V30 7614 H 717.377 -4.63346 -4.64378 0
M  V30 7615 H 717.294 -6.30073 -4.17785 0
M  V30 7616 H 718.562 -5.76943 -5.24173 0
M  V30 7617 N 722.791 0.367657 -1.53252 0
M  V30 7618 C 723.723 1.47032 -1.75824 0
M  V30 7619 C 724.736 1.49736 -0.63898 0
M  V30 7620 O 725.925 1.53253 -0.915193 0
M  V30 7621 C 723.025 2.85805 -1.82122 0
M  V30 7622 C 722.198 3.06822 -3.11736 0
M  V30 7623 C 721.257 4.25698 -3.09302 0
M  V30 7624 O 720.283 4.20972 -3.83107 0
M  V30 7625 N 721.485 5.33002 -2.29977 0
M  V30 7626 H 724.25 1.28048 -2.70968 0
M  V30 7627 H 721.811 0.557363 -1.52004 0
M  V30 7628 H 723.803 3.63465 -1.77975 0
M  V30 7629 H 722.373 2.98046 -0.942716 0
M  V30 7630 H 721.593 2.1684 -3.29202 0
M  V30 7631 H 722.881 3.17731 -3.97397 0
M  V30 7632 H 722.279 5.39703 -1.69521 0
M  V30 7633 H 720.836 6.09247 -2.3165 0
M  V30 7634 N 724.269 1.44576 0.627338 0
M  V30 7635 C 725.497 1.51048 1.41394 0
M  V30 7636 C 725.912 0.136568 1.88305 0
M  V30 7637 O 725.269 -0.858251 1.6106 0
M  V30 7638 C 725.32 2.47837 2.63172 0
M  V30 7639 O 725.041 3.79887 2.18215 0
M  V30 7640 C 726.542 2.63811 3.56257 0
M  V30 7641 H 723.762 0.512171 0.4335 0
M  V30 7642 H 726.306 1.89576 0.766878 0
M  V30 7643 H 724.461 2.12433 3.23961 0
M  V30 7644 H 724.875 4.32177 2.97192 0
M  V30 7645 H 726.349 3.35554 4.38301 0
M  V30 7646 H 726.826 1.69169 4.05313 0
M  V30 7647 H 727.432 3.0013 3.01333 0
M  V30 7648 N 725.747 -0.868086 1.31537 0
M  V30 7649 C 726.71 -1.95703 1.19302 0
M  V30 7650 C 727.71 -1.60355 0.119612 0
M  V30 7651 O 728.9 -1.70247 0.36902 0
M  V30 7652 C 726.032 -3.30599 0.831684 0
M  V30 7653 H 727.225 -2.07982 2.16064 0
M  V30 7654 H 724.778 -1.05661 1.15176 0
M  V30 7655 H 725.513 -3.2402 -0.134694 0
M  V30 7656 H 725.298 -3.57629 1.60761 0
M  V30 7657 H 726.788 -4.10439 0.770026 0
M  V30 7658 N 727.225 -1.14528 -1.08264 0
M  V30 7659 C 728.188 -0.83632 -2.13397 0
M  V30 7660 C 729.188 0.159715 -1.60005 0
M  V30 7661 O 730.378 -0.0688098 -1.74064 0
M  V30 7662 C 727.51 -0.246973 -3.40004 0
M  V30 7663 H 728.703 -1.76808 -2.42237 0
M  V30 7664 H 726.256 -0.951509 -1.24 0
M  V30 7665 H 726.991 0.693436 -3.168 0
M  V30 7666 H 726.776 -0.964412 -3.80055 0
M  V30 7667 H 728.266 -0.0480679 -4.17572 0
M  V30 7668 N 728.703 1.26451 -0.940633 0
M  V30 7669 C 729.65 2.264 -0.448497 0
M  V30 7670 C 730.62 1.5866 0.491546 0
M  V30 7671 O 731.805 1.86389 0.407874 0
M  V30 7672 C 728.945 3.43956 0.280715 0
M  V30 7673 C 728.058 4.26374 -0.694937 0
M  V30 7674 C 727.193 5.31171 0.0554186 0
M  V30 7675 C 726.232 6.05266 -0.912091 0
M  V30 7676 N 725.369 7.01833 -0.193524 0
M  V30 7677 H 730.209 2.67869 -1.30576 0
M  V30 7678 H 727.746 1.31707 -0.655112 0
M  V30 7679 H 729.704 4.10941 0.71994 0
M  V30 7680 H 728.334 3.03403 1.10212 0
M  V30 7681 H 727.386 3.59183 -1.25267 0
M  V30 7682 H 728.698 4.77748 -1.43382 0
M  V30 7683 H 727.852 6.04166 0.553951 0
M  V30 7684 H 726.591 4.80634 0.827183 0
M  V30 7685 H 725.596 5.31099 -1.42175 0
M  V30 7686 H 726.821 6.57893 -1.68385 0
M  V30 7687 H 724.767 6.53607 0.559758 0
M  V30 7688 H 724.684 7.50957 -0.871744 0
M  V30 7689 H 725.952 7.78983 0.283932 0
M  V30 7690 N 730.181 0.707592 1.40822 0
M  V30 7691 C 731.111 0.0644925 2.33411 0
M  V30 7692 C 732.092 -0.754205 1.52466 0
M  V30 7693 O 733.277 -0.704749 1.80961 0
M  V30 7694 C 730.407 -0.863865 3.36385 0
M  V30 7695 C 729.361 -0.15138 4.27732 0
M  V30 7696 C 728.687 -1.19491 5.21177 0
M  V30 7697 C 729.987 0.989607 5.12839 0
M  V30 7698 H 731.681 0.837829 2.87438 0
M  V30 7699 H 729.227 0.404346 1.38207 0
M  V30 7700 H 731.18 -1.32309 4.0009 0
M  V30 7701 H 729.904 -1.66901 2.80734 0
M  V30 7702 H 728.563 0.287937 3.65467 0
M  V30 7703 H 728.211 -1.9929 4.61836 0
M  V30 7704 H 727.911 -0.723123 5.83134 0
M  V30 7705 H 729.435 -1.6544 5.8776 0
M  V30 7706 H 730.849 0.610114 5.70044 0
M  V30 7707 H 729.246 1.38926 5.83798 0
M  V30 7708 H 730.316 1.82389 4.49291 0
M  V30 7709 N 731.66 -1.50943 0.453197 0
M  V30 7710 C 732.59 -2.31005 -0.34044 0
M  V30 7711 C 733.571 -1.37112 -1.00669 0
M  V30 7712 O 734.756 -1.66033 -1.0073 0
M  V30 7713 C 731.886 -3.16358 -1.433 0
M  V30 7714 C 730.84 -4.18658 -0.889363 0
M  V30 7715 C 730.166 -4.92633 -2.07887 0
M  V30 7716 C 731.466 -5.22227 0.0871142 0
M  V30 7717 H 733.16 -2.97601 0.327723 0
M  V30 7718 H 730.706 -1.43119 0.159054 0
M  V30 7719 H 732.659 -3.71155 -1.99555 0
M  V30 7720 H 731.383 -2.47613 -2.12968 0
M  V30 7721 H 730.042 -3.64936 -0.348915 0
M  V30 7722 H 729.69 -4.20376 -2.76211 0
M  V30 7723 H 729.39 -5.61819 -1.72143 0
M  V30 7724 H 730.914 -5.50258 -2.64666 0
M  V30 7725 H 732.328 -5.72001 -0.385656 0
M  V30 7726 H 730.725 -5.99032 0.357926 0
M  V30 7727 H 731.795 -4.74077 1.01879 0
M  V30 7728 N 733.138 -0.185124 -1.56509 0
M  V30 7729 C 734.088 0.752315 -2.15231 0
M  V30 7730 C 735.072 1.18327 -1.0903 0
M  V30 7731 O 736.264 1.14333 -1.35119 0
M  V30 7732 C 733.393 1.97583 -2.80742 0
M  V30 7733 C 732.479 1.56623 -3.94119 0
M  V30 7734 N 732.87 0.867008 -4.98314 0
M  V30 7735 C 731.168 1.85626 -4.05535 0
M  V30 7736 C 731.869 0.663228 -5.77907 0
M  V30 7737 N 730.845 1.20891 -5.29987 0
M  V30 7738 H 734.647 0.209267 -2.93154 0
M  V30 7739 H 732.161 0.0150444 -1.62393 0
M  V30 7740 H 734.158 2.65779 -3.21197 0
M  V30 7741 H 732.818 2.52369 -2.04303 0
M  V30 7742 H 733.829 0.52355 -5.15247 0
M  V30 7743 H 730.506 2.41992 -3.40215 0
M  V30 7744 H 731.896 0.109273 -6.71811 0
M  V30 7745 N 734.616 1.57351 0.0885366 0
M  V30 7746 C 735.579 2.01557 1.09121 0
M  V30 7747 C 736.579 0.910052 1.3257 0
M  V30 7748 O 737.769 1.17537 1.28572 0
M  V30 7749 C 734.901 2.38189 2.43883 0
M  V30 7750 H 736.094 2.91361 0.710562 0
M  V30 7751 H 733.647 1.52694 0.333779 0
M  V30 7752 H 734.382 1.5136 2.86811 0
M  V30 7753 H 734.167 3.18846 2.28209 0
M  V30 7754 H 735.657 2.73025 3.15986 0
M  V30 7755 N 736.094 -0.359525 1.53444 0
M  V30 7756 C 737.342 -1.09935 1.69584 0
M  V30 7757 C 737.663 -1.89656 0.453371 0
M  V30 7758 O 736.933 -1.8852 -0.53263 0
M  V30 7759 H 735.513 -0.408843 0.625185 0
M  V30 7760 H 738.175 -0.40467 1.90653 0
M  V30 7761 H 737.271 -1.78575 2.55964 0
M  V30 7762 N 737.572 -1.44907 -0.619662 0
M  V30 7763 C 738.819 -1.48292 -1.37898 0
M  V30 7764 C 739.147 -0.119933 -1.9413 0
M  V30 7765 O 738.402 0.879834 -1.74807 0
M  V30 7766 C 738.701 -2.50002 -2.55409 0
M  V30 7767 C 738.367 -3.95031 -2.17397 0
M  V30 7768 C 737.029 -4.34524 -2.06743 0
M  V30 7769 C 739.381 -4.86287 -1.87548 0
M  V30 7770 C 736.709 -5.63183 -1.64445 0
M  V30 7771 C 739.061 -6.15346 -1.4674 0
M  V30 7772 C 737.725 -6.53781 -1.34636 0
M  V30 7773 H 736.995 -0.542638 -0.504603 0
M  V30 7774 H 739.642 -1.78186 -0.701581 0
M  V30 7775 H 737.947 -2.13634 -3.28433 0
M  V30 7776 H 739.644 -2.49864 -3.13639 0
M  V30 7777 H 736.234 -3.63793 -2.26611 0
M  V30 7778 H 740.418 -4.56522 -1.94682 0
M  V30 7779 H 735.674 -5.91769 -1.53687 0
M  V30 7780 H 739.848 -6.85508 -1.22685 0
M  V30 7781 H 737.475 -7.53375 -1.01634 0
M  V30 7782 N 739.05 0.861098 -1.31996 0
M  V30 7783 C 739.997 1.96912 -1.20392 0
M  V30 7784 C 740.967 1.65869 -0.0875899 0
M  V30 7785 O 742.152 1.88992 -0.262011 0
M  V30 7786 C 739.292 3.32435 -0.926335 0
M  V30 7787 C 738.405 3.76018 -2.12684 0
M  V30 7788 C 737.54 5.00301 -1.78529 0
M  V30 7789 C 736.579 5.36357 -2.94937 0
M  V30 7790 N 735.716 6.51818 -2.60917 0
M  V30 7791 H 740.556 2.06169 -2.1517 0
M  V30 7792 H 738.093 1.00917 -1.07024 0
M  V30 7793 H 740.051 4.10478 -0.745917 0
M  V30 7794 H 738.681 3.22796 -0.0153578 0
M  V30 7795 H 737.733 2.93683 -2.41774 0
M  V30 7796 H 739.045 3.98664 -2.99781 0
M  V30 7797 H 738.199 5.86034 -1.57001 0
M  V30 7798 H 736.938 4.79578 -0.886356 0
M  V30 7799 H 735.943 4.49139 -3.17103 0
M  V30 7800 H 737.168 5.59041 -3.85552 0
M  V30 7801 H 735.114 6.32624 -1.73558 0
M  V30 7802 H 735.031 6.7445 -3.41544 0
M  V30 7803 H 736.299 7.4072 -2.42804 0
M  V30 7804 N 740.528 1.15101 1.07655 0
M  V30 7805 C 741.776 0.922149 1.79836 0
M  V30 7806 C 742.097 -0.552346 1.87014 0
M  V30 7807 O 741.367 -1.40145 1.3688 0
M  V30 7808 H 739.947 0.338182 0.666064 0
M  V30 7809 H 742.609 1.45107 1.30115 0
M  V30 7810 H 741.705 1.32883 2.82398 0
M  V30 7811 N 742.006 -1.2595 0.947325 0
M  V30 7812 C 743.422 -1.45737 0.650597 0
M  V30 7813 C 743.622 -1.85189 -0.794188 0
M  V30 7814 O 742.678 -1.97738 -1.57022 0
M  V30 7815 C 743.991 -2.53505 1.61728 0
M  V30 7816 C 745.539 -2.67351 1.62765 0
M  V30 7817 C 746.014 -3.78296 2.58179 0
M  V30 7818 N 747.505 -3.85696 2.56501 0
M  V30 7819 C 748.24 -4.71012 3.2701 0
M  V30 7820 N 747.736 -5.60669 4.06966 0
M  V30 7821 N 749.529 -4.64912 3.15932 0
M  V30 7822 H 741.68 -0.986327 1.8811 0
M  V30 7823 H 743.943 -0.494639 0.808725 0
M  V30 7824 H 743.649 -2.31357 2.6489 0
M  V30 7825 H 743.523 -3.51281 1.3741 0
M  V30 7826 H 745.91 -2.88869 0.603241 0
M  V30 7827 H 745.991 -1.69998 1.91139 0
M  V30 7828 H 745.635 -3.5753 3.60742 0
M  V30 7829 H 745.565 -4.75117 2.27093 0
M  V30 7830 H 748.056 -3.21601 1.98447 0
M  V30 7831 H 748.369 -6.22677 4.57704 0
M  V30 7832 H 746.714 -5.60402 4.11066 0
M  V30 7833 H 749.905 -3.93874 2.52945 0
M  V30 7834 H 750.078 -5.3118 3.71149 0
M  V30 7835 N 743.484 -0.715051 -1.40445 0
M  V30 7836 C 744.73 -0.254705 -2.01194 0
M  V30 7837 C 745.063 1.14894 -1.56567 0
M  V30 7838 O 744.338 1.77933 -0.785491 0
M  V30 7839 C 744.621 -0.334148 -3.58546 0
M  V30 7840 C 744.474 -1.77613 -4.13248 0
M  V30 7841 C 745.793 0.294968 -4.3911 0
M  V30 7842 H 742.912 -0.094025 -0.730978 0
M  V30 7843 H 745.554 -0.907449 -1.66929 0
M  V30 7844 H 743.704 0.221609 -3.87867 0
M  V30 7845 H 745.376 -2.38723 -3.94727 0
M  V30 7846 H 743.619 -2.30402 -3.67556 0
M  V30 7847 H 744.29 -1.78311 -5.22407 0
M  V30 7848 H 746.766 -0.178563 -4.15717 0
M  V30 7849 H 745.642 0.208934 -5.48502 0
M  V30 7850 H 745.903 1.37841 -4.20062 0
M  V30 7851 N 744.962 1.50701 -0.461195 0
M  V30 7852 C 746.19 2.06681 0.0951756 0
M  V30 7853 C 746.605 1.32615 1.34382 0
M  V30 7854 O 745.962 0.392531 1.78229 0
M  V30 7855 C 746.013 3.59354 0.393316 0
M  V30 7856 O 745.734 4.30626 -0.805797 0
M  V30 7857 C 747.235 4.31926 0.997744 0
M  V30 7858 H 744.455 0.670995 -0.00267259 0
M  V30 7859 H 746.999 1.93991 -0.647137 0
M  V30 7860 H 745.154 3.7188 1.08555 0
M  V30 7861 H 745.568 5.21667 -0.544409 0
M  V30 7862 H 747.042 5.39756 1.15619 0
M  V30 7863 H 747.519 3.91772 1.98523 0
M  V30 7864 H 748.125 4.23905 0.344188 0
M  V30 7865 N 746.441 0.193421 1.56409 0
M  V30 7866 C 747.689 -0.444908 1.97142 0
M  V30 7867 C 748.01 -1.62268 1.08139 0
M  V30 7868 O 747.28 -1.95307 0.152326 0
M  V30 7869 H 745.86 -0.16736 0.728011 0
M  V30 7870 H 748.522 0.279763 1.92882 0
M  V30 7871 H 747.618 -0.790159 3.01932 0
M  V30 7872 N 747.919 -1.57396 -0.0801906 0
M  V30 7873 C 749.165 -1.87979 -0.776884 0
M  V30 7874 C 749.52 -0.786098 -1.75608 0
M  V30 7875 O 748.813 0.210541 -1.9044 0
M  V30 7876 C 749.007 -3.22915 -1.53169 0
M  V30 7877 C 748.836 -4.45306 -0.627099 0
M  V30 7878 C 747.606 -5.04593 -0.267201 0
M  V30 7879 C 749.804 -5.14249 0.0724916 0
M  V30 7880 N 747.786 -6.10513 0.643995 0
M  V30 7881 C 749.157 -6.14267 0.841191 0
M  V30 7882 C 751.212 -4.97689 0.144847 0
M  V30 7883 C 749.915 -6.99514 1.67551 0
M  V30 7884 C 751.941 -5.83455 0.966112 0
M  V30 7885 C 751.303 -6.83005 1.72288 0
M  V30 7886 H 747.402 -0.737519 -0.259979 0
M  V30 7887 H 749.986 -1.94661 -0.0387512 0
M  V30 7888 H 748.157 -3.17256 -2.2406 0
M  V30 7889 H 749.889 -3.41174 -2.17675 0
M  V30 7890 H 746.644 -4.69548 -0.618194 0
M  V30 7891 H 747.068 -6.68125 1.09259 0
M  V30 7892 H 751.71 -4.20649 -0.4259 0
M  V30 7893 H 749.428 -7.75934 2.25726 0
M  V30 7894 H 753.014 -5.727 1.02497 0
M  V30 7895 H 751.894 -7.48219 2.34813 0
M  V30 7896 N 749.397 0.351382 -1.53633 0
M  V30 7897 C 750.645 1.09034 -1.70165 0
M  V30 7898 C 750.966 1.89413 -0.463422 0
M  V30 7899 O 750.236 1.888 0.522624 0
M  V30 7900 H 748.816 0.405522 -0.627344 0
M  V30 7901 H 751.478 0.394554 -1.90865 0
M  V30 7902 H 750.574 1.77215 -2.56907 0
M  V30 7903 N 750.875 1.45233 0.611969 0
M  V30 7904 C 751.823 1.53898 1.74408 0
M  V30 7905 C 752.817 0.409254 1.64382 0
M  V30 7906 O 754.023 0.584988 1.70229 0
M  V30 7907 H 750.398 0.483303 0.576127 0
M  V30 7908 H 752.369 2.49143 1.64227 0
M  V30 7909 C 751.118 1.51865 3.12782 0
M  V30 7910 H 750.441 2.38118 3.21154 0
M  V30 7911 H 751.881 1.61986 3.91838 0
M  V30 7912 C 750.34 0.242374 3.36027 0
M  V30 7913 O 750.87 -0.679587 3.9591 0
M  V30 7914 N 749.076 0.139448 2.90265 0
M  V30 7915 H 748.623 0.890571 2.41716 0
M  V30 7916 H 748.581 -0.713686 3.06193 0
M  V30 7917 N 752.353 -0.854086 1.3245 0
M  V30 7918 C 753.769 -1.14238 1.11453 0
M  V30 7919 C 753.969 -2.01228 -0.10461 0
M  V30 7920 O 753.025 -2.39845 -0.789339 0
M  V30 7921 C 754.338 -1.81916 2.39431 0
M  V30 7922 C 755.886 -1.94549 2.45193 0
M  V30 7923 C 756.361 -2.65642 3.73093 0
M  V30 7924 N 757.852 -2.73167 3.74078 0
M  V30 7925 C 758.587 -3.28828 4.69744 0
M  V30 7926 N 758.083 -3.85295 5.75778 0
M  V30 7927 N 759.876 -3.26936 4.57241 0
M  V30 7928 H 752.027 -0.274786 2.10615 0
M  V30 7929 H 754.29 -0.184375 0.929898 0
M  V30 7930 H 753.996 -1.25452 3.28565 0
M  V30 7931 H 753.87 -2.82068 2.50434 0
M  V30 7932 H 756.257 -2.50172 1.56518 0
M  V30 7933 H 756.338 -0.933914 2.38142 0
M  V30 7934 H 755.982 -2.10683 4.62142 0
M  V30 7935 H 755.912 -3.6724 3.77415 0
M  V30 7936 H 758.403 -2.33108 2.97438 0
M  V30 7937 H 758.716 -4.25925 6.44832 0
M  V30 7938 H 757.061 -3.83625 5.79531 0
M  V30 7939 H 760.252 -2.8207 3.7357 0
M  V30 7940 H 760.425 -3.70014 5.31971 0
M  V30 7941 N 753.831 -1.1567 -1.07043 0
M  V30 7942 C 755.247 -0.900006 -1.31803 0
M  V30 7943 C 755.447 0.451293 -1.96381 0
M  V30 7944 O 754.503 1.19252 -2.22565 0
M  V30 7945 C 755.816 -2.04334 -2.20609 0
M  V30 7946 C 757.364 -2.07823 -2.34048 0
M  V30 7947 C 757.839 -3.21488 -3.26204 0
M  V30 7948 N 759.33 -3.21156 -3.33786 0
M  V30 7949 C 760.065 -4.05746 -4.05163 0
M  V30 7950 N 759.561 -5.00407 -4.79129 0
M  V30 7951 N 761.354 -3.93759 -4.01136 0
M  V30 7952 H 753.505 -2.02681 -0.635146 0
M  V30 7953 H 755.768 -0.883956 -0.342528 0
M  V30 7954 H 755.474 -3.01895 -1.80423 0
M  V30 7955 H 755.348 -1.97838 -3.21154 0
M  V30 7956 H 757.735 -1.1086 -2.73485 0
M  V30 7957 H 757.816 -2.18386 -1.33197 0
M  V30 7958 H 757.46 -4.18706 -2.87485 0
M  V30 7959 H 757.39 -3.08162 -4.27017 0
M  V30 7960 H 759.881 -2.52606 -2.81067 0
M  V30 7961 H 760.194 -5.61387 -5.31097 0
M  V30 7962 H 758.539 -5.04393 -4.78135 0
M  V30 7963 H 761.73 -3.19115 -3.42466 0
M  V30 7964 H 761.903 -4.59906 -4.56498 0
M  V30 7965 N 755.309 1.25446 -0.953992 0
M  V30 7966 C 756.219 2.29632 -0.480264 0
M  V30 7967 C 757.235 1.68025 0.452071 0
M  V30 7968 O 758.411 1.98703 0.328472 0
M  V30 7969 C 755.476 3.45903 0.234974 0
M  V30 7970 C 754.537 4.22953 -0.735495 0
M  V30 7971 C 753.77 5.33672 -0.0542957 0
M  V30 7972 O 753.993 5.58477 1.16018 0
M  V30 7973 O 752.927 5.9734 -0.739509 0
M  V30 7974 H 756.753 2.72242 -1.34602 0
M  V30 7975 H 754.338 1.30883 -0.720419 0
M  V30 7976 H 756.22 4.16552 0.637341 0
M  V30 7977 H 754.895 3.05296 1.07592 0
M  V30 7978 H 753.802 3.54734 -1.18806 0
M  V30 7979 H 755.135 4.67341 -1.54444 0
M  V30 7980 N 756.787 0.722489 1.40064 0
M  V30 7981 C 758.015 0.274838 2.05066 0
M  V30 7982 C 758.43 -1.08586 1.54449 0
M  V30 7983 O 757.787 -1.68375 0.704003 0
M  V30 7984 C 757.838 0.253673 3.60609 0
M  V30 7985 O 757.559 1.56064 4.0936 0
M  V30 7986 C 759.06 -0.211684 4.42794 0
M  V30 7987 H 756.28 0.12226 0.659768 0
M  V30 7988 H 758.824 0.982632 1.79345 0
M  V30 7989 H 756.979 -0.405137 3.85276 0
M  V30 7990 H 757.393 1.46576 5.03603 0
M  V30 7991 H 758.867 -0.175341 5.51721 0
M  V30 7992 H 759.344 -1.25493 4.2089 0
M  V30 7993 H 759.95 0.4171 4.2325 0
M  V30 7994 N 758.265 -1.50454 0.469181 0
M  V30 7995 C 759.511 -2.03248 -0.0787241 0
M  V30 7996 C 759.866 -1.34499 -1.37578 0
M  V30 7997 O 759.159 -0.461173 -1.85967 0
M  V30 7998 C 759.353 -3.55963 -0.320207 0
M  V30 7999 C 759.182 -4.3951 0.951893 0
M  V30 8000 C 757.952 -4.82689 1.49465 0
M  V30 8001 C 760.15 -4.79999 1.84677 0
M  V30 8002 N 758.132 -5.50553 2.71597 0
M  V30 8003 C 759.503 -5.47254 2.91398 0
M  V30 8004 C 761.558 -4.61959 1.85738 0
M  V30 8005 C 760.261 -5.98381 3.99166 0
M  V30 8006 C 762.287 -5.14024 2.92461 0
M  V30 8007 C 761.649 -5.81253 3.97901 0
M  V30 8008 H 757.748 -0.78192 0.0111715 0
M  V30 8009 H 760.332 -1.83986 0.636961 0
M  V30 8010 H 758.503 -3.75174 -1.00493 0
M  V30 8011 H 760.235 -3.95407 -0.862285 0
M  V30 8012 H 756.99 -4.61948 1.0441 0
M  V30 8013 H 757.414 -5.89093 3.33615 0
M  V30 8014 H 762.056 -4.09416 1.05539 0
M  V30 8015 H 759.774 -6.49961 4.80183 0
M  V30 8016 H 763.36 -5.01897 2.94263 0
M  V30 8017 H 762.24 -6.20814 4.79123 0
M  V30 8018 N 759.743 -0.201713 -1.56304 0
M  V30 8019 C 760.971 0.440723 -2.02152 0
M  V30 8020 C 761.386 1.54735 -1.08179 0
M  V30 8021 O 760.743 1.82289 -0.0878196 0
M  V30 8022 C 760.794 0.990884 -3.47655 0
M  V30 8023 O 760.515 -0.0715937 -4.38041 0
M  V30 8024 C 762.016 1.70854 -4.09052 0
M  V30 8025 H 759.236 0.109987 -0.661924 0
M  V30 8026 H 761.78 -0.312358 -2.021 0
M  V30 8027 H 759.935 1.69432 -3.48384 0
M  V30 8028 H 760.349 0.338892 -5.23404 0
M  V30 8029 H 761.823 2.04572 -5.12693 0
M  V30 8030 H 762.3 2.61462 -3.52894 0
M  V30 8031 H 762.906 1.0508 -4.12114 0
M  V30 8032 N 761.222 1.57436 0.0718424 0
M  V30 8033 C 762.45 1.91474 0.783932 0
M  V30 8034 C 762.865 0.797669 1.71122 0
M  V30 8035 O 762.222 -0.228989 1.81058 0
M  V30 8036 C 762.273 3.25259 1.57761 0
M  V30 8037 O 761.994 4.3267 0.687596 0
M  V30 8038 C 763.495 3.7331 2.3907 0
M  V30 8039 H 760.715 0.632901 0.222885 0
M  V30 8040 H 763.259 2.04457 0.0421262 0
M  V30 8041 H 761.414 3.13804 2.27169 0
M  V30 8042 H 761.828 5.09641 1.23962 0
M  V30 8043 H 763.302 4.69551 2.90216 0
M  V30 8044 H 763.779 3.02318 3.18591 0
M  V30 8045 H 764.385 3.8771 1.74818 0
M  V30 8046 N 762.7 -0.34323 1.53817 0
M  V30 8047 C 763.925 -1.1079 1.75329 0
M  V30 8048 C 764.35 -1.81571 0.491293 0
M  V30 8049 O 763.708 -1.72561 -0.556089 0
M  V30 8050 C 763.756 -2.09681 2.9337 0
M  V30 8051 O 762.86 -3.17207 2.63541 0
M  V30 8052 H 762.201 -0.320402 0.581583 0
M  V30 8053 H 764.731 -0.393525 2.0078 0
M  V30 8054 H 764.741 -2.52897 3.20168 0
M  V30 8055 H 763.416 -1.5756 3.84899 0
M  V30 8056 H 761.993 -2.78806 2.47632 0
M  V30 8057 N 764.178 -1.45556 -0.604258 0
M  V30 8058 C 765.424 -1.49968 -1.36519 0
M  V30 8059 C 765.757 -0.142236 -1.93678 0
M  V30 8060 O 765.032 0.843717 -1.75247 0
M  V30 8061 C 765.315 -2.58146 -2.51063 0
M  V30 8062 C 765.168 -4.03346 -1.99078 0
M  V30 8063 C 766.487 -2.62581 -3.53184 0
M  V30 8064 H 763.606 -0.545993 -0.495036 0
M  V30 8065 H 766.248 -1.77382 -0.680845 0
M  V30 8066 H 764.398 -2.34901 -3.09441 0
M  V30 8067 H 766.07 -4.37811 -1.45323 0
M  V30 8068 H 764.313 -4.13845 -1.30055 0
M  V30 8069 H 764.984 -4.74731 -2.81664 0
M  V30 8070 H 767.46 -2.83419 -3.04652 0
M  V30 8071 H 766.336 -3.40131 -4.30816 0
M  V30 8072 H 766.597 -1.67798 -4.09019 0
M  V30 8073 N 765.656 0.84705 -1.32902 0
M  V30 8074 C 766.619 1.9378 -1.224 0
M  V30 8075 C 767.619 1.60144 -0.145108 0
M  V30 8076 O 768.809 1.69638 -0.396058 0
M  V30 8077 C 765.941 3.29234 -0.884174 0
M  V30 8078 H 767.134 2.04518 -2.19345 0
M  V30 8079 H 764.687 1.03816 -1.16842 0
M  V30 8080 H 765.422 3.24193 0.0831277 0
M  V30 8081 H 765.207 3.55026 -1.6643 0
M  V30 8082 H 766.697 4.09162 -0.835226 0
M  V30 8083 N 767.134 1.16236 1.06428 0
M  V30 8084 C 768.044 0.881976 2.1739 0
M  V30 8085 C 769.06 -0.145259 1.73393 0
M  V30 8086 O 770.236 0.0310558 2.01376 0
M  V30 8087 C 767.301 0.385496 3.4455 0
M  V30 8088 C 766.362 1.47779 4.03063 0
M  V30 8089 C 765.595 1.0049 5.24154 0
M  V30 8090 O 765.818 -0.145889 5.70213 0
M  V30 8091 O 764.752 1.79265 5.74585 0
M  V30 8092 H 768.578 1.80983 2.43883 0
M  V30 8093 H 766.163 0.942226 1.15942 0
M  V30 8094 H 768.045 0.115536 4.21242 0
M  V30 8095 H 766.72 -0.514369 3.19587 0
M  V30 8096 H 765.627 1.80147 3.27869 0
M  V30 8097 H 766.96 2.35291 4.32318 0
M  V30 8098 N 768.612 -1.24939 0.960631 0
M  V30 8099 C 769.858 -1.93104 0.61958 0
M  V30 8100 C 770.191 -1.74991 -0.84212 0
M  V30 8101 O 769.466 -1.09867 -1.60498 0
M  V30 8102 C 769.749 -3.46326 0.986422 0
M  V30 8103 C 769.602 -3.73638 2.50429 0
M  V30 8104 C 770.921 -4.37067 0.515827 0
M  V30 8105 H 768.04 -0.701311 0.226566 0
M  V30 8106 H 770.682 -1.47442 1.19836 0
M  V30 8107 H 768.832 -3.85348 0.493907 0
M  V30 8108 H 770.504 -3.44217 3.07103 0
M  V30 8109 H 768.747 -3.19035 2.93937 0
M  V30 8110 H 769.418 -4.80815 2.71147 0
M  V30 8111 H 771.894 -4.05381 0.938389 0
M  V30 8112 H 770.77 -5.43022 0.80114 0
M  V30 8113 H 771.031 -4.38224 -0.584171 0
M  V30 8114 N 770.09 -0.729906 -1.39679 0
M  V30 8115 C 771.022 -0.0470588 -2.29152 0
M  V30 8116 C 772.035 0.708808 -1.4656 0
M  V30 8117 O 773.224 0.553815 -1.69691 0
M  V30 8118 C 770.324 0.957612 -3.25089 0
M  V30 8119 C 769.497 0.264321 -4.36601 0
M  V30 8120 C 768.556 1.17638 -5.12882 0
M  V30 8121 O 767.582 0.655777 -5.6541 0
M  V30 8122 N 768.784 2.50649 -5.23598 0
M  V30 8123 H 771.549 -0.815364 -2.88395 0
M  V30 8124 H 769.11 -0.578707 -1.51204 0
M  V30 8125 H 771.102 1.57026 -3.72995 0
M  V30 8126 H 769.672 1.62716 -2.66912 0
M  V30 8127 H 768.892 -0.528732 -3.90638 0
M  V30 8128 H 770.18 -0.216344 -5.0834 0
M  V30 8129 H 769.578 2.95427 -4.82431 0
M  V30 8130 H 768.135 3.07022 -5.74961 0
M  V30 8131 N 771.568 1.50203 -0.477153 0
M  V30 8132 C 772.979 1.86685 -0.0235041 0
M  V30 8133 C 773.33 1.39148 1.38319 0
M  V30 8134 O 772.455 0.759051 2.02651 0
M  V30 8135 C 773.05 3.38781 -0.0358767 0
M  V30 8136 C 771.609 3.74652 0.362327 0
M  V30 8137 C 770.756 2.7412 -0.41875 0
M  V30 8138 H 773.707 1.4286 -0.691133 0
M  V30 8139 H 773.728 3.72732 0.764924 0
M  V30 8140 H 773.24 3.73349 -1.05981 0
M  V30 8141 H 771.341 3.45686 1.39039 0
M  V30 8142 H 771.454 4.79063 0.059457 0
M  V30 8143 H 769.818 2.54376 0.128341 0
M  V30 8144 H 770.601 3.11532 -1.44231 0
M  V30 8145 N 773.046 0.209999 1.56195 0
M  V30 8146 C 774.271 -0.433064 2.02828 0
M  V30 8147 C 774.696 -1.5337 1.08901 0
M  V30 8148 O 774.054 -1.81144 0.0751132 0
M  V30 8149 C 774.102 -0.952635 3.47789 0
M  V30 8150 O 773.206 -2.0647 3.56993 0
M  V30 8151 H 772.547 -0.0994594 0.656509 0
M  V30 8152 H 775.077 0.32525 2.01998 0
M  V30 8153 H 775.087 -1.26542 3.8788 0
M  V30 8154 H 773.762 -0.147007 4.1564 0
M  V30 8155 H 772.339 -1.75942 3.28784 0
M  V30 8156 N 774.524 -1.57472 -0.0634922 0
M  V30 8157 C 775.77 -1.87932 -0.762194 0
M  V30 8158 C 776.103 -0.803377 -1.76804 0
M  V30 8159 O 775.378 0.185468 -1.93614 0
M  V30 8160 C 775.661 -3.29053 -1.46275 0
M  V30 8161 C 775.514 -4.47309 -0.472755 0
M  V30 8162 C 776.833 -3.68537 -2.40558 0
M  V30 8163 H 773.952 -0.683521 -0.275624 0
M  V30 8164 H 776.594 -1.89983 -0.0252651 0
M  V30 8165 H 774.744 -3.27435 -2.0909 0
M  V30 8166 H 776.416 -4.61053 0.150828 0
M  V30 8167 H 774.659 -4.33286 0.211187 0
M  V30 8168 H 775.33 -5.42853 -1.00072 0
M  V30 8169 H 777.806 -3.71302 -1.87814 0
M  V30 8170 H 776.682 -4.68152 -2.86574 0
M  V30 8171 H 776.943 -2.98917 -3.25731 0
M  V30 8172 N 776.003 0.335068 -1.53997 0
M  V30 8173 C 776.933 1.41727 -1.85568 0
M  V30 8174 C 777.914 1.54505 -0.7115 0
M  V30 8175 O 779.099 1.68573 -0.964191 0
M  V30 8176 C 776.229 2.7866 -2.07282 0
M  V30 8177 C 775.183 2.80682 -3.23112 0
M  V30 8178 C 774.509 4.20581 -3.30175 0
M  V30 8179 C 775.809 2.45458 -4.61029 0
M  V30 8180 H 777.503 1.15555 -2.76202 0
M  V30 8181 H 775.049 0.554445 -1.32898 0
M  V30 8182 H 777.002 3.54423 -2.27952 0
M  V30 8183 H 775.726 3.06286 -1.13387 0
M  V30 8184 H 774.385 2.07373 -3.02311 0
M  V30 8185 H 774.033 4.4533 -2.33859 0
M  V30 8186 H 773.733 4.22843 -4.08016 0
M  V30 8187 H 775.257 4.98174 -3.53066 0
M  V30 8188 H 776.671 3.10934 -4.81656 0
M  V30 8189 H 775.068 2.5899 -5.41336 0
M  V30 8190 H 776.138 1.40628 -4.6406 0
M  V30 8191 N 777.481 1.45874 0.596531 0
M  V30 8192 C 778.413 1.51408 1.7207 0
M  V30 8193 C 779.426 0.403738 1.57714 0
M  V30 8194 O 780.615 0.671384 1.65393 0
M  V30 8195 C 777.715 1.3652 3.10186 0
M  V30 8196 C 776.888 2.61428 3.50677 0
M  V30 8197 C 775.947 2.40937 4.67799 0
M  V30 8198 O 774.973 3.14602 4.74357 0
M  V30 8199 N 776.175 1.4621 5.61785 0
M  V30 8200 H 778.94 2.48333 1.67782 0
M  V30 8201 H 776.501 1.41755 0.782129 0
M  V30 8202 H 778.493 1.20606 3.86311 0
M  V30 8203 H 777.063 0.478302 3.08919 0
M  V30 8204 H 776.283 2.92381 2.644 0
M  V30 8205 H 777.571 3.44432 3.74491 0
M  V30 8206 H 776.969 0.854382 5.59211 0
M  V30 8207 H 775.526 1.36264 6.37397 0
M  V30 8208 N 778.959 -0.83999 1.33349 0
M  V30 8209 C 780.205 -1.59753 1.24927 0
M  V30 8210 C 780.538 -1.93318 -0.184855 0
M  V30 8211 O 779.813 -1.586 -1.12589 0
M  V30 8212 C 780.096 -2.90829 2.12345 0
M  V30 8213 C 779.949 -2.63953 3.6421 0
M  V30 8214 C 781.268 -3.92246 1.99577 0
M  V30 8215 H 778.387 -0.579654 0.45516 0
M  V30 8216 H 781.029 -0.968909 1.63439 0
M  V30 8217 H 779.179 -3.44478 1.79631 0
M  V30 8218 H 780.851 -2.16745 4.07209 0
M  V30 8219 H 779.094 -1.97671 3.86146 0
M  V30 8220 H 779.765 -3.57348 4.20721 0
M  V30 8221 H 782.241 -3.479 2.28265 0
M  V30 8222 H 781.117 -4.81793 2.62996 0
M  V30 8223 H 781.378 -4.3138 0.967673 0
M  V30 8224 N 780.437 -1.16799 -1.0581 0
M  V30 8225 C 781.683 -0.953935 -1.78963 0
M  V30 8226 C 782.016 0.516638 -1.87202 0
M  V30 8227 O 781.291 1.38338 -1.36721 0
M  V30 8228 C 781.574 -1.58808 -3.23191 0
M  V30 8229 C 781.427 -3.13032 -3.23003 0
M  V30 8230 C 782.746 -1.2868 -4.20867 0
M  V30 8231 H 779.865 -0.347972 -0.64968 0
M  V30 8232 H 782.507 -1.44204 -1.23715 0
M  V30 8233 H 780.657 -1.17303 -3.70368 0
M  V30 8234 H 782.329 -3.63553 -2.83949 0
M  V30 8235 H 780.572 -3.46108 -2.61518 0
M  V30 8236 H 781.243 -3.52527 -4.24769 0
M  V30 8237 H 783.719 -1.6461 -3.82155 0
M  V30 8238 H 782.595 -1.75645 -5.20038 0
M  V30 8239 H 782.856 -0.206491 -4.41618 0
M  V30 8240 N 781.915 1.24427 -0.967243 0
M  V30 8241 C 782.863 2.27403 -0.488927 0
M  V30 8242 C 783.857 1.63388 0.447302 0
M  V30 8243 O 785.063 1.77085 0.322643 0
M  V30 8244 H 781.438 0.738921 -0.139643 0
M  V30 8245 H 783.409 2.65122 -1.36942 0
M  V30 8246 C 782.158 3.4709 0.205787 0
M  V30 8247 H 781.481 3.96591 -0.50551 0
M  V30 8248 H 782.921 4.2099 0.504296 0
M  V30 8249 C 781.38 3.04923 1.43261 0
M  V30 8250 O 781.91 3.12043 2.52967 0
M  V30 8251 N 780.116 2.59976 1.29849 0
M  V30 8252 H 779.663 2.54382 0.405876 0
M  V30 8253 H 779.621 2.32128 2.12047 0
M  V30 8254 N 783.393 0.737304 1.3929 0
M  V30 8255 C 784.323 0.113988 2.33222 0
M  V30 8256 C 785.304 -0.721695 1.54031 0
M  V30 8257 O 786.489 -0.666206 1.82415 0
M  V30 8258 C 783.619 -0.792319 3.38141 0
M  V30 8259 C 782.573 -0.0606178 4.27957 0
M  V30 8260 C 781.899 -1.08409 5.23595 0
M  V30 8261 C 783.199 1.09817 5.10625 0
M  V30 8262 H 784.893 0.898611 2.85596 0
M  V30 8263 H 782.439 0.433571 1.37318 0
M  V30 8264 H 784.392 -1.23793 4.02807 0
M  V30 8265 H 783.116 -1.60908 2.84211 0
M  V30 8266 H 781.775 0.365393 3.64775 0
M  V30 8267 H 781.423 -1.89449 4.6596 0
M  V30 8268 H 781.123 -0.599269 5.84536 0
M  V30 8269 H 782.647 -1.52936 5.91137 0
M  V30 8270 H 784.061 0.730892 5.68622 0
M  V30 8271 H 782.458 1.51278 5.80719 0
M  V30 8272 H 783.528 1.91878 4.45321 0
M  V30 8273 N 784.871 -1.49948 0.485112 0
M  V30 8274 C 786.282 -1.8667 0.0334041 0
M  V30 8275 C 786.633 -1.3988 -1.37579 0
M  V30 8276 O 785.758 -0.769788 -2.02245 0
M  V30 8277 C 786.353 -3.38757 0.0538426 0
M  V30 8278 C 784.912 -3.74839 -0.342453 0
M  V30 8279 C 784.059 -2.73894 0.433281 0
M  V30 8280 H 787.01 -1.42492 0.698699 0
M  V30 8281 H 787.031 -3.73132 -0.745146 0
M  V30 8282 H 786.543 -3.72782 1.07959 0
M  V30 8283 H 784.644 -3.46419 -1.37203 0
M  V30 8284 H 784.757 -4.79088 -0.0340503 0
M  V30 8285 H 783.121 -2.54441 -0.114849 0
M  V30 8286 H 783.904 -3.10763 1.45881 0
M  V30 8287 N 786.349 -0.21828 -1.56081 0
M  V30 8288 C 787.279 0.687922 -2.23136 0
M  V30 8289 C 788.26 1.20357 -1.202 0
M  V30 8290 O 789.445 1.24817 -1.48776 0
M  V30 8291 C 786.575 1.89762 -2.90874 0
M  V30 8292 C 785.529 1.51595 -4.00254 0
M  V30 8293 C 784.855 2.80415 -4.55271 0
M  V30 8294 C 786.155 0.708404 -5.17474 0
M  V30 8295 H 787.849 0.128854 -2.99123 0
M  V30 8296 H 785.395 0.0605354 -1.43873 0
M  V30 8297 H 787.348 2.53699 -3.36474 0
M  V30 8298 H 786.072 2.4816 -2.1233 0
M  V30 8299 H 784.731 0.900058 -3.55379 0
M  V30 8300 H 784.379 3.36951 -3.73461 0
M  V30 8301 H 784.079 2.55613 -5.2909 0
M  V30 8302 H 785.603 3.453 -5.03587 0
M  V30 8303 H 787.017 1.2514 -5.59476 0
M  V30 8304 H 785.414 0.557593 -5.97504 0
M  V30 8305 H 786.484 -0.285679 -4.84058 0
M  V30 8306 N 787.827 1.57504 0.0551401 0
M  V30 8307 C 789.073 1.88334 0.752216 0
M  V30 8308 C 789.406 0.812742 1.76375 0
M  V30 8309 O 788.681 -0.175198 1.93709 0
M  V30 8310 C 788.964 3.29824 1.44528 0
M  V30 8311 C 788.817 4.47553 0.449026 0
M  V30 8312 C 790.136 3.69808 2.38601 0
M  V30 8313 H 787.255 0.684973 0.271995 0
M  V30 8314 H 789.897 1.89994 0.0151895 0
M  V30 8315 H 788.047 3.28539 2.07351 0
M  V30 8316 H 789.719 4.60967 -0.175277 0
M  V30 8317 H 787.962 4.33168 -0.234162 0
M  V30 8318 H 788.633 5.43376 0.971917 0
M  V30 8319 H 791.109 3.72293 1.85842 0
M  V30 8320 H 789.985 4.69665 2.84088 0
M  V30 8321 H 790.246 3.00641 3.24141 0
M  V30 8322 N 789.305 -0.326896 1.54172 0
M  V30 8323 C 790.215 -1.42525 1.86343 0
M  V30 8324 C 791.231 -1.56764 0.75505 0
M  V30 8325 O 792.407 -1.71924 1.04901 0
M  V30 8326 C 789.472 -2.77286 2.08119 0
M  V30 8327 C 788.533 -2.7225 3.31931 0
M  V30 8328 C 787.766 -4.00584 3.52659 0
M  V30 8329 O 787.989 -4.98686 2.76891 0
M  V30 8330 O 786.923 -4.04045 4.46129 0
M  V30 8331 H 790.749 -1.18249 2.79734 0
M  V30 8332 H 788.334 -0.520614 1.40036 0
M  V30 8333 H 790.216 -3.57065 2.23791 0
M  V30 8334 H 788.891 -3.01459 1.17917 0
M  V30 8335 H 787.798 -1.91033 3.21647 0
M  V30 8336 H 789.131 -2.53032 4.2218 0
M  V30 8337 N 790.784 -1.46188 -0.588786 0
M  V30 8338 C 792.2 -1.31009 -0.911524 0
M  V30 8339 C 792.4 -0.277017 -1.99587 0
M  V30 8340 O 791.456 0.322532 -2.50432 0
M  V30 8341 C 792.769 -2.69459 -1.33463 0
M  V30 8342 C 794.317 -2.77502 -1.44782 0
M  V30 8343 C 794.792 -4.1652 -1.90461 0
M  V30 8344 N 796.283 -4.18907 -1.97665 0
M  V30 8345 C 797.018 -5.23359 -2.34271 0
M  V30 8346 N 796.514 -6.38143 -2.69714 0
M  V30 8347 N 798.307 -5.10723 -2.34774 0
M  V30 8348 H 790.458 -2.12016 0.127614 0
M  V30 8349 H 792.721 -0.947984 -0.00557599 0
M  V30 8350 H 792.427 -3.46336 -0.611929 0
M  V30 8351 H 792.301 -2.99165 -2.2974 0
M  V30 8352 H 794.688 -2.00917 -2.1614 0
M  V30 8353 H 794.769 -2.51488 -0.467724 0
M  V30 8354 H 794.413 -4.93597 -1.19684 0
M  V30 8355 H 794.343 -4.39937 -2.89418 0
M  V30 8356 H 796.834 -3.36084 -1.72789 0
M  V30 8357 H 797.147 -7.13624 -2.96582 0
M  V30 8358 H 795.492 -6.41514 -2.67366 0
M  V30 8359 H 798.683 -4.20088 -2.06503 0
M  V30 8360 H 798.856 -5.9224 -2.62975 0
M  V30 8361 N 792.262 0.832906 -1.33792 0
M  V30 8362 C 793.673 1.40489 -1.22963 0
M  V30 8363 C 794.024 1.95633 0.149026 0
M  V30 8364 O 793.149 1.8928 1.04891 0
M  V30 8365 C 793.744 2.55387 -2.22627 0
M  V30 8366 C 792.303 3.08522 -2.15618 0
M  V30 8367 C 791.45 1.81347 -2.09782 0
M  V30 8368 H 794.401 0.638156 -1.45304 0
M  V30 8369 H 794.422 3.33193 -1.83746 0
M  V30 8370 H 793.934 2.15222 -3.22957 0
M  V30 8371 H 792.035 3.53217 -1.18611 0
M  V30 8372 H 792.148 3.6829 -3.0643 0
M  V30 8373 H 790.512 2.01839 -1.55349 0
M  V30 8374 H 791.295 1.43369 -3.1193 0
M  V30 8375 N 793.74 1.17359 1.05189 0
M  V30 8376 C 794.986 0.963413 1.78455 0
M  V30 8377 C 795.319 -0.506703 1.87473 0
M  V30 8378 O 794.594 -1.37611 1.37453 0
M  V30 8379 C 794.877 1.60519 3.22344 0
M  V30 8380 C 794.73 3.14741 3.21338 0
M  V30 8381 C 796.049 1.3091 4.20179 0
M  V30 8382 H 793.168 0.351412 0.647826 0
M  V30 8383 H 795.81 1.44858 1.22948 0
M  V30 8384 H 793.96 1.19265 3.69741 0
M  V30 8385 H 795.632 3.65053 2.82017 0
M  V30 8386 H 793.875 3.4749 2.59679 0
M  V30 8387 H 794.546 3.54775 4.22894 0
M  V30 8388 H 797.022 1.66635 3.81277 0
M  V30 8389 H 795.898 1.784 5.191 0
M  V30 8390 H 796.159 0.229908 4.41502 0
M  V30 8391 N 795.218 -1.23913 0.973828 0
M  V30 8392 C 796.458 -1.93889 0.647015 0
M  V30 8393 C 796.822 -1.74368 -0.803735 0
M  V30 8394 O 798.023 -2.38435 -1.24106 0
M  V30 8395 C 796.294 -3.4257 1.01885 0
M  V30 8396 S 797.853 -4.31306 0.807517 0
M  V30 8397 H 794.671 -0.670279 0.237165 0
M  V30 8398 H 797.273 -1.50144 1.25208 0
M  V30 8399 H 795.977 -3.54286 2.07146 0
M  V30 8400 H 795.508 -3.91312 0.404812 0
M  V30 8401 H 797.523 -4.95218 -0.311986 0
M  V30 8402 N 796.696 -0.74468 -1.38897 0
M  V30 8403 C 797.643 -0.111064 -2.30533 0
M  V30 8404 C 798.613 0.719276 -1.49719 0
M  V30 8405 O 799.798 0.677244 -1.78376 0
M  V30 8406 C 796.938 0.78292 -3.36102 0
M  V30 8407 C 796.051 -0.0610817 -4.31957 0
M  V30 8408 C 795.186 0.835075 -5.24595 0
M  V30 8409 C 794.225 -0.0130974 -6.12099 0
M  V30 8410 N 793.362 0.839525 -6.97063 0
M  V30 8411 H 798.202 -0.898113 -2.84144 0
M  V30 8412 H 795.739 -0.454537 -1.39901 0
M  V30 8413 H 797.697 1.31578 -3.95908 0
M  V30 8414 H 796.327 1.53585 -2.83922 0
M  V30 8415 H 795.379 -0.711469 -3.73687 0
M  V30 8416 H 796.691 -0.716482 -4.93627 0
M  V30 8417 H 795.845 1.43542 -5.89475 0
M  V30 8418 H 794.584 1.52423 -4.63269 0
M  V30 8419 H 793.589 -0.626179 -5.46223 0
M  V30 8420 H 794.814 -0.699181 -6.75491 0
M  V30 8421 H 792.76 1.5138 -6.38295 0
M  V30 8422 H 792.677 0.240823 -7.55616 0
M  V30 8423 H 793.945 1.42513 -7.66362 0
M  V30 8424 N 798.174 1.49689 -0.493057 0
M  V30 8425 C 799.137 2.27502 0.278485 0
M  V30 8426 C 800.137 1.33184 0.901037 0
M  V30 8427 O 801.327 1.56415 0.766801 0
M  V30 8428 C 798.459 3.10881 1.39878 0
M  V30 8429 H 799.652 2.97163 -0.404219 0
M  V30 8430 H 797.205 1.54324 -0.247774 0
M  V30 8431 H 797.94 2.45767 2.11587 0
M  V30 8432 H 797.725 3.80219 0.957924 0
M  V30 8433 H 799.215 3.69673 1.94247 0
M  V30 8434 N 799.652 0.226554 1.55963 0
M  V30 8435 C 800.877 -0.411527 2.03276 0
M  V30 8436 C 801.302 -1.52206 1.10521 0
M  V30 8437 O 800.66 -1.81054 0.0943217 0
M  V30 8438 C 800.708 -0.915694 3.4878 0
M  V30 8439 O 799.812 -2.02672 3.59163 0
M  V30 8440 H 799.153 -0.0924907 0.657527 0
M  V30 8441 H 801.683 0.346656 2.01642 0
M  V30 8442 H 801.693 -1.22421 3.892 0
M  V30 8443 H 800.368 -0.102915 4.15773 0
M  V30 8444 H 798.945 -1.72445 3.30632 0
M  V30 8445 N 801.13 -1.57531 -0.0467866 0
M  V30 8446 C 802.358 -1.92696 -0.753371 0
M  V30 8447 C 802.773 -0.824792 -1.69831 0
M  V30 8448 O 802.13 0.200155 -1.81399 0
M  V30 8449 C 802.181 -3.27728 -1.52566 0
M  V30 8450 O 801.902 -4.3371 -0.618674 0
M  V30 8451 C 803.403 -3.77066 -2.33101 0
M  V30 8452 H 800.623 -0.636367 -0.212788 0
M  V30 8453 H 803.167 -2.04498 -0.00959361 0
M  V30 8454 H 801.322 -3.17378 -2.22148 0
M  V30 8455 H 801.736 -5.11548 -1.15839 0
M  V30 8456 H 803.21 -4.74109 -2.82709 0
M  V30 8457 H 803.687 -3.07348 -3.13741 0
M  V30 8458 H 804.293 -3.90442 -1.68628 0
M  V30 8459 N 802.608 0.318715 -1.54344 0
M  V30 8460 C 804.024 0.663345 -1.45162 0
M  V30 8461 C 804.224 1.9145 -0.62842 0
M  V30 8462 O 803.28 2.5217 -0.129126 0
M  V30 8463 C 804.593 0.832836 -2.88937 0
M  V30 8464 C 806.141 0.929866 -2.98869 0
M  V30 8465 C 806.616 1.13149 -4.43803 0
M  V30 8466 N 808.107 1.19811 -4.47437 0
M  V30 8467 C 808.842 1.37209 -5.56742 0
M  V30 8468 N 808.338 1.51619 -6.76006 0
M  V30 8469 N 810.131 1.39956 -5.44398 0
M  V30 8470 H 802.282 -0.50357 -2.06344 0
M  V30 8471 H 804.545 -0.163528 -0.933789 0
M  V30 8472 H 804.251 -0.0153519 -3.51697 0
M  V30 8473 H 804.125 1.72721 -3.35332 0
M  V30 8474 H 806.512 1.76855 -2.36233 0
M  V30 8475 H 806.593 0.0118561 -2.55797 0
M  V30 8476 H 806.237 0.297636 -5.07027 0
M  V30 8477 H 806.167 2.06345 -4.84489 0
M  V30 8478 H 808.658 1.101 -3.61506 0
M  V30 8479 H 808.971 1.64599 -7.55067 0
M  V30 8480 H 807.316 1.48708 -6.78904 0
M  V30 8481 H 810.507 1.28298 -4.50175 0
M  V30 8482 H 810.68 1.53172 -6.29637 0
M  V30 8483 N 804.086 1.46499 0.581025 0
M  V30 8484 C 805.335 1.51162 1.3354 0
M  V30 8485 C 805.648 0.168433 1.94873 0
M  V30 8486 O 806.854 0.092883 2.71341 0
M  V30 8487 C 805.31 2.66362 2.42032 0
M  V30 8488 C 804.918 4.07109 1.86994 0
M  V30 8489 C 806.662 2.80297 3.188 0
M  V30 8490 C 804.569 5.13645 2.93125 0
M  V30 8491 H 803.499 0.562576 0.502021 0
M  V30 8492 H 806.15 1.72713 0.619863 0
M  V30 8493 H 804.532 2.38143 3.16392 0
M  V30 8494 H 805.706 4.45125 1.19166 0
M  V30 8495 H 804.021 3.97854 1.22887 0
M  V30 8496 H 806.618 3.5706 3.9801 0
M  V30 8497 H 806.961 1.87875 3.71495 0
M  V30 8498 H 807.494 3.0817 2.51547 0
M  V30 8499 H 804.233 6.07866 2.45315 0
M  V30 8500 H 803.753 4.80172 3.59437 0
M  V30 8501 H 805.432 5.39562 3.57046 0
M  V30 8502 N 805.565 -0.825799 1.34232 0
M  V30 8503 C 806.981 -1.11848 1.13851 0
M  V30 8504 C 807.181 -2.01405 -0.0619031 0
M  V30 8505 O 806.237 -2.41465 -0.738287 0
M  V30 8506 C 807.55 -1.76797 2.43235 0
M  V30 8507 C 809.098 -1.89304 2.49265 0
M  V30 8508 C 809.573 -2.57669 3.78643 0
M  V30 8509 N 811.064 -2.65171 3.79788 0
M  V30 8510 C 811.799 -3.1879 4.76614 0
M  V30 8511 N 811.295 -3.72995 5.83821 0
M  V30 8512 N 813.088 -3.17164 4.64073 0
M  V30 8513 H 805.239 -0.230049 2.11151 0
M  V30 8514 H 807.502 -0.164609 0.9336 0
M  V30 8515 H 807.208 -1.18455 3.31152 0
M  V30 8516 H 807.082 -2.76693 2.56361 0
M  V30 8517 H 809.469 -2.46796 1.6179 0
M  V30 8518 H 809.55 -0.883191 2.4007 0
M  V30 8519 H 809.194 -2.00833 4.66507 0
M  V30 8520 H 809.124 -3.59152 3.8512 0
M  V30 8521 H 811.615 -2.26746 3.02315 0
M  V30 8522 H 811.928 -4.12151 6.53721 0
M  V30 8523 H 810.273 -3.71246 5.87538 0
M  V30 8524 H 813.464 -2.74082 3.79469 0
M  V30 8525 H 813.637 -3.58647 5.397 0
M  V30 8526 N 807.043 -1.17915 -1.04565 0
M  V30 8527 C 808.292 -0.965816 -1.77073 0
M  V30 8528 C 808.605 0.506005 -1.88942 0
M  V30 8529 O 809.811 0.837717 -2.58253 0
M  V30 8530 C 808.267 -1.67894 -3.18339 0
M  V30 8531 C 807.875 -3.18972 -3.1458 0
M  V30 8532 C 809.619 -1.54823 -3.9526 0
M  V30 8533 C 807.526 -3.82946 -4.50674 0
M  V30 8534 H 806.456 -0.357729 -0.663736 0
M  V30 8535 H 809.107 -1.41235 -1.17153 0
M  V30 8536 H 807.489 -1.16016 -3.78624 0
M  V30 8537 H 808.663 -3.77835 -2.63776 0
M  V30 8538 H 806.978 -3.32127 -2.51159 0
M  V30 8539 H 809.575 -1.99984 -4.95894 0
M  V30 8540 H 809.918 -0.499727 -4.1329 0
M  V30 8541 H 810.451 -2.03953 -3.41538 0
M  V30 8542 H 807.19 -4.8782 -4.37849 0
M  V30 8543 H 806.71 -3.2887 -5.01602 0
M  V30 8544 H 808.389 -3.85518 -5.196 0
M  V30 8545 N 808.521 1.23394 -0.980386 0
M  V30 8546 C 809.749 1.95844 -0.667286 0
M  V30 8547 C 810.164 1.72574 0.765735 0
M  V30 8548 O 809.521 1.01715 1.51526 0
M  V30 8549 C 809.572 3.48844 -0.948151 0
M  V30 8550 O 809.293 3.71325 -2.32485 0
M  V30 8551 C 810.794 4.38494 -0.651002 0
M  V30 8552 H 808.014 0.623535 -0.247882 0
M  V30 8553 H 810.558 1.56885 -1.31176 0
M  V30 8554 H 808.713 3.85819 -0.349681 0
M  V30 8555 H 809.127 4.65619 -2.41452 0
M  V30 8556 H 810.601 5.44648 -0.897887 0
M  V30 8557 H 811.078 4.37236 0.414922 0
M  V30 8558 H 811.684 4.07127 -1.22995 0
M  V30 8559 N 809.999 0.752036 1.385 0
M  V30 8560 C 811.276 0.233075 1.94206 0
M  V30 8561 C 811.656 -1.26838 1.68746 0
M  V30 8562 O 811.004 -2.04214 1.02513 0
M  V30 8563 C 811.214 0.58509 3.44061 0
M  V30 8564 C 812.562 0.543871 4.21102 0
M  V30 8565 O 813.586 0.523291 3.52335 0
M  V30 8566 O 812.445 0.553436 5.4369 0
M  V30 8567 H 809.539 0.0483049 0.825588 0
M  V30 8568 H 812.085 0.832053 1.47902 0
M  V30 8569 H 810.857 1.62212 3.56094 0
M  V30 8570 H 810.48 -0.0419738 3.97578 0
M  V30 8571 N 811.477 -1.49425 0.500989 0
M  V30 8572 C 812.425 -2.30771 -0.291149 0
M  V30 8573 C 813.419 -1.3938 -0.962787 0
M  V30 8574 O 814.625 -1.56431 -0.890477 0
M  V30 8575 H 811 -0.743499 -0.11275 0
M  V30 8576 H 812.971 -2.95501 0.414917 0
M  V30 8577 C 811.72 -3.20725 -1.34279 0
M  V30 8578 H 811.043 -3.90975 -0.83538 0
M  V30 8579 H 812.483 -3.80583 -1.86903 0
M  V30 8580 C 810.942 -2.40334 -2.36095 0
M  V30 8581 O 811.472 -2.10749 -3.41976 0
M  V30 8582 N 809.678 -2.02359 -2.08565 0
M  V30 8583 H 809.225 -2.26619 -1.22482 0
M  V30 8584 H 809.183 -1.48878 -2.76916 0
M  V30 8585 N 812.955 -0.234822 -1.55841 0
M  V30 8586 C 813.888 0.710134 -2.16869 0
M  V30 8587 C 814.866 1.18155 -1.11706 0
M  V30 8588 O 816.05 1.26188 -1.40032 0
M  V30 8589 C 813.177 1.96368 -2.75966 0
M  V30 8590 C 812.223 1.63114 -3.94076 0
M  V30 8591 S 813.056 0.744307 -5.30302 0
M  V30 8592 C 814.212 2.00712 -5.92845 0
M  V30 8593 H 814.445 0.19146 -2.96683 0
M  V30 8594 H 811.978 -0.0193854 -1.54388 0
M  V30 8595 H 813.936 2.68338 -3.10653 0
M  V30 8596 H 812.597 2.45347 -1.96121 0
M  V30 8597 H 811.79 2.56285 -4.33975 0
M  V30 8598 H 811.392 0.991967 -3.60605 0
M  V30 8599 H 813.684 2.9557 -6.09627 0
M  V30 8600 H 814.627 1.65182 -6.88564 0
M  V30 8601 H 815.035 2.1537 -5.21801 0
M  V30 8602 N 814.433 1.57553 0.0384317 0
M  V30 8603 C 815.68 1.88841 0.731116 0
M  V30 8604 C 816.008 0.83093 1.75857 0
M  V30 8605 O 815.263 -0.169248 1.94967 0
M  V30 8606 C 815.562 3.26862 1.44554 0
M  V30 8607 C 815.228 4.47472 0.554946 0
M  V30 8608 C 813.89 4.80203 0.309621 0
M  V30 8609 C 816.242 5.21165 -0.0605204 0
M  V30 8610 C 813.57 5.8402 -0.560101 0
M  V30 8611 C 815.922 6.25905 -0.91789 0
M  V30 8612 C 814.586 6.57117 -1.17277 0
M  V30 8613 H 813.856 0.691018 0.267534 0
M  V30 8614 H 816.503 1.91498 -0.00883195 0
M  V30 8615 H 814.808 3.2015 2.25856 0
M  V30 8616 H 816.505 3.48316 1.98688 0
M  V30 8617 H 813.095 4.21874 0.756304 0
M  V30 8618 H 817.279 4.96164 0.116064 0
M  V30 8619 H 812.535 6.06583 -0.765974 0
M  V30 8620 H 816.709 6.82155 -1.40136 0
M  V30 8621 H 814.336 7.37385 -1.84843 0
M  V30 8622 N 815.911 -0.310526 1.54511 0
M  V30 8623 C 817.151 -1.05498 1.7507 0
M  V30 8624 C 817.515 -1.84814 0.520381 0
M  V30 8625 O 818.716 -2.61937 0.603547 0
M  V30 8626 C 816.987 -1.94466 2.99863 0
M  V30 8627 S 818.546 -2.75686 3.41383 0
M  V30 8628 H 815.364 -0.355951 0.615483 0
M  V30 8629 H 817.966 -0.329464 1.92704 0
M  V30 8630 H 816.67 -1.35055 3.87541 0
M  V30 8631 H 816.201 -2.71401 2.84789 0
M  V30 8632 H 818.216 -3.96971 2.97706 0
M  V30 8633 N 817.389 -1.46805 -0.573248 0
M  V30 8634 C 818.352 -1.57655 -1.66366 0
M  V30 8635 C 819.352 -0.452905 -1.5429 0
M  V30 8636 O 820.542 -0.717502 -1.58737 0
M  V30 8637 C 817.674 -1.50584 -3.05839 0
M  V30 8638 H 818.867 -2.54842 -1.581 0
M  V30 8639 H 816.42 -1.34756 -0.791868 0
M  V30 8640 H 817.155 -0.547127 -3.19651 0
M  V30 8641 H 816.94 -2.32118 -3.16012 0
M  V30 8642 H 818.43 -1.61282 -3.85199 0
M  V30 8643 N 818.867 0.818669 -1.34668 0
M  V30 8644 C 820.115 1.57201 -1.27013 0
M  V30 8645 C 820.436 1.94354 0.158599 0
M  V30 8646 O 819.706 1.62626 1.09223 0
M  V30 8647 H 818.286 0.582919 -0.467135 0
M  V30 8648 H 820.948 0.977234 -1.6863 0
M  V30 8649 H 820.044 2.49291 -1.87778 0
M  V30 8650 N 820.346 1.18468 1.03938 0
M  V30 8651 C 821.576 1.0043 1.80547 0
M  V30 8652 C 821.984 -0.450407 1.83761 0
M  V30 8653 O 821.327 -1.32463 1.27276 0
M  V30 8654 C 821.389 1.48437 3.27424 0
M  V30 8655 C 821.053 2.96372 3.47869 0
M  V30 8656 C 822.05 3.94217 3.38953 0
M  V30 8657 C 819.735 3.34831 3.74424 0
M  V30 8658 C 821.729 5.28517 3.56298 0
M  V30 8659 C 819.416 4.69294 3.91416 0
M  V30 8660 C 820.414 5.65946 3.82354 0
M  V30 8661 O 820.102 6.97974 3.98858 0
M  V30 8662 H 819.834 0.354853 0.575374 0
M  V30 8663 H 822.388 1.57473 1.31876 0
M  V30 8664 H 820.618 0.857601 3.7707 0
M  V30 8665 H 822.307 1.2677 3.85596 0
M  V30 8666 H 823.073 3.6585 3.184 0
M  V30 8667 H 818.952 2.60161 3.80575 0
M  V30 8668 H 822.496 6.03943 3.49141 0
M  V30 8669 H 818.393 4.97361 4.11463 0
M  V30 8670 H 819.161 7.04895 4.1601 0
M  V30 8671 N 821.824 -1.22873 0.986916 0
M  V30 8672 C 822.771 -2.2458 0.532215 0
M  V30 8673 C 823.741 -1.60375 -0.432322 0
M  V30 8674 O 824.926 -1.87775 -0.338416 0
M  V30 8675 C 822.066 -3.44761 -0.152864 0
M  V30 8676 C 821.179 -4.23501 0.852704 0
M  V30 8677 C 820.314 -5.31011 0.14176 0
M  V30 8678 C 819.353 -6.01464 1.1361 0
M  V30 8679 N 818.49 -7.00631 0.453871 0
M  V30 8680 H 823.33 -2.62838 1.40428 0
M  V30 8681 H 820.867 -1.29185 0.703543 0
M  V30 8682 H 822.825 -4.1333 -0.566926 0
M  V30 8683 H 821.455 -3.07284 -0.988756 0
M  V30 8684 H 820.507 -3.54286 1.38512 0
M  V30 8685 H 821.819 -4.72097 1.61014 0
M  V30 8686 H 820.973 -6.05805 -0.329337 0
M  V30 8687 H 819.712 -4.83373 -0.648229 0
M  V30 8688 H 818.717 -5.25456 1.61789 0
M  V30 8689 H 819.942 -6.5119 1.92686 0
M  V30 8690 H 817.888 -6.55235 -0.316791 0
M  V30 8691 H 817.805 -7.47204 1.14986 0
M  V30 8692 H 819.073 -7.795 0.00537823 0
M  V30 8693 N 823.302 -0.75937 -1.38099 0
M  V30 8694 C 824.713 -0.385078 -1.82686 0
M  V30 8695 C 825.064 1.0871 -1.6333 0
M  V30 8696 O 824.189 1.84084 -1.13762 0
M  V30 8697 C 824.784 -0.692161 -3.31654 0
M  V30 8698 C 823.343 -0.371077 -3.74566 0
M  V30 8699 C 822.49 -0.942375 -2.60796 0
M  V30 8700 H 825.441 -0.955048 -1.26746 0
M  V30 8701 H 825.462 0.0276001 -3.8049 0
M  V30 8702 H 824.974 -1.76369 -3.4571 0
M  V30 8703 H 823.075 0.693637 -3.66087 0
M  V30 8704 H 823.188 -0.870672 -4.71122 0
M  V30 8705 H 821.552 -0.367383 -2.52036 0
M  V30 8706 H 822.335 -2.01905 -2.77649 0
M  V30 8707 N 824.78 1.49157 -0.508906 0
M  V30 8708 C 826.028 2.02073 0.0327335 0
M  V30 8709 C 826.349 1.39012 1.3675 0
M  V30 8710 O 825.619 0.548153 1.88075 0
M  V30 8711 H 824.199 0.746848 0.0150864 0
M  V30 8712 H 826.861 1.83097 -0.667946 0
M  V30 8713 H 825.957 3.11707 0.1566 0
M  V30 8714 N 826.258 0.243083 1.55714 0
M  V30 8715 C 827.168 -0.668913 2.24862 0
M  V30 8716 C 828.184 -1.19638 1.26344 0
M  V30 8717 O 829.36 -1.23345 1.5921 0
M  V30 8718 C 826.425 -1.85084 2.93163 0
M  V30 8719 C 825.486 -1.36323 4.07081 0
M  V30 8720 C 824.719 -2.48882 4.72116 0
M  V30 8721 O 824.942 -3.67523 4.36214 0
M  V30 8722 O 823.876 -2.18857 5.60701 0
M  V30 8723 H 827.702 -0.109737 3.03502 0
M  V30 8724 H 825.287 0.0117411 1.49395 0
M  V30 8725 H 827.169 -2.54065 3.36197 0
M  V30 8726 H 825.844 -2.39771 2.17466 0
M  V30 8727 H 824.751 -0.640804 3.68571 0
M  V30 8728 H 826.084 -0.86249 4.84584 0
M  V30 8729 N 827.736 -1.57571 -0.0300757 0
M  V30 8730 C 828.984 -1.88852 -0.719666 0
M  V30 8731 C 829.305 -0.840645 -1.75949 0
M  V30 8732 O 828.575 0.125854 -1.95495 0
M  V30 8733 H 827.155 -0.696965 -0.268792 0
M  V30 8734 H 829.817 -1.949 0.00373285 0
M  V30 8735 H 828.913 -2.87695 -1.20987 0
M  V30 8736 N 829.214 0.302327 -1.54673 0
M  V30 8737 C 830.161 1.37282 -1.85532 0
M  V30 8738 C 831.131 1.50437 -0.704129 0
M  V30 8739 O 832.316 1.65317 -0.952627 0
M  V30 8740 C 829.456 2.73309 -2.10704 0
M  V30 8741 C 828.569 2.68614 -3.38335 0
M  V30 8742 C 827.704 3.96626 -3.53357 0
M  V30 8743 C 826.743 3.86324 -4.74784 0
M  V30 8744 N 825.88 5.06109 -4.86619 0
M  V30 8745 H 830.72 1.10265 -2.76849 0
M  V30 8746 H 828.257 0.533346 -1.37091 0
M  V30 8747 H 830.215 3.52414 -2.23294 0
M  V30 8748 H 828.845 2.98589 -1.22656 0
M  V30 8749 H 827.897 1.81381 -3.34373 0
M  V30 8750 H 829.209 2.56891 -4.27561 0
M  V30 8751 H 828.363 4.84168 -3.65604 0
M  V30 8752 H 827.102 4.11182 -2.62261 0
M  V30 8753 H 826.107 2.97166 -4.62572 0
M  V30 8754 H 827.332 3.73315 -5.67286 0
M  V30 8755 H 825.278 5.2113 -3.98446 0
M  V30 8756 H 825.195 4.96804 -5.69844 0
M  V30 8757 H 826.463 5.95306 -5.03221 0
M  V30 8758 N 830.692 1.47107 0.565454 0
M  V30 8759 C 832.108 1.32443 0.890566 0
M  V30 8760 C 832.308 0.308735 1.99121 0
M  V30 8761 O 831.364 -0.28265 2.50913 0
M  V30 8762 C 832.677 2.71548 1.2916 0
M  V30 8763 C 834.225 2.7977 1.40349 0
M  V30 8764 C 834.7 4.19497 1.83811 0
M  V30 8765 N 836.191 4.21998 1.90975 0
M  V30 8766 C 836.926 5.2702 2.25916 0
M  V30 8767 N 836.422 6.42353 2.59527 0
M  V30 8768 N 838.215 5.14393 2.26619 0
M  V30 8769 H 830.366 2.11786 -0.161328 0
M  V30 8770 H 832.629 0.947952 -0.00950631 0
M  V30 8771 H 832.335 3.47265 0.556753 0
M  V30 8772 H 832.209 3.02782 2.24951 0
M  V30 8773 H 834.596 2.0433 2.12916 0
M  V30 8774 H 834.677 2.522 0.427655 0
M  V30 8775 H 834.321 4.95439 1.11816 0
M  V30 8776 H 834.251 4.44486 2.82382 0
M  V30 8777 H 836.742 3.38791 1.6742 0
M  V30 8778 H 837.055 7.18252 2.85191 0
M  V30 8779 H 835.4 6.45687 2.57126 0
M  V30 8780 H 838.591 4.2332 1.99794 0
M  V30 8781 H 838.764 5.96349 2.5352 0
M  V30 8782 N 832.17 -0.811516 1.35101 0
M  V30 8783 C 833.418 -1.56525 1.27845 0
M  V30 8784 C 833.739 -1.94435 -0.14829 0
M  V30 8785 O 833.009 -1.63203 -1.08359 0
M  V30 8786 H 831.589 -0.580433 0.47022 0
M  V30 8787 H 834.251 -0.968277 1.69146 0
M  V30 8788 H 833.347 -2.48291 1.89097 0
M  V30 8789 N 833.648 -1.19017 -1.03309 0
M  V30 8790 C 834.925 -0.899659 -1.73682 0
M  V30 8791 C 835.305 0.595677 -2.02521 0
M  V30 8792 O 834.653 1.55263 -1.67648 0
M  V30 8793 C 834.863 -1.75508 -3.01659 0
M  V30 8794 C 836.211 -1.98679 -3.75249 0
M  V30 8795 O 837.235 -1.72624 -3.11576 0
M  V30 8796 O 836.094 -2.42587 -4.89708 0
M  V30 8797 H 833.188 -0.334903 -0.756154 0
M  V30 8798 H 835.734 -1.29809 -1.09305 0
M  V30 8799 H 834.506 -2.7684 -2.76542 0
M  V30 8800 H 834.129 -1.35565 -3.73775 0
M  V30 8801 N 835.127 1.22348 -0.993418 0
M  V30 8802 C 836.09 2.22522 -0.549251 0
M  V30 8803 C 837.09 1.56529 0.368164 0
M  V30 8804 O 838.28 1.73463 0.16005 0
M  V30 8805 C 835.412 3.40307 0.201037 0
M  V30 8806 H 836.605 2.63332 -1.43515 0
M  V30 8807 H 834.158 1.35407 -0.78068 0
M  V30 8808 H 834.893 3.0497 1.10289 0
M  V30 8809 H 834.678 3.8942 -0.457685 0
M  V30 8810 H 836.168 4.14597 0.499946 0
M  V30 8811 N 836.605 0.766683 1.37694 0
M  V30 8812 C 837.845 0.333815 2.01656 0
M  V30 8813 C 838.209 -1.06813 1.59546 0
M  V30 8814 O 839.41 -1.60084 2.15932 0
M  V30 8815 C 837.681 0.467032 3.54335 0
M  V30 8816 S 839.24 0.118679 4.38639 0
M  V30 8817 H 836.058 0.128723 0.699251 0
M  V30 8818 H 838.66 1.00018 1.67978 0
M  V30 8819 H 837.364 1.48808 3.82471 0
M  V30 8820 H 836.895 -0.216066 3.92806 0
M  V30 8821 H 838.91 -1.08746 4.84137 0
M  V30 8822 N 838.083 -1.48885 0.516809 0
M  V30 8823 C 838.993 -2.33185 -0.257293 0
M  V30 8824 C 840.009 -1.4565 -0.951952 0
M  V30 8825 O 841.185 -1.78651 -0.929834 0
M  V30 8826 C 838.25 -3.21465 -1.29851 0
M  V30 8827 C 837.311 -4.24863 -0.615608 0
M  V30 8828 C 836.544 -5.08925 -1.60722 0
M  V30 8829 O 836.767 -4.9475 -2.83863 0
M  V30 8830 O 835.701 -5.90737 -1.15384 0
M  V30 8831 H 839.527 -3.00596 0.433131 0
M  V30 8832 H 837.112 -1.46792 0.277908 0
M  V30 8833 H 838.994 -3.76108 -1.90055 0
M  V30 8834 H 837.669 -2.5673 -1.97158 0
M  V30 8835 H 836.576 -3.74091 0.0265829 0
M  V30 8836 H 837.909 -4.92198 0.0152871 0
M  V30 8837 N 839.561 -0.251338 -1.55583 0
M  V30 8838 C 840.809 0.371434 -1.98657 0
M  V30 8839 C 841.13 1.58143 -1.14087 0
M  V30 8840 O 840.4 1.94607 -0.224708 0
M  V30 8841 H 838.98 0.140225 -0.733721 0
M  V30 8842 H 841.642 -0.351157 -1.9171 0
M  V30 8843 H 840.738 0.677554 -3.04657 0
M  V30 8844 N 841.039 1.57585 0.0217189 0
M  V30 8845 C 842.316 1.80779 0.74687 0
M  V30 8846 C 842.696 0.851163 1.9318 0
M  V30 8847 O 842.044 -0.105039 2.28258 0
M  V30 8848 C 842.254 3.28696 1.17302 0
M  V30 8849 C 843.602 3.93871 1.58589 0
M  V30 8850 O 844.626 3.3289 1.2674 0
M  V30 8851 O 843.485 5.01254 2.1773 0
M  V30 8852 H 840.579 0.743666 0.361786 0
M  V30 8853 H 843.125 1.697 -0.00206785 0
M  V30 8854 H 841.897 3.89927 0.327453 0
M  V30 8855 H 841.52 3.44692 1.98174 0
M  V30 8856 N 842.517 -0.29412 1.54831 0
M  V30 8857 C 843.742 -1.05156 1.78765 0
M  V30 8858 C 844.167 -1.79916 0.548809 0
M  V30 8859 O 843.525 -1.74243 -0.500909 0
M  V30 8860 C 843.573 -2.00242 2.99893 0
M  V30 8861 O 842.677 -3.08662 2.73499 0
M  V30 8862 H 842.018 -0.301737 0.591482 0
M  V30 8863 H 844.548 -0.329449 2.0193 0
M  V30 8864 H 844.558 -2.42583 3.28051 0
M  V30 8865 H 843.233 -1.45235 3.89717 0
M  V30 8866 H 841.81 -2.70786 2.56377 0
M  V30 8867 N 843.995 -1.47404 -0.557645 0
M  V30 8868 C 845.243 -1.53703 -1.31224 0
M  V30 8869 C 845.564 -0.200742 -1.93964 0
M  V30 8870 O 844.834 0.775253 -1.79907 0
M  V30 8871 H 843.414 -0.566171 -0.487299 0
M  V30 8872 H 846.076 -1.83699 -0.651195 0
M  V30 8873 H 845.172 -2.30335 -2.10599 0
M  V30 8874 N 845.473 0.80434 -1.35529 0
M  V30 8875 C 846.721 1.55845 -1.28673 0
M  V30 8876 C 847.042 1.94511 0.137976 0
M  V30 8877 O 846.312 1.63775 1.07492 0
M  V30 8878 H 844.892 0.577931 -0.473291 0
M  V30 8879 H 847.554 0.959293 -1.69657 0
M  V30 8880 H 846.65 2.47285 -1.90411 0
M  V30 8881 N 846.951 1.19563 1.02676 0
M  V30 8882 C 848.362 1.00158 1.57561 0
M  V30 8883 C 848.713 -0.444922 1.91089 0
M  V30 8884 O 847.838 -1.32466 1.71119 0
M  V30 8885 C 848.433 1.81181 2.86284 0
M  V30 8886 C 846.992 1.66171 3.37734 0
M  V30 8887 C 846.139 1.7975 2.11152 0
M  V30 8888 H 849.09 1.33904 0.85179 0
M  V30 8889 H 849.111 1.30916 3.57269 0
M  V30 8890 H 848.623 2.86454 2.6185 0
M  V30 8891 H 846.724 0.634927 3.6715 0
M  V30 8892 H 846.837 2.46832 4.10622 0
M  V30 8893 H 845.201 1.22833 2.23123 0
M  V30 8894 H 845.984 2.86487 1.89157 0
M  V30 8895 N 848.429 -1.21819 0.999893 0
M  V30 8896 C 849.676 -1.90752 0.679694 0
M  V30 8897 C 850.004 -1.77777 -0.789014 0
M  V30 8898 O 849.259 -1.14518 -1.58695 0
M  V30 8899 C 849.558 -3.4193 1.04012 0
M  V30 8900 C 849.224 -3.75098 2.50225 0
M  V30 8901 C 847.886 -3.83861 2.90179 0
M  V30 8902 C 850.238 -3.90706 3.44961 0
M  V30 8903 C 847.566 -4.05676 4.23844 0
M  V30 8904 C 849.918 -4.14027 4.78294 0
M  V30 8905 C 848.582 -4.21016 5.17979 0
M  V30 8906 H 847.852 -0.698012 0.248718 0
M  V30 8907 H 850.499 -1.44437 1.25738 0
M  V30 8908 H 848.804 -3.89947 0.380606 0
M  V30 8909 H 850.501 -3.93532 0.770301 0
M  V30 8910 H 847.091 -3.68865 2.18258 0
M  V30 8911 H 851.275 -3.83307 3.15261 0
M  V30 8912 H 846.531 -4.09316 4.5417 0
M  V30 8913 H 850.705 -4.25046 5.51642 0
M  V30 8914 H 848.332 -4.37672 6.21568 0
M  V30 8915 N 849.908 -0.773975 -1.37286 0
M  V30 8916 C 851.154 -0.339809 -1.99933 0
M  V30 8917 C 851.487 1.0815 -1.61299 0
M  V30 8918 O 850.762 1.74442 -0.860252 0
M  V30 8919 C 851.045 -0.485919 -3.56806 0
M  V30 8920 C 850.898 -1.9498 -4.05343 0
M  V30 8921 C 852.217 0.108461 -4.39966 0
M  V30 8922 H 849.336 -0.124944 -0.726332 0
M  V30 8923 H 851.978 -0.977433 -1.6293 0
M  V30 8924 H 850.128 0.0569023 -3.88458 0
M  V30 8925 H 851.8 -2.5525 -3.84246 0
M  V30 8926 H 850.043 -2.45784 -3.57453 0
M  V30 8927 H 850.714 -2.00308 -5.14374 0
M  V30 8928 H 853.19 -0.354722 -4.14585 0
M  V30 8929 H 852.066 -0.0238926 -5.48895 0
M  V30 8930 H 852.327 1.19901 -4.25531 0
M  V30 8931 N 851.386 1.48609 -0.524698 0
M  V30 8932 C 852.319 2.26374 0.288109 0
M  V30 8933 C 853.297 1.31997 0.949509 0
M  V30 8934 O 854.481 1.61329 0.974946 0
M  V30 8935 C 851.608 3.08065 1.4076 0
M  V30 8936 C 850.654 4.17777 0.858152 0
M  V30 8937 S 851.487 5.3482 -0.269827 0
M  V30 8938 C 852.643 6.2007 0.852266 0
M  V30 8939 H 852.876 2.94965 -0.371865 0
M  V30 8940 H 850.409 1.51248 -0.31039 0
M  V30 8941 H 852.367 3.5571 2.04892 0
M  V30 8942 H 851.028 2.38898 2.03928 0
M  V30 8943 H 850.221 4.74542 1.69783 0
M  V30 8944 H 849.823 3.72846 0.293627 0
M  V30 8945 H 852.115 6.54451 1.75213 0
M  V30 8946 H 853.058 7.07364 0.322717 0
M  V30 8947 H 853.466 5.53068 1.13029 0
M  V30 8948 N 852.864 0.259585 1.55447 0
M  V30 8949 C 853.811 -0.634578 2.21905 0
M  V30 8950 C 854.781 -1.16168 1.18719 0
M  V30 8951 O 855.966 -1.21383 1.4721 0
M  V30 8952 C 853.106 -1.82005 2.93203 0
M  V30 8953 C 852.219 -1.32828 4.11073 0
M  V30 8954 C 851.354 -2.47431 4.70055 0
M  V30 8955 C 850.393 -1.95179 5.80148 0
M  V30 8956 N 849.53 -3.03197 6.33258 0
M  V30 8957 H 854.37 -0.0611886 2.97937 0
M  V30 8958 H 851.907 -0.0184378 1.47088 0
M  V30 8959 H 853.865 -2.51664 3.32748 0
M  V30 8960 H 852.495 -2.36571 2.19622 0
M  V30 8961 H 851.547 -0.525301 3.76756 0
M  V30 8962 H 852.859 -0.905435 4.90513 0
M  V30 8963 H 852.013 -3.25111 5.12238 0
M  V30 8964 H 850.752 -2.93023 3.89857 0
M  V30 8965 H 849.757 -1.15974 5.37429 0
M  V30 8966 H 850.982 -1.50541 6.62204 0
M  V30 8967 H 848.928 -3.48199 5.55961 0
M  V30 8968 H 848.845 -2.65282 7.07928 0
M  V30 8969 H 850.113 -3.80898 6.80101 0
M  V30 8970 N 854.342 -1.57594 -0.0133615 0
M  V30 8971 C 855.567 -1.94649 -0.715996 0
M  V30 8972 C 855.992 -0.860786 -1.67249 0
M  V30 8973 O 855.35 0.182228 -1.80382 0
M  V30 8974 C 855.398 -3.30789 -1.43566 0
M  V30 8975 O 854.502 -3.24148 -2.54955 0
M  V30 8976 H 853.843 -0.635801 -0.191449 0
M  V30 8977 H 856.373 -2.04569 0.0358478 0
M  V30 8978 H 856.383 -3.66045 -1.80208 0
M  V30 8979 H 855.058 -4.09367 -0.734263 0
M  V30 8980 H 853.635 -3.00548 -2.20739 0
M  V30 8981 N 855.82 0.285905 -1.54985 0
M  V30 8982 C 857.231 0.857869 -1.65824 0
M  V30 8983 C 857.582 1.87531 -0.576763 0
M  V30 8984 O 856.707 2.14528 0.284016 0
M  V30 8985 C 857.302 1.56277 -3.00604 0
M  V30 8986 C 855.861 2.08294 -3.13513 0
M  V30 8987 C 855.008 0.920633 -2.61571 0
M  V30 8988 H 857.959 0.0625463 -1.58577 0
M  V30 8989 H 857.98 2.42912 -2.92872 0
M  V30 8990 H 857.492 0.822017 -3.79295 0
M  V30 8991 H 855.593 2.8537 -2.39572 0
M  V30 8992 H 855.706 2.3071 -4.19892 0
M  V30 8993 H 854.07 1.31043 -2.18403 0
M  V30 8994 H 854.853 0.193594 -3.42754 0
M  V30 8995 N 857.298 1.47698 0.54982 0
M  V30 8996 C 858.528 1.58101 1.32995 0
M  V30 8997 C 858.936 0.232939 1.87761 0
M  V30 8998 O 858.279 -0.785058 1.6608 0
M  V30 8999 C 858.341 2.55228 2.53178 0
M  V30 9000 C 858.005 4.00756 2.19645 0
M  V30 9001 C 859.002 4.89025 1.76496 0
M  V30 9002 C 856.687 4.46147 2.30777 0
M  V30 9003 C 858.681 6.20707 1.44919 0
M  V30 9004 C 856.368 5.77856 1.98812 0
M  V30 9005 C 857.366 6.64957 1.55952 0
M  V30 9006 O 857.054 7.94217 1.24396 0
M  V30 9007 H 856.786 0.536362 0.411451 0
M  V30 9008 H 859.34 1.94092 0.67212 0
M  V30 9009 H 857.57 2.14319 3.21876 0
M  V30 9010 H 859.259 2.55678 3.15251 0
M  V30 9011 H 860.025 4.55201 1.67383 0
M  V30 9012 H 855.904 3.78552 2.63096 0
M  V30 9013 H 859.448 6.88649 1.11392 0
M  V30 9014 H 855.345 6.11219 2.0756 0
M  V30 9015 H 856.113 8.06789 1.37964 0
M  V30 9016 N 858.776 -0.797141 1.35954 0
M  V30 9017 C 859.724 -1.93084 1.29697 0
M  V30 9018 C 860.718 -1.68329 0.190152 0
M  V30 9019 O 861.924 -1.7643 0.3567 0
M  V30 9020 H 858.299 -0.634531 0.403577 0
M  V30 9021 H 860.27 -1.95481 2.25455 0
M  V30 9022 C 859.019 -3.29996 1.09536 0
M  V30 9023 H 858.342 -3.49607 1.93946 0
M  V30 9024 H 859.782 -4.09696 1.09202 0
M  V30 9025 C 858.241 -3.36304 -0.200381 0
M  V30 9026 O 858.771 -3.83579 -1.19291 0
M  V30 9027 N 856.977 -2.89587 -0.242406 0
M  V30 9028 H 856.524 -2.51307 0.565897 0
M  V30 9029 H 856.482 -2.94189 -1.10906 0
M  V30 9030 N 860.254 -1.20106 -1.0204 0
M  V30 9031 C 861.202 -0.943231 -2.12617 0
M  V30 9032 C 862.196 0.104042 -1.6908 0
M  V30 9033 O 863.402 -0.0459732 -1.79941 0
M  V30 9034 H 859.777 -0.28767 -0.694802 0
M  V30 9035 H 861.748 -1.88221 -2.3155 0
M  V30 9036 C 860.497 -0.50771 -3.43973 0
M  V30 9037 H 859.82 -1.30514 -3.77897 0
M  V30 9038 H 861.26 -0.366486 -4.22413 0
M  V30 9039 C 859.719 0.77939 -3.27761 0
M  V30 9040 O 860.249 1.83876 -3.57145 0
M  V30 9041 N 858.455 0.739931 -2.81022 0
M  V30 9042 H 858.002 -0.122426 -2.57309 0
M  V30 9043 H 857.96 1.60147 -2.70556 0
M  V30 9044 N 861.732 1.21287 -1.00634 0
M  V30 9045 C 863.148 1.42467 -0.719389 0
M  V30 9046 C 863.348 1.88767 0.704927 0
M  V30 9047 O 862.404 2.05004 1.47409 0
M  V30 9048 C 863.717 2.455 -1.73639 0
M  V30 9049 C 865.265 2.59281 -1.75335 0
M  V30 9050 C 865.74 3.65547 -2.75934 0
M  V30 9051 N 867.231 3.73019 -2.74611 0
M  V30 9052 C 867.966 4.54873 -3.4911 0
M  V30 9053 N 867.462 5.40614 -4.33253 0
M  V30 9054 N 869.255 4.49309 -3.37754 0
M  V30 9055 H 861.406 0.895454 -1.92602 0
M  V30 9056 H 863.669 0.455491 -0.831404 0
M  V30 9057 H 863.375 2.18455 -2.75627 0
M  V30 9058 H 863.249 3.44325 -1.54014 0
M  V30 9059 H 865.636 2.85661 -0.740377 0
M  V30 9060 H 865.717 1.60685 -1.99032 0
M  V30 9061 H 865.361 3.39911 -3.77389 0
M  V30 9062 H 865.291 4.63741 -2.49503 0
M  V30 9063 H 867.782 3.11766 -2.13565 0
M  V30 9064 H 868.095 6.0013 -4.86892 0
M  V30 9065 H 866.44 5.40151 -4.37335 0
M  V30 9066 H 869.631 3.81357 -2.71449 0
M  V30 9067 H 869.804 5.12867 -3.9607 0
M  V30 9068 N 863.21 0.781244 1.36873 0
M  V30 9069 C 864.456 0.359455 2.00199 0
M  V30 9070 C 864.811 -1.05495 1.60899 0
M  V30 9071 O 864.104 -1.7173 0.849664 0
M  V30 9072 C 864.298 0.45146 3.54537 0
M  V30 9073 C 864.127 1.87326 4.08826 0
M  V30 9074 C 862.897 2.49606 4.39346 0
M  V30 9075 C 865.095 2.8342 4.29159 0
M  V30 9076 N 863.077 3.8346 4.79408 0
M  V30 9077 C 864.448 4.02091 4.71935 0
M  V30 9078 C 866.503 2.80583 4.11312 0
M  V30 9079 C 865.206 5.18322 4.98733 0
M  V30 9080 C 867.232 3.95995 4.39251 0
M  V30 9081 C 866.594 5.13409 4.82276 0
M  V30 9082 H 862.693 0.178778 0.76129 0
M  V30 9083 H 865.277 1.0171 1.66022 0
M  V30 9084 H 863.448 -0.176055 3.88001 0
M  V30 9085 H 865.18 0.00670219 4.04699 0
M  V30 9086 H 861.935 2.01149 4.28761 0
M  V30 9087 H 862.359 4.52306 5.03735 0
M  V30 9088 H 867.001 1.90974 3.77212 0
M  V30 9089 H 864.719 6.08524 5.31718 0
M  V30 9090 H 868.305 3.95152 4.2702 0
M  V30 9091 H 867.185 6.01232 5.03478 0
M  V30 9092 N 864.689 -1.48329 0.532571 0
M  V30 9093 C 865.919 -2.066 0.00353785 0
M  V30 9094 C 866.327 -1.38913 -1.28451 0
M  V30 9095 O 865.67 -0.471385 -1.77549 0
M  V30 9096 C 865.732 -3.58342 -0.288324 0
M  V30 9097 C 865.396 -4.47917 0.906631 0
M  V30 9098 C 866.393 -4.87534 1.80572 0
M  V30 9099 C 864.078 -4.89783 1.11436 0
M  V30 9100 C 866.072 -5.6779 2.89642 0
M  V30 9101 C 863.759 -5.69809 2.20819 0
M  V30 9102 C 864.757 -6.08721 3.09755 0
M  V30 9103 O 864.445 -6.8714 4.17246 0
M  V30 9104 H 864.177 -0.675263 0.0315661 0
M  V30 9105 H 866.731 -1.91669 0.738375 0
M  V30 9106 H 864.961 -3.71395 -1.07717 0
M  V30 9107 H 866.65 -3.98726 -0.759752 0
M  V30 9108 H 867.416 -4.5581 1.65719 0
M  V30 9109 H 863.295 -4.58977 0.431382 0
M  V30 9110 H 866.839 -5.98082 3.59087 0
M  V30 9111 H 862.736 -6.00947 2.35655 0
M  V30 9112 H 863.504 -7.05498 4.14988 0
M  V30 9113 N 866.167 -0.267825 -1.55308 0
M  V30 9114 C 867.099 0.65591 -2.19614 0
M  V30 9115 C 868.112 1.12302 -1.17865 0
M  V30 9116 O 869.301 1.04618 -1.44628 0
M  V30 9117 C 866.401 1.90582 -2.80235 0
M  V30 9118 C 865.574 1.58673 -4.07605 0
M  V30 9119 C 864.633 2.68836 -4.52343 0
M  V30 9120 O 863.659 2.35331 -5.18274 0
M  V30 9121 N 864.861 3.98752 -4.21873 0
M  V30 9122 H 867.626 0.105566 -2.99514 0
M  V30 9123 H 865.187 -0.0886263 -1.61657 0
M  V30 9124 H 867.179 2.63561 -3.07112 0
M  V30 9125 H 865.749 2.3654 -2.04371 0
M  V30 9126 H 864.969 0.691113 -3.88094 0
M  V30 9127 H 866.257 1.34845 -4.90606 0
M  V30 9128 H 865.655 4.28797 -3.68985 0
M  V30 9129 H 864.212 4.68131 -4.53537 0
M  V30 9130 N 867.645 1.57599 0.00500368 0
M  V30 9131 C 868.578 2.03541 1.03181 0
M  V30 9132 C 869.556 0.924301 1.33774 0
M  V30 9133 O 870.74 1.19204 1.46023 0
M  V30 9134 C 867.867 2.42879 2.36067 0
M  V30 9135 C 866.913 3.64673 2.21169 0
M  V30 9136 S 867.746 5.12805 1.54243 0
M  V30 9137 C 868.902 5.55408 2.88569 0
M  V30 9138 H 869.135 2.90316 0.640598 0
M  V30 9139 H 866.668 1.52886 0.215722 0
M  V30 9140 H 868.626 2.66212 3.12476 0
M  V30 9141 H 867.287 1.56512 2.72329 0
M  V30 9142 H 866.48 3.89932 3.19326 0
M  V30 9143 H 866.082 3.41316 1.52904 0
M  V30 9144 H 868.374 5.57563 3.84876 0
M  V30 9145 H 869.317 6.55418 2.68016 0
M  V30 9146 H 869.725 4.82961 2.92249 0
M  V30 9147 N 869.123 -0.277682 1.55134 0
M  V30 9148 C 870.371 -1.00791 1.75173 0
M  V30 9149 C 870.692 -1.86987 0.553266 0
M  V30 9150 O 869.962 -1.91079 -0.43195 0
M  V30 9151 H 868.542 -0.375129 0.645978 0
M  V30 9152 H 871.204 -0.303041 1.9253 0
M  V30 9153 H 870.3 -1.64756 2.6507 0
M  V30 9154 N 870.601 -1.47988 -0.541979 0
M  V30 9155 C 871.85 -1.5465 -1.29485 0
M  V30 9156 C 872.163 -0.220041 -1.94358 0
M  V30 9157 O 873.369 -0.164792 -2.70999 0
M  V30 9158 C 871.825 -2.72685 -2.34885 0
M  V30 9159 C 871.433 -4.11923 -1.76134 0
M  V30 9160 C 873.177 -2.88651 -3.11257 0
M  V30 9161 C 871.084 -5.21237 -2.79404 0
M  V30 9162 H 870.014 -0.575688 -0.486928 0
M  V30 9163 H 872.665 -1.74296 -0.573853 0
M  V30 9164 H 871.047 -2.46448 -3.09966 0
M  V30 9165 H 872.221 -4.48128 -1.07322 0
M  V30 9166 H 870.536 -4.00972 -1.12295 0
M  V30 9167 H 873.133 -3.67487 -3.88404 0
M  V30 9168 H 873.476 -1.97658 -3.66384 0
M  V30 9169 H 874.009 -3.14731 -2.43288 0
M  V30 9170 H 870.748 -6.14156 -2.29113 0
M  V30 9171 H 870.268 -4.89533 -3.4658 0
M  V30 9172 H 871.947 -5.48839 -3.42615 0
M  V30 9173 N 872.079 0.78992 -1.36375 0
M  V30 9174 C 873.325 1.55007 -1.3077 0
M  V30 9175 C 873.658 1.93871 0.112979 0
M  V30 9176 O 872.933 1.6267 1.06625 0
M  V30 9177 C 873.216 2.82748 -2.22993 0
M  V30 9178 C 873.069 2.50253 -3.73756 0
M  V30 9179 C 874.388 3.84569 -2.13998 0
M  V30 9180 H 871.507 0.562362 -0.476359 0
M  V30 9181 H 874.149 0.907582 -1.66922 0
M  V30 9182 H 872.299 3.37573 -1.92292 0
M  V30 9183 H 873.971 2.01482 -4.14973 0
M  V30 9184 H 872.214 1.83203 -3.93216 0
M  V30 9185 H 872.885 3.41487 -4.33694 0
M  V30 9186 H 875.361 3.39188 -2.4102 0
M  V30 9187 H 874.237 4.717 -2.80697 0
M  V30 9188 H 874.498 4.27491 -1.12711 0
M  V30 9189 N 873.557 1.20646 1.01402 0
M  V30 9190 C 874.782 1.04462 1.79172 0
M  V30 9191 C 875.207 -0.401588 1.83763 0
M  V30 9192 O 874.565 -1.28934 1.27459 0
M  V30 9193 C 874.613 1.63583 3.21361 0
M  V30 9194 O 873.717 0.875198 4.03006 0
M  V30 9195 H 873.058 0.368235 0.552539 0
M  V30 9196 H 875.588 1.59994 1.27526 0
M  V30 9197 H 875.598 1.67426 3.72065 0
M  V30 9198 H 874.273 2.68835 3.17334 0
M  V30 9199 H 872.85 0.911172 3.61597 0
M  V30 9200 N 875.035 -1.20752 1.01276 0
M  V30 9201 C 876.281 -1.90582 0.710627 0
M  V30 9202 C 876.636 -1.7713 -0.751184 0
M  V30 9203 O 875.929 -1.14223 -1.5383 0
M  V30 9204 C 876.123 -3.40808 1.07633 0
M  V30 9205 C 875.952 -3.68878 2.57214 0
M  V30 9206 C 874.722 -3.87805 3.23937 0
M  V30 9207 C 876.92 -3.71753 3.55393 0
M  V30 9208 N 874.902 -4.0336 4.62789 0
M  V30 9209 C 876.273 -3.92686 4.79789 0
M  V30 9210 C 878.328 -3.54697 3.4942 0
M  V30 9211 C 877.031 -3.98332 5.98936 0
M  V30 9212 C 879.057 -3.61612 4.67964 0
M  V30 9213 C 878.419 -3.83014 5.91168 0
M  V30 9214 H 874.518 -0.717219 0.311643 0
M  V30 9215 H 877.102 -1.45228 1.2968 0
M  V30 9216 H 875.273 -3.84923 0.518527 0
M  V30 9217 H 877.005 -3.98096 0.728128 0
M  V30 9218 H 873.76 -3.86029 2.74369 0
M  V30 9219 H 874.184 -4.15023 5.34869 0
M  V30 9220 H 878.826 -3.3712 2.55166 0
M  V30 9221 H 876.544 -4.14706 6.93574 0
M  V30 9222 H 880.13 -3.49728 4.64954 0
M  V30 9223 H 879.01 -3.88219 6.81363 0
M  V30 9224 N 876.513 -0.788492 -1.36457 0
M  V30 9225 C 877.761 -0.359749 -1.98872 0
M  V30 9226 C 878.082 1.07197 -1.62892 0
M  V30 9227 O 877.352 1.73875 -0.902463 0
M  V30 9228 H 875.932 -0.130029 -0.735596 0
M  V30 9229 H 878.594 -1.01033 -1.66668 0
M  V30 9230 H 877.69 -0.450835 -3.08827 0
M  V30 9231 N 877.991 1.48044 -0.54043 0
M  V30 9232 C 878.901 2.33565 0.220163 0
M  V30 9233 C 879.917 1.47146 0.928659 0
M  V30 9234 O 881.093 1.80107 0.901295 0
M  V30 9235 C 878.158 3.2349 1.2472 0
M  V30 9236 C 877.219 4.25789 0.547938 0
M  V30 9237 C 876.452 5.11417 1.52605 0
M  V30 9238 O 876.675 4.99204 2.75956 0
M  V30 9239 O 875.609 5.92498 1.05972 0
M  V30 9240 H 879.435 2.99868 -0.480898 0
M  V30 9241 H 877.02 1.46332 -0.301226 0
M  V30 9242 H 878.902 3.79084 1.84047 0
M  V30 9243 H 877.577 2.59835 1.93048 0
M  V30 9244 H 876.484 3.74001 -0.0860941 0
M  V30 9245 H 877.817 4.92111 -0.0935896 0
M  V30 9246 N 879.47 0.276058 1.55163 0
M  V30 9247 C 880.718 -0.339782 1.99223 0
M  V30 9248 C 881.039 -1.56307 1.16589 0
M  V30 9249 O 880.309 -1.94225 0.25564 0
M  V30 9250 H 878.889 -0.128534 0.735859 0
M  V30 9251 H 881.551 0.381612 1.91128 0
M  V30 9252 H 880.647 -0.629 3.05696 0
M  V30 9253 N 880.948 -1.576 0.00335426 0
M  V30 9254 C 882.188 -1.92571 -0.685253 0
M  V30 9255 C 882.552 -0.877961 -1.70751 0
M  V30 9256 O 883.753 -1.11303 -2.44673 0
M  V30 9257 C 882.024 -3.3258 -1.30863 0
M  V30 9258 S 883.583 -3.89442 -2.02189 0
M  V30 9259 H 880.401 -0.674035 -0.226268 0
M  V30 9260 H 883.003 -1.95405 0.0608461 0
M  V30 9261 H 881.707 -4.06673 -0.551837 0
M  V30 9262 H 881.238 -3.33128 -2.09259 0
M  V30 9263 H 883.253 -3.70789 -3.29742 0
M  V30 9264 N 882.426 0.269451 -1.5528 0
M  V30 9265 C 883.703 1.02207 -1.66773 0
M  V30 9266 C 884.083 2.04168 -0.536536 0
M  V30 9267 O 883.431 2.23761 0.462956 0
M  V30 9268 C 883.641 1.67569 -3.0614 0
M  V30 9269 C 884.989 2.18599 -3.64005 0
M  V30 9270 O 886.013 1.7755 -3.08795 0
M  V30 9271 O 884.872 2.93903 -4.60742 0
M  V30 9272 H 881.966 0.474314 -0.677462 0
M  V30 9273 H 884.512 0.265026 -1.67618 0
M  V30 9274 H 883.284 0.937029 -3.79915 0
M  V30 9275 H 882.907 2.49951 -3.09209 0
M  V30 9276 N 883.904 1.48273 0.534124 0
M  V30 9277 C 885.32 1.34302 0.862272 0
M  V30 9278 C 885.52 0.350902 1.98421 0
M  V30 9279 O 884.576 -0.229364 2.51456 0
M  V30 9280 C 885.889 2.74227 1.23371 0
M  V30 9281 C 887.437 2.82684 1.34383 0
M  V30 9282 C 887.912 4.23301 1.74871 0
M  V30 9283 N 889.403 4.25954 1.81981 0
M  V30 9284 C 890.138 5.31693 2.14686 0
M  V30 9285 N 889.634 6.47714 2.45844 0
M  V30 9286 N 891.427 5.19084 2.15657 0
M  V30 9287 H 883.578 2.11397 -0.206215 0
M  V30 9288 H 885.841 0.947537 -0.0296116 0
M  V30 9289 H 885.547 3.48368 0.482967 0
M  V30 9290 H 885.421 3.07485 2.18478 0
M  V30 9291 H 887.808 2.08801 2.08534 0
M  V30 9292 H 887.889 2.5305 0.374063 0
M  V30 9293 H 887.533 4.97699 1.01282 0
M  V30 9294 H 887.463 4.50376 2.7289 0
M  V30 9295 H 889.954 3.42266 1.60196 0
M  V30 9296 H 890.267 7.2414 2.69892 0
M  V30 9297 H 888.612 6.50995 2.43372 0
M  V30 9298 H 891.803 4.27463 1.9077 0
M  V30 9299 H 891.976 6.01592 2.40813 0
M  V30 9300 N 885.382 -0.782676 1.36792 0
M  V30 9301 C 886.659 -1.52939 1.21939 0
M  V30 9302 C 887.039 -2.10228 -0.191639 0
M  V30 9303 O 886.387 -1.94574 -1.19805 0
M  V30 9304 C 886.597 -2.61898 2.30674 0
M  V30 9305 C 887.945 -3.29598 2.67676 0
M  V30 9306 O 888.969 -2.72186 2.29768 0
M  V30 9307 O 887.828 -4.3337 3.32946 0
M  V30 9308 H 884.922 -0.676856 0.47518 0
M  V30 9309 H 887.468 -0.82058 1.48542 0
M  V30 9310 H 886.24 -2.17607 3.25212 0
M  V30 9311 H 885.863 -3.40391 2.05475 0
M  V30 9312 N 886.86 -1.21182 -1.00761 0
M  V30 9313 C 888.108 -1.02543 -1.74153 0
M  V30 9314 C 888.429 0.442372 -1.89916 0
M  V30 9315 O 887.699 1.31927 -1.44818 0
M  V30 9316 H 886.279 -0.37644 -0.645214 0
M  V30 9317 H 888.941 -1.52446 -1.21434 0
M  V30 9318 H 888.037 -1.49122 -2.7417 0
M  V30 9319 N 888.338 1.20213 -1.01915 0
M  V30 9320 C 889.285 2.2309 -0.591571 0
M  V30 9321 C 890.255 1.61465 0.389649 0
M  V30 9322 O 891.44 1.88606 0.288511 0
M  V30 9323 C 888.58 3.45045 0.0614028 0
M  V30 9324 C 887.693 4.21091 -0.964688 0
M  V30 9325 C 886.828 5.30448 -0.282499 0
M  V30 9326 C 885.867 5.98241 -1.29517 0
M  V30 9327 N 885.004 6.99182 -0.639472 0
M  V30 9328 H 889.844 2.59023 -1.47347 0
M  V30 9329 H 887.381 1.27274 -0.737547 0
M  V30 9330 H 889.339 4.14688 0.45714 0
M  V30 9331 H 887.969 3.09797 0.906937 0
M  V30 9332 H 887.021 3.50489 -1.47857 0
M  V30 9333 H 888.333 4.67662 -1.73475 0
M  V30 9334 H 887.487 6.06466 0.168603 0
M  V30 9335 H 886.226 4.84922 0.519843 0
M  V30 9336 H 885.231 5.20982 -1.75663 0
M  V30 9337 H 886.456 6.45853 -2.09884 0
M  V30 9338 H 884.402 6.55844 0.142955 0
M  V30 9339 H 884.319 7.43893 -1.34756 0
M  V30 9340 H 885.587 7.79212 -0.212047 0
M  V30 9341 N 889.816 0.795718 1.36037 0
M  V30 9342 C 891.046 0.382597 2.03026 0
M  V30 9343 C 891.454 -1.00779 1.60126 0
M  V30 9344 O 890.797 -1.65884 0.78919 0
M  V30 9345 C 890.859 0.374145 3.57548 0
M  V30 9346 C 890.523 1.71318 4.23673 0
M  V30 9347 C 891.52 2.6697 4.4612 0
M  V30 9348 C 889.205 1.99421 4.61017 0
M  V30 9349 C 891.199 3.88916 5.04998 0
M  V30 9350 C 888.886 3.21632 5.19611 0
M  V30 9351 C 889.884 4.16198 5.41542 0
M  V30 9352 O 889.572 5.36254 5.98905 0
M  V30 9353 H 889.304 0.154944 0.658003 0
M  V30 9354 H 891.858 1.07756 1.74865 0
M  V30 9355 H 890.088 -0.377349 3.84854 0
M  V30 9356 H 891.777 -0.01517 4.05897 0
M  V30 9357 H 892.543 2.46548 4.17659 0
M  V30 9358 H 888.422 1.2663 4.43267 0
M  V30 9359 H 891.966 4.6274 5.22032 0
M  V30 9360 H 887.863 3.4193 5.47498 0
M  V30 9361 H 888.631 5.37403 6.17366 0
M  V30 9362 N 891.294 -1.47756 0.548274 0
M  V30 9363 C 892.542 -2.02089 0.0208542 0
M  V30 9364 C 892.863 -1.42589 -1.33017 0
M  V30 9365 O 892.133 -0.597825 -1.86555 0
M  V30 9366 H 890.713 -0.746985 0.00472023 0
M  V30 9367 H 893.375 -1.81262 0.716257 0
M  V30 9368 H 892.471 -3.12012 -0.0739016 0
M  V30 9369 N 892.772 -0.284283 -1.55015 0
M  V30 9370 C 894.019 0.329864 -1.99795 0
M  V30 9371 C 894.347 1.55171 -1.1727 0
M  V30 9372 O 893.602 1.94312 -0.232667 0
M  V30 9373 C 893.901 0.747219 -3.49502 0
M  V30 9374 C 893.567 -0.37101 -4.49371 0
M  V30 9375 C 892.229 -0.678034 -4.76399 0
M  V30 9376 C 894.581 -1.12406 -5.08935 0
M  V30 9377 C 891.909 -1.74152 -5.60257 0
M  V30 9378 C 894.261 -2.17734 -5.93948 0
M  V30 9379 C 892.925 -2.49061 -6.19294 0
M  V30 9380 H 892.195 0.120706 -0.731103 0
M  V30 9381 H 894.842 -0.399904 -1.87278 0
M  V30 9382 H 893.147 1.55681 -3.59542 0
M  V30 9383 H 894.844 1.2333 -3.81563 0
M  V30 9384 H 891.434 -0.1216 -4.28427 0
M  V30 9385 H 895.618 -0.900119 -4.88069 0
M  V30 9386 H 890.874 -1.98915 -5.78137 0
M  V30 9387 H 895.048 -2.76553 -6.39133 0
M  V30 9388 H 892.675 -3.31602 -6.84064 0
M  V30 9389 N 894.251 1.57596 -0.0117121 0
M  V30 9390 C 895.481 1.95077 0.680346 0
M  V30 9391 C 895.889 0.885793 1.67184 0
M  V30 9392 O 895.232 -0.142723 1.83145 0
M  V30 9393 C 895.294 3.28611 1.45791 0
M  V30 9394 C 894.958 4.52682 0.626706 0
M  V30 9395 C 895.955 5.19821 -0.0906223 0
M  V30 9396 C 893.64 4.99064 0.569229 0
M  V30 9397 C 895.634 6.31649 -0.854289 0
M  V30 9398 C 893.321 6.10779 -0.198155 0
M  V30 9399 C 894.319 6.76929 -0.908636 0
M  V30 9400 O 894.007 7.86501 -1.66348 0
M  V30 9401 H 893.739 0.647663 0.193672 0
M  V30 9402 H 896.293 2.05305 -0.0624969 0
M  V30 9403 H 894.523 3.14824 2.2455 0
M  V30 9404 H 896.212 3.51119 2.03642 0
M  V30 9405 H 896.978 4.84968 -0.0554421 0
M  V30 9406 H 892.857 4.47393 1.11178 0
M  V30 9407 H 896.401 6.83215 -1.40937 0
M  V30 9408 H 892.298 6.45072 -0.235114 0
M  V30 9409 H 893.066 8.03078 -1.58141 0
M  V30 9410 N 895.729 -0.261212 1.5542 0
M  V30 9411 C 896.957 -1.00916 1.8062 0
M  V30 9412 C 897.372 -1.79494 0.585444 0
M  V30 9413 O 896.729 -1.76974 -0.445702 0
M  V30 9414 C 896.78 -1.95841 3.03856 0
M  V30 9415 O 896.501 -1.20445 4.21218 0
M  V30 9416 C 898.002 -2.82352 3.41749 0
M  V30 9417 H 895.222 -0.297596 0.601397 0
M  V30 9418 H 897.766 -0.288427 2.02456 0
M  V30 9419 H 895.921 -2.63361 2.84112 0
M  V30 9420 H 896.335 -1.84528 4.90968 0
M  V30 9421 H 897.809 -3.44733 4.31118 0
M  V30 9422 H 898.286 -3.5273 2.61683 0
M  V30 9423 H 898.892 -2.20306 3.63793 0
M  V30 9424 N 897.207 -1.48554 -0.526253 0
M  V30 9425 C 898.157 -1.59753 -1.62674 0
M  V30 9426 C 899.141 -0.454452 -1.54349 0
M  V30 9427 O 900.333 -0.706091 -1.62306 0
M  V30 9428 C 897.462 -1.64388 -3.01383 0
M  V30 9429 C 896.548 -2.84188 -3.14798 0
M  V30 9430 N 896.939 -4.08564 -2.98176 0
M  V30 9431 C 895.237 -2.81599 -3.45859 0
M  V30 9432 C 895.938 -4.88961 -3.15106 0
M  V30 9433 N 894.914 -4.21848 -3.42849 0
M  V30 9434 H 898.716 -2.5366 -1.48438 0
M  V30 9435 H 896.23 -1.44977 -0.731801 0
M  V30 9436 H 898.227 -1.70505 -3.80439 0
M  V30 9437 H 896.887 -0.716006 -3.16707 0
M  V30 9438 H 897.898 -4.38943 -2.74862 0
M  V30 9439 H 894.575 -1.98083 -3.67518 0
M  V30 9440 H 895.965 -5.97683 -3.0696 0
M  V30 9441 N 898.685 0.775411 -1.37205 0
M  V30 9442 C 899.931 1.53611 -1.32407 0
M  V30 9443 C 900.264 1.9398 0.0924103 0
M  V30 9444 O 899.539 1.63791 1.04893 0
M  V30 9445 C 899.822 2.80367 -2.25979 0
M  V30 9446 C 899.675 2.46275 -3.76389 0
M  V30 9447 C 900.994 3.82277 -2.18064 0
M  V30 9448 H 898.113 0.557278 -0.482297 0
M  V30 9449 H 900.755 0.889826 -1.67875 0
M  V30 9450 H 898.905 3.35515 -1.95862 0
M  V30 9451 H 900.577 1.9707 -4.17087 0
M  V30 9452 H 898.82 1.79023 -3.95137 0
M  V30 9453 H 899.491 3.36868 -4.37291 0
M  V30 9454 H 901.967 3.36613 -2.44604 0
M  V30 9455 H 900.843 4.68696 -2.85684 0
M  V30 9456 H 901.104 4.26272 -1.17239 0
M  V30 9457 N 900.163 1.21714 1.00117 0
M  V30 9458 C 901.41 1.0367 1.73951 0
M  V30 9459 C 901.738 -0.429289 1.89703 0
M  V30 9460 O 900.993 -1.33475 1.43119 0
M  V30 9461 C 901.292 1.68345 3.15269 0
M  V30 9462 C 900.958 3.18214 3.19454 0
M  V30 9463 C 899.62 3.59109 3.20303 0
M  V30 9464 C 901.972 4.14179 3.16394 0
M  V30 9465 C 899.3 4.94467 3.15783 0
M  V30 9466 C 901.652 5.49502 3.13416 0
M  V30 9467 C 900.316 5.8979 3.12577 0
M  V30 9468 H 899.586 0.379355 0.63653 0
M  V30 9469 H 902.233 1.51361 1.17312 0
M  V30 9470 H 900.538 1.12957 3.75164 0
M  V30 9471 H 902.235 1.51882 3.71124 0
M  V30 9472 H 898.825 2.85646 3.19538 0
M  V30 9473 H 903.009 3.83607 3.14895 0
M  V30 9474 H 898.265 5.24923 3.13473 0
M  V30 9475 H 902.439 6.23595 3.10003 0
M  V30 9476 H 900.066 6.94643 3.08829 0
M  V30 9477 N 901.641 -1.19671 1.02551 0
M  V30 9478 C 903.057 -1.41305 0.741963 0
M  V30 9479 C 903.257 -1.89865 -0.674807 0
M  V30 9480 O 902.313 -2.07323 -1.44129 0
M  V30 9481 C 903.626 -2.42706 1.77522 0
M  V30 9482 C 905.174 -2.56458 1.79438 0
M  V30 9483 C 905.649 -3.61111 2.81715 0
M  V30 9484 N 907.14 -3.68603 2.8051 0
M  V30 9485 C 907.875 -4.49262 3.56302 0
M  V30 9486 N 907.371 -5.33653 4.41799 0
M  V30 9487 N 909.164 -4.43879 3.44859 0
M  V30 9488 H 901.315 -0.8647 1.94002 0
M  V30 9489 H 903.578 -0.442206 0.838545 0
M  V30 9490 H 903.284 -2.14042 2.79068 0
M  V30 9491 H 903.158 -3.41831 1.59472 0
M  V30 9492 H 905.545 -2.84447 0.78573 0
M  V30 9493 H 905.626 -1.57499 2.01563 0
M  V30 9494 H 905.27 -3.33864 3.82749 0
M  V30 9495 H 905.2 -4.59713 2.56849 0
M  V30 9496 H 907.691 -3.08329 2.18498 0
M  V30 9497 H 908.004 -5.92308 4.96378 0
M  V30 9498 H 906.349 -5.33125 4.45873 0
M  V30 9499 H 909.54 -3.7699 2.77482 0
M  V30 9500 H 909.713 -5.06501 4.04179 0
M  V30 9501 N 903.119 -0.802921 -1.35613 0
M  V30 9502 C 904.049 -0.225131 -2.32412 0
M  V30 9503 C 905.03 0.647383 -1.57299 0
M  V30 9504 O 906.215 0.578414 -1.85386 0
M  V30 9505 C 903.345 0.630085 -3.41537 0
M  V30 9506 C 902.299 -0.143635 -4.27759 0
M  V30 9507 C 901.625 0.833046 -5.28171 0
M  V30 9508 C 902.925 -1.34054 -5.04804 0
M  V30 9509 H 904.619 -1.03385 -2.80984 0
M  V30 9510 H 902.165 -0.498593 -1.35093 0
M  V30 9511 H 904.118 1.04433 -4.08254 0
M  V30 9512 H 902.842 1.47165 -2.91565 0
M  V30 9513 H 901.501 -0.539015 -3.62616 0
M  V30 9514 H 901.149 1.67001 -4.74468 0
M  V30 9515 H 900.849 0.319697 -5.8673 0
M  V30 9516 H 902.373 1.24558 -5.97761 0
M  V30 9517 H 903.787 -1.00136 -5.64487 0
M  V30 9518 H 902.184 -1.78812 -5.72841 0
M  V30 9519 H 903.254 -2.12906 -4.35659 0
M  V30 9520 N 904.597 1.47463 -0.556102 0
M  V30 9521 C 905.544 2.29998 0.192213 0
M  V30 9522 C 906.514 1.38993 0.909403 0
M  V30 9523 O 907.699 1.67954 0.905316 0
M  V30 9524 C 904.839 3.22932 1.21692 0
M  V30 9525 C 903.952 4.29027 0.505908 0
M  V30 9526 C 903.087 5.09114 1.51581 0
M  V30 9527 C 902.126 6.06984 0.789714 0
M  V30 9528 N 901.263 6.80033 1.74639 0
M  V30 9529 H 906.103 2.93468 -0.517734 0
M  V30 9530 H 903.64 1.44654 -0.267147 0
M  V30 9531 H 905.598 3.75234 1.8236 0
M  V30 9532 H 904.228 2.61329 1.89491 0
M  V30 9533 H 903.28 3.7979 -0.215276 0
M  V30 9534 H 904.592 4.9876 -0.062958 0
M  V30 9535 H 903.746 5.6556 2.19606 0
M  V30 9536 H 902.485 4.3928 2.11859 0
M  V30 9537 H 901.49 5.49717 0.0955382 0
M  V30 9538 H 902.715 6.78827 0.192688 0
M  V30 9539 H 900.661 6.12931 2.33777 0
M  V30 9540 H 900.578 7.45933 1.22965 0
M  V30 9541 H 901.846 7.41054 2.41782 0
M  V30 9542 N 906.075 0.2925 1.54862 0
M  V30 9543 C 907.022 -0.587365 2.23201 0
M  V30 9544 C 907.992 -1.13623 1.21157 0
M  V30 9545 O 909.177 -1.18233 1.49752 0
M  V30 9546 C 906.317 -1.75745 2.96998 0
M  V30 9547 C 905.43 -1.24078 4.13798 0
M  V30 9548 C 904.565 -2.37405 4.75197 0
M  V30 9549 C 903.604 -1.82829 5.84157 0
M  V30 9550 N 902.741 -2.89696 6.39547 0
M  V30 9551 H 907.581 0.00202207 2.98 0
M  V30 9552 H 905.118 0.012766 1.47094 0
M  V30 9553 H 907.076 -2.44549 3.38011 0
M  V30 9554 H 905.706 -2.3186 2.24591 0
M  V30 9555 H 904.758 -0.445268 3.77785 0
M  V30 9556 H 906.07 -0.801186 4.92324 0
M  V30 9557 H 905.224 -3.14172 5.19019 0
M  V30 9558 H 903.963 -2.84688 3.95985 0
M  V30 9559 H 902.968 -1.04548 5.39768 0
M  V30 9560 H 904.193 -1.36461 6.65248 0
M  V30 9561 H 902.139 -3.36328 5.63222 0
M  V30 9562 H 902.056 -2.50206 7.13395 0
M  V30 9563 H 903.324 -3.66386 6.88027 0
M  V30 9564 N 907.553 -1.57587 0.0200696 0
M  V30 9565 C 908.799 -1.92539 -0.655764 0
M  V30 9566 C 909.154 -0.896187 -1.70253 0
M  V30 9567 O 908.447 0.0890022 -1.91393 0
M  V30 9568 C 908.641 -3.32002 -1.32323 0
M  V30 9569 C 908.47 -4.48393 -0.342632 0
M  V30 9570 C 907.24 -5.05271 0.0542423 0
M  V30 9571 C 909.438 -5.12747 0.399388 0
M  V30 9572 N 907.42 -6.05181 1.03095 0
M  V30 9573 C 908.791 -6.07674 1.23014 0
M  V30 9574 C 910.846 -4.95761 0.461065 0
M  V30 9575 C 909.549 -6.87442 2.11698 0
M  V30 9576 C 911.575 -5.7613 1.33521 0
M  V30 9577 C 910.937 -6.70666 2.15376 0
M  V30 9578 H 907.036 -0.75256 -0.212549 0
M  V30 9579 H 909.62 -1.94514 0.0851247 0
M  V30 9580 H 907.791 -3.30863 -2.0343 0
M  V30 9581 H 909.523 -3.54327 -1.95537 0
M  V30 9582 H 906.278 -4.72529 -0.318327 0
M  V30 9583 H 906.702 -6.59824 1.51528 0
M  V30 9584 H 911.344 -4.22506 -0.15752 0
M  V30 9585 H 909.062 -7.60008 2.74616 0
M  V30 9586 H 912.648 -5.65023 1.38711 0
M  V30 9587 H 911.528 -7.31772 2.81922 0
M  V30 9588 N 909.032 0.252966 -1.55557 0
M  V30 9589 C 910.281 0.979736 -1.76307 0
M  V30 9590 C 910.594 1.86714 -0.582871 0
M  V30 9591 O 911.8 2.6302 -0.673247 0
M  V30 9592 C 910.256 1.79205 -3.12112 0
M  V30 9593 C 909.864 0.952333 -4.37761 0
M  V30 9594 C 911.608 2.51191 -3.42203 0
M  V30 9595 C 909.515 1.76018 -5.64599 0
M  V30 9596 H 908.445 0.369538 -0.657235 0
M  V30 9597 H 911.096 0.234619 -1.81994 0
M  V30 9598 H 909.478 2.57888 -3.00515 0
M  V30 9599 H 910.652 0.208251 -4.60329 0
M  V30 9600 H 908.967 0.346082 -4.14959 0
M  V30 9601 H 911.564 3.12074 -4.34182 0
M  V30 9602 H 911.907 3.22499 -2.63249 0
M  V30 9603 H 912.44 1.79523 -3.54988 0
M  V30 9604 H 909.179 1.09095 -6.46358 0
M  V30 9605 H 908.699 2.4797 -5.46142 0
M  V30 9606 H 910.378 2.32884 -6.03634 0
M  V30 9607 N 910.51 1.48831 0.518367 0
M  V30 9608 C 911.442 1.60317 1.63802 0
M  V30 9609 C 912.455 0.486771 1.55352 0
M  V30 9610 O 913.644 0.758111 1.61601 0
M  V30 9611 C 910.744 1.52771 3.02513 0
M  V30 9612 C 909.917 2.79649 3.36326 0
M  V30 9613 C 908.976 2.65396 4.54369 0
M  V30 9614 O 908.002 3.39304 4.57013 0
M  V30 9615 N 909.204 1.75784 5.53245 0
M  V30 9616 H 911.969 2.56878 1.54383 0
M  V30 9617 H 909.53 1.45701 0.705889 0
M  V30 9618 H 911.522 1.40914 3.79375 0
M  V30 9619 H 910.092 0.641381 3.05949 0
M  V30 9620 H 909.312 3.05985 2.48529 0
M  V30 9621 H 910.6 3.63799 3.55707 0
M  V30 9622 H 909.998 1.14961 5.53896 0
M  V30 9623 H 908.555 1.69859 6.29278 0
M  V30 9624 N 911.988 -0.768124 1.37614 0
M  V30 9625 C 912.935 -1.88151 1.33671 0
M  V30 9626 C 913.905 -1.64871 0.201645 0
M  V30 9627 O 915.09 -1.86739 0.391582 0
M  V30 9628 C 912.23 -3.25264 1.15314 0
M  V30 9629 C 911.343 -3.60473 2.38082 0
M  V30 9630 C 910.478 -4.86814 2.12569 0
M  V30 9631 C 909.517 -5.14765 3.31184 0
M  V30 9632 N 908.654 -6.32295 3.052 0
M  V30 9633 H 913.494 -1.90857 2.28862 0
M  V30 9634 H 911.031 -0.933048 1.13722 0
M  V30 9635 H 912.989 -4.04364 1.02691 0
M  V30 9636 H 911.619 -3.21924 0.237689 0
M  V30 9637 H 910.671 -2.7633 2.61431 0
M  V30 9638 H 911.983 -3.77065 3.26532 0
M  V30 9639 H 911.137 -5.73826 1.96999 0
M  V30 9640 H 909.876 -4.72333 1.21462 0
M  V30 9641 H 908.881 -4.26227 3.4729 0
M  V30 9642 H 910.106 -5.31153 4.23147 0
M  V30 9643 H 908.052 -6.19166 2.16726 0
M  V30 9644 H 907.969 -6.4932 3.87195 0
M  V30 9645 H 909.237 -7.22234 2.93254 0
M  V30 9646 N 913.466 -1.22244 -0.994698 0
M  V30 9647 C 914.712 -1.04746 -1.73655 0
M  V30 9648 C 915.045 0.41668 -1.89677 0
M  V30 9649 O 914.32 1.30897 -1.43862 0
M  V30 9650 C 914.603 -1.75716 -3.14318 0
M  V30 9651 C 914.456 -3.29714 -3.05955 0
M  V30 9652 C 915.775 -1.50809 -4.13455 0
M  V30 9653 H 912.894 -0.381921 -0.630322 0
M  V30 9654 H 915.536 -1.50559 -1.15897 0
M  V30 9655 H 913.686 -1.3677 -3.63629 0
M  V30 9656 H 915.358 -3.78093 -2.64279 0
M  V30 9657 H 913.601 -3.59484 -2.42804 0
M  V30 9658 H 914.272 -3.74547 -4.05485 0
M  V30 9659 H 916.748 -1.84636 -3.72892 0
M  V30 9660 H 915.624 -2.02964 -5.09997 0
M  V30 9661 H 915.885 -0.440292 -4.39902 0
M  V30 9662 N 914.944 1.19125 -1.03184 0
M  V30 9663 C 916.193 1.8821 -0.725264 0
M  V30 9664 C 916.506 1.80674 0.749411 0
M  V30 9665 O 917.712 2.45037 1.16915 0
M  V30 9666 C 916.168 3.37607 -1.24697 0
M  V30 9667 C 915.776 3.53693 -2.74964 0
M  V30 9668 C 917.52 4.12149 -1.01652 0
M  V30 9669 C 915.427 4.97001 -3.20538 0
M  V30 9670 H 914.357 0.704916 -0.267599 0
M  V30 9671 H 917.008 1.34663 -1.24652 0
M  V30 9672 H 915.39 3.90569 -0.653614 0
M  V30 9673 H 916.564 3.11046 -3.39981 0
M  V30 9674 H 914.879 2.92544 -2.96322 0
M  V30 9675 H 917.476 5.17837 -1.33226 0
M  V30 9676 H 917.819 4.16274 0.0465712 0
M  V30 9677 H 918.352 3.65334 -1.57403 0
M  V30 9678 H 915.091 4.9804 -4.26189 0
M  V30 9679 H 914.611 5.40398 -2.60251 0
M  V30 9680 H 916.29 5.65669 -3.14049 0
M  V30 9681 N 916.422 0.810101 1.35185 0
M  V30 9682 C 917.699 0.315235 1.93043 0
M  V30 9683 C 918.079 -1.19567 1.73974 0
M  V30 9684 O 917.427 -1.99682 1.11083 0
M  V30 9685 C 917.637 0.730492 3.41269 0
M  V30 9686 C 918.985 0.721985 4.18417 0
M  V30 9687 O 920.009 0.672258 3.49799 0
M  V30 9688 O 918.868 0.783535 5.40854 0
M  V30 9689 H 915.962 0.0832774 0.822796 0
M  V30 9690 H 918.508 0.894034 1.4424 0
M  V30 9691 H 917.28 1.77169 3.48894 0
M  V30 9692 H 916.903 0.12669 3.97398 0
M  V30 9693 N 917.9 -1.47166 0.563914 0
M  V30 9694 C 919.316 -1.58018 0.224173 0
M  V30 9695 C 919.516 -1.56163 -1.27339 0
M  V30 9696 O 918.572 -1.4686 -2.05398 0
M  V30 9697 C 919.885 -2.88236 0.856762 0
M  V30 9698 C 921.433 -3.01833 0.82861 0
M  V30 9699 C 921.908 -4.34761 1.44039 0
M  V30 9700 N 923.399 -4.41413 1.40388 0
M  V30 9701 C 924.134 -5.42845 1.84681 0
M  V30 9702 N 923.63 -6.51052 2.3686 0
M  V30 9703 N 925.423 -5.33931 1.75711 0
M  V30 9704 H 917.574 -1.46615 1.53681 0
M  V30 9705 H 919.837 -0.698195 0.64127 0
M  V30 9706 H 919.543 -2.95349 1.90949 0
M  V30 9707 H 919.417 -3.75537 0.353766 0
M  V30 9708 H 921.804 -2.94312 -0.215451 0
M  V30 9709 H 921.885 -2.16056 1.36943 0
M  V30 9710 H 921.529 -4.43037 2.48355 0
M  V30 9711 H 921.459 -5.1928 0.874953 0
M  V30 9712 H 923.95 -3.63811 1.02227 0
M  V30 9713 H 924.263 -7.24633 2.68564 0
M  V30 9714 H 922.608 -6.51924 2.40875 0
M  V30 9715 H 925.799 -4.48295 1.34718 0
M  V30 9716 H 925.972 -6.12841 2.10547 0
M  V30 9717 N 919.378 -0.300708 -1.54705 0
M  V30 9718 C 920.308 0.568675 -2.26469 0
M  V30 9719 C 921.289 1.13817 -1.26411 0
M  V30 9720 O 922.474 1.16756 -1.55183 0
M  V30 9721 C 919.604 1.74077 -3.00524 0
M  V30 9722 C 918.558 1.30165 -4.07727 0
M  V30 9723 C 917.884 2.55888 -4.69495 0
M  V30 9724 C 919.184 0.433106 -5.20501 0
M  V30 9725 H 920.878 -0.0298851 -2.99385 0
M  V30 9726 H 918.424 -0.0158135 -1.43991 0
M  V30 9727 H 920.377 2.35506 -3.49449 0
M  V30 9728 H 919.101 2.36556 -2.25186 0
M  V30 9729 H 917.76 0.710414 -3.59651 0
M  V30 9730 H 917.408 3.16681 -3.90797 0
M  V30 9731 H 917.108 2.27207 -5.41895 0
M  V30 9732 H 918.632 3.18121 -5.21183 0
M  V30 9733 H 920.046 0.95307 -5.65322 0
M  V30 9734 H 918.443 0.240085 -5.9962 0
M  V30 9735 H 919.513 -0.541866 -4.81863 0
M  V30 9736 N 920.856 1.57574 -0.0284266 0
M  V30 9737 C 922.104 1.91393 0.649079 0
M  V30 9738 C 922.425 0.905368 1.72708 0
M  V30 9739 O 921.695 -0.0532107 1.95828 0
M  V30 9740 H 920.275 0.70646 0.24274 0
M  V30 9741 H 922.937 1.94752 -0.076066 0
M  V30 9742 H 922.033 2.91988 1.10226 0
M  V30 9743 N 922.334 -0.244713 1.55689 0
M  V30 9744 C 923.559 -0.994157 1.8202 0
M  V30 9745 C 923.984 -1.78079 0.60577 0
M  V30 9746 O 923.342 -1.75748 -0.445221 0
M  V30 9747 C 923.39 -1.90599 3.06111 0
M  V30 9748 O 922.494 -2.99804 2.8318 0
M  V30 9749 H 921.835 -0.282767 0.600782 0
M  V30 9750 H 924.365 -0.26504 2.02876 0
M  V30 9751 H 924.375 -2.32023 3.35603 0
M  V30 9752 H 923.05 -1.32763 3.9414 0
M  V30 9753 H 921.627 -2.62493 2.64862 0
M  V30 9754 O 923.851 -1.56712 -0.390333 0
M  V30 9755 H 924.542 -1.63274 -1.04218 0
M  V30 END ATOM
M  V30 BEGIN BOND
M  V30 END BOND
M  V30 END CTAB
M  END
$$$$
