drugbank_drug|DB11945 Heavy chain
 OpenBabel12092119133D

  0  0  0     0  0            999 V3000
M  V30 BEGIN CTAB
M  V30 COUNTS 6882 6973 0 0 0
M  V30 BEGIN ATOM
M  V30 1 H -0.908 1.98254 -0.117106 0
M  V30 2 N 0 1.576 0 0
M  V30 3 C 0.91 2.11853 1.00774 0
M  V30 4 C 1.926 1.06379 1.37693 0
M  V30 5 O 3.102 1.3828 1.46426 0
M  V30 6 C 0.167 2.61108 2.28087 0
M  V30 7 C -0.772 3.81183 1.9748 0
M  V30 8 C -1.539 4.28079 3.18723 0
M  V30 9 O -1.316 3.74307 4.30407 0
M  V30 10 O -2.382 5.20234 3.02721 0
M  V30 11 H 1.444 2.98177 0.576547 0
M  V30 12 H -0.971 1.47789 0.218828 0
M  V30 13 H 0.911 2.92987 3.0288 0
M  V30 14 H -0.414 1.77881 2.70444 0
M  V30 15 H -1.507 3.54277 1.20162 0
M  V30 16 H -0.174 4.65482 1.5996 0
M  V30 17 N 1.4781 -0.272755 1.55222 0
M  V30 18 C 2.7241 -1.00581 1.761 0
M  V30 19 C 3.0571 -1.85932 0.560625 0
M  V30 20 O 2.3321 -1.89416 -0.441801 0
M  V30 21 C 2.6151 -1.88816 3.06628 0
M  V30 22 C 2.4681 -1.06457 4.37021 0
M  V30 23 C 3.7871 -2.8752 3.33197 0
M  V30 24 H 0.9061 -0.364244 0.640699 0
M  V30 25 H 3.5481 -0.278189 1.87952 0
M  V30 26 H 1.6981 -2.50856 2.96654 0
M  V30 27 H 3.3701 -0.464863 4.58952 0
M  V30 28 H 1.6131 -0.368043 4.32236 0
M  V30 29 H 2.2841 -1.71514 5.24678 0
M  V30 30 H 4.7601 -2.35615 3.42965 0
M  V30 31 H 3.6361 -3.46399 4.25792 0
M  V30 32 H 3.8971 -3.62657 2.52849 0
M  V30 33 N 2.9562 -1.48159 -0.537278 0
M  V30 34 C 3.8882 -1.58218 -1.65831 0
M  V30 35 C 4.9012 -0.466948 -1.5596 0
M  V30 36 O 6.0902 -0.73747 -1.62553 0
M  V30 37 C 3.1902 -1.48906 -3.04434 0
M  V30 38 C 2.3632 -2.75343 -3.3986 0
M  V30 39 C 1.4222 -2.59588 -4.57712 0
M  V30 40 O 0.4482 -3.33457 -4.61297 0
M  V30 41 N 1.6502 -1.68724 -5.55439 0
M  V30 42 H 4.4152 -2.54891 -1.57641 0
M  V30 43 H 1.9762 -1.4479 -0.724386 0
M  V30 44 H 3.9682 -1.36072 -3.81139 0
M  V30 45 H 2.5382 -0.602368 -3.06741 0
M  V30 46 H 1.7582 -3.02795 -2.52406 0
M  V30 47 H 3.0462 -3.5924 -3.60311 0
M  V30 48 H 2.4442 -1.07898 -5.55315 0
M  V30 49 H 1.0012 -1.61832 -6.3139 0
M  V30 50 N 4.4343 0.785586 -1.36625 0
M  V30 51 C 5.3643 1.91259 -1.33949 0
M  V30 52 C 6.3453 1.68795 -0.210325 0
M  V30 53 O 7.5303 1.89854 -0.408561 0
M  V30 54 C 4.6603 3.28339 -1.13186 0
M  V30 55 C 3.6143 3.65335 -2.22967 0
M  V30 56 C 2.9403 5.00806 -1.87342 0
M  V30 57 C 4.2403 3.7352 -3.65075 0
M  V30 58 H 5.9343 1.93755 -2.28253 0
M  V30 59 H 3.4803 0.930788 -1.09874 0
M  V30 60 H 5.4333 4.06804 -1.09948 0
M  V30 61 H 4.1573 3.2624 -0.153332 0
M  V30 62 H 2.8163 2.89169 -2.25337 0
M  V30 63 H 2.4643 4.95233 -0.880545 0
M  V30 64 H 2.1643 5.26529 -2.60846 0
M  V30 65 H 3.6883 5.81687 -1.85667 0
M  V30 66 H 5.1023 4.42168 -3.64911 0
M  V30 67 H 3.4993 4.10731 -4.37516 0
M  V30 68 H 4.5693 2.74527 -3.99703 0
M  V30 69 N 5.9124 1.20967 1.01018 0
M  V30 70 C 6.8424 0.988272 2.11555 0
M  V30 71 C 7.8234 -0.0849778 1.69888 0
M  V30 72 O 9.0084 0.0738202 1.9406 0
M  V30 73 C 6.1384 0.546528 3.42973 0
M  V30 74 C 5.0924 1.56375 3.9841 0
M  V30 75 C 4.4184 0.97842 5.25672 0
M  V30 76 C 5.7184 2.94922 4.31066 0
M  V30 77 H 7.4124 1.91276 2.30334 0
M  V30 78 H 4.9584 0.921073 1.1069 0
M  V30 79 H 6.9114 0.378839 4.19694 0
M  V30 80 H 5.6354 -0.413598 3.23971 0
M  V30 81 H 4.2944 1.71891 3.23804 0
M  V30 82 H 3.9424 0.0101688 5.02999 0
M  V30 83 H 3.6424 1.65784 5.63728 0
M  V30 84 H 5.1664 0.821939 6.05043 0
M  V30 85 H 6.5804 2.8288 4.9865 0
M  V30 86 H 4.9774 3.5983 4.80253 0
M  V30 87 H 6.0474 3.4616 3.39561 0
M  V30 88 N 7.3905 -1.2043 1.01659 0
M  V30 89 C 8.3005 -2.2689 0.596484 0
M  V30 90 C 9.3165 -1.70107 -0.36599 0
M  V30 91 O 10.4925 -2.00117 -0.226942 0
M  V30 92 C 7.5575 -3.4665 -0.0586659 0
M  V30 93 C 6.6185 -4.18662 0.949751 0
M  V30 94 C 5.8515 -5.32705 0.32577 0
M  V30 95 O 6.0745 -5.63656 -0.874509 0
M  V30 96 O 5.0085 -5.92803 1.04249 0
M  V30 97 H 8.8345 -2.65041 1.4828 0
M  V30 98 H 6.4195 -1.27048 0.786082 0
M  V30 99 H 8.3015 -4.19256 -0.424564 0
M  V30 100 H 6.9765 -3.10375 -0.91918 0
M  V30 101 H 5.8835 -3.48229 1.36702 0
M  V30 102 H 7.2165 -4.58878 1.78023 0
M  V30 103 N 8.8686 -0.792821 -1.36206 0
M  V30 104 C 10.0936 -0.377701 -2.03932 0
M  V30 105 C 10.5186 0.998947 -1.59382 0
M  V30 106 O 9.8766 1.64421 -0.763903 0
M  V30 107 C 9.9246 -0.453635 -3.57735 0
M  V30 108 O 9.0286 0.538151 -4.08874 0
M  V30 109 H 8.3696 -0.159855 -0.644471 0
M  V30 110 H 10.8996 -1.07488 -1.7409 0
M  V30 111 H 10.9096 -0.318464 -4.06755 0
M  V30 112 H 9.5846 -1.45784 -3.89512 0
M  V30 113 H 8.1616 0.364359 -3.71116 0
M  V30 114 N 10.3467 1.47872 -0.545128 0
M  V30 115 C 11.5947 2.02093 -0.016553 0
M  V30 116 C 11.9157 1.42305 1.3332 0
M  V30 117 O 11.1857 0.593853 1.86682 0
M  V30 118 H 9.7657 0.746993 -0.00313038 0
M  V30 119 H 12.4277 1.81414 -0.712397 0
M  V30 120 H 11.5237 3.11996 0.0805422 0
M  V30 121 N 11.8248 0.280983 1.55075 0
M  V30 122 C 13.0728 -0.333455 1.9933 0
M  V30 123 C 13.3938 -1.55937 1.17085 0
M  V30 124 O 12.6638 -1.94143 0.261805 0
M  V30 125 H 11.2438 -0.126197 0.736263 0
M  V30 126 H 13.9058 0.387678 1.91005 0
M  V30 127 H 13.0018 -0.619292 3.05894 0
M  V30 128 N 13.3029 -1.57598 0.00835791 0
M  V30 129 C 14.5509 -1.90551 -0.6734 0
M  V30 130 C 14.8719 -0.883301 -1.73847 0
M  V30 131 O 14.1419 0.0781442 -1.95744 0
M  V30 132 H 12.7219 -0.703312 -0.251717 0
M  V30 133 H 15.3839 -1.94833 0.0512592 0
M  V30 134 H 14.4799 -2.9056 -1.13935 0
M  V30 135 N 14.781 0.264519 -1.55364 0
M  V30 136 C 15.711 1.33121 -1.91836 0
M  V30 137 C 16.692 1.51101 -0.781192 0
M  V30 138 O 17.877 1.64003 -1.04003 0
M  V30 139 C 15.007 2.68921 -2.19769 0
M  V30 140 C 13.961 2.65661 -3.35571 0
M  V30 141 C 13.287 4.05093 -3.49004 0
M  V30 142 C 14.587 2.24187 -4.71739 0
M  V30 143 H 16.281 1.02844 -2.81182 0
M  V30 144 H 13.827 0.493286 -1.35287 0
M  V30 145 H 15.78 3.43663 -2.43872 0
M  V30 146 H 14.504 3.00799 -1.27231 0
M  V30 147 H 13.163 1.93377 -3.1145 0
M  V30 148 H 12.811 4.34206 -2.53917 0
M  V30 149 H 12.511 4.03804 -4.26868 0
M  V30 150 H 14.035 4.81561 -3.75408 0
M  V30 151 H 15.449 2.88654 -4.9533 0
M  V30 152 H 13.846 2.34044 -5.52579 0
M  V30 153 H 14.916 1.19327 -4.69988 0
M  V30 154 N 16.2591 1.48442 0.529413 0
M  V30 155 C 17.5051 1.5672 1.28711 0
M  V30 156 C 17.8381 0.2406 1.92704 0
M  V30 157 O 17.1131 -0.753454 1.79313 0
M  V30 158 C 17.3961 2.70587 2.37603 0
M  V30 159 C 17.2491 4.12953 1.78297 0
M  V30 160 C 18.5681 2.80212 3.39366 0
M  V30 161 H 15.6871 0.570474 0.466613 0
M  V30 162 H 18.3291 1.80617 0.589706 0
M  V30 163 H 16.4791 2.50342 2.97088 0
M  V30 164 H 18.1511 4.44639 1.22858 0
M  V30 165 H 16.3941 4.19927 1.0883 0
M  V30 166 H 17.0651 4.88448 2.57144 0
M  V30 167 H 19.5411 2.98553 2.89836 0
M  V30 168 H 18.4171 3.61611 4.12951 0
M  V30 169 H 18.6781 1.88393 3.99951 0
M  V30 170 N 17.7372 -0.778329 1.37039 0
M  V30 171 C 18.6692 -1.90034 1.2814 0
M  V30 172 C 19.6822 -1.61585 0.198558 0
M  V30 173 O 20.8712 -1.72625 0.454175 0
M  V30 174 C 17.9712 -3.25108 0.956968 0
M  V30 175 C 17.1442 -3.81253 2.14394 0
M  V30 176 C 16.2032 -4.94789 1.79082 0
M  V30 177 O 15.2292 -5.10721 2.51301 0
M  V30 178 N 16.4312 -5.75878 0.731043 0
M  V30 179 H 19.1962 -1.98186 2.24816 0
M  V30 180 H 16.7572 -0.957129 1.30578 0
M  V30 181 H 18.7492 -3.9857 0.701701 0
M  V30 182 H 17.3192 -3.125 0.0789812 0
M  V30 183 H 16.5392 -2.99647 2.56135 0
M  V30 184 H 17.8272 -4.15495 2.93668 0
M  V30 185 H 17.2252 -5.65547 0.131618 0
M  V30 186 H 15.7822 -6.49596 0.535622 0
M  V30 187 N 19.2153 -1.21501 -1.00376 0
M  V30 188 C 20.6263 -1.03146 -1.55621 0
M  V30 189 C 20.9773 0.408375 -1.91903 0
M  V30 190 O 20.1023 1.29177 -1.73616 0
M  V30 191 C 20.6973 -1.86612 -2.82775 0
M  V30 192 C 19.2563 -1.72586 -3.34501 0
M  V30 193 C 18.4033 -1.83747 -2.07683 0
M  V30 194 H 21.3543 -1.35505 -0.826081 0
M  V30 195 H 21.3753 -1.3771 -3.54706 0
M  V30 196 H 20.8873 -2.91399 -2.56336 0
M  V30 197 H 18.9883 -0.704877 -3.65872 0
M  V30 198 H 19.1013 -2.54623 -4.05837 0
M  V30 199 H 17.4653 -1.27069 -2.20739 0
M  V30 200 H 18.2483 -2.90044 -1.83655 0
M  V30 201 N 20.6934 1.19889 -1.02296 0
M  V30 202 C 21.9414 1.89046 -0.714558 0
M  V30 203 C 22.2624 1.79636 0.758681 0
M  V30 204 O 21.5324 1.20292 1.54618 0
M  V30 205 H 20.1124 0.699802 -0.261317 0
M  V30 206 H 22.7744 1.45574 -1.29592 0
M  V30 207 H 21.8704 2.95524 -1.0036 0
M  V30 208 N 22.1715 0.800033 1.35784 0
M  V30 209 C 23.4195 0.376597 1.9856 0
M  V30 210 C 23.7405 -1.05812 1.63795 0
M  V30 211 O 23.0105 -1.73103 0.917171 0
M  V30 212 H 21.5905 0.136261 0.734467 0
M  V30 213 H 24.2525 1.02442 1.65806 0
M  V30 214 H 23.3485 0.477002 3.08433 0
M  V30 215 N 23.6496 -1.47581 0.552962 0
M  V30 216 C 24.8746 -2.07378 0.0300593 0
M  V30 217 C 25.2996 -1.40355 -1.25229 0
M  V30 218 O 24.6576 -0.477099 -1.7491 0
M  V30 219 C 24.7056 -3.60274 -0.153231 0
M  V30 220 O 23.8096 -3.94041 -1.21678 0
M  V30 221 H 23.1506 -0.662158 0.0494182 0
M  V30 222 H 25.6806 -1.89662 0.767434 0
M  V30 223 H 25.6906 -4.0633 -0.368761 0
M  V30 224 H 24.3656 -4.08455 0.783397 0
M  V30 225 H 22.9426 -3.59735 -0.982079 0
M  V30 226 N 25.1277 -0.289203 -1.54924 0
M  V30 227 C 26.0577 0.58549 -2.2604 0
M  V30 228 C 27.0387 1.14753 -1.25562 0
M  V30 229 O 28.2237 1.17906 -1.54311 0
M  V30 230 C 25.3537 1.76305 -2.99222 0
M  V30 231 C 24.3077 1.33191 -4.06748 0
M  V30 232 C 23.6337 2.5937 -4.6758 0
M  V30 233 C 24.9337 0.471775 -5.20165 0
M  V30 234 H 26.6277 -0.00763532 -2.99399 0
M  V30 235 H 24.1737 -0.00511229 -1.43999 0
M  V30 236 H 26.1267 2.38097 -3.47689 0
M  V30 237 H 24.8507 2.38223 -2.23422 0
M  V30 238 H 23.5097 0.737121 -3.59113 0
M  V30 239 H 23.1577 3.19576 -3.88433 0
M  V30 240 H 22.8577 2.31228 -5.40192 0
M  V30 241 H 24.3817 3.21985 -5.18804 0
M  V30 242 H 25.7957 0.995056 -5.64599 0
M  V30 243 H 24.1927 0.284639 -5.99425 0
M  V30 244 H 25.2627 -0.506041 -4.82252 0
M  V30 245 N 26.6058 1.57591 -0.0167156 0
M  V30 246 C 28.0218 1.55946 0.339557 0
M  V30 247 C 28.2218 1.02109 1.73713 0
M  V30 248 O 27.2778 0.662303 2.43659 0
M  V30 249 C 28.5908 3.00037 0.199499 0
M  V30 250 C 30.1388 3.11805 0.273193 0
M  V30 251 C 30.6138 4.57713 0.162068 0
M  V30 252 N 32.1048 4.6268 0.219444 0
M  V30 253 C 32.8398 5.73185 0.157054 0
M  V30 254 N 32.3358 6.92786 0.0442936 0
M  V30 255 N 34.1288 5.61707 0.21014 0
M  V30 256 H 26.2798 1.90921 -0.930758 0
M  V30 257 H 28.5428 0.877674 -0.358319 0
M  V30 258 H 28.2488 3.4333 -0.76273 0
M  V30 259 H 28.1228 3.64387 0.974786 0
M  V30 260 H 30.5098 2.68433 1.22587 0
M  V30 261 H 30.5908 2.50201 -0.532256 0
M  V30 262 H 30.2348 5.01763 -0.78714 0
M  V30 263 H 30.1648 5.17283 0.986222 0
M  V30 264 H 32.6558 3.76649 0.307246 0
M  V30 265 H 32.9688 7.728 0.00304069 0
M  V30 266 H 31.3138 6.94999 0.00968457 0
M  V30 267 H 34.5048 4.6716 0.296546 0
M  V30 268 H 34.6778 6.47807 0.158054 0
M  V30 269 N 28.0839 -0.256276 1.55502 0
M  V30 270 C 29.0139 -1.32102 1.92539 0
M  V30 271 C 29.9949 -1.50684 0.789194 0
M  V30 272 O 31.1799 -1.63449 1.04872 0
M  V30 273 C 28.3099 -2.67752 2.21192 0
M  V30 274 C 27.2639 -2.63878 3.36975 0
M  V30 275 C 26.5899 -4.03236 3.51147 0
M  V30 276 C 27.8899 -2.21682 4.72921 0
M  V30 277 H 29.5839 -1.01351 2.81724 0
M  V30 278 H 27.1299 -0.486105 1.35547 0
M  V30 279 H 29.0829 -3.42365 2.45691 0
M  V30 280 H 27.8069 -3.0012 1.28824 0
M  V30 281 H 26.4659 -1.91722 3.12471 0
M  V30 282 H 26.1139 -4.32854 2.56216 0
M  V30 283 H 25.8139 -4.01535 4.29003 0
M  V30 284 H 27.3379 -4.79563 3.77957 0
M  V30 285 H 28.7519 -2.86023 4.96854 0
M  V30 286 H 27.1489 -2.3111 5.53812 0
M  V30 287 H 28.2189 -1.16833 4.70615 0
M  V30 288 N 29.562 -1.4872 -0.521534 0
M  V30 289 C 30.787 -1.61101 -1.30618 0
M  V30 290 C 31.212 -0.274611 -1.86085 0
M  V30 291 O 30.57 0.754937 -1.64834 0
M  V30 292 C 30.618 -2.66709 -2.4269 0
M  V30 293 O 29.722 -2.24456 -3.45967 0
M  V30 294 H 29.063 -0.539921 -0.386499 0
M  V30 295 H 31.593 -1.94767 -0.626645 0
M  V30 296 H 31.603 -2.88245 -2.88754 0
M  V30 297 H 30.278 -3.63727 -2.01682 0
M  V30 298 H 28.855 -2.13168 -3.05964 0
M  V30 299 N 31.0401 0.771051 -1.3745 0
M  V30 300 C 32.2801 1.54264 -1.34096 0
M  V30 301 C 32.6441 1.91858 0.0737639 0
M  V30 302 O 33.8451 2.67797 0.23203 0
M  V30 303 C 32.1161 2.77326 -2.25445 0
M  V30 304 S 33.6751 3.67383 -2.39948 0
M  V30 305 H 30.4931 0.528122 -0.476034 0
M  V30 306 H 33.0951 0.906633 -1.73206 0
M  V30 307 H 31.7991 2.47788 -3.27153 0
M  V30 308 H 31.3301 3.45886 -1.87421 0
M  V30 309 H 33.3451 4.69334 -1.61059 0
M  V30 310 N 32.5182 1.22032 0.997298 0
M  V30 311 C 33.4812 0.987909 2.06816 0
M  V30 312 C 34.4812 -0.0440084 1.6074 0
M  V30 313 O 35.6712 0.194053 1.73116 0
M  V30 314 C 32.8032 0.49132 3.37341 0
M  V30 315 H 33.9962 1.93803 2.28868 0
M  V30 316 H 31.5492 1.03838 1.16822 0
M  V30 317 H 32.2842 -0.463364 3.20973 0
M  V30 318 H 32.0692 1.23575 3.72118 0
M  V30 319 H 33.5592 0.348824 4.16141 0
M  V30 320 N 33.9963 -1.19345 1.0293 0
M  V30 321 C 34.9593 -2.20793 0.615069 0
M  V30 322 C 35.9593 -1.57553 -0.321533 0
M  V30 323 O 37.1493 -1.73862 -0.108483 0
M  V30 324 C 34.2813 -3.40754 -0.0999222 0
M  V30 325 H 35.4743 -2.58955 1.51269 0
M  V30 326 H 33.0273 -1.3303 0.820534 0
M  V30 327 H 33.7623 -3.0811 -1.01187 0
M  V30 328 H 33.5473 -3.87889 0.57309 0
M  V30 329 H 35.0373 -4.15898 -0.376645 0
M  V30 330 N 35.4744 -0.807222 -1.35358 0
M  V30 331 C 36.6994 -0.399309 -2.0352 0
M  V30 332 C 37.1244 0.981986 -1.60433 0
M  V30 333 O 36.4824 1.63601 -0.781299 0
M  V30 334 C 36.5304 -0.491552 -3.57234 0
M  V30 335 O 35.6344 0.494754 -4.09421 0
M  V30 336 H 34.9754 -0.166682 -0.642739 0
M  V30 337 H 37.5054 -1.09328 -1.72941 0
M  V30 338 H 37.5154 -0.361588 -4.06395 0
M  V30 339 H 36.1904 -1.49907 -3.87944 0
M  V30 340 H 34.7674 0.324977 -3.71481 0
M  V30 341 N 36.9525 1.47285 -0.560781 0
M  V30 342 C 38.2005 2.02064 -0.0379868 0
M  V30 343 C 38.5215 1.43711 1.31803 0
M  V30 344 O 37.7915 0.61362 1.86042 0
M  V30 345 H 36.3715 0.746918 -0.0110531 0
M  V30 346 H 39.0335 1.80648 -0.731598 0
M  V30 347 H 38.1295 3.12064 0.0474463 0
M  V30 348 N 38.4306 0.297415 1.54768 0
M  V30 349 C 39.6776 -0.312913 2.00068 0
M  V30 350 C 40.0056 -1.54171 1.18582 0
M  V30 351 O 39.2606 -1.94108 0.249133 0
M  V30 352 C 39.5596 -0.717561 3.50123 0
M  V30 353 C 39.2256 0.409095 4.4904 0
M  V30 354 C 37.8876 0.718399 4.75807 0
M  V30 355 C 40.2396 1.16717 5.07963 0
M  V30 356 C 37.5676 1.78896 5.5876 0
M  V30 357 C 39.9196 2.22762 5.92081 0
M  V30 358 C 38.5836 2.54303 6.1716 0
M  V30 359 H 37.8536 -0.114503 0.7321 0
M  V30 360 H 40.5006 0.415767 1.86932 0
M  V30 361 H 38.8056 -1.52627 3.60849 0
M  V30 362 H 40.5026 -1.20091 3.82595 0
M  V30 363 H 37.0926 0.157918 4.28309 0
M  V30 364 H 41.2766 0.941466 4.87289 0
M  V30 365 H 36.5326 2.0381 5.7643 0
M  V30 366 H 40.7066 2.81962 6.36765 0
M  V30 367 H 38.3336 3.3739 6.81229 0
M  V30 368 N 39.9087 -1.5758 0.0250728 0
M  V30 369 C 41.1367 -1.9593 -0.664747 0
M  V30 370 C 41.5517 -0.901352 -1.65895 0
M  V30 371 O 40.9087 0.117255 -1.82123 0
M  V30 372 C 40.9597 -3.34342 -1.37468 0
M  V30 373 O 40.6807 -4.36079 -0.420324 0
M  V30 374 C 42.1817 -3.873 -2.1567 0
M  V30 375 H 39.4017 -0.645405 -0.183557 0
M  V30 376 H 41.9457 -2.04329 0.0836372 0
M  V30 377 H 40.1007 -3.27175 -2.0745 0
M  V30 378 H 40.5147 -5.16297 -0.923991 0
M  V30 379 H 41.9887 -4.86504 -2.60803 0
M  V30 380 H 42.4657 -3.21331 -2.99405 0
M  V30 381 H 43.0717 -3.97723 -1.50654 0
M  V30 382 N 41.3868 0.248026 -1.55636 0
M  V30 383 C 42.6338 0.976224 -1.77415 0
M  V30 384 C 42.9618 1.85361 -0.589193 0
M  V30 385 O 42.2168 1.90973 0.427529 0
M  V30 386 C 42.5158 1.86819 -3.04686 0
M  V30 387 C 42.1818 1.14625 -4.36087 0
M  V30 388 C 40.8438 0.946723 -4.71795 0
M  V30 389 C 43.1958 0.634463 -5.17324 0
M  V30 390 C 40.5238 0.223091 -5.86276 0
M  V30 391 C 42.8758 -0.0756959 -6.32555 0
M  V30 392 C 41.5398 -0.286711 -6.66884 0
M  V30 393 H 40.8098 0.357226 -0.649208 0
M  V30 394 H 43.4568 0.246415 -1.89908 0
M  V30 395 H 41.7618 2.66502 -2.872 0
M  V30 396 H 43.4588 2.43329 -3.18735 0
M  V30 397 H 40.0488 1.3117 -4.08035 0
M  V30 398 H 44.2328 0.77616 -4.90193 0
M  V30 399 H 39.4888 0.0491185 -6.1138 0
M  V30 400 H 43.6628 -0.479899 -6.94745 0
M  V30 401 H 41.2898 -0.849389 -7.5544 0
M  V30 402 N 42.8649 1.48995 0.513639 0
M  V30 403 C 44.0899 1.61792 1.29762 0
M  V30 404 C 44.5149 0.284475 1.85936 0
M  V30 405 O 43.8729 -0.746185 1.65232 0
M  V30 406 C 43.9209 2.67993 2.41272 0
M  V30 407 O 43.0249 2.26287 3.44772 0
M  V30 408 H 42.3659 0.541963 0.38363 0
M  V30 409 H 44.8959 1.95097 0.616307 0
M  V30 410 H 44.9059 2.89772 2.87221 0
M  V30 411 H 43.5809 3.64791 1.9975 0
M  V30 412 H 42.1579 2.14788 3.04829 0
M  V30 413 N 44.343 -0.763751 1.37857 0
M  V30 414 C 45.568 -1.55805 1.36893 0
M  V30 415 C 45.993 -1.88054 -0.0416135 0
M  V30 416 O 45.351 -1.49825 -1.02089 0
M  V30 417 C 45.399 -2.84012 2.22192 0
M  V30 418 O 44.503 -3.78732 1.63204 0
M  V30 419 H 43.844 -0.471638 0.46739 0
M  V30 420 H 46.374 -0.944657 1.81487 0
M  V30 421 H 46.384 -3.33037 2.35691 0
M  V30 422 H 45.059 -2.59869 3.24716 0
M  V30 423 H 43.636 -3.37402 1.58791 0
M  V30 424 N 45.8211 -1.22559 -0.990812 0
M  V30 425 C 47.0511 -1.07623 -1.76355 0
M  V30 426 C 47.4591 0.37601 -1.85426 0
M  V30 427 O 46.8021 1.27228 -1.32509 0
M  V30 428 C 46.8641 -1.61507 -3.21179 0
M  V30 429 C 46.5281 -3.10146 -3.35646 0
M  V30 430 C 47.5251 -4.07553 -3.22796 0
M  V30 431 C 45.2101 -3.49644 -3.60631 0
M  V30 432 C 47.2041 -5.42442 -3.34716 0
M  V30 433 C 44.8911 -4.84682 -3.72192 0
M  V30 434 C 45.8891 -5.8089 -3.59243 0
M  V30 435 O 45.5771 -7.13476 -3.70415 0
M  V30 436 H 45.3091 -0.377745 -0.560611 0
M  V30 437 H 47.8631 -1.62658 -1.25425 0
M  V30 438 H 46.0931 -1.00881 -3.73309 0
M  V30 439 H 47.7821 -1.42202 -3.80175 0
M  V30 440 H 48.5481 -3.78381 -3.03403 0
M  V30 441 H 44.4271 -2.75282 -3.69785 0
M  V30 442 H 47.9711 -6.17518 -3.24526 0
M  V30 443 H 43.8681 -5.13534 -3.91092 0
M  V30 444 H 44.6361 -7.21083 -3.87275 0
M  V30 445 N 47.2992 1.18797 -1.03562 0
M  V30 446 C 48.5482 1.87978 -0.731235 0
M  V30 447 C 48.8612 1.80911 0.743671 0
M  V30 448 O 50.0672 2.45407 1.16137 0
M  V30 449 C 48.5232 3.3721 -1.25768 0
M  V30 450 C 48.1312 3.52818 -2.76085 0
M  V30 451 C 49.8752 4.11825 -1.0296 0
M  V30 452 C 47.7822 4.9598 -3.22114 0
M  V30 453 H 46.7122 0.704063 -0.269835 0
M  V30 454 H 49.3632 1.34266 -1.25079 0
M  V30 455 H 47.7452 3.90359 -0.666011 0
M  V30 456 H 48.9192 3.09965 -3.40966 0
M  V30 457 H 47.2342 2.91602 -2.97249 0
M  V30 458 H 49.8312 5.17411 -1.34869 0
M  V30 459 H 50.1742 4.16287 0.0333546 0
M  V30 460 H 50.7072 3.64833 -1.58562 0
M  V30 461 H 47.4462 4.96684 -4.27768 0
M  V30 462 H 46.9662 5.39569 -2.61965 0
M  V30 463 H 48.6452 5.6467 -3.15844 0
M  V30 464 N 48.7773 0.814389 1.34928 0
M  V30 465 C 49.7103 0.175641 2.27523 0
M  V30 466 C 50.6883 -0.662953 1.48471 0
M  V30 467 O 51.8723 -0.628545 1.77712 0
M  V30 468 C 48.9993 -0.755516 3.30166 0
M  V30 469 C 48.0453 0.00445305 4.265 0
M  V30 470 S 48.8783 1.34582 5.18313 0
M  V30 471 C 50.0343 0.419315 6.24494 0
M  V30 472 H 50.2673 0.960691 2.8135 0
M  V30 473 H 47.8003 0.609846 1.41846 0
M  V30 474 H 49.7583 -1.28723 3.89796 0
M  V30 475 H 48.4193 -1.51402 2.75202 0
M  V30 476 H 47.6123 -0.703077 4.99072 0
M  V30 477 H 47.2143 0.466447 3.7108 0
M  V30 478 H 49.5063 -0.392432 6.76362 0
M  V30 479 H 50.4493 1.11446 6.99275 0
M  V30 480 H 50.8573 0.0115389 5.64499 0
M  V30 481 N 50.2554 -1.46986 0.568584 0
M  V30 482 C 51.1884 -2.27129 -0.220779 0
M  V30 483 C 52.1664 -1.34757 -0.909905 0
M  V30 484 O 53.3504 -1.64152 -0.926622 0
M  V30 485 C 50.4774 -3.12108 -1.31553 0
M  V30 486 C 49.5234 -4.20141 -0.733748 0
M  V30 487 S 50.3564 -5.33783 0.428479 0
M  V30 488 C 51.5124 -6.22327 -0.667811 0
M  V30 489 H 51.7454 -2.93731 0.459267 0
M  V30 490 H 49.2784 -1.5026 0.355154 0
M  V30 491 H 51.2364 -3.61636 -1.94241 0
M  V30 492 H 49.8974 -2.44847 -1.96746 0
M  V30 493 H 49.0904 -4.79373 -1.5562 0
M  V30 494 H 48.6924 -3.73553 -0.182812 0
M  V30 495 H 50.9844 -6.59364 -1.55708 0
M  V30 496 H 51.9274 -7.0801 -0.11258 0
M  V30 497 H 52.3354 -5.5618 -0.965601 0
M  V30 498 N 51.7335 -0.305618 -1.54608 0
M  V30 499 C 52.9795 0.295595 -2.01241 0
M  V30 500 C 53.3345 1.51171 -1.19018 0
M  V30 501 O 52.6275 1.89832 -0.259684 0
M  V30 502 C 52.8215 0.698983 -3.50498 0
M  V30 503 C 52.6505 -0.476491 -4.47168 0
M  V30 504 C 51.4205 -0.969963 -4.95903 0
M  V30 505 C 53.6185 -1.32294 -4.96994 0
M  V30 506 N 51.6005 -2.11172 -5.76437 0
M  V30 507 C 52.9715 -2.31212 -5.75275 0
M  V30 508 C 55.0265 -1.35278 -4.7917 0
M  V30 509 C 53.7295 -3.32896 -6.37631 0
M  V30 510 C 55.7555 -2.35823 -5.42348 0
M  V30 511 C 55.1175 -3.33469 -6.20466 0
M  V30 512 H 51.2165 0.0724992 -0.778632 0
M  V30 513 H 53.8005 -0.436583 -1.89742 0
M  V30 514 H 51.9715 1.40032 -3.62278 0
M  V30 515 H 53.7035 1.28013 -3.8392 0
M  V30 516 H 50.4585 -0.544178 -4.70463 0
M  V30 517 H 50.8825 -2.68714 -6.21387 0
M  V30 518 H 55.5245 -0.61157 -4.18354 0
M  V30 519 H 53.2425 -4.07933 -6.97579 0
M  V30 520 H 56.8285 -2.38911 -5.30484 0
M  V30 521 H 55.7085 -4.09996 -6.68485 0
M  V30 522 N 53.2116 1.57565 -0.0334293 0
M  V30 523 C 54.4576 1.92262 0.645226 0
M  V30 524 C 54.7906 0.910543 1.71531 0
M  V30 525 O 54.0656 -0.066099 1.94388 0
M  V30 526 C 54.3486 3.37422 1.2577 0
M  V30 527 C 54.2016 4.49369 0.196891 0
M  V30 528 C 55.5206 3.82628 2.17449 0
M  V30 529 H 52.6396 0.699171 0.233085 0
M  V30 530 H 55.2816 1.89779 -0.0915694 0
M  V30 531 H 53.4316 3.39669 1.88566 0
M  V30 532 H 55.1036 4.59254 -0.433962 0
M  V30 533 H 53.3466 4.31168 -0.477137 0
M  V30 534 H 54.0176 5.47978 0.665124 0
M  V30 535 H 56.4936 3.82145 1.64634 0
M  V30 536 H 55.3696 4.84883 2.57254 0
M  V30 537 H 55.6306 3.18376 3.0674 0
M  V30 538 N 54.6897 -0.239769 1.55765 0
M  V30 539 C 56.1057 -0.588624 1.48349 0
M  V30 540 C 56.3057 -1.88005 0.72502 0
M  V30 541 O 55.3617 -2.51186 0.257269 0
M  V30 542 C 56.6747 -0.68474 2.928 0
M  V30 543 C 58.2227 -0.77659 3.03213 0
M  V30 544 C 58.6977 -0.904207 4.48986 0
M  V30 545 N 60.1887 -0.968896 4.52953 0
M  V30 546 C 60.9237 -1.08703 5.63002 0
M  V30 547 N 60.4197 -1.17026 6.82845 0
M  V30 548 N 62.2127 -1.12074 5.50814 0
M  V30 549 H 54.3637 0.607911 2.03515 0
M  V30 550 H 56.6267 0.21083 0.924259 0
M  V30 551 H 56.3327 0.194284 3.51163 0
M  V30 552 H 56.2067 -1.55435 3.43686 0
M  V30 553 H 58.5937 -1.64606 2.44926 0
M  V30 554 H 58.6747 0.118315 2.55526 0
M  V30 555 H 58.3187 -0.0392633 5.07885 0
M  V30 556 H 58.2487 -1.81426 4.9436 0
M  V30 557 H 60.7397 -0.915633 3.6664 0
M  V30 558 H 61.0527 -1.25966 7.62465 0
M  V30 559 H 59.3977 -1.13971 6.85591 0
M  V30 560 H 62.5887 -1.05226 4.5612 0
M  V30 561 H 62.7617 -1.20936 6.36615 0
M  V30 562 N 56.1678 -1.49265 -0.50573 0
M  V30 563 C 57.0998 -1.617 -1.62437 0
M  V30 564 C 58.1128 -0.499924 -1.54934 0
M  V30 565 O 59.3018 -0.771785 -1.60953 0
M  V30 566 C 56.4018 -1.5533 -3.01207 0
M  V30 567 C 55.5748 -2.8249 -3.33943 0
M  V30 568 C 54.6338 -2.69238 -4.52103 0
M  V30 569 O 53.6598 -3.43167 -4.5412 0
M  V30 570 N 54.8618 -1.80468 -5.51735 0
M  V30 571 H 57.6268 -2.58177 -1.52199 0
M  V30 572 H 55.1878 -1.46294 -0.693511 0
M  V30 573 H 57.1798 -1.44125 -3.78167 0
M  V30 574 H 55.7498 -0.667297 -3.05395 0
M  V30 575 H 54.9698 -3.08081 -2.45926 0
M  V30 576 H 56.2578 -3.66802 -3.5261 0
M  V30 577 H 55.6558 -1.19653 -5.52901 0
M  V30 578 H 54.2128 -1.75188 -6.27816 0
M  V30 579 N 57.6459 0.756429 -1.3826 0
M  V30 580 C 58.6089 1.85176 -1.35065 0
M  V30 581 C 59.6089 1.58818 -0.251703 0
M  V30 582 O 60.7989 1.66615 -0.508433 0
M  V30 583 C 57.9309 3.22596 -1.10201 0
M  V30 584 H 59.1239 1.89417 -2.3251 0
M  V30 585 H 56.6769 0.95783 -1.23512 0
M  V30 586 H 57.4119 3.24025 -0.133504 0
M  V30 587 H 57.1969 3.43122 -1.89762 0
M  V30 588 H 58.6869 4.02673 -1.10654 0
M  V30 589 N 59.124 1.23083 0.984299 0
M  V30 590 C 60.535 1.05609 1.5396 0
M  V30 591 C 60.886 -0.377793 1.92528 0
M  V30 592 O 60.011 -1.26398 1.75649 0
M  V30 593 C 60.606 1.91087 2.7977 0
M  V30 594 C 59.165 1.77885 3.31713 0
M  V30 595 C 58.312 1.87028 2.04733 0
M  V30 596 H 61.263 1.36802 0.804419 0
M  V30 597 H 61.284 1.43336 3.5247 0
M  V30 598 H 60.796 2.9544 2.51668 0
M  V30 599 H 58.897 0.762995 3.64704 0
M  V30 600 H 59.01 2.61047 4.01735 0
M  V30 601 H 57.374 1.30565 2.18689 0
M  V30 602 H 58.157 2.92929 1.79017 0
M  V30 603 N 60.6021 -1.18246 1.0419 0
M  V30 604 C 61.8501 -1.87886 0.744543 0
M  V30 605 C 62.1711 -1.8082 -0.730006 0
M  V30 606 O 61.4411 -1.22736 -1.52685 0
M  V30 607 H 60.0211 -0.695556 0.272417 0
M  V30 608 H 62.6831 -1.43494 1.31892 0
M  V30 609 H 61.7791 -2.9389 1.05049 0
M  V30 610 N 62.0802 -0.821533 -1.34494 0
M  V30 611 C 63.0272 -0.240397 -2.29545 0
M  V30 612 C 63.9972 0.634031 -1.53523 0
M  V30 613 O 65.1822 0.575966 -1.81899 0
M  V30 614 C 62.3222 0.592869 -3.39969 0
M  V30 615 C 61.4352 -0.30365 -4.30932 0
M  V30 616 C 60.5702 0.539049 -5.28458 0
M  V30 617 C 59.6092 -0.356942 -6.11058 0
M  V30 618 N 58.7462 0.446603 -7.00678 0
M  V30 619 H 63.5862 -1.05632 -2.7865 0
M  V30 620 H 61.1232 -0.532413 -1.37127 0
M  V30 621 H 63.0812 1.09129 -4.02675 0
M  V30 622 H 61.7112 1.37392 -2.92102 0
M  V30 623 H 60.7632 -0.920276 -3.691 0
M  V30 624 H 62.0752 -0.992661 -4.88823 0
M  V30 625 H 61.2292 1.102 -5.96608 0
M  V30 626 H 59.9682 1.26157 -4.71101 0
M  V30 627 H 58.9732 -0.932047 -5.41842 0
M  V30 628 H 60.1982 -1.07755 -6.70497 0
M  V30 629 H 58.1442 1.15282 -6.45791 0
M  V30 630 H 58.0612 -0.184048 -7.55776 0
M  V30 631 H 59.3292 0.992352 -7.73158 0
M  V30 632 N 63.5583 1.46682 -0.576371 0
M  V30 633 C 64.8063 2.02013 -0.0594163 0
M  V30 634 C 65.1273 1.45101 1.30271 0
M  V30 635 O 64.3973 0.633317 1.8538 0
M  V30 636 H 62.9773 0.746759 -0.0189745 0
M  V30 637 H 65.6393 1.79862 -0.750717 0
M  V30 638 H 64.7353 3.12097 0.014345 0
M  V30 639 N 65.0364 0.313813 1.54444 0
M  V30 640 C 65.9664 -0.549454 2.26943 0
M  V30 641 C 66.9474 -1.12741 1.27372 0
M  V30 642 O 68.1324 -1.15436 1.56167 0
M  V30 643 C 65.2624 -1.71523 3.01989 0
M  V30 644 C 64.2164 -1.26703 4.08816 0
M  V30 645 C 63.5424 -2.51898 4.71647 0
M  V30 646 C 64.8424 -0.388962 5.2085 0
M  V30 647 H 66.5364 0.0552661 2.99349 0
M  V30 648 H 64.0824 0.0280207 1.43973 0
M  V30 649 H 66.0354 -2.32535 3.51433 0
M  V30 650 H 64.7594 -2.34639 2.27183 0
M  V30 651 H 63.4184 -0.679896 3.6024 0
M  V30 652 H 63.0664 -3.13356 3.93468 0
M  V30 653 H 62.7664 -2.22605 5.43802 0
M  V30 654 H 64.2904 -3.1369 5.23861 0
M  V30 655 H 65.7044 -0.905107 5.6611 0
M  V30 656 H 64.1014 -0.18924 5.99802 0
M  V30 657 H 65.1714 0.582699 4.81386 0
M  V30 658 N 66.5145 -1.57545 0.0417849 0
M  V30 659 C 67.4245 -2.14451 -0.951213 0
M  V30 660 C 68.4405 -1.09992 -1.34825 0
M  V30 661 O 69.6165 -1.42114 -1.42708 0
M  V30 662 C 66.6815 -2.67063 -2.21084 0
M  V30 663 C 65.7425 -3.86284 -1.87304 0
M  V30 664 C 64.9755 -4.36378 -3.07261 0
M  V30 665 O 65.1985 -3.85587 -4.20332 0
M  V30 666 O 64.1325 -5.28077 -2.88822 0
M  V30 667 H 67.9585 -2.99601 -0.497287 0
M  V30 668 H 65.5435 -1.48317 -0.179567 0
M  V30 669 H 67.4255 -3.00914 -2.95006 0
M  V30 670 H 66.1005 -1.84989 -2.65633 0
M  V30 671 H 65.0075 -3.57338 -1.10727 0
M  V30 672 H 66.3405 -4.6956 -1.47562 0
M  V30 673 N 67.9926 0.231505 -1.5589 0
M  V30 674 C 69.2386 0.954429 -1.79617 0
M  V30 675 C 69.5936 1.82367 -0.613199 0
M  V30 676 O 68.8866 1.87524 0.393094 0
M  V30 677 C 69.0806 1.83577 -3.0665 0
M  V30 678 C 68.9096 1.05334 -4.3719 0
M  V30 679 C 67.6796 0.75225 -4.99669 0
M  V30 680 C 69.8776 0.423444 -5.12554 0
M  V30 681 N 67.8596 -0.052627 -6.13877 0
M  V30 682 C 69.2306 -0.245287 -6.19515 0
M  V30 683 C 71.2856 0.335466 -4.96769 0
M  V30 684 C 69.9886 -0.993566 -7.12405 0
M  V30 685 C 72.0146 -0.399321 -5.9005 0
M  V30 686 C 71.3766 -1.05663 -6.9643 0
M  V30 687 H 67.4756 0.329846 -0.709031 0
M  V30 688 H 70.0596 0.226172 -1.93382 0
M  V30 689 H 68.2306 2.53592 -2.94186 0
M  V30 690 H 69.9626 2.49541 -3.18608 0
M  V30 691 H 66.7176 1.06783 -4.61405 0
M  V30 692 H 67.1416 -0.443609 -6.75545 0
M  V30 693 H 71.7836 0.829311 -4.14587 0
M  V30 694 H 69.5016 -1.49896 -7.94076 0
M  V30 695 H 73.0876 -0.468265 -5.79913 0
M  V30 696 H 71.9676 -1.61612 -7.67366 0
M  V30 697 N 69.4707 1.49531 0.497807 0
M  V30 698 C 70.7167 1.59415 1.25358 0
M  V30 699 C 71.0497 0.281422 1.9215 0
M  V30 700 O 70.3247 -0.715249 1.80871 0
M  V30 701 C 70.6077 2.75566 2.3181 0
M  V30 702 C 70.4607 4.16642 1.69498 0
M  V30 703 C 71.7797 2.87347 3.33346 0
M  V30 704 H 68.8987 0.580244 0.454408 0
M  V30 705 H 71.5407 1.81827 0.551262 0
M  V30 706 H 69.6907 2.56587 2.91711 0
M  V30 707 H 71.3627 4.47145 1.13399 0
M  V30 708 H 69.6057 4.22141 0.998978 0
M  V30 709 H 70.2767 4.93792 2.46725 0
M  V30 710 H 72.7527 3.04634 2.83438 0
M  V30 711 H 71.6287 3.70289 4.05188 0
M  V30 712 H 71.8897 1.96834 3.95865 0
M  V30 713 N 70.9488 -0.749086 1.3866 0
M  V30 714 C 72.1738 -1.54344 1.38538 0
M  V30 715 C 72.5988 -1.88088 -0.0216655 0
M  V30 716 O 71.9568 -1.50899 -1.00494 0
M  V30 717 C 72.0048 -2.8164 2.25192 0
M  V30 718 O 71.1088 -3.7698 1.67212 0
M  V30 719 H 70.4498 -0.466654 0.472367 0
M  V30 720 H 72.9798 -0.925355 1.82478 0
M  V30 721 H 72.9898 -3.30519 2.3921 0
M  V30 722 H 71.6648 -2.56411 3.27454 0
M  V30 723 H 70.2418 -3.35699 1.6236 0
M  V30 724 N 72.4269 -1.23603 -0.977757 0
M  V30 725 C 73.6519 -1.09735 -1.75991 0
M  V30 726 C 74.0769 0.346858 -1.84874 0
M  V30 727 O 73.4349 1.25093 -1.3123 0
M  V30 728 C 73.4829 -1.73051 -3.16363 0
M  V30 729 O 72.5869 -0.994452 -4.0023 0
M  V30 730 H 71.9279 -0.384476 -0.541364 0
M  V30 731 H 74.4579 -1.6371 -1.2272 0
M  V30 732 H 74.4679 -1.78398 -3.66931 0
M  V30 733 H 73.1429 -2.78137 -3.09213 0
M  V30 734 H 71.7199 -1.01812 -3.58732 0
M  V30 735 N 73.905 1.17692 -1.04816 0
M  V30 736 C 75.154 1.87192 -0.751132 0
M  V30 737 C 75.467 1.8169 0.724441 0
M  V30 738 O 76.673 2.46625 1.13527 0
M  V30 739 C 75.129 3.35857 -1.29338 0
M  V30 740 C 74.737 3.4987 -2.79812 0
M  V30 741 C 76.481 4.10709 -1.07322 0
M  V30 742 C 74.388 4.92536 -3.27356 0
M  V30 743 H 73.318 0.701162 -0.277288 0
M  V30 744 H 75.969 1.32932 -1.26496 0
M  V30 745 H 74.351 3.89631 -0.707376 0
M  V30 746 H 75.525 3.06332 -3.44235 0
M  V30 747 H 73.84 2.88433 -3.00325 0
M  V30 748 H 76.437 5.15952 -1.4035 0
M  V30 749 H 76.78 4.16299 -0.0108001 0
M  V30 750 H 77.313 3.6313 -1.62423 0
M  V30 751 H 74.052 4.92119 -4.33012 0
M  V30 752 H 73.572 5.3676 -2.67673 0
M  V30 753 H 75.251 5.61288 -3.21815 0
M  V30 754 N 75.3831 0.828654 1.34056 0
M  V30 755 C 76.6131 0.431993 2.02033 0
M  V30 756 C 77.0211 -0.96844 1.62536 0
M  V30 757 O 76.3641 -1.6391 0.829408 0
M  V30 758 C 76.4261 0.461224 3.56529 0
M  V30 759 C 76.0901 1.81599 4.1937 0
M  V30 760 C 77.0871 2.7777 4.39477 0
M  V30 761 C 74.7721 2.10604 4.56017 0
M  V30 762 C 76.7661 4.01115 4.95364 0
M  V30 763 C 74.4531 3.34207 5.11614 0
M  V30 764 C 75.4511 4.2928 5.31232 0
M  V30 765 O 75.1391 5.50699 5.8565 0
M  V30 766 H 74.8711 0.170943 0.654029 0
M  V30 767 H 77.4251 1.11988 1.72185 0
M  V30 768 H 75.6551 -0.283388 3.8566 0
M  V30 769 H 77.3441 0.0838149 4.05813 0
M  V30 770 H 78.1101 2.56659 4.11523 0
M  V30 771 H 73.9891 1.37402 4.40047 0
M  V30 772 H 77.5331 4.75333 5.10592 0
M  V30 773 H 73.4301 3.55179 5.38997 0
M  V30 774 H 74.1981 5.52298 6.04077 0
M  V30 775 N 76.8612 -1.46375 0.584142 0
M  V30 776 C 78.2722 -1.86031 0.157959 0
M  V30 777 C 78.6232 -1.48753 -1.27933 0
M  V30 778 O 77.7482 -0.903098 -1.96655 0
M  V30 779 C 78.3432 -3.37642 0.279892 0
M  V30 780 C 76.9022 -3.76289 -0.09143 0
M  V30 781 C 76.0492 -2.7039 0.615178 0
M  V30 782 H 79.0002 -1.37509 0.792274 0
M  V30 783 H 79.0212 -3.77275 -0.494364 0
M  V30 784 H 78.5332 -3.64742 1.32607 0
M  V30 785 H 76.6342 -3.54806 -1.13769 0
M  V30 786 H 76.7472 -4.78246 0.285886 0
M  V30 787 H 75.1112 -2.5464 0.0552833 0
M  V30 788 H 75.8942 -3.0033 1.66303 0
M  V30 789 N 78.3393 -0.321999 -1.54275 0
M  V30 790 C 79.5643 0.285791 -2.05422 0
M  V30 791 C 79.9893 1.45124 -1.19669 0
M  V30 792 O 79.3473 1.80132 -0.205441 0
M  V30 793 C 79.3953 0.69956 -3.53749 0
M  V30 794 O 78.4993 1.8021 -3.70942 0
M  V30 795 H 77.8403 0.0518962 -0.661969 0
M  V30 796 H 80.3703 -0.469954 -1.9913 0
M  V30 797 H 80.3803 0.982649 -3.9599 0
M  V30 798 H 79.0553 -0.152864 -4.15619 0
M  V30 799 H 77.6323 1.51794 -3.40607 0
M  V30 800 N 79.8174 1.5752 -0.0501392 0
M  V30 801 C 81.0654 1.9227 0.622642 0
M  V30 802 C 81.3864 0.929083 1.71444 0
M  V30 803 O 80.6564 -0.0262186 1.95882 0
M  V30 804 H 79.2364 0.709739 0.232981 0
M  V30 805 H 81.8984 1.94628 -0.102898 0
M  V30 806 H 80.9944 2.93479 1.06191 0
M  V30 807 N 81.2955 -0.223234 1.56011 0
M  V30 808 C 82.5435 -0.946003 1.78592 0
M  V30 809 C 82.8645 -1.84936 0.618349 0
M  V30 810 O 82.1345 -1.92473 -0.364833 0
M  V30 811 H 80.7145 -0.352298 0.658707 0
M  V30 812 H 83.3765 -0.235494 1.93472 0
M  V30 813 H 82.4725 -1.55381 2.70672 0
M  V30 814 N 82.7736 -1.49793 -0.48987 0
M  V30 815 C 84.0226 -1.59085 -1.23995 0
M  V30 816 C 84.3356 -0.287907 -1.9347 0
M  V30 817 O 85.5416 -0.259506 -2.70257 0
M  V30 818 C 83.9976 -2.80736 -2.252 0
M  V30 819 C 83.6056 -4.17833 -1.61614 0
M  V30 820 C 85.3496 -2.99364 -3.00967 0
M  V30 821 C 83.2566 -5.30693 -2.60996 0
M  V30 822 H 82.1866 -0.592372 -0.466488 0
M  V30 823 H 84.8376 -1.76197 -0.51252 0
M  V30 824 H 83.2196 -2.57142 -3.01154 0
M  V30 825 H 84.3936 -4.51608 -0.915774 0
M  V30 826 H 82.7086 -4.04656 -0.981977 0
M  V30 827 H 85.3056 -3.80851 -3.75308 0
M  V30 828 H 85.6486 -2.10356 -3.59244 0
M  V30 829 H 86.1816 -3.2305 -2.32128 0
M  V30 830 H 82.9206 -6.21796 -2.07485 0
M  V30 831 H 82.4406 -5.01359 -3.2924 0
M  V30 832 H 84.1196 -5.6049 -3.23202 0
M  V30 833 N 84.2517 0.741722 -1.39055 0
M  V30 834 C 85.4797 1.53098 -1.39171 0
M  V30 835 C 85.8947 1.88794 0.0155099 0
M  V30 836 O 85.2517 1.53626 0.985159 0
M  V30 837 C 85.3027 2.82274 -2.2584 0
M  V30 838 O 85.0237 2.48097 -3.61081 0
M  V30 839 C 86.5247 3.76343 -2.34266 0
M  V30 840 H 83.7447 0.473335 -0.4756 0
M  V30 841 H 86.2887 0.917045 -1.82785 0
M  V30 842 H 84.4437 3.40015 -1.85656 0
M  V30 843 H 84.8577 3.31029 -4.06842 0
M  V30 844 H 86.3317 4.63898 -2.9917 0
M  V30 845 H 86.8087 4.17619 -1.35982 0
M  V30 846 H 87.4147 3.24523 -2.74891 0
M  V30 847 N 85.7298 1.2412 0.971189 0
M  V30 848 C 86.9768 1.07881 1.71371 0
M  V30 849 C 87.3048 -0.382901 1.90694 0
M  V30 850 O 86.5598 -1.29945 1.46331 0
M  V30 851 C 86.8588 1.75983 3.11071 0
M  V30 852 C 86.5248 3.25909 3.11599 0
M  V30 853 C 85.1868 3.66813 3.11451 0
M  V30 854 C 87.5388 4.21771 3.062 0
M  V30 855 C 84.8668 5.02021 3.03631 0
M  V30 856 C 87.2188 5.56982 2.99923 0
M  V30 857 C 85.8828 5.97237 2.98102 0
M  V30 858 H 85.1528 0.394764 0.62709 0
M  V30 859 H 87.7998 1.54176 1.13587 0
M  V30 860 H 86.1048 1.22072 3.72298 0
M  V30 861 H 87.8018 1.60887 3.6731 0
M  V30 862 H 84.3918 2.93353 3.12477 0
M  V30 863 H 88.5758 3.91172 3.05447 0
M  V30 864 H 83.8318 5.32411 3.0058 0
M  V30 865 H 88.0058 6.30969 2.94704 0
M  V30 866 H 85.6328 7.01967 2.91798 0
M  V30 867 N 87.2079 -1.17134 1.05439 0
M  V30 868 C 88.4379 -1.91094 0.785274 0
M  V30 869 C 88.8459 -1.77198 -0.663142 0
M  V30 870 O 88.1889 -1.10835 -1.46497 0
M  V30 871 C 88.2509 -3.42594 1.08949 0
M  V30 872 C 87.9149 -3.80274 2.53458 0
M  V30 873 C 88.9119 -3.82912 3.51673 0
M  V30 874 C 86.5969 -4.11162 2.88532 0
M  V30 875 C 88.5909 -4.15913 4.83006 0
M  V30 876 C 86.2779 -4.43831 4.20068 0
M  V30 877 C 87.2759 -4.46185 5.17115 0
M  V30 878 O 86.9639 -4.78083 6.46291 0
M  V30 879 H 86.6959 -0.613073 0.284811 0
M  V30 880 H 89.2499 -1.49461 1.40893 0
M  V30 881 H 87.4799 -3.84534 0.408741 0
M  V30 882 H 89.1689 -3.97817 0.805991 0
M  V30 883 H 89.9349 -3.5917 3.25917 0
M  V30 884 H 85.8139 -4.085 2.13656 0
M  V30 885 H 89.3579 -4.17665 5.5875 0
M  V30 886 H 85.2549 -4.67037 4.45586 0
M  V30 887 H 86.0229 -4.9593 6.51149 0
M  V30 888 N 88.686 -0.835752 -1.33615 0
M  V30 889 C 89.649 -0.272 -2.2758 0
M  V30 890 C 90.649 0.557487 -1.50827 0
M  V30 891 O 91.839 0.37173 -1.70188 0
M  V30 892 C 88.971 0.617173 -3.35267 0
M  V30 893 H 90.164 -1.10111 -2.78954 0
M  V30 894 H 87.717 -0.608594 -1.43965 0
M  V30 895 H 88.452 1.46884 -2.89129 0
M  V30 896 H 88.237 0.0237066 -3.92093 0
M  V30 897 H 89.727 1.005 -4.05326 0
M  V30 898 N 90.1641 1.46063 -0.591896 0
M  V30 899 C 91.4411 1.95595 -0.0137119 0
M  V30 900 C 91.8211 1.5345 1.4497 0
M  V30 901 O 91.1691 0.789543 2.14426 0
M  V30 902 C 91.3791 3.48453 -0.195373 0
M  V30 903 C 92.7271 4.24546 -0.0679765 0
M  V30 904 O 93.7511 3.55982 -0.124681 0
M  V30 905 O 92.6101 5.46467 0.0600579 0
M  V30 906 H 89.7041 0.825795 0.0446279 0
M  V30 907 H 92.2501 1.56303 -0.660859 0
M  V30 908 H 91.0221 3.72045 -1.21235 0
M  V30 909 H 90.6451 3.94597 0.487775 0
M  V30 910 N 91.6422 0.330177 1.54103 0
M  V30 911 C 92.8702 -0.272179 2.05102 0
M  V30 912 C 93.2852 -1.45267 1.20595 0
M  V30 913 O 92.6422 -1.8094 0.238144 0
M  V30 914 C 92.6932 -0.70023 3.54653 0
M  V30 915 O 92.4142 0.433301 4.35952 0
M  V30 916 C 93.9152 -1.3647 4.21771 0
M  V30 917 H 91.1352 -0.0549159 0.668749 0
M  V30 918 H 93.6792 0.478285 1.98828 0
M  V30 919 H 91.8342 -1.40066 3.61193 0
M  V30 920 H 92.2482 0.0947539 5.24414 0
M  V30 921 H 93.7222 -1.61509 5.27843 0
M  V30 922 H 94.1992 -2.31409 3.73292 0
M  V30 923 H 94.8052 -0.706675 4.19388 0
M  V30 924 N 93.1203 -1.57491 0.0584922 0
M  V30 925 C 94.3663 -1.93264 -0.614558 0
M  V30 926 C 94.6993 -0.937717 -1.7006 0
M  V30 927 O 93.9743 0.0351652 -1.94468 0
M  V30 928 C 94.2573 -3.3938 -1.20386 0
M  V30 929 C 94.1103 -4.49625 -0.125375 0
M  V30 930 C 95.4293 -3.86039 -2.11334 0
M  V30 931 H 92.5483 -0.702791 -0.221933 0
M  V30 932 H 95.1903 -1.8961 0.12175 0
M  V30 933 H 93.3403 -3.42626 -1.83139 0
M  V30 934 H 95.0123 -4.58506 0.506971 0
M  V30 935 H 93.2553 -4.30354 0.545672 0
M  V30 936 H 93.9263 -5.48967 -0.577861 0
M  V30 937 H 96.4023 -3.84716 -1.58534 0
M  V30 938 H 95.2783 -4.88914 -2.49507 0
M  V30 939 H 95.5393 -3.23215 -3.01636 0
M  V30 940 N 94.5984 0.214957 -1.56127 0
M  V30 941 C 95.5454 1.26642 -1.92952 0
M  V30 942 C 96.5154 1.46244 -0.78753 0
M  V30 943 O 97.7004 1.59704 -1.04399 0
M  V30 944 C 94.8404 2.6104 -2.25726 0
M  V30 945 C 93.9534 2.49183 -3.52891 0
M  V30 946 C 93.0884 3.76149 -3.7508 0
M  V30 947 C 92.1274 3.59041 -4.95738 0
M  V30 948 N 91.2644 4.77972 -5.14283 0
M  V30 949 H 96.1044 0.945384 -2.82607 0
M  V30 950 H 93.6414 0.455489 -1.3987 0
M  V30 951 H 95.5994 3.39313 -2.42739 0
M  V30 952 H 94.2294 2.91227 -1.39236 0
M  V30 953 H 93.2814 1.6231 -3.44034 0
M  V30 954 H 94.5934 2.32466 -4.41318 0
M  V30 955 H 93.7474 4.62865 -3.92226 0
M  V30 956 H 92.4864 3.95799 -2.84947 0
M  V30 957 H 91.4914 2.7071 -4.78535 0
M  V30 958 H 92.7164 3.40856 -5.87362 0
M  V30 959 H 90.6624 4.97923 -4.27093 0
M  V30 960 H 90.5794 4.64006 -5.96853 0
M  V30 961 H 91.8474 5.66096 -5.35869 0
M  V30 962 N 96.0765 1.50051 0.48192 0
M  V30 963 C 97.3245 1.60181 1.23234 0
M  V30 964 C 97.6455 0.299176 1.92691 0
M  V30 965 O 96.9155 -0.682708 1.83619 0
M  V30 966 H 95.4955 0.590232 0.457859 0
M  V30 967 H 98.1575 1.86775 0.556881 0
M  V30 968 H 97.2535 2.40753 1.98607 0
M  V30 969 N 97.5546 -0.734337 1.39446 0
M  V30 970 C 98.9706 -1.03997 1.21065 0
M  V30 971 C 99.1706 -2.01369 0.0727019 0
M  V30 972 O 98.2266 -2.45856 -0.575426 0
M  V30 973 C 99.5396 -1.60163 2.54496 0
M  V30 974 C 101.088 -1.7224 2.61347 0
M  V30 975 C 101.563 -2.31814 3.95002 0
M  V30 976 N 103.054 -2.39223 3.96644 0
M  V30 977 C 103.789 -2.86258 4.96834 0
M  V30 978 N 103.285 -3.33184 6.07421 0
M  V30 979 N 105.078 -2.85473 4.84213 0
M  V30 980 H 97.2286 -0.0885624 2.12215 0
M  V30 981 H 99.4916 -0.10191 0.942506 0
M  V30 982 H 99.1976 -0.960811 3.38321 0
M  V30 983 H 99.0716 -2.5896 2.74262 0
M  V30 984 H 101.459 -2.35443 1.77906 0
M  V30 985 H 101.54 -0.720939 2.4543 0
M  V30 986 H 101.184 -1.69238 4.78875 0
M  V30 987 H 101.114 -3.32638 4.08239 0
M  V30 988 H 103.605 -2.06057 3.16779 0
M  V30 989 H 103.918 -3.67586 6.7978 0
M  V30 990 H 102.263 -3.31191 6.11013 0
M  V30 991 H 105.454 -2.48136 3.96921 0
M  V30 992 H 105.627 -3.21814 5.62441 0
M  V30 993 N 99.0327 -1.24633 -0.964593 0
M  V30 994 C 100.28 -1.08788 -1.70796 0
M  V30 995 C 100.608 0.372783 -1.90894 0
M  V30 996 O 99.8627 1.29167 -1.47018 0
M  V30 997 C 100.162 -1.7763 -3.10133 0
M  V30 998 C 99.8277 -3.27557 -3.09866 0
M  V30 999 C 98.4897 -3.6846 -3.09501 0
M  V30 1000 C 100.842 -4.23389 -3.03959 0
M  V30 1001 C 98.1697 -5.03624 -3.00965 0
M  V30 1002 C 100.522 -5.58565 -2.96965 0
M  V30 1003 C 99.1857 -5.98809 -2.9493 0
M  V30 1004 H 98.4557 -0.398084 -0.624988 0
M  V30 1005 H 101.103 -1.54777 -1.12767 0
M  V30 1006 H 99.4077 -1.24044 -3.71645 0
M  V30 1007 H 101.105 -1.62832 -3.66451 0
M  V30 1008 H 97.6947 -2.95006 -3.10917 0
M  V30 1009 H 101.879 -3.92787 -3.03368 0
M  V30 1010 H 97.1347 -5.33998 -2.97752 0
M  V30 1011 H 101.309 -6.32523 -2.91354 0
M  V30 1012 H 98.9357 -7.03505 -2.88071 0
M  V30 1013 N 100.511 1.16574 -1.06058 0
M  V30 1014 C 101.739 1.90952 -0.796552 0
M  V30 1015 C 102.154 1.77302 0.648808 0
M  V30 1016 O 101.511 1.11605 1.44397 0
M  V30 1017 C 101.562 3.41736 -1.17894 0
M  V30 1018 O 101.283 3.54975 -2.56758 0
M  V30 1019 C 102.784 4.33169 -0.942308 0
M  V30 1020 H 100.004 0.605594 -0.288959 0
M  V30 1021 H 102.548 1.47777 -1.41358 0
M  V30 1022 H 100.703 3.82623 -0.606491 0
M  V30 1023 H 101.117 4.4846 -2.72 0
M  V30 1024 H 102.591 5.37439 -1.25952 0
M  V30 1025 H 103.068 4.3903 0.122078 0
M  V30 1026 H 103.674 3.98007 -1.49902 0
M  V30 1027 N 101.989 0.842826 1.3317 0
M  V30 1028 C 103.238 0.436738 1.96915 0
M  V30 1029 C 103.551 -1.01025 1.67491 0
M  V30 1030 O 104.757 -1.5212 2.24881 0
M  V30 1031 C 103.213 0.730021 3.52418 0
M  V30 1032 C 102.821 2.19195 3.90714 0
M  V30 1033 C 104.565 0.391076 4.22695 0
M  V30 1034 C 102.472 2.42907 5.39212 0
M  V30 1035 H 101.402 0.15958 0.736919 0
M  V30 1036 H 104.053 1.03196 1.51733 0
M  V30 1037 H 102.435 0.0643755 3.95948 0
M  V30 1038 H 103.609 2.8984 3.58231 0
M  V30 1039 H 101.924 2.49425 3.33431 0
M  V30 1040 H 104.521 0.545817 5.31907 0
M  V30 1041 H 104.864 -0.666294 4.10933 0
M  V30 1042 H 105.397 1.01212 3.84709 0
M  V30 1043 H 102.136 3.47224 5.55982 0
M  V30 1044 H 101.656 1.76827 5.73142 0
M  V30 1045 H 103.335 2.2626 6.06148 0
M  V30 1046 N 103.467 -1.45747 0.599634 0
M  V30 1047 C 104.692 -2.07178 0.0960198 0
M  V30 1048 C 105.117 -1.44268 -1.207 0
M  V30 1049 O 104.475 -0.532503 -1.73303 0
M  V30 1050 C 104.523 -3.60579 -0.0385348 0
M  V30 1051 O 103.627 -3.97713 -1.0908 0
M  V30 1052 H 102.968 -0.660251 0.0704593 0
M  V30 1053 H 105.498 -1.87124 0.827385 0
M  V30 1054 H 105.508 -4.07298 -0.239304 0
M  V30 1055 H 104.183 -4.05756 0.912947 0
M  V30 1056 H 102.76 -3.62678 -0.867135 0
M  V30 1057 N 104.945 -0.338344 -1.53925 0
M  V30 1058 C 106.361 0.0137736 -1.59594 0
M  V30 1059 C 106.561 1.49186 -1.35447 0
M  V30 1060 O 105.617 2.24987 -1.14616 0
M  V30 1061 C 106.93 -0.41773 -2.97784 0
M  V30 1062 C 108.478 -0.369633 -3.1081 0
M  V30 1063 C 108.953 -0.776524 -4.51369 0
M  V30 1064 N 110.444 -0.730506 -4.57403 0
M  V30 1065 C 111.179 -1.01736 -5.64303 0
M  V30 1066 N 110.675 -1.3721 -6.79077 0
M  V30 1067 N 112.468 -0.941942 -5.54151 0
M  V30 1068 H 104.619 -1.3012 -1.67876 0
M  V30 1069 H 106.882 -0.530082 -0.78595 0
M  V30 1070 H 106.588 -1.44811 -3.20504 0
M  V30 1071 H 106.462 0.209729 -3.76616 0
M  V30 1072 H 108.849 0.651568 -2.87817 0
M  V30 1073 H 108.93 -1.03223 -2.34049 0
M  V30 1074 H 108.574 -1.79571 -4.75096 0
M  V30 1075 H 108.504 -0.0914649 -5.26521 0
M  V30 1076 H 110.995 -0.468783 -3.74981 0
M  V30 1077 H 111.308 -1.57597 -7.5656 0
M  V30 1078 H 109.653 -1.4105 -6.80536 0
M  V30 1079 H 112.844 -0.664184 -4.63364 0
M  V30 1080 H 113.017 -1.16884 -6.37371 0
M  V30 1081 N 106.423 1.57458 -0.0668435 0
M  V30 1082 C 107.7 1.8469 0.644132 0
M  V30 1083 C 108.08 0.958343 1.88093 0
M  V30 1084 O 107.428 0.0233579 2.28488 0
M  V30 1085 C 107.638 3.34767 0.986509 0
M  V30 1086 C 108.986 4.02159 1.36212 0
M  V30 1087 O 110.01 3.39484 1.07839 0
M  V30 1088 O 108.869 5.12694 1.89227 0
M  V30 1089 H 105.963 0.762816 0.319437 0
M  V30 1090 H 108.509 1.6942 -0.0973986 0
M  V30 1091 H 107.281 3.91151 0.107883 0
M  V30 1092 H 106.904 3.55281 1.78497 0
M  V30 1093 N 107.901 -0.206675 1.56239 0
M  V30 1094 C 108.849 -1.27571 1.94495 0
M  V30 1095 C 109.843 -1.47737 0.828862 0
M  V30 1096 O 111.049 -1.48735 1.0138 0
M  V30 1097 H 107.424 -0.428029 0.6183 0
M  V30 1098 H 109.395 -0.925961 2.8367 0
M  V30 1099 C 108.144 -2.61568 2.29079 0
M  V30 1100 H 107.467 -2.46863 3.14482 0
M  V30 1101 H 108.907 -3.35144 2.5972 0
M  V30 1102 C 107.366 -3.17695 1.12123 0
M  V30 1103 O 107.896 -3.99801 0.390153 0
M  V30 1104 N 106.102 -2.76276 0.901097 0
M  V30 1105 H 105.649 -2.09613 1.49733 0
M  V30 1106 H 105.607 -3.1417 0.120319 0
M  V30 1107 N 109.379 -1.50304 -0.473955 0
M  V30 1108 C 110.604 -1.65175 -1.25427 0
M  V30 1109 C 111.029 -0.333673 -1.85117 0
M  V30 1110 O 110.387 0.702114 -1.67153 0
M  V30 1111 C 110.435 -2.74295 -2.34082 0
M  V30 1112 O 109.539 -2.35349 -3.38651 0
M  V30 1113 H 108.88 -0.551944 -0.369126 0
M  V30 1114 H 111.41 -1.96662 -0.564364 0
M  V30 1115 H 111.42 -2.97285 -2.79438 0
M  V30 1116 H 110.095 -3.69959 -1.90008 0
M  V30 1117 H 108.672 -2.22794 -2.99027 0
M  V30 1118 N 110.857 0.726932 -1.39834 0
M  V30 1119 C 111.804 1.841 -1.39197 0
M  V30 1120 C 112.774 1.642 -0.250502 0
M  V30 1121 O 113.959 1.85494 -0.446846 0
M  V30 1122 C 111.099 3.21697 -1.24919 0
M  V30 1123 C 110.212 3.53247 -2.48678 0
M  V30 1124 C 109.347 4.80289 -2.26928 0
M  V30 1125 C 108.386 5.04707 -3.4632 0
M  V30 1126 N 107.523 6.22956 -3.23836 0
M  V30 1127 H 112.363 1.83979 -2.34427 0
M  V30 1128 H 109.9 0.898876 -1.16442 0
M  V30 1129 H 111.858 4.01137 -1.1465 0
M  V30 1130 H 110.488 3.21076 -0.333153 0
M  V30 1131 H 109.54 2.68447 -2.69519 0
M  V30 1132 H 110.852 3.67205 -3.37582 0
M  V30 1133 H 110.006 5.67725 -2.13947 0
M  V30 1134 H 108.745 4.68519 -1.35431 0
M  V30 1135 H 107.75 4.1573 -3.5979 0
M  V30 1136 H 108.975 5.18357 -4.38729 0
M  V30 1137 H 106.921 6.12459 -2.35011 0
M  V30 1138 H 106.838 6.37539 -4.063 0
M  V30 1139 H 108.106 7.1321 -3.14566 0
M  V30 1140 N 112.336 1.25143 0.95797 0
M  V30 1141 C 113.284 1.05019 2.07542 0
M  V30 1142 C 114.278 -0.0178751 1.69391 0
M  V30 1143 O 115.484 0.137472 1.79474 0
M  V30 1144 H 111.859 0.32265 0.679265 0
M  V30 1145 H 113.83 1.99759 2.21673 0
M  V30 1146 C 112.579 0.682074 3.40944 0
M  V30 1147 H 111.902 1.49573 3.70767 0
M  V30 1148 H 113.342 0.580945 4.20001 0
M  V30 1149 C 111.801 -0.611608 3.31302 0
M  V30 1150 O 112.331 -1.65465 3.66038 0
M  V30 1151 N 110.537 -0.595982 2.84423 0
M  V30 1152 H 110.084 0.253192 2.56353 0
M  V30 1153 H 110.042 -1.46173 2.78354 0
M  V30 1154 N 113.814 -1.1601 1.06675 0
M  V30 1155 C 115.042 -1.90527 0.806667 0
M  V30 1156 C 115.457 -1.77643 -0.639396 0
M  V30 1157 O 114.814 -1.12369 -1.43803 0
M  V30 1158 C 114.865 -3.41106 1.19705 0
M  V30 1159 O 114.586 -3.53608 2.58636 0
M  V30 1160 C 116.087 -4.32663 0.965266 0
M  V30 1161 H 113.307 -0.604053 0.292166 0
M  V30 1162 H 115.851 -1.47026 1.4214 0
M  V30 1163 H 114.006 -3.82296 0.626774 0
M  V30 1164 H 114.42 -4.47011 2.74375 0
M  V30 1165 H 115.894 -5.36763 1.288 0
M  V30 1166 H 116.371 -4.39089 -0.0987936 0
M  V30 1167 H 116.977 -3.97206 1.52011 0
M  V30 1168 N 115.292 -0.849877 -1.32721 0
M  V30 1169 C 116.222 -0.306308 -2.31482 0
M  V30 1170 C 117.203 0.591952 -1.59468 0
M  V30 1171 O 118.388 0.513199 -1.87296 0
M  V30 1172 C 115.518 0.510204 -3.43532 0
M  V30 1173 C 114.472 -0.293209 -4.26994 0
M  V30 1174 C 113.798 0.647743 -5.30762 0
M  V30 1175 C 115.098 -1.51634 -4.99804 0
M  V30 1176 H 116.792 -1.13153 -2.77195 0
M  V30 1177 H 114.338 -0.545553 -1.33266 0
M  V30 1178 H 116.291 0.900856 -4.11658 0
M  V30 1179 H 115.015 1.36874 -2.96535 0
M  V30 1180 H 113.674 -0.665555 -3.60508 0
M  V30 1181 H 113.322 1.50299 -4.8002 0
M  V30 1182 H 113.022 0.11422 -5.87489 0
M  V30 1183 H 114.546 1.03567 -6.01753 0
M  V30 1184 H 115.96 -1.19824 -5.60638 0
M  V30 1185 H 114.357 -1.98745 -5.66234 0
M  V30 1186 H 115.427 -2.28018 -4.27943 0
M  V30 1187 N 116.77 1.45427 -0.607355 0
M  V30 1188 C 118 2.06314 -0.108656 0
M  V30 1189 C 118.408 1.45269 1.21217 0
M  V30 1190 O 117.751 0.561115 1.74921 0
M  V30 1191 C 117.813 3.59345 0.105618 0
M  V30 1192 C 117.477 4.42723 -1.13337 0
M  V30 1193 C 118.474 4.77715 -2.05145 0
M  V30 1194 C 116.159 4.83478 -1.36213 0
M  V30 1195 C 118.153 5.52317 -3.18158 0
M  V30 1196 C 115.84 5.57835 -2.49527 0
M  V30 1197 C 116.838 5.92171 -3.40327 0
M  V30 1198 O 116.526 6.65019 -4.51669 0
M  V30 1199 H 116.258 0.672782 -0.0658842 0
M  V30 1200 H 118.812 1.87664 -0.834945 0
M  V30 1201 H 117.042 3.76394 0.886796 0
M  V30 1202 H 118.731 4.02076 0.555886 0
M  V30 1203 H 119.497 4.46787 -1.88697 0
M  V30 1204 H 115.376 4.56188 -0.664362 0
M  V30 1205 H 118.92 5.79036 -3.89054 0
M  V30 1206 H 114.817 5.88177 -2.65928 0
M  V30 1207 H 115.585 6.83469 -4.50348 0
M  V30 1208 N 118.248 0.346503 1.53744 0
M  V30 1209 C 119.178 -0.501193 2.28058 0
M  V30 1210 C 120.159 -1.10014 1.29734 0
M  V30 1211 O 121.344 -1.12097 1.58581 0
M  V30 1212 C 118.474 -1.65078 3.05559 0
M  V30 1213 C 117.428 -1.18003 4.11411 0
M  V30 1214 C 116.754 -2.41837 4.76884 0
M  V30 1215 C 118.054 -0.278394 5.21558 0
M  V30 1216 H 119.748 0.11875 2.99164 0
M  V30 1217 H 117.294 0.0585531 1.43881 0
M  V30 1218 H 119.247 -2.25028 3.56287 0
M  V30 1219 H 117.971 -2.29767 2.32109 0
M  V30 1220 H 116.63 -0.603331 3.61601 0
M  V30 1221 H 116.278 -3.0494 4.00026 0
M  V30 1222 H 115.978 -2.1102 5.48402 0
M  V30 1223 H 117.502 -3.02508 5.30397 0
M  V30 1224 H 118.916 -0.784823 5.67903 0
M  V30 1225 H 117.313 -0.0619707 6.00068 0
M  V30 1226 H 118.383 0.684677 4.80042 0
M  V30 1227 N 119.726 -1.57421 0.075193 0
M  V30 1228 C 120.658 -2.09904 -0.920483 0
M  V30 1229 C 121.671 -1.03191 -1.25918 0
M  V30 1230 O 122.86 -1.30695 -1.21577 0
M  V30 1231 C 119.96 -2.54726 -2.23534 0
M  V30 1232 C 119.133 -3.8505 -2.07498 0
M  V30 1233 C 118.192 -4.15929 -3.22319 0
M  V30 1234 O 117.218 -4.85474 -2.9716 0
M  V30 1235 N 118.42 -3.69745 -4.47514 0
M  V30 1236 H 121.185 -2.95954 -0.472359 0
M  V30 1237 H 118.746 -1.61523 -0.110444 0
M  V30 1238 H 120.738 -2.72443 -2.9926 0
M  V30 1239 H 119.308 -1.73795 -2.59835 0
M  V30 1240 H 118.528 -3.76679 -1.16219 0
M  V30 1241 H 119.816 -4.70348 -1.94038 0
M  V30 1242 H 119.214 -3.13569 -4.7084 0
M  V30 1243 H 117.771 -3.92655 -5.20255 0
M  V30 1244 N 121.204 0.198386 -1.56346 0
M  V30 1245 C 122.137 1.27381 -1.89339 0
M  V30 1246 C 123.115 1.44106 -0.753134 0
M  V30 1247 O 124.299 1.59549 -1.00381 0
M  V30 1248 C 121.426 2.6409 -2.12071 0
M  V30 1249 C 120.472 2.64253 -3.34772 0
M  V30 1250 S 121.305 2.16013 -4.89999 0
M  V30 1251 C 122.461 3.54553 -5.15794 0
M  V30 1252 H 122.694 0.992058 -2.8026 0
M  V30 1253 H 120.227 0.401726 -1.49082 0
M  V30 1254 H 122.185 3.42786 -2.2585 0
M  V30 1255 H 120.846 2.89478 -1.21906 0
M  V30 1256 H 120.039 3.64768 -3.47794 0
M  V30 1257 H 119.641 1.93637 -3.1997 0
M  V30 1258 H 121.933 4.50396 -5.06112 0
M  V30 1259 H 122.876 3.46428 -6.1757 0
M  V30 1260 H 123.284 3.49313 -4.43442 0
M  V30 1261 N 122.682 1.50554 0.465978 0
M  V30 1262 C 123.63 1.70324 1.58406 0
M  V30 1263 C 124.624 0.569139 1.59553 0
M  V30 1264 O 125.83 0.749776 1.63641 0
M  V30 1265 H 122.205 0.537688 0.525734 0
M  V30 1266 H 124.176 2.64104 1.38894 0
M  V30 1267 C 122.925 1.81928 2.96307 0
M  V30 1268 H 122.248 2.68586 2.96144 0
M  V30 1269 H 123.688 1.99784 3.73982 0
M  V30 1270 C 122.147 0.572095 3.32007 0
M  V30 1271 O 122.677 -0.286416 4.00678 0
M  V30 1272 N 120.883 0.424606 2.87481 0
M  V30 1273 H 120.43 1.12427 2.31771 0
M  V30 1274 H 120.388 -0.408697 3.11732 0
M  V30 1275 N 124.16 -0.719506 1.40217 0
M  V30 1276 C 125.385 -1.51371 1.4178 0
M  V30 1277 C 125.81 -1.88091 0.0182355 0
M  V30 1278 O 125.168 -1.52997 -0.972707 0
M  V30 1279 C 125.216 -2.768 2.31115 0
M  V30 1280 O 124.32 -3.73349 1.7517 0
M  V30 1281 H 123.661 -0.456529 0.482159 0
M  V30 1282 H 126.191 -0.88644 1.844 0
M  V30 1283 H 126.201 -3.25371 2.46167 0
M  V30 1284 H 124.876 -2.49407 3.3282 0
M  V30 1285 H 123.453 -3.32179 1.69444 0
M  V30 1286 N 125.638 -1.25649 -0.95132 0
M  V30 1287 C 126.568 -1.08808 -2.06599 0
M  V30 1288 C 127.549 0.00382547 -1.701 0
M  V30 1289 O 128.734 -0.166325 -1.93486 0
M  V30 1290 C 125.864 -0.709542 -3.39975 0
M  V30 1291 C 124.818 -1.75206 -3.90496 0
M  V30 1292 C 124.144 -1.22811 -5.20405 0
M  V30 1293 C 125.444 -3.15153 -4.16504 0
M  V30 1294 H 127.138 -2.02048 -2.20946 0
M  V30 1295 H 124.684 -0.972835 -1.06169 0
M  V30 1296 H 126.637 -0.578649 -4.17408 0
M  V30 1297 H 125.361 0.258556 -3.25575 0
M  V30 1298 H 124.02 -1.87145 -3.15234 0
M  V30 1299 H 123.668 -0.250145 -5.02378 0
M  V30 1300 H 123.368 -1.92492 -5.55176 0
M  V30 1301 H 124.892 -1.10968 -6.00432 0
M  V30 1302 H 126.306 -3.06349 -4.84586 0
M  V30 1303 H 124.703 -3.82333 -4.62538 0
M  V30 1304 H 125.773 -3.61966 -3.22658 0
M  V30 1305 N 127.117 1.15442 -1.07289 0
M  V30 1306 C 128.533 1.38201 -0.798288 0
M  V30 1307 C 128.733 1.92429 0.597769 0
M  V30 1308 O 127.789 2.12962 1.3566 0
M  V30 1309 C 129.102 2.35357 -1.87156 0
M  V30 1310 C 130.65 2.49021 -1.89624 0
M  V30 1311 C 131.125 3.49468 -2.96034 0
M  V30 1312 N 132.616 3.57003 -2.95132 0
M  V30 1313 C 133.351 4.34543 -3.74112 0
M  V30 1314 N 132.847 5.15421 -4.6294 0
M  V30 1315 N 134.64 4.29625 -3.62462 0
M  V30 1316 H 126.791 0.78584 -1.97328 0
M  V30 1317 H 129.054 0.408065 -0.855679 0
M  V30 1318 H 128.76 2.02626 -2.87464 0
M  V30 1319 H 128.634 3.35129 -1.73114 0
M  V30 1320 H 131.021 2.81051 -0.899687 0
M  V30 1321 H 131.102 1.4925 -2.07745 0
M  V30 1322 H 130.746 3.18173 -3.95889 0
M  V30 1323 H 130.676 4.48992 -2.75161 0
M  V30 1324 H 133.167 2.99276 -2.30743 0
M  V30 1325 H 133.48 5.7183 -5.19837 0
M  V30 1326 H 131.825 5.14729 -4.66989 0
M  V30 1327 H 135.016 3.65505 -2.92444 0
M  V30 1328 H 135.189 4.89807 -4.24256 0
M  V30 1329 N 128.595 0.856903 1.32268 0
M  V30 1330 C 129.558 0.308171 2.27119 0
M  V30 1331 C 130.558 -0.533421 1.51695 0
M  V30 1332 O 131.748 -0.344607 1.70757 0
M  V30 1333 C 128.88 -0.563757 3.36206 0
M  V30 1334 H 130.073 1.14535 2.77167 0
M  V30 1335 H 127.626 0.631421 1.42978 0
M  V30 1336 H 128.361 -1.42266 2.91429 0
M  V30 1337 H 128.146 0.0386749 3.92081 0
M  V30 1338 H 129.636 -0.940386 4.06874 0
M  V30 1339 N 130.073 -1.45103 0.615059 0
M  V30 1340 C 130.983 -2.34382 -0.101034 0
M  V30 1341 C 131.999 -1.51681 -0.852585 0
M  V30 1342 O 133.175 -1.8446 -0.808484 0
M  V30 1343 C 130.24 -3.29417 -1.08099 0
M  V30 1344 C 129.301 -4.28025 -0.330577 0
M  V30 1345 C 128.534 -5.1852 -1.26385 0
M  V30 1346 O 128.757 -5.12598 -2.50198 0
M  V30 1347 O 127.691 -5.97122 -0.756866 0
M  V30 1348 H 131.517 -2.97033 0.632855 0
M  V30 1349 H 129.102 -1.4461 0.375293 0
M  V30 1350 H 130.984 -3.87958 -1.6452 0
M  V30 1351 H 129.659 -2.69321 -1.79577 0
M  V30 1352 H 128.566 -3.73078 0.276283 0
M  V30 1353 H 129.899 -4.90997 0.343866 0
M  V30 1354 N 131.551 -0.354651 -1.53558 0
M  V30 1355 C 132.828 0.294281 -1.93374 0
M  V30 1356 C 133.208 1.67313 -1.28723 0
M  V30 1357 O 132.556 2.24179 -0.442247 0
M  V30 1358 C 132.766 0.355445 -3.47185 0
M  V30 1359 C 134.114 0.601007 -4.20325 0
M  V30 1360 O 135.138 0.437106 -3.53508 0
M  V30 1361 O 133.997 0.919322 -5.38712 0
M  V30 1362 H 131.091 0.174033 -0.808481 0
M  V30 1363 H 133.637 -0.406638 -1.64756 0
M  V30 1364 H 132.409 -0.611729 -3.86489 0
M  V30 1365 H 132.032 1.1027 -3.82003 0
M  V30 1366 N 133.029 1.57378 -0.0835403 0
M  V30 1367 C 134.257 1.98263 0.59157 0
M  V30 1368 C 134.672 0.962302 1.62435 0
M  V30 1369 O 134.029 -0.049581 1.82433 0
M  V30 1370 C 134.08 3.39214 1.24965 0
M  V30 1371 O 133.801 4.37339 0.258186 0
M  V30 1372 C 135.302 3.95038 2.01147 0
M  V30 1373 H 132.522 0.651773 0.159477 0
M  V30 1374 H 135.066 2.03878 -0.159415 0
M  V30 1375 H 133.221 3.34649 1.95164 0
M  V30 1376 H 133.635 5.19371 0.731734 0
M  V30 1377 H 135.109 4.95848 2.42567 0
M  V30 1378 H 135.586 3.32222 2.87272 0
M  V30 1379 H 136.192 4.0304 1.35789 0
M  V30 1380 N 134.507 -0.190092 1.56449 0
M  V30 1381 C 135.47 -1.21925 1.9408 0
M  V30 1382 C 136.47 -1.38176 0.822431 0
M  V30 1383 O 137.66 -1.35903 1.08977 0
M  V30 1384 C 134.792 -2.58773 2.21922 0
M  V30 1385 H 135.985 -0.897464 2.86157 0
M  V30 1386 H 133.538 -0.43181 1.50217 0
M  V30 1387 H 134.273 -2.95998 1.32499 0
M  V30 1388 H 134.058 -2.48348 3.03424 0
M  V30 1389 H 135.548 -3.32978 2.52022 0
M  V30 1390 N 135.985 -1.50799 -0.457987 0
M  V30 1391 C 137.231 -1.62683 -1.21088 0
M  V30 1392 C 137.564 -0.332268 -1.91336 0
M  V30 1393 O 136.839 0.667043 -1.82704 0
M  V30 1394 C 137.122 -2.81615 -2.24422 0
M  V30 1395 C 136.975 -4.20989 -1.58392 0
M  V30 1396 C 138.294 -2.96085 -3.2561 0
M  V30 1397 H 135.413 -0.592087 -0.438864 0
M  V30 1398 H 138.055 -1.83225 -0.50286 0
M  V30 1399 H 136.205 -2.64231 -2.84806 0
M  V30 1400 H 137.877 -4.49994 -1.01504 0
M  V30 1401 H 136.12 -4.24641 -0.886704 0
M  V30 1402 H 136.791 -5.0016 -2.33547 0
M  V30 1403 H 139.267 -3.12042 -2.75262 0
M  V30 1404 H 138.143 -3.80902 -3.95228 0
M  V30 1405 H 138.404 -2.0726 -3.90507 0
M  V30 1406 N 137.463 0.71206 -1.40597 0
M  V30 1407 C 138.693 1.49894 -1.42181 0
M  V30 1408 C 139.101 1.89189 -0.0208078 0
M  V30 1409 O 138.444 1.56223 0.966436 0
M  V30 1410 C 138.506 2.80215 -2.25211 0
M  V30 1411 C 138.17 2.63221 -3.73582 0
M  V30 1412 C 139.167 2.30249 -4.66135 0
M  V30 1413 C 136.852 2.79376 -4.17438 0
M  V30 1414 C 138.846 2.13645 -6.00529 0
M  V30 1415 C 136.533 2.6239 -5.51901 0
M  V30 1416 C 137.531 2.29573 -6.43262 0
M  V30 1417 O 137.219 2.12719 -7.75246 0
M  V30 1418 H 136.951 0.469031 -0.486812 0
M  V30 1419 H 139.505 0.88564 -1.85326 0
M  V30 1420 H 137.735 3.4389 -1.76852 0
M  V30 1421 H 139.424 3.41947 -2.18694 0
M  V30 1422 H 140.19 2.17398 -4.33547 0
M  V30 1423 H 136.069 3.03906 -3.46644 0
M  V30 1424 H 139.613 1.87953 -6.71803 0
M  V30 1425 H 135.51 2.74826 -5.84073 0
M  V30 1426 H 136.278 2.27611 -7.86216 0
M  V30 1427 N 138.941 1.26152 0.944643 0
M  V30 1428 C 140.171 1.14094 1.72239 0
M  V30 1429 C 140.579 -0.306931 1.86694 0
M  V30 1430 O 139.922 -1.22222 1.3714 0
M  V30 1431 C 139.984 1.73316 3.14963 0
M  V30 1432 C 139.648 3.2239 3.23904 0
M  V30 1433 C 140.645 4.19252 3.07447 0
M  V30 1434 C 138.33 3.62788 3.47405 0
M  V30 1435 C 140.324 5.54491 3.14353 0
M  V30 1436 C 138.011 4.98162 3.53947 0
M  V30 1437 C 139.009 5.93823 3.37436 0
M  V30 1438 O 138.697 7.26732 3.43679 0
M  V30 1439 H 138.429 0.398292 0.546205 0
M  V30 1440 H 140.983 1.67201 1.19301 0
M  V30 1441 H 139.213 1.14667 3.69308 0
M  V30 1442 H 140.902 1.56214 3.74636 0
M  V30 1443 H 141.668 3.8938 2.8915 0
M  V30 1444 H 137.547 2.88816 3.59313 0
M  V30 1445 H 141.091 6.29137 3.01384 0
M  V30 1446 H 136.988 5.27695 3.71763 0
M  V30 1447 H 137.756 7.3496 3.60245 0
M  V30 1448 N 140.419 -1.14872 1.07899 0
M  V30 1449 C 141.659 -1.8745 0.814965 0
M  V30 1450 C 142.023 -1.80758 -0.64733 0
M  V30 1451 O 143.224 -2.48422 -1.02664 0
M  V30 1452 C 141.495 -3.32286 1.31607 0
M  V30 1453 S 143.054 -4.22537 1.18357 0
M  V30 1454 H 139.872 -0.646833 0.295174 0
M  V30 1455 H 142.474 -1.38555 1.37923 0
M  V30 1456 H 141.178 -3.34703 2.37491 0
M  V30 1457 H 140.709 -3.86238 0.747261 0
M  V30 1458 H 142.724 -4.96044 0.124586 0
M  V30 1459 N 141.898 -0.863906 -1.31812 0
M  V30 1460 C 142.861 -0.320212 -2.26952 0
M  V30 1461 C 143.861 0.525369 -1.51975 0
M  V30 1462 O 145.051 0.335547 -1.70938 0
M  V30 1463 C 142.183 0.545919 -3.365 0
M  V30 1464 H 143.376 -1.16004 -2.76556 0
M  V30 1465 H 140.929 -0.638995 -1.42641 0
M  V30 1466 H 141.664 1.40718 -2.92179 0
M  V30 1467 H 141.449 -0.0594674 -3.92055 0
M  V30 1468 H 142.939 0.918796 -4.07367 0
M  V30 1469 N 143.376 1.44774 -0.622745 0
M  V30 1470 C 144.792 1.56986 -0.287652 0
M  V30 1471 C 144.992 1.61167 1.20944 0
M  V30 1472 O 144.048 1.55015 1.99315 0
M  V30 1473 C 145.361 2.84551 -0.972188 0
M  V30 1474 C 146.909 2.9825 -0.949536 0
M  V30 1475 C 147.384 4.28605 -1.61437 0
M  V30 1476 N 148.875 4.35399 -1.58057 0
M  V30 1477 C 149.61 5.34964 -2.064 0
M  V30 1478 N 149.106 6.40981 -2.62897 0
M  V30 1479 N 150.899 5.26419 -1.97078 0
M  V30 1480 H 143.05 1.40304 -1.59463 0
M  V30 1481 H 145.313 0.671794 -0.668878 0
M  V30 1482 H 145.019 2.87417 -2.02693 0
M  V30 1483 H 144.893 3.73807 -0.504771 0
M  V30 1484 H 147.28 2.94941 0.0967067 0
M  V30 1485 H 147.361 2.10364 -1.45536 0
M  V30 1486 H 147.005 4.32672 -2.66002 0
M  V30 1487 H 146.935 5.15334 -1.08344 0
M  V30 1488 H 149.426 3.59397 -1.16801 0
M  V30 1489 H 149.739 7.13225 -2.97539 0
M  V30 1490 H 148.084 6.4169 -2.66943 0
M  V30 1491 H 151.275 4.42504 -1.52669 0
M  V30 1492 H 151.448 6.03861 -2.35066 0
M  V30 1493 N 144.854 0.36279 1.53368 0
M  V30 1494 C 146.103 -0.22888 2.00397 0
M  V30 1495 C 146.416 -1.50096 1.25421 0
M  V30 1496 O 147.622 -2.17106 1.63025 0
M  V30 1497 C 146.078 -0.458417 3.56969 0
M  V30 1498 C 145.686 0.798877 4.4082 0
M  V30 1499 C 147.43 -1.00789 4.12361 0
M  V30 1500 C 145.337 0.539078 5.88938 0
M  V30 1501 H 144.267 -0.089305 0.748693 0
M  V30 1502 H 146.918 0.481099 1.77081 0
M  V30 1503 H 145.3 -1.22959 3.76427 0
M  V30 1504 H 146.474 1.57262 4.33134 0
M  V30 1505 H 144.789 1.27137 3.96516 0
M  V30 1506 H 147.386 -1.21754 5.20653 0
M  V30 1507 H 147.729 -1.9692 3.66781 0
M  V30 1508 H 148.262 -0.296961 3.9669 0
M  V30 1509 H 145.001 1.47064 6.3879 0
M  V30 1510 H 144.521 -0.196222 5.99479 0
M  V30 1511 H 146.2 0.163542 6.46793 0
M  V30 1512 N 146.332 -1.57332 0.0918853 0
M  V30 1513 C 147.279 -2.13847 -0.868211 0
M  V30 1514 C 148.249 -1.05618 -1.28196 0
M  V30 1515 O 149.434 -1.33387 -1.36427 0
M  V30 1516 C 146.574 -2.72062 -2.12312 0
M  V30 1517 C 145.687 -3.94514 -1.7602 0
M  V30 1518 C 144.822 -4.40903 -2.96273 0
M  V30 1519 C 143.861 -5.55953 -2.56092 0
M  V30 1520 N 142.998 -5.97209 -3.69169 0
M  V30 1521 H 147.838 -2.95575 -0.379406 0
M  V30 1522 H 145.375 -1.46048 -0.175606 0
M  V30 1523 H 147.333 -3.03931 -2.858 0
M  V30 1524 H 145.963 -1.93068 -2.58698 0
M  V30 1525 H 145.015 -3.68979 -0.925135 0
M  V30 1526 H 146.327 -4.7802 -1.42472 0
M  V30 1527 H 145.481 -4.74539 -3.78018 0
M  V30 1528 H 144.22 -3.56291 -3.33029 0
M  V30 1529 H 143.225 -5.21948 -1.72773 0
M  V30 1530 H 144.45 -6.42311 -2.20484 0
M  V30 1531 H 142.396 -5.15543 -4.05649 0
M  V30 1532 H 142.313 -6.75504 -3.39456 0
M  V30 1533 H 143.581 -6.35475 -4.51434 0
M  V30 1534 N 147.81 0.181792 -1.56548 0
M  V30 1535 C 148.74 1.22765 -1.98623 0
M  V30 1536 C 149.721 1.46747 -0.860189 0
M  V30 1537 O 150.906 1.58259 -1.12551 0
M  V30 1538 C 148.036 2.56894 -2.33715 0
M  V30 1539 C 146.99 2.475 -3.49182 0
M  V30 1540 C 146.316 3.86023 -3.69986 0
M  V30 1541 C 147.616 1.98866 -4.82959 0
M  V30 1542 H 149.31 0.877942 -2.86239 0
M  V30 1543 H 146.856 0.42088 -1.37712 0
M  V30 1544 H 148.809 3.30253 -2.61746 0
M  V30 1545 H 147.533 2.93632 -1.42997 0
M  V30 1546 H 146.192 1.76596 -3.21262 0
M  V30 1547 H 145.84 4.20136 -2.76576 0
M  V30 1548 H 145.54 3.80609 -4.47672 0
M  V30 1549 H 147.064 4.60984 -4.00407 0
M  V30 1550 H 148.478 2.61992 -5.09934 0
M  V30 1551 H 146.875 2.04424 -5.64208 0
M  V30 1552 H 147.945 0.942465 -4.75653 0
M  V30 1553 N 149.288 1.51039 0.449983 0
M  V30 1554 C 150.536 1.62759 1.19808 0
M  V30 1555 C 150.857 0.339981 1.92013 0
M  V30 1556 O 150.127 -0.643606 1.85026 0
M  V30 1557 H 148.707 0.599811 0.445237 0
M  V30 1558 H 151.369 1.87914 0.517138 0
M  V30 1559 H 150.465 2.44911 1.93455 0
M  V30 1560 N 150.766 -0.704594 1.40972 0
M  V30 1561 C 151.994 -1.49354 1.43182 0
M  V30 1562 C 152.409 -1.88768 0.0345508 0
M  V30 1563 O 151.766 -1.56184 -0.944081 0
M  V30 1564 C 151.817 -2.76187 2.33244 0
M  V30 1565 O 151.538 -2.38436 3.67532 0
M  V30 1566 C 153.039 -3.7 2.44162 0
M  V30 1567 H 150.259 -0.460559 0.487982 0
M  V30 1568 H 152.803 -0.868261 1.85153 0
M  V30 1569 H 150.958 -3.34974 1.94606 0
M  V30 1570 H 151.372 -3.20126 4.15475 0
M  V30 1571 H 152.846 -4.55803 3.11364 0
M  V30 1572 H 153.323 -4.13867 1.47006 0
M  V30 1573 H 153.929 -3.17121 2.83398 0
M  V30 1574 N 152.244 -1.26651 -0.937939 0
M  V30 1575 C 153.49 -1.12553 -1.687 0
M  V30 1576 C 153.823 0.329782 -1.91379 0
M  V30 1577 O 153.098 1.24202 -1.4968 0
M  V30 1578 C 153.381 -1.89862 -3.05981 0
M  V30 1579 C 153.234 -3.43318 -2.90607 0
M  V30 1580 C 154.553 -1.69499 -4.0615 0
M  V30 1581 H 151.672 -0.410257 -0.612257 0
M  V30 1582 H 154.314 -1.55685 -1.08913 0
M  V30 1583 H 152.464 -1.53204 -3.57017 0
M  V30 1584 H 154.136 -3.89747 -2.46769 0
M  V30 1585 H 152.379 -3.70179 -2.26164 0
M  V30 1586 H 153.05 -3.92642 -3.8799 0
M  V30 1587 H 155.526 -2.01442 -3.64088 0
M  V30 1588 H 154.402 -2.26002 -5.00214 0
M  V30 1589 H 154.663 -0.640365 -4.37438 0
M  V30 1590 N 153.722 1.14298 -1.08507 0
M  V30 1591 C 154.95 1.89219 -0.836876 0
M  V30 1592 C 155.365 1.78638 0.611054 0
M  V30 1593 O 154.722 1.14643 1.41998 0
M  V30 1594 C 154.773 3.39158 -1.25116 0
M  V30 1595 O 154.494 3.49449 -2.64229 0
M  V30 1596 C 155.995 4.31073 -1.03398 0
M  V30 1597 H 153.215 0.599328 -0.301739 0
M  V30 1598 H 155.759 1.44746 -1.44461 0
M  V30 1599 H 153.914 3.81251 -0.687514 0
M  V30 1600 H 154.328 4.42589 -2.81452 0
M  V30 1601 H 155.802 5.34646 -1.37323 0
M  V30 1602 H 156.279 4.3919 0.0289259 0
M  V30 1603 H 156.885 3.94738 -1.58311 0
M  V30 1604 N 155.201 0.870884 1.31352 0
M  V30 1605 C 156.429 0.49677 2.00848 0
M  V30 1606 C 156.844 -0.910998 1.65367 0
M  V30 1607 O 156.201 -1.59696 0.883374 0
M  V30 1608 C 156.252 0.645308 3.55694 0
M  V30 1609 O 155.973 1.99764 3.89905 0
M  V30 1610 C 157.474 0.272326 4.42463 0
M  V30 1611 H 154.694 0.193462 0.642506 0
M  V30 1612 H 157.238 1.1723 1.67563 0
M  V30 1613 H 155.393 0.0173176 3.87396 0
M  V30 1614 H 155.807 2.00607 4.84621 0
M  V30 1615 H 157.281 0.427208 5.50344 0
M  V30 1616 H 157.758 -0.788587 4.32062 0
M  V30 1617 H 158.364 0.876054 4.1618 0
M  V30 1618 N 156.679 -1.44442 0.630414 0
M  V30 1619 C 157.925 -2.02351 0.134816 0
M  V30 1620 C 158.258 -1.4947 -1.23986 0
M  V30 1621 O 157.533 -0.678475 -1.82283 0
M  V30 1622 C 157.816 -3.59898 0.120707 0
M  V30 1623 C 157.669 -4.23063 1.52767 0
M  V30 1624 C 158.988 -4.36585 -0.555127 0
M  V30 1625 H 156.107 -0.73527 0.0504646 0
M  V30 1626 H 158.749 -1.72022 0.806751 0
M  V30 1627 H 156.899 -3.85868 -0.451477 0
M  V30 1628 H 158.571 -4.08202 2.14869 0
M  V30 1629 H 156.814 -3.80586 2.08175 0
M  V30 1630 H 157.485 -5.32071 1.46984 0
M  V30 1631 H 159.961 -4.16044 -0.0685429 0
M  V30 1632 H 158.837 -5.46294 -0.534185 0
M  V30 1633 H 159.098 -4.11138 -1.62535 0
M  V30 1634 N 158.157 -0.370918 -1.53173 0
M  V30 1635 C 159.434 0.273754 -1.93675 0
M  V30 1636 C 159.814 1.65938 -1.3049 0
M  V30 1637 O 159.162 2.23698 -0.465999 0
M  V30 1638 C 159.372 0.318602 -3.47543 0
M  V30 1639 C 160.72 0.556392 -4.20939 0
M  V30 1640 O 161.744 0.399587 -3.53952 0
M  V30 1641 O 160.603 0.862133 -5.39657 0
M  V30 1642 H 157.697 0.165448 -0.810281 0
M  V30 1643 H 160.243 -0.42409 -1.64315 0
M  V30 1644 H 159.015 -0.652687 -3.85818 0
M  V30 1645 H 158.638 1.06212 -3.83151 0
M  V30 1646 N 159.635 1.57281 -0.100228 0
M  V30 1647 C 160.865 1.98591 0.569681 0
M  V30 1648 C 161.273 0.978315 1.61943 0
M  V30 1649 O 160.616 -0.0396108 1.83657 0
M  V30 1650 C 160.678 3.36282 1.271 0
M  V30 1651 C 160.342 4.55488 0.371409 0
M  V30 1652 C 161.339 5.18491 -0.382504 0
M  V30 1653 C 159.024 5.01474 0.287965 0
M  V30 1654 C 161.018 6.25852 -1.20779 0
M  V30 1655 C 158.705 6.08701 -0.540965 0
M  V30 1656 C 159.703 6.70755 -1.28749 0
M  V30 1657 O 159.391 7.75914 -2.10269 0
M  V30 1658 H 159.123 0.65752 0.156982 0
M  V30 1659 H 161.677 2.0463 -0.177734 0
M  V30 1660 H 159.907 3.26941 2.0651 0
M  V30 1661 H 161.596 3.62005 1.83595 0
M  V30 1662 H 162.362 4.83891 -0.3278 0
M  V30 1663 H 158.241 4.52932 0.858689 0
M  V30 1664 H 161.785 6.74218 -1.79096 0
M  V30 1665 H 157.682 6.42732 -0.597131 0
M  V30 1666 H 158.45 7.92925 -2.03007 0
M  V30 1667 N 161.113 -0.173488 1.56642 0
M  V30 1668 C 162.359 -0.887108 1.83035 0
M  V30 1669 C 162.714 -1.79965 0.680461 0
M  V30 1670 O 162.007 -1.88854 -0.323225 0
M  V30 1671 C 162.201 -1.72069 3.13252 0
M  V30 1672 C 162.03 -0.89035 4.40798 0
M  V30 1673 C 160.8 -0.566282 5.02117 0
M  V30 1674 C 162.998 -0.232921 5.13772 0
M  V30 1675 N 160.98 0.280427 6.13259 0
M  V30 1676 C 162.351 0.475046 6.18177 0
M  V30 1677 C 164.406 -0.150863 4.97671 0
M  V30 1678 C 163.109 1.25729 7.08227 0
M  V30 1679 C 165.135 0.618039 5.88162 0
M  V30 1680 C 164.497 1.31438 6.92029 0
M  V30 1681 H 160.596 -0.303303 0.720785 0
M  V30 1682 H 163.18 -0.154244 1.94088 0
M  V30 1683 H 161.351 -2.42499 3.03395 0
M  V30 1684 H 163.083 -2.37545 3.2765 0
M  V30 1685 H 159.838 -0.895852 4.6505 0
M  V30 1686 H 160.262 0.694027 6.73433 0
M  V30 1687 H 164.904 -0.674868 4.17379 0
M  V30 1688 H 162.622 1.79265 7.87966 0
M  V30 1689 H 166.208 0.683173 5.77775 0
M  V30 1690 H 165.088 1.89981 7.6084 0
M  V30 1691 N 162.591 -1.51276 -0.441967 0
M  V30 1692 C 163.839 -1.63392 -1.18943 0
M  V30 1693 C 164.16 -0.350159 -1.9183 0
M  V30 1694 O 163.43 0.633784 -1.85364 0
M  V30 1695 H 162.01 -0.602164 -0.442049 0
M  V30 1696 H 164.672 -1.88186 -0.507165 0
M  V30 1697 H 163.768 -2.45934 -1.92154 0
M  V30 1698 N 164.069 0.697108 -1.41344 0
M  V30 1699 C 165.001 1.8224 -1.39001 0
M  V30 1700 C 166.014 1.60152 -0.292428 0
M  V30 1701 O 167.203 1.69684 -0.554048 0
M  V30 1702 C 164.303 3.18976 -1.14489 0
M  V30 1703 C 163.476 3.68105 -2.36258 0
M  V30 1704 C 162.535 4.83506 -2.07625 0
M  V30 1705 O 161.561 4.95201 -2.8065 0
M  V30 1706 N 162.763 5.70637 -1.06555 0
M  V30 1707 H 165.528 1.84742 -2.35988 0
M  V30 1708 H 163.089 0.87937 -1.35936 0
M  V30 1709 H 165.081 3.93801 -0.932885 0
M  V30 1710 H 163.651 3.11508 -0.261043 0
M  V30 1711 H 162.871 2.84204 -2.7317 0
M  V30 1712 H 164.159 3.97667 -3.17393 0
M  V30 1713 H 163.557 5.63817 -0.461125 0
M  V30 1714 H 162.114 6.45368 -0.913444 0
M  V30 1715 N 165.547 1.27147 0.931209 0
M  V30 1716 C 166.795 1.13055 1.6752 0
M  V30 1717 C 167.116 -0.324791 1.92276 0
M  V30 1718 O 166.386 -1.22775 1.52654 0
M  V30 1719 H 164.966 0.415391 0.620854 0
M  V30 1720 H 167.628 1.59623 1.11833 0
M  V30 1721 H 166.724 1.65694 2.64485 0
M  V30 1722 N 167.025 -1.13721 1.09112 0
M  V30 1723 C 168.253 -1.88773 0.846899 0
M  V30 1724 C 168.668 -1.7896 -0.601572 0
M  V30 1725 O 168.025 -1.15394 -1.41388 0
M  V30 1726 C 168.076 -3.3849 1.26913 0
M  V30 1727 O 167.797 -3.48043 2.66079 0
M  V30 1728 C 169.298 -4.30518 1.05682 0
M  V30 1729 H 166.518 -0.59772 0.304914 0
M  V30 1730 H 169.062 -1.43977 1.45227 0
M  V30 1731 H 167.217 -3.80881 0.707723 0
M  V30 1732 H 167.631 -4.4109 2.83795 0
M  V30 1733 H 169.105 -5.3391 1.40156 0
M  V30 1734 H 169.582 -4.392 -0.00563416 0
M  V30 1735 H 170.188 -3.93893 1.60402 0
M  V30 1736 N 168.503 -0.877838 -1.30888 0
M  V30 1737 C 169.433 -0.35534 -2.3078 0
M  V30 1738 C 170.414 0.557994 -1.60687 0
M  V30 1739 O 171.599 0.473355 -1.88343 0
M  V30 1740 C 168.729 0.437221 -3.44537 0
M  V30 1741 C 167.683 -0.383715 -4.26276 0
M  V30 1742 C 167.009 0.535014 -5.32017 0
M  V30 1743 C 168.309 -1.62201 -4.96476 0
M  V30 1744 H 170.003 -1.19007 -2.74732 0
M  V30 1745 H 167.549 -0.573698 -1.32078 0
M  V30 1746 H 169.502 0.813334 -4.13477 0
M  V30 1747 H 168.226 1.30553 -2.99372 0
M  V30 1748 H 166.885 -0.741874 -3.59015 0
M  V30 1749 H 166.533 1.40083 -4.831 0
M  V30 1750 H 166.233 -0.0104211 -5.87599 0
M  V30 1751 H 167.757 0.907799 -6.03814 0
M  V30 1752 H 169.171 -1.31689 -5.5797 0
M  V30 1753 H 167.568 -2.10711 -5.61891 0
M  V30 1754 H 168.638 -2.37044 -4.23011 0
M  V30 1755 N 169.982 1.44106 -0.638065 0
M  V30 1756 C 171.228 2.02277 -0.145546 0
M  V30 1757 C 171.561 1.50125 1.23191 0
M  V30 1758 O 170.836 0.688133 1.8192 0
M  V30 1759 C 171.119 3.59829 -0.139791 0
M  V30 1760 C 170.972 4.22247 -1.55008 0
M  V30 1761 C 172.291 4.36873 0.531966 0
M  V30 1762 H 169.41 0.734992 -0.0543632 0
M  V30 1763 H 172.052 1.71592 -0.815863 0
M  V30 1764 H 170.202 3.86102 0.431007 0
M  V30 1765 H 171.874 4.07057 -2.1703 0
M  V30 1766 H 170.117 3.79476 -2.10191 0
M  V30 1767 H 170.788 5.31284 -1.49804 0
M  V30 1768 H 173.264 4.16074 0.0464781 0
M  V30 1769 H 172.14 5.4657 0.505206 0
M  V30 1770 H 172.401 4.11995 1.60352 0
M  V30 1771 N 171.46 0.379036 1.52974 0
M  V30 1772 C 172.688 -0.20679 2.05864 0
M  V30 1773 C 173.103 -1.41356 1.25155 0
M  V30 1774 O 172.46 -1.8009 0.295588 0
M  V30 1775 C 172.511 -0.587045 3.56702 0
M  V30 1776 O 172.232 0.571776 4.34353 0
M  V30 1777 C 173.733 -1.22983 4.25899 0
M  V30 1778 H 170.953 -0.0336123 0.670158 0
M  V30 1779 H 173.497 0.541298 1.97206 0
M  V30 1780 H 171.652 -1.28504 3.65466 0
M  V30 1781 H 172.066 0.261544 5.23847 0
M  V30 1782 H 173.54 -1.44635 5.32715 0
M  V30 1783 H 174.017 -2.19416 3.80465 0
M  V30 1784 H 174.623 -0.572892 4.21424 0
M  V30 1785 N 172.938 -1.57226 0.108567 0
M  V30 1786 C 174.184 -1.95121 -0.552761 0
M  V30 1787 C 174.517 -0.991345 -1.66991 0
M  V30 1788 O 173.792 -0.0267211 -1.94482 0
M  V30 1789 C 174.075 -3.43039 -1.09528 0
M  V30 1790 C 173.928 -4.49797 0.0177332 0
M  V30 1791 C 175.247 -3.92567 -1.98945 0
M  V30 1792 H 172.366 -0.709496 -0.199461 0
M  V30 1793 H 175.008 -1.89126 0.182011 0
M  V30 1794 H 173.158 -3.48279 -1.72146 0
M  V30 1795 H 174.83 -4.56661 0.652584 0
M  V30 1796 H 173.073 -4.284 0.682309 0
M  V30 1797 H 173.744 -5.50528 -0.402919 0
M  V30 1798 H 176.22 -3.89565 -1.46214 0
M  V30 1799 H 175.096 -4.96605 -2.33827 0
M  V30 1800 H 175.357 -3.32648 -2.91201 0
M  V30 1801 N 174.416 0.165178 -1.56732 0
M  V30 1802 C 175.641 0.900253 -1.86843 0
M  V30 1803 C 176.066 1.74766 -0.695596 0
M  V30 1804 O 175.424 1.77786 0.35522 0
M  V30 1805 C 175.472 1.74777 -3.15413 0
M  V30 1806 O 174.576 2.85007 -2.98068 0
M  V30 1807 H 173.917 0.251832 -0.614391 0
M  V30 1808 H 176.447 0.161468 -2.03962 0
M  V30 1809 H 176.457 2.14646 -3.46974 0
M  V30 1810 H 175.132 1.12537 -4.00385 0
M  V30 1811 H 173.709 2.48676 -2.77875 0
M  V30 1812 N 175.894 1.51508 0.433938 0
M  V30 1813 C 177.119 1.68443 1.21003 0
M  V30 1814 C 177.544 0.382636 1.84167 0
M  V30 1815 O 176.902 -0.65755 1.68956 0
M  V30 1816 C 176.95 2.80405 2.26727 0
M  V30 1817 O 176.054 2.44245 3.32292 0
M  V30 1818 H 175.395 0.561536 0.354363 0
M  V30 1819 H 177.925 1.9809 0.512024 0
M  V30 1820 H 177.935 3.0459 2.71457 0
M  V30 1821 H 176.61 3.74867 1.80132 0
M  V30 1822 H 175.187 2.30644 2.93015 0
M  V30 1823 N 177.372 -0.689602 1.41712 0
M  V30 1824 C 178.335 -1.78521 1.43746 0
M  V30 1825 C 179.335 -1.57436 0.327191 0
M  V30 1826 O 180.525 -1.64 0.587348 0
M  V30 1827 C 177.657 -3.16971 1.25467 0
M  V30 1828 H 178.85 -1.78108 2.41283 0
M  V30 1829 H 176.403 -0.89781 1.27942 0
M  V30 1830 H 177.138 -3.23019 0.287948 0
M  V30 1831 H 176.923 -3.33678 2.05917 0
M  V30 1832 H 178.413 -3.96935 1.2974 0
M  V30 1833 N 178.85 -1.27639 -0.924453 0
M  V30 1834 C 180.075 -1.17101 -1.71179 0
M  V30 1835 C 180.5 0.268134 -1.86179 0
M  V30 1836 O 179.858 1.19415 -1.36418 0
M  V30 1837 C 179.906 -1.86313 -3.08739 0
M  V30 1838 O 179.01 -1.16331 -3.95652 0
M  V30 1839 H 178.351 -0.407091 -0.524569 0
M  V30 1840 H 180.881 -1.68767 -1.15666 0
M  V30 1841 H 180.891 -1.938 -3.59034 0
M  V30 1842 H 179.566 -2.91001 -2.97138 0
M  V30 1843 H 178.143 -1.16935 -3.54091 0
M  V30 1844 N 180.328 1.1314 -1.09713 0
M  V30 1845 C 181.556 1.88321 -0.856898 0
M  V30 1846 C 181.971 1.79276 0.592073 0
M  V30 1847 O 181.328 1.16142 1.40774 0
M  V30 1848 C 181.379 3.37812 -1.28706 0
M  V30 1849 O 181.1 3.46627 -2.67921 0
M  V30 1850 C 182.601 4.29952 -1.07964 0
M  V30 1851 H 179.821 0.596094 -0.308079 0
M  V30 1852 H 182.365 1.43205 -1.45988 0
M  V30 1853 H 180.52 3.805 -0.727912 0
M  V30 1854 H 180.934 4.39579 -2.8613 0
M  V30 1855 H 182.408 5.33159 -1.42986 0
M  V30 1856 H 182.885 4.39196 -0.0176577 0
M  V30 1857 H 183.491 3.93036 -1.62489 0
M  V30 1858 N 181.806 0.884767 1.30421 0
M  V30 1859 C 182.753 0.349642 2.28136 0
M  V30 1860 C 183.723 -0.560061 1.56373 0
M  V30 1861 O 184.908 -0.488524 1.8444 0
M  V30 1862 C 182.048 -0.42999 3.42411 0
M  V30 1863 C 181.161 0.508907 4.28992 0
M  V30 1864 C 180.296 -0.286301 5.30428 0
M  V30 1865 C 179.335 0.648079 6.08659 0
M  V30 1866 N 178.472 -0.111792 7.02011 0
M  V30 1867 H 183.312 1.18807 2.73293 0
M  V30 1868 H 180.849 0.597231 1.3443 0
M  V30 1869 H 182.807 -0.897923 4.07423 0
M  V30 1870 H 181.437 -1.23299 2.98324 0
M  V30 1871 H 180.489 1.09533 3.64289 0
M  V30 1872 H 181.801 1.22475 4.8353 0
M  V30 1873 H 180.955 -0.816098 6.01186 0
M  V30 1874 H 179.694 -1.03536 4.76583 0
M  V30 1875 H 178.699 1.18951 5.36778 0
M  V30 1876 H 179.924 1.39623 6.64592 0
M  V30 1877 H 177.87 -0.843395 6.50556 0
M  V30 1878 H 177.787 0.544429 7.54037 0
M  V30 1879 H 179.055 -0.622339 7.77012 0
M  V30 1880 N 183.284 -1.43765 0.645699 0
M  V30 1881 C 184.532 -2.01499 0.155731 0
M  V30 1882 C 184.853 -1.51151 -1.232 0
M  V30 1883 O 184.123 -0.721044 -1.82148 0
M  V30 1884 H 182.703 -0.745003 0.0545817 0
M  V30 1885 H 185.365 -1.76075 0.835677 0
M  V30 1886 H 184.461 -3.1181 0.134577 0
M  V30 1887 N 184.763 -0.387143 -1.52771 0
M  V30 1888 C 186.174 0.0873634 -1.86495 0
M  V30 1889 C 186.525 1.46336 -1.30691 0
M  V30 1890 O 185.65 2.068 -0.637409 0
M  V30 1891 C 186.245 0.165305 -3.38396 0
M  V30 1892 C 184.804 0.584101 -3.7184 0
M  V30 1893 C 183.951 -0.255279 -2.76122 0
M  V30 1894 H 186.902 -0.605104 -1.46711 0
M  V30 1895 H 186.923 0.984848 -3.67534 0
M  V30 1896 H 186.435 -0.836301 -3.78982 0
M  V30 1897 H 184.536 1.59315 -3.36823 0
M  V30 1898 H 184.649 0.343749 -4.77865 0
M  V30 1899 H 183.013 0.279126 -2.53166 0
M  V30 1900 H 183.796 -1.25482 -3.19545 0
M  V30 1901 N 186.241 1.57166 -0.116904 0
M  V30 1902 C 187.466 1.999 0.55271 0
M  V30 1903 C 187.891 0.996039 1.59564 0
M  V30 1904 O 187.249 -0.032556 1.81271 0
M  V30 1905 C 187.297 3.4152 1.15742 0
M  V30 1906 O 186.401 3.44106 2.27299 0
M  V30 1907 H 185.742 0.649447 0.138258 0
M  V30 1908 H 188.272 2.03573 -0.204759 0
M  V30 1909 H 188.282 3.79684 1.49346 0
M  V30 1910 H 186.957 4.14034 0.393493 0
M  V30 1911 H 185.534 3.17759 1.9515 0
M  V30 1912 N 187.719 -0.156864 1.56817 0
M  V30 1913 C 188.965 -0.872416 1.83076 0
M  V30 1914 C 189.298 -1.81261 0.697001 0
M  V30 1915 O 188.573 -1.92171 -0.30008 0
M  V30 1916 C 188.856 -1.65551 3.19789 0
M  V30 1917 C 188.709 -0.737467 4.43713 0
M  V30 1918 C 190.028 -2.62012 3.53606 0
M  V30 1919 H 187.147 -0.315715 0.665953 0
M  V30 1920 H 189.789 -0.138004 1.89498 0
M  V30 1921 H 187.939 -2.28159 3.14445 0
M  V30 1922 H 189.611 -0.123143 4.61136 0
M  V30 1923 H 187.854 -0.0464067 4.33775 0
M  V30 1924 H 188.525 -1.32122 5.35955 0
M  V30 1925 H 191.001 -2.09525 3.59497 0
M  V30 1926 H 189.877 -3.13861 4.50314 0
M  V30 1927 H 190.138 -3.42902 2.79053 0
M  V30 1928 N 189.197 -1.51736 -0.425897 0
M  V30 1929 C 190.444 -1.6497 -1.17436 0
M  V30 1930 C 190.772 -0.371445 -1.9092 0
M  V30 1931 O 190.027 0.644963 -1.84767 0
M  V30 1932 C 190.326 -2.81103 -2.20717 0
M  V30 1933 C 189.992 -4.19954 -1.64162 0
M  V30 1934 C 188.654 -4.57725 -1.48462 0
M  V30 1935 C 191.006 -5.06552 -1.22696 0
M  V30 1936 C 188.334 -5.79789 -0.897873 0
M  V30 1937 C 190.686 -6.29205 -0.654464 0
M  V30 1938 C 189.35 -6.6574 -0.484456 0
M  V30 1939 H 188.62 -0.603668 -0.429727 0
M  V30 1940 H 191.267 -1.85798 -0.463829 0
M  V30 1941 H 189.572 -2.54542 -2.97852 0
M  V30 1942 H 191.269 -2.8854 -2.78471 0
M  V30 1943 H 187.859 -3.90181 -1.77361 0
M  V30 1944 H 192.043 -4.77968 -1.33642 0
M  V30 1945 H 187.299 -6.06733 -0.75402 0
M  V30 1946 H 191.473 -6.95643 -0.324694 0
M  V30 1947 H 189.1 -7.60195 -0.0276833 0
M  V30 1948 N 190.675 0.682077 -1.42076 0
M  V30 1949 C 192.086 1.26246 -1.37546 0
M  V30 1950 C 192.437 1.96092 -0.0651481 0
M  V30 1951 O 191.562 1.99587 0.836297 0
M  V30 1952 C 192.157 2.29594 -2.49143 0
M  V30 1953 C 190.716 2.83175 -2.47969 0
M  V30 1954 C 189.863 1.57395 -2.28303 0
M  V30 1955 H 192.814 0.475937 -1.51395 0
M  V30 1956 H 192.835 3.11175 -2.18976 0
M  V30 1957 H 192.347 1.78729 -3.44496 0
M  V30 1958 H 190.448 3.3818 -1.56413 0
M  V30 1959 H 190.561 3.32687 -3.44755 0
M  V30 1960 H 188.925 1.83699 -1.76428 0
M  V30 1961 H 189.708 1.08507 -3.25701 0
M  V30 1962 N 192.153 1.28127 0.917671 0
M  V30 1963 C 193.083 1.14248 2.03641 0
M  V30 1964 C 194.064 0.0412748 1.7005 0
M  V30 1965 O 195.249 0.217566 1.92977 0
M  V30 1966 C 192.379 0.799431 3.37974 0
M  V30 1967 C 191.333 1.85497 3.85713 0
M  V30 1968 C 190.659 1.36565 5.16966 0
M  V30 1969 C 191.959 3.26085 4.08002 0
M  V30 1970 H 193.653 2.07835 2.15511 0
M  V30 1971 H 191.199 1.00064 1.03553 0
M  V30 1972 H 193.152 0.689114 4.15727 0
M  V30 1973 H 191.876 -0.172145 3.26146 0
M  V30 1974 H 190.535 1.95437 3.10161 0
M  V30 1975 H 190.183 0.383253 5.01538 0
M  V30 1976 H 189.883 2.07143 5.49878 0
M  V30 1977 H 191.407 1.26848 5.97279 0
M  V30 1978 H 192.821 3.19089 4.76293 0
M  V30 1979 H 191.218 3.94462 4.52238 0
M  V30 1980 H 192.288 3.70394 3.12948 0
M  V30 1981 N 193.631 -1.12557 1.10312 0
M  V30 1982 C 194.594 -2.16434 0.75424 0
M  V30 1983 C 195.594 -1.59278 -0.220685 0
M  V30 1984 O 196.784 -1.742 0.00230591 0
M  V30 1985 C 193.916 -3.40699 0.116987 0
M  V30 1986 H 195.109 -2.48811 1.67431 0
M  V30 1987 H 192.662 -1.27542 0.903475 0
M  V30 1988 H 193.397 -3.13921 -0.813877 0
M  V30 1989 H 193.182 -3.83459 0.818613 0
M  V30 1990 H 194.672 -4.17451 -0.111387 0
M  V30 1991 N 195.109 -0.891671 -1.2995 0
M  V30 1992 C 196.52 -0.563104 -1.78006 0
M  V30 1993 C 196.871 0.920978 -1.73241 0
M  V30 1994 O 195.996 1.71987 -1.31337 0
M  V30 1995 C 196.591 -1.01539 -3.23226 0
M  V30 1996 C 195.15 -0.738124 -3.69092 0
M  V30 1997 C 194.297 -1.19461 -2.50249 0
M  V30 1998 H 197.248 -1.07522 -1.16725 0
M  V30 1999 H 197.269 -0.347217 -3.78912 0
M  V30 2000 H 196.781 -2.09555 -3.26662 0
M  V30 2001 H 194.882 0.329766 -3.71138 0
M  V30 2002 H 194.995 -1.33037 -4.60259 0
M  V30 2003 H 193.359 -0.613787 -2.47194 0
M  V30 2004 H 194.142 -2.28265 -2.56417 0
M  V30 2005 N 196.587 1.43421 -0.653314 0
M  V30 2006 C 197.812 2.06678 -0.172846 0
M  V30 2007 C 198.237 1.48648 1.15262 0
M  V30 2008 O 197.595 0.596457 1.71208 0
M  V30 2009 C 197.643 3.60474 -0.0953184 0
M  V30 2010 O 196.747 4.01487 0.942442 0
M  V30 2011 H 196.088 0.657181 -0.0949155 0
M  V30 2012 H 198.618 1.83925 -0.896265 0
M  V30 2013 H 198.628 4.07905 0.0879728 0
M  V30 2014 H 197.303 4.02088 -1.06291 0
M  V30 2015 H 195.88 3.65646 0.731932 0
M  V30 2016 N 198.065 0.39524 1.52563 0
M  V30 2017 C 199.29 -0.187456 2.06551 0
M  V30 2018 C 199.715 -1.39249 1.26457 0
M  V30 2019 O 199.073 -1.78947 0.291151 0
M  V30 2020 C 199.121 -0.529985 3.56684 0
M  V30 2021 O 198.225 -1.62307 3.79118 0
M  V30 2022 H 197.566 -0.0202537 0.663691 0
M  V30 2023 H 200.096 0.564426 1.96661 0
M  V30 2024 H 200.106 -0.792598 4.00227 0
M  V30 2025 H 198.781 0.350987 4.14416 0
M  V30 2026 H 197.358 -1.3537 3.47461 0
M  V30 2027 N 199.544 -1.57102 0.125237 0
M  V30 2028 C 200.491 -2.15641 -0.822655 0
M  V30 2029 C 201.461 -1.08313 -1.25927 0
M  V30 2030 O 202.646 -1.36251 -1.33567 0
M  V30 2031 C 199.786 -2.76504 -2.06494 0
M  V30 2032 C 198.899 -3.98158 -1.67612 0
M  V30 2033 C 198.034 -4.47088 -2.86854 0
M  V30 2034 C 197.073 -5.6126 -2.44242 0
M  V30 2035 N 196.21 -6.04905 -3.56419 0
M  V30 2036 H 201.05 -2.96313 -0.316625 0
M  V30 2037 H 198.587 -1.46388 -0.144588 0
M  V30 2038 H 200.545 -3.09925 -2.79289 0
M  V30 2039 H 199.175 -1.98512 -2.54545 0
M  V30 2040 H 198.227 -3.70858 -0.846661 0
M  V30 2041 H 199.539 -4.80934 -1.32301 0
M  V30 2042 H 198.693 -4.82451 -3.67867 0
M  V30 2043 H 197.432 -3.63275 -3.25396 0
M  V30 2044 H 196.437 -5.25495 -1.61663 0
M  V30 2045 H 197.662 -6.46843 -2.0681 0
M  V30 2046 H 195.608 -5.24032 -3.94623 0
M  V30 2047 H 195.525 -6.82552 -3.25051 0
M  V30 2048 H 196.793 -6.44907 -4.37853 0
M  V30 2049 N 201.022 0.148545 -1.56898 0
M  V30 2050 C 202.247 0.880385 -1.87787 0
M  V30 2051 C 202.672 1.74018 -0.714093 0
M  V30 2052 O 202.03 1.78153 0.336343 0
M  V30 2053 C 202.078 1.71422 -3.17249 0
M  V30 2054 O 201.182 2.8183 -3.01074 0
M  V30 2055 H 200.523 0.245301 -0.617028 0
M  V30 2056 H 203.053 0.139826 -2.04122 0
M  V30 2057 H 203.063 2.10954 -3.49231 0
M  V30 2058 H 201.738 1.08284 -4.01556 0
M  V30 2059 H 200.315 2.45715 -2.80497 0
M  V30 2060 N 202.5 1.5196 0.417844 0
M  V30 2061 C 203.728 1.69426 1.18753 0
M  V30 2062 C 204.143 0.399955 1.84515 0
M  V30 2063 O 203.5 -0.623288 1.71527 0
M  V30 2064 C 203.551 2.82375 2.25714 0
M  V30 2065 O 203.272 4.06793 1.62638 0
M  V30 2066 C 204.773 3.11277 3.15628 0
M  V30 2067 H 201.993 0.568031 0.357186 0
M  V30 2068 H 204.537 1.98475 0.49273 0
M  V30 2069 H 202.692 2.5587 2.90877 0
M  V30 2070 H 203.106 4.69667 2.3348 0
M  V30 2071 H 204.58 3.93843 3.86771 0
M  V30 2072 H 205.057 2.24473 3.77503 0
M  V30 2073 H 205.663 3.39515 2.56144 0
M  V30 2074 N 203.978 -0.674533 1.42435 0
M  V30 2075 C 205.203 -1.46784 1.46524 0
M  V30 2076 C 205.628 -1.87938 0.078066 0
M  V30 2077 O 204.986 -1.56014 -0.92354 0
M  V30 2078 C 205.034 -2.69307 2.39805 0
M  V30 2079 O 204.138 -3.67587 1.86959 0
M  V30 2080 H 203.479 -0.440959 0.496439 0
M  V30 2081 H 206.009 -0.827326 1.87127 0
M  V30 2082 H 206.019 -3.17374 2.56393 0
M  V30 2083 H 204.694 -2.38692 3.40586 0
M  V30 2084 H 203.271 -3.2662 1.79927 0
M  V30 2085 N 205.456 -1.28612 -0.910864 0
M  V30 2086 C 206.704 -1.15705 -1.65701 0
M  V30 2087 C 207.025 0.29416 -1.92769 0
M  V30 2088 O 206.295 1.20331 -1.54588 0
M  V30 2089 H 204.875 -0.425216 -0.614167 0
M  V30 2090 H 207.537 -1.61381 -1.0928 0
M  V30 2091 H 206.633 -1.6988 -2.61815 0
M  V30 2092 N 206.934 1.1197 -1.10907 0
M  V30 2093 C 208.182 1.83225 -0.852819 0
M  V30 2094 C 208.503 1.84769 0.623341 0
M  V30 2095 O 207.773 1.3143 1.45269 0
M  V30 2096 H 206.353 0.67849 -0.312507 0
M  V30 2097 H 209.015 1.3556 -1.40033 0
M  V30 2098 H 208.111 2.87265 -1.22005 0
M  V30 2099 N 208.412 0.89855 1.29475 0
M  V30 2100 C 209.64 0.539261 1.99749 0
M  V30 2101 C 210.055 -0.875716 1.67262 0
M  V30 2102 O 209.412 -1.57786 0.917049 0
M  V30 2103 C 209.463 0.72061 3.54245 0
M  V30 2104 O 209.184 2.07989 3.8558 0
M  V30 2105 C 210.685 0.366118 4.41786 0
M  V30 2106 H 207.905 0.207047 0.638258 0
M  V30 2107 H 210.449 1.20758 1.65039 0
M  V30 2108 H 208.604 0.0994862 3.87272 0
M  V30 2109 H 209.018 2.10841 4.80257 0
M  V30 2110 H 210.492 0.543848 5.49314 0
M  V30 2111 H 210.969 -0.696763 4.33638 0
M  V30 2112 H 211.575 0.964135 4.14228 0
M  V30 2113 N 209.89 -1.43072 0.660911 0
M  V30 2114 C 210.853 -2.29194 -0.0166406 0
M  V30 2115 C 211.853 -1.42609 -0.742912 0
M  V30 2116 O 213.043 -1.64155 -0.583004 0
M  V30 2117 C 210.175 -3.24831 -1.0343 0
M  V30 2118 H 211.368 -2.90596 0.741208 0
M  V30 2119 H 208.921 -1.5048 0.422532 0
M  V30 2120 H 209.656 -2.68339 -1.82111 0
M  V30 2121 H 209.441 -3.88676 -0.517082 0
M  V30 2122 H 210.931 -3.89451 -1.50723 0
M  V30 2123 N 211.368 -0.403325 -1.52352 0
M  V30 2124 C 212.331 0.413051 -2.25447 0
M  V30 2125 C 213.331 0.978513 -1.276 0
M  V30 2126 O 214.521 0.858305 -1.51587 0
M  V30 2127 C 211.653 1.58087 -3.02029 0
M  V30 2128 H 212.846 -0.227094 -2.99039 0
M  V30 2129 H 210.399 -0.155722 -1.55522 0
M  V30 2130 H 211.134 2.25804 -2.32772 0
M  V30 2131 H 210.919 1.18195 -3.73861 0
M  V30 2132 H 212.409 2.1585 -3.57489 0
M  V30 2133 N 212.846 1.57033 -0.133567 0
M  V30 2134 C 213.776 2.1909 0.807567 0
M  V30 2135 C 214.757 1.13517 1.26681 0
M  V30 2136 O 215.942 1.41809 1.32679 0
M  V30 2137 C 213.072 2.80188 2.05212 0
M  V30 2138 C 212.026 3.91471 1.73015 0
M  V30 2139 C 211.352 4.39443 3.04622 0
M  V30 2140 C 212.652 5.12886 0.987168 0
M  V30 2141 H 214.346 2.97988 0.290403 0
M  V30 2142 H 211.892 1.43335 0.138239 0
M  V30 2143 H 213.845 3.22264 2.71521 0
M  V30 2144 H 212.569 1.98601 2.59278 0
M  V30 2145 H 211.228 3.49993 1.0909 0
M  V30 2146 H 210.876 3.54695 3.56651 0
M  V30 2147 H 210.576 5.14495 2.83847 0
M  V30 2148 H 212.1 4.8418 3.72024 0
M  V30 2149 H 213.514 5.51891 1.55208 0
M  V30 2150 H 211.911 5.93615 0.87985 0
M  V30 2151 H 212.981 4.84894 -0.0235286 0
M  V30 2152 N 214.325 -0.140222 1.56975 0
M  V30 2153 C 215.573 -0.850005 1.83356 0
M  V30 2154 C 215.894 -1.81399 0.71551 0
M  V30 2155 O 215.164 -1.94136 -0.262294 0
M  V30 2156 H 213.744 -0.316886 0.676456 0
M  V30 2157 H 216.406 -0.132608 1.94448 0
M  V30 2158 H 215.502 -1.40814 2.78528 0
M  V30 2159 N 215.803 -1.52179 -0.40978 0
M  V30 2160 C 217.043 -1.67882 -1.16597 0
M  V30 2161 C 217.407 -0.399795 -1.87791 0
M  V30 2162 O 218.608 -0.43292 -2.65291 0
M  V30 2163 C 216.879 -2.86662 -2.13448 0
M  V30 2164 S 218.438 -3.22843 -2.97183 0
M  V30 2165 H 215.256 -0.59118 -0.395002 0
M  V30 2166 H 217.858 -1.9017 -0.453373 0
M  V30 2167 H 216.562 -3.77998 -1.59831 0
M  V30 2168 H 216.093 -2.66645 -2.89247 0
M  V30 2169 H 218.108 -2.71415 -4.15389 0
M  V30 2170 N 217.281 0.66697 -1.42791 0
M  V30 2171 C 218.211 1.79218 -1.49677 0
M  V30 2172 C 219.192 1.66405 -0.352623 0
M  V30 2173 O 220.377 1.85708 -0.567993 0
M  V30 2174 C 217.507 3.17565 -1.40605 0
M  V30 2175 C 216.461 3.45124 -2.53127 0
M  V30 2176 C 215.787 4.83127 -2.29112 0
M  V30 2177 C 217.087 3.41236 -3.95418 0
M  V30 2178 H 218.781 1.73713 -2.43853 0
M  V30 2179 H 216.327 0.83432 -1.17367 0
M  V30 2180 H 218.28 3.96022 -1.44029 0
M  V30 2181 H 217.004 3.23767 -0.429271 0
M  V30 2182 H 215.663 2.69031 -2.49034 0
M  V30 2183 H 215.311 4.85988 -1.29709 0
M  V30 2184 H 215.011 5.02528 -3.04531 0
M  V30 2185 H 216.535 5.63859 -2.34297 0
M  V30 2186 H 217.949 4.09651 -4.01073 0
M  V30 2187 H 216.346 3.72173 -4.70752 0
M  V30 2188 H 217.416 2.39665 -4.21532 0
M  V30 2189 N 218.759 1.29093 0.90403 0
M  V30 2190 C 220.005 1.16986 1.65656 0
M  V30 2191 C 220.338 -0.278925 1.92186 0
M  V30 2192 O 219.613 -1.2019 1.5292 0
M  V30 2193 C 219.896 1.97908 3.0084 0
M  V30 2194 C 219.749 3.50903 2.81403 0
M  V30 2195 C 221.068 1.80208 4.01513 0
M  V30 2196 H 218.187 0.426346 0.601164 0
M  V30 2197 H 220.829 1.58518 1.04747 0
M  V30 2198 H 218.979 1.62616 3.52829 0
M  V30 2199 H 220.651 3.96153 2.36348 0
M  V30 2200 H 218.894 3.76045 2.1627 0
M  V30 2201 H 219.565 4.02791 3.77443 0
M  V30 2202 H 222.041 2.11025 3.58619 0
M  V30 2203 H 220.917 2.39184 4.94047 0
M  V30 2204 H 221.178 0.756119 4.35586 0
M  V30 2205 N 220.237 -1.11381 1.11499 0
M  V30 2206 C 221.184 -2.17439 0.773887 0
M  V30 2207 C 222.154 -1.64132 -0.254899 0
M  V30 2208 O 223.339 -1.90345 -0.13168 0
M  V30 2209 C 220.479 -3.44373 0.223917 0
M  V30 2210 C 219.592 -4.1168 1.30934 0
M  V30 2211 C 218.727 -5.263 0.71984 0
M  V30 2212 C 217.766 -5.85493 1.78507 0
M  V30 2213 N 216.903 -6.91507 1.21502 0
M  V30 2214 H 221.743 -2.45962 1.68246 0
M  V30 2215 H 219.28 -1.20744 0.840191 0
M  V30 2216 H 221.238 -4.17047 -0.112921 0
M  V30 2217 H 219.868 -3.16232 -0.647851 0
M  V30 2218 H 218.92 -3.37073 1.76312 0
M  V30 2219 H 220.232 -4.51729 2.11524 0
M  V30 2220 H 219.386 -6.05785 0.333094 0
M  V30 2221 H 218.125 -4.87559 -0.117377 0
M  V30 2222 H 217.13 -5.04686 2.18111 0
M  V30 2223 H 218.355 -6.26301 2.62533 0
M  V30 2224 H 216.301 -6.54783 0.399455 0
M  V30 2225 H 216.218 -7.30214 1.95763 0
M  V30 2226 H 217.486 -7.74795 0.855181 0
M  V30 2227 N 221.715 -0.905404 -1.28997 0
M  V30 2228 C 222.992 -0.453513 -1.9027 0
M  V30 2229 C 223.372 1.06721 -1.82137 0
M  V30 2230 O 222.72 1.91159 -1.25182 0
M  V30 2231 C 222.93 -0.974494 -3.35119 0
M  V30 2232 C 224.278 -1.0216 -4.12127 0
M  V30 2233 O 225.302 -0.922557 -3.44046 0
M  V30 2234 O 224.161 -1.17121 -5.33802 0
M  V30 2235 H 221.255 -0.142347 -0.814657 0
M  V30 2236 H 223.801 -0.995642 -1.37423 0
M  V30 2237 H 222.573 -2.01848 -3.35221 0
M  V30 2238 H 222.196 -0.412706 -3.95452 0
M  V30 2239 N 223.193 1.4272 -0.668489 0
M  V30 2240 C 224.423 2.05668 -0.196063 0
M  V30 2241 C 224.831 1.5028 1.14946 0
M  V30 2242 O 224.174 0.6348 1.72383 0
M  V30 2243 C 224.236 3.59469 -0.0468879 0
M  V30 2244 C 223.9 4.37518 -1.32012 0
M  V30 2245 C 224.897 4.68584 -2.25222 0
M  V30 2246 C 222.582 4.77266 -1.56596 0
M  V30 2247 C 224.576 5.38326 -3.41297 0
M  V30 2248 C 222.263 5.4675 -2.72962 0
M  V30 2249 C 223.261 5.77204 -3.65137 0
M  V30 2250 O 222.949 6.45264 -4.79468 0
M  V30 2251 H 222.681 0.669382 -0.0943599 0
M  V30 2252 H 225.235 1.83954 -0.913788 0
M  V30 2253 H 223.465 3.79817 0.726357 0
M  V30 2254 H 225.154 4.04071 0.384852 0
M  V30 2255 H 225.92 4.38382 -2.07477 0
M  V30 2256 H 221.799 4.52959 -0.857249 0
M  V30 2257 H 225.343 5.62014 -4.13263 0
M  V30 2258 H 221.24 5.76369 -2.90635 0
M  V30 2259 H 222.008 6.63753 -4.78931 0
M  V30 2260 N 224.671 0.411399 1.52136 0
M  V30 2261 C 225.918 -0.163645 2.01838 0
M  V30 2262 C 226.246 -1.4495 1.29691 0
M  V30 2263 O 225.501 -1.91725 0.392431 0
M  V30 2264 C 225.8 -0.455872 3.54481 0
M  V30 2265 C 225.466 0.741055 4.44769 0
M  V30 2266 C 224.128 1.06936 4.69167 0
M  V30 2267 C 226.48 1.54075 4.97906 0
M  V30 2268 C 223.808 2.19851 5.43951 0
M  V30 2269 C 226.16 2.66067 5.73926 0
M  V30 2270 C 224.824 2.99381 5.96596 0
M  V30 2271 H 224.094 -0.0598821 0.738576 0
M  V30 2272 H 226.741 0.553283 1.83333 0
M  V30 2273 H 225.046 -1.2544 3.71177 0
M  V30 2274 H 226.743 -0.913802 3.90449 0
M  V30 2275 H 223.333 0.475192 4.25958 0
M  V30 2276 H 227.517 1.30033 4.78963 0
M  V30 2277 H 222.773 2.46006 5.59724 0
M  V30 2278 H 226.947 3.28419 6.14096 0
M  V30 2279 H 224.574 3.86992 6.54325 0
M  V30 2280 N 226.149 -1.5696 0.141893 0
M  V30 2281 C 227.56 -1.82797 -0.379776 0
M  V30 2282 C 227.911 -1.06033 -1.6508 0
M  V30 2283 O 227.036 -0.304011 -2.14254 0
M  V30 2284 C 227.631 -3.31578 -0.695802 0
M  V30 2285 C 226.19 -3.58014 -1.16201 0
M  V30 2286 C 225.337 -2.76699 -0.182455 0
M  V30 2287 H 228.288 -1.54406 0.366675 0
M  V30 2288 H 228.309 -3.47454 -1.55099 0
M  V30 2289 H 227.821 -3.87421 0.229449 0
M  V30 2290 H 225.922 -3.07553 -2.10338 0
M  V30 2291 H 226.035 -4.66501 -1.09151 0
M  V30 2292 H 224.399 -2.45618 -0.674072 0
M  V30 2293 H 225.182 -3.35311 0.736297 0
M  V30 2294 N 227.627 0.131896 -1.57047 0
M  V30 2295 C 228.537 1.1815 -2.02676 0
M  V30 2296 C 229.553 1.46113 -0.944824 0
M  V30 2297 O 230.729 1.57485 -1.25541 0
M  V30 2298 C 227.794 2.49139 -2.41103 0
M  V30 2299 C 226.855 2.28688 -3.63318 0
M  V30 2300 C 226.088 3.53431 -3.99903 0
M  V30 2301 O 226.311 4.60223 -3.36973 0
M  V30 2302 O 225.245 3.45198 -4.93074 0
M  V30 2303 H 229.071 0.824069 -2.92306 0
M  V30 2304 H 226.656 0.341745 -1.45439 0
M  V30 2305 H 228.538 3.26338 -2.66611 0
M  V30 2306 H 227.213 2.84382 -1.54624 0
M  V30 2307 H 226.12 1.4939 -3.42977 0
M  V30 2308 H 227.453 1.98355 -4.50462 0
M  V30 2309 N 229.106 1.52395 0.401703 0
M  V30 2310 C 230.517 1.58899 0.980202 0
M  V30 2311 C 230.868 0.434032 1.91339 0
M  V30 2312 O 229.993 -0.444619 2.11783 0
M  V30 2313 C 230.588 2.87994 1.78451 0
M  V30 2314 C 229.147 2.96953 2.31292 0
M  V30 2315 C 228.294 2.53903 1.11483 0
M  V30 2316 H 231.245 1.57657 0.18168 0
M  V30 2317 H 231.266 2.73765 2.64259 0
M  V30 2318 H 230.778 3.72035 1.10506 0
M  V30 2319 H 228.879 2.17422 3.02586 0
M  V30 2320 H 228.992 4.01344 2.61649 0
M  V30 2321 H 227.356 2.07925 1.47104 0
M  V30 2322 H 228.139 3.40326 0.450928 0
M  V30 2323 N 230.584 -0.659388 1.43143 0
M  V30 2324 C 231.83 -1.42145 1.44647 0
M  V30 2325 C 232.163 -1.9408 0.0681907 0
M  V30 2326 O 231.438 -1.71899 -0.910007 0
M  V30 2327 C 231.721 -2.60735 2.48373 0
M  V30 2328 C 231.574 -2.14332 3.95451 0
M  V30 2329 C 232.893 -3.62951 2.48906 0
M  V30 2330 H 230.012 -0.51552 0.526696 0
M  V30 2331 H 232.654 -0.748069 1.74654 0
M  V30 2332 H 230.804 -3.18184 2.22916 0
M  V30 2333 H 232.476 -1.61932 4.31944 0
M  V30 2334 H 230.719 -1.4576 4.08578 0
M  V30 2335 H 231.39 -2.99583 4.63631 0
M  V30 2336 H 233.866 -3.1525 2.71582 0
M  V30 2337 H 232.742 -4.43487 3.23435 0
M  V30 2338 H 233.003 -4.15126 1.52061 0
M  V30 2339 N 232.062 -1.29571 -0.897171 0
M  V30 2340 C 233.29 -1.20583 -1.68129 0
M  V30 2341 C 233.705 0.233181 -1.87354 0
M  V30 2342 O 233.062 1.15579 -1.41236 0
M  V30 2343 C 233.113 -1.91772 -3.06441 0
M  V30 2344 O 232.834 -3.30053 -2.88091 0
M  V30 2345 C 234.335 -1.89291 -4.00854 0
M  V30 2346 H 231.555 -0.417826 -0.525036 0
M  V30 2347 H 234.099 -1.70987 -1.12177 0
M  V30 2348 H 232.254 -1.45196 -3.59161 0
M  V30 2349 H 232.668 -3.65942 -3.75748 0
M  V30 2350 H 234.142 -2.43662 -4.95311 0
M  V30 2351 H 234.619 -0.869014 -4.30517 0
M  V30 2352 H 235.225 -2.35622 -3.54066 0
M  V30 2353 N 233.54 1.10788 -1.12088 0
M  V30 2354 C 234.786 1.82942 -0.875226 0
M  V30 2355 C 235.119 1.84779 0.597538 0
M  V30 2356 O 234.394 1.30578 1.44152 0
M  V30 2357 C 234.677 3.29789 -1.44606 0
M  V30 2358 C 234.53 3.36307 -2.98693 0
M  V30 2359 C 235.849 4.26064 -1.10261 0
M  V30 2360 H 232.968 0.664195 -0.319397 0
M  V30 2361 H 235.61 1.29867 -1.38689 0
M  V30 2362 H 233.76 3.75118 -1.01089 0
M  V30 2363 H 235.432 2.99487 -3.50864 0
M  V30 2364 H 233.675 2.76318 -3.34411 0
M  V30 2365 H 234.346 4.39694 -3.33726 0
M  V30 2366 H 236.822 3.88951 -1.4784 0
M  V30 2367 H 235.698 5.27183 -1.52869 0
M  V30 2368 H 235.959 4.42098 -0.0142953 0
M  V30 2369 N 235.018 0.912232 1.28515 0
M  V30 2370 C 236.243 0.559774 1.99703 0
M  V30 2371 C 236.668 -0.851393 1.67729 0
M  V30 2372 O 236.026 -1.56875 0.908834 0
M  V30 2373 C 236.074 0.773874 3.52198 0
M  V30 2374 O 235.178 -0.167842 4.12058 0
M  V30 2375 H 234.519 0.21723 0.627461 0
M  V30 2376 H 237.049 1.22725 1.63706 0
M  V30 2377 H 237.059 0.683386 4.02236 0
M  V30 2378 H 235.734 1.80261 3.74805 0
M  V30 2379 H 234.311 -0.0287509 3.72889 0
M  V30 2380 N 236.496 -1.42363 0.676048 0
M  V30 2381 C 237.742 -2.02336 0.207809 0
M  V30 2382 C 238.097 -1.52506 -1.17302 0
M  V30 2383 O 237.39 -0.718048 -1.77636 0
M  V30 2384 C 237.584 -3.56929 0.183431 0
M  V30 2385 C 237.413 -4.21762 1.56036 0
M  V30 2386 C 236.183 -4.56881 2.15842 0
M  V30 2387 C 238.381 -4.49267 2.50327 0
M  V30 2388 N 236.363 -5.069 3.46303 0
M  V30 2389 C 237.734 -5.00851 3.65443 0
M  V30 2390 C 239.789 -4.31257 2.48841 0
M  V30 2391 C 238.492 -5.36317 4.79329 0
M  V30 2392 C 240.518 -4.678 3.61824 0
M  V30 2393 C 239.88 -5.19537 4.75668 0
M  V30 2394 H 235.979 -0.772583 0.120993 0
M  V30 2395 H 238.563 -1.73203 0.889306 0
M  V30 2396 H 236.734 -3.85576 -0.467483 0
M  V30 2397 H 238.466 -4.03603 -0.297808 0
M  V30 2398 H 235.221 -4.4268 1.68319 0
M  V30 2399 H 235.645 -5.36338 4.13123 0
M  V30 2400 H 240.287 -3.90511 1.62051 0
M  V30 2401 H 238.005 -5.75995 5.66794 0
M  V30 2402 H 241.591 -4.55541 3.61903 0
M  V30 2403 H 240.471 -5.47287 5.61646 0
M  V30 2404 N 237.974 -0.419461 -1.51915 0
M  V30 2405 C 238.922 0.415502 -2.28859 0
M  V30 2406 C 239.916 1.03674 -1.3397 0
M  V30 2407 O 241.122 0.973757 -1.51387 0
M  V30 2408 H 237.497 0.152786 -0.736315 0
M  V30 2409 H 239.468 -0.254531 -2.97312 0
M  V30 2410 C 238.217 1.51425 -3.12995 0
M  V30 2411 H 237.54 1.04556 -3.85886 0
M  V30 2412 H 238.98 2.07208 -3.6992 0
M  V30 2413 C 237.439 2.48745 -2.27217 0
M  V30 2414 O 237.969 3.52871 -1.9195 0
M  V30 2415 N 236.175 2.19202 -1.90785 0
M  V30 2416 H 235.722 1.34556 -2.19664 0
M  V30 2417 H 235.68 2.84561 -1.33687 0
M  V30 2418 N 239.452 1.56882 -0.150215 0
M  V30 2419 C 240.677 2.01027 0.510184 0
M  V30 2420 C 241.102 1.02966 1.57415 0
M  V30 2421 O 240.46 0.00590158 1.81299 0
M  V30 2422 C 240.508 3.43899 1.08472 0
M  V30 2423 O 239.612 3.4885 2.19948 0
M  V30 2424 H 238.953 0.652233 0.124451 0
M  V30 2425 H 241.483 2.03093 -0.247894 0
M  V30 2426 H 241.493 3.82766 1.41259 0
M  V30 2427 H 240.168 4.14776 0.305582 0
M  V30 2428 H 238.745 3.21827 1.88366 0
M  V30 2429 N 240.93 -0.123565 1.57115 0
M  V30 2430 C 242.178 -0.83051 1.84247 0
M  V30 2431 C 242.499 -1.80629 0.73471 0
M  V30 2432 O 241.769 -1.94403 -0.241688 0
M  V30 2433 H 240.349 -0.309694 0.679778 0
M  V30 2434 H 243.011 -0.111976 1.94578 0
M  V30 2435 H 242.107 -1.37852 2.80006 0
M  V30 2436 N 242.408 -1.52605 -0.393616 0
M  V30 2437 C 243.371 -1.76415 -1.46323 0
M  V30 2438 C 244.371 -0.634126 -1.47768 0
M  V30 2439 O 245.561 -0.902142 -1.4902 0
M  V30 2440 C 242.693 -1.8607 -2.85641 0
M  V30 2441 H 243.886 -2.71916 -1.26498 0
M  V30 2442 H 241.439 -1.43257 -0.625073 0
M  V30 2443 H 242.174 -0.925378 -3.10817 0
M  V30 2444 H 241.959 -2.68235 -2.85993 0
M  V30 2445 H 243.449 -2.06179 -3.63153 0
M  V30 2446 N 243.887 0.651787 -1.4349 0
M  V30 2447 C 244.817 1.77621 -1.51569 0
M  V30 2448 C 245.798 1.66022 -0.370253 0
M  V30 2449 O 246.983 1.85095 -0.587658 0
M  V30 2450 C 244.113 3.16056 -1.43966 0
M  V30 2451 C 243.067 3.4242 -2.56774 0
M  V30 2452 C 242.393 4.8067 -2.34223 0
M  V30 2453 C 243.693 3.37023 -3.99015 0
M  V30 2454 H 245.387 1.71117 -2.45681 0
M  V30 2455 H 242.933 0.821825 -1.18246 0
M  V30 2456 H 244.886 3.94472 -1.48221 0
M  V30 2457 H 243.61 3.23293 -0.463586 0
M  V30 2458 H 242.269 2.66375 -2.51873 0
M  V30 2459 H 241.917 4.84585 -1.34856 0
M  V30 2460 H 241.617 4.9927 -3.09844 0
M  V30 2461 H 243.141 5.61342 -2.40265 0
M  V30 2462 H 244.555 4.05374 -4.05395 0
M  V30 2463 H 242.952 3.67159 -4.74673 0
M  V30 2464 H 244.022 2.3518 -4.2405 0
M  V30 2465 N 245.365 1.30045 0.890287 0
M  V30 2466 C 246.593 1.21472 1.67487 0
M  V30 2467 C 247.008 -0.223241 1.87476 0
M  V30 2468 O 246.365 -1.14828 1.41847 0
M  V30 2469 C 246.416 1.93394 3.05419 0
M  V30 2470 O 246.137 3.31576 2.86337 0
M  V30 2471 C 247.638 1.91414 3.99844 0
M  V30 2472 H 244.858 0.420604 0.522813 0
M  V30 2473 H 247.402 1.7158 1.11268 0
M  V30 2474 H 245.557 1.47099 3.58386 0
M  V30 2475 H 245.971 3.67929 3.73802 0
M  V30 2476 H 247.445 2.46285 4.94012 0
M  V30 2477 H 247.922 0.891833 4.3005 0
M  V30 2478 H 248.528 2.37496 3.52811 0
M  V30 2479 N 246.843 -1.10192 1.12674 0
M  V30 2480 C 248.068 -1.86523 0.906853 0
M  V30 2481 C 248.493 -1.80221 -0.538711 0
M  V30 2482 O 247.851 -1.17396 -1.38158 0
M  V30 2483 C 247.899 -3.32758 1.3894 0
M  V30 2484 O 247.003 -4.08449 0.5695 0
M  V30 2485 H 246.344 -0.578678 0.325619 0
M  V30 2486 H 248.874 -1.39203 1.49946 0
M  V30 2487 H 248.884 -3.83608 1.38958 0
M  V30 2488 H 247.559 -3.36661 2.44197 0
M  V30 2489 H 246.136 -3.67427 0.636528 0
M  V30 2490 N 248.321 -0.919034 -1.28029 0
M  V30 2491 C 249.569 -0.553838 -1.94363 0
M  V30 2492 C 249.89 0.906357 -1.72656 0
M  V30 2493 O 249.16 1.64143 -1.0693 0
M  V30 2494 H 247.74 -0.201834 -0.719216 0
M  V30 2495 H 250.402 -1.16954 -1.55909 0
M  V30 2496 H 249.498 -0.752758 -3.02886 0
M  V30 2497 N 249.799 1.42003 -0.683588 0
M  V30 2498 C 251.045 2.01712 -0.209825 0
M  V30 2499 C 251.378 1.53968 1.18353 0
M  V30 2500 O 250.653 0.745661 1.79639 0
M  V30 2501 C 250.936 3.59202 -0.254197 0
M  V30 2502 C 250.789 4.17102 -1.68363 0
M  V30 2503 C 252.108 4.38344 0.392709 0
M  V30 2504 H 249.227 0.732891 -0.0777189 0
M  V30 2505 H 251.869 1.68909 -0.87004 0
M  V30 2506 H 250.019 3.87278 0.307954 0
M  V30 2507 H 251.691 3.99946 -2.29871 0
M  V30 2508 H 249.934 3.72597 -2.22157 0
M  V30 2509 H 250.605 5.26249 -1.6663 0
M  V30 2510 H 253.081 4.16011 -0.0859162 0
M  V30 2511 H 251.957 5.47901 0.331063 0
M  V30 2512 H 252.218 4.16887 1.47164 0
M  V30 2513 N 251.277 0.427512 1.51691 0
M  V30 2514 C 252.227 -0.406604 2.24345 0
M  V30 2515 C 253.211 -0.998276 1.26187 0
M  V30 2516 O 254.403 -0.918045 1.51331 0
M  V30 2517 C 251.532 -1.51266 3.08177 0
M  V30 2518 C 250.618 -0.930868 4.13758 0
M  V30 2519 N 251.009 -0.0773552 5.05741 0
M  V30 2520 C 249.307 -1.19948 4.29568 0
M  V30 2521 C 250.008 0.248344 5.8117 0
M  V30 2522 N 248.984 -0.365535 5.4237 0
M  V30 2523 H 252.786 0.251581 2.92821 0
M  V30 2524 H 250.3 0.239003 1.60632 0
M  V30 2525 H 252.297 -2.123 3.58796 0
M  V30 2526 H 250.957 -2.17328 2.41244 0
M  V30 2527 H 251.968 0.288351 5.17097 0
M  V30 2528 H 248.645 -1.85832 3.73862 0
M  V30 2529 H 250.035 0.942286 6.6526 0
M  V30 2530 N 252.755 -1.56801 0.158532 0
M  V30 2531 C 253.983 -2.00859 -0.496303 0
M  V30 2532 C 254.398 -1.03871 -1.57659 0
M  V30 2533 O 253.755 -0.0375165 -1.82461 0
M  V30 2534 C 253.806 -3.4479 -1.08638 0
M  V30 2535 O 253.527 -4.38072 -0.0492322 0
M  V30 2536 C 255.028 -4.04185 -1.8207 0
M  V30 2537 H 252.248 -0.65864 -0.128199 0
M  V30 2538 H 254.792 -2.02885 0.256506 0
M  V30 2539 H 252.947 -3.43579 -1.78975 0
M  V30 2540 H 253.361 -5.2227 -0.483102 0
M  V30 2541 H 254.835 -5.06857 -2.18633 0
M  V30 2542 H 255.312 -3.45549 -2.71095 0
M  V30 2543 H 255.918 -4.0906 -1.16405 0
M  V30 2544 N 254.233 0.115231 -1.57178 0
M  V30 2545 C 255.48 0.822351 -1.8505 0
M  V30 2546 C 255.808 1.79701 -0.744168 0
M  V30 2547 O 255.063 1.93909 0.26414 0
M  V30 2548 C 255.362 1.60324 -3.19423 0
M  V30 2549 C 255.028 0.772536 -4.44233 0
M  V30 2550 C 253.69 0.543468 -4.78121 0
M  V30 2551 C 256.042 0.193746 -5.2084 0
M  V30 2552 C 253.37 -0.274583 -5.86057 0
M  V30 2553 C 255.722 -0.611517 -6.29637 0
M  V30 2554 C 254.386 -0.850867 -6.62055 0
M  V30 2555 H 253.656 0.30092 -0.677147 0
M  V30 2556 H 256.303 0.0845802 -1.91313 0
M  V30 2557 H 254.608 2.41203 -3.08753 0
M  V30 2558 H 256.305 2.1544 -3.38211 0
M  V30 2559 H 252.895 0.96117 -4.17683 0
M  V30 2560 H 257.079 0.357926 -4.95008 0
M  V30 2561 H 252.335 -0.469206 -6.09597 0
M  V30 2562 H 256.509 -1.06697 -6.88178 0
M  V30 2563 H 254.136 -1.48657 -7.45523 0
M  V30 2564 N 255.711 1.52812 0.385517 0
M  V30 2565 C 257.122 1.5993 0.963293 0
M  V30 2566 C 257.473 0.454302 1.90868 0
M  V30 2567 O 256.598 -0.422132 2.12243 0
M  V30 2568 C 257.193 2.89871 1.75387 0
M  V30 2569 C 255.752 2.99389 2.28129 0
M  V30 2570 C 254.899 2.55071 1.08783 0
M  V30 2571 H 257.85 1.5784 0.164948 0
M  V30 2572 H 257.871 2.76553 2.61341 0
M  V30 2573 H 257.383 3.73186 1.06554 0
M  V30 2574 H 255.484 2.20619 3.00263 0
M  V30 2575 H 255.597 4.04096 2.57377 0
M  V30 2576 H 253.961 2.09473 1.4489 0
M  V30 2577 H 254.744 3.40785 0.414807 0
M  V30 2578 N 257.189 -0.644168 1.43834 0
M  V30 2579 C 258.152 -1.73857 1.49353 0
M  V30 2580 C 259.152 -1.56315 0.377112 0
M  V30 2581 O 260.342 -1.62048 0.639226 0
M  V30 2582 C 257.474 -3.12819 1.35488 0
M  V30 2583 H 258.667 -1.70342 2.46827 0
M  V30 2584 H 256.22 -0.856652 1.30733 0
M  V30 2585 H 256.955 -3.2194 0.390569 0
M  V30 2586 H 256.74 -3.26958 2.16428 0
M  V30 2587 H 258.23 -3.92606 1.42302 0
M  V30 2588 N 258.668 -1.30515 -0.883378 0
M  V30 2589 C 259.914 -1.19607 -1.63774 0
M  V30 2590 C 260.247 0.248314 -1.92606 0
M  V30 2591 O 259.522 1.17742 -1.54813 0
M  V30 2592 C 259.805 -2.02669 -2.97653 0
M  V30 2593 C 259.658 -3.55335 -2.75784 0
M  V30 2594 C 260.977 -1.86573 -3.98596 0
M  V30 2595 H 258.096 -0.435856 -0.594305 0
M  V30 2596 H 260.738 -1.60165 -1.02212 0
M  V30 2597 H 258.888 -1.68208 -3.50197 0
M  V30 2598 H 260.56 -3.99863 -2.30016 0
M  V30 2599 H 258.803 -3.79438 -2.1026 0
M  V30 2600 H 259.474 -4.08745 -3.70988 0
M  V30 2601 H 261.95 -2.16703 -3.55217 0
M  V30 2602 H 260.826 -2.47014 -4.90179 0
M  V30 2603 H 261.087 -0.825321 -4.34328 0
M  V30 2604 N 260.146 1.09593 -1.13257 0
M  V30 2605 C 261.076 2.18214 -0.830946 0
M  V30 2606 C 262.057 1.68812 0.208966 0
M  V30 2607 O 263.242 1.9408 0.0682666 0
M  V30 2608 C 260.372 3.46051 -0.294296 0
M  V30 2609 C 259.326 4.08778 -1.26826 0
M  V30 2610 C 258.652 5.31419 -0.591449 0
M  V30 2611 C 259.952 4.51476 -2.62615 0
M  V30 2612 H 261.646 2.43703 -1.73923 0
M  V30 2613 H 259.192 1.17128 -0.837675 0
M  V30 2614 H 261.145 4.2134 -0.0709606 0
M  V30 2615 H 259.869 3.20079 0.649366 0
M  V30 2616 H 258.528 3.35505 -1.47756 0
M  V30 2617 H 258.176 5.01727 0.357633 0
M  V30 2618 H 257.876 5.74341 -1.24123 0
M  V30 2619 H 259.4 6.09433 -0.377355 0
M  V30 2620 H 260.814 5.17999 -2.45663 0
M  V30 2621 H 259.211 5.05277 -3.23752 0
M  V30 2622 H 260.281 3.63962 -3.20406 0
M  V30 2623 N 261.624 0.925811 1.2754 0
M  V30 2624 C 262.556 0.380753 2.26015 0
M  V30 2625 C 263.569 -0.487485 1.5533 0
M  V30 2626 O 264.758 -0.300413 1.75954 0
M  V30 2627 C 261.858 -0.473259 3.35579 0
M  V30 2628 C 261.031 0.375249 4.35787 0
M  V30 2629 C 260.09 -0.415809 5.24555 0
M  V30 2630 O 259.116 0.175834 5.68928 0
M  V30 2631 N 260.318 -1.71607 5.54555 0
M  V30 2632 H 263.083 1.22725 2.73421 0
M  V30 2633 H 260.644 0.793037 1.41147 0
M  V30 2634 H 262.636 -1.00949 3.91907 0
M  V30 2635 H 261.206 -1.2205 2.87789 0
M  V30 2636 H 260.426 1.09279 3.7875 0
M  V30 2637 H 261.714 0.955399 4.99749 0
M  V30 2638 H 261.112 -2.2191 5.20358 0
M  V30 2639 H 259.669 -2.19887 6.1359 0
M  V30 2640 N 263.102 -1.41638 0.69111 0
M  V30 2641 C 264.327 -2.06148 0.227583 0
M  V30 2642 C 264.752 -1.51652 -1.11281 0
M  V30 2643 O 264.11 -0.64164 -1.69566 0
M  V30 2644 C 264.158 -3.60095 0.190858 0
M  V30 2645 O 263.262 -4.03845 -0.835664 0
M  V30 2646 H 262.603 -0.654434 0.112306 0
M  V30 2647 H 265.133 -1.81484 0.944714 0
M  V30 2648 H 265.143 -4.07995 0.020207 0
M  V30 2649 H 263.818 -3.99129 1.16915 0
M  V30 2650 H 262.395 -3.67458 -0.63473 0
M  V30 2651 N 264.58 -0.43555 -1.51462 0
M  V30 2652 C 265.805 0.132627 -2.06976 0
M  V30 2653 C 266.23 1.35848 -1.30104 0
M  V30 2654 O 265.588 1.78112 -0.338493 0
M  V30 2655 C 265.636 0.43523 -3.57964 0
M  V30 2656 O 264.74 1.52198 -3.83288 0
M  V30 2657 H 264.081 0.00265 -0.663995 0
M  V30 2658 H 266.611 -0.616369 -1.95095 0
M  V30 2659 H 266.621 0.686206 -4.02188 0
M  V30 2660 H 265.296 -0.460739 -4.1334 0
M  V30 2661 H 263.873 1.2611 -3.50928 0
M  V30 2662 N 266.058 1.56714 -0.166846 0
M  V30 2663 C 267.306 1.96358 0.478305 0
M  V30 2664 C 267.627 1.0537 1.6408 0
M  V30 2665 O 266.897 0.119154 1.95537 0
M  V30 2666 H 265.477 0.725065 0.179692 0
M  V30 2667 H 268.139 1.93329 -0.246985 0
M  V30 2668 H 267.235 3.00547 0.841292 0
M  V30 2669 N 267.536 -0.106894 1.57237 0
M  V30 2670 C 268.466 -1.13148 2.04254 0
M  V30 2671 C 269.447 -1.42476 0.929224 0
M  V30 2672 O 270.632 -1.52709 1.19973 0
M  V30 2673 C 267.762 -2.4545 2.45706 0
M  V30 2674 C 266.716 -2.30558 3.60592 0
M  V30 2675 C 266.042 -3.67931 3.87983 0
M  V30 2676 C 267.342 -1.75597 4.91897 0
M  V30 2677 H 269.036 -0.740374 2.90101 0
M  V30 2678 H 266.582 -0.354696 1.39563 0
M  V30 2679 H 268.535 -3.17389 2.77205 0
M  V30 2680 H 267.259 -2.86475 1.56843 0
M  V30 2681 H 265.918 -1.61067 3.29322 0
M  V30 2682 H 265.566 -4.06462 2.96306 0
M  V30 2683 H 265.266 -3.58817 4.65322 0
M  V30 2684 H 266.79 -4.41356 4.21945 0
M  V30 2685 H 268.204 -2.37364 5.21854 0
M  V30 2686 H 266.601 -1.77272 5.73319 0
M  V30 2687 H 267.671 -0.714451 4.79608 0
M  V30 2688 N 269.014 -1.53014 -0.377408 0
M  V30 2689 C 270.244 -1.72265 -1.14054 0
M  V30 2690 C 270.652 -0.44601 -1.83868 0
M  V30 2691 O 269.995 0.590095 -1.73964 0
M  V30 2692 C 270.057 -2.82492 -2.22348 0
M  V30 2693 C 269.721 -4.23233 -1.72402 0
M  V30 2694 C 270.718 -5.05992 -1.19448 0
M  V30 2695 C 268.403 -4.696 -1.78273 0
M  V30 2696 C 270.397 -6.33203 -0.730268 0
M  V30 2697 C 268.084 -5.96792 -1.31464 0
M  V30 2698 C 269.082 -6.78424 -0.789297 0
M  V30 2699 O 268.77 -8.0323 -0.328077 0
M  V30 2700 H 268.502 -0.579873 -0.347453 0
M  V30 2701 H 271.056 -2.00502 -0.445882 0
M  V30 2702 H 269.286 -2.49702 -2.95272 0
M  V30 2703 H 270.975 -2.90034 -2.83963 0
M  V30 2704 H 271.741 -4.71349 -1.14259 0
M  V30 2705 H 267.62 -4.06142 -2.18106 0
M  V30 2706 H 271.164 -6.96868 -0.319542 0
M  V30 2707 H 267.061 -6.30937 -1.36342 0
M  V30 2708 H 267.829 -8.1727 -0.448493 0
M  V30 2709 N 270.492 0.636531 -1.44174 0
M  V30 2710 C 271.717 1.42847 -1.50364 0
M  V30 2711 C 272.142 1.87665 -0.127867 0
M  V30 2712 O 271.5 1.58408 0.88185 0
M  V30 2713 C 271.548 2.62854 -2.4686 0
M  V30 2714 O 270.652 3.62501 -1.9664 0
M  V30 2715 H 269.993 0.427642 -0.507955 0
M  V30 2716 H 272.523 0.777422 -1.89255 0
M  V30 2717 H 272.533 3.10465 -2.64718 0
M  V30 2718 H 271.208 2.29578 -3.46795 0
M  V30 2719 H 269.785 3.21735 -1.88523 0
M  V30 2720 N 271.97 1.30982 0.876444 0
M  V30 2721 C 272.9 1.20668 1.99903 0
M  V30 2722 C 273.881 0.095354 1.69833 0
M  V30 2723 O 275.066 0.27885 1.92188 0
M  V30 2724 C 272.196 0.90655 3.3526 0
M  V30 2725 C 271.15 1.97675 3.79617 0
M  V30 2726 C 270.476 1.52943 5.1236 0
M  V30 2727 C 271.776 3.389 3.97422 0
M  V30 2728 H 273.47 2.14586 2.0879 0
M  V30 2729 H 271.016 1.03308 1.00317 0
M  V30 2730 H 272.969 0.821025 4.13324 0
M  V30 2731 H 271.693 -0.0682969 3.26529 0
M  V30 2732 H 270.352 2.05205 3.03787 0
M  V30 2733 H 270 0.54262 5.00065 0
M  V30 2734 H 269.7 2.24532 5.43009 0
M  V30 2735 H 271.224 1.45786 5.92941 0
M  V30 2736 H 272.638 3.34081 4.659 0
M  V30 2737 H 271.035 4.0865 4.3946 0
M  V30 2738 H 272.105 3.80163 3.01006 0
M  V30 2739 N 273.449 -1.08991 1.13837 0
M  V30 2740 C 274.674 -1.85551 0.926585 0
M  V30 2741 C 275.099 -1.80782 -0.519566 0
M  V30 2742 O 274.457 -1.18855 -1.36906 0
M  V30 2743 C 274.505 -3.31266 1.42462 0
M  V30 2744 O 273.609 -4.07822 0.612789 0
M  V30 2745 H 272.95 -0.575192 0.331738 0
M  V30 2746 H 275.48 -1.37604 1.51414 0
M  V30 2747 H 275.49 -3.82112 1.43019 0
M  V30 2748 H 274.165 -3.34052 2.47754 0
M  V30 2749 H 272.742 -3.66731 0.675463 0
M  V30 2750 N 274.927 -0.932562 -1.27047 0
M  V30 2751 C 276.152 -0.591474 -1.98787 0
M  V30 2752 C 276.577 0.824601 -1.69062 0
M  V30 2753 O 275.935 1.5541 -0.933677 0
M  V30 2754 C 275.983 -0.829808 -3.50922 0
M  V30 2755 O 275.087 0.102266 -4.12273 0
M  V30 2756 H 274.428 -0.227185 -0.623926 0
M  V30 2757 H 276.958 -1.25314 -1.61733 0
M  V30 2758 H 276.968 -0.747292 -4.01098 0
M  V30 2759 H 275.643 -1.86201 -3.7189 0
M  V30 2760 H 274.22 -0.0305761 -3.72887 0
M  V30 2761 N 276.405 1.4127 -0.698611 0
M  V30 2762 C 277.651 2.01478 -0.231207 0
M  V30 2763 C 277.984 1.55215 1.16713 0
M  V30 2764 O 277.259 0.764672 1.78838 0
M  V30 2765 C 277.542 3.58912 -0.292281 0
M  V30 2766 C 277.395 4.15293 -1.72778 0
M  V30 2767 C 278.714 4.38736 0.346194 0
M  V30 2768 H 275.833 0.732025 -0.0854878 0
M  V30 2769 H 278.475 1.67977 -0.887906 0
M  V30 2770 H 276.625 3.87582 0.26686 0
M  V30 2771 H 278.297 3.97486 -2.341 0
M  V30 2772 H 276.54 3.7022 -2.26096 0
M  V30 2773 H 277.211 5.24452 -1.72202 0
M  V30 2774 H 279.687 4.15897 -0.130035 0
M  V30 2775 H 278.563 5.48221 0.272932 0
M  V30 2776 H 278.824 4.18425 1.42734 0
M  V30 2777 N 277.883 0.443576 1.51229 0
M  V30 2778 C 279.129 -0.120975 2.02439 0
M  V30 2779 C 279.462 -1.41815 1.32674 0
M  V30 2780 O 278.737 -1.89373 0.443622 0
M  V30 2781 C 279.02 -0.333291 3.58554 0
M  V30 2782 C 278.873 0.982968 4.38928 0
M  V30 2783 C 280.192 -1.10028 4.26124 0
M  V30 2784 H 277.311 -0.0424923 0.735774 0
M  V30 2785 H 279.953 0.583794 1.80809 0
M  V30 2786 H 278.103 -0.933614 3.77115 0
M  V30 2787 H 279.775 1.61775 4.32003 0
M  V30 2788 H 278.018 1.58611 4.03763 0
M  V30 2789 H 278.689 0.788379 5.46341 0
M  V30 2790 H 281.165 -0.591711 4.11871 0
M  V30 2791 H 280.041 -1.21761 5.35225 0
M  V30 2792 H 280.302 -2.12996 3.87408 0
M  V30 2793 N 279.361 -1.56624 0.175154 0
M  V30 2794 C 280.589 -2.01374 -0.474971 0
M  V30 2795 C 281.004 -1.05537 -1.56548 0
M  V30 2796 O 280.361 -0.0568668 -1.82411 0
M  V30 2797 C 280.412 -3.45923 -1.04975 0
M  V30 2798 O 280.133 -4.381 -0.00276605 0
M  V30 2799 C 281.634 -4.06093 -1.77773 0
M  V30 2800 H 278.854 -0.659962 -0.121206 0
M  V30 2801 H 281.398 -2.02601 0.27801 0
M  V30 2802 H 279.553 -3.45458 -1.75321 0
M  V30 2803 H 279.967 -5.22753 -0.427681 0
M  V30 2804 H 281.441 -5.09147 -2.13245 0
M  V30 2805 H 281.918 -3.48405 -2.67414 0
M  V30 2806 H 282.524 -4.10272 -1.12059 0
M  V30 2807 N 280.839 0.0985539 -1.57292 0
M  V30 2808 C 282.085 0.803867 -1.86188 0
M  V30 2809 C 282.418 1.78549 -0.763794 0
M  V30 2810 O 281.693 1.93153 0.22855 0
M  V30 2811 C 281.976 1.53568 -3.25713 0
M  V30 2812 C 281.829 0.572277 -4.46145 0
M  V30 2813 C 283.148 2.48708 -3.63087 0
M  V30 2814 H 280.267 0.290781 -0.677211 0
M  V30 2815 H 282.909 0.0675783 -1.8988 0
M  V30 2816 H 281.059 2.16332 -3.22696 0
M  V30 2817 H 282.731 -0.0480894 -4.61275 0
M  V30 2818 H 280.974 -0.114618 -4.33649 0
M  V30 2819 H 281.645 1.12139 -5.40489 0
M  V30 2820 H 284.121 1.96039 -3.67026 0
M  V30 2821 H 282.997 2.96932 -4.61652 0
M  V30 2822 H 283.258 3.32309 -2.91588 0
M  V30 2823 N 282.317 1.53212 0.369288 0
M  V30 2824 C 283.728 1.60943 0.946276 0
M  V30 2825 C 284.079 0.47452 1.90375 0
M  V30 2826 O 283.204 -0.399597 2.12679 0
M  V30 2827 C 283.799 2.91715 1.72302 0
M  V30 2828 C 282.358 3.01792 2.24941 0
M  V30 2829 C 281.505 2.56211 1.06072 0
M  V30 2830 H 284.456 1.58007 0.148198 0
M  V30 2831 H 284.477 2.79309 2.58393 0
M  V30 2832 H 283.989 3.74295 1.0259 0
M  V30 2833 H 282.09 2.23791 2.97906 0
M  V30 2834 H 282.203 4.06803 2.53077 0
M  V30 2835 H 280.567 2.10998 1.4266 0
M  V30 2836 H 281.35 3.41206 0.378639 0
M  V30 2837 N 283.795 -0.628877 1.44509 0
M  V30 2838 C 285.02 -1.42048 1.5112 0
M  V30 2839 C 285.445 -1.87594 0.137818 0
M  V30 2840 O 284.803 -1.58873 -0.873437 0
M  V30 2841 C 284.851 -2.61541 2.48251 0
M  V30 2842 O 283.955 -3.61453 1.98559 0
M  V30 2843 H 283.296 -0.424942 0.510216 0
M  V30 2844 H 285.826 -0.767374 1.89664 0
M  V30 2845 H 285.836 -3.09057 2.66361 0
M  V30 2846 H 284.511 -2.27736 3.48007 0
M  V30 2847 H 283.088 -3.20731 1.90227 0
M  V30 2848 N 285.273 -1.31445 -0.869486 0
M  V30 2849 C 286.498 -1.24256 -1.66058 0
M  V30 2850 C 286.923 0.188928 -1.87149 0
M  V30 2851 O 286.281 1.13522 -1.4136 0
M  V30 2852 C 286.329 -1.9924 -3.00559 0
M  V30 2853 O 285.433 -1.33007 -3.90362 0
M  V30 2854 H 284.774 -0.428973 -0.506831 0
M  V30 2855 H 287.304 -1.73521 -1.08404 0
M  V30 2856 H 287.314 -2.08854 -3.50491 0
M  V30 2857 H 285.989 -3.03342 -2.84528 0
M  V30 2858 H 284.566 -1.31848 -3.48813 0
M  V30 2859 N 286.751 1.08385 -1.14413 0
M  V30 2860 C 287.976 1.85057 -0.936413 0
M  V30 2861 C 288.401 1.81055 0.509971 0
M  V30 2862 O 287.759 1.1958 1.36273 0
M  V30 2863 C 287.807 3.30505 -1.44217 0
M  V30 2864 O 286.911 4.07491 -0.634409 0
M  V30 2865 H 286.252 0.573425 -0.334784 0
M  V30 2866 H 288.782 1.36799 -1.52142 0
M  V30 2867 H 288.792 3.81348 -1.45043 0
M  V30 2868 H 287.467 3.32734 -2.49522 0
M  V30 2869 H 286.044 3.66368 -0.694902 0
M  V30 2870 N 288.23 0.939286 1.26551 0
M  V30 2871 C 289.16 0.465044 2.28822 0
M  V30 2872 C 290.141 -0.480692 1.63167 0
M  V30 2873 O 291.326 -0.382955 1.90387 0
M  V30 2874 C 288.456 -0.27234 3.46231 0
M  V30 2875 C 287.41 0.58666 4.2396 0
M  V30 2876 C 286.736 -0.280573 5.33963 0
M  V30 2877 C 288.036 1.85704 4.88171 0
M  V30 2878 H 289.73 1.31979 2.68741 0
M  V30 2879 H 287.276 0.636061 1.29191 0
M  V30 2880 H 289.229 -0.615133 4.16886 0
M  V30 2881 H 287.953 -1.16121 3.0526 0
M  V30 2882 H 286.612 0.91232 3.55067 0
M  V30 2883 H 286.26 -1.16874 4.89234 0
M  V30 2884 H 285.96 0.29076 5.8688 0
M  V30 2885 H 287.484 -0.618678 6.07458 0
M  V30 2886 H 288.898 1.58161 5.51052 0
M  V30 2887 H 287.295 2.37279 5.51197 0
M  V30 2888 H 288.365 2.56957 4.11219 0
M  V30 2889 N 289.708 -1.40897 0.706093 0
M  V30 2890 C 290.956 -2.00657 0.241054 0
M  V30 2891 C 291.277 -1.56241 -1.16678 0
M  V30 2892 O 290.547 -0.79765 -1.78926 0
M  V30 2893 H 289.127 -0.742018 0.0861308 0
M  V30 2894 H 291.789 -1.72372 0.909604 0
M  V30 2895 H 290.885 -3.10958 0.266705 0
M  V30 2896 N 291.186 -0.45159 -1.50991 0
M  V30 2897 C 292.414 0.108334 -2.06616 0
M  V30 2898 C 292.829 1.35224 -1.31757 0
M  V30 2899 O 292.186 1.78475 -0.381174 0
M  V30 2900 C 292.237 0.41619 -3.59096 0
M  V30 2901 O 291.958 -0.778361 -4.3113 0
M  V30 2902 C 293.459 1.02523 -4.31282 0
M  V30 2903 H 290.679 0.00159995 -0.670998 0
M  V30 2904 H 293.223 -0.634771 -1.94399 0
M  V30 2905 H 291.378 1.10921 -3.71181 0
M  V30 2906 H 291.792 -0.511181 -5.22003 0
M  V30 2907 H 293.266 1.19053 -5.39009 0
M  V30 2908 H 293.743 2.01013 -3.905 0
M  V30 2909 H 294.349 0.371173 -4.23677 0
M  V30 2910 N 292.664 1.56529 -0.183458 0
M  V30 2911 C 293.596 2.15747 0.773697 0
M  V30 2912 C 294.609 1.1162 1.1851 0
M  V30 2913 O 295.798 1.3876 1.12285 0
M  V30 2914 C 292.898 2.6952 2.05456 0
M  V30 2915 C 292.071 3.98429 1.8048 0
M  V30 2916 C 291.13 4.37145 2.92901 0
M  V30 2917 O 290.156 5.04791 2.6301 0
M  V30 2918 N 291.358 3.99695 4.2098 0
M  V30 2919 H 294.123 2.98505 0.26736 0
M  V30 2920 H 291.684 1.619 -0.0010878 0
M  V30 2921 H 293.676 2.92412 2.79781 0
M  V30 2922 H 292.246 1.91282 2.47245 0
M  V30 2923 H 291.466 3.8379 0.899947 0
M  V30 2924 H 292.754 4.82597 1.61175 0
M  V30 2925 H 292.152 3.4526 4.48121 0
M  V30 2926 H 290.709 4.27562 4.9197 0
M  V30 2927 N 294.142 -0.090211 1.57342 0
M  V30 2928 C 295.37 -0.806224 1.90546 0
M  V30 2929 C 295.785 -1.72041 0.777644 0
M  V30 2930 O 295.142 -1.80778 -0.250103 0
M  V30 2931 C 295.193 -1.61546 3.23396 0
M  V30 2932 O 294.914 -0.738043 4.31839 0
M  V30 2933 C 296.415 -2.4341 3.70495 0
M  V30 2934 H 293.635 -0.230256 0.630257 0
M  V30 2935 H 296.179 -0.0659843 2.04394 0
M  V30 2936 H 294.334 -2.30816 3.11131 0
M  V30 2937 H 294.748 -1.29901 5.08159 0
M  V30 2938 H 296.222 -2.95676 4.66133 0
M  V30 2939 H 296.699 -3.22098 2.98579 0
M  V30 2940 H 297.305 -1.79331 3.85643 0
M  V30 2941 N 295.62 -1.53406 -0.361157 0
M  V30 2942 C 296.85 -1.73465 -1.1222 0
M  V30 2943 C 297.258 -0.465486 -1.83384 0
M  V30 2944 O 296.601 0.571611 -1.7458 0
M  V30 2945 C 296.663 -2.84834 -2.19339 0
M  V30 2946 C 296.327 -4.25038 -1.67903 0
M  V30 2947 C 297.324 -5.07231 -1.14074 0
M  V30 2948 C 295.009 -4.71464 -1.73282 0
M  V30 2949 C 297.003 -6.33942 -0.663068 0
M  V30 2950 C 294.69 -5.98153 -1.25127 0
M  V30 2951 C 295.688 -6.79223 -0.717296 0
M  V30 2952 O 295.376 -8.03533 -0.242865 0
M  V30 2953 H 295.108 -0.583526 -0.341283 0
M  V30 2954 H 297.662 -2.00964 -0.424591 0
M  V30 2955 H 295.892 -2.5282 -2.92607 0
M  V30 2956 H 297.581 -2.9303 -2.80871 0
M  V30 2957 H 298.347 -4.72534 -1.09254 0
M  V30 2958 H 294.226 -4.08432 -2.13786 0
M  V30 2959 H 297.77 -6.97167 -0.245612 0
M  V30 2960 H 293.667 -6.32347 -1.29642 0
M  V30 2961 H 294.435 -8.177 -0.361786 0
M  V30 2962 N 297.098 0.621204 -1.44841 0
M  V30 2963 C 298.347 1.37658 -1.47422 0
M  V30 2964 C 298.66 1.95264 -0.114629 0
M  V30 2965 O 299.866 2.71494 -0.0180199 0
M  V30 2966 C 298.322 2.49285 -2.59586 0
M  V30 2967 C 297.93 1.98149 -4.01797 0
M  V30 2968 C 299.674 3.26409 -2.71399 0
M  V30 2969 C 297.581 3.07178 -5.05367 0
M  V30 2970 H 296.511 0.517344 -0.548517 0
M  V30 2971 H 299.162 0.667257 -1.70938 0
M  V30 2972 H 297.544 3.22839 -2.29328 0
M  V30 2973 H 298.718 1.31395 -4.41669 0
M  V30 2974 H 297.033 1.33812 -3.94314 0
M  V30 2975 H 299.63 4.07706 -3.45948 0
M  V30 2976 H 299.973 3.76535 -1.77559 0
M  V30 2977 H 300.506 2.5995 -3.01116 0
M  V30 2978 H 297.245 2.61985 -6.00869 0
M  V30 2979 H 296.765 3.72542 -4.70077 0
M  V30 2980 H 298.444 3.71789 -5.29511 0
M  V30 2981 N 298.576 1.31904 0.862503 0
M  V30 2982 C 299.816 1.23324 1.63004 0
M  V30 2983 C 300.18 -0.203724 1.90916 0
M  V30 2984 O 301.381 -0.413132 2.65606 0
M  V30 2985 C 299.652 2.06116 2.91978 0
M  V30 2986 S 301.211 2.14478 3.82812 0
M  V30 2987 H 298.029 0.439117 0.559193 0
M  V30 2988 H 300.631 1.66658 1.02202 0
M  V30 2989 H 299.335 3.09593 2.69407 0
M  V30 2990 H 298.866 1.6353 3.57801 0
M  V30 2991 H 300.881 1.28855 4.79177 0
M  V30 2992 N 300.054 -1.07777 1.14986 0
M  V30 2993 C 301.002 -2.16964 0.838406 0
M  V30 2994 C 301.996 -1.68372 -0.186386 0
M  V30 2995 O 303.202 -1.79951 -0.0418465 0
M  V30 2996 H 299.577 -0.708006 0.253439 0
M  V30 2997 H 301.548 -2.40454 1.76704 0
M  V30 2998 C 300.297 -3.4604 0.339335 0
M  V30 2999 H 299.62 -3.83813 1.11927 0
M  V30 3000 H 301.06 -4.23698 0.160021 0
M  V30 3001 C 299.519 -3.23569 -0.938325 0
M  V30 3002 O 300.049 -3.47752 -2.01077 0
M  V30 3003 N 298.255 -2.77079 -0.876117 0
M  V30 3004 H 297.802 -2.576 -0.00322037 0
M  V30 3005 H 297.76 -2.62422 -1.73153 0
M  V30 3006 N 301.532 -0.945985 -1.26051 0
M  V30 3007 C 302.778 -0.597002 -1.93814 0
M  V30 3008 C 303.111 0.862484 -1.73997 0
M  V30 3009 O 302.386 1.61769 -1.07986 0
M  V30 3010 C 302.669 -0.945937 -3.47454 0
M  V30 3011 C 302.522 -2.46052 -3.76535 0
M  V30 3012 C 303.841 -0.464785 -4.37639 0
M  V30 3013 H 300.96 -0.218366 -0.703907 0
M  V30 3014 H 303.602 -1.18107 -1.48831 0
M  V30 3015 H 301.752 -0.448902 -3.85898 0
M  V30 3016 H 303.424 -3.03065 -3.47778 0
M  V30 3017 H 301.667 -2.90194 -3.22444 0
M  V30 3018 H 302.338 -2.65517 -4.83947 0
M  V30 3019 H 304.814 -0.891016 -4.06448 0
M  V30 3020 H 303.69 -0.737712 -5.4392 0
M  V30 3021 H 303.951 0.635274 -4.37512 0
M  V30 3022 N 303.011 1.40521 -0.713556 0
M  V30 3023 C 303.959 2.32549 -0.0485227 0
M  V30 3024 C 304.953 1.51931 0.74922 0
M  V30 3025 O 306.159 1.67745 0.652816 0
M  V30 3026 H 302.534 0.751994 0.00311138 0
M  V30 3027 H 304.505 2.86291 -0.841443 0
M  V30 3028 C 303.254 3.36879 0.860687 0
M  V30 3029 H 302.577 3.98978 0.256246 0
M  V30 3030 H 304.017 4.03772 1.294 0
M  V30 3031 C 302.476 2.72197 1.9852 0
M  V30 3032 O 303.006 2.5837 3.07584 0
M  V30 3033 N 301.212 2.30612 1.76823 0
M  V30 3034 H 300.759 2.42059 0.881217 0
M  V30 3035 H 300.717 1.87672 2.52243 0
M  V30 3036 N 304.489 0.459591 1.5075 0
M  V30 3037 C 305.439 -0.358926 2.25157 0
M  V30 3038 C 306.423 -0.971285 1.28276 0
M  V30 3039 O 307.615 -0.885739 1.53244 0
M  V30 3040 C 304.744 -1.44695 3.11317 0
M  V30 3041 C 303.83 -0.842894 4.15639 0
M  V30 3042 N 304.221 0.0299373 5.05791 0
M  V30 3043 C 302.519 -1.10809 4.32015 0
M  V30 3044 C 303.22 0.371563 5.80512 0
M  V30 3045 N 302.196 -0.250409 5.43023 0
M  V30 3046 H 305.998 0.313636 2.92222 0
M  V30 3047 H 303.512 0.273021 1.60089 0
M  V30 3048 H 305.509 -2.04641 3.63218 0
M  V30 3049 H 304.169 -2.12162 2.45799 0
M  V30 3050 H 305.18 0.39797 5.16369 0
M  V30 3051 H 301.857 -1.7786 3.77719 0
M  V30 3052 H 303.247 1.08319 6.63111 0
M  V30 3053 N 305.967 -1.56429 0.191757 0
M  V30 3054 C 306.914 -2.18936 -0.730454 0
M  V30 3055 C 307.884 -1.13557 -1.21219 0
M  V30 3056 O 309.069 -1.41794 -1.27668 0
M  V30 3057 C 306.209 -2.85013 -1.9458 0
M  V30 3058 C 305.322 -4.04909 -1.50574 0
M  V30 3059 C 304.457 -4.58853 -2.67634 0
M  V30 3060 C 303.496 -5.71114 -2.20217 0
M  V30 3061 N 302.633 -6.19478 -3.30442 0
M  V30 3062 H 307.473 -2.97389 -0.190664 0
M  V30 3063 H 305.01 -1.46869 -0.0823694 0
M  V30 3064 H 306.968 -3.21492 -2.65893 0
M  V30 3065 H 305.598 -2.09129 -2.45896 0
M  V30 3066 H 304.65 -3.74115 -0.688605 0
M  V30 3067 H 305.962 -4.86113 -1.11784 0
M  V30 3068 H 305.116 -4.97619 -3.47074 0
M  V30 3069 H 303.855 -3.76749 -3.09696 0
M  V30 3070 H 302.86 -5.31879 -1.3923 0
M  V30 3071 H 304.085 -6.55033 -1.79189 0
M  V30 3072 H 302.031 -5.40297 -3.72041 0
M  V30 3073 H 301.948 -6.95725 -2.9581 0
M  V30 3074 H 303.216 -6.62898 -4.10106 0
M  V30 3075 N 307.445 0.0818655 -1.57387 0
M  V30 3076 C 308.856 0.634871 -1.75574 0
M  V30 3077 C 309.207 1.78435 -0.815809 0
M  V30 3078 O 308.332 2.164 0.0025366 0
M  V30 3079 C 308.927 1.15845 -3.18379 0
M  V30 3080 C 307.486 1.65741 -3.37945 0
M  V30 3081 C 306.633 0.572549 -2.71325 0
M  V30 3082 H 309.584 -0.144268 -1.58043 0
M  V30 3083 H 309.605 2.02751 -3.21982 0
M  V30 3084 H 309.117 0.321631 -3.86765 0
M  V30 3085 H 307.218 2.51781 -2.74658 0
M  V30 3086 H 307.331 1.74129 -4.46336 0
M  V30 3087 H 305.695 1.01518 -2.33594 0
M  V30 3088 H 306.478 -0.253918 -3.4236 0
M  V30 3089 N 308.923 1.53595 0.353017 0
M  V30 3090 C 310.148 1.7462 1.11904 0
M  V30 3091 C 310.573 0.479721 1.8188 0
M  V30 3092 O 309.931 -0.567066 1.72204 0
M  V30 3093 C 309.979 2.92029 2.11545 0
M  V30 3094 O 309.083 2.61516 3.18878 0
M  V30 3095 H 308.424 0.579531 0.324099 0
M  V30 3096 H 310.954 2.00525 0.406301 0
M  V30 3097 H 310.964 3.18551 2.5493 0
M  V30 3098 H 309.639 3.83888 1.60008 0
M  V30 3099 H 308.216 2.45852 2.80377 0
M  V30 3100 N 310.401 -0.613514 1.45168 0
M  V30 3101 C 311.349 -1.74572 1.53712 0
M  V30 3102 C 312.343 -1.64426 0.407505 0
M  V30 3103 O 313.549 -1.70291 0.583176 0
M  V30 3104 H 309.924 -0.576641 0.48269 0
M  V30 3105 H 311.895 -1.64492 2.48968 0
M  V30 3106 C 310.644 -3.12943 1.51532 0
M  V30 3107 H 309.967 -3.21407 2.37776 0
M  V30 3108 H 311.407 -3.9201 1.61569 0
M  V30 3109 C 309.866 -3.36053 0.238798 0
M  V30 3110 O 310.396 -3.95837 -0.6838 0
M  V30 3111 N 308.602 -2.9028 0.136359 0
M  V30 3112 H 308.149 -2.41811 0.887999 0
M  V30 3113 H 308.107 -3.06116 -0.716944 0
M  V30 3114 N 311.879 -1.3236 -0.855495 0
M  V30 3115 C 313.107 -1.2587 -1.64208 0
M  V30 3116 C 313.522 0.173457 -1.88002 0
M  V30 3117 O 312.879 1.11027 -1.44842 0
M  V30 3118 C 312.93 -2.01424 -3.00184 0
M  V30 3119 O 312.651 -3.39051 -2.77445 0
M  V30 3120 C 314.152 -2.01948 -3.94629 0
M  V30 3121 H 311.372 -0.434318 -0.511477 0
M  V30 3122 H 313.916 -1.74469 -1.0668 0
M  V30 3123 H 312.071 -1.56549 -3.5436 0
M  V30 3124 H 312.485 -3.77711 -3.63916 0
M  V30 3125 H 313.959 -2.59297 -4.87308 0
M  V30 3126 H 314.436 -1.00554 -4.27534 0
M  V30 3127 H 315.042 -2.46767 -3.4639 0
M  V30 3128 N 313.357 1.07166 -1.15556 0
M  V30 3129 C 314.304 2.14417 -0.854055 0
M  V30 3130 C 315.274 1.64965 0.193806 0
M  V30 3131 O 316.459 1.90703 0.0609443 0
M  V30 3132 C 313.599 3.43304 -0.351574 0
M  V30 3133 C 312.712 4.06537 -1.46123 0
M  V30 3134 C 311.847 5.23266 -0.914677 0
M  V30 3135 C 310.886 5.78464 -2.00114 0
M  V30 3136 N 310.023 6.86521 -1.47083 0
M  V30 3137 H 314.863 2.39548 -1.77259 0
M  V30 3138 H 312.4 1.17543 -0.884425 0
M  V30 3139 H 314.358 4.17179 -0.0419409 0
M  V30 3140 H 312.988 3.18419 0.530037 0
M  V30 3141 H 312.04 3.30297 -1.88701 0
M  V30 3142 H 313.352 4.43567 -2.28144 0
M  V30 3143 H 312.506 6.04131 -0.557698 0
M  V30 3144 H 311.245 4.87658 -0.0636583 0
M  V30 3145 H 310.25 4.96243 -2.36692 0
M  V30 3146 H 311.475 6.16126 -2.85597 0
M  V30 3147 H 309.421 6.52849 -0.642198 0
M  V30 3148 H 309.338 7.22446 -2.22729 0
M  V30 3149 H 310.606 7.71087 -1.14215 0
M  V30 3150 N 314.835 0.952656 1.25548 0
M  V30 3151 C 316.081 0.607272 1.93494 0
M  V30 3152 C 316.414 -0.853245 1.74452 0
M  V30 3153 O 315.689 -1.61194 1.08843 0
M  V30 3154 C 315.972 0.96435 3.46947 0
M  V30 3155 C 315.825 2.48045 3.75225 0
M  V30 3156 C 317.144 0.487987 4.37386 0
M  V30 3157 H 314.263 0.222096 0.702739 0
M  V30 3158 H 316.905 1.18895 1.48203 0
M  V30 3159 H 315.055 0.469361 3.85654 0
M  V30 3160 H 316.727 3.04905 3.46166 0
M  V30 3161 H 314.97 2.919 3.209 0
M  V30 3162 H 315.641 2.6808 4.82532 0
M  V30 3163 H 318.117 0.912558 4.0597 0
M  V30 3164 H 316.993 0.766547 5.43521 0
M  V30 3165 H 317.254 -0.612063 4.37843 0
M  V30 3166 N 316.313 -1.40141 0.720998 0
M  V30 3167 C 317.59 -1.94677 0.189757 0
M  V30 3168 C 317.97 -1.65879 -1.30566 0
M  V30 3169 O 317.318 -0.979391 -2.06447 0
M  V30 3170 C 317.528 -3.45279 0.508304 0
M  V30 3171 C 318.876 -4.22209 0.449934 0
M  V30 3172 O 319.9 -3.53413 0.444677 0
M  V30 3173 O 318.759 -5.44788 0.432189 0
M  V30 3174 H 315.853 -0.826459 0.0299026 0
M  V30 3175 H 318.399 -1.49719 0.7989 0
M  V30 3176 H 317.171 -3.59619 1.54239 0
M  V30 3177 H 316.794 -3.97386 -0.130525 0
M  V30 3178 N 317.792 -0.46758 -1.50504 0
M  V30 3179 C 318.739 0.328413 -2.28452 0
M  V30 3180 C 319.709 0.990313 -1.33349 0
M  V30 3181 O 320.894 1.00343 -1.62284 0
M  V30 3182 C 318.034 1.40648 -3.15138 0
M  V30 3183 C 317.147 0.759709 -4.25267 0
M  V30 3184 C 316.282 1.81537 -4.99217 0
M  V30 3185 C 315.321 1.14866 -6.01226 0
M  V30 3186 N 314.458 2.14702 -6.68467 0
M  V30 3187 H 319.298 -0.342603 -2.96024 0
M  V30 3188 H 316.835 -0.180801 -1.45985 0
M  V30 3189 H 318.793 2.04315 -3.63746 0
M  V30 3190 H 317.423 2.04671 -2.49619 0
M  V30 3191 H 316.475 0.0105671 -3.80399 0
M  V30 3192 H 317.787 0.233243 -4.98254 0
M  V30 3193 H 316.941 2.52793 -5.51526 0
M  V30 3194 H 315.68 2.37564 -4.25928 0
M  V30 3195 H 314.685 0.42171 -5.4818 0
M  V30 3196 H 315.91 0.595334 -6.76485 0
M  V30 3197 H 313.856 2.69752 -5.97972 0
M  V30 3198 H 313.773 1.6703 -7.37317 0
M  V30 3199 H 315.041 2.85348 -7.25394 0
M  V30 3200 N 319.27 1.56325 -0.20005 0
M  V30 3201 C 320.217 2.1932 0.718833 0
M  V30 3202 C 321.187 1.14198 1.20615 0
M  V30 3203 O 322.372 1.42469 1.26914 0
M  V30 3204 C 319.512 2.86041 1.93066 0
M  V30 3205 C 318.625 4.05702 1.48425 0
M  V30 3206 C 317.76 4.60266 2.65196 0
M  V30 3207 C 316.799 5.72273 2.17185 0
M  V30 3208 N 315.936 6.21221 3.27152 0
M  V30 3209 H 320.776 2.97486 0.17489 0
M  V30 3210 H 318.313 1.46911 0.0745794 0
M  V30 3211 H 320.271 3.22897 2.64184 0
M  V30 3212 H 318.901 2.1043 2.44783 0
M  V30 3213 H 317.953 3.74475 0.668755 0
M  V30 3214 H 319.265 4.86699 1.09204 0
M  V30 3215 H 318.419 4.99453 3.4443 0
M  V30 3216 H 317.158 3.78386 3.07693 0
M  V30 3217 H 316.163 5.3261 1.36407 0
M  V30 3218 H 317.388 6.55974 1.75713 0
M  V30 3219 H 315.334 5.42263 3.69171 0
M  V30 3220 H 315.251 6.97284 2.92116 0
M  V30 3221 H 316.519 6.65063 4.06585 0
M  V30 3222 N 320.748 -0.0735177 1.57428 0
M  V30 3223 C 321.994 -0.774145 1.87443 0
M  V30 3224 C 322.327 -1.77311 0.792103 0
M  V30 3225 O 321.602 -1.93492 -0.197793 0
M  V30 3226 C 321.885 -1.48367 3.28115 0
M  V30 3227 C 321.738 -0.501227 4.46999 0
M  V30 3228 C 323.057 -2.429 3.66998 0
M  V30 3229 H 320.176 -0.279971 0.681752 0
M  V30 3230 H 322.818 -0.0373616 1.89963 0
M  V30 3231 H 320.968 -2.11171 3.26097 0
M  V30 3232 H 322.64 0.121468 4.6114 0
M  V30 3233 H 320.883 0.183593 4.33411 0
M  V30 3234 H 321.554 -1.03526 5.42205 0
M  V30 3235 H 324.03 -1.90175 3.70098 0
M  V30 3236 H 322.906 -2.89549 4.66318 0
M  V30 3237 H 323.167 -3.27628 2.96837 0
M  V30 3238 N 322.226 -1.5378 -0.344866 0
M  V30 3239 C 323.136 -1.84667 -1.4469 0
M  V30 3240 C 324.152 -0.736704 -1.57635 0
M  V30 3241 O 325.328 -1.02888 -1.73136 0
M  V30 3242 C 322.393 -2.04869 -2.79696 0
M  V30 3243 C 321.454 -3.28731 -2.76106 0
M  V30 3244 C 320.687 -3.4796 -4.04673 0
M  V30 3245 O 320.91 -2.71052 -5.01883 0
M  V30 3246 O 319.844 -4.41383 -4.09224 0
M  V30 3247 H 323.67 -2.78334 -1.21506 0
M  V30 3248 H 321.255 -1.39418 -0.536921 0
M  V30 3249 H 323.137 -2.19609 -3.59652 0
M  V30 3250 H 321.812 -1.14391 -3.02814 0
M  V30 3251 H 320.719 -3.19396 -1.94774 0
M  V30 3252 H 322.052 -4.19198 -2.57941 0
M  V30 3253 N 323.704 0.605807 -1.45491 0
M  V30 3254 C 325.115 1.18777 -1.44045 0
M  V30 3255 C 325.466 1.95471 -0.169001 0
M  V30 3256 O 324.591 2.0374 0.729324 0
M  V30 3257 C 325.186 2.16064 -2.60963 0
M  V30 3258 C 323.745 2.69633 -2.62631 0
M  V30 3259 C 322.892 1.45072 -2.36325 0
M  V30 3260 H 325.843 0.395017 -1.53705 0
M  V30 3261 H 325.864 2.9913 -2.35163 0
M  V30 3262 H 325.376 1.60217 -3.53486 0
M  V30 3263 H 323.477 3.29414 -1.74119 0
M  V30 3264 H 323.59 3.13944 -3.61906 0
M  V30 3265 H 321.954 1.74089 -1.85917 0
M  V30 3266 H 322.737 0.910899 -3.30995 0
M  V30 3267 N 325.182 1.32811 0.848464 0
M  V30 3268 C 326.129 1.22265 1.95755 0
M  V30 3269 C 327.099 0.103413 1.65778 0
M  V30 3270 O 328.284 0.280033 1.88734 0
M  V30 3271 C 325.424 0.958014 3.31536 0
M  V30 3272 C 324.537 2.16262 3.73971 0
M  V30 3273 C 323.672 1.83295 4.98575 0
M  V30 3274 C 322.711 3.00041 5.33518 0
M  V30 3275 N 321.848 2.67125 6.49299 0
M  V30 3276 H 326.688 2.17128 2.04107 0
M  V30 3277 H 324.225 1.07982 0.998913 0
M  V30 3278 H 326.183 0.785052 4.09747 0
M  V30 3279 H 324.813 0.046159 3.22767 0
M  V30 3280 H 323.865 2.44565 2.91362 0
M  V30 3281 H 325.177 3.03572 3.95785 0
M  V30 3282 H 324.331 1.62586 5.84509 0
M  V30 3283 H 323.07 0.932078 4.7871 0
M  V30 3284 H 322.075 3.21374 4.46093 0
M  V30 3285 H 323.3 3.90869 5.55336 0
M  V30 3286 H 321.246 1.79586 6.3094 0
M  V30 3287 H 321.163 3.47965 6.71161 0
M  V30 3288 H 322.431 2.49861 7.3837 0
M  V30 3289 N 326.66 -1.06551 1.16123 0
M  V30 3290 C 327.885 -1.83544 0.965735 0
M  V30 3291 C 328.31 -1.81843 -0.481102 0
M  V30 3292 O 327.668 -1.21732 -1.34354 0
M  V30 3293 C 327.716 -3.28169 1.49457 0
M  V30 3294 O 326.82 -4.0643 0.699157 0
M  V30 3295 H 326.161 -0.568026 0.343864 0
M  V30 3296 H 328.691 -1.34362 1.54299 0
M  V30 3297 H 328.701 -3.78992 1.51092 0
M  V30 3298 H 327.376 -3.28722 2.54784 0
M  V30 3299 H 325.953 -3.65216 0.7531 0
M  V30 3300 N 328.138 -0.959301 -1.25041 0
M  V30 3301 C 329.378 -0.624343 -1.94631 0
M  V30 3302 C 329.742 0.82403 -1.73418 0
M  V30 3303 O 330.943 1.26881 -2.3697 0
M  V30 3304 C 329.214 -0.978805 -3.43736 0
M  V30 3305 S 330.773 -0.757127 -4.32219 0
M  V30 3306 H 327.591 -0.229327 -0.673001 0
M  V30 3307 H 330.193 -1.23447 -1.51595 0
M  V30 3308 H 328.897 -2.02997 -3.56679 0
M  V30 3309 H 328.428 -0.359117 -3.91757 0
M  V30 3310 H 330.443 0.369759 -4.9482 0
M  V30 3311 N 329.616 1.39756 -0.72842 0
M  V30 3312 C 330.893 1.94574 -0.200079 0
M  V30 3313 C 331.273 1.66569 1.29684 0
M  V30 3314 O 330.621 0.990326 2.05924 0
M  V30 3315 C 330.831 3.45004 -0.526608 0
M  V30 3316 C 332.179 4.21965 -0.472318 0
M  V30 3317 O 333.203 3.53173 -0.463413 0
M  V30 3318 O 332.062 5.44552 -0.461075 0
M  V30 3319 H 329.156 0.826289 -0.0342851 0
M  V30 3320 H 331.702 1.49293 -0.806829 0
M  V30 3321 H 330.474 3.58796 -1.56144 0
M  V30 3322 H 330.097 3.97449 0.109449 0
M  V30 3323 N 331.094 0.475555 1.50254 0
M  V30 3324 C 332.041 -0.316293 2.28622 0
M  V30 3325 C 333.011 -0.983227 1.33873 0
M  V30 3326 O 334.196 -0.994805 1.62814 0
M  V30 3327 C 331.336 -1.38975 3.1588 0
M  V30 3328 C 330.449 -0.737146 4.25664 0
M  V30 3329 C 329.584 -1.78887 5.00173 0
M  V30 3330 C 328.623 -1.11676 6.01826 0
M  V30 3331 N 327.76 -2.11154 6.69596 0
M  V30 3332 H 332.6 0.358297 2.95838 0
M  V30 3333 H 330.137 0.188541 1.45887 0
M  V30 3334 H 332.095 -2.02383 3.64825 0
M  V30 3335 H 330.725 -2.03344 2.50701 0
M  V30 3336 H 329.777 0.0096065 3.80399 0
M  V30 3337 H 331.089 -0.206816 4.98371 0
M  V30 3338 H 330.243 -2.49865 5.52859 0
M  V30 3339 H 328.982 -2.35302 4.27182 0
M  V30 3340 H 327.987 -0.392633 5.48396 0
M  V30 3341 H 329.212 -0.55945 6.76792 0
M  V30 3342 H 327.158 -2.66577 5.99394 0
M  V30 3343 H 327.075 -1.63118 7.38193 0
M  V30 3344 H 328.343 -2.81497 7.26897 0
M  V30 3345 N 332.573 -1.56217 0.208337 0
M  V30 3346 C 333.801 -2.02337 -0.43215 0
M  V30 3347 C 334.216 -1.08834 -1.54275 0
M  V30 3348 O 333.573 -0.0955462 -1.8225 0
M  V30 3349 C 333.624 -3.48072 -0.976138 0
M  V30 3350 O 333.345 -4.38007 0.0901621 0
M  V30 3351 C 334.846 -4.09773 -1.69119 0
M  V30 3352 H 332.066 -0.662385 -0.10718 0
M  V30 3353 H 334.61 -2.01966 0.320923 0
M  V30 3354 H 332.765 -3.49099 -1.67954 0
M  V30 3355 H 333.179 -5.23543 -0.316701 0
M  V30 3356 H 334.653 -5.13556 -2.02397 0
M  V30 3357 H 335.13 -3.53999 -2.59964 0
M  V30 3358 H 335.736 -4.12556 -1.03332 0
M  V30 3359 N 334.051 0.0651679 -1.57465 0
M  V30 3360 C 335.001 1.0838 -2.00594 0
M  V30 3361 C 335.985 1.34106 -0.889071 0
M  V30 3362 O 337.177 1.34295 -1.15299 0
M  V30 3363 C 334.306 2.39565 -2.45894 0
M  V30 3364 C 333.392 2.17085 -3.64328 0
M  V30 3365 N 333.783 1.64553 -4.78285 0
M  V30 3366 C 332.081 2.4753 -3.71006 0
M  V30 3367 C 332.782 1.57042 -5.60101 0
M  V30 3368 N 331.758 2.03328 -5.04141 0
M  V30 3369 H 335.56 0.671062 -2.86136 0
M  V30 3370 H 333.074 0.27213 -1.60104 0
M  V30 3371 H 335.071 3.13308 -2.75034 0
M  V30 3372 H 333.731 2.81549 -1.61741 0
M  V30 3373 H 334.742 1.33323 -5.00445 0
M  V30 3374 H 331.419 2.92835 -2.9758 0
M  V30 3375 H 332.809 1.17223 -6.61595 0
M  V30 3376 N 335.529 1.53961 0.336706 0
M  V30 3377 C 336.757 1.75483 1.09605 0
M  V30 3378 C 337.172 0.4972 1.82136 0
M  V30 3379 O 336.529 -0.53149 1.74589 0
M  V30 3380 C 336.58 2.93943 2.10428 0
M  V30 3381 O 336.301 4.14842 1.40846 0
M  V30 3382 C 337.802 3.27571 2.98684 0
M  V30 3383 H 335.022 0.586166 0.326574 0
M  V30 3384 H 337.566 2.00808 0.38683 0
M  V30 3385 H 335.721 2.70929 2.76905 0
M  V30 3386 H 336.135 4.81383 2.08255 0
M  V30 3387 H 337.609 4.13791 3.6535 0
M  V30 3388 H 338.086 2.44168 3.65074 0
M  V30 3389 H 338.692 3.52615 2.37787 0
M  V30 3390 N 337.007 -0.598083 1.45811 0
M  V30 3391 C 338.247 -1.36802 1.5187 0
M  V30 3392 C 338.611 -1.9133 0.160224 0
M  V30 3393 O 339.812 -2.6863 0.0955302 0
M  V30 3394 C 338.083 -2.47835 2.57513 0
M  V30 3395 S 339.642 -3.35458 2.82866 0
M  V30 3396 H 336.46 -0.466278 0.536755 0
M  V30 3397 H 339.062 -0.689152 1.82951 0
M  V30 3398 H 337.766 -2.06141 3.54872 0
M  V30 3399 H 337.297 -3.20512 2.28114 0
M  V30 3400 H 339.312 -4.46251 2.16967 0
M  V30 3401 N 338.485 -1.33259 -0.841409 0
M  V30 3402 C 339.896 -1.22066 -1.41269 0
M  V30 3403 C 340.247 0.161479 -1.95534 0
M  V30 3404 O 339.372 1.06094 -1.88608 0
M  V30 3405 C 339.967 -2.20996 -2.568 0
M  V30 3406 C 338.526 -2.13649 -3.09888 0
M  V30 3407 C 337.673 -2.08623 -1.82679 0
M  V30 3408 H 340.624 -1.44895 -0.647395 0
M  V30 3409 H 340.645 -1.81621 -3.34356 0
M  V30 3410 H 340.157 -3.2158 -2.17274 0
M  V30 3411 H 338.258 -1.16359 -3.53965 0
M  V30 3412 H 338.371 -3.04079 -3.70234 0
M  V30 3413 H 336.735 -1.54061 -2.02824 0
M  V30 3414 H 337.518 -3.1101 -1.45353 0
M  V30 3415 N 339.963 1.05934 -1.16686 0
M  V30 3416 C 341.374 1.60263 -0.957745 0
M  V30 3417 C 341.725 1.89789 0.49745 0
M  V30 3418 O 340.85 1.67401 1.37135 0
M  V30 3419 C 341.445 2.91172 -1.73218 0
M  V30 3420 C 340.004 3.42188 -1.56794 0
M  V30 3421 C 339.151 2.16028 -1.73859 0
M  V30 3422 H 342.102 0.888392 -1.31504 0
M  V30 3423 H 342.123 3.60744 -1.21014 0
M  V30 3424 H 341.635 2.6965 -2.79124 0
M  V30 3425 H 339.736 3.68762 -0.533437 0
M  V30 3426 H 339.849 4.17273 -2.35414 0
M  V30 3427 H 338.213 2.26426 -1.16633 0
M  V30 3428 H 338.996 1.96985 -2.81161 0
M  V30 3429 N 341.441 0.965919 1.2453 0
M  V30 3430 C 342.681 0.634656 1.94297 0
M  V30 3431 C 343.045 -0.814822 1.73852 0
M  V30 3432 O 344.246 -1.25622 2.3764 0
M  V30 3433 C 342.517 0.99702 3.43212 0
M  V30 3434 S 344.076 0.780038 4.31811 0
M  V30 3435 H 340.894 0.232893 0.671775 0
M  V30 3436 H 343.496 1.24249 1.50938 0
M  V30 3437 H 342.2 2.04886 3.55598 0
M  V30 3438 H 341.731 0.379888 3.91562 0
M  V30 3439 H 343.746 -0.343512 4.9501 0
M  V30 3440 N 342.919 -1.39368 0.735821 0
M  V30 3441 C 344.33 -1.83313 0.354015 0
M  V30 3442 C 344.681 -1.61461 -1.11466 0
M  V30 3443 O 343.806 -1.10621 -1.85989 0
M  V30 3444 C 344.401 -3.32781 0.635769 0
M  V30 3445 C 342.96 -3.75142 0.307448 0
M  V30 3446 C 342.107 -2.62358 0.897974 0
M  V30 3447 H 345.058 -1.28349 0.933398 0
M  V30 3448 H 345.079 -3.80388 -0.0921773 0
M  V30 3449 H 344.591 -3.48654 1.70476 0
M  V30 3450 H 342.692 -3.64857 -0.755674 0
M  V30 3451 H 342.805 -4.72532 0.790583 0
M  V30 3452 H 341.169 -2.52624 0.324551 0
M  V30 3453 H 341.952 -2.81036 1.97164 0
M  V30 3454 N 344.397 -0.483516 -1.5 0
M  V30 3455 C 345.36 0.292965 -2.2732 0
M  V30 3456 C 346.36 0.909499 -1.32608 0
M  V30 3457 O 347.55 0.776745 -1.55924 0
M  V30 3458 C 344.682 1.41854 -3.09984 0
M  V30 3459 H 345.875 -0.385289 -2.97415 0
M  V30 3460 H 343.428 -0.237942 -1.54478 0
M  V30 3461 H 344.163 2.13148 -2.44414 0
M  V30 3462 H 343.948 0.982114 -3.79601 0
M  V30 3463 H 345.438 1.96597 -3.68429 0
M  V30 3464 N 345.875 1.56104 -0.216619 0
M  V30 3465 C 347.286 1.844 0.292128 0
M  V30 3466 C 347.637 1.13788 1.59833 0
M  V30 3467 O 346.762 0.405888 2.12559 0
M  V30 3468 C 347.357 3.3452 0.53681 0
M  V30 3469 C 345.916 3.63151 0.989876 0
M  V30 3470 C 345.063 2.77255 0.0502302 0
M  V30 3471 H 348.014 1.52481 -0.439926 0
M  V30 3472 H 348.035 3.54459 1.38345 0
M  V30 3473 H 347.547 3.85885 -0.414031 0
M  V30 3474 H 345.648 3.17238 1.95425 0
M  V30 3475 H 345.761 4.71177 0.867698 0
M  V30 3476 H 344.125 2.48555 0.556117 0
M  V30 3477 H 344.908 3.31416 -0.89544 0
M  V30 3478 N 347.353 -0.0568162 1.57498 0
M  V30 3479 C 348.263 -1.08346 2.08083 0
M  V30 3480 C 349.279 -1.41439 1.01346 0
M  V30 3481 O 350.455 -1.51316 1.32912 0
M  V30 3482 C 347.52 -2.37352 2.52715 0
M  V30 3483 C 346.581 -2.11093 3.73816 0
M  V30 3484 C 345.814 -3.33949 4.1631 0
M  V30 3485 O 346.037 -4.43622 3.58547 0
M  V30 3486 O 344.971 -3.21279 5.08983 0
M  V30 3487 H 348.797 -0.683667 2.95905 0
M  V30 3488 H 346.382 -0.271965 1.46904 0
M  V30 3489 H 348.264 -3.13246 2.81877 0
M  V30 3490 H 346.939 -2.76681 1.68016 0
M  V30 3491 H 345.846 -1.32856 3.49714 0
M  V30 3492 H 347.179 -1.76637 4.59413 0
M  V30 3493 N 348.832 -1.54138 -0.328536 0
M  V30 3494 C 349.762 -1.86167 -1.40939 0
M  V30 3495 C 350.743 -0.718044 -1.54202 0
M  V30 3496 O 351.928 -0.971328 -1.68163 0
M  V30 3497 C 349.058 -2.08461 -2.77779 0
M  V30 3498 C 348.012 -3.24299 -2.7931 0
M  V30 3499 C 347.338 -3.31955 -4.19178 0
M  V30 3500 C 348.638 -4.62065 -2.43502 0
M  V30 3501 H 350.332 -2.76689 -1.14383 0
M  V30 3502 H 347.878 -1.33132 -0.548806 0
M  V30 3503 H 349.831 -2.29453 -3.53454 0
M  V30 3504 H 348.555 -1.14684 -3.05802 0
M  V30 3505 H 347.214 -3.03187 -2.0609 0
M  V30 3506 H 346.862 -2.35745 -4.44335 0
M  V30 3507 H 346.562 -4.09805 -4.2111 0
M  V30 3508 H 348.086 -3.55175 -4.96672 0
M  V30 3509 H 349.5 -4.8297 -3.08889 0
M  V30 3510 H 347.897 -5.42429 -2.56693 0
M  V30 3511 H 348.967 -4.64652 -1.38659 0
M  V30 3512 N 350.31 0.590341 -1.46126 0
M  V30 3513 C 351.24 1.71032 -1.58966 0
M  V30 3514 C 352.221 1.64302 -0.440335 0
M  V30 3515 O 353.406 1.82436 -0.665634 0
M  V30 3516 C 350.536 3.09665 -1.57241 0
M  V30 3517 C 349.49 3.31221 -2.71066 0
M  V30 3518 C 348.816 4.70303 -2.54399 0
M  V30 3519 C 350.116 3.19796 -4.1295 0
M  V30 3520 H 351.81 1.60543 -2.52718 0
M  V30 3521 H 349.356 0.770933 -1.21625 0
M  V30 3522 H 351.309 3.87831 -1.64819 0
M  V30 3523 H 350.033 3.21036 -0.600289 0
M  V30 3524 H 348.692 2.55452 -2.62944 0
M  V30 3525 H 348.34 4.78429 -1.55288 0
M  V30 3526 H 348.04 4.85679 -3.30741 0
M  V30 3527 H 349.564 5.50647 -2.63857 0
M  V30 3528 H 350.978 3.87815 -4.22223 0
M  V30 3529 H 349.375 3.46696 -4.89818 0
M  V30 3530 H 350.445 2.16983 -4.33643 0
M  V30 3531 N 351.788 1.33704 0.83433 0
M  V30 3532 C 353.036 1.25169 1.58673 0
M  V30 3533 C 353.357 -0.18127 1.94156 0
M  V30 3534 O 352.627 -1.11113 1.6134 0
M  V30 3535 H 351.207 0.4603 0.58833 0
M  V30 3536 H 353.869 1.67478 0.996847 0
M  V30 3537 H 352.965 1.84856 2.51465 0
M  V30 3538 N 353.266 -1.05314 1.17247 0
M  V30 3539 C 354.514 -1.77941 0.958194 0
M  V30 3540 C 354.835 -1.88089 -0.514556 0
M  V30 3541 O 354.105 -1.39676 -1.37359 0
M  V30 3542 H 352.685 -0.659116 0.351533 0
M  V30 3543 H 355.347 -1.27166 1.47699 0
M  V30 3544 H 354.443 -2.79663 1.38546 0
M  V30 3545 N 354.744 -0.972509 -1.24016 0
M  V30 3546 C 356.155 -0.67517 -1.74064 0
M  V30 3547 C 356.506 0.808939 -1.78747 0
M  V30 3548 O 355.631 1.63286 -1.42009 0
M  V30 3549 C 356.226 -1.21889 -3.16115 0
M  V30 3550 C 354.785 -0.971358 -3.6365 0
M  V30 3551 C 353.932 -1.35134 -2.42145 0
M  V30 3552 H 356.883 -1.14727 -1.09651 0
M  V30 3553 H 356.904 -0.587489 -3.75937 0
M  V30 3554 H 356.416 -2.29906 -3.12674 0
M  V30 3555 H 354.517 0.0930686 -3.72484 0
M  V30 3556 H 354.63 -1.62039 -4.50866 0
M  V30 3557 H 352.994 -0.769751 -2.4279 0
M  V30 3558 H 353.777 -2.4411 -2.41381 0
M  V30 3559 N 356.222 1.38976 -0.743202 0
M  V30 3560 C 357.447 2.05161 -0.303936 0
M  V30 3561 C 357.872 1.55677 1.05576 0
M  V30 3562 O 357.23 0.704131 1.67068 0
M  V30 3563 C 357.278 3.59138 -0.324373 0
M  V30 3564 O 356.382 4.06668 0.685204 0
M  V30 3565 H 355.723 0.649815 -0.136518 0
M  V30 3566 H 358.253 1.77852 -1.01142 0
M  V30 3567 H 358.263 4.07639 -0.171618 0
M  V30 3568 H 356.938 3.94515 -1.31647 0
M  V30 3569 H 355.515 3.69561 0.497913 0
M  V30 3570 N 357.7 0.491464 1.49741 0
M  V30 3571 C 358.946 -0.0565092 2.02721 0
M  V30 3572 C 359.279 -1.37522 1.37118 0
M  V30 3573 O 358.554 -1.87866 0.503645 0
M  V30 3574 C 358.837 -0.219051 3.59433 0
M  V30 3575 C 358.69 1.12211 4.35579 0
M  V30 3576 C 360.009 -0.964157 4.29409 0
M  V30 3577 H 357.128 -0.0190627 0.736753 0
M  V30 3578 H 359.77 0.641021 1.7886 0
M  V30 3579 H 357.92 -0.813165 3.79895 0
M  V30 3580 H 359.592 1.75437 4.26637 0
M  V30 3581 H 357.835 1.71377 3.98513 0
M  V30 3582 H 358.506 0.961794 5.43556 0
M  V30 3583 H 360.982 -0.460378 4.13545 0
M  V30 3584 H 359.858 -1.04671 5.38828 0
M  V30 3585 H 360.119 -2.00563 3.93988 0
M  V30 3586 N 359.178 -1.55987 0.224894 0
M  V30 3587 C 360.425 -1.9839 -0.4059 0
M  V30 3588 C 360.753 -1.11261 -1.59535 0
M  V30 3589 O 360.008 -0.158314 -1.95059 0
M  V30 3590 C 360.307 -3.46394 -0.880106 0
M  V30 3591 C 359.973 -4.5046 0.19918 0
M  V30 3592 C 358.635 -4.7864 0.495661 0
M  V30 3593 C 360.987 -5.12855 0.928939 0
M  V30 3594 C 358.315 -5.66497 1.52636 0
M  V30 3595 C 360.667 -6.01828 1.949 0
M  V30 3596 C 359.331 -6.28351 2.25236 0
M  V30 3597 H 358.601 -0.725961 -0.148529 0
M  V30 3598 H 361.248 -1.88668 0.328113 0
M  V30 3599 H 359.553 -3.53337 -1.69294 0
M  V30 3600 H 361.25 -3.76577 -1.37808 0
M  V30 3601 H 357.84 -4.28579 -0.0420526 0
M  V30 3602 H 362.024 -4.9115 0.713129 0
M  V30 3603 H 357.28 -5.8531 1.76698 0
M  V30 3604 H 361.454 -6.49225 2.51951 0
M  V30 3605 H 359.081 -6.96226 3.05244 0
M  V30 3606 N 360.656 0.0484629 -1.57525 0
M  V30 3607 C 361.586 1.0549 -2.08313 0
M  V30 3608 C 362.567 1.38929 -0.981463 0
M  V30 3609 O 363.752 1.48151 -1.25558 0
M  V30 3610 C 360.882 2.36162 -2.54646 0
M  V30 3611 C 359.836 2.17016 -3.68901 0
M  V30 3612 C 359.162 3.53278 -4.01371 0
M  V30 3613 C 360.462 1.57219 -4.98076 0
M  V30 3614 H 362.156 0.632195 -2.92649 0
M  V30 3615 H 359.702 0.302654 -1.40784 0
M  V30 3616 H 361.655 3.06882 -2.88793 0
M  V30 3617 H 360.379 2.80456 -1.67368 0
M  V30 3618 H 359.038 1.48733 -3.35073 0
M  V30 3619 H 358.686 3.95185 -3.11188 0
M  V30 3620 H 358.386 3.41299 -4.78318 0
M  V30 3621 H 359.91 4.25391 -4.38035 0
M  V30 3622 H 361.324 2.17832 -5.30304 0
M  V30 3623 H 359.721 1.55871 -5.79503 0
M  V30 3624 H 360.791 0.535956 -4.81929 0
M  V30 3625 N 362.134 1.5431 0.320358 0
M  V30 3626 C 363.381 1.72668 1.05792 0
M  V30 3627 C 363.709 0.502084 1.87908 0
M  V30 3628 O 362.964 -0.516149 1.88771 0
M  V30 3629 C 363.263 2.95639 2.00828 0
M  V30 3630 C 362.929 4.30265 1.34843 0
M  V30 3631 C 361.591 4.66865 1.16578 0
M  V30 3632 C 363.943 5.13801 0.875095 0
M  V30 3633 C 361.271 5.84597 0.496336 0
M  V30 3634 C 363.623 6.32219 0.219463 0
M  V30 3635 C 362.287 6.67495 0.0246915 0
M  V30 3636 H 361.557 0.631837 0.387121 0
M  V30 3637 H 364.204 1.88552 0.334735 0
M  V30 3638 H 362.509 2.74456 2.79609 0
M  V30 3639 H 364.206 3.07038 2.57932 0
M  V30 3640 H 360.796 4.01472 1.50061 0
M  V30 3641 H 364.98 4.86039 1.00398 0
M  V30 3642 H 360.236 6.10486 0.334264 0
M  V30 3643 H 364.41 6.96227 -0.155291 0
M  V30 3644 H 362.037 7.5858 -0.496065 0
M  V30 3645 N 363.613 -0.582584 1.46437 0
M  V30 3646 C 365.024 -1.1647 1.45916 0
M  V30 3647 C 365.375 -1.95177 0.200077 0
M  V30 3648 O 364.5 -2.04874 -0.696819 0
M  V30 3649 C 365.095 -2.11885 2.64367 0
M  V30 3650 C 363.654 -2.65421 2.66887 0
M  V30 3651 C 362.801 -1.41294 2.38603 0
M  V30 3652 H 365.752 -0.370514 1.54314 0
M  V30 3653 H 365.773 -2.9535 2.39892 0
M  V30 3654 H 365.285 -1.54573 3.5599 0
M  V30 3655 H 363.386 -3.26602 1.79338 0
M  V30 3656 H 363.499 -3.08147 3.66854 0
M  V30 3657 H 361.863 -1.71109 1.88663 0
M  V30 3658 H 362.646 -0.858125 3.32402 0
M  V30 3659 N 365.091 -1.34144 -0.827227 0
M  V30 3660 C 366.502 -1.23557 -1.39966 0
M  V30 3661 C 366.853 0.140731 -1.95695 0
M  V30 3662 O 365.978 1.04087 -1.89723 0
M  V30 3663 C 366.573 -2.23708 -2.54441 0
M  V30 3664 C 365.132 -2.16924 -3.07605 0
M  V30 3665 C 364.279 -2.10549 -1.80456 0
M  V30 3666 H 367.23 -1.45573 -0.631991 0
M  V30 3667 H 367.251 -1.85157 -3.32411 0
M  V30 3668 H 366.763 -3.23866 -2.13851 0
M  V30 3669 H 364.864 -1.20107 -3.52711 0
M  V30 3670 H 364.977 -3.07988 -3.66988 0
M  V30 3671 H 363.341 -1.56203 -2.01178 0
M  V30 3672 H 364.124 -3.12535 -1.42046 0
M  V30 3673 N 366.569 1.04691 -1.17803 0
M  V30 3674 C 367.516 2.12557 -0.899343 0
M  V30 3675 C 368.486 1.65339 0.158771 0
M  V30 3676 O 369.671 1.90789 0.0204797 0
M  V30 3677 C 366.811 3.42481 -0.424315 0
M  V30 3678 C 365.924 4.03346 -1.54713 0
M  V30 3679 C 365.059 5.21208 -1.02546 0
M  V30 3680 C 364.098 5.74089 -2.12339 0
M  V30 3681 N 363.235 6.83247 -1.61612 0
M  V30 3682 H 368.075 2.35734 -1.823 0
M  V30 3683 H 365.612 1.1564 -0.909159 0
M  V30 3684 H 367.57 4.16996 -0.130421 0
M  V30 3685 H 366.2 3.19471 0.462377 0
M  V30 3686 H 365.252 3.2622 -1.95664 0
M  V30 3687 H 366.564 4.38628 -2.37501 0
M  V30 3688 H 365.718 6.02812 -0.685718 0
M  V30 3689 H 364.457 4.87414 -0.167084 0
M  V30 3690 H 363.462 4.91111 -2.47165 0
M  V30 3691 H 364.687 6.0993 -2.98601 0
M  V30 3692 H 362.633 6.5134 -0.780533 0
M  V30 3693 H 362.55 7.17559 -2.38003 0
M  V30 3694 H 363.818 7.68491 -1.30545 0
M  V30 3695 N 368.047 0.979072 1.23499 0
M  V30 3696 C 369.458 0.684391 1.73704 0
M  V30 3697 C 369.809 -0.799448 1.79174 0
M  V30 3698 O 368.934 -1.62531 1.42873 0
M  V30 3699 C 369.529 1.23564 3.15464 0
M  V30 3700 C 368.088 0.99063 3.6313 0
M  V30 3701 C 367.235 1.36416 2.41425 0
M  V30 3702 H 370.186 1.15307 1.09041 0
M  V30 3703 H 370.207 0.607417 3.7562 0
M  V30 3704 H 369.719 2.31561 3.1145 0
M  V30 3705 H 367.82 -0.0733136 3.72528 0
M  V30 3706 H 367.933 1.64427 4.5 0
M  V30 3707 H 366.297 0.782616 2.42378 0
M  V30 3708 H 367.08 2.45387 2.40083 0
M  V30 3709 N 369.525 -1.3858 0.750561 0
M  V30 3710 C 370.472 -2.30483 0.120835 0
M  V30 3711 C 371.442 -1.50022 -0.712923 0
M  V30 3712 O 372.627 -1.78662 -0.669676 0
M  V30 3713 C 369.767 -3.36431 -0.768666 0
M  V30 3714 C 368.88 -4.31927 0.0793922 0
M  V30 3715 C 368.015 -5.24944 -0.81283 0
M  V30 3716 C 367.054 -6.12088 0.0390447 0
M  V30 3717 N 366.191 -6.97412 -0.809969 0
M  V30 3718 H 371.031 -2.83761 0.91015 0
M  V30 3719 H 368.568 -1.39707 0.460463 0
M  V30 3720 H 370.526 -3.96462 -1.29898 0
M  V30 3721 H 369.156 -2.8457 -1.5238 0
M  V30 3722 H 368.208 -3.73382 0.727303 0
M  V30 3723 H 369.52 -4.93319 0.737401 0
M  V30 3724 H 368.674 -5.90078 -1.41042 0
M  V30 3725 H 367.413 -4.63911 -1.50458 0
M  V30 3726 H 366.418 -5.45952 0.649328 0
M  V30 3727 H 367.643 -6.75189 0.727809 0
M  V30 3728 H 365.589 -6.38931 -1.48672 0
M  V30 3729 H 365.506 -7.55712 -0.208789 0
M  V30 3730 H 366.774 -7.66959 -1.39263 0
M  V30 3731 N 371.003 -0.499398 -1.49478 0
M  V30 3732 C 372.28 0.108629 -1.95298 0
M  V30 3733 C 372.66 1.54282 -1.44084 0
M  V30 3734 O 372.008 2.18944 -0.653908 0
M  V30 3735 C 372.218 0.0229111 -3.48992 0
M  V30 3736 C 373.566 0.197643 -4.2414 0
M  V30 3737 O 374.59 0.0981735 -3.56065 0
M  V30 3738 O 373.449 0.401669 -5.45022 0
M  V30 3739 H 370.543 0.096181 -0.821388 0
M  V30 3740 H 373.089 -0.561822 -1.6013 0
M  V30 3741 H 371.861 -0.977321 -3.78899 0
M  V30 3742 H 371.484 0.733579 -3.90774 0
M  V30 3743 N 372.481 1.55866 -0.233164 0
M  V30 3744 C 373.709 2.02998 0.399905 0
M  V30 3745 C 374.124 1.11274 1.52524 0
M  V30 3746 O 373.481 0.124528 1.82075 0
M  V30 3747 C 373.532 3.4958 0.920639 0
M  V30 3748 O 373.253 4.37808 -0.159834 0
M  V30 3749 C 374.754 4.12411 1.62578 0
M  V30 3750 H 371.974 0.664006 0.0966281 0
M  V30 3751 H 374.518 2.0143 -0.353013 0
M  V30 3752 H 372.673 3.51727 1.62379 0
M  V30 3753 H 373.087 5.23981 0.23337 0
M  V30 3754 H 374.561 5.16711 1.94201 0
M  V30 3755 H 375.038 3.5809 2.54299 0
M  V30 3756 H 375.644 4.14148 0.967553 0
M  V30 3757 N 373.959 -0.0401083 1.57549 0
M  V30 3758 C 374.889 -1.04384 2.08869 0
M  V30 3759 C 375.87 -1.38407 0.988817 0
M  V30 3760 O 377.055 -1.47483 1.26342 0
M  V30 3761 C 374.185 -2.34808 2.55895 0
M  V30 3762 C 373.139 -2.15057 3.70047 0
M  V30 3763 C 372.465 -3.51145 4.03239 0
M  V30 3764 C 373.765 -1.54576 4.98902 0
M  V30 3765 H 375.459 -0.616666 2.92981 0
M  V30 3766 H 373.005 -0.295184 1.40942 0
M  V30 3767 H 374.958 -3.05346 2.90417 0
M  V30 3768 H 373.682 -2.79565 1.68853 0
M  V30 3769 H 372.341 -1.46954 3.35857 0
M  V30 3770 H 371.989 -3.93529 3.13279 0
M  V30 3771 H 371.689 -3.38758 4.80122 0
M  V30 3772 H 373.213 -4.23062 4.40285 0
M  V30 3773 H 374.627 -2.15017 5.31451 0
M  V30 3774 H 373.024 -1.52796 5.80322 0
M  V30 3775 H 374.094 -0.51039 4.82206 0
M  V30 3776 N 375.437 -1.54477 -0.31217 0
M  V30 3777 C 376.37 -1.79519 -1.40884 0
M  V30 3778 C 377.348 -0.645753 -1.49227 0
M  V30 3779 O 378.532 -0.884468 -1.66461 0
M  V30 3780 C 375.659 -1.92194 -2.78889 0
M  V30 3781 C 374.705 -3.14555 -2.88023 0
M  V30 3782 S 375.538 -4.72893 -2.51262 0
M  V30 3783 C 376.694 -4.8849 -3.91317 0
M  V30 3784 H 376.927 -2.72256 -1.19432 0
M  V30 3785 H 374.46 -1.45746 -0.509654 0
M  V30 3786 H 376.418 -2.00182 -3.58382 0
M  V30 3787 H 375.079 -1.00414 -2.97617 0
M  V30 3788 H 374.272 -3.20193 -3.89221 0
M  V30 3789 H 373.874 -3.04955 -2.16514 0
M  V30 3790 H 376.166 -4.71826 -4.86196 0
M  V30 3791 H 377.109 -5.90588 -3.90656 0
M  V30 3792 H 377.517 -4.16715 -3.80801 0
M  V30 3793 N 376.915 0.57481 -1.46744 0
M  V30 3794 C 378.164 1.32898 -1.51727 0
M  V30 3795 C 378.477 1.948 -0.176692 0
M  V30 3796 O 379.683 2.71299 -0.104385 0
M  V30 3797 C 378.139 2.40901 -2.67385 0
M  V30 3798 C 377.747 1.85266 -4.07898 0
M  V30 3799 C 379.491 3.17609 -2.81646 0
M  V30 3800 C 377.398 2.90945 -5.14883 0
M  V30 3801 H 376.328 0.499631 -0.564699 0
M  V30 3802 H 378.979 0.612536 -1.72975 0
M  V30 3803 H 377.361 3.15379 -2.39483 0
M  V30 3804 H 378.535 1.17278 -4.45626 0
M  V30 3805 H 376.85 1.21199 -3.98371 0
M  V30 3806 H 379.447 3.96493 -3.58744 0
M  V30 3807 H 379.79 3.70696 -1.89448 0
M  V30 3808 H 380.323 2.50239 -3.09233 0
M  V30 3809 H 377.062 2.42736 -6.089 0
M  V30 3810 H 376.582 3.57398 -4.81691 0
M  V30 3811 H 378.261 3.54755 -5.41071 0
M  V30 3812 N 378.394 1.34581 0.820102 0
M  V30 3813 C 379.619 1.30333 1.61332 0
M  V30 3814 C 380.044 -0.119339 1.87721 0
M  V30 3815 O 379.402 -1.08197 1.45475 0
M  V30 3816 C 379.45 2.10258 2.92957 0
M  V30 3817 O 378.554 1.47404 3.85157 0
M  V30 3818 H 377.895 0.447488 0.490561 0
M  V30 3819 H 380.425 1.77425 1.01889 0
M  V30 3820 H 380.435 2.21718 3.42498 0
M  V30 3821 H 379.11 3.13693 2.73074 0
M  V30 3822 H 377.687 1.44703 3.43679 0
M  V30 3823 N 379.872 -1.04064 1.18357 0
M  V30 3824 C 381.288 -1.2947 0.933258 0
M  V30 3825 C 381.488 -1.97466 -0.401169 0
M  V30 3826 O 380.544 -2.25528 -1.13549 0
M  V30 3827 C 381.857 -2.15337 2.09882 0
M  V30 3828 C 383.405 -2.28683 2.13712 0
M  V30 3829 C 383.88 -3.17917 3.29686 0
M  V30 3830 N 385.371 -3.25504 3.29547 0
M  V30 3831 C 386.106 -3.94706 4.15926 0
M  V30 3832 N 385.602 -4.66239 5.12439 0
M  V30 3833 N 387.395 -3.90986 4.0384 0
M  V30 3834 H 379.546 -0.583359 2.04232 0
M  V30 3835 H 381.809 -0.319921 0.892387 0
M  V30 3836 H 381.515 -1.72682 3.06389 0
M  V30 3837 H 381.389 -3.16015 2.05947 0
M  V30 3838 H 383.776 -2.70575 1.17784 0
M  V30 3839 H 383.857 -1.27596 2.21705 0
M  V30 3840 H 383.501 -2.76736 4.25887 0
M  V30 3841 H 383.431 -4.19036 3.1893 0
M  V30 3842 H 385.922 -2.74547 2.59677 0
M  V30 3843 H 386.235 -5.16638 5.74722 0
M  V30 3844 H 384.58 -4.65143 5.16398 0
M  V30 3845 H 387.771 -3.34234 3.27727 0
M  V30 3846 H 387.944 -4.44646 4.71375 0
M  V30 3847 N 381.35 -0.985608 -1.22978 0
M  V30 3848 C 382.578 -0.675582 -1.95559 0
M  V30 3849 C 382.993 0.758413 -1.72897 0
M  V30 3850 O 382.35 1.51094 -1.02357 0
M  V30 3851 C 382.401 -0.96293 -3.48439 0
M  V30 3852 O 382.122 -2.34057 -3.70336 0
M  V30 3853 C 383.623 -0.669585 -4.38214 0
M  V30 3854 H 380.843 -0.250523 -0.622478 0
M  V30 3855 H 383.387 -1.3184 -1.56328 0
M  V30 3856 H 381.542 -0.366033 -3.85667 0
M  V30 3857 H 381.956 -2.43424 -4.64591 0
M  V30 3858 H 383.43 -0.920967 -5.44263 0
M  V30 3859 H 383.907 0.396383 -4.37408 0
M  V30 3860 H 384.513 -1.2472 -4.06602 0
M  V30 3861 N 382.828 1.3818 -0.7579 0
M  V30 3862 C 384.239 1.82726 -0.383134 0
M  V30 3863 C 384.59 1.63214 1.08884 0
M  V30 3864 O 383.715 1.13566 1.84205 0
M  V30 3865 C 384.31 3.31728 -0.688631 0
M  V30 3866 C 382.869 3.74606 -0.367091 0
M  V30 3867 C 382.016 2.60896 -0.939599 0
M  V30 3868 H 384.967 1.26847 -0.953699 0
M  V30 3869 H 384.988 3.80487 0.0316492 0
M  V30 3870 H 384.5 3.45898 -1.76001 0
M  V30 3871 H 382.601 3.66013 0.697532 0
M  V30 3872 H 382.714 4.71215 -0.865658 0
M  V30 3873 H 381.078 2.52075 -0.3647 0
M  V30 3874 H 381.861 2.77864 -2.0161 0
M  V30 3875 N 384.306 0.507319 1.49211 0
M  V30 3876 C 385.216 -0.272136 2.33016 0
M  V30 3877 C 386.232 -0.961206 1.45041 0
M  V30 3878 O 387.408 -0.941191 1.78055 0
M  V30 3879 C 384.473 -1.31895 3.20631 0
M  V30 3880 C 383.534 -0.642648 4.24463 0
M  V30 3881 C 382.767 -1.63959 5.07891 0
M  V30 3882 O 382.99 -2.87007 4.92933 0
M  V30 3883 O 381.924 -1.19143 5.8999 0
M  V30 3884 H 385.75 0.413982 3.00865 0
M  V30 3885 H 383.335 0.268556 1.46966 0
M  V30 3886 H 385.217 -1.92446 3.7489 0
M  V30 3887 H 383.892 -1.98788 2.5547 0
M  V30 3888 H 382.799 0.00276252 3.741 0
M  V30 3889 H 384.132 -0.0160534 4.92197 0
M  V30 3890 N 385.784 -1.5574 0.241426 0
M  V30 3891 C 387.03 -1.99104 -0.385406 0
M  V30 3892 C 387.363 -1.1293 -1.57988 0
M  V30 3893 O 386.638 -0.191449 -1.93555 0
M  V30 3894 C 386.921 -3.51087 -0.800616 0
M  V30 3895 C 386.774 -4.48028 0.398874 0
M  V30 3896 C 388.093 -4.08015 -1.64959 0
M  V30 3897 H 385.212 -0.723848 -0.138614 0
M  V30 3898 H 387.854 -1.86903 0.341642 0
M  V30 3899 H 386.004 -3.61615 -1.4201 0
M  V30 3900 H 387.676 -4.49487 1.03726 0
M  V30 3901 H 385.919 -4.21077 1.04293 0
M  V30 3902 H 386.59 -5.51962 0.0651056 0
M  V30 3903 H 389.066 -4.00555 -1.12672 0
M  V30 3904 H 387.942 -5.14635 -1.90898 0
M  V30 3905 H 388.203 -3.56131 -2.61961 0
M  V30 3906 N 387.262 0.0317525 -1.57568 0
M  V30 3907 C 388.49 0.734949 -1.93407 0
M  V30 3908 C 388.905 1.69036 -0.84096 0
M  V30 3909 O 388.262 1.81582 0.182836 0
M  V30 3910 C 388.313 1.49432 -3.29169 0
M  V30 3911 O 388.034 0.577261 -4.3428 0
M  V30 3912 C 389.535 2.29492 -3.79273 0
M  V30 3913 H 386.755 0.206706 -0.638368 0
M  V30 3914 H 389.299 -0.00992046 -2.04498 0
M  V30 3915 H 387.454 2.1911 -3.19483 0
M  V30 3916 H 387.868 1.10952 -5.1263 0
M  V30 3917 H 389.342 2.78172 -4.76785 0
M  V30 3918 H 389.819 3.10794 -3.10328 0
M  V30 3919 H 390.425 1.64894 -3.92033 0
M  V30 3920 N 388.74 1.54641 0.303973 0
M  V30 3921 C 389.98 1.75516 1.04755 0
M  V30 3922 C 390.344 0.528211 1.84591 0
M  V30 3923 O 391.545 0.614645 2.61678 0
M  V30 3924 C 389.816 3.00685 1.93193 0
M  V30 3925 S 391.375 3.42549 2.74237 0
M  V30 3926 H 388.193 0.616987 0.353339 0
M  V30 3927 H 390.795 1.92842 0.321292 0
M  V30 3928 H 389.499 3.8811 1.33411 0
M  V30 3929 H 389.03 2.85937 2.70191 0
M  V30 3930 H 391.045 2.99386 3.95705 0
M  V30 3931 N 390.218 -0.567019 1.47046 0
M  V30 3932 C 391.464 -1.32658 1.53394 0
M  V30 3933 C 391.797 -1.93254 0.19148 0
M  V30 3934 O 391.072 -1.77338 -0.798844 0
M  V30 3935 C 391.355 -2.44412 2.64452 0
M  V30 3936 C 391.208 -1.88749 4.08282 0
M  V30 3937 C 392.527 -3.46387 2.71485 0
M  V30 3938 H 389.646 -0.48098 0.558415 0
M  V30 3939 H 392.288 -0.635481 1.79058 0
M  V30 3940 H 390.438 -3.03363 2.427 0
M  V30 3941 H 392.11 -1.34134 4.41368 0
M  V30 3942 H 390.353 -1.19481 4.17021 0
M  V30 3943 H 391.024 -2.69491 4.81745 0
M  V30 3944 H 393.5 -2.9734 2.91081 0
M  V30 3945 H 392.376 -4.2202 3.50985 0
M  V30 3946 H 392.637 -4.04616 1.78153 0
M  V30 3947 N 391.696 -1.35014 -0.812953 0
M  V30 3948 C 392.942 -1.2812 -1.57204 0
M  V30 3949 C 393.275 0.145869 -1.93651 0
M  V30 3950 O 392.55 1.0937 -1.60836 0
M  V30 3951 C 392.833 -2.18162 -2.86492 0
M  V30 3952 C 392.686 -3.69454 -2.56561 0
M  V30 3953 C 394.005 -2.07439 -3.88145 0
M  V30 3954 H 391.124 -0.466746 -0.570366 0
M  V30 3955 H 393.766 -1.65357 -0.935783 0
M  V30 3956 H 391.916 -1.86535 -3.40789 0
M  V30 3957 H 393.588 -4.11493 -2.08497 0
M  V30 3958 H 391.831 -3.9005 -1.89851 0
M  V30 3959 H 392.502 -4.27835 -3.48799 0
M  V30 3960 H 394.978 -2.35228 -3.4323 0
M  V30 3961 H 393.854 -2.7265 -4.76396 0
M  V30 3962 H 394.115 -1.05439 -4.29343 0
M  V30 3963 N 393.175 1.03435 -1.18907 0
M  V30 3964 C 394.421 1.77005 -0.989798 0
M  V30 3965 C 394.754 1.88205 0.478816 0
M  V30 3966 O 394.029 1.39481 1.35556 0
M  V30 3967 C 394.312 3.19925 -1.65287 0
M  V30 3968 C 394.165 3.1663 -3.19477 0
M  V30 3969 C 395.484 4.18189 -1.37134 0
M  V30 3970 H 392.603 0.642538 -0.360991 0
M  V30 3971 H 395.245 1.20784 -1.46667 0
M  V30 3972 H 393.395 3.67929 -1.24741 0
M  V30 3973 H 395.067 2.76567 -3.692 0
M  V30 3974 H 393.31 2.54491 -3.51307 0
M  V30 3975 H 393.981 4.1758 -3.61013 0
M  V30 3976 H 396.457 3.78761 -1.72276 0
M  V30 3977 H 395.333 5.16394 -1.86087 0
M  V30 3978 H 395.594 4.41112 -0.295424 0
M  V30 3979 N 394.653 0.992116 1.22453 0
M  V30 3980 C 395.93 0.583508 1.86694 0
M  V30 3981 C 396.31 -0.9392 1.89056 0
M  V30 3982 O 395.658 -1.82081 1.38053 0
M  V30 3983 C 395.868 1.20304 3.2761 0
M  V30 3984 C 397.216 1.30308 4.0411 0
M  V30 3985 O 398.24 1.15737 3.36873 0
M  V30 3986 O 397.099 1.53615 5.24466 0
M  V30 3987 H 394.193 0.198129 0.802916 0
M  V30 3988 H 396.739 1.08794 1.30238 0
M  V30 3989 H 395.511 2.24461 3.2052 0
M  V30 3990 H 395.134 0.684144 3.9167 0
M  V30 3991 N 396.131 -1.37776 0.765217 0
M  V30 3992 C 397.377 -2.00145 0.327072 0
M  V30 3993 C 397.71 -1.60607 -1.09175 0
M  V30 3994 O 396.985 -0.849127 -1.74986 0
M  V30 3995 C 397.268 -3.57109 0.46319 0
M  V30 3996 C 397.121 -4.06576 1.92395 0
M  V30 3997 C 398.44 -4.39888 -0.136473 0
M  V30 3998 H 395.559 -0.727113 0.120316 0
M  V30 3999 H 398.201 -1.63549 0.967039 0
M  V30 4000 H 396.351 -3.88414 -0.0816358 0
M  V30 4001 H 398.023 -3.85864 2.52798 0
M  V30 4002 H 396.266 -3.59011 2.43503 0
M  V30 4003 H 396.937 -5.15639 1.97028 0
M  V30 4004 H 399.413 -4.14803 0.328317 0
M  V30 4005 H 398.289 -5.48899 -0.0110582 0
M  V30 4006 H 398.55 -4.24758 -1.22608 0
M  V30 4007 N 397.609 -0.515225 -1.4894 0
M  V30 4008 C 398.834 0.022727 -2.07388 0
M  V30 4009 C 399.259 1.2876 -1.37122 0
M  V30 4010 O 398.617 1.76067 -0.432431 0
M  V30 4011 C 398.665 0.244869 -3.59768 0
M  V30 4012 O 397.769 1.31667 -3.90817 0
M  V30 4013 H 397.11 -0.0325506 -0.663202 0
M  V30 4014 H 399.64 -0.718918 -1.91553 0
M  V30 4015 H 399.65 0.47205 -4.0526 0
M  V30 4016 H 398.325 -0.679194 -4.10317 0
M  V30 4017 H 396.902 1.07331 -3.5712 0
M  V30 4018 N 399.087 1.5561 -0.249682 0
M  V30 4019 C 400.037 2.18157 0.662673 0
M  V30 4020 C 401.021 1.1383 1.13717 0
M  V30 4021 O 402.213 1.39731 1.08648 0
M  V30 4022 C 399.342 2.88672 1.85805 0
M  V30 4023 C 398.428 4.00258 1.40193 0
M  V30 4024 N 398.819 5.01473 0.660213 0
M  V30 4025 C 397.117 4.12864 1.68698 0
M  V30 4026 C 397.818 5.80155 0.423695 0
M  V30 4027 N 396.794 5.34533 0.988721 0
M  V30 4028 H 400.596 2.93769 0.0878688 0
M  V30 4029 H 398.11 1.62316 -0.0521183 0
M  V30 4030 H 400.107 3.31912 2.5227 0
M  V30 4031 H 398.767 2.14564 2.43705 0
M  V30 4032 H 399.778 5.16971 0.310047 0
M  V30 4033 H 396.455 3.4993 2.27717 0
M  V30 4034 H 397.845 6.71688 -0.168616 0
M  V30 4035 N 400.565 -0.0233959 1.57583 0
M  V30 4036 C 401.475 -1.03907 2.10334 0
M  V30 4037 C 402.491 -1.39257 1.04323 0
M  V30 4038 O 403.667 -1.48462 1.36091 0
M  V30 4039 C 400.732 -2.31938 2.57693 0
M  V30 4040 C 399.793 -2.03117 3.78209 0
M  V30 4041 C 399.026 -3.25043 4.233 0
M  V30 4042 O 399.249 -4.35916 3.67876 0
M  V30 4043 O 398.183 -3.10411 5.15683 0
M  V30 4044 H 402.009 -0.620748 2.97288 0
M  V30 4045 H 399.594 -0.240743 1.47448 0
M  V30 4046 H 401.476 -3.07196 2.88458 0
M  V30 4047 H 400.151 -2.73055 1.73847 0
M  V30 4048 H 399.058 -1.25408 3.52454 0
M  V30 4049 H 400.391 -1.66852 4.63056 0
M  V30 4050 N 402.043 -1.548 -0.295768 0
M  V30 4051 C 403.32 -1.65014 -1.05023 0
M  V30 4052 C 403.7 -0.501805 -2.05049 0
M  V30 4053 O 403.048 0.500869 -2.22943 0
M  V30 4054 C 403.258 -3.03252 -1.72741 0
M  V30 4055 C 404.606 -3.60242 -2.24746 0
M  V30 4056 O 405.63 -3.05737 -1.82765 0
M  V30 4057 O 404.489 -4.55687 -3.01681 0
M  V30 4058 H 401.583 -0.669314 -0.485744 0
M  V30 4059 H 404.129 -1.67144 -0.293438 0
M  V30 4060 H 402.901 -3.7827 -1.00138 0
M  V30 4061 H 402.524 -3.04922 -2.55163 0
M  V30 4062 N 403.521 0.559213 -1.47345 0
M  V30 4063 C 404.932 1.14134 -1.47751 0
M  V30 4064 C 405.283 1.94834 -0.231103 0
M  V30 4065 O 404.408 2.05957 0.664137 0
M  V30 4066 C 405.003 2.07653 -2.67705 0
M  V30 4067 C 403.562 2.61141 -2.71076 0
M  V30 4068 C 402.709 1.3748 -2.40821 0
M  V30 4069 H 405.66 0.345917 -1.54884 0
M  V30 4070 H 405.681 2.91497 -2.44561 0
M  V30 4071 H 405.193 1.4889 -3.58404 0
M  V30 4072 H 403.294 3.23707 -1.84511 0
M  V30 4073 H 403.407 3.02272 -3.7171 0
M  V30 4074 H 401.771 1.68086 -1.91362 0
M  V30 4075 H 402.554 0.805135 -3.33725 0
M  V30 4076 N 404.999 1.35443 0.805782 0
M  V30 4077 C 405.909 1.30546 1.94923 0
M  V30 4078 C 406.925 0.210233 1.72725 0
M  V30 4079 O 408.101 0.43975 1.9654 0
M  V30 4080 C 405.166 1.07782 3.29521 0
M  V30 4081 C 404.227 2.26625 3.64609 0
M  V30 4082 C 403.46 2.04938 4.92784 0
M  V30 4083 O 403.683 1.01624 5.61274 0
M  V30 4084 O 402.617 2.9232 5.26149 0
M  V30 4085 H 406.443 2.26779 2.02002 0
M  V30 4086 H 404.028 1.15823 0.943682 0
M  V30 4087 H 405.91 0.969392 4.10098 0
M  V30 4088 H 404.585 0.146003 3.23371 0
M  V30 4089 H 403.492 2.43033 2.84404 0
M  V30 4090 H 404.825 3.18257 3.75464 0
M  V30 4091 N 406.477 -1.02803 1.19454 0
M  V30 4092 C 407.723 -1.76478 0.999171 0
M  V30 4093 C 408.056 -1.88456 -0.468828 0
M  V30 4094 O 407.331 -1.40198 -1.34814 0
M  V30 4095 C 407.614 -3.19044 1.66981 0
M  V30 4096 C 407.467 -3.14932 3.21151 0
M  V30 4097 C 408.786 -4.17456 1.39349 0
M  V30 4098 H 405.905 -0.640614 0.364393 0
M  V30 4099 H 408.547 -1.20005 1.47305 0
M  V30 4100 H 406.697 -3.67263 1.2669 0
M  V30 4101 H 408.369 -2.74605 3.70661 0
M  V30 4102 H 406.612 -2.52625 3.52652 0
M  V30 4103 H 407.283 -4.1566 3.63223 0
M  V30 4104 H 409.759 -3.77842 1.74283 0
M  V30 4105 H 408.635 -5.154 1.88823 0
M  V30 4106 H 408.896 -4.40949 0.318813 0
M  V30 4107 N 407.956 -0.998596 -1.21925 0
M  V30 4108 C 408.903 -0.553621 -2.24062 0
M  V30 4109 C 409.873 0.416999 -1.6078 0
M  V30 4110 O 411.058 0.320482 -1.88089 0
M  V30 4111 C 408.198 0.119959 -3.44891 0
M  V30 4112 C 407.311 -0.893077 -4.22668 0
M  V30 4113 C 406.446 -0.192424 -5.30851 0
M  V30 4114 C 405.485 -1.19344 -6.00353 0
M  V30 4115 N 404.622 -0.520707 -7.00166 0
M  V30 4116 H 409.462 -1.4293 -2.61486 0
M  V30 4117 H 406.999 -0.715838 -1.28507 0
M  V30 4118 H 408.957 0.527459 -4.13852 0
M  V30 4119 H 407.587 0.959389 -3.08214 0
M  V30 4120 H 406.639 -1.41886 -3.52948 0
M  V30 4121 H 407.951 -1.65512 -4.70539 0
M  V30 4122 H 407.105 0.271515 -6.06092 0
M  V30 4123 H 405.844 0.602075 -4.83969 0
M  V30 4124 H 404.849 -1.66795 -5.23889 0
M  V30 4125 H 406.074 -1.98891 -6.49322 0
M  V30 4126 H 404.02 0.254252 -6.55507 0
M  V30 4127 H 403.937 -1.2211 -7.46073 0
M  V30 4128 H 405.205 -0.0797596 -7.79459 0
M  V30 4129 N 409.434 1.37368 -0.772513 0
M  V30 4130 C 410.681 1.99673 -0.337182 0
M  V30 4131 C 411.009 1.61324 1.0865 0
M  V30 4132 O 410.264 0.851377 1.7621 0
M  V30 4133 C 410.563 3.54817 -0.428876 0
M  V30 4134 C 410.229 4.12936 -1.81092 0
M  V30 4135 C 408.891 4.28523 -2.1891 0
M  V30 4136 C 411.243 4.44801 -2.71664 0
M  V30 4137 C 408.571 4.73277 -3.46735 0
M  V30 4138 C 410.923 4.90981 -3.98899 0
M  V30 4139 C 409.587 5.04773 -4.36761 0
M  V30 4140 H 408.857 0.730656 -0.123384 0
M  V30 4141 H 411.504 1.64124 -0.986686 0
M  V30 4142 H 409.809 3.90618 0.304167 0
M  V30 4143 H 411.506 4.00933 -0.0733334 0
M  V30 4144 H 408.096 4.01233 -1.50699 0
M  V30 4145 H 412.28 4.32344 -2.43706 0
M  V30 4146 H 407.536 4.82142 -3.75964 0
M  V30 4147 H 411.71 5.14603 -4.69208 0
M  V30 4148 H 409.337 5.39211 -5.35868 0
M  V30 4149 N 410.912 0.523116 1.48665 0
M  V30 4150 C 411.86 -0.256859 2.31177 0
M  V30 4151 C 412.854 -0.94199 1.40794 0
M  V30 4152 O 414.06 -0.867157 1.57735 0
M  V30 4153 H 410.435 -0.1017 0.745091 0
M  V30 4154 H 412.406 0.458739 2.94853 0
M  V30 4155 C 411.155 -1.29503 3.22683 0
M  V30 4156 H 410.478 -0.777248 3.92172 0
M  V30 4157 H 411.918 -1.81233 3.83315 0
M  V30 4158 C 410.377 -2.32501 2.43813 0
M  V30 4159 O 410.907 -3.3881 2.15803 0
M  V30 4160 N 409.113 -2.05538 2.05432 0
M  V30 4161 H 408.66 -1.19104 2.28412 0
M  V30 4162 H 408.618 -2.74676 1.52973 0
M  V30 4163 N 412.39 -1.55475 0.257931 0
M  V30 4164 C 413.636 -2.00237 -0.357338 0
M  V30 4165 C 413.991 -1.14313 -1.54759 0
M  V30 4166 O 413.284 -0.201187 -1.90541 0
M  V30 4167 C 413.478 -3.48183 -0.806433 0
M  V30 4168 C 413.307 -4.48422 0.338758 0
M  V30 4169 C 412.077 -4.98651 0.817011 0
M  V30 4170 C 414.275 -5.00827 1.16949 0
M  V30 4171 N 412.257 -5.82658 1.93346 0
M  V30 4172 C 413.628 -5.82113 2.13413 0
M  V30 4173 C 415.683 -4.83104 1.2048 0
M  V30 4174 C 414.386 -6.47566 3.13131 0
M  V30 4175 C 416.412 -5.49343 2.19034 0
M  V30 4176 C 415.774 -6.30427 3.14232 0
M  V30 4177 H 411.873 -0.776034 -0.0964083 0
M  V30 4178 H 414.457 -1.90995 0.37803 0
M  V30 4179 H 412.628 -3.57801 -1.51107 0
M  V30 4180 H 414.36 -3.79802 -1.39758 0
M  V30 4181 H 411.115 -4.71914 0.39925 0
M  V30 4182 H 411.539 -6.29356 2.49478 0
M  V30 4183 H 416.181 -4.20036 0.482634 0
M  V30 4184 H 413.899 -7.09793 3.8629 0
M  V30 4185 H 417.485 -5.37579 2.22485 0
M  V30 4186 H 416.365 -6.80777 3.89246 0
M  V30 4187 N 413.868 0.0150385 -1.57593 0
M  V30 4188 C 415.098 0.713359 -1.93894 0
M  V30 4189 C 415.506 1.68663 -0.857289 0
M  V30 4190 O 414.849 1.82876 0.173788 0
M  V30 4191 C 414.911 1.51348 -3.26089 0
M  V30 4192 C 414.575 0.703451 -4.51554 0
M  V30 4193 C 415.572 -0.00237924 -5.199 0
M  V30 4194 C 413.257 0.653854 -4.98026 0
M  V30 4195 C 415.251 -0.746955 -6.33008 0
M  V30 4196 C 412.938 -0.0944578 -6.11027 0
M  V30 4197 C 413.936 -0.793609 -6.78374 0
M  V30 4198 O 413.624 -1.52974 -7.89211 0
M  V30 4199 H 413.356 0.204637 -0.644282 0
M  V30 4200 H 415.91 -0.0276411 -2.05381 0
M  V30 4201 H 414.14 2.29862 -3.10967 0
M  V30 4202 H 415.829 2.09572 -3.47612 0
M  V30 4203 H 416.595 0.0268803 -4.84993 0
M  V30 4204 H 412.474 1.18756 -4.45441 0
M  V30 4205 H 416.018 -1.2932 -6.85509 0
M  V30 4206 H 411.915 -0.125591 -6.45378 0
M  V30 4207 H 412.683 -1.44488 -8.05646 0
M  V30 4208 N 415.346 1.54954 0.287554 0
M  V30 4209 C 416.592 1.75132 1.02257 0
M  V30 4210 C 416.925 0.542858 1.86458 0
M  V30 4211 O 416.2 -0.459856 1.88986 0
M  V30 4212 C 416.483 3.04812 1.91733 0
M  V30 4213 C 416.336 4.35985 1.10622 0
M  V30 4214 C 417.655 3.30438 2.90687 0
M  V30 4215 H 414.774 0.637194 0.370341 0
M  V30 4216 H 417.416 1.87678 0.296111 0
M  V30 4217 H 415.566 2.94247 2.53675 0
M  V30 4218 H 417.238 4.58487 0.508636 0
M  V30 4219 H 415.481 4.31865 0.409271 0
M  V30 4220 H 416.152 5.23017 1.76513 0
M  V30 4221 H 418.628 3.40701 2.38877 0
M  V30 4222 H 417.504 4.22467 3.50447 0
M  V30 4223 H 417.765 2.49377 3.65053 0
M  V30 4224 N 416.824 -0.551391 1.4764 0
M  V30 4225 C 418.101 -1.31229 1.45046 0
M  V30 4226 C 418.481 -2.10563 0.150527 0
M  V30 4227 O 417.829 -2.11374 -0.867956 0
M  V30 4228 C 418.039 -2.21189 2.69956 0
M  V30 4229 C 419.387 -2.82021 3.1741 0
M  V30 4230 O 420.411 -2.31488 2.70724 0
M  V30 4231 O 419.27 -3.73885 3.98588 0
M  V30 4232 H 416.364 -0.591193 0.578291 0
M  V30 4233 H 418.91 -0.569813 1.59847 0
M  V30 4234 H 417.682 -1.62207 3.56096 0
M  V30 4235 H 417.305 -3.02722 2.57769 0
M  V30 4236 N 418.302 -1.35869 -0.798587 0
M  V30 4237 C 419.55 -1.29332 -1.55298 0
M  V30 4238 C 419.871 0.129729 -1.94568 0
M  V30 4239 O 419.141 1.06796 -1.6423 0
M  V30 4240 H 417.721 -0.475737 -0.57592 0
M  V30 4241 H 420.383 -1.70062 -0.952093 0
M  V30 4242 H 419.479 -1.91458 -2.46476 0
M  V30 4243 N 419.78 1.02168 -1.19998 0
M  V30 4244 C 421.026 1.75945 -1.00852 0
M  V30 4245 C 421.359 1.88702 0.458828 0
M  V30 4246 O 420.634 1.40911 1.34069 0
M  V30 4247 C 420.917 3.18154 -1.68671 0
M  V30 4248 C 420.77 3.13224 -3.22817 0
M  V30 4249 C 422.089 4.16711 -1.41561 0
M  V30 4250 H 419.208 0.638673 -0.367785 0
M  V30 4251 H 421.85 1.19222 -1.4794 0
M  V30 4252 H 420 3.66586 -1.28636 0
M  V30 4253 H 421.672 2.72635 -3.72112 0
M  V30 4254 H 419.915 2.50751 -3.53986 0
M  V30 4255 H 420.586 4.13728 -3.65422 0
M  V30 4256 H 423.062 3.76913 -1.76284 0
M  V30 4257 H 421.938 5.14391 -1.91553 0
M  V30 4258 H 422.199 4.40774 -0.342193 0
M  V30 4259 N 421.258 1.00505 1.21394 0
M  V30 4260 C 422.168 0.574806 2.27449 0
M  V30 4261 C 423.184 -0.382206 1.6975 0
M  V30 4262 O 424.36 -0.246027 1.99892 0
M  V30 4263 C 421.425 -0.0917414 3.46579 0
M  V30 4264 C 420.486 0.909758 4.1955 0
M  V30 4265 C 419.719 0.274924 5.32991 0
M  V30 4266 O 419.942 -0.928254 5.62796 0
M  V30 4267 O 418.876 0.985877 5.93771 0
M  V30 4268 H 422.702 1.45744 2.66444 0
M  V30 4269 H 420.287 0.773923 1.27792 0
M  V30 4270 H 422.169 -0.464551 4.18832 0
M  V30 4271 H 420.844 -0.948755 3.09484 0
M  V30 4272 H 419.751 1.33372 3.49518 0
M  V30 4273 H 421.084 1.73636 4.60555 0
M  V30 4274 N 422.737 -1.36956 0.779787 0
M  V30 4275 C 423.983 -1.99787 0.348281 0
M  V30 4276 C 424.316 -1.61756 -1.07465 0
M  V30 4277 O 423.591 -0.867639 -1.74075 0
M  V30 4278 C 423.874 -3.56597 0.50104 0
M  V30 4279 C 423.727 -4.04513 1.96697 0
M  V30 4280 C 425.046 -4.40008 -0.0898097 0
M  V30 4281 H 422.165 -0.725796 0.128022 0
M  V30 4282 H 424.807 -1.62514 0.984331 0
M  V30 4283 H 422.957 -3.88479 -0.0404347 0
M  V30 4284 H 424.629 -3.83161 2.56876 0
M  V30 4285 H 422.872 -3.56408 2.47297 0
M  V30 4286 H 423.543 -5.1352 2.02486 0
M  V30 4287 H 426.019 -4.14431 0.372293 0
M  V30 4288 H 424.895 -5.4888 0.0471605 0
M  V30 4289 H 425.156 -4.26035 -1.18096 0
M  V30 4290 N 424.215 -0.530993 -1.48385 0
M  V30 4291 C 425.165 0.251092 -2.26613 0
M  V30 4292 C 426.149 0.908977 -1.32765 0
M  V30 4293 O 427.341 0.811616 -1.57295 0
M  V30 4294 C 424.47 1.29677 -3.17866 0
M  V30 4295 C 423.556 0.643627 -4.19188 0
M  V30 4296 N 423.947 -0.271223 -5.05072 0
M  V30 4297 C 422.245 0.900711 -4.3681 0
M  V30 4298 C 422.946 -0.648109 -5.78078 0
M  V30 4299 N 421.922 -0.00895987 -5.43599 0
M  V30 4300 H 425.724 -0.452702 -2.90393 0
M  V30 4301 H 423.238 -0.349091 -1.58604 0
M  V30 4302 H 425.235 1.87079 -3.72568 0
M  V30 4303 H 423.895 2.00193 -2.55642 0
M  V30 4304 H 424.906 -0.643883 -5.13882 0
M  V30 4305 H 421.583 1.59636 -3.85775 0
M  V30 4306 H 422.973 -1.39833 -6.57188 0
M  V30 4307 N 425.693 1.55336 -0.266172 0
M  V30 4308 C 426.641 2.23587 0.641228 0
M  V30 4309 C 427.635 1.22986 1.16494 0
M  V30 4310 O 428.841 1.40943 1.1196 0
M  V30 4311 H 425.216 0.717452 0.225315 0
M  V30 4312 H 427.187 2.9837 0.0426561 0
M  V30 4313 C 425.936 2.96369 1.81826 0
M  V30 4314 H 425.259 3.73563 1.42445 0
M  V30 4315 H 426.699 3.47459 2.42998 0
M  V30 4316 C 425.158 2.0133 2.70125 0
M  V30 4317 O 425.688 1.55875 3.70224 0
M  V30 4318 N 423.894 1.6802 2.37102 0
M  V30 4319 H 423.441 2.05181 1.55751 0
M  V30 4320 H 423.399 1.047 2.96454 0
M  V30 4321 N 427.171 -0.0066808 1.57599 0
M  V30 4322 C 428.134 -0.985035 2.06953 0
M  V30 4323 C 429.134 -1.27663 0.977687 0
M  V30 4324 O 430.324 -1.22293 1.24057 0
M  V30 4325 C 427.456 -2.3118 2.50536 0
M  V30 4326 H 428.649 -0.558255 2.94658 0
M  V30 4327 H 426.202 -0.254011 1.54222 0
M  V30 4328 H 426.937 -2.78561 1.66054 0
M  V30 4329 H 426.722 -2.11338 3.3027 0
M  V30 4330 H 428.212 -3.01377 2.8907 0
M  V30 4331 N 428.649 -1.55105 -0.279332 0
M  V30 4332 C 429.596 -1.8755 -1.34513 0
M  V30 4333 C 430.566 -0.726384 -1.49375 0
M  V30 4334 O 431.751 -0.977063 -1.63884 0
M  V30 4335 C 428.891 -2.14738 -2.70151 0
M  V30 4336 C 428.004 -3.42285 -2.63562 0
M  V30 4337 C 427.139 -3.59206 -3.91337 0
M  V30 4338 C 426.178 -4.80467 -3.79233 0
M  V30 4339 N 425.315 -4.94079 -4.98829 0
M  V30 4340 H 430.155 -2.78456 -1.06143 0
M  V30 4341 H 427.692 -1.37867 -0.512936 0
M  V30 4342 H 429.65 -2.28501 -3.49061 0
M  V30 4343 H 428.28 -1.27075 -2.96735 0
M  V30 4344 H 427.332 -3.37029 -1.76397 0
M  V30 4345 H 428.644 -4.31328 -2.50515 0
M  V30 4346 H 427.798 -3.72751 -4.78687 0
M  V30 4347 H 426.537 -2.68337 -4.07243 0
M  V30 4348 H 425.542 -4.66932 -2.90266 0
M  V30 4349 H 426.767 -5.72765 -3.64852 0
M  V30 4350 H 424.713 -4.06139 -5.15158 0
M  V30 4351 H 424.63 -5.77156 -4.8829 0
M  V30 4352 H 425.898 -5.12003 -5.8777 0
M  V30 4353 N 430.127 0.543554 -1.4793 0
M  V30 4354 C 431.355 1.32516 -1.58894 0
M  V30 4355 C 431.77 1.87215 -0.244131 0
M  V30 4356 O 431.127 1.65709 0.764652 0
M  V30 4357 C 431.178 2.48554 -2.62494 0
M  V30 4358 O 430.899 1.96112 -3.91755 0
M  V30 4359 C 432.4 3.40572 -2.8377 0
M  V30 4360 H 429.62 0.403472 -0.536145 0
M  V30 4361 H 432.164 0.657106 -1.93655 0
M  V30 4362 H 430.319 3.1127 -2.30629 0
M  V30 4363 H 430.733 2.71967 -4.4848 0
M  V30 4364 H 432.207 4.18375 -3.60093 0
M  V30 4365 H 432.684 3.94965 -1.92092 0
M  V30 4366 H 433.29 2.8366 -3.16887 0
M  V30 4367 N 431.605 1.3629 0.791371 0
M  V30 4368 C 432.552 1.30458 1.90393 0
M  V30 4369 C 433.522 0.173632 1.6519 0
M  V30 4370 O 434.707 0.35983 1.87376 0
M  V30 4371 C 431.847 1.09777 3.27174 0
M  V30 4372 C 430.96 2.31929 3.64462 0
M  V30 4373 C 430.095 2.04276 4.90352 0
M  V30 4374 C 429.134 3.224 5.20312 0
M  V30 4375 N 428.271 2.94424 6.37385 0
M  V30 4376 H 433.111 2.25589 1.94714 0
M  V30 4377 H 430.648 1.12122 0.952216 0
M  V30 4378 H 432.606 0.958133 4.06049 0
M  V30 4379 H 431.236 0.183014 3.22281 0
M  V30 4380 H 430.288 2.56703 2.80727 0
M  V30 4381 H 431.6 3.20085 3.82553 0
M  V30 4382 H 430.754 1.87231 5.77087 0
M  V30 4383 H 429.493 1.13428 4.74326 0
M  V30 4384 H 428.498 3.40005 4.32061 0
M  V30 4385 H 429.723 4.14071 5.38258 0
M  V30 4386 H 427.669 2.06185 6.22755 0
M  V30 4387 H 427.586 3.76118 6.55798 0
M  V30 4388 H 428.854 2.80953 7.27108 0
M  V30 4389 N 433.083 -1.0153 1.20538 0
M  V30 4390 C 434.494 -1.56598 1.01657 0
M  V30 4391 C 434.845 -1.91505 -0.426668 0
M  V30 4392 O 433.97 -1.72375 -1.30827 0
M  V30 4393 C 434.565 -2.84542 1.83905 0
M  V30 4394 C 433.124 -3.36133 1.69386 0
M  V30 4395 C 432.271 -2.09427 1.81757 0
M  V30 4396 H 435.222 -0.838974 1.34711 0
M  V30 4397 H 435.243 -3.56004 1.34319 0
M  V30 4398 H 434.755 -2.59105 2.8894 0
M  V30 4399 H 432.856 -3.66528 0.669933 0
M  V30 4400 H 432.969 -4.08248 2.50739 0
M  V30 4401 H 431.333 -2.21941 1.24957 0
M  V30 4402 H 432.116 -1.86414 2.88279 0
M  V30 4403 N 434.561 -1.01147 -1.20859 0
M  V30 4404 C 435.977 -0.725422 -1.42161 0
M  V30 4405 C 436.177 0.696919 -1.89064 0
M  V30 4406 O 435.233 1.46539 -2.05627 0
M  V30 4407 C 436.546 -1.74678 -2.44761 0
M  V30 4408 C 438.094 -1.76433 -2.58535 0
M  V30 4409 C 438.569 -2.77481 -3.64374 0
M  V30 4410 N 440.06 -2.76189 -3.71852 0
M  V30 4411 C 440.795 -3.51035 -4.53389 0
M  V30 4412 N 440.291 -4.35541 -5.38773 0
M  V30 4413 N 442.084 -3.39655 -4.47873 0
M  V30 4414 H 434.235 -1.92979 -0.887282 0
M  V30 4415 H 436.498 -0.833327 -0.451962 0
M  V30 4416 H 436.204 -2.76551 -2.17285 0
M  V30 4417 H 436.078 -1.55472 -3.43669 0
M  V30 4418 H 438.465 -0.75248 -2.85345 0
M  V30 4419 H 438.546 -1.99712 -1.5984 0
M  V30 4420 H 438.19 -3.78827 -3.38308 0
M  V30 4421 H 438.12 -2.51466 -4.6268 0
M  V30 4422 H 440.611 -2.14885 -3.10858 0
M  V30 4423 H 440.924 -4.89432 -5.98061 0
M  V30 4424 H 439.269 -4.39621 -5.38292 0
M  V30 4425 H 442.46 -2.73063 -3.80203 0
M  V30 4426 H 442.633 -3.9824 -5.11184 0
M  V30 4427 N 436.039 1.36541 -0.78704 0
M  V30 4428 C 436.949 2.3387 -0.184896 0
M  V30 4429 C 437.965 1.60927 0.661697 0
M  V30 4430 O 439.141 1.92927 0.57804 0
M  V30 4431 C 436.206 3.40122 0.672145 0
M  V30 4432 C 435.267 4.28867 -0.19267 0
M  V30 4433 C 434.5 5.30045 0.623561 0
M  V30 4434 O 434.723 5.39232 1.8597 0
M  V30 4435 O 433.657 6.01895 0.0247068 0
M  V30 4436 H 437.483 2.87126 -0.989562 0
M  V30 4437 H 435.068 1.38969 -0.548455 0
M  V30 4438 H 436.95 4.05093 1.16094 0
M  V30 4439 H 435.625 2.89169 1.45474 0
M  V30 4440 H 434.532 3.66945 -0.728166 0
M  V30 4441 H 435.865 4.83165 -0.938722 0
M  V30 4442 N 437.518 0.538854 1.48102 0
M  V30 4443 C 438.428 -0.222648 2.33541 0
M  V30 4444 C 439.444 -0.930225 1.47047 0
M  V30 4445 O 440.62 -0.903211 1.80011 0
M  V30 4446 C 437.685 -1.25064 3.23357 0
M  V30 4447 C 436.746 -0.552469 4.2573 0
M  V30 4448 C 435.979 -1.53149 5.11254 0
M  V30 4449 O 436.202 -2.76487 4.9891 0
M  V30 4450 O 435.136 -1.06602 5.92385 0
M  V30 4451 H 438.962 0.477707 2.99919 0
M  V30 4452 H 436.547 0.299669 1.46364 0
M  V30 4453 H 438.429 -1.8445 3.78888 0
M  V30 4454 H 437.104 -1.93325 2.59629 0
M  V30 4455 H 436.011 0.082114 3.7401 0
M  V30 4456 H 437.344 0.0883526 4.92121 0
M  V30 4457 N 438.996 -1.55193 0.274407 0
M  V30 4458 C 439.928 -2.1989 -0.646595 0
M  V30 4459 C 440.941 -1.1834 -1.11801 0
M  V30 4460 O 442.13 -1.4507 -1.04004 0
M  V30 4461 C 439.23 -2.8104 -1.89393 0
M  V30 4462 C 438.403 -4.08274 -1.56943 0
M  V30 4463 C 437.462 -4.53478 -2.66916 0
M  V30 4464 O 436.488 -5.19267 -2.33132 0
M  V30 4465 N 437.69 -4.2356 -3.9696 0
M  V30 4466 H 440.455 -2.99556 -0.0928686 0
M  V30 4467 H 438.016 -1.61618 0.0954783 0
M  V30 4468 H 440.008 -3.08226 -2.62257 0
M  V30 4469 H 438.578 -2.05372 -2.35672 0
M  V30 4470 H 437.798 -3.88384 -0.674655 0
M  V30 4471 H 439.086 -4.91173 -1.32764 0
M  V30 4472 H 438.484 -3.70799 -4.27229 0
M  V30 4473 H 437.041 -4.55518 -4.66205 0
M  V30 4474 N 440.474 -0.00167713 -1.576 0
M  V30 4475 C 441.704 0.692754 -1.94639 0
M  V30 4476 C 442.112 1.67744 -0.87513 0
M  V30 4477 O 441.455 1.8305 0.154382 0
M  V30 4478 C 441.517 1.47881 -3.27676 0
M  V30 4479 C 441.181 0.655518 -4.52274 0
M  V30 4480 C 442.178 -0.0575214 -5.19868 0
M  V30 4481 C 439.863 0.600994 -4.98692 0
M  V30 4482 C 441.857 -0.814052 -6.3218 0
M  V30 4483 C 439.544 -0.15926 -6.10892 0
M  V30 4484 C 440.542 -0.865515 -6.77494 0
M  V30 4485 O 440.23 -1.61336 -7.87544 0
M  V30 4486 H 439.962 0.197792 -0.646417 0
M  V30 4487 H 442.516 -0.049423 -2.05341 0
M  V30 4488 H 440.746 2.2655 -3.13388 0
M  V30 4489 H 442.435 2.05874 -3.49816 0
M  V30 4490 H 443.201 -0.0245611 -4.84994 0
M  V30 4491 H 439.08 1.14025 -4.46676 0
M  V30 4492 H 442.624 -1.36584 -6.84098 0
M  V30 4493 H 438.521 -0.194035 -6.45208 0
M  V30 4494 H 439.289 -1.53025 -8.04068 0
M  V30 4495 N 441.952 1.55251 0.271103 0
M  V30 4496 C 442.9 1.89054 1.35504 0
M  V30 4497 C 443.894 0.767064 1.51038 0
M  V30 4498 O 445.1 0.951429 1.528 0
M  V30 4499 H 441.475 0.600072 0.45323 0
M  V30 4500 H 443.446 2.79598 1.04247 0
M  V30 4501 C 442.195 2.18068 2.70817 0
M  V30 4502 H 441.518 3.04005 2.59656 0
M  V30 4503 H 442.958 2.4564 3.45597 0
M  V30 4504 C 441.417 0.988901 3.2206 0
M  V30 4505 O 441.947 0.224501 4.01072 0
M  V30 4506 N 440.153 0.786085 2.79766 0
M  V30 4507 H 439.7 1.40937 2.15626 0
M  V30 4508 H 439.658 -0.00969349 3.14399 0
M  V30 4509 N 443.43 -0.535701 1.48216 0
M  V30 4510 C 444.655 -1.32149 1.59848 0
M  V30 4511 C 445.08 -1.86338 0.256842 0
M  V30 4512 O 444.438 -1.64107 -0.770632 0
M  V30 4513 C 444.486 -2.45224 2.64381 0
M  V30 4514 O 443.59 -3.48093 2.21144 0
M  V30 4515 H 442.931 -0.391634 0.536208 0
M  V30 4516 H 445.461 -0.645202 1.94161 0
M  V30 4517 H 445.471 -2.91491 2.85476 0
M  V30 4518 H 444.146 -2.05143 3.61786 0
M  V30 4519 H 442.723 -3.07984 2.10239 0
M  V30 4520 N 444.908 -1.36708 -0.784132 0
M  V30 4521 C 446.136 -1.34398 -1.57305 0
M  V30 4522 C 446.551 0.0735577 -1.88657 0
M  V30 4523 O 445.908 1.03193 -1.50524 0
M  V30 4524 C 445.959 -2.17053 -2.89085 0
M  V30 4525 O 445.68 -3.53281 -2.59083 0
M  V30 4526 C 447.181 -2.22583 -3.83369 0
M  V30 4527 H 444.401 -0.460819 -0.487736 0
M  V30 4528 H 446.945 -1.79879 -0.972819 0
M  V30 4529 H 445.1 -1.75113 -3.45564 0
M  V30 4530 H 445.514 -3.9647 -3.43383 0
M  V30 4531 H 446.988 -2.84763 -4.72878 0
M  V30 4532 H 447.465 -1.23075 -4.21603 0
M  V30 4533 H 448.071 -2.64781 -3.32823 0
M  V30 4534 N 446.386 1.0089 -1.21074 0
M  V30 4535 C 447.616 1.77933 -1.04993 0
M  V30 4536 C 448.024 1.84847 0.403495 0
M  V30 4537 O 447.367 1.30606 1.29181 0
M  V30 4538 C 447.429 3.23541 -1.56722 0
M  V30 4539 C 447.093 3.40214 -3.05129 0
M  V30 4540 C 448.09 3.2881 -4.02716 0
M  V30 4541 C 445.775 3.65781 -3.44252 0
M  V30 4542 C 447.769 3.42732 -5.37414 0
M  V30 4543 C 445.456 3.79346 -4.79103 0
M  V30 4544 C 446.454 3.67827 -5.75493 0
M  V30 4545 O 446.142 3.80965 -7.07899 0
M  V30 4546 H 445.874 0.566157 -0.369381 0
M  V30 4547 H 448.428 1.27826 -1.60779 0
M  V30 4548 H 446.658 3.74766 -0.953285 0
M  V30 4549 H 448.347 3.82245 -1.36543 0
M  V30 4550 H 449.113 3.08986 -3.73835 0
M  V30 4551 H 444.992 3.73831 -2.69762 0
M  V30 4552 H 448.536 3.33658 -6.12632 0
M  V30 4553 H 444.433 3.98672 -5.07672 0
M  V30 4554 H 445.201 3.97937 -7.15254 0
M  V30 4555 N 447.864 1.01787 1.20321 0
M  V30 4556 C 449.28 0.732951 1.41774 0
M  V30 4557 C 449.48 -0.686883 1.89431 0
M  V30 4558 O 448.536 -1.45446 2.06402 0
M  V30 4559 C 449.849 1.75973 2.43832 0
M  V30 4560 C 451.397 1.77802 2.57596 0
M  V30 4561 C 451.872 2.7941 3.62897 0
M  V30 4562 N 453.363 2.78157 3.70382 0
M  V30 4563 C 454.098 3.53434 4.51521 0
M  V30 4564 N 453.594 4.38392 5.36455 0
M  V30 4565 N 455.387 3.42026 4.46066 0
M  V30 4566 H 447.538 1.93447 0.877035 0
M  V30 4567 H 449.801 0.835712 0.447536 0
M  V30 4568 H 449.507 2.77699 2.15815 0
M  V30 4569 H 449.381 1.57292 3.4284 0
M  V30 4570 H 451.768 0.767602 2.84942 0
M  V30 4571 H 451.849 2.00557 1.58779 0
M  V30 4572 H 451.493 3.80616 3.36295 0
M  V30 4573 H 451.423 2.53916 4.61339 0
M  V30 4574 H 453.914 2.16531 3.09714 0
M  V30 4575 H 454.227 4.92596 5.95457 0
M  V30 4576 H 452.572 4.4247 5.35953 0
M  V30 4577 H 455.763 2.75075 3.78749 0
M  V30 4578 H 455.936 4.00946 5.09064 0
M  V30 4579 N 449.342 -1.36122 0.79427 0
M  V30 4580 C 450.588 -1.99406 0.369452 0
M  V30 4581 C 450.921 -1.62886 -1.05743 0
M  V30 4582 O 450.196 -0.886053 -1.73145 0
M  V30 4583 C 450.479 -3.56046 0.538833 0
M  V30 4584 C 450.332 -4.02404 2.00976 0
M  V30 4585 C 451.651 -4.40079 -0.0431359 0
M  V30 4586 H 448.77 -0.724397 0.135712 0
M  V30 4587 H 451.412 -1.61461 1.00151 0
M  V30 4588 H 449.562 -3.885 0.000771004 0
M  V30 4589 H 451.234 -3.80415 2.60926 0
M  V30 4590 H 449.477 -3.53765 2.51063 0
M  V30 4591 H 450.148 -5.11344 2.07922 0
M  V30 4592 H 452.624 -4.14013 0.416228 0
M  V30 4593 H 451.5 -5.48799 0.105374 0
M  V30 4594 H 451.761 -4.27264 -1.13571 0
M  V30 4595 N 450.82 -0.546701 -1.47814 0
M  V30 4596 C 452.066 -0.0187684 -2.02791 0
M  V30 4597 C 452.399 1.32338 -1.42128 0
M  V30 4598 O 451.674 1.85867 -0.573023 0
M  V30 4599 C 451.957 0.0854985 -3.59998 0
M  V30 4600 C 451.81 -1.283 -4.31114 0
M  V30 4601 C 453.129 0.80412 -4.32691 0
M  V30 4602 H 450.248 -0.0082946 -0.736953 0
M  V30 4603 H 452.89 -0.706962 -1.76358 0
M  V30 4604 H 451.04 0.671609 -3.82651 0
M  V30 4605 H 452.712 -1.91151 -4.19832 0
M  V30 4606 H 450.955 -1.86049 -3.91878 0
M  V30 4607 H 451.626 -1.16287 -5.39612 0
M  V30 4608 H 454.102 0.306576 -4.14969 0
M  V30 4609 H 452.978 0.846011 -5.42341 0
M  V30 4610 H 453.239 1.85802 -4.01161 0
M  V30 4611 N 452.299 1.55045 -0.282633 0
M  V30 4612 C 453.524 2.04628 0.337977 0
M  V30 4613 C 453.949 1.15937 1.48123 0
M  V30 4614 O 453.307 0.159532 1.80597 0
M  V30 4615 C 453.355 3.51854 0.78936 0
M  V30 4616 O 452.459 3.66236 1.89592 0
M  V30 4617 H 451.8 0.660434 0.0687261 0
M  V30 4618 H 454.33 2.00261 -0.419124 0
M  V30 4619 H 454.34 3.93361 1.08311 0
M  V30 4620 H 453.015 4.15873 -0.0470419 0
M  V30 4621 H 451.592 3.36633 1.60413 0
M  V30 4622 N 453.777 0.010035 1.57597 0
M  V30 4623 C 455.023 -0.673697 1.91283 0
M  V30 4624 C 455.356 -1.72863 0.884979 0
M  V30 4625 O 454.631 -1.94268 -0.0949487 0
M  V30 4626 C 454.914 -1.30766 3.35518 0
M  V30 4627 C 454.767 -0.263578 4.49027 0
M  V30 4628 C 456.086 -2.23105 3.79358 0
M  V30 4629 H 453.205 -0.243439 0.695634 0
M  V30 4630 H 455.847 0.0633864 1.89894 0
M  V30 4631 H 453.997 -1.93588 3.36832 0
M  V30 4632 H 455.669 0.365738 4.59848 0
M  V30 4633 H 453.912 0.413077 4.31829 0
M  V30 4634 H 454.583 -0.746398 5.4693 0
M  V30 4635 H 457.059 -1.70289 3.79659 0
M  V30 4636 H 455.935 -2.64424 4.81011 0
M  V30 4637 H 456.196 -3.11433 3.13787 0
M  V30 4638 N 455.255 -1.55392 -0.262866 0
M  V30 4639 C 456.185 -1.91978 -1.32917 0
M  V30 4640 C 457.166 -0.7828 -1.51017 0
M  V30 4641 O 458.351 -1.04178 -1.63892 0
M  V30 4642 C 455.481 -2.20055 -2.68687 0
M  V30 4643 C 454.435 -3.35854 -2.65304 0
M  V30 4644 C 453.761 -3.49435 -4.04721 0
M  V30 4645 C 455.061 -4.71977 -2.23685 0
M  V30 4646 H 456.755 -2.81292 -1.02544 0
M  V30 4647 H 454.301 -1.3534 -0.491846 0
M  V30 4648 H 456.254 -2.44237 -3.43404 0
M  V30 4649 H 454.978 -1.27551 -3.00663 0
M  V30 4650 H 453.637 -3.11655 -1.93045 0
M  V30 4651 H 453.285 -2.54379 -4.33936 0
M  V30 4652 H 452.985 -4.27297 -4.0335 0
M  V30 4653 H 454.509 -3.7592 -4.81161 0
M  V30 4654 H 455.923 -4.95637 -2.88127 0
M  V30 4655 H 454.32 -5.52828 -2.33456 0
M  V30 4656 H 455.39 -4.70115 -1.18827 0
M  V30 4657 N 456.733 0.527833 -1.48498 0
M  V30 4658 C 457.961 1.30823 -1.6029 0
M  V30 4659 C 458.376 1.86945 -0.263974 0
M  V30 4660 O 457.733 1.6651 0.747034 0
M  V30 4661 C 457.784 2.45756 -2.65116 0
M  V30 4662 O 457.505 1.91946 -3.93813 0
M  V30 4663 C 459.006 3.37543 -2.87367 0
M  V30 4664 H 456.226 0.397763 -0.540394 0
M  V30 4665 H 458.77 0.636529 -1.94341 0
M  V30 4666 H 456.925 3.08806 -2.33917 0
M  V30 4667 H 457.339 2.67195 -4.51339 0
M  V30 4668 H 458.813 4.14532 -3.6451 0
M  V30 4669 H 459.29 3.92905 -1.9627 0
M  V30 4670 H 459.896 2.80283 -3.19878 0
M  V30 4671 N 458.211 1.37122 0.776871 0
M  V30 4672 C 459.457 1.32243 1.53752 0
M  V30 4673 C 459.79 -0.0944745 1.9397 0
M  V30 4674 O 459.065 -1.05068 1.6368 0
M  V30 4675 C 459.348 2.25681 2.80607 0
M  V30 4676 C 459.201 3.76127 2.46676 0
M  V30 4677 C 460.52 2.17657 3.82509 0
M  V30 4678 H 457.639 0.481704 0.557791 0
M  V30 4679 H 460.281 1.6778 0.891612 0
M  V30 4680 H 458.431 1.95505 3.35723 0
M  V30 4681 H 460.103 4.16877 1.97513 0
M  V30 4682 H 458.346 3.94946 1.79443 0
M  V30 4683 H 459.017 4.36933 3.37333 0
M  V30 4684 H 461.493 2.44245 3.36873 0
M  V30 4685 H 460.369 2.85185 4.69 0
M  V30 4686 H 460.63 1.16785 4.26396 0
M  V30 4687 N 459.689 -1.00246 1.21608 0
M  V30 4688 C 460.619 -2.10921 1.00172 0
M  V30 4689 C 461.6 -1.69938 -0.0741587 0
M  V30 4690 O 462.785 -1.94009 0.0861753 0
M  V30 4691 C 459.915 -3.42618 0.568355 0
M  V30 4692 C 458.869 -3.97407 1.58909 0
M  V30 4693 C 458.195 -5.25038 1.01187 0
M  V30 4694 C 459.495 -4.2918 2.97661 0
M  V30 4695 H 461.189 -2.29112 1.92739 0
M  V30 4696 H 458.735 -1.10101 0.928102 0
M  V30 4697 H 460.688 -4.19444 0.405555 0
M  V30 4698 H 459.412 -3.24227 -0.392961 0
M  V30 4699 H 458.071 -3.22703 1.73949 0
M  V30 4700 H 457.719 -5.02982 0.0421965 0
M  V30 4701 H 457.419 -5.62661 1.6937 0
M  V30 4702 H 458.943 -6.04507 0.860448 0
M  V30 4703 H 460.357 -4.96839 2.86049 0
M  V30 4704 H 458.754 -4.77952 3.6288 0
M  V30 4705 H 459.824 -3.3735 3.48315 0
M  V30 4706 N 461.167 -1.02423 -1.1978 0
M  V30 4707 C 462.117 -0.571689 -2.20716 0
M  V30 4708 C 463.101 0.377077 -1.56419 0
M  V30 4709 O 464.293 0.198801 -1.7588 0
M  V30 4710 C 461.422 0.0808555 -3.43205 0
M  V30 4711 C 460.508 -0.890073 -4.14655 0
M  V30 4712 N 460.899 -2.05065 -4.62366 0
M  V30 4713 C 459.197 -0.71252 -4.40272 0
M  V30 4714 C 459.898 -2.66264 -5.17183 0
M  V30 4715 N 458.874 -1.94264 -5.07703 0
M  V30 4716 H 462.676 -1.45636 -2.55279 0
M  V30 4717 H 460.19 -0.890596 -1.35802 0
M  V30 4718 H 462.187 0.422654 -4.14752 0
M  V30 4719 H 460.847 0.961274 -3.10144 0
M  V30 4720 H 461.858 -2.43026 -4.57339 0
M  V30 4721 H 458.535 0.119199 -4.1733 0
M  V30 4722 H 459.925 -3.64526 -5.64421 0
M  V30 4723 N 462.645 1.35699 -0.801477 0
M  V30 4724 C 463.577 2.28598 -0.166028 0
M  V30 4725 C 464.59 1.50044 0.631721 0
M  V30 4726 O 465.779 1.72339 0.464921 0
M  V30 4727 C 462.879 3.29625 0.787451 0
M  V30 4728 C 462.052 4.37384 0.037171 0
M  V30 4729 C 461.111 5.183 0.908375 0
M  V30 4730 O 460.137 5.68053 0.361189 0
M  V30 4731 N 461.339 5.35912 2.23112 0
M  V30 4732 H 464.104 2.83771 -0.964071 0
M  V30 4733 H 461.665 1.47994 -0.656469 0
M  V30 4734 H 463.657 3.80648 1.37439 0
M  V30 4735 H 462.227 2.75004 1.48632 0
M  V30 4736 H 461.447 3.87364 -0.730935 0
M  V30 4737 H 462.735 5.0653 -0.480109 0
M  V30 4738 H 462.133 4.97125 2.69968 0
M  V30 4739 H 460.69 5.90133 2.76741 0
M  V30 4740 N 464.123 0.554532 1.47522 0
M  V30 4741 C 465.4 -0.0360704 1.95567 0
M  V30 4742 C 465.78 -1.48828 1.49711 0
M  V30 4743 O 465.128 -2.16366 0.734717 0
M  V30 4744 C 465.338 0.106631 3.48837 0
M  V30 4745 C 466.686 -0.0400899 4.24581 0
M  V30 4746 O 467.71 0.0340453 3.56184 0
M  V30 4747 O 466.569 -0.199111 5.46137 0
M  V30 4748 H 463.663 -0.0656294 0.824392 0
M  V30 4749 H 466.209 0.620867 1.57935 0
M  V30 4750 H 464.981 1.11727 3.7501 0
M  V30 4751 H 464.604 -0.58804 3.93227 0
M  V30 4752 N 465.601 -1.54893 0.290851 0
M  V30 4753 C 466.847 -2.00949 -0.314784 0
M  V30 4754 C 467.202 -1.1757 -1.52299 0
M  V30 4755 O 466.495 -0.241558 -1.90071 0
M  V30 4756 C 466.689 -3.49815 -0.732397 0
M  V30 4757 C 466.518 -4.47603 0.433799 0
M  V30 4758 C 465.288 -4.96806 0.922599 0
M  V30 4759 C 467.486 -4.98233 1.27546 0
M  V30 4760 N 465.468 -5.78426 2.05662 0
M  V30 4761 C 466.839 -5.77455 2.25712 0
M  V30 4762 C 468.894 -4.80439 1.307 0
M  V30 4763 C 467.597 -6.40778 3.26796 0
M  V30 4764 C 469.623 -5.44574 2.30637 0
M  V30 4765 C 468.985 -6.23619 3.27533 0
M  V30 4766 H 465.084 -0.777905 -0.0799257 0
M  V30 4767 H 467.668 -1.9015 0.418458 0
M  V30 4768 H 465.839 -3.60925 -1.43483 0
M  V30 4769 H 467.571 -3.82681 -1.31671 0
M  V30 4770 H 464.326 -4.70961 0.49926 0
M  V30 4771 H 464.75 -6.23923 2.62772 0
M  V30 4772 H 469.392 -4.18918 0.571622 0
M  V30 4773 H 467.11 -7.01439 4.01258 0
M  V30 4774 H 470.696 -5.32739 2.33838 0
M  V30 4775 H 469.576 -6.72367 4.03599 0
M  V30 4776 N 467.08 -0.0183926 -1.57589 0
M  V30 4777 C 468.01 0.965596 -2.12599 0
M  V30 4778 C 468.991 1.34641 -1.0395 0
M  V30 4779 O 470.176 1.42693 -1.31729 0
M  V30 4780 C 467.306 2.25149 -2.64434 0
M  V30 4781 C 466.26 2.01175 -3.77773 0
M  V30 4782 C 465.586 3.35937 -4.15994 0
M  V30 4783 C 466.886 1.35953 -5.04296 0
M  V30 4784 H 468.58 0.507504 -2.95067 0
M  V30 4785 H 466.126 0.242671 -1.41941 0
M  V30 4786 H 468.079 2.94357 -3.01549 0
M  V30 4787 H 466.803 2.73105 -1.79112 0
M  V30 4788 H 465.462 1.34388 -3.4108 0
M  V30 4789 H 465.11 3.81631 -3.27669 0
M  V30 4790 H 464.81 3.20705 -4.92364 0
M  V30 4791 H 466.334 4.0643 -4.55683 0
M  V30 4792 H 467.748 1.95144 -5.39065 0
M  V30 4793 H 466.145 1.31152 -5.85593 0
M  V30 4794 H 467.215 0.331071 -4.83768 0
M  V30 4795 N 468.558 1.5553 0.254621 0
M  V30 4796 C 469.506 1.9048 1.33492 0
M  V30 4797 C 470.5 0.78304 1.50216 0
M  V30 4798 O 471.706 0.967582 1.51782 0
M  V30 4799 H 468.081 0.604846 0.44684 0
M  V30 4800 H 470.052 2.80688 1.01275 0
M  V30 4801 C 468.801 2.20928 2.68489 0
M  V30 4802 H 468.124 3.06742 2.56417 0
M  V30 4803 H 469.564 2.49291 3.42972 0
M  V30 4804 C 468.023 1.023 3.20993 0
M  V30 4805 O 468.553 0.267027 4.00811 0
M  V30 4806 N 466.759 0.815714 2.78917 0
M  V30 4807 H 466.306 1.43217 2.14119 0
M  V30 4808 H 466.264 0.0236532 3.14391 0
M  V30 4809 N 470.036 -0.519951 1.48776 0
M  V30 4810 C 471.284 -1.2727 1.56993 0
M  V30 4811 C 471.605 -1.9339 0.25004 0
M  V30 4812 O 470.875 -1.81822 -0.729216 0
M  V30 4813 H 469.455 -0.472732 0.578389 0
M  V30 4814 H 472.117 -0.604234 1.85297 0
M  V30 4815 H 471.213 -2.04669 2.3562 0
M  V30 4816 N 471.514 -1.37532 -0.769588 0
M  V30 4817 C 472.461 -1.3347 -1.88293 0
M  V30 4818 C 473.431 -0.199891 -1.64893 0
M  V30 4819 O 474.616 -0.389594 -1.8678 0
M  V30 4820 C 471.756 -1.14968 -3.25387 0
M  V30 4821 C 470.869 -2.37698 -3.60727 0
M  V30 4822 C 470.004 -2.12051 -4.8704 0
M  V30 4823 C 469.043 -3.30636 -5.15117 0
M  V30 4824 N 468.18 -3.04527 -6.3262 0
M  V30 4825 H 473.02 -2.28658 -1.911 0
M  V30 4826 H 470.557 -1.13622 -0.934257 0
M  V30 4827 H 472.515 -1.02261 -4.04473 0
M  V30 4828 H 471.145 -0.234263 -3.21949 0
M  V30 4829 H 470.197 -2.61137 -2.76608 0
M  V30 4830 H 471.509 -3.26131 -3.77413 0
M  V30 4831 H 470.663 -1.96388 -5.74035 0
M  V30 4832 H 469.402 -1.20959 -4.72462 0
M  V30 4833 H 468.407 -3.46836 -4.26597 0
M  V30 4834 H 469.632 -4.22582 -5.31603 0
M  V30 4835 H 467.578 -2.16067 -6.19396 0
M  V30 4836 H 467.495 -3.86503 -6.49732 0
M  V30 4837 H 468.763 -2.92485 -7.22546 0
M  V30 4838 N 472.992 0.995999 -1.22138 0
M  V30 4839 C 473.902 2.11985 -1.00496 0
M  V30 4840 C 474.918 1.7394 0.0457701 0
M  V30 4841 O 476.094 2.00868 -0.146273 0
M  V30 4842 C 473.159 3.41779 -0.582086 0
M  V30 4843 C 472.22 3.93943 -1.70608 0
M  V30 4844 C 471.453 5.17542 -1.30328 0
M  V30 4845 O 471.676 5.70114 -0.180743 0
M  V30 4846 O 470.61 5.63382 -2.11861 0
M  V30 4847 H 474.436 2.33123 -1.94647 0
M  V30 4848 H 472.021 1.10358 -1.00705 0
M  V30 4849 H 473.903 4.1989 -0.356467 0
M  V30 4850 H 472.578 3.22007 0.330592 0
M  V30 4851 H 471.485 3.17019 -1.98619 0
M  V30 4852 H 472.818 4.18141 -2.59651 0
M  V30 4853 N 474.47 1.03057 1.19235 0
M  V30 4854 C 475.7 0.746613 1.92638 0
M  V30 4855 C 476.108 -0.698708 1.75826 0
M  V30 4856 O 475.451 -1.487 1.07861 0
M  V30 4857 C 475.513 1.02024 3.44719 0
M  V30 4858 C 475.177 2.45745 3.85303 0
M  V30 4859 C 476.174 3.43887 3.8992 0
M  V30 4860 C 473.859 2.8019 4.16892 0
M  V30 4861 C 475.853 4.74529 4.2556 0
M  V30 4862 C 473.54 4.1104 4.52205 0
M  V30 4863 C 474.538 5.0802 4.56513 0
M  V30 4864 O 474.226 6.36527 4.91008 0
M  V30 4865 H 473.958 0.272401 0.618687 0
M  V30 4866 H 476.512 1.37853 1.52269 0
M  V30 4867 H 474.742 0.331184 3.85279 0
M  V30 4868 H 476.431 0.725677 3.9936 0
M  V30 4869 H 477.197 3.18614 3.65664 0
M  V30 4870 H 473.076 2.05382 4.12722 0
M  V30 4871 H 476.62 5.50222 4.28838 0
M  V30 4872 H 472.517 4.36086 4.7592 0
M  V30 4873 H 473.285 6.41025 5.08949 0
M  V30 4874 N 475.948 -1.35272 0.808662 0
M  V30 4875 C 476.895 -2.29764 0.218482 0
M  V30 4876 C 477.865 -1.52911 -0.648652 0
M  V30 4877 O 479.05 -1.81341 -0.593297 0
M  V30 4878 C 476.19 -3.39388 -0.625282 0
M  V30 4879 C 475.303 -4.31202 0.262516 0
M  V30 4880 C 474.438 -5.27919 -0.589451 0
M  V30 4881 C 473.477 -6.11371 0.298617 0
M  V30 4882 N 472.614 -7.0022 -0.513443 0
M  V30 4883 H 477.454 -2.79645 1.02968 0
M  V30 4884 H 474.991 -1.37629 0.519303 0
M  V30 4885 H 476.949 -4.01615 -1.12966 0
M  V30 4886 H 475.579 -2.90777 -1.40173 0
M  V30 4887 H 474.631 -3.69962 0.885013 0
M  V30 4888 H 475.943 -4.89748 0.945971 0
M  V30 4889 H 475.097 -5.95529 -1.15888 0
M  V30 4890 H 473.836 -4.69875 -1.30647 0
M  V30 4891 H 472.841 -5.42707 0.880301 0
M  V30 4892 H 474.066 -6.71494 1.01352 0
M  V30 4893 H 472.012 -6.44662 -1.21439 0
M  V30 4894 H 471.929 -7.55917 0.111922 0
M  V30 4895 H 473.197 -7.72175 -1.06608 0
M  V30 4896 N 477.426 -0.562348 -1.47226 0
M  V30 4897 C 478.666 -0.0426374 -2.04356 0
M  V30 4898 C 479.03 1.28487 -1.42671 0
M  V30 4899 O 480.231 1.89259 -1.90878 0
M  V30 4900 C 478.502 0.0433826 -3.57374 0
M  V30 4901 S 480.061 0.508472 -4.35844 0
M  V30 4902 H 476.879 -0.0276234 -0.710463 0
M  V30 4903 H 479.481 -0.750245 -1.80531 0
M  V30 4904 H 478.185 -0.927072 -3.99792 0
M  V30 4905 H 477.716 0.774387 -3.85703 0
M  V30 4906 H 479.731 1.76719 -4.63665 0
M  V30 4907 N 478.904 1.54736 -0.299062 0
M  V30 4908 C 479.851 2.23448 0.577899 0
M  V30 4909 C 480.821 1.21637 1.13109 0
M  V30 4910 O 482.006 1.50252 1.17597 0
M  V30 4911 C 479.146 2.9774 1.74484 0
M  V30 4912 C 478.259 4.1432 1.22323 0
M  V30 4913 C 477.394 4.76199 2.35388 0
M  V30 4914 C 476.433 5.84927 1.80351 0
M  V30 4915 N 475.57 6.4077 2.86982 0
M  V30 4916 H 480.41 2.97996 -0.0146545 0
M  V30 4917 H 477.947 1.47088 -0.0190013 0
M  V30 4918 H 479.905 3.39045 2.43114 0
M  V30 4919 H 478.535 2.25572 2.30905 0
M  V30 4920 H 477.587 3.7797 0.429249 0
M  V30 4921 H 478.899 4.92659 0.780309 0
M  V30 4922 H 478.053 5.20346 3.11969 0
M  V30 4923 H 476.792 3.97188 2.83006 0
M  V30 4924 H 475.797 5.40207 1.02259 0
M  V30 4925 H 477.022 6.65821 1.3364 0
M  V30 4926 H 474.968 5.64643 3.33938 0
M  V30 4927 H 474.885 7.1445 2.4718 0
M  V30 4928 H 476.153 6.89574 3.63466 0
M  V30 4929 N 480.382 0.0267497 1.57577 0
M  V30 4930 C 481.628 -0.653371 1.91987 0
M  V30 4931 C 481.961 -1.71915 0.903263 0
M  V30 4932 O 481.236 -1.94358 -0.0743387 0
M  V30 4933 C 481.519 -1.272 3.36886 0
M  V30 4934 C 481.372 -0.215938 4.49281 0
M  V30 4935 C 482.691 -2.19069 3.81703 0
M  V30 4936 H 479.81 -0.236047 0.698177 0
M  V30 4937 H 482.452 0.0835236 1.89816 0
M  V30 4938 H 480.602 -1.90005 3.38866 0
M  V30 4939 H 482.274 0.41449 4.59434 0
M  V30 4940 H 480.517 0.458855 4.31366 0
M  V30 4941 H 481.188 -0.688347 5.47691 0
M  V30 4942 H 483.664 -1.66253 3.81444 0
M  V30 4943 H 482.54 -2.59307 4.83788 0
M  V30 4944 H 482.801 -3.08087 3.17072 0
M  V30 4945 N 481.861 -1.55662 -0.24637 0
M  V30 4946 C 483.086 -1.81914 -0.996093 0
M  V30 4947 C 483.511 -0.603875 -1.78143 0
M  V30 4948 O 482.869 0.447091 -1.75701 0
M  V30 4949 C 482.917 -3.05908 -1.90925 0
M  V30 4950 O 482.021 -2.82861 -3.00105 0
M  V30 4951 H 481.362 -0.600481 -0.283406 0
M  V30 4952 H 483.892 -2.02848 -0.267199 0
M  V30 4953 H 483.902 -3.35356 -2.3238 0
M  V30 4954 H 482.577 -3.93999 -1.33183 0
M  V30 4955 H 481.154 -2.64583 -2.62775 0
M  V30 4956 N 483.339 0.512053 -1.4905 0
M  V30 4957 C 484.287 1.63568 -1.65373 0
M  V30 4958 C 485.281 1.61228 -0.519806 0
M  V30 4959 O 486.487 1.65869 -0.699101 0
M  V30 4960 H 482.862 0.542019 -0.521267 0
M  V30 4961 H 484.833 1.4695 -2.59708 0
M  V30 4962 C 483.582 3.01761 -1.7273 0
M  V30 4963 H 482.905 3.04263 -2.59353 0
M  V30 4964 H 484.345 3.79948 -1.8819 0
M  V30 4965 C 482.804 3.33609 -0.46973 0
M  V30 4966 O 483.334 3.99607 0.409492 0
M  V30 4967 N 481.54 2.88651 -0.336003 0
M  V30 4968 H 481.087 2.35119 -1.05247 0
M  V30 4969 H 481.045 3.10328 0.504363 0
M  V30 4970 N 484.817 1.37938 0.762283 0
M  V30 4971 C 485.764 1.34467 1.87583 0
M  V30 4972 C 486.734 0.208633 1.64785 0
M  V30 4973 O 487.919 0.399494 1.86571 0
M  V30 4974 C 485.059 1.16692 3.24772 0
M  V30 4975 C 484.172 2.39608 3.59461 0
M  V30 4976 C 483.307 2.14631 4.85908 0
M  V30 4977 C 482.346 3.33364 5.13357 0
M  V30 4978 N 481.483 3.07877 6.30996 0
M  V30 4979 H 486.323 2.29669 1.89885 0
M  V30 4980 H 483.86 1.14116 0.928219 0
M  V30 4981 H 485.818 1.04405 4.03925 0
M  V30 4982 H 484.448 0.251333 3.2182 0
M  V30 4983 H 483.5 2.626 2.75219 0
M  V30 4984 H 484.812 3.28128 3.75678 0
M  V30 4985 H 483.966 1.99429 5.72986 0
M  V30 4986 H 482.705 1.23463 4.71814 0
M  V30 4987 H 481.71 3.49094 4.24751 0
M  V30 4988 H 482.935 4.25395 5.29354 0
M  V30 4989 H 480.881 2.19348 6.18241 0
M  V30 4990 H 480.798 3.89944 6.47673 0
M  V30 4991 H 482.066 2.96313 7.20985 0
M  V30 4992 N 486.295 -0.989507 1.22664 0
M  V30 4993 C 487.258 -2.06183 1.00106 0
M  V30 4994 C 488.258 -1.60765 -0.0337726 0
M  V30 4995 O 489.448 -1.72989 0.205072 0
M  V30 4996 C 486.58 -3.37021 0.51279 0
M  V30 4997 H 487.773 -2.27629 1.95256 0
M  V30 4998 H 485.326 -1.16158 1.0458 0
M  V30 4999 H 486.061 -3.21261 -0.442917 0
M  V30 5000 H 485.846 -3.71323 1.25942 0
M  V30 5001 H 487.336 -4.1591 0.375315 0
M  V30 5002 N 487.773 -1.03688 -1.18687 0
M  V30 5003 C 488.703 -0.645407 -2.24403 0
M  V30 5004 C 489.684 0.349511 -1.66471 0
M  V30 5005 O 490.869 0.230453 -1.92828 0
M  V30 5006 C 487.999 -0.00365337 -3.473 0
M  V30 5007 C 486.953 -0.921705 -4.17958 0
M  V30 5008 C 486.279 -0.144629 -5.34504 0
M  V30 5009 C 487.579 -2.23909 -4.71871 0
M  V30 5010 H 489.273 -1.52917 -2.57404 0
M  V30 5011 H 486.819 -0.736711 -1.23728 0
M  V30 5012 H 488.772 0.281908 -4.20456 0
M  V30 5013 H 487.496 0.914963 -3.13522 0
M  V30 5014 H 486.155 -1.19159 -3.46694 0
M  V30 5015 H 485.803 0.776274 -4.96974 0
M  V30 5016 H 485.503 -0.756206 -5.82714 0
M  V30 5017 H 487.027 0.134004 -6.10453 0
M  V30 5018 H 488.441 -2.0145 -5.36741 0
M  V30 5019 H 486.838 -2.8033 -5.30599 0
M  V30 5020 H 487.908 -2.88822 -3.895 0
M  V30 5021 N 489.251 1.34841 -0.815825 0
M  V30 5022 C 490.662 1.80937 -0.46029 0
M  V30 5023 C 491.013 1.67685 1.01863 0
M  V30 5024 O 490.138 1.21277 1.79223 0
M  V30 5025 C 490.733 3.28509 -0.828708 0
M  V30 5026 C 489.292 3.72712 -0.525644 0
M  V30 5027 C 488.439 2.56676 -1.04941 0
M  V30 5028 H 491.39 1.22688 -1.00664 0
M  V30 5029 H 491.411 3.80279 -0.129757 0
M  V30 5030 H 490.923 3.38122 -1.90513 0
M  V30 5031 H 489.024 3.68642 0.541666 0
M  V30 5032 H 489.137 4.67119 -1.06474 0
M  V30 5033 H 487.501 2.50302 -0.471286 0
M  V30 5034 H 488.284 2.69063 -2.13214 0
M  V30 5035 N 490.729 0.570148 1.46925 0
M  V30 5036 C 491.692 -0.159933 2.28641 0
M  V30 5037 C 492.692 -0.830638 1.37685 0
M  V30 5038 O 493.882 -0.684516 1.60187 0
M  V30 5039 C 491.014 -1.2354 3.17727 0
M  V30 5040 H 492.207 0.558035 2.94662 0
M  V30 5041 H 489.76 0.327603 1.52828 0
M  V30 5042 H 490.495 -1.98535 2.56426 0
M  V30 5043 H 490.28 -0.759125 3.84681 0
M  V30 5044 H 491.77 -1.74782 3.79264 0
M  V30 5045 N 492.207 -1.54576 0.307264 0
M  V30 5046 C 493.618 -1.8579 -0.184121 0
M  V30 5047 C 493.969 -1.22914 -1.52927 0
M  V30 5048 O 493.094 -0.529126 -2.09831 0
M  V30 5049 C 493.689 -3.37081 -0.340862 0
M  V30 5050 C 492.248 -3.68304 -0.776465 0
M  V30 5051 C 491.395 -2.77076 0.111503 0
M  V30 5052 H 494.346 -1.49656 0.528078 0
M  V30 5053 H 494.367 -3.61922 -1.17443 0
M  V30 5054 H 493.879 -3.82815 0.638309 0
M  V30 5055 H 491.98 -3.28092 -1.76596 0
M  V30 5056 H 492.093 -4.75434 -0.591512 0
M  V30 5057 H 490.457 -2.51374 -0.410256 0
M  V30 5058 H 491.24 -3.25632 1.08714 0
M  V30 5059 N 493.685 -0.035106 -1.57561 0
M  V30 5060 C 494.934 0.641604 -1.91223 0
M  V30 5061 C 495.247 1.72944 -0.913761 0
M  V30 5062 O 496.453 2.46321 -1.14185 0
M  V30 5063 C 494.909 1.19249 -3.3957 0
M  V30 5064 C 494.517 0.137616 -4.47789 0
M  V30 5065 C 496.261 1.84537 -3.82291 0
M  V30 5066 C 494.168 0.700478 -5.87237 0
M  V30 5067 H 493.098 0.243417 -0.713627 0
M  V30 5068 H 495.749 -0.101382 -1.8322 0
M  V30 5069 H 494.131 1.98728 -3.42525 0
M  V30 5070 H 495.305 -0.635153 -4.56402 0
M  V30 5071 H 493.62 -0.416855 -4.14308 0
M  V30 5072 H 496.217 2.27616 -4.83834 0
M  V30 5073 H 496.56 2.69054 -3.17672 0
M  V30 5074 H 497.093 1.11739 -3.81784 0
M  V30 5075 H 493.832 -0.106693 -6.55413 0
M  V30 5076 H 493.352 1.4416 -5.82218 0
M  V30 5077 H 495.031 1.18837 -6.35993 0
M  V30 5078 N 495.163 1.55791 0.238111 0
M  V30 5079 C 496.073 1.94196 1.31625 0
M  V30 5080 C 497.089 0.843545 1.52185 0
M  V30 5081 O 498.265 1.1457 1.65637 0
M  V30 5082 C 495.33 2.2365 2.64918 0
M  V30 5083 C 494.391 3.46971 2.52804 0
M  V30 5084 C 493.624 3.7501 3.79741 0
M  V30 5085 O 493.847 3.04982 4.82019 0
M  V30 5086 O 492.781 4.68525 3.77846 0
M  V30 5087 H 496.607 2.86044 1.02043 0
M  V30 5088 H 494.192 1.42786 0.439603 0
M  V30 5089 H 496.074 2.43863 3.4367 0
M  V30 5090 H 494.749 1.34979 2.94215 0
M  V30 5091 H 493.656 3.32055 1.72309 0
M  V30 5092 H 494.989 4.35971 2.28451 0
M  V30 5093 N 496.642 -0.504142 1.49319 0
M  V30 5094 C 497.589 -1.60603 1.65756 0
M  V30 5095 C 498.559 -1.58425 0.499082 0
M  V30 5096 O 499.744 -1.76459 0.725728 0
M  V30 5097 C 496.884 -2.98764 1.72726 0
M  V30 5098 C 495.997 -3.10982 2.99857 0
M  V30 5099 C 495.132 -4.39857 2.97824 0
M  V30 5100 C 494.171 -4.45697 4.19548 0
M  V30 5101 N 493.308 -5.65995 4.15444 0
M  V30 5102 H 498.148 -1.45895 2.59843 0
M  V30 5103 H 495.685 -0.709891 1.28837 0
M  V30 5104 H 497.643 -3.78839 1.74747 0
M  V30 5105 H 496.273 -3.12183 0.821075 0
M  V30 5106 H 495.325 -2.23991 3.07461 0
M  V30 5107 H 496.637 -3.11157 3.89849 0
M  V30 5108 H 495.791 -5.2825 2.98391 0
M  V30 5109 H 494.53 -4.42242 2.05604 0
M  V30 5110 H 493.535 -3.55707 4.19229 0
M  V30 5111 H 494.76 -4.4503 5.12957 0
M  V30 5112 H 492.706 -5.69229 3.26059 0
M  V30 5113 H 492.623 -5.67773 4.99169 0
M  V30 5114 H 493.891 -6.56604 4.20109 0
M  V30 5115 N 498.12 -1.38341 -0.754957 0
M  V30 5116 C 499.348 -1.37704 -1.54419 0
M  V30 5117 C 499.763 0.0335243 -1.8877 0
M  V30 5118 O 499.12 0.999773 -1.52679 0
M  V30 5119 C 499.171 -2.23136 -2.84416 0
M  V30 5120 O 498.892 -3.58697 -2.51531 0
M  V30 5121 C 500.393 -2.30664 -3.78562 0
M  V30 5122 H 497.613 -0.471061 -0.477852 0
M  V30 5123 H 500.157 -1.81902 -0.934446 0
M  V30 5124 H 498.312 -1.82403 -3.41772 0
M  V30 5125 H 498.726 -4.03665 -3.34896 0
M  V30 5126 H 500.2 -2.9473 -4.66732 0
M  V30 5127 H 500.677 -1.3199 -4.18898 0
M  V30 5128 H 501.283 -2.71781 -3.27131 0
M  V30 5129 N 499.598 0.982988 -1.23187 0
M  V30 5130 C 500.847 1.71817 -1.05649 0
M  V30 5131 C 501.16 1.91315 0.407176 0
M  V30 5132 O 502.366 2.62256 0.702436 0
M  V30 5133 C 500.822 3.09188 -1.84203 0
M  V30 5134 C 500.43 2.97586 -3.34882 0
M  V30 5135 C 502.174 3.86684 -1.75146 0
M  V30 5136 C 500.081 4.30173 -4.05839 0
M  V30 5137 H 499.011 0.644258 -0.391724 0
M  V30 5138 H 501.662 1.09659 -1.4713 0
M  V30 5139 H 500.044 3.72087 -1.35527 0
M  V30 5140 H 501.218 2.43793 -3.91026 0
M  V30 5141 H 499.533 2.33567 -3.44725 0
M  V30 5142 H 502.13 4.84836 -2.25473 0
M  V30 5143 H 502.473 4.10136 -0.713737 0
M  V30 5144 H 503.006 3.30482 -2.21419 0
M  V30 5145 H 499.745 4.11918 -5.09906 0
M  V30 5146 H 499.265 4.83841 -3.54482 0
M  V30 5147 H 500.944 4.98873 -4.11989 0
M  V30 5148 N 501.076 1.04316 1.18135 0
M  V30 5149 C 502.301 0.768047 1.92655 0
M  V30 5150 C 502.726 -0.66904 1.758 0
M  V30 5151 O 502.084 -1.46372 1.06981 0
M  V30 5152 C 502.132 1.14239 3.42026 0
M  V30 5153 O 501.236 0.269333 4.1152 0
M  V30 5154 H 500.577 0.282436 0.600937 0
M  V30 5155 H 503.107 1.39367 1.49793 0
M  V30 5156 H 503.117 1.10538 3.92741 0
M  V30 5157 H 501.792 2.18928 3.53615 0
M  V30 5158 H 500.369 0.366175 3.71098 0
M  V30 5159 N 502.554 -1.34406 0.822964 0
M  V30 5160 C 503.501 -2.29519 0.24284 0
M  V30 5161 C 504.471 -1.5359 -0.632397 0
M  V30 5162 O 505.656 -1.8196 -0.57403 0
M  V30 5163 C 502.796 -3.40032 -0.58925 0
M  V30 5164 C 501.909 -4.30899 0.308236 0
M  V30 5165 C 501.044 -5.28515 -0.533425 0
M  V30 5166 C 500.083 -6.1102 0.363444 0
M  V30 5167 N 499.22 -7.00725 -0.439147 0
M  V30 5168 H 504.06 -2.78537 1.05929 0
M  V30 5169 H 501.597 -1.3707 0.533872 0
M  V30 5170 H 503.555 -4.0279 -1.087 0
M  V30 5171 H 502.185 -2.92248 -1.37081 0
M  V30 5172 H 501.237 -3.69002 0.924203 0
M  V30 5173 H 502.549 -4.88717 0.997862 0
M  V30 5174 H 501.703 -5.96725 -1.09565 0
M  V30 5175 H 500.442 -4.71235 -1.25656 0
M  V30 5176 H 499.447 -5.41743 0.937812 0
M  V30 5177 H 500.672 -6.70381 1.08469 0
M  V30 5178 H 498.618 -6.45913 -1.14595 0
M  V30 5179 H 498.535 -7.55756 0.19209 0
M  V30 5180 H 499.803 -7.73263 -0.984124 0
M  V30 5181 N 504.032 -0.577932 -1.46621 0
M  V30 5182 C 504.995 0.147805 -2.28723 0
M  V30 5183 C 505.995 0.823325 -1.38123 0
M  V30 5184 O 507.185 0.676011 -1.60548 0
M  V30 5185 C 504.317 1.21853 -3.18378 0
M  V30 5186 H 505.51 -0.573654 -2.94362 0
M  V30 5187 H 503.063 -0.335703 -1.52652 0
M  V30 5188 H 503.798 1.97173 -2.57475 0
M  V30 5189 H 503.583 0.738714 -3.85078 0
M  V30 5190 H 505.073 1.72768 -3.80186 0
M  V30 5191 N 505.51 1.54411 -0.315457 0
M  V30 5192 C 506.457 2.24048 0.554166 0
M  V30 5193 C 507.427 1.2283 1.11812 0
M  V30 5194 O 508.612 1.51491 1.15997 0
M  V30 5195 C 505.752 2.99574 1.71316 0
M  V30 5196 C 504.865 4.15594 1.17922 0
M  V30 5197 C 504 4.78669 2.30324 0
M  V30 5198 C 503.039 5.86807 1.74137 0
M  V30 5199 N 502.176 6.43777 2.8017 0
M  V30 5200 H 507.016 2.97964 -0.0462602 0
M  V30 5201 H 504.553 1.47059 -0.0346009 0
M  V30 5202 H 506.511 3.41604 2.39505 0
M  V30 5203 H 505.141 2.28008 2.285 0
M  V30 5204 H 504.193 3.78404 0.389136 0
M  V30 5205 H 505.505 4.93459 0.728012 0
M  V30 5206 H 504.659 5.23626 3.06433 0
M  V30 5207 H 503.398 4.00168 2.78778 0
M  V30 5208 H 502.403 5.41261 0.965236 0
M  V30 5209 H 503.628 6.67201 1.2657 0
M  V30 5210 H 501.574 5.68153 3.2793 0
M  V30 5211 H 501.491 7.17031 2.39588 0
M  V30 5212 H 502.759 6.9339 3.56132 0
M  V30 5213 N 506.988 0.0434614 1.5754 0
M  V30 5214 C 508.236 -0.630786 1.92004 0
M  V30 5215 C 508.557 -1.71836 0.921807 0
M  V30 5216 O 507.827 -1.9587 -0.034522 0
M  V30 5217 H 506.407 -0.235988 0.708745 0
M  V30 5218 H 509.069 0.0946462 1.9467 0
M  V30 5219 H 508.165 -1.07434 2.93026 0
M  V30 5220 N 508.466 -1.55915 -0.229846 0
M  V30 5221 C 509.398 -1.88209 -1.30805 0
M  V30 5222 C 510.411 -0.769672 -1.43457 0
M  V30 5223 O 511.6 -1.04792 -1.44502 0
M  V30 5224 C 508.7 -2.06829 -2.68468 0
M  V30 5225 C 507.873 -3.37798 -2.77869 0
M  V30 5226 C 506.932 -3.45952 -3.96489 0
M  V30 5227 O 505.958 -4.19043 -3.85216 0
M  V30 5228 N 507.16 -2.76488 -5.10426 0
M  V30 5229 H 509.925 -2.81286 -1.03431 0
M  V30 5230 H 507.486 -1.5636 -0.41991 0
M  V30 5231 H 509.478 -2.09608 -3.46189 0
M  V30 5232 H 508.048 -1.20416 -2.88477 0
M  V30 5233 H 507.268 -3.4719 -1.86689 0
M  V30 5234 H 508.556 -4.24091 -2.81113 0
M  V30 5235 H 507.954 -2.16868 -5.2248 0
M  V30 5236 H 506.511 -2.84938 -5.8622 0
M  V30 5237 N 509.944 0.496216 -1.49584 0
M  V30 5238 C 511.355 1.07765 -1.52459 0
M  V30 5239 C 511.706 1.93679 -0.31353 0
M  V30 5240 O 510.831 2.08588 0.576186 0
M  V30 5241 C 511.426 1.96111 -2.76271 0
M  V30 5242 C 509.985 2.49409 -2.81908 0
M  V30 5243 C 509.132 1.27142 -2.46435 0
M  V30 5244 H 512.083 0.279914 -1.56212 0
M  V30 5245 H 512.104 2.80862 -2.56704 0
M  V30 5246 H 511.616 1.33555 -3.64396 0
M  V30 5247 H 509.717 3.1559 -1.98074 0
M  V30 5248 H 509.83 2.86234 -3.84196 0
M  V30 5249 H 508.194 1.59818 -1.98319 0
M  V30 5250 H 508.977 0.662866 -3.3684 0
M  V30 5251 N 511.423 1.38739 0.74761 0
M  V30 5252 C 512.839 1.20067 1.05148 0
M  V30 5253 C 513.039 0.0534835 2.01429 0
M  V30 5254 O 512.095 -0.59886 2.45296 0
M  V30 5255 C 513.408 2.52957 1.62584 0
M  V30 5256 C 514.956 2.59692 1.74726 0
M  V30 5257 C 515.431 3.92772 2.35573 0
M  V30 5258 N 516.922 3.94343 2.42997 0
M  V30 5259 C 517.657 4.9408 2.90985 0
M  V30 5260 N 517.153 6.04214 3.38965 0
M  V30 5261 N 518.946 4.81466 2.9008 0
M  V30 5262 H 511.097 2.12121 0.108808 0
M  V30 5263 H 513.36 0.941491 0.110899 0
M  V30 5264 H 513.066 3.37389 0.993051 0
M  V30 5265 H 512.94 2.71779 2.61565 0
M  V30 5266 H 515.327 1.75651 2.3713 0
M  V30 5267 H 515.408 2.44731 0.744326 0
M  V30 5268 H 515.052 4.77238 1.738 0
M  V30 5269 H 514.982 4.05046 3.36519 0
M  V30 5270 H 517.473 3.14799 2.0907 0
M  V30 5271 H 517.786 6.76241 3.74056 0
M  V30 5272 H 516.131 6.07825 3.37007 0
M  V30 5273 H 519.322 3.94535 2.51912 0
M  V30 5274 H 519.495 5.59344 3.27166 0
M  V30 5275 N 512.901 -0.976442 1.23707 0
M  V30 5276 C 513.811 -2.10359 1.03856 0
M  V30 5277 C 514.827 -1.73991 -0.0180919 0
M  V30 5278 O 516.003 -2.0061 0.178211 0
M  V30 5279 C 513.068 -3.40809 0.636387 0
M  V30 5280 C 512.129 -3.91179 1.76854 0
M  V30 5281 C 511.362 -5.15404 1.38546 0
M  V30 5282 O 511.585 -5.69754 0.27142 0
M  V30 5283 O 510.519 -5.5994 2.20797 0
M  V30 5284 H 514.345 -2.29997 1.98331 0
M  V30 5285 H 511.93 -1.08742 1.02448 0
M  V30 5286 H 513.812 -4.19269 0.423223 0
M  V30 5287 H 512.487 -3.22493 -0.279322 0
M  V30 5288 H 511.394 -3.13819 2.03638 0
M  V30 5289 H 512.727 -4.13958 2.6627 0
M  V30 5290 N 514.379 -1.04941 -1.1758 0
M  V30 5291 C 515.79 -0.784501 -1.69418 0
M  V30 5292 C 516.141 0.693625 -1.8353 0
M  V30 5293 O 515.266 1.53925 -1.52106 0
M  V30 5294 C 515.861 -1.41746 -3.07723 0
M  V30 5295 C 514.42 -1.20066 -3.56737 0
M  V30 5296 C 513.567 -1.5026 -2.33061 0
M  V30 5297 H 516.518 -1.21469 -1.02133 0
M  V30 5298 H 516.539 -0.825381 -3.7144 0
M  V30 5299 H 516.051 -2.49325 -2.9742 0
M  V30 5300 H 514.152 -0.144006 -3.72322 0
M  V30 5301 H 514.265 -1.90384 -4.39648 0
M  V30 5302 H 512.629 -0.922598 -2.37403 0
M  V30 5303 H 513.412 -2.58967 -2.25368 0
M  V30 5304 N 515.857 1.33968 -0.830081 0
M  V30 5305 C 516.789 2.28194 -0.21448 0
M  V30 5306 C 517.802 1.5135 0.599752 0
M  V30 5307 O 518.991 1.73286 0.42826 0
M  V30 5308 C 516.091 3.31221 0.717356 0
M  V30 5309 C 515.264 4.37365 -0.055613 0
M  V30 5310 C 514.323 5.2011 0.798231 0
M  V30 5311 O 513.349 5.68691 0.240616 0
M  V30 5312 N 514.551 5.40523 2.11695 0
M  V30 5313 H 517.316 2.81662 -1.02405 0
M  V30 5314 H 514.877 1.46568 -0.687713 0
M  V30 5315 H 516.869 3.83477 1.29334 0
M  V30 5316 H 515.439 2.78095 1.42765 0
M  V30 5317 H 514.659 3.85727 -0.812936 0
M  V30 5318 H 515.947 5.05397 -0.587444 0
M  V30 5319 H 515.345 5.0274 2.59363 0
M  V30 5320 H 513.902 5.95871 2.64162 0
M  V30 5321 N 517.335 0.585699 1.46312 0
M  V30 5322 C 518.581 0.0725284 2.0267 0
M  V30 5323 C 518.914 -1.28523 1.45586 0
M  V30 5324 O 518.189 -1.84283 0.622101 0
M  V30 5325 C 518.472 0.0099788 3.60099 0
M  V30 5326 C 518.325 1.39685 4.27561 0
M  V30 5327 C 519.644 -0.689117 4.34671 0
M  V30 5328 H 516.763 0.0278307 0.736474 0
M  V30 5329 H 519.405 0.753472 1.74421 0
M  V30 5330 H 517.555 -0.56992 3.84297 0
M  V30 5331 H 519.227 2.02215 4.14617 0
M  V30 5332 H 517.47 1.96374 3.86807 0
M  V30 5333 H 518.141 1.30553 5.36339 0
M  V30 5334 H 520.617 -0.196446 4.15636 0
M  V30 5335 H 519.493 -0.701921 5.44393 0
M  V30 5336 H 519.754 -1.75101 4.05946 0
M  V30 5337 N 518.813 -1.54241 0.323641 0
M  V30 5338 C 520.043 -2.04687 -0.280464 0
M  V30 5339 C 520.451 -1.19939 -1.46326 0
M  V30 5340 O 519.794 -0.222872 -1.82343 0
M  V30 5341 C 519.856 -3.50978 -0.778123 0
M  V30 5342 C 519.52 -4.56127 0.282371 0
M  V30 5343 C 520.517 -5.07726 1.11847 0
M  V30 5344 C 518.202 -5.00451 0.430582 0
M  V30 5345 C 520.196 -6.02212 2.08851 0
M  V30 5346 C 517.883 -5.94752 1.40404 0
M  V30 5347 C 518.881 -6.45519 2.23147 0
M  V30 5348 O 518.569 -7.37968 3.1884 0
M  V30 5349 H 518.301 -0.673192 -0.0615473 0
M  V30 5350 H 520.855 -1.99999 0.467921 0
M  V30 5351 H 519.085 -3.53064 -1.57742 0
M  V30 5352 H 520.774 -3.84499 -1.30058 0
M  V30 5353 H 521.54 -4.74261 1.01496 0
M  V30 5354 H 517.419 -4.6055 -0.203569 0
M  V30 5355 H 520.963 -6.41761 2.73474 0
M  V30 5356 H 516.86 -6.27633 1.5082 0
M  V30 5357 H 517.628 -7.55841 3.14079 0
M  V30 5358 N 520.291 -0.0518155 -1.57515 0
M  V30 5359 C 521.519 0.631395 -1.9703 0
M  V30 5360 C 521.934 1.64341 -0.92938 0
M  V30 5361 O 521.291 1.82296 0.0863266 0
M  V30 5362 C 521.342 1.31774 -3.36627 0
M  V30 5363 O 521.063 0.346247 -4.3673 0
M  V30 5364 C 522.564 2.09065 -3.90905 0
M  V30 5365 H 519.784 0.172576 -0.648428 0
M  V30 5366 H 522.328 -0.118306 -2.04158 0
M  V30 5367 H 520.483 2.01867 -3.30649 0
M  V30 5368 H 520.897 0.836226 -5.17791 0
M  V30 5369 H 522.371 2.52508 -4.9086 0
M  V30 5370 H 522.848 2.93908 -3.26366 0
M  V30 5371 H 523.454 1.43882 -4.00223 0
M  V30 5372 N 521.769 1.56035 0.221574 0
M  V30 5373 C 522.699 1.95434 1.2778 0
M  V30 5374 C 523.68 0.822564 1.48889 0
M  V30 5375 O 524.865 1.08486 1.61072 0
M  V30 5376 C 521.995 2.27102 2.62759 0
M  V30 5377 C 520.949 3.4277 2.56306 0
M  V30 5378 C 520.275 3.60043 3.95314 0
M  V30 5379 C 521.575 4.77742 2.11093 0
M  V30 5380 H 523.269 2.83912 0.950504 0
M  V30 5381 H 520.815 1.36596 0.455791 0
M  V30 5382 H 522.768 2.53256 3.36807 0
M  V30 5383 H 521.492 1.35478 2.97176 0
M  V30 5384 H 520.151 3.16664 1.84715 0
M  V30 5385 H 519.799 2.65794 4.27039 0
M  V30 5386 H 519.499 4.37841 3.91879 0
M  V30 5387 H 521.023 3.88545 4.71025 0
M  V30 5388 H 522.437 5.03102 2.74885 0
M  V30 5389 H 520.834 5.58823 2.18716 0
M  V30 5390 H 521.904 4.731 1.06321 0
M  V30 5391 N 523.247 -0.488276 1.49845 0
M  V30 5392 C 524.658 -1.06955 1.53028 0
M  V30 5393 C 525.009 -1.9351 0.323797 0
M  V30 5394 O 524.134 -2.08891 -0.565116 0
M  V30 5395 C 524.729 -1.94643 2.77307 0
M  V30 5396 C 523.288 -2.4791 2.83227 0
M  V30 5397 C 522.435 -1.25833 2.47106 0
M  V30 5398 H 525.386 -0.271626 1.56358 0
M  V30 5399 H 525.407 -2.79496 2.5819 0
M  V30 5400 H 524.919 -1.31621 3.65099 0
M  V30 5401 H 523.02 -3.14535 1.99745 0
M  V30 5402 H 523.133 -2.84193 3.85709 0
M  V30 5403 H 521.497 -1.58764 1.99163 0
M  V30 5404 H 522.28 -0.644993 3.37186 0
M  V30 5405 N 524.725 -1.39134 -0.740242 0
M  V30 5406 C 526.136 -1.32208 -1.31825 0
M  V30 5407 C 526.487 0.0159919 -1.96193 0
M  V30 5408 O 525.612 0.918111 -1.95958 0
M  V30 5409 C 526.207 -2.39436 -2.39699 0
M  V30 5410 C 524.766 -2.36048 -2.93187 0
M  V30 5411 C 523.913 -2.21599 -1.66701 0
M  V30 5412 H 526.864 -1.49298 -0.538133 0
M  V30 5413 H 526.885 -2.05922 -3.19963 0
M  V30 5414 H 526.397 -3.36811 -1.92821 0
M  V30 5415 H 524.498 -1.42295 -3.44359 0
M  V30 5416 H 524.611 -3.30704 -3.46658 0
M  V30 5417 H 522.975 -1.68681 -1.90837 0
M  V30 5418 H 523.758 -3.20936 -1.21882 0
M  V30 5419 N 526.204 0.969867 -1.24223 0
M  V30 5420 C 527.429 1.75289 -1.10853 0
M  V30 5421 C 527.854 1.85091 0.335079 0
M  V30 5422 O 527.212 1.32024 1.24255 0
M  V30 5423 C 527.26 3.15255 -1.75062 0
M  V30 5424 O 526.364 3.99589 -1.01992 0
M  V30 5425 H 525.705 0.538904 -0.387915 0
M  V30 5426 H 528.235 1.21675 -1.64488 0
M  V30 5427 H 528.245 3.65787 -1.80731 0
M  V30 5428 H 526.92 3.07436 -2.801 0
M  V30 5429 H 525.497 3.58077 -1.04094 0
M  V30 5430 N 527.682 1.05563 1.17022 0
M  V30 5431 C 529.098 0.777684 1.39371 0
M  V30 5432 C 529.298 -0.626269 1.91521 0
M  V30 5433 O 528.354 -1.38806 2.10924 0
M  V30 5434 C 529.667 1.83642 2.3811 0
M  V30 5435 C 531.215 1.85907 2.51809 0
M  V30 5436 C 531.69 2.90813 3.53824 0
M  V30 5437 N 533.181 2.898 3.61345 0
M  V30 5438 C 533.916 3.6762 4.40049 0
M  V30 5439 N 533.412 4.55237 5.22237 0
M  V30 5440 N 535.205 3.56044 4.34959 0
M  V30 5441 H 527.356 1.9614 0.815047 0
M  V30 5442 H 529.619 0.849527 0.420722 0
M  V30 5443 H 529.325 2.84425 2.06871 0
M  V30 5444 H 529.199 1.6812 3.37662 0
M  V30 5445 H 531.586 0.857865 2.82356 0
M  V30 5446 H 531.667 2.05506 1.52318 0
M  V30 5447 H 531.311 3.91122 3.24015 0
M  V30 5448 H 531.241 2.68465 4.53028 0
M  V30 5449 H 533.732 2.26274 3.02669 0
M  V30 5450 H 534.045 5.11291 5.79484 0
M  V30 5451 H 532.39 4.59296 5.21605 0
M  V30 5452 H 535.581 2.86986 3.69806 0
M  V30 5453 H 535.754 4.16938 4.96051 0
M  V30 5454 N 529.16 -1.33526 0.837174 0
M  V30 5455 C 530.437 -1.92369 0.354065 0
M  V30 5456 C 530.817 -1.76348 -1.16038 0
M  V30 5457 O 530.165 -1.15083 -1.97403 0
M  V30 5458 C 530.375 -3.39728 0.799101 0
M  V30 5459 C 531.723 -4.16877 0.806139 0
M  V30 5460 O 532.747 -3.48373 0.742597 0
M  V30 5461 O 531.606 -5.39166 0.892345 0
M  V30 5462 H 528.7 -0.820952 0.0998378 0
M  V30 5463 H 531.246 -1.42409 0.922913 0
M  V30 5464 H 530.018 -3.45254 1.84162 0
M  V30 5465 H 529.641 -3.97062 0.206731 0
M  V30 5466 N 530.638 -0.59345 -1.46 0
M  V30 5467 C 531.548 0.135817 -2.34207 0
M  V30 5468 C 532.564 0.875008 -1.50398 0
M  V30 5469 O 533.74 0.835778 -1.83239 0
M  V30 5470 C 530.805 1.12977 -3.27776 0
M  V30 5471 C 529.866 0.394081 -4.27487 0
M  V30 5472 C 529.099 1.34068 -5.16586 0
M  V30 5473 O 529.322 2.5778 -5.08828 0
M  V30 5474 O 528.256 0.845426 -5.95933 0
M  V30 5475 H 532.082 -0.588691 -2.9794 0
M  V30 5476 H 529.667 -0.353784 -1.45151 0
M  V30 5477 H 531.549 1.70261 -3.85473 0
M  V30 5478 H 530.224 1.83556 -2.66625 0
M  V30 5479 H 529.131 -0.220869 -3.73447 0
M  V30 5480 H 530.464 -0.270939 -4.91454 0
M  V30 5481 N 532.116 1.54067 -0.331816 0
M  V30 5482 C 533.046 2.27569 0.522932 0
M  V30 5483 C 534.027 1.28679 1.11247 0
M  V30 5484 O 535.212 1.57504 1.13605 0
M  V30 5485 C 532.342 3.0397 1.67987 0
M  V30 5486 C 531.296 4.10267 1.21924 0
M  V30 5487 C 530.622 4.74555 2.46377 0
M  V30 5488 C 531.922 5.21268 0.32815 0
M  V30 5489 H 533.616 2.99264 -0.0901977 0
M  V30 5490 H 531.162 1.4393 -0.044821 0
M  V30 5491 H 533.115 3.54123 2.28418 0
M  V30 5492 H 531.839 2.29906 2.31971 0
M  V30 5493 H 530.498 3.61009 0.637809 0
M  V30 5494 H 530.146 3.97098 3.08743 0
M  V30 5495 H 529.846 5.46363 2.16243 0
M  V30 5496 H 531.37 5.27487 3.07555 0
M  V30 5497 H 532.784 5.67128 0.838978 0
M  V30 5498 H 531.181 5.99982 0.119228 0
M  V30 5499 H 532.251 4.80673 -0.638839 0
M  V30 5500 N 533.594 0.0601682 1.57485 0
M  V30 5501 C 534.822 -0.620937 1.97363 0
M  V30 5502 C 535.237 -1.63846 0.938082 0
M  V30 5503 O 534.594 -1.82339 -0.0766578 0
M  V30 5504 C 534.645 -1.29987 3.37321 0
M  V30 5505 O 534.366 -0.323081 4.36907 0
M  V30 5506 C 535.867 -2.06989 3.92008 0
M  V30 5507 H 533.087 -0.169135 0.649334 0
M  V30 5508 H 535.631 0.129132 2.04092 0
M  V30 5509 H 533.786 -2.0011 3.31715 0
M  V30 5510 H 534.2 -0.808754 5.18227 0
M  V30 5511 H 535.674 -2.49901 4.92192 0
M  V30 5512 H 536.151 -2.92173 3.2792 0
M  V30 5513 H 536.757 -1.41757 4.0098 0
M  V30 5514 N 535.072 -1.5615 -0.213296 0
M  V30 5515 C 536.019 -1.93086 -1.26437 0
M  V30 5516 C 536.989 -0.789086 -1.4616 0
M  V30 5517 O 538.174 -1.04569 -1.59593 0
M  V30 5518 C 535.314 -2.26003 -2.608 0
M  V30 5519 C 534.427 -3.53156 -2.48807 0
M  V30 5520 C 533.562 -3.7548 -3.7575 0
M  V30 5521 C 532.601 -4.96119 -3.58514 0
M  V30 5522 N 531.738 -5.14791 -4.77425 0
M  V30 5523 H 536.578 -2.82707 -0.942376 0
M  V30 5524 H 534.115 -1.39919 -0.454001 0
M  V30 5525 H 536.073 -2.431 -3.39055 0
M  V30 5526 H 534.703 -1.39546 -2.91079 0
M  V30 5527 H 533.755 -3.44207 -1.61944 0
M  V30 5528 H 535.067 -4.41565 -2.31996 0
M  V30 5529 H 534.221 -3.92718 -4.62447 0
M  V30 5530 H 532.96 -2.85368 -3.95495 0
M  V30 5531 H 531.965 -4.78823 -2.70201 0
M  V30 5532 H 533.19 -5.87724 -3.40231 0
M  V30 5533 H 531.136 -4.27623 -4.97468 0
M  V30 5534 H 531.053 -5.97347 -4.63371 0
M  V30 5535 H 532.321 -5.36471 -5.65525 0
M  V30 5536 N 536.55 0.480323 -1.50102 0
M  V30 5537 C 537.498 1.60024 -1.68805 0
M  V30 5538 C 538.492 1.60089 -0.553888 0
M  V30 5539 O 539.698 1.64349 -0.734127 0
M  V30 5540 H 536.073 0.530841 -0.532646 0
M  V30 5541 H 538.044 1.41408 -2.62767 0
M  V30 5542 C 536.793 2.98029 -1.79092 0
M  V30 5543 H 536.116 2.98694 -2.65748 0
M  V30 5544 H 537.556 3.75871 -1.96206 0
M  V30 5545 C 536.015 3.32538 -0.540388 0
M  V30 5546 O 536.545 4.00386 0.324637 0
M  V30 5547 N 534.751 2.87873 -0.397154 0
M  V30 5548 H 534.298 2.32834 -1.1021 0
M  V30 5549 H 534.256 3.11328 0.438425 0
M  V30 5550 N 538.028 1.39524 0.732853 0
M  V30 5551 C 538.96 1.34318 1.85718 0
M  V30 5552 C 539.973 0.251576 1.60844 0
M  V30 5553 O 541.162 0.510685 1.71039 0
M  V30 5554 C 538.262 1.06334 3.21786 0
M  V30 5555 C 537.435 2.26813 3.73998 0
M  V30 5556 C 536.494 1.95253 4.88634 0
M  V30 5557 O 535.52 2.67957 5.02183 0
M  V30 5558 N 536.722 0.919984 5.73164 0
M  V30 5559 H 539.487 2.3121 1.90688 0
M  V30 5560 H 537.048 1.33654 0.91368 0
M  V30 5561 H 539.04 0.832363 3.96048 0
M  V30 5562 H 537.61 0.181682 3.12072 0
M  V30 5563 H 536.83 2.65849 2.91064 0
M  V30 5564 H 538.118 3.0717 4.05616 0
M  V30 5565 H 537.516 0.317487 5.64808 0
M  V30 5566 H 536.073 0.748905 6.47483 0
M  V30 5567 N 539.506 -0.963266 1.24736 0
M  V30 5568 C 540.752 -1.70933 1.09131 0
M  V30 5569 C 541.085 -1.90676 -0.368273 0
M  V30 5570 O 540.36 -1.47147 -1.27193 0
M  V30 5571 C 540.643 -3.09744 1.83658 0
M  V30 5572 C 540.496 -2.97465 3.37394 0
M  V30 5573 C 541.815 -4.09483 1.61282 0
M  V30 5574 H 538.934 -0.620398 0.397838 0
M  V30 5575 H 541.576 -1.12028 1.53459 0
M  V30 5576 H 539.726 -3.60031 1.4598 0
M  V30 5577 H 541.398 -2.54571 3.84696 0
M  V30 5578 H 539.641 -2.33576 3.65547 0
M  V30 5579 H 540.312 -3.95822 3.84745 0
M  V30 5580 H 542.788 -3.68073 1.94066 0
M  V30 5581 H 541.664 -5.04666 2.15878 0
M  V30 5582 H 541.925 -4.38639 0.552102 0
M  V30 5583 N 540.985 -1.06182 -1.16461 0
M  V30 5584 C 542.21 -0.798599 -1.91408 0
M  V30 5585 C 542.635 0.640987 -1.76842 0
M  V30 5586 O 541.993 1.44652 -1.09296 0
M  V30 5587 C 542.041 -1.19665 -3.40165 0
M  V30 5588 O 541.145 -0.334768 -4.11039 0
M  V30 5589 H 540.486 -0.291961 -0.596368 0
M  V30 5590 H 543.016 -1.41732 -1.47557 0
M  V30 5591 H 543.026 -1.16772 -3.90933 0
M  V30 5592 H 541.701 -2.24526 -3.50087 0
M  V30 5593 H 540.278 -0.425168 -3.70468 0
M  V30 5594 N 542.463 1.3308 -0.844243 0
M  V30 5595 C 543.393 2.3161 -0.296493 0
M  V30 5596 C 544.374 1.59215 0.598707 0
M  V30 5597 O 545.559 1.87077 0.521134 0
M  V30 5598 C 542.689 3.43313 0.524762 0
M  V30 5599 C 541.643 4.27115 -0.275106 0
M  V30 5600 C 540.969 5.30483 0.670236 0
M  V30 5601 C 542.269 5.00443 -1.49514 0
M  V30 5602 H 543.963 2.77672 -1.11976 0
M  V30 5603 H 541.509 1.33496 -0.539899 0
M  V30 5604 H 543.462 4.11273 0.918298 0
M  V30 5605 H 542.186 2.95952 1.3813 0
M  V30 5606 H 540.845 3.60787 -0.650267 0
M  V30 5607 H 540.493 4.79379 1.52332 0
M  V30 5608 H 540.193 5.87435 0.139123 0
M  V30 5609 H 541.717 6.01308 1.06117 0
M  V30 5610 H 543.131 5.61141 -1.17447 0
M  V30 5611 H 541.528 5.67071 -1.96343 0
M  V30 5612 H 542.598 4.28906 -2.26202 0
M  V30 5613 N 543.941 0.601185 1.45683 0
M  V30 5614 C 545.169 0.100054 2.06658 0
M  V30 5615 C 545.584 -1.21285 1.44691 0
M  V30 5616 O 544.941 -1.73735 0.558772 0
M  V30 5617 C 544.992 -0.0528579 3.61461 0
M  V30 5618 O 544.713 1.20809 4.21114 0
M  V30 5619 C 546.214 -0.586193 4.39407 0
M  V30 5620 H 543.434 0.065905 0.667756 0
M  V30 5621 H 545.978 0.827101 1.87028 0
M  V30 5622 H 544.133 -0.730203 3.80456 0
M  V30 5623 H 544.547 1.03368 5.14213 0
M  V30 5624 H 546.021 -0.642297 5.4825 0
M  V30 5625 H 546.498 -1.60713 4.0874 0
M  V30 5626 H 547.104 0.0568935 4.25262 0
M  V30 5627 N 545.419 -1.53889 0.339982 0
M  V30 5628 C 546.659 -2.02765 -0.258011 0
M  V30 5629 C 547.023 -1.22249 -1.48051 0
M  V30 5630 O 548.224 -1.61007 -2.15245 0
M  V30 5631 C 546.495 -3.5286 -0.567872 0
M  V30 5632 S 548.054 -4.23647 -1.14318 0
M  V30 5633 H 544.872 -0.706814 -0.0770389 0
M  V30 5634 H 547.474 -1.89594 0.476917 0
M  V30 5635 H 546.178 -4.09073 0.329745 0
M  V30 5636 H 545.709 -3.70144 -1.33256 0
M  V30 5637 H 547.724 -4.32676 -2.42911 0
M  V30 5638 N 546.897 -0.0685191 -1.57451 0
M  V30 5639 C 547.827 0.89747 -2.15564 0
M  V30 5640 C 548.808 1.31266 -1.08181 0
M  V30 5641 O 549.993 1.38429 -1.36202 0
M  V30 5642 C 547.123 2.16623 -2.71463 0
M  V30 5643 C 546.077 1.89054 -3.83982 0
M  V30 5644 C 545.403 3.22532 -4.26471 0
M  V30 5645 C 546.703 1.1984 -5.08366 0
M  V30 5646 H 548.397 0.413373 -2.96533 0
M  V30 5647 H 545.943 0.197391 -1.42641 0
M  V30 5648 H 547.896 2.84614 -3.10761 0
M  V30 5649 H 546.62 2.67269 -1.8771 0
M  V30 5650 H 545.279 1.23469 -3.45183 0
M  V30 5651 H 544.927 3.71013 -3.39644 0
M  V30 5652 H 544.627 3.04879 -5.02317 0
M  V30 5653 H 546.151 3.91727 -4.68383 0
M  V30 5654 H 547.565 1.77896 -5.45001 0
M  V30 5655 H 545.962 1.12456 -5.89469 0
M  V30 5656 H 547.032 0.176996 -4.84577 0
M  V30 5657 N 548.375 1.56261 0.205012 0
M  V30 5658 C 549.621 1.80306 0.9283 0
M  V30 5659 C 549.954 0.640932 1.83319 0
M  V30 5660 O 549.229 -0.359032 1.91158 0
M  V30 5661 C 549.512 3.14547 1.75306 0
M  V30 5662 C 549.365 4.41236 0.873562 0
M  V30 5663 C 550.684 3.45382 2.72762 0
M  V30 5664 H 547.803 0.655929 0.336044 0
M  V30 5665 H 550.445 1.88984 0.196211 0
M  V30 5666 H 548.595 3.0728 2.37721 0
M  V30 5667 H 550.267 4.60539 0.264887 0
M  V30 5668 H 548.51 4.33427 0.179773 0
M  V30 5669 H 549.181 5.31639 1.48541 0
M  V30 5670 H 551.657 3.52884 2.20481 0
M  V30 5671 H 550.533 4.40449 3.2756 0
M  V30 5672 H 550.794 2.68377 3.51321 0
M  V30 5673 N 549.853 -0.472356 1.50355 0
M  V30 5674 C 550.8 -1.57051 1.69126 0
M  V30 5675 C 551.77 -1.5733 0.532574 0
M  V30 5676 O 552.955 -1.7488 0.762994 0
M  V30 5677 C 550.095 -2.95033 1.79024 0
M  V30 5678 C 549.208 -3.04552 3.06386 0
M  V30 5679 C 548.343 -4.33441 3.07087 0
M  V30 5680 C 547.382 -4.36697 4.28908 0
M  V30 5681 N 546.519 -5.57056 4.27356 0
M  V30 5682 H 551.359 -1.40351 2.62879 0
M  V30 5683 H 548.896 -0.682403 1.30314 0
M  V30 5684 H 550.854 -3.75048 1.82744 0
M  V30 5685 H 549.484 -3.10371 0.887109 0
M  V30 5686 H 548.536 -2.17419 3.12143 0
M  V30 5687 H 549.848 -3.02818 3.96362 0
M  V30 5688 H 549.002 -5.21801 3.09529 0
M  V30 5689 H 547.741 -4.37782 2.14939 0
M  V30 5690 H 546.746 -3.46734 4.2668 0
M  V30 5691 H 547.971 -4.34049 5.22282 0
M  V30 5692 H 545.917 -5.62184 3.3806 0
M  V30 5693 H 545.834 -5.57058 5.111 0
M  V30 5694 H 547.102 -6.47545 4.33942 0
M  V30 5695 N 551.331 -1.39911 -0.725443 0
M  V30 5696 C 552.579 -1.37382 -1.48224 0
M  V30 5697 C 552.9 0.0264107 -1.94982 0
M  V30 5698 O 552.17 0.979408 -1.6966 0
M  V30 5699 H 550.75 -0.505596 -0.549892 0
M  V30 5700 H 553.412 -1.7487 -0.860608 0
M  V30 5701 H 552.508 -2.04254 -2.3598 0
M  V30 5702 N 552.809 0.956637 -1.25245 0
M  V30 5703 C 554.056 1.701 -1.09874 0
M  V30 5704 C 554.384 1.91128 0.36062 0
M  V30 5705 O 553.639 1.47837 1.28229 0
M  V30 5706 C 553.938 3.08996 -1.79601 0
M  V30 5707 C 553.604 3.07774 -3.29523 0
M  V30 5708 C 552.266 3.07149 -3.70423 0
M  V30 5709 C 554.618 3.01257 -4.25316 0
M  V30 5710 C 551.946 2.97752 -5.0553 0
M  V30 5711 C 554.298 2.93403 -5.60444 0
M  V30 5712 C 552.962 2.91111 -6.00675 0
M  V30 5713 H 552.232 0.62244 -0.402056 0
M  V30 5714 H 554.879 1.1178 -1.55491 0
M  V30 5715 H 553.184 3.70848 -1.26408 0
M  V30 5716 H 554.881 3.65407 -1.65162 0
M  V30 5717 H 551.471 3.09032 -2.9698 0
M  V30 5718 H 555.655 3.00861 -3.9471 0
M  V30 5719 H 550.911 2.94346 -5.35883 0
M  V30 5720 H 555.085 2.87321 -6.34366 0
M  V30 5721 H 552.712 2.83586 -7.05325 0
M  V30 5722 N 554.287 1.06798 1.15896 0
M  V30 5723 C 555.517 0.807522 1.90165 0
M  V30 5724 C 555.925 -0.642417 1.7796 0
M  V30 5725 O 555.268 -1.45193 1.12537 0
M  V30 5726 C 555.33 1.12939 3.41299 0
M  V30 5727 C 554.994 2.57879 3.7729 0
M  V30 5728 C 555.991 3.56118 3.78782 0
M  V30 5729 C 553.676 2.93311 4.07767 0
M  V30 5730 C 555.67 4.87827 4.10248 0
M  V30 5731 C 553.357 4.25219 4.38899 0
M  V30 5732 C 554.355 5.22287 4.4012 0
M  V30 5733 O 554.043 6.51826 4.70508 0
M  V30 5734 H 553.775 0.291946 0.609708 0
M  V30 5735 H 556.329 1.42627 1.47806 0
M  V30 5736 H 554.559 0.45359 3.84031 0
M  V30 5737 H 556.248 0.852363 3.9685 0
M  V30 5738 H 557.014 3.30086 3.55342 0
M  V30 5739 H 552.893 2.18409 4.05979 0
M  V30 5740 H 556.437 5.63586 4.11116 0
M  V30 5741 H 552.334 4.51006 4.61805 0
M  V30 5742 H 553.102 6.56893 4.88298 0
M  V30 5743 N 555.766 -1.3263 0.851289 0
M  V30 5744 C 557.177 -1.79653 0.5081 0
M  V30 5745 C 557.528 -1.70327 -0.973815 0
M  V30 5746 O 556.653 -1.25986 -1.75944 0
M  V30 5747 C 557.248 -3.26196 0.915515 0
M  V30 5748 C 555.807 -3.71187 0.624277 0
M  V30 5749 C 554.954 -2.53804 1.11709 0
M  V30 5750 H 557.905 -1.19976 1.03882 0
M  V30 5751 H 557.926 -3.79801 0.230535 0
M  V30 5752 H 557.438 -3.32952 1.99411 0
M  V30 5753 H 555.539 -3.69948 -0.443737 0
M  V30 5754 H 555.652 -4.64132 1.18821 0
M  V30 5755 H 554.016 -2.48964 0.537484 0
M  V30 5756 H 554.799 -2.63315 2.20272 0
M  V30 5757 N 557.244 -0.608902 -1.45362 0
M  V30 5758 C 558.469 -0.10921 -2.07112 0
M  V30 5759 C 558.894 1.19779 -1.45033 0
M  V30 5760 O 558.252 1.72961 -0.543527 0
M  V30 5761 C 558.3 0.0155745 -3.60597 0
M  V30 5762 O 557.404 1.06546 -3.98399 0
M  V30 5763 H 556.745 -0.0746619 -0.659789 0
M  V30 5764 H 559.275 -0.839283 -1.86594 0
M  V30 5765 H 559.285 0.213364 -4.07442 0
M  V30 5766 H 557.96 -0.938765 -4.05167 0
M  V30 5767 H 556.537 0.844024 -3.63223 0
M  V30 5768 N 558.722 1.53707 -0.348139 0
M  V30 5769 C 559.999 1.93247 0.302475 0
M  V30 5770 C 560.379 1.28012 1.67857 0
M  V30 5771 O 559.727 0.43274 2.24365 0
M  V30 5772 C 559.937 3.47031 0.370159 0
M  V30 5773 C 561.285 4.20066 0.61882 0
M  V30 5774 O 562.309 3.53319 0.452087 0
M  V30 5775 O 561.168 5.38318 0.94215 0
M  V30 5776 H 558.262 0.807736 0.177458 0
M  V30 5777 H 560.808 1.64927 -0.399651 0
M  V30 5778 H 559.58 3.86745 -0.59534 0
M  V30 5779 H 559.203 3.81532 1.11888 0
M  V30 5780 N 560.2 0.0768682 1.57412 0
M  V30 5781 C 561.449 -0.590679 1.92857 0
M  V30 5782 C 561.762 -1.70461 0.959293 0
M  V30 5783 O 562.968 -2.43207 1.20675 0
M  V30 5784 C 561.424 -1.10204 3.42612 0
M  V30 5785 C 561.032 -0.0188447 4.47996 0
M  V30 5786 C 562.776 -1.74336 3.87049 0
M  V30 5787 C 560.683 -0.544536 5.88888 0
M  V30 5788 H 559.613 -0.224411 0.71983 0
M  V30 5789 H 562.264 0.149924 1.82887 0
M  V30 5790 H 560.646 -1.89577 3.47673 0
M  V30 5791 H 561.82 0.755936 4.54557 0
M  V30 5792 H 560.135 0.526555 4.13057 0
M  V30 5793 H 562.732 -2.14708 4.89699 0
M  V30 5794 H 563.075 -2.60537 3.24694 0
M  V30 5795 H 563.608 -1.01577 3.84613 0
M  V30 5796 H 560.347 0.280426 6.549 0
M  V30 5797 H 559.867 -1.28673 5.85836 0
M  V30 5798 H 561.546 -1.01933 6.3892 0
M  V30 5799 N 561.678 -1.56367 -0.196722 0
M  V30 5800 C 562.641 -1.93561 -1.22746 0
M  V30 5801 C 563.641 -0.816566 -1.38524 0
M  V30 5802 O 564.831 -1.084 -1.36363 0
M  V30 5803 C 561.963 -2.20823 -2.59712 0
M  V30 5804 H 563.156 -2.85774 -0.909586 0
M  V30 5805 H 560.709 -1.50032 -0.438174 0
M  V30 5806 H 561.444 -1.31243 -2.96557 0
M  V30 5807 H 561.229 -3.02368 -2.49632 0
M  V30 5808 H 562.719 -2.50608 -3.34044 0
M  V30 5809 N 563.156 0.464375 -1.50603 0
M  V30 5810 C 564.402 1.21776 -1.62168 0
M  V30 5811 C 564.735 1.91476 -0.324154 0
M  V30 5812 O 564.01 1.8242 0.674782 0
M  V30 5813 C 564.293 2.25614 -2.80661 0
M  V30 5814 C 564.146 1.60175 -4.20314 0
M  V30 5815 C 565.465 3.26862 -2.94702 0
M  V30 5816 H 562.584 0.44137 -0.590222 0
M  V30 5817 H 565.226 0.510623 -1.8301 0
M  V30 5818 H 563.376 2.85923 -2.63021 0
M  V30 5819 H 565.048 1.03411 -4.4956 0
M  V30 5820 H 563.291 0.904697 -4.24261 0
M  V30 5821 H 563.962 2.35665 -4.99165 0
M  V30 5822 H 566.438 2.76582 -3.10872 0
M  V30 5823 H 565.314 3.96839 -3.79223 0
M  V30 5824 H 565.575 3.91382 -2.05603 0
M  V30 5825 N 564.634 1.40294 0.718013 0
M  V30 5826 C 565.544 1.42678 1.86226 0
M  V30 5827 C 566.56 0.319655 1.71039 0
M  V30 5828 O 567.736 0.563852 1.93346 0
M  V30 5829 C 564.801 1.2852 3.21999 0
M  V30 5830 C 563.862 2.49354 3.49458 0
M  V30 5831 C 563.095 2.35863 4.78753 0
M  V30 5832 O 563.318 1.37114 5.53675 0
M  V30 5833 O 562.252 3.25189 5.06494 0
M  V30 5834 H 566.078 2.39167 1.87171 0
M  V30 5835 H 563.663 1.2159 0.868112 0
M  V30 5836 H 565.545 1.22824 4.03103 0
M  V30 5837 H 564.22 0.351359 3.21787 0
M  V30 5838 H 563.127 2.60628 2.68373 0
M  V30 5839 H 564.46 3.41491 3.54464 0
M  V30 5840 N 566.112 -0.949982 1.2575 0
M  V30 5841 C 567.358 -1.69822 1.11947 0
M  V30 5842 C 567.713 -1.89455 -0.335334 0
M  V30 5843 O 567.006 -1.45778 -1.24336 0
M  V30 5844 C 567.2 -3.08039 1.81237 0
M  V30 5845 C 567.029 -3.0189 3.33305 0
M  V30 5846 C 565.799 -3.05391 4.02573 0
M  V30 5847 C 567.997 -2.827 4.29634 0
M  V30 5848 N 565.979 -2.89449 5.4138 0
M  V30 5849 C 567.35 -2.75237 5.55558 0
M  V30 5850 C 569.405 -2.67416 4.19992 0
M  V30 5851 C 568.108 -2.54051 6.72942 0
M  V30 5852 C 570.134 -2.47602 5.37073 0
M  V30 5853 C 569.496 -2.40863 6.6194 0
M  V30 5854 H 565.595 -0.629188 0.464378 0
M  V30 5855 H 568.179 -1.1249 1.58916 0
M  V30 5856 H 566.35 -3.63528 1.36756 0
M  V30 5857 H 568.082 -3.71671 1.60134 0
M  V30 5858 H 564.837 -3.14763 3.53866 0
M  V30 5859 H 565.261 -2.84669 6.14241 0
M  V30 5860 H 569.903 -2.71398 3.24196 0
M  V30 5861 H 567.621 -2.48811 7.68842 0
M  V30 5862 H 571.207 -2.36694 5.31477 0
M  V30 5863 H 570.087 -2.25732 7.51009 0
M  V30 5864 N 567.59 -1.07411 -1.15328 0
M  V30 5865 C 568.5 -0.706438 -2.23711 0
M  V30 5866 C 569.516 0.282586 -1.7169 0
M  V30 5867 O 570.692 0.129066 -2.00986 0
M  V30 5868 C 567.757 -0.11048 -3.46524 0
M  V30 5869 C 566.818 -1.15282 -4.13532 0
M  V30 5870 C 566.051 -0.585205 -5.30482 0
M  V30 5871 O 566.274 0.598549 -5.67251 0
M  V30 5872 O 565.208 -1.33039 -5.87013 0
M  V30 5873 H 569.034 -1.61031 -2.57493 0
M  V30 5874 H 566.619 -0.847113 -1.23062 0
M  V30 5875 H 568.501 0.21957 -4.20828 0
M  V30 5876 H 567.176 0.766703 -3.14489 0
M  V30 5877 H 566.083 -1.53523 -3.41147 0
M  V30 5878 H 567.416 -2.00192 -4.49649 0
M  V30 5879 N 569.068 1.32177 -0.85831 0
M  V30 5880 C 570.293 2.01847 -0.476718 0
M  V30 5881 C 570.718 1.64065 0.920021 0
M  V30 5882 O 570.076 0.843189 1.60499 0
M  V30 5883 C 570.124 3.55097 -0.627578 0
M  V30 5884 O 569.228 4.11012 0.338086 0
M  V30 5885 H 568.569 0.635907 -0.191099 0
M  V30 5886 H 571.099 1.68641 -1.15851 0
M  V30 5887 H 571.109 4.04718 -0.516476 0
M  V30 5888 H 569.784 3.81938 -1.64609 0
M  V30 5889 H 568.361 3.72451 0.182917 0
M  V30 5890 N 570.547 0.616602 1.45037 0
M  V30 5891 C 571.495 -0.109318 2.32343 0
M  V30 5892 C 572.489 -0.850543 1.465 0
M  V30 5893 O 573.695 -0.765088 1.62931 0
M  V30 5894 H 570.07 -0.0541091 0.750051 0
M  V30 5895 H 572.041 0.645326 2.91338 0
M  V30 5896 C 570.79 -1.0872 3.30266 0
M  V30 5897 H 570.113 -0.526267 3.96321 0
M  V30 5898 H 571.553 -1.56489 3.94065 0
M  V30 5899 C 570.012 -2.16525 2.58105 0
M  V30 5900 O 570.542 -3.244 2.36913 0
M  V30 5901 N 568.748 -1.92057 2.18088 0
M  V30 5902 H 568.295 -1.04337 2.35524 0
M  V30 5903 H 568.253 -2.64391 1.70131 0
M  V30 5904 N 572.025 -1.5352 0.356285 0
M  V30 5905 C 573.273 -2.00719 -0.235837 0
M  V30 5906 C 573.594 -1.24551 -1.5004 0
M  V30 5907 O 572.864 -0.356185 -1.92635 0
M  V30 5908 H 571.444 -0.741542 -0.0901366 0
M  V30 5909 H 574.106 -1.88887 0.480378 0
M  V30 5910 H 573.202 -3.08551 -0.469357 0
M  V30 5911 N 573.503 -0.0852151 -1.57369 0
M  V30 5912 C 574.435 0.907099 -2.10486 0
M  V30 5913 C 575.448 1.25259 -1.03991 0
M  V30 5914 O 576.637 1.20743 -1.31467 0
M  V30 5915 C 573.737 2.21908 -2.56145 0
M  V30 5916 C 572.91 2.05042 -3.86363 0
M  V30 5917 C 571.969 3.19664 -4.17973 0
M  V30 5918 O 570.995 2.94062 -4.87356 0
M  V30 5919 N 572.197 4.45151 -3.72587 0
M  V30 5920 H 574.962 0.453505 -2.96249 0
M  V30 5921 H 572.523 0.100157 -1.6159 0
M  V30 5922 H 574.515 2.97519 -2.74343 0
M  V30 5923 H 573.085 2.58723 -1.75446 0
M  V30 5924 H 572.305 1.13819 -3.77411 0
M  V30 5925 H 573.593 1.91039 -4.71574 0
M  V30 5926 H 572.991 4.68834 -3.16561 0
M  V30 5927 H 571.548 5.17744 -3.9596 0
M  V30 5928 N 574.981 1.5647 0.188427 0
M  V30 5929 C 576.392 1.70864 0.752494 0
M  V30 5930 C 576.743 0.692905 1.83557 0
M  V30 5931 O 575.868 -0.149307 2.15884 0
M  V30 5932 C 576.463 3.09789 1.37173 0
M  V30 5933 C 575.022 3.25925 1.88281 0
M  V30 5934 C 574.169 2.66817 0.755259 0
M  V30 5935 H 577.12 1.58657 -0.0367408 0
M  V30 5936 H 577.141 3.07489 2.24122 0
M  V30 5937 H 576.653 3.83693 0.583219 0
M  V30 5938 H 574.754 2.56948 2.6983 0
M  V30 5939 H 574.867 4.33498 2.04001 0
M  V30 5940 H 573.231 2.2617 1.17128 0
M  V30 5941 H 574.014 3.43294 -0.0211237 0
M  V30 5942 N 576.459 -0.456382 1.50847 0
M  V30 5943 C 577.369 -1.57805 1.73594 0
M  V30 5944 C 578.385 -1.62599 0.619476 0
M  V30 5945 O 579.561 -1.80195 0.899532 0
M  V30 5946 C 576.626 -2.93926 1.8387 0
M  V30 5947 C 575.687 -2.99402 3.07663 0
M  V30 5948 C 574.92 -4.29031 3.1744 0
M  V30 5949 O 575.143 -5.20358 2.33631 0
M  V30 5950 O 574.077 -4.40401 4.10281 0
M  V30 5951 H 577.903 -1.41531 2.68705 0
M  V30 5952 H 575.488 -0.637422 1.3512 0
M  V30 5953 H 577.37 -3.74747 1.92725 0
M  V30 5954 H 576.045 -3.10368 0.91944 0
M  V30 5955 H 574.952 -2.17606 3.043 0
M  V30 5956 H 576.285 -2.87901 3.99216 0
M  V30 5957 N 577.937 -1.40673 -0.710563 0
M  V30 5958 C 578.885 -1.41517 -1.84596 0
M  V30 5959 C 579.879 -0.295043 -1.66811 0
M  V30 5960 O 581.085 -0.466331 -1.73854 0
M  V30 5961 H 577.46 -0.442467 -0.608052 0
M  V30 5962 H 579.431 -2.37238 -1.80999 0
M  V30 5963 C 578.18 -1.29957 -3.225 0
M  V30 5964 H 577.503 -2.15429 -3.36794 0
M  V30 5965 H 578.943 -1.34608 -4.02066 0
M  V30 5966 C 577.402 -0.0103164 -3.36898 0
M  V30 5967 O 577.932 0.950707 -3.90288 0
M  V30 5968 N 576.138 0.0608409 -2.90536 0
M  V30 5969 H 575.685 -0.721943 -2.47277 0
M  V30 5970 H 575.643 0.92292 -3.00549 0
M  V30 5971 N 579.415 0.9433 -1.26252 0
M  V30 5972 C 580.363 2.06302 -1.07434 0
M  V30 5973 C 581.357 1.694 -0.00189471 0
M  V30 5974 O 582.563 1.79302 -0.158408 0
M  V30 5975 H 578.938 0.675453 -0.330556 0
M  V30 5976 H 580.909 2.19326 -2.02333 0
M  V30 5977 C 579.658 3.40125 -0.721817 0
M  V30 5978 H 578.981 3.68996 -1.5389 0
M  V30 5979 H 580.421 4.19295 -0.629922 0
M  V30 5980 C 578.88 3.31993 0.572902 0
M  V30 5981 O 579.41 3.67945 1.61182 0
M  V30 5982 N 577.616 2.85099 0.562748 0
M  V30 5983 H 577.163 2.5604 -0.283092 0
M  V30 5984 H 577.121 2.80041 1.42915 0
M  V30 5985 N 580.893 1.08022 1.14757 0
M  V30 5986 C 582.123 0.827646 1.89298 0
M  V30 5987 C 582.531 -0.623506 1.78631 0
M  V30 5988 O 581.874 -1.43991 1.14071 0
M  V30 5989 C 581.936 1.16553 3.40082 0
M  V30 5990 C 581.6 2.61866 3.74533 0
M  V30 5991 C 582.597 3.60116 3.74984 0
M  V30 5992 C 580.282 2.97619 4.04633 0
M  V30 5993 C 582.276 4.92151 4.05051 0
M  V30 5994 C 579.963 4.2985 4.34364 0
M  V30 5995 C 580.961 5.26926 4.34555 0
M  V30 5996 O 580.649 6.5678 4.63568 0
M  V30 5997 H 580.381 0.298396 0.606577 0
M  V30 5998 H 582.935 1.44187 1.46285 0
M  V30 5999 H 581.165 0.494296 3.83528 0
M  V30 6000 H 582.854 0.894407 3.95923 0
M  V30 6001 H 583.62 3.33837 3.51821 0
M  V30 6002 H 579.499 2.22702 4.03639 0
M  V30 6003 H 583.043 5.67915 4.05115 0
M  V30 6004 H 578.94 4.55879 4.56995 0
M  V30 6005 H 579.708 6.62035 4.81303 0
M  V30 6006 N 582.371 -1.3172 0.865308 0
M  V30 6007 C 583.318 -2.2863 0.315736 0
M  V30 6008 C 584.288 -1.55524 -0.583213 0
M  V30 6009 O 585.473 -1.83694 -0.51585 0
M  V30 6010 C 582.613 -3.41735 -0.480773 0
M  V30 6011 C 581.726 -4.297 0.445167 0
M  V30 6012 C 580.861 -5.29944 -0.365012 0
M  V30 6013 C 579.9 -6.09554 0.557651 0
M  V30 6014 N 579.037 -7.01768 -0.215994 0
M  V30 6015 H 583.877 -2.75026 1.14736 0
M  V30 6016 H 581.414 -1.35302 0.577209 0
M  V30 6017 H 583.372 -4.06045 -0.958306 0
M  V30 6018 H 582.002 -2.96461 -1.27714 0
M  V30 6019 H 581.054 -3.65875 1.04113 0
M  V30 6020 H 582.366 -4.85295 1.15284 0
M  V30 6021 H 581.52 -5.99908 -0.905255 0
M  V30 6022 H 580.259 -4.74994 -1.106 0
M  V30 6023 H 579.264 -5.38485 1.10969 0
M  V30 6024 H 580.489 -6.66591 1.29742 0
M  V30 6025 H 578.435 -6.49232 -0.939878 0
M  V30 6026 H 578.352 -7.54762 0.432431 0
M  V30 6027 H 579.62 -7.76002 -0.737618 0
M  V30 6028 N 583.85 -0.624285 -1.44708 0
M  V30 6029 C 585.077 -0.132919 -2.06473 0
M  V30 6030 C 585.493 1.18967 -1.46602 0
M  V30 6031 O 584.85 1.72824 -0.586341 0
M  V30 6032 C 584.901 -0.00465418 -3.615 0
M  V30 6033 O 584.622 -1.27494 -4.19138 0
M  V30 6034 C 586.123 0.516213 -4.40284 0
M  V30 6035 H 583.343 -0.0765201 -0.666623 0
M  V30 6036 H 585.887 -0.856751 -1.85688 0
M  V30 6037 H 584.042 0.669583 -3.8157 0
M  V30 6038 H 584.456 -1.11536 -5.12504 0
M  V30 6039 H 585.93 0.554994 -5.49203 0
M  V30 6040 H 586.407 1.5419 -4.11245 0
M  V30 6041 H 587.013 -0.124542 -4.25118 0
M  V30 6042 N 585.328 1.53329 -0.364422 0
M  V30 6043 C 586.556 2.05657 0.226424 0
M  V30 6044 C 586.971 1.23801 1.42544 0
M  V30 6045 O 586.328 0.27839 1.80364 0
M  V30 6046 C 586.379 3.56125 0.621056 0
M  V30 6047 O 586.1 4.34879 -0.530304 0
M  V30 6048 C 587.601 4.24706 1.27041 0
M  V30 6049 H 584.821 0.669806 0.0400056 0
M  V30 6050 H 587.365 1.97714 -0.522456 0
M  V30 6051 H 585.52 3.64223 1.31985 0
M  V30 6052 H 585.934 5.24073 -0.211546 0
M  V30 6053 H 587.408 5.3131 1.49711 0
M  V30 6054 H 587.885 3.78354 2.23036 0
M  V30 6055 H 588.491 4.20858 0.613079 0
M  V30 6056 N 586.806 0.0935595 1.57322 0
M  V30 6057 C 588.217 -0.435807 1.81542 0
M  V30 6058 C 588.568 -1.68263 1.00907 0
M  V30 6059 O 587.693 -2.15087 0.237983 0
M  V30 6060 C 588.288 -0.797436 3.29282 0
M  V30 6061 C 586.847 -1.27155 3.54272 0
M  V30 6062 C 585.994 -0.267455 2.76007 0
M  V30 6063 H 588.945 0.31902 1.5546 0
M  V30 6064 H 588.966 -1.6571 3.42521 0
M  V30 6065 H 588.478 0.110206 3.87943 0
M  V30 6066 H 586.579 -2.19696 3.00939 0
M  V30 6067 H 586.692 -1.23445 4.62923 0
M  V30 6068 H 585.056 -0.749282 2.43429 0
M  V30 6069 H 585.839 0.632839 3.37417 0
M  V30 6070 N 588.284 -1.56567 -0.180126 0
M  V30 6071 C 589.695 -1.7126 -0.743422 0
M  V30 6072 C 590.046 -0.70263 -1.83187 0
M  V30 6073 O 589.171 0.137856 -2.1596 0
M  V30 6074 C 589.766 -3.10512 -1.35528 0
M  V30 6075 C 588.325 -3.26919 -1.8655 0
M  V30 6076 C 587.472 -2.67213 -0.741099 0
M  V30 6077 H 590.423 -1.58636 0.0451543 0
M  V30 6078 H 590.444 -3.08673 -2.22489 0
M  V30 6079 H 589.956 -3.83997 -0.562862 0
M  V30 6080 H 588.057 -2.58376 -2.68464 0
M  V30 6081 H 588.17 -4.34574 -2.01699 0
M  V30 6082 H 586.534 -2.26788 -1.15927 0
M  V30 6083 H 587.317 -3.43277 0.0393291 0
M  V30 6084 N 589.762 0.448376 -1.51087 0
M  V30 6085 C 591.008 1.20049 -1.6345 0
M  V30 6086 C 591.341 1.91121 -0.344444 0
M  V30 6087 O 590.616 1.83125 0.655396 0
M  V30 6088 C 590.899 2.22624 -2.83038 0
M  V30 6089 C 590.752 1.55708 -4.21989 0
M  V30 6090 C 592.071 3.23718 -2.98152 0
M  V30 6091 H 589.19 0.435085 -0.59487 0
M  V30 6092 H 591.832 0.491183 -1.83541 0
M  V30 6093 H 589.982 2.83117 -2.66039 0
M  V30 6094 H 591.654 0.986367 -4.50631 0
M  V30 6095 H 589.897 0.859647 -4.25197 0
M  V30 6096 H 590.568 2.30357 -5.01637 0
M  V30 6097 H 593.044 2.73269 -3.13788 0
M  V30 6098 H 591.92 3.92795 -3.83411 0
M  V30 6099 H 592.181 3.89179 -2.09743 0
M  V30 6100 N 591.24 1.41047 0.703093 0
M  V30 6101 C 592.17 1.45067 1.82969 0
M  V30 6102 C 593.151 0.31016 1.67248 0
M  V30 6103 O 594.336 0.520548 1.87093 0
M  V30 6104 C 591.466 1.32478 3.2104 0
M  V30 6105 C 590.42 2.44262 3.51454 0
M  V30 6106 C 589.746 2.16742 4.88801 0
M  V30 6107 C 591.046 3.86606 3.51189 0
M  V30 6108 H 592.74 2.39353 1.79863 0
M  V30 6109 H 590.286 1.15206 0.863919 0
M  V30 6110 H 592.239 1.33904 3.99559 0
M  V30 6111 H 590.963 0.346735 3.24754 0
M  V30 6112 H 589.622 2.42107 2.75282 0
M  V30 6113 H 589.27 1.17299 4.89132 0
M  V30 6114 H 588.97 2.91643 5.10116 0
M  V30 6115 H 590.494 2.19872 5.69639 0
M  V30 6116 H 591.908 3.90517 4.19725 0
M  V30 6117 H 590.305 4.61128 3.84033 0
M  V30 6118 H 591.375 4.15296 2.50315 0
M  V30 6119 N 592.718 -0.936591 1.26751 0
M  V30 6120 C 593.995 -1.66094 1.03306 0
M  V30 6121 C 594.375 -2.06568 -0.435058 0
M  V30 6122 O 593.723 -1.79305 -1.41641 0
M  V30 6123 C 593.933 -2.86969 1.98619 0
M  V30 6124 C 595.281 -3.58516 2.27489 0
M  V30 6125 O 596.305 -2.97082 1.96522 0
M  V30 6126 O 595.164 -4.69181 2.80235 0
M  V30 6127 H 592.258 -0.727568 0.393158 0
M  V30 6128 H 594.804 -0.987914 1.3798 0
M  V30 6129 H 593.576 -2.53985 2.9767 0
M  V30 6130 H 593.199 -3.61996 1.64454 0
M  V30 6131 N 594.196 -1.08629 -1.14182 0
M  V30 6132 C 595.421 -0.83902 -1.89671 0
M  V30 6133 C 595.846 0.603332 -1.78161 0
M  V30 6134 O 595.204 1.42301 -1.12339 0
M  V30 6135 C 595.252 -1.26854 -3.37551 0
M  V30 6136 O 594.356 -0.42188 -4.10236 0
M  V30 6137 H 593.697 -0.304545 -0.590041 0
M  V30 6138 H 596.227 -1.4483 -1.44518 0
M  V30 6139 H 596.237 -1.25038 -3.88368 0
M  V30 6140 H 594.912 -2.31901 -3.45246 0
M  V30 6141 H 593.489 -0.503654 -3.69483 0
M  V30 6142 N 595.674 1.31259 -0.872281 0
M  V30 6143 C 596.951 1.91362 -0.404943 0
M  V30 6144 C 597.331 1.79362 1.11321 0
M  V30 6145 O 596.679 1.20277 1.94283 0
M  V30 6146 C 596.889 3.3749 -0.888893 0
M  V30 6147 C 598.237 4.14593 -0.916384 0
M  V30 6148 O 599.261 3.46282 -0.834701 0
M  V30 6149 O 598.12 5.3661 -1.03498 0
M  V30 6150 H 595.214 0.818016 -0.121569 0
M  V30 6151 H 597.76 1.39912 -0.960346 0
M  V30 6152 H 596.532 3.40249 -1.93251 0
M  V30 6153 H 596.155 3.96375 -0.311932 0
M  V30 6154 N 597.152 0.631951 1.44375 0
M  V30 6155 C 598.4 0.136497 2.01639 0
M  V30 6156 C 598.721 -1.24637 1.49969 0
M  V30 6157 O 597.991 -1.82827 0.70363 0
M  V30 6158 H 596.571 0.0474703 0.74549 0
M  V30 6159 H 599.233 0.818837 1.76865 0
M  V30 6160 H 598.329 0.104817 3.11924 0
M  V30 6161 N 598.631 -1.53133 0.372548 0
M  V30 6162 C 599.856 -2.0625 -0.218098 0
M  V30 6163 C 600.281 -1.24375 -1.41111 0
M  V30 6164 O 599.639 -0.264554 -1.79359 0
M  V30 6165 C 599.687 -3.55858 -0.582876 0
M  V30 6166 O 598.791 -3.76667 -1.67917 0
M  V30 6167 H 598.132 -0.663317 -0.030104 0
M  V30 6168 H 600.662 -1.97477 0.535169 0
M  V30 6169 H 600.672 -3.99007 -0.851925 0
M  V30 6170 H 599.347 -4.14892 0.289428 0
M  V30 6171 H 597.924 -3.45413 -1.40513 0
M  V30 6172 N 600.109 -0.101901 -1.5727 0
M  V30 6173 C 601.356 0.560197 -1.94597 0
M  V30 6174 C 601.684 1.67767 -0.984101 0
M  V30 6175 O 600.939 1.95699 -0.00489193 0
M  V30 6176 C 601.238 1.14898 -3.38427 0
M  V30 6177 C 600.904 0.154613 -4.50635 0
M  V30 6178 C 599.566 -0.118861 -4.81053 0
M  V30 6179 C 601.918 -0.523979 -5.18559 0
M  V30 6180 C 599.246 -1.0775 -5.76721 0
M  V30 6181 C 601.598 -1.47114 -6.15256 0
M  V30 6182 C 600.262 -1.75278 -6.44076 0
M  V30 6183 H 599.532 0.204991 -0.712081 0
M  V30 6184 H 602.179 -0.17918 -1.9066 0
M  V30 6185 H 600.484 1.96476 -3.38976 0
M  V30 6186 H 602.181 1.66909 -3.64613 0
M  V30 6187 H 598.771 0.377948 -4.2693 0
M  V30 6188 H 602.955 -0.325851 -4.95229 0
M  V30 6189 H 598.211 -1.30263 -5.97362 0
M  V30 6190 H 602.385 -2.00274 -6.66981 0
M  V30 6191 H 600.012 -2.49717 -7.18015 0
M  V30 6192 N 601.587 1.56661 0.17182 0
M  V30 6193 C 602.834 1.81965 0.888529 0
M  V30 6194 C 603.162 0.6789 1.82267 0
M  V30 6195 O 602.417 -0.333875 1.92831 0
M  V30 6196 C 602.716 3.13435 1.71736 0
M  V30 6197 C 602.382 4.41159 0.932184 0
M  V30 6198 C 601.044 4.75851 0.715481 0
M  V30 6199 C 603.396 5.19803 0.381387 0
M  V30 6200 C 600.724 5.86666 -0.063126 0
M  V30 6201 C 603.076 6.31433 -0.384129 0
M  V30 6202 C 601.74 6.64692 -0.611637 0
M  V30 6203 H 601.01 0.665859 0.325136 0
M  V30 6204 H 603.657 1.90884 0.153495 0
M  V30 6205 H 601.962 2.99857 2.52177 0
M  V30 6206 H 603.659 3.30224 2.27493 0
M  V30 6207 H 600.249 4.13947 1.11112 0
M  V30 6208 H 604.433 4.93396 0.536148 0
M  V30 6209 H 599.689 6.10892 -0.249136 0
M  V30 6210 H 603.863 6.91577 -0.818185 0
M  V30 6211 H 601.49 7.50398 -1.21684 0
M  V30 6212 N 603.065 -0.440357 1.51323 0
M  V30 6213 C 603.995 -1.54174 1.75364 0
M  V30 6214 C 604.976 -1.59039 0.603375 0
M  V30 6215 O 606.161 -1.74815 0.845774 0
M  V30 6216 C 603.291 -2.92277 1.87593 0
M  V30 6217 C 602.245 -3.02274 3.03009 0
M  V30 6218 C 601.571 -4.42327 3.00418 0
M  V30 6219 C 602.871 -2.76634 4.43024 0
M  V30 6220 H 604.565 -1.34307 2.67585 0
M  V30 6221 H 602.111 -0.644678 1.28763 0
M  V30 6222 H 604.064 -3.69284 2.02995 0
M  V30 6223 H 602.788 -3.13369 0.920179 0
M  V30 6224 H 601.447 -2.27706 2.87307 0
M  V30 6225 H 601.095 -4.60382 2.02626 0
M  V30 6226 H 600.795 -4.49946 3.77918 0
M  V30 6227 H 602.319 -5.21312 3.17909 0
M  V30 6228 H 603.733 -3.43376 4.59093 0
M  V30 6229 H 602.13 -2.95666 5.22208 0
M  V30 6230 H 603.2 -1.72262 4.5327 0
M  V30 6231 N 604.543 -1.41418 -0.695603 0
M  V30 6232 C 605.773 -1.43921 -1.48224 0
M  V30 6233 C 606.181 -0.0428855 -1.89151 0
M  V30 6234 O 605.524 0.948138 -1.5734 0
M  V30 6235 C 605.586 -2.28466 -2.77567 0
M  V30 6236 C 605.25 -3.76629 -2.58844 0
M  V30 6237 C 606.247 -4.6879 -2.24793 0
M  V30 6238 C 603.932 -4.2067 -2.74485 0
M  V30 6239 C 605.926 -6.02981 -2.06622 0
M  V30 6240 C 603.613 -5.54926 -2.55931 0
M  V30 6241 C 604.611 -6.45897 -2.2205 0
M  V30 6242 O 604.299 -7.77675 -2.03657 0
M  V30 6243 H 604.031 -0.492252 -0.463318 0
M  V30 6244 H 606.585 -1.86347 -0.863952 0
M  V30 6245 H 604.815 -1.80853 -3.41802 0
M  V30 6246 H 606.504 -2.2267 -3.39371 0
M  V30 6247 H 607.27 -4.36055 -2.12323 0
M  V30 6248 H 603.149 -3.50167 -2.9984 0
M  V30 6249 H 606.693 -6.73951 -1.80099 0
M  V30 6250 H 602.59 -5.8724 -2.67991 0
M  V30 6251 H 603.358 -7.88819 -2.1842 0
M  V30 6252 N 606.021 0.929856 -1.27246 0
M  V30 6253 C 607.246 1.71674 -1.16374 0
M  V30 6254 C 607.671 1.86064 0.276024 0
M  V30 6255 O 607.029 1.3591 1.19992 0
M  V30 6256 C 607.077 3.09526 -1.85003 0
M  V30 6257 O 606.181 3.96142 -1.14653 0
M  V30 6258 H 605.522 0.52629 -0.404863 0
M  V30 6259 H 608.052 1.16381 -1.68276 0
M  V30 6260 H 608.062 3.59852 -1.92276 0
M  V30 6261 H 606.737 2.98369 -2.89739 0
M  V30 6262 H 605.314 3.54584 -1.15433 0
M  V30 6263 N 607.499 1.09233 1.13605 0
M  V30 6264 C 608.446 0.729921 2.18954 0
M  V30 6265 C 609.416 -0.287916 1.63586 0
M  V30 6266 O 610.601 -0.170003 1.90041 0
M  V30 6267 C 607.741 0.154489 3.44754 0
M  V30 6268 C 606.854 1.22613 4.14234 0
M  V30 6269 C 605.989 0.613657 5.27644 0
M  V30 6270 C 605.028 1.66674 5.8897 0
M  V30 6271 N 604.165 1.07545 6.93814 0
M  V30 6272 H 609.005 1.63257 2.49302 0
M  V30 6273 H 606.542 0.815693 1.22413 0
M  V30 6274 H 608.5 -0.196923 4.16735 0
M  V30 6275 H 607.13 -0.711433 3.14863 0
M  V30 6276 H 606.182 1.69485 3.40557 0
M  V30 6277 H 607.494 2.0238 4.55899 0
M  V30 6278 H 606.648 0.210976 6.06333 0
M  V30 6279 H 605.387 -0.215584 4.87223 0
M  V30 6280 H 604.392 2.07899 5.08978 0
M  V30 6281 H 605.617 2.49861 6.31464 0
M  V30 6282 H 603.563 0.267451 6.55455 0
M  V30 6283 H 603.48 1.81011 7.3401 0
M  V30 6284 H 604.748 0.698906 7.7636 0
M  V30 6285 N 608.977 -1.30795 0.87923 0
M  V30 6286 C 609.907 -2.30742 0.357796 0
M  V30 6287 C 610.888 -1.60747 -0.556283 0
M  V30 6288 O 612.073 -1.88393 -0.47135 0
M  V30 6289 C 609.203 -3.44583 -0.433555 0
M  V30 6290 C 608.157 -4.26235 0.388251 0
M  V30 6291 C 607.483 -5.32073 -0.529352 0
M  V30 6292 C 608.783 -4.96303 1.62729 0
M  V30 6293 H 610.477 -2.74605 1.19299 0
M  V30 6294 H 608.023 -1.32017 0.575104 0
M  V30 6295 H 609.976 -4.13563 -0.808934 0
M  V30 6296 H 608.7 -2.99511 -1.30234 0
M  V30 6297 H 607.359 -3.58936 0.745695 0
M  V30 6298 H 607.007 -4.83249 -1.39569 0
M  V30 6299 H 606.707 -5.87598 0.0166741 0
M  V30 6300 H 608.231 -6.0391 -0.901373 0
M  V30 6301 H 609.645 -5.5783 1.32283 0
M  V30 6302 H 608.042 -5.61666 2.11309 0
M  V30 6303 H 609.112 -4.22758 2.37494 0
M  V30 6304 N 610.455 -0.639598 -1.44038 0
M  V30 6305 C 611.683 -0.154811 -2.0632 0
M  V30 6306 C 612.098 1.17406 -1.47856 0
M  V30 6307 O 611.455 1.72193 -0.604638 0
M  V30 6308 C 611.506 -0.0429958 -3.61474 0
M  V30 6309 O 611.227 -1.31932 -4.17763 0
M  V30 6310 C 612.728 0.469486 -4.40807 0
M  V30 6311 H 609.948 -0.0835862 -0.665773 0
M  V30 6312 H 612.492 -0.876397 -1.84769 0
M  V30 6313 H 610.647 0.629075 -3.82258 0
M  V30 6314 H 611.061 -1.16965 -5.11292 0
M  V30 6315 H 612.535 0.496712 -5.49761 0
M  V30 6316 H 613.012 1.49819 -4.12857 0
M  V30 6317 H 613.618 -0.169624 -4.24962 0
M  V30 6318 N 611.933 1.52934 -0.380664 0
M  V30 6319 C 613.179 2.01765 0.20458 0
M  V30 6320 C 613.512 1.26696 1.47179 0
M  V30 6321 O 612.787 0.364936 1.91046 0
M  V30 6322 C 613.07 3.56869 0.481269 0
M  V30 6323 C 612.923 4.42617 -0.800629 0
M  V30 6324 C 614.242 4.2121 1.27554 0
M  V30 6325 H 611.361 0.733388 0.0728803 0
M  V30 6326 H 614.003 1.83068 -0.50853 0
M  V30 6327 H 612.153 3.72932 1.08875 0
M  V30 6328 H 613.825 4.38323 -1.43773 0
M  V30 6329 H 612.068 4.09977 -1.4178 0
M  V30 6330 H 612.739 5.49134 -0.561791 0
M  V30 6331 H 615.215 4.09072 0.761514 0
M  V30 6332 H 614.091 5.29732 1.43788 0
M  V30 6333 H 614.352 3.78269 2.28833 0
M  V30 6334 N 613.412 0.11024 1.57214 0
M  V30 6335 C 614.689 -0.592956 1.86396 0
M  V30 6336 C 615.069 -1.85379 1.00985 0
M  V30 6337 O 614.417 -2.28337 0.0863592 0
M  V30 6338 C 614.627 -0.893816 3.3736 0
M  V30 6339 C 615.975 -1.25069 4.05762 0
M  V30 6340 O 616.999 -0.984356 3.42329 0
M  V30 6341 O 615.858 -1.75017 5.17718 0
M  V30 6342 H 612.952 -0.29828 0.771335 0
M  V30 6343 H 615.498 0.144083 1.69087 0
M  V30 6344 H 614.27 2.6031e-05 3.913 0
M  V30 6345 H 613.893 -1.68631 3.60068 0
M  V30 6346 N 614.89 -1.56749 -0.16351 0
M  V30 6347 C 615.837 -1.97011 -1.2023 0
M  V30 6348 C 616.807 -0.835186 -1.43575 0
M  V30 6349 O 617.992 -1.09594 -1.56185 0
M  V30 6350 C 615.132 -2.34186 -2.53478 0
M  V30 6351 C 614.245 -3.60893 -2.37446 0
M  V30 6352 C 613.38 -3.87245 -3.63614 0
M  V30 6353 C 612.419 -5.07274 -3.42548 0
M  V30 6354 N 611.556 -5.29719 -4.60806 0
M  V30 6355 H 616.396 -2.85562 -0.851958 0
M  V30 6356 H 613.933 -1.41292 -0.409257 0
M  V30 6357 H 615.891 -2.53764 -3.31149 0
M  V30 6358 H 614.521 -1.48736 -2.86492 0
M  V30 6359 H 613.573 -3.49185 -1.50911 0
M  V30 6360 H 614.885 -4.48722 -2.1783 0
M  V30 6361 H 614.039 -4.07232 -4.49719 0
M  V30 6362 H 612.778 -2.97806 -3.86216 0
M  V30 6363 H 611.783 -4.87177 -2.5483 0
M  V30 6364 H 613.008 -5.98251 -3.2136 0
M  V30 6365 H 610.954 -4.43233 -4.83612 0
M  V30 6366 H 610.871 -6.11786 -4.44132 0
M  V30 6367 H 612.139 -5.54192 -5.48171 0
M  V30 6368 N 616.368 0.432326 -1.51554 0
M  V30 6369 C 617.593 1.20824 -1.68571 0
M  V30 6370 C 618.018 1.84126 -0.384596 0
M  V30 6371 O 617.376 1.69025 0.655751 0
M  V30 6372 C 617.424 2.26429 -2.80646 0
M  V30 6373 O 616.528 3.32032 -2.44598 0
M  V30 6374 H 615.869 0.353765 -0.561913 0
M  V30 6375 H 618.399 0.509916 -1.98144 0
M  V30 6376 H 618.409 2.71133 -3.04878 0
M  V30 6377 H 617.084 1.79733 -3.75058 0
M  V30 6378 H 615.661 2.92769 -2.30956 0
M  V30 6379 N 617.846 1.41785 0.688094 0
M  V30 6380 C 619.262 1.24419 0.999608 0
M  V30 6381 C 619.462 0.138868 2.01021 0
M  V30 6382 O 618.518 -0.494283 2.47615 0
M  V30 6383 C 619.831 2.59625 1.51709 0
M  V30 6384 C 621.379 2.66869 1.63554 0
M  V30 6385 C 621.854 4.0241 2.18702 0
M  V30 6386 N 623.345 4.04295 2.26053 0
M  V30 6387 C 624.08 5.05977 2.69768 0
M  V30 6388 N 623.576 6.18047 3.13033 0
M  V30 6389 N 625.369 4.93336 2.69398 0
M  V30 6390 H 617.52 2.12392 0.0187427 0
M  V30 6391 H 619.783 0.945347 0.0708673 0
M  V30 6392 H 619.489 3.41297 0.849059 0
M  V30 6393 H 619.363 2.82628 2.49803 0
M  V30 6394 H 621.75 1.8555 2.29467 0
M  V30 6395 H 621.831 2.47668 0.639857 0
M  V30 6396 H 621.475 4.8418 1.53402 0
M  V30 6397 H 621.405 4.18955 3.19037 0
M  V30 6398 H 623.896 3.23383 1.9553 0
M  V30 6399 H 624.209 6.91498 3.45038 0
M  V30 6400 H 622.554 6.21572 3.10923 0
M  V30 6401 H 625.745 4.04865 2.34952 0
M  V30 6402 H 625.918 5.72717 3.03148 0
M  V30 6403 N 619.324 -0.923095 1.27737 0
M  V30 6404 C 620.57 -1.67409 1.15524 0
M  V30 6405 C 620.925 -1.90124 -0.295072 0
M  V30 6406 O 620.218 -1.48382 -1.21216 0
M  V30 6407 C 620.412 -3.04125 1.8773 0
M  V30 6408 C 620.241 -2.94752 3.39634 0
M  V30 6409 C 619.011 -2.96783 4.0896 0
M  V30 6410 C 621.209 -2.73524 4.35533 0
M  V30 6411 N 619.191 -2.779 5.47398 0
M  V30 6412 C 620.562 -2.63391 5.61271 0
M  V30 6413 C 622.617 -2.58447 4.2557 0
M  V30 6414 C 621.32 -2.3972 6.78179 0
M  V30 6415 C 623.346 -2.36154 5.42204 0
M  V30 6416 C 622.708 -2.26768 6.669 0
M  V30 6417 H 618.807 -0.619196 0.477619 0
M  V30 6418 H 621.391 -1.09094 1.61266 0
M  V30 6419 H 619.562 -3.60545 1.44436 0
M  V30 6420 H 621.294 -3.6819 1.67982 0
M  V30 6421 H 618.049 -3.07186 3.60463 0
M  V30 6422 H 618.473 -2.71576 6.20141 0
M  V30 6423 H 623.115 -2.6446 3.2988 0
M  V30 6424 H 620.833 -2.32447 7.73947 0
M  V30 6425 H 624.419 -2.25367 5.36378 0
M  V30 6426 H 623.299 -2.09751 7.55628 0
M  V30 6427 N 620.802 -1.09834 -1.13024 0
M  V30 6428 C 621.734 -0.699379 -2.18269 0
M  V30 6429 C 622.747 0.260841 -1.60697 0
M  V30 6430 O 623.936 0.0462538 -1.7844 0
M  V30 6431 C 621.036 -0.0104537 -3.38898 0
M  V30 6432 C 620.209 -0.993275 -4.25973 0
M  V30 6433 C 619.268 -0.336982 -5.2512 0
M  V30 6434 O 618.294 -0.985892 -5.60597 0
M  V30 6435 N 619.496 0.90716 -5.73368 0
M  V30 6436 H 622.261 -1.60486 -2.5311 0
M  V30 6437 H 619.822 -0.986337 -1.28386 0
M  V30 6438 H 621.814 0.43991 -4.02302 0
M  V30 6439 H 620.384 0.797335 -3.0226 0
M  V30 6440 H 619.604 -1.62208 -3.5928 0
M  V30 6441 H 620.892 -1.65876 -4.81002 0
M  V30 6442 H 620.29 1.45384 -5.46699 0
M  V30 6443 H 618.847 1.30077 -6.38689 0
M  V30 6444 N 622.28 1.30327 -0.886154 0
M  V30 6445 C 623.212 2.27079 -0.311072 0
M  V30 6446 C 624.225 1.53758 0.53502 0
M  V30 6447 O 625.414 1.74947 0.354378 0
M  V30 6448 C 622.514 3.33965 0.576228 0
M  V30 6449 C 621.687 4.36735 -0.241064 0
M  V30 6450 C 620.746 5.23028 0.576916 0
M  V30 6451 O 619.772 5.692 -0.000802231 0
M  V30 6452 N 620.974 5.49016 1.88579 0
M  V30 6453 H 623.739 2.77065 -1.14259 0
M  V30 6454 H 621.3 1.43519 -0.749258 0
M  V30 6455 H 623.292 3.88618 1.12953 0
M  V30 6456 H 621.862 2.839 1.30842 0
M  V30 6457 H 621.082 3.81932 -0.975805 0
M  V30 6458 H 622.37 5.02451 -0.801272 0
M  V30 6459 H 621.768 5.13288 2.37806 0
M  V30 6460 H 620.325 6.06539 2.38651 0
M  V30 6461 N 623.758 0.647228 1.43697 0
M  V30 6462 C 625.006 0.157876 2.01482 0
M  V30 6463 C 625.327 -1.23039 1.51282 0
M  V30 6464 O 624.597 -1.82071 0.722982 0
M  V30 6465 H 623.177 0.0553745 0.744945 0
M  V30 6466 H 625.839 0.83755 1.75986 0
M  V30 6467 H 624.935 0.137895 3.11795 0
M  V30 6468 N 625.236 -1.5273 0.388769 0
M  V30 6469 C 626.184 -2.27975 -0.461527 0
M  V30 6470 C 627.178 -1.31854 -1.06352 0
M  V30 6471 O 628.384 -1.49394 -1.00406 0
M  V30 6472 H 624.759 -0.733088 -0.16759 0
M  V30 6473 H 626.73 -2.97765 0.194579 0
M  V30 6474 C 625.479 -3.09881 -1.577 0
M  V30 6475 H 624.802 -3.83701 -1.12309 0
M  V30 6476 H 626.242 -3.6567 -2.14619 0
M  V30 6477 C 624.701 -2.22159 -2.53272 0
M  V30 6478 O 625.231 -1.84802 -3.56667 0
M  V30 6479 N 623.437 -1.8633 -2.23001 0
M  V30 6480 H 622.984 -2.16909 -1.38954 0
M  V30 6481 H 622.942 -1.27927 -2.87197 0
M  V30 6482 N 626.714 -0.118576 -1.57153 0
M  V30 6483 C 627.96 0.540326 -1.95469 0
M  V30 6484 C 628.293 1.66356 -1.00196 0
M  V30 6485 O 627.568 1.94461 -0.039104 0
M  V30 6486 C 627.851 1.07342 -3.43729 0
M  V30 6487 C 627.704 -0.0463732 -4.49776 0
M  V30 6488 C 629.023 1.96442 -3.93826 0
M  V30 6489 H 626.142 0.19494 -0.710751 0
M  V30 6490 H 628.784 -0.19405 -1.89006 0
M  V30 6491 H 626.934 1.69925 -3.49368 0
M  V30 6492 H 628.606 -0.681648 -4.56236 0
M  V30 6493 H 626.849 -0.709574 -4.27957 0
M  V30 6494 H 627.52 0.367856 -5.50773 0
M  V30 6495 H 629.996 1.43731 -3.90488 0
M  V30 6496 H 628.872 2.3066 -4.98084 0
M  V30 6497 H 629.133 2.89077 -3.34495 0
M  V30 6498 N 628.193 1.56834 0.155195 0
M  V30 6499 C 629.44 1.82898 0.869179 0
M  V30 6500 C 629.768 0.698194 1.81537 0
M  V30 6501 O 629.023 -0.313404 1.93174 0
M  V30 6502 C 629.322 3.15239 1.68402 0
M  V30 6503 C 628.988 4.42123 0.885341 0
M  V30 6504 C 627.65 4.76583 0.664971 0
M  V30 6505 C 630.002 5.20178 0.326234 0
M  V30 6506 C 627.33 5.86566 -0.125346 0
M  V30 6507 C 629.682 6.3099 -0.45108 0
M  V30 6508 C 628.346 6.64006 -0.682102 0
M  V30 6509 H 627.616 0.66927 0.318055 0
M  V30 6510 H 630.263 1.91036 0.133241 0
M  V30 6511 H 628.568 3.02515 2.48982 0
M  V30 6512 H 630.265 3.32618 2.23978 0
M  V30 6513 H 626.855 4.15102 1.06716 0
M  V30 6514 H 631.039 4.93936 0.483787 0
M  V30 6515 H 626.295 6.10594 -0.313915 0
M  V30 6516 H 630.469 6.9067 -0.89149 0
M  V30 6517 H 628.096 7.49065 -1.29636 0
M  V30 6518 N 629.671 -0.424282 1.51781 0
M  V30 6519 C 630.896 -1.19928 1.6921 0
M  V30 6520 C 631.321 -1.8392 0.394355 0
M  V30 6521 O 630.679 -1.69371 -0.646778 0
M  V30 6522 C 630.727 -2.24937 2.81843 0
M  V30 6523 O 629.831 -3.3073 2.46356 0
M  V30 6524 H 629.172 -0.35078 0.563781 0
M  V30 6525 H 631.702 -0.499401 1.98412 0
M  V30 6526 H 631.712 -2.69512 3.06312 0
M  V30 6527 H 630.387 -1.77742 3.76006 0
M  V30 6528 H 628.964 -2.9154 2.32505 0
M  V30 6529 N 631.149 -1.42148 -0.680565 0
M  V30 6530 C 632.389 -1.4379 -1.45271 0
M  V30 6531 C 632.753 -0.0504426 -1.91934 0
M  V30 6532 O 633.954 0.0583916 -2.68737 0
M  V30 6533 C 632.225 -2.42904 -2.62168 0
M  V30 6534 S 633.784 -2.63201 -3.51099 0
M  V30 6535 H 630.602 -0.509185 -0.496237 0
M  V30 6536 H 633.204 -1.78706 -0.792744 0
M  V30 6537 H 631.908 -3.4249 -2.26116 0
M  V30 6538 H 631.439 -2.09394 -3.33043 0
M  V30 6539 H 633.454 -1.91068 -4.57938 0
M  V30 6540 N 632.627 0.916307 -1.28225 0
M  V30 6541 C 633.852 1.7043 -1.18188 0
M  V30 6542 C 634.277 1.86346 0.256274 0
M  V30 6543 O 633.635 1.37175 1.18544 0
M  V30 6544 C 633.683 3.07546 -1.88275 0
M  V30 6545 O 632.787 3.94904 -1.18848 0
M  V30 6546 H 632.128 0.521967 -0.410423 0
M  V30 6547 H 634.658 1.14589 -1.69501 0
M  V30 6548 H 634.668 3.57793 -1.96082 0
M  V30 6549 H 633.343 2.95279 -2.92887 0
M  V30 6550 H 631.92 3.53339 -1.19187 0
M  V30 6551 N 634.105 1.10431 1.1244 0
M  V30 6552 C 635.351 0.847972 1.84221 0
M  V30 6553 C 635.684 -0.624903 1.83871 0
M  V30 6554 O 634.959 -1.46074 1.28423 0
M  V30 6555 C 635.242 1.39695 3.319 0
M  V30 6556 C 635.095 2.93668 3.40704 0
M  V30 6557 C 636.414 1.03924 4.27654 0
M  V30 6558 H 633.533 0.309502 0.668863 0
M  V30 6559 H 636.175 1.36745 1.31912 0
M  V30 6560 H 634.325 0.955095 3.76577 0
M  V30 6561 H 635.997 3.46379 3.04662 0
M  V30 6562 H 634.24 3.30272 2.81252 0
M  V30 6563 H 634.911 3.27162 4.446 0
M  V30 6564 H 637.387 1.42049 3.91102 0
M  V30 6565 H 636.263 1.45027 5.29394 0
M  V30 6566 H 636.524 -0.051336 4.4207 0
M  V30 6567 N 635.583 -1.29855 0.893053 0
M  V30 6568 C 636.516 -2.26079 0.3104 0
M  V30 6569 C 637.494 -1.52145 -0.573644 0
M  V30 6570 O 638.678 -1.8113 -0.521937 0
M  V30 6571 C 635.805 -3.34069 -0.558179 0
M  V30 6572 C 634.851 -4.25721 0.257638 0
M  V30 6573 S 635.684 -5.09409 1.65114 0
M  V30 6574 C 636.84 -6.20903 0.789307 0
M  V30 6575 H 637.073 -2.75151 1.12602 0
M  V30 6576 H 634.606 -1.37975 0.692978 0
M  V30 6577 H 636.564 -3.9675 -1.05355 0
M  V30 6578 H 635.225 -2.83705 -1.34797 0
M  V30 6579 H 634.418 -5.02366 -0.405562 0
M  V30 6580 H 634.02 -3.67656 0.685917 0
M  V30 6581 H 636.312 -6.77499 0.00978451 0
M  V30 6582 H 637.255 -6.91426 1.52762 0
M  V30 6583 H 637.663 -5.63435 0.346634 0
M  V30 6584 N 637.061 -0.65484 -1.43351 0
M  V30 6585 C 638.011 0.0581325 -2.27926 0
M  V30 6586 C 638.995 0.793188 -1.3999 0
M  V30 6587 O 640.187 0.675387 -1.63608 0
M  V30 6588 C 637.316 1.02272 -3.27712 0
M  V30 6589 C 636.402 0.286048 -4.23134 0
M  V30 6590 N 636.793 -0.698298 -5.00957 0
M  V30 6591 C 635.091 0.527272 -4.42872 0
M  V30 6592 C 635.792 -1.1357 -5.70506 0
M  V30 6593 N 634.768 -0.469631 -5.41568 0
M  V30 6594 H 638.57 -0.697182 -2.85511 0
M  V30 6595 H 636.084 -0.482252 -1.55074 0
M  V30 6596 H 638.081 1.5483 -3.87083 0
M  V30 6597 H 636.741 1.77807 -2.71688 0
M  V30 6598 H 637.752 -1.07708 -5.06576 0
M  V30 6599 H 634.429 1.26367 -3.97916 0
M  V30 6600 H 635.819 -1.95027 -6.42973 0
M  V30 6601 N 638.539 1.52521 -0.396863 0
M  V30 6602 C 639.449 2.30403 0.44178 0
M  V30 6603 C 640.465 1.37625 1.06468 0
M  V30 6604 O 641.641 1.70697 1.06886 0
M  V30 6605 C 638.706 3.1013 1.54986 0
M  V30 6606 C 637.767 4.18628 0.951279 0
M  V30 6607 C 637 4.94543 2.00655 0
M  V30 6608 O 637.223 4.70629 3.22281 0
M  V30 6609 O 636.157 5.797 1.61962 0
M  V30 6610 H 639.983 3.03087 -0.192892 0
M  V30 6611 H 637.568 1.48537 -0.16038 0
M  V30 6612 H 639.45 3.59816 2.19341 0
M  V30 6613 H 638.125 2.40251 2.16935 0
M  V30 6614 H 637.032 3.73119 0.270773 0
M  V30 6615 H 638.365 4.90763 0.375887 0
M  V30 6616 N 640.017 0.126909 1.57088 0
M  V30 6617 C 640.98 -0.806097 2.14557 0
M  V30 6618 C 641.98 -1.18918 1.08236 0
M  V30 6619 O 643.17 -1.11339 1.33975 0
M  V30 6620 C 640.302 -2.09116 2.69227 0
M  V30 6621 H 641.495 -0.306522 2.98329 0
M  V30 6622 H 639.048 -0.122393 1.5582 0
M  V30 6623 H 639.783 -2.63486 1.89065 0
M  V30 6624 H 639.568 -1.82588 3.46993 0
M  V30 6625 H 641.058 -2.75794 3.13572 0
M  V30 6626 N 641.495 -1.56914 -0.146875 0
M  V30 6627 C 642.425 -2.01308 -1.1831 0
M  V30 6628 C 643.406 -0.892664 -1.44795 0
M  V30 6629 O 644.591 -1.16048 -1.55713 0
M  V30 6630 C 641.721 -2.3938 -2.51624 0
M  V30 6631 C 640.675 -3.54608 -2.3966 0
M  V30 6632 C 640.001 -3.78493 -3.77686 0
M  V30 6633 C 641.301 -4.87269 -1.88058 0
M  V30 6634 H 642.995 -2.88123 -0.813964 0
M  V30 6635 H 640.541 -1.38615 -0.3901 0
M  V30 6636 H 642.494 -2.69037 -3.24341 0
M  V30 6637 H 641.218 -1.49502 -2.90373 0
M  V30 6638 H 639.877 -3.25116 -1.69396 0
M  V30 6639 H 639.525 -2.85866 -4.13871 0
M  V30 6640 H 639.225 -4.56039 -3.70543 0
M  V30 6641 H 640.749 -4.10576 -4.51951 0
M  V30 6642 H 642.163 -5.15644 -2.50568 0
M  V30 6643 H 640.56 -5.68622 -1.91805 0
M  V30 6644 H 641.63 -4.77634 -0.836277 0
M  V30 6645 N 642.974 0.416227 -1.52004 0
M  V30 6646 C 643.924 1.50558 -1.7122 0
M  V30 6647 C 644.908 1.50613 -0.56609 0
M  V30 6648 O 646.1 1.56709 -0.822874 0
M  V30 6649 C 643.229 2.88556 -1.85984 0
M  V30 6650 C 642.315 2.93177 -3.06445 0
M  V30 6651 N 642.706 2.67505 -4.29272 0
M  V30 6652 C 641.004 3.24343 -3.06133 0
M  V30 6653 C 641.705 2.78511 -5.10692 0
M  V30 6654 N 640.681 3.11087 -4.45787 0
M  V30 6655 H 644.483 1.29494 -2.63834 0
M  V30 6656 H 641.997 0.62384 -1.4994 0
M  V30 6657 H 643.994 3.66954 -1.97865 0
M  V30 6658 H 642.654 3.10624 -0.945654 0
M  V30 6659 H 643.665 2.42033 -4.57865 0
M  V30 6660 H 640.342 3.52051 -2.24425 0
M  V30 6661 H 641.732 2.62438 -6.18527 0
M  V30 6662 N 644.452 1.42507 0.673017 0
M  V30 6663 C 645.4 1.46362 1.80779 0
M  V30 6664 C 646.394 0.339166 1.6597 0
M  V30 6665 O 647.6 0.512262 1.72557 0
M  V30 6666 H 643.975 0.458433 0.596107 0
M  V30 6667 H 645.946 2.41953 1.74646 0
M  V30 6668 C 644.695 1.38462 3.18941 0
M  V30 6669 H 644.018 2.24283 3.30964 0
M  V30 6670 H 645.458 1.45221 3.98355 0
M  V30 6671 C 643.917 0.0996354 3.36753 0
M  V30 6672 O 644.447 -0.846894 3.92671 0
M  V30 6673 N 642.653 0.016211 2.90595 0
M  V30 6674 H 642.2 0.78725 2.45276 0
M  V30 6675 H 642.158 -0.84291 3.0289 0
M  V30 6676 N 645.93 -0.909495 1.28709 0
M  V30 6677 C 646.88 -1.9991 1.09636 0
M  V30 6678 C 647.864 -1.60889 0.01872 0
M  V30 6679 O 649.056 -1.75374 0.239338 0
M  V30 6680 C 646.185 -3.34675 0.764702 0
M  V30 6681 C 645.271 -3.80085 1.8814 0
M  V30 6682 N 645.662 -3.97824 3.12361 0
M  V30 6683 C 643.96 -4.09278 1.77221 0
M  V30 6684 C 644.661 -4.35928 3.85151 0
M  V30 6685 N 643.637 -4.44426 3.13028 0
M  V30 6686 H 647.439 -2.11681 2.03883 0
M  V30 6687 H 644.953 -1.09763 1.1969 0
M  V30 6688 H 646.95 -4.12426 0.609132 0
M  V30 6689 H 645.61 -3.24255 -0.169952 0
M  V30 6690 H 646.621 -3.83626 3.47925 0
M  V30 6691 H 643.298 -4.0747 0.909621 0
M  V30 6692 H 644.688 -4.57581 4.92006 0
M  V30 6693 N 647.408 -1.11026 -1.11852 0
M  V30 6694 C 648.638 -0.877544 -1.87037 0
M  V30 6695 C 649.046 0.575925 -1.80221 0
M  V30 6696 O 648.389 1.40916 -1.17849 0
M  V30 6697 C 648.451 -1.25529 -3.36872 0
M  V30 6698 C 648.115 -2.71704 -3.67459 0
M  V30 6699 C 649.112 -3.69931 -3.65304 0
M  V30 6700 C 646.797 -3.08243 -3.966 0
M  V30 6701 C 648.791 -5.02717 -3.9186 0
M  V30 6702 C 646.478 -4.41215 -4.22815 0
M  V30 6703 C 647.476 -5.38262 -4.20432 0
M  V30 6704 O 647.164 -6.68839 -4.45992 0
M  V30 6705 H 646.896 -0.314374 -0.598452 0
M  V30 6706 H 649.45 -1.48015 -1.42411 0
M  V30 6707 H 647.68 -0.595808 -3.82082 0
M  V30 6708 H 649.369 -0.999064 -3.93413 0
M  V30 6709 H 650.135 -3.43047 -3.42846 0
M  V30 6710 H 646.014 -2.33326 -3.97593 0
M  V30 6711 H 649.558 -5.78456 -3.89916 0
M  V30 6712 H 645.455 -4.67835 -4.44748 0
M  V30 6713 H 646.223 -6.74563 -4.63581 0
M  V30 6714 N 648.886 1.2938 -0.899927 0
M  V30 6715 C 650.114 1.99691 -0.541386 0
M  V30 6716 C 650.529 1.67355 0.873936 0
M  V30 6717 O 649.886 0.918728 1.57688 0
M  V30 6718 C 649.937 3.54168 -0.72438 0
M  V30 6719 O 649.658 3.85359 -2.08399 0
M  V30 6720 C 651.159 4.41746 -0.370819 0
M  V30 6721 H 648.379 0.638037 -0.207726 0
M  V30 6722 H 650.923 1.6491 -1.20934 0
M  V30 6723 H 649.078 3.87261 -0.103607 0
M  V30 6724 H 649.492 4.80032 -2.11352 0
M  V30 6725 H 650.966 5.49256 -0.549693 0
M  V30 6726 H 651.443 4.33712 0.692148 0
M  V30 6727 H 652.049 4.14125 -0.968543 0
M  V30 6728 N 650.364 0.662433 1.43002 0
M  V30 6729 C 651.296 -0.062326 2.29115 0
M  V30 6730 C 652.309 -0.777926 1.43011 0
M  V30 6731 O 653.498 -0.634146 1.66856 0
M  V30 6732 C 650.598 -1.11163 3.2015 0
M  V30 6733 C 649.771 -0.472327 4.34842 0
M  V30 6734 C 648.83 -1.41974 5.06685 0
M  V30 6735 O 647.856 -0.924795 5.61637 0
M  V30 6736 N 649.058 -2.75345 5.11043 0
M  V30 6737 H 651.823 0.676838 2.91957 0
M  V30 6738 H 649.384 0.505907 1.53793 0
M  V30 6739 H 651.376 -1.74643 3.65078 0
M  V30 6740 H 649.946 -1.75266 2.58845 0
M  V30 6741 H 649.166 0.341751 3.92716 0
M  V30 6742 H 650.454 -0.0264381 5.08793 0
M  V30 6743 H 649.852 -3.18108 4.67786 0
M  V30 6744 H 648.409 -3.34105 5.59658 0
M  V30 6745 N 651.842 -1.52309 0.404946 0
M  V30 6746 C 652.789 -2.26898 -0.422597 0
M  V30 6747 C 653.759 -1.2914 -1.04461 0
M  V30 6748 O 654.944 -1.57996 -1.06967 0
M  V30 6749 C 652.084 -3.09053 -1.53559 0
M  V30 6750 C 651.197 -4.21762 -0.934908 0
M  V30 6751 C 650.332 -4.91283 -2.02025 0
M  V30 6752 C 649.371 -5.95962 -1.39628 0
M  V30 6753 N 648.508 -6.59017 -2.42159 0
M  V30 6754 H 653.348 -2.97188 0.219903 0
M  V30 6755 H 650.885 -1.46607 0.120282 0
M  V30 6756 H 652.843 -3.54987 -2.19181 0
M  V30 6757 H 651.473 -2.40942 -2.14818 0
M  V30 6758 H 650.525 -3.80029 -0.167854 0
M  V30 6759 H 651.837 -4.96864 -0.439073 0
M  V30 6760 H 650.991 -5.40601 -2.75383 0
M  V30 6761 H 649.73 -4.15741 -2.54973 0
M  V30 6762 H 648.735 -5.45968 -0.648023 0
M  V30 6763 H 649.96 -6.73445 -0.874553 0
M  V30 6764 H 647.906 -5.86306 -2.94247 0
M  V30 6765 H 647.823 -7.2978 -1.97376 0
M  V30 6766 H 649.091 -7.12974 -3.15099 0
M  V30 6767 N 653.32 -0.135238 -1.57019 0
M  V30 6768 C 654.545 0.529343 -2.00531 0
M  V30 6769 C 654.97 1.58391 -1.01459 0
M  V30 6770 O 654.328 1.81296 0.0113986 0
M  V30 6771 C 654.376 1.11748 -3.42848 0
M  V30 6772 O 653.48 2.23267 -3.46736 0
M  V30 6773 H 652.821 0.130669 -0.651016 0
M  V30 6774 H 655.351 -0.228503 -2.0332 0
M  V30 6775 H 655.361 1.44905 -3.81401 0
M  V30 6776 H 654.036 0.345147 -4.14465 0
M  V30 6777 H 652.613 1.91428 -3.20015 0
M  V30 6778 N 654.798 1.5699 0.138552 0
M  V30 6779 C 655.728 2.01933 1.17241 0
M  V30 6780 C 656.709 0.90033 1.44319 0
M  V30 6781 O 657.894 1.16872 1.55095 0
M  V30 6782 C 655.024 2.40711 2.50351 0
M  V30 6783 C 653.978 3.55874 2.37776 0
M  V30 6784 C 653.304 3.80491 3.75674 0
M  V30 6785 C 654.604 4.8826 1.85472 0
M  V30 6786 H 656.298 2.88551 0.798672 0
M  V30 6787 H 653.844 1.3882 0.382743 0
M  V30 6788 H 655.797 2.70754 3.22909 0
M  V30 6789 H 654.521 1.5104 2.89576 0
M  V30 6790 H 653.18 3.2601 1.67669 0
M  V30 6791 H 652.828 2.88057 4.12349 0
M  V30 6792 H 652.528 4.57998 3.68119 0
M  V30 6793 H 654.052 4.12967 4.49767 0
M  V30 6794 H 655.466 5.16965 2.4783 0
M  V30 6795 H 653.863 5.69631 1.88787 0
M  V30 6796 H 654.933 4.78071 0.810935 0
M  V30 6797 N 656.276 -0.40816 1.52223 0
M  V30 6798 C 657.501 -1.18127 1.70472 0
M  V30 6799 C 657.926 -1.83491 0.41384 0
M  V30 6800 O 657.284 -1.70047 -0.628778 0
M  V30 6801 C 657.332 -2.21935 2.84213 0
M  V30 6802 O 656.436 -3.28099 2.4985 0
M  V30 6803 H 655.777 -0.344781 0.56747 0
M  V30 6804 H 658.307 -0.478328 1.9893 0
M  V30 6805 H 658.317 -2.66248 3.09153 0
M  V30 6806 H 656.992 -1.73744 3.7787 0
M  V30 6807 H 655.569 -2.89058 2.35584 0
M  V30 6808 N 657.755 -1.42862 -0.66545 0
M  V30 6809 C 658.685 -1.49867 -1.79059 0
M  V30 6810 C 659.666 -0.354394 -1.66367 0
M  V30 6811 O 660.851 -0.569969 -1.85647 0
M  V30 6812 C 657.981 -1.40943 -3.17415 0
M  V30 6813 C 656.935 -2.53495 -3.44854 0
M  V30 6814 C 656.261 -2.29626 -4.82883 0
M  V30 6815 C 657.561 -3.95781 -3.40815 0
M  V30 6816 H 659.255 -2.44037 -1.73453 0
M  V30 6817 H 656.801 -1.17456 -0.833071 0
M  V30 6818 H 658.754 -1.4445 -3.95869 0
M  V30 6819 H 657.478 -0.432716 -3.23721 0
M  V30 6820 H 656.137 -2.4932 -2.68766 0
M  V30 6821 H 655.785 -1.30226 -4.8585 0
M  V30 6822 H 655.485 -3.05065 -5.02204 0
M  V30 6823 H 657.009 -2.34897 -5.63609 0
M  V30 6824 H 658.423 -4.01508 -4.09224 0
M  V30 6825 H 656.82 -4.71148 -3.71672 0
M  V30 6826 H 657.89 -4.21786 -2.39216 0
M  V30 6827 N 659.233 0.902656 -1.29189 0
M  V30 6828 C 660.458 1.69167 -1.19989 0
M  V30 6829 C 660.883 1.86607 0.236495 0
M  V30 6830 O 660.241 1.38425 1.17082 0
M  V30 6831 C 660.289 3.05532 -1.91527 0
M  V30 6832 O 659.393 3.93621 -1.2303 0
M  V30 6833 H 658.734 0.517584 -0.415936 0
M  V30 6834 H 661.264 1.12785 -1.70706 0
M  V30 6835 H 661.274 3.55693 -1.99866 0
M  V30 6836 H 659.949 2.92156 -2.96003 0
M  V30 6837 H 658.526 3.52055 -1.22928 0
M  V30 6838 N 660.711 1.11618 1.11262 0
M  V30 6839 C 662.122 0.881942 1.64556 0
M  V30 6840 C 662.473 -0.585442 1.87262 0
M  V30 6841 O 661.598 -1.44795 1.60821 0
M  V30 6842 C 662.193 1.59446 2.98935 0
M  V30 6843 C 660.752 1.40661 3.4913 0
M  V30 6844 C 659.899 1.63593 2.23903 0
M  V30 6845 H 662.85 1.27217 0.94877 0
M  V30 6846 H 662.871 1.04054 3.65996 0
M  V30 6847 H 662.383 2.66241 2.82378 0
M  V30 6848 H 660.484 0.360835 3.70849 0
M  V30 6849 H 660.597 2.15693 4.27801 0
M  V30 6850 H 658.961 1.05944 2.3162 0
M  V30 6851 H 659.744 2.71666 2.09886 0
M  V30 6852 N 662.189 -1.289 0.906776 0
M  V30 6853 C 663.437 -1.94883 0.535266 0
M  V30 6854 C 663.758 -1.71784 -0.922791 0
M  V30 6855 O 663.028 -1.05359 -1.65156 0
M  V30 6856 H 661.608 -0.721109 0.194962 0
M  V30 6857 H 664.27 -1.57018 1.15461 0
M  V30 6858 H 663.366 -3.03591 0.723821 0
M  V30 6859 N 663.667 -0.670007 -1.42649 0
M  V30 6860 C 664.614 0.0112928 -2.30797 0
M  V30 6861 C 665.584 0.797627 -1.45695 0
M  V30 6862 O 666.769 0.770845 -1.74535 0
M  V30 6863 C 663.909 0.95998 -3.31479 0
M  V30 6864 C 663.022 0.167975 -4.31673 0
M  V30 6865 C 662.157 1.11198 -5.19431 0
M  V30 6866 C 661.196 0.311381 -6.11307 0
M  V30 6867 N 660.333 1.20784 -6.91633 0
M  V30 6868 H 665.173 -0.746231 -2.88505 0
M  V30 6869 H 662.71 -0.379739 -1.42114 0
M  V30 6870 H 664.668 1.52379 -3.88377 0
M  V30 6871 H 663.298 1.68419 -2.75382 0
M  V30 6872 H 662.35 -0.512385 -3.76933 0
M  V30 6873 H 663.662 -0.453814 -4.96731 0
M  V30 6874 H 662.816 1.74587 -5.81037 0
M  V30 6875 H 661.555 1.76766 -4.54538 0
M  V30 6876 H 660.56 -0.335758 -5.48774 0
M  V30 6877 H 661.785 -0.340135 -6.78248 0
M  V30 6878 H 659.731 1.85001 -6.29373 0
M  V30 6879 H 659.648 0.64102 -7.53277 0
M  V30 6880 H 660.916 1.82936 -7.5773 0
M  V30 6881 O 665.184 1.51659 -0.55515 0
M  V30 6882 H 665.875 1.9363 -0.0521056 0
M  V30 END ATOM
M  V30 BEGIN BOND
M  V30 END BOND
M  V30 END CTAB
M  END
$$$$
