drugbank_drug|DB12688 >VH-P38 subunit<<<
 OpenBabel12092119113D

  0  0  0     0  0            999 V3000
M  V30 BEGIN CTAB
M  V30 COUNTS 7099 7188 0 0 0
M  V30 BEGIN ATOM
M  V30 1 H -0.908 1.98254 -0.117106 0
M  V30 2 N 0 1.576 0 0
M  V30 3 C 0.933 2.03868 1.02534 0
M  V30 4 C 1.911 0.928543 1.3348 0
M  V30 5 O 3.095 1.19667 1.45644 0
M  V30 6 C 0.222 2.43627 2.35294 0
M  V30 7 C -0.732 3.65373 2.2001 0
M  V30 8 S 0.101 5.13292 1.52614 0
M  V30 9 C 1.257 5.56322 2.86805 0
M  V30 10 H 1.49 2.90518 0.631377 0
M  V30 11 H -0.977 1.52953 0.210867 0
M  V30 12 H 0.981 2.67203 3.11629 0
M  V30 13 H -0.358 1.57376 2.7183 0
M  V30 14 H -1.165 3.90944 3.18086 0
M  V30 15 H -1.563 3.418 1.51819 0
M  V30 16 H 0.729 5.58782 3.83104 0
M  V30 17 H 1.672 6.56266 2.65933 0
M  V30 18 H 2.08 4.83886 2.90714 0
M  V30 19 N 1.4781 -0.272755 1.55222 0
M  V30 20 C 2.3881 -1.35918 1.91216 0
M  V30 21 C 3.4041 -1.54026 0.809436 0
M  V30 22 O 4.5801 -1.68148 1.10852 0
M  V30 23 C 1.6451 -2.69834 2.17693 0
M  V30 24 C 0.7061 -2.6047 3.41253 0
M  V30 25 C -0.0609 -3.88 3.66458 0
M  V30 26 O 0.1621 -4.88693 2.94169 0
M  V30 27 O -0.9039 -3.88189 4.59992 0
M  V30 28 H 2.9221 -1.0839 2.83699 0
M  V30 29 H 0.5071 -0.471301 1.41771 0
M  V30 30 H 2.3891 -3.49017 2.36147 0
M  V30 31 H 1.0641 -2.97148 1.28392 0
M  V30 32 H -0.0289 -1.79663 3.28134 0
M  V30 33 H 1.3041 -2.38106 4.30774 0
M  V30 34 N 2.9562 -1.48159 -0.537278 0
M  V30 35 C 4.2022 -1.56035 -1.29541 0
M  V30 36 C 4.5352 -0.230377 -1.92829 0
M  V30 37 O 3.8102 0.762952 -1.78911 0
M  V30 38 C 4.0932 -2.69323 -2.39034 0
M  V30 39 C 3.9462 -4.12002 -1.80485 0
M  V30 40 C 5.2652 -2.78408 -3.40847 0
M  V30 41 H 2.3842 -0.567992 -0.469632 0
M  V30 42 H 5.0262 -1.80302 -0.599277 0
M  V30 43 H 3.1762 -2.48763 -2.98412 0
M  V30 44 H 4.8482 -4.43981 -1.25215 0
M  V30 45 H 3.0912 -4.19344 -1.11055 0
M  V30 46 H 3.7622 -4.87077 -2.59731 0
M  V30 47 H 6.2382 -2.97012 -2.91416 0
M  V30 48 H 5.1142 -3.59416 -4.14863 0
M  V30 49 H 5.3752 -1.86269 -4.00944 0
M  V30 50 N 4.4343 0.785586 -1.36625 0
M  V30 51 C 5.3663 1.90711 -1.2713 0
M  V30 52 C 6.3793 1.61688 -0.189986 0
M  V30 53 O 7.5683 1.72864 -0.445014 0
M  V30 54 C 4.6683 3.25611 -0.939713 0
M  V30 55 C 3.8413 3.82385 -2.12369 0
M  V30 56 C 2.9003 4.95732 -1.76456 0
M  V30 57 O 1.9263 5.12047 -2.48589 0
M  V30 58 N 3.1283 5.76258 -0.700492 0
M  V30 59 H 5.8933 1.99376 -2.23762 0
M  V30 60 H 3.4543 0.964041 -1.30069 0
M  V30 61 H 5.4463 3.98937 -0.680554 0
M  V30 62 H 4.0163 3.12538 -0.0624074 0
M  V30 63 H 3.2363 3.01001 -2.54543 0
M  V30 64 H 4.5243 4.17047 -2.9146 0
M  V30 65 H 3.9223 5.65609 -0.101624 0
M  V30 66 H 2.4793 6.4987 -0.501165 0
M  V30 67 N 5.9124 1.20967 1.01018 0
M  V30 68 C 6.8424 0.988272 2.11555 0
M  V30 69 C 7.8234 -0.0849778 1.69888 0
M  V30 70 O 9.0084 0.0738202 1.9406 0
M  V30 71 C 6.1384 0.546528 3.42973 0
M  V30 72 C 5.0924 1.56375 3.9841 0
M  V30 73 C 4.4184 0.97842 5.25672 0
M  V30 74 C 5.7184 2.94922 4.31066 0
M  V30 75 H 7.4124 1.91276 2.30334 0
M  V30 76 H 4.9584 0.921073 1.1069 0
M  V30 77 H 6.9114 0.378839 4.19694 0
M  V30 78 H 5.6354 -0.413598 3.23971 0
M  V30 79 H 4.2944 1.71891 3.23804 0
M  V30 80 H 3.9424 0.0101688 5.02999 0
M  V30 81 H 3.6424 1.65784 5.63728 0
M  V30 82 H 5.1664 0.821939 6.05043 0
M  V30 83 H 6.5804 2.8288 4.9865 0
M  V30 84 H 4.9774 3.5983 4.80253 0
M  V30 85 H 6.0474 3.4616 3.39561 0
M  V30 86 N 7.3905 -1.2043 1.01659 0
M  V30 87 C 8.6365 -1.90079 0.706963 0
M  V30 88 C 8.9695 -1.78648 -0.761474 0
M  V30 89 O 8.2445 -1.17069 -1.55323 0
M  V30 90 C 8.5275 -3.41469 1.14327 0
M  V30 91 C 8.3805 -3.61833 2.67201 0
M  V30 92 C 9.6995 -4.34261 0.714529 0
M  V30 93 H 6.8185 -0.690254 0.2583 0
M  V30 94 H 9.4605 -1.41826 1.26433 0
M  V30 95 H 7.6105 -3.82696 0.669056 0
M  V30 96 H 9.2825 -3.2986 3.22475 0
M  V30 97 H 7.5255 -3.05304 3.08175 0
M  V30 98 H 8.1965 -4.67955 2.92783 0
M  V30 99 H 10.6725 -4.00682 1.12221 0
M  V30 100 H 9.5485 -5.38806 1.04784 0
M  V30 101 H 9.8095 -4.40431 -0.383799 0
M  V30 102 N 8.8686 -0.792821 -1.36206 0
M  V30 103 C 9.7786 -0.194808 -2.3379 0
M  V30 104 C 10.7946 0.654869 -1.61206 0
M  V30 105 O 11.9706 0.569856 -1.9317 0
M  V30 106 C 9.0356 0.657721 -3.40404 0
M  V30 107 C 8.0966 -0.210849 -4.28782 0
M  V30 108 C 7.3296 0.601086 -5.30304 0
M  V30 109 O 7.5526 1.83682 -5.40016 0
M  V30 110 O 6.4866 -0.000808277 -6.019 0
M  V30 111 H 10.3126 -1.00172 -2.86704 0
M  V30 112 H 7.8976 -0.554341 -1.38735 0
M  V30 113 H 9.7796 1.14375 -4.05581 0
M  V30 114 H 8.4546 1.44247 -2.89784 0
M  V30 115 H 7.3616 -0.743714 -3.66633 0
M  V30 116 H 8.6946 -0.959195 -4.82763 0
M  V30 117 N 10.3467 1.47872 -0.545128 0
M  V30 118 C 11.5717 2.07391 -0.0190611 0
M  V30 119 C 11.9967 1.39688 1.25971 0
M  V30 120 O 11.3547 0.467816 1.7516 0
M  V30 121 C 11.4027 3.60188 0.172335 0
M  V30 122 O 10.5067 3.9339 1.23766 0
M  V30 123 H 9.8477 0.662411 -0.0459059 0
M  V30 124 H 12.3777 1.90066 -0.757365 0
M  V30 125 H 12.3877 4.06129 0.390305 0
M  V30 126 H 11.0627 4.08865 -0.761725 0
M  V30 127 H 9.6397 3.5921 1.00114 0
M  V30 128 N 11.8248 0.280983 1.55075 0
M  V30 129 C 13.0728 -0.333455 1.9933 0
M  V30 130 C 13.3938 -1.55937 1.17085 0
M  V30 131 O 12.6638 -1.94143 0.261805 0
M  V30 132 H 11.2438 -0.126197 0.736263 0
M  V30 133 H 13.9058 0.387678 1.91005 0
M  V30 134 H 13.0018 -0.619292 3.05894 0
M  V30 135 N 13.3029 -1.57598 0.00835791 0
M  V30 136 C 14.5509 -1.90551 -0.6734 0
M  V30 137 C 14.8719 -0.883301 -1.73847 0
M  V30 138 O 14.1419 0.0781442 -1.95744 0
M  V30 139 H 12.7219 -0.703312 -0.251717 0
M  V30 140 H 15.3839 -1.94833 0.0512592 0
M  V30 141 H 14.4799 -2.9056 -1.13935 0
M  V30 142 N 14.781 0.264519 -1.55364 0
M  V30 143 C 16.029 0.993021 -1.76021 0
M  V30 144 C 16.35 1.86511 -0.569099 0
M  V30 145 O 15.62 1.91438 0.415735 0
M  V30 146 H 14.2 0.369639 -0.649135 0
M  V30 147 H 16.862 0.286707 -1.9278 0
M  V30 148 H 15.958 1.62502 -2.66457 0
M  V30 149 N 16.2591 1.48442 0.529413 0
M  V30 150 C 17.1891 1.65902 1.64313 0
M  V30 151 C 18.1701 0.507897 1.6234 0
M  V30 152 O 19.3551 0.740503 1.79528 0
M  V30 153 C 16.4851 1.69911 3.02898 0
M  V30 154 C 15.4391 2.8453 3.19729 0
M  V30 155 C 14.7651 2.73629 4.59381 0
M  V30 156 C 16.0651 4.25821 3.02447 0
M  V30 157 H 17.7591 2.5914 1.49955 0
M  V30 158 H 15.3051 1.24709 0.719982 0
M  V30 159 H 17.2581 1.80715 3.80684 0
M  V30 160 H 15.9821 0.732524 3.18279 0
M  V30 161 H 14.6411 2.73283 2.44361 0
M  V30 162 H 14.2891 1.74938 4.71599 0
M  V30 163 H 13.9891 3.50541 4.71588 0
M  V30 164 H 15.5131 2.86401 5.39265 0
M  V30 165 H 16.9271 4.37898 3.70024 0
M  V30 166 H 15.3241 5.03735 3.26146 0
M  V30 167 H 16.3941 4.42244 1.98867 0
M  V30 168 N 17.7372 -0.778329 1.37039 0
M  V30 169 C 18.9832 -1.53892 1.32079 0
M  V30 170 C 19.3162 -1.9396 -0.0965386 0
M  V30 171 O 18.5912 -1.63568 -1.05242 0
M  V30 172 C 18.8742 -2.80847 2.25382 0
M  V30 173 C 18.7272 -2.47076 3.75864 0
M  V30 174 C 20.0462 -3.82741 2.1725 0
M  V30 175 H 17.1652 -0.558303 0.48111 0
M  V30 176 H 19.8072 -0.893397 1.67685 0
M  V30 177 H 17.9572 -3.35931 1.95148 0
M  V30 178 H 19.6292 -1.97957 4.16666 0
M  V30 179 H 17.8722 -1.79863 3.94755 0
M  V30 180 H 18.5432 -3.37798 4.36574 0
M  V30 181 H 21.0192 -3.37133 2.43887 0
M  V30 182 H 19.8952 -4.69303 2.84686 0
M  V30 183 H 20.1562 -4.2652 1.16331 0
M  V30 184 N 19.2153 -1.21501 -1.00376 0
M  V30 185 C 20.1623 -0.975387 -2.09177 0
M  V30 186 C 21.1323 0.0990615 -1.65804 0
M  V30 187 O 22.3173 -0.0483147 -1.90739 0
M  V30 188 C 19.4573 -0.547507 -3.40729 0
M  V30 189 C 18.5703 -1.69153 -3.97506 0
M  V30 190 C 17.7053 -1.2127 -5.17172 0
M  V30 191 C 16.7443 -2.32897 -5.66061 0
M  V30 192 N 15.8813 -1.86138 -6.76976 0
M  V30 193 H 20.7213 -1.9068 -2.29009 0
M  V30 194 H 18.2583 -0.950257 -1.12288 0
M  V30 195 H 20.2163 -0.280667 -4.16255 0
M  V30 196 H 18.8463 0.346904 -3.20931 0
M  V30 197 H 17.8983 -2.07298 -3.18954 0
M  V30 198 H 19.2103 -2.5316 -4.29781 0
M  V30 199 H 18.3643 -0.902591 -5.99948 0
M  V30 200 H 17.1033 -0.342692 -4.86495 0
M  V30 201 H 16.1083 -2.64709 -4.81881 0
M  V30 202 H 17.3333 -3.20396 -5.98768 0
M  V30 203 H 15.2793 -1.01484 -6.48103 0
M  V30 204 H 15.1963 -2.63717 -7.08512 0
M  V30 205 H 16.4643 -1.58165 -7.63285 0
M  V30 206 N 20.6934 1.19889 -1.02296 0
M  V30 207 C 22.1044 1.71124 -0.746568 0
M  V30 208 C 22.4554 1.81939 0.734335 0
M  V30 209 O 21.5804 1.48639 1.57275 0
M  V30 210 C 22.1754 3.10804 -1.34857 0
M  V30 211 C 20.7344 3.59323 -1.1209 0
M  V30 212 C 19.8814 2.3635 -1.45031 0
M  V30 213 H 22.8324 1.04813 -1.19163 0
M  V30 214 H 22.8534 3.73186 -0.742437 0
M  V30 215 H 22.3654 3.029 -2.42638 0
M  V30 216 H 20.4664 3.7255 -0.0610337 0
M  V30 217 H 20.5794 4.4378 -1.80544 0
M  V30 218 H 18.9434 2.39399 -0.869487 0
M  V30 219 H 19.7264 2.31081 -2.53883 0
M  V30 220 N 22.1715 0.800033 1.35784 0
M  V30 221 C 23.4195 0.376597 1.9856 0
M  V30 222 C 23.7405 -1.05812 1.63795 0
M  V30 223 O 23.0105 -1.73103 0.917171 0
M  V30 224 H 21.5905 0.136261 0.734467 0
M  V30 225 H 24.2525 1.02442 1.65806 0
M  V30 226 H 23.3485 0.477002 3.08433 0
M  V30 227 N 23.6496 -1.47581 0.552962 0
M  V30 228 C 24.8976 -2.02082 0.0272703 0
M  V30 229 C 25.2186 -1.4301 -1.32563 0
M  V30 230 O 24.4886 -0.603745 -1.86365 0
M  V30 231 H 23.0686 -0.746966 0.00709182 0
M  V30 232 H 25.7306 -1.81033 0.722008 0
M  V30 233 H 24.8266 -3.12034 -0.0639951 0
M  V30 234 N 25.1277 -0.289203 -1.54924 0
M  V30 235 C 26.3527 0.329299 -2.04769 0
M  V30 236 C 26.7777 1.4763 -1.16564 0
M  V30 237 O 26.1357 1.80527 -0.167186 0
M  V30 238 C 26.1837 0.774438 -3.52186 0
M  V30 239 O 25.2877 1.88038 -3.67036 0
M  V30 240 H 24.6287 0.0659259 -0.660719 0
M  V30 241 H 27.1587 -0.42761 -2.00082 0
M  V30 242 H 27.1687 1.06642 -3.93816 0
M  V30 243 H 25.8437 -0.0646707 -4.1585 0
M  V30 244 H 24.4207 1.58985 -3.3731 0
M  V30 245 N 26.6058 1.57591 -0.0167156 0
M  V30 246 C 27.5358 2.12496 0.967858 0
M  V30 247 C 28.5168 1.03807 1.34752 0
M  V30 248 O 29.7018 1.31577 1.42833 0
M  V30 249 C 26.8318 2.64194 2.25431 0
M  V30 250 C 25.7858 3.77559 2.01576 0
M  V30 251 C 25.1118 4.15636 3.36379 0
M  V30 252 C 26.4118 5.04151 1.36489 0
M  V30 253 H 28.1058 2.95013 0.510643 0
M  V30 254 H 25.6518 1.41915 0.244181 0
M  V30 255 H 27.6048 3.01236 2.94678 0
M  V30 256 H 26.3288 1.78821 2.73296 0
M  V30 257 H 24.9878 3.40937 1.34751 0
M  V30 258 H 24.6358 3.27263 3.81979 0
M  V30 259 H 24.3358 4.92022 3.21229 0
M  V30 260 H 25.8598 4.5525 4.06915 0
M  V30 261 H 27.2738 5.38857 1.95718 0
M  V30 262 H 25.6708 5.85453 1.31776 0
M  V30 263 H 26.7408 4.83733 0.336219 0
M  V30 264 N 28.0839 -0.256276 1.55502 0
M  V30 265 C 29.0309 -1.31714 1.89526 0
M  V30 266 C 30.0009 -1.4828 0.748479 0
M  V30 267 O 31.1859 -1.62416 1.00128 0
M  V30 268 C 28.3259 -2.66933 2.18725 0
M  V30 269 C 27.4389 -2.58452 3.4616 0
M  V30 270 C 26.5739 -3.85961 3.64976 0
M  V30 271 C 25.6129 -3.72059 4.86044 0
M  V30 272 N 24.7499 -4.9144 5.01429 0
M  V30 273 H 29.5899 -1.01998 2.80001 0
M  V30 274 H 27.1269 -0.492413 1.38613 0
M  V30 275 H 29.0849 -3.4563 2.33657 0
M  V30 276 H 27.7149 -2.94816 1.31466 0
M  V30 277 H 26.7669 -1.71374 3.3961 0
M  V30 278 H 28.0789 -2.44085 4.34999 0
M  V30 279 H 27.2329 -4.73101 3.79816 0
M  V30 280 H 25.9719 -4.03215 2.74353 0
M  V30 281 H 24.9769 -2.83302 4.7119 0
M  V30 282 H 26.2019 -3.56309 5.78118 0
M  V30 283 H 24.1479 -5.09072 4.13741 0
M  V30 284 H 24.0649 -4.79668 5.84341 0
M  V30 285 H 25.3329 -5.80104 5.20672 0
M  V30 286 N 29.562 -1.4872 -0.521534 0
M  V30 287 C 30.492 -1.66771 -1.63431 0
M  V30 288 C 31.473 -0.516499 -1.62069 0
M  V30 289 O 32.658 -0.750013 -1.79132 0
M  V30 290 C 29.788 -1.71515 -3.01993 0
M  V30 291 C 28.742 -2.86222 -3.18216 0
M  V30 292 C 28.068 -2.76061 -4.57924 0
M  V30 293 C 29.368 -4.27419 -3.00184 0
M  V30 294 H 31.062 -2.59932 -1.48579 0
M  V30 295 H 28.608 -1.25089 -0.713358 0
M  V30 296 H 30.561 -1.82731 -3.7972 0
M  V30 297 H 29.285 -0.749393 -3.17886 0
M  V30 298 H 27.944 -2.74575 -2.42908 0
M  V30 299 H 27.592 -1.77437 -4.70665 0
M  V30 300 H 27.292 -3.53037 -4.69722 0
M  V30 301 H 28.816 -2.89256 -5.37739 0
M  V30 302 H 30.23 -4.39855 -3.67697 0
M  V30 303 H 28.627 -5.05458 -3.2347 0
M  V30 304 H 29.697 -4.43293 -1.96518 0
M  V30 305 N 31.0401 0.771051 -1.3745 0
M  V30 306 C 32.2651 1.56529 -1.36065 0
M  V30 307 C 32.6901 1.88029 0.0515859 0
M  V30 308 O 32.0481 1.49282 1.02882 0
M  V30 309 C 32.0961 2.85187 -2.20683 0
M  V30 310 O 31.2001 3.79593 -1.61193 0
M  V30 311 H 30.5411 0.47411 -0.464883 0
M  V30 312 H 33.0711 0.954269 -1.80983 0
M  V30 313 H 33.0811 3.34283 -2.33921 0
M  V30 314 H 31.7561 2.61588 -3.23334 0
M  V30 315 H 30.3331 3.38239 -1.56999 0
M  V30 316 N 32.5182 1.22032 0.997298 0
M  V30 317 C 33.7582 1.05375 1.75144 0
M  V30 318 C 34.1222 -0.404696 1.87686 0
M  V30 319 O 35.3232 -0.691998 2.5974 0
M  V30 320 C 33.5942 1.74046 3.12158 0
M  V30 321 S 35.1532 1.72745 4.03366 0
M  V30 322 H 31.9712 0.377449 0.602539 0
M  V30 323 H 34.5732 1.54902 1.19272 0
M  V30 324 H 33.2772 2.79332 3.00669 0
M  V30 325 H 32.8082 1.24731 3.73103 0
M  V30 326 H 34.8232 0.774015 4.90126 0
M  V30 327 N 33.9963 -1.19345 1.0293 0
M  V30 328 C 34.9593 -2.20793 0.615069 0
M  V30 329 C 35.9593 -1.57553 -0.321533 0
M  V30 330 O 37.1493 -1.73862 -0.108483 0
M  V30 331 C 34.2813 -3.40754 -0.0999222 0
M  V30 332 H 35.4743 -2.58955 1.51269 0
M  V30 333 H 33.0273 -1.3303 0.820534 0
M  V30 334 H 33.7623 -3.0811 -1.01187 0
M  V30 335 H 33.5473 -3.87889 0.57309 0
M  V30 336 H 35.0373 -4.15898 -0.376645 0
M  V30 337 N 35.4744 -0.807222 -1.35358 0
M  V30 338 C 36.4374 -0.223665 -2.28106 0
M  V30 339 C 37.4374 0.589354 -1.4961 0
M  V30 340 O 38.6274 0.407745 -1.69361 0
M  V30 341 C 35.7594 0.688149 -3.33882 0
M  V30 342 H 36.9524 -1.04169 -2.81227 0
M  V30 343 H 34.5054 -0.577921 -1.45223 0
M  V30 344 H 35.2404 1.52984 -2.85948 0
M  V30 345 H 35.0254 0.10687 -3.91954 0
M  V30 346 H 36.5154 1.09075 -4.03104 0
M  V30 347 N 36.9525 1.47285 -0.560781 0
M  V30 348 C 38.1775 2.07359 -0.0410566 0
M  V30 349 C 38.6025 1.41017 1.24483 0
M  V30 350 O 37.9605 0.486368 1.74654 0
M  V30 351 C 38.0085 3.6035 0.134123 0
M  V30 352 O 37.1125 3.94681 1.19587 0
M  V30 353 H 36.4535 0.661887 -0.0529291 0
M  V30 354 H 38.9835 1.89252 -0.777482 0
M  V30 355 H 38.9935 4.0652 0.347207 0
M  V30 356 H 37.6685 4.08034 -0.805047 0
M  V30 357 H 36.2455 3.60251 0.962987 0
M  V30 358 N 38.4306 0.297415 1.54768 0
M  V30 359 C 39.6786 -0.312295 1.99673 0
M  V30 360 C 39.9996 -1.54686 1.18732 0
M  V30 361 O 39.2696 -1.93854 0.282382 0
M  V30 362 H 37.8496 -0.118381 0.73756 0
M  V30 363 H 40.5116 0.407915 1.90583 0
M  V30 364 H 39.6076 -0.586813 3.06534 0
M  V30 365 N 39.9087 -1.5758 0.0250728 0
M  V30 366 C 41.1557 -1.91633 -0.654444 0
M  V30 367 C 41.4837 -0.901103 -1.72367 0
M  V30 368 O 40.7387 0.0905647 -1.9549 0
M  V30 369 C 41.0377 -3.32421 -1.31268 0
M  V30 370 C 40.7037 -4.49344 -0.374223 0
M  V30 371 C 39.3657 -4.8106 -0.115911 0
M  V30 372 C 41.7177 -5.20498 0.270432 0
M  V30 373 C 39.0457 -5.8129 0.79493 0
M  V30 374 C 41.3977 -6.21699 1.1693 0
M  V30 375 C 40.0617 -6.51859 1.43655 0
M  V30 376 H 39.3317 -0.701236 -0.239478 0
M  V30 377 H 41.9787 -1.91307 0.0859734 0
M  V30 378 H 40.2837 -3.28989 -2.12775 0
M  V30 379 H 41.9807 -3.56038 -1.84494 0
M  V30 380 H 38.5707 -4.24579 -0.58573 0
M  V30 381 H 42.7547 -4.96229 0.0839194 0
M  V30 382 H 38.0107 -6.03005 1.00973 0
M  V30 383 H 42.1847 -6.75955 1.67504 0
M  V30 384 H 39.8117 -7.2934 2.144 0
M  V30 385 N 41.3868 0.248026 -1.55636 0
M  V30 386 C 42.3498 1.29044 -1.89421 0
M  V30 387 C 43.3498 1.41134 -0.770581 0
M  V30 388 O 44.5398 1.39854 -1.03858 0
M  V30 389 C 41.6718 2.66831 -2.12165 0
M  V30 390 H 42.8648 1.00305 -2.82629 0
M  V30 391 H 40.4178 0.487265 -1.48511 0
M  V30 392 H 41.1528 3.00711 -1.21422 0
M  V30 393 H 40.9378 2.59438 -2.93997 0
M  V30 394 H 42.4278 3.42103 -2.3949 0
M  V30 395 N 42.8649 1.48995 0.513639 0
M  V30 396 C 44.1119 1.57843 1.26854 0
M  V30 397 C 44.4399 0.259501 1.92761 0
M  V30 398 O 43.6949 -0.75159 1.80692 0
M  V30 399 C 43.9939 2.67756 2.36731 0
M  V30 400 C 43.6599 4.09669 1.88368 0
M  V30 401 C 42.3219 4.48291 1.74896 0
M  V30 402 C 44.6739 4.98537 1.52021 0
M  V30 403 C 42.0019 5.73568 1.23438 0
M  V30 404 C 44.3539 6.24319 1.0202 0
M  V30 405 C 43.0179 6.61783 0.871778 0
M  V30 406 H 42.2879 0.577587 0.464192 0
M  V30 407 H 44.9349 1.82778 0.571366 0
M  V30 408 H 43.2399 2.36743 3.12185 0
M  V30 409 H 44.9369 2.71813 2.9482 0
M  V30 410 H 41.5269 3.79176 1.99808 0
M  V30 411 H 45.7109 4.69363 1.61281 0
M  V30 412 H 40.9669 6.01304 1.10648 0
M  V30 413 H 45.1409 6.92566 0.729722 0
M  V30 414 H 42.7679 7.5874 0.470852 0
M  V30 415 N 44.343 -0.763751 1.37857 0
M  V30 416 C 45.568 -1.55805 1.36893 0
M  V30 417 C 45.993 -1.88054 -0.0416135 0
M  V30 418 O 45.351 -1.49825 -1.02089 0
M  V30 419 C 45.399 -2.84012 2.22192 0
M  V30 420 O 44.503 -3.78732 1.63204 0
M  V30 421 H 43.844 -0.471638 0.46739 0
M  V30 422 H 46.374 -0.944657 1.81487 0
M  V30 423 H 46.384 -3.33037 2.35691 0
M  V30 424 H 45.059 -2.59869 3.24716 0
M  V30 425 H 43.636 -3.37402 1.58791 0
M  V30 426 N 45.8211 -1.22559 -0.990812 0
M  V30 427 C 47.0701 -1.04553 -1.72486 0
M  V30 428 C 47.3831 0.419349 -1.91052 0
M  V30 429 O 48.5891 0.719121 -2.61803 0
M  V30 430 C 47.0451 -1.82231 -3.10355 0
M  V30 431 C 46.6531 -3.32981 -2.99713 0
M  V30 432 C 48.3971 -1.7268 -3.87791 0
M  V30 433 C 46.3041 -4.03091 -4.32748 0
M  V30 434 H 45.2341 -0.387614 -0.646739 0
M  V30 435 H 47.8851 -1.46429 -1.10593 0
M  V30 436 H 46.2671 -1.33155 -3.72942 0
M  V30 437 H 47.4411 -3.89466 -2.46278 0
M  V30 438 H 45.7561 -3.43231 -2.35758 0
M  V30 439 H 48.3531 -2.22381 -4.86262 0
M  V30 440 H 48.6961 -0.687607 -4.10582 0
M  V30 441 H 49.2291 -2.1931 -3.31885 0
M  V30 442 H 45.9681 -5.07273 -4.15156 0
M  V30 443 H 45.4881 -3.51394 -4.86089 0
M  V30 444 H 47.1671 -4.08804 -5.01486 0
M  V30 445 N 47.2992 1.18797 -1.03562 0
M  V30 446 C 48.5292 1.92319 -0.754773 0
M  V30 447 C 48.9372 1.7612 0.691248 0
M  V30 448 O 48.2802 1.08491 1.48241 0
M  V30 449 C 48.3422 3.44284 -1.03484 0
M  V30 450 C 48.0062 3.84258 -2.47376 0
M  V30 451 C 49.0032 3.88459 -3.45537 0
M  V30 452 C 46.6882 4.15701 -2.81954 0
M  V30 453 C 48.6822 4.23545 -4.76328 0
M  V30 454 C 46.3692 4.50458 -4.12954 0
M  V30 455 C 47.3672 4.54356 -5.09951 0
M  V30 456 O 47.0552 4.88305 -6.38603 0
M  V30 457 H 46.7872 0.617527 -0.275021 0
M  V30 458 H 49.3412 1.51683 -1.38497 0
M  V30 459 H 47.5712 3.85135 -0.347513 0
M  V30 460 H 49.2602 3.99049 -0.7426 0
M  V30 461 H 50.0262 3.6431 -3.20162 0
M  V30 462 H 45.9052 4.11847 -2.0713 0
M  V30 463 H 49.4492 4.26502 -5.52035 0
M  V30 464 H 45.3462 4.74067 -4.38099 0
M  V30 465 H 46.1142 5.06227 -6.43177 0
M  V30 466 N 48.7773 0.814389 1.34928 0
M  V30 467 C 50.0543 0.321363 1.92942 0
M  V30 468 C 50.4343 -1.19014 1.74353 0
M  V30 469 O 49.7823 -1.99328 1.11716 0
M  V30 470 C 49.9923 0.741323 3.41036 0
M  V30 471 C 51.3403 0.735266 4.18185 0
M  V30 472 O 52.3643 0.68336 3.49584 0
M  V30 473 O 51.2233 0.800703 5.40602 0
M  V30 474 H 48.3173 0.0858893 0.822528 0
M  V30 475 H 50.8633 0.898609 1.43955 0
M  V30 476 H 49.6353 1.78276 3.4833 0
M  V30 477 H 49.2583 0.139307 3.97356 0
M  V30 478 N 50.2554 -1.46986 0.568584 0
M  V30 479 C 51.1884 -2.27129 -0.220779 0
M  V30 480 C 52.1664 -1.34757 -0.909905 0
M  V30 481 O 53.3504 -1.64152 -0.926622 0
M  V30 482 C 50.4774 -3.12108 -1.31553 0
M  V30 483 C 49.5234 -4.20141 -0.733748 0
M  V30 484 S 50.3564 -5.33783 0.428479 0
M  V30 485 C 51.5124 -6.22327 -0.667811 0
M  V30 486 H 51.7454 -2.93731 0.459267 0
M  V30 487 H 49.2784 -1.5026 0.355154 0
M  V30 488 H 51.2364 -3.61636 -1.94241 0
M  V30 489 H 49.8974 -2.44847 -1.96746 0
M  V30 490 H 49.0904 -4.79373 -1.5562 0
M  V30 491 H 48.6924 -3.73553 -0.182812 0
M  V30 492 H 50.9844 -6.59364 -1.55708 0
M  V30 493 H 51.9274 -7.0801 -0.11258 0
M  V30 494 H 52.3354 -5.5618 -0.965601 0
M  V30 495 N 51.7335 -0.305618 -1.54608 0
M  V30 496 C 52.9585 0.307562 -2.05107 0
M  V30 497 C 53.3835 1.46385 -1.18123 0
M  V30 498 O 52.7415 1.8034 -0.186324 0
M  V30 499 C 52.7895 0.73704 -3.52987 0
M  V30 500 O 51.8935 1.84134 -3.6901 0
M  V30 501 H 51.2345 0.0589143 -0.661381 0
M  V30 502 H 53.7645 -0.448807 -1.99617 0
M  V30 503 H 53.7745 1.02459 -3.94925 0
M  V30 504 H 52.4495 -0.108773 -4.15758 0
M  V30 505 H 51.0265 1.55398 -3.38978 0
M  V30 506 N 53.2116 1.57565 -0.0334293 0
M  V30 507 C 54.4576 1.93088 0.639417 0
M  V30 508 C 54.8126 0.910589 1.69488 0
M  V30 509 O 54.1056 -0.0727725 1.91462 0
M  V30 510 C 54.2996 3.33112 1.29504 0
M  V30 511 C 54.1286 4.48667 0.304604 0
M  V30 512 C 52.8986 5.05207 -0.0970777 0
M  V30 513 C 55.0966 5.1239 -0.442845 0
M  V30 514 N 53.0786 6.04286 -1.08223 0
M  V30 515 C 54.4496 6.06609 -1.28161 0
M  V30 516 C 56.5046 4.95352 -0.50308 0
M  V30 517 C 55.2076 6.85622 -2.17519 0
M  V30 518 C 57.2336 5.74978 -1.38401 0
M  V30 519 C 56.5956 6.68816 -2.21054 0
M  V30 520 H 52.6946 0.754335 0.206161 0
M  V30 521 H 55.2786 1.94435 -0.101613 0
M  V30 522 H 53.4496 3.32576 2.00618 0
M  V30 523 H 55.1816 3.55972 1.92525 0
M  V30 524 H 51.9366 4.72782 0.278255 0
M  V30 525 H 52.3606 6.58516 -1.57117 0
M  V30 526 H 57.0026 4.22625 0.121694 0
M  V30 527 H 54.7206 7.57652 -2.81049 0
M  V30 528 H 58.3066 5.63826 -1.43496 0
M  V30 529 H 57.1866 7.29355 -2.88116 0
M  V30 530 N 54.6897 -0.239769 1.55765 0
M  V30 531 C 55.9357 -0.968234 1.78194 0
M  V30 532 C 56.2687 -1.84701 0.599938 0
M  V30 533 O 55.5437 -1.9031 -0.401524 0
M  V30 534 C 55.8267 -1.8227 3.10564 0
M  V30 535 C 55.6797 -0.971633 4.3918 0
M  V30 536 C 56.9987 -2.80388 3.39221 0
M  V30 537 H 54.1177 -0.350572 0.648281 0
M  V30 538 H 56.7597 -0.238259 1.885 0
M  V30 539 H 54.9097 -2.44507 3.01908 0
M  V30 540 H 56.5817 -0.367408 4.59835 0
M  V30 541 H 54.8247 -0.276276 4.32919 0
M  V30 542 H 55.4957 -1.60346 5.28198 0
M  V30 543 H 57.9717 -2.28287 3.47885 0
M  V30 544 H 56.8477 -3.3729 4.33044 0
M  V30 545 H 57.1087 -3.57212 2.60484 0
M  V30 546 N 56.1678 -1.49265 -0.50573 0
M  V30 547 C 57.5838 -1.35923 -0.836486 0
M  V30 548 C 57.7838 -0.388704 -1.97715 0
M  V30 549 O 56.8398 0.181336 -2.51848 0
M  V30 550 C 58.1528 -2.76531 -1.18115 0
M  V30 551 C 59.7008 -2.85197 -1.28964 0
M  V30 552 C 60.1758 -4.26561 -1.66761 0
M  V30 553 N 61.6668 -4.2935 -1.73819 0
M  V30 554 C 62.4018 -5.35693 -2.045 0
M  V30 555 N 61.8978 -6.52287 -2.33438 0
M  V30 556 N 63.6908 -5.23105 -2.05711 0
M  V30 557 H 55.8418 -2.10965 0.246519 0
M  V30 558 H 58.1048 -0.9468 0.0476887 0
M  V30 559 H 57.8108 -3.49226 -0.416398 0
M  V30 560 H 57.6848 -3.11599 -2.1257 0
M  V30 561 H 60.0718 -2.12742 -2.04511 0
M  V30 562 H 60.1528 -2.53718 -0.325704 0
M  V30 563 H 59.7968 -4.99541 -0.917656 0
M  V30 564 H 59.7268 -4.55502 -2.64246 0
M  V30 565 H 62.2178 -3.4526 -1.53635 0
M  V30 566 H 62.5308 -7.29158 -2.56024 0
M  V30 567 H 60.8758 -6.55521 -2.30905 0
M  V30 568 H 64.0668 -4.31026 -1.82577 0
M  V30 569 H 64.2398 -6.06078 -2.29289 0
M  V30 570 N 57.6459 0.756429 -1.3826 0
M  V30 571 C 58.5779 1.87971 -1.31147 0
M  V30 572 C 59.5909 1.61248 -0.224239 0
M  V30 573 O 60.7799 1.71881 -0.481581 0
M  V30 574 C 57.8799 3.23545 -1.00857 0
M  V30 575 C 57.0529 3.77794 -2.20432 0
M  V30 576 C 56.1119 4.91877 -1.86931 0
M  V30 577 O 55.1379 5.06659 -2.59395 0
M  V30 578 N 56.3399 5.74643 -0.822568 0
M  V30 579 H 59.1049 1.94585 -2.2794 0
M  V30 580 H 56.6659 0.936234 -1.32084 0
M  V30 581 H 58.6579 3.97403 -0.765021 0
M  V30 582 H 57.2279 3.12335 -0.128687 0
M  V30 583 H 56.4479 2.95534 -2.6087 0
M  V30 584 H 57.7359 4.10771 -3.00241 0
M  V30 585 H 57.1339 5.65266 -0.221575 0
M  V30 586 H 55.6909 6.48661 -0.638899 0
M  V30 587 N 59.124 1.23083 0.984299 0
M  V30 588 C 60.352 1.08714 1.76037 0
M  V30 589 C 60.767 -0.361691 1.85303 0
M  V30 590 O 60.124 -1.25034 1.32939 0
M  V30 591 C 60.175 1.70206 3.18923 0
M  V30 592 O 59.896 3.09423 3.10144 0
M  V30 593 C 61.397 1.61227 4.12941 0
M  V30 594 H 58.617 0.380664 0.552572 0
M  V30 595 H 61.161 1.62853 1.23689 0
M  V30 596 H 59.316 1.20109 3.6831 0
M  V30 597 H 59.73 3.39188 4.00065 0
M  V30 598 H 61.204 2.08962 5.10919 0
M  V30 599 H 61.681 0.570375 4.35481 0
M  V30 600 H 62.287 2.10671 3.69456 0
M  V30 601 N 60.6021 -1.18246 1.0419 0
M  V30 602 C 62.0131 -1.69914 0.773698 0
M  V30 603 C 62.3641 -1.83085 -0.705297 0
M  V30 604 O 61.4891 -1.51123 -1.5489 0
M  V30 605 C 62.0841 -3.08619 1.39784 0
M  V30 606 C 60.6431 -3.57494 1.17792 0
M  V30 607 C 59.7901 -2.34013 1.48773 0
M  V30 608 H 62.7411 -1.02904 1.20816 0
M  V30 609 H 62.7621 -3.71958 0.801714 0
M  V30 610 H 62.2741 -2.99001 2.47426 0
M  V30 611 H 60.3751 -3.72406 0.120295 0
M  V30 612 H 60.4881 -4.40852 1.87581 0
M  V30 613 H 58.8521 -2.37986 0.907463 0
M  V30 614 H 59.6351 -2.27013 2.57527 0
M  V30 615 N 62.0802 -0.821533 -1.34494 0
M  V30 616 C 62.9902 -0.244355 -2.33324 0
M  V30 617 C 64.0062 0.620527 -1.62559 0
M  V30 618 O 65.1822 0.528754 -1.94335 0
M  V30 619 C 62.2472 0.585368 -3.41723 0
M  V30 620 C 61.3082 -0.301752 -4.28238 0
M  V30 621 C 60.5412 0.488466 -5.3146 0
M  V30 622 O 60.7642 1.72186 -5.4379 0
M  V30 623 O 59.6982 -0.12848 -6.01763 0
M  V30 624 H 63.5242 -1.06231 -2.84515 0
M  V30 625 H 61.1092 -0.583645 -1.37528 0
M  V30 626 H 62.9912 1.05747 -4.07916 0
M  V30 627 H 61.6662 1.38068 -2.92778 0
M  V30 628 H 60.5732 -0.821315 -3.64973 0
M  V30 629 H 61.9062 -1.06138 -4.8062 0
M  V30 630 N 63.5583 1.46682 -0.576371 0
M  V30 631 C 64.5053 2.30241 0.160499 0
M  V30 632 C 65.4753 1.40233 0.890162 0
M  V30 633 O 66.6603 1.69186 0.882084 0
M  V30 634 C 63.8003 3.24578 1.1723 0
M  V30 635 C 62.9133 4.29684 0.446736 0
M  V30 636 C 62.0483 5.11154 1.44551 0
M  V30 637 C 61.0873 6.08015 0.70599 0
M  V30 638 N 60.2243 6.82376 1.65251 0
M  V30 639 H 65.0643 2.92727 -0.558127 0
M  V30 640 H 62.6013 1.44272 -0.287056 0
M  V30 641 H 64.5593 3.77711 1.77172 0
M  V30 642 H 63.1893 2.63916 1.85872 0
M  V30 643 H 62.2413 3.79458 -0.267594 0
M  V30 644 H 63.5533 4.98626 -0.131686 0
M  V30 645 H 62.7073 5.68533 2.11791 0
M  V30 646 H 61.4463 4.42158 2.05786 0
M  V30 647 H 60.4513 5.49796 0.0197725 0
M  V30 648 H 61.6763 6.79028 0.09912 0
M  V30 649 H 59.6223 6.16094 2.25308 0
M  V30 650 H 59.5393 7.47556 1.12673 0
M  V30 651 H 60.8073 7.44316 2.31546 0
M  V30 652 N 65.0364 0.313813 1.54444 0
M  V30 653 C 66.2764 -0.292389 2.02298 0
M  V30 654 C 66.6404 -1.50105 1.19719 0
M  V30 655 O 67.8414 -2.17947 1.5733 0
M  V30 656 C 66.1124 -0.627682 3.51845 0
M  V30 657 S 67.6714 -1.21493 4.21646 0
M  V30 658 H 64.4894 -0.0890247 0.705405 0
M  V30 659 H 67.0914 0.444668 1.90376 0
M  V30 660 H 65.7954 0.260265 4.09574 0
M  V30 661 H 65.3264 -1.39519 3.67829 0
M  V30 662 H 67.3414 -2.5022 4.28491 0
M  V30 663 N 66.5145 -1.57545 0.0417849 0
M  V30 664 C 67.4445 -2.14009 -0.933929 0
M  V30 665 C 68.4255 -1.05938 -1.33083 0
M  V30 666 O 69.6105 -1.33833 -1.40721 0
M  V30 667 C 66.7405 -2.67747 -2.21199 0
M  V30 668 C 65.6945 -3.80718 -1.95544 0
M  V30 669 C 65.0205 -4.20935 -3.29724 0
M  V30 670 C 66.3205 -5.06258 -1.28452 0
M  V30 671 H 68.0145 -2.95788 -0.463645 0
M  V30 672 H 65.5605 -1.42285 -0.221573 0
M  V30 673 H 67.5135 -3.05886 -2.89848 0
M  V30 674 H 66.2375 -1.83147 -2.70416 0
M  V30 675 H 64.8965 -3.43037 -1.2931 0
M  V30 676 H 64.5445 -3.33298 -3.76724 0
M  V30 677 H 64.2445 -4.9707 -3.13361 0
M  V30 678 H 65.7685 -4.61666 -3.9962 0
M  V30 679 H 67.1825 -5.41903 -1.8712 0
M  V30 680 H 65.5795 -5.87475 -1.22445 0
M  V30 681 H 66.6495 -4.84207 -0.259219 0
M  V30 682 N 67.9926 0.231505 -1.5589 0
M  V30 683 C 68.9026 1.308 -1.94752 0
M  V30 684 C 69.9186 1.51826 -0.849989 0
M  V30 685 O 71.0946 1.6515 -1.15271 0
M  V30 686 C 68.1596 2.63968 -2.24771 0
M  V30 687 C 67.2206 2.51331 -3.48039 0
M  V30 688 C 66.4536 3.78148 -3.76616 0
M  V30 689 O 66.6766 4.80722 -3.07022 0
M  V30 690 O 65.6106 3.75857 -4.70123 0
M  V30 691 H 69.4366 1.0083 -2.86474 0
M  V30 692 H 67.0216 0.433547 -1.42971 0
M  V30 693 H 68.9036 3.42633 -2.45318 0
M  V30 694 H 67.5786 2.9364 -1.36225 0
M  V30 695 H 66.4856 1.709 -3.32782 0
M  V30 696 H 67.8186 2.26601 -4.36936 0
M  V30 697 N 69.4707 1.49531 0.497807 0
M  V30 698 C 70.7167 1.60388 1.25089 0
M  V30 699 C 71.0717 0.288328 1.90227 0
M  V30 700 O 70.3647 -0.711706 1.77891 0
M  V30 701 C 70.5587 2.70252 2.33878 0
M  V30 702 C 70.3877 4.12363 1.79408 0
M  V30 703 C 69.1577 4.7911 1.60566 0
M  V30 704 C 71.3557 4.97491 1.30412 0
M  V30 705 N 69.3377 6.05525 1.01059 0
M  V30 706 C 70.7087 6.14411 0.830595 0
M  V30 707 C 72.7637 4.83466 1.19015 0
M  V30 708 C 71.4667 7.1885 0.254371 0
M  V30 709 C 73.4927 5.88057 0.627892 0
M  V30 710 C 72.8547 7.04208 0.16461 0
M  V30 711 H 68.9537 0.641246 0.447579 0
M  V30 712 H 71.5377 1.86549 0.557441 0
M  V30 713 H 69.7087 2.45858 3.0068 0
M  V30 714 H 71.4407 2.70613 3.00917 0
M  V30 715 H 68.1957 4.35961 1.85026 0
M  V30 716 H 68.6197 6.73028 0.732236 0
M  V30 717 H 73.2617 3.93978 1.53431 0
M  V30 718 H 70.9797 8.08036 -0.102052 0
M  V30 719 H 74.5657 5.79266 0.542444 0
M  V30 720 H 73.4457 7.83757 -0.263669 0
M  V30 721 N 70.9488 -0.749086 1.3866 0
M  V30 722 C 72.1948 -1.51056 1.35314 0
M  V30 723 C 72.5278 -1.94121 -0.0553751 0
M  V30 724 O 71.8028 -1.65763 -1.01749 0
M  V30 725 C 72.0858 -2.76003 2.31288 0
M  V30 726 C 71.9388 -2.39047 3.8102 0
M  V30 727 C 73.2578 -3.78046 2.2532 0
M  V30 728 H 70.3768 -0.547972 0.492844 0
M  V30 729 H 73.0188 -0.857628 1.69543 0
M  V30 730 H 71.1688 -3.31716 2.02229 0
M  V30 731 H 72.8408 -1.89074 4.20771 0
M  V30 732 H 71.0838 -1.71449 3.98482 0
M  V30 733 H 71.7548 -3.28462 4.4364 0
M  V30 734 H 74.2308 -3.31884 2.50983 0
M  V30 735 H 73.1068 -4.63159 2.94576 0
M  V30 736 H 73.3678 -4.23957 1.25352 0
M  V30 737 N 72.4269 -1.23603 -0.977757 0
M  V30 738 C 73.3899 -1.02069 -2.05218 0
M  V30 739 C 74.3899 0.0184305 -1.60789 0
M  V30 740 O 75.5799 -0.221569 -1.72785 0
M  V30 741 C 72.7119 -0.544926 -3.36517 0
M  V30 742 H 73.9049 -1.9742 -2.25755 0
M  V30 743 H 71.4579 -1.05684 -1.15155 0
M  V30 744 H 72.1929 0.412241 -3.21669 0
M  V30 745 H 71.9779 -1.2948 -3.70105 0
M  V30 746 H 73.4679 -0.414985 -4.15533 0
M  V30 747 N 73.905 1.17692 -1.04816 0
M  V30 748 C 75.135 1.91508 -0.775128 0
M  V30 749 C 75.543 1.76844 0.67253 0
M  V30 750 O 74.886 1.10057 1.47082 0
M  V30 751 C 74.948 3.43167 -1.0713 0
M  V30 752 C 74.612 3.81612 -2.51438 0
M  V30 753 C 75.609 3.84772 -3.49638 0
M  V30 754 C 73.294 4.12687 -2.86348 0
M  V30 755 C 75.288 4.18469 -4.80794 0
M  V30 756 C 72.975 4.46053 -4.17708 0
M  V30 757 C 73.973 4.48921 -5.14741 0
M  V30 758 O 73.661 4.81504 -6.43746 0
M  V30 759 H 73.393 0.614575 -0.281555 0
M  V30 760 H 75.947 1.50206 -1.40098 0
M  V30 761 H 74.177 3.84745 -0.388342 0
M  V30 762 H 75.866 3.98239 -0.784883 0
M  V30 763 H 76.632 3.60893 -3.24008 0
M  V30 764 H 72.511 4.09627 -2.11486 0
M  V30 765 H 76.055 4.20623 -5.56527 0
M  V30 766 H 71.952 4.69393 -4.43103 0
M  V30 767 H 72.72 4.99377 -6.4851 0
M  V30 768 N 75.3831 0.828654 1.34056 0
M  V30 769 C 76.6321 0.415828 1.97367 0
M  V30 770 C 76.9451 -1.02796 1.6641 0
M  V30 771 O 78.1511 -1.54497 2.23255 0
M  V30 772 C 76.6071 0.692601 3.53173 0
M  V30 773 C 76.2151 2.15038 3.93017 0
M  V30 774 C 77.9591 0.346222 4.23086 0
M  V30 775 C 75.8661 2.37174 5.41758 0
M  V30 776 H 74.7961 0.151755 0.738571 0
M  V30 777 H 77.4471 1.01581 1.52819 0
M  V30 778 H 75.8291 0.0223764 3.95994 0
M  V30 779 H 77.0031 2.86024 3.61285 0
M  V30 780 H 75.3181 2.45875 3.36057 0
M  V30 781 H 77.9151 0.48937 5.32456 0
M  V30 782 H 78.2581 -0.709842 4.10204 0
M  V30 783 H 78.7911 0.971258 3.85761 0
M  V30 784 H 75.5301 3.41308 5.59633 0
M  V30 785 H 75.0501 1.70738 5.74986 0
M  V30 786 H 76.7291 2.19818 6.08514 0
M  V30 787 N 76.8612 -1.46375 0.584142 0
M  V30 788 C 78.0862 -2.07268 0.0740405 0
M  V30 789 C 78.5112 -1.42979 -1.22223 0
M  V30 790 O 77.8692 -0.514092 -1.73859 0
M  V30 791 C 77.9172 -3.60518 -0.0767769 0
M  V30 792 O 77.0212 -3.96533 -1.13292 0
M  V30 793 H 76.3622 -0.660961 0.0634524 0
M  V30 794 H 78.8922 -1.87991 0.807492 0
M  V30 795 H 78.9022 -4.07021 -0.282489 0
M  V30 796 H 77.5772 -4.06702 0.86986 0
M  V30 797 H 76.1542 -3.61738 -0.905553 0
M  V30 798 N 78.3393 -0.321999 -1.54275 0
M  V30 799 C 79.5643 0.285791 -2.05422 0
M  V30 800 C 79.9893 1.45124 -1.19669 0
M  V30 801 O 79.3473 1.80132 -0.205441 0
M  V30 802 C 79.3953 0.69956 -3.53749 0
M  V30 803 O 78.4993 1.8021 -3.70942 0
M  V30 804 H 77.8403 0.0518962 -0.661969 0
M  V30 805 H 80.3703 -0.469954 -1.9913 0
M  V30 806 H 80.3803 0.982649 -3.9599 0
M  V30 807 H 79.0553 -0.152864 -4.15619 0
M  V30 808 H 77.6323 1.51794 -3.40607 0
M  V30 809 N 79.8174 1.5752 -0.0501392 0
M  V30 810 C 81.0654 1.9227 0.622642 0
M  V30 811 C 81.3864 0.929083 1.71444 0
M  V30 812 O 80.6564 -0.0262186 1.95882 0
M  V30 813 H 79.2364 0.709739 0.232981 0
M  V30 814 H 81.8984 1.94628 -0.102898 0
M  V30 815 H 80.9944 2.93479 1.06191 0
M  V30 816 N 81.2955 -0.223234 1.56011 0
M  V30 817 C 82.5435 -0.946003 1.78592 0
M  V30 818 C 82.8645 -1.84936 0.618349 0
M  V30 819 O 82.1345 -1.92473 -0.364833 0
M  V30 820 H 80.7145 -0.352298 0.658707 0
M  V30 821 H 83.3765 -0.235494 1.93472 0
M  V30 822 H 82.4725 -1.55381 2.70672 0
M  V30 823 N 82.7736 -1.49793 -0.48987 0
M  V30 824 C 84.0216 -1.59525 -1.24081 0
M  V30 825 C 84.3426 -0.288953 -1.92847 0
M  V30 826 O 83.6126 0.692436 -1.83254 0
M  V30 827 H 82.1926 -0.587796 -0.460983 0
M  V30 828 H 84.8546 -1.86477 -0.566778 0
M  V30 829 H 83.9506 -2.39696 -1.99881 0
M  V30 830 N 84.2517 0.741722 -1.39055 0
M  V30 831 C 85.4797 1.53098 -1.39171 0
M  V30 832 C 85.8947 1.88794 0.0155099 0
M  V30 833 O 85.2517 1.53626 0.985159 0
M  V30 834 C 85.3027 2.82274 -2.2584 0
M  V30 835 O 85.0237 2.48097 -3.61081 0
M  V30 836 C 86.5247 3.76343 -2.34266 0
M  V30 837 H 83.7447 0.473335 -0.4756 0
M  V30 838 H 86.2887 0.917045 -1.82785 0
M  V30 839 H 84.4437 3.40015 -1.85656 0
M  V30 840 H 84.8577 3.31029 -4.06842 0
M  V30 841 H 86.3317 4.63898 -2.9917 0
M  V30 842 H 86.8087 4.17619 -1.35982 0
M  V30 843 H 87.4147 3.24523 -2.74891 0
M  V30 844 N 85.7298 1.2412 0.971189 0
M  V30 845 C 86.9578 1.10575 1.74874 0
M  V30 846 C 87.3728 -0.342017 1.85676 0
M  V30 847 O 86.7298 -1.23617 1.34258 0
M  V30 848 C 86.7808 1.73579 3.171 0
M  V30 849 O 86.5018 3.12695 3.06844 0
M  V30 850 C 88.0028 1.65598 4.11208 0
M  V30 851 H 85.2228 0.386504 0.548503 0
M  V30 852 H 87.7668 1.64156 1.21955 0
M  V30 853 H 85.9218 1.24009 3.67016 0
M  V30 854 H 86.3358 3.43412 3.96445 0
M  V30 855 H 87.8098 2.1437 5.08674 0
M  V30 856 H 88.2868 0.616532 4.34851 0
M  V30 857 H 88.8928 2.14578 3.67201 0
M  V30 858 N 87.2079 -1.17134 1.05439 0
M  V30 859 C 88.4379 -1.91094 0.785274 0
M  V30 860 C 88.8459 -1.77198 -0.663142 0
M  V30 861 O 88.1889 -1.10835 -1.46497 0
M  V30 862 C 88.2509 -3.42594 1.08949 0
M  V30 863 C 87.9149 -3.80274 2.53458 0
M  V30 864 C 88.9119 -3.82912 3.51673 0
M  V30 865 C 86.5969 -4.11162 2.88532 0
M  V30 866 C 88.5909 -4.15913 4.83006 0
M  V30 867 C 86.2779 -4.43831 4.20068 0
M  V30 868 C 87.2759 -4.46185 5.17115 0
M  V30 869 O 86.9639 -4.78083 6.46291 0
M  V30 870 H 86.6959 -0.613073 0.284811 0
M  V30 871 H 89.2499 -1.49461 1.40893 0
M  V30 872 H 87.4799 -3.84534 0.408741 0
M  V30 873 H 89.1689 -3.97817 0.805991 0
M  V30 874 H 89.9349 -3.5917 3.25917 0
M  V30 875 H 85.8139 -4.085 2.13656 0
M  V30 876 H 89.3579 -4.17665 5.5875 0
M  V30 877 H 85.2549 -4.67037 4.45586 0
M  V30 878 H 86.0229 -4.9593 6.51149 0
M  V30 879 N 88.686 -0.835752 -1.33615 0
M  V30 880 C 89.916 -0.442701 -2.01801 0
M  V30 881 C 90.324 0.959807 -1.63047 0
M  V30 882 O 89.667 1.63468 -0.838088 0
M  V30 883 C 89.729 -0.480125 -3.56279 0
M  V30 884 C 89.393 -1.8382 -4.18401 0
M  V30 885 C 90.39 -2.80097 -4.37998 0
M  V30 886 C 88.075 -2.13019 -4.54894 0
M  V30 887 C 90.069 -4.03736 -4.9323 0
M  V30 888 C 87.756 -3.36916 -5.09834 0
M  V30 889 C 88.754 -4.32091 -5.28948 0
M  V30 890 O 88.442 -5.53797 -5.82721 0
M  V30 891 H 88.174 -0.17441 -0.653114 0
M  V30 892 H 90.728 -1.129 -1.71589 0
M  V30 893 H 88.958 0.262931 -3.85805 0
M  V30 894 H 90.647 -0.105335 -4.05763 0
M  V30 895 H 91.413 -2.58838 -4.10156 0
M  V30 896 H 87.292 -1.39733 -4.39313 0
M  V30 897 H 90.836 -4.78034 -5.08064 0
M  V30 898 H 86.733 -3.58033 -5.37106 0
M  V30 899 H 87.501 -5.55494 -6.0114 0
M  V30 900 N 90.1641 1.46063 -0.591896 0
M  V30 901 C 91.5751 1.85944 -0.167822 0
M  V30 902 C 91.9261 1.49429 1.27143 0
M  V30 903 O 91.0511 0.913515 1.96173 0
M  V30 904 C 91.6461 3.37489 -0.297794 0
M  V30 905 C 90.2051 3.76332 0.0714732 0
M  V30 906 C 89.3521 2.7006 -0.629509 0
M  V30 907 H 92.3031 1.37087 -0.799555 0
M  V30 908 H 92.3241 3.77532 0.474349 0
M  V30 909 H 91.8361 3.64034 -1.3454 0
M  V30 910 H 89.9371 3.55405 1.11886 0
M  V30 911 H 90.0501 4.78088 -0.311245 0
M  V30 912 H 88.4141 2.54607 -0.0687867 0
M  V30 913 H 89.1971 2.99444 -1.67894 0
M  V30 914 N 91.6422 0.330177 1.54103 0
M  V30 915 C 92.9192 -0.325007 1.92881 0
M  V30 916 C 93.2992 -1.6934 1.26045 0
M  V30 917 O 92.6472 -2.24855 0.406526 0
M  V30 918 C 92.8572 -0.410634 3.46576 0
M  V30 919 C 94.2052 -0.667801 4.19316 0
M  V30 920 O 95.2292 -0.49329 3.52768 0
M  V30 921 O 94.0882 -1.00491 5.37181 0
M  V30 922 H 91.1822 -0.186873 0.80561 0
M  V30 923 H 93.7282 0.380376 1.65382 0
M  V30 924 H 92.5002 0.550164 3.87413 0
M  V30 925 H 92.1232 -1.16333 3.802 0
M  V30 926 N 93.1203 -1.57491 0.0584922 0
M  V30 927 C 94.3483 -1.97296 -0.623037 0
M  V30 928 C 94.7633 -0.936338 -1.63946 0
M  V30 929 O 94.1203 0.0785981 -1.82331 0
M  V30 930 C 94.1713 -3.37183 -1.30345 0
M  V30 931 O 93.8923 -4.36872 -0.32773 0
M  V30 932 C 95.3933 -3.91788 -2.07406 0
M  V30 933 H 92.6133 -0.649153 -0.169826 0
M  V30 934 H 95.1573 -2.04106 0.12696 0
M  V30 935 H 93.3123 -3.31502 -2.00463 0
M  V30 936 H 93.7263 -5.18141 -0.814269 0
M  V30 937 H 95.2003 -4.91926 -2.50425 0
M  V30 938 H 95.6773 -3.27609 -2.92521 0
M  V30 939 H 96.2833 -4.00829 -1.42184 0
M  V30 940 N 94.5984 0.214957 -1.56127 0
M  V30 941 C 95.8444 0.939762 -1.79712 0
M  V30 942 C 96.1774 1.83723 -0.629247 0
M  V30 943 O 95.4524 1.90925 0.371197 0
M  V30 944 C 95.7354 1.77306 -3.13424 0
M  V30 945 C 95.5884 0.90164 -4.40671 0
M  V30 946 C 96.9074 2.74956 -3.43638 0
M  V30 947 H 94.0264 0.340214 -0.653776 0
M  V30 948 H 96.6684 0.20824 -1.88855 0
M  V30 949 H 94.8184 2.39673 -3.0576 0
M  V30 950 H 96.4904 0.294206 -4.60361 0
M  V30 951 H 94.7334 0.207368 -4.33304 0
M  V30 952 H 95.4044 1.51923 -5.30682 0
M  V30 953 H 97.8804 2.22724 -3.51473 0
M  V30 954 H 96.7564 3.30358 -4.38355 0
M  V30 955 H 97.0174 3.53023 -2.66134 0
M  V30 956 N 96.0765 1.50051 0.48192 0
M  V30 957 C 97.0235 1.68122 1.58125 0
M  V30 958 C 97.9935 0.522545 1.57666 0
M  V30 959 O 99.1785 0.751844 1.75362 0
M  V30 960 C 96.3185 1.77142 2.96167 0
M  V30 961 C 95.4315 3.0444 3.06497 0
M  V30 962 C 94.5665 3.04321 4.35387 0
M  V30 963 C 93.6055 4.26118 4.3942 0
M  V30 964 N 92.7425 4.238 5.59766 0
M  V30 965 H 97.5825 2.6198 1.42022 0
M  V30 966 H 95.1195 1.29877 0.690687 0
M  V30 967 H 97.0775 1.80352 3.76203 0
M  V30 968 H 95.7075 0.867329 3.1093 0
M  V30 969 H 94.7595 3.10752 2.19402 0
M  V30 970 H 96.0715 3.94426 3.05336 0
M  V30 971 H 95.2255 3.062 5.23762 0
M  V30 972 H 93.9645 2.12147 4.39141 0
M  V30 973 H 92.9695 4.24463 3.49444 0
M  V30 974 H 94.1945 5.19507 4.37366 0
M  V30 975 H 92.1405 3.34474 5.64326 0
M  V30 976 H 92.0575 5.07542 5.60301 0
M  V30 977 H 93.3255 4.2981 6.50295 0
M  V30 978 N 97.5546 -0.734337 1.39446 0
M  V30 979 C 98.8026 -1.49096 1.36436 0
M  V30 980 C 99.1236 -1.94961 -0.0388255 0
M  V30 981 O 98.3936 -1.69033 -0.990191 0
M  V30 982 H 96.9736 -0.5531 0.502085 0
M  V30 983 H 99.6356 -0.871725 1.74319 0
M  V30 984 H 98.7316 -2.37276 2.02747 0
M  V30 985 N 99.0327 -1.24633 -0.964593 0
M  V30 986 C 100.449 -1.01239 -1.2338 0
M  V30 987 C 100.649 0.2769 -1.99588 0
M  V30 988 O 99.7047 0.992241 -2.32187 0
M  V30 989 C 101.018 -2.22937 -2.01791 0
M  V30 990 C 102.566 -2.27594 -2.14872 0
M  V30 991 C 103.041 -3.48921 -2.96678 0
M  V30 992 N 104.532 -3.49257 -3.04259 0
M  V30 993 C 105.267 -4.39795 -3.67924 0
M  V30 994 N 104.763 -5.40591 -4.33281 0
M  V30 995 N 106.556 -4.275 -3.64966 0
M  V30 996 H 98.7067 -2.0748 -0.454502 0
M  V30 997 H 100.97 -0.910647 -0.26349 0
M  V30 998 H 100.676 -3.16587 -1.53184 0
M  V30 999 H 100.55 -2.25306 -3.02518 0
M  V30 1000 H 102.937 -1.34473 -2.6268 0
M  V30 1001 H 103.018 -2.2925 -1.13482 0
M  V30 1002 H 102.662 -4.42359 -2.49562 0
M  V30 1003 H 102.592 -3.4451 -3.98272 0
M  V30 1004 H 105.083 -2.76337 -2.57771 0
M  V30 1005 H 105.396 -6.05904 -4.79687 0
M  V30 1006 H 103.741 -5.44475 -4.3194 0
M  V30 1007 H 106.932 -3.47987 -3.13086 0
M  V30 1008 H 107.105 -4.98258 -4.14298 0
M  V30 1009 N 100.511 1.16574 -1.06058 0
M  V30 1010 C 101.758 1.87047 -0.775873 0
M  V30 1011 C 102.086 1.81562 0.697534 0
M  V30 1012 O 101.341 1.22445 1.52662 0
M  V30 1013 C 101.64 3.36195 -1.21275 0
M  V30 1014 C 101.306 3.6188 -2.68986 0
M  V30 1015 C 99.9678 3.68599 -3.09335 0
M  V30 1016 C 102.32 3.72648 -3.64394 0
M  V30 1017 C 99.6478 3.83584 -4.43937 0
M  V30 1018 C 102 3.89154 -4.98741 0
M  V30 1019 C 100.664 3.94114 -5.3873 0
M  V30 1020 H 99.9338 0.684452 -0.283912 0
M  V30 1021 H 102.581 1.37853 -1.32925 0
M  V30 1022 H 100.886 3.87505 -0.578528 0
M  V30 1023 H 102.583 3.89103 -0.969542 0
M  V30 1024 H 99.1728 3.57281 -2.36744 0
M  V30 1025 H 103.357 3.66769 -3.34356 0
M  V30 1026 H 98.6128 3.85677 -4.74409 0
M  V30 1027 H 102.787 3.96427 -5.72554 0
M  V30 1028 H 100.414 4.05478 -6.43033 0
M  V30 1029 N 101.989 0.842826 1.3317 0
M  V30 1030 C 103.217 0.454055 2.01856 0
M  V30 1031 C 103.632 -0.94587 1.63397 0
M  V30 1032 O 102.989 -1.61534 0.849302 0
M  V30 1033 C 103.04 0.569715 3.56982 0
M  V30 1034 O 102.761 1.91448 3.94055 0
M  V30 1035 C 104.262 0.178412 4.42941 0
M  V30 1036 H 101.482 0.17979 0.646465 0
M  V30 1037 H 104.026 1.1365 1.70012 0
M  V30 1038 H 102.181 -0.0648587 3.87346 0
M  V30 1039 H 102.595 1.90282 4.88767 0
M  V30 1040 H 104.069 0.310376 5.51127 0
M  V30 1041 H 104.546 -0.880056 4.30293 0
M  V30 1042 H 105.152 0.787579 4.17944 0
M  V30 1043 N 103.467 -1.45747 0.599634 0
M  V30 1044 C 104.716 -2.01502 0.0893511 0
M  V30 1045 C 105.029 -1.4748 -1.28488 0
M  V30 1046 O 106.235 -1.95161 -1.88745 0
M  V30 1047 C 104.691 -3.59735 0.109082 0
M  V30 1048 C 104.299 -4.22754 1.48267 0
M  V30 1049 C 106.043 -4.23085 -0.346374 0
M  V30 1050 C 103.95 -5.73115 1.45921 0
M  V30 1051 H 102.88 -0.753417 0.0296347 0
M  V30 1052 H 105.531 -1.67303 0.753788 0
M  V30 1053 H 103.913 -3.91087 -0.621854 0
M  V30 1054 H 105.087 -4.02987 2.23468 0
M  V30 1055 H 103.402 -3.71567 1.87955 0
M  V30 1056 H 105.999 -5.33327 -0.38298 0
M  V30 1057 H 106.342 -3.93201 -1.36743 0
M  V30 1058 H 106.875 -3.9642 0.331038 0
M  V30 1059 H 103.614 -6.07685 2.45762 0
M  V30 1060 H 103.134 -5.95097 0.749665 0
M  V30 1061 H 104.813 -6.3616 1.17941 0
M  V30 1062 N 104.945 -0.338344 -1.53925 0
M  V30 1063 C 106.17 0.263987 -2.05713 0
M  V30 1064 C 106.595 1.43847 -1.21201 0
M  V30 1065 O 105.953 1.79904 -0.224535 0
M  V30 1066 C 106.001 0.662 -3.54471 0
M  V30 1067 O 105.105 1.76265 -3.72833 0
M  V30 1068 H 104.446 0.0448722 -0.662482 0
M  V30 1069 H 106.976 -0.491048 -1.9862 0
M  V30 1070 H 106.986 0.940594 -3.9701 0
M  V30 1071 H 105.661 -0.196937 -4.15433 0
M  V30 1072 H 104.238 1.48173 -3.42198 0
M  V30 1073 N 106.423 1.57458 -0.0668435 0
M  V30 1074 C 107.839 1.56947 0.289772 0
M  V30 1075 C 108.039 1.07584 1.70376 0
M  V30 1076 O 107.095 0.739486 2.41429 0
M  V30 1077 C 108.408 3.0052 0.103943 0
M  V30 1078 C 109.956 3.12517 0.173857 0
M  V30 1079 C 110.431 4.57997 0.0163682 0
M  V30 1080 N 111.922 4.63144 0.0721352 0
M  V30 1081 C 112.657 5.73394 -0.0253794 0
M  V30 1082 N 112.153 6.92576 -0.176133 0
M  V30 1083 N 113.946 5.62091 0.0313305 0
M  V30 1084 H 106.097 1.87863 -0.991027 0
M  V30 1085 H 108.36 0.86583 -0.38606 0
M  V30 1086 H 108.066 3.40729 -0.871572 0
M  V30 1087 H 107.94 3.67304 0.858366 0
M  V30 1088 H 110.327 2.72197 1.13985 0
M  V30 1089 H 110.408 2.48381 -0.611586 0
M  V30 1090 H 110.052 4.99005 -0.946374 0
M  V30 1091 H 109.982 5.20158 0.821153 0
M  V30 1092 H 112.473 3.77436 0.187263 0
M  V30 1093 H 112.786 7.72418 -0.242821 0
M  V30 1094 H 111.131 6.94678 -0.211429 0
M  V30 1095 H 114.322 4.67867 0.147773 0
M  V30 1096 H 114.495 6.47982 -0.048121 0
M  V30 1097 N 107.901 -0.206675 1.56239 0
M  V30 1098 C 109.178 -0.954051 1.70755 0
M  V30 1099 C 109.558 -2.01841 0.618353 0
M  V30 1100 O 108.906 -2.25444 -0.372434 0
M  V30 1101 C 109.116 -1.551 3.12642 0
M  V30 1102 C 110.464 -2.03757 3.72516 0
M  V30 1103 O 111.488 -1.64965 3.15698 0
M  V30 1104 O 110.347 -2.75103 4.72208 0
M  V30 1105 H 107.441 -0.446636 0.696021 0
M  V30 1106 H 109.987 -0.197283 1.68549 0
M  V30 1107 H 108.759 -0.783212 3.83382 0
M  V30 1108 H 108.382 -2.37291 3.19028 0
M  V30 1109 N 109.379 -1.50304 -0.473955 0
M  V30 1110 C 110.327 -1.69482 -1.59307 0
M  V30 1111 C 111.321 -0.560669 -1.59853 0
M  V30 1112 O 112.527 -0.741087 -1.64036 0
M  V30 1113 H 108.902 -0.534892 -0.528578 0
M  V30 1114 H 110.873 -2.63364 -1.40293 0
M  V30 1115 C 109.622 -1.80354 -2.97267 0
M  V30 1116 H 108.945 -2.67012 -2.97564 0
M  V30 1117 H 110.385 -1.97798 -3.75036 0
M  V30 1118 C 108.844 -0.55448 -3.32306 0
M  V30 1119 O 109.374 0.307661 -4.0052 0
M  V30 1120 N 107.58 -0.409354 -2.87702 0
M  V30 1121 H 107.127 -1.11196 -2.32364 0
M  V30 1122 H 107.085 0.425223 -3.11511 0
M  V30 1123 N 110.857 0.726932 -1.39834 0
M  V30 1124 C 111.82 1.82269 -1.38962 0
M  V30 1125 C 112.82 1.58248 -0.285334 0
M  V30 1126 O 114.01 1.65499 -0.54366 0
M  V30 1127 C 111.142 3.20186 -1.17019 0
M  V30 1128 H 112.335 1.84443 -2.36476 0
M  V30 1129 H 109.888 0.931416 -1.25516 0
M  V30 1130 H 110.623 3.23669 -0.202204 0
M  V30 1131 H 110.408 3.3902 -1.96998 0
M  V30 1132 H 111.898 4.00235 -1.1917 0
M  V30 1133 N 112.336 1.25143 0.95797 0
M  V30 1134 C 113.283 1.05235 2.05412 0
M  V30 1135 C 114.253 -0.0374561 1.66058 0
M  V30 1136 O 115.438 0.119073 1.90428 0
M  V30 1137 C 112.578 0.673589 3.38462 0
M  V30 1138 C 111.691 1.8379 3.90954 0
M  V30 1139 C 110.826 1.40381 5.12315 0
M  V30 1140 C 109.865 2.53746 5.57027 0
M  V30 1141 N 109.002 2.11136 6.69601 0
M  V30 1142 H 113.842 1.99048 2.21774 0
M  V30 1143 H 111.379 0.991277 1.08683 0
M  V30 1144 H 113.337 0.434964 4.14926 0
M  V30 1145 H 111.967 -0.227554 3.21997 0
M  V30 1146 H 111.019 2.18992 3.11041 0
M  V30 1147 H 112.331 2.68937 4.20089 0
M  V30 1148 H 111.485 1.12464 5.96185 0
M  V30 1149 H 110.224 0.523015 4.84887 0
M  V30 1150 H 109.229 2.82412 4.71724 0
M  V30 1151 H 110.454 3.42398 5.86464 0
M  V30 1152 H 108.4 1.25468 6.4389 0
M  V30 1153 H 108.317 2.89832 6.98236 0
M  V30 1154 H 109.585 1.86385 7.56889 0
M  V30 1155 N 113.814 -1.1601 1.06675 0
M  V30 1156 C 114.762 -2.22586 0.675157 0
M  V30 1157 C 115.756 -1.66525 -0.310766 0
M  V30 1158 O 116.962 -1.79145 -0.175215 0
M  V30 1159 H 113.337 -0.724855 0.200223 0
M  V30 1160 H 115.308 -2.52899 1.58381 0
M  V30 1161 C 114.057 -3.47604 0.0817162 0
M  V30 1162 H 113.38 -3.91058 0.831484 0
M  V30 1163 H 114.82 -4.23718 -0.154708 0
M  V30 1164 C 113.279 -3.15718 -1.17576 0
M  V30 1165 O 113.809 -3.31878 -2.26318 0
M  V30 1166 N 112.015 -2.69816 -1.07923 0
M  V30 1167 H 111.562 -2.56866 -0.194293 0
M  V30 1168 H 111.52 -2.48855 -1.92141 0
M  V30 1169 N 115.292 -0.849877 -1.32721 0
M  V30 1170 C 116.52 -0.464754 -2.01613 0
M  V30 1171 C 116.935 0.937191 -1.63897 0
M  V30 1172 O 116.292 1.61081 -0.857856 0
M  V30 1173 C 116.343 -0.588638 -3.56675 0
M  V30 1174 O 116.064 -1.93535 -3.93034 0
M  V30 1175 C 117.565 -0.2019 -4.4284 0
M  V30 1176 H 114.785 -0.183215 -0.645502 0
M  V30 1177 H 117.329 -1.1455 -1.69407 0
M  V30 1178 H 115.484 0.0443159 -3.87375 0
M  V30 1179 H 115.898 -1.92871 -4.87751 0
M  V30 1180 H 117.372 -0.339599 -5.50954 0
M  V30 1181 H 117.849 0.857224 -4.30753 0
M  V30 1182 H 118.455 -0.809733 -4.17521 0
M  V30 1183 N 116.77 1.45427 -0.607355 0
M  V30 1184 C 117.7 2.3329 0.0989352 0
M  V30 1185 C 118.681 1.46816 0.859007 0
M  V30 1186 O 119.866 1.75588 0.829604 0
M  V30 1187 C 116.996 3.29518 1.09705 0
M  V30 1188 C 115.95 4.25626 0.450206 0
M  V30 1189 C 115.276 5.11542 1.55655 0
M  V30 1190 C 116.576 5.18505 -0.628455 0
M  V30 1191 H 118.27 2.92595 -0.634716 0
M  V30 1192 H 115.816 1.40696 -0.306681 0
M  V30 1193 H 117.769 3.89855 1.59971 0
M  V30 1194 H 116.493 2.68372 1.86129 0
M  V30 1195 H 115.152 3.66586 -0.0315886 0
M  V30 1196 H 114.8 4.46765 2.31107 0
M  V30 1197 H 114.5 5.76647 1.12925 0
M  V30 1198 H 116.024 5.74748 2.06148 0
M  V30 1199 H 117.438 5.72916 -0.209877 0
M  V30 1200 H 115.835 5.92085 -0.977489 0
M  V30 1201 H 116.905 4.60948 -1.50514 0
M  V30 1202 N 118.248 0.346503 1.53744 0
M  V30 1203 C 119.478 -0.250047 2.05081 0
M  V30 1204 C 119.886 -1.44529 1.22098 0
M  V30 1205 O 119.229 -1.81992 0.249917 0
M  V30 1206 C 119.291 -0.725934 3.52094 0
M  V30 1207 C 118.955 0.350053 4.55657 0
M  V30 1208 C 119.952 1.19372 5.0601 0
M  V30 1209 C 117.637 0.504827 4.99757 0
M  V30 1210 C 119.631 2.17768 5.99046 0
M  V30 1211 C 117.318 1.49218 5.92602 0
M  V30 1212 C 118.316 2.32706 6.42135 0
M  V30 1213 O 118.004 3.2976 7.33153 0
M  V30 1214 H 117.736 -0.0515469 0.674032 0
M  V30 1215 H 120.29 0.497559 1.99282 0
M  V30 1216 H 118.52 -1.52483 3.55367 0
M  V30 1217 H 120.209 -1.24336 3.86388 0
M  V30 1218 H 120.975 1.08525 4.72702 0
M  V30 1219 H 116.854 -0.135178 4.60802 0
M  V30 1220 H 120.398 2.82971 6.37631 0
M  V30 1221 H 116.295 1.6012 6.25325 0
M  V30 1222 H 117.063 3.25265 7.51096 0
M  V30 1223 N 119.726 -1.57421 0.075193 0
M  V30 1224 C 120.656 -2.15942 -0.888324 0
M  V30 1225 C 121.637 -1.08737 -1.30806 0
M  V30 1226 O 122.822 -1.36787 -1.37851 0
M  V30 1227 C 119.952 -2.72379 -2.1547 0
M  V30 1228 C 118.906 -3.8478 -1.87425 0
M  V30 1229 C 118.232 -4.27834 -3.20721 0
M  V30 1230 C 119.532 -5.08869 -1.17684 0
M  V30 1231 H 121.226 -2.96705 -0.400799 0
M  V30 1232 H 118.772 -1.42723 -0.191342 0
M  V30 1233 H 120.725 -3.11965 -2.83295 0
M  V30 1234 H 119.449 -1.88841 -2.6647 0
M  V30 1235 H 118.108 -3.45703 -1.22004 0
M  V30 1236 H 117.756 -3.41214 -3.6957 0
M  V30 1237 H 117.456 -5.03605 -3.02746 0
M  V30 1238 H 118.98 -4.70039 -3.89738 0
M  V30 1239 H 120.394 -5.4575 -1.75584 0
M  V30 1240 H 118.791 -5.8994 -1.09956 0
M  V30 1241 H 119.861 -4.84648 -0.156453 0
M  V30 1242 N 121.204 0.198386 -1.56346 0
M  V30 1243 C 122.136 1.26987 -1.90806 0
M  V30 1244 C 123.149 1.41877 -0.798419 0
M  V30 1245 O 124.338 1.42362 -1.07682 0
M  V30 1246 C 121.438 2.64246 -2.12196 0
M  V30 1247 C 120.611 2.71007 -3.43328 0
M  V30 1248 C 119.67 3.89439 -3.5387 0
M  V30 1249 O 118.696 3.76695 -4.26719 0
M  V30 1250 N 119.898 5.04752 -2.86715 0
M  V30 1251 H 122.663 0.977433 -2.83313 0
M  V30 1252 H 120.224 0.388322 -1.57174 0
M  V30 1253 H 122.216 3.41896 -2.1654 0
M  V30 1254 H 120.786 2.85992 -1.26204 0
M  V30 1255 H 120.006 1.79657 -3.50881 0
M  V30 1256 H 121.294 2.72512 -4.29668 0
M  V30 1257 H 120.692 5.18004 -2.2735 0
M  V30 1258 H 119.249 5.8036 -2.96691 0
M  V30 1259 N 122.682 1.50554 0.465978 0
M  V30 1260 C 123.615 1.64436 1.58227 0
M  V30 1261 C 124.593 0.492367 1.54966 0
M  V30 1262 O 125.777 0.712536 1.74514 0
M  V30 1263 C 122.904 1.63165 2.96808 0
M  V30 1264 C 121.95 2.83987 3.18204 0
M  V30 1265 S 122.783 4.45219 2.97557 0
M  V30 1266 C 123.939 4.46649 4.3847 0
M  V30 1267 H 124.172 2.58861 1.46213 0
M  V30 1268 H 121.705 1.3988 0.653678 0
M  V30 1269 H 123.663 1.63116 3.76701 0
M  V30 1270 H 122.324 0.69967 3.06208 0
M  V30 1271 H 121.517 2.79416 4.19455 0
M  V30 1272 H 121.119 2.81629 2.46092 0
M  V30 1273 H 123.411 4.20526 5.31191 0
M  V30 1274 H 124.354 5.48295 4.48082 0
M  V30 1275 H 124.762 3.76296 4.20787 0
M  V30 1276 N 124.16 -0.719506 1.40217 0
M  V30 1277 C 125.385 -1.51371 1.4178 0
M  V30 1278 C 125.81 -1.88091 0.0182355 0
M  V30 1279 O 125.168 -1.52997 -0.972707 0
M  V30 1280 C 125.216 -2.768 2.31115 0
M  V30 1281 O 124.32 -3.73349 1.7517 0
M  V30 1282 H 123.661 -0.456529 0.482159 0
M  V30 1283 H 126.191 -0.88644 1.844 0
M  V30 1284 H 126.201 -3.25371 2.46167 0
M  V30 1285 H 124.876 -2.49407 3.3282 0
M  V30 1286 H 123.453 -3.32179 1.69444 0
M  V30 1287 N 125.638 -1.25649 -0.95132 0
M  V30 1288 C 126.863 -1.13443 -1.73624 0
M  V30 1289 C 127.288 0.307565 -1.85568 0
M  V30 1290 O 126.646 1.22282 -1.33854 0
M  V30 1291 C 126.694 -1.79723 -3.12621 0
M  V30 1292 O 125.798 -1.07912 -3.98031 0
M  V30 1293 H 125.139 -0.395872 -0.533086 0
M  V30 1294 H 127.669 -1.66276 -1.1922 0
M  V30 1295 H 127.679 -1.86141 -3.63064 0
M  V30 1296 H 126.354 -2.84633 -3.03244 0
M  V30 1297 H 124.931 -1.09398 -3.56492 0
M  V30 1298 N 127.117 1.15442 -1.07289 0
M  V30 1299 C 128.047 2.22312 -0.714107 0
M  V30 1300 C 129.028 1.67467 0.298155 0
M  V30 1301 O 130.213 1.93445 0.171048 0
M  V30 1302 C 127.343 3.47124 -0.110448 0
M  V30 1303 C 126.297 4.14926 -1.04979 0
M  V30 1304 C 125.623 5.33807 -0.308924 0
M  V30 1305 C 126.923 4.64762 -2.38314 0
M  V30 1306 H 128.617 2.5258 -1.6076 0
M  V30 1307 H 126.163 1.21404 -0.77441 0
M  V30 1308 H 128.116 4.21124 0.152482 0
M  V30 1309 H 126.84 3.16187 0.81812 0
M  V30 1310 H 125.499 3.42866 -1.29764 0
M  V30 1311 H 125.147 4.99126 0.623084 0
M  V30 1312 H 124.847 5.80113 -0.935036 0
M  V30 1313 H 126.371 6.10576 -0.0537771 0
M  V30 1314 H 127.785 5.30292 -2.1786 0
M  V30 1315 H 126.182 5.21728 -2.96514 0
M  V30 1316 H 127.252 3.80434 -3.00663 0
M  V30 1317 N 128.595 0.856903 1.32268 0
M  V30 1318 C 129.542 0.301172 2.28827 0
M  V30 1319 C 130.512 -0.593104 1.5515 0
M  V30 1320 O 131.697 -0.527537 1.83362 0
M  V30 1321 C 128.837 -0.502523 3.41422 0
M  V30 1322 C 127.95 0.417797 4.29975 0
M  V30 1323 C 127.085 -0.398749 5.29701 0
M  V30 1324 C 126.124 0.518827 6.09897 0
M  V30 1325 N 125.261 -0.260674 7.01616 0
M  V30 1326 H 130.101 1.12983 2.75751 0
M  V30 1327 H 127.638 0.568582 1.35667 0
M  V30 1328 H 129.596 -0.984141 4.05426 0
M  V30 1329 H 128.226 -1.29599 2.95642 0
M  V30 1330 H 127.278 1.01781 3.66531 0
M  V30 1331 H 128.59 1.12191 4.86019 0
M  V30 1332 H 127.744 -0.943435 5.9932 0
M  V30 1333 H 126.483 -1.13622 4.7428 0
M  V30 1334 H 125.488 1.07538 5.39181 0
M  V30 1335 H 126.713 1.25495 6.67404 0
M  V30 1336 H 124.659 -0.981198 6.4862 0
M  V30 1337 H 124.576 0.384364 7.55022 0
M  V30 1338 H 125.844 -0.787014 7.75517 0
M  V30 1339 N 130.073 -1.45103 0.615059 0
M  V30 1340 C 131.298 -2.07064 0.117988 0
M  V30 1341 C 131.723 -1.4554 -1.19163 0
M  V30 1342 O 131.081 -0.550855 -1.72729 0
M  V30 1343 C 131.129 -3.606 -0.000288387 0
M  V30 1344 O 130.233 -3.98847 -1.04856 0
M  V30 1345 H 129.574 -0.659467 0.0774581 0
M  V30 1346 H 132.104 -1.86236 0.847186 0
M  V30 1347 H 132.114 -4.07529 -0.196091 0
M  V30 1348 H 130.789 -4.04765 0.955932 0
M  V30 1349 H 129.366 -3.63577 -0.828619 0
M  V30 1350 N 131.551 -0.354651 -1.53558 0
M  V30 1351 C 132.461 0.50515 -2.29097 0
M  V30 1352 C 133.477 1.10223 -1.34636 0
M  V30 1353 O 134.653 1.11553 -1.67684 0
M  V30 1354 C 131.718 1.63479 -3.05738 0
M  V30 1355 C 130.779 1.06636 -4.15845 0
M  V30 1356 C 130.012 2.14217 -4.88822 0
M  V30 1357 O 130.235 3.35137 -4.61562 0
M  V30 1358 O 129.169 1.77887 -5.75013 0
M  V30 1359 H 132.995 -0.109237 -3.03503 0
M  V30 1360 H 130.58 -0.119357 -1.48922 0
M  V30 1361 H 132.462 2.2918 -3.5363 0
M  V30 1362 H 131.137 2.23478 -2.34178 0
M  V30 1363 H 130.044 0.373565 -3.7223 0
M  V30 1364 H 131.377 0.511081 -4.89539 0
M  V30 1365 N 133.029 1.57378 -0.0835403 0
M  V30 1366 C 134.306 1.85363 0.624507 0
M  V30 1367 C 134.686 0.978239 1.87066 0
M  V30 1368 O 134.034 0.0475908 2.2845 0
M  V30 1369 C 134.244 3.35795 0.950947 0
M  V30 1370 C 135.592 4.03581 1.31939 0
M  V30 1371 O 136.616 3.40609 1.04232 0
M  V30 1372 O 135.475 5.14672 1.83779 0
M  V30 1373 H 132.569 0.766162 0.311329 0
M  V30 1374 H 135.115 1.69307 -0.115362 0
M  V30 1375 H 133.887 3.91244 0.0663899 0
M  V30 1376 H 133.51 3.57154 1.74719 0
M  V30 1377 N 134.507 -0.190092 1.56449 0
M  V30 1378 C 135.735 -0.925772 1.85033 0
M  V30 1379 C 136.15 -1.76638 0.666658 0
M  V30 1380 O 135.507 -1.78822 -0.364565 0
M  V30 1381 C 135.558 -1.81786 3.12468 0
M  V30 1382 O 135.279 -1.01118 4.26271 0
M  V30 1383 C 136.78 -2.6648 3.54265 0
M  V30 1384 H 134 -0.269872 0.614337 0
M  V30 1385 H 136.544 -0.195837 2.0356 0
M  V30 1386 H 134.699 -2.50136 2.95822 0
M  V30 1387 H 135.113 -1.61956 4.98869 0
M  V30 1388 H 136.587 -3.24722 4.46385 0
M  V30 1389 H 137.064 -3.40434 2.77491 0
M  V30 1390 H 137.67 -2.03493 3.73458 0
M  V30 1391 N 135.985 -1.50799 -0.457987 0
M  V30 1392 C 136.948 -1.7005 -1.53674 0
M  V30 1393 C 137.948 -0.570881 -1.50325 0
M  V30 1394 O 139.138 -0.838126 -1.52712 0
M  V30 1395 C 136.27 -1.73788 -2.93276 0
M  V30 1396 H 137.463 -2.66306 -1.37917 0
M  V30 1397 H 135.016 -1.40477 -0.685271 0
M  V30 1398 H 135.751 -0.792717 -3.14462 0
M  V30 1399 H 135.536 -2.55864 -2.97113 0
M  V30 1400 H 137.026 -1.90591 -3.71571 0
M  V30 1401 N 137.463 0.71206 -1.40597 0
M  V30 1402 C 138.396 1.83582 -1.35546 0
M  V30 1403 C 139.374 1.61032 -0.225284 0
M  V30 1404 O 140.558 1.83998 -0.409519 0
M  V30 1405 C 137.685 3.19983 -1.11034 0
M  V30 1406 C 136.731 3.61355 -2.2655 0
M  V30 1407 S 137.564 3.68062 -3.88961 0
M  V30 1408 C 138.72 5.07216 -3.66719 0
M  V30 1409 H 138.953 1.87586 -2.30648 0
M  V30 1410 H 136.486 0.879182 -1.26924 0
M  V30 1411 H 138.444 3.98734 -0.975761 0
M  V30 1412 H 137.105 3.13608 -0.175798 0
M  V30 1413 H 136.298 4.60403 -2.0505 0
M  V30 1414 H 135.9 2.8987 -2.36329 0
M  V30 1415 H 138.192 5.94238 -3.25404 0
M  V30 1416 H 139.135 5.33753 -4.6531 0
M  V30 1417 H 139.543 4.77976 -3.00332 0
M  V30 1418 N 138.941 1.26152 0.944643 0
M  V30 1419 C 140.171 1.14094 1.72239 0
M  V30 1420 C 140.579 -0.306931 1.86694 0
M  V30 1421 O 139.922 -1.22222 1.3714 0
M  V30 1422 C 139.984 1.73316 3.14963 0
M  V30 1423 C 139.648 3.2239 3.23904 0
M  V30 1424 C 140.645 4.19252 3.07447 0
M  V30 1425 C 138.33 3.62788 3.47405 0
M  V30 1426 C 140.324 5.54491 3.14353 0
M  V30 1427 C 138.011 4.98162 3.53947 0
M  V30 1428 C 139.009 5.93823 3.37436 0
M  V30 1429 O 138.697 7.26732 3.43679 0
M  V30 1430 H 138.429 0.398292 0.546205 0
M  V30 1431 H 140.983 1.67201 1.19301 0
M  V30 1432 H 139.213 1.14667 3.69308 0
M  V30 1433 H 140.902 1.56214 3.74636 0
M  V30 1434 H 141.668 3.8938 2.8915 0
M  V30 1435 H 137.547 2.88816 3.59313 0
M  V30 1436 H 141.091 6.29137 3.01384 0
M  V30 1437 H 136.988 5.27695 3.71763 0
M  V30 1438 H 137.756 7.3496 3.60245 0
M  V30 1439 N 140.419 -1.14872 1.07899 0
M  V30 1440 C 141.649 -1.89386 0.825631 0
M  V30 1441 C 142.057 -1.78565 -0.625406 0
M  V30 1442 O 141.4 -1.13918 -1.44113 0
M  V30 1443 C 141.462 -3.40206 1.16191 0
M  V30 1444 C 141.126 -3.74812 2.61467 0
M  V30 1445 C 142.123 -3.75367 3.59716 0
M  V30 1446 C 139.808 -4.0495 2.97189 0
M  V30 1447 C 141.802 -4.05574 4.9172 0
M  V30 1448 C 139.489 -4.34821 4.29388 0
M  V30 1449 C 140.487 -4.35116 5.26463 0
M  V30 1450 O 140.175 -4.64267 6.56286 0
M  V30 1451 H 139.907 -0.606894 0.297751 0
M  V30 1452 H 142.461 -1.46438 1.44031 0
M  V30 1453 H 140.691 -3.8358 0.490214 0
M  V30 1454 H 142.38 -3.96018 0.890193 0
M  V30 1455 H 143.146 -3.52176 3.33462 0
M  V30 1456 H 139.025 -4.03876 2.22273 0
M  V30 1457 H 142.569 -4.05719 5.67484 0
M  V30 1458 H 138.466 -4.5748 4.55392 0
M  V30 1459 H 139.234 -4.82007 6.61522 0
M  V30 1460 N 141.898 -0.863906 -1.31812 0
M  V30 1461 C 143.138 -0.47825 -1.98726 0
M  V30 1462 C 143.502 0.950397 -1.66828 0
M  V30 1463 O 144.703 1.44109 -2.26905 0
M  V30 1464 C 142.974 -0.721134 -3.50049 0
M  V30 1465 S 144.533 -0.434432 -4.36644 0
M  V30 1466 H 141.351 -0.178773 -0.688158 0
M  V30 1467 H 143.953 -1.11862 -1.60334 0
M  V30 1468 H 142.657 -1.75981 -3.70755 0
M  V30 1469 H 142.188 -0.0675315 -3.93342 0
M  V30 1470 H 144.203 0.735786 -4.90714 0
M  V30 1471 N 143.376 1.44774 -0.622745 0
M  V30 1472 C 144.339 2.29069 0.0774015 0
M  V30 1473 C 145.339 1.4059 0.780461 0
M  V30 1474 O 146.529 1.62551 0.626322 0
M  V30 1475 C 143.661 3.21974 1.12006 0
M  V30 1476 H 144.854 2.92459 -0.663901 0
M  V30 1477 H 142.407 1.51548 -0.382486 0
M  V30 1478 H 143.142 2.63417 1.89162 0
M  V30 1479 H 142.927 3.87168 0.619951 0
M  V30 1480 H 144.417 3.85318 1.60995 0
M  V30 1481 N 144.854 0.36279 1.53368 0
M  V30 1482 C 146.27 0.0116182 1.59596 0
M  V30 1483 C 146.47 -1.47012 1.37803 0
M  V30 1484 O 145.526 -2.23136 1.18181 0
M  V30 1485 C 146.839 0.465052 2.97082 0
M  V30 1486 C 148.387 0.419033 3.10182 0
M  V30 1487 C 148.862 0.848235 4.50077 0
M  V30 1488 N 150.353 0.803183 4.56183 0
M  V30 1489 C 151.088 1.107 5.62613 0
M  V30 1490 N 150.584 1.47996 6.76808 0
M  V30 1491 N 152.377 1.02998 5.52583 0
M  V30 1492 H 144.528 1.32775 1.65785 0
M  V30 1493 H 146.791 0.542518 0.777417 0
M  V30 1494 H 146.497 1.49892 3.18159 0
M  V30 1495 H 146.371 -0.149786 3.76902 0
M  V30 1496 H 148.758 -0.605696 2.88817 0
M  V30 1497 H 148.839 1.06933 2.32377 0
M  V30 1498 H 148.483 1.87107 4.7218 0
M  V30 1499 H 148.413 0.175218 5.26308 0
M  V30 1500 H 150.904 0.52838 3.74188 0
M  V30 1501 H 151.217 1.69613 7.53957 0
M  V30 1502 H 149.562 1.51859 6.78206 0
M  V30 1503 H 152.753 0.737817 4.62249 0
M  V30 1504 H 152.926 1.2701 6.35431 0
M  V30 1505 N 146.332 -1.57332 0.0918853 0
M  V30 1506 C 147.282 -2.10385 -0.87876 0
M  V30 1507 C 148.266 -1.01814 -1.24591 0
M  V30 1508 O 149.458 -1.28093 -1.22152 0
M  V30 1509 C 146.587 -2.68517 -2.13901 0
M  V30 1510 C 145.673 -3.84126 -1.79744 0
M  V30 1511 N 146.064 -4.92288 -1.1613 0
M  V30 1512 C 144.362 -3.93801 -2.09373 0
M  V30 1513 C 145.063 -5.7295 -1.00513 0
M  V30 1514 N 144.039 -5.21876 -1.5214 0
M  V30 1515 H 147.841 -2.91395 -0.38293 0
M  V30 1516 H 145.355 -1.62017 -0.111423 0
M  V30 1517 H 147.352 -3.04852 -2.84378 0
M  V30 1518 H 146.012 -1.88961 -2.64053 0
M  V30 1519 H 147.023 -5.1123 -0.828504 0
M  V30 1520 H 143.7 -3.25249 -2.61762 0
M  V30 1521 H 145.09 -6.69978 -0.507902 0
M  V30 1522 N 147.81 0.181792 -1.56548 0
M  V30 1523 C 149.035 0.920019 -1.85877 0
M  V30 1524 C 149.46 1.75494 -0.677021 0
M  V30 1525 O 148.818 1.77399 0.374056 0
M  V30 1526 C 148.866 1.78112 -3.13542 0
M  V30 1527 O 147.97 2.88152 -2.95029 0
M  V30 1528 H 147.311 0.258334 -0.611686 0
M  V30 1529 H 149.841 0.183092 -2.03779 0
M  V30 1530 H 149.851 2.18314 -3.44678 0
M  V30 1531 H 148.526 1.16777 -3.99169 0
M  V30 1532 H 147.103 2.51609 -2.75222 0
M  V30 1533 N 149.288 1.51039 0.449983 0
M  V30 1534 C 150.536 1.62759 1.19808 0
M  V30 1535 C 150.857 0.339981 1.92013 0
M  V30 1536 O 150.127 -0.643606 1.85026 0
M  V30 1537 H 148.707 0.599811 0.445237 0
M  V30 1538 H 151.369 1.87914 0.517138 0
M  V30 1539 H 150.465 2.44911 1.93455 0
M  V30 1540 N 150.766 -0.704594 1.40972 0
M  V30 1541 C 151.996 -1.49138 1.42974 0
M  V30 1542 C 152.404 -1.89175 0.0308406 0
M  V30 1543 O 151.747 -1.56734 -0.958138 0
M  V30 1544 C 151.809 -2.79016 2.26694 0
M  V30 1545 C 151.473 -2.61236 3.74973 0
M  V30 1546 C 152.47 -2.27773 4.67349 0
M  V30 1547 C 150.155 -2.77158 4.18914 0
M  V30 1548 C 152.149 -2.10457 6.01653 0
M  V30 1549 C 149.836 -2.59459 5.53285 0
M  V30 1550 C 150.834 -2.26158 6.4447 0
M  V30 1551 O 150.522 -2.08605 7.76363 0
M  V30 1552 H 150.254 -0.466443 0.489292 0
M  V30 1553 H 152.808 -0.8758 1.85793 0
M  V30 1554 H 151.038 -3.42947 1.78673 0
M  V30 1555 H 152.727 -3.40782 2.20504 0
M  V30 1556 H 153.493 -2.15095 4.34694 0
M  V30 1557 H 149.372 -3.02064 3.48251 0
M  V30 1558 H 152.916 -1.84387 6.72791 0
M  V30 1559 H 148.813 -2.71725 5.85522 0
M  V30 1560 H 149.581 -2.23439 7.87412 0
M  V30 1561 N 152.244 -1.26651 -0.937939 0
M  V30 1562 C 153.492 -1.12165 -1.68118 0
M  V30 1563 C 153.813 0.334983 -1.92101 0
M  V30 1564 O 153.083 1.23583 -1.52 0
M  V30 1565 H 151.663 -0.412093 -0.623048 0
M  V30 1566 H 154.325 -1.59027 -1.12678 0
M  V30 1567 H 153.421 -1.64289 -2.6536 0
M  V30 1568 N 153.722 1.14298 -1.08507 0
M  V30 1569 C 154.95 1.89219 -0.836876 0
M  V30 1570 C 155.365 1.78638 0.611054 0
M  V30 1571 O 154.722 1.14643 1.41998 0
M  V30 1572 C 154.773 3.39158 -1.25116 0
M  V30 1573 O 154.494 3.49449 -2.64229 0
M  V30 1574 C 155.995 4.31073 -1.03398 0
M  V30 1575 H 153.215 0.599328 -0.301739 0
M  V30 1576 H 155.759 1.44746 -1.44461 0
M  V30 1577 H 153.914 3.81251 -0.687514 0
M  V30 1578 H 154.328 4.42589 -2.81452 0
M  V30 1579 H 155.802 5.34646 -1.37323 0
M  V30 1580 H 156.279 4.3919 0.0289259 0
M  V30 1581 H 156.885 3.94738 -1.58311 0
M  V30 1582 N 155.201 0.870884 1.31352 0
M  V30 1583 C 156.151 0.298889 2.26032 0
M  V30 1584 C 157.135 -0.564595 1.50669 0
M  V30 1585 O 158.327 -0.411323 1.72154 0
M  V30 1586 C 155.456 -0.497842 3.39671 0
M  V30 1587 C 154.542 0.378937 4.22404 0
M  V30 1588 N 154.933 1.47284 4.83881 0
M  V30 1589 C 153.231 0.171535 4.4567 0
M  V30 1590 C 153.932 2.01359 5.45738 0
M  V30 1591 N 152.908 1.31047 5.27568 0
M  V30 1592 H 156.71 1.13494 2.71102 0
M  V30 1593 H 154.224 0.718745 1.45629 0
M  V30 1594 H 156.221 -0.924155 4.06528 0
M  V30 1595 H 154.881 -1.33149 2.96144 0
M  V30 1596 H 155.892 1.85575 4.8351 0
M  V30 1597 H 152.569 -0.626091 4.12779 0
M  V30 1598 H 153.959 2.93143 6.0458 0
M  V30 1599 N 156.679 -1.44442 0.630414 0
M  V30 1600 C 157.925 -2.02894 0.143332 0
M  V30 1601 C 158.28 -1.48697 -1.22094 0
M  V30 1602 O 157.573 -0.661171 -1.79831 0
M  V30 1603 C 157.767 -3.57332 0.0697835 0
M  V30 1604 C 157.596 -4.26512 1.42539 0
M  V30 1605 C 156.366 -4.63516 2.01198 0
M  V30 1606 C 158.564 -4.57004 2.35907 0
M  V30 1607 N 156.546 -5.17661 3.30001 0
M  V30 1608 C 157.917 -5.12223 3.49324 0
M  V30 1609 C 159.972 -4.38955 2.34995 0
M  V30 1610 C 158.675 -5.51295 4.62024 0
M  V30 1611 C 160.701 -4.79075 3.46758 0
M  V30 1612 C 160.063 -5.34407 4.58899 0
M  V30 1613 H 156.162 -0.776041 0.0963523 0
M  V30 1614 H 158.746 -1.75945 0.833752 0
M  V30 1615 H 156.917 -3.83894 -0.589915 0
M  V30 1616 H 158.649 -4.02451 -0.42606 0
M  V30 1617 H 155.404 -4.47811 1.54151 0
M  V30 1618 H 155.828 -5.4921 3.95851 0
M  V30 1619 H 160.47 -3.95469 1.49545 0
M  V30 1620 H 158.188 -5.93736 5.48182 0
M  V30 1621 H 161.774 -4.66824 3.47227 0
M  V30 1622 H 160.654 -5.64878 5.4395 0
M  V30 1623 N 158.157 -0.370918 -1.53173 0
M  V30 1624 C 159.405 0.216673 -2.00935 0
M  V30 1625 C 159.726 1.48845 -1.25977 0
M  V30 1626 O 158.996 1.92286 -0.374551 0
M  V30 1627 H 157.576 0.0830565 -0.742368 0
M  V30 1628 H 160.238 -0.49838 -1.8842 0
M  V30 1629 H 159.334 0.439893 -3.08984 0
M  V30 1630 N 159.635 1.57281 -0.100228 0
M  V30 1631 C 160.881 1.94826 0.563101 0
M  V30 1632 C 161.214 0.982475 1.67514 0
M  V30 1633 O 160.489 0.0164069 1.94493 0
M  V30 1634 C 160.772 3.42453 1.11346 0
M  V30 1635 C 160.625 4.498 0.00612081 0
M  V30 1636 C 161.944 3.91506 2.01024 0
M  V30 1637 H 159.063 0.708428 0.203221 0
M  V30 1638 H 161.705 1.8922 -0.171979 0
M  V30 1639 H 159.855 3.47361 1.7399 0
M  V30 1640 H 161.527 4.57 -0.628357 0
M  V30 1641 H 159.77 4.28756 -0.659581 0
M  V30 1642 H 160.441 5.50306 0.432109 0
M  V30 1643 H 162.917 3.88784 1.48278 0
M  V30 1644 H 161.793 4.95358 2.36457 0
M  V30 1645 H 162.054 3.31099 2.92961 0
M  V30 1646 N 161.113 -0.173488 1.56642 0
M  V30 1647 C 162.043 -1.2171 1.99271 0
M  V30 1648 C 163.024 -1.46289 0.867959 0
M  V30 1649 O 164.209 -1.5766 1.13388 0
M  V30 1650 C 161.339 -2.55651 2.35074 0
M  V30 1651 C 160.293 -2.45645 3.50489 0
M  V30 1652 C 159.619 -3.84056 3.72028 0
M  V30 1653 C 160.919 -1.96302 4.84007 0
M  V30 1654 H 162.613 -0.86275 2.867 0
M  V30 1655 H 160.159 -0.413571 1.37933 0
M  V30 1656 H 162.112 -3.2886 2.63494 0
M  V30 1657 H 160.836 -2.92869 1.44552 0
M  V30 1658 H 159.495 -1.7489 3.22194 0
M  V30 1659 H 159.143 -4.18664 2.788 0
M  V30 1660 H 158.843 -3.7823 4.49684 0
M  V30 1661 H 160.367 -4.58854 4.02846 0
M  V30 1662 H 161.781 -2.59284 5.11317 0
M  V30 1663 H 160.178 -2.01429 5.65284 0
M  V30 1664 H 161.248 -0.917226 4.76146 0
M  V30 1665 N 162.591 -1.51276 -0.441967 0
M  V30 1666 C 163.838 -1.63715 -1.19179 0
M  V30 1667 C 164.166 -0.351175 -1.91303 0
M  V30 1668 O 163.421 0.664524 -1.84072 0
M  V30 1669 C 163.72 -2.78746 -2.23686 0
M  V30 1670 C 163.386 -4.18189 -1.68607 0
M  V30 1671 C 162.048 -4.56125 -1.53308 0
M  V30 1672 C 164.4 -5.05222 -1.28062 0
M  V30 1673 C 161.728 -5.78804 -0.959317 0
M  V30 1674 C 164.08 -6.28476 -0.721162 0
M  V30 1675 C 162.744 -6.65188 -0.55504 0
M  V30 1676 H 162.014 -0.599076 -0.436106 0
M  V30 1677 H 164.661 -1.85296 -0.48351 0
M  V30 1678 H 162.966 -2.51369 -3.00535 0
M  V30 1679 H 164.663 -2.8557 -2.81515 0
M  V30 1680 H 161.253 -3.88277 -1.8149 0
M  V30 1681 H 165.437 -4.76524 -1.38704 0
M  V30 1682 H 160.693 -6.05899 -0.81833 0
M  V30 1683 H 164.867 -6.95259 -0.398458 0
M  V30 1684 H 162.494 -7.60123 -0.108311 0
M  V30 1685 N 164.069 0.697108 -1.41344 0
M  V30 1686 C 165.032 1.79281 -1.42797 0
M  V30 1687 C 166.032 1.57607 -0.318837 0
M  V30 1688 O 167.222 1.64309 -0.578642 0
M  V30 1689 C 164.354 3.17632 -1.23785 0
M  V30 1690 H 165.547 1.79385 -2.40335 0
M  V30 1691 H 163.1 0.904582 -1.27464 0
M  V30 1692 H 163.835 3.23167 -0.270814 0
M  V30 1693 H 163.62 3.34765 -2.04144 0
M  V30 1694 H 165.11 3.97617 -1.27633 0
M  V30 1695 N 165.547 1.27147 0.931209 0
M  V30 1696 C 166.777 1.15914 1.71019 0
M  V30 1697 C 167.185 -0.287112 1.87009 0
M  V30 1698 O 166.528 -1.20761 1.38429 0
M  V30 1699 C 166.59 1.76647 3.13107 0
M  V30 1700 C 166.254 3.25807 3.20467 0
M  V30 1701 C 167.251 4.22489 3.02983 0
M  V30 1702 C 164.936 3.66452 3.43538 0
M  V30 1703 C 166.93 5.57794 3.08454 0
M  V30 1704 C 164.617 5.01888 3.48643 0
M  V30 1705 C 165.615 5.97369 3.31119 0
M  V30 1706 O 165.303 7.30337 3.35952 0
M  V30 1707 H 165.035 0.404062 0.54195 0
M  V30 1708 H 167.589 1.68457 1.17521 0
M  V30 1709 H 165.819 1.18578 3.68071 0
M  V30 1710 H 167.508 1.60179 3.72958 0
M  V30 1711 H 168.274 3.92425 2.85004 0
M  V30 1712 H 164.153 2.92611 3.5623 0
M  V30 1713 H 167.697 6.32298 2.94694 0
M  V30 1714 H 163.594 5.31609 3.66145 0
M  V30 1715 H 164.362 7.38739 3.5243 0
M  V30 1716 N 167.025 -1.13721 1.09112 0
M  V30 1717 C 168.271 -1.85413 0.836283 0
M  V30 1718 C 168.626 -1.8175 -0.631249 0
M  V30 1719 O 167.919 -1.24238 -1.45861 0
M  V30 1720 C 168.113 -3.32861 1.30146 0
M  V30 1721 C 167.942 -3.50882 2.81268 0
M  V30 1722 C 166.712 -3.65312 3.49106 0
M  V30 1723 C 168.91 -3.47196 3.7942 0
M  V30 1724 N 166.892 -3.71563 4.88686 0
M  V30 1725 C 168.263 -3.59777 5.04936 0
M  V30 1726 C 170.318 -3.30577 3.72321 0
M  V30 1727 C 169.021 -3.57455 6.24194 0
M  V30 1728 C 171.047 -3.29562 4.91063 0
M  V30 1729 C 170.409 -3.42691 6.15421 0
M  V30 1730 H 166.508 -0.694812 0.358832 0
M  V30 1731 H 169.092 -1.36246 1.39087 0
M  V30 1732 H 167.263 -3.80602 0.774361 0
M  V30 1733 H 168.995 -3.92346 0.99229 0
M  V30 1734 H 165.75 -3.6685 2.9953 0
M  V30 1735 H 166.174 -3.78387 5.61384 0
M  V30 1736 H 170.816 -3.19332 2.77105 0
M  V30 1737 H 168.534 -3.67475 7.19714 0
M  V30 1738 H 172.12 -3.17905 4.87266 0
M  V30 1739 H 171 -3.41862 7.05762 0
M  V30 1740 N 168.503 -0.877838 -1.30888 0
M  V30 1741 C 169.751 -0.491723 -1.96027 0
M  V30 1742 C 170.072 0.960827 -1.69685 0
M  V30 1743 O 169.342 1.67462 -1.01654 0
M  V30 1744 H 167.922 -0.17885 -0.725273 0
M  V30 1745 H 170.584 -1.11935 -1.59551 0
M  V30 1746 H 169.68 -0.656016 -3.05128 0
M  V30 1747 N 169.982 1.44106 -0.638065 0
M  V30 1748 C 170.914 2.28976 0.101205 0
M  V30 1749 C 171.927 1.4167 0.802088 0
M  V30 1750 O 173.116 1.65755 0.662375 0
M  V30 1751 C 170.216 3.18217 1.16581 0
M  V30 1752 C 169.389 4.33978 0.546066 0
M  V30 1753 C 168.448 5.04202 1.50554 0
M  V30 1754 O 167.474 5.59986 1.01999 0
M  V30 1755 N 168.676 5.06296 2.8398 0
M  V30 1756 H 171.441 2.93064 -0.627186 0
M  V30 1757 H 169.002 1.54629 -0.479731 0
M  V30 1758 H 170.994 3.62061 1.80815 0
M  V30 1759 H 169.564 2.55833 1.79634 0
M  V30 1760 H 168.784 3.93239 -0.275046 0
M  V30 1761 H 170.072 5.08675 0.112793 0
M  V30 1762 H 169.47 4.62319 3.26002 0
M  V30 1763 H 168.027 5.53907 3.43556 0
M  V30 1764 N 171.46 0.379036 1.52974 0
M  V30 1765 C 172.708 -0.206014 2.01047 0
M  V30 1766 C 173.029 -1.48175 1.26765 0
M  V30 1767 O 172.299 -1.92085 0.384743 0
M  V30 1768 H 170.879 -0.0791184 0.742798 0
M  V30 1769 H 173.541 0.508366 1.88153 0
M  V30 1770 H 172.637 -0.423501 3.09213 0
M  V30 1771 N 172.938 -1.57226 0.108567 0
M  V30 1772 C 174.166 -1.99179 -0.559954 0
M  V30 1773 C 174.581 -0.988022 -1.60884 0
M  V30 1774 O 173.938 0.0205512 -1.82488 0
M  V30 1775 C 173.989 -3.41159 -1.19552 0
M  V30 1776 O 173.71 -4.37694 -0.188577 0
M  V30 1777 C 175.211 -3.98188 -1.94837 0
M  V30 1778 H 172.431 -0.654228 -0.149088 0
M  V30 1779 H 174.975 -2.03598 0.19183 0
M  V30 1780 H 173.13 -3.37711 -1.89815 0
M  V30 1781 H 173.544 -5.20469 -0.649014 0
M  V30 1782 H 175.018 -4.99644 -2.34648 0
M  V30 1783 H 175.495 -3.3675 -2.81951 0
M  V30 1784 H 176.101 -4.0515 -1.2936 0
M  V30 1785 N 174.416 0.165178 -1.56732 0
M  V30 1786 C 175.346 1.20651 -1.99914 0
M  V30 1787 C 176.327 1.45827 -0.875705 0
M  V30 1788 O 177.512 1.57057 -1.14223 0
M  V30 1789 C 174.642 2.54401 -2.36427 0
M  V30 1790 C 173.596 2.43782 -3.51787 0
M  V30 1791 C 172.922 3.82078 -3.7406 0
M  V30 1792 C 174.222 1.93732 -4.85041 0
M  V30 1793 H 175.916 0.847534 -2.87154 0
M  V30 1794 H 173.462 0.40625 -1.38151 0
M  V30 1795 H 175.415 3.27458 -2.65234 0
M  V30 1796 H 174.139 2.92098 -1.46103 0
M  V30 1797 H 172.798 1.73178 -3.23117 0
M  V30 1798 H 172.446 4.17179 -2.81017 0
M  V30 1799 H 172.146 3.7584 -4.51684 0
M  V30 1800 H 173.67 4.56712 -4.05274 0
M  V30 1801 H 175.084 2.56569 -5.12684 0
M  V30 1802 H 173.481 1.98428 -5.66345 0
M  V30 1803 H 174.551 0.891962 -4.76626 0
M  V30 1804 N 175.894 1.51508 0.433938 0
M  V30 1805 C 177.14 1.64588 1.18484 0
M  V30 1806 C 177.473 0.362666 1.90784 0
M  V30 1807 O 176.748 -0.637892 1.83742 0
M  V30 1808 C 177.031 2.85149 2.19913 0
M  V30 1809 C 176.884 4.23456 1.51674 0
M  V30 1810 C 178.203 3.01227 3.20858 0
M  V30 1811 H 175.322 0.598994 0.429389 0
M  V30 1812 H 177.964 1.84002 0.473647 0
M  V30 1813 H 176.114 2.68729 2.80566 0
M  V30 1814 H 177.786 4.51552 0.943322 0
M  V30 1815 H 176.029 4.25998 0.819035 0
M  V30 1816 H 176.7 5.03812 2.2556 0
M  V30 1817 H 179.176 3.16382 2.70263 0
M  V30 1818 H 178.052 3.87141 3.89118 0
M  V30 1819 H 178.313 2.13447 3.8716 0
M  V30 1820 N 177.372 -0.689602 1.41712 0
M  V30 1821 C 178.597 -1.48329 1.44959 0
M  V30 1822 C 179.022 -1.8801 0.0581283 0
M  V30 1823 O 178.38 -1.55026 -0.940035 0
M  V30 1824 C 178.428 -2.71835 2.36935 0
M  V30 1825 O 177.532 -3.69549 1.8305 0
M  V30 1826 H 176.873 -0.446199 0.491734 0
M  V30 1827 H 179.403 -0.847127 1.86239 0
M  V30 1828 H 179.413 -3.20076 2.53013 0
M  V30 1829 H 178.088 -2.42291 3.38035 0
M  V30 1830 H 176.665 -3.2851 1.76452 0
M  V30 1831 N 178.85 -1.27639 -0.924453 0
M  V30 1832 C 179.813 -1.10681 -2.00705 0
M  V30 1833 C 180.813 -0.0497823 -1.60723 0
M  V30 1834 O 182.003 -0.294654 -1.7169 0
M  V30 1835 C 179.135 -0.687164 -3.33902 0
M  V30 1836 H 180.328 -2.06817 -2.17179 0
M  V30 1837 H 177.881 -1.10473 -1.10569 0
M  V30 1838 H 178.616 0.275439 -3.23128 0
M  V30 1839 H 178.401 -1.45061 -3.6428 0
M  V30 1840 H 179.891 -0.590853 -4.13399 0
M  V30 1841 N 180.328 1.1314 -1.09713 0
M  V30 1842 C 181.275 2.18642 -0.739196 0
M  V30 1843 C 182.245 1.63706 0.280978 0
M  V30 1844 O 183.43 1.90111 0.161946 0
M  V30 1845 C 180.57 3.44685 -0.169102 0
M  V30 1846 C 179.683 4.13711 -1.24367 0
M  V30 1847 C 178.818 5.27379 -0.636019 0
M  V30 1848 C 177.857 5.88259 -1.69169 0
M  V30 1849 N 176.994 6.93352 -1.10485 0
M  V30 1850 H 181.834 2.48607 -1.64312 0
M  V30 1851 H 179.371 1.22066 -0.820875 0
M  V30 1852 H 181.329 4.16815 0.179256 0
M  V30 1853 H 179.959 3.15161 0.698079 0
M  V30 1854 H 179.011 3.39835 -1.70927 0
M  V30 1855 H 180.323 4.55037 -2.04311 0
M  V30 1856 H 179.477 6.06238 -0.236677 0
M  V30 1857 H 178.216 4.8731 0.194928 0
M  V30 1858 H 177.221 5.08092 -2.10055 0
M  V30 1859 H 178.446 6.30399 -2.52536 0
M  V30 1860 H 176.392 6.55335 -0.295234 0
M  V30 1861 H 176.309 7.33236 -1.84121 0
M  V30 1862 H 177.577 7.76057 -0.73181 0
M  V30 1863 N 181.806 0.884767 1.30421 0
M  V30 1864 C 182.769 0.356277 2.26414 0
M  V30 1865 C 183.769 -0.501124 1.52792 0
M  V30 1866 O 184.959 -0.30831 1.7145 0
M  V30 1867 C 182.091 -0.492316 3.37326 0
M  V30 1868 H 183.284 1.20389 2.74675 0
M  V30 1869 H 180.837 0.661607 1.41607 0
M  V30 1870 H 181.572 -1.36052 2.94381 0
M  V30 1871 H 181.357 0.121832 3.91911 0
M  V30 1872 H 182.847 -0.853871 4.08777 0
M  V30 1873 N 183.284 -1.43765 0.645699 0
M  V30 1874 C 184.509 -2.06767 0.161883 0
M  V30 1875 C 184.934 -1.48034 -1.16049 0
M  V30 1876 O 184.292 -0.587369 -1.71522 0
M  V30 1877 C 184.34 -3.60519 0.0762003 0
M  V30 1878 O 183.444 -4.00982 -0.963721 0
M  V30 1879 H 182.785 -0.657675 0.091429 0
M  V30 1880 H 185.315 -1.84397 0.886499 0
M  V30 1881 H 185.325 -4.07853 -0.109604 0
M  V30 1882 H 184 -4.02646 1.04157 0
M  V30 1883 H 182.577 -3.65253 -0.751312 0
M  V30 1884 N 184.763 -0.387143 -1.52771 0
M  V30 1885 C 186.011 0.195349 -2.01154 0
M  V30 1886 C 186.332 1.475 -1.27549 0
M  V30 1887 O 185.602 1.91878 -0.394924 0
M  V30 1888 H 184.182 0.075178 -0.743207 0
M  V30 1889 H 186.844 -0.518337 -1.87881 0
M  V30 1890 H 185.94 0.407096 -3.09434 0
M  V30 1891 N 186.241 1.57166 -0.116904 0
M  V30 1892 C 187.489 1.94737 0.540533 0
M  V30 1893 C 187.81 1.00096 1.67349 0
M  V30 1894 O 187.08 0.0568854 1.95817 0
M  V30 1895 H 185.66 0.718981 0.202669 0
M  V30 1896 H 188.322 1.94017 -0.185353 0
M  V30 1897 H 187.418 2.97719 0.936483 0
M  V30 1898 N 187.719 -0.156864 1.56817 0
M  V30 1899 C 189.13 -0.717916 1.72345 0
M  V30 1900 C 189.481 -1.82124 0.729747 0
M  V30 1901 O 188.606 -2.16141 -0.105781 0
M  V30 1902 C 189.201 -1.30904 3.12489 0
M  V30 1903 C 187.76 -1.81676 3.29653 0
M  V30 1904 C 186.907 -0.701349 2.68284 0
M  V30 1905 H 189.858 0.0686989 1.58551 0
M  V30 1906 H 189.879 -2.17882 3.11942 0
M  V30 1907 H 189.391 -0.505796 3.8479 0
M  V30 1908 H 187.492 -2.64598 2.62333 0
M  V30 1909 H 187.605 -1.95226 4.3752 0
M  V30 1910 H 185.969 -1.12548 2.28484 0
M  V30 1911 H 186.752 0.0902846 3.43181 0
M  V30 1912 N 189.197 -1.51736 -0.425897 0
M  V30 1913 C 190.107 -1.76738 -1.54275 0
M  V30 1914 C 191.123 -0.65211 -1.61318 0
M  V30 1915 O 192.299 -0.935654 -1.78346 0
M  V30 1916 C 189.364 -1.89755 -2.90162 0
M  V30 1917 C 188.425 -3.13633 -2.93143 0
M  V30 1918 C 187.658 -3.2602 -4.22548 0
M  V30 1919 O 187.881 -2.44067 -5.15546 0
M  V30 1920 O 186.815 -4.19071 -4.32046 0
M  V30 1921 H 190.641 -2.71502 -1.36089 0
M  V30 1922 H 188.226 -1.36376 -0.610069 0
M  V30 1923 H 190.108 -2.00236 -3.70788 0
M  V30 1924 H 188.783 -0.981785 -3.08452 0
M  V30 1925 H 187.69 -3.08622 -2.11431 0
M  V30 1926 H 189.023 -4.04936 -2.798 0
M  V30 1927 N 190.675 0.682077 -1.42076 0
M  V30 1928 C 191.923 1.4393 -1.41876 0
M  V30 1929 C 192.244 1.94971 -0.0335599 0
M  V30 1930 O 191.514 1.72591 0.926773 0
M  V30 1931 H 190.094 0.534085 -0.522267 0
M  V30 1932 H 192.756 0.806427 -1.77434 0
M  V30 1933 H 191.852 2.29588 -2.11414 0
M  V30 1934 N 192.153 1.28127 0.917671 0
M  V30 1935 C 193.401 1.14825 1.66312 0
M  V30 1936 C 193.722 -0.304379 1.9261 0
M  V30 1937 O 192.992 -1.21149 1.53947 0
M  V30 1938 H 191.572 0.421953 0.616413 0
M  V30 1939 H 194.234 1.608 1.10134 0
M  V30 1940 H 193.33 1.68489 2.62712 0
M  V30 1941 N 193.631 -1.12557 1.10312 0
M  V30 1942 C 194.856 -1.88405 0.867085 0
M  V30 1943 C 195.281 -1.79038 -0.576817 0
M  V30 1944 O 194.639 -1.14439 -1.40618 0
M  V30 1945 C 194.687 -3.3563 1.31851 0
M  V30 1946 O 193.791 -4.09565 0.482734 0
M  V30 1947 H 193.132 -0.585455 0.313271 0
M  V30 1948 H 195.662 -1.42352 1.4696 0
M  V30 1949 H 195.672 -3.86469 1.3079 0
M  V30 1950 H 194.347 -3.41765 2.37001 0
M  V30 1951 H 192.924 -3.68695 0.558448 0
M  V30 1952 N 195.109 -0.891671 -1.2995 0
M  V30 1953 C 196.039 -0.379797 -2.30391 0
M  V30 1954 C 197.02 0.540919 -1.6127 0
M  V30 1955 O 198.205 0.453352 -1.88834 0
M  V30 1956 C 195.335 0.400654 -3.44981 0
M  V30 1957 C 194.289 -0.428905 -4.25846 0
M  V30 1958 C 193.615 0.478557 -5.32554 0
M  V30 1959 C 194.915 -1.67458 -4.94727 0
M  V30 1960 H 196.609 -1.21914 -2.73454 0
M  V30 1961 H 194.155 -0.587675 -1.31462 0
M  V30 1962 H 196.108 0.769434 -4.14316 0
M  V30 1963 H 194.832 1.27371 -3.0074 0
M  V30 1964 H 193.491 -0.779911 -3.58208 0
M  V30 1965 H 193.139 1.34951 -4.84559 0
M  V30 1966 H 192.839 -0.0727433 -5.87555 0
M  V30 1967 H 194.363 0.843705 -6.04743 0
M  V30 1968 H 195.777 -1.376 -5.56542 0
M  V30 1969 H 194.174 -2.16659 -5.59624 0
M  V30 1970 H 195.244 -2.41518 -4.20473 0
M  V30 1971 N 196.587 1.43421 -0.653314 0
M  V30 1972 C 197.55 2.29182 0.0287951 0
M  V30 1973 C 198.55 1.42213 0.750465 0
M  V30 1974 O 199.74 1.63843 0.591701 0
M  V30 1975 C 196.872 3.24278 1.05151 0
M  V30 1976 H 198.065 2.90985 -0.725786 0
M  V30 1977 H 195.618 1.50702 -0.414545 0
M  V30 1978 H 196.353 2.6737 1.83532 0
M  V30 1979 H 196.138 3.88396 0.537687 0
M  V30 1980 H 197.628 3.88647 1.52786 0
M  V30 1981 N 198.065 0.39524 1.52563 0
M  V30 1982 C 199.028 -0.425001 2.25225 0
M  V30 1983 C 200.028 -0.985266 1.27079 0
M  V30 1984 O 201.218 -0.866332 1.5113 0
M  V30 1985 C 198.35 -1.59686 3.01186 0
M  V30 1986 H 199.543 0.211233 2.99155 0
M  V30 1987 H 197.096 0.147472 1.55603 0
M  V30 1988 H 197.831 -2.27035 2.31572 0
M  V30 1989 H 197.616 -1.20176 3.73229 0
M  V30 1990 H 199.106 -2.17743 3.5634 0
M  V30 1991 N 199.544 -1.57102 0.125237 0
M  V30 1992 C 200.474 -2.18659 -0.819174 0
M  V30 1993 C 201.455 -1.12843 -1.27281 0
M  V30 1994 O 202.64 -1.41104 -1.33429 0
M  V30 1995 C 199.77 -2.79096 -2.06695 0
M  V30 1996 C 198.724 -3.90548 -1.75088 0
M  V30 1997 C 198.05 -4.37821 -3.06948 0
M  V30 1998 C 199.35 -5.12356 -1.01435 0
M  V30 1999 H 201.044 -2.9783 -0.306202 0
M  V30 2000 H 198.59 -1.4326 -0.145839 0
M  V30 2001 H 200.543 -3.2082 -2.73226 0
M  V30 2002 H 199.267 -1.97223 -2.60328 0
M  V30 2003 H 197.926 -3.49409 -1.10944 0
M  V30 2004 H 197.574 -3.52799 -3.58527 0
M  V30 2005 H 197.274 -5.12982 -2.86571 0
M  V30 2006 H 198.798 -4.822 -3.74587 0
M  V30 2007 H 200.212 -5.5106 -1.58132 0
M  V30 2008 H 198.609 -5.9314 -0.911319 0
M  V30 2009 H 199.679 -4.849 -0.00218681 0
M  V30 2010 N 201.022 0.148545 -1.56898 0
M  V30 2011 C 202.25 0.876389 -1.87422 0
M  V30 2012 C 202.665 1.74809 -0.713256 0
M  V30 2013 O 202.022 1.79725 0.317025 0
M  V30 2014 C 202.073 1.73438 -3.17178 0
M  V30 2015 O 201.794 0.897809 -4.28802 0
M  V30 2016 C 203.295 2.56993 -3.61205 0
M  V30 2017 H 200.515 0.253489 -0.621277 0
M  V30 2018 H 203.059 0.141798 -2.04008 0
M  V30 2019 H 201.214 2.42205 -3.0235 0
M  V30 2020 H 201.628 1.48672 -5.02988 0
M  V30 2021 H 203.102 3.12773 -4.54838 0
M  V30 2022 H 203.579 3.32958 -2.86419 0
M  V30 2023 H 204.185 1.9352 -3.78722 0
M  V30 2024 N 202.5 1.5196 0.417844 0
M  V30 2025 C 203.463 1.74065 1.49111 0
M  V30 2026 C 204.463 0.610537 1.48758 0
M  V30 2027 O 205.653 0.87832 1.50437 0
M  V30 2028 C 202.785 1.81502 2.88565 0
M  V30 2029 H 203.978 2.69869 1.30807 0
M  V30 2030 H 201.531 1.42244 0.647785 0
M  V30 2031 H 202.266 0.875813 3.1225 0
M  V30 2032 H 202.051 2.63651 2.90225 0
M  V30 2033 H 203.541 2.00376 3.66387 0
M  V30 2034 N 203.978 -0.674533 1.42435 0
M  V30 2035 C 204.928 -1.7807 1.4239 0
M  V30 2036 C 205.912 -1.58169 0.295202 0
M  V30 2037 O 207.104 -1.68643 0.537449 0
M  V30 2038 C 204.233 -3.16532 1.32901 0
M  V30 2039 C 203.319 -3.42055 2.50717 0
M  V30 2040 N 203.71 -3.38162 3.76139 0
M  V30 2041 C 202.008 -3.72692 2.44983 0
M  V30 2042 C 202.709 -3.63177 4.54398 0
M  V30 2043 N 201.685 -3.83954 3.84812 0
M  V30 2044 H 205.487 -1.73454 2.37257 0
M  V30 2045 H 203.001 -0.875381 1.36788 0
M  V30 2046 H 204.998 -3.958 1.30951 0
M  V30 2047 H 203.658 -3.22345 0.390363 0
M  V30 2048 H 204.669 -3.18057 4.0873 0
M  V30 2049 H 201.346 -3.85749 1.59699 0
M  V30 2050 H 202.736 -3.66125 5.63384 0
M  V30 2051 N 205.456 -1.28612 -0.910864 0
M  V30 2052 C 206.388 -1.08589 -2.01844 0
M  V30 2053 C 207.401 -0.0367419 -1.62759 0
M  V30 2054 O 208.59 -0.280101 -1.76289 0
M  V30 2055 C 205.69 -0.628626 -3.33019 0
M  V30 2056 C 204.863 -1.75382 -4.00699 0
M  V30 2057 C 203.922 -1.28945 -5.10156 0
M  V30 2058 O 202.948 -1.9922 -5.33198 0
M  V30 2059 N 204.15 -0.154224 -5.80295 0
M  V30 2060 H 206.915 -2.03973 -2.19579 0
M  V30 2061 H 204.476 -1.20403 -1.08234 0
M  V30 2062 H 206.468 -0.301508 -4.03575 0
M  V30 2063 H 205.038 0.232451 -3.11735 0
M  V30 2064 H 204.258 -2.25039 -3.23653 0
M  V30 2065 H 205.546 -2.50854 -4.42662 0
M  V30 2066 H 204.944 0.43194 -5.64049 0
M  V30 2067 H 203.501 0.113599 -6.51701 0
M  V30 2068 N 206.934 1.1197 -1.10907 0
M  V30 2069 C 207.897 2.16031 -0.765707 0
M  V30 2070 C 208.897 1.59393 0.212235 0
M  V30 2071 O 210.087 1.74196 -0.0115441 0
M  V30 2072 C 207.219 3.40632 -0.135053 0
M  V30 2073 H 208.412 2.47919 -1.68748 0
M  V30 2074 H 205.965 1.27061 -0.910226 0
M  V30 2075 H 206.7 3.14348 0.797218 0
M  V30 2076 H 206.485 3.8302 -0.838937 0
M  V30 2077 H 207.975 4.17505 0.0892469 0
M  V30 2078 N 208.412 0.89855 1.29475 0
M  V30 2079 C 209.652 0.530771 1.97388 0
M  V30 2080 C 210.016 -0.905832 1.69289 0
M  V30 2081 O 211.217 -1.38042 2.30646 0
M  V30 2082 C 209.488 0.81369 3.48014 0
M  V30 2083 S 211.047 0.550048 4.35339 0
M  V30 2084 H 207.865 0.196956 0.683176 0
M  V30 2085 H 210.467 1.16074 1.57312 0
M  V30 2086 H 209.171 1.85749 3.65958 0
M  V30 2087 H 208.702 0.171795 3.93025 0
M  V30 2088 H 210.717 -0.605423 4.92493 0
M  V30 2089 N 209.89 -1.43072 0.660911 0
M  V30 2090 C 210.84 -2.27948 -0.04847 0
M  V30 2091 C 211.824 -1.40325 -0.787246 0
M  V30 2092 O 213.016 -1.63893 -0.668446 0
M  V30 2093 C 210.145 -3.28143 -1.00881 0
M  V30 2094 C 209.231 -4.23252 -0.268108 0
M  V30 2095 N 209.622 -5.00656 0.719528 0
M  V30 2096 C 207.92 -4.43092 -0.508493 0
M  V30 2097 C 208.621 -5.70019 1.15988 0
M  V30 2098 N 207.597 -5.41364 0.492584 0
M  V30 2099 H 211.399 -2.85213 0.709279 0
M  V30 2100 H 208.913 -1.54869 0.488822 0
M  V30 2101 H 210.91 -3.87736 -1.53188 0
M  V30 2102 H 209.57 -2.7244 -1.76654 0
M  V30 2103 H 210.581 -5.06115 1.09855 0
M  V30 2104 H 207.258 -3.98449 -1.24679 0
M  V30 2105 H 208.648 -6.4214 1.97751 0
M  V30 2106 N 211.368 -0.403325 -1.52352 0
M  V30 2107 C 212.298 0.416205 -2.29761 0
M  V30 2108 C 213.279 1.05123 -1.33728 0
M  V30 2109 O 214.464 1.06134 -1.62632 0
M  V30 2110 C 211.594 1.53624 -3.11475 0
M  V30 2111 C 210.548 1.02653 -4.15507 0
M  V30 2112 C 209.874 2.23971 -4.85532 0
M  V30 2113 C 211.174 0.08463 -5.22231 0
M  V30 2114 H 212.868 -0.229701 -2.98518 0
M  V30 2115 H 210.414 -0.111913 -1.43564 0
M  V30 2116 H 212.367 2.1165 -3.64393 0
M  V30 2117 H 211.091 2.20994 -2.40477 0
M  V30 2118 H 209.75 0.46871 -3.63591 0
M  V30 2119 H 209.398 2.89883 -4.11068 0
M  V30 2120 H 209.098 1.90521 -5.55856 0
M  V30 2121 H 210.622 2.82614 -5.41259 0
M  V30 2122 H 212.036 0.573509 -5.70424 0
M  V30 2123 H 210.433 -0.160783 -5.99885 0
M  V30 2124 H 211.503 -0.86237 -4.7717 0
M  V30 2125 N 212.846 1.57033 -0.133567 0
M  V30 2126 C 214.257 1.82593 0.389464 0
M  V30 2127 C 214.608 1.05156 1.6564 0
M  V30 2128 O 213.733 0.292644 2.14412 0
M  V30 2129 C 214.328 3.31204 0.713377 0
M  V30 2130 C 212.887 3.57393 1.18098 0
M  V30 2131 C 212.034 2.76598 0.197126 0
M  V30 2132 H 214.985 1.54598 -0.358481 0
M  V30 2133 H 215.006 3.46627 1.56939 0
M  V30 2134 H 214.518 3.87537 -0.2089 0
M  V30 2135 H 212.619 3.06433 2.11966 0
M  V30 2136 H 212.732 4.65915 1.11624 0
M  V30 2137 H 211.096 2.45257 0.687088 0
M  V30 2138 H 211.879 3.35697 -0.718504 0
M  V30 2139 N 214.325 -0.140222 1.56975 0
M  V30 2140 C 215.255 -1.17456 2.01808 0
M  V30 2141 C 216.236 -1.44415 0.898794 0
M  V30 2142 O 217.421 -1.5522 1.16707 0
M  V30 2143 C 214.551 -2.50607 2.40444 0
M  V30 2144 C 213.505 -2.38155 3.55621 0
M  V30 2145 C 212.831 -3.76078 3.80091 0
M  V30 2146 C 214.131 -1.85991 4.88062 0
M  V30 2147 H 215.825 -0.801743 2.88466 0
M  V30 2148 H 213.371 -0.38422 1.38779 0
M  V30 2149 H 215.324 -3.23197 2.7041 0
M  V30 2150 H 214.048 -2.89737 1.50732 0
M  V30 2151 H 212.707 -1.68016 3.25832 0
M  V30 2152 H 212.355 -4.12656 2.87618 0
M  V30 2153 H 212.055 -3.68606 4.57606 0
M  V30 2154 H 213.579 -4.50206 4.12488 0
M  V30 2155 H 214.993 -2.4838 5.16701 0
M  V30 2156 H 213.39 -1.89393 5.6943 0
M  V30 2157 H 214.46 -0.816023 4.77984 0
M  V30 2158 N 215.803 -1.52179 -0.40978 0
M  V30 2159 C 216.713 -1.78364 -1.52392 0
M  V30 2160 C 217.729 -0.669183 -1.60617 0
M  V30 2161 O 218.905 -0.954518 -1.77344 0
M  V30 2162 C 215.97 -1.92822 -2.88133 0
M  V30 2163 C 215.031 -3.16725 -2.898 0
M  V30 2164 C 214.264 -3.30483 -4.19067 0
M  V30 2165 O 214.487 -2.49522 -5.12928 0
M  V30 2166 O 213.421 -4.2363 -4.27576 0
M  V30 2167 H 217.247 -2.72931 -1.33201 0
M  V30 2168 H 214.832 -1.37016 -0.59557 0
M  V30 2169 H 216.714 -2.04157 -3.68643 0
M  V30 2170 H 215.389 -1.01444 -3.07393 0
M  V30 2171 H 214.296 -3.10848 -2.08146 0
M  V30 2172 H 215.629 -4.07881 -2.75489 0
M  V30 2173 N 217.281 0.66697 -1.42791 0
M  V30 2174 C 218.509 1.45505 -1.47091 0
M  V30 2175 C 218.924 1.8861 -0.0845873 0
M  V30 2176 O 218.281 1.58632 0.90234 0
M  V30 2177 C 218.332 2.69906 -2.40485 0
M  V30 2178 O 218.053 2.28608 -3.73725 0
M  V30 2179 C 219.554 3.63396 -2.53886 0
M  V30 2180 H 216.774 0.447459 -0.500022 0
M  V30 2181 H 219.318 0.818866 -1.8739 0
M  V30 2182 H 217.473 3.29696 -2.03419 0
M  V30 2183 H 217.887 3.08997 -4.23817 0
M  V30 2184 H 219.361 4.47387 -3.2334 0
M  V30 2185 H 219.838 4.09824 -1.57927 0
M  V30 2186 H 220.444 3.09495 -2.91706 0
M  V30 2187 N 218.759 1.29093 0.90403 0
M  V30 2188 C 220.006 1.16813 1.65411 0
M  V30 2189 C 220.334 -0.28128 1.92455 0
M  V30 2190 O 219.589 -1.22006 1.53013 0
M  V30 2191 C 219.888 1.92224 3.01305 0
M  V30 2192 C 219.554 3.41968 2.93885 0
M  V30 2193 C 218.216 3.82807 2.91569 0
M  V30 2194 C 220.568 4.37409 2.83413 0
M  V30 2195 C 217.896 5.1741 2.76594 0
M  V30 2196 C 220.248 5.72097 2.69977 0
M  V30 2197 C 218.912 6.12199 2.66024 0
M  V30 2198 H 218.182 0.42745 0.605283 0
M  V30 2199 H 220.829 1.59981 1.05254 0
M  V30 2200 H 219.134 1.41635 3.65304 0
M  V30 2201 H 220.831 1.80131 3.58265 0
M  V30 2202 H 217.421 3.09504 2.96488 0
M  V30 2203 H 221.605 4.06813 2.84283 0
M  V30 2204 H 216.861 5.47596 2.71935 0
M  V30 2205 H 221.035 6.45704 2.60844 0
M  V30 2206 H 218.662 7.16448 2.54178 0
M  V30 2207 N 220.237 -1.11381 1.11499 0
M  V30 2208 C 221.465 -1.86934 0.88675 0
M  V30 2209 C 221.88 -1.80195 -0.563476 0
M  V30 2210 O 221.237 -1.18367 -1.38908 0
M  V30 2211 C 221.288 -3.35722 1.34064 0
M  V30 2212 O 221.009 -3.4232 2.73401 0
M  V30 2213 C 222.51 -4.2818 1.14791 0
M  V30 2214 H 219.73 -0.591117 0.317523 0
M  V30 2215 H 222.274 -1.40865 1.48248 0
M  V30 2216 H 220.429 -3.79294 0.788355 0
M  V30 2217 H 220.843 -4.34971 2.93087 0
M  V30 2218 H 222.317 -5.30817 1.5145 0
M  V30 2219 H 222.794 -4.39113 0.0875279 0
M  V30 2220 H 223.4 -3.90402 1.68721 0
M  V30 2221 N 221.715 -0.905404 -1.28997 0
M  V30 2222 C 223.131 -0.60233 -1.47798 0
M  V30 2223 C 223.331 0.854645 -1.82478 0
M  V30 2224 O 222.387 1.63439 -1.92468 0
M  V30 2225 C 223.7 -1.53306 -2.58685 0
M  V30 2226 C 225.248 -1.53887 -2.72558 0
M  V30 2227 C 225.723 -2.45602 -3.86579 0
M  V30 2228 N 227.214 -2.43681 -3.93921 0
M  V30 2229 C 227.949 -3.11347 -4.81509 0
M  V30 2230 N 227.445 -3.88313 -5.73746 0
M  V30 2231 N 229.238 -3.00476 -4.75048 0
M  V30 2232 H 221.389 -1.84765 -1.04764 0
M  V30 2233 H 223.652 -0.792025 -0.520961 0
M  V30 2234 H 223.358 -2.57141 -2.39941 0
M  V30 2235 H 223.232 -1.25787 -3.55609 0
M  V30 2236 H 225.619 -0.507941 -2.90696 0
M  V30 2237 H 225.7 -1.85447 -1.76191 0
M  V30 2238 H 225.344 -3.48792 -3.69197 0
M  V30 2239 H 225.274 -2.11349 -4.82327 0
M  V30 2240 H 227.765 -1.87767 -3.27951 0
M  V30 2241 H 228.078 -4.36985 -6.37389 0
M  V30 2242 H 226.423 -3.92419 -5.73614 0
M  V30 2243 H 229.614 -2.39858 -4.01977 0
M  V30 2244 H 229.787 -3.53485 -5.43095 0
M  V30 2245 N 223.193 1.4272 -0.668489 0
M  V30 2246 C 224.143 2.27971 0.0363806 0
M  V30 2247 C 225.127 1.40741 0.779794 0
M  V30 2248 O 226.319 1.64245 0.659745 0
M  V30 2249 C 223.448 3.28673 0.991398 0
M  V30 2250 C 222.534 4.23388 0.245658 0
M  V30 2251 N 222.925 5.00267 -0.746069 0
M  V30 2252 C 221.223 4.43355 0.484988 0
M  V30 2253 C 221.924 5.69396 -1.19009 0
M  V30 2254 N 220.9 5.41095 -0.521287 0
M  V30 2255 H 224.702 2.84833 -0.724394 0
M  V30 2256 H 222.216 1.54607 -0.497028 0
M  V30 2257 H 224.213 3.88543 1.51129 0
M  V30 2258 H 222.873 2.73373 1.75207 0
M  V30 2259 H 223.884 5.05525 -1.12537 0
M  V30 2260 H 220.561 3.99104 1.22565 0
M  V30 2261 H 221.951 6.41083 -2.01153 0
M  V30 2262 N 224.671 0.411399 1.52136 0
M  V30 2263 C 226.087 0.0623865 1.59478 0
M  V30 2264 C 226.287 -1.42554 1.4241 0
M  V30 2265 O 225.343 -2.19263 1.2522 0
M  V30 2266 C 226.656 0.559331 2.95452 0
M  V30 2267 C 228.204 0.517503 3.08692 0
M  V30 2268 C 228.679 0.990994 4.4715 0
M  V30 2269 N 230.17 0.947908 4.53397 0
M  V30 2270 C 230.905 1.28544 5.58806 0
M  V30 2271 N 230.401 1.69454 6.71757 0
M  V30 2272 N 232.194 1.20526 5.49026 0
M  V30 2273 H 224.345 1.37982 1.61477 0
M  V30 2274 H 226.608 0.566977 0.759764 0
M  V30 2275 H 226.314 1.59938 3.1323 0
M  V30 2276 H 226.188 -0.0298014 3.77188 0
M  V30 2277 H 228.575 -0.513505 2.90598 0
M  V30 2278 H 228.656 1.14272 2.28857 0
M  V30 2279 H 228.3 2.02034 4.65988 0
M  V30 2280 H 228.23 0.34257 5.25485 0
M  V30 2281 H 230.721 0.647157 3.72317 0
M  V30 2282 H 231.034 1.93513 7.48179 0
M  V30 2283 H 229.379 1.73359 6.73032 0
M  V30 2284 H 232.57 0.884505 4.59667 0
M  V30 2285 H 232.743 1.47161 6.31069 0
M  V30 2286 N 226.149 -1.5696 0.141893 0
M  V30 2287 C 227.081 -2.13619 -0.830627 0
M  V30 2288 C 228.094 -1.08439 -1.21428 0
M  V30 2289 O 229.283 -1.35734 -1.15925 0
M  V30 2290 C 226.383 -2.63978 -2.12529 0
M  V30 2291 C 225.556 -3.93504 -1.9098 0
M  V30 2292 C 224.615 -4.29225 -3.04388 0
M  V30 2293 O 223.641 -4.97641 -2.76302 0
M  V30 2294 N 224.843 -3.88393 -4.31429 0
M  V30 2295 H 227.608 -2.97691 -0.34641 0
M  V30 2296 H 225.169 -1.61846 -0.0418375 0
M  V30 2297 H 227.161 -2.84891 -2.87436 0
M  V30 2298 H 225.731 -1.84659 -2.52229 0
M  V30 2299 H 224.951 -3.81269 -1.00139 0
M  V30 2300 H 226.239 -4.78154 -1.73914 0
M  V30 2301 H 225.637 -3.33257 -4.57117 0
M  V30 2302 H 224.194 -4.14368 -5.03133 0
M  V30 2303 N 227.627 0.131896 -1.57047 0
M  V30 2304 C 229.038 0.690407 -1.73465 0
M  V30 2305 C 229.389 1.8094 -0.758629 0
M  V30 2306 O 228.514 2.16282 0.0713813 0
M  V30 2307 C 229.109 1.25916 -3.14532 0
M  V30 2308 C 227.668 1.76409 -3.32501 0
M  V30 2309 C 226.815 0.658579 -2.69366 0
M  V30 2310 H 229.766 -0.0939144 -1.58422 0
M  V30 2311 H 229.787 2.12892 -3.15369 0
M  V30 2312 H 229.299 0.444515 -3.85546 0
M  V30 2313 H 227.4 2.60391 -2.66509 0
M  V30 2314 H 227.513 1.88241 -4.4057 0
M  V30 2315 H 225.877 1.08899 -2.30246 0
M  V30 2316 H 226.66 -0.14487 -3.42994 0
M  V30 2317 N 229.106 1.52395 0.401703 0
M  V30 2318 C 230.522 1.41363 0.740864 0
M  V30 2319 C 230.722 0.523982 1.94568 0
M  V30 2320 O 229.778 -0.00741204 2.52499 0
M  V30 2321 C 231.091 2.84011 0.987847 0
M  V30 2322 C 232.639 2.93404 1.09011 0
M  V30 2323 C 233.114 4.37036 1.3698 0
M  V30 2324 N 234.605 4.40304 1.43829 0
M  V30 2325 C 235.34 5.48508 1.67112 0
M  V30 2326 N 234.836 6.66819 1.87949 0
M  V30 2327 N 236.629 5.36034 1.69187 0
M  V30 2328 H 228.78 2.08765 -0.391262 0
M  V30 2329 H 231.043 0.941265 -0.112798 0
M  V30 2330 H 230.749 3.51265 0.174835 0
M  V30 2331 H 230.623 3.25502 1.906 0
M  V30 2332 H 233.01 2.26325 1.8937 0
M  V30 2333 H 233.091 2.55359 0.15015 0
M  V30 2334 H 232.735 5.04676 0.571353 0
M  V30 2335 H 232.665 4.72623 2.3224 0
M  V30 2336 H 235.156 3.55024 1.29486 0
M  V30 2337 H 235.469 7.45063 2.05185 0
M  V30 2338 H 233.814 6.6987 1.85199 0
M  V30 2339 H 237.005 4.42579 1.52451 0
M  V30 2340 H 237.178 6.20434 1.86993 0
M  V30 2341 N 230.584 -0.659388 1.43143 0
M  V30 2342 C 231.832 -1.41654 1.44147 0
M  V30 2343 C 232.153 -1.94893 0.0645739 0
M  V30 2344 O 231.423 -1.74044 -0.899198 0
M  V30 2345 H 230.003 -0.525708 0.530697 0
M  V30 2346 H 232.665 -0.778097 1.78694 0
M  V30 2347 H 231.761 -2.26195 2.1504 0
M  V30 2348 N 232.062 -1.29571 -0.897171 0
M  V30 2349 C 233.308 -1.18873 -1.65048 0
M  V30 2350 C 233.663 0.256707 -1.9068 0
M  V30 2351 O 232.956 1.18202 -1.50794 0
M  V30 2352 C 233.15 -1.9382 -3.00281 0
M  V30 2353 C 232.979 -3.45503 -2.8785 0
M  V30 2354 C 231.749 -4.14856 -2.88483 0
M  V30 2355 C 233.947 -4.40956 -2.64693 0
M  V30 2356 N 231.929 -5.52886 -2.66815 0
M  V30 2357 C 233.3 -5.66464 -2.5203 0
M  V30 2358 C 235.355 -4.3069 -2.49821 0
M  V30 2359 C 234.058 -6.82871 -2.26008 0
M  V30 2360 C 236.084 -5.46852 -2.25182 0
M  V30 2361 C 235.446 -6.71333 -2.13286 0
M  V30 2362 H 231.545 -0.489998 -0.609447 0
M  V30 2363 H 234.129 -1.63431 -1.05822 0
M  V30 2364 H 232.3 -1.51671 -3.57562 0
M  V30 2365 H 234.032 -1.75366 -3.64731 0
M  V30 2366 H 230.787 -3.66579 -2.99861 0
M  V30 2367 H 231.211 -6.25487 -2.59027 0
M  V30 2368 H 235.853 -3.35141 -2.5776 0
M  V30 2369 H 233.571 -7.78473 -2.16806 0
M  V30 2370 H 237.157 -5.40809 -2.14515 0
M  V30 2371 H 236.037 -7.59701 -1.94485 0
M  V30 2372 N 233.54 1.10788 -1.12088 0
M  V30 2373 C 234.45 2.20599 -0.798338 0
M  V30 2374 C 235.466 1.72712 0.21135 0
M  V30 2375 O 236.642 2.01348 0.0458477 0
M  V30 2376 C 233.707 3.45771 -0.253674 0
M  V30 2377 C 232.768 4.08411 -1.32283 0
M  V30 2378 C 232.001 5.27608 -0.80406 0
M  V30 2379 O 232.224 5.69241 0.363478 0
M  V30 2380 O 231.158 5.8101 -1.57198 0
M  V30 2381 H 234.984 2.50614 -1.7154 0
M  V30 2382 H 232.569 1.19454 -0.897275 0
M  V30 2383 H 234.451 4.21376 0.0453691 0
M  V30 2384 H 233.126 3.1739 0.636005 0
M  V30 2385 H 232.033 3.34507 -1.67499 0
M  V30 2386 H 233.366 4.40986 -2.18614 0
M  V30 2387 N 235.018 0.912232 1.28515 0
M  V30 2388 C 235.95 0.35676 2.26406 0
M  V30 2389 C 236.963 -0.503933 1.54804 0
M  V30 2390 O 238.152 -0.319059 1.75625 0
M  V30 2391 C 235.252 -0.508825 3.35058 0
M  V30 2392 C 234.425 0.329007 4.36161 0
M  V30 2393 C 233.484 -0.471422 5.24084 0
M  V30 2394 O 232.51 0.115482 5.69083 0
M  V30 2395 N 233.712 -1.77479 5.52704 0
M  V30 2396 H 236.477 1.19818 2.74707 0
M  V30 2397 H 234.038 0.778022 1.4198 0
M  V30 2398 H 236.03 -1.051 3.90815 0
M  V30 2399 H 234.6 -1.25095 2.86478 0
M  V30 2400 H 233.82 1.05256 3.79888 0
M  V30 2401 H 235.108 0.90234 5.00735 0
M  V30 2402 H 234.506 -2.27417 5.17975 0
M  V30 2403 H 233.063 -2.26382 6.11224 0
M  V30 2404 N 236.496 -1.42363 0.676048 0
M  V30 2405 C 237.426 -2.33497 0.0124832 0
M  V30 2406 C 238.407 -1.50748 -0.787981 0
M  V30 2407 O 239.592 -1.79346 -0.744884 0
M  V30 2408 C 236.722 -3.34377 -0.938582 0
M  V30 2409 C 235.676 -4.27289 -0.246622 0
M  V30 2410 C 235.002 -5.18386 -1.31071 0
M  V30 2411 C 236.302 -5.14916 0.875125 0
M  V30 2412 H 237.996 -2.89233 0.773593 0
M  V30 2413 H 235.542 -1.39073 0.37346 0
M  V30 2414 H 237.495 -3.97044 -1.41188 0
M  V30 2415 H 236.219 -2.76947 -1.73113 0
M  V30 2416 H 234.878 -3.66018 0.206456 0
M  V30 2417 H 234.526 -4.57282 -2.09528 0
M  V30 2418 H 234.226 -5.81378 -0.852839 0
M  V30 2419 H 235.75 -5.83929 -1.78492 0
M  V30 2420 H 237.164 -5.71262 0.482983 0
M  V30 2421 H 235.561 -5.86747 1.25887 0
M  V30 2422 H 236.631 -4.53242 1.72335 0
M  V30 2423 N 237.974 -0.419461 -1.51915 0
M  V30 2424 C 238.884 0.407528 -2.31033 0
M  V30 2425 C 239.9 1.04413 -1.3919 0
M  V30 2426 O 241.076 1.0434 -1.72265 0
M  V30 2427 C 238.141 1.50365 -3.12396 0
M  V30 2428 C 237.202 0.889029 -4.19994 0
M  V30 2429 C 236.435 1.93291 -4.97468 0
M  V30 2430 O 236.658 3.15259 -4.75361 0
M  V30 2431 O 235.592 1.53339 -5.8204 0
M  V30 2432 H 239.418 -0.237865 -3.02767 0
M  V30 2433 H 237.003 -0.182413 -1.48282 0
M  V30 2434 H 238.885 2.13975 -3.63032 0
M  V30 2435 H 237.56 2.13345 -2.43445 0
M  V30 2436 H 236.467 0.215353 -3.7348 0
M  V30 2437 H 237.8 0.302991 -4.91267 0
M  V30 2438 N 239.452 1.56882 -0.150215 0
M  V30 2439 C 240.384 2.14057 0.819286 0
M  V30 2440 C 241.397 1.09082 1.20851 0
M  V30 2441 O 242.586 1.36347 1.15203 0
M  V30 2442 C 239.686 2.65102 2.11127 0
M  V30 2443 C 238.859 3.94511 1.88891 0
M  V30 2444 C 237.918 4.30834 3.02107 0
M  V30 2445 O 236.944 4.99099 2.73659 0
M  V30 2446 N 238.146 3.90676 4.29363 0
M  V30 2447 H 240.911 2.97871 0.330618 0
M  V30 2448 H 238.472 1.61866 0.0332538 0
M  V30 2449 H 240.464 2.86411 2.85921 0
M  V30 2450 H 239.034 1.85994 2.51247 0
M  V30 2451 H 238.254 3.81795 0.981152 0
M  V30 2452 H 239.542 4.7907 1.71376 0
M  V30 2453 H 238.94 3.35677 4.55343 0
M  V30 2454 H 237.497 4.1703 5.00928 0
M  V30 2455 N 240.93 -0.123565 1.57115 0
M  V30 2456 C 242.17 -0.838097 1.86428 0
M  V30 2457 C 242.534 -1.77266 0.737611 0
M  V30 2458 O 243.735 -2.52842 0.912389 0
M  V30 2459 C 242.006 -1.57219 3.20962 0
M  V30 2460 S 243.565 -2.32893 3.71896 0
M  V30 2461 H 240.383 -0.279811 0.653626 0
M  V30 2462 H 242.985 -0.0967034 1.95261 0
M  V30 2463 H 241.689 -0.877522 4.00909 0
M  V30 2464 H 241.22 -2.35405 3.15195 0
M  V30 2465 H 243.235 -3.5853 3.43032 0
M  V30 2466 N 242.408 -1.52605 -0.393616 0
M  V30 2467 C 243.656 -1.67093 -1.13685 0
M  V30 2468 C 243.977 -0.411011 -1.90619 0
M  V30 2469 O 243.247 0.574491 -1.87287 0
M  V30 2470 H 241.827 -0.615923 -0.422668 0
M  V30 2471 H 244.489 -1.89704 -0.447039 0
M  V30 2472 H 243.585 -2.51922 -1.84232 0
M  V30 2473 N 243.887 0.651787 -1.4349 0
M  V30 2474 C 245.117 1.43728 -1.48411 0
M  V30 2475 C 245.525 1.8893 -0.10103 0
M  V30 2476 O 244.868 1.60182 0.899307 0
M  V30 2477 C 244.93 2.70411 -2.36893 0
M  V30 2478 C 244.594 2.4714 -3.8441 0
M  V30 2479 C 245.591 2.10271 -4.75481 0
M  V30 2480 C 243.276 2.6142 -4.28912 0
M  V30 2481 C 245.27 1.87982 -6.0905 0
M  V30 2482 C 242.957 2.38746 -5.62533 0
M  V30 2483 C 243.955 2.02083 -6.5242 0
M  V30 2484 O 243.643 1.79647 -7.8357 0
M  V30 2485 H 243.375 0.447962 -0.506267 0
M  V30 2486 H 245.929 0.80624 -1.88915 0
M  V30 2487 H 244.159 3.36079 -1.91278 0
M  V30 2488 H 245.848 3.32364 -2.33 0
M  V30 2489 H 246.614 1.98814 -4.42378 0
M  V30 2490 H 242.493 2.88931 -3.59222 0
M  V30 2491 H 246.037 1.5929 -6.7917 0
M  V30 2492 H 241.934 2.49806 -5.95203 0
M  V30 2493 H 242.702 1.9406 -7.95162 0
M  V30 2494 N 245.365 1.30045 0.890287 0
M  V30 2495 C 246.776 1.16738 1.45702 0
M  V30 2496 C 247.127 -0.233939 1.948 0
M  V30 2497 O 246.252 -1.13021 1.84541 0
M  V30 2498 C 246.847 2.11313 2.64825 0
M  V30 2499 C 245.406 2.02001 3.17604 0
M  V30 2500 C 244.553 2.01699 1.90296 0
M  V30 2501 H 247.504 1.42392 0.700726 0
M  V30 2502 H 247.525 1.69086 3.40867 0
M  V30 2503 H 247.037 3.13294 2.2906 0
M  V30 2504 H 245.138 1.03142 3.5804 0
M  V30 2505 H 245.251 2.90128 3.81264 0
M  V30 2506 H 243.615 1.46427 2.08402 0
M  V30 2507 H 244.398 3.05402 1.56795 0
M  V30 2508 N 246.843 -1.10192 1.12674 0
M  V30 2509 C 248.089 -1.82475 0.884915 0
M  V30 2510 C 248.422 -1.85093 -0.58773 0
M  V30 2511 O 247.697 -1.3134 -1.43457 0
M  V30 2512 C 247.98 -3.29018 1.46353 0
M  V30 2513 C 247.833 -3.34718 3.00473 0
M  V30 2514 C 249.152 -4.25473 1.12519 0
M  V30 2515 H 246.271 -0.662492 0.322915 0
M  V30 2516 H 248.913 -1.2913 1.39375 0
M  V30 2517 H 247.063 -3.74576 1.03077 0
M  V30 2518 H 248.735 -2.97622 3.52447 0
M  V30 2519 H 246.978 -2.74541 3.35872 0
M  V30 2520 H 247.649 -4.37918 3.36053 0
M  V30 2521 H 250.125 -3.88161 1.499 0
M  V30 2522 H 249.001 -5.26365 1.55663 0
M  V30 2523 H 249.262 -4.42084 0.0377407 0
M  V30 2524 N 248.321 -0.919034 -1.28029 0
M  V30 2525 C 249.253 -0.368762 -2.26214 0
M  V30 2526 C 250.266 0.495716 -1.55069 0
M  V30 2527 O 251.455 0.30974 -1.75792 0
M  V30 2528 C 248.555 0.491049 -3.35324 0
M  V30 2529 C 247.728 -0.352133 -4.3598 0
M  V30 2530 C 246.787 0.443622 -5.24327 0
M  V30 2531 O 245.813 -0.14566 -5.69014 0
M  V30 2532 N 247.015 1.74545 -5.53637 0
M  V30 2533 H 249.78 -1.21273 -2.74068 0
M  V30 2534 H 247.341 -0.785541 -1.41566 0
M  V30 2535 H 249.333 1.03026 -3.91366 0
M  V30 2536 H 247.903 1.23574 -2.87138 0
M  V30 2537 H 247.123 -1.07269 -3.79324 0
M  V30 2538 H 248.411 -0.928883 -5.00249 0
M  V30 2539 H 247.809 2.24666 -5.19174 0
M  V30 2540 H 246.366 2.23138 -6.12416 0
M  V30 2541 N 249.799 1.42003 -0.683588 0
M  V30 2542 C 251.215 1.55625 -0.353976 0
M  V30 2543 C 251.415 1.66151 1.14 0
M  V30 2544 O 250.471 1.63329 1.92561 0
M  V30 2545 C 251.784 2.80171 -1.092 0
M  V30 2546 C 253.332 2.93954 -1.07518 0
M  V30 2547 C 253.807 4.21372 -1.79471 0
M  V30 2548 N 255.298 4.28303 -1.76381 0
M  V30 2549 C 256.033 5.25729 -2.28904 0
M  V30 2550 N 255.529 6.29254 -2.89846 0
M  V30 2551 N 257.322 5.17586 -2.19228 0
M  V30 2552 H 249.473 1.33415 -1.6527 0
M  V30 2553 H 251.736 0.64282 -0.696769 0
M  V30 2554 H 251.442 2.78561 -2.14701 0
M  V30 2555 H 251.316 3.7133 -0.662862 0
M  V30 2556 H 253.703 2.95086 -0.028475 0
M  V30 2557 H 253.784 2.04002 -1.54328 0
M  V30 2558 H 253.428 4.21001 -2.84114 0
M  V30 2559 H 253.358 5.10275 -1.30104 0
M  V30 2560 H 255.849 3.54119 -1.31939 0
M  V30 2561 H 256.162 6.99964 -3.27522 0
M  V30 2562 H 254.507 6.29791 -2.93919 0
M  V30 2563 H 257.698 4.35631 -1.71299 0
M  V30 2564 H 257.871 5.93348 -2.60466 0
M  V30 2565 N 251.277 0.427512 1.51691 0
M  V30 2566 C 252.207 -0.3796 2.30394 0
M  V30 2567 C 253.188 -1.02982 1.35384 0
M  V30 2568 O 254.373 -1.03534 1.643 0
M  V30 2569 C 251.503 -1.48649 3.1388 0
M  V30 2570 C 250.457 -0.960294 4.17088 0
M  V30 2571 C 249.783 -2.16219 4.89033 0
M  V30 2572 C 251.083 -0.00153679 5.223 0
M  V30 2573 H 252.777 0.277164 2.98114 0
M  V30 2574 H 250.323 0.134739 1.43368 0
M  V30 2575 H 252.276 -2.05826 3.67714 0
M  V30 2576 H 251 -2.1714 2.43962 0
M  V30 2577 H 249.659 -0.410806 3.64291 0
M  V30 2578 H 249.307 -2.83307 4.15628 0
M  V30 2579 H 249.007 -1.81654 5.58816 0
M  V30 2580 H 250.531 -2.73968 5.45687 0
M  V30 2581 H 251.945 -0.482687 5.71264 0
M  V30 2582 H 250.342 0.256199 5.99553 0
M  V30 2583 H 251.412 0.938174 4.75738 0
M  V30 2584 N 252.755 -1.56801 0.158532 0
M  V30 2585 C 254.001 -1.96781 -0.490405 0
M  V30 2586 C 254.334 -1.04397 -1.63753 0
M  V30 2587 O 253.609 -0.0885805 -1.94298 0
M  V30 2588 C 253.892 -3.4635 -0.985594 0
M  V30 2589 C 253.745 -4.49512 0.160824 0
M  V30 2590 C 255.064 -3.98697 -1.86355 0
M  V30 2591 H 252.183 -0.715482 -0.176788 0
M  V30 2592 H 254.825 -1.88451 0.242088 0
M  V30 2593 H 252.975 -3.53579 -1.60978 0
M  V30 2594 H 254.647 -4.54353 0.797537 0
M  V30 2595 H 252.89 -4.26013 0.818256 0
M  V30 2596 H 253.561 -5.51531 -0.227569 0
M  V30 2597 H 256.037 -3.94019 -1.33746 0
M  V30 2598 H 254.913 -5.03792 -2.17909 0
M  V30 2599 H 255.174 -3.41744 -2.8047 0
M  V30 2600 N 254.233 0.115231 -1.57178 0
M  V30 2601 C 255.196 1.12526 -1.99676 0
M  V30 2602 C 256.196 1.34095 -0.88742 0
M  V30 2603 O 257.386 1.30548 -1.15337 0
M  V30 2604 C 254.518 2.4789 -2.34015 0
M  V30 2605 H 255.711 0.759912 -2.90113 0
M  V30 2606 H 253.264 0.359648 -1.52106 0
M  V30 2607 H 253.999 2.89339 -1.4647 0
M  V30 2608 H 253.784 2.33588 -3.14927 0
M  V30 2609 H 255.274 3.20575 -2.67622 0
M  V30 2610 N 255.711 1.52812 0.385517 0
M  V30 2611 C 256.641 1.80808 1.47752 0
M  V30 2612 C 257.622 0.660318 1.5676 0
M  V30 2613 O 258.807 0.908246 1.71652 0
M  V30 2614 C 255.937 1.98008 2.85324 0
M  V30 2615 C 254.891 3.13709 2.91154 0
M  V30 2616 C 254.217 3.16169 4.31209 0
M  V30 2617 C 255.517 4.52709 2.60483 0
M  V30 2618 H 257.211 2.72253 1.24573 0
M  V30 2619 H 254.757 1.31003 0.597839 0
M  V30 2620 H 256.71 2.16176 3.61726 0
M  V30 2621 H 255.434 1.03255 3.09848 0
M  V30 2622 H 254.093 2.95329 2.17201 0
M  V30 2623 H 253.741 2.19092 4.52778 0
M  V30 2624 H 253.441 3.93894 4.36029 0
M  V30 2625 H 254.965 3.36496 5.09512 0
M  V30 2626 H 256.379 4.71173 3.26602 0
M  V30 2627 H 254.776 5.32528 2.76648 0
M  V30 2628 H 255.846 4.59186 1.55809 0
M  V30 2629 N 257.189 -0.644168 1.43834 0
M  V30 2630 C 258.419 -1.42939 1.49171 0
M  V30 2631 C 258.827 -1.88874 0.111048 0
M  V30 2632 O 258.17 -1.60656 -0.8908 0
M  V30 2633 C 258.232 -2.69151 2.38324 0
M  V30 2634 C 257.896 -2.45097 3.85715 0
M  V30 2635 C 258.893 -2.07747 4.76589 0
M  V30 2636 C 256.578 -2.59141 4.30292 0
M  V30 2637 C 258.572 -1.8475 6.10038 0
M  V30 2638 C 256.259 -2.35759 5.63792 0
M  V30 2639 C 257.257 -1.9862 6.53482 0
M  V30 2640 O 256.945 -1.75489 7.84512 0
M  V30 2641 H 256.677 -0.445271 0.508635 0
M  V30 2642 H 259.231 -0.79621 1.8934 0
M  V30 2643 H 257.461 -3.3506 1.93058 0
M  V30 2644 H 259.15 -3.31123 2.3476 0
M  V30 2645 H 259.916 -1.96465 4.43426 0
M  V30 2646 H 255.795 -2.87022 3.60749 0
M  V30 2647 H 259.339 -1.55686 6.80006 0
M  V30 2648 H 255.236 -2.46646 5.9652 0
M  V30 2649 H 256.004 -1.89841 7.9618 0
M  V30 2650 N 258.668 -1.30515 -0.883378 0
M  V30 2651 C 259.917 -1.18795 -1.63005 0
M  V30 2652 C 260.23 0.255923 -1.93919 0
M  V30 2653 O 261.436 0.494654 -2.66956 0
M  V30 2654 C 259.892 -2.07878 -2.93794 0
M  V30 2655 C 259.5 -3.57184 -2.70414 0
M  V30 2656 C 261.244 -2.04924 -3.71761 0
M  V30 2657 C 259.151 -4.38317 -3.97029 0
M  V30 2658 H 258.081 -0.441031 -0.611562 0
M  V30 2659 H 260.732 -1.55275 -0.977854 0
M  V30 2660 H 259.114 -1.64283 -3.60315 0
M  V30 2661 H 260.288 -4.08937 -2.12384 0
M  V30 2662 H 258.603 -3.61976 -2.0582 0
M  V30 2663 H 261.2 -2.62792 -4.65665 0
M  V30 2664 H 261.543 -1.0331 -4.03277 0
M  V30 2665 H 262.076 -2.46649 -3.12104 0
M  V30 2666 H 258.815 -5.40632 -3.70671 0
M  V30 2667 H 258.335 -3.91326 -4.54559 0
M  V30 2668 H 260.014 -4.49834 -4.65036 0
M  V30 2669 N 260.146 1.09593 -1.13257 0
M  V30 2670 C 261.109 2.14359 -0.811358 0
M  V30 2671 C 262.109 1.59808 0.178377 0
M  V30 2672 O 263.299 1.74132 -0.0484911 0
M  V30 2673 C 260.431 3.40269 -0.207276 0
M  V30 2674 H 261.624 2.44284 -1.73969 0
M  V30 2675 H 259.177 1.25102 -0.936973 0
M  V30 2676 H 259.912 3.15969 0.73036 0
M  V30 2677 H 259.697 3.81154 -0.919992 0
M  V30 2678 H 261.187 4.176 0.000667944 0
M  V30 2679 N 261.624 0.925811 1.2754 0
M  V30 2680 C 262.587 0.428129 2.25166 0
M  V30 2681 C 263.587 -0.452261 1.54309 0
M  V30 2682 O 264.777 -0.253608 1.72344 0
M  V30 2683 C 261.909 -0.384749 3.38722 0
M  V30 2684 H 263.102 1.29066 2.70706 0
M  V30 2685 H 260.655 0.706323 1.3943 0
M  V30 2686 H 261.39 -1.26618 2.98561 0
M  V30 2687 H 261.175 0.246454 3.91325 0
M  V30 2688 H 262.665 -0.723389 4.11287 0
M  V30 2689 N 263.102 -1.41638 0.69111 0
M  V30 2690 C 264.518 -1.55435 0.362224 0
M  V30 2691 C 264.718 -1.66754 -1.13117 0
M  V30 2692 O 263.774 -1.64348 -1.91692 0
M  V30 2693 C 265.087 -2.79588 1.10684 0
M  V30 2694 C 266.635 -2.9338 1.09075 0
M  V30 2695 C 267.11 -4.20414 1.81703 0
M  V30 2696 N 268.601 -4.27362 1.7865 0
M  V30 2697 C 269.336 -5.24507 2.31689 0
M  V30 2698 N 268.832 -6.27708 2.93179 0
M  V30 2699 N 270.625 -5.16416 2.2197 0
M  V30 2700 H 262.776 -1.32536 1.65976 0
M  V30 2701 H 265.039 -0.639115 0.700168 0
M  V30 2702 H 264.745 -2.77419 2.16175 0
M  V30 2703 H 264.619 -3.70973 0.682545 0
M  V30 2704 H 267.006 -2.95067 0.0441238 0
M  V30 2705 H 267.087 -2.0318 1.55407 0
M  V30 2706 H 266.731 -4.19488 2.86343 0
M  V30 2707 H 266.661 -5.09578 1.32808 0
M  V30 2708 H 269.152 -3.53415 1.33815 0
M  V30 2709 H 269.465 -6.98217 3.31229 0
M  V30 2710 H 267.81 -6.28223 2.97255 0
M  V30 2711 H 271.001 -4.34716 1.73607 0
M  V30 2712 H 271.174 -5.91958 2.63609 0
M  V30 2713 N 264.58 -0.43555 -1.51462 0
M  V30 2714 C 265.51 0.367376 -2.30592 0
M  V30 2715 C 266.491 1.02263 -1.35928 0
M  V30 2716 O 267.676 1.02661 -1.64847 0
M  V30 2717 C 264.806 1.46983 -3.14664 0
M  V30 2718 C 263.76 0.938161 -4.17591 0
M  V30 2719 C 263.086 2.13622 -4.90173 0
M  V30 2720 C 264.386 -0.0261621 -5.22293 0
M  V30 2721 H 266.08 -0.292969 -2.97963 0
M  V30 2722 H 263.626 -0.14234 -1.43295 0
M  V30 2723 H 265.579 2.03873 -3.688 0
M  V30 2724 H 264.303 2.15843 -2.4511 0
M  V30 2725 H 262.962 0.391481 -3.64504 0
M  V30 2726 H 262.61 2.81098 -4.17124 0
M  V30 2727 H 262.31 1.78688 -5.59772 0
M  V30 2728 H 263.834 2.7107 -5.47132 0
M  V30 2729 H 265.248 0.452384 -5.71512 0
M  V30 2730 H 263.645 -0.287992 -5.99409 0
M  V30 2731 H 264.715 -0.963391 -4.75233 0
M  V30 2732 N 266.058 1.56714 -0.166846 0
M  V30 2733 C 267.283 2.01557 0.488833 0
M  V30 2734 C 267.708 1.0463 1.56314 0
M  V30 2735 O 267.066 0.0251304 1.81283 0
M  V30 2736 C 267.114 3.4503 1.04818 0
M  V30 2737 O 266.218 3.51163 2.16236 0
M  V30 2738 H 265.559 0.653516 0.117526 0
M  V30 2739 H 268.089 2.02818 -0.269421 0
M  V30 2740 H 268.099 3.84243 1.37191 0
M  V30 2741 H 266.774 4.15077 0.261572 0
M  V30 2742 H 265.351 3.23807 1.84942 0
M  V30 2743 N 267.536 -0.106894 1.57237 0
M  V30 2744 C 268.782 -0.808678 1.86633 0
M  V30 2745 C 269.137 -1.76917 0.756178 0
M  V30 2746 O 268.43 -1.90055 -0.242834 0
M  V30 2747 C 268.624 -1.58628 3.20268 0
M  V30 2748 C 268.453 -0.702592 4.44178 0
M  V30 2749 C 267.223 -0.352808 5.04067 0
M  V30 2750 C 269.421 -0.0148031 5.14298 0
M  V30 2751 N 267.403 0.540279 6.11518 0
M  V30 2752 C 268.774 0.736809 6.15606 0
M  V30 2753 C 270.829 0.0603524 4.97863 0
M  V30 2754 C 269.532 1.55654 7.02257 0
M  V30 2755 C 271.558 0.866942 5.85011 0
M  V30 2756 C 270.92 1.60671 6.85831 0
M  V30 2757 H 267.019 -0.27246 0.733001 0
M  V30 2758 H 269.603 -0.0717858 1.94568 0
M  V30 2759 H 267.774 -2.29413 3.13408 0
M  V30 2760 H 269.506 -2.23434 3.3743 0
M  V30 2761 H 266.261 -0.697802 4.68431 0
M  V30 2762 H 266.685 0.979029 6.69884 0
M  V30 2763 H 271.327 -0.497236 4.19866 0
M  V30 2764 H 269.045 2.12524 7.79653 0
M  V30 2765 H 272.631 0.927612 5.74358 0
M  V30 2766 H 271.511 2.2208 7.52097 0
M  V30 2767 N 269.014 -1.53014 -0.377408 0
M  V30 2768 C 269.962 -1.7927 -1.48206 0
M  V30 2769 C 270.956 -0.661195 -1.55963 0
M  V30 2770 O 272.162 -0.843908 -1.58991 0
M  V30 2771 H 268.537 -0.567425 -0.493491 0
M  V30 2772 H 270.508 -2.71753 -1.2326 0
M  V30 2773 C 269.257 -1.98894 -2.85196 0
M  V30 2774 H 268.58 -2.85395 -2.79981 0
M  V30 2775 H 270.02 -2.21249 -3.61698 0
M  V30 2776 C 268.479 -0.764691 -3.28107 0
M  V30 2777 O 269.009 0.0523226 -4.01666 0
M  V30 2778 N 267.215 -0.591493 -2.84517 0
M  V30 2779 H 266.762 -1.25749 -2.24822 0
M  V30 2780 H 266.72 0.226253 -3.13585 0
M  V30 2781 N 270.492 0.636531 -1.44174 0
M  V30 2782 C 271.424 1.7618 -1.46606 0
M  V30 2783 C 272.437 1.58768 -0.360091 0
M  V30 2784 O 273.626 1.67181 -0.625518 0
M  V30 2785 C 270.726 3.13833 -1.27915 0
M  V30 2786 C 269.899 3.57753 -2.51658 0
M  V30 2787 C 268.958 4.74265 -2.27945 0
M  V30 2788 O 267.984 4.82852 -3.01401 0
M  V30 2789 N 269.186 5.65604 -1.30662 0
M  V30 2790 H 271.951 1.74567 -2.43612 0
M  V30 2791 H 269.512 0.820924 -1.39544 0
M  V30 2792 H 271.504 3.8949 -1.09907 0
M  V30 2793 H 270.074 3.10121 -0.39293 0
M  V30 2794 H 269.294 2.72362 -2.84978 0
M  V30 2795 H 270.582 3.83847 -3.33974 0
M  V30 2796 H 269.98 5.61354 -0.699844 0
M  V30 2797 H 268.537 6.40913 -1.18634 0
M  V30 2798 N 271.97 1.30982 0.876444 0
M  V30 2799 C 273.216 1.20474 1.63138 0
M  V30 2800 C 273.549 -0.238096 1.92735 0
M  V30 2801 O 272.824 -1.1692 1.55435 0
M  V30 2802 C 273.107 2.04244 2.96574 0
M  V30 2803 C 272.96 3.56793 2.73896 0
M  V30 2804 C 274.279 1.88684 3.97601 0
M  V30 2805 H 271.398 0.439001 0.591985 0
M  V30 2806 H 274.04 1.60704 1.01361 0
M  V30 2807 H 272.19 1.70063 3.493 0
M  V30 2808 H 273.862 4.01077 2.27892 0
M  V30 2809 H 272.105 3.80548 2.08245 0
M  V30 2810 H 272.776 4.10706 3.68815 0
M  V30 2811 H 275.252 2.18584 3.54062 0
M  V30 2812 H 274.128 2.4961 4.88862 0
M  V30 2813 H 274.389 0.848343 4.33884 0
M  V30 2814 N 273.449 -1.08991 1.13837 0
M  V30 2815 C 274.726 -1.77863 0.813876 0
M  V30 2816 C 275.106 -1.99375 -0.693746 0
M  V30 2817 O 274.454 -1.59875 -1.63255 0
M  V30 2818 C 274.664 -3.0986 1.60586 0
M  V30 2819 C 276.012 -3.84493 1.8014 0
M  V30 2820 O 277.036 -3.19624 1.57222 0
M  V30 2821 O 275.895 -5.00957 2.18413 0
M  V30 2822 H 272.989 -0.771589 0.297624 0
M  V30 2823 H 275.535 -1.15507 1.24323 0
M  V30 2824 H 274.307 -2.89715 2.63022 0
M  V30 2825 H 273.93 -3.79942 1.17173 0
M  V30 2826 N 274.927 -0.932562 -1.27047 0
M  V30 2827 C 275.859 -0.392734 -2.2581 0
M  V30 2828 C 276.872 0.479241 -1.55586 0
M  V30 2829 O 278.061 0.291078 -1.76111 0
M  V30 2830 C 275.161 0.455456 -3.35826 0
M  V30 2831 C 274.334 -0.398355 -4.35582 0
M  V30 2832 C 273.393 0.387985 -5.24768 0
M  V30 2833 O 272.419 -0.206003 -5.68827 0
M  V30 2834 N 273.621 1.68664 -5.55457 0
M  V30 2835 H 276.386 -1.24173 -2.72766 0
M  V30 2836 H 273.947 -0.800511 -1.40725 0
M  V30 2837 H 275.939 0.988692 -3.92437 0
M  V30 2838 H 274.509 1.20522 -2.88432 0
M  V30 2839 H 273.729 -1.11286 -3.78165 0
M  V30 2840 H 275.017 -0.981889 -4.99236 0
M  V30 2841 H 274.415 2.19147 -5.21528 0
M  V30 2842 H 272.972 2.1663 -6.14748 0
M  V30 2843 N 276.405 1.4127 -0.698611 0
M  V30 2844 C 277.651 2.01478 -0.231207 0
M  V30 2845 C 277.984 1.55215 1.16713 0
M  V30 2846 O 277.259 0.764672 1.78838 0
M  V30 2847 C 277.542 3.58912 -0.292281 0
M  V30 2848 C 277.395 4.15293 -1.72778 0
M  V30 2849 C 278.714 4.38736 0.346194 0
M  V30 2850 H 275.833 0.732025 -0.0854878 0
M  V30 2851 H 278.475 1.67977 -0.887906 0
M  V30 2852 H 276.625 3.87582 0.26686 0
M  V30 2853 H 278.297 3.97486 -2.341 0
M  V30 2854 H 276.54 3.7022 -2.26096 0
M  V30 2855 H 277.211 5.24452 -1.72202 0
M  V30 2856 H 279.687 4.15897 -0.130035 0
M  V30 2857 H 278.563 5.48221 0.272932 0
M  V30 2858 H 278.824 4.18425 1.42734 0
M  V30 2859 N 277.883 0.443576 1.51229 0
M  V30 2860 C 279.132 -0.122332 2.01329 0
M  V30 2861 C 279.445 -1.43237 1.33201 0
M  V30 2862 O 280.651 -2.0816 1.74304 0
M  V30 2863 C 279.107 -0.268551 3.58897 0
M  V30 2864 C 278.715 1.03142 4.35965 0
M  V30 2865 C 280.459 -0.787894 4.17124 0
M  V30 2866 C 278.366 0.850504 5.85252 0
M  V30 2867 H 277.296 -0.0494929 0.752374 0
M  V30 2868 H 279.947 0.574289 1.74282 0
M  V30 2869 H 278.329 -1.02832 3.82415 0
M  V30 2870 H 279.503 1.80001 4.24189 0
M  V30 2871 H 277.818 1.47977 3.89219 0
M  V30 2872 H 280.415 -0.939841 5.26375 0
M  V30 2873 H 280.758 -1.77201 3.76703 0
M  V30 2874 H 281.291 -0.0862669 3.97706 0
M  V30 2875 H 278.03 1.80718 6.30096 0
M  V30 2876 H 277.55 0.121825 5.99676 0
M  V30 2877 H 279.229 0.506163 6.45017 0
M  V30 2878 N 279.361 -1.56624 0.175154 0
M  V30 2879 C 280.777 -1.58571 -0.180966 0
M  V30 2880 C 280.977 -1.19065 -1.6256 0
M  V30 2881 O 280.033 -0.904044 -2.35761 0
M  V30 2882 C 281.346 -3.00522 0.103326 0
M  V30 2883 C 282.894 -3.12972 0.0418426 0
M  V30 2884 C 283.369 -4.57022 0.299175 0
M  V30 2885 N 284.86 -4.62541 0.247086 0
M  V30 2886 C 285.595 -5.71857 0.420318 0
M  V30 2887 N 285.091 -6.89717 0.652816 0
M  V30 2888 N 286.884 -5.60972 0.355957 0
M  V30 2889 H 279.035 -1.80589 1.11809 0
M  V30 2890 H 281.298 -0.837178 0.444788 0
M  V30 2891 H 281.004 -3.33916 1.10422 0
M  V30 2892 H 280.878 -3.72344 -0.603299 0
M  V30 2893 H 283.265 -2.79403 -0.949636 0
M  V30 2894 H 283.346 -2.43578 0.781238 0
M  V30 2895 H 282.99 -4.913 1.28788 0
M  V30 2896 H 282.92 -5.24579 -0.460876 0
M  V30 2897 H 285.411 -3.77829 0.0731895 0
M  V30 2898 H 285.724 -7.68911 0.774347 0
M  V30 2899 H 284.069 -6.91572 0.689476 0
M  V30 2900 H 287.26 -4.67773 0.174882 0
M  V30 2901 H 287.433 -6.46111 0.494388 0
M  V30 2902 N 280.839 0.0985539 -1.57292 0
M  V30 2903 C 281.802 1.10402 -2.00858 0
M  V30 2904 C 282.802 1.33146 -0.901593 0
M  V30 2905 O 283.992 1.29318 -1.16716 0
M  V30 2906 C 281.124 2.45394 -2.36632 0
M  V30 2907 H 282.317 0.729099 -2.90902 0
M  V30 2908 H 279.87 0.343495 -1.52479 0
M  V30 2909 H 280.605 2.87769 -1.49531 0
M  V30 2910 H 280.39 2.30235 -3.17387 0
M  V30 2911 H 281.88 3.17718 -2.71007 0
M  V30 2912 N 282.317 1.53212 0.369288 0
M  V30 2913 C 283.247 1.82365 1.45826 0
M  V30 2914 C 284.228 0.676907 1.56051 0
M  V30 2915 O 285.413 0.926401 1.70679 0
M  V30 2916 C 282.543 2.01023 2.83208 0
M  V30 2917 C 281.497 3.1678 2.8781 0
M  V30 2918 C 280.823 3.20724 4.27832 0
M  V30 2919 C 282.123 4.55447 2.55667 0
M  V30 2920 H 283.817 2.73559 1.21678 0
M  V30 2921 H 281.363 1.3163 0.583911 0
M  V30 2922 H 283.316 2.20001 3.59413 0
M  V30 2923 H 282.04 1.06536 3.08736 0
M  V30 2924 H 280.699 2.97616 2.14056 0
M  V30 2925 H 280.347 2.23882 4.50429 0
M  V30 2926 H 280.047 3.98496 4.31827 0
M  V30 2927 H 281.571 3.41881 5.05915 0
M  V30 2928 H 282.985 4.74611 3.21586 0
M  V30 2929 H 281.382 5.35432 2.70984 0
M  V30 2930 H 282.452 4.60812 1.5093 0
M  V30 2931 N 283.795 -0.628877 1.44509 0
M  V30 2932 C 284.758 -1.72263 1.51188 0
M  V30 2933 C 285.758 -1.55907 0.39367 0
M  V30 2934 O 286.948 -1.61361 0.656377 0
M  V30 2935 C 284.08 -3.11365 1.38798 0
M  V30 2936 H 285.273 -1.67714 2.4862 0
M  V30 2937 H 282.826 -0.842737 1.31634 0
M  V30 2938 H 283.561 -3.21507 0.424693 0
M  V30 2939 H 283.346 -3.24644 2.19884 0
M  V30 2940 H 284.836 -3.91075 1.46458 0
M  V30 2941 N 285.273 -1.31445 -0.869486 0
M  V30 2942 C 286.498 -1.24256 -1.66058 0
M  V30 2943 C 286.923 0.188928 -1.87149 0
M  V30 2944 O 286.281 1.13522 -1.4136 0
M  V30 2945 C 286.329 -1.9924 -3.00559 0
M  V30 2946 O 285.433 -1.33007 -3.90362 0
M  V30 2947 H 284.774 -0.428973 -0.506831 0
M  V30 2948 H 287.304 -1.73521 -1.08404 0
M  V30 2949 H 287.314 -2.08854 -3.50491 0
M  V30 2950 H 285.989 -3.03342 -2.84528 0
M  V30 2951 H 284.566 -1.31848 -3.48813 0
M  V30 2952 N 286.751 1.08385 -1.14413 0
M  V30 2953 C 288.162 1.62258 -0.923535 0
M  V30 2954 C 288.513 1.88691 0.537595 0
M  V30 2955 O 287.638 1.64454 1.40655 0
M  V30 2956 C 288.233 2.94781 -1.67002 0
M  V30 2957 C 286.792 3.45437 -1.495 0
M  V30 2958 C 285.939 2.19668 -1.69238 0
M  V30 2959 H 288.89 0.916086 -1.2959 0
M  V30 2960 H 288.911 3.63229 -1.13334 0
M  V30 2961 H 288.423 2.7551 -2.73342 0
M  V30 2962 H 286.524 3.6981 -0.455097 0
M  V30 2963 H 286.637 4.22173 -2.2651 0
M  V30 2964 H 285.001 2.28849 -1.11804 0
M  V30 2965 H 285.784 2.02905 -2.7692 0
M  V30 2966 N 288.23 0.939286 1.26551 0
M  V30 2967 C 289.478 0.58469 1.93457 0
M  V30 2968 C 289.799 -0.878774 1.74076 0
M  V30 2969 O 289.069 -1.62421 1.09528 0
M  V30 2970 H 287.649 0.21325 0.715914 0
M  V30 2971 H 290.311 1.1942 1.54029 0
M  V30 2972 H 289.407 0.800849 3.0165 0
M  V30 2973 N 289.708 -1.40897 0.706093 0
M  V30 2974 C 290.933 -2.05895 0.249435 0
M  V30 2975 C 291.358 -1.52823 -1.09666 0
M  V30 2976 O 290.716 -0.659589 -1.68876 0
M  V30 2977 C 290.764 -3.59872 0.22904 0
M  V30 2978 O 289.868 -4.04708 -0.792784 0
M  V30 2979 H 289.209 -0.653206 0.119241 0
M  V30 2980 H 291.739 -1.80471 0.96391 0
M  V30 2981 H 291.749 -4.07951 0.0634791 0
M  V30 2982 H 290.424 -3.97866 1.21141 0
M  V30 2983 H 289.001 -3.68111 -0.59572 0
M  V30 2984 N 291.186 -0.45159 -1.50991 0
M  V30 2985 C 292.434 0.109857 -2.01801 0
M  V30 2986 C 292.755 1.41958 -1.3369 0
M  V30 2987 O 292.025 1.9003 -0.475951 0
M  V30 2988 H 290.605 0.0435884 -0.745727 0
M  V30 2989 H 293.267 -0.597557 -1.85514 0
M  V30 2990 H 292.363 0.275489 -3.10882 0
M  V30 2991 N 292.664 1.56529 -0.183458 0
M  V30 2992 C 293.912 1.96855 0.457452 0
M  V30 2993 C 294.233 1.07104 1.62953 0
M  V30 2994 O 293.503 0.139887 1.954 0
M  V30 2995 H 292.083 0.72693 0.171992 0
M  V30 2996 H 294.745 1.93056 -0.267476 0
M  V30 2997 H 293.841 3.01423 0.809368 0
M  V30 2998 N 294.142 -0.090211 1.57342 0
M  V30 2999 C 295.419 -0.824761 1.77361 0
M  V30 3000 C 295.799 -1.96698 0.76637 0
M  V30 3001 O 295.147 -2.27586 -0.204179 0
M  V30 3002 C 295.357 -1.31481 3.23286 0
M  V30 3003 C 296.705 -1.75563 3.86604 0
M  V30 3004 O 297.729 -1.41093 3.27065 0
M  V30 3005 O 296.588 -2.39317 4.91314 0
M  V30 3006 H 293.682 -0.393776 0.727234 0
M  V30 3007 H 296.228 -0.0717138 1.69548 0
M  V30 3008 H 295 -0.496671 3.88135 0
M  V30 3009 H 294.623 -2.12973 3.35751 0
M  V30 3010 N 295.62 -1.53406 -0.361157 0
M  V30 3011 C 296.55 -1.83136 -1.44857 0
M  V30 3012 C 297.531 -0.685174 -1.5569 0
M  V30 3013 O 298.716 -0.93544 -1.70186 0
M  V30 3014 C 295.846 -2.02522 -2.82138 0
M  V30 3015 C 294.8 -3.18302 -2.86126 0
M  V30 3016 C 294.126 -3.22989 -4.26125 0
M  V30 3017 C 295.426 -4.56796 -2.53248 0
M  V30 3018 H 297.12 -2.74201 -1.20226 0
M  V30 3019 H 294.666 -1.31938 -0.576922 0
M  V30 3020 H 296.619 -2.21904 -3.58241 0
M  V30 3021 H 295.343 -1.08172 -3.08166 0
M  V30 3022 H 294.002 -2.98747 -2.12475 0
M  V30 3023 H 293.65 -2.26267 -4.49235 0
M  V30 3024 H 293.35 -4.00781 -4.29708 0
M  V30 3025 H 294.874 -3.44559 -5.04094 0
M  V30 3026 H 296.288 -4.7631 -3.19064 0
M  V30 3027 H 294.685 -5.36862 -2.68141 0
M  V30 3028 H 295.755 -4.61606 -1.48484 0
M  V30 3029 N 297.098 0.621204 -1.44841 0
M  V30 3030 C 298.346 1.37783 -1.47852 0
M  V30 3031 C 298.667 1.94653 -0.116224 0
M  V30 3032 O 297.937 1.76367 0.852737 0
M  V30 3033 H 296.517 0.511453 -0.544449 0
M  V30 3034 H 299.179 0.730446 -1.80694 0
M  V30 3035 H 298.275 2.20414 -2.20961 0
M  V30 3036 N 298.576 1.31904 0.862503 0
M  V30 3037 C 299.486 1.22161 2.00285 0
M  V30 3038 C 300.502 0.136785 1.73462 0
M  V30 3039 O 301.678 0.355994 1.98229 0
M  V30 3040 C 298.743 0.937093 3.33796 0
M  V30 3041 C 297.804 2.10957 3.73893 0
M  V30 3042 C 297.037 1.83853 5.01033 0
M  V30 3043 O 297.26 0.777274 5.65079 0
M  V30 3044 O 296.194 2.69741 5.38074 0
M  V30 3045 H 300.02 2.18008 2.11439 0
M  V30 3046 H 297.605 1.11716 0.991957 0
M  V30 3047 H 299.487 0.794583 4.13841 0
M  V30 3048 H 298.162 0.00871894 3.23699 0
M  V30 3049 H 297.069 2.30752 2.94456 0
M  V30 3050 H 298.402 3.02046 3.88625 0
M  V30 3051 N 300.054 -1.07777 1.14986 0
M  V30 3052 C 301.017 -2.13041 0.845358 0
M  V30 3053 C 302.017 -1.60071 -0.152931 0
M  V30 3054 O 303.207 -1.74033 0.0761879 0
M  V30 3055 C 300.339 -3.39896 0.261383 0
M  V30 3056 H 301.532 -2.41485 1.77834 0
M  V30 3057 H 299.085 -1.23595 0.956757 0
M  V30 3058 H 299.82 -3.17091 -0.68 0
M  V30 3059 H 299.605 -3.79642 0.980514 0
M  V30 3060 H 301.095 -4.17548 0.0657687 0
M  V30 3061 N 301.532 -0.945985 -1.26051 0
M  V30 3062 C 302.781 -0.591836 -1.92822 0
M  V30 3063 C 303.094 0.873956 -1.7499 0
M  V30 3064 O 304.3 1.33769 -2.36259 0
M  V30 3065 C 302.756 -1.00776 -3.45503 0
M  V30 3066 C 302.364 -2.4955 -3.7206 0
M  V30 3067 C 304.108 -0.725735 -4.1825 0
M  V30 3068 C 302.015 -2.84988 -5.18205 0
M  V30 3069 H 300.945 -0.217635 -0.721908 0
M  V30 3070 H 303.596 -1.14927 -1.43052 0
M  V30 3071 H 301.978 -0.378812 -3.94184 0
M  V30 3072 H 303.152 -3.1739 -3.34066 0
M  V30 3073 H 301.467 -2.75133 -3.12555 0
M  V30 3074 H 304.064 -0.966771 -5.25887 0
M  V30 3075 H 304.407 0.337639 -4.14929 0
M  V30 3076 H 304.94 -1.31463 -3.7545 0
M  V30 3077 H 301.679 -3.90307 -5.26631 0
M  V30 3078 H 301.199 -2.21813 -5.57278 0
M  V30 3079 H 302.878 -2.73712 -5.86252 0
M  V30 3080 N 303.011 1.40521 -0.713556 0
M  V30 3081 C 304.427 1.54839 -0.386907 0
M  V30 3082 C 304.627 1.68532 1.1045 0
M  V30 3083 O 303.683 1.67377 1.89053 0
M  V30 3084 C 304.996 2.77792 -1.15118 0
M  V30 3085 C 306.544 2.91607 -1.13729 0
M  V30 3086 C 307.019 4.1747 -1.88368 0
M  V30 3087 N 308.51 4.24466 -1.85427 0
M  V30 3088 C 309.245 5.20755 -2.40004 0
M  V30 3089 N 308.741 6.22965 -3.03129 0
M  V30 3090 N 310.534 5.1282 -2.30158 0
M  V30 3091 H 302.685 1.29879 -1.68063 0
M  V30 3092 H 304.948 0.627896 -0.710247 0
M  V30 3093 H 304.654 2.73944 -2.20561 0
M  V30 3094 H 304.528 3.6984 -0.741477 0
M  V30 3095 H 306.915 2.94959 -0.0910608 0
M  V30 3096 H 306.996 2.00682 -1.5862 0
M  V30 3097 H 306.64 4.1488 -2.9298 0
M  V30 3098 H 306.57 5.074 -1.40898 0
M  V30 3099 H 309.061 3.51241 -1.3942 0
M  V30 3100 H 309.374 6.92859 -3.42295 0
M  V30 3101 H 307.719 6.23415 -3.07212 0
M  V30 3102 H 310.91 4.31899 -1.80501 0
M  V30 3103 H 311.083 5.87689 -2.72993 0
M  V30 3104 N 304.489 0.459591 1.5075 0
M  V30 3105 C 305.399 -0.34613 2.32033 0
M  V30 3106 C 306.415 -1.00686 1.41909 0
M  V30 3107 O 307.591 -0.997361 1.7497 0
M  V30 3108 C 304.656 -1.42029 3.16273 0
M  V30 3109 C 303.717 -0.777362 4.22203 0
M  V30 3110 C 302.95 -1.80034 5.02418 0
M  V30 3111 O 303.173 -3.02544 4.83553 0
M  V30 3112 O 302.107 -1.37853 5.85901 0
M  V30 3113 H 305.933 0.318054 3.0203 0
M  V30 3114 H 303.518 0.221663 1.47746 0
M  V30 3115 H 305.4 -2.04275 3.68578 0
M  V30 3116 H 304.075 -2.06815 2.49016 0
M  V30 3117 H 302.982 -0.116256 3.73919 0
M  V30 3118 H 304.315 -0.172634 4.91897 0
M  V30 3119 N 305.967 -1.56429 0.191757 0
M  V30 3120 C 306.899 -2.16154 -0.762245 0
M  V30 3121 C 307.912 -1.12247 -1.17917 0
M  V30 3122 O 309.101 -1.39353 -1.11548 0
M  V30 3123 C 306.201 -2.70606 -2.04024 0
M  V30 3124 C 305.374 -3.99381 -1.78364 0
M  V30 3125 C 304.433 -4.38692 -2.90578 0
M  V30 3126 O 303.459 -5.06179 -2.6033 0
M  V30 3127 N 304.661 -4.01922 -4.18854 0
M  V30 3128 H 307.426 -2.98643 -0.251526 0
M  V30 3129 H 304.987 -1.61897 0.00967373 0
M  V30 3130 H 306.979 -2.93891 -2.78227 0
M  V30 3131 H 305.549 -1.9259 -2.46227 0
M  V30 3132 H 304.769 -3.84262 -0.879581 0
M  V30 3133 H 306.057 -4.83445 -1.58614 0
M  V30 3134 H 305.455 -3.47631 -4.46283 0
M  V30 3135 H 304.012 -4.30165 -4.89695 0
M  V30 3136 N 307.445 0.0818655 -1.57387 0
M  V30 3137 C 308.856 0.634871 -1.75574 0
M  V30 3138 C 309.207 1.78435 -0.815809 0
M  V30 3139 O 308.332 2.164 0.0025366 0
M  V30 3140 C 308.927 1.15845 -3.18379 0
M  V30 3141 C 307.486 1.65741 -3.37945 0
M  V30 3142 C 306.633 0.572549 -2.71325 0
M  V30 3143 H 309.584 -0.144268 -1.58043 0
M  V30 3144 H 309.605 2.02751 -3.21982 0
M  V30 3145 H 309.117 0.321631 -3.86765 0
M  V30 3146 H 307.218 2.51781 -2.74658 0
M  V30 3147 H 307.331 1.74129 -4.46336 0
M  V30 3148 H 305.695 1.01518 -2.33594 0
M  V30 3149 H 306.478 -0.253918 -3.4236 0
M  V30 3150 N 308.923 1.53595 0.353017 0
M  V30 3151 C 309.833 1.83897 1.45667 0
M  V30 3152 C 310.849 0.728334 1.58023 0
M  V30 3153 O 312.025 1.01968 1.73679 0
M  V30 3154 C 309.09 2.03383 2.80778 0
M  V30 3155 C 308.151 3.27262 2.77845 0
M  V30 3156 C 307.384 3.45809 4.06512 0
M  V30 3157 O 307.607 2.68387 5.03314 0
M  V30 3158 O 306.541 4.39207 4.11559 0
M  V30 3159 H 310.367 2.77686 1.2298 0
M  V30 3160 H 307.952 1.39132 0.544308 0
M  V30 3161 H 309.834 2.17698 3.60812 0
M  V30 3162 H 308.509 1.12783 3.03417 0
M  V30 3163 H 307.416 3.18359 1.96465 0
M  V30 3164 H 308.749 4.17824 2.60161 0
M  V30 3165 N 310.401 -0.613514 1.45168 0
M  V30 3166 C 311.333 -1.73825 1.4939 0
M  V30 3167 C 312.346 -1.58175 0.385304 0
M  V30 3168 O 313.535 -1.66165 0.652036 0
M  V30 3169 C 310.635 -3.11758 1.32891 0
M  V30 3170 C 309.808 -3.53704 2.57317 0
M  V30 3171 C 308.867 -4.70579 2.35462 0
M  V30 3172 O 307.893 -4.77996 3.09044 0
M  V30 3173 N 309.095 -5.63454 1.39644 0
M  V30 3174 H 311.86 -1.70669 2.46358 0
M  V30 3175 H 309.421 -0.79862 1.40832 0
M  V30 3176 H 311.413 -3.87692 1.1609 0
M  V30 3177 H 309.983 -3.09456 0.442218 0
M  V30 3178 H 309.203 -2.67794 2.89275 0
M  V30 3179 H 310.491 -3.78486 3.40038 0
M  V30 3180 H 309.889 -5.6017 0.789062 0
M  V30 3181 H 308.446 -6.38944 1.28816 0
M  V30 3182 N 311.879 -1.3236 -0.855495 0
M  V30 3183 C 312.842 -1.21164 -1.94556 0
M  V30 3184 C 313.842 -0.134908 -1.60233 0
M  V30 3185 O 315.032 -0.385249 -1.69887 0
M  V30 3186 C 312.164 -0.863192 -3.29791 0
M  V30 3187 H 313.357 -2.18038 -2.05911 0
M  V30 3188 H 310.91 -1.16179 -1.04557 0
M  V30 3189 H 311.645 0.103769 -3.24134 0
M  V30 3190 H 311.43 -1.64166 -3.56078 0
M  V30 3191 H 312.92 -0.809156 -4.09686 0
M  V30 3192 N 313.357 1.07166 -1.15556 0
M  V30 3193 C 314.773 1.31899 -0.898603 0
M  V30 3194 C 314.973 1.96333 0.453383 0
M  V30 3195 O 314.029 2.22438 1.19489 0
M  V30 3196 C 315.342 2.20826 -2.04099 0
M  V30 3197 C 316.89 2.34269 -2.07574 0
M  V30 3198 C 317.365 3.26546 -3.21141 0
M  V30 3199 N 318.856 3.34127 -3.20801 0
M  V30 3200 C 319.591 4.05595 -4.05315 0
M  V30 3201 N 319.087 4.79661 -4.99897 0
M  V30 3202 N 320.88 4.01555 -3.93332 0
M  V30 3203 H 313.031 0.637302 -2.02613 0
M  V30 3204 H 315.294 0.343468 -0.883591 0
M  V30 3205 H 315 1.80744 -3.01703 0
M  V30 3206 H 314.874 3.21364 -1.97496 0
M  V30 3207 H 317.261 2.73603 -1.10568 0
M  V30 3208 H 317.342 1.33429 -2.18244 0
M  V30 3209 H 316.986 2.87931 -4.184 0
M  V30 3210 H 316.916 4.27345 -3.07708 0
M  V30 3211 H 319.407 2.81336 -2.52306 0
M  V30 3212 H 319.72 5.31694 -5.60822 0
M  V30 3213 H 318.065 4.78671 -5.03884 0
M  V30 3214 H 321.256 3.42806 -3.18751 0
M  V30 3215 H 321.429 4.56987 -4.5942 0
M  V30 3216 N 314.835 0.952656 1.25548 0
M  V30 3217 C 315.765 0.489287 2.28316 0
M  V30 3218 C 316.746 -0.463359 1.63667 0
M  V30 3219 O 317.931 -0.36274 1.90782 0
M  V30 3220 C 315.061 -0.235603 3.465 0
M  V30 3221 C 314.015 0.631593 4.23314 0
M  V30 3222 C 313.341 -0.223923 5.34231 0
M  V30 3223 C 314.641 1.90871 4.86174 0
M  V30 3224 H 316.335 1.34822 2.67326 0
M  V30 3225 H 313.881 0.649728 1.28509 0
M  V30 3226 H 315.834 -0.570882 4.17515 0
M  V30 3227 H 314.558 -1.12877 3.06474 0
M  V30 3228 H 313.217 0.949929 3.54079 0
M  V30 3229 H 312.865 -1.11678 4.90446 0
M  V30 3230 H 312.565 0.35299 5.86539 0
M  V30 3231 H 314.089 -0.554214 6.0808 0
M  V30 3232 H 315.503 1.63997 5.49343 0
M  V30 3233 H 313.9 2.43112 5.4865 0
M  V30 3234 H 314.97 2.61304 4.08471 0
M  V30 3235 N 316.313 -1.40141 0.720998 0
M  V30 3236 C 317.276 -2.29058 0.0805834 0
M  V30 3237 C 318.276 -1.45632 -0.681758 0
M  V30 3238 O 319.466 -1.6648 -0.512856 0
M  V30 3239 C 316.598 -3.28925 -0.895593 0
M  V30 3240 H 317.791 -2.87191 0.863793 0
M  V30 3241 H 315.344 -1.48553 0.485975 0
M  V30 3242 H 316.079 -2.75822 -1.70566 0
M  V30 3243 H 315.864 -3.90519 -0.351766 0
M  V30 3244 H 317.354 -3.95494 -1.34069 0
M  V30 3245 N 317.792 -0.46758 -1.50504 0
M  V30 3246 C 318.722 0.318381 -2.31319 0
M  V30 3247 C 319.703 0.993564 -1.38066 0
M  V30 3248 O 320.888 0.991411 -1.66987 0
M  V30 3249 C 318.018 1.40275 -3.17711 0
M  V30 3250 C 316.972 0.849373 -4.19487 0
M  V30 3251 C 316.298 2.03177 -4.94594 0
M  V30 3252 C 317.598 -0.136942 -5.2212 0
M  V30 3253 H 319.292 -0.356106 -2.97275 0
M  V30 3254 H 316.838 -0.172703 -1.42961 0
M  V30 3255 H 318.791 1.96004 -3.73042 0
M  V30 3256 H 317.515 2.10596 -2.49634 0
M  V30 3257 H 316.174 0.314076 -3.65252 0
M  V30 3258 H 315.822 2.72187 -4.22993 0
M  V30 3259 H 315.522 1.66774 -5.63436 0
M  V30 3260 H 317.046 2.59403 -5.52759 0
M  V30 3261 H 318.46 0.331056 -5.72343 0
M  V30 3262 H 316.857 -0.41507 -5.98663 0
M  V30 3263 H 317.927 -1.06398 -4.73083 0
M  V30 3264 N 319.27 1.56325 -0.20005 0
M  V30 3265 C 320.498 2.02105 0.442874 0
M  V30 3266 C 320.913 1.08014 1.5485 0
M  V30 3267 O 320.27 0.0858797 1.82298 0
M  V30 3268 C 320.321 3.47549 0.994583 0
M  V30 3269 O 320.042 4.38049 -0.0669322 0
M  V30 3270 C 321.543 4.0887 1.7129 0
M  V30 3271 H 318.763 0.661807 0.110691 0
M  V30 3272 H 321.307 2.02134 -0.310207 0
M  V30 3273 H 319.462 3.48204 1.69803 0
M  V30 3274 H 319.876 5.23368 0.344462 0
M  V30 3275 H 321.35 5.12475 2.05118 0
M  V30 3276 H 321.827 3.52615 2.61838 0
M  V30 3277 H 322.433 4.12002 1.05518 0
M  V30 3278 N 320.748 -0.0735177 1.57428 0
M  V30 3279 C 321.678 -1.0879 2.06608 0
M  V30 3280 C 322.659 -1.40473 0.959237 0
M  V30 3281 O 323.844 -1.5013 1.23185 0
M  V30 3282 C 320.974 -2.40183 2.50857 0
M  V30 3283 C 319.928 -2.22858 3.65402 0
M  V30 3284 C 319.254 -3.59619 3.957 0
M  V30 3285 C 320.554 -1.65123 4.95511 0
M  V30 3286 H 322.248 -0.678673 2.91607 0
M  V30 3287 H 319.794 -0.325013 1.40284 0
M  V30 3288 H 321.747 -3.11437 2.83874 0
M  V30 3289 H 320.471 -2.83083 1.62885 0
M  V30 3290 H 319.13 -1.54045 3.32664 0
M  V30 3291 H 318.778 -4.00086 3.04861 0
M  V30 3292 H 318.478 -3.48866 4.72828 0
M  V30 3293 H 320.002 -4.32306 4.31212 0
M  V30 3294 H 321.416 -2.26241 5.26771 0
M  V30 3295 H 319.813 -1.65071 5.7695 0
M  V30 3296 H 320.883 -0.612559 4.81015 0
M  V30 3297 N 322.226 -1.5378 -0.344866 0
M  V30 3298 C 323.189 -1.80981 -1.40637 0
M  V30 3299 C 324.189 -0.680816 -1.45676 0
M  V30 3300 O 325.379 -0.949095 -1.46075 0
M  V30 3301 C 322.511 -1.95063 -2.79577 0
M  V30 3302 H 323.704 -2.75803 -1.17783 0
M  V30 3303 H 321.257 -1.45173 -0.579181 0
M  V30 3304 H 321.992 -1.02379 -3.07716 0
M  V30 3305 H 321.777 -2.77198 -2.77315 0
M  V30 3306 H 323.267 -2.17629 -3.56409 0
M  V30 3307 N 323.704 0.605807 -1.45491 0
M  V30 3308 C 324.667 1.69836 -1.5391 0
M  V30 3309 C 325.667 1.55261 -0.418424 0
M  V30 3310 O 326.857 1.60296 -0.681965 0
M  V30 3311 C 323.989 3.09117 -1.43734 0
M  V30 3312 H 325.182 1.63738 -2.51257 0
M  V30 3313 H 322.735 0.821689 -1.32959 0
M  V30 3314 H 323.47 3.20791 -0.475788 0
M  V30 3315 H 323.255 3.21104 -2.25021 0
M  V30 3316 H 324.745 3.88696 -1.52661 0
M  V30 3317 N 325.182 1.32811 0.848464 0
M  V30 3318 C 326.145 1.22194 1.9391 0
M  V30 3319 C 327.145 0.143404 1.60159 0
M  V30 3320 O 328.335 0.394253 1.6968 0
M  V30 3321 C 325.467 0.88067 3.29328 0
M  V30 3322 H 326.66 2.19127 2.04752 0
M  V30 3323 H 324.213 1.16731 1.0394 0
M  V30 3324 H 324.948 -0.0865776 3.24184 0
M  V30 3325 H 324.733 1.66052 3.55203 0
M  V30 3326 H 326.223 0.830871 4.09251 0
M  V30 3327 N 326.66 -1.06551 1.16123 0
M  V30 3328 C 327.57 -2.17484 0.879662 0
M  V30 3329 C 328.586 -1.73377 -0.147104 0
M  V30 3330 O 329.762 -2.01379 0.0289128 0
M  V30 3331 C 326.827 -3.44591 0.381829 0
M  V30 3332 C 325.888 -4.0322 1.4735 0
M  V30 3333 C 325.121 -5.24261 0.999324 0
M  V30 3334 O 325.344 -5.70198 -0.151957 0
M  V30 3335 O 324.278 -5.74775 1.78653 0
M  V30 3336 H 328.104 -2.44075 1.80724 0
M  V30 3337 H 325.689 -1.16042 0.940992 0
M  V30 3338 H 327.571 -4.21254 0.111053 0
M  V30 3339 H 326.246 -3.19532 -0.51777 0
M  V30 3340 H 325.153 -3.2806 1.79798 0
M  V30 3341 H 326.486 -4.32568 2.34831 0
M  V30 3342 N 328.138 -0.959301 -1.25041 0
M  V30 3343 C 329.363 -0.633507 -1.97488 0
M  V30 3344 C 329.788 0.788555 -1.70773 0
M  V30 3345 O 329.146 1.53394 -0.966431 0
M  V30 3346 C 329.194 -0.904057 -3.49083 0
M  V30 3347 O 328.298 0.0147939 -4.12397 0
M  V30 3348 H 327.639 -0.240368 -0.618966 0
M  V30 3349 H 330.169 -1.28717 -1.59038 0
M  V30 3350 H 330.179 -0.832203 -3.99423 0
M  V30 3351 H 328.854 -1.94048 -3.67856 0
M  V30 3352 H 327.431 -0.109664 -3.72739 0
M  V30 3353 N 329.616 1.39756 -0.72842 0
M  V30 3354 C 330.526 2.34444 -0.0855374 0
M  V30 3355 C 331.542 1.57976 0.729356 0
M  V30 3356 O 332.718 1.90301 0.659346 0
M  V30 3357 C 329.783 3.36965 0.815798 0
M  V30 3358 C 328.844 4.29299 -0.0105996 0
M  V30 3359 C 328.077 5.26923 0.84781 0
M  V30 3360 O 328.3 5.30859 2.08673 0
M  V30 3361 O 327.234 6.01249 0.279969 0
M  V30 3362 H 331.06 2.91065 -0.866892 0
M  V30 3363 H 328.645 1.4117 -0.48902 0
M  V30 3364 H 330.527 3.99804 1.33171 0
M  V30 3365 H 329.202 2.82739 1.57608 0
M  V30 3366 H 328.109 3.69703 -0.571877 0
M  V30 3367 H 329.442 4.86712 -0.73295 0
M  V30 3368 N 331.094 0.475555 1.50254 0
M  V30 3369 C 332.51 0.12997 1.5907 0
M  V30 3370 C 332.71 -1.36385 1.48328 0
M  V30 3371 O 331.766 -2.13754 1.34407 0
M  V30 3372 C 333.079 0.684139 2.92814 0
M  V30 3373 C 334.627 0.647965 3.0622 0
M  V30 3374 C 335.102 1.17975 4.42545 0
M  V30 3375 N 336.593 1.13936 4.48969 0
M  V30 3376 C 337.328 1.52129 5.52851 0
M  V30 3377 N 336.824 1.97793 6.63965 0
M  V30 3378 N 338.617 1.43704 5.4342 0
M  V30 3379 H 330.768 1.44706 1.55479 0
M  V30 3380 H 333.031 0.598691 0.735033 0
M  V30 3381 H 332.737 1.73079 3.06164 0
M  V30 3382 H 332.611 0.130204 3.76975 0
M  V30 3383 H 334.998 -0.38979 2.92514 0
M  V30 3384 H 335.079 1.23876 2.23805 0
M  V30 3385 H 334.723 2.21616 4.57 0
M  V30 3386 H 334.653 0.565138 5.23559 0
M  V30 3387 H 337.144 0.804488 3.69238 0
M  V30 3388 H 337.457 2.25072 7.39299 0
M  V30 3389 H 335.802 2.01749 6.65073 0
M  V30 3390 H 338.993 1.07867 4.55502 0
M  V30 3391 H 339.166 1.73794 6.24259 0
M  V30 3392 N 332.573 -1.56217 0.208337 0
M  V30 3393 C 333.82 -1.97949 -0.42692 0
M  V30 3394 C 334.148 -1.09562 -1.60706 0
M  V30 3395 O 333.403 -0.137616 -1.95216 0
M  V30 3396 C 333.702 -3.45441 -0.916797 0
M  V30 3397 C 333.368 -4.50646 0.151391 0
M  V30 3398 C 332.03 -4.79139 0.444867 0
M  V30 3399 C 334.382 -5.13811 0.874492 0
M  V30 3400 C 331.71 -5.68084 1.46619 0
M  V30 3401 C 334.062 -6.03861 1.88506 0
M  V30 3402 C 332.726 -6.30704 2.18559 0
M  V30 3403 H 331.996 -0.724345 -0.156221 0
M  V30 3404 H 334.643 -1.89006 0.308084 0
M  V30 3405 H 332.948 -3.51521 -1.73032 0
M  V30 3406 H 334.645 -3.75094 -1.41794 0
M  V30 3407 H 331.235 -4.28511 -0.0875068 0
M  V30 3408 H 335.419 -4.91879 0.660996 0
M  V30 3409 H 330.675 -5.87151 1.7048 0
M  V30 3410 H 334.849 -6.51861 2.45051 0
M  V30 3411 H 332.476 -6.99424 2.97843 0
M  V30 3412 N 334.051 0.0651679 -1.57465 0
M  V30 3413 C 335.297 0.764193 -1.87851 0
M  V30 3414 C 335.63 1.76889 -0.801495 0
M  V30 3415 O 334.905 1.93594 0.187528 0
M  V30 3416 C 335.188 1.46625 -3.28897 0
M  V30 3417 C 335.041 0.477515 -4.47258 0
M  V30 3418 C 336.36 2.4095 -3.68281 0
M  V30 3419 H 333.479 0.276351 -0.683227 0
M  V30 3420 H 336.121 0.0272868 -1.8998 0
M  V30 3421 H 334.271 2.09438 -3.27212 0
M  V30 3422 H 335.943 -0.145922 -4.61069 0
M  V30 3423 H 334.186 -0.206576 -4.33308 0
M  V30 3424 H 334.857 1.0065 -5.42746 0
M  V30 3425 H 337.333 1.88209 -3.71102 0
M  V30 3426 H 336.209 2.87072 -4.67847 0
M  V30 3427 H 336.47 3.26049 -2.98571 0
M  V30 3428 N 335.529 1.53961 0.336706 0
M  V30 3429 C 336.945 1.44378 0.680241 0
M  V30 3430 C 337.145 0.606034 1.9217 0
M  V30 3431 O 336.201 0.099688 2.52303 0
M  V30 3432 C 337.514 2.87945 0.8665 0
M  V30 3433 C 339.062 2.97763 0.964682 0
M  V30 3434 C 339.537 4.42453 1.18321 0
M  V30 3435 N 341.028 4.46008 1.25025 0
M  V30 3436 C 341.763 5.55102 1.43697 0
M  V30 3437 N 341.259 6.7419 1.59498 0
M  V30 3438 N 343.052 5.42727 1.463 0
M  V30 3439 H 335.203 2.06918 -0.479455 0
M  V30 3440 H 337.466 0.935634 -0.152619 0
M  V30 3441 H 337.172 3.51691 0.0256937 0
M  V30 3442 H 337.046 3.33293 1.76623 0
M  V30 3443 H 339.433 2.34153 1.796 0
M  V30 3444 H 339.514 2.55766 0.041708 0
M  V30 3445 H 339.158 5.06645 0.356788 0
M  V30 3446 H 339.088 4.82048 2.11985 0
M  V30 3447 H 341.579 3.60196 1.14312 0
M  V30 3448 H 341.892 7.53095 1.734 0
M  V30 3449 H 340.237 6.77123 1.56621 0
M  V30 3450 H 343.428 4.48647 1.33543 0
M  V30 3451 H 343.601 6.27806 1.6051 0
M  V30 3452 N 337.007 -0.598083 1.45811 0
M  V30 3453 C 337.939 -1.72231 1.51225 0
M  V30 3454 C 338.952 -1.57757 0.402059 0
M  V30 3455 O 340.141 -1.65464 0.669624 0
M  V30 3456 C 337.241 -3.10331 1.3619 0
M  V30 3457 C 336.414 -3.50955 2.61054 0
M  V30 3458 C 335.473 -4.68055 2.40439 0
M  V30 3459 O 334.499 -4.74691 3.14097 0
M  V30 3460 N 335.701 -5.61941 1.45612 0
M  V30 3461 H 338.466 -1.68046 2.48154 0
M  V30 3462 H 336.027 -0.783637 1.41671 0
M  V30 3463 H 338.019 -3.86439 1.20195 0
M  V30 3464 H 336.589 -3.0897 0.475015 0
M  V30 3465 H 335.809 -2.64711 2.92099 0
M  V30 3466 H 337.097 -3.74858 3.44034 0
M  V30 3467 H 336.495 -5.59301 0.848431 0
M  V30 3468 H 335.052 -6.37542 1.35585 0
M  V30 3469 N 338.485 -1.33259 -0.841409 0
M  V30 3470 C 339.733 -1.24326 -1.59334 0
M  V30 3471 C 340.054 0.191564 -1.94057 0
M  V30 3472 O 339.324 1.11967 -1.60749 0
M  V30 3473 H 337.904 -0.457174 -0.590763 0
M  V30 3474 H 340.566 -1.66947 -1.00571 0
M  V30 3475 H 339.662 -1.8352 -2.52442 0
M  V30 3476 N 339.963 1.05934 -1.16686 0
M  V30 3477 C 341.191 1.8249 -0.974929 0
M  V30 3478 C 341.606 1.82679 0.476861 0
M  V30 3479 O 340.963 1.2486 1.33103 0
M  V30 3480 C 341.014 3.28943 -1.49929 0
M  V30 3481 O 340.735 3.28886 -2.89423 0
M  V30 3482 C 342.236 4.22215 -1.35089 0
M  V30 3483 H 339.456 0.575295 -0.345365 0
M  V30 3484 H 342 1.33631 -1.548 0
M  V30 3485 H 340.155 3.751 -0.968423 0
M  V30 3486 H 340.569 4.20493 -3.13506 0
M  V30 3487 H 342.043 5.22987 -1.76603 0
M  V30 3488 H 342.52 4.38195 -0.296935 0
M  V30 3489 H 343.126 3.81907 -1.87155 0
M  V30 3490 N 341.441 0.965919 1.2453 0
M  V30 3491 C 342.689 0.625593 1.92174 0
M  V30 3492 C 343.01 -0.841652 1.75901 0
M  V30 3493 O 342.28 -1.60061 1.12948 0
M  V30 3494 H 340.86 0.228388 0.71123 0
M  V30 3495 H 343.522 1.2266 1.51461 0
M  V30 3496 H 342.618 0.864653 2.99884 0
M  V30 3497 N 342.919 -1.39368 0.735821 0
M  V30 3498 C 343.867 -2.32443 0.0855131 0
M  V30 3499 C 344.861 -1.53104 -0.724954 0
M  V30 3500 O 346.067 -1.68762 -0.626047 0
M  V30 3501 H 342.442 -0.751948 0.00885257 0
M  V30 3502 H 344.413 -2.84916 0.886883 0
M  V30 3503 C 343.162 -3.38206 -0.806983 0
M  V30 3504 H 342.485 -3.99335 -0.19274 0
M  V30 3505 H 343.925 -4.05779 -1.2296 0
M  V30 3506 C 342.384 -2.75321 -1.94165 0
M  V30 3507 O 342.914 -2.63231 -3.03435 0
M  V30 3508 N 341.12 -2.33396 -1.73132 0
M  V30 3509 H 340.667 -2.4343 -0.842596 0
M  V30 3510 H 340.625 -1.91661 -2.49225 0
M  V30 3511 N 344.397 -0.483516 -1.5 0
M  V30 3512 C 345.674 0.129337 -1.95172 0
M  V30 3513 C 346.054 1.55802 -1.4244 0
M  V30 3514 O 345.402 2.19625 -0.630649 0
M  V30 3515 C 345.612 0.0599251 -3.48949 0
M  V30 3516 C 346.96 0.242617 -4.23906 0
M  V30 3517 O 347.984 0.135933 -3.55941 0
M  V30 3518 O 346.843 0.459454 -5.44565 0
M  V30 3519 H 343.937 0.104887 -0.820322 0
M  V30 3520 H 346.483 -0.544807 -1.60717 0
M  V30 3521 H 345.255 -0.937079 -3.79914 0
M  V30 3522 H 344.878 0.774984 -3.89974 0
M  V30 3523 N 345.875 1.56104 -0.216619 0
M  V30 3524 C 346.785 2.23694 0.706982 0
M  V30 3525 C 347.801 1.24295 1.21765 0
M  V30 3526 O 348.977 1.57094 1.2603 0
M  V30 3527 C 346.042 2.8998 1.90033 0
M  V30 3528 C 345.103 4.04708 1.43213 0
M  V30 3529 C 344.336 4.67824 2.56859 0
M  V30 3530 O 344.559 4.29913 3.74874 0
M  V30 3531 O 343.493 5.56905 2.28343 0
M  V30 3532 H 347.319 3.03272 0.161235 0
M  V30 3533 H 344.904 1.49394 0.0136177 0
M  V30 3534 H 346.786 3.31837 2.59735 0
M  V30 3535 H 345.461 2.13365 2.43428 0
M  V30 3536 H 344.368 3.6743 0.70327 0
M  V30 3537 H 345.701 4.83051 0.944615 0
M  V30 3538 N 347.353 -0.0568162 1.57498 0
M  V30 3539 C 348.316 -1.05038 2.03715 0
M  V30 3540 C 349.316 -1.30709 0.936577 0
M  V30 3541 O 350.506 -1.26178 1.20103 0
M  V30 3542 C 347.638 -2.39034 2.43055 0
M  V30 3543 H 348.831 -0.651715 2.92733 0
M  V30 3544 H 346.384 -0.302947 1.53336 0
M  V30 3545 H 347.119 -2.83703 1.57108 0
M  V30 3546 H 346.904 -2.21739 3.2338 0
M  V30 3547 H 348.394 -3.10421 2.79336 0
M  V30 3548 N 348.832 -1.54138 -0.328536 0
M  V30 3549 C 350.08 -1.71765 -1.06496 0
M  V30 3550 C 350.401 -0.49149 -1.88704 0
M  V30 3551 O 349.671 0.494539 -1.89555 0
M  V30 3552 H 348.251 -0.633295 -0.396164 0
M  V30 3553 H 350.913 -1.91429 -0.366176 0
M  V30 3554 H 350.009 -2.5951 -1.73381 0
M  V30 3555 N 350.31 0.590341 -1.46126 0
M  V30 3556 C 351.273 1.68194 -1.55703 0
M  V30 3557 C 352.273 1.54808 -0.434868 0
M  V30 3558 O 353.463 1.59564 -0.698928 0
M  V30 3559 C 350.595 3.07575 -1.47005 0
M  V30 3560 H 351.788 1.61064 -2.52979 0
M  V30 3561 H 349.341 0.807541 -1.33823 0
M  V30 3562 H 350.076 3.20268 -0.509785 0
M  V30 3563 H 349.861 3.187 -2.28414 0
M  V30 3564 H 351.351 3.87055 -1.56776 0
M  V30 3565 N 351.788 1.33704 0.83433 0
M  V30 3566 C 352.751 1.24244 1.92603 0
M  V30 3567 C 353.751 0.160383 1.59998 0
M  V30 3568 O 354.941 0.412228 1.69252 0
M  V30 3569 C 352.073 0.91555 3.28376 0
M  V30 3570 H 353.266 2.21287 2.02416 0
M  V30 3571 H 350.819 1.17827 1.02696 0
M  V30 3572 H 351.554 -0.0521886 3.24258 0
M  V30 3573 H 351.339 1.69811 3.53422 0
M  V30 3574 H 352.829 0.874231 4.08347 0
M  V30 3575 N 353.266 -1.05314 1.17247 0
M  V30 3576 C 354.214 -2.15137 0.884238 0
M  V30 3577 C 355.208 -1.68729 -0.15063 0
M  V30 3578 O 356.414 -1.8 -0.00366673 0
M  V30 3579 H 352.789 -0.702471 0.2684 0
M  V30 3580 H 354.76 -2.36652 1.81764 0
M  V30 3581 C 353.509 -3.45243 0.412659 0
M  V30 3582 H 352.832 -3.81352 1.20043 0
M  V30 3583 H 354.272 -4.23263 0.249858 0
M  V30 3584 C 352.731 -3.25487 -0.86948 0
M  V30 3585 O 353.261 -3.51938 -1.93655 0
M  V30 3586 N 351.467 -2.78875 -0.817147 0
M  V30 3587 H 351.014 -2.57549 0.0514211 0
M  V30 3588 H 350.972 -2.66036 -1.67547 0
M  V30 3589 N 354.744 -0.972509 -1.24016 0
M  V30 3590 C 355.992 -0.635776 -1.91839 0
M  V30 3591 C 356.313 0.832312 -1.76345 0
M  V30 3592 O 355.583 1.5946 -1.13795 0
M  V30 3593 H 354.163 -0.232157 -0.710009 0
M  V30 3594 H 356.825 -1.23462 -1.50809 0
M  V30 3595 H 355.921 -0.880545 -2.99421 0
M  V30 3596 N 356.222 1.38976 -0.743202 0
M  V30 3597 C 357.633 1.83123 -0.363732 0
M  V30 3598 C 357.984 1.6205 1.10609 0
M  V30 3599 O 357.109 1.11606 1.854 0
M  V30 3600 C 357.704 3.32439 -0.653408 0
M  V30 3601 C 356.263 3.74974 -0.327338 0
M  V30 3602 C 355.41 2.61878 -0.911875 0
M  V30 3603 H 358.361 1.27852 -0.940191 0
M  V30 3604 H 358.382 3.80432 0.0720031 0
M  V30 3605 H 357.894 3.47745 -1.72323 0
M  V30 3606 H 355.995 3.65252 0.736314 0
M  V30 3607 H 356.108 4.72106 -0.815631 0
M  V30 3608 H 354.472 2.52448 -0.337944 0
M  V30 3609 H 355.255 2.79987 -1.98651 0
M  V30 3610 N 357.7 0.491464 1.49741 0
M  V30 3611 C 358.663 -0.280906 2.27472 0
M  V30 3612 C 359.663 -0.902454 1.33088 0
M  V30 3613 O 360.853 -0.768465 1.56334 0
M  V30 3614 C 357.985 -1.40209 3.10732 0
M  V30 3615 H 359.178 0.401056 2.97206 0
M  V30 3616 H 356.731 0.246131 1.5435 0
M  V30 3617 H 357.466 -2.11849 2.45541 0
M  V30 3618 H 357.251 -0.961969 3.80117 0
M  V30 3619 H 358.741 -1.9464 3.69466 0
M  V30 3620 N 359.178 -1.55987 0.224894 0
M  V30 3621 C 360.455 -1.90232 -0.455083 0
M  V30 3622 C 360.835 -1.14269 -1.77499 0
M  V30 3623 O 360.183 -0.253079 -2.27094 0
M  V30 3624 C 360.393 -3.42993 -0.644758 0
M  V30 3625 C 361.741 -4.13821 -0.950669 0
M  V30 3626 O 362.765 -3.4861 -0.731423 0
M  V30 3627 O 361.624 -5.29128 -1.36695 0
M  V30 3628 H 358.718 -0.79108 -0.241084 0
M  V30 3629 H 361.264 -1.67581 0.267327 0
M  V30 3630 H 360.036 -3.90252 0.28613 0
M  V30 3631 H 359.659 -3.71434 -1.41853 0
M  V30 3632 N 360.656 0.0484629 -1.57525 0
M  V30 3633 C 361.881 0.759177 -1.93006 0
M  V30 3634 C 362.306 1.69125 -0.823317 0
M  V30 3635 O 361.664 1.79931 0.222364 0
M  V30 3636 C 361.712 1.50899 -3.27509 0
M  V30 3637 O 360.816 2.62112 -3.18388 0
M  V30 3638 H 360.157 0.205564 -0.631379 0
M  V30 3639 H 362.687 0.00972959 -2.04598 0
M  V30 3640 H 362.697 1.88317 -3.6194 0
M  V30 3641 H 361.372 0.825269 -4.0763 0
M  V30 3642 H 359.949 2.27379 -2.95556 0
M  V30 3643 N 362.134 1.5431 0.320358 0
M  V30 3644 C 363.382 1.72327 1.05583 0
M  V30 3645 C 363.703 0.50149 1.88441 0
M  V30 3646 O 362.973 -0.48448 1.89815 0
M  V30 3647 H 361.553 0.635387 0.3928 0
M  V30 3648 H 364.215 1.91621 0.356019 0
M  V30 3649 H 363.311 2.60426 1.72003 0
M  V30 3650 N 363.613 -0.582584 1.46437 0
M  V30 3651 C 364.89 -1.34276 1.4223 0
M  V30 3652 C 365.27 -2.10835 0.10583 0
M  V30 3653 O 364.618 -2.09485 -0.912596 0
M  V30 3654 C 364.828 -2.26865 2.65204 0
M  V30 3655 C 366.176 -2.88691 3.11356 0
M  V30 3656 O 367.2 -2.37178 2.65753 0
M  V30 3657 O 366.059 -3.82255 3.90568 0
M  V30 3658 H 363.153 -0.603326 0.565621 0
M  V30 3659 H 365.699 -0.603591 1.58603 0
M  V30 3660 H 364.471 -1.69724 3.52576 0
M  V30 3661 H 364.094 -3.08122 2.5129 0
M  V30 3662 N 365.091 -1.34144 -0.827227 0
M  V30 3663 C 366.054 -1.25264 -1.91942 0
M  V30 3664 C 367.054 -0.168866 -1.59911 0
M  V30 3665 O 368.244 -0.421198 -1.69031 0
M  V30 3666 C 365.376 -0.932952 -3.27885 0
M  V30 3667 H 366.569 -2.22357 -2.0124 0
M  V30 3668 H 364.122 -1.1837 -1.0207 0
M  V30 3669 H 364.857 0.0349917 -3.24281 0
M  V30 3670 H 364.642 -1.71682 -3.52516 0
M  V30 3671 H 366.132 -0.895874 -4.07877 0
M  V30 3672 N 366.569 1.04691 -1.17803 0
M  V30 3673 C 367.499 2.14494 -0.92275 0
M  V30 3674 C 368.48 1.69546 0.137179 0
M  V30 3675 O 369.665 1.94195 -0.0141108 0
M  V30 3676 C 366.795 3.44491 -0.440803 0
M  V30 3677 C 365.749 4.03031 -1.4405 0
M  V30 3678 C 365.075 5.28432 -0.81631 0
M  V30 3679 C 366.375 4.39932 -2.81527 0
M  V30 3680 H 368.069 2.36107 -1.84103 0
M  V30 3681 H 365.615 1.1347 -0.886599 0
M  V30 3682 H 367.568 4.2066 -0.249602 0
M  V30 3683 H 366.292 3.22546 0.513025 0
M  V30 3684 H 364.951 3.28937 -1.61853 0
M  V30 3685 H 364.599 5.02792 0.144511 0
M  V30 3686 H 364.299 5.68559 -1.48371 0
M  V30 3687 H 365.823 6.07284 -0.635496 0
M  V30 3688 H 367.237 5.07113 -2.67412 0
M  V30 3689 H 365.634 4.9109 -3.44892 0
M  V30 3690 H 366.704 3.50045 -3.35554 0
M  V30 3691 N 368.047 0.979072 1.23499 0
M  V30 3692 C 368.977 0.537606 2.27227 0
M  V30 3693 C 369.958 -0.428539 1.64613 0
M  V30 3694 O 371.143 -0.322191 1.91509 0
M  V30 3695 C 368.273 -0.162052 3.46922 0
M  V30 3696 C 367.227 0.721242 4.21879 0
M  V30 3697 C 366.553 -0.110555 5.34586 0
M  V30 3698 C 367.853 2.01141 4.82016 0
M  V30 3699 H 369.547 1.40462 2.64406 0
M  V30 3700 H 367.093 0.67684 1.27102 0
M  V30 3701 H 369.046 -0.482192 4.18632 0
M  V30 3702 H 367.77 -1.06351 3.08799 0
M  V30 3703 H 366.429 1.02482 3.51984 0
M  V30 3704 H 366.077 -1.0125 4.92704 0
M  V30 3705 H 365.777 0.477325 5.85658 0
M  V30 3706 H 367.301 -0.425107 6.09118 0
M  V30 3707 H 368.715 1.75612 5.45741 0
M  V30 3708 H 367.112 2.54695 5.43369 0
M  V30 3709 H 368.182 2.69909 4.02836 0
M  V30 3710 N 369.525 -1.3858 0.750561 0
M  V30 3711 C 370.435 -2.34278 0.122825 0
M  V30 3712 C 371.451 -1.59116 -0.704131 0
M  V30 3713 O 372.627 -1.91326 -0.628987 0
M  V30 3714 C 369.692 -3.38221 -0.762086 0
M  V30 3715 C 368.753 -4.29227 0.078896 0
M  V30 3716 C 367.986 -5.28205 -0.763874 0
M  V30 3717 O 368.209 -5.34112 -2.00201 0
M  V30 3718 O 367.143 -6.01618 -0.18428 0
M  V30 3719 H 370.969 -2.89649 0.913088 0
M  V30 3720 H 368.554 -1.40374 0.511417 0
M  V30 3721 H 370.436 -4.01872 -1.26793 0
M  V30 3722 H 369.111 -2.85211 -1.5309 0
M  V30 3723 H 368.018 -3.68747 0.630621 0
M  V30 3724 H 369.351 -4.85484 0.810289 0
M  V30 3725 N 371.003 -0.499398 -1.49478 0
M  V30 3726 C 372.419 -0.155261 -1.58843 0
M  V30 3727 C 372.619 1.34008 -1.50479 0
M  V30 3728 O 371.675 2.11589 -1.37791 0
M  V30 3729 C 372.988 -0.730636 -2.91689 0
M  V30 3730 C 374.536 -0.696599 -3.0515 0
M  V30 3731 C 375.011 -1.25001 -4.40612 0
M  V30 3732 N 376.502 -1.21064 -4.47099 0
M  V30 3733 C 377.237 -1.60905 -5.50361 0
M  V30 3734 N 376.733 -2.08331 -6.60735 0
M  V30 3735 N 378.526 -1.52331 -5.41065 0
M  V30 3736 H 370.677 -1.47162 -1.53158 0
M  V30 3737 H 372.94 -0.610309 -0.725415 0
M  V30 3738 H 372.646 -1.77928 -3.03372 0
M  V30 3739 H 372.52 -0.190161 -3.7672 0
M  V30 3740 H 374.907 0.343204 -2.93097 0
M  V30 3741 H 374.988 -1.2742 -2.21806 0
M  V30 3742 H 374.632 -2.28859 -4.53416 0
M  V30 3743 H 374.562 -0.64836 -5.22593 0
M  V30 3744 H 377.053 -0.863128 -3.67911 0
M  V30 3745 H 377.366 -2.36805 -7.35624 0
M  V30 3746 H 375.711 -2.12304 -6.6178 0
M  V30 3747 H 378.902 -1.151 -4.53729 0
M  V30 3748 H 379.075 -1.83704 -6.21415 0
M  V30 3749 N 372.481 1.55866 -0.233164 0
M  V30 3750 C 373.429 2.22176 0.68851 0
M  V30 3751 C 374.423 1.20487 1.19076 0
M  V30 3752 O 375.629 1.38536 1.14925 0
M  V30 3753 H 372.004 0.712511 0.240483 0
M  V30 3754 H 373.975 2.98212 0.105935 0
M  V30 3755 C 372.724 2.92446 1.88071 0
M  V30 3756 H 372.047 3.70458 1.50337 0
M  V30 3757 H 373.487 3.42226 2.50314 0
M  V30 3758 C 371.946 1.95555 2.74335 0
M  V30 3759 O 372.476 1.47986 3.73447 0
M  V30 3760 N 370.682 1.62953 2.40613 0
M  V30 3761 H 370.229 2.01831 1.60069 0
M  V30 3762 H 370.187 0.983886 2.98609 0
M  V30 3763 N 373.959 -0.0401083 1.57549 0
M  V30 3764 C 375.189 -0.744115 1.92734 0
M  V30 3765 C 375.597 -1.70005 0.830348 0
M  V30 3766 O 374.94 -1.82576 -0.20286 0
M  V30 3767 C 375.002 -1.56516 3.2364 0
M  V30 3768 C 374.666 -0.7752 4.50377 0
M  V30 3769 C 375.663 -0.0803326 5.19838 0
M  V30 3770 C 373.348 -0.733002 4.96923 0
M  V30 3771 C 375.342 0.646154 6.34116 0
M  V30 3772 C 373.029 -0.00276321 6.111 0
M  V30 3773 C 374.027 0.685585 6.7955 0
M  V30 3774 O 373.715 1.40399 7.91545 0
M  V30 3775 H 373.447 -0.214861 0.640945 0
M  V30 3776 H 376.001 -0.00503675 2.05399 0
M  V30 3777 H 374.231 -2.3478 3.07271 0
M  V30 3778 H 375.92 -2.15076 3.44234 0
M  V30 3779 H 376.686 -0.104035 4.84888 0
M  V30 3780 H 372.565 -1.25827 4.43496 0
M  V30 3781 H 376.109 1.18398 6.87479 0
M  V30 3782 H 372.006 0.0229012 6.45496 0
M  V30 3783 H 372.774 1.31653 8.07843 0
M  V30 3784 N 375.437 -1.54477 -0.31217 0
M  V30 3785 C 376.848 -1.64344 -0.885891 0
M  V30 3786 C 377.199 -0.54485 -1.88483 0
M  V30 3787 O 376.324 0.320387 -2.14015 0
M  V30 3788 C 376.919 -2.97908 -1.61357 0
M  V30 3789 C 375.478 -3.09933 -2.13585 0
M  V30 3790 C 374.625 -2.59971 -0.964897 0
M  V30 3791 H 377.576 -1.58448 -0.0894528 0
M  V30 3792 H 377.597 -2.88706 -2.47848 0
M  V30 3793 H 377.109 -3.77845 -0.886277 0
M  V30 3794 H 375.21 -2.34694 -2.89395 0
M  V30 3795 H 375.323 -4.15916 -2.37804 0
M  V30 3796 H 373.687 -2.16147 -1.34731 0
M  V30 3797 H 374.47 -3.42376 -0.251742 0
M  V30 3798 N 376.915 0.57481 -1.46744 0
M  V30 3799 C 378.143 1.35856 -1.56047 0
M  V30 3800 C 378.558 1.87691 -0.204365 0
M  V30 3801 O 377.915 1.64049 0.79963 0
M  V30 3802 C 377.966 2.54066 -2.57163 0
M  V30 3803 O 377.687 2.04377 -3.87507 0
M  V30 3804 C 379.188 3.46514 -2.76483 0
M  V30 3805 H 376.408 0.414754 -0.527466 0
M  V30 3806 H 378.952 0.698035 -1.92218 0
M  V30 3807 H 377.107 3.16092 -2.23974 0
M  V30 3808 H 377.521 2.81419 -4.4261 0
M  V30 3809 H 378.995 4.25919 -3.51137 0
M  V30 3810 H 379.472 3.98951 -1.83671 0
M  V30 3811 H 380.078 2.90318 -3.10799 0
M  V30 3812 N 378.394 1.34581 0.820102 0
M  V30 3813 C 379.642 1.26845 1.57336 0
M  V30 3814 C 379.963 -0.160667 1.94337 0
M  V30 3815 O 379.233 -1.09396 1.6251 0
M  V30 3816 H 377.813 0.466514 0.583415 0
M  V30 3817 H 380.475 1.68526 0.979027 0
M  V30 3818 H 379.571 1.87513 2.4949 0
M  V30 3819 N 379.872 -1.04064 1.18357 0
M  V30 3820 C 380.835 -2.10243 0.912707 0
M  V30 3821 C 381.835 -1.60477 -0.101928 0
M  V30 3822 O 383.025 -1.73703 0.131517 0
M  V30 3823 C 380.157 -3.38893 0.369387 0
M  V30 3824 H 381.35 -2.35706 1.85426 0
M  V30 3825 H 378.903 -1.20489 0.995594 0
M  V30 3826 H 379.638 -3.19094 -0.578776 0
M  V30 3827 H 379.423 -3.76331 1.1008 0
M  V30 3828 H 380.913 -4.17128 0.198575 0
M  V30 3829 N 381.35 -0.985608 -1.22978 0
M  V30 3830 C 382.26 -0.538548 -2.28335 0
M  V30 3831 C 383.276 0.409163 -1.69121 0
M  V30 3832 O 384.452 0.277797 -1.99475 0
M  V30 3833 C 381.517 0.146867 -3.46389 0
M  V30 3834 C 380.578 -0.842896 -4.20944 0
M  V30 3835 C 379.811 -0.190095 -5.33361 0
M  V30 3836 O 380.034 1.01767 -5.61248 0
M  V30 3837 O 378.968 -0.891289 -5.95264 0
M  V30 3838 H 382.794 -1.41487 -2.68729 0
M  V30 3839 H 380.379 -0.753495 -1.29007 0
M  V30 3840 H 382.261 0.531125 -4.1804 0
M  V30 3841 H 380.936 0.997871 -3.07935 0
M  V30 3842 H 379.843 -1.27795 -3.51595 0
M  V30 3843 H 381.176 -1.66287 -4.6326 0
M  V30 3844 N 382.828 1.3818 -0.7579 0
M  V30 3845 C 384.075 2.00019 -0.315985 0
M  V30 3846 C 384.403 1.60163 1.10355 0
M  V30 3847 O 383.658 0.83264 1.77103 0
M  V30 3848 C 383.957 3.55252 -0.391218 0
M  V30 3849 C 383.623 4.14834 -1.76702 0
M  V30 3850 C 382.285 4.30821 -2.14353 0
M  V30 3851 C 384.637 4.47658 -2.66931 0
M  V30 3852 C 381.965 4.76928 -3.41696 0
M  V30 3853 C 384.317 4.95184 -3.93669 0
M  V30 3854 C 382.981 5.09377 -4.31383 0
M  V30 3855 H 382.251 0.731923 -0.115627 0
M  V30 3856 H 384.898 1.65161 -0.969223 0
M  V30 3857 H 383.203 3.90273 0.34558 0
M  V30 3858 H 384.9 4.00988 -0.030805 0
M  V30 3859 H 381.49 4.02808 -1.46435 0
M  V30 3860 H 385.674 4.34904 -2.39106 0
M  V30 3861 H 380.93 4.86103 -3.70829 0
M  V30 3862 H 385.104 5.19551 -4.63724 0
M  V30 3863 H 382.731 5.44865 -5.30119 0
M  V30 3864 N 384.306 0.507319 1.49211 0
M  V30 3865 C 385.236 -0.256939 2.32082 0
M  V30 3866 C 386.217 -0.956609 1.40652 0
M  V30 3867 O 387.402 -0.946788 1.69557 0
M  V30 3868 C 384.532 -1.31802 3.21318 0
M  V30 3869 C 383.486 -0.737855 4.21592 0
M  V30 3870 C 382.812 -1.89992 4.99807 0
M  V30 3871 C 384.112 0.275325 5.21574 0
M  V30 3872 H 385.806 0.434798 2.96226 0
M  V30 3873 H 383.352 0.210546 1.42452 0
M  V30 3874 H 385.305 -1.86045 3.78107 0
M  V30 3875 H 384.029 -2.03903 2.5513 0
M  V30 3876 H 382.688 -0.217126 3.65956 0
M  V30 3877 H 382.336 -2.60877 4.30061 0
M  V30 3878 H 382.036 -1.51777 5.6766 0
M  V30 3879 H 383.56 -2.44657 5.59442 0
M  V30 3880 H 384.974 -0.179193 5.7302 0
M  V30 3881 H 383.371 0.573649 5.97352 0
M  V30 3882 H 384.441 1.18903 4.70096 0
M  V30 3883 N 385.784 -1.5574 0.241426 0
M  V30 3884 C 387.032 -1.98417 -0.384075 0
M  V30 3885 C 387.353 -1.13078 -1.58866 0
M  V30 3886 O 386.623 -0.212312 -1.94746 0
M  V30 3887 H 385.203 -0.732813 -0.144894 0
M  V30 3888 H 387.865 -1.9193 0.338943 0
M  V30 3889 H 386.961 -3.04219 -0.696939 0
M  V30 3890 N 387.262 0.0317525 -1.57568 0
M  V30 3891 C 388.539 0.758366 -1.803 0
M  V30 3892 C 388.919 1.93718 -0.838845 0
M  V30 3893 O 388.267 2.28187 0.119571 0
M  V30 3894 C 388.477 1.19392 -3.27943 0
M  V30 3895 C 389.825 1.61094 -3.92854 0
M  V30 3896 O 390.849 1.28857 -3.32076 0
M  V30 3897 O 389.708 2.20918 -4.99858 0
M  V30 3898 H 386.802 0.366514 -0.741348 0
M  V30 3899 H 389.348 0.00873765 -1.69698 0
M  V30 3900 H 388.12 0.352275 -3.89711 0
M  V30 3901 H 387.743 2.00365 -3.43424 0
M  V30 3902 N 388.74 1.54641 0.303973 0
M  V30 3903 C 389.988 1.73437 1.0375 0
M  V30 3904 C 390.309 0.521449 1.87899 0
M  V30 3905 O 389.579 -0.46432 1.90318 0
M  V30 3906 H 388.159 0.639518 0.386039 0
M  V30 3907 H 390.821 1.91988 0.335675 0
M  V30 3908 H 389.917 2.62235 1.69231 0
M  V30 3909 N 390.218 -0.567019 1.47046 0
M  V30 3910 C 391.466 -1.322 1.52864 0
M  V30 3911 C 391.787 -1.94088 0.188388 0
M  V30 3912 O 391.057 -1.7941 -0.786693 0
M  V30 3913 H 389.637 -0.490894 0.563056 0
M  V30 3914 H 392.299 -0.662879 1.83281 0
M  V30 3915 H 391.395 -2.12062 2.2899 0
M  V30 3916 N 391.696 -1.35014 -0.812953 0
M  V30 3917 C 392.973 -1.18502 -1.55617 0
M  V30 3918 C 393.353 0.238421 -2.09749 0
M  V30 3919 O 392.701 1.2411 -1.91857 0
M  V30 3920 C 392.911 -2.24783 -2.66971 0
M  V30 3921 C 394.259 -2.60268 -3.35478 0
M  V30 3922 O 395.283 -2.23648 -2.77236 0
M  V30 3923 O 394.142 -3.2321 -4.40678 0
M  V30 3924 H 391.236 -0.459984 -0.687272 0
M  V30 3925 H 393.782 -1.46677 -0.853464 0
M  V30 3926 H 392.554 -3.20284 -2.24798 0
M  V30 3927 H 392.177 -1.97841 -3.44884 0
M  V30 3928 N 393.175 1.03435 -1.18907 0
M  V30 3929 C 394.421 1.77005 -0.989798 0
M  V30 3930 C 394.754 1.88205 0.478816 0
M  V30 3931 O 394.029 1.39481 1.35556 0
M  V30 3932 C 394.312 3.19925 -1.65287 0
M  V30 3933 C 394.165 3.1663 -3.19477 0
M  V30 3934 C 395.484 4.18189 -1.37134 0
M  V30 3935 H 392.603 0.642538 -0.360991 0
M  V30 3936 H 395.245 1.20784 -1.46667 0
M  V30 3937 H 393.395 3.67929 -1.24741 0
M  V30 3938 H 395.067 2.76567 -3.692 0
M  V30 3939 H 393.31 2.54491 -3.51307 0
M  V30 3940 H 393.981 4.1758 -3.61013 0
M  V30 3941 H 396.457 3.78761 -1.72276 0
M  V30 3942 H 395.333 5.16394 -1.86087 0
M  V30 3943 H 395.594 4.41112 -0.295424 0
M  V30 3944 N 394.653 0.992116 1.22453 0
M  V30 3945 C 395.878 0.685644 1.95739 0
M  V30 3946 C 396.303 -0.743 1.72804 0
M  V30 3947 O 395.661 -1.50778 1.00676 0
M  V30 3948 C 395.709 0.996293 3.46564 0
M  V30 3949 O 394.813 0.0945512 4.12292 0
M  V30 3950 H 394.154 0.256694 0.612376 0
M  V30 3951 H 396.684 1.32888 1.5557 0
M  V30 3952 H 396.694 0.93781 3.97076 0
M  V30 3953 H 395.369 2.03733 3.62582 0
M  V30 3954 H 393.946 0.208451 3.72317 0
M  V30 3955 N 396.131 -1.37776 0.765217 0
M  V30 3956 C 397.378 -1.99849 0.326588 0
M  V30 3957 C 397.706 -1.60746 -1.09504 0
M  V30 3958 O 396.961 -0.84202 -1.76659 0
M  V30 3959 C 397.26 -3.5504 0.410053 0
M  V30 3960 C 396.926 -4.13891 1.78899 0
M  V30 3961 C 395.588 -4.29678 2.16635 0
M  V30 3962 C 397.94 -4.46236 2.69301 0
M  V30 3963 C 395.268 -4.7511 3.44221 0
M  V30 3964 C 397.62 -4.93089 3.9629 0
M  V30 3965 C 396.284 -5.07082 4.34078 0
M  V30 3966 H 395.554 -0.7313 0.119507 0
M  V30 3967 H 398.201 -1.64645 0.977968 0
M  V30 3968 H 396.506 -3.90451 -0.324878 0
M  V30 3969 H 398.203 -4.00966 0.0520699 0
M  V30 3970 H 394.793 -4.02026 1.48569 0
M  V30 3971 H 398.977 -4.3363 2.41409 0
M  V30 3972 H 394.233 -4.84129 3.73402 0
M  V30 3973 H 398.407 -5.17084 4.66472 0
M  V30 3974 H 396.034 -5.42046 5.33001 0
M  V30 3975 N 397.609 -0.515225 -1.4894 0
M  V30 3976 C 398.834 0.022727 -2.07388 0
M  V30 3977 C 399.259 1.2876 -1.37122 0
M  V30 3978 O 398.617 1.76067 -0.432431 0
M  V30 3979 C 398.665 0.244869 -3.59768 0
M  V30 3980 O 397.769 1.31667 -3.90817 0
M  V30 3981 H 397.11 -0.0325506 -0.663202 0
M  V30 3982 H 399.64 -0.718918 -1.91553 0
M  V30 3983 H 399.65 0.47205 -4.0526 0
M  V30 3984 H 398.325 -0.679194 -4.10317 0
M  V30 3985 H 396.902 1.07331 -3.5712 0
M  V30 3986 N 399.087 1.5561 -0.249682 0
M  V30 3987 C 400.315 2.03411 0.378352 0
M  V30 3988 C 400.73 1.12886 1.51335 0
M  V30 3989 O 400.087 0.143833 1.81932 0
M  V30 3990 C 400.138 3.50537 0.88351 0
M  V30 3991 O 399.859 4.37614 -0.20626 0
M  V30 3992 C 401.36 4.14113 1.58195 0
M  V30 3993 H 398.58 0.664994 0.08958 0
M  V30 3994 H 401.124 2.01044 -0.374357 0
M  V30 3995 H 399.279 3.5343 1.58639 0
M  V30 3996 H 399.693 5.24199 0.177782 0
M  V30 3997 H 401.167 5.18741 1.8871 0
M  V30 3998 H 401.644 3.60767 2.50487 0
M  V30 3999 H 402.25 4.15151 0.923573 0
M  V30 4000 N 400.565 -0.0233959 1.57583 0
M  V30 4001 C 401.981 -0.379134 1.55031 0
M  V30 4002 C 402.181 -1.76255 0.976548 0
M  V30 4003 O 401.237 -2.45266 0.600078 0
M  V30 4004 C 402.55 -0.275792 2.99433 0
M  V30 4005 C 404.098 -0.352458 3.11009 0
M  V30 4006 C 404.573 -0.278501 4.57152 0
M  V30 4007 N 406.064 -0.337123 4.61972 0
M  V30 4008 C 406.799 -0.302876 5.726 0
M  V30 4009 N 406.295 -0.220589 6.92449 0
M  V30 4010 N 408.088 -0.353023 5.6099 0
M  V30 4011 H 400.239 0.881869 1.93227 0
M  V30 4012 H 402.502 0.335867 0.886509 0
M  V30 4013 H 402.208 0.675108 3.4516 0
M  V30 4014 H 402.082 -1.06721 3.61788 0
M  V30 4015 H 404.469 -1.29379 2.65226 0
M  V30 4016 H 404.55 0.468409 2.51475 0
M  V30 4017 H 404.194 0.659189 5.03604 0
M  V30 4018 H 404.124 -1.11755 5.14605 0
M  V30 4019 H 406.615 -0.403002 3.75745 0
M  V30 4020 H 406.928 -0.199713 7.72542 0
M  V30 4021 H 405.273 -0.186555 6.9475 0
M  V30 4022 H 408.464 -0.415339 4.66254 0
M  V30 4023 H 408.637 -0.322866 6.47195 0
M  V30 4024 N 402.043 -1.548 -0.295768 0
M  V30 4025 C 403.291 -1.73985 -1.02828 0
M  V30 4026 C 403.612 -0.531406 -1.87619 0
M  V30 4027 O 402.882 0.454221 -1.90561 0
M  V30 4028 H 401.462 -0.641556 -0.382642 0
M  V30 4029 H 404.124 -1.92163 -0.325489 0
M  V30 4030 H 403.22 -2.63129 -1.67838 0
M  V30 4031 N 403.521 0.559213 -1.47345 0
M  V30 4032 C 404.749 1.34194 -1.57479 0
M  V30 4033 C 405.164 1.87463 -0.224261 0
M  V30 4034 O 404.521 1.64888 0.782185 0
M  V30 4035 C 404.572 2.51324 -2.59843 0
M  V30 4036 O 404.293 2.00256 -3.89653 0
M  V30 4037 C 405.794 3.43563 -2.80142 0
M  V30 4038 H 403.014 0.409136 -0.531835 0
M  V30 4039 H 405.558 0.677609 -1.92947 0
M  V30 4040 H 403.713 3.13699 -2.27314 0
M  V30 4041 H 404.127 2.76708 -4.4557 0
M  V30 4042 H 405.601 4.2217 -3.55635 0
M  V30 4043 H 406.078 3.9698 -1.87892 0
M  V30 4044 H 406.684 2.87005 -3.1386 0
M  V30 4045 N 404.999 1.35443 0.805782 0
M  V30 4046 C 405.931 1.24285 1.92577 0
M  V30 4047 C 406.944 0.165962 1.61952 0
M  V30 4048 O 408.133 0.419303 1.73505 0
M  V30 4049 C 405.233 0.891272 3.2697 0
M  V30 4050 C 404.406 2.06669 3.85495 0
M  V30 4051 C 403.465 1.69077 4.98297 0
M  V30 4052 O 402.491 2.4096 5.15681 0
M  V30 4053 N 403.693 0.614869 5.77234 0
M  V30 4054 H 406.458 2.20777 2.02676 0
M  V30 4055 H 404.019 1.28623 0.983243 0
M  V30 4056 H 406.011 0.621256 3.99903 0
M  V30 4057 H 404.581 0.016004 3.12596 0
M  V30 4058 H 403.801 2.50046 3.04747 0
M  V30 4059 H 405.089 2.85237 4.21328 0
M  V30 4060 H 404.487 0.017648 5.65697 0
M  V30 4061 H 403.044 0.404636 6.50543 0
M  V30 4062 N 406.477 -1.02803 1.19454 0
M  V30 4063 C 407.425 -2.13213 0.929673 0
M  V30 4064 C 408.419 -1.69011 -0.114806 0
M  V30 4065 O 409.625 -1.79967 0.0345147 0
M  V30 4066 H 406 -0.69662 0.28324 0
M  V30 4067 H 407.971 -2.32744 1.86743 0
M  V30 4068 C 406.72 -3.4429 0.485797 0
M  V30 4069 H 406.043 -3.7872 1.28105 0
M  V30 4070 H 407.483 -4.22638 0.339582 0
M  V30 4071 C 405.942 -3.27258 -0.800244 0
M  V30 4072 O 406.472 -3.55967 -1.86146 0
M  V30 4073 N 404.678 -2.80545 -0.75781 0
M  V30 4074 H 404.225 -2.57382 0.106039 0
M  V30 4075 H 404.183 -2.6953 -1.61867 0
M  V30 4076 N 407.956 -0.998596 -1.21925 0
M  V30 4077 C 409.202 -0.688337 -1.91399 0
M  V30 4078 C 409.557 0.771805 -1.76241 0
M  V30 4079 O 408.85 1.55153 -1.1242 0
M  V30 4080 C 409.044 -1.03648 -3.42041 0
M  V30 4081 C 408.873 -2.52892 -3.71855 0
M  V30 4082 C 407.643 -3.19389 -3.91559 0
M  V30 4083 C 409.841 -3.5103 -3.75875 0
M  V30 4084 N 407.823 -4.5805 -4.08734 0
M  V30 4085 C 409.194 -4.75174 -3.98259 0
M  V30 4086 C 411.249 -3.45257 -3.58751 0
M  V30 4087 C 409.952 -5.94247 -4.05294 0
M  V30 4088 C 411.978 -4.63712 -3.67049 0
M  V30 4089 C 411.34 -5.86658 -3.89887 0
M  V30 4090 H 407.439 -0.303251 -0.720807 0
M  V30 4091 H 410.023 -1.27977 -1.46731 0
M  V30 4092 H 408.194 -0.473569 -3.85502 0
M  V30 4093 H 409.926 -0.681619 -3.98919 0
M  V30 4094 H 406.681 -2.69846 -3.89205 0
M  V30 4095 H 407.105 -5.29989 -4.21237 0
M  V30 4096 H 411.747 -2.51215 -3.40075 0
M  V30 4097 H 409.465 -6.88687 -4.22772 0
M  V30 4098 H 413.051 -4.6084 -3.5513 0
M  V30 4099 H 411.931 -6.76786 -3.96144 0
M  V30 4100 N 409.434 1.37368 -0.772513 0
M  V30 4101 C 410.662 2.03942 -0.348588 0
M  V30 4102 C 411.077 1.58264 1.02947 0
M  V30 4103 O 410.434 0.764246 1.65727 0
M  V30 4104 C 410.485 3.5946 -0.38351 0
M  V30 4105 O 410.206 4.03468 -1.70721 0
M  V30 4106 C 411.707 4.4327 0.0519152 0
M  V30 4107 H 408.927 0.654931 -0.145966 0
M  V30 4108 H 411.471 1.75686 -1.04665 0
M  V30 4109 H 409.626 3.86486 0.265978 0
M  V30 4110 H 410.04 4.97991 -1.64636 0
M  V30 4111 H 411.514 5.51995 -0.0236733 0
M  V30 4112 H 411.991 4.2514 1.10238 0
M  V30 4113 H 412.597 4.21471 -0.569415 0
M  V30 4114 N 410.912 0.523116 1.48665 0
M  V30 4115 C 412.158 -0.0134963 2.02796 0
M  V30 4116 C 412.491 -1.34582 1.40004 0
M  V30 4117 O 411.766 -1.86756 0.543381 0
M  V30 4118 C 412.049 -0.14276 3.59817 0
M  V30 4119 C 411.902 1.21425 4.331 0
M  V30 4120 C 413.221 -0.872856 4.31357 0
M  V30 4121 H 410.34 -0.00343074 0.736992 0
M  V30 4122 H 412.982 0.678816 1.7746 0
M  V30 4123 H 411.132 -0.732401 3.81534 0
M  V30 4124 H 412.804 1.84447 4.2282 0
M  V30 4125 H 411.047 1.79791 3.94788 0
M  V30 4126 H 411.718 1.07687 5.41394 0
M  V30 4127 H 414.194 -0.372555 4.14429 0
M  V30 4128 H 413.07 -0.932185 5.40927 0
M  V30 4129 H 413.331 -1.92161 3.98154 0
M  V30 4130 N 412.39 -1.55475 0.257931 0
M  V30 4131 C 413.3 -2.2549 -0.647425 0
M  V30 4132 C 414.316 -1.2748 -1.18427 0
M  V30 4133 O 415.492 -1.6038 -1.2182 0
M  V30 4134 C 412.557 -2.94916 -1.82278 0
M  V30 4135 C 411.618 -4.08363 -1.32432 0
M  V30 4136 C 410.851 -4.74469 -2.44366 0
M  V30 4137 O 411.074 -4.39701 -3.63344 0
M  V30 4138 O 410.008 -5.62763 -2.13497 0
M  V30 4139 H 413.834 -3.03593 -0.0807707 0
M  V30 4140 H 411.419 -1.49377 0.0259962 0
M  V30 4141 H 413.301 -3.38606 -2.50846 0
M  V30 4142 H 411.976 -2.19744 -2.37685 0
M  V30 4143 H 410.883 -3.69166 -0.605605 0
M  V30 4144 H 412.216 -4.85385 -0.816211 0
M  V30 4145 N 413.868 0.0150385 -1.57593 0
M  V30 4146 C 415.284 0.370907 -1.5523 0
M  V30 4147 C 415.484 1.75735 -0.985882 0
M  V30 4148 O 414.54 2.44944 -0.613077 0
M  V30 4149 C 415.853 0.259908 -2.99575 0
M  V30 4150 C 417.401 0.335959 -3.11192 0
M  V30 4151 C 417.876 0.254253 -4.57294 0
M  V30 4152 N 419.367 0.312618 -4.62144 0
M  V30 4153 C 420.102 0.272505 -5.72752 0
M  V30 4154 N 419.598 0.183864 -6.92556 0
M  V30 4155 N 421.391 0.323267 -5.6117 0
M  V30 4156 H 413.542 -0.892104 -1.92757 0
M  V30 4157 H 415.805 -0.340563 -0.884715 0
M  V30 4158 H 415.511 -0.693403 -3.44797 0
M  V30 4159 H 415.385 1.048 -3.62349 0
M  V30 4160 H 417.772 1.27971 -2.65909 0
M  V30 4161 H 417.853 -0.481739 -2.51223 0
M  V30 4162 H 417.497 -0.685887 -5.03247 0
M  V30 4163 H 417.427 1.09024 -5.15191 0
M  V30 4164 H 419.918 0.38307 -3.75953 0
M  V30 4165 H 420.231 0.15874 -7.72637 0
M  V30 4166 H 418.576 0.149708 -6.94839 0
M  V30 4167 H 421.767 0.390607 -4.66467 0
M  V30 4168 H 421.94 0.288539 -6.47357 0
M  V30 4169 N 415.346 1.54954 0.287554 0
M  V30 4170 C 416.276 1.89839 1.35954 0
M  V30 4171 C 417.257 0.758675 1.52244 0
M  V30 4172 O 418.442 1.01557 1.65529 0
M  V30 4173 C 415.572 2.15753 2.72154 0
M  V30 4174 C 414.526 3.3159 2.70614 0
M  V30 4175 C 413.852 3.42952 4.10229 0
M  V30 4176 C 415.152 4.68359 2.31165 0
M  V30 4177 H 416.846 2.79625 1.07007 0
M  V30 4178 H 414.392 1.3454 0.513316 0
M  V30 4179 H 416.345 2.38743 3.47246 0
M  V30 4180 H 415.069 1.22752 3.02654 0
M  V30 4181 H 413.728 3.08545 1.97979 0
M  V30 4182 H 413.376 2.47443 4.37928 0
M  V30 4183 H 413.076 4.20826 4.10097 0
M  V30 4184 H 414.6 3.68218 4.87081 0
M  V30 4185 H 416.014 4.9099 2.95976 0
M  V30 4186 H 414.411 5.49044 2.42221 0
M  V30 4187 H 415.481 4.68165 1.26291 0
M  V30 4188 N 416.824 -0.551391 1.4764 0
M  V30 4189 C 417.754 -1.66757 1.63445 0
M  V30 4190 C 418.735 -1.63077 0.483742 0
M  V30 4191 O 419.92 -1.80607 0.71377 0
M  V30 4192 C 417.05 -3.05387 1.65396 0
M  V30 4193 C 416.004 -3.23918 2.79752 0
M  V30 4194 C 415.33 -4.63393 2.66779 0
M  V30 4195 C 416.63 -3.08735 4.21284 0
M  V30 4196 H 418.324 -1.53786 2.56886 0
M  V30 4197 H 415.87 -0.738415 1.23626 0
M  V30 4198 H 417.823 -3.83325 1.75043 0
M  V30 4199 H 416.547 -3.19332 0.685195 0
M  V30 4200 H 415.206 -2.48391 2.69625 0
M  V30 4201 H 414.854 -4.74144 1.67918 0
M  V30 4202 H 414.554 -4.7674 3.43501 0
M  V30 4203 H 416.078 -5.43458 2.78364 0
M  V30 4204 H 417.492 -3.76484 4.32357 0
M  V30 4205 H 415.889 -3.33588 4.98838 0
M  V30 4206 H 416.959 -2.0541 4.39243 0
M  V30 4207 N 418.302 -1.35869 -0.798587 0
M  V30 4208 C 419.234 -1.25305 -1.91915 0
M  V30 4209 C 420.247 -0.174548 -1.61862 0
M  V30 4210 O 421.436 -0.428499 -1.73281 0
M  V30 4211 C 418.536 -0.9086 -3.26493 0
M  V30 4212 C 417.709 -2.08711 -3.84394 0
M  V30 4213 C 416.768 -1.71717 -4.97393 0
M  V30 4214 O 415.794 -2.43692 -5.14396 0
M  V30 4215 N 416.996 -0.645473 -5.769 0
M  V30 4216 H 419.761 -2.21849 -2.01502 0
M  V30 4217 H 417.322 -1.29143 -0.976408 0
M  V30 4218 H 419.314 -0.642455 -3.99568 0
M  V30 4219 H 417.884 -0.0325815 -3.12583 0
M  V30 4220 H 417.104 -2.51659 -3.03416 0
M  V30 4221 H 418.392 -2.87468 -4.19809 0
M  V30 4222 H 417.79 -0.047648 -5.6568 0
M  V30 4223 H 416.347 -0.43913 -6.50319 0
M  V30 4224 N 419.78 1.02168 -1.19998 0
M  V30 4225 C 420.743 2.08765 -0.94604 0
M  V30 4226 C 421.743 1.60618 0.0763846 0
M  V30 4227 O 422.933 1.73472 -0.159135 0
M  V30 4228 C 420.065 3.38262 -0.423255 0
M  V30 4229 H 421.258 2.32726 -1.89153 0
M  V30 4230 H 418.811 1.1889 -1.01464 0
M  V30 4231 H 419.546 3.19974 0.527938 0
M  V30 4232 H 419.331 3.74532 -1.16053 0
M  V30 4233 H 420.821 4.16759 -0.264911 0
M  V30 4234 N 421.258 1.00505 1.21394 0
M  V30 4235 C 422.208 0.536503 2.21598 0
M  V30 4236 C 423.192 -0.401914 1.55799 0
M  V30 4237 O 424.384 -0.226757 1.75541 0
M  V30 4238 C 421.513 -0.135446 3.43033 0
M  V30 4239 C 420.599 0.823992 4.16018 0
M  V30 4240 N 420.99 1.97683 4.6557 0
M  V30 4241 C 419.288 0.642387 4.4135 0
M  V30 4242 C 419.989 2.58003 5.21354 0
M  V30 4243 N 418.965 1.86162 5.1073 0
M  V30 4244 H 422.767 1.41557 2.57563 0
M  V30 4245 H 420.281 0.868878 1.37202 0
M  V30 4246 H 422.278 -0.488584 4.14027 0
M  V30 4247 H 420.938 -1.01049 3.08576 0
M  V30 4248 H 421.949 2.3572 4.61147 0
M  V30 4249 H 418.626 -0.185578 4.17087 0
M  V30 4250 H 420.016 3.555 5.70149 0
M  V30 4251 N 422.737 -1.36956 0.779787 0
M  V30 4252 C 424.153 -1.52817 0.460342 0
M  V30 4253 C 424.353 -1.7361 -1.02283 0
M  V30 4254 O 423.409 -1.76207 -1.80852 0
M  V30 4255 C 424.722 -2.71983 1.28241 0
M  V30 4256 C 426.27 -2.85849 1.27512 0
M  V30 4257 C 426.745 -4.08008 2.08072 0
M  V30 4258 N 428.236 -4.15135 2.05467 0
M  V30 4259 C 428.971 -5.08711 2.64577 0
M  V30 4260 N 428.467 -6.07792 3.32506 0
M  V30 4261 N 430.26 -5.01254 2.54363 0
M  V30 4262 H 422.411 -1.21713 1.74068 0
M  V30 4263 H 424.674 -0.593294 0.739396 0
M  V30 4264 H 424.38 -2.63109 2.33381 0
M  V30 4265 H 424.254 -3.65882 0.917088 0
M  V30 4266 H 426.641 -2.94189 0.231686 0
M  V30 4267 H 426.722 -1.92886 1.68014 0
M  V30 4268 H 426.366 -4.00429 3.12441 0
M  V30 4269 H 426.296 -5.001 1.64947 0
M  V30 4270 H 428.787 -3.44189 1.5602 0
M  V30 4271 H 429.1 -6.75739 3.74963 0
M  V30 4272 H 427.445 -6.08047 3.36606 0
M  V30 4273 H 430.636 -4.22795 2.00902 0
M  V30 4274 H 430.809 -5.73995 3.00722 0
M  V30 4275 N 424.215 -0.530993 -1.48385 0
M  V30 4276 C 425.147 0.268353 -2.27624 0
M  V30 4277 C 426.16 0.903525 -1.35426 0
M  V30 4278 O 427.349 0.781796 -1.60469 0
M  V30 4279 C 424.449 1.39535 -3.08842 0
M  V30 4280 C 423.622 0.861913 -4.28824 0
M  V30 4281 C 422.681 1.87016 -4.91845 0
M  V30 4282 O 421.707 1.4267 -5.5103 0
M  V30 4283 N 422.909 3.20238 -4.84178 0
M  V30 4284 H 425.674 -0.41123 -2.96865 0
M  V30 4285 H 423.235 -0.365387 -1.57723 0
M  V30 4286 H 425.227 2.06803 -3.47871 0
M  V30 4287 H 423.797 1.97859 -2.42014 0
M  V30 4288 H 423.017 0.0132126 -3.94198 0
M  V30 4289 H 424.305 0.484415 -5.06489 0
M  V30 4290 H 423.703 3.58932 -4.37246 0
M  V30 4291 H 422.26 3.83136 -5.27305 0
M  V30 4292 N 425.693 1.55336 -0.266172 0
M  V30 4293 C 426.623 2.25146 0.618981 0
M  V30 4294 C 427.604 1.23845 1.16604 0
M  V30 4295 O 428.789 1.52544 1.20183 0
M  V30 4296 C 425.919 2.96572 1.80728 0
M  V30 4297 C 424.873 4.04726 1.39215 0
M  V30 4298 C 424.199 4.63678 2.66283 0
M  V30 4299 C 425.499 5.19407 0.548942 0
M  V30 4300 H 427.193 2.99377 0.0368116 0
M  V30 4301 H 424.739 1.43991 0.0162651 0
M  V30 4302 H 426.692 3.44116 2.43232 0
M  V30 4303 H 425.416 2.19861 2.41514 0
M  V30 4304 H 424.075 3.57979 0.790351 0
M  V30 4305 H 423.723 3.83646 3.25308 0
M  V30 4306 H 423.423 5.367 2.39222 0
M  V30 4307 H 424.947 5.13967 3.29651 0
M  V30 4308 H 426.361 5.63059 1.07876 0
M  V30 4309 H 424.758 5.98936 0.373593 0
M  V30 4310 H 425.828 4.8295 -0.434394 0
M  V30 4311 N 427.171 -0.0066808 1.57599 0
M  V30 4312 C 428.081 -1.01671 2.11424 0
M  V30 4313 C 429.097 -1.38143 1.05795 0
M  V30 4314 O 430.273 -1.47011 1.37658 0
M  V30 4315 C 427.338 -2.29192 2.60139 0
M  V30 4316 C 426.399 -1.99094 3.80342 0
M  V30 4317 C 425.632 -3.20535 4.26724 0
M  V30 4318 O 425.855 -4.3199 3.72479 0
M  V30 4319 O 424.789 -3.04924 5.18946 0
M  V30 4320 H 428.615 -0.589181 2.9793 0
M  V30 4321 H 426.2 -0.225091 1.47695 0
M  V30 4322 H 428.082 -3.0412 2.917 0
M  V30 4323 H 426.757 -2.71195 1.76733 0
M  V30 4324 H 425.664 -1.21663 3.53764 0
M  V30 4325 H 426.997 -1.61931 4.648 0
M  V30 4326 N 428.649 -1.55105 -0.279332 0
M  V30 4327 C 429.559 -1.90638 -1.36727 0
M  V30 4328 C 430.575 -0.802899 -1.54368 0
M  V30 4329 O 431.751 -1.10138 -1.68616 0
M  V30 4330 C 428.816 -2.16547 -2.70755 0
M  V30 4331 C 427.877 -3.40146 -2.61915 0
M  V30 4332 C 427.11 -3.6481 -3.8955 0
M  V30 4333 O 427.333 -2.92095 -4.89935 0
M  V30 4334 O 426.267 -4.58343 -3.90135 0
M  V30 4335 H 430.093 -2.83237 -1.09591 0
M  V30 4336 H 427.678 -1.4157 -0.477306 0
M  V30 4337 H 429.56 -2.34665 -3.50014 0
M  V30 4338 H 428.235 -1.27131 -2.9769 0
M  V30 4339 H 427.142 -3.2737 -1.81052 0
M  V30 4340 H 428.475 -4.29761 -2.3993 0
M  V30 4341 N 430.127 0.543554 -1.4793 0
M  V30 4342 C 431.543 0.870806 -1.3375 0
M  V30 4343 C 431.743 1.9864 -0.338261 0
M  V30 4344 O 430.799 2.51305 0.245371 0
M  V30 4345 C 432.112 1.25114 -2.73435 0
M  V30 4346 C 433.66 1.3618 -2.81823 0
M  V30 4347 C 434.135 1.77563 -4.22179 0
M  V30 4348 N 435.626 1.8469 -4.24787 0
M  V30 4349 C 436.361 2.18067 -5.30315 0
M  V30 4350 N 435.857 2.49963 -6.46135 0
M  V30 4351 N 437.65 2.18958 -5.17701 0
M  V30 4352 H 429.801 -0.19275 -2.11524 0
M  V30 4353 H 432.064 -0.0235777 -0.947707 0
M  V30 4354 H 431.77 0.50514 -3.48053 0
M  V30 4355 H 431.644 2.20431 -3.06088 0
M  V30 4356 H 434.031 2.09859 -2.07468 0
M  V30 4357 H 434.112 0.390169 -2.52807 0
M  V30 4358 H 433.756 1.04449 -4.97044 0
M  V30 4359 H 433.686 2.75753 -4.48629 0
M  V30 4360 H 436.177 1.62372 -3.41239 0
M  V30 4361 H 436.49 2.74497 -7.22406 0
M  V30 4362 H 434.835 2.47513 -6.49432 0
M  V30 4363 H 438.026 1.93488 -4.2624 0
M  V30 4364 H 438.199 2.44639 -6.00047 0
M  V30 4365 N 431.605 1.3629 0.791371 0
M  V30 4366 C 432.853 1.30154 1.5461 0
M  V30 4367 C 433.174 -0.119409 1.94634 0
M  V30 4368 O 432.444 -1.05924 1.64794 0
M  V30 4369 H 431.024 0.478784 0.573389 0
M  V30 4370 H 433.686 1.70565 0.94306 0
M  V30 4371 H 432.782 1.92762 2.45457 0
M  V30 4372 N 433.083 -1.0153 1.20538 0
M  V30 4373 C 434.313 -1.78487 1.04048 0
M  V30 4374 C 434.721 -1.84631 -0.413292 0
M  V30 4375 O 434.064 -1.29919 -1.29872 0
M  V30 4376 C 434.126 -3.24367 1.55003 0
M  V30 4377 C 433.79 -3.41827 3.0332 0
M  V30 4378 C 434.787 -3.30941 4.00966 0
M  V30 4379 C 432.472 -3.67602 3.42307 0
M  V30 4380 C 434.466 -3.45577 5.35589 0
M  V30 4381 C 432.153 -3.81881 4.77085 0
M  V30 4382 C 433.151 -3.70874 5.73534 0
M  V30 4383 O 432.839 -3.84714 7.05868 0
M  V30 4384 H 432.571 -0.568108 0.366373 0
M  V30 4385 H 435.125 -1.28677 1.60098 0
M  V30 4386 H 433.355 -3.75266 0.933397 0
M  V30 4387 H 435.044 -3.82963 1.34514 0
M  V30 4388 H 435.81 -3.10964 3.72191 0
M  V30 4389 H 431.689 -3.75256 2.67776 0
M  V30 4390 H 435.233 -3.36902 6.10854 0
M  V30 4391 H 431.13 -4.01359 5.0555 0
M  V30 4392 H 431.898 -4.01724 7.13134 0
M  V30 4393 N 434.561 -1.01147 -1.20859 0
M  V30 4394 C 435.807 -0.698899 -1.90377 0
M  V30 4395 C 436.14 0.76904 -1.78324 0
M  V30 4396 O 435.415 1.55817 -1.16409 0
M  V30 4397 C 435.698 -1.12878 -3.41951 0
M  V30 4398 C 435.551 -2.65665 -3.62963 0
M  V30 4399 C 436.87 -0.696114 -4.3456 0
M  V30 4400 H 433.989 -0.255372 -0.691342 0
M  V30 4401 H 436.631 -1.25831 -1.42361 0
M  V30 4402 H 434.781 -0.652827 -3.82976 0
M  V30 4403 H 436.453 -3.21074 -3.31224 0
M  V30 4404 H 434.696 -3.06878 -3.06608 0
M  V30 4405 H 435.367 -2.90797 -4.69192 0
M  V30 4406 H 437.843 -1.10521 -4.01154 0
M  V30 4407 H 436.719 -1.025 -5.39245 0
M  V30 4408 H 436.98 0.402465 -4.40264 0
M  V30 4409 N 436.039 1.36541 -0.78704 0
M  V30 4410 C 437.286 1.99304 -0.358341 0
M  V30 4411 C 437.614 1.62467 1.06933 0
M  V30 4412 O 436.869 0.870019 1.75297 0
M  V30 4413 C 437.168 3.54343 -0.466485 0
M  V30 4414 C 436.834 4.10993 -1.85461 0
M  V30 4415 C 435.496 4.26177 -2.23443 0
M  V30 4416 C 437.848 4.41895 -2.76366 0
M  V30 4417 C 435.176 4.69573 -3.51736 0
M  V30 4418 C 437.528 4.86722 -4.04084 0
M  V30 4419 C 436.192 5.00112 -4.42091 0
M  V30 4420 H 435.462 0.729306 -0.131126 0
M  V30 4421 H 438.109 1.63068 -1.00404 0
M  V30 4422 H 436.414 3.90918 0.262719 0
M  V30 4423 H 438.111 4.00833 -0.115854 0
M  V30 4424 H 434.701 3.99612 -1.54946 0
M  V30 4425 H 438.885 4.29735 -2.48277 0
M  V30 4426 H 434.141 4.78127 -3.81057 0
M  V30 4427 H 438.315 5.09598 -4.7464 0
M  V30 4428 H 435.942 5.33498 -5.41557 0
M  V30 4429 N 437.518 0.538854 1.48102 0
M  V30 4430 C 438.764 0.00801365 2.02798 0
M  V30 4431 C 439.097 -1.3309 1.41424 0
M  V30 4432 O 438.372 -1.86169 0.563158 0
M  V30 4433 C 438.655 -0.104589 3.59948 0
M  V30 4434 C 438.508 1.26012 4.31788 0
M  V30 4435 C 439.827 -0.827055 4.32259 0
M  V30 4436 H 436.946 0.00438624 0.736987 0
M  V30 4437 H 439.588 0.6976 1.7673 0
M  V30 4438 H 437.738 -0.691893 3.82289 0
M  V30 4439 H 439.41 1.88922 4.2084 0
M  V30 4440 H 437.653 1.83968 3.92859 0
M  V30 4441 H 438.324 1.13424 5.40221 0
M  V30 4442 H 440.8 -0.328578 4.14801 0
M  V30 4443 H 439.676 -0.87476 5.41885 0
M  V30 4444 H 439.937 -1.87927 4.0017 0
M  V30 4445 N 438.996 -1.55193 0.274407 0
M  V30 4446 C 440.244 -1.99187 -0.341902 0
M  V30 4447 C 440.565 -1.16422 -1.56431 0
M  V30 4448 O 439.835 -0.253573 -1.94252 0
M  V30 4449 H 438.415 -0.735721 -0.129317 0
M  V30 4450 H 441.077 -1.91168 0.379578 0
M  V30 4451 H 440.173 -3.05629 -0.632253 0
M  V30 4452 N 440.474 -0.00167713 -1.576 0
M  V30 4453 C 441.704 0.692754 -1.94639 0
M  V30 4454 C 442.112 1.67744 -0.87513 0
M  V30 4455 O 441.455 1.8305 0.154382 0
M  V30 4456 C 441.517 1.47881 -3.27676 0
M  V30 4457 C 441.181 0.655518 -4.52274 0
M  V30 4458 C 442.178 -0.0575214 -5.19868 0
M  V30 4459 C 439.863 0.600994 -4.98692 0
M  V30 4460 C 441.857 -0.814052 -6.3218 0
M  V30 4461 C 439.544 -0.15926 -6.10892 0
M  V30 4462 C 440.542 -0.865515 -6.77494 0
M  V30 4463 O 440.23 -1.61336 -7.87544 0
M  V30 4464 H 439.962 0.197792 -0.646417 0
M  V30 4465 H 442.516 -0.049423 -2.05341 0
M  V30 4466 H 440.746 2.2655 -3.13388 0
M  V30 4467 H 442.435 2.05874 -3.49816 0
M  V30 4468 H 443.201 -0.0245611 -4.84994 0
M  V30 4469 H 439.08 1.14025 -4.46676 0
M  V30 4470 H 442.624 -1.36584 -6.84098 0
M  V30 4471 H 438.521 -0.194035 -6.45208 0
M  V30 4472 H 439.289 -1.53025 -8.04068 0
M  V30 4473 N 441.952 1.55251 0.271103 0
M  V30 4474 C 442.902 1.84649 1.33749 0
M  V30 4475 C 443.886 0.705529 1.44607 0
M  V30 4476 O 445.078 0.966916 1.48256 0
M  V30 4477 C 442.207 2.12354 2.69742 0
M  V30 4478 C 441.293 3.32714 2.62988 0
M  V30 4479 N 441.684 4.52575 2.25853 0
M  V30 4480 C 439.982 3.35341 2.94045 0
M  V30 4481 C 440.683 5.34669 2.29136 0
M  V30 4482 N 439.659 4.73123 2.67685 0
M  V30 4483 H 443.461 2.74865 1.0405 0
M  V30 4484 H 440.975 1.55152 0.479738 0
M  V30 4485 H 442.972 2.31572 3.4667 0
M  V30 4486 H 441.632 1.23422 3.00328 0
M  V30 4487 H 442.643 4.78639 1.978 0
M  V30 4488 H 439.32 2.56608 3.2933 0
M  V30 4489 H 440.71 6.40509 2.02971 0
M  V30 4490 N 443.43 -0.535701 1.48216 0
M  V30 4491 C 444.678 -1.28928 1.55634 0
M  V30 4492 C 444.999 -1.93645 0.229514 0
M  V30 4493 O 444.269 -1.81038 -0.74846 0
M  V30 4494 H 442.849 -0.47884 0.573342 0
M  V30 4495 H 445.511 -0.623853 1.84646 0
M  V30 4496 H 444.607 -2.07157 2.33436 0
M  V30 4497 N 444.908 -1.36708 -0.784132 0
M  V30 4498 C 446.136 -1.34398 -1.57305 0
M  V30 4499 C 446.551 0.0735577 -1.88657 0
M  V30 4500 O 445.908 1.03193 -1.50524 0
M  V30 4501 C 445.959 -2.17053 -2.89085 0
M  V30 4502 O 445.68 -3.53281 -2.59083 0
M  V30 4503 C 447.181 -2.22583 -3.83369 0
M  V30 4504 H 444.401 -0.460819 -0.487736 0
M  V30 4505 H 446.945 -1.79879 -0.972819 0
M  V30 4506 H 445.1 -1.75113 -3.45564 0
M  V30 4507 H 445.514 -3.9647 -3.43383 0
M  V30 4508 H 446.988 -2.84763 -4.72878 0
M  V30 4509 H 447.465 -1.23075 -4.21603 0
M  V30 4510 H 448.071 -2.64781 -3.32823 0
M  V30 4511 N 446.386 1.0089 -1.21074 0
M  V30 4512 C 447.633 1.74607 -1.0256 0
M  V30 4513 C 447.961 1.89426 0.44136 0
M  V30 4514 O 447.216 1.42266 1.34384 0
M  V30 4515 C 447.515 3.16335 -1.66334 0
M  V30 4516 C 447.181 3.21474 -3.16173 0
M  V30 4517 C 445.843 3.22583 -3.57062 0
M  V30 4518 C 448.195 3.19025 -4.12156 0
M  V30 4519 C 445.523 3.18925 -4.92446 0
M  V30 4520 C 447.875 3.16909 -5.47496 0
M  V30 4521 C 446.539 3.16326 -5.87787 0
M  V30 4522 H 445.809 0.638933 -0.375294 0
M  V30 4523 H 448.456 1.18274 -1.50611 0
M  V30 4524 H 446.761 3.75876 -1.10566 0
M  V30 4525 H 448.458 3.72083 -1.49516 0
M  V30 4526 H 445.048 3.2135 -2.83605 0
M  V30 4527 H 449.232 3.17332 -3.81595 0
M  V30 4528 H 444.488 3.16809 -5.22917 0
M  V30 4529 H 448.662 3.13968 -6.21609 0
M  V30 4530 H 446.289 3.13246 -6.92662 0
M  V30 4531 N 447.864 1.01787 1.20321 0
M  V30 4532 C 448.794 0.609625 2.25401 0
M  V30 4533 C 449.775 -0.375951 1.65893 0
M  V30 4534 O 450.96 -0.261101 1.92437 0
M  V30 4535 C 448.09 -0.0515995 3.47262 0
M  V30 4536 C 447.044 0.855095 4.19371 0
M  V30 4537 C 446.37 0.0595757 5.34667 0
M  V30 4538 C 447.67 2.16374 4.75373 0
M  V30 4539 H 449.364 1.48803 2.59804 0
M  V30 4540 H 446.91 0.716934 1.24884 0
M  V30 4541 H 448.863 -0.348764 4.19954 0
M  V30 4542 H 447.587 -0.964726 3.12027 0
M  V30 4543 H 446.246 1.13628 3.48546 0
M  V30 4544 H 445.894 -0.85524 4.95676 0
M  V30 4545 H 445.594 0.663406 5.83843 0
M  V30 4546 H 447.118 -0.231105 6.10162 0
M  V30 4547 H 448.532 1.92885 5.39878 0
M  V30 4548 H 446.929 2.71853 5.34991 0
M  V30 4549 H 447.999 2.82589 3.94045 0
M  V30 4550 N 449.342 -1.36122 0.79427 0
M  V30 4551 C 450.252 -2.33769 0.197296 0
M  V30 4552 C 451.268 -1.61276 -0.653153 0
M  V30 4553 O 452.444 -1.9323 -0.5678 0
M  V30 4554 C 449.509 -3.40474 -0.654098 0
M  V30 4555 C 448.57 -4.28759 0.215411 0
M  V30 4556 C 447.803 -5.30368 -0.595443 0
M  V30 4557 O 448.026 -5.40211 -1.83107 0
M  V30 4558 O 446.96 -6.019 0.00721351 0
M  V30 4559 H 450.786 -2.86597 1.00478 0
M  V30 4560 H 448.371 -1.38676 0.555818 0
M  V30 4561 H 450.253 -4.05703 -1.13944 0
M  V30 4562 H 448.928 -2.89937 -1.43938 0
M  V30 4563 H 447.835 -3.66554 0.747615 0
M  V30 4564 H 449.168 -4.82661 0.964332 0
M  V30 4565 N 450.82 -0.546701 -1.47814 0
M  V30 4566 C 451.783 0.196287 -2.28358 0
M  V30 4567 C 452.783 0.852437 -1.36346 0
M  V30 4568 O 453.973 0.709913 -1.59078 0
M  V30 4569 C 451.105 1.28579 -3.15722 0
M  V30 4570 H 452.298 -0.511086 -2.95513 0
M  V30 4571 H 449.851 -0.303248 -1.5333 0
M  V30 4572 H 450.586 2.0259 -2.53235 0
M  V30 4573 H 450.371 0.820229 -3.83425 0
M  V30 4574 H 451.861 1.80793 -3.76435 0
M  V30 4575 N 452.299 1.55045 -0.282633 0
M  V30 4576 C 453.262 2.21515 0.588539 0
M  V30 4577 C 454.262 1.19535 1.07554 0
M  V30 4578 O 455.452 1.44391 0.974514 0
M  V30 4579 C 452.584 2.88704 1.8128 0
M  V30 4580 H 453.777 2.99899 0.00806397 0
M  V30 4581 H 451.33 1.56265 -0.0333067 0
M  V30 4582 H 452.065 2.14352 2.43359 0
M  V30 4583 H 451.85 3.63443 1.47144 0
M  V30 4584 H 453.34 3.39465 2.43214 0
M  V30 4585 N 453.777 0.010035 1.57597 0
M  V30 4586 C 454.709 -1.00649 2.05918 0
M  V30 4587 C 455.722 -1.30077 0.978964 0
M  V30 4588 O 456.911 -1.26878 1.25556 0
M  V30 4589 C 454.011 -2.33876 2.45265 0
M  V30 4590 C 453.184 -2.23242 3.7614 0
M  V30 4591 C 452.243 -3.39242 4.02245 0
M  V30 4592 O 451.269 -3.1698 4.72771 0
M  V30 4593 N 452.471 -4.6242 3.50924 0
M  V30 4594 H 455.236 -0.594333 2.93748 0
M  V30 4595 H 452.797 -0.17714 1.60928 0
M  V30 4596 H 454.789 -3.1027 2.59836 0
M  V30 4597 H 453.359 -2.66799 1.62902 0
M  V30 4598 H 452.579 -1.31696 3.71551 0
M  V30 4599 H 453.867 -2.13321 4.61922 0
M  V30 4600 H 453.265 -4.83404 2.93832 0
M  V30 4601 H 451.822 -5.36046 3.70807 0
M  V30 4602 N 455.255 -1.55392 -0.262866 0
M  V30 4603 C 456.48 -1.80847 -1.01533 0
M  V30 4604 C 456.905 -0.584946 -1.78774 0
M  V30 4605 O 456.263 0.465701 -1.75217 0
M  V30 4606 C 456.311 -3.03866 -1.94159 0
M  V30 4607 O 455.415 -2.79662 -3.03089 0
M  V30 4608 H 454.756 -0.597441 -0.289759 0
M  V30 4609 H 457.286 -2.02553 -0.288698 0
M  V30 4610 H 457.296 -3.32872 -2.35924 0
M  V30 4611 H 455.971 -3.92564 -1.37354 0
M  V30 4612 H 454.548 -2.61781 -2.65566 0
M  V30 4613 N 456.733 0.527833 -1.48498 0
M  V30 4614 C 457.982 1.28003 -1.55878 0
M  V30 4615 C 458.295 1.9414 -0.238577 0
M  V30 4616 O 459.501 2.7083 -0.190643 0
M  V30 4617 C 457.957 2.32272 -2.74914 0
M  V30 4618 C 457.565 1.72196 -4.13585 0
M  V30 4619 C 459.309 3.08488 -2.91608 0
M  V30 4620 C 457.216 2.74417 -5.23879 0
M  V30 4621 H 456.146 0.481413 -0.580308 0
M  V30 4622 H 458.797 0.557195 -1.74836 0
M  V30 4623 H 457.179 3.07601 -2.49395 0
M  V30 4624 H 458.353 1.03041 -4.49132 0
M  V30 4625 H 456.668 1.08464 -4.02025 0
M  V30 4626 H 459.265 3.84879 -3.71177 0
M  V30 4627 H 459.608 3.64481 -2.01145 0
M  V30 4628 H 460.141 2.40274 -3.17038 0
M  V30 4629 H 456.88 2.23242 -6.16314 0
M  V30 4630 H 456.4 3.41893 -4.92818 0
M  V30 4631 H 458.079 3.37362 -5.52083 0
M  V30 4632 N 458.211 1.37122 0.776871 0
M  V30 4633 C 459.457 1.32243 1.53752 0
M  V30 4634 C 459.79 -0.0944745 1.9397 0
M  V30 4635 O 459.065 -1.05068 1.6368 0
M  V30 4636 C 459.348 2.25681 2.80607 0
M  V30 4637 C 459.201 3.76127 2.46676 0
M  V30 4638 C 460.52 2.17657 3.82509 0
M  V30 4639 H 457.639 0.481704 0.557791 0
M  V30 4640 H 460.281 1.6778 0.891612 0
M  V30 4641 H 458.431 1.95505 3.35723 0
M  V30 4642 H 460.103 4.16877 1.97513 0
M  V30 4643 H 458.346 3.94946 1.79443 0
M  V30 4644 H 459.017 4.36933 3.37333 0
M  V30 4645 H 461.493 2.44245 3.36873 0
M  V30 4646 H 460.369 2.85185 4.69 0
M  V30 4647 H 460.63 1.16785 4.26396 0
M  V30 4648 N 459.689 -1.00246 1.21608 0
M  V30 4649 C 460.936 -1.74061 1.03485 0
M  V30 4650 C 461.264 -1.89658 -0.431308 0
M  V30 4651 O 460.519 -1.42976 -1.33627 0
M  V30 4652 C 460.818 -3.15448 1.68009 0
M  V30 4653 C 460.484 -3.19792 3.17874 0
M  V30 4654 C 459.146 -3.20685 3.58768 0
M  V30 4655 C 461.498 -3.16835 4.13842 0
M  V30 4656 C 458.826 -3.16309 4.94131 0
M  V30 4657 C 461.178 -3.14001 5.49169 0
M  V30 4658 C 459.842 -3.13204 5.89457 0
M  V30 4659 H 459.112 -0.636934 0.378677 0
M  V30 4660 H 461.759 -1.17473 1.51236 0
M  V30 4661 H 460.064 -3.75284 1.12557 0
M  V30 4662 H 461.761 -3.71285 1.51487 0
M  V30 4663 H 458.351 -3.19842 2.85305 0
M  V30 4664 H 462.535 -3.15303 3.83272 0
M  V30 4665 H 457.791 -3.14032 5.24589 0
M  V30 4666 H 461.965 -3.10667 6.23265 0
M  V30 4667 H 459.592 -3.09568 6.94314 0
M  V30 4668 N 461.167 -1.02423 -1.1978 0
M  V30 4669 C 462.415 -0.716569 -1.8897 0
M  V30 4670 C 462.736 0.756769 -1.79716 0
M  V30 4671 O 462.006 1.5449 -1.20456 0
M  V30 4672 H 460.586 -0.262062 -0.699523 0
M  V30 4673 H 463.248 -1.29747 -1.45436 0
M  V30 4674 H 462.344 -1.00675 -2.95417 0
M  V30 4675 N 462.645 1.35699 -0.801477 0
M  V30 4676 C 463.893 1.9852 -0.37871 0
M  V30 4677 C 464.214 1.63907 1.05638 0
M  V30 4678 O 463.484 0.919013 1.73006 0
M  V30 4679 H 462.064 0.734322 -0.137042 0
M  V30 4680 H 464.726 1.65697 -1.02619 0
M  V30 4681 H 463.822 3.08382 -0.480284 0
M  V30 4682 N 464.123 0.554532 1.47522 0
M  V30 4683 C 465.369 0.0295227 2.02779 0
M  V30 4684 C 465.702 -1.31582 1.42828 0
M  V30 4685 O 464.977 -1.85561 0.582872 0
M  V30 4686 C 465.26 -0.0664057 3.60039 0
M  V30 4687 C 465.113 1.30585 4.30427 0
M  V30 4688 C 466.432 -0.781162 4.33112 0
M  V30 4689 H 463.551 0.0122027 0.736899 0
M  V30 4690 H 466.193 0.716305 1.7598 0
M  V30 4691 H 464.343 -0.651307 3.83002 0
M  V30 4692 H 466.015 1.93374 4.18813 0
M  V30 4693 H 464.258 1.88125 3.90886 0
M  V30 4694 H 464.929 1.19147 5.38988 0
M  V30 4695 H 467.405 -0.284565 4.15126 0
M  V30 4696 H 466.281 -0.817237 5.42782 0
M  V30 4697 H 466.542 -1.83672 4.0214 0
M  V30 4698 N 465.601 -1.54893 0.290851 0
M  V30 4699 C 467.017 -1.59476 -0.0628432 0
M  V30 4700 C 467.217 -1.30795 -1.5328 0
M  V30 4701 O 466.273 -1.07644 -2.28406 0
M  V30 4702 C 467.586 -2.98928 0.325962 0
M  V30 4703 C 469.134 -3.11799 0.273882 0
M  V30 4704 C 469.609 -4.53544 0.637359 0
M  V30 4705 N 471.1 -4.59433 0.589507 0
M  V30 4706 C 471.835 -5.67164 0.84335 0
M  V30 4707 N 471.331 -6.82975 1.16263 0
M  V30 4708 N 473.124 -5.56786 0.771091 0
M  V30 4709 H 465.275 -1.71798 1.24896 0
M  V30 4710 H 467.538 -0.801879 0.505663 0
M  V30 4711 H 467.244 -3.24805 1.34887 0
M  V30 4712 H 467.118 -3.75793 -0.325441 0
M  V30 4713 H 469.505 -2.85677 -0.739765 0
M  V30 4714 H 469.586 -2.37112 0.959766 0
M  V30 4715 H 469.23 -4.80394 1.64877 0
M  V30 4716 H 469.16 -5.26553 -0.0704866 0
M  V30 4717 H 471.651 -3.76245 0.353252 0
M  V30 4718 H 471.964 -7.61048 1.34257 0
M  V30 4719 H 470.309 -6.84552 1.20057 0
M  V30 4720 H 473.5 -4.65187 0.521383 0
M  V30 4721 H 473.673 -6.40664 0.972295 0
M  V30 4722 N 467.08 -0.0183926 -1.57589 0
M  V30 4723 C 468.043 0.951986 -2.08494 0
M  V30 4724 C 469.043 1.26092 -0.997874 0
M  V30 4725 O 470.233 1.20304 -1.25987 0
M  V30 4726 C 467.365 2.27165 -2.54182 0
M  V30 4727 H 468.558 0.511307 -2.95509 0
M  V30 4728 H 466.111 0.229444 -1.54607 0
M  V30 4729 H 466.846 2.75884 -1.70465 0
M  V30 4730 H 466.631 2.06057 -3.33591 0
M  V30 4731 H 468.121 2.9674 -2.93828 0
M  V30 4732 N 468.558 1.5553 0.254621 0
M  V30 4733 C 469.974 1.4778 0.602753 0
M  V30 4734 C 470.174 0.707047 1.88688 0
M  V30 4735 O 469.23 0.233288 2.5142 0
M  V30 4736 C 470.543 2.92133 0.712648 0
M  V30 4737 C 472.091 3.02458 0.805488 0
M  V30 4738 C 472.566 4.48102 0.947009 0
M  V30 4739 N 474.057 4.52008 1.01207 0
M  V30 4740 C 474.792 5.61939 1.1407 0
M  V30 4741 N 474.288 6.81697 1.23536 0
M  V30 4742 N 476.081 5.49719 1.17325 0
M  V30 4743 H 468.232 2.04085 -0.588463 0
M  V30 4744 H 470.495 0.926229 -0.202001 0
M  V30 4745 H 470.201 3.51332 -0.160766 0
M  V30 4746 H 470.075 3.42187 1.58707 0
M  V30 4747 H 472.462 2.43344 1.66936 0
M  V30 4748 H 472.543 2.55627 -0.0939266 0
M  V30 4749 H 472.187 5.07824 0.087725 0
M  V30 4750 H 472.117 4.92607 1.86135 0
M  V30 4751 H 474.608 3.65749 0.950577 0
M  V30 4752 H 474.921 7.61228 1.33236 0
M  V30 4753 H 473.266 6.84473 1.20508 0
M  V30 4754 H 476.457 4.55095 1.09573 0
M  V30 4755 H 476.63 6.35432 1.27005 0
M  V30 4756 N 470.036 -0.519951 1.48776 0
M  V30 4757 C 471.261 -1.30447 1.6124 0
M  V30 4758 C 471.686 -1.86055 0.276591 0
M  V30 4759 O 471.044 -1.64915 -0.753183 0
M  V30 4760 C 471.092 -2.42406 2.66967 0
M  V30 4761 O 470.196 -3.45728 2.24824 0
M  V30 4762 H 469.537 -0.385924 0.540332 0
M  V30 4763 H 472.067 -0.624572 1.94834 0
M  V30 4764 H 472.077 -2.88447 2.88552 0
M  V30 4765 H 470.752 -2.01294 3.63941 0
M  V30 4766 H 469.329 -3.05737 2.13494 0
M  V30 4767 N 471.514 -1.37532 -0.769588 0
M  V30 4768 C 472.446 -1.29347 -1.89214 0
M  V30 4769 C 473.459 -0.208842 -1.61455 0
M  V30 4770 O 474.648 -0.465158 -1.72333 0
M  V30 4771 C 471.748 -0.977649 -3.24492 0
M  V30 4772 C 470.921 -2.16817 -3.7988 0
M  V30 4773 C 469.98 -1.82229 -4.93639 0
M  V30 4774 O 469.006 -2.54548 -5.09111 0
M  V30 4775 N 470.208 -0.767696 -5.75401 0
M  V30 4776 H 472.973 -2.26073 -1.96751 0
M  V30 4777 H 470.534 -1.31185 -0.948795 0
M  V30 4778 H 472.526 -0.727065 -3.98115 0
M  V30 4779 H 471.096 -0.0988777 -3.12444 0
M  V30 4780 H 470.316 -2.58038 -2.9801 0
M  V30 4781 H 471.604 -2.96308 -4.13617 0
M  V30 4782 H 471.002 -0.167626 -5.65452 0
M  V30 4783 H 469.559 -0.576973 -6.49241 0
M  V30 4784 N 472.992 0.995999 -1.22138 0
M  V30 4785 C 474.269 1.70834 -0.952642 0
M  V30 4786 C 474.649 2.04257 0.533119 0
M  V30 4787 O 473.997 1.72343 1.50034 0
M  V30 4788 C 474.207 2.96119 -1.84701 0
M  V30 4789 C 475.555 3.68962 -2.10124 0
M  V30 4790 O 476.579 3.0612 -1.82124 0
M  V30 4791 O 475.438 4.82017 -2.57531 0
M  V30 4792 H 472.532 0.745498 -0.357997 0
M  V30 4793 H 475.078 1.05262 -1.33109 0
M  V30 4794 H 473.85 2.67898 -2.85213 0
M  V30 4795 H 473.473 3.6943 -1.46995 0
M  V30 4796 N 474.47 1.03057 1.19235 0
M  V30 4797 C 475.4 0.633497 2.24742 0
M  V30 4798 C 476.381 -0.358335 1.66283 0
M  V30 4799 O 477.566 -0.240676 1.92703 0
M  V30 4800 C 474.696 -0.0147648 3.47297 0
M  V30 4801 C 473.65 0.899527 4.18441 0
M  V30 4802 C 472.976 0.116281 5.34574 0
M  V30 4803 C 474.276 2.21404 4.73051 0
M  V30 4804 H 475.97 1.5155 2.58211 0
M  V30 4805 H 473.516 0.73014 1.24117 0
M  V30 4806 H 475.469 -0.304202 4.20301 0
M  V30 4807 H 474.193 -0.931577 3.13032 0
M  V30 4808 H 472.852 1.17319 3.47321 0
M  V30 4809 H 472.5 -0.802619 4.96555 0
M  V30 4810 H 472.2 0.725293 5.83107 0
M  V30 4811 H 473.724 -0.166376 6.10373 0
M  V30 4812 H 475.138 1.98601 5.37802 0
M  V30 4813 H 473.535 2.77512 5.32078 0
M  V30 4814 H 474.605 2.86752 3.91026 0
M  V30 4815 N 475.948 -1.35272 0.808662 0
M  V30 4816 C 477.225 -1.93077 0.313181 0
M  V30 4817 C 477.605 -1.73847 -1.19752 0
M  V30 4818 O 476.953 -1.1087 -1.998 0
M  V30 4819 C 477.163 -3.41347 0.726859 0
M  V30 4820 C 478.511 -4.18493 0.717532 0
M  V30 4821 O 479.535 -3.4987 0.668535 0
M  V30 4822 O 478.394 -5.40937 0.777779 0
M  V30 4823 H 475.488 -0.822885 0.0824018 0
M  V30 4824 H 478.034 -1.44335 0.892499 0
M  V30 4825 H 476.806 -3.49082 1.76797 0
M  V30 4826 H 476.429 -3.97411 0.122461 0
M  V30 4827 N 477.426 -0.562348 -1.47226 0
M  V30 4828 C 478.389 0.172056 -2.28553 0
M  V30 4829 C 479.389 0.837928 -1.37242 0
M  V30 4830 O 480.579 0.693001 -1.59822 0
M  V30 4831 C 477.711 1.25223 -3.17068 0
M  V30 4832 H 478.904 -0.542401 -2.94954 0
M  V30 4833 H 476.457 -0.319493 -1.53 0
M  V30 4834 H 477.192 1.99892 -2.55369 0
M  V30 4835 H 476.977 0.779515 -3.84273 0
M  V30 4836 H 478.467 1.76791 -3.78332 0
M  V30 4837 N 478.904 1.54736 -0.299062 0
M  V30 4838 C 480.153 1.99279 0.311549 0
M  V30 4839 C 480.466 1.19107 1.55154 0
M  V30 4840 O 481.672 1.53908 2.23662 0
M  V30 4841 C 480.128 3.54768 0.605632 0
M  V30 4842 C 479.736 4.43746 -0.615914 0
M  V30 4843 C 481.48 4.07841 1.17754 0
M  V30 4844 C 479.387 5.90663 -0.29509 0
M  V30 4845 H 478.317 0.744359 0.120187 0
M  V30 4846 H 480.968 1.78919 -0.407464 0
M  V30 4847 H 479.35 3.71021 1.38419 0
M  V30 4848 H 480.524 4.39267 -1.39218 0
M  V30 4849 H 478.839 4.01434 -1.10633 0
M  V30 4850 H 481.436 5.15174 1.43179 0
M  V30 4851 H 481.779 3.58324 2.11918 0
M  V30 4852 H 482.312 3.95123 0.460739 0
M  V30 4853 H 479.051 6.44325 -1.20524 0
M  V30 4854 H 478.571 5.98155 0.44394 0
M  V30 4855 H 480.25 6.46916 0.104048 0
M  V30 4856 N 480.382 0.0267497 1.57577 0
M  V30 4857 C 481.628 -0.647596 1.92815 0
M  V30 4858 C 481.983 -1.69872 0.903396 0
M  V30 4859 O 481.276 -1.91429 -0.0808881 0
M  V30 4860 C 481.47 -1.30914 3.3256 0
M  V30 4861 C 481.299 -0.323621 4.48534 0
M  V30 4862 C 480.069 0.0756607 5.05243 0
M  V30 4863 C 482.267 0.42112 5.12573 0
M  V30 4864 N 480.249 1.0566 6.04739 0
M  V30 4865 C 481.62 1.25589 6.07147 0
M  V30 4866 C 483.675 0.482077 4.95561 0
M  V30 4867 C 482.378 2.1461 6.86538 0
M  V30 4868 C 484.404 1.35962 5.75559 0
M  V30 4869 C 483.766 2.18217 6.69747 0
M  V30 4870 H 479.865 -0.209357 0.753454 0
M  V30 4871 H 482.449 0.0933695 1.94476 0
M  V30 4872 H 480.62 -2.02026 3.31723 0
M  V30 4873 H 482.352 -1.94033 3.55153 0
M  V30 4874 H 479.107 -0.298294 4.7266 0
M  V30 4875 H 479.531 1.54324 6.59176 0
M  V30 4876 H 484.173 -0.139609 4.22569 0
M  V30 4877 H 481.891 2.77835 7.58837 0
M  V30 4878 H 485.477 1.41105 5.6443 0
M  V30 4879 H 484.357 2.85022 7.3057 0
M  V30 4880 N 481.861 -1.55662 -0.24637 0
M  V30 4881 C 483.277 -1.48098 -0.594907 0
M  V30 4882 C 483.477 -0.717044 -1.8831 0
M  V30 4883 O 482.533 -0.246618 -2.51293 0
M  V30 4884 C 483.846 -2.92507 -0.697146 0
M  V30 4885 C 485.394 -3.02881 -0.789436 0
M  V30 4886 C 485.869 -4.48598 -0.923232 0
M  V30 4887 N 487.36 -4.52538 -0.988088 0
M  V30 4888 C 488.095 -5.62536 -1.11089 0
M  V30 4889 N 487.591 -6.82342 -1.19919 0
M  V30 4890 N 489.384 -5.50334 -1.14408 0
M  V30 4891 H 481.535 -2.0377 0.599278 0
M  V30 4892 H 483.798 -0.925145 0.20691 0
M  V30 4893 H 483.504 -3.51242 0.179396 0
M  V30 4894 H 483.378 -3.43024 -1.5689 0
M  V30 4895 H 485.765 -2.44226 -1.65643 0
M  V30 4896 H 485.846 -2.55574 0.107482 0
M  V30 4897 H 485.49 -5.07864 -0.0607927 0
M  V30 4898 H 485.42 -4.93587 -1.8352 0
M  V30 4899 H 487.911 -3.66248 -0.931167 0
M  V30 4900 H 488.224 -7.61924 -1.29197 0
M  V30 4901 H 486.569 -6.85102 -1.16876 0
M  V30 4902 H 489.76 -4.5567 -1.07158 0
M  V30 4903 H 489.933 -6.36096 -1.23634 0
M  V30 4904 N 483.339 0.512053 -1.4905 0
M  V30 4905 C 484.587 1.26436 -1.57665 0
M  V30 4906 C 484.908 1.93255 -0.260293 0
M  V30 4907 O 484.178 1.82206 0.719564 0
M  V30 4908 H 482.758 0.469658 -0.580888 0
M  V30 4909 H 485.42 0.594398 -1.85615 0
M  V30 4910 H 484.516 2.03417 -2.36702 0
M  V30 4911 N 484.817 1.37938 0.762283 0
M  V30 4912 C 486.064 1.33668 1.52115 0
M  V30 4913 C 486.392 -0.0759538 1.94352 0
M  V30 4914 O 485.647 -1.05121 1.6507 0
M  V30 4915 C 485.946 2.23042 2.79261 0
M  V30 4916 C 485.612 3.71159 2.56031 0
M  V30 4917 C 484.274 4.11523 2.49404 0
M  V30 4918 C 486.626 4.64955 2.35513 0
M  V30 4919 C 483.954 5.43784 2.20263 0
M  V30 4920 C 486.306 5.97464 2.07894 0
M  V30 4921 C 484.97 6.36922 1.99718 0
M  V30 4922 H 484.24 0.489127 0.556629 0
M  V30 4923 H 486.887 1.70224 0.877262 0
M  V30 4924 H 485.192 1.79512 3.48256 0
M  V30 4925 H 486.889 2.17047 3.37182 0
M  V30 4926 H 483.479 3.39153 2.62056 0
M  V30 4927 H 487.663 4.34623 2.39617 0
M  V30 4928 H 482.919 5.73307 2.12435 0
M  V30 4929 H 487.093 6.6969 1.91019 0
M  V30 4930 H 484.72 7.39331 1.76902 0
M  V30 4931 N 486.295 -0.989507 1.22664 0
M  V30 4932 C 487.525 -1.7624 1.0781 0
M  V30 4933 C 487.933 -1.85466 -0.374036 0
M  V30 4934 O 487.276 -1.32645 -1.27087 0
M  V30 4935 C 487.338 -3.21007 1.61849 0
M  V30 4936 C 487.002 -3.35316 3.10503 0
M  V30 4937 C 487.999 -3.22362 4.07896 0
M  V30 4938 C 485.684 -3.60258 3.50028 0
M  V30 4939 C 487.678 -3.34139 5.42798 0
M  V30 4940 C 485.365 -3.71676 4.85078 0
M  V30 4941 C 486.363 -3.58625 5.81272 0
M  V30 4942 O 486.051 -3.69655 7.1387 0
M  V30 4943 H 485.783 -0.560209 0.378341 0
M  V30 4944 H 488.337 -1.25252 1.62792 0
M  V30 4945 H 486.567 -3.73202 1.01279 0
M  V30 4946 H 488.256 -3.80024 1.42606 0
M  V30 4947 H 489.022 -3.03 3.78703 0
M  V30 4948 H 484.901 -3.69492 2.75675 0
M  V30 4949 H 488.445 -3.23869 6.17863 0
M  V30 4950 H 484.342 -3.90545 5.1395 0
M  V30 4951 H 485.11 -3.86507 7.21495 0
M  V30 4952 N 487.773 -1.03688 -1.18687 0
M  V30 4953 C 489.022 -0.733235 -1.879 0
M  V30 4954 C 489.335 0.741745 -1.8099 0
M  V30 4955 O 490.541 1.15875 -2.4553 0
M  V30 4956 C 488.997 -1.26127 -3.37076 0
M  V30 4957 C 488.605 -2.76461 -3.52524 0
M  V30 4958 C 490.349 -1.03398 -4.11715 0
M  V30 4959 C 488.256 -3.22642 -4.95637 0
M  V30 4960 H 487.186 -0.270584 -0.703776 0
M  V30 4961 H 489.837 -1.25222 -1.34133 0
M  V30 4962 H 488.219 -0.670165 -3.90288 0
M  V30 4963 H 489.393 -3.41296 -3.09602 0
M  V30 4964 H 487.708 -2.97559 -2.91286 0
M  V30 4965 H 490.305 -1.3542 -5.17267 0
M  V30 4966 H 490.648 0.0289246 -4.1629 0
M  V30 4967 H 491.181 -1.5895 -3.64664 0
M  V30 4968 H 487.92 -4.28296 -4.96228 0
M  V30 4969 H 487.44 -2.62539 -5.39289 0
M  V30 4970 H 489.119 -3.16444 -5.64333 0
M  V30 4971 N 489.251 1.34841 -0.815825 0
M  V30 4972 C 490.214 2.27959 -0.238185 0
M  V30 4973 C 491.214 1.49983 0.579816 0
M  V30 4974 O 492.404 1.69617 0.396953 0
M  V30 4975 C 489.536 3.34314 0.666876 0
M  V30 4976 H 490.729 2.80558 -1.05958 0
M  V30 4977 H 488.282 1.44852 -0.587156 0
M  V30 4978 H 489.017 2.86916 1.5116 0
M  V30 4979 H 488.802 3.92014 0.0819106 0
M  V30 4980 H 490.292 4.0379 1.06506 0
M  V30 4981 N 490.729 0.570148 1.46925 0
M  V30 4982 C 491.977 0.0508523 2.02036 0
M  V30 4983 C 492.298 -1.30885 1.44548 0
M  V30 4984 O 491.568 -1.85647 0.625453 0
M  V30 4985 H 490.148 0.0158088 0.746833 0
M  V30 4986 H 492.81 0.743086 1.80178 0
M  V30 4987 H 491.906 -0.027575 3.12088 0
M  V30 4988 N 492.207 -1.54576 0.307264 0
M  V30 4989 C 493.484 -1.92377 -0.353605 0
M  V30 4990 C 493.864 -1.23517 -1.71192 0
M  V30 4991 O 493.212 -0.373101 -2.25433 0
M  V30 4992 C 493.422 -3.45928 -0.462039 0
M  V30 4993 C 494.77 -4.18278 -0.729975 0
M  V30 4994 O 495.794 -3.51997 -0.545605 0
M  V30 4995 O 494.653 -5.3563 -1.08454 0
M  V30 4996 H 491.747 -0.802747 -0.198812 0
M  V30 4997 H 494.293 -1.65929 0.355783 0
M  V30 4998 H 493.065 -3.88187 0.492592 0
M  V30 4999 H 492.688 -3.78431 -1.21965 0
M  V30 5000 N 493.685 -0.035106 -1.57561 0
M  V30 5001 C 495.096 0.502885 -1.798 0
M  V30 5002 C 495.447 1.71892 -0.945921 0
M  V30 5003 O 494.572 2.15822 -0.157991 0
M  V30 5004 C 495.167 0.919097 -3.26095 0
M  V30 5005 C 493.726 1.40216 -3.49308 0
M  V30 5006 C 492.873 0.369709 -2.74824 0
M  V30 5007 H 495.824 -0.261102 -1.56537 0
M  V30 5008 H 495.845 1.78308 -3.36135 0
M  V30 5009 H 495.357 0.0338526 -3.88085 0
M  V30 5010 H 493.458 2.30714 -2.92578 0
M  V30 5011 H 493.571 1.40541 -4.58023 0
M  V30 5012 H 491.935 0.839113 -2.40481 0
M  V30 5013 H 492.718 -0.507173 -3.39533 0
M  V30 5014 N 495.163 1.55791 0.238111 0
M  V30 5015 C 496.126 1.90239 1.27835 0
M  V30 5016 C 497.126 0.779552 1.4064 0
M  V30 5017 O 498.316 1.04747 1.3919 0
M  V30 5018 C 495.448 2.13859 2.65475 0
M  V30 5019 H 496.641 2.83262 0.985034 0
M  V30 5020 H 494.194 1.48818 0.477799 0
M  V30 5021 H 494.929 1.23334 2.99932 0
M  V30 5022 H 494.714 2.95643 2.57561 0
M  V30 5023 H 496.204 2.41664 3.40571 0
M  V30 5024 N 496.642 -0.504142 1.49319 0
M  V30 5025 C 497.572 -1.61473 1.68667 0
M  V30 5026 C 498.553 -1.61455 0.535378 0
M  V30 5027 O 499.738 -1.78245 0.770868 0
M  V30 5028 C 496.868 -2.99971 1.75028 0
M  V30 5029 C 495.822 -3.14854 2.89916 0
M  V30 5030 C 495.148 -4.54671 2.81387 0
M  V30 5031 C 496.448 -2.95176 4.30893 0
M  V30 5032 H 498.142 -1.45535 2.61648 0
M  V30 5033 H 495.688 -0.698711 1.25913 0
M  V30 5034 H 497.641 -3.77562 1.8715 0
M  V30 5035 H 496.365 -3.1699 0.786441 0
M  V30 5036 H 495.024 -2.39687 2.77391 0
M  V30 5037 H 494.672 -4.68562 1.82917 0
M  V30 5038 H 494.372 -4.6557 3.58494 0
M  V30 5039 H 495.896 -5.34327 2.95512 0
M  V30 5040 H 497.31 -3.62538 4.44116 0
M  V30 5041 H 495.707 -3.17549 5.09198 0
M  V30 5042 H 496.777 -1.91332 4.45556 0
M  V30 5043 N 498.12 -1.38341 -0.754957 0
M  V30 5044 C 499.083 -1.35262 -1.85032 0
M  V30 5045 C 500.083 -0.253393 -1.58791 0
M  V30 5046 O 501.273 -0.510205 -1.66561 0
M  V30 5047 C 498.405 -1.10544 -3.22479 0
M  V30 5048 H 499.598 -2.32712 -1.8917 0
M  V30 5049 H 497.151 -1.23614 -0.956515 0
M  V30 5050 H 497.886 -0.136952 -3.24011 0
M  V30 5051 H 497.671 -1.90127 -3.4292 0
M  V30 5052 H 499.161 -1.11082 -4.02555 0
M  V30 5053 N 499.598 0.982988 -1.23187 0
M  V30 5054 C 500.828 1.75666 -1.08743 0
M  V30 5055 C 501.236 1.85662 0.364195 0
M  V30 5056 O 500.579 1.33317 1.26382 0
M  V30 5057 C 500.641 3.20144 -1.63549 0
M  V30 5058 C 500.305 3.33665 -3.12277 0
M  V30 5059 C 501.302 3.20194 -4.096 0
M  V30 5060 C 498.987 3.58397 -3.51933 0
M  V30 5061 C 500.981 3.31256 -5.44563 0
M  V30 5062 C 498.668 3.69098 -4.87042 0
M  V30 5063 C 499.666 3.55537 -5.83166 0
M  V30 5064 O 499.354 3.65864 -7.1582 0
M  V30 5065 H 499.086 0.558194 -0.381307 0
M  V30 5066 H 501.64 1.24387 -1.63454 0
M  V30 5067 H 499.87 3.72659 -1.03256 0
M  V30 5068 H 501.559 3.79262 -1.4462 0
M  V30 5069 H 502.325 3.00987 -3.80305 0
M  V30 5070 H 498.204 3.68025 -2.77631 0
M  V30 5071 H 501.748 3.20588 -6.19572 0
M  V30 5072 H 497.645 3.87814 -5.16014 0
M  V30 5073 H 498.413 3.82675 -7.23534 0
M  V30 5074 N 501.076 1.04316 1.18135 0
M  V30 5075 C 502.324 0.746542 1.87806 0
M  V30 5076 C 502.645 -0.728082 1.80898 0
M  V30 5077 O 501.915 -1.52554 1.22899 0
M  V30 5078 H 500.495 0.273157 0.695265 0
M  V30 5079 H 503.157 1.32044 1.43354 0
M  V30 5080 H 502.253 1.05362 2.93778 0
M  V30 5081 N 502.554 -1.34406 0.822964 0
M  V30 5082 C 503.784 -2.02214 0.423424 0
M  V30 5083 C 504.192 -1.62124 -0.975322 0
M  V30 5084 O 503.535 -0.822452 -1.6426 0
M  V30 5085 C 503.597 -3.56721 0.446107 0
M  V30 5086 C 503.261 -4.20136 1.79819 0
M  V30 5087 C 504.258 -4.4065 2.75904 0
M  V30 5088 C 501.943 -4.56906 2.08669 0
M  V30 5089 C 503.937 -4.9706 3.99012 0
M  V30 5090 C 501.624 -5.13026 3.32036 0
M  V30 5091 C 502.622 -5.33047 4.27024 0
M  V30 5092 O 502.31 -5.87979 5.48211 0
M  V30 5093 H 502.042 -0.654748 0.168169 0
M  V30 5094 H 504.596 -1.72659 1.11257 0
M  V30 5095 H 502.826 -3.85537 -0.299734 0
M  V30 5096 H 504.515 -4.05845 0.0666114 0
M  V30 5097 H 505.281 -4.12607 2.54912 0
M  V30 5098 H 501.16 -4.40626 1.35535 0
M  V30 5099 H 504.704 -5.12603 4.73164 0
M  V30 5100 H 500.601 -5.40498 3.52891 0
M  V30 5101 H 501.369 -6.06413 5.49732 0
M  V30 5102 N 504.032 -0.577932 -1.46621 0
M  V30 5103 C 504.995 0.147805 -2.28723 0
M  V30 5104 C 505.995 0.823325 -1.38123 0
M  V30 5105 O 507.185 0.676011 -1.60548 0
M  V30 5106 C 504.317 1.21853 -3.18378 0
M  V30 5107 H 505.51 -0.573654 -2.94362 0
M  V30 5108 H 503.063 -0.335703 -1.52652 0
M  V30 5109 H 503.798 1.97173 -2.57475 0
M  V30 5110 H 503.583 0.738714 -3.85078 0
M  V30 5111 H 505.073 1.72768 -3.80186 0
M  V30 5112 N 505.51 1.54411 -0.315457 0
M  V30 5113 C 506.442 2.21527 0.588067 0
M  V30 5114 C 507.455 1.21263 1.08624 0
M  V30 5115 O 508.644 1.47777 1.00121 0
M  V30 5116 C 505.744 2.85963 1.81875 0
M  V30 5117 C 504.917 4.12291 1.46063 0
M  V30 5118 C 503.976 4.60396 2.54799 0
M  V30 5119 O 503.002 5.25265 2.19283 0
M  V30 5120 N 504.204 4.33935 3.85591 0
M  V30 5121 H 506.969 2.99697 0.013414 0
M  V30 5122 H 504.53 1.61308 -0.138295 0
M  V30 5123 H 506.522 3.15071 2.53993 0
M  V30 5124 H 505.092 2.11548 2.30144 0
M  V30 5125 H 504.312 3.90036 0.571445 0
M  V30 5126 H 505.6 4.9452 1.19695 0
M  V30 5127 H 504.998 3.81996 4.17248 0
M  V30 5128 H 503.555 4.67718 4.53964 0
M  V30 5129 N 506.988 0.0434614 1.5754 0
M  V30 5130 C 508.265 -0.671479 1.83713 0
M  V30 5131 C 508.645 -1.89495 0.930315 0
M  V30 5132 O 507.993 -2.28498 -0.0105639 0
M  V30 5133 C 508.203 -1.0361 3.33266 0
M  V30 5134 C 509.551 -1.42167 4.00092 0
M  V30 5135 O 510.575 -1.12866 3.37846 0
M  V30 5136 O 509.434 -1.96817 5.09829 0
M  V30 5137 H 506.528 -0.330726 0.75799 0
M  V30 5138 H 509.074 0.0722373 1.69546 0
M  V30 5139 H 507.846 -0.165938 3.90948 0
M  V30 5140 H 507.469 -1.83751 3.52592 0
M  V30 5141 N 508.466 -1.55915 -0.229846 0
M  V30 5142 C 509.398 -1.88209 -1.30805 0
M  V30 5143 C 510.411 -0.769672 -1.43457 0
M  V30 5144 O 511.6 -1.04792 -1.44502 0
M  V30 5145 C 508.7 -2.06829 -2.68468 0
M  V30 5146 C 507.873 -3.37798 -2.77869 0
M  V30 5147 C 506.932 -3.45952 -3.96489 0
M  V30 5148 O 505.958 -4.19043 -3.85216 0
M  V30 5149 N 507.16 -2.76488 -5.10426 0
M  V30 5150 H 509.925 -2.81286 -1.03431 0
M  V30 5151 H 507.486 -1.5636 -0.41991 0
M  V30 5152 H 509.478 -2.09608 -3.46189 0
M  V30 5153 H 508.048 -1.20416 -2.88477 0
M  V30 5154 H 507.268 -3.4719 -1.86689 0
M  V30 5155 H 508.556 -4.24091 -2.81113 0
M  V30 5156 H 507.954 -2.16868 -5.2248 0
M  V30 5157 H 506.511 -2.84938 -5.8622 0
M  V30 5158 N 509.944 0.496216 -1.49584 0
M  V30 5159 C 510.854 1.62352 -1.69349 0
M  V30 5160 C 511.87 1.64184 -0.576147 0
M  V30 5161 O 513.046 1.82517 -0.85144 0
M  V30 5162 C 510.111 2.98698 -1.76013 0
M  V30 5163 C 509.172 3.07454 -2.99617 0
M  V30 5164 C 508.405 4.37296 -3.05953 0
M  V30 5165 O 508.628 5.2637 -2.19752 0
M  V30 5166 O 507.562 4.51124 -3.9846 0
M  V30 5167 H 511.388 1.48606 -2.64859 0
M  V30 5168 H 508.973 0.673022 -1.33382 0
M  V30 5169 H 510.855 3.79725 -1.82721 0
M  V30 5170 H 509.53 3.12696 -0.836828 0
M  V30 5171 H 508.437 2.25597 -2.98424 0
M  V30 5172 H 509.77 2.98385 -3.91443 0
M  V30 5173 N 511.423 1.38739 0.74761 0
M  V30 5174 C 512.834 1.31507 1.32524 0
M  V30 5175 C 513.185 -0.0263963 1.96182 0
M  V30 5176 O 512.31 -0.92849 1.95469 0
M  V30 5177 C 512.905 2.38162 2.40966 0
M  V30 5178 C 511.464 2.34489 2.94434 0
M  V30 5179 C 510.611 2.20712 1.67873 0
M  V30 5180 H 513.562 1.4901 0.546043 0
M  V30 5181 H 513.583 2.04222 3.21051 0
M  V30 5182 H 513.095 3.35783 1.94605 0
M  V30 5183 H 511.196 1.40467 3.45108 0
M  V30 5184 H 511.309 3.28861 3.48407 0
M  V30 5185 H 509.673 1.67667 1.91729 0
M  V30 5186 H 510.456 3.20285 1.23582 0
M  V30 5187 N 512.901 -0.976442 1.23707 0
M  V30 5188 C 514.178 -1.69296 0.979699 0
M  V30 5189 C 514.558 -2.0508 -0.500555 0
M  V30 5190 O 513.906 -1.74708 -1.47273 0
M  V30 5191 C 514.116 -2.93143 1.89389 0
M  V30 5192 C 515.464 -3.65572 2.15968 0
M  V30 5193 O 516.488 -3.03184 1.86971 0
M  V30 5194 O 515.347 -4.77859 2.65167 0
M  V30 5195 H 512.441 -0.739708 0.369812 0
M  V30 5196 H 514.987 -1.03131 1.34767 0
M  V30 5197 H 513.759 -2.63327 2.89439 0
M  V30 5198 H 513.382 -3.67044 1.52854 0
M  V30 5199 N 514.379 -1.04941 -1.1758 0
M  V30 5200 C 515.342 -0.652456 -2.19717 0
M  V30 5201 C 516.342 0.294745 -1.58076 0
M  V30 5202 O 517.532 0.0789579 -1.74021 0
M  V30 5203 C 514.664 0.0420712 -3.40874 0
M  V30 5204 H 515.857 -1.55642 -2.5635 0
M  V30 5205 H 513.41 -0.842995 -1.31618 0
M  V30 5206 H 514.145 0.95943 -3.09783 0
M  V30 5207 H 513.93 -0.638844 -3.86861 0
M  V30 5208 H 515.42 0.306 -4.16477 0
M  V30 5209 N 515.857 1.33968 -0.830081 0
M  V30 5210 C 517.273 1.51003 -0.516742 0
M  V30 5211 C 517.473 1.77286 0.957694 0
M  V30 5212 O 516.529 1.82797 1.74188 0
M  V30 5213 C 517.842 2.67036 -1.38247 0
M  V30 5214 C 519.39 2.80919 -1.38034 0
M  V30 5215 C 519.865 4.00004 -2.23071 0
M  V30 5216 N 521.356 4.07224 -2.20733 0
M  V30 5217 C 522.091 4.98541 -2.83275 0
M  V30 5218 N 521.587 5.95033 -3.54835 0
M  V30 5219 N 523.38 4.91469 -2.72791 0
M  V30 5220 H 515.531 1.15168 -1.78466 0
M  V30 5221 H 517.794 0.565443 -0.760906 0
M  V30 5222 H 517.5 2.54266 -2.42985 0
M  V30 5223 H 517.374 3.62226 -1.05225 0
M  V30 5224 H 519.761 2.93127 -0.340713 0
M  V30 5225 H 519.842 1.86517 -1.75057 0
M  V30 5226 H 519.486 3.88557 -3.27087 0
M  V30 5227 H 519.416 4.93634 -1.83394 0
M  V30 5228 H 521.907 3.38162 -1.68687 0
M  V30 5229 H 522.22 6.61357 -3.99784 0
M  V30 5230 H 520.565 5.95135 -3.58942 0
M  V30 5231 H 523.756 4.15048 -2.16456 0
M  V30 5232 H 523.929 5.62439 -3.21818 0
M  V30 5233 N 517.335 0.585699 1.46312 0
M  V30 5234 C 518.583 0.072278 2.01971 0
M  V30 5235 C 518.904 -1.29345 1.45928 0
M  V30 5236 O 518.174 -1.84973 0.645109 0
M  V30 5237 H 516.754 0.023729 0.746623 0
M  V30 5238 H 519.416 0.762155 1.7938 0
M  V30 5239 H 518.512 0.00552767 3.121 0
M  V30 5240 N 518.813 -1.54241 0.323641 0
M  V30 5241 C 520.229 -1.59574 -0.0290018 0
M  V30 5242 C 520.429 -1.34017 -1.50472 0
M  V30 5243 O 519.485 -1.12464 -2.26071 0
M  V30 5244 C 520.798 -2.98169 0.389295 0
M  V30 5245 C 522.346 -3.11148 0.339958 0
M  V30 5246 C 522.821 -4.5209 0.733418 0
M  V30 5247 N 524.312 -4.5808 0.686827 0
M  V30 5248 C 525.047 -5.65248 0.963464 0
M  V30 5249 N 524.543 -6.80355 1.30724 0
M  V30 5250 N 526.336 -5.55025 0.88902 0
M  V30 5251 H 518.487 -1.6911 1.28512 0
M  V30 5252 H 520.75 -0.790972 0.522558 0
M  V30 5253 H 520.456 -3.21871 1.41746 0
M  V30 5254 H 520.33 -3.76399 -0.245657 0
M  V30 5255 H 522.717 -2.87182 -0.679002 0
M  V30 5256 H 522.798 -2.35023 1.00985 0
M  V30 5257 H 522.442 -4.76788 1.75029 0
M  V30 5258 H 522.372 -5.26584 0.0412189 0
M  V30 5259 H 524.863 -3.75411 0.43298 0
M  V30 5260 H 525.176 -7.58029 1.5037 0
M  V30 5261 H 523.521 -6.81851 1.3455 0
M  V30 5262 H 526.712 -4.63977 0.619939 0
M  V30 5263 H 526.885 -6.38458 1.10797 0
M  V30 5264 N 520.291 -0.0518155 -1.57515 0
M  V30 5265 C 521.54 0.621286 -1.91893 0
M  V30 5266 C 521.853 1.71966 -0.932052 0
M  V30 5267 O 523.059 2.45096 -1.16791 0
M  V30 5268 C 521.515 1.15641 -3.40816 0
M  V30 5269 C 521.123 0.0901146 -4.47909 0
M  V30 5270 C 522.867 1.80472 -3.84227 0
M  V30 5271 C 520.774 0.638154 -5.87947 0
M  V30 5272 H 519.704 0.235835 -0.716169 0
M  V30 5273 H 522.355 -0.120809 -1.83102 0
M  V30 5274 H 520.737 1.95084 -3.44613 0
M  V30 5275 H 521.911 -0.683525 -4.55702 0
M  V30 5276 H 520.226 -0.460774 -4.13843 0
M  V30 5277 H 522.823 2.22471 -4.86221 0
M  V30 5278 H 523.166 2.65669 -3.20508 0
M  V30 5279 H 523.699 1.07683 -3.82948 0
M  V30 5280 H 520.438 -0.176202 -6.55263 0
M  V30 5281 H 519.958 1.37976 -5.83714 0
M  V30 5282 H 521.637 1.12085 -6.37217 0
M  V30 5283 N 521.769 1.56035 0.221574 0
M  V30 5284 C 523.185 1.49026 0.571271 0
M  V30 5285 C 523.385 0.746912 1.87146 0
M  V30 5286 O 522.441 0.286566 2.50869 0
M  V30 5287 C 523.754 2.93579 0.650522 0
M  V30 5288 C 525.302 3.04099 0.741151 0
M  V30 5289 C 525.777 4.5001 0.851747 0
M  V30 5290 N 527.268 4.54053 0.915968 0
M  V30 5291 C 528.003 5.64232 1.02125 0
M  V30 5292 N 527.499 6.84164 1.09049 0
M  V30 5293 N 529.292 5.52084 1.05639 0
M  V30 5294 H 521.443 2.02791 -0.63162 0
M  V30 5295 H 523.706 0.921736 -0.221602 0
M  V30 5296 H 523.412 3.50912 -0.235253 0
M  V30 5297 H 523.286 3.45476 1.51413 0
M  V30 5298 H 525.673 2.4683 1.61737 0
M  V30 5299 H 525.754 2.55371 -0.148128 0
M  V30 5300 H 525.398 5.07896 -0.0200117 0
M  V30 5301 H 525.328 4.96444 1.75644 0
M  V30 5302 H 527.819 3.67683 0.872782 0
M  V30 5303 H 528.132 7.63883 1.1706 0
M  V30 5304 H 526.477 6.86875 1.05962 0
M  V30 5305 H 529.668 4.57317 0.998953 0
M  V30 5306 H 529.841 6.37983 1.13498 0
M  V30 5307 N 523.247 -0.488276 1.49845 0
M  V30 5308 C 524.195 -1.60917 1.67954 0
M  V30 5309 C 525.189 -1.6038 0.54539 0
M  V30 5310 O 526.395 -1.64736 0.7254 0
M  V30 5311 H 522.77 -0.533658 0.529824 0
M  V30 5312 H 524.741 -1.428 2.62013 0
M  V30 5313 C 523.49 -2.98975 1.77509 0
M  V30 5314 H 522.813 -3.00099 2.6416 0
M  V30 5315 H 524.253 -3.76906 1.9421 0
M  V30 5316 C 522.712 -3.3282 0.522745 0
M  V30 5317 O 523.242 -4.00208 -0.345866 0
M  V30 5318 N 521.448 -2.8808 0.381882 0
M  V30 5319 H 520.995 -2.33415 1.08974 0
M  V30 5320 H 520.953 -3.11091 -0.454929 0
M  V30 5321 N 524.725 -1.39134 -0.740242 0
M  V30 5322 C 525.973 -1.35803 -1.49673 0
M  V30 5323 C 526.294 0.0470897 -1.94943 0
M  V30 5324 O 525.564 0.997347 -1.68611 0
M  V30 5325 H 524.144 -0.499736 -0.555224 0
M  V30 5326 H 526.806 -1.73947 -0.879107 0
M  V30 5327 H 525.902 -2.0174 -2.38133 0
M  V30 5328 N 526.204 0.969867 -1.24223 0
M  V30 5329 C 527.167 2.04564 -1.03373 0
M  V30 5330 C 528.167 1.60798 0.00819206 0
M  V30 5331 O 529.357 1.72641 -0.232567 0
M  V30 5332 C 526.489 3.36163 -0.566343 0
M  V30 5333 H 527.682 2.24494 -1.98853 0
M  V30 5334 H 525.235 1.1448 -1.06415 0
M  V30 5335 H 525.97 3.21925 0.391751 0
M  V30 5336 H 525.755 3.69273 -1.31834 0
M  V30 5337 H 527.245 4.1526 -0.441435 0
M  V30 5338 N 527.682 1.05563 1.17022 0
M  V30 5339 C 528.612 0.681026 2.23348 0
M  V30 5340 C 529.593 -0.322983 1.67005 0
M  V30 5341 O 530.778 -0.199746 1.9317 0
M  V30 5342 C 527.908 0.0589053 3.4725 0
M  V30 5343 C 526.862 0.988082 4.16438 0
M  V30 5344 C 526.188 0.229646 5.34207 0
M  V30 5345 C 527.488 2.31388 4.68249 0
M  V30 5346 H 529.182 1.56993 2.54938 0
M  V30 5347 H 526.728 0.756302 1.2254 0
M  V30 5348 H 528.681 -0.214982 4.20851 0
M  V30 5349 H 527.405 -0.864968 3.14938 0
M  V30 5350 H 526.064 1.24659 3.44754 0
M  V30 5351 H 525.712 -0.697111 4.98146 0
M  V30 5352 H 525.412 0.848815 5.81437 0
M  V30 5353 H 526.936 -0.0368694 6.10589 0
M  V30 5354 H 528.35 2.09964 5.33468 0
M  V30 5355 H 526.747 2.88736 5.26072 0
M  V30 5356 H 527.817 2.94982 3.84855 0
M  V30 5357 N 529.16 -1.33526 0.837174 0
M  V30 5358 C 530.09 -2.31764 0.284206 0
M  V30 5359 C 531.071 -1.58896 -0.607142 0
M  V30 5360 O 532.256 -1.86798 -0.531047 0
M  V30 5361 C 529.386 -3.43029 -0.542962 0
M  V30 5362 C 528.34 -4.27255 0.252451 0
M  V30 5363 C 527.666 -5.3012 -0.69836 0
M  V30 5364 C 528.966 -5.01229 1.46858 0
M  V30 5365 H 530.66 -2.78262 1.10502 0
M  V30 5366 H 528.206 -1.3378 0.532812 0
M  V30 5367 H 530.159 -4.1078 -0.940096 0
M  V30 5368 H 528.883 -2.95216 -1.39697 0
M  V30 5369 H 527.542 -3.61127 0.631124 0
M  V30 5370 H 527.19 -4.78564 -1.54872 0
M  V30 5371 H 526.89 -5.87353 -0.170274 0
M  V30 5372 H 528.414 -6.00737 -1.09305 0
M  V30 5373 H 529.828 -5.61756 1.14469 0
M  V30 5374 H 528.225 -5.68104 1.93333 0
M  V30 5375 H 529.295 -4.301 2.23924 0
M  V30 5376 N 530.638 -0.59345 -1.46 0
M  V30 5377 C 532.054 -0.255965 -1.57534 0
M  V30 5378 C 532.254 1.24167 -1.58697 0
M  V30 5379 O 531.31 2.02398 -1.50968 0
M  V30 5380 C 532.623 -0.91466 -2.86451 0
M  V30 5381 C 534.171 -0.889253 -3.00102 0
M  V30 5382 C 534.646 -1.52769 -4.3177 0
M  V30 5383 N 536.137 -1.49253 -4.38495 0
M  V30 5384 C 536.872 -1.9558 -5.39014 0
M  V30 5385 N 536.368 -2.49929 -6.46148 0
M  V30 5386 N 538.161 -1.86432 -5.30282 0
M  V30 5387 H 530.312 -1.56604 -1.43489 0
M  V30 5388 H 532.575 -0.655207 -0.685133 0
M  V30 5389 H 532.281 -1.96861 -2.91442 0
M  V30 5390 H 532.155 -0.429356 -3.74748 0
M  V30 5391 H 534.542 0.156111 -2.94687 0
M  V30 5392 H 534.623 -1.41268 -2.13253 0
M  V30 5393 H 534.267 -2.57231 -4.37944 0
M  V30 5394 H 534.197 -0.979398 -5.17412 0
M  V30 5395 H 536.688 -1.09536 -3.61677 0
M  V30 5396 H 537.001 -2.83109 -7.19075 0
M  V30 5397 H 535.346 -2.53961 -6.46938 0
M  V30 5398 H 538.537 -1.43722 -4.4549 0
M  V30 5399 H 538.71 -2.22852 -6.08474 0
M  V30 5400 N 532.116 1.54067 -0.331816 0
M  V30 5401 C 533.362 2.01012 0.268667 0
M  V30 5402 C 533.695 1.2195 1.51136 0
M  V30 5403 O 532.97 0.303972 1.9211 0
M  V30 5404 C 533.253 3.55158 0.59456 0
M  V30 5405 C 533.106 4.4494 -0.659409 0
M  V30 5406 C 534.425 4.16939 1.4089 0
M  V30 5407 H 531.544 0.730698 0.0961756 0
M  V30 5408 H 534.186 1.84593 -0.450031 0
M  V30 5409 H 532.336 3.6928 1.20685 0
M  V30 5410 H 534.008 4.42675 -1.29756 0
M  V30 5411 H 532.251 4.1428 -1.28665 0
M  V30 5412 H 532.922 5.50643 -0.386804 0
M  V30 5413 H 535.398 4.06443 0.891272 0
M  V30 5414 H 534.274 5.24889 1.60569 0
M  V30 5415 H 534.535 3.70798 2.40752 0
M  V30 5416 N 533.594 0.0601682 1.57485 0
M  V30 5417 C 534.824 -0.620037 1.97076 0
M  V30 5418 C 535.232 -1.64381 0.936784 0
M  V30 5419 O 534.575 -1.83497 -0.0863377 0
M  V30 5420 C 534.637 -1.35617 3.32939 0
M  V30 5421 C 534.301 -0.487208 4.54396 0
M  V30 5422 C 535.298 0.250428 5.19297 0
M  V30 5423 C 532.983 -0.415494 5.00579 0
M  V30 5424 C 534.977 1.04812 6.28723 0
M  V30 5425 C 532.664 0.385879 6.0988 0
M  V30 5426 C 533.662 1.11637 6.73815 0
M  V30 5427 O 533.35 1.90454 7.81014 0
M  V30 5428 H 533.082 -0.173664 0.653312 0
M  V30 5429 H 535.636 0.1256 2.05016 0
M  V30 5430 H 533.866 -2.14763 3.2158 0
M  V30 5431 H 535.555 -1.92749 3.57215 0
M  V30 5432 H 536.321 0.204546 4.84568 0
M  V30 5433 H 532.2 -0.973679 4.506 0
M  V30 5434 H 535.744 1.6188 6.78558 0
M  V30 5435 H 531.641 0.433366 6.44044 0
M  V30 5436 H 532.409 1.82762 7.97835 0
M  V30 5437 N 535.072 -1.5615 -0.213296 0
M  V30 5438 C 536.318 -1.79812 -0.937849 0
M  V30 5439 C 536.651 -0.631201 -1.83656 0
M  V30 5440 O 535.926 0.369165 -1.90964 0
M  V30 5441 C 536.209 -3.13613 -1.76972 0
M  V30 5442 C 536.062 -4.40766 -0.89695 0
M  V30 5443 C 537.381 -3.43931 -2.7459 0
M  V30 5444 H 534.5 -0.654138 -0.339518 0
M  V30 5445 H 537.142 -1.88877 -0.20623 0
M  V30 5446 H 535.292 -3.06015 -2.39347 0
M  V30 5447 H 536.964 -4.60392 -0.289306 0
M  V30 5448 H 535.207 -4.33326 -0.202756 0
M  V30 5449 H 535.878 -5.30843 -1.51358 0
M  V30 5450 H 538.354 -3.5171 -2.22349 0
M  V30 5451 H 537.23 -4.38706 -3.29891 0
M  V30 5452 H 537.491 -2.6651 -3.52739 0
M  V30 5453 N 536.55 0.480323 -1.50102 0
M  V30 5454 C 537.961 1.06142 -1.53593 0
M  V30 5455 C 538.312 1.93335 -0.334055 0
M  V30 5456 O 537.437 2.09188 0.55403 0
M  V30 5457 C 538.032 1.9317 -2.78336 0
M  V30 5458 C 536.591 2.46405 -2.84538 0
M  V30 5459 C 535.738 1.24521 -2.4777 0
M  V30 5460 H 538.689 0.26333 -1.565 0
M  V30 5461 H 538.71 2.78123 -2.59669 0
M  V30 5462 H 538.222 1.29683 -3.65792 0
M  V30 5463 H 536.323 3.13472 -2.01411 0
M  V30 5464 H 536.436 2.82143 -3.87211 0
M  V30 5465 H 534.8 1.57706 -2.00003 0
M  V30 5466 H 535.583 0.627102 -3.37524 0
M  V30 5467 N 538.028 1.39524 0.732853 0
M  V30 5468 C 539.444 1.21176 1.03868 0
M  V30 5469 C 539.644 0.0748448 2.01361 0
M  V30 5470 O 538.7 -0.57281 2.45917 0
M  V30 5471 C 540.013 2.54667 1.59892 0
M  V30 5472 C 541.561 2.6153 1.71962 0
M  V30 5473 C 542.036 3.95248 2.31394 0
M  V30 5474 N 543.527 3.96899 2.38801 0
M  V30 5475 C 544.262 4.97138 2.85729 0
M  V30 5476 N 543.758 6.07775 3.32537 0
M  V30 5477 N 545.551 4.84516 2.84957 0
M  V30 5478 H 537.702 2.12225 0.086304 0
M  V30 5479 H 539.965 0.942614 0.100907 0
M  V30 5480 H 539.671 3.38423 0.95721 0
M  V30 5481 H 539.545 2.74538 2.58668 0
M  V30 5482 H 541.932 1.78156 2.35254 0
M  V30 5483 H 542.013 2.45507 0.718327 0
M  V30 5484 H 541.657 4.79054 1.68729 0
M  V30 5485 H 541.587 4.08593 3.32204 0
M  V30 5486 H 544.078 3.16998 2.05719 0
M  V30 5487 H 544.391 6.8017 3.66862 0
M  V30 5488 H 542.736 6.11366 3.30541 0
M  V30 5489 H 545.927 3.97185 2.47713 0
M  V30 5490 H 546.1 5.62783 3.21215 0
M  V30 5491 N 539.506 -0.963266 1.24736 0
M  V30 5492 C 540.731 -1.74699 1.11781 0
M  V30 5493 C 541.156 -1.85267 -0.325258 0
M  V30 5494 O 540.514 -1.32681 -1.23553 0
M  V30 5495 C 540.562 -3.14322 1.76731 0
M  V30 5496 O 539.666 -3.99043 1.04109 0
M  V30 5497 H 539.007 -0.53684 0.390767 0
M  V30 5498 H 541.537 -1.20801 1.65131 0
M  V30 5499 H 541.547 -3.64824 1.82668 0
M  V30 5500 H 540.222 -3.05946 2.81726 0
M  V30 5501 H 538.799 -3.5752 1.05991 0
M  V30 5502 N 540.985 -1.06182 -1.16461 0
M  V30 5503 C 542.21 -0.798599 -1.91408 0
M  V30 5504 C 542.635 0.640987 -1.76842 0
M  V30 5505 O 541.993 1.44652 -1.09296 0
M  V30 5506 C 542.041 -1.19665 -3.40165 0
M  V30 5507 O 541.145 -0.334768 -4.11039 0
M  V30 5508 H 540.486 -0.291961 -0.596368 0
M  V30 5509 H 543.016 -1.41732 -1.47557 0
M  V30 5510 H 543.026 -1.16772 -3.90933 0
M  V30 5511 H 541.701 -2.24526 -3.50087 0
M  V30 5512 H 540.278 -0.425168 -3.70468 0
M  V30 5513 N 542.463 1.3308 -0.844243 0
M  V30 5514 C 543.393 2.3161 -0.296493 0
M  V30 5515 C 544.374 1.59215 0.598707 0
M  V30 5516 O 545.559 1.87077 0.521134 0
M  V30 5517 C 542.689 3.43313 0.524762 0
M  V30 5518 C 541.643 4.27115 -0.275106 0
M  V30 5519 C 540.969 5.30483 0.670236 0
M  V30 5520 C 542.269 5.00443 -1.49514 0
M  V30 5521 H 543.963 2.77672 -1.11976 0
M  V30 5522 H 541.509 1.33496 -0.539899 0
M  V30 5523 H 543.462 4.11273 0.918298 0
M  V30 5524 H 542.186 2.95952 1.3813 0
M  V30 5525 H 540.845 3.60787 -0.650267 0
M  V30 5526 H 540.493 4.79379 1.52332 0
M  V30 5527 H 540.193 5.87435 0.139123 0
M  V30 5528 H 541.717 6.01308 1.06117 0
M  V30 5529 H 543.131 5.61141 -1.17447 0
M  V30 5530 H 541.528 5.67071 -1.96343 0
M  V30 5531 H 542.598 4.28906 -2.26202 0
M  V30 5532 N 543.941 0.601185 1.45683 0
M  V30 5533 C 545.352 0.179659 1.85834 0
M  V30 5534 C 545.703 -1.26189 1.50236 0
M  V30 5535 O 544.828 -1.95587 0.925987 0
M  V30 5536 C 545.423 0.319277 3.37292 0
M  V30 5537 C 543.982 -0.0475092 3.7637 0
M  V30 5538 C 543.129 0.646692 2.69654 0
M  V30 5539 H 546.08 0.808268 1.36575 0
M  V30 5540 H 546.101 -0.4503 3.77826 0
M  V30 5541 H 545.613 1.36855 3.6317 0
M  V30 5542 H 543.714 -1.0962 3.5611 0
M  V30 5543 H 543.827 0.34168 4.7788 0
M  V30 5544 H 542.191 0.0849971 2.54558 0
M  V30 5545 H 542.974 1.69797 2.98369 0
M  V30 5546 N 545.419 -1.53889 0.339982 0
M  V30 5547 C 546.667 -2.00458 -0.257112 0
M  V30 5548 C 546.988 -1.22953 -1.51353 0
M  V30 5549 O 546.258 -0.335734 -1.93002 0
M  V30 5550 H 544.838 -0.740544 -0.0979965 0
M  V30 5551 H 547.5 -1.89386 0.460317 0
M  V30 5552 H 546.596 -3.08035 -0.502057 0
M  V30 5553 N 546.897 -0.0685191 -1.57451 0
M  V30 5554 C 548.144 0.601348 -1.93365 0
M  V30 5555 C 548.472 1.69816 -0.948294 0
M  V30 5556 O 547.727 1.95666 0.0366199 0
M  V30 5557 C 548.026 1.22051 -3.35914 0
M  V30 5558 C 547.692 0.250165 -4.50205 0
M  V30 5559 C 546.354 -0.0167954 -4.81197 0
M  V30 5560 C 548.706 -0.413867 -5.19554 0
M  V30 5561 C 546.034 -0.95493 -5.78876 0
M  V30 5562 C 548.386 -1.3403 -6.18238 0
M  V30 5563 C 547.05 -1.61576 -6.47649 0
M  V30 5564 H 546.32 0.220049 -0.707573 0
M  V30 5565 H 548.967 -0.138697 -1.90997 0
M  V30 5566 H 547.272 2.03622 -3.34732 0
M  V30 5567 H 548.969 1.74605 -3.6099 0
M  V30 5568 H 545.559 0.468421 -4.26033 0
M  V30 5569 H 549.743 -0.220733 -4.95809 0
M  V30 5570 H 544.999 -1.17563 -5.99991 0
M  V30 5571 H 549.173 -1.86081 -6.71079 0
M  V30 5572 H 546.8 -2.34431 -7.2315 0
M  V30 5573 N 548.375 1.56261 0.205012 0
M  V30 5574 C 549.605 1.83874 0.942018 0
M  V30 5575 C 550.013 0.647595 1.77772 0
M  V30 5576 O 549.356 -0.393098 1.79445 0
M  V30 5577 C 549.418 3.05453 1.89575 0
M  V30 5578 C 549.082 4.39772 1.24296 0
M  V30 5579 C 550.079 5.16133 0.624724 0
M  V30 5580 C 547.764 4.86504 1.24978 0
M  V30 5581 C 549.758 6.37396 0.0220117 0
M  V30 5582 C 547.445 6.07705 0.643232 0
M  V30 5583 C 548.443 6.82993 0.0304164 0
M  V30 5584 O 548.131 8.019 -0.566654 0
M  V30 5585 H 547.863 0.614896 0.280854 0
M  V30 5586 H 550.417 2.04215 0.220285 0
M  V30 5587 H 548.647 2.80972 2.65691 0
M  V30 5588 H 550.336 3.19797 2.4997 0
M  V30 5589 H 551.102 4.81127 0.611666 0
M  V30 5590 H 546.981 4.27865 1.71616 0
M  V30 5591 H 550.525 6.96102 -0.456926 0
M  V30 5592 H 546.422 6.42181 0.653759 0
M  V30 5593 H 547.19 8.17192 -0.462588 0
M  V30 5594 N 549.853 -0.472356 1.50355 0
M  V30 5595 C 551.269 -0.806001 1.37753 0
M  V30 5596 C 551.469 -1.968 0.432649 0
M  V30 5597 O 550.525 -2.52189 -0.12519 0
M  V30 5598 C 551.838 -1.11926 2.79093 0
M  V30 5599 C 553.386 -1.22579 2.87999 0
M  V30 5600 C 553.861 -1.57218 4.3017 0
M  V30 5601 N 555.352 -1.64212 4.33115 0
M  V30 5602 C 556.087 -1.92517 5.40116 0
M  V30 5603 N 555.583 -2.1885 6.57325 0
M  V30 5604 N 557.376 -1.94008 5.27558 0
M  V30 5605 H 549.527 0.293451 2.10363 0
M  V30 5606 H 551.79 0.0687672 0.945503 0
M  V30 5607 H 551.496 -0.338504 3.50067 0
M  V30 5608 H 551.37 -2.05577 3.16256 0
M  V30 5609 H 553.757 -1.99722 2.17245 0
M  V30 5610 H 553.838 -0.269107 2.54381 0
M  V30 5611 H 553.482 -0.806154 5.01461 0
M  V30 5612 H 553.412 -2.54034 4.61275 0
M  V30 5613 H 555.903 -1.45906 3.48597 0
M  V30 5614 H 556.216 -2.39718 7.3468 0
M  V30 5615 H 554.561 -2.16245 6.60502 0
M  V30 5616 H 557.752 -1.72931 4.34986 0
M  V30 5617 H 557.925 -2.15731 6.11035 0
M  V30 5618 N 551.331 -1.39911 -0.725443 0
M  V30 5619 C 552.559 -1.40949 -1.51463 0
M  V30 5620 C 552.974 -0.0065242 -1.88799 0
M  V30 5621 O 552.331 0.967163 -1.54765 0
M  V30 5622 C 552.382 -2.29119 -2.79619 0
M  V30 5623 O 552.103 -3.63952 -2.43866 0
M  V30 5624 C 553.604 -2.38642 -3.73584 0
M  V30 5625 H 550.824 -0.481091 -0.467752 0
M  V30 5626 H 553.368 -1.83843 -0.895651 0
M  V30 5627 H 551.523 -1.89612 -3.37826 0
M  V30 5628 H 551.937 -4.10677 -3.26258 0
M  V30 5629 H 553.411 -3.04563 -4.60375 0
M  V30 5630 H 553.888 -1.40846 -4.16004 0
M  V30 5631 H 554.494 -2.78659 -3.21293 0
M  V30 5632 N 552.809 0.956637 -1.25245 0
M  V30 5633 C 554.034 1.74104 -1.12706 0
M  V30 5634 C 554.459 1.85436 0.315429 0
M  V30 5635 O 553.817 1.33334 1.22848 0
M  V30 5636 C 553.865 3.1338 -1.78396 0
M  V30 5637 O 552.969 3.98485 -1.06224 0
M  V30 5638 H 552.31 0.53476 -0.393609 0
M  V30 5639 H 554.84 1.19924 -1.65769 0
M  V30 5640 H 554.85 3.6385 -1.846 0
M  V30 5641 H 553.525 3.04448 -2.83345 0
M  V30 5642 H 552.102 3.56952 -1.07886 0
M  V30 5643 N 554.287 1.06798 1.15896 0
M  V30 5644 C 555.217 0.704677 2.22613 0
M  V30 5645 C 556.198 -0.305252 1.67339 0
M  V30 5646 O 557.383 -0.179247 1.93371 0
M  V30 5647 C 554.513 0.0957325 3.47168 0
M  V30 5648 C 553.467 1.0322 4.15367 0
M  V30 5649 C 552.793 0.286293 5.33933 0
M  V30 5650 C 554.093 2.36341 4.65768 0
M  V30 5651 H 555.787 1.59688 2.53259 0
M  V30 5652 H 553.333 0.769257 1.21731 0
M  V30 5653 H 555.286 -0.170333 4.21056 0
M  V30 5654 H 554.01 -0.831516 3.15838 0
M  V30 5655 H 552.669 1.28309 3.43413 0
M  V30 5656 H 552.317 -0.644237 4.98857 0
M  V30 5657 H 552.017 0.910436 5.80504 0
M  V30 5658 H 553.541 0.0278938 6.10594 0
M  V30 5659 H 554.955 2.1561 5.31211 0
M  V30 5660 H 553.352 2.94299 5.2298 0
M  V30 5661 H 554.422 2.99047 3.81705 0
M  V30 5662 N 555.766 -1.3263 0.851289 0
M  V30 5663 C 556.994 -2.01563 0.466899 0
M  V30 5664 C 557.409 -1.63996 -0.935447 0
M  V30 5665 O 556.766 -0.85957 -1.6099 0
M  V30 5666 C 556.817 -3.56613 0.592433 0
M  V30 5667 O 556.538 -3.92828 1.93954 0
M  V30 5668 C 558.039 -4.42818 0.206612 0
M  V30 5669 H 555.259 -0.645307 0.183902 0
M  V30 5670 H 557.803 -1.69285 1.1473 0
M  V30 5671 H 555.958 -3.87379 -0.0401936 0
M  V30 5672 H 556.372 -4.87545 1.9339 0
M  V30 5673 H 557.846 -5.50918 0.345462 0
M  V30 5674 H 558.323 -4.30844 -0.85264 0
M  V30 5675 H 558.929 -4.17434 0.814176 0
M  V30 5676 N 557.244 -0.608902 -1.45362 0
M  V30 5677 C 558.174 0.0964526 -2.33301 0
M  V30 5678 C 559.155 0.857444 -1.46908 0
M  V30 5679 O 560.34 0.827735 -1.75676 0
M  V30 5680 C 557.47 1.09354 -3.29635 0
M  V30 5681 C 556.424 0.445676 -4.25673 0
M  V30 5682 C 555.75 1.5511 -5.11708 0
M  V30 5683 C 557.05 -0.633972 -5.18438 0
M  V30 5684 H 558.744 -0.637829 -2.92527 0
M  V30 5685 H 556.29 -0.308178 -1.40664 0
M  V30 5686 H 558.243 1.59556 -3.90025 0
M  V30 5687 H 556.967 1.85843 -2.6857 0
M  V30 5688 H 555.626 -0.0354897 -3.66583 0
M  V30 5689 H 555.274 2.30631 -4.4701 0
M  V30 5690 H 554.974 1.12311 -5.76767 0
M  V30 5691 H 556.498 2.05537 -5.74967 0
M  V30 5692 H 557.912 -0.215974 -5.72893 0
M  V30 5693 H 556.309 -0.983789 -5.91981 0
M  V30 5694 H 557.379 -1.51005 -4.60788 0
M  V30 5695 N 558.722 1.53707 -0.348139 0
M  V30 5696 C 559.685 2.23812 0.494058 0
M  V30 5697 C 560.685 1.23989 1.02388 0
M  V30 5698 O 561.875 1.48395 0.912396 0
M  V30 5699 C 559.007 2.96133 1.68872 0
M  V30 5700 H 560.2 2.99663 -0.119141 0
M  V30 5701 H 557.753 1.55983 -0.0995539 0
M  V30 5702 H 558.488 2.24481 2.34049 0
M  V30 5703 H 558.273 3.69357 1.31596 0
M  V30 5704 H 559.763 3.49475 2.28597 0
M  V30 5705 N 560.2 0.0768682 1.57412 0
M  V30 5706 C 561.163 -0.873949 2.11884 0
M  V30 5707 C 562.163 -1.22301 1.04398 0
M  V30 5708 O 563.353 -1.15545 1.30365 0
M  V30 5709 C 560.485 -2.17575 2.62438 0
M  V30 5710 H 561.678 -0.401278 2.97203 0
M  V30 5711 H 559.231 -0.171904 1.55352 0
M  V30 5712 H 559.966 -2.69368 1.80587 0
M  V30 5713 H 559.751 -1.93534 3.41009 0
M  V30 5714 H 561.241 -2.85631 3.04639 0
M  V30 5715 N 561.678 -1.56367 -0.196722 0
M  V30 5716 C 563.089 -1.70462 -0.761545 0
M  V30 5717 C 563.44 -0.683161 -1.83922 0
M  V30 5718 O 562.565 0.160753 -2.15802 0
M  V30 5719 C 563.16 -3.09057 -1.38814 0
M  V30 5720 C 561.719 -3.24922 -1.90007 0
M  V30 5721 C 560.866 -2.66412 -0.769399 0
M  V30 5722 H 563.817 -1.58675 0.0283263 0
M  V30 5723 H 563.838 -3.06296 -2.2575 0
M  V30 5724 H 563.35 -3.83378 -0.603559 0
M  V30 5725 H 561.451 -2.55514 -2.71189 0
M  V30 5726 H 561.564 -4.3241 -2.06297 0
M  V30 5727 H 559.928 -2.25546 -1.18326 0
M  V30 5728 H 560.711 -3.433 0.00291773 0
M  V30 5729 N 563.156 0.464375 -1.50603 0
M  V30 5730 C 564.066 1.58723 -1.72754 0
M  V30 5731 C 565.082 1.62925 -0.610844 0
M  V30 5732 O 566.258 1.8067 -0.889963 0
M  V30 5733 C 563.323 2.94897 -1.82309 0
M  V30 5734 C 562.384 3.0103 -3.06071 0
M  V30 5735 C 561.617 4.30708 -3.1516 0
M  V30 5736 O 561.84 5.2159 -2.30868 0
M  V30 5737 O 560.774 4.42571 -4.0794 0
M  V30 5738 H 564.6 1.42954 -2.67951 0
M  V30 5739 H 562.185 0.644579 -1.3478 0
M  V30 5740 H 564.067 3.75764 -1.90735 0
M  V30 5741 H 562.742 3.10851 -0.902967 0
M  V30 5742 H 561.649 2.19217 -3.03142 0
M  V30 5743 H 562.982 2.90014 -3.97684 0
M  V30 5744 N 564.634 1.40294 0.718013 0
M  V30 5745 C 565.597 1.4012 1.81381 0
M  V30 5746 C 566.597 0.295405 1.58063 0
M  V30 5747 O 567.787 0.554187 1.6515 0
M  V30 5748 C 564.919 1.19056 3.19435 0
M  V30 5749 H 566.112 2.37645 1.82933 0
M  V30 5750 H 563.665 1.26107 0.923405 0
M  V30 5751 H 564.4 0.222809 3.23534 0
M  V30 5752 H 564.185 1.99152 3.37758 0
M  V30 5753 H 565.675 1.21716 3.99468 0
M  V30 5754 N 566.112 -0.949982 1.2575 0
M  V30 5755 C 567.075 -2.02894 1.06615 0
M  V30 5756 C 568.075 -1.60791 0.0173905 0
M  V30 5757 O 569.265 -1.72249 0.260003 0
M  V30 5758 C 566.397 -3.35219 0.619751 0
M  V30 5759 H 567.59 -2.21302 2.02399 0
M  V30 5760 H 565.143 -1.12772 1.08223 0
M  V30 5761 H 565.878 -3.22508 -0.340486 0
M  V30 5762 H 565.663 -3.67129 1.37692 0
M  V30 5763 H 567.153 -4.14505 0.507443 0
M  V30 5764 N 567.59 -1.07411 -1.15328 0
M  V30 5765 C 568.838 -0.796073 -1.85761 0
M  V30 5766 C 569.159 0.679864 -1.82764 0
M  V30 5767 O 568.429 1.49242 -1.269 0
M  V30 5768 H 567.009 -0.291495 -0.687779 0
M  V30 5769 H 569.671 -1.35799 -1.39802 0
M  V30 5770 H 568.767 -1.13114 -2.90881 0
M  V30 5771 N 569.068 1.32177 -0.85831 0
M  V30 5772 C 569.978 2.32561 -0.308606 0
M  V30 5773 C 570.994 1.64209 0.575462 0
M  V30 5774 O 572.17 1.95719 0.474961 0
M  V30 5775 C 569.235 3.43207 0.490909 0
M  V30 5776 C 568.296 4.27243 -0.419733 0
M  V30 5777 C 567.529 5.32605 0.341719 0
M  V30 5778 O 567.752 5.48332 1.57125 0
M  V30 5779 O 566.686 6.0118 -0.294379 0
M  V30 5780 H 570.512 2.81477 -1.14037 0
M  V30 5781 H 568.097 1.35866 -0.621349 0
M  V30 5782 H 569.979 4.10677 0.944574 0
M  V30 5783 H 568.654 2.96474 1.29941 0
M  V30 5784 H 567.561 3.62569 -0.921652 0
M  V30 5785 H 568.894 4.7751 -1.19352 0
M  V30 5786 N 570.547 0.616602 1.45037 0
M  V30 5787 C 571.793 0.115501 2.02471 0
M  V30 5788 C 572.126 -1.25406 1.4828 0
M  V30 5789 O 571.401 -1.82922 0.661051 0
M  V30 5790 C 571.684 0.0863588 3.59996 0
M  V30 5791 C 571.537 1.48723 4.24501 0
M  V30 5792 C 572.856 -0.596762 4.36035 0
M  V30 5793 H 569.975 0.0434461 0.735718 0
M  V30 5794 H 572.617 0.7903 1.72784 0
M  V30 5795 H 570.767 -0.488277 3.85419 0
M  V30 5796 H 572.439 2.10964 4.10234 0
M  V30 5797 H 570.682 2.04534 3.82555 0
M  V30 5798 H 571.353 1.419 5.3345 0
M  V30 5799 H 573.829 -0.10824 4.15959 0
M  V30 5800 H 572.705 -0.586289 5.4576 0
M  V30 5801 H 572.966 -1.66451 4.09569 0
M  V30 5802 N 572.025 -1.5352 0.356285 0
M  V30 5803 C 572.935 -2.29151 -0.502712 0
M  V30 5804 C 573.951 -1.34753 -1.1008 0
M  V30 5805 O 575.127 -1.67803 -1.11374 0
M  V30 5806 C 572.192 -3.05911 -1.63154 0
M  V30 5807 C 571.253 -4.15958 -1.06194 0
M  V30 5808 C 570.486 -4.8905 -2.13696 0
M  V30 5809 O 570.709 -4.61919 -3.34645 0
M  V30 5810 O 569.643 -5.75202 -1.77275 0
M  V30 5811 H 573.469 -3.03492 0.112466 0
M  V30 5812 H 571.054 -1.4891 0.120942 0
M  V30 5813 H 572.936 -3.53874 -2.28804 0
M  V30 5814 H 571.611 -2.34415 -2.23229 0
M  V30 5815 H 570.518 -3.7227 -0.369603 0
M  V30 5816 H 571.851 -4.89593 -0.505872 0
M  V30 5817 N 573.503 -0.0852151 -1.57369 0
M  V30 5818 C 574.919 0.271436 -1.57275 0
M  V30 5819 C 575.119 1.69109 -1.09565 0
M  V30 5820 O 574.175 2.40549 -0.767611 0
M  V30 5821 C 575.488 0.0688638 -3.00621 0
M  V30 5822 C 577.036 0.137373 -3.12698 0
M  V30 5823 C 577.511 -0.0370832 -4.57985 0
M  V30 5824 N 579.002 0.0180794 -4.63196 0
M  V30 5825 C 579.737 -0.0922953 -5.73326 0
M  V30 5826 N 579.233 -0.256948 -6.92323 0
M  V30 5827 N 581.026 -0.0342702 -5.6209 0
M  V30 5828 H 573.177 -1.01288 -1.86693 0
M  V30 5829 H 575.44 -0.396138 -0.861266 0
M  V30 5830 H 575.146 -0.911277 -3.39689 0
M  V30 5831 H 575.02 0.815442 -3.6828 0
M  V30 5832 H 577.407 1.10801 -2.73509 0
M  V30 5833 H 577.488 -0.640532 -2.47651 0
M  V30 5834 H 577.132 -1.00455 -4.97867 0
M  V30 5835 H 577.062 0.760392 -5.21081 0
M  V30 5836 H 579.553 0.143202 -3.77629 0
M  V30 5837 H 579.866 -0.332949 -7.72082 0
M  V30 5838 H 578.211 -0.292487 -6.94384 0
M  V30 5839 H 581.402 0.0931605 -4.68007 0
M  V30 5840 H 581.575 -0.12374 -6.47882 0
M  V30 5841 N 574.981 1.5647 0.188427 0
M  V30 5842 C 575.911 1.98101 1.23606 0
M  V30 5843 C 576.892 0.853961 1.47111 0
M  V30 5844 O 578.077 1.11879 1.58735 0
M  V30 5845 C 575.207 2.32624 2.57882 0
M  V30 5846 C 574.161 3.48129 2.48978 0
M  V30 5847 C 573.487 3.68347 3.87588 0
M  V30 5848 C 574.787 4.82112 2.00911 0
M  V30 5849 H 576.481 2.85864 0.890068 0
M  V30 5850 H 574.027 1.37532 0.426714 0
M  V30 5851 H 575.98 2.60343 3.3136 0
M  V30 5852 H 574.704 1.41751 2.94235 0
M  V30 5853 H 573.363 3.20511 1.77956 0
M  V30 5854 H 573.011 2.74793 4.21305 0
M  V30 5855 H 572.711 4.46055 3.82503 0
M  V30 5856 H 574.235 3.98449 4.62678 0
M  V30 5857 H 575.649 5.08819 2.64151 0
M  V30 5858 H 574.046 5.63337 2.06814 0
M  V30 5859 H 575.116 4.75249 0.96262 0
M  V30 5860 N 576.459 -0.456382 1.50847 0
M  V30 5861 C 577.708 -1.2042 1.61808 0
M  V30 5862 C 578.021 -1.9278 0.330932 0
M  V30 5863 O 579.227 -2.69612 0.319643 0
M  V30 5864 C 577.683 -2.18891 2.85683 0
M  V30 5865 C 577.291 -1.52267 4.2133 0
M  V30 5866 C 579.035 -2.94224 3.05994 0
M  V30 5867 C 576.942 -2.4911 5.36375 0
M  V30 5868 H 575.872 -0.453177 0.602616 0
M  V30 5869 H 578.523 -0.473144 1.77295 0
M  V30 5870 H 576.905 -2.95351 2.63787 0
M  V30 5871 H 578.079 -0.814949 4.53536 0
M  V30 5872 H 576.394 -0.891594 4.06743 0
M  V30 5873 H 578.991 -3.66732 3.89117 0
M  V30 5874 H 579.334 -3.54469 2.18306 0
M  V30 5875 H 579.867 -2.24874 3.28141 0
M  V30 5876 H 576.606 -1.93582 6.26264 0
M  V30 5877 H 576.126 -3.17991 5.08569 0
M  V30 5878 H 577.805 -3.10637 5.67551 0
M  V30 5879 N 577.937 -1.40673 -0.710563 0
M  V30 5880 C 579.185 -1.38947 -1.46759 0
M  V30 5881 C 579.506 0.00572879 -1.94999 0
M  V30 5882 O 578.776 0.961358 -1.70689 0
M  V30 5883 H 577.356 -0.5114 -0.544499 0
M  V30 5884 H 580.018 -1.75773 -0.842012 0
M  V30 5885 H 579.114 -2.06745 -2.33801 0
M  V30 5886 N 579.415 0.9433 -1.26252 0
M  V30 5887 C 580.365 2.02746 -1.04297 0
M  V30 5888 C 581.349 1.60882 0.0239435 0
M  V30 5889 O 582.541 1.75947 -0.192757 0
M  V30 5890 C 579.67 3.36585 -0.6757 0
M  V30 5891 C 578.756 3.84939 -1.77996 0
M  V30 5892 N 579.147 4.05966 -3.01704 0
M  V30 5893 C 577.445 4.13833 -1.66308 0
M  V30 5894 C 578.146 4.45987 -3.73458 0
M  V30 5895 N 577.122 4.52569 -3.01135 0
M  V30 5896 H 580.924 2.17012 -1.98199 0
M  V30 5897 H 578.438 1.12898 -1.16738 0
M  V30 5898 H 580.435 4.13896 -0.499571 0
M  V30 5899 H 579.095 3.2369 0.255863 0
M  V30 5900 H 580.106 3.92716 -3.37631 0
M  V30 5901 H 576.783 4.09739 -0.801267 0
M  V30 5902 H 578.173 4.70465 -4.79701 0
M  V30 5903 N 580.893 1.08022 1.14757 0
M  V30 5904 C 582.304 0.829144 1.67279 0
M  V30 5905 C 582.655 -0.644721 1.85305 0
M  V30 5906 O 581.78 -1.49838 1.56133 0
M  V30 5907 C 582.375 1.49855 3.03857 0
M  V30 5908 C 580.934 1.29482 3.53428 0
M  V30 5909 C 580.081 1.56386 2.28995 0
M  V30 5910 H 583.032 1.24134 0.988762 0
M  V30 5911 H 583.053 0.923572 3.69121 0
M  V30 5912 H 582.565 2.57123 2.90705 0
M  V30 5913 H 580.666 0.242669 3.71809 0
M  V30 5914 H 580.779 2.01974 4.34446 0
M  V30 5915 H 579.143 0.985217 2.34874 0
M  V30 5916 H 579.926 2.64851 2.18423 0
M  V30 5917 N 582.371 -1.3172 0.865308 0
M  V30 5918 C 583.301 -2.31109 0.333302 0
M  V30 5919 C 584.282 -1.60148 -0.573301 0
M  V30 5920 O 585.467 -1.87882 -0.491305 0
M  V30 5921 C 582.597 -3.44104 -0.470078 0
M  V30 5922 C 581.551 -4.26623 0.343021 0
M  V30 5923 C 580.877 -5.31482 -0.585756 0
M  V30 5924 C 582.177 -4.98001 1.57456 0
M  V30 5925 H 583.871 -2.75855 1.1638 0
M  V30 5926 H 581.417 -1.3262 0.561069 0
M  V30 5927 H 583.37 -4.12682 -0.852752 0
M  V30 5928 H 582.094 -2.98112 -1.33404 0
M  V30 5929 H 580.753 -3.59707 0.707583 0
M  V30 5930 H 580.401 -4.81741 -1.44686 0
M  V30 5931 H 580.101 -5.87582 -0.0456494 0
M  V30 5932 H 581.625 -6.0292 -0.965375 0
M  V30 5933 H 583.039 -5.59201 1.26359 0
M  V30 5934 H 581.436 -5.63876 2.05339 0
M  V30 5935 H 582.506 -4.25253 2.32997 0
M  V30 5936 N 583.85 -0.624285 -1.44708 0
M  V30 5937 C 585.26 -0.2092 -1.85524 0
M  V30 5938 C 585.611 1.23783 -1.52225 0
M  V30 5939 O 584.736 1.94089 -0.956986 0
M  V30 5940 C 585.332 -0.372897 -3.36742 0
M  V30 5941 C 583.891 -0.012374 -3.76398 0
M  V30 5942 C 583.038 -0.68951 -2.68591 0
M  V30 5943 H 585.989 -0.829894 -1.35272 0
M  V30 5944 H 586.01 0.390134 -3.78495 0
M  V30 5945 H 585.522 -1.42615 -3.60947 0
M  V30 5946 H 583.623 1.03941 -3.57809 0
M  V30 5947 H 583.736 -0.417663 -4.77276 0
M  V30 5948 H 582.1 -0.125484 -2.54391 0
M  V30 5949 H 582.883 -1.74522 -2.9563 0
M  V30 5950 N 585.328 1.53329 -0.364422 0
M  V30 5951 C 586.258 2.28627 0.474543 0
M  V30 5952 C 587.239 1.31009 1.08492 0
M  V30 5953 O 588.424 1.59878 1.10239 0
M  V30 5954 C 585.554 3.07465 1.61501 0
M  V30 5955 C 584.508 4.1276 1.13194 0
M  V30 5956 C 583.834 4.79674 2.36255 0
M  V30 5957 C 585.134 5.21847 0.217507 0
M  V30 5958 H 586.828 2.99005 -0.153656 0
M  V30 5959 H 584.374 1.43803 -0.0753406 0
M  V30 5960 H 586.327 3.58889 2.20855 0
M  V30 5961 H 585.051 2.34775 2.27042 0
M  V30 5962 H 583.71 3.62281 0.56109 0
M  V30 5963 H 583.358 4.03557 3.00251 0
M  V30 5964 H 583.058 5.50827 2.04606 0
M  V30 5965 H 584.582 5.33892 2.96297 0
M  V30 5966 H 585.996 5.6878 0.718493 0
M  V30 5967 H 584.393 6.00099 -0.00806408 0
M  V30 5968 H 585.463 4.7921 -0.740653 0
M  V30 5969 N 586.806 0.0935595 1.57322 0
M  V30 5970 C 588.222 -0.263091 1.57417 0
M  V30 5971 C 588.422 -1.68526 1.1046 0
M  V30 5972 O 587.478 -2.40139 0.780357 0
M  V30 5973 C 588.791 -0.0529201 3.00653 0
M  V30 5974 C 590.339 -0.120788 3.12767 0
M  V30 5975 C 590.814 0.0613707 4.57959 0
M  V30 5976 N 592.305 0.00648534 4.632 0
M  V30 5977 C 593.04 0.122699 5.73269 0
M  V30 5978 N 592.536 0.29366 6.92177 0
M  V30 5979 N 594.329 0.0640787 5.62063 0
M  V30 5980 H 586.48 1.02277 1.86154 0
M  V30 5981 H 588.743 0.4007 0.859153 0
M  V30 5982 H 588.449 0.929279 3.39201 0
M  V30 5983 H 588.323 -0.795899 3.68708 0
M  V30 5984 H 590.71 -1.09349 2.74093 0
M  V30 5985 H 590.791 0.653656 2.47307 0
M  V30 5986 H 590.435 1.03093 4.97327 0
M  V30 5987 H 590.365 -0.732748 5.21477 0
M  V30 5988 H 592.856 -0.123173 3.77699 0
M  V30 5989 H 593.169 0.37389 7.71895 0
M  V30 5990 H 591.514 0.329307 6.94219 0
M  V30 5991 H 594.705 -0.0683396 4.6805 0
M  V30 5992 H 594.878 0.158097 6.47807 0
M  V30 5993 N 588.284 -1.56567 -0.180126 0
M  V30 5994 C 589.214 -1.98753 -1.22553 0
M  V30 5995 C 590.195 -0.86175 -1.46656 0
M  V30 5996 O 591.38 -1.12719 -1.58139 0
M  V30 5997 C 588.51 -2.33988 -2.56645 0
M  V30 5998 C 587.464 -3.49445 -2.47128 0
M  V30 5999 C 586.79 -3.70397 -3.8563 0
M  V30 6000 C 588.09 -4.83171 -1.98352 0
M  V30 6001 H 589.784 -2.86332 -0.874896 0
M  V30 6002 H 587.33 -1.37757 -0.419414 0
M  V30 6003 H 589.283 -2.62097 -3.29974 0
M  V30 6004 H 588.007 -1.43309 -2.93479 0
M  V30 6005 H 586.666 -3.2145 -1.76254 0
M  V30 6006 H 586.314 -2.77023 -4.19842 0
M  V30 6007 H 586.014 -4.48077 -3.80132 0
M  V30 6008 H 587.538 -4.00897 -4.60558 0
M  V30 6009 H 588.952 -5.10213 -2.61449 0
M  V30 6010 H 587.349 -5.64425 -2.03823 0
M  V30 6011 H 588.419 -4.75753 -0.937402 0
M  V30 6012 N 589.762 0.448376 -1.51087 0
M  V30 6013 C 591.039 1.20926 -1.53741 0
M  V30 6014 C 591.419 2.09025 -0.295222 0
M  V30 6015 O 590.767 2.16851 0.720283 0
M  V30 6016 C 590.977 2.02067 -2.84552 0
M  V30 6017 C 592.325 2.59486 -3.36084 0
M  V30 6018 O 593.349 2.12289 -2.86028 0
M  V30 6019 O 592.208 3.45539 -4.23397 0
M  V30 6020 H 589.302 0.549951 -0.617643 0
M  V30 6021 H 591.848 0.458344 -1.63393 0
M  V30 6022 H 590.62 1.37291 -3.66425 0
M  V30 6023 H 590.243 2.84246 -2.78011 0
M  V30 6024 N 591.24 1.41047 0.703093 0
M  V30 6025 C 592.203 1.42036 1.79884 0
M  V30 6026 C 593.203 0.312153 1.57741 0
M  V30 6027 O 594.393 0.571672 1.64553 0
M  V30 6028 C 591.525 1.22437 3.18154 0
M  V30 6029 H 592.718 2.39572 1.80403 0
M  V30 6030 H 590.271 1.27079 0.909977 0
M  V30 6031 H 591.006 0.257112 3.23279 0
M  V30 6032 H 590.791 2.02723 3.35627 0
M  V30 6033 H 592.281 1.25946 3.98155 0
M  V30 6034 N 592.718 -0.936591 1.26751 0
M  V30 6035 C 593.967 -1.67778 1.11953 0
M  V30 6036 C 594.28 -1.92694 -0.33589 0
M  V30 6037 O 595.486 -2.64682 -0.604618 0
M  V30 6038 C 593.942 -3.02138 1.95551 0
M  V30 6039 C 593.55 -2.84953 3.45696 0
M  V30 6040 C 595.294 -3.79917 1.89377 0
M  V30 6041 C 593.201 -4.14814 4.21525 0
M  V30 6042 H 592.131 -0.629275 0.415366 0
M  V30 6043 H 594.782 -1.04122 1.51099 0
M  V30 6044 H 593.164 -3.668 1.49243 0
M  V30 6045 H 594.338 -2.29112 3.99805 0
M  V30 6046 H 592.653 -2.20612 3.53156 0
M  V30 6047 H 595.25 -4.76134 2.43312 0
M  V30 6048 H 595.593 -4.07204 0.865464 0
M  V30 6049 H 596.126 -3.22037 2.33532 0
M  V30 6050 H 592.865 -3.92709 5.24843 0
M  V30 6051 H 592.385 -4.70352 3.72195 0
M  V30 6052 H 594.064 -4.83239 4.3022 0
M  V30 6053 N 594.196 -1.08629 -1.14182 0
M  V30 6054 C 595.424 -0.838889 -1.8913 0
M  V30 6055 C 595.839 0.609153 -1.78703 0
M  V30 6056 O 595.196 1.41876 -1.14794 0
M  V30 6057 C 595.247 -1.25477 -3.39025 0
M  V30 6058 O 594.968 -2.64601 -3.49167 0
M  V30 6059 C 596.469 -1.03856 -4.30963 0
M  V30 6060 H 593.689 -0.302377 -0.599007 0
M  V30 6061 H 596.233 -1.44615 -1.44592 0
M  V30 6062 H 594.388 -0.691571 -3.81177 0
M  V30 6063 H 594.802 -2.81922 -4.42289 0
M  V30 6064 H 596.276 -1.37892 -5.345 0
M  V30 6065 H 596.753 0.0242522 -4.39193 0
M  V30 6066 H 597.359 -1.58731 -3.94569 0
M  V30 6067 N 595.674 1.31259 -0.872281 0
M  V30 6068 C 596.922 1.96233 -0.483409 0
M  V30 6069 C 597.243 1.69276 0.968012 0
M  V30 6070 O 596.513 1.00943 1.67891 0
M  V30 6071 H 595.093 0.726025 -0.175774 0
M  V30 6072 H 597.755 1.60024 -1.11258 0
M  V30 6073 H 596.851 3.05403 -0.643075 0
M  V30 6074 N 597.152 0.631951 1.44375 0
M  V30 6075 C 598.563 0.219036 1.85411 0
M  V30 6076 C 598.914 -1.22974 1.52879 0
M  V30 6077 O 598.039 -1.93579 0.967266 0
M  V30 6078 C 598.634 0.39075 3.36539 0
M  V30 6079 C 597.193 0.0323351 3.76386 0
M  V30 6080 C 596.34 0.703744 2.68221 0
M  V30 6081 H 599.291 0.837056 1.3483 0
M  V30 6082 H 599.312 -0.370056 3.78696 0
M  V30 6083 H 598.824 1.44527 3.60185 0
M  V30 6084 H 596.925 -1.02042 3.58355 0
M  V30 6085 H 597.038 0.442969 4.77048 0
M  V30 6086 H 595.402 0.138974 2.54321 0
M  V30 6087 H 596.185 1.76088 2.947 0
M  V30 6088 N 598.631 -1.53133 0.372548 0
M  V30 6089 C 599.541 -2.29671 -0.478379 0
M  V30 6090 C 600.557 -1.35913 -1.08644 0
M  V30 6091 O 601.733 -1.68975 -1.09588 0
M  V30 6092 C 598.798 -3.07625 -1.599 0
M  V30 6093 C 597.859 -4.17061 -1.01776 0
M  V30 6094 C 597.092 -4.91289 -2.08497 0
M  V30 6095 O 597.315 -4.65442 -3.29727 0
M  V30 6096 O 596.249 -5.7705 -1.71164 0
M  V30 6097 H 600.075 -3.03355 0.144649 0
M  V30 6098 H 597.66 -1.48773 0.136729 0
M  V30 6099 H 599.542 -3.56281 -2.25038 0
M  V30 6100 H 598.217 -2.3677 -2.2073 0
M  V30 6101 H 597.124 -3.72641 -0.330098 0
M  V30 6102 H 598.457 -4.90102 -0.453915 0
M  V30 6103 N 600.109 -0.101901 -1.5727 0
M  V30 6104 C 601.019 0.868647 -2.17926 0
M  V30 6105 C 602.035 1.30527 -1.1506 0
M  V30 6106 O 603.211 1.37178 -1.47459 0
M  V30 6107 C 600.276 2.10727 -2.75309 0
M  V30 6108 C 599.337 1.7242 -3.93154 0
M  V30 6109 C 598.57 2.90377 -4.47791 0
M  V30 6110 O 598.793 4.05305 -4.01353 0
M  V30 6111 O 597.727 2.6845 -5.38719 0
M  V30 6112 H 601.553 0.382544 -3.01281 0
M  V30 6113 H 599.138 0.122812 -1.48894 0
M  V30 6114 H 601.02 2.83303 -3.11958 0
M  V30 6115 H 599.695 2.58376 -1.94996 0
M  V30 6116 H 598.602 0.970039 -3.61305 0
M  V30 6117 H 599.935 1.29528 -4.74851 0
M  V30 6118 N 601.587 1.56661 0.17182 0
M  V30 6119 C 602.497 1.99604 1.2327 0
M  V30 6120 C 603.513 0.907333 1.4847 0
M  V30 6121 O 604.689 1.21492 1.60629 0
M  V30 6122 C 601.754 2.34685 2.55194 0
M  V30 6123 C 600.815 3.57381 2.3786 0
M  V30 6124 C 600.048 3.90779 3.63494 0
M  V30 6125 O 600.271 3.25152 4.6865 0
M  V30 6126 O 599.205 4.84129 3.57634 0
M  V30 6127 H 603.031 2.90114 0.898192 0
M  V30 6128 H 600.616 1.44522 0.378647 0
M  V30 6129 H 602.498 2.5822 3.33017 0
M  V30 6130 H 601.173 1.47336 2.88225 0
M  V30 6131 H 600.08 3.39064 1.5807 0
M  V30 6132 H 601.413 4.45268 2.09754 0
M  V30 6133 N 603.065 -0.440357 1.51323 0
M  V30 6134 C 604.313 -1.18769 1.63518 0
M  V30 6135 C 604.634 -1.91793 0.352201 0
M  V30 6136 O 603.904 -1.85432 -0.631811 0
M  V30 6137 H 602.484 -0.441408 0.602634 0
M  V30 6138 H 605.146 -0.505162 1.8824 0
M  V30 6139 H 604.242 -1.91892 2.46138 0
M  V30 6140 N 604.543 -1.41418 -0.695603 0
M  V30 6141 C 605.791 -1.40496 -1.45277 0
M  V30 6142 C 606.112 -0.0149538 -1.94994 0
M  V30 6143 O 605.382 0.9432 -1.71699 0
M  V30 6144 H 603.962 -0.517147 -0.539044 0
M  V30 6145 H 606.624 -1.76656 -0.823321 0
M  V30 6146 H 605.72 -2.09214 -2.31595 0
M  V30 6147 N 606.021 0.929856 -1.27246 0
M  V30 6148 C 607.437 1.20542 -1.04603 0
M  V30 6149 C 607.637 2.00276 0.221754 0
M  V30 6150 O 606.693 2.34835 0.927833 0
M  V30 6151 C 608.006 1.95566 -2.28417 0
M  V30 6152 C 609.554 2.08513 -2.33433 0
M  V30 6153 C 610.029 2.86943 -3.5697 0
M  V30 6154 N 611.52 2.94512 -3.57515 0
M  V30 6155 C 612.255 3.55656 -4.49774 0
M  V30 6156 N 611.751 4.18209 -5.52334 0
M  V30 6157 N 613.544 3.53038 -4.37402 0
M  V30 6158 H 605.695 0.397113 -2.08655 0
M  V30 6159 H 607.958 0.238277 -0.917566 0
M  V30 6160 H 607.664 1.44395 -3.20691 0
M  V30 6161 H 607.538 2.9619 -2.33563 0
M  V30 6162 H 609.925 2.58872 -1.41666 0
M  V30 6163 H 610.006 1.07117 -2.32292 0
M  V30 6164 H 609.65 2.37268 -4.49072 0
M  V30 6165 H 609.58 3.8862 -3.55362 0
M  V30 6166 H 612.071 2.50053 -2.83341 0
M  V30 6167 H 612.384 4.62796 -6.18902 0
M  V30 6168 H 610.729 4.16761 -5.56179 0
M  V30 6169 H 613.92 3.0337 -3.56489 0
M  V30 6170 H 614.093 4.004 -5.09493 0
M  V30 6171 N 607.499 1.09233 1.13605 0
M  V30 6172 C 608.429 0.751738 2.21068 0
M  V30 6173 C 609.41 -0.269688 1.67948 0
M  V30 6174 O 610.595 -0.13819 1.93708 0
M  V30 6175 C 607.725 0.16935 3.46887 0
M  V30 6176 C 606.679 1.12007 4.13084 0
M  V30 6177 C 606.005 0.399483 5.33206 0
M  V30 6178 C 607.305 2.46168 4.6065 0
M  V30 6179 H 608.999 1.65024 2.49815 0
M  V30 6180 H 606.545 0.794905 1.20072 0
M  V30 6181 H 608.498 -0.0809824 4.21322 0
M  V30 6182 H 607.222 -0.764335 3.1753 0
M  V30 6183 H 605.881 1.35564 3.40614 0
M  V30 6184 H 605.529 -0.538277 5.00112 0
M  V30 6185 H 605.229 1.03337 5.78442 0
M  V30 6186 H 606.753 0.157403 6.10397 0
M  V30 6187 H 608.167 2.26829 5.26518 0
M  V30 6188 H 606.564 3.05326 5.1662 0
M  V30 6189 H 607.634 3.07076 3.75276 0
M  V30 6190 N 608.977 -1.30795 0.87923 0
M  V30 6191 C 609.887 -2.32041 0.345565 0
M  V30 6192 C 610.903 -1.65103 -0.549265 0
M  V30 6193 O 612.079 -1.9645 -0.443763 0
M  V30 6194 C 609.144 -3.43944 -0.436245 0
M  V30 6195 C 608.205 -4.26521 0.48765 0
M  V30 6196 C 607.438 -5.33081 -0.256943 0
M  V30 6197 O 607.661 -5.50762 -1.48381 0
M  V30 6198 O 606.595 -6.00635 0.389985 0
M  V30 6199 H 610.421 -2.79627 1.18501 0
M  V30 6200 H 608.006 -1.3486 0.642885 0
M  V30 6201 H 609.888 -4.12128 -0.879119 0
M  V30 6202 H 608.563 -2.98504 -1.25208 0
M  V30 6203 H 607.47 -3.61057 0.979216 0
M  V30 6204 H 608.803 -4.75551 1.26933 0
M  V30 6205 N 610.455 -0.639598 -1.44038 0
M  V30 6206 C 611.683 -0.154811 -2.0632 0
M  V30 6207 C 612.098 1.17406 -1.47856 0
M  V30 6208 O 611.455 1.72193 -0.604638 0
M  V30 6209 C 611.506 -0.0429958 -3.61474 0
M  V30 6210 O 611.227 -1.31932 -4.17763 0
M  V30 6211 C 612.728 0.469486 -4.40807 0
M  V30 6212 H 609.948 -0.0835862 -0.665773 0
M  V30 6213 H 612.492 -0.876397 -1.84769 0
M  V30 6214 H 610.647 0.629075 -3.82258 0
M  V30 6215 H 611.061 -1.16965 -5.11292 0
M  V30 6216 H 612.535 0.496712 -5.49761 0
M  V30 6217 H 613.012 1.49819 -4.12857 0
M  V30 6218 H 613.618 -0.169624 -4.24962 0
M  V30 6219 N 611.933 1.52934 -0.380664 0
M  V30 6220 C 613.182 2.00651 0.205477 0
M  V30 6221 C 613.495 1.27164 1.48623 0
M  V30 6222 O 614.701 1.65547 2.15189 0
M  V30 6223 C 613.157 3.57479 0.416726 0
M  V30 6224 C 612.765 4.39857 -0.850268 0
M  V30 6225 C 614.509 4.13509 0.959702 0
M  V30 6226 C 612.416 5.88269 -0.607773 0
M  V30 6227 H 611.346 0.749684 0.0805614 0
M  V30 6228 H 613.997 1.76508 -0.501732 0
M  V30 6229 H 612.379 3.77836 1.18557 0
M  V30 6230 H 613.553 4.31269 -1.62307 0
M  V30 6231 H 611.868 3.95005 -1.31756 0
M  V30 6232 H 614.465 5.22039 1.15669 0
M  V30 6233 H 614.808 3.69054 1.92626 0
M  V30 6234 H 615.341 3.9701 0.250645 0
M  V30 6235 H 612.08 6.3703 -1.54509 0
M  V30 6236 H 611.6 5.99667 0.126247 0
M  V30 6237 H 613.279 6.46558 -0.239014 0
M  V30 6238 N 613.412 0.11024 1.57214 0
M  V30 6239 C 614.342 -0.840002 2.17867 0
M  V30 6240 C 615.323 -1.28352 1.11624 0
M  V30 6241 O 616.508 -1.3477 1.39824 0
M  V30 6242 C 613.638 -2.09349 2.77111 0
M  V30 6243 C 612.592 -1.78807 3.8886 0
M  V30 6244 C 611.918 -3.11112 4.34872 0
M  V30 6245 C 613.218 -1.0632 5.11364 0
M  V30 6246 H 614.912 -0.334608 2.97524 0
M  V30 6247 H 612.458 -0.159502 1.43114 0
M  V30 6248 H 614.411 -2.76275 3.18198 0
M  V30 6249 H 613.135 -2.62198 1.9473 0
M  V30 6250 H 611.794 -1.14273 3.48335 0
M  V30 6251 H 611.442 -3.61877 3.49362 0
M  V30 6252 H 611.142 -2.91453 5.10224 0
M  V30 6253 H 612.666 -3.79171 4.78604 0
M  V30 6254 H 614.08 -1.63383 5.49526 0
M  V30 6255 H 612.477 -0.967876 5.92243 0
M  V30 6256 H 613.547 -0.0484569 4.84876 0
M  V30 6257 N 614.89 -1.56749 -0.16351 0
M  V30 6258 C 616.138 -1.82074 -0.87713 0
M  V30 6259 C 616.459 -0.688503 -1.82441 0
M  V30 6260 O 615.729 0.291085 -1.93725 0
M  V30 6261 H 614.309 -0.671677 -0.326893 0
M  V30 6262 H 616.971 -1.9423 -0.161459 0
M  V30 6263 H 616.067 -2.76407 -1.44934 0
M  V30 6264 N 616.368 0.432326 -1.51554 0
M  V30 6265 C 617.614 1.17997 -1.65675 0
M  V30 6266 C 617.969 1.88794 -0.37076 0
M  V30 6267 O 617.262 1.80817 0.633692 0
M  V30 6268 C 617.456 2.21907 -2.80164 0
M  V30 6269 C 617.285 1.6131 -4.19773 0
M  V30 6270 C 616.055 1.39585 -4.85638 0
M  V30 6271 C 618.253 1.08659 -5.0269 0
M  V30 6272 N 616.235 0.746374 -6.09346 0
M  V30 6273 C 617.606 0.562685 -6.17441 0
M  V30 6274 C 619.661 0.978831 -4.88184 0
M  V30 6275 C 618.364 -0.0584015 -7.19276 0
M  V30 6276 C 620.39 0.371631 -5.90231 0
M  V30 6277 C 619.752 -0.141711 -7.04257 0
M  V30 6278 H 615.851 0.419277 -0.660099 0
M  V30 6279 H 618.435 0.475809 -1.88797 0
M  V30 6280 H 616.606 2.89706 -2.58698 0
M  V30 6281 H 618.338 2.88867 -2.8344 0
M  V30 6282 H 615.093 1.65897 -4.43593 0
M  V30 6283 H 615.517 0.438934 -6.75576 0
M  V30 6284 H 620.159 1.36157 -4.00276 0
M  V30 6285 H 617.877 -0.453262 -8.06828 0
M  V30 6286 H 621.463 0.290086 -5.81076 0
M  V30 6287 H 620.343 -0.60417 -7.81869 0
M  V30 6288 N 617.846 1.41785 0.688094 0
M  V30 6289 C 619.257 1.3701 1.26828 0
M  V30 6290 C 619.608 0.056835 1.96118 0
M  V30 6291 O 618.733 -0.84475 1.99231 0
M  V30 6292 C 619.328 2.48168 2.30648 0
M  V30 6293 C 617.887 2.46766 2.84224 0
M  V30 6294 C 617.034 2.27633 1.58361 0
M  V30 6295 H 619.985 1.51192 0.482351 0
M  V30 6296 H 620.006 2.17655 3.121 0
M  V30 6297 H 619.518 3.43735 1.80188 0
M  V30 6298 H 617.619 1.54978 3.3884 0
M  V30 6299 H 617.732 3.43342 3.34145 0
M  V30 6300 H 616.096 1.75648 1.84445 0
M  V30 6301 H 616.879 3.25238 1.09887 0
M  V30 6302 N 619.324 -0.923095 1.27737 0
M  V30 6303 C 620.254 -2.04124 1.13383 0
M  V30 6304 C 621.235 -1.70066 0.0340658 0
M  V30 6305 O 622.42 -1.93068 0.209383 0
M  V30 6306 C 619.55 -3.3831 0.785097 0
M  V30 6307 C 618.504 -3.86496 1.8386 0
M  V30 6308 C 617.83 -5.1754 1.34373 0
M  V30 6309 C 619.13 -4.09381 3.24353 0
M  V30 6310 H 620.824 -2.1639 2.06919 0
M  V30 6311 H 618.37 -1.03976 0.996243 0
M  V30 6312 H 620.323 -4.16016 0.671485 0
M  V30 6313 H 619.047 -3.2607 -0.185969 0
M  V30 6314 H 617.706 -3.10987 1.9412 0
M  V30 6315 H 617.354 -5.01696 0.361989 0
M  V30 6316 H 617.054 -5.50751 2.04811 0
M  V30 6317 H 618.578 -5.97811 1.24315 0
M  V30 6318 H 619.992 -4.77641 3.17067 0
M  V30 6319 H 618.389 -4.53906 3.92542 0
M  V30 6320 H 619.459 -3.14515 3.69064 0
M  V30 6321 N 620.802 -1.09834 -1.13024 0
M  V30 6322 C 621.765 -0.745058 -2.16752 0
M  V30 6323 C 622.765 0.227435 -1.59183 0
M  V30 6324 O 623.955 0.0050786 -1.74199 0
M  V30 6325 C 621.087 -0.102543 -3.40746 0
M  V30 6326 H 622.28 -1.66375 -2.49518 0
M  V30 6327 H 619.833 -0.898061 -1.27924 0
M  V30 6328 H 620.568 0.827177 -3.13573 0
M  V30 6329 H 620.353 -0.80235 -3.83803 0
M  V30 6330 H 621.843 0.129082 -4.174 0
M  V30 6331 N 622.28 1.30327 -0.886154 0
M  V30 6332 C 623.19 2.31854 -0.357866 0
M  V30 6333 C 624.206 1.65392 0.540502 0
M  V30 6334 O 625.382 1.96683 0.433339 0
M  V30 6335 C 622.447 3.44171 0.417999 0
M  V30 6336 C 621.508 4.26257 -0.510263 0
M  V30 6337 C 620.741 5.3321 0.228669 0
M  V30 6338 O 620.964 5.51542 1.45458 0
M  V30 6339 O 619.898 6.0042 -0.421832 0
M  V30 6340 H 623.724 2.78995 -1.19982 0
M  V30 6341 H 621.309 1.34518 -0.650028 0
M  V30 6342 H 623.191 4.12588 0.857251 0
M  V30 6343 H 621.866 2.99164 1.23623 0
M  V30 6344 H 620.773 3.60533 -0.99835 0
M  V30 6345 H 622.106 4.74871 -1.29454 0
M  V30 6346 N 623.758 0.647228 1.43697 0
M  V30 6347 C 625.174 0.314256 1.56476 0
M  V30 6348 C 625.374 -1.18191 1.63196 0
M  V30 6349 O 624.43 -1.96655 1.58376 0
M  V30 6350 C 625.743 1.02034 2.82859 0
M  V30 6351 C 627.291 1.00002 2.96595 0
M  V30 6352 C 627.766 1.68689 4.25803 0
M  V30 6353 N 629.257 1.65424 4.32654 0
M  V30 6354 C 629.992 2.1545 5.31384 0
M  V30 6355 N 629.488 2.73738 6.36427 0
M  V30 6356 N 631.281 2.05985 5.22998 0
M  V30 6357 H 623.432 1.61821 1.37578 0
M  V30 6358 H 625.695 0.680184 0.660344 0
M  V30 6359 H 625.401 2.07542 2.83935 0
M  V30 6360 H 625.275 0.568146 3.72897 0
M  V30 6361 H 627.662 -0.0466319 2.95063 0
M  V30 6362 H 627.743 1.49086 2.07863 0
M  V30 6363 H 627.387 2.73308 4.28095 0
M  V30 6364 H 627.317 1.17076 5.13421 0
M  V30 6365 H 629.808 1.22884 3.57363 0
M  V30 6366 H 630.121 3.09602 7.08072 0
M  V30 6367 H 628.466 2.77796 6.37067 0
M  V30 6368 H 631.657 1.60157 4.39849 0
M  V30 6369 H 631.83 2.45281 5.99784 0
M  V30 6370 N 625.236 -1.5273 0.388769 0
M  V30 6371 C 626.464 -2.05992 -0.193677 0
M  V30 6372 C 626.879 -1.26053 -1.40557 0
M  V30 6373 O 626.236 -0.307049 -1.79898 0
M  V30 6374 C 626.287 -3.57068 -0.564321 0
M  V30 6375 O 626.008 -4.3398 0.599422 0
M  V30 6376 C 627.509 -4.26674 -1.20269 0
M  V30 6377 H 624.729 -0.670358 -0.0293445 0
M  V30 6378 H 627.273 -1.96857 0.553844 0
M  V30 6379 H 625.428 -3.66277 -1.26174 0
M  V30 6380 H 625.842 -5.2367 0.294895 0
M  V30 6381 H 627.316 -5.33625 -1.4124 0
M  V30 6382 H 627.793 -3.81854 -2.16989 0
M  V30 6383 H 628.399 -4.2178 -0.546047 0
M  V30 6384 N 626.714 -0.118576 -1.57153 0
M  V30 6385 C 627.96 0.534078 -1.96263 0
M  V30 6386 C 628.315 1.64316 -1.0009 0
M  V30 6387 O 627.608 1.91575 -0.0308582 0
M  V30 6388 C 627.802 1.11303 -3.39627 0
M  V30 6389 C 627.631 0.0615624 -4.49658 0
M  V30 6390 C 626.401 -0.370103 -5.03943 0
M  V30 6391 C 628.599 -0.719249 -5.09246 0
M  V30 6392 N 626.581 -1.40738 -5.9755 0
M  V30 6393 C 627.952 -1.60774 -5.98792 0
M  V30 6394 C 630.007 -0.770183 -4.91907 0
M  V30 6395 C 628.71 -2.54272 -6.72858 0
M  V30 6396 C 630.736 -1.69288 -5.66653 0
M  V30 6397 C 630.098 -2.56894 -6.55885 0
M  V30 6398 H 626.197 0.165072 -0.764379 0
M  V30 6399 H 628.781 -0.206596 -1.93601 0
M  V30 6400 H 626.952 1.82342 -3.42937 0
M  V30 6401 H 628.684 1.72996 -3.65861 0
M  V30 6402 H 625.439 0.0222121 -4.73595 0
M  V30 6403 H 625.863 -1.92493 -6.49057 0
M  V30 6404 H 630.505 -0.106999 -4.22665 0
M  V30 6405 H 628.223 -3.21605 -7.41347 0
M  V30 6406 H 631.809 -1.73772 -5.55243 0
M  V30 6407 H 630.689 -3.27131 -7.1271 0
M  V30 6408 N 628.193 1.56834 0.155195 0
M  V30 6409 C 629.442 1.82088 0.867567 0
M  V30 6410 C 629.755 0.69849 1.82703 0
M  V30 6411 O 630.961 0.836407 2.58295 0
M  V30 6412 C 629.417 3.22707 1.59336 0
M  V30 6413 C 629.025 4.42859 0.676719 0
M  V30 6414 C 630.769 3.57242 2.293 0
M  V30 6415 C 628.676 5.74501 1.40367 0
M  V30 6416 H 627.606 0.679057 0.327715 0
M  V30 6417 H 630.257 1.83105 0.120351 0
M  V30 6418 H 628.639 3.16054 2.38591 0
M  V30 6419 H 629.813 4.60731 -0.0800196 0
M  V30 6420 H 628.128 4.16311 0.0859129 0
M  V30 6421 H 630.725 4.52847 2.84312 0
M  V30 6422 H 631.068 2.82901 3.05406 0
M  V30 6423 H 631.601 3.6552 1.56972 0
M  V30 6424 H 628.34 6.51915 0.684623 0
M  V30 6425 H 627.86 5.60579 2.13332 0
M  V30 6426 H 629.539 6.17016 1.94681 0
M  V30 6427 N 629.671 -0.424282 1.51781 0
M  V30 6428 C 631.082 -1.00368 1.57427 0
M  V30 6429 C 631.433 -1.91962 0.40558 0
M  V30 6430 O 630.558 -2.111 -0.47601 0
M  V30 6431 C 631.153 -1.82707 2.85313 0
M  V30 6432 C 629.712 -2.35675 2.93487 0
M  V30 6433 C 628.859 -1.1524 2.5222 0
M  V30 6434 H 631.81 -0.205064 1.5737 0
M  V30 6435 H 631.831 -2.68294 2.69812 0
M  V30 6436 H 631.343 -1.16017 3.70353 0
M  V30 6437 H 629.444 -3.05781 2.12906 0
M  V30 6438 H 629.557 -2.67578 3.97415 0
M  V30 6439 H 627.921 -1.50174 2.05718 0
M  V30 6440 H 628.704 -0.5014 3.39619 0
M  V30 6441 N 631.149 -1.42148 -0.680565 0
M  V30 6442 C 632.374 -1.45901 -1.47403 0
M  V30 6443 C 632.799 -0.0700985 -1.87969 0
M  V30 6444 O 632.157 0.930145 -1.55621 0
M  V30 6445 C 632.205 -2.38661 -2.70321 0
M  V30 6446 O 631.309 -1.85399 -3.68376 0
M  V30 6447 H 630.65 -0.494565 -0.443059 0
M  V30 6448 H 633.18 -1.86774 -0.835251 0
M  V30 6449 H 633.19 -2.55046 -3.18458 0
M  V30 6450 H 631.865 -3.39571 -2.40134 0
M  V30 6451 H 630.442 -1.78541 -3.2738 0
M  V30 6452 N 632.627 0.916307 -1.28225 0
M  V30 6453 C 633.59 1.99996 -1.11957 0
M  V30 6454 C 634.59 1.60688 -0.0600152 0
M  V30 6455 O 635.78 1.71499 -0.30558 0
M  V30 6456 C 632.912 3.33458 -0.708411 0
M  V30 6457 H 634.105 2.15858 -2.08196 0
M  V30 6458 H 631.658 1.09863 -1.11175 0
M  V30 6459 H 632.393 3.23297 0.254859 0
M  V30 6460 H 632.178 3.63349 -1.47377 0
M  V30 6461 H 633.668 4.13014 -0.617164 0
M  V30 6462 N 634.105 1.10431 1.1244 0
M  V30 6463 C 635.354 0.841539 1.83306 0
M  V30 6464 C 635.667 -0.634961 1.85007 0
M  V30 6465 O 636.873 -1.01363 2.51869 0
M  V30 6466 C 635.329 1.45565 3.29149 0
M  V30 6467 C 634.937 2.96544 3.35806 0
M  V30 6468 C 636.681 1.27227 4.04986 0
M  V30 6469 C 634.588 3.5099 4.75983 0
M  V30 6470 H 633.518 0.311156 0.686803 0
M  V30 6471 H 636.169 1.32829 1.26604 0
M  V30 6472 H 634.551 0.896574 3.85717 0
M  V30 6473 H 635.725 3.58766 2.89177 0
M  V30 6474 H 634.04 3.14036 2.73442 0
M  V30 6475 H 636.637 1.65348 5.08492 0
M  V30 6476 H 636.98 0.213834 4.1575 0
M  V30 6477 H 637.513 1.79941 3.54776 0
M  V30 6478 H 634.252 4.56499 4.70413 0
M  V30 6479 H 633.772 2.93535 5.23065 0
M  V30 6480 H 635.451 3.48808 5.44924 0
M  V30 6481 N 635.583 -1.29855 0.893053 0
M  V30 6482 C 636.994 -1.77946 0.564998 0
M  V30 6483 C 637.345 -1.73339 -0.919134 0
M  V30 6484 O 636.47 -1.3152 -1.71847 0
M  V30 6485 C 637.065 -3.23118 1.01883 0
M  V30 6486 C 635.624 -3.69013 0.742051 0
M  V30 6487 C 634.771 -2.50121 1.19727 0
M  V30 6488 H 637.722 -1.16611 1.07646 0
M  V30 6489 H 637.743 -3.78875 0.351249 0
M  V30 6490 H 637.255 -3.26439 2.09903 0
M  V30 6491 H 635.356 -3.71173 -0.325816 0
M  V30 6492 H 635.469 -4.60117 1.33527 0
M  V30 6493 H 633.833 -2.47128 0.616418 0
M  V30 6494 H 634.616 -2.56174 2.28538 0
M  V30 6495 N 637.061 -0.65484 -1.43351 0
M  V30 6496 C 638.289 -0.176685 -2.06144 0
M  V30 6497 C 638.704 1.15831 -1.49093 0
M  V30 6498 O 638.061 1.71542 -0.622868 0
M  V30 6499 C 638.112 -0.0813326 -3.61408 0
M  V30 6500 O 637.833 -1.36355 -4.1634 0
M  V30 6501 C 639.334 0.422706 -4.4128 0
M  V30 6502 H 636.554 -0.0906429 -0.66485 0
M  V30 6503 H 639.098 -0.895945 -1.83829 0
M  V30 6504 H 637.253 0.588496 -3.82904 0
M  V30 6505 H 637.667 -1.22381 -5.10023 0
M  V30 6506 H 639.141 0.438375 -5.50257 0
M  V30 6507 H 639.618 1.45432 -4.14423 0
M  V30 6508 H 640.224 -0.214687 -4.24758 0
M  V30 6509 N 638.539 1.52521 -0.396863 0
M  V30 6510 C 639.816 1.94112 0.240842 0
M  V30 6511 C 640.196 1.33288 1.637 0
M  V30 6512 O 639.544 0.503901 2.22875 0
M  V30 6513 C 639.754 3.48033 0.259567 0
M  V30 6514 C 641.102 4.21822 0.484866 0
M  V30 6515 O 642.126 3.54579 0.339453 0
M  V30 6516 O 640.985 5.41042 0.770412 0
M  V30 6517 H 638.079 0.812973 0.151671 0
M  V30 6518 H 640.625 1.63572 -0.451918 0
M  V30 6519 H 639.397 3.84655 -0.718078 0
M  V30 6520 H 639.02 3.84899 0.996937 0
M  V30 6521 N 640.017 0.126909 1.57088 0
M  V30 6522 C 641.428 -0.397201 1.82426 0
M  V30 6523 C 641.779 -1.66084 1.04453 0
M  V30 6524 O 640.904 -2.14534 0.283552 0
M  V30 6525 C 641.499 -0.727411 3.30899 0
M  V30 6526 C 640.058 -1.19612 3.56889 0
M  V30 6527 C 639.205 -0.20885 2.76512 0
M  V30 6528 H 642.156 0.351924 1.54749 0
M  V30 6529 H 642.177 -1.58407 3.45959 0
M  V30 6530 H 641.689 0.19247 3.87622 0
M  V30 6531 H 639.79 -2.13263 3.05532 0
M  V30 6532 H 639.903 -1.13598 4.65438 0
M  V30 6533 H 638.267 -0.697479 2.44964 0
M  V30 6534 H 639.05 0.704267 3.35998 0
M  V30 6535 N 641.495 -1.56914 -0.146875 0
M  V30 6536 C 642.911 -1.51582 -0.499518 0
M  V30 6537 C 643.111 -0.83535 -1.83369 0
M  V30 6538 O 642.167 -0.405932 -2.49216 0
M  V30 6539 C 643.48 -2.96349 -0.509711 0
M  V30 6540 C 645.028 -3.07288 -0.595217 0
M  V30 6541 C 645.503 -4.53562 -0.636071 0
M  V30 6542 N 646.994 -4.57906 -0.69829 0
M  V30 6543 C 647.729 -5.68462 -0.750886 0
M  V30 6544 N 647.225 -6.88588 -0.76282 0
M  V30 6545 N 649.018 -5.56496 -0.791777 0
M  V30 6546 H 641.169 -1.99547 0.727656 0
M  V30 6547 H 643.432 -0.910113 0.265327 0
M  V30 6548 H 643.138 -3.4939 0.402409 0
M  V30 6549 H 643.012 -3.52307 -1.34758 0
M  V30 6550 H 645.399 -2.54266 -1.49776 0
M  V30 6551 H 645.48 -2.54373 0.2698 0
M  V30 6552 H 645.124 -5.07222 0.262313 0
M  V30 6553 H 645.054 -5.04259 -1.51758 0
M  V30 6554 H 647.545 -3.71429 -0.696362 0
M  V30 6555 H 647.858 -7.68598 -0.804804 0
M  V30 6556 H 646.203 -6.91148 -0.730694 0
M  V30 6557 H 649.394 -4.61562 -0.779624 0
M  V30 6558 H 649.567 -6.42671 -0.829301 0
M  V30 6559 N 642.974 0.416227 -1.52004 0
M  V30 6560 C 643.922 1.5272 -1.7544 0
M  V30 6561 C 644.916 1.57596 -0.621289 0
M  V30 6562 O 646.122 1.61087 -0.803172 0
M  V30 6563 H 642.497 0.507772 -0.554682 0
M  V30 6564 H 644.468 1.30136 -2.68528 0
M  V30 6565 C 643.217 2.90165 -1.91571 0
M  V30 6566 H 642.54 2.87154 -2.78178 0
M  V30 6567 H 643.98 3.67211 -2.11972 0
M  V30 6568 C 642.439 3.29947 -0.680942 0
M  V30 6569 O 642.969 4.01403 0.154527 0
M  V30 6570 N 641.175 2.8593 -0.518894 0
M  V30 6571 H 640.722 2.2795 -1.19986 0
M  V30 6572 H 640.68 3.12907 0.305985 0
M  V30 6573 N 644.452 1.42507 0.673017 0
M  V30 6574 C 645.698 1.43284 1.43519 0
M  V30 6575 C 646.031 0.049668 1.94136 0
M  V30 6576 O 645.306 -0.926369 1.71022 0
M  V30 6577 C 645.589 2.45874 2.63093 0
M  V30 6578 C 645.442 3.93388 2.18096 0
M  V30 6579 C 646.761 2.45431 3.6531 0
M  V30 6580 H 643.88 0.521752 0.520522 0
M  V30 6581 H 646.522 1.73932 0.764701 0
M  V30 6582 H 644.672 2.19869 3.20296 0
M  V30 6583 H 646.344 4.30379 1.66046 0
M  V30 6584 H 644.587 4.07169 1.49652 0
M  V30 6585 H 645.258 4.60752 3.03993 0
M  V30 6586 H 647.734 2.68561 3.17827 0
M  V30 6587 H 646.61 3.19189 4.46553 0
M  V30 6588 H 646.871 1.48092 4.16559 0
M  V30 6589 N 645.93 -0.909495 1.28709 0
M  V30 6590 C 647.178 -1.65577 1.15882 0
M  V30 6591 C 647.499 -1.928 -0.292108 0
M  V30 6592 O 646.769 -1.54716 -1.20166 0
M  V30 6593 H 645.349 -0.613714 0.425869 0
M  V30 6594 H 648.011 -1.09108 1.61498 0
M  V30 6595 H 647.107 -2.61634 1.70159 0
M  V30 6596 N 647.408 -1.11026 -1.11852 0
M  V30 6597 C 648.656 -0.854769 -1.83134 0
M  V30 6598 C 648.977 0.621375 -1.84835 0
M  V30 6599 O 648.247 1.45129 -1.31584 0
M  V30 6600 H 646.827 -0.313229 -0.678157 0
M  V30 6601 H 649.489 -1.40178 -1.35411 0
M  V30 6602 H 648.585 -1.22311 -2.87135 0
M  V30 6603 N 648.886 1.2938 -0.899927 0
M  V30 6604 C 650.163 1.9046 -0.445443 0
M  V30 6605 C 650.543 1.81683 1.07492 0
M  V30 6606 O 649.891 1.24371 1.91688 0
M  V30 6607 C 650.101 3.35529 -0.960279 0
M  V30 6608 C 651.449 4.12556 -1.00412 0
M  V30 6609 O 652.473 3.44434 -0.907965 0
M  V30 6610 O 651.332 5.34294 -1.14857 0
M  V30 6611 H 648.426 0.815253 -0.138893 0
M  V30 6612 H 650.972 1.37844 -0.989808 0
M  V30 6613 H 649.744 3.36074 -2.00425 0
M  V30 6614 H 649.367 3.95624 -0.395939 0
M  V30 6615 N 650.364 0.662433 1.43002 0
M  V30 6616 C 651.294 -0.00979809 2.33498 0
M  V30 6617 C 652.275 -0.802329 1.49989 0
M  V30 6618 O 653.46 -0.761964 1.78627 0
M  V30 6619 C 650.59 -0.970446 3.33466 0
M  V30 6620 C 649.544 -0.287383 4.27034 0
M  V30 6621 C 648.87 -1.36012 5.17112 0
M  V30 6622 C 650.17 0.82595 5.15728 0
M  V30 6623 H 651.864 0.745959 2.89958 0
M  V30 6624 H 649.41 0.360172 1.39423 0
M  V30 6625 H 651.363 -1.44971 3.95679 0
M  V30 6626 H 650.087 -1.75748 2.75282 0
M  V30 6627 H 648.746 0.17152 3.66199 0
M  V30 6628 H 648.394 -2.13882 4.55262 0
M  V30 6629 H 648.094 -0.908276 5.80538 0
M  V30 6630 H 649.618 -1.84056 5.82199 0
M  V30 6631 H 651.032 0.42845 5.71697 0
M  V30 6632 H 649.429 1.20282 5.87922 0
M  V30 6633 H 650.499 1.68003 4.54866 0
M  V30 6634 N 651.842 -1.52309 0.404946 0
M  V30 6635 C 653.119 -1.94237 -0.230544 0
M  V30 6636 C 653.499 -1.34154 -1.6299 0
M  V30 6637 O 652.847 -0.515713 -2.22604 0
M  V30 6638 C 653.057 -3.48166 -0.241106 0
M  V30 6639 C 654.405 -4.22074 -0.462488 0
M  V30 6640 O 655.429 -3.54754 -0.320644 0
M  V30 6641 O 654.288 -5.41443 -0.741708 0
M  V30 6642 H 651.382 -0.813766 -0.147358 0
M  V30 6643 H 653.928 -1.6333 0.460587 0
M  V30 6644 H 652.7 -3.84269 0.738467 0
M  V30 6645 H 652.323 -3.85422 -0.97651 0
M  V30 6646 N 653.32 -0.135238 -1.57019 0
M  V30 6647 C 654.731 0.387521 -1.82634 0
M  V30 6648 C 655.082 1.65528 -1.05332 0
M  V30 6649 O 654.207 2.14381 -0.294926 0
M  V30 6650 C 654.802 0.709852 -3.3128 0
M  V30 6651 C 653.361 1.17718 -3.57518 0
M  V30 6652 C 652.508 0.194183 -2.76619 0
M  V30 6653 H 655.459 -0.360126 -1.5456 0
M  V30 6654 H 655.48 1.5657 -3.46794 0
M  V30 6655 H 654.992 -0.213024 -3.87515 0
M  V30 6656 H 653.093 2.1164 -3.06658 0
M  V30 6657 H 653.206 1.11128 -4.66034 0
M  V30 6658 H 651.57 0.684478 -2.4533 0
M  V30 6659 H 652.353 -0.722076 -3.3562 0
M  V30 6660 N 654.798 1.5699 0.138552 0
M  V30 6661 C 656.023 1.88344 0.86841 0
M  V30 6662 C 656.448 0.725159 1.7356 0
M  V30 6663 O 655.806 -0.324992 1.78363 0
M  V30 6664 C 655.854 3.18334 1.69398 0
M  V30 6665 O 654.958 3.02863 2.79907 0
M  V30 6666 H 654.299 0.618577 0.241367 0
M  V30 6667 H 656.829 2.04207 0.126826 0
M  V30 6668 H 656.839 3.50567 2.08726 0
M  V30 6669 H 655.514 4.02238 1.05725 0
M  V30 6670 H 654.091 2.82056 2.43924 0
M  V30 6671 N 656.276 -0.40816 1.52223 0
M  V30 6672 C 657.501 -1.18127 1.70472 0
M  V30 6673 C 657.926 -1.83491 0.41384 0
M  V30 6674 O 657.284 -1.70047 -0.628778 0
M  V30 6675 C 657.332 -2.21935 2.84213 0
M  V30 6676 O 656.436 -3.28099 2.4985 0
M  V30 6677 H 655.777 -0.344781 0.56747 0
M  V30 6678 H 658.307 -0.478328 1.9893 0
M  V30 6679 H 658.317 -2.66248 3.09153 0
M  V30 6680 H 656.992 -1.73744 3.7787 0
M  V30 6681 H 655.569 -2.89058 2.35584 0
M  V30 6682 N 657.755 -1.42862 -0.66545 0
M  V30 6683 C 659.004 -1.43119 -1.42126 0
M  V30 6684 C 659.317 -0.0545297 -1.95524 0
M  V30 6685 O 660.523 0.0654747 -2.71421 0
M  V30 6686 C 658.979 -2.51797 -2.5715 0
M  V30 6687 C 658.587 -3.95514 -2.10411 0
M  V30 6688 C 660.331 -2.61233 -3.346 0
M  V30 6689 C 658.238 -4.95682 -3.22573 0
M  V30 6690 H 657.168 -0.532349 -0.533966 0
M  V30 6691 H 659.819 -1.68806 -0.719506 0
M  V30 6692 H 658.201 -2.19292 -3.29738 0
M  V30 6693 H 659.375 -4.3742 -1.44915 0
M  V30 6694 H 657.69 -3.90012 -1.45874 0
M  V30 6695 H 660.287 -3.33248 -4.18151 0
M  V30 6696 H 660.63 -1.65896 -3.81817 0
M  V30 6697 H 661.163 -2.9298 -2.69087 0
M  V30 6698 H 657.902 -5.92529 -2.80338 0
M  V30 6699 H 657.422 -4.58399 -3.86821 0
M  V30 6700 H 659.101 -5.17828 -3.87896 0
M  V30 6701 N 659.233 0.902656 -1.29189 0
M  V30 6702 C 660.644 1.46809 -1.15343 0
M  V30 6703 C 660.995 1.94568 0.252517 0
M  V30 6704 O 660.12 1.83454 1.14777 0
M  V30 6705 C 660.715 2.66829 -2.08776 0
M  V30 6706 C 659.274 3.19518 -1.98961 0
M  V30 6707 C 658.421 1.92212 -1.99874 0
M  V30 6708 H 661.372 0.714282 -1.41717 0
M  V30 6709 H 661.393 3.42465 -1.65826 0
M  V30 6710 H 660.905 2.32039 -3.11094 0
M  V30 6711 H 659.006 3.59008 -0.99721 0
M  V30 6712 H 659.119 3.84016 -2.86477 0
M  V30 6713 H 657.483 2.0979 -1.44431 0
M  V30 6714 H 658.266 1.59702 -3.03891 0
M  V30 6715 N 660.711 1.11618 1.11262 0
M  V30 6716 C 661.988 0.777876 1.79467 0
M  V30 6717 C 662.368 -0.733774 1.97937 0
M  V30 6718 O 661.716 -1.66443 1.56554 0
M  V30 6719 C 661.926 1.5431 3.13032 0
M  V30 6720 C 663.274 1.72357 3.88044 0
M  V30 6721 O 664.298 1.5075 3.22727 0
M  V30 6722 O 663.157 2.08276 5.05256 0
M  V30 6723 H 660.251 0.282018 0.777428 0
M  V30 6724 H 662.797 1.21971 1.17988 0
M  V30 6725 H 661.569 2.57132 2.94956 0
M  V30 6726 H 661.192 1.09495 3.82226 0
M  V30 6727 N 662.189 -1.289 0.906776 0
M  V30 6728 C 663.136 -2.2751 0.388313 0
M  V30 6729 C 664.106 -1.57301 -0.533439 0
M  V30 6730 O 665.291 -1.85243 -0.457148 0
M  V30 6731 C 662.431 -3.43091 -0.37181 0
M  V30 6732 C 661.544 -4.28066 0.581647 0
M  V30 6733 C 660.679 -5.30837 -0.19623 0
M  V30 6734 C 659.718 -6.07472 0.751294 0
M  V30 6735 N 658.855 -7.021 0.00737727 0
M  V30 6736 H 663.695 -2.71237 1.23428 0
M  V30 6737 H 661.232 -1.33397 0.619962 0
M  V30 6738 H 663.19 -4.08888 -0.828641 0
M  V30 6739 H 661.82 -3.00374 -1.18218 0
M  V30 6740 H 660.872 -3.62378 1.157 0
M  V30 6741 H 662.184 -4.81382 1.30665 0
M  V30 6742 H 661.338 -6.02485 -0.71394 0
M  V30 6743 H 660.077 -4.78272 -0.954324 0
M  V30 6744 H 659.082 -5.34682 1.28044 0
M  V30 6745 H 660.307 -6.62126 1.50883 0
M  V30 6746 H 658.253 -6.51894 -0.732854 0
M  V30 6747 H 658.17 -7.53004 0.672334 0
M  V30 6748 H 659.438 -7.77956 -0.490365 0
M  V30 6749 N 663.667 -0.670007 -1.42649 0
M  V30 6750 C 664.577 0.0114788 -2.34597 0
M  V30 6751 C 665.593 0.794055 -1.54825 0
M  V30 6752 O 666.769 0.737472 -1.87412 0
M  V30 6753 C 663.834 0.954436 -3.33304 0
M  V30 6754 C 662.895 0.166925 -4.28975 0
M  V30 6755 C 662.128 1.06497 -5.22967 0
M  V30 6756 O 662.351 2.30446 -5.21777 0
M  V30 6757 O 661.285 0.528347 -5.99577 0
M  V30 6758 H 665.111 -0.745794 -2.944 0
M  V30 6759 H 662.696 -0.430228 -1.43071 0
M  V30 6760 H 664.578 1.49589 -3.93956 0
M  V30 6761 H 663.253 1.69164 -2.7598 0
M  V30 6762 H 662.16 -0.418515 -3.71752 0
M  V30 6763 H 663.493 -0.531067 -4.89327 0
M  V30 6764 N 665.145 1.52092 -0.413018 0
M  V30 6765 C 666.077 2.24819 0.445994 0
M  V30 6766 C 667.09 1.27925 1.00692 0
M  V30 6767 O 668.279 1.53845 0.905204 0
M  V30 6768 C 665.379 2.96951 1.6332 0
M  V30 6769 C 664.552 4.20746 1.19548 0
M  V30 6770 C 663.611 4.75668 2.25003 0
M  V30 6771 O 662.637 5.38148 1.85434 0
M  V30 6772 N 663.839 4.57579 3.57214 0
M  V30 6773 H 666.604 2.99176 -0.177209 0
M  V30 6774 H 664.165 1.60102 -0.240601 0
M  V30 6775 H 666.157 3.30586 2.33441 0
M  V30 6776 H 664.727 2.25756 2.16225 0
M  V30 6777 H 663.947 3.92881 0.32224 0
M  V30 6778 H 665.235 5.01132 0.880033 0
M  V30 6779 H 664.633 4.07758 3.92109 0
M  V30 6780 H 663.19 4.95642 4.23299 0
M  V30 6781 N 666.623 0.143563 1.56945 0
M  V30 6782 C 667.586 -0.783295 2.154 0
M  V30 6783 C 668.586 -1.17763 1.09492 0
M  V30 6784 O 669.776 -1.09912 1.35148 0
M  V30 6785 C 666.908 -2.06248 2.7143 0
M  V30 6786 H 668.101 -0.274863 2.98638 0
M  V30 6787 H 665.654 -0.105859 1.55941 0
M  V30 6788 H 666.389 -2.61466 1.91849 0
M  V30 6789 H 666.174 -1.78897 3.4891 0
M  V30 6790 H 667.664 -2.72453 3.16479 0
M  V30 6791 N 668.101 -1.57061 -0.130224 0
M  V30 6792 C 669.35 -1.83446 -0.838488 0
M  V30 6793 C 669.663 -0.727468 -1.81569 0
M  V30 6794 O 670.869 -0.877394 -2.56932 0
M  V30 6795 C 669.325 -3.25201 -1.54182 0
M  V30 6796 C 668.933 -4.4388 -0.606178 0
M  V30 6797 C 670.677 -3.60844 -2.23588 0
M  V30 6798 C 668.584 -5.76661 -1.31209 0
M  V30 6799 H 667.514 -0.684185 -0.316871 0
M  V30 6800 H 670.165 -1.83273 -0.0912059 0
M  V30 6801 H 668.547 -3.1981 -2.33533 0
M  V30 6802 H 669.721 -4.60545 0.153308 0
M  V30 6803 H 668.036 -4.16395 -0.0196705 0
M  V30 6804 H 670.633 -4.57313 -2.77072 0
M  V30 6805 H 670.976 -2.87724 -3.00867 0
M  V30 6806 H 671.509 -3.67971 -1.51137 0
M  V30 6807 H 668.248 -6.52922 -0.580823 0
M  V30 6808 H 667.768 -5.63902 -2.04387 0
M  V30 6809 H 669.447 -6.20035 -1.8484 0
M  V30 6810 N 669.579 0.400081 -1.52437 0
M  V30 6811 C 670.804 1.17221 -1.71096 0
M  V30 6812 C 671.229 1.83269 -0.423565 0
M  V30 6813 O 670.587 1.70378 0.619751 0
M  V30 6814 C 670.635 2.20425 -2.85386 0
M  V30 6815 O 669.739 3.26769 -2.51586 0
M  V30 6816 H 669.08 0.341766 -0.569291 0
M  V30 6817 H 671.61 0.467772 -1.99181 0
M  V30 6818 H 671.62 2.64605 -3.10561 0
M  V30 6819 H 670.295 1.71737 -3.78786 0
M  V30 6820 H 668.872 2.87804 -2.37114 0
M  V30 6821 N 671.057 1.43213 0.657864 0
M  V30 6822 C 672.02 1.47687 1.75275 0
M  V30 6823 C 673.02 0.362179 1.56668 0
M  V30 6824 O 674.21 0.623734 1.62651 0
M  V30 6825 C 671.342 1.32497 3.14098 0
M  V30 6826 H 672.535 2.4519 1.7269 0
M  V30 6827 H 670.088 1.2991 0.869087 0
M  V30 6828 H 670.823 0.359831 3.22298 0
M  V30 6829 H 670.608 2.13299 3.29008 0
M  V30 6830 H 672.098 1.38549 3.93946 0
M  V30 6831 N 672.536 -0.895792 1.29666 0
M  V30 6832 C 673.466 -2.01673 1.17688 0
M  V30 6833 C 674.447 -1.69955 0.0701317 0
M  V30 6834 O 675.632 -1.9258 0.250289 0
M  V30 6835 C 672.762 -3.36568 0.856681 0
M  V30 6836 C 671.716 -3.82509 1.92017 0
M  V30 6837 C 671.042 -5.14574 1.4532 0
M  V30 6838 C 672.342 -4.02409 3.32963 0
M  V30 6839 H 674.036 -2.11953 2.11463 0
M  V30 6840 H 671.582 -1.01839 1.01807 0
M  V30 6841 H 673.535 -4.14498 0.759577 0
M  V30 6842 H 672.259 -3.26391 -0.116763 0
M  V30 6843 H 670.918 -3.068 2.00673 0
M  V30 6844 H 670.566 -5.00815 0.468325 0
M  V30 6845 H 670.266 -5.46283 2.16447 0
M  V30 6846 H 671.79 -5.9504 1.36968 0
M  V30 6847 H 673.204 -4.70808 3.27127 0
M  V30 6848 H 671.601 -4.45478 4.02082 0
M  V30 6849 H 672.671 -3.06616 3.75652 0
M  V30 6850 N 674.014 -1.12206 -1.10668 0
M  V30 6851 C 675.425 -0.890657 -1.64086 0
M  V30 6852 C 675.776 0.575502 -1.8757 0
M  V30 6853 O 674.901 1.4394 -1.61587 0
M  V30 6854 C 675.496 -1.61029 -2.98085 0
M  V30 6855 C 674.055 -1.4251 -3.48379 0
M  V30 6856 C 673.202 -1.64778 -2.23033 0
M  V30 6857 H 676.153 -1.27718 -0.94201 0
M  V30 6858 H 676.174 -1.05993 -3.65439 0
M  V30 6859 H 675.686 -2.67735 -2.80962 0
M  V30 6860 H 673.787 -0.380497 -3.70652 0
M  V30 6861 H 673.9 -2.17959 -4.26651 0
M  V30 6862 H 672.264 -1.07171 -2.31055 0
M  V30 6863 H 673.047 -2.72776 -2.08443 0
M  V30 6864 N 675.492 1.28418 -0.913599 0
M  V30 6865 C 676.769 1.89977 -0.465619 0
M  V30 6866 C 677.149 1.82813 1.05559 0
M  V30 6867 O 676.497 1.26397 1.90358 0
M  V30 6868 C 676.707 3.34492 -0.995813 0
M  V30 6869 C 678.055 4.11468 -1.04782 0
M  V30 6870 O 679.079 3.43451 -0.944445 0
M  V30 6871 O 677.938 5.33046 -1.20518 0
M  V30 6872 H 675.032 0.813734 -0.147532 0
M  V30 6873 H 677.578 1.36786 -1.00437 0
M  V30 6874 H 676.35 3.33929 -2.03978 0
M  V30 6875 H 675.973 3.95181 -0.437878 0
M  V30 6876 N 676.97 0.677563 1.42291 0
M  V30 6877 C 678.2 0.209155 2.05539 0
M  V30 6878 C 678.608 -1.13987 1.51009 0
M  V30 6879 O 677.951 -1.71976 0.645764 0
M  V30 6880 C 678.013 0.0697758 3.59432 0
M  V30 6881 C 677.677 1.34795 4.36668 0
M  V30 6882 C 678.674 2.28201 4.67141 0
M  V30 6883 C 676.359 1.59632 4.76259 0
M  V30 6884 C 678.353 3.44718 5.36142 0
M  V30 6885 C 676.04 2.76437 5.45 0
M  V30 6886 C 677.038 3.68805 5.74867 0
M  V30 6887 O 676.726 4.83567 6.42198 0
M  V30 6888 H 676.458 0.0986202 0.668768 0
M  V30 6889 H 679.012 0.925483 1.83368 0
M  V30 6890 H 677.242 -0.702157 3.80272 0
M  V30 6891 H 678.931 -0.359115 4.04308 0
M  V30 6892 H 679.697 2.10264 4.37052 0
M  V30 6893 H 675.576 0.886073 4.52404 0
M  V30 6894 H 679.12 4.16833 5.59371 0
M  V30 6895 H 675.017 2.94299 5.74507 0
M  V30 6896 H 675.785 4.83147 6.6069 0
M  V30 6897 N 678.448 -1.51871 0.421078 0
M  V30 6898 C 679.411 -2.25914 -0.386712 0
M  V30 6899 C 680.411 -1.28733 -0.963555 0
M  V30 6900 O 681.601 -1.52579 -0.840556 0
M  V30 6901 C 678.733 -3.03853 -1.54551 0
M  V30 6902 H 679.926 -2.98754 0.261978 0
M  V30 6903 H 677.479 -1.5533 0.173862 0
M  V30 6904 H 678.214 -2.35392 -2.23072 0
M  V30 6905 H 677.999 -3.75215 -1.13824 0
M  V30 6906 H 679.489 -3.59984 -2.11663 0
M  V30 6907 N 679.926 -0.151884 -1.56866 0
M  V30 6908 C 681.151 0.508044 -2.01081 0
M  V30 6909 C 681.576 1.57306 -1.03134 0
M  V30 6910 O 680.934 1.81298 -0.0078309 0
M  V30 6911 C 680.982 1.08106 -3.44014 0
M  V30 6912 O 680.086 2.19577 -3.49084 0
M  V30 6913 H 679.427 0.123757 -0.652365 0
M  V30 6914 H 681.957 -0.250055 -2.03066 0
M  V30 6915 H 681.967 1.40851 -3.82916 0
M  V30 6916 H 680.642 0.301168 -4.14808 0
M  V30 6917 H 679.219 1.88023 -3.22027 0
M  V30 6918 N 681.404 1.57128 0.121893 0
M  V30 6919 C 682.336 1.96773 1.17529 0
M  V30 6920 C 683.349 0.866668 1.37814 0
M  V30 6921 O 684.538 1.14497 1.3694 0
M  V30 6922 C 681.638 2.24832 2.53582 0
M  V30 6923 C 680.811 3.56138 2.53939 0
M  V30 6924 C 679.87 3.72443 3.71716 0
M  V30 6925 O 678.896 4.44584 3.55434 0
M  V30 6926 N 680.098 3.10993 4.90167 0
M  V30 6927 H 682.863 2.87743 0.838086 0
M  V30 6928 H 680.424 1.58881 0.311199 0
M  V30 6929 H 682.416 2.32958 3.30927 0
M  V30 6930 H 680.986 1.40002 2.79496 0
M  V30 6931 H 680.206 3.59226 1.62329 0
M  V30 6932 H 681.494 4.42448 2.51231 0
M  V30 6933 H 680.892 2.52345 5.06299 0
M  V30 6934 H 679.449 3.24644 5.65198 0
M  V30 6935 N 682.882 -0.391992 1.52647 0
M  V30 6936 C 684.293 -0.970064 1.5952 0
M  V30 6937 C 684.644 -1.91059 0.446207 0
M  V30 6938 O 683.769 -2.12062 -0.431125 0
M  V30 6939 C 684.364 -1.76614 2.89125 0
M  V30 6940 C 682.923 -2.29396 2.9842 0
M  V30 6941 C 682.07 -1.09864 2.54608 0
M  V30 6942 H 685.021 -0.171638 1.57769 0
M  V30 6943 H 685.042 -2.62511 2.75442 0
M  V30 6944 H 684.554 -1.08135 3.72731 0
M  V30 6945 H 682.655 -3.01196 2.19344 0
M  V30 6946 H 682.768 -2.59088 4.03002 0
M  V30 6947 H 681.132 -1.45777 2.08857 0
M  V30 6948 H 681.915 -0.429249 3.40606 0
M  V30 6949 N 684.36 -1.4356 -0.65026 0
M  V30 6950 C 685.608 -1.45046 -1.40734 0
M  V30 6951 C 685.929 -0.0769822 -1.94848 0
M  V30 6952 O 685.199 0.888098 -1.74613 0
M  V30 6953 H 683.779 -0.534034 -0.522318 0
M  V30 6954 H 686.441 -1.79186 -0.766703 0
M  V30 6955 H 685.537 -2.16476 -2.24822 0
M  V30 6956 N 685.838 0.888903 -1.30139 0
M  V30 6957 C 686.785 1.99422 -1.16188 0
M  V30 6958 C 687.755 1.66017 -0.0523869 0
M  V30 6959 O 688.94 1.89506 -0.221864 0
M  V30 6960 C 686.08 3.34325 -0.855612 0
M  V30 6961 C 685.193 3.80445 -2.0466 0
M  V30 6962 C 684.328 5.03975 -1.67876 0
M  V30 6963 C 683.367 5.42492 -2.83493 0
M  V30 6964 N 682.504 6.57206 -2.47032 0
M  V30 6965 H 687.344 2.10687 -2.10749 0
M  V30 6966 H 684.881 1.03165 -1.04859 0
M  V30 6967 H 686.839 4.11968 -0.658681 0
M  V30 6968 H 685.469 3.22756 0.0531155 0
M  V30 6969 H 684.521 2.98745 -2.3549 0
M  V30 6970 H 685.833 4.04933 -2.91257 0
M  V30 6971 H 684.987 5.89232 -1.44535 0
M  V30 6972 H 683.726 4.8135 -0.784431 0
M  V30 6973 H 682.731 4.55764 -3.07505 0
M  V30 6974 H 683.956 5.67093 -3.73607 0
M  V30 6975 H 681.902 6.36164 -1.601 0
M  V30 6976 H 681.819 6.81543 -3.27161 0
M  V30 6977 H 683.087 7.45704 -2.27038 0
M  V30 6978 N 687.317 1.12792 1.10072 0
M  V30 6979 C 688.728 0.899346 1.63611 0
M  V30 6980 C 689.079 -0.565547 1.87872 0
M  V30 6981 O 688.204 -1.43081 1.62348 0
M  V30 6982 C 688.799 1.62608 2.97227 0
M  V30 6983 C 687.358 1.44356 3.47618 0
M  V30 6984 C 686.505 1.65958 2.22156 0
M  V30 6985 H 689.456 1.28216 0.935223 0
M  V30 6986 H 689.477 1.0793 3.64872 0
M  V30 6987 H 688.989 2.69221 2.79538 0
M  V30 6988 H 687.09 0.400148 3.70445 0
M  V30 6989 H 687.203 2.20218 4.25489 0
M  V30 6990 H 685.567 1.08395 2.30484 0
M  V30 6991 H 686.35 2.73877 2.06993 0
M  V30 6992 N 688.795 -1.27931 0.920396 0
M  V30 6993 C 690.206 -1.76707 0.602616 0
M  V30 6994 C 690.557 -1.75249 -0.882159 0
M  V30 6995 O 689.682 -1.35135 -1.69019 0
M  V30 6996 C 690.277 -3.20884 1.08714 0
M  V30 6997 C 688.836 -3.67356 0.820157 0
M  V30 6998 C 687.983 -2.47525 1.25006 0
M  V30 6999 H 690.934 -1.14301 1.10095 0
M  V30 7000 H 690.955 -3.78045 0.431535 0
M  V30 7001 H 690.467 -3.21913 2.1678 0
M  V30 7002 H 688.568 -3.7178 -0.247012 0
M  V30 7003 H 688.681 -4.57181 1.43257 0
M  V30 7004 H 687.045 -2.45765 0.668698 0
M  V30 7005 H 687.828 -2.51269 2.3392 0
M  V30 7006 N 690.273 -0.685099 -1.4193 0
M  V30 7007 C 691.689 -0.355632 -1.55587 0
M  V30 7008 C 691.889 1.13823 -1.66273 0
M  V30 7009 O 690.945 1.92387 -1.63534 0
M  V30 7010 C 692.258 -1.09498 -2.80055 0
M  V30 7011 C 693.806 -1.07831 -2.93839 0
M  V30 7012 C 694.281 -1.79919 -4.21181 0
M  V30 7013 N 695.772 -1.76837 -4.28115 0
M  V30 7014 C 696.507 -2.29463 -5.25485 0
M  V30 7015 N 696.003 -2.90516 -6.28945 0
M  V30 7016 N 697.796 -2.19779 -5.17353 0
M  V30 7017 H 689.947 -1.65412 -1.33239 0
M  V30 7018 H 692.21 -0.697453 -0.642078 0
M  V30 7019 H 691.916 -2.14997 -2.78333 0
M  V30 7020 H 691.79 -0.666813 -3.71259 0
M  V30 7021 H 694.177 -0.0316152 -2.95083 0
M  V30 7022 H 694.258 -1.54545 -2.03837 0
M  V30 7023 H 693.902 -2.84562 -4.20698 0
M  V30 7024 H 693.832 -1.30647 -5.10136 0
M  V30 7025 H 696.323 -1.32315 -3.53979 0
M  V30 7026 H 696.636 -3.28266 -6.99615 0
M  V30 7027 H 694.981 -2.94589 -6.29478 0
M  V30 7028 H 698.172 -1.71763 -4.35448 0
M  V30 7029 H 698.345 -2.61097 -5.9307 0
M  V30 7030 N 691.751 1.51645 -0.429126 0
M  V30 7031 C 692.661 2.31288 0.392809 0
M  V30 7032 C 693.677 1.39852 1.03525 0
M  V30 7033 O 694.853 1.72926 1.03241 0
M  V30 7034 C 691.918 3.13347 1.48372 0
M  V30 7035 C 690.979 4.20551 0.862268 0
M  V30 7036 C 690.212 4.98688 1.9012 0
M  V30 7037 O 690.435 4.77359 3.12225 0
M  V30 7038 O 689.369 5.83005 1.4963 0
M  V30 7039 H 693.195 3.02609 -0.257138 0
M  V30 7040 H 690.78 1.48163 -0.191851 0
M  V30 7041 H 692.662 3.64387 2.1166 0
M  V30 7042 H 691.337 2.44799 2.1179 0
M  V30 7043 H 690.244 3.73609 0.191568 0
M  V30 7044 H 691.577 4.91449 0.271704 0
M  V30 7045 N 693.229 0.160201 1.56784 0
M  V30 7046 C 694.506 -0.533355 1.88188 0
M  V30 7047 C 694.886 -1.82072 1.06831 0
M  V30 7048 O 694.234 -2.27946 0.158959 0
M  V30 7049 C 694.444 -0.786034 3.40033 0
M  V30 7050 C 695.792 -1.12097 4.09536 0
M  V30 7051 O 696.816 -0.874949 3.45287 0
M  V30 7052 O 695.675 -1.58457 5.23023 0
M  V30 7053 H 692.769 -0.273589 0.780434 0
M  V30 7054 H 695.315 0.197803 1.68543 0
M  V30 7055 H 694.087 0.124515 3.91102 0
M  V30 7056 H 693.71 -1.57091 3.65251 0
M  V30 7057 N 694.707 -1.5719 -0.113559 0
M  V30 7058 C 695.637 -2.03772 -1.14013 0
M  V30 7059 C 696.618 -0.923176 -1.42869 0
M  V30 7060 O 697.803 -1.19325 -1.53216 0
M  V30 7061 C 694.933 -2.44663 -2.4649 0
M  V30 7062 C 693.887 -3.59612 -2.32085 0
M  V30 7063 C 693.213 -3.8642 -3.69573 0
M  V30 7064 C 694.513 -4.91149 -1.7768 0
M  V30 7065 H 696.207 -2.89785 -0.752665 0
M  V30 7066 H 693.753 -1.39412 -0.360609 0
M  V30 7067 H 695.706 -2.75857 -3.18561 0
M  V30 7068 H 694.43 -1.55628 -2.87137 0
M  V30 7069 H 693.089 -3.28636 -1.62461 0
M  V30 7070 H 692.737 -2.94581 -4.07715 0
M  V30 7071 H 692.437 -4.63797 -3.60786 0
M  V30 7072 H 693.961 -4.2007 -4.4314 0
M  V30 7073 H 695.375 -5.20843 -2.39574 0
M  V30 7074 H 693.772 -5.72562 -1.79701 0
M  V30 7075 H 694.842 -4.79301 -0.734776 0
M  V30 7076 N 696.185 0.383891 -1.52853 0
M  V30 7077 C 697.132 1.46924 -1.77995 0
M  V30 7078 C 698.102 1.53958 -0.623396 0
M  V30 7079 O 699.287 1.70134 -0.863657 0
M  V30 7080 C 696.427 2.84093 -1.95921 0
M  V30 7081 C 695.54 2.86171 -3.23621 0
M  V30 7082 C 694.675 4.14799 -3.31836 0
M  V30 7083 C 693.714 4.10948 -4.53639 0
M  V30 7084 N 692.851 5.31192 -4.59107 0
M  V30 7085 H 697.691 1.24786 -2.70615 0
M  V30 7086 H 695.228 0.605265 -1.34071 0
M  V30 7087 H 697.186 3.63755 -2.04299 0
M  V30 7088 H 695.816 3.04671 -1.06656 0
M  V30 7089 H 694.868 1.9885 -3.24288 0
M  V30 7090 H 696.18 2.79194 -4.13343 0
M  V30 7091 H 695.334 5.02867 -3.39425 0
M  V30 7092 H 694.073 4.24505 -2.40097 0
M  V30 7093 H 693.078 3.21268 -4.46169 0
M  V30 7094 H 694.303 4.0286 -5.467 0
M  V30 7095 H 692.249 5.41518 -3.70262 0
M  V30 7096 H 692.166 5.26311 -5.42708 0
M  V30 7097 H 693.434 6.21143 -4.70958 0
M  V30 7098 O 697.702 1.52561 0.529841 0
M  V30 7099 H 698.393 1.53227 1.18495 0
M  V30 END ATOM
M  V30 BEGIN BOND
M  V30 END BOND
M  V30 END CTAB
M  END
$$$$
