drugbank_drug|DB12159 Dupilumab Heavy Chain
 OpenBabel12092119133D

  0  0  0     0  0            999 V3000
M  V30 BEGIN CTAB
M  V30 COUNTS 6881 6971 0 0 0
M  V30 BEGIN ATOM
M  V30 1 H -0.908 1.98254 -0.117106 0
M  V30 2 N 0 1.576 0 0
M  V30 3 C 0.91 2.11853 1.00774 0
M  V30 4 C 1.926 1.06379 1.37693 0
M  V30 5 O 3.102 1.3828 1.46426 0
M  V30 6 C 0.167 2.61108 2.28087 0
M  V30 7 C -0.772 3.81183 1.9748 0
M  V30 8 C -1.539 4.28079 3.18723 0
M  V30 9 O -1.316 3.74307 4.30407 0
M  V30 10 O -2.382 5.20234 3.02721 0
M  V30 11 H 1.444 2.98177 0.576547 0
M  V30 12 H -0.971 1.47789 0.218828 0
M  V30 13 H 0.911 2.92987 3.0288 0
M  V30 14 H -0.414 1.77881 2.70444 0
M  V30 15 H -1.507 3.54277 1.20162 0
M  V30 16 H -0.174 4.65482 1.5996 0
M  V30 17 N 1.4781 -0.272755 1.55222 0
M  V30 18 C 2.7241 -1.00581 1.761 0
M  V30 19 C 3.0571 -1.85932 0.560625 0
M  V30 20 O 2.3321 -1.89416 -0.441801 0
M  V30 21 C 2.6151 -1.88816 3.06628 0
M  V30 22 C 2.4681 -1.06457 4.37021 0
M  V30 23 C 3.7871 -2.8752 3.33197 0
M  V30 24 H 0.9061 -0.364244 0.640699 0
M  V30 25 H 3.5481 -0.278189 1.87952 0
M  V30 26 H 1.6981 -2.50856 2.96654 0
M  V30 27 H 3.3701 -0.464863 4.58952 0
M  V30 28 H 1.6131 -0.368043 4.32236 0
M  V30 29 H 2.2841 -1.71514 5.24678 0
M  V30 30 H 4.7601 -2.35615 3.42965 0
M  V30 31 H 3.6361 -3.46399 4.25792 0
M  V30 32 H 3.8971 -3.62657 2.52849 0
M  V30 33 N 2.9562 -1.48159 -0.537278 0
M  V30 34 C 3.8882 -1.58218 -1.65831 0
M  V30 35 C 4.9012 -0.466948 -1.5596 0
M  V30 36 O 6.0902 -0.73747 -1.62553 0
M  V30 37 C 3.1902 -1.48906 -3.04434 0
M  V30 38 C 2.3632 -2.75343 -3.3986 0
M  V30 39 C 1.4222 -2.59588 -4.57712 0
M  V30 40 O 0.4482 -3.33457 -4.61297 0
M  V30 41 N 1.6502 -1.68724 -5.55439 0
M  V30 42 H 4.4152 -2.54891 -1.57641 0
M  V30 43 H 1.9762 -1.4479 -0.724386 0
M  V30 44 H 3.9682 -1.36072 -3.81139 0
M  V30 45 H 2.5382 -0.602368 -3.06741 0
M  V30 46 H 1.7582 -3.02795 -2.52406 0
M  V30 47 H 3.0462 -3.5924 -3.60311 0
M  V30 48 H 2.4442 -1.07898 -5.55315 0
M  V30 49 H 1.0012 -1.61832 -6.3139 0
M  V30 50 N 4.4343 0.785586 -1.36625 0
M  V30 51 C 5.3643 1.91259 -1.33949 0
M  V30 52 C 6.3453 1.68795 -0.210325 0
M  V30 53 O 7.5303 1.89854 -0.408561 0
M  V30 54 C 4.6603 3.28339 -1.13186 0
M  V30 55 C 3.6143 3.65335 -2.22967 0
M  V30 56 C 2.9403 5.00806 -1.87342 0
M  V30 57 C 4.2403 3.7352 -3.65075 0
M  V30 58 H 5.9343 1.93755 -2.28253 0
M  V30 59 H 3.4803 0.930788 -1.09874 0
M  V30 60 H 5.4333 4.06804 -1.09948 0
M  V30 61 H 4.1573 3.2624 -0.153332 0
M  V30 62 H 2.8163 2.89169 -2.25337 0
M  V30 63 H 2.4643 4.95233 -0.880545 0
M  V30 64 H 2.1643 5.26529 -2.60846 0
M  V30 65 H 3.6883 5.81687 -1.85667 0
M  V30 66 H 5.1023 4.42168 -3.64911 0
M  V30 67 H 3.4993 4.10731 -4.37516 0
M  V30 68 H 4.5693 2.74527 -3.99703 0
M  V30 69 N 5.9124 1.20967 1.01018 0
M  V30 70 C 7.1584 1.02526 1.74975 0
M  V30 71 C 7.4914 -0.4408 1.89131 0
M  V30 72 O 6.7664 -1.32718 1.42184 0
M  V30 73 C 7.0494 1.71699 3.1653 0
M  V30 74 C 6.9024 3.25791 3.10129 0
M  V30 75 C 8.2214 1.45531 4.15342 0
M  V30 76 H 5.3404 0.373863 0.635134 0
M  V30 77 H 7.9824 1.49071 1.17805 0
M  V30 78 H 6.1324 1.32128 3.65341 0
M  V30 79 H 7.8044 3.74697 2.69072 0
M  V30 80 H 6.0474 3.56363 2.47362 0
M  V30 81 H 6.7184 3.69353 4.10222 0
M  V30 82 H 9.1944 1.79872 3.75213 0
M  V30 83 H 8.0704 1.96453 5.1254 0
M  V30 84 H 8.3314 0.384237 4.40427 0
M  V30 85 N 7.3905 -1.2043 1.01659 0
M  V30 86 C 8.3005 -2.2689 0.596484 0
M  V30 87 C 9.3165 -1.70107 -0.36599 0
M  V30 88 O 10.4925 -2.00117 -0.226942 0
M  V30 89 C 7.5575 -3.4665 -0.0586659 0
M  V30 90 C 6.6185 -4.18662 0.949751 0
M  V30 91 C 5.8515 -5.32705 0.32577 0
M  V30 92 O 6.0745 -5.63656 -0.874509 0
M  V30 93 O 5.0085 -5.92803 1.04249 0
M  V30 94 H 8.8345 -2.65041 1.4828 0
M  V30 95 H 6.4195 -1.27048 0.786082 0
M  V30 96 H 8.3015 -4.19256 -0.424564 0
M  V30 97 H 6.9765 -3.10375 -0.91918 0
M  V30 98 H 5.8835 -3.48229 1.36702 0
M  V30 99 H 7.2165 -4.58878 1.78023 0
M  V30 100 N 8.8686 -0.792821 -1.36206 0
M  V30 101 C 10.0936 -0.377701 -2.03932 0
M  V30 102 C 10.5186 0.998947 -1.59382 0
M  V30 103 O 9.8766 1.64421 -0.763903 0
M  V30 104 C 9.9246 -0.453635 -3.57735 0
M  V30 105 O 9.0286 0.538151 -4.08874 0
M  V30 106 H 8.3696 -0.159855 -0.644471 0
M  V30 107 H 10.8996 -1.07488 -1.7409 0
M  V30 108 H 10.9096 -0.318464 -4.06755 0
M  V30 109 H 9.5846 -1.45784 -3.89512 0
M  V30 110 H 8.1616 0.364359 -3.71116 0
M  V30 111 N 10.3467 1.47872 -0.545128 0
M  V30 112 C 11.5947 2.02093 -0.016553 0
M  V30 113 C 11.9157 1.42305 1.3332 0
M  V30 114 O 11.1857 0.593853 1.86682 0
M  V30 115 H 9.7657 0.746993 -0.00313038 0
M  V30 116 H 12.4277 1.81414 -0.712397 0
M  V30 117 H 11.5237 3.11996 0.0805422 0
M  V30 118 N 11.8248 0.280983 1.55075 0
M  V30 119 C 13.0728 -0.333455 1.9933 0
M  V30 120 C 13.3938 -1.55937 1.17085 0
M  V30 121 O 12.6638 -1.94143 0.261805 0
M  V30 122 H 11.2438 -0.126197 0.736263 0
M  V30 123 H 13.9058 0.387678 1.91005 0
M  V30 124 H 13.0018 -0.619292 3.05894 0
M  V30 125 N 13.3029 -1.57598 0.00835791 0
M  V30 126 C 14.5509 -1.90551 -0.6734 0
M  V30 127 C 14.8719 -0.883301 -1.73847 0
M  V30 128 O 14.1419 0.0781442 -1.95744 0
M  V30 129 H 12.7219 -0.703312 -0.251717 0
M  V30 130 H 15.3839 -1.94833 0.0512592 0
M  V30 131 H 14.4799 -2.9056 -1.13935 0
M  V30 132 N 14.781 0.264519 -1.55364 0
M  V30 133 C 15.711 1.33121 -1.91836 0
M  V30 134 C 16.692 1.51101 -0.781192 0
M  V30 135 O 17.877 1.64003 -1.04003 0
M  V30 136 C 15.007 2.68921 -2.19769 0
M  V30 137 C 13.961 2.65661 -3.35571 0
M  V30 138 C 13.287 4.05093 -3.49004 0
M  V30 139 C 14.587 2.24187 -4.71739 0
M  V30 140 H 16.281 1.02844 -2.81182 0
M  V30 141 H 13.827 0.493286 -1.35287 0
M  V30 142 H 15.78 3.43663 -2.43872 0
M  V30 143 H 14.504 3.00799 -1.27231 0
M  V30 144 H 13.163 1.93377 -3.1145 0
M  V30 145 H 12.811 4.34206 -2.53917 0
M  V30 146 H 12.511 4.03804 -4.26868 0
M  V30 147 H 14.035 4.81561 -3.75408 0
M  V30 148 H 15.449 2.88654 -4.9533 0
M  V30 149 H 13.846 2.34044 -5.52579 0
M  V30 150 H 14.916 1.19327 -4.69988 0
M  V30 151 N 16.2591 1.48442 0.529413 0
M  V30 152 C 17.1691 1.6569 1.66084 0
M  V30 153 C 18.1851 0.539432 1.65427 0
M  V30 154 O 19.3611 0.810572 1.84368 0
M  V30 155 C 16.4261 1.69315 3.02545 0
M  V30 156 C 15.4871 2.92694 3.14052 0
M  V30 157 C 14.7201 2.96137 4.44003 0
M  V30 158 O 14.9431 2.07973 5.31134 0
M  V30 159 O 13.8771 3.88312 4.59888 0
M  V30 160 H 17.7031 2.61483 1.54469 0
M  V30 161 H 15.2881 1.3185 0.702567 0
M  V30 162 H 17.1701 1.74217 3.83701 0
M  V30 163 H 15.8451 0.766966 3.14483 0
M  V30 164 H 14.7521 2.93324 2.32189 0
M  V30 165 H 16.0851 3.84699 3.0703 0
M  V30 166 N 17.7372 -0.778329 1.37039 0
M  V30 167 C 18.6692 -1.90034 1.2814 0
M  V30 168 C 19.6822 -1.61585 0.198558 0
M  V30 169 O 20.8712 -1.72625 0.454175 0
M  V30 170 C 17.9712 -3.25108 0.956968 0
M  V30 171 C 17.1442 -3.81253 2.14394 0
M  V30 172 C 16.2032 -4.94789 1.79082 0
M  V30 173 O 15.2292 -5.10721 2.51301 0
M  V30 174 N 16.4312 -5.75878 0.731043 0
M  V30 175 H 19.1962 -1.98186 2.24816 0
M  V30 176 H 16.7572 -0.957129 1.30578 0
M  V30 177 H 18.7492 -3.9857 0.701701 0
M  V30 178 H 17.3192 -3.125 0.0789812 0
M  V30 179 H 16.5392 -2.99647 2.56135 0
M  V30 180 H 17.8272 -4.15495 2.93668 0
M  V30 181 H 17.2252 -5.65547 0.131618 0
M  V30 182 H 15.7822 -6.49596 0.535622 0
M  V30 183 N 19.2153 -1.21501 -1.00376 0
M  V30 184 C 20.6263 -1.03146 -1.55621 0
M  V30 185 C 20.9773 0.408375 -1.91903 0
M  V30 186 O 20.1023 1.29177 -1.73616 0
M  V30 187 C 20.6973 -1.86612 -2.82775 0
M  V30 188 C 19.2563 -1.72586 -3.34501 0
M  V30 189 C 18.4033 -1.83747 -2.07683 0
M  V30 190 H 21.3543 -1.35505 -0.826081 0
M  V30 191 H 21.3753 -1.3771 -3.54706 0
M  V30 192 H 20.8873 -2.91399 -2.56336 0
M  V30 193 H 18.9883 -0.704877 -3.65872 0
M  V30 194 H 19.1013 -2.54623 -4.05837 0
M  V30 195 H 17.4653 -1.27069 -2.20739 0
M  V30 196 H 18.2483 -2.90044 -1.83655 0
M  V30 197 N 20.6934 1.19889 -1.02296 0
M  V30 198 C 21.9414 1.89046 -0.714558 0
M  V30 199 C 22.2624 1.79636 0.758681 0
M  V30 200 O 21.5324 1.20292 1.54618 0
M  V30 201 H 20.1124 0.699802 -0.261317 0
M  V30 202 H 22.7744 1.45574 -1.29592 0
M  V30 203 H 21.8704 2.95524 -1.0036 0
M  V30 204 N 22.1715 0.800033 1.35784 0
M  V30 205 C 23.4195 0.376597 1.9856 0
M  V30 206 C 23.7405 -1.05812 1.63795 0
M  V30 207 O 23.0105 -1.73103 0.917171 0
M  V30 208 H 21.5905 0.136261 0.734467 0
M  V30 209 H 24.2525 1.02442 1.65806 0
M  V30 210 H 23.3485 0.477002 3.08433 0
M  V30 211 N 23.6496 -1.47581 0.552962 0
M  V30 212 C 24.8746 -2.07378 0.0300593 0
M  V30 213 C 25.2996 -1.40355 -1.25229 0
M  V30 214 O 24.6576 -0.477099 -1.7491 0
M  V30 215 C 24.7056 -3.60274 -0.153231 0
M  V30 216 O 23.8096 -3.94041 -1.21678 0
M  V30 217 H 23.1506 -0.662158 0.0494182 0
M  V30 218 H 25.6806 -1.89662 0.767434 0
M  V30 219 H 25.6906 -4.0633 -0.368761 0
M  V30 220 H 24.3656 -4.08455 0.783397 0
M  V30 221 H 22.9426 -3.59735 -0.982079 0
M  V30 222 N 25.1277 -0.289203 -1.54924 0
M  V30 223 C 26.0577 0.58549 -2.2604 0
M  V30 224 C 27.0387 1.14753 -1.25562 0
M  V30 225 O 28.2237 1.17906 -1.54311 0
M  V30 226 C 25.3537 1.76305 -2.99222 0
M  V30 227 C 24.3077 1.33191 -4.06748 0
M  V30 228 C 23.6337 2.5937 -4.6758 0
M  V30 229 C 24.9337 0.471775 -5.20165 0
M  V30 230 H 26.6277 -0.00763532 -2.99399 0
M  V30 231 H 24.1737 -0.00511229 -1.43999 0
M  V30 232 H 26.1267 2.38097 -3.47689 0
M  V30 233 H 24.8507 2.38223 -2.23422 0
M  V30 234 H 23.5097 0.737121 -3.59113 0
M  V30 235 H 23.1577 3.19576 -3.88433 0
M  V30 236 H 22.8577 2.31228 -5.40192 0
M  V30 237 H 24.3817 3.21985 -5.18804 0
M  V30 238 H 25.7957 0.995056 -5.64599 0
M  V30 239 H 24.1927 0.284639 -5.99425 0
M  V30 240 H 25.2627 -0.506041 -4.82252 0
M  V30 241 N 26.6058 1.57591 -0.0167156 0
M  V30 242 C 28.0218 1.55946 0.339557 0
M  V30 243 C 28.2218 1.02109 1.73713 0
M  V30 244 O 27.2778 0.662303 2.43659 0
M  V30 245 C 28.5908 3.00037 0.199499 0
M  V30 246 C 30.1388 3.11805 0.273193 0
M  V30 247 C 30.6138 4.57713 0.162068 0
M  V30 248 N 32.1048 4.6268 0.219444 0
M  V30 249 C 32.8398 5.73185 0.157054 0
M  V30 250 N 32.3358 6.92786 0.0442936 0
M  V30 251 N 34.1288 5.61707 0.21014 0
M  V30 252 H 26.2798 1.90921 -0.930758 0
M  V30 253 H 28.5428 0.877674 -0.358319 0
M  V30 254 H 28.2488 3.4333 -0.76273 0
M  V30 255 H 28.1228 3.64387 0.974786 0
M  V30 256 H 30.5098 2.68433 1.22587 0
M  V30 257 H 30.5908 2.50201 -0.532256 0
M  V30 258 H 30.2348 5.01763 -0.78714 0
M  V30 259 H 30.1648 5.17283 0.986222 0
M  V30 260 H 32.6558 3.76649 0.307246 0
M  V30 261 H 32.9688 7.728 0.00304069 0
M  V30 262 H 31.3138 6.94999 0.00968457 0
M  V30 263 H 34.5048 4.6716 0.296546 0
M  V30 264 H 34.6778 6.47807 0.158054 0
M  V30 265 N 28.0839 -0.256276 1.55502 0
M  V30 266 C 29.0139 -1.32102 1.92539 0
M  V30 267 C 29.9949 -1.50684 0.789194 0
M  V30 268 O 31.1799 -1.63449 1.04872 0
M  V30 269 C 28.3099 -2.67752 2.21192 0
M  V30 270 C 27.2639 -2.63878 3.36975 0
M  V30 271 C 26.5899 -4.03236 3.51147 0
M  V30 272 C 27.8899 -2.21682 4.72921 0
M  V30 273 H 29.5839 -1.01351 2.81724 0
M  V30 274 H 27.1299 -0.486105 1.35547 0
M  V30 275 H 29.0829 -3.42365 2.45691 0
M  V30 276 H 27.8069 -3.0012 1.28824 0
M  V30 277 H 26.4659 -1.91722 3.12471 0
M  V30 278 H 26.1139 -4.32854 2.56216 0
M  V30 279 H 25.8139 -4.01535 4.29003 0
M  V30 280 H 27.3379 -4.79563 3.77957 0
M  V30 281 H 28.7519 -2.86023 4.96854 0
M  V30 282 H 27.1489 -2.3111 5.53812 0
M  V30 283 H 28.2189 -1.16833 4.70615 0
M  V30 284 N 29.562 -1.4872 -0.521534 0
M  V30 285 C 30.787 -1.61101 -1.30618 0
M  V30 286 C 31.212 -0.274611 -1.86085 0
M  V30 287 O 30.57 0.754937 -1.64834 0
M  V30 288 C 30.618 -2.66709 -2.4269 0
M  V30 289 O 29.722 -2.24456 -3.45967 0
M  V30 290 H 29.063 -0.539921 -0.386499 0
M  V30 291 H 31.593 -1.94767 -0.626645 0
M  V30 292 H 31.603 -2.88245 -2.88754 0
M  V30 293 H 30.278 -3.63727 -2.01682 0
M  V30 294 H 28.855 -2.13168 -3.05964 0
M  V30 295 N 31.0401 0.771051 -1.3745 0
M  V30 296 C 32.2801 1.54264 -1.34096 0
M  V30 297 C 32.6441 1.91858 0.0737639 0
M  V30 298 O 33.8451 2.67797 0.23203 0
M  V30 299 C 32.1161 2.77326 -2.25445 0
M  V30 300 S 33.6751 3.67383 -2.39948 0
M  V30 301 H 30.4931 0.528122 -0.476034 0
M  V30 302 H 33.0951 0.906633 -1.73206 0
M  V30 303 H 31.7991 2.47788 -3.27153 0
M  V30 304 H 31.3301 3.45886 -1.87421 0
M  V30 305 H 33.3451 4.69334 -1.61059 0
M  V30 306 N 32.5182 1.22032 0.997298 0
M  V30 307 C 33.4812 0.987909 2.06816 0
M  V30 308 C 34.4812 -0.0440084 1.6074 0
M  V30 309 O 35.6712 0.194053 1.73116 0
M  V30 310 C 32.8032 0.49132 3.37341 0
M  V30 311 H 33.9962 1.93803 2.28868 0
M  V30 312 H 31.5492 1.03838 1.16822 0
M  V30 313 H 32.2842 -0.463364 3.20973 0
M  V30 314 H 32.0692 1.23575 3.72118 0
M  V30 315 H 33.5592 0.348824 4.16141 0
M  V30 316 N 33.9963 -1.19345 1.0293 0
M  V30 317 C 35.2443 -1.88665 0.724574 0
M  V30 318 C 35.5653 -1.80036 -0.749144 0
M  V30 319 O 34.8353 -1.2111 -1.53978 0
M  V30 320 H 33.4153 -0.698406 0.265025 0
M  V30 321 H 36.0773 -1.44885 1.30362 0
M  V30 322 H 35.1733 -2.94987 1.01926 0
M  V30 323 N 35.4744 -0.807222 -1.35358 0
M  V30 324 C 36.6994 -0.399309 -2.0352 0
M  V30 325 C 37.1244 0.981986 -1.60433 0
M  V30 326 O 36.4824 1.63601 -0.781299 0
M  V30 327 C 36.5304 -0.491552 -3.57234 0
M  V30 328 O 35.6344 0.494754 -4.09421 0
M  V30 329 H 34.9754 -0.166682 -0.642739 0
M  V30 330 H 37.5054 -1.09328 -1.72941 0
M  V30 331 H 37.5154 -0.361588 -4.06395 0
M  V30 332 H 36.1904 -1.49907 -3.87944 0
M  V30 333 H 34.7674 0.324977 -3.71481 0
M  V30 334 N 36.9525 1.47285 -0.560781 0
M  V30 335 C 38.2005 2.02064 -0.0379868 0
M  V30 336 C 38.5215 1.43711 1.31803 0
M  V30 337 O 37.7915 0.61362 1.86042 0
M  V30 338 H 36.3715 0.746918 -0.0110531 0
M  V30 339 H 39.0335 1.80648 -0.731598 0
M  V30 340 H 38.1295 3.12064 0.0474463 0
M  V30 341 N 38.4306 0.297415 1.54768 0
M  V30 342 C 39.6776 -0.312913 2.00068 0
M  V30 343 C 40.0056 -1.54171 1.18582 0
M  V30 344 O 39.2606 -1.94108 0.249133 0
M  V30 345 C 39.5596 -0.717561 3.50123 0
M  V30 346 C 39.2256 0.409095 4.4904 0
M  V30 347 C 37.8876 0.718399 4.75807 0
M  V30 348 C 40.2396 1.16717 5.07963 0
M  V30 349 C 37.5676 1.78896 5.5876 0
M  V30 350 C 39.9196 2.22762 5.92081 0
M  V30 351 C 38.5836 2.54303 6.1716 0
M  V30 352 H 37.8536 -0.114503 0.7321 0
M  V30 353 H 40.5006 0.415767 1.86932 0
M  V30 354 H 38.8056 -1.52627 3.60849 0
M  V30 355 H 40.5026 -1.20091 3.82595 0
M  V30 356 H 37.0926 0.157918 4.28309 0
M  V30 357 H 41.2766 0.941466 4.87289 0
M  V30 358 H 36.5326 2.0381 5.7643 0
M  V30 359 H 40.7066 2.81962 6.36765 0
M  V30 360 H 38.3336 3.3739 6.81229 0
M  V30 361 N 39.9087 -1.5758 0.0250728 0
M  V30 362 C 41.1367 -1.9593 -0.664747 0
M  V30 363 C 41.5517 -0.901352 -1.65895 0
M  V30 364 O 40.9087 0.117255 -1.82123 0
M  V30 365 C 40.9597 -3.34342 -1.37468 0
M  V30 366 O 40.6807 -4.36079 -0.420324 0
M  V30 367 C 42.1817 -3.873 -2.1567 0
M  V30 368 H 39.4017 -0.645405 -0.183557 0
M  V30 369 H 41.9457 -2.04329 0.0836372 0
M  V30 370 H 40.1007 -3.27175 -2.0745 0
M  V30 371 H 40.5147 -5.16297 -0.923991 0
M  V30 372 H 41.9887 -4.86504 -2.60803 0
M  V30 373 H 42.4657 -3.21331 -2.99405 0
M  V30 374 H 43.0717 -3.97723 -1.50654 0
M  V30 375 N 41.3868 0.248026 -1.55636 0
M  V30 376 C 42.6338 0.976224 -1.77415 0
M  V30 377 C 42.9618 1.85361 -0.589193 0
M  V30 378 O 42.2168 1.90973 0.427529 0
M  V30 379 C 42.5158 1.86819 -3.04686 0
M  V30 380 C 42.1818 1.14625 -4.36087 0
M  V30 381 C 40.8438 0.946723 -4.71795 0
M  V30 382 C 43.1958 0.634463 -5.17324 0
M  V30 383 C 40.5238 0.223091 -5.86276 0
M  V30 384 C 42.8758 -0.0756959 -6.32555 0
M  V30 385 C 41.5398 -0.286711 -6.66884 0
M  V30 386 H 40.8098 0.357226 -0.649208 0
M  V30 387 H 43.4568 0.246415 -1.89908 0
M  V30 388 H 41.7618 2.66502 -2.872 0
M  V30 389 H 43.4588 2.43329 -3.18735 0
M  V30 390 H 40.0488 1.3117 -4.08035 0
M  V30 391 H 44.2328 0.77616 -4.90193 0
M  V30 392 H 39.4888 0.0491185 -6.1138 0
M  V30 393 H 43.6628 -0.479899 -6.94745 0
M  V30 394 H 41.2898 -0.849389 -7.5544 0
M  V30 395 N 42.8649 1.48995 0.513639 0
M  V30 396 C 44.2809 1.35478 0.843682 0
M  V30 397 C 44.4809 0.378213 1.97919 0
M  V30 398 O 43.5369 -0.194689 2.51748 0
M  V30 399 C 44.8499 2.75901 1.1958 0
M  V30 400 C 46.3979 2.84509 1.30474 0
M  V30 401 C 46.8729 4.25671 1.69021 0
M  V30 402 N 48.3639 4.28422 1.76094 0
M  V30 403 C 49.0989 5.34601 2.07338 0
M  V30 404 N 48.5949 6.5104 2.36894 0
M  V30 405 N 50.3879 5.22007 2.08483 0
M  V30 406 H 42.5389 2.11092 -0.235328 0
M  V30 407 H 44.8019 0.947039 -0.0426669 0
M  V30 408 H 44.5079 3.49001 0.434913 0
M  V30 409 H 44.3819 3.10467 2.1422 0
M  V30 410 H 46.7689 2.11655 2.05637 0
M  V30 411 H 46.8499 2.53542 0.339155 0
M  V30 412 H 46.4939 4.99048 0.944135 0
M  V30 413 H 46.4239 4.54094 2.66658 0
M  V30 414 H 48.9149 3.44441 1.55464 0
M  V30 415 H 49.2279 7.2779 2.59887 0
M  V30 416 H 47.5729 6.54287 2.34378 0
M  V30 417 H 50.7639 4.30051 1.84861 0
M  V30 418 H 50.9369 6.04854 2.325 0
M  V30 419 N 44.343 -0.763751 1.37857 0
M  V30 420 C 45.62 -1.51244 1.24035 0
M  V30 421 C 46 -2.10472 -0.162649 0
M  V30 422 O 45.348 -1.96206 -1.17112 0
M  V30 423 C 45.558 -2.58694 2.34261 0
M  V30 424 C 46.906 -3.25878 2.72193 0
M  V30 425 O 47.93 -2.68993 2.33497 0
M  V30 426 O 46.789 -4.2874 3.38887 0
M  V30 427 H 43.883 -0.670243 0.484462 0
M  V30 428 H 46.429 -0.800031 1.49658 0
M  V30 429 H 45.201 -2.13105 3.2818 0
M  V30 430 H 44.824 -3.37527 2.10146 0
M  V30 431 N 45.8211 -1.22559 -0.990812 0
M  V30 432 C 47.0511 -1.07623 -1.76355 0
M  V30 433 C 47.4591 0.37601 -1.85426 0
M  V30 434 O 46.8021 1.27228 -1.32509 0
M  V30 435 C 46.8641 -1.61507 -3.21179 0
M  V30 436 C 46.5281 -3.10146 -3.35646 0
M  V30 437 C 47.5251 -4.07553 -3.22796 0
M  V30 438 C 45.2101 -3.49644 -3.60631 0
M  V30 439 C 47.2041 -5.42442 -3.34716 0
M  V30 440 C 44.8911 -4.84682 -3.72192 0
M  V30 441 C 45.8891 -5.8089 -3.59243 0
M  V30 442 O 45.5771 -7.13476 -3.70415 0
M  V30 443 H 45.3091 -0.377745 -0.560611 0
M  V30 444 H 47.8631 -1.62658 -1.25425 0
M  V30 445 H 46.0931 -1.00881 -3.73309 0
M  V30 446 H 47.7821 -1.42202 -3.80175 0
M  V30 447 H 48.5481 -3.78381 -3.03403 0
M  V30 448 H 44.4271 -2.75282 -3.69785 0
M  V30 449 H 47.9711 -6.17518 -3.24526 0
M  V30 450 H 43.8681 -5.13534 -3.91092 0
M  V30 451 H 44.6361 -7.21083 -3.87275 0
M  V30 452 N 47.2992 1.18797 -1.03562 0
M  V30 453 C 48.2622 2.20464 -0.626769 0
M  V30 454 C 49.2622 1.57721 0.313173 0
M  V30 455 O 50.4522 1.73917 0.0992615 0
M  V30 456 C 47.5842 3.40802 0.0818498 0
M  V30 457 H 48.7772 2.58149 -1.5264 0
M  V30 458 H 46.3302 1.32593 -0.827578 0
M  V30 459 H 47.0652 3.08642 0.995518 0
M  V30 460 H 46.8502 3.8758 -0.593652 0
M  V30 461 H 48.3402 4.16092 0.354584 0
M  V30 462 N 48.7773 0.814389 1.34928 0
M  V30 463 C 49.7103 0.175641 2.27523 0
M  V30 464 C 50.6883 -0.662953 1.48471 0
M  V30 465 O 51.8723 -0.628545 1.77712 0
M  V30 466 C 48.9993 -0.755516 3.30166 0
M  V30 467 C 48.0453 0.00445305 4.265 0
M  V30 468 S 48.8783 1.34582 5.18313 0
M  V30 469 C 50.0343 0.419315 6.24494 0
M  V30 470 H 50.2673 0.960691 2.8135 0
M  V30 471 H 47.8003 0.609846 1.41846 0
M  V30 472 H 49.7583 -1.28723 3.89796 0
M  V30 473 H 48.4193 -1.51402 2.75202 0
M  V30 474 H 47.6123 -0.703077 4.99072 0
M  V30 475 H 47.2143 0.466447 3.7108 0
M  V30 476 H 49.5063 -0.392432 6.76362 0
M  V30 477 H 50.4493 1.11446 6.99275 0
M  V30 478 H 50.8573 0.0115389 5.64499 0
M  V30 479 N 50.2554 -1.46986 0.568584 0
M  V30 480 C 51.4834 -2.0683 0.0539956 0
M  V30 481 C 51.8984 -1.41953 -1.24478 0
M  V30 482 O 51.2554 -0.519933 -1.74937 0
M  V30 483 C 51.3064 -3.61254 -0.133362 0
M  V30 484 O 51.0274 -4.237 1.11399 0
M  V30 485 C 52.5284 -4.37992 -0.683927 0
M  V30 486 H 49.7484 -0.669058 0.0510141 0
M  V30 487 H 52.2924 -1.88824 0.785234 0
M  V30 488 H 50.4474 -3.78735 -0.81477 0
M  V30 489 H 50.8614 -5.16388 0.91888 0
M  V30 490 H 52.3354 -5.46684 -0.764263 0
M  V30 491 H 52.8124 -4.05058 -1.69778 0
M  V30 492 H 53.4184 -4.25283 -0.0378494 0
M  V30 493 N 51.7335 -0.305618 -1.54608 0
M  V30 494 C 52.9795 0.295595 -2.01241 0
M  V30 495 C 53.3345 1.51171 -1.19018 0
M  V30 496 O 52.6275 1.89832 -0.259684 0
M  V30 497 C 52.8215 0.698983 -3.50498 0
M  V30 498 C 52.6505 -0.476491 -4.47168 0
M  V30 499 C 51.4205 -0.969963 -4.95903 0
M  V30 500 C 53.6185 -1.32294 -4.96994 0
M  V30 501 N 51.6005 -2.11172 -5.76437 0
M  V30 502 C 52.9715 -2.31212 -5.75275 0
M  V30 503 C 55.0265 -1.35278 -4.7917 0
M  V30 504 C 53.7295 -3.32896 -6.37631 0
M  V30 505 C 55.7555 -2.35823 -5.42348 0
M  V30 506 C 55.1175 -3.33469 -6.20466 0
M  V30 507 H 51.2165 0.0724992 -0.778632 0
M  V30 508 H 53.8005 -0.436583 -1.89742 0
M  V30 509 H 51.9715 1.40032 -3.62278 0
M  V30 510 H 53.7035 1.28013 -3.8392 0
M  V30 511 H 50.4585 -0.544178 -4.70463 0
M  V30 512 H 50.8825 -2.68714 -6.21387 0
M  V30 513 H 55.5245 -0.61157 -4.18354 0
M  V30 514 H 53.2425 -4.07933 -6.97579 0
M  V30 515 H 56.8285 -2.38911 -5.30484 0
M  V30 516 H 55.7085 -4.09996 -6.68485 0
M  V30 517 N 53.2116 1.57565 -0.0334293 0
M  V30 518 C 54.4576 1.92262 0.645226 0
M  V30 519 C 54.7906 0.910543 1.71531 0
M  V30 520 O 54.0656 -0.066099 1.94388 0
M  V30 521 C 54.3486 3.37422 1.2577 0
M  V30 522 C 54.2016 4.49369 0.196891 0
M  V30 523 C 55.5206 3.82628 2.17449 0
M  V30 524 H 52.6396 0.699171 0.233085 0
M  V30 525 H 55.2816 1.89779 -0.0915694 0
M  V30 526 H 53.4316 3.39669 1.88566 0
M  V30 527 H 55.1036 4.59254 -0.433962 0
M  V30 528 H 53.3466 4.31168 -0.477137 0
M  V30 529 H 54.0176 5.47978 0.665124 0
M  V30 530 H 56.4936 3.82145 1.64634 0
M  V30 531 H 55.3696 4.84883 2.57254 0
M  V30 532 H 55.6306 3.18376 3.0674 0
M  V30 533 N 54.6897 -0.239769 1.55765 0
M  V30 534 C 56.1057 -0.588624 1.48349 0
M  V30 535 C 56.3057 -1.88005 0.72502 0
M  V30 536 O 55.3617 -2.51186 0.257269 0
M  V30 537 C 56.6747 -0.68474 2.928 0
M  V30 538 C 58.2227 -0.77659 3.03213 0
M  V30 539 C 58.6977 -0.904207 4.48986 0
M  V30 540 N 60.1887 -0.968896 4.52953 0
M  V30 541 C 60.9237 -1.08703 5.63002 0
M  V30 542 N 60.4197 -1.17026 6.82845 0
M  V30 543 N 62.2127 -1.12074 5.50814 0
M  V30 544 H 54.3637 0.607911 2.03515 0
M  V30 545 H 56.6267 0.21083 0.924259 0
M  V30 546 H 56.3327 0.194284 3.51163 0
M  V30 547 H 56.2067 -1.55435 3.43686 0
M  V30 548 H 58.5937 -1.64606 2.44926 0
M  V30 549 H 58.6747 0.118315 2.55526 0
M  V30 550 H 58.3187 -0.0392633 5.07885 0
M  V30 551 H 58.2487 -1.81426 4.9436 0
M  V30 552 H 60.7397 -0.915633 3.6664 0
M  V30 553 H 61.0527 -1.25966 7.62465 0
M  V30 554 H 59.3977 -1.13971 6.85591 0
M  V30 555 H 62.5887 -1.05226 4.5612 0
M  V30 556 H 62.7617 -1.20936 6.36615 0
M  V30 557 N 56.1678 -1.49265 -0.50573 0
M  V30 558 C 57.0998 -1.617 -1.62437 0
M  V30 559 C 58.1128 -0.499924 -1.54934 0
M  V30 560 O 59.3018 -0.771785 -1.60953 0
M  V30 561 C 56.4018 -1.5533 -3.01207 0
M  V30 562 C 55.5748 -2.8249 -3.33943 0
M  V30 563 C 54.6338 -2.69238 -4.52103 0
M  V30 564 O 53.6598 -3.43167 -4.5412 0
M  V30 565 N 54.8618 -1.80468 -5.51735 0
M  V30 566 H 57.6268 -2.58177 -1.52199 0
M  V30 567 H 55.1878 -1.46294 -0.693511 0
M  V30 568 H 57.1798 -1.44125 -3.78167 0
M  V30 569 H 55.7498 -0.667297 -3.05395 0
M  V30 570 H 54.9698 -3.08081 -2.45926 0
M  V30 571 H 56.2578 -3.66802 -3.5261 0
M  V30 572 H 55.6558 -1.19653 -5.52901 0
M  V30 573 H 54.2128 -1.75188 -6.27816 0
M  V30 574 N 57.6459 0.756429 -1.3826 0
M  V30 575 C 58.6089 1.85176 -1.35065 0
M  V30 576 C 59.6089 1.58818 -0.251703 0
M  V30 577 O 60.7989 1.66615 -0.508433 0
M  V30 578 C 57.9309 3.22596 -1.10201 0
M  V30 579 H 59.1239 1.89417 -2.3251 0
M  V30 580 H 56.6769 0.95783 -1.23512 0
M  V30 581 H 57.4119 3.24025 -0.133504 0
M  V30 582 H 57.1969 3.43122 -1.89762 0
M  V30 583 H 58.6869 4.02673 -1.10654 0
M  V30 584 N 59.124 1.23083 0.984299 0
M  V30 585 C 60.535 1.05609 1.5396 0
M  V30 586 C 60.886 -0.377793 1.92528 0
M  V30 587 O 60.011 -1.26398 1.75649 0
M  V30 588 C 60.606 1.91087 2.7977 0
M  V30 589 C 59.165 1.77885 3.31713 0
M  V30 590 C 58.312 1.87028 2.04733 0
M  V30 591 H 61.263 1.36802 0.804419 0
M  V30 592 H 61.284 1.43336 3.5247 0
M  V30 593 H 60.796 2.9544 2.51668 0
M  V30 594 H 58.897 0.762995 3.64704 0
M  V30 595 H 59.01 2.61047 4.01735 0
M  V30 596 H 57.374 1.30565 2.18689 0
M  V30 597 H 58.157 2.92929 1.79017 0
M  V30 598 N 60.6021 -1.18246 1.0419 0
M  V30 599 C 61.8501 -1.87886 0.744543 0
M  V30 600 C 62.1711 -1.8082 -0.730006 0
M  V30 601 O 61.4411 -1.22736 -1.52685 0
M  V30 602 H 60.0211 -0.695556 0.272417 0
M  V30 603 H 62.6831 -1.43494 1.31892 0
M  V30 604 H 61.7791 -2.9389 1.05049 0
M  V30 605 N 62.0802 -0.821533 -1.34494 0
M  V30 606 C 63.0272 -0.240397 -2.29545 0
M  V30 607 C 63.9972 0.634031 -1.53523 0
M  V30 608 O 65.1822 0.575966 -1.81899 0
M  V30 609 C 62.3222 0.592869 -3.39969 0
M  V30 610 C 61.4352 -0.30365 -4.30932 0
M  V30 611 C 60.5702 0.539049 -5.28458 0
M  V30 612 C 59.6092 -0.356942 -6.11058 0
M  V30 613 N 58.7462 0.446603 -7.00678 0
M  V30 614 H 63.5862 -1.05632 -2.7865 0
M  V30 615 H 61.1232 -0.532413 -1.37127 0
M  V30 616 H 63.0812 1.09129 -4.02675 0
M  V30 617 H 61.7112 1.37392 -2.92102 0
M  V30 618 H 60.7632 -0.920276 -3.691 0
M  V30 619 H 62.0752 -0.992661 -4.88823 0
M  V30 620 H 61.2292 1.102 -5.96608 0
M  V30 621 H 59.9682 1.26157 -4.71101 0
M  V30 622 H 58.9732 -0.932047 -5.41842 0
M  V30 623 H 60.1982 -1.07755 -6.70497 0
M  V30 624 H 58.1442 1.15282 -6.45791 0
M  V30 625 H 58.0612 -0.184048 -7.55776 0
M  V30 626 H 59.3292 0.992352 -7.73158 0
M  V30 627 N 63.5583 1.46682 -0.576371 0
M  V30 628 C 64.8063 2.02013 -0.0594163 0
M  V30 629 C 65.1273 1.45101 1.30271 0
M  V30 630 O 64.3973 0.633317 1.8538 0
M  V30 631 H 62.9773 0.746759 -0.0189745 0
M  V30 632 H 65.6393 1.79862 -0.750717 0
M  V30 633 H 64.7353 3.12097 0.014345 0
M  V30 634 N 65.0364 0.313813 1.54444 0
M  V30 635 C 65.9664 -0.549454 2.26943 0
M  V30 636 C 66.9474 -1.12741 1.27372 0
M  V30 637 O 68.1324 -1.15436 1.56167 0
M  V30 638 C 65.2624 -1.71523 3.01989 0
M  V30 639 C 64.2164 -1.26703 4.08816 0
M  V30 640 C 63.5424 -2.51898 4.71647 0
M  V30 641 C 64.8424 -0.388962 5.2085 0
M  V30 642 H 66.5364 0.0552661 2.99349 0
M  V30 643 H 64.0824 0.0280207 1.43973 0
M  V30 644 H 66.0354 -2.32535 3.51433 0
M  V30 645 H 64.7594 -2.34639 2.27183 0
M  V30 646 H 63.4184 -0.679896 3.6024 0
M  V30 647 H 63.0664 -3.13356 3.93468 0
M  V30 648 H 62.7664 -2.22605 5.43802 0
M  V30 649 H 64.2904 -3.1369 5.23861 0
M  V30 650 H 65.7044 -0.905107 5.6611 0
M  V30 651 H 64.1014 -0.18924 5.99802 0
M  V30 652 H 65.1714 0.582699 4.81386 0
M  V30 653 N 66.5145 -1.57545 0.0417849 0
M  V30 654 C 67.4245 -2.14451 -0.951213 0
M  V30 655 C 68.4405 -1.09992 -1.34825 0
M  V30 656 O 69.6165 -1.42114 -1.42708 0
M  V30 657 C 66.6815 -2.67063 -2.21084 0
M  V30 658 C 65.7425 -3.86284 -1.87304 0
M  V30 659 C 64.9755 -4.36378 -3.07261 0
M  V30 660 O 65.1985 -3.85587 -4.20332 0
M  V30 661 O 64.1325 -5.28077 -2.88822 0
M  V30 662 H 67.9585 -2.99601 -0.497287 0
M  V30 663 H 65.5435 -1.48317 -0.179567 0
M  V30 664 H 67.4255 -3.00914 -2.95006 0
M  V30 665 H 66.1005 -1.84989 -2.65633 0
M  V30 666 H 65.0075 -3.57338 -1.10727 0
M  V30 667 H 66.3405 -4.6956 -1.47562 0
M  V30 668 N 67.9926 0.231505 -1.5589 0
M  V30 669 C 69.2386 0.954429 -1.79617 0
M  V30 670 C 69.5936 1.82367 -0.613199 0
M  V30 671 O 68.8866 1.87524 0.393094 0
M  V30 672 C 69.0806 1.83577 -3.0665 0
M  V30 673 C 68.9096 1.05334 -4.3719 0
M  V30 674 C 67.6796 0.75225 -4.99669 0
M  V30 675 C 69.8776 0.423444 -5.12554 0
M  V30 676 N 67.8596 -0.052627 -6.13877 0
M  V30 677 C 69.2306 -0.245287 -6.19515 0
M  V30 678 C 71.2856 0.335466 -4.96769 0
M  V30 679 C 69.9886 -0.993566 -7.12405 0
M  V30 680 C 72.0146 -0.399321 -5.9005 0
M  V30 681 C 71.3766 -1.05663 -6.9643 0
M  V30 682 H 67.4756 0.329846 -0.709031 0
M  V30 683 H 70.0596 0.226172 -1.93382 0
M  V30 684 H 68.2306 2.53592 -2.94186 0
M  V30 685 H 69.9626 2.49541 -3.18608 0
M  V30 686 H 66.7176 1.06783 -4.61405 0
M  V30 687 H 67.1416 -0.443609 -6.75545 0
M  V30 688 H 71.7836 0.829311 -4.14587 0
M  V30 689 H 69.5016 -1.49896 -7.94076 0
M  V30 690 H 73.0876 -0.468265 -5.79913 0
M  V30 691 H 71.9676 -1.61612 -7.67366 0
M  V30 692 N 69.4707 1.49531 0.497807 0
M  V30 693 C 70.7167 1.59415 1.25358 0
M  V30 694 C 71.0497 0.281422 1.9215 0
M  V30 695 O 70.3247 -0.715249 1.80871 0
M  V30 696 C 70.6077 2.75566 2.3181 0
M  V30 697 C 70.4607 4.16642 1.69498 0
M  V30 698 C 71.7797 2.87347 3.33346 0
M  V30 699 H 68.8987 0.580244 0.454408 0
M  V30 700 H 71.5407 1.81827 0.551262 0
M  V30 701 H 69.6907 2.56587 2.91711 0
M  V30 702 H 71.3627 4.47145 1.13399 0
M  V30 703 H 69.6057 4.22141 0.998978 0
M  V30 704 H 70.2767 4.93792 2.46725 0
M  V30 705 H 72.7527 3.04634 2.83438 0
M  V30 706 H 71.6287 3.70289 4.05188 0
M  V30 707 H 71.8897 1.96834 3.95865 0
M  V30 708 N 70.9488 -0.749086 1.3866 0
M  V30 709 C 72.1738 -1.54344 1.38538 0
M  V30 710 C 72.5988 -1.88088 -0.0216655 0
M  V30 711 O 71.9568 -1.50899 -1.00494 0
M  V30 712 C 72.0048 -2.8164 2.25192 0
M  V30 713 O 71.1088 -3.7698 1.67212 0
M  V30 714 H 70.4498 -0.466654 0.472367 0
M  V30 715 H 72.9798 -0.925355 1.82478 0
M  V30 716 H 72.9898 -3.30519 2.3921 0
M  V30 717 H 71.6648 -2.56411 3.27454 0
M  V30 718 H 70.2418 -3.35699 1.6236 0
M  V30 719 N 72.4269 -1.23603 -0.977757 0
M  V30 720 C 73.6519 -1.09735 -1.75991 0
M  V30 721 C 74.0769 0.346858 -1.84874 0
M  V30 722 O 73.4349 1.25093 -1.3123 0
M  V30 723 C 73.4829 -1.73051 -3.16363 0
M  V30 724 O 72.5869 -0.994452 -4.0023 0
M  V30 725 H 71.9279 -0.384476 -0.541364 0
M  V30 726 H 74.4579 -1.6371 -1.2272 0
M  V30 727 H 74.4679 -1.78398 -3.66931 0
M  V30 728 H 73.1429 -2.78137 -3.09213 0
M  V30 729 H 71.7199 -1.01812 -3.58732 0
M  V30 730 N 73.905 1.17692 -1.04816 0
M  V30 731 C 75.154 1.87192 -0.751132 0
M  V30 732 C 75.467 1.8169 0.724441 0
M  V30 733 O 76.673 2.46625 1.13527 0
M  V30 734 C 75.129 3.35857 -1.29338 0
M  V30 735 C 74.737 3.4987 -2.79812 0
M  V30 736 C 76.481 4.10709 -1.07322 0
M  V30 737 C 74.388 4.92536 -3.27356 0
M  V30 738 H 73.318 0.701162 -0.277288 0
M  V30 739 H 75.969 1.32932 -1.26496 0
M  V30 740 H 74.351 3.89631 -0.707376 0
M  V30 741 H 75.525 3.06332 -3.44235 0
M  V30 742 H 73.84 2.88433 -3.00325 0
M  V30 743 H 76.437 5.15952 -1.4035 0
M  V30 744 H 76.78 4.16299 -0.0108001 0
M  V30 745 H 77.313 3.6313 -1.62423 0
M  V30 746 H 74.052 4.92119 -4.33012 0
M  V30 747 H 73.572 5.3676 -2.67673 0
M  V30 748 H 75.251 5.61288 -3.21815 0
M  V30 749 N 75.3831 0.828654 1.34056 0
M  V30 750 C 76.6081 0.431637 2.02859 0
M  V30 751 C 77.0331 -0.956339 1.61975 0
M  V30 752 O 76.3911 -1.62338 0.807228 0
M  V30 753 C 76.4391 0.548323 3.56407 0
M  V30 754 O 75.5431 -0.429556 4.10157 0
M  V30 755 H 74.8841 0.176886 0.640006 0
M  V30 756 H 77.4141 1.12066 1.71179 0
M  V30 757 H 77.4241 0.426196 4.05768 0
M  V30 758 H 76.0991 1.5606 3.8551 0
M  V30 759 H 74.6761 -0.265836 3.71951 0
M  V30 760 N 76.8612 -1.46375 0.584142 0
M  V30 761 C 78.1092 -2.01978 0.0701287 0
M  V30 762 C 78.4302 -1.4579 -1.295 0
M  V30 763 O 77.7002 -0.64314 -1.85042 0
M  V30 764 H 76.2802 -0.746648 0.0229345 0
M  V30 765 H 78.9422 -1.79461 0.760245 0
M  V30 766 H 78.0382 -3.121 0.0022064 0
M  V30 767 N 78.3393 -0.321999 -1.54275 0
M  V30 768 C 79.5643 0.285791 -2.05422 0
M  V30 769 C 79.9893 1.45124 -1.19669 0
M  V30 770 O 79.3473 1.80132 -0.205441 0
M  V30 771 C 79.3953 0.69956 -3.53749 0
M  V30 772 O 78.4993 1.8021 -3.70942 0
M  V30 773 H 77.8403 0.0518962 -0.661969 0
M  V30 774 H 80.3703 -0.469954 -1.9913 0
M  V30 775 H 80.3803 0.982649 -3.9599 0
M  V30 776 H 79.0553 -0.152864 -4.15619 0
M  V30 777 H 77.6323 1.51794 -3.40607 0
M  V30 778 N 79.8174 1.5752 -0.0501392 0
M  V30 779 C 81.0654 1.9227 0.622642 0
M  V30 780 C 81.3864 0.929083 1.71444 0
M  V30 781 O 80.6564 -0.0262186 1.95882 0
M  V30 782 H 79.2364 0.709739 0.232981 0
M  V30 783 H 81.8984 1.94628 -0.102898 0
M  V30 784 H 80.9944 2.93479 1.06191 0
M  V30 785 N 81.2955 -0.223234 1.56011 0
M  V30 786 C 82.5435 -0.946003 1.78592 0
M  V30 787 C 82.8645 -1.84936 0.618349 0
M  V30 788 O 82.1345 -1.92473 -0.364833 0
M  V30 789 H 80.7145 -0.352298 0.658707 0
M  V30 790 H 83.3765 -0.235494 1.93472 0
M  V30 791 H 82.4725 -1.55381 2.70672 0
M  V30 792 N 82.7736 -1.49793 -0.48987 0
M  V30 793 C 83.7216 -1.67783 -1.61095 0
M  V30 794 C 84.7156 -0.543683 -1.60438 0
M  V30 795 O 85.9216 -0.723647 -1.64813 0
M  V30 796 H 82.2966 -0.529255 -0.534222 0
M  V30 797 H 84.2676 -2.61861 -1.43078 0
M  V30 798 C 83.0166 -1.77191 -2.99164 0
M  V30 799 H 82.3396 -2.63841 -3.0038 0
M  V30 800 H 83.7796 -1.93809 -3.77113 0
M  V30 801 C 82.2386 -0.519203 -3.32875 0
M  V30 802 O 82.7686 0.350124 -4.00171 0
M  V30 803 N 80.9746 -0.378816 -2.8812 0
M  V30 804 H 80.5216 -1.08725 -2.33531 0
M  V30 805 H 80.4796 0.458239 -3.11043 0
M  V30 806 N 84.2517 0.741722 -1.39055 0
M  V30 807 C 85.4797 1.53098 -1.39171 0
M  V30 808 C 85.8947 1.88794 0.0155099 0
M  V30 809 O 85.2517 1.53626 0.985159 0
M  V30 810 C 85.3027 2.82274 -2.2584 0
M  V30 811 O 85.0237 2.48097 -3.61081 0
M  V30 812 C 86.5247 3.76343 -2.34266 0
M  V30 813 H 83.7447 0.473335 -0.4756 0
M  V30 814 H 86.2887 0.917045 -1.82785 0
M  V30 815 H 84.4437 3.40015 -1.85656 0
M  V30 816 H 84.8577 3.31029 -4.06842 0
M  V30 817 H 86.3317 4.63898 -2.9917 0
M  V30 818 H 86.8087 4.17619 -1.35982 0
M  V30 819 H 87.4147 3.24523 -2.74891 0
M  V30 820 N 85.7298 1.2412 0.971189 0
M  V30 821 C 86.9598 1.10415 1.7462 0
M  V30 822 C 87.3678 -0.346462 1.86001 0
M  V30 823 O 86.7108 -1.25104 1.34517 0
M  V30 824 C 86.7728 1.66596 3.18568 0
M  V30 825 C 86.4368 3.15446 3.3067 0
M  V30 826 C 87.4338 4.12636 3.16271 0
M  V30 827 C 85.1188 3.55337 3.55022 0
M  V30 828 C 87.1128 5.47699 3.26044 0
M  V30 829 C 84.7998 4.90542 3.64434 0
M  V30 830 C 85.7978 5.86532 3.49956 0
M  V30 831 O 85.4858 7.19279 3.59017 0
M  V30 832 H 85.2178 0.386616 0.55453 0
M  V30 833 H 87.7718 1.64633 1.22821 0
M  V30 834 H 86.0018 1.06808 3.71657 0
M  V30 835 H 87.6908 1.48232 3.77865 0
M  V30 836 H 88.4568 3.8316 2.97344 0
M  V30 837 H 84.3358 2.8113 3.65359 0
M  V30 838 H 87.8798 6.22603 3.14661 0
M  V30 839 H 83.7768 5.19691 3.82873 0
M  V30 840 H 84.5448 7.27153 3.75754 0
M  V30 841 N 87.2079 -1.17134 1.05439 0
M  V30 842 C 88.4379 -1.91094 0.785274 0
M  V30 843 C 88.8459 -1.77198 -0.663142 0
M  V30 844 O 88.1889 -1.10835 -1.46497 0
M  V30 845 C 88.2509 -3.42594 1.08949 0
M  V30 846 C 87.9149 -3.80274 2.53458 0
M  V30 847 C 88.9119 -3.82912 3.51673 0
M  V30 848 C 86.5969 -4.11162 2.88532 0
M  V30 849 C 88.5909 -4.15913 4.83006 0
M  V30 850 C 86.2779 -4.43831 4.20068 0
M  V30 851 C 87.2759 -4.46185 5.17115 0
M  V30 852 O 86.9639 -4.78083 6.46291 0
M  V30 853 H 86.6959 -0.613073 0.284811 0
M  V30 854 H 89.2499 -1.49461 1.40893 0
M  V30 855 H 87.4799 -3.84534 0.408741 0
M  V30 856 H 89.1689 -3.97817 0.805991 0
M  V30 857 H 89.9349 -3.5917 3.25917 0
M  V30 858 H 85.8139 -4.085 2.13656 0
M  V30 859 H 89.3579 -4.17665 5.5875 0
M  V30 860 H 85.2549 -4.67037 4.45586 0
M  V30 861 H 86.0229 -4.9593 6.51149 0
M  V30 862 N 88.686 -0.835752 -1.33615 0
M  V30 863 C 89.649 -0.272 -2.2758 0
M  V30 864 C 90.649 0.557487 -1.50827 0
M  V30 865 O 91.839 0.37173 -1.70188 0
M  V30 866 C 88.971 0.617173 -3.35267 0
M  V30 867 H 90.164 -1.10111 -2.78954 0
M  V30 868 H 87.717 -0.608594 -1.43965 0
M  V30 869 H 88.452 1.46884 -2.89129 0
M  V30 870 H 88.237 0.0237066 -3.92093 0
M  V30 871 H 89.727 1.005 -4.05326 0
M  V30 872 N 90.1641 1.46063 -0.591896 0
M  V30 873 C 91.4411 1.95595 -0.0137119 0
M  V30 874 C 91.8211 1.5345 1.4497 0
M  V30 875 O 91.1691 0.789543 2.14426 0
M  V30 876 C 91.3791 3.48453 -0.195373 0
M  V30 877 C 92.7271 4.24546 -0.0679765 0
M  V30 878 O 93.7511 3.55982 -0.124681 0
M  V30 879 O 92.6101 5.46467 0.0600579 0
M  V30 880 H 89.7041 0.825795 0.0446279 0
M  V30 881 H 92.2501 1.56303 -0.660859 0
M  V30 882 H 91.0221 3.72045 -1.21235 0
M  V30 883 H 90.6451 3.94597 0.487775 0
M  V30 884 N 91.6422 0.330177 1.54103 0
M  V30 885 C 92.8672 -0.274893 2.0557 0
M  V30 886 C 93.2922 -1.44487 1.20437 0
M  V30 887 O 92.6502 -1.80021 0.214991 0
M  V30 888 C 92.6982 -0.68079 3.54115 0
M  V30 889 O 91.8022 -1.7824 3.71893 0
M  V30 890 H 91.1432 -0.0483849 0.662235 0
M  V30 891 H 93.6732 0.480508 1.98878 0
M  V30 892 H 93.6832 -0.961635 3.96505 0
M  V30 893 H 92.3582 0.174903 4.15532 0
M  V30 894 H 90.9352 -1.49985 3.41407 0
M  V30 895 N 93.1203 -1.57491 0.0584922 0
M  V30 896 C 94.3663 -1.93264 -0.614558 0
M  V30 897 C 94.6993 -0.937717 -1.7006 0
M  V30 898 O 93.9743 0.0351652 -1.94468 0
M  V30 899 C 94.2573 -3.3938 -1.20386 0
M  V30 900 C 94.1103 -4.49625 -0.125375 0
M  V30 901 C 95.4293 -3.86039 -2.11334 0
M  V30 902 H 92.5483 -0.702791 -0.221933 0
M  V30 903 H 95.1903 -1.8961 0.12175 0
M  V30 904 H 93.3403 -3.42626 -1.83139 0
M  V30 905 H 95.0123 -4.58506 0.506971 0
M  V30 906 H 93.2553 -4.30354 0.545672 0
M  V30 907 H 93.9263 -5.48967 -0.577861 0
M  V30 908 H 96.4023 -3.84716 -1.58534 0
M  V30 909 H 95.2783 -4.88914 -2.49507 0
M  V30 910 H 95.5393 -3.23215 -3.01636 0
M  V30 911 N 94.5984 0.214957 -1.56127 0
M  V30 912 C 95.5454 1.26642 -1.92952 0
M  V30 913 C 96.5154 1.46244 -0.78753 0
M  V30 914 O 97.7004 1.59704 -1.04399 0
M  V30 915 C 94.8404 2.6104 -2.25726 0
M  V30 916 C 93.9534 2.49183 -3.52891 0
M  V30 917 C 93.0884 3.76149 -3.7508 0
M  V30 918 C 92.1274 3.59041 -4.95738 0
M  V30 919 N 91.2644 4.77972 -5.14283 0
M  V30 920 H 96.1044 0.945384 -2.82607 0
M  V30 921 H 93.6414 0.455489 -1.3987 0
M  V30 922 H 95.5994 3.39313 -2.42739 0
M  V30 923 H 94.2294 2.91227 -1.39236 0
M  V30 924 H 93.2814 1.6231 -3.44034 0
M  V30 925 H 94.5934 2.32466 -4.41318 0
M  V30 926 H 93.7474 4.62865 -3.92226 0
M  V30 927 H 92.4864 3.95799 -2.84947 0
M  V30 928 H 91.4914 2.7071 -4.78535 0
M  V30 929 H 92.7164 3.40856 -5.87362 0
M  V30 930 H 90.6624 4.97923 -4.27093 0
M  V30 931 H 90.5794 4.64006 -5.96853 0
M  V30 932 H 91.8474 5.66096 -5.35869 0
M  V30 933 N 96.0765 1.50051 0.48192 0
M  V30 934 C 97.3245 1.60181 1.23234 0
M  V30 935 C 97.6455 0.299176 1.92691 0
M  V30 936 O 96.9155 -0.682708 1.83619 0
M  V30 937 H 95.4955 0.590232 0.457859 0
M  V30 938 H 98.1575 1.86775 0.556881 0
M  V30 939 H 97.2535 2.40753 1.98607 0
M  V30 940 N 97.5546 -0.734337 1.39446 0
M  V30 941 C 98.9706 -1.03997 1.21065 0
M  V30 942 C 99.1706 -2.01369 0.0727019 0
M  V30 943 O 98.2266 -2.45856 -0.575426 0
M  V30 944 C 99.5396 -1.60163 2.54496 0
M  V30 945 C 101.088 -1.7224 2.61347 0
M  V30 946 C 101.563 -2.31814 3.95002 0
M  V30 947 N 103.054 -2.39223 3.96644 0
M  V30 948 C 103.789 -2.86258 4.96834 0
M  V30 949 N 103.285 -3.33184 6.07421 0
M  V30 950 N 105.078 -2.85473 4.84213 0
M  V30 951 H 97.2286 -0.0885624 2.12215 0
M  V30 952 H 99.4916 -0.10191 0.942506 0
M  V30 953 H 99.1976 -0.960811 3.38321 0
M  V30 954 H 99.0716 -2.5896 2.74262 0
M  V30 955 H 101.459 -2.35443 1.77906 0
M  V30 956 H 101.54 -0.720939 2.4543 0
M  V30 957 H 101.184 -1.69238 4.78875 0
M  V30 958 H 101.114 -3.32638 4.08239 0
M  V30 959 H 103.605 -2.06057 3.16779 0
M  V30 960 H 103.918 -3.67586 6.7978 0
M  V30 961 H 102.263 -3.31191 6.11013 0
M  V30 962 H 105.454 -2.48136 3.96921 0
M  V30 963 H 105.627 -3.21814 5.62441 0
M  V30 964 N 99.0327 -1.24633 -0.964593 0
M  V30 965 C 100.28 -1.08788 -1.70796 0
M  V30 966 C 100.608 0.372783 -1.90894 0
M  V30 967 O 99.8627 1.29167 -1.47018 0
M  V30 968 C 100.162 -1.7763 -3.10133 0
M  V30 969 C 99.8277 -3.27557 -3.09866 0
M  V30 970 C 98.4897 -3.6846 -3.09501 0
M  V30 971 C 100.842 -4.23389 -3.03959 0
M  V30 972 C 98.1697 -5.03624 -3.00965 0
M  V30 973 C 100.522 -5.58565 -2.96965 0
M  V30 974 C 99.1857 -5.98809 -2.9493 0
M  V30 975 H 98.4557 -0.398084 -0.624988 0
M  V30 976 H 101.103 -1.54777 -1.12767 0
M  V30 977 H 99.4077 -1.24044 -3.71645 0
M  V30 978 H 101.105 -1.62832 -3.66451 0
M  V30 979 H 97.6947 -2.95006 -3.10917 0
M  V30 980 H 101.879 -3.92787 -3.03368 0
M  V30 981 H 97.1347 -5.33998 -2.97752 0
M  V30 982 H 101.309 -6.32523 -2.91354 0
M  V30 983 H 98.9357 -7.03505 -2.88071 0
M  V30 984 N 100.511 1.16574 -1.06058 0
M  V30 985 C 101.739 1.90952 -0.796552 0
M  V30 986 C 102.154 1.77302 0.648808 0
M  V30 987 O 101.511 1.11605 1.44397 0
M  V30 988 C 101.562 3.41736 -1.17894 0
M  V30 989 O 101.283 3.54975 -2.56758 0
M  V30 990 C 102.784 4.33169 -0.942308 0
M  V30 991 H 100.004 0.605594 -0.288959 0
M  V30 992 H 102.548 1.47777 -1.41358 0
M  V30 993 H 100.703 3.82623 -0.606491 0
M  V30 994 H 101.117 4.4846 -2.72 0
M  V30 995 H 102.591 5.37439 -1.25952 0
M  V30 996 H 103.068 4.3903 0.122078 0
M  V30 997 H 103.674 3.98007 -1.49902 0
M  V30 998 N 101.989 0.842826 1.3317 0
M  V30 999 C 103.238 0.436738 1.96915 0
M  V30 1000 C 103.551 -1.01025 1.67491 0
M  V30 1001 O 104.757 -1.5212 2.24881 0
M  V30 1002 C 103.213 0.730021 3.52418 0
M  V30 1003 C 102.821 2.19195 3.90714 0
M  V30 1004 C 104.565 0.391076 4.22695 0
M  V30 1005 C 102.472 2.42907 5.39212 0
M  V30 1006 H 101.402 0.15958 0.736919 0
M  V30 1007 H 104.053 1.03196 1.51733 0
M  V30 1008 H 102.435 0.0643755 3.95948 0
M  V30 1009 H 103.609 2.8984 3.58231 0
M  V30 1010 H 101.924 2.49425 3.33431 0
M  V30 1011 H 104.521 0.545817 5.31907 0
M  V30 1012 H 104.864 -0.666294 4.10933 0
M  V30 1013 H 105.397 1.01212 3.84709 0
M  V30 1014 H 102.136 3.47224 5.55982 0
M  V30 1015 H 101.656 1.76827 5.73142 0
M  V30 1016 H 103.335 2.2626 6.06148 0
M  V30 1017 N 103.467 -1.45747 0.599634 0
M  V30 1018 C 104.692 -2.07178 0.0960198 0
M  V30 1019 C 105.117 -1.44268 -1.207 0
M  V30 1020 O 104.475 -0.532503 -1.73303 0
M  V30 1021 C 104.523 -3.60579 -0.0385348 0
M  V30 1022 O 103.627 -3.97713 -1.0908 0
M  V30 1023 H 102.968 -0.660251 0.0704593 0
M  V30 1024 H 105.498 -1.87124 0.827385 0
M  V30 1025 H 105.508 -4.07298 -0.239304 0
M  V30 1026 H 104.183 -4.05756 0.912947 0
M  V30 1027 H 102.76 -3.62678 -0.867135 0
M  V30 1028 N 104.945 -0.338344 -1.53925 0
M  V30 1029 C 106.361 0.0137736 -1.59594 0
M  V30 1030 C 106.561 1.49186 -1.35447 0
M  V30 1031 O 105.617 2.24987 -1.14616 0
M  V30 1032 C 106.93 -0.41773 -2.97784 0
M  V30 1033 C 108.478 -0.369633 -3.1081 0
M  V30 1034 C 108.953 -0.776524 -4.51369 0
M  V30 1035 N 110.444 -0.730506 -4.57403 0
M  V30 1036 C 111.179 -1.01736 -5.64303 0
M  V30 1037 N 110.675 -1.3721 -6.79077 0
M  V30 1038 N 112.468 -0.941942 -5.54151 0
M  V30 1039 H 104.619 -1.3012 -1.67876 0
M  V30 1040 H 106.882 -0.530082 -0.78595 0
M  V30 1041 H 106.588 -1.44811 -3.20504 0
M  V30 1042 H 106.462 0.209729 -3.76616 0
M  V30 1043 H 108.849 0.651568 -2.87817 0
M  V30 1044 H 108.93 -1.03223 -2.34049 0
M  V30 1045 H 108.574 -1.79571 -4.75096 0
M  V30 1046 H 108.504 -0.0914649 -5.26521 0
M  V30 1047 H 110.995 -0.468783 -3.74981 0
M  V30 1048 H 111.308 -1.57597 -7.5656 0
M  V30 1049 H 109.653 -1.4105 -6.80536 0
M  V30 1050 H 112.844 -0.664184 -4.63364 0
M  V30 1051 H 113.017 -1.16884 -6.37371 0
M  V30 1052 N 106.423 1.57458 -0.0668435 0
M  V30 1053 C 107.7 1.8469 0.644132 0
M  V30 1054 C 108.08 0.958343 1.88093 0
M  V30 1055 O 107.428 0.0233579 2.28488 0
M  V30 1056 C 107.638 3.34767 0.986509 0
M  V30 1057 C 108.986 4.02159 1.36212 0
M  V30 1058 O 110.01 3.39484 1.07839 0
M  V30 1059 O 108.869 5.12694 1.89227 0
M  V30 1060 H 105.963 0.762816 0.319437 0
M  V30 1061 H 108.509 1.6942 -0.0973986 0
M  V30 1062 H 107.281 3.91151 0.107883 0
M  V30 1063 H 106.904 3.55281 1.78497 0
M  V30 1064 N 107.901 -0.206675 1.56239 0
M  V30 1065 C 108.849 -1.27571 1.94495 0
M  V30 1066 C 109.843 -1.47737 0.828862 0
M  V30 1067 O 111.049 -1.48735 1.0138 0
M  V30 1068 H 107.424 -0.428029 0.6183 0
M  V30 1069 H 109.395 -0.925961 2.8367 0
M  V30 1070 C 108.144 -2.61568 2.29079 0
M  V30 1071 H 107.467 -2.46863 3.14482 0
M  V30 1072 H 108.907 -3.35144 2.5972 0
M  V30 1073 C 107.366 -3.17695 1.12123 0
M  V30 1074 O 107.896 -3.99801 0.390153 0
M  V30 1075 N 106.102 -2.76276 0.901097 0
M  V30 1076 H 105.649 -2.09613 1.49733 0
M  V30 1077 H 105.607 -3.1417 0.120319 0
M  V30 1078 N 109.379 -1.50304 -0.473955 0
M  V30 1079 C 110.604 -1.65175 -1.25427 0
M  V30 1080 C 111.029 -0.333673 -1.85117 0
M  V30 1081 O 110.387 0.702114 -1.67153 0
M  V30 1082 C 110.435 -2.74295 -2.34082 0
M  V30 1083 O 109.539 -2.35349 -3.38651 0
M  V30 1084 H 108.88 -0.551944 -0.369126 0
M  V30 1085 H 111.41 -1.96662 -0.564364 0
M  V30 1086 H 111.42 -2.97285 -2.79438 0
M  V30 1087 H 110.095 -3.69959 -1.90008 0
M  V30 1088 H 108.672 -2.22794 -2.99027 0
M  V30 1089 N 110.857 0.726932 -1.39834 0
M  V30 1090 C 111.804 1.841 -1.39197 0
M  V30 1091 C 112.774 1.642 -0.250502 0
M  V30 1092 O 113.959 1.85494 -0.446846 0
M  V30 1093 C 111.099 3.21697 -1.24919 0
M  V30 1094 C 110.212 3.53247 -2.48678 0
M  V30 1095 C 109.347 4.80289 -2.26928 0
M  V30 1096 C 108.386 5.04707 -3.4632 0
M  V30 1097 N 107.523 6.22956 -3.23836 0
M  V30 1098 H 112.363 1.83979 -2.34427 0
M  V30 1099 H 109.9 0.898876 -1.16442 0
M  V30 1100 H 111.858 4.01137 -1.1465 0
M  V30 1101 H 110.488 3.21076 -0.333153 0
M  V30 1102 H 109.54 2.68447 -2.69519 0
M  V30 1103 H 110.852 3.67205 -3.37582 0
M  V30 1104 H 110.006 5.67725 -2.13947 0
M  V30 1105 H 108.745 4.68519 -1.35431 0
M  V30 1106 H 107.75 4.1573 -3.5979 0
M  V30 1107 H 108.975 5.18357 -4.38729 0
M  V30 1108 H 106.921 6.12459 -2.35011 0
M  V30 1109 H 106.838 6.37539 -4.063 0
M  V30 1110 H 108.106 7.1321 -3.14566 0
M  V30 1111 N 112.336 1.25143 0.95797 0
M  V30 1112 C 113.284 1.05019 2.07542 0
M  V30 1113 C 114.278 -0.0178751 1.69391 0
M  V30 1114 O 115.484 0.137472 1.79474 0
M  V30 1115 H 111.859 0.32265 0.679265 0
M  V30 1116 H 113.83 1.99759 2.21673 0
M  V30 1117 C 112.579 0.682074 3.40944 0
M  V30 1118 H 111.902 1.49573 3.70767 0
M  V30 1119 H 113.342 0.580945 4.20001 0
M  V30 1120 C 111.801 -0.611608 3.31302 0
M  V30 1121 O 112.331 -1.65465 3.66038 0
M  V30 1122 N 110.537 -0.595982 2.84423 0
M  V30 1123 H 110.084 0.253192 2.56353 0
M  V30 1124 H 110.042 -1.46173 2.78354 0
M  V30 1125 N 113.814 -1.1601 1.06675 0
M  V30 1126 C 115.042 -1.90527 0.806667 0
M  V30 1127 C 115.457 -1.77643 -0.639396 0
M  V30 1128 O 114.814 -1.12369 -1.43803 0
M  V30 1129 C 114.865 -3.41106 1.19705 0
M  V30 1130 O 114.586 -3.53608 2.58636 0
M  V30 1131 C 116.087 -4.32663 0.965266 0
M  V30 1132 H 113.307 -0.604053 0.292166 0
M  V30 1133 H 115.851 -1.47026 1.4214 0
M  V30 1134 H 114.006 -3.82296 0.626774 0
M  V30 1135 H 114.42 -4.47011 2.74375 0
M  V30 1136 H 115.894 -5.36763 1.288 0
M  V30 1137 H 116.371 -4.39089 -0.0987936 0
M  V30 1138 H 116.977 -3.97206 1.52011 0
M  V30 1139 N 115.292 -0.849877 -1.32721 0
M  V30 1140 C 116.222 -0.306308 -2.31482 0
M  V30 1141 C 117.203 0.591952 -1.59468 0
M  V30 1142 O 118.388 0.513199 -1.87296 0
M  V30 1143 C 115.518 0.510204 -3.43532 0
M  V30 1144 C 114.472 -0.293209 -4.26994 0
M  V30 1145 C 113.798 0.647743 -5.30762 0
M  V30 1146 C 115.098 -1.51634 -4.99804 0
M  V30 1147 H 116.792 -1.13153 -2.77195 0
M  V30 1148 H 114.338 -0.545553 -1.33266 0
M  V30 1149 H 116.291 0.900856 -4.11658 0
M  V30 1150 H 115.015 1.36874 -2.96535 0
M  V30 1151 H 113.674 -0.665555 -3.60508 0
M  V30 1152 H 113.322 1.50299 -4.8002 0
M  V30 1153 H 113.022 0.11422 -5.87489 0
M  V30 1154 H 114.546 1.03567 -6.01753 0
M  V30 1155 H 115.96 -1.19824 -5.60638 0
M  V30 1156 H 114.357 -1.98745 -5.66234 0
M  V30 1157 H 115.427 -2.28018 -4.27943 0
M  V30 1158 N 116.77 1.45427 -0.607355 0
M  V30 1159 C 118 2.06314 -0.108656 0
M  V30 1160 C 118.408 1.45269 1.21217 0
M  V30 1161 O 117.751 0.561115 1.74921 0
M  V30 1162 C 117.813 3.59345 0.105618 0
M  V30 1163 C 117.477 4.42723 -1.13337 0
M  V30 1164 C 118.474 4.77715 -2.05145 0
M  V30 1165 C 116.159 4.83478 -1.36213 0
M  V30 1166 C 118.153 5.52317 -3.18158 0
M  V30 1167 C 115.84 5.57835 -2.49527 0
M  V30 1168 C 116.838 5.92171 -3.40327 0
M  V30 1169 O 116.526 6.65019 -4.51669 0
M  V30 1170 H 116.258 0.672782 -0.0658842 0
M  V30 1171 H 118.812 1.87664 -0.834945 0
M  V30 1172 H 117.042 3.76394 0.886796 0
M  V30 1173 H 118.731 4.02076 0.555886 0
M  V30 1174 H 119.497 4.46787 -1.88697 0
M  V30 1175 H 115.376 4.56188 -0.664362 0
M  V30 1176 H 118.92 5.79036 -3.89054 0
M  V30 1177 H 114.817 5.88177 -2.65928 0
M  V30 1178 H 115.585 6.83469 -4.50348 0
M  V30 1179 N 118.248 0.346503 1.53744 0
M  V30 1180 C 119.178 -0.501193 2.28058 0
M  V30 1181 C 120.159 -1.10014 1.29734 0
M  V30 1182 O 121.344 -1.12097 1.58581 0
M  V30 1183 C 118.474 -1.65078 3.05559 0
M  V30 1184 C 117.428 -1.18003 4.11411 0
M  V30 1185 C 116.754 -2.41837 4.76884 0
M  V30 1186 C 118.054 -0.278394 5.21558 0
M  V30 1187 H 119.748 0.11875 2.99164 0
M  V30 1188 H 117.294 0.0585531 1.43881 0
M  V30 1189 H 119.247 -2.25028 3.56287 0
M  V30 1190 H 117.971 -2.29767 2.32109 0
M  V30 1191 H 116.63 -0.603331 3.61601 0
M  V30 1192 H 116.278 -3.0494 4.00026 0
M  V30 1193 H 115.978 -2.1102 5.48402 0
M  V30 1194 H 117.502 -3.02508 5.30397 0
M  V30 1195 H 118.916 -0.784823 5.67903 0
M  V30 1196 H 117.313 -0.0619707 6.00068 0
M  V30 1197 H 118.383 0.684677 4.80042 0
M  V30 1198 N 119.726 -1.57421 0.075193 0
M  V30 1199 C 120.658 -2.09904 -0.920483 0
M  V30 1200 C 121.671 -1.03191 -1.25918 0
M  V30 1201 O 122.86 -1.30695 -1.21577 0
M  V30 1202 C 119.96 -2.54726 -2.23534 0
M  V30 1203 C 119.133 -3.8505 -2.07498 0
M  V30 1204 C 118.192 -4.15929 -3.22319 0
M  V30 1205 O 117.218 -4.85474 -2.9716 0
M  V30 1206 N 118.42 -3.69745 -4.47514 0
M  V30 1207 H 121.185 -2.95954 -0.472359 0
M  V30 1208 H 118.746 -1.61523 -0.110444 0
M  V30 1209 H 120.738 -2.72443 -2.9926 0
M  V30 1210 H 119.308 -1.73795 -2.59835 0
M  V30 1211 H 118.528 -3.76679 -1.16219 0
M  V30 1212 H 119.816 -4.70348 -1.94038 0
M  V30 1213 H 119.214 -3.13569 -4.7084 0
M  V30 1214 H 117.771 -3.92655 -5.20255 0
M  V30 1215 N 121.204 0.198386 -1.56346 0
M  V30 1216 C 122.137 1.27381 -1.89339 0
M  V30 1217 C 123.115 1.44106 -0.753134 0
M  V30 1218 O 124.299 1.59549 -1.00381 0
M  V30 1219 C 121.426 2.6409 -2.12071 0
M  V30 1220 C 120.472 2.64253 -3.34772 0
M  V30 1221 S 121.305 2.16013 -4.89999 0
M  V30 1222 C 122.461 3.54553 -5.15794 0
M  V30 1223 H 122.694 0.992058 -2.8026 0
M  V30 1224 H 120.227 0.401726 -1.49082 0
M  V30 1225 H 122.185 3.42786 -2.2585 0
M  V30 1226 H 120.846 2.89478 -1.21906 0
M  V30 1227 H 120.039 3.64768 -3.47794 0
M  V30 1228 H 119.641 1.93637 -3.1997 0
M  V30 1229 H 121.933 4.50396 -5.06112 0
M  V30 1230 H 122.876 3.46428 -6.1757 0
M  V30 1231 H 123.284 3.49313 -4.43442 0
M  V30 1232 N 122.682 1.50554 0.465978 0
M  V30 1233 C 123.63 1.70324 1.58406 0
M  V30 1234 C 124.624 0.569139 1.59553 0
M  V30 1235 O 125.83 0.749776 1.63641 0
M  V30 1236 H 122.205 0.537688 0.525734 0
M  V30 1237 H 124.176 2.64104 1.38894 0
M  V30 1238 C 122.925 1.81928 2.96307 0
M  V30 1239 H 122.248 2.68586 2.96144 0
M  V30 1240 H 123.688 1.99784 3.73982 0
M  V30 1241 C 122.147 0.572095 3.32007 0
M  V30 1242 O 122.677 -0.286416 4.00678 0
M  V30 1243 N 120.883 0.424606 2.87481 0
M  V30 1244 H 120.43 1.12427 2.31771 0
M  V30 1245 H 120.388 -0.408697 3.11732 0
M  V30 1246 N 124.16 -0.719506 1.40217 0
M  V30 1247 C 125.385 -1.51371 1.4178 0
M  V30 1248 C 125.81 -1.88091 0.0182355 0
M  V30 1249 O 125.168 -1.52997 -0.972707 0
M  V30 1250 C 125.216 -2.768 2.31115 0
M  V30 1251 O 124.32 -3.73349 1.7517 0
M  V30 1252 H 123.661 -0.456529 0.482159 0
M  V30 1253 H 126.191 -0.88644 1.844 0
M  V30 1254 H 126.201 -3.25371 2.46167 0
M  V30 1255 H 124.876 -2.49407 3.3282 0
M  V30 1256 H 123.453 -3.32179 1.69444 0
M  V30 1257 N 125.638 -1.25649 -0.95132 0
M  V30 1258 C 126.568 -1.08808 -2.06599 0
M  V30 1259 C 127.549 0.00382547 -1.701 0
M  V30 1260 O 128.734 -0.166325 -1.93486 0
M  V30 1261 C 125.864 -0.709542 -3.39975 0
M  V30 1262 C 124.818 -1.75206 -3.90496 0
M  V30 1263 C 124.144 -1.22811 -5.20405 0
M  V30 1264 C 125.444 -3.15153 -4.16504 0
M  V30 1265 H 127.138 -2.02048 -2.20946 0
M  V30 1266 H 124.684 -0.972835 -1.06169 0
M  V30 1267 H 126.637 -0.578649 -4.17408 0
M  V30 1268 H 125.361 0.258556 -3.25575 0
M  V30 1269 H 124.02 -1.87145 -3.15234 0
M  V30 1270 H 123.668 -0.250145 -5.02378 0
M  V30 1271 H 123.368 -1.92492 -5.55176 0
M  V30 1272 H 124.892 -1.10968 -6.00432 0
M  V30 1273 H 126.306 -3.06349 -4.84586 0
M  V30 1274 H 124.703 -3.82333 -4.62538 0
M  V30 1275 H 125.773 -3.61966 -3.22658 0
M  V30 1276 N 127.117 1.15442 -1.07289 0
M  V30 1277 C 128.533 1.38201 -0.798288 0
M  V30 1278 C 128.733 1.92429 0.597769 0
M  V30 1279 O 127.789 2.12962 1.3566 0
M  V30 1280 C 129.102 2.35357 -1.87156 0
M  V30 1281 C 130.65 2.49021 -1.89624 0
M  V30 1282 C 131.125 3.49468 -2.96034 0
M  V30 1283 N 132.616 3.57003 -2.95132 0
M  V30 1284 C 133.351 4.34543 -3.74112 0
M  V30 1285 N 132.847 5.15421 -4.6294 0
M  V30 1286 N 134.64 4.29625 -3.62462 0
M  V30 1287 H 126.791 0.78584 -1.97328 0
M  V30 1288 H 129.054 0.408065 -0.855679 0
M  V30 1289 H 128.76 2.02626 -2.87464 0
M  V30 1290 H 128.634 3.35129 -1.73114 0
M  V30 1291 H 131.021 2.81051 -0.899687 0
M  V30 1292 H 131.102 1.4925 -2.07745 0
M  V30 1293 H 130.746 3.18173 -3.95889 0
M  V30 1294 H 130.676 4.48992 -2.75161 0
M  V30 1295 H 133.167 2.99276 -2.30743 0
M  V30 1296 H 133.48 5.7183 -5.19837 0
M  V30 1297 H 131.825 5.14729 -4.66989 0
M  V30 1298 H 135.016 3.65505 -2.92444 0
M  V30 1299 H 135.189 4.89807 -4.24256 0
M  V30 1300 N 128.595 0.856903 1.32268 0
M  V30 1301 C 129.558 0.308171 2.27119 0
M  V30 1302 C 130.558 -0.533421 1.51695 0
M  V30 1303 O 131.748 -0.344607 1.70757 0
M  V30 1304 C 128.88 -0.563757 3.36206 0
M  V30 1305 H 130.073 1.14535 2.77167 0
M  V30 1306 H 127.626 0.631421 1.42978 0
M  V30 1307 H 128.361 -1.42266 2.91429 0
M  V30 1308 H 128.146 0.0386749 3.92081 0
M  V30 1309 H 129.636 -0.940386 4.06874 0
M  V30 1310 N 130.073 -1.45103 0.615059 0
M  V30 1311 C 130.983 -2.34382 -0.101034 0
M  V30 1312 C 131.999 -1.51681 -0.852585 0
M  V30 1313 O 133.175 -1.8446 -0.808484 0
M  V30 1314 C 130.24 -3.29417 -1.08099 0
M  V30 1315 C 129.301 -4.28025 -0.330577 0
M  V30 1316 C 128.534 -5.1852 -1.26385 0
M  V30 1317 O 128.757 -5.12598 -2.50198 0
M  V30 1318 O 127.691 -5.97122 -0.756866 0
M  V30 1319 H 131.517 -2.97033 0.632855 0
M  V30 1320 H 129.102 -1.4461 0.375293 0
M  V30 1321 H 130.984 -3.87958 -1.6452 0
M  V30 1322 H 129.659 -2.69321 -1.79577 0
M  V30 1323 H 128.566 -3.73078 0.276283 0
M  V30 1324 H 129.899 -4.90997 0.343866 0
M  V30 1325 N 131.551 -0.354651 -1.53558 0
M  V30 1326 C 132.828 0.294281 -1.93374 0
M  V30 1327 C 133.208 1.67313 -1.28723 0
M  V30 1328 O 132.556 2.24179 -0.442247 0
M  V30 1329 C 132.766 0.355445 -3.47185 0
M  V30 1330 C 134.114 0.601007 -4.20325 0
M  V30 1331 O 135.138 0.437106 -3.53508 0
M  V30 1332 O 133.997 0.919322 -5.38712 0
M  V30 1333 H 131.091 0.174033 -0.808481 0
M  V30 1334 H 133.637 -0.406638 -1.64756 0
M  V30 1335 H 132.409 -0.611729 -3.86489 0
M  V30 1336 H 132.032 1.1027 -3.82003 0
M  V30 1337 N 133.029 1.57378 -0.0835403 0
M  V30 1338 C 134.257 1.98263 0.59157 0
M  V30 1339 C 134.672 0.962302 1.62435 0
M  V30 1340 O 134.029 -0.049581 1.82433 0
M  V30 1341 C 134.08 3.39214 1.24965 0
M  V30 1342 O 133.801 4.37339 0.258186 0
M  V30 1343 C 135.302 3.95038 2.01147 0
M  V30 1344 H 132.522 0.651773 0.159477 0
M  V30 1345 H 135.066 2.03878 -0.159415 0
M  V30 1346 H 133.221 3.34649 1.95164 0
M  V30 1347 H 133.635 5.19371 0.731734 0
M  V30 1348 H 135.109 4.95848 2.42567 0
M  V30 1349 H 135.586 3.32222 2.87272 0
M  V30 1350 H 136.192 4.0304 1.35789 0
M  V30 1351 N 134.507 -0.190092 1.56449 0
M  V30 1352 C 135.47 -1.21925 1.9408 0
M  V30 1353 C 136.47 -1.38176 0.822431 0
M  V30 1354 O 137.66 -1.35903 1.08977 0
M  V30 1355 C 134.792 -2.58773 2.21922 0
M  V30 1356 H 135.985 -0.897464 2.86157 0
M  V30 1357 H 133.538 -0.43181 1.50217 0
M  V30 1358 H 134.273 -2.95998 1.32499 0
M  V30 1359 H 134.058 -2.48348 3.03424 0
M  V30 1360 H 135.548 -3.32978 2.52022 0
M  V30 1361 N 135.985 -1.50799 -0.457987 0
M  V30 1362 C 137.231 -1.62683 -1.21088 0
M  V30 1363 C 137.564 -0.332268 -1.91336 0
M  V30 1364 O 136.839 0.667043 -1.82704 0
M  V30 1365 C 137.122 -2.81615 -2.24422 0
M  V30 1366 C 136.975 -4.20989 -1.58392 0
M  V30 1367 C 138.294 -2.96085 -3.2561 0
M  V30 1368 H 135.413 -0.592087 -0.438864 0
M  V30 1369 H 138.055 -1.83225 -0.50286 0
M  V30 1370 H 136.205 -2.64231 -2.84806 0
M  V30 1371 H 137.877 -4.49994 -1.01504 0
M  V30 1372 H 136.12 -4.24641 -0.886704 0
M  V30 1373 H 136.791 -5.0016 -2.33547 0
M  V30 1374 H 139.267 -3.12042 -2.75262 0
M  V30 1375 H 138.143 -3.80902 -3.95228 0
M  V30 1376 H 138.404 -2.0726 -3.90507 0
M  V30 1377 N 137.463 0.71206 -1.40597 0
M  V30 1378 C 138.693 1.49894 -1.42181 0
M  V30 1379 C 139.101 1.89189 -0.0208078 0
M  V30 1380 O 138.444 1.56223 0.966436 0
M  V30 1381 C 138.506 2.80215 -2.25211 0
M  V30 1382 C 138.17 2.63221 -3.73582 0
M  V30 1383 C 139.167 2.30249 -4.66135 0
M  V30 1384 C 136.852 2.79376 -4.17438 0
M  V30 1385 C 138.846 2.13645 -6.00529 0
M  V30 1386 C 136.533 2.6239 -5.51901 0
M  V30 1387 C 137.531 2.29573 -6.43262 0
M  V30 1388 O 137.219 2.12719 -7.75246 0
M  V30 1389 H 136.951 0.469031 -0.486812 0
M  V30 1390 H 139.505 0.88564 -1.85326 0
M  V30 1391 H 137.735 3.4389 -1.76852 0
M  V30 1392 H 139.424 3.41947 -2.18694 0
M  V30 1393 H 140.19 2.17398 -4.33547 0
M  V30 1394 H 136.069 3.03906 -3.46644 0
M  V30 1395 H 139.613 1.87953 -6.71803 0
M  V30 1396 H 135.51 2.74826 -5.84073 0
M  V30 1397 H 136.278 2.27611 -7.86216 0
M  V30 1398 N 138.941 1.26152 0.944643 0
M  V30 1399 C 140.171 1.14094 1.72239 0
M  V30 1400 C 140.579 -0.306931 1.86694 0
M  V30 1401 O 139.922 -1.22222 1.3714 0
M  V30 1402 C 139.984 1.73316 3.14963 0
M  V30 1403 C 139.648 3.2239 3.23904 0
M  V30 1404 C 140.645 4.19252 3.07447 0
M  V30 1405 C 138.33 3.62788 3.47405 0
M  V30 1406 C 140.324 5.54491 3.14353 0
M  V30 1407 C 138.011 4.98162 3.53947 0
M  V30 1408 C 139.009 5.93823 3.37436 0
M  V30 1409 O 138.697 7.26732 3.43679 0
M  V30 1410 H 138.429 0.398292 0.546205 0
M  V30 1411 H 140.983 1.67201 1.19301 0
M  V30 1412 H 139.213 1.14667 3.69308 0
M  V30 1413 H 140.902 1.56214 3.74636 0
M  V30 1414 H 141.668 3.8938 2.8915 0
M  V30 1415 H 137.547 2.88816 3.59313 0
M  V30 1416 H 141.091 6.29137 3.01384 0
M  V30 1417 H 136.988 5.27695 3.71763 0
M  V30 1418 H 137.756 7.3496 3.60245 0
M  V30 1419 N 140.419 -1.14872 1.07899 0
M  V30 1420 C 141.659 -1.8745 0.814965 0
M  V30 1421 C 142.023 -1.80758 -0.64733 0
M  V30 1422 O 143.224 -2.48422 -1.02664 0
M  V30 1423 C 141.495 -3.32286 1.31607 0
M  V30 1424 S 143.054 -4.22537 1.18357 0
M  V30 1425 H 139.872 -0.646833 0.295174 0
M  V30 1426 H 142.474 -1.38555 1.37923 0
M  V30 1427 H 141.178 -3.34703 2.37491 0
M  V30 1428 H 140.709 -3.86238 0.747261 0
M  V30 1429 H 142.724 -4.96044 0.124586 0
M  V30 1430 N 141.898 -0.863906 -1.31812 0
M  V30 1431 C 142.861 -0.320212 -2.26952 0
M  V30 1432 C 143.861 0.525369 -1.51975 0
M  V30 1433 O 145.051 0.335547 -1.70938 0
M  V30 1434 C 142.183 0.545919 -3.365 0
M  V30 1435 H 143.376 -1.16004 -2.76556 0
M  V30 1436 H 140.929 -0.638995 -1.42641 0
M  V30 1437 H 141.664 1.40718 -2.92179 0
M  V30 1438 H 141.449 -0.0594674 -3.92055 0
M  V30 1439 H 142.939 0.918796 -4.07367 0
M  V30 1440 N 143.376 1.44774 -0.622745 0
M  V30 1441 C 144.323 2.30635 0.0871679 0
M  V30 1442 C 145.293 1.42994 0.845097 0
M  V30 1443 O 146.478 1.71907 0.827812 0
M  V30 1444 C 143.618 3.28144 1.06844 0
M  V30 1445 C 142.731 4.30888 0.309809 0
M  V30 1446 C 141.866 5.15494 1.28215 0
M  V30 1447 C 140.905 6.09953 0.512198 0
M  V30 1448 N 140.042 6.87287 1.43458 0
M  V30 1449 H 144.882 2.90803 -0.650974 0
M  V30 1450 H 142.419 1.43286 -0.33281 0
M  V30 1451 H 144.377 3.83157 1.65066 0
M  V30 1452 H 143.007 2.69695 1.77382 0
M  V30 1453 H 142.059 3.78414 -0.388181 0
M  V30 1454 H 143.371 4.97955 -0.290254 0
M  V30 1455 H 142.525 5.74983 1.93596 0
M  V30 1456 H 141.264 4.48481 1.91614 0
M  V30 1457 H 140.269 5.49581 -0.155151 0
M  V30 1458 H 141.494 6.78999 -0.116958 0
M  V30 1459 H 139.44 6.2295 2.05594 0
M  V30 1460 H 139.357 7.50763 0.888335 0
M  V30 1461 H 140.625 7.51306 2.07749 0
M  V30 1462 N 144.854 0.36279 1.53368 0
M  V30 1463 C 146.131 -0.284021 1.93527 0
M  V30 1464 C 146.511 -1.66628 1.29608 0
M  V30 1465 O 145.859 -2.23942 0.45413 0
M  V30 1466 C 146.069 -0.337028 3.47369 0
M  V30 1467 C 147.417 -0.578708 4.20638 0
M  V30 1468 O 148.441 -0.418352 3.53735 0
M  V30 1469 O 147.3 -0.89074 5.39192 0
M  V30 1470 H 144.394 -0.169743 0.809393 0
M  V30 1471 H 146.94 0.41537 1.64538 0
M  V30 1472 H 145.712 0.632217 3.86159 0
M  V30 1473 H 145.335 -1.08243 3.82582 0
M  V30 1474 N 146.332 -1.57332 0.0918853 0
M  V30 1475 C 147.748 -1.57389 -0.264766 0
M  V30 1476 C 147.948 -1.10281 -1.68643 0
M  V30 1477 O 147.004 -0.777801 -2.40222 0
M  V30 1478 C 148.317 -3.00648 -0.0561195 0
M  V30 1479 C 149.865 -3.12754 -0.124116 0
M  V30 1480 C 150.34 -4.57965 0.0564972 0
M  V30 1481 N 151.831 -4.632 0.00155611 0
M  V30 1482 C 152.566 -5.73281 0.116598 0
M  V30 1483 N 152.062 -6.92208 0.286294 0
M  V30 1484 N 153.855 -5.6207 0.0580973 0
M  V30 1485 H 146.006 -1.86262 1.02079 0
M  V30 1486 H 148.269 -0.859579 0.399786 0
M  V30 1487 H 147.975 -3.393 0.925669 0
M  V30 1488 H 147.849 -3.68623 -0.799823 0
M  V30 1489 H 150.236 -2.73976 -1.09641 0
M  V30 1490 H 150.317 -2.47377 0.651024 0
M  V30 1491 H 149.961 -4.97436 1.02564 0
M  V30 1492 H 149.891 -5.21399 -0.738297 0
M  V30 1493 H 152.382 -3.77686 -0.127192 0
M  V30 1494 H 152.695 -7.71934 0.365676 0
M  V30 1495 H 151.04 -6.94254 0.32192 0
M  V30 1496 H 154.231 -4.68043 -0.0733204 0
M  V30 1497 H 154.404 -6.47824 0.151203 0
M  V30 1498 N 147.81 0.181792 -1.56548 0
M  V30 1499 C 148.74 1.22765 -1.98623 0
M  V30 1500 C 149.721 1.46747 -0.860189 0
M  V30 1501 O 150.906 1.58259 -1.12551 0
M  V30 1502 C 148.036 2.56894 -2.33715 0
M  V30 1503 C 146.99 2.475 -3.49182 0
M  V30 1504 C 146.316 3.86023 -3.69986 0
M  V30 1505 C 147.616 1.98866 -4.82959 0
M  V30 1506 H 149.31 0.877942 -2.86239 0
M  V30 1507 H 146.856 0.42088 -1.37712 0
M  V30 1508 H 148.809 3.30253 -2.61746 0
M  V30 1509 H 147.533 2.93632 -1.42997 0
M  V30 1510 H 146.192 1.76596 -3.21262 0
M  V30 1511 H 145.84 4.20136 -2.76576 0
M  V30 1512 H 145.54 3.80609 -4.47672 0
M  V30 1513 H 147.064 4.60984 -4.00407 0
M  V30 1514 H 148.478 2.61992 -5.09934 0
M  V30 1515 H 146.875 2.04424 -5.64208 0
M  V30 1516 H 147.945 0.942465 -4.75653 0
M  V30 1517 N 149.288 1.51039 0.449983 0
M  V30 1518 C 150.513 1.6715 1.22783 0
M  V30 1519 C 150.938 0.363081 1.84563 0
M  V30 1520 O 150.296 -0.675433 1.68249 0
M  V30 1521 C 150.344 2.77985 2.29689 0
M  V30 1522 O 149.448 2.40707 3.34864 0
M  V30 1523 H 148.789 0.557746 0.360299 0
M  V30 1524 H 151.319 1.97535 0.533005 0
M  V30 1525 H 151.329 3.01693 2.74673 0
M  V30 1526 H 150.004 3.72935 1.84098 0
M  V30 1527 H 148.581 2.27523 2.95445 0
M  V30 1528 N 150.766 -0.704594 1.40972 0
M  V30 1529 C 152.015 -1.46018 1.39146 0
M  V30 1530 C 152.328 -1.956 0.000589254 0
M  V30 1531 O 153.534 -2.71137 -0.1403 0
M  V30 1532 C 151.99 -2.63996 2.4461 0
M  V30 1533 C 151.598 -2.21238 3.89561 0
M  V30 1534 C 153.342 -3.41677 2.51907 0
M  V30 1535 C 151.249 -3.3612 4.86598 0
M  V30 1536 H 150.179 -0.548444 0.517422 0
M  V30 1537 H 152.83 -0.765784 1.66757 0
M  V30 1538 H 151.212 -3.3566 2.10115 0
M  V30 1539 H 152.386 -1.56923 4.33257 0
M  V30 1540 H 150.701 -1.56574 3.85841 0
M  V30 1541 H 153.298 -4.27182 3.2159 0
M  V30 1542 H 153.641 -3.86247 1.55303 0
M  V30 1543 H 154.174 -2.77064 2.85448 0
M  V30 1544 H 150.913 -2.96572 5.84573 0
M  V30 1545 H 150.433 -3.99315 4.47557 0
M  V30 1546 H 152.112 -4.02029 5.06934 0
M  V30 1547 N 152.244 -1.26651 -0.937939 0
M  V30 1548 C 153.472 -1.15173 -1.7188 0
M  V30 1549 C 153.887 0.292668 -1.86518 0
M  V30 1550 O 153.244 1.20014 -1.37488 0
M  V30 1551 C 153.295 -1.81925 -3.12387 0
M  V30 1552 O 153.016 -3.2072 -2.98446 0
M  V30 1553 C 154.517 -1.76442 -4.06673 0
M  V30 1554 H 151.737 -0.400911 -0.538063 0
M  V30 1555 H 154.281 -1.67332 -1.1756 0
M  V30 1556 H 152.436 -1.33696 -3.63599 0
M  V30 1557 H 152.85 -3.53802 -3.872 0
M  V30 1558 H 154.324 -2.27781 -5.02812 0
M  V30 1559 H 154.801 -0.731608 -4.33064 0
M  V30 1560 H 155.407 -2.24238 -3.61382 0
M  V30 1561 N 153.722 1.14298 -1.08507 0
M  V30 1562 C 154.971 1.84708 -0.810305 0
M  V30 1563 C 155.284 1.83903 0.666271 0
M  V30 1564 O 156.49 2.50112 1.05624 0
M  V30 1565 C 154.946 3.31572 -1.39957 0
M  V30 1566 C 154.554 3.40791 -2.90801 0
M  V30 1567 C 156.298 4.07087 -1.20334 0
M  V30 1568 C 154.205 4.81872 -3.4286 0
M  V30 1569 H 153.135 0.691985 -0.299454 0
M  V30 1570 H 155.786 1.28841 -1.30661 0
M  V30 1571 H 154.168 3.87183 -0.830976 0
M  V30 1572 H 155.342 2.95225 -3.53806 0
M  V30 1573 H 153.657 2.78732 -3.0935 0
M  V30 1574 H 156.254 5.11225 -1.56693 0
M  V30 1575 H 156.597 4.16054 -0.143237 0
M  V30 1576 H 157.13 3.57779 -1.73893 0
M  V30 1577 H 153.869 4.78094 -4.48449 0
M  V30 1578 H 153.389 5.27972 -2.84615 0
M  V30 1579 H 155.068 5.50765 -3.39509 0
M  V30 1580 N 155.201 0.870884 1.31352 0
M  V30 1581 C 156.617 0.562932 1.49343 0
M  V30 1582 C 156.817 -0.902725 1.80148 0
M  V30 1583 O 155.873 -1.68484 1.88067 0
M  V30 1584 C 157.186 1.46393 2.62659 0
M  V30 1585 C 158.734 1.46607 2.76542 0
M  V30 1586 C 159.209 2.35266 3.92955 0
M  V30 1587 N 160.7 2.33151 4.00243 0
M  V30 1588 C 161.435 2.98471 4.89594 0
M  V30 1589 N 160.931 3.72964 5.8384 0
M  V30 1590 N 162.724 2.87775 4.82848 0
M  V30 1591 H 154.875 1.81923 1.09626 0
M  V30 1592 H 157.138 0.777934 0.541777 0
M  V30 1593 H 156.844 2.50689 2.46674 0
M  V30 1594 H 156.718 1.16314 3.58819 0
M  V30 1595 H 159.105 0.43069 2.9194 0
M  V30 1596 H 159.186 1.8071 1.81046 0
M  V30 1597 H 158.83 3.38881 3.78315 0
M  V30 1598 H 158.76 1.98487 4.87761 0
M  V30 1599 H 161.251 1.79006 3.32814 0
M  V30 1600 H 161.564 4.19932 6.4875 0
M  V30 1601 H 159.909 3.77073 5.83816 0
M  V30 1602 H 163.1 2.29116 4.08195 0
M  V30 1603 H 163.273 3.38961 5.52277 0
M  V30 1604 N 156.679 -1.44442 0.630414 0
M  V30 1605 C 158.09 -1.85434 0.217063 0
M  V30 1606 C 158.441 -1.52748 -1.23136 0
M  V30 1607 O 157.566 -0.965205 -1.93682 0
M  V30 1608 C 158.161 -3.36581 0.387168 0
M  V30 1609 C 156.72 -3.76389 0.0283297 0
M  V30 1610 C 155.867 -2.68296 0.700889 0
M  V30 1611 H 158.818 -1.34919 0.83562 0
M  V30 1612 H 158.839 -3.78657 -0.374086 0
M  V30 1613 H 158.351 -3.60339 1.44144 0
M  V30 1614 H 156.452 -3.58246 -1.02423 0
M  V30 1615 H 156.565 -4.77095 0.437892 0
M  V30 1616 H 154.929 -2.54335 0.136267 0
M  V30 1617 H 155.712 -2.94887 1.75774 0
M  V30 1618 N 158.157 -0.370918 -1.53173 0
M  V30 1619 C 159.573 -0.0200818 -1.59587 0
M  V30 1620 C 159.773 1.46279 -1.38581 0
M  V30 1621 O 158.829 2.22506 -1.19363 0
M  V30 1622 C 160.142 -0.4808 -2.96831 0
M  V30 1623 C 161.69 -0.435477 -3.09956 0
M  V30 1624 C 162.165 -0.872092 -4.4962 0
M  V30 1625 N 163.656 -0.827364 -4.55751 0
M  V30 1626 C 164.391 -1.13683 -5.62018 0
M  V30 1627 N 163.887 -1.51584 -6.76014 0
M  V30 1628 N 165.68 -1.05927 -5.52029 0
M  V30 1629 H 157.831 -1.33652 -1.65079 0
M  V30 1630 H 160.094 -0.546634 -0.774529 0
M  V30 1631 H 159.8 -1.51577 -3.1736 0
M  V30 1632 H 159.674 0.129796 -3.76977 0
M  V30 1633 H 162.061 0.590371 -2.89134 0
M  V30 1634 H 162.142 -1.08164 -2.31806 0
M  V30 1635 H 161.786 -1.89608 -4.71181 0
M  V30 1636 H 161.716 -0.203127 -5.26208 0
M  V30 1637 H 164.207 -0.548216 -3.73902 0
M  V30 1638 H 164.52 -1.73609 -7.53047 0
M  V30 1639 H 162.865 -1.55454 -6.77391 0
M  V30 1640 H 166.056 -0.762321 -4.61851 0
M  V30 1641 H 166.229 -1.30378 -6.34749 0
M  V30 1642 N 159.635 1.57281 -0.100228 0
M  V30 1643 C 160.865 1.98591 0.569681 0
M  V30 1644 C 161.273 0.978315 1.61943 0
M  V30 1645 O 160.616 -0.0396108 1.83657 0
M  V30 1646 C 160.678 3.36282 1.271 0
M  V30 1647 C 160.342 4.55488 0.371409 0
M  V30 1648 C 161.339 5.18491 -0.382504 0
M  V30 1649 C 159.024 5.01474 0.287965 0
M  V30 1650 C 161.018 6.25852 -1.20779 0
M  V30 1651 C 158.705 6.08701 -0.540965 0
M  V30 1652 C 159.703 6.70755 -1.28749 0
M  V30 1653 O 159.391 7.75914 -2.10269 0
M  V30 1654 H 159.123 0.65752 0.156982 0
M  V30 1655 H 161.677 2.0463 -0.177734 0
M  V30 1656 H 159.907 3.26941 2.0651 0
M  V30 1657 H 161.596 3.62005 1.83595 0
M  V30 1658 H 162.362 4.83891 -0.3278 0
M  V30 1659 H 158.241 4.52932 0.858689 0
M  V30 1660 H 161.785 6.74218 -1.79096 0
M  V30 1661 H 157.682 6.42732 -0.597131 0
M  V30 1662 H 158.45 7.92925 -2.03007 0
M  V30 1663 N 161.113 -0.173488 1.56642 0
M  V30 1664 C 162.343 -0.904781 1.85734 0
M  V30 1665 C 162.751 -1.76431 0.68328 0
M  V30 1666 O 162.094 -1.802 -0.356865 0
M  V30 1667 C 162.156 -1.83382 3.09211 0
M  V30 1668 C 161.82 -1.15411 4.42187 0
M  V30 1669 C 162.817 -0.520609 5.17287 0
M  V30 1670 C 160.502 -1.15151 4.88923 0
M  V30 1671 C 162.496 0.106412 6.37311 0
M  V30 1672 C 160.183 -0.520664 6.08878 0
M  V30 1673 C 161.181 0.107196 6.82916 0
M  V30 1674 O 160.869 0.728102 8.00596 0
M  V30 1675 H 160.601 -0.268408 0.62043 0
M  V30 1676 H 163.155 -0.179096 2.04618 0
M  V30 1677 H 161.385 -2.59976 2.86268 0
M  V30 1678 H 163.074 -2.43476 3.24768 0
M  V30 1679 H 163.84 -0.514606 4.82262 0
M  V30 1680 H 159.719 -1.62961 4.31236 0
M  V30 1681 H 163.263 0.597081 6.9504 0
M  V30 1682 H 159.16 -0.524242 6.43368 0
M  V30 1683 H 159.928 0.627138 8.16094 0
M  V30 1684 N 162.591 -1.51276 -0.441967 0
M  V30 1685 C 163.839 -1.63392 -1.18943 0
M  V30 1686 C 164.16 -0.350159 -1.9183 0
M  V30 1687 O 163.43 0.633784 -1.85364 0
M  V30 1688 H 162.01 -0.602164 -0.442049 0
M  V30 1689 H 164.672 -1.88186 -0.507165 0
M  V30 1690 H 163.768 -2.45934 -1.92154 0
M  V30 1691 N 164.069 0.697108 -1.41344 0
M  V30 1692 C 164.999 1.82353 -1.45841 0
M  V30 1693 C 165.98 1.67115 -0.317247 0
M  V30 1694 O 167.165 1.86871 -0.528474 0
M  V30 1695 C 164.295 3.20476 -1.33838 0
M  V30 1696 C 163.249 3.50415 -2.4575 0
M  V30 1697 C 162.575 4.87878 -2.18813 0
M  V30 1698 C 163.875 3.49546 -3.88091 0
M  V30 1699 H 165.569 1.78846 -2.40113 0
M  V30 1700 H 163.115 0.859028 -1.15571 0
M  V30 1701 H 165.068 3.98988 -1.35596 0
M  V30 1702 H 163.792 3.24604 -0.360498 0
M  V30 1703 H 162.451 2.74253 -2.43271 0
M  V30 1704 H 162.099 4.8863 -1.19371 0
M  V30 1705 H 161.799 5.08875 -2.93803 0
M  V30 1706 H 163.323 5.68702 -2.22284 0
M  V30 1707 H 164.737 4.18066 -3.92293 0
M  V30 1708 H 163.134 3.82075 -4.62751 0
M  V30 1709 H 164.204 2.48552 -4.16353 0
M  V30 1710 N 165.547 1.27147 0.931209 0
M  V30 1711 C 166.824 1.0401 1.65654 0
M  V30 1712 C 167.204 -0.426297 2.06751 0
M  V30 1713 O 166.552 -1.40879 1.79904 0
M  V30 1714 C 166.762 1.99834 2.86125 0
M  V30 1715 C 168.11 2.29007 3.57549 0
M  V30 1716 O 169.134 1.97779 2.96246 0
M  V30 1717 O 167.993 2.82222 4.67989 0
M  V30 1718 H 165.087 0.396239 0.725895 0
M  V30 1719 H 167.633 1.38397 0.982056 0
M  V30 1720 H 166.405 2.98744 2.52721 0
M  V30 1721 H 166.028 1.65987 3.61295 0
M  V30 1722 N 167.025 -1.13721 1.09112 0
M  V30 1723 C 168.271 -1.85198 0.826414 0
M  V30 1724 C 168.604 -1.83129 -0.646319 0
M  V30 1725 O 167.879 -1.2671 -1.47563 0
M  V30 1726 C 168.162 -3.33507 1.35812 0
M  V30 1727 C 168.015 -3.44108 2.89672 0
M  V30 1728 C 169.334 -4.28838 0.989256 0
M  V30 1729 H 166.453 -0.67243 0.301675 0
M  V30 1730 H 169.095 -1.33499 1.35197 0
M  V30 1731 H 167.245 -3.77666 0.911082 0
M  V30 1732 H 168.917 -3.08684 3.428 0
M  V30 1733 H 167.16 -2.85087 3.26967 0
M  V30 1734 H 167.831 -4.48388 3.21951 0
M  V30 1735 H 170.307 -3.92734 1.37475 0
M  V30 1736 H 169.183 -5.31051 1.38838 0
M  V30 1737 H 169.444 -4.4198 -0.102924 0
M  V30 1738 N 168.503 -0.877838 -1.30888 0
M  V30 1739 C 169.749 -0.502773 -1.97088 0
M  V30 1740 C 170.104 0.936274 -1.68082 0
M  V30 1741 O 169.397 1.65162 -0.971196 0
M  V30 1742 C 169.591 -0.705748 -3.50363 0
M  V30 1743 C 169.42 -2.16297 -3.94266 0
M  V30 1744 C 168.19 -2.80614 -4.20219 0
M  V30 1745 C 170.388 -3.13606 -4.07622 0
M  V30 1746 N 168.37 -4.17007 -4.50532 0
M  V30 1747 C 169.741 -4.35051 -4.41736 0
M  V30 1748 C 171.796 -3.09491 -3.90026 0
M  V30 1749 C 170.499 -5.52911 -4.60089 0
M  V30 1750 C 172.525 -4.26616 -4.09576 0
M  V30 1751 C 171.887 -5.46825 -4.44029 0
M  V30 1752 H 167.986 -0.233168 -0.746429 0
M  V30 1753 H 170.57 -1.13408 -1.58261 0
M  V30 1754 H 168.741 -0.103976 -3.88261 0
M  V30 1755 H 170.473 -0.298291 -4.03599 0
M  V30 1756 H 167.228 -2.3152 -4.13153 0
M  V30 1757 H 167.652 -4.87426 -4.69834 0
M  V30 1758 H 172.294 -2.17657 -3.62471 0
M  V30 1759 H 170.012 -6.45255 -4.86489 0
M  V30 1760 H 173.598 -4.24894 -3.97438 0
M  V30 1761 H 172.478 -6.35947 -4.58848 0
M  V30 1762 N 169.982 1.44106 -0.638065 0
M  V30 1763 C 171.23 2.01579 -0.145043 0
M  V30 1764 C 171.551 1.50496 1.24 0
M  V30 1765 O 170.821 0.711374 1.82527 0
M  V30 1766 H 169.401 0.745282 -0.05063 0
M  V30 1767 H 172.063 1.76516 -0.826327 0
M  V30 1768 H 171.159 3.11877 -0.118039 0
M  V30 1769 N 171.46 0.379036 1.52974 0
M  V30 1770 C 172.392 -0.495963 2.2377 0
M  V30 1771 C 173.405 -1.03517 1.25651 0
M  V30 1772 O 174.594 -0.939249 1.51791 0
M  V30 1773 C 171.694 -1.69894 2.93239 0
M  V30 1774 C 170.867 -1.2889 4.17979 0
M  V30 1775 C 169.926 -2.35543 4.70538 0
M  V30 1776 O 168.952 -1.97375 5.33883 0
M  V30 1777 N 170.154 -3.67318 4.49508 0
M  V30 1778 H 172.919 0.110523 2.99496 0
M  V30 1779 H 170.48 0.204878 1.60598 0
M  V30 1780 H 172.472 -2.40747 3.25304 0
M  V30 1781 H 171.042 -2.212 2.20883 0
M  V30 1782 H 170.262 -0.409676 3.92065 0
M  V30 1783 H 171.55 -0.991443 4.99047 0
M  V30 1784 H 170.948 -4.01095 3.98923 0
M  V30 1785 H 169.505 -4.34235 4.8609 0
M  V30 1786 N 172.938 -1.57226 0.108567 0
M  V30 1787 C 174.186 -1.94448 -0.550853 0
M  V30 1788 C 174.507 -0.992074 -1.67878 0
M  V30 1789 O 173.777 -0.0465 -1.95845 0
M  V30 1790 H 172.357 -0.717897 -0.206479 0
M  V30 1791 H 175.019 -1.94112 0.175062 0
M  V30 1792 H 174.115 -2.97218 -0.952259 0
M  V30 1793 N 174.416 0.165178 -1.56732 0
M  V30 1794 C 175.644 0.896218 -1.86482 0
M  V30 1795 C 176.059 1.75555 -0.694675 0
M  V30 1796 O 175.416 1.79379 0.33607 0
M  V30 1797 C 175.467 1.76792 -3.1532 0
M  V30 1798 O 175.188 0.943239 -4.27825 0
M  V30 1799 C 176.689 2.6081 -3.58459 0
M  V30 1800 H 173.909 0.260064 -0.618553 0
M  V30 1801 H 176.453 0.163428 -2.03846 0
M  V30 1802 H 174.608 2.45398 -2.99764 0
M  V30 1803 H 175.022 1.53998 -5.01383 0
M  V30 1804 H 176.496 3.17579 -4.51495 0
M  V30 1805 H 176.973 3.35977 -2.82872 0
M  V30 1806 H 177.579 1.97526 -3.76648 0
M  V30 1807 N 175.894 1.51508 0.433938 0
M  V30 1808 C 177.122 1.68157 1.20543 0
M  V30 1809 C 177.537 0.380362 1.84929 0
M  V30 1810 O 176.894 -0.641446 1.70856 0
M  V30 1811 C 176.945 2.79965 2.28696 0
M  V30 1812 O 176.666 4.05045 1.66943 0
M  V30 1813 C 178.167 3.07912 3.18912 0
M  V30 1814 H 175.387 0.56421 0.363191 0
M  V30 1815 H 177.931 1.97941 0.513754 0
M  V30 1816 H 176.086 2.5277 2.93574 0
M  V30 1817 H 176.5 4.67165 2.38448 0
M  V30 1818 H 177.974 3.89719 3.90926 0
M  V30 1819 H 178.451 2.20456 3.79863 0
M  V30 1820 H 179.057 3.36779 2.59731 0
M  V30 1821 N 177.372 -0.689602 1.41712 0
M  V30 1822 C 178.618 -1.45181 1.41599 0
M  V30 1823 C 178.951 -1.94181 0.0270081 0
M  V30 1824 O 178.226 -1.6993 -0.946265 0
M  V30 1825 C 178.509 -2.65945 2.42787 0
M  V30 1826 C 178.362 -2.22672 3.90816 0
M  V30 1827 C 179.681 -3.68149 2.41151 0
M  V30 1828 H 176.8 -0.526576 0.515642 0
M  V30 1829 H 179.442 -0.784947 1.73028 0
M  V30 1830 H 177.592 -3.2284 2.16116 0
M  V30 1831 H 179.264 -1.71058 4.28412 0
M  V30 1832 H 177.507 -1.54394 4.05395 0
M  V30 1833 H 178.178 -3.0935 4.57172 0
M  V30 1834 H 180.654 -3.2094 2.64834 0
M  V30 1835 H 179.53 -4.50248 3.13955 0
M  V30 1836 H 179.791 -4.18259 1.43221 0
M  V30 1837 N 178.85 -1.27639 -0.924453 0
M  V30 1838 C 180.078 -1.16989 -1.70649 0
M  V30 1839 C 180.493 0.272869 -1.86818 0
M  V30 1840 O 179.85 1.18549 -1.38753 0
M  V30 1841 C 179.901 -1.85229 -3.10439 0
M  V30 1842 O 179.622 -3.23868 -2.95028 0
M  V30 1843 C 181.123 -1.80746 -4.04779 0
M  V30 1844 H 178.343 -0.406595 -0.53378 0
M  V30 1845 H 180.887 -1.68569 -1.15778 0
M  V30 1846 H 179.042 -1.37545 -3.6216 0
M  V30 1847 H 179.456 -3.57889 -3.83426 0
M  V30 1848 H 180.93 -2.33101 -5.00368 0
M  V30 1849 H 181.407 -0.777499 -4.32263 0
M  V30 1850 H 182.013 -2.28059 -3.58984 0
M  V30 1851 N 180.328 1.1314 -1.09713 0
M  V30 1852 C 181.574 1.84757 -0.836224 0
M  V30 1853 C 181.907 1.8347 0.636598 0
M  V30 1854 O 181.182 1.27491 1.46889 0
M  V30 1855 C 181.465 3.32782 -1.37578 0
M  V30 1856 C 181.318 3.42567 -2.91493 0
M  V30 1857 C 182.637 4.28307 -1.01198 0
M  V30 1858 H 179.756 0.67082 -0.305236 0
M  V30 1859 H 182.398 1.3278 -1.35903 0
M  V30 1860 H 180.548 3.77177 -0.931097 0
M  V30 1861 H 182.22 3.06862 -3.44432 0
M  V30 1862 H 180.463 2.83349 -3.28475 0
M  V30 1863 H 181.134 4.46674 -3.24324 0
M  V30 1864 H 183.61 3.91999 -1.39556 0
M  V30 1865 H 182.486 5.30307 -1.41653 0
M  V30 1866 H 182.747 4.42029 0.0794833 0
M  V30 1867 N 181.806 0.884767 1.30421 0
M  V30 1868 C 183.031 0.517288 2.00845 0
M  V30 1869 C 183.456 -0.886779 1.65885 0
M  V30 1870 O 182.814 -1.58768 0.875354 0
M  V30 1871 C 182.862 0.698994 3.5376 0
M  V30 1872 O 181.966 -0.255208 4.1161 0
M  V30 1873 H 181.307 0.203872 0.631927 0
M  V30 1874 H 183.837 1.19225 1.66272 0
M  V30 1875 H 183.847 0.597912 4.03595 0
M  V30 1876 H 182.522 1.72271 3.78544 0
M  V30 1877 H 181.099 -0.10784 3.72744 0
M  V30 1878 N 183.284 -1.43765 0.645699 0
M  V30 1879 C 184.509 -2.06767 0.161883 0
M  V30 1880 C 184.934 -1.48034 -1.16049 0
M  V30 1881 O 184.292 -0.587369 -1.71522 0
M  V30 1882 C 184.34 -3.60519 0.0762003 0
M  V30 1883 O 183.444 -4.00982 -0.963721 0
M  V30 1884 H 182.785 -0.657675 0.091429 0
M  V30 1885 H 185.315 -1.84397 0.886499 0
M  V30 1886 H 185.325 -4.07853 -0.109604 0
M  V30 1887 H 184 -4.02646 1.04157 0
M  V30 1888 H 182.577 -3.65253 -0.751312 0
M  V30 1889 N 184.763 -0.387143 -1.52771 0
M  V30 1890 C 185.726 0.436939 -2.24997 0
M  V30 1891 C 186.726 0.991991 -1.26555 0
M  V30 1892 O 187.916 0.874335 -1.50669 0
M  V30 1893 C 185.048 1.61281 -3.00335 0
M  V30 1894 H 186.241 -0.195365 -2.99263 0
M  V30 1895 H 183.794 -0.139218 -1.55679 0
M  V30 1896 H 184.529 2.2826 -2.30364 0
M  V30 1897 H 184.314 1.22154 -3.72587 0
M  V30 1898 H 185.804 2.19629 -3.5518 0
M  V30 1899 N 186.241 1.57166 -0.116904 0
M  V30 1900 C 187.466 1.999 0.55271 0
M  V30 1901 C 187.891 0.996039 1.59564 0
M  V30 1902 O 187.249 -0.032556 1.81271 0
M  V30 1903 C 187.297 3.4152 1.15742 0
M  V30 1904 O 186.401 3.44106 2.27299 0
M  V30 1905 H 185.742 0.649447 0.138258 0
M  V30 1906 H 188.272 2.03573 -0.204759 0
M  V30 1907 H 188.282 3.79684 1.49346 0
M  V30 1908 H 186.957 4.14034 0.393493 0
M  V30 1909 H 185.534 3.17759 1.9515 0
M  V30 1910 N 187.719 -0.156864 1.56817 0
M  V30 1911 C 188.947 -0.886316 1.86955 0
M  V30 1912 C 189.362 -1.75185 0.703975 0
M  V30 1913 O 188.719 -1.79555 -0.326552 0
M  V30 1914 C 188.77 -1.75117 3.16253 0
M  V30 1915 O 188.491 -0.920537 4.2832 0
M  V30 1916 C 189.992 -2.58905 3.59837 0
M  V30 1917 H 187.212 -0.25678 0.619923 0
M  V30 1918 H 189.756 -0.152615 2.0393 0
M  V30 1919 H 187.911 -2.43805 3.01062 0
M  V30 1920 H 188.325 -1.51337 5.02192 0
M  V30 1921 H 189.799 -3.1518 4.53172 0
M  V30 1922 H 190.276 -3.34472 2.84649 0
M  V30 1923 H 190.882 -1.95526 3.7769 0
M  V30 1924 N 189.197 -1.51736 -0.425897 0
M  V30 1925 C 190.144 -1.73875 -1.51776 0
M  V30 1926 C 191.114 -0.580702 -1.55618 0
M  V30 1927 O 192.299 -0.81641 -1.72451 0
M  V30 1928 C 189.439 -1.88012 -2.89388 0
M  V30 1929 C 188.552 -3.15606 -2.94986 0
M  V30 1930 C 187.687 -3.20271 -4.23793 0
M  V30 1931 C 186.726 -4.42134 -4.23302 0
M  V30 1932 N 185.863 -4.44284 -5.43651 0
M  V30 1933 H 190.703 -2.67071 -1.32201 0
M  V30 1934 H 188.24 -1.32351 -0.642008 0
M  V30 1935 H 190.198 -1.9419 -3.69251 0
M  V30 1936 H 188.828 -0.98213 -3.07496 0
M  V30 1937 H 187.88 -3.18681 -2.07717 0
M  V30 1938 H 189.192 -4.05486 -2.90486 0
M  V30 1939 H 188.346 -3.25428 -5.12036 0
M  V30 1940 H 187.085 -2.28299 -4.30965 0
M  V30 1941 H 186.09 -4.3714 -3.3345 0
M  V30 1942 H 187.315 -5.35382 -4.17783 0
M  V30 1943 H 185.261 -3.55188 -5.51523 0
M  V30 1944 H 185.178 -5.27988 -5.41078 0
M  V30 1945 H 186.446 -4.53649 -6.33895 0
M  V30 1946 N 190.675 0.682077 -1.42076 0
M  V30 1947 C 191.923 1.4393 -1.41876 0
M  V30 1948 C 192.244 1.94971 -0.0335599 0
M  V30 1949 O 191.514 1.72591 0.926773 0
M  V30 1950 H 190.094 0.534085 -0.522267 0
M  V30 1951 H 192.756 0.806427 -1.77434 0
M  V30 1952 H 191.852 2.29588 -2.11414 0
M  V30 1953 N 192.153 1.28127 0.917671 0
M  V30 1954 C 193.564 1.13622 1.48145 0
M  V30 1955 C 193.915 -0.275207 1.9426 0
M  V30 1956 O 193.04 -1.1691 1.82102 0
M  V30 1957 C 193.635 2.05648 2.69248 0
M  V30 1958 C 192.194 1.95219 3.21818 0
M  V30 1959 C 191.341 1.97618 1.94532 0
M  V30 1960 H 194.292 1.40874 0.730772 0
M  V30 1961 H 194.313 1.61818 3.44377 0
M  V30 1962 H 193.825 3.08365 2.35653 0
M  V30 1963 H 191.926 0.955244 3.60147 0
M  V30 1964 H 192.039 2.81976 3.87333 0
M  V30 1965 H 190.403 1.41973 2.11461 0
M  V30 1966 H 191.186 3.02007 1.63238 0
M  V30 1967 N 193.631 -1.12557 1.10312 0
M  V30 1968 C 194.856 -1.88405 0.867085 0
M  V30 1969 C 195.281 -1.79038 -0.576817 0
M  V30 1970 O 194.639 -1.14439 -1.40618 0
M  V30 1971 C 194.687 -3.3563 1.31851 0
M  V30 1972 O 193.791 -4.09565 0.482734 0
M  V30 1973 H 193.132 -0.585455 0.313271 0
M  V30 1974 H 195.662 -1.42352 1.4696 0
M  V30 1975 H 195.672 -3.86469 1.3079 0
M  V30 1976 H 194.347 -3.41765 2.37001 0
M  V30 1977 H 192.924 -3.68695 0.558448 0
M  V30 1978 N 195.109 -0.891671 -1.2995 0
M  V30 1979 C 196.355 -0.514261 -1.96171 0
M  V30 1980 C 196.688 0.935506 -1.70182 0
M  V30 1981 O 195.963 1.66204 -1.01028 0
M  V30 1982 C 196.246 -0.797719 -3.51153 0
M  V30 1983 C 196.099 -2.2986 -3.86632 0
M  V30 1984 C 197.418 -0.278749 -4.39216 0
M  V30 1985 H 194.537 -0.188314 -0.712535 0
M  V30 1986 H 197.179 -1.11689 -1.53706 0
M  V30 1987 H 195.329 -0.284826 -3.87455 0
M  V30 1988 H 197.001 -2.88042 -3.60319 0
M  V30 1989 H 195.244 -2.76257 -3.34462 0
M  V30 1990 H 195.915 -2.44753 -4.94773 0
M  V30 1991 H 198.391 -0.717825 -4.09862 0
M  V30 1992 H 197.267 -0.506353 -5.46559 0
M  V30 1993 H 197.528 0.820266 -4.34424 0
M  V30 1994 N 196.587 1.43421 -0.653314 0
M  V30 1995 C 197.834 2.01812 -0.166745 0
M  V30 1996 C 198.162 1.51535 1.21931 0
M  V30 1997 O 197.417 0.698975 1.82792 0
M  V30 1998 C 197.716 3.57176 -0.126623 0
M  V30 1999 C 197.382 4.26798 -1.45444 0
M  V30 2000 C 196.044 4.45534 -1.81805 0
M  V30 2001 C 198.396 4.66225 -2.32989 0
M  V30 2002 C 195.724 5.00961 -3.05377 0
M  V30 2003 C 198.076 5.23021 -3.55853 0
M  V30 2004 C 196.74 5.39973 -3.9241 0
M  V30 2005 H 196.01 0.738484 -0.0610162 0
M  V30 2006 H 198.657 1.71896 -0.84404 0
M  V30 2007 H 196.962 3.86634 0.634123 0
M  V30 2008 H 198.659 4.00112 0.266723 0
M  V30 2009 H 195.249 4.12561 -1.16153 0
M  V30 2010 H 199.433 4.51443 -2.06187 0
M  V30 2011 H 194.689 5.12271 -3.3375 0
M  V30 2012 H 198.863 5.52518 -4.23907 0
M  V30 2013 H 196.49 5.82687 -4.88242 0
M  V30 2014 N 198.065 0.39524 1.52563 0
M  V30 2015 C 199.476 -0.0774719 1.86539 0
M  V30 2016 C 199.827 -1.45641 1.31466 0
M  V30 2017 O 198.952 -2.06459 0.648367 0
M  V30 2018 C 199.547 -0.147356 3.38479 0
M  V30 2019 C 198.106 -0.564373 3.72145 0
M  V30 2020 C 197.253 0.269919 2.75983 0
M  V30 2021 H 200.204 0.612876 1.46388 0
M  V30 2022 H 200.225 -0.965343 3.68051 0
M  V30 2023 H 199.737 0.856387 3.78534 0
M  V30 2024 H 197.838 -1.57527 3.37663 0
M  V30 2025 H 197.951 -0.318402 4.78041 0
M  V30 2026 H 196.315 -0.265696 2.5331 0
M  V30 2027 H 197.098 1.27175 3.18875 0
M  V30 2028 N 199.544 -1.57102 0.125237 0
M  V30 2029 C 200.474 -2.18659 -0.819174 0
M  V30 2030 C 201.455 -1.12843 -1.27281 0
M  V30 2031 O 202.64 -1.41104 -1.33429 0
M  V30 2032 C 199.77 -2.79096 -2.06695 0
M  V30 2033 C 198.724 -3.90548 -1.75088 0
M  V30 2034 C 198.05 -4.37821 -3.06948 0
M  V30 2035 C 199.35 -5.12356 -1.01435 0
M  V30 2036 H 201.044 -2.9783 -0.306202 0
M  V30 2037 H 198.59 -1.4326 -0.145839 0
M  V30 2038 H 200.543 -3.2082 -2.73226 0
M  V30 2039 H 199.267 -1.97223 -2.60328 0
M  V30 2040 H 197.926 -3.49409 -1.10944 0
M  V30 2041 H 197.574 -3.52799 -3.58527 0
M  V30 2042 H 197.274 -5.12982 -2.86571 0
M  V30 2043 H 198.798 -4.822 -3.74587 0
M  V30 2044 H 200.212 -5.5106 -1.58132 0
M  V30 2045 H 198.609 -5.9314 -0.911319 0
M  V30 2046 H 199.679 -4.849 -0.00218681 0
M  V30 2047 N 201.022 0.148545 -1.56898 0
M  V30 2048 C 201.985 1.16736 -1.97244 0
M  V30 2049 C 202.985 1.35947 -0.858777 0
M  V30 2050 O 204.175 1.32966 -1.12542 0
M  V30 2051 C 201.307 2.52798 -2.28705 0
M  V30 2052 H 202.5 0.821279 -2.88435 0
M  V30 2053 H 200.053 0.391831 -1.51309 0
M  V30 2054 H 200.788 2.92381 -1.403 0
M  V30 2055 H 200.573 2.40216 -3.09901 0
M  V30 2056 H 202.063 3.26179 -2.60762 0
M  V30 2057 N 202.5 1.5196 0.417844 0
M  V30 2058 C 203.911 1.57851 0.997 0
M  V30 2059 C 204.262 0.413714 1.91789 0
M  V30 2060 O 203.387 -0.467057 2.113 0
M  V30 2061 C 203.982 2.86085 1.81496 0
M  V30 2062 C 202.541 2.94483 2.34428 0
M  V30 2063 C 201.688 2.52707 1.14169 0
M  V30 2064 H 204.639 1.57455 0.198392 0
M  V30 2065 H 204.66 2.70947 2.67148 0
M  V30 2066 H 204.172 3.70842 1.14446 0
M  V30 2067 H 202.273 2.142 3.04875 0
M  V30 2068 H 202.386 3.98546 2.65891 0
M  V30 2069 H 200.75 2.06353 1.49301 0
M  V30 2070 H 201.533 3.39828 0.486999 0
M  V30 2071 N 203.978 -0.674533 1.42435 0
M  V30 2072 C 205.218 -1.4466 1.44405 0
M  V30 2073 C 205.582 -1.91911 0.0585784 0
M  V30 2074 O 206.783 -2.68759 -0.0469991 0
M  V30 2075 C 205.054 -2.61136 2.44013 0
M  V30 2076 S 206.613 -3.49981 2.64687 0
M  V30 2077 H 203.431 -0.494074 0.511284 0
M  V30 2078 H 206.033 -0.785162 1.7904 0
M  V30 2079 H 204.737 -2.24662 3.43446 0
M  V30 2080 H 204.268 -3.32153 2.10803 0
M  V30 2081 H 206.283 -4.57124 1.93007 0
M  V30 2082 N 205.456 -1.28612 -0.910864 0
M  V30 2083 C 206.681 -1.1891 -1.69927 0
M  V30 2084 C 207.106 0.248372 -1.86453 0
M  V30 2085 O 206.464 1.17961 -1.37676 0
M  V30 2086 C 206.512 -1.89578 -3.06745 0
M  V30 2087 O 205.616 -1.20521 -3.94396 0
M  V30 2088 H 204.957 -0.412632 -0.520222 0
M  V30 2089 H 207.487 -1.69985 -1.1387 0
M  V30 2090 H 207.497 -1.97597 -3.56958 0
M  V30 2091 H 206.172 -2.94136 -2.94035 0
M  V30 2092 H 204.749 -1.20684 -3.52831 0
M  V30 2093 N 206.934 1.1197 -1.10907 0
M  V30 2094 C 208.35 1.35591 -0.841852 0
M  V30 2095 C 208.55 1.94233 0.536246 0
M  V30 2096 O 207.606 2.1717 1.28816 0
M  V30 2097 C 208.919 2.29284 -1.94549 0
M  V30 2098 C 210.467 2.42862 -1.97451 0
M  V30 2099 C 210.942 3.39873 -3.07002 0
M  V30 2100 N 212.433 3.47433 -3.06341 0
M  V30 2101 C 213.168 4.22421 -3.87748 0
M  V30 2102 N 212.664 5.00432 -4.79103 0
M  V30 2103 N 214.457 4.17876 -3.75946 0
M  V30 2104 H 206.608 0.722664 -1.99728 0
M  V30 2105 H 208.871 0.380635 -0.868229 0
M  V30 2106 H 208.577 1.93378 -2.93765 0
M  V30 2107 H 208.451 3.29452 -1.83688 0
M  V30 2108 H 210.838 2.78046 -0.988645 0
M  V30 2109 H 210.919 1.42566 -2.12388 0
M  V30 2110 H 210.563 3.05417 -4.05811 0
M  V30 2111 H 210.493 4.40011 -2.89306 0
M  V30 2112 H 212.984 2.91784 -2.40147 0
M  V30 2113 H 213.297 5.55002 -5.37766 0
M  V30 2114 H 211.642 4.99612 -4.83128 0
M  V30 2115 H 214.833 3.56016 -3.03924 0
M  V30 2116 H 215.006 4.76061 -4.39624 0
M  V30 2117 N 208.412 0.89855 1.29475 0
M  V30 2118 C 209.637 0.538561 2.00285 0
M  V30 2119 C 210.062 -0.869135 1.66816 0
M  V30 2120 O 209.42 -1.57831 0.892145 0
M  V30 2121 C 209.468 0.736475 3.52999 0
M  V30 2122 O 208.572 -0.211537 4.11857 0
M  V30 2123 H 207.913 0.210563 0.62973 0
M  V30 2124 H 210.443 1.20982 1.64998 0
M  V30 2125 H 210.453 0.640685 4.02938 0
M  V30 2126 H 209.128 1.76276 3.76696 0
M  V30 2127 H 207.705 -0.0682991 3.72837 0
M  V30 2128 N 209.89 -1.43072 0.660911 0
M  V30 2129 C 211.118 -2.06067 0.185422 0
M  V30 2130 C 211.533 -1.49582 -1.15198 0
M  V30 2131 O 210.89 -0.630134 -1.71276 0
M  V30 2132 C 210.941 -3.61371 0.0966523 0
M  V30 2133 O 210.662 -4.15758 1.38119 0
M  V30 2134 C 212.163 -4.41455 -0.403996 0
M  V30 2135 H 209.383 -0.664459 0.0934604 0
M  V30 2136 H 211.927 -1.83447 0.90373 0
M  V30 2137 H 210.082 -3.8315 -0.572259 0
M  V30 2138 H 210.496 -5.09499 1.24542 0
M  V30 2139 H 211.97 -5.50437 -0.415045 0
M  V30 2140 H 212.447 -4.15036 -1.43674 0
M  V30 2141 H 213.053 -4.24663 0.232691 0
M  V30 2142 N 211.368 -0.403325 -1.52352 0
M  V30 2143 C 212.593 0.176499 -2.06648 0
M  V30 2144 C 213.018 1.38577 -1.27193 0
M  V30 2145 O 212.376 1.7879 -0.300637 0
M  V30 2146 C 212.424 0.511061 -3.5696 0
M  V30 2147 O 211.528 1.60294 -3.79973 0
M  V30 2148 H 210.869 0.0167337 -0.663789 0
M  V30 2149 H 213.399 -0.574848 -1.96359 0
M  V30 2150 H 213.409 0.771362 -4.00642 0
M  V30 2151 H 212.084 -0.37296 -4.14224 0
M  V30 2152 H 210.661 1.33526 -3.48174 0
M  V30 2153 N 212.846 1.57033 -0.133567 0
M  V30 2154 C 213.756 2.19632 0.824564 0
M  V30 2155 C 214.772 1.17666 1.28182 0
M  V30 2156 O 215.948 1.50193 1.3418 0
M  V30 2157 C 213.013 2.79499 2.05137 0
M  V30 2158 C 212.074 3.96548 1.64464 0
M  V30 2159 C 211.307 4.5355 2.81297 0
M  V30 2160 O 211.53 4.09438 3.97136 0
M  V30 2161 O 210.464 5.44018 2.57542 0
M  V30 2162 H 214.29 3.01991 0.321766 0
M  V30 2163 H 211.875 1.49112 0.0927889 0
M  V30 2164 H 213.757 3.17602 2.7696 0
M  V30 2165 H 212.432 2.00162 2.54395 0
M  V30 2166 H 211.339 3.63186 0.897048 0
M  V30 2167 H 212.672 4.77364 1.19934 0
M  V30 2168 N 214.325 -0.140222 1.56975 0
M  V30 2169 C 215.55 -0.870414 1.88251 0
M  V30 2170 C 215.975 -1.73637 0.723312 0
M  V30 2171 O 215.333 -1.78329 -0.32689 0
M  V30 2172 C 215.381 -1.69737 3.18154 0
M  V30 2173 O 214.485 -2.80229 3.02565 0
M  V30 2174 H 213.826 -0.242025 0.61832 0
M  V30 2175 H 216.356 -0.128999 2.04193 0
M  V30 2176 H 216.366 -2.09099 3.50345 0
M  V30 2177 H 215.041 -1.06152 4.02125 0
M  V30 2178 H 213.618 -2.44224 2.81796 0
M  V30 2179 N 215.803 -1.52179 -0.40978 0
M  V30 2180 C 217.031 -1.70054 -1.17853 0
M  V30 2181 C 217.446 -0.409735 -1.843 0
M  V30 2182 O 216.803 0.614183 -1.71855 0
M  V30 2183 C 216.854 -2.83568 -2.24213 0
M  V30 2184 O 216.575 -4.0765 -1.60478 0
M  V30 2185 C 218.076 -3.12947 -3.13973 0
M  V30 2186 H 215.296 -0.569917 -0.354169 0
M  V30 2187 H 217.84 -1.98734 -0.482198 0
M  V30 2188 H 215.995 -2.57409 -2.89516 0
M  V30 2189 H 216.409 -4.70899 -2.30986 0
M  V30 2190 H 217.883 -3.95889 -3.84677 0
M  V30 2191 H 218.36 -2.26472 -3.76307 0
M  V30 2192 H 218.966 -3.40868 -2.5434 0
M  V30 2193 N 217.281 0.66697 -1.42791 0
M  V30 2194 C 218.244 1.76211 -1.46568 0
M  V30 2195 C 219.244 1.56896 -0.352196 0
M  V30 2196 O 220.434 1.63044 -0.613364 0
M  V30 2197 C 217.566 3.14935 -1.30494 0
M  V30 2198 H 218.759 1.74247 -2.44086 0
M  V30 2199 H 216.312 0.877342 -1.29354 0
M  V30 2200 H 217.047 3.2252 -0.339301 0
M  V30 2201 H 216.832 3.30359 -2.11199 0
M  V30 2202 H 218.322 3.94821 -1.36038 0
M  V30 2203 N 218.759 1.29093 0.90403 0
M  V30 2204 C 219.722 1.1386 1.98919 0
M  V30 2205 C 220.722 0.0753457 1.60623 0
M  V30 2206 O 221.912 0.321931 1.71199 0
M  V30 2207 C 219.044 0.740198 3.32767 0
M  V30 2208 H 220.237 2.10246 2.13861 0
M  V30 2209 H 217.79 1.12218 1.08797 0
M  V30 2210 H 218.525 -0.223997 3.23525 0
M  V30 2211 H 218.31 1.50838 3.61926 0
M  V30 2212 H 219.8 0.656546 4.12407 0
M  V30 2213 N 220.237 -1.11381 1.11499 0
M  V30 2214 C 221.167 -2.19509 0.796125 0
M  V30 2215 C 222.148 -1.68458 -0.235796 0
M  V30 2216 O 223.333 -1.93947 -0.0991344 0
M  V30 2217 C 220.463 -3.46475 0.239205 0
M  V30 2218 C 219.417 -4.10744 1.20307 0
M  V30 2219 C 218.743 -5.32293 0.50683 0
M  V30 2220 C 220.043 -4.55597 2.55399 0
M  V30 2221 H 221.737 -2.46439 1.70024 0
M  V30 2222 H 219.283 -1.18446 0.818935 0
M  V30 2223 H 221.236 -4.214 0.00392006 0
M  V30 2224 H 219.96 -3.19006 -0.700206 0
M  V30 2225 H 218.619 -3.37813 1.42399 0
M  V30 2226 H 218.267 -5.01095 -0.437408 0
M  V30 2227 H 217.967 -5.76243 1.1497 0
M  V30 2228 H 219.491 -6.09956 0.280351 0
M  V30 2229 H 220.905 -5.21841 2.37391 0
M  V30 2230 H 219.302 -5.10363 3.15673 0
M  V30 2231 H 220.372 -3.69013 3.14575 0
M  V30 2232 N 221.715 -0.905404 -1.28997 0
M  V30 2233 C 222.963 -0.533192 -1.9494 0
M  V30 2234 C 223.284 0.924618 -1.71685 0
M  V30 2235 O 222.554 1.65268 -1.05183 0
M  V30 2236 H 221.134 -0.194194 -0.721317 0
M  V30 2237 H 223.796 -1.15294 -1.57141 0
M  V30 2238 H 222.892 -0.72059 -3.03667 0
M  V30 2239 N 223.193 1.4272 -0.668489 0
M  V30 2240 C 224.433 2.03497 -0.19194 0
M  V30 2241 C 224.797 1.51684 1.17712 0
M  V30 2242 O 225.998 2.04205 1.74796 0
M  V30 2243 C 224.269 3.56734 -0.218032 0
M  V30 2244 S 225.828 4.38395 0.188438 0
M  V30 2245 H 222.646 0.706542 -0.0794959 0
M  V30 2246 H 225.248 1.74563 -0.880235 0
M  V30 2247 H 223.952 3.91943 -1.2169 0
M  V30 2248 H 223.483 3.90333 0.490303 0
M  V30 2249 H 225.498 4.75345 1.42345 0
M  V30 2250 N 224.671 0.411399 1.52136 0
M  V30 2251 C 225.601 -0.404015 2.29978 0
M  V30 2252 C 226.582 -1.04412 1.34284 0
M  V30 2253 O 227.767 -1.0527 1.63192 0
M  V30 2254 C 224.897 -1.5197 3.12286 0
M  V30 2255 C 223.851 -1.00448 4.16046 0
M  V30 2256 C 223.177 -2.21393 4.86712 0
M  V30 2257 C 224.477 -0.0569336 5.22269 0
M  V30 2258 H 226.171 0.245529 2.98392 0
M  V30 2259 H 223.717 0.119525 1.43503 0
M  V30 2260 H 225.67 -2.09715 3.6551 0
M  V30 2261 H 224.394 -2.19716 2.41646 0
M  V30 2262 H 223.053 -0.449421 3.63835 0
M  V30 2263 H 222.701 -2.87699 4.12599 0
M  V30 2264 H 222.401 -1.87571 5.56858 0
M  V30 2265 H 223.925 -2.7974 5.4275 0
M  V30 2266 H 225.339 -0.54325 5.7072 0
M  V30 2267 H 223.736 0.192594 5.99791 0
M  V30 2268 H 224.806 0.887663 4.76706 0
M  V30 2269 N 226.149 -1.5696 0.141893 0
M  V30 2270 C 227.395 -1.9625 -0.511248 0
M  V30 2271 C 227.728 -1.02654 -1.64851 0
M  V30 2272 O 227.003 -0.0679676 -1.94381 0
M  V30 2273 C 227.286 -3.45285 -1.02227 0
M  V30 2274 C 227.139 -4.49658 0.113138 0
M  V30 2275 C 228.458 -3.96698 -1.90574 0
M  V30 2276 H 225.577 -0.713567 -0.184367 0
M  V30 2277 H 228.219 -1.88698 0.222087 0
M  V30 2278 H 226.369 -3.51852 -1.64719 0
M  V30 2279 H 228.041 -4.55174 0.749302 0
M  V30 2280 H 226.284 -4.26857 0.773026 0
M  V30 2281 H 226.955 -5.51258 -0.286053 0
M  V30 2282 H 229.431 -3.92578 -1.37918 0
M  V30 2283 H 228.307 -5.01453 -2.2324 0
M  V30 2284 H 228.568 -3.3875 -2.84079 0
M  V30 2285 N 227.627 0.131896 -1.57047 0
M  V30 2286 C 228.574 1.16236 -1.99393 0
M  V30 2287 C 229.544 1.41863 -0.863943 0
M  V30 2288 O 230.729 1.53946 -1.12718 0
M  V30 2289 C 227.869 2.48708 -2.39245 0
M  V30 2290 C 226.982 2.30127 -3.65603 0
M  V30 2291 C 226.117 3.55738 -3.94492 0
M  V30 2292 C 225.156 3.32259 -5.14073 0
M  V30 2293 N 224.293 4.50039 -5.38896 0
M  V30 2294 H 229.133 0.794251 -2.87221 0
M  V30 2295 H 226.67 0.380707 -1.42088 0
M  V30 2296 H 228.628 3.25969 -2.60384 0
M  V30 2297 H 227.258 2.83437 -1.54478 0
M  V30 2298 H 226.31 1.43845 -3.52154 0
M  V30 2299 H 227.622 2.08746 -4.5302 0
M  V30 2300 H 226.776 4.41423 -4.1621 0
M  V30 2301 H 225.515 3.80138 -3.05526 0
M  V30 2302 H 224.52 2.44963 -4.92212 0
M  V30 2303 H 225.745 3.09242 -6.04604 0
M  V30 2304 H 223.691 4.74584 -4.52886 0
M  V30 2305 H 223.608 4.31716 -6.2061 0
M  V30 2306 H 224.876 5.36895 -5.65123 0
M  V30 2307 N 229.106 1.52395 0.401703 0
M  V30 2308 C 230.383 1.57387 1.16141 0
M  V30 2309 C 230.763 0.359359 2.08019 0
M  V30 2310 O 230.111 -0.65326 2.18963 0
M  V30 2311 C 230.321 2.90631 1.93221 0
M  V30 2312 C 231.669 3.43904 2.49028 0
M  V30 2313 O 232.693 2.92421 2.03393 0
M  V30 2314 O 231.552 4.33823 3.32356 0
M  V30 2315 H 228.646 0.634262 0.530698 0
M  V30 2316 H 231.192 1.64725 0.407883 0
M  V30 2317 H 229.964 3.70473 1.25958 0
M  V30 2318 H 229.587 2.8662 2.75563 0
M  V30 2319 N 230.584 -0.659388 1.43143 0
M  V30 2320 C 231.814 -1.44513 1.47646 0
M  V30 2321 C 232.222 -1.88981 0.0910095 0
M  V30 2322 O 231.565 -1.59702 -0.907789 0
M  V30 2323 C 231.627 -2.71663 2.35456 0
M  V30 2324 C 231.291 -2.49175 3.83094 0
M  V30 2325 C 232.288 -2.1279 4.74359 0
M  V30 2326 C 229.973 -2.63691 4.27519 0
M  V30 2327 C 231.967 -1.9121 6.08044 0
M  V30 2328 C 229.654 -2.41726 5.61259 0
M  V30 2329 C 230.652 -2.0554 6.51339 0
M  V30 2330 O 230.34 -1.838 7.82606 0
M  V30 2331 H 230.072 -0.45064 0.503884 0
M  V30 2332 H 232.626 -0.816248 1.88485 0
M  V30 2333 H 230.856 -3.37089 1.89493 0
M  V30 2334 H 232.545 -3.33595 2.31235 0
M  V30 2335 H 233.311 -2.01157 4.41317 0
M  V30 2336 H 229.19 -2.90832 3.57684 0
M  V30 2337 H 232.734 -1.62889 6.78316 0
M  V30 2338 H 228.631 -2.52959 5.9387 0
M  V30 2339 H 229.399 -1.98275 7.94122 0
M  V30 2340 N 232.062 -1.29571 -0.897171 0
M  V30 2341 C 233.309 -1.17689 -1.6479 0
M  V30 2342 C 233.637 0.27107 -1.92602 0
M  V30 2343 O 232.892 1.21193 -1.53658 0
M  V30 2344 C 233.191 -1.9382 -3.00281 0
M  V30 2345 C 232.857 -3.43522 -2.92068 0
M  V30 2346 C 231.519 -3.84348 -2.89535 0
M  V30 2347 C 233.871 -4.38906 -2.81089 0
M  V30 2348 C 231.199 -5.18869 -2.73846 0
M  V30 2349 C 233.551 -5.73521 -2.66939 0
M  V30 2350 C 232.215 -6.13601 -2.62774 0
M  V30 2351 H 231.485 -0.430654 -0.603008 0
M  V30 2352 H 234.132 -1.60536 -1.04404 0
M  V30 2353 H 232.437 -1.4357 -3.64547 0
M  V30 2354 H 234.134 -1.82028 -3.57305 0
M  V30 2355 H 230.724 -3.11072 -2.94842 0
M  V30 2356 H 234.908 -4.08315 -2.82121 0
M  V30 2357 H 230.164 -5.4903 -2.69027 0
M  V30 2358 H 234.338 -6.47078 -2.57416 0
M  V30 2359 H 231.965 -7.17786 -2.50375 0
M  V30 2360 N 233.54 1.10788 -1.12088 0
M  V30 2361 C 234.951 1.64181 -0.88891 0
M  V30 2362 C 235.302 1.87508 0.577498 0
M  V30 2363 O 234.427 1.61434 1.44112 0
M  V30 2364 C 235.022 2.98257 -1.60712 0
M  V30 2365 C 233.581 3.4853 -1.42139 0
M  V30 2366 C 232.728 2.23208 -1.6454 0
M  V30 2367 H 235.679 0.943368 -1.27618 0
M  V30 2368 H 235.7 3.65552 -1.05604 0
M  V30 2369 H 235.212 2.81246 -2.67436 0
M  V30 2370 H 233.313 3.70692 -0.376552 0
M  V30 2371 H 233.426 4.26882 -2.17505 0
M  V30 2372 H 231.79 2.31169 -1.06925 0
M  V30 2373 H 232.573 2.08733 -2.72554 0
M  V30 2374 N 235.018 0.912232 1.28515 0
M  V30 2375 C 235.928 0.404506 2.31086 0
M  V30 2376 C 236.944 -0.50707 1.66448 0
M  V30 2377 O 238.12 -0.393624 1.97516 0
M  V30 2378 C 235.185 -0.348572 3.44943 0
M  V30 2379 C 234.246 0.59604 4.25142 0
M  V30 2380 C 233.479 -0.121194 5.33562 0
M  V30 2381 O 233.702 -1.34317 5.5436 0
M  V30 2382 O 232.636 0.542716 5.99448 0
M  V30 2383 H 236.462 1.25579 2.76521 0
M  V30 2384 H 234.047 0.676998 1.33181 0
M  V30 2385 H 235.929 -0.77395 4.14232 0
M  V30 2386 H 234.604 -1.17571 3.01594 0
M  V30 2387 H 233.511 1.07079 3.58448 0
M  V30 2388 H 234.844 1.38995 4.72167 0
M  V30 2389 N 236.496 -1.42363 0.676048 0
M  V30 2390 C 237.907 -1.84649 0.275948 0
M  V30 2391 C 238.258 -1.56588 -1.18214 0
M  V30 2392 O 237.383 -1.02634 -1.90513 0
M  V30 2393 C 237.978 -3.35178 0.494053 0
M  V30 2394 C 236.537 -3.76109 0.148061 0
M  V30 2395 C 235.684 -2.65931 0.785891 0
M  V30 2396 H 238.635 -1.32192 0.878121 0
M  V30 2397 H 238.656 -3.79655 -0.25343 0
M  V30 2398 H 238.168 -3.55571 1.55535 0
M  V30 2399 H 236.269 -3.61323 -0.909742 0
M  V30 2400 H 236.382 -4.7546 0.589454 0
M  V30 2401 H 234.746 -2.53773 0.217113 0
M  V30 2402 H 235.529 -2.89146 1.85067 0
M  V30 2403 N 237.974 -0.419461 -1.51915 0
M  V30 2404 C 239.22 0.153166 -2.02221 0
M  V30 2405 C 239.553 1.43907 -1.30401 0
M  V30 2406 O 238.828 1.90055 -0.413438 0
M  V30 2407 C 239.111 0.390291 -3.57979 0
M  V30 2408 C 238.964 -0.913014 -4.40436 0
M  V30 2409 C 240.283 1.16794 -4.2432 0
M  V30 2410 H 237.402 0.0541924 -0.735005 0
M  V30 2411 H 240.044 -0.554955 -1.81715 0
M  V30 2412 H 238.194 0.993491 -3.75582 0
M  V30 2413 H 239.866 -1.54882 -4.34522 0
M  V30 2414 H 238.109 -1.52168 -4.06236 0
M  V30 2415 H 238.78 -0.701361 -5.47526 0
M  V30 2416 H 241.256 0.657161 -4.10878 0
M  V30 2417 H 240.132 1.3026 -5.3322 0
M  V30 2418 H 240.393 2.19132 -3.83971 0
M  V30 2419 N 239.452 1.56882 -0.150215 0
M  V30 2420 C 240.68 2.00593 0.506948 0
M  V30 2421 C 241.095 1.03033 1.58208 0
M  V30 2422 O 240.452 0.0278396 1.82479 0
M  V30 2423 C 240.503 3.44209 1.10465 0
M  V30 2424 O 240.224 4.3804 0.0724636 0
M  V30 2425 C 241.725 4.03214 1.84211 0
M  V30 2426 H 238.945 0.65795 0.13169 0
M  V30 2427 H 241.489 2.03018 -0.245743 0
M  V30 2428 H 239.644 3.42625 1.80795 0
M  V30 2429 H 240.058 5.22007 0.510793 0
M  V30 2430 H 241.532 5.0569 2.21318 0
M  V30 2431 H 242.009 3.44107 2.72923 0
M  V30 2432 H 242.615 4.08437 1.18572 0
M  V30 2433 N 240.93 -0.123565 1.57115 0
M  V30 2434 C 242.176 -0.833386 1.84885 0
M  V30 2435 C 242.509 -1.79742 0.735292 0
M  V30 2436 O 241.784 -1.92764 -0.25925 0
M  V30 2437 C 242.067 -1.5873 3.23228 0
M  V30 2438 C 241.92 -0.643183 4.45178 0
M  V30 2439 C 243.239 -2.54453 3.59085 0
M  V30 2440 H 240.358 -0.301518 0.6725 0
M  V30 2441 H 243 -0.097778 1.89748 0
M  V30 2442 H 241.15 -2.21438 3.19214 0
M  V30 2443 H 242.822 -0.0253015 4.61293 0
M  V30 2444 H 241.065 0.0456139 4.33776 0
M  V30 2445 H 241.736 -1.20724 5.38637 0
M  V30 2446 H 244.212 -2.01853 3.63861 0
M  V30 2447 H 243.088 -3.04238 4.5687 0
M  V30 2448 H 243.349 -3.36906 2.86264 0
M  V30 2449 N 242.408 -1.52605 -0.393616 0
M  V30 2450 C 243.633 -1.71592 -1.16495 0
M  V30 2451 C 244.058 -0.43133 -1.83088 0
M  V30 2452 O 243.416 0.612523 -1.7064 0
M  V30 2453 C 243.464 -2.86318 -2.19213 0
M  V30 2454 O 242.568 -2.52969 -3.257 0
M  V30 2455 H 241.909 -0.570734 -0.33935 0
M  V30 2456 H 244.439 -1.99377 -0.459324 0
M  V30 2457 H 244.449 -3.1168 -2.63286 0
M  V30 2458 H 243.124 -3.79511 -1.7013 0
M  V30 2459 H 241.701 -2.38332 -2.86797 0
M  V30 2460 N 243.887 0.651787 -1.4349 0
M  V30 2461 C 245.133 1.4121 -1.46395 0
M  V30 2462 C 245.488 1.92202 -0.087366 0
M  V30 2463 O 244.781 1.69452 0.894231 0
M  V30 2464 C 244.975 2.60914 -2.44251 0
M  V30 2465 C 244.804 2.21639 -3.91288 0
M  V30 2466 C 243.574 2.09897 -4.59643 0
M  V30 2467 C 245.772 1.81835 -4.81083 0
M  V30 2468 N 243.754 1.63967 -5.91598 0
M  V30 2469 C 245.125 1.46998 -6.02322 0
M  V30 2470 C 247.18 1.69031 -4.6833 0
M  V30 2471 C 245.883 1.00638 -7.12225 0
M  V30 2472 C 247.909 1.24077 -5.78238 0
M  V30 2473 C 247.271 0.901772 -6.98604 0
M  V30 2474 H 243.37 0.512322 -0.590805 0
M  V30 2475 H 245.954 0.74989 -1.7968 0
M  V30 2476 H 244.125 3.24792 -2.1299 0
M  V30 2477 H 245.857 3.27622 -2.37584 0
M  V30 2478 H 242.612 2.297 -4.14168 0
M  V30 2479 H 243.036 1.43359 -6.61647 0
M  V30 2480 H 247.678 1.93878 -3.75727 0
M  V30 2481 H 245.396 0.745399 -8.04655 0
M  V30 2482 H 248.982 1.14657 -5.7039 0
M  V30 2483 H 247.862 0.559226 -7.82203 0
M  V30 2484 N 245.365 1.30045 0.890287 0
M  V30 2485 C 246.313 1.15873 2.01683 0
M  V30 2486 C 247.307 0.0719403 1.69247 0
M  V30 2487 O 248.513 0.232414 1.78493 0
M  V30 2488 H 244.888 0.358203 0.661207 0
M  V30 2489 H 246.859 2.11229 2.10772 0
M  V30 2490 C 245.608 0.861842 3.36849 0
M  V30 2491 H 244.931 1.69016 3.62317 0
M  V30 2492 H 246.371 0.802762 4.16331 0
M  V30 2493 C 244.83 -0.435132 3.34078 0
M  V30 2494 O 245.36 -1.4583 3.74295 0
M  V30 2495 N 243.566 -0.444377 2.87182 0
M  V30 2496 H 243.113 0.388723 2.5465 0
M  V30 2497 H 243.071 -1.31213 2.85711 0
M  V30 2498 N 246.843 -1.10192 1.12674 0
M  V30 2499 C 248.068 -1.86523 0.906853 0
M  V30 2500 C 248.493 -1.80221 -0.538711 0
M  V30 2501 O 247.851 -1.17396 -1.38158 0
M  V30 2502 C 247.899 -3.32758 1.3894 0
M  V30 2503 O 247.003 -4.08449 0.5695 0
M  V30 2504 H 246.344 -0.578678 0.325619 0
M  V30 2505 H 248.874 -1.39203 1.49946 0
M  V30 2506 H 248.884 -3.83608 1.38958 0
M  V30 2507 H 247.559 -3.36661 2.44197 0
M  V30 2508 H 246.136 -3.67427 0.636528 0
M  V30 2509 N 248.321 -0.919034 -1.28029 0
M  V30 2510 C 249.569 -0.553838 -1.94363 0
M  V30 2511 C 249.89 0.906357 -1.72656 0
M  V30 2512 O 249.16 1.64143 -1.0693 0
M  V30 2513 H 247.74 -0.201834 -0.719216 0
M  V30 2514 H 250.402 -1.16954 -1.55909 0
M  V30 2515 H 249.498 -0.752758 -3.02886 0
M  V30 2516 N 249.799 1.42003 -0.683588 0
M  V30 2517 C 250.762 2.29191 -0.0198243 0
M  V30 2518 C 251.762 1.43773 0.72013 0
M  V30 2519 O 252.952 1.65061 0.556815 0
M  V30 2520 C 250.084 3.26435 0.982487 0
M  V30 2521 H 251.277 2.8938 -0.787345 0
M  V30 2522 H 248.83 1.49789 -0.446418 0
M  V30 2523 H 249.565 2.71203 1.77819 0
M  V30 2524 H 249.35 3.89449 0.455182 0
M  V30 2525 H 250.84 3.918 1.44508 0
M  V30 2526 N 251.277 0.427512 1.51691 0
M  V30 2527 C 252.207 -0.3796 2.30394 0
M  V30 2528 C 253.188 -1.02982 1.35384 0
M  V30 2529 O 254.373 -1.03534 1.643 0
M  V30 2530 C 251.503 -1.48649 3.1388 0
M  V30 2531 C 250.457 -0.960294 4.17088 0
M  V30 2532 C 249.783 -2.16219 4.89033 0
M  V30 2533 C 251.083 -0.00153679 5.223 0
M  V30 2534 H 252.777 0.277164 2.98114 0
M  V30 2535 H 250.323 0.134739 1.43368 0
M  V30 2536 H 252.276 -2.05826 3.67714 0
M  V30 2537 H 251 -2.1714 2.43962 0
M  V30 2538 H 249.659 -0.410806 3.64291 0
M  V30 2539 H 249.307 -2.83307 4.15628 0
M  V30 2540 H 249.007 -1.81654 5.58816 0
M  V30 2541 H 250.531 -2.73968 5.45687 0
M  V30 2542 H 251.945 -0.482687 5.71264 0
M  V30 2543 H 250.342 0.256199 5.99553 0
M  V30 2544 H 251.412 0.938174 4.75738 0
M  V30 2545 N 252.755 -1.56801 0.158532 0
M  V30 2546 C 253.983 -2.00859 -0.496303 0
M  V30 2547 C 254.398 -1.03871 -1.57659 0
M  V30 2548 O 253.755 -0.0375165 -1.82461 0
M  V30 2549 C 253.806 -3.4479 -1.08638 0
M  V30 2550 O 253.527 -4.38072 -0.0492322 0
M  V30 2551 C 255.028 -4.04185 -1.8207 0
M  V30 2552 H 252.248 -0.65864 -0.128199 0
M  V30 2553 H 254.792 -2.02885 0.256506 0
M  V30 2554 H 252.947 -3.43579 -1.78975 0
M  V30 2555 H 253.361 -5.2227 -0.483102 0
M  V30 2556 H 254.835 -5.06857 -2.18633 0
M  V30 2557 H 255.312 -3.45549 -2.71095 0
M  V30 2558 H 255.918 -4.0906 -1.16405 0
M  V30 2559 N 254.233 0.115231 -1.57178 0
M  V30 2560 C 255.458 0.840354 -1.89612 0
M  V30 2561 C 255.883 1.72464 -0.750845 0
M  V30 2562 O 255.241 1.78826 0.298478 0
M  V30 2563 C 255.289 1.64654 -3.20814 0
M  V30 2564 O 254.393 2.7538 -3.06985 0
M  V30 2565 H 253.734 0.232158 -0.622092 0
M  V30 2566 H 256.264 0.0964977 -2.04372 0
M  V30 2567 H 256.274 2.03499 -3.53627 0
M  V30 2568 H 254.949 0.997416 -4.03763 0
M  V30 2569 H 253.526 2.3971 -2.85646 0
M  V30 2570 N 255.711 1.52812 0.385517 0
M  V30 2571 C 256.959 1.67694 1.12797 0
M  V30 2572 C 257.28 0.421115 1.90399 0
M  V30 2573 O 256.55 -0.564551 1.87589 0
M  V30 2574 H 255.13 0.618155 0.419396 0
M  V30 2575 H 257.792 1.89938 0.436972 0
M  V30 2576 H 256.888 2.52896 1.82894 0
M  V30 2577 N 257.189 -0.644168 1.43834 0
M  V30 2578 C 258.435 -1.40603 1.46146 0
M  V30 2579 C 258.768 -1.93997 0.0887717 0
M  V30 2580 O 258.043 -1.72854 -0.891724 0
M  V30 2581 C 258.326 -2.58086 2.51124 0
M  V30 2582 C 258.179 -2.10126 3.97702 0
M  V30 2583 C 259.498 -3.60291 2.52742 0
M  V30 2584 H 256.617 -0.509905 0.532134 0
M  V30 2585 H 259.259 -0.729502 1.75437 0
M  V30 2586 H 257.409 -3.15801 2.26278 0
M  V30 2587 H 259.081 -1.57342 4.33637 0
M  V30 2588 H 257.324 -1.41419 4.10101 0
M  V30 2589 H 257.995 -2.94649 4.66783 0
M  V30 2590 H 260.471 -3.12352 2.7491 0
M  V30 2591 H 259.347 -4.40032 3.28121 0
M  V30 2592 H 259.608 -4.1349 1.56455 0
M  V30 2593 N 258.668 -1.30515 -0.883378 0
M  V30 2594 C 259.618 -1.13641 -1.9766 0
M  V30 2595 C 260.602 -0.0511314 -1.60819 0
M  V30 2596 O 261.794 -0.274623 -1.74857 0
M  V30 2597 C 258.923 -0.831976 -3.33066 0
M  V30 2598 C 258.009 -1.95759 -3.76217 0
M  V30 2599 N 258.4 -3.20313 -3.9145 0
M  V30 2600 C 256.698 -1.85431 -4.05625 0
M  V30 2601 C 257.399 -3.93856 -4.2808 0
M  V30 2602 N 256.375 -3.21919 -4.38029 0
M  V30 2603 H 260.177 -2.08106 -2.07531 0
M  V30 2604 H 257.691 -1.21877 -1.0733 0
M  V30 2605 H 259.688 -0.692102 -4.11115 0
M  V30 2606 H 258.348 0.104588 -3.24532 0
M  V30 2607 H 259.359 -3.55583 -3.76538 0
M  V30 2608 H 256.036 -0.991531 -4.05555 0
M  V30 2609 H 257.426 -5.01125 -4.47575 0
M  V30 2610 N 260.146 1.09593 -1.13257 0
M  V30 2611 C 261.374 1.855 -0.916378 0
M  V30 2612 C 261.789 1.81069 0.534738 0
M  V30 2613 O 261.146 1.20562 1.37007 0
M  V30 2614 C 261.197 3.33546 -1.39388 0
M  V30 2615 O 260.918 3.37927 -2.78813 0
M  V30 2616 C 262.419 4.26299 -1.21588 0
M  V30 2617 H 259.639 0.585991 -0.326887 0
M  V30 2618 H 262.183 1.38488 -1.5047 0
M  V30 2619 H 260.338 3.77992 -0.848597 0
M  V30 2620 H 260.752 4.30254 -2.9997 0
M  V30 2621 H 262.226 5.28341 -1.59876 0
M  V30 2622 H 262.703 4.38918 -0.157376 0
M  V30 2623 H 263.309 3.87668 -1.7491 0
M  V30 2624 N 261.624 0.925811 1.2754 0
M  V30 2625 C 262.871 0.565255 1.94451 0
M  V30 2626 C 263.199 -0.89316 1.7278 0
M  V30 2627 O 262.454 -1.65213 1.04895 0
M  V30 2628 C 262.753 0.835296 3.47502 0
M  V30 2629 C 262.419 2.27515 3.89291 0
M  V30 2630 C 261.081 2.66879 4.00411 0
M  V30 2631 C 263.433 3.21158 4.10496 0
M  V30 2632 C 260.761 3.99014 4.30122 0
M  V30 2633 C 263.113 4.52871 4.4169 0
M  V30 2634 C 261.777 4.92072 4.51023 0
M  V30 2635 H 261.047 0.206841 0.711546 0
M  V30 2636 H 263.694 1.16942 1.51647 0
M  V30 2637 H 261.999 0.148442 3.91519 0
M  V30 2638 H 263.696 0.535322 3.97411 0
M  V30 2639 H 260.286 1.95976 3.81171 0
M  V30 2640 H 264.47 2.9195 4.01346 0
M  V30 2641 H 259.726 4.2907 4.35556 0
M  V30 2642 H 263.9 5.25436 4.57045 0
M  V30 2643 H 261.527 5.9449 4.738 0
M  V30 2644 N 263.102 -1.41638 0.69111 0
M  V30 2645 C 264.513 -1.84346 0.295517 0
M  V30 2646 C 264.864 -1.57833 -1.16547 0
M  V30 2647 O 263.989 -1.04648 -1.89414 0
M  V30 2648 C 264.584 -3.34636 0.529575 0
M  V30 2649 C 263.143 -3.7593 0.187944 0
M  V30 2650 C 262.29 -2.65082 0.814052 0
M  V30 2651 H 265.241 -1.31253 0.892092 0
M  V30 2652 H 265.262 -3.79903 -0.213148 0
M  V30 2653 H 264.774 -3.53901 1.59297 0
M  V30 2654 H 262.875 -3.62268 -0.871367 0
M  V30 2655 H 262.988 -4.74808 0.63985 0
M  V30 2656 H 261.352 -2.53528 0.244017 0
M  V30 2657 H 262.135 -2.87167 1.88123 0
M  V30 2658 N 264.58 -0.43555 -1.51462 0
M  V30 2659 C 265.543 0.365137 -2.26273 0
M  V30 2660 C 266.543 0.951227 -1.29647 0
M  V30 2661 O 267.733 0.825958 -1.53374 0
M  V30 2662 C 264.865 1.51645 -3.05314 0
M  V30 2663 H 266.058 -0.290474 -2.9849 0
M  V30 2664 H 263.611 -0.188676 -1.55157 0
M  V30 2665 H 264.346 2.20816 -2.3751 0
M  V30 2666 H 264.131 1.10238 -3.76284 0
M  V30 2667 H 265.621 2.08218 -3.61987 0
M  V30 2668 N 266.058 1.56714 -0.166846 0
M  V30 2669 C 267.304 1.97039 0.479962 0
M  V30 2670 C 267.637 1.05264 1.63197 0
M  V30 2671 O 266.912 0.0988833 1.94248 0
M  V30 2672 C 267.195 3.46867 0.967212 0
M  V30 2673 C 267.048 4.49421 -0.18466 0
M  V30 2674 C 268.367 3.9968 1.84238 0
M  V30 2675 H 265.486 0.71641 0.172992 0
M  V30 2676 H 268.128 1.8832 -0.252079 0
M  V30 2677 H 266.278 3.54428 1.59101 0
M  V30 2678 H 267.95 4.53924 -0.821621 0
M  V30 2679 H 266.193 4.25573 -0.840837 0
M  V30 2680 H 266.864 5.51644 0.198317 0
M  V30 2681 H 269.34 3.94723 1.31655 0
M  V30 2682 H 268.216 5.04941 2.15234 0
M  V30 2683 H 268.477 3.43226 2.78654 0
M  V30 2684 N 267.536 -0.106894 1.57237 0
M  V30 2685 C 268.466 -1.13148 2.04254 0
M  V30 2686 C 269.447 -1.42476 0.929224 0
M  V30 2687 O 270.632 -1.52709 1.19973 0
M  V30 2688 C 267.762 -2.4545 2.45706 0
M  V30 2689 C 266.716 -2.30558 3.60592 0
M  V30 2690 C 266.042 -3.67931 3.87983 0
M  V30 2691 C 267.342 -1.75597 4.91897 0
M  V30 2692 H 269.036 -0.740374 2.90101 0
M  V30 2693 H 266.582 -0.354696 1.39563 0
M  V30 2694 H 268.535 -3.17389 2.77205 0
M  V30 2695 H 267.259 -2.86475 1.56843 0
M  V30 2696 H 265.918 -1.61067 3.29322 0
M  V30 2697 H 265.566 -4.06462 2.96306 0
M  V30 2698 H 265.266 -3.58817 4.65322 0
M  V30 2699 H 266.79 -4.41356 4.21945 0
M  V30 2700 H 268.204 -2.37364 5.21854 0
M  V30 2701 H 266.601 -1.77272 5.73319 0
M  V30 2702 H 267.671 -0.714451 4.79608 0
M  V30 2703 N 269.014 -1.53014 -0.377408 0
M  V30 2704 C 269.946 -1.74884 -1.48149 0
M  V30 2705 C 270.959 -0.629433 -1.5014 0
M  V30 2706 O 272.148 -0.905416 -1.53833 0
M  V30 2707 C 269.248 -1.80299 -2.86959 0
M  V30 2708 C 268.421 -3.09776 -3.08801 0
M  V30 2709 C 267.48 -3.06586 -4.27658 0
M  V30 2710 O 266.506 -3.80419 -4.23403 0
M  V30 2711 N 267.708 -2.26578 -5.34455 0
M  V30 2712 H 270.473 -2.70147 -1.29771 0
M  V30 2713 H 268.034 -1.51646 -0.56703 0
M  V30 2714 H 270.026 -1.75657 -3.64591 0
M  V30 2715 H 268.596 -0.92372 -2.98641 0
M  V30 2716 H 267.816 -3.27815 -2.18931 0
M  V30 2717 H 269.104 -3.95366 -3.20255 0
M  V30 2718 H 268.502 -1.66081 -5.40771 0
M  V30 2719 H 267.059 -2.27766 -6.10709 0
M  V30 2720 N 270.492 0.636531 -1.44174 0
M  V30 2721 C 271.717 1.42847 -1.50364 0
M  V30 2722 C 272.142 1.87665 -0.127867 0
M  V30 2723 O 271.5 1.58408 0.88185 0
M  V30 2724 C 271.548 2.62854 -2.4686 0
M  V30 2725 O 270.652 3.62501 -1.9664 0
M  V30 2726 H 269.993 0.427642 -0.507955 0
M  V30 2727 H 272.523 0.777422 -1.89255 0
M  V30 2728 H 272.533 3.10465 -2.64718 0
M  V30 2729 H 271.208 2.29578 -3.46795 0
M  V30 2730 H 269.785 3.21735 -1.88523 0
M  V30 2731 N 271.97 1.30982 0.876444 0
M  V30 2732 C 273.195 1.23373 1.66715 0
M  V30 2733 C 273.62 -0.19885 1.87046 0
M  V30 2734 O 272.978 -1.1427 1.40756 0
M  V30 2735 C 273.026 1.97644 3.01611 0
M  V30 2736 O 272.13 1.30935 3.91062 0
M  V30 2737 H 271.471 0.426279 0.509099 0
M  V30 2738 H 274.001 1.72944 1.09323 0
M  V30 2739 H 274.011 2.06992 3.51594 0
M  V30 2740 H 272.686 3.01829 2.86133 0
M  V30 2741 H 271.263 1.29996 3.49507 0
M  V30 2742 N 273.449 -1.08991 1.13837 0
M  V30 2743 C 274.697 -1.80899 0.901098 0
M  V30 2744 C 275.018 -1.86356 -0.574134 0
M  V30 2745 O 274.288 -1.35235 -1.41733 0
M  V30 2746 H 272.868 -0.669966 0.330386 0
M  V30 2747 H 275.53 -1.318 1.43578 0
M  V30 2748 H 274.626 -2.83929 1.29578 0
M  V30 2749 N 274.927 -0.932562 -1.27047 0
M  V30 2750 C 275.857 -0.452902 -2.29066 0
M  V30 2751 C 276.838 0.489338 -1.62909 0
M  V30 2752 O 278.023 0.393046 -1.90181 0
M  V30 2753 C 275.153 0.290698 -3.46081 0
M  V30 2754 C 274.107 -0.564168 -4.24265 0
M  V30 2755 C 273.433 0.308886 -5.33807 0
M  V30 2756 C 274.733 -1.83112 -4.89149 0
M  V30 2757 H 276.427 -1.30552 -2.69437 0
M  V30 2758 H 273.973 -0.629201 -1.29526 0
M  V30 2759 H 275.926 0.637233 -4.16554 0
M  V30 2760 H 274.65 1.17738 -3.0464 0
M  V30 2761 H 273.309 -0.893477 -3.55545 0
M  V30 2762 H 272.957 1.19467 -4.88607 0
M  V30 2763 H 272.657 -0.259633 -5.87026 0
M  V30 2764 H 274.181 0.650884 -6.07121 0
M  V30 2765 H 275.595 -1.55236 -5.51883 0
M  V30 2766 H 273.992 -2.34353 -5.52448 0
M  V30 2767 H 275.062 -2.54772 -4.12576 0
M  V30 2768 N 276.405 1.4127 -0.698611 0
M  V30 2769 C 277.635 2.05205 -0.239644 0
M  V30 2770 C 278.043 1.52684 1.11733 0
M  V30 2771 O 277.386 0.671222 1.70998 0
M  V30 2772 C 277.448 3.59289 -0.123126 0
M  V30 2773 C 277.112 4.34619 -1.41263 0
M  V30 2774 C 278.109 4.63701 -2.35111 0
M  V30 2775 C 275.794 4.73837 -1.66684 0
M  V30 2776 C 277.788 5.30966 -3.52639 0
M  V30 2777 C 275.475 5.40837 -2.84498 0
M  V30 2778 C 276.473 5.69329 -3.77298 0
M  V30 2779 O 276.161 6.34949 -4.93047 0
M  V30 2780 H 275.893 0.66723 -0.108537 0
M  V30 2781 H 278.447 1.81974 -0.952602 0
M  V30 2782 H 276.677 3.81272 0.645628 0
M  V30 2783 H 278.366 4.04797 0.299056 0
M  V30 2784 H 279.132 4.33882 -2.16729 0
M  V30 2785 H 275.011 4.51039 -0.953135 0
M  V30 2786 H 278.555 5.53121 -4.25091 0
M  V30 2787 H 274.452 5.70075 -3.02795 0
M  V30 2788 H 275.22 6.53445 -4.92902 0
M  V30 2789 N 277.883 0.443576 1.51229 0
M  V30 2790 C 279.108 -0.121648 2.07043 0
M  V30 2791 C 279.533 -1.35156 1.30823 0
M  V30 2792 O 278.891 -1.7793 0.347934 0
M  V30 2793 C 278.939 -0.41624 3.5819 0
M  V30 2794 O 278.043 -1.50163 3.8409 0
M  V30 2795 H 277.384 0.000871367 0.663999 0
M  V30 2796 H 279.914 0.626706 1.94765 0
M  V30 2797 H 279.924 -0.664867 4.02546 0
M  V30 2798 H 278.599 0.482653 4.1309 0
M  V30 2799 H 277.176 -1.24248 3.51592 0
M  V30 2800 N 279.361 -1.56624 0.175154 0
M  V30 2801 C 280.291 -2.21155 -0.749195 0
M  V30 2802 C 281.272 -1.16836 -1.23626 0
M  V30 2803 O 282.457 -1.45277 -1.28873 0
M  V30 2804 C 279.587 -2.8553 -1.97711 0
M  V30 2805 C 278.541 -3.95921 -1.62575 0
M  V30 2806 C 277.867 -4.47365 -2.92864 0
M  V30 2807 C 279.167 -5.15323 -0.850838 0
M  V30 2808 H 280.861 -2.98653 -0.211295 0
M  V30 2809 H 278.407 -1.43651 -0.100188 0
M  V30 2810 H 280.36 -3.2935 -2.62881 0
M  V30 2811 H 279.084 -2.05406 -2.53921 0
M  V30 2812 H 277.743 -3.52762 -0.997719 0
M  V30 2813 H 277.391 -3.64027 -3.47122 0
M  V30 2814 H 277.091 -5.21839 -2.70106 0
M  V30 2815 H 278.615 -4.93873 -3.59056 0
M  V30 2816 H 280.029 -5.55812 -1.40521 0
M  V30 2817 H 278.426 -5.95739 -0.722154 0
M  V30 2818 H 279.496 -4.84661 0.152082 0
M  V30 2819 N 280.839 0.0985539 -1.57292 0
M  V30 2820 C 282.064 0.820196 -1.90493 0
M  V30 2821 C 282.489 1.71658 -0.769094 0
M  V30 2822 O 281.847 1.79133 0.279495 0
M  V30 2823 C 281.895 1.61242 -3.22542 0
M  V30 2824 O 280.999 2.72108 -3.09888 0
M  V30 2825 H 280.34 0.225547 -0.62452 0
M  V30 2826 H 282.87 0.0748159 -2.04463 0
M  V30 2827 H 282.88 1.99737 -3.55766 0
M  V30 2828 H 281.555 0.954535 -4.04798 0
M  V30 2829 H 280.132 2.36667 -2.88172 0
M  V30 2830 N 282.317 1.53212 0.369288 0
M  V30 2831 C 283.542 1.73423 1.1375 0
M  V30 2832 C 283.967 0.460404 1.82378 0
M  V30 2833 O 283.325 -0.585298 1.71592 0
M  V30 2834 C 283.373 2.89769 2.1463 0
M  V30 2835 O 282.477 2.58119 3.21634 0
M  V30 2836 H 281.818 0.576061 0.330227 0
M  V30 2837 H 284.348 2.00083 0.427547 0
M  V30 2838 H 284.358 3.15829 2.58294 0
M  V30 2839 H 283.033 3.8217 1.64071 0
M  V30 2840 H 281.61 2.42864 2.82969 0
M  V30 2841 N 283.795 -0.628877 1.44509 0
M  V30 2842 C 285.041 -1.39045 1.47629 0
M  V30 2843 C 285.374 -1.93892 0.109343 0
M  V30 2844 O 284.649 -1.7379 -0.87334 0
M  V30 2845 C 284.932 -2.55408 2.53848 0
M  V30 2846 C 284.785 -2.05896 3.99909 0
M  V30 2847 C 286.104 -3.5759 2.56549 0
M  V30 2848 H 283.223 -0.504232 0.537512 0
M  V30 2849 H 285.865 -0.710854 1.76201 0
M  V30 2850 H 284.015 -3.13384 2.29615 0
M  V30 2851 H 285.687 -1.52734 4.35282 0
M  V30 2852 H 283.93 -1.37061 4.11578 0
M  V30 2853 H 284.601 -2.89681 4.69882 0
M  V30 2854 H 287.077 -3.09419 2.78207 0
M  V30 2855 H 285.953 -4.36527 3.32769 0
M  V30 2856 H 286.214 -4.11808 1.60832 0
M  V30 2857 N 285.273 -1.31445 -0.869486 0
M  V30 2858 C 286.519 -1.21337 -1.62496 0
M  V30 2859 C 286.852 0.227872 -1.92858 0
M  V30 2860 O 286.127 1.16094 -1.56053 0
M  V30 2861 C 286.41 -2.05814 -2.95487 0
M  V30 2862 C 286.263 -3.5824 -2.72 0
M  V30 2863 C 287.582 -1.9079 -3.96594 0
M  V30 2864 H 284.701 -0.442135 -0.589649 0
M  V30 2865 H 287.343 -1.6124 -1.00507 0
M  V30 2866 H 285.493 -1.71913 -3.48394 0
M  V30 2867 H 287.165 -4.0228 -2.25762 0
M  V30 2868 H 285.408 -3.81647 -2.06224 0
M  V30 2869 H 286.079 -4.12657 -3.66631 0
M  V30 2870 H 288.555 -2.20459 -3.52898 0
M  V30 2871 H 287.431 -2.52199 -4.87531 0
M  V30 2872 H 287.692 -0.871341 -4.33428 0
M  V30 2873 N 286.751 1.08385 -1.14413 0
M  V30 2874 C 287.979 1.84517 -0.936001 0
M  V30 2875 C 288.394 1.81626 0.515503 0
M  V30 2876 O 287.751 1.22008 1.35721 0
M  V30 2877 C 287.802 3.32049 -1.42918 0
M  V30 2878 O 287.523 3.34951 -2.82381 0
M  V30 2879 C 289.024 4.24986 -1.26103 0
M  V30 2880 H 286.244 0.582491 -0.333084 0
M  V30 2881 H 288.788 1.36885 -1.5193 0
M  V30 2882 H 286.943 3.7707 -0.888641 0
M  V30 2883 H 287.357 4.27048 -3.04517 0
M  V30 2884 H 288.831 5.26615 -1.6547 0
M  V30 2885 H 289.308 4.38726 -0.20392 0
M  V30 2886 H 289.914 3.85791 -1.79012 0
M  V30 2887 N 288.23 0.939286 1.26551 0
M  V30 2888 C 289.476 0.586715 1.94128 0
M  V30 2889 C 289.809 -0.8717 1.73537 0
M  V30 2890 O 289.084 -1.62339 1.07127 0
M  V30 2891 C 289.367 0.927497 3.4795 0
M  V30 2892 C 289.22 2.44052 3.77834 0
M  V30 2893 C 290.539 0.441569 4.37879 0
M  V30 2894 H 287.658 0.21463 0.705055 0
M  V30 2895 H 290.3 1.17316 1.49455 0
M  V30 2896 H 288.45 0.428431 3.8613 0
M  V30 2897 H 290.122 3.01216 3.4938 0
M  V30 2898 H 288.365 2.8848 3.23978 0
M  V30 2899 H 289.036 2.62947 4.85348 0
M  V30 2900 H 291.512 0.869448 4.06915 0
M  V30 2901 H 290.388 0.708856 5.44304 0
M  V30 2902 H 290.649 -0.658467 4.37169 0
M  V30 2903 N 289.708 -1.40897 0.706093 0
M  V30 2904 C 291.119 -1.84023 0.315052 0
M  V30 2905 C 291.47 -1.5906 -1.14866 0
M  V30 2906 O 290.595 -1.06651 -1.88293 0
M  V30 2907 C 291.19 -3.34055 0.565038 0
M  V30 2908 C 289.749 -3.7571 0.227806 0
M  V30 2909 C 288.896 -2.64204 0.842122 0
M  V30 2910 H 291.847 -1.303 0.905963 0
M  V30 2911 H 291.868 -3.80107 -0.172843 0
M  V30 2912 H 291.38 -3.52192 1.63042 0
M  V30 2913 H 289.481 -3.63172 -0.832895 0
M  V30 2914 H 289.594 -4.74103 0.690174 0
M  V30 2915 H 287.958 -2.53255 0.270893 0
M  V30 2916 H 288.741 -2.85155 1.91158 0
M  V30 2917 N 291.186 -0.45159 -1.50991 0
M  V30 2918 C 292.411 0.110667 -2.07105 0
M  V30 2919 C 292.836 1.3446 -1.31538 0
M  V30 2920 O 292.194 1.77743 -0.357365 0
M  V30 2921 C 292.242 0.397238 -3.58405 0
M  V30 2922 O 291.346 1.48124 -3.84881 0
M  V30 2923 H 290.687 -0.00439271 -0.663985 0
M  V30 2924 H 293.217 -0.637026 -1.9443 0
M  V30 2925 H 293.227 0.64351 -4.02893 0
M  V30 2926 H 291.902 -0.504553 -4.12828 0
M  V30 2927 H 290.479 1.22381 -3.52246 0
M  V30 2928 N 292.664 1.56529 -0.183458 0
M  V30 2929 C 293.889 2.02064 0.467428 0
M  V30 2930 C 294.314 1.06282 1.55196 0
M  V30 2931 O 293.672 0.0443565 1.81246 0
M  V30 2932 C 293.72 3.46122 1.01153 0
M  V30 2933 O 292.824 3.53437 2.12499 0
M  V30 2934 H 292.165 0.654726 0.110588 0
M  V30 2935 H 294.695 2.02521 -0.290917 0
M  V30 2936 H 294.705 3.85676 1.33108 0
M  V30 2937 H 293.38 4.15331 0.217533 0
M  V30 2938 H 291.957 3.2575 1.81497 0
M  V30 2939 N 294.142 -0.090211 1.57342 0
M  V30 2940 C 295.367 -0.810082 1.90925 0
M  V30 2941 C 295.792 -1.71248 0.778187 0
M  V30 2942 O 295.15 -1.79278 -0.269991 0
M  V30 2943 C 295.198 -1.59529 3.23393 0
M  V30 2944 O 294.302 -2.70461 3.11327 0
M  V30 2945 H 293.643 -0.222231 0.625707 0
M  V30 2946 H 296.173 -0.0639716 2.045 0
M  V30 2947 H 296.183 -1.97847 3.5682 0
M  V30 2948 H 294.858 -0.933055 4.05299 0
M  V30 2949 H 293.435 -2.35135 2.89423 0
M  V30 2950 N 295.62 -1.53406 -0.361157 0
M  V30 2951 C 296.55 -1.83136 -1.44857 0
M  V30 2952 C 297.531 -0.685174 -1.5569 0
M  V30 2953 O 298.716 -0.93544 -1.70186 0
M  V30 2954 C 295.846 -2.02522 -2.82138 0
M  V30 2955 C 294.8 -3.18302 -2.86126 0
M  V30 2956 C 294.126 -3.22989 -4.26125 0
M  V30 2957 C 295.426 -4.56796 -2.53248 0
M  V30 2958 H 297.12 -2.74201 -1.20226 0
M  V30 2959 H 294.666 -1.31938 -0.576922 0
M  V30 2960 H 296.619 -2.21904 -3.58241 0
M  V30 2961 H 295.343 -1.08172 -3.08166 0
M  V30 2962 H 294.002 -2.98747 -2.12475 0
M  V30 2963 H 293.65 -2.26267 -4.49235 0
M  V30 2964 H 293.35 -4.00781 -4.29708 0
M  V30 2965 H 294.874 -3.44559 -5.04094 0
M  V30 2966 H 296.288 -4.7631 -3.19064 0
M  V30 2967 H 294.685 -5.36862 -2.68141 0
M  V30 2968 H 295.755 -4.61606 -1.48484 0
M  V30 2969 N 297.098 0.621204 -1.44841 0
M  V30 2970 C 298.346 1.37783 -1.47852 0
M  V30 2971 C 298.667 1.94653 -0.116224 0
M  V30 2972 O 297.937 1.76367 0.852737 0
M  V30 2973 H 296.517 0.511453 -0.544449 0
M  V30 2974 H 299.179 0.730446 -1.80694 0
M  V30 2975 H 298.275 2.20414 -2.20961 0
M  V30 2976 N 298.576 1.31904 0.862503 0
M  V30 2977 C 299.804 1.24998 1.64873 0
M  V30 2978 C 300.219 -0.183425 1.87907 0
M  V30 2979 O 299.576 -1.11794 1.44251 0
M  V30 2980 C 299.627 1.99829 3.01248 0
M  V30 2981 O 299.348 3.37575 2.79239 0
M  V30 2982 C 300.849 1.99852 3.95694 0
M  V30 2983 H 298.069 0.431599 0.513773 0
M  V30 2984 H 300.613 1.73901 1.07604 0
M  V30 2985 H 298.768 1.54668 3.55185 0
M  V30 2986 H 299.182 3.75776 3.65914 0
M  V30 2987 H 300.656 2.56709 4.88676 0
M  V30 2988 H 301.133 0.982852 4.28062 0
M  V30 2989 H 301.739 2.44926 3.47694 0
M  V30 2990 N 300.054 -1.07777 1.14986 0
M  V30 2991 C 301.001 -2.14867 0.842672 0
M  V30 2992 C 301.971 -1.6486 -0.202552 0
M  V30 2993 O 303.156 -1.90668 -0.0710568 0
M  V30 2994 C 300.296 -3.43486 0.333363 0
M  V30 2995 C 299.409 -4.07306 1.43965 0
M  V30 2996 C 298.544 -5.23744 0.886914 0
M  V30 2997 C 297.583 -5.79517 1.97043 0
M  V30 2998 N 296.72 -6.87291 1.4344 0
M  V30 2999 H 301.56 -2.40485 1.75986 0
M  V30 3000 H 299.097 -1.1801 0.878179 0
M  V30 3001 H 301.055 -4.17195 0.0198163 0
M  V30 3002 H 299.685 -3.18133 -0.546916 0
M  V30 3003 H 298.737 -3.31293 1.86946 0
M  V30 3004 H 300.049 -4.44771 2.25788 0
M  V30 3005 H 299.203 -6.04419 0.525651 0
M  V30 3006 H 297.942 -4.87685 0.0377957 0
M  V30 3007 H 296.947 -4.97491 2.34057 0
M  V30 3008 H 298.172 -6.17632 2.82325 0
M  V30 3009 H 296.118 -6.5318 0.607567 0
M  V30 3010 H 296.035 -7.23617 2.18895 0
M  V30 3011 H 297.303 -7.71682 1.10124 0
M  V30 3012 N 301.532 -0.945985 -1.26051 0
M  V30 3013 C 302.76 -0.613025 -1.9761 0
M  V30 3014 C 303.175 0.813035 -1.70397 0
M  V30 3015 O 302.532 1.54274 -0.974979 0
M  V30 3016 C 302.583 -0.85159 -3.51326 0
M  V30 3017 O 302.304 -2.22157 -3.77595 0
M  V30 3018 C 303.805 -0.529831 -4.40122 0
M  V30 3019 H 301.025 -0.230593 -0.630133 0
M  V30 3020 H 303.569 -1.268 -1.60443 0
M  V30 3021 H 301.724 -0.243151 -3.86636 0
M  V30 3022 H 302.138 -2.2852 -4.721 0
M  V30 3023 H 303.612 -0.747348 -5.46917 0
M  V30 3024 H 304.089 0.535341 -4.35925 0
M  V30 3025 H 304.695 -1.11721 -4.10364 0
M  V30 3026 N 303.011 1.40521 -0.713556 0
M  V30 3027 C 304.241 2.0494 -0.261395 0
M  V30 3028 C 304.649 1.53861 1.10107 0
M  V30 3029 O 303.992 0.689321 1.70276 0
M  V30 3030 C 304.054 3.59138 -0.161227 0
M  V30 3031 C 303.718 4.33096 -1.45865 0
M  V30 3032 C 304.715 4.61182 -2.40016 0
M  V30 3033 C 302.4 4.72043 -1.71701 0
M  V30 3034 C 304.394 5.27196 -3.58251 0
M  V30 3035 C 302.081 5.37789 -2.90218 0
M  V30 3036 C 303.079 5.65295 -3.83315 0
M  V30 3037 O 302.767 6.29683 -4.99754 0
M  V30 3038 H 302.499 0.666041 -0.115608 0
M  V30 3039 H 305.053 1.80954 -0.971849 0
M  V30 3040 H 303.283 3.81936 0.605153 0
M  V30 3041 H 304.972 4.05091 0.256105 0
M  V30 3042 H 305.738 4.31559 -2.21318 0
M  V30 3043 H 301.617 4.50003 -1.00092 0
M  V30 3044 H 305.161 5.48582 -4.30934 0
M  V30 3045 H 301.058 5.66831 -3.08825 0
M  V30 3046 H 301.826 6.4818 -4.99805 0
M  V30 3047 N 304.489 0.459591 1.5075 0
M  V30 3048 C 305.717 -0.0973749 2.06671 0
M  V30 3049 C 306.132 -1.34524 1.32472 0
M  V30 3050 O 305.489 -1.7827 0.390634 0
M  V30 3051 C 305.54 -0.39714 3.59312 0
M  V30 3052 O 305.261 0.801214 4.30711 0
M  V30 3053 C 306.762 -1.00234 4.31819 0
M  V30 3054 H 303.982 0.00195854 0.670997 0
M  V30 3055 H 306.526 0.645072 1.94059 0
M  V30 3056 H 304.681 -1.08951 3.71764 0
M  V30 3057 H 305.095 0.538857 5.21725 0
M  V30 3058 H 306.569 -1.16193 5.39632 0
M  V30 3059 H 307.046 -1.98939 3.91561 0
M  V30 3060 H 307.652 -0.348699 4.23868 0
M  V30 3061 N 305.967 -1.56429 0.191757 0
M  V30 3062 C 307.207 -1.99383 -0.450099 0
M  V30 3063 C 307.571 -1.07581 -1.59029 0
M  V30 3064 O 308.772 -1.39758 -2.29611 0
M  V30 3065 C 307.043 -3.45841 -0.901611 0
M  V30 3066 S 308.602 -4.10822 -1.54177 0
M  V30 3067 H 305.42 -0.696253 -0.144057 0
M  V30 3068 H 308.022 -1.93276 0.294036 0
M  V30 3069 H 306.726 -4.10354 -0.0616596 0
M  V30 3070 H 306.257 -3.55757 -1.67929 0
M  V30 3071 H 308.272 -4.07553 -2.83046 0
M  V30 3072 N 307.445 0.0818655 -1.57387 0
M  V30 3073 C 308.393 1.11712 -2.04018 0
M  V30 3074 C 309.387 1.40683 -0.94364 0
M  V30 3075 O 310.593 1.40209 -1.12878 0
M  V30 3076 H 306.968 0.377542 -0.650358 0
M  V30 3077 H 308.939 0.697614 -2.90131 0
M  V30 3078 C 307.688 2.42537 -2.49141 0
M  V30 3079 H 307.011 2.21092 -3.33104 0
M  V30 3080 H 308.451 3.13446 -2.85531 0
M  V30 3081 C 306.91 3.0778 -1.37014 0
M  V30 3082 O 307.44 3.95436 -0.706621 0
M  V30 3083 N 305.646 2.68242 -1.11779 0
M  V30 3084 H 305.193 1.97052 -1.65917 0
M  V30 3085 H 305.151 3.1222 -0.369594 0
M  V30 3086 N 308.923 1.53595 0.353017 0
M  V30 3087 C 310.169 1.70638 1.09593 0
M  V30 3088 C 310.502 0.463286 1.88593 0
M  V30 3089 O 309.777 -0.539597 1.86865 0
M  V30 3090 C 310.06 2.96406 2.04489 0
M  V30 3091 C 309.913 4.30901 1.29014 0
M  V30 3092 C 311.232 3.17812 3.0444 0
M  V30 3093 H 308.351 0.620913 0.397034 0
M  V30 3094 H 310.993 1.86254 0.375446 0
M  V30 3095 H 309.143 2.83223 2.65927 0
M  V30 3096 H 310.815 4.55917 0.702638 0
M  V30 3097 H 309.058 4.29741 0.592071 0
M  V30 3098 H 309.729 5.1506 1.98537 0
M  V30 3099 H 312.205 3.30263 2.53112 0
M  V30 3100 H 311.081 4.07223 3.6805 0
M  V30 3101 H 311.342 2.33669 3.75301 0
M  V30 3102 N 310.401 -0.613514 1.45168 0
M  V30 3103 C 311.678 -1.37263 1.39349 0
M  V30 3104 C 312.058 -2.11012 0.0610848 0
M  V30 3105 O 311.406 -2.07502 -0.956825 0
M  V30 3106 C 311.616 -2.3244 2.60332 0
M  V30 3107 C 312.964 -2.9523 3.05163 0
M  V30 3108 O 313.988 -2.42762 2.60663 0
M  V30 3109 O 312.847 -3.90454 3.82372 0
M  V30 3110 H 309.941 -0.615188 0.552696 0
M  V30 3111 H 312.487 -0.637097 1.57287 0
M  V30 3112 H 311.259 -1.77164 3.48896 0
M  V30 3113 H 310.882 -3.13383 2.44698 0
M  V30 3114 N 311.879 -1.3236 -0.855495 0
M  V30 3115 C 312.829 -1.17809 -1.95205 0
M  V30 3116 C 313.813 -0.0852319 -1.60674 0
M  V30 3117 O 315.005 -0.311651 -1.74235 0
M  V30 3118 C 312.134 -0.902437 -3.31226 0
M  V30 3119 C 311.22 -2.03695 -3.7198 0
M  V30 3120 N 311.611 -3.28544 -3.84568 0
M  V30 3121 C 309.909 -1.93993 -4.016 0
M  V30 3122 C 310.61 -4.02847 -4.19629 0
M  V30 3123 N 309.586 -3.31138 -4.31102 0
M  V30 3124 H 313.388 -2.12462 -2.0307 0
M  V30 3125 H 310.902 -1.24127 -1.0472 0
M  V30 3126 H 312.899 -0.77915 -4.09554 0
M  V30 3127 H 311.559 0.0357267 -3.2468 0
M  V30 3128 H 312.57 -3.6349 -3.68911 0
M  V30 3129 H 309.247 -1.07733 -4.03361 0
M  V30 3130 H 310.637 -5.10506 -4.36845 0
M  V30 3131 N 313.357 1.07166 -1.15556 0
M  V30 3132 C 314.304 2.14417 -0.854055 0
M  V30 3133 C 315.274 1.64965 0.193806 0
M  V30 3134 O 316.459 1.90703 0.0609443 0
M  V30 3135 C 313.599 3.43304 -0.351574 0
M  V30 3136 C 312.712 4.06537 -1.46123 0
M  V30 3137 C 311.847 5.23266 -0.914677 0
M  V30 3138 C 310.886 5.78464 -2.00114 0
M  V30 3139 N 310.023 6.86521 -1.47083 0
M  V30 3140 H 314.863 2.39548 -1.77259 0
M  V30 3141 H 312.4 1.17543 -0.884425 0
M  V30 3142 H 314.358 4.17179 -0.0419409 0
M  V30 3143 H 312.988 3.18419 0.530037 0
M  V30 3144 H 312.04 3.30297 -1.88701 0
M  V30 3145 H 313.352 4.43567 -2.28144 0
M  V30 3146 H 312.506 6.04131 -0.557698 0
M  V30 3147 H 311.245 4.87658 -0.0636583 0
M  V30 3148 H 310.25 4.96243 -2.36692 0
M  V30 3149 H 311.475 6.16126 -2.85597 0
M  V30 3150 H 309.421 6.52849 -0.642198 0
M  V30 3151 H 309.338 7.22446 -2.22729 0
M  V30 3152 H 310.606 7.71087 -1.14215 0
M  V30 3153 N 314.835 0.952656 1.25548 0
M  V30 3154 C 316.246 0.647392 1.75116 0
M  V30 3155 C 316.597 -0.837274 1.77438 0
M  V30 3156 O 315.722 -1.65525 1.39393 0
M  V30 3157 C 316.317 1.16845 3.18014 0
M  V30 3158 C 314.876 0.913382 3.6515 0
M  V30 3159 C 314.023 1.31265 2.44264 0
M  V30 3160 H 316.974 1.12968 1.11462 0
M  V30 3161 H 316.995 0.527606 3.76824 0
M  V30 3162 H 316.507 2.24902 3.16292 0
M  V30 3163 H 314.608 -0.152316 3.72289 0
M  V30 3164 H 314.721 1.54845 4.53387 0
M  V30 3165 H 313.085 0.731028 2.43984 0
M  V30 3166 H 313.868 2.40239 2.45234 0
M  V30 3167 N 316.313 -1.40141 0.720998 0
M  V30 3168 C 317.538 -2.05618 0.271258 0
M  V30 3169 C 317.963 -1.53978 -1.08039 0
M  V30 3170 O 317.321 -0.677463 -1.68167 0
M  V30 3171 C 317.369 -3.59609 0.267197 0
M  V30 3172 O 316.473 -4.05526 -0.749814 0
M  V30 3173 H 315.814 -0.651904 0.126162 0
M  V30 3174 H 318.344 -1.79439 0.982997 0
M  V30 3175 H 318.354 -4.0786 0.106744 0
M  V30 3176 H 317.029 -3.96559 1.25354 0
M  V30 3177 H 315.606 -3.68722 -0.556644 0
M  V30 3178 N 317.792 -0.46758 -1.50504 0
M  V30 3179 C 318.74 0.342482 -2.30065 0
M  V30 3180 C 319.734 0.993596 -1.37201 0
M  V30 3181 O 320.94 0.925102 -1.54408 0
M  V30 3182 H 317.315 0.129283 -0.740803 0
M  V30 3183 H 319.286 -0.34899 -2.96352 0
M  V30 3184 C 318.035 1.4139 -3.17654 0
M  V30 3185 H 317.358 0.922264 -3.89017 0
M  V30 3186 H 318.798 1.95335 -3.76325 0
M  V30 3187 C 317.257 2.4139 -2.35016 0
M  V30 3188 O 317.787 3.46586 -2.03079 0
M  V30 3189 N 315.993 2.13021 -1.97662 0
M  V30 3190 H 315.54 1.27499 -2.23834 0
M  V30 3191 H 315.498 2.80164 -1.42673 0
M  V30 3192 N 319.27 1.56325 -0.20005 0
M  V30 3193 C 320.498 2.02105 0.442874 0
M  V30 3194 C 320.913 1.08014 1.5485 0
M  V30 3195 O 320.27 0.0858797 1.82298 0
M  V30 3196 C 320.321 3.47549 0.994583 0
M  V30 3197 O 320.042 4.38049 -0.0669322 0
M  V30 3198 C 321.543 4.0887 1.7129 0
M  V30 3199 H 318.763 0.661807 0.110691 0
M  V30 3200 H 321.307 2.02134 -0.310207 0
M  V30 3201 H 319.462 3.48204 1.69803 0
M  V30 3202 H 319.876 5.23368 0.344462 0
M  V30 3203 H 321.35 5.12475 2.05118 0
M  V30 3204 H 321.827 3.52615 2.61838 0
M  V30 3205 H 322.433 4.12002 1.05518 0
M  V30 3206 N 320.748 -0.0735177 1.57428 0
M  V30 3207 C 321.695 -1.08756 2.0357 0
M  V30 3208 C 322.665 -1.38559 0.916 0
M  V30 3209 O 323.85 -1.49656 1.18354 0
M  V30 3210 C 320.99 -2.39657 2.48311 0
M  V30 3211 C 320.103 -2.16399 3.73892 0
M  V30 3212 C 319.238 -3.40852 4.07423 0
M  V30 3213 C 318.277 -3.1295 5.2605 0
M  V30 3214 N 317.414 -4.29729 5.55228 0
M  V30 3215 H 322.254 -0.687104 2.8997 0
M  V30 3216 H 319.791 -0.327709 1.43403 0
M  V30 3217 H 321.749 -3.16081 2.72303 0
M  V30 3218 H 320.379 -2.77508 1.64891 0
M  V30 3219 H 319.431 -1.30676 3.57251 0
M  V30 3220 H 320.743 -1.91788 4.60455 0
M  V30 3221 H 319.897 -4.25671 4.32306 0
M  V30 3222 H 318.636 -3.68537 3.19425 0
M  V30 3223 H 317.641 -2.26526 5.00965 0
M  V30 3224 H 318.866 -2.86589 6.15665 0
M  V30 3225 H 316.812 -4.57448 4.70188 0
M  V30 3226 H 316.729 -4.08385 6.36206 0
M  V30 3227 H 317.997 -5.1555 5.84661 0
M  V30 3228 N 322.226 -1.5378 -0.344866 0
M  V30 3229 C 323.472 -1.71216 -1.08687 0
M  V30 3230 C 323.805 -0.473281 -1.88345 0
M  V30 3231 O 323.08 0.52968 -1.87149 0
M  V30 3232 C 323.363 -2.97486 -2.02914 0
M  V30 3233 C 323.216 -4.31579 -1.26727 0
M  V30 3234 C 324.535 -3.19422 -3.0275 0
M  V30 3235 H 321.654 -0.62301 -0.393735 0
M  V30 3236 H 324.296 -1.8645 -0.365563 0
M  V30 3237 H 322.446 -2.84629 -2.64421 0
M  V30 3238 H 324.118 -4.56284 -0.67845 0
M  V30 3239 H 322.361 -4.30049 -0.569273 0
M  V30 3240 H 323.032 -5.16106 -1.95803 0
M  V30 3241 H 325.508 -3.316 -2.51357 0
M  V30 3242 H 324.384 -4.09169 -3.65885 0
M  V30 3243 H 324.645 -2.35656 -3.74057 0
M  V30 3244 N 323.704 0.605807 -1.45491 0
M  V30 3245 C 324.981 1.36522 -1.40075 0
M  V30 3246 C 325.361 2.10976 -0.0722744 0
M  V30 3247 O 324.709 2.08007 0.945808 0
M  V30 3248 C 324.919 2.31056 -2.61561 0
M  V30 3249 C 326.267 2.93608 -3.06724 0
M  V30 3250 O 327.291 2.41376 -2.61946 0
M  V30 3251 O 326.15 3.88421 -3.84437 0
M  V30 3252 H 323.244 0.612248 -0.555951 0
M  V30 3253 H 325.79 0.628747 -1.57623 0
M  V30 3254 H 324.562 1.75311 -3.49831 0
M  V30 3255 H 324.185 3.12081 -2.46356 0
M  V30 3256 N 325.182 1.32811 0.848464 0
M  V30 3257 C 326.129 1.22265 1.95755 0
M  V30 3258 C 327.099 0.103413 1.65778 0
M  V30 3259 O 328.284 0.280033 1.88734 0
M  V30 3260 C 325.424 0.958014 3.31536 0
M  V30 3261 C 324.537 2.16262 3.73971 0
M  V30 3262 C 323.672 1.83295 4.98575 0
M  V30 3263 C 322.711 3.00041 5.33518 0
M  V30 3264 N 321.848 2.67125 6.49299 0
M  V30 3265 H 326.688 2.17128 2.04107 0
M  V30 3266 H 324.225 1.07982 0.998913 0
M  V30 3267 H 326.183 0.785052 4.09747 0
M  V30 3268 H 324.813 0.046159 3.22767 0
M  V30 3269 H 323.865 2.44565 2.91362 0
M  V30 3270 H 325.177 3.03572 3.95785 0
M  V30 3271 H 324.331 1.62586 5.84509 0
M  V30 3272 H 323.07 0.932078 4.7871 0
M  V30 3273 H 322.075 3.21374 4.46093 0
M  V30 3274 H 323.3 3.90869 5.55336 0
M  V30 3275 H 321.246 1.79586 6.3094 0
M  V30 3276 H 321.163 3.47965 6.71161 0
M  V30 3277 H 322.431 2.49861 7.3837 0
M  V30 3278 N 326.66 -1.06551 1.16123 0
M  V30 3279 C 328.076 -1.3142 0.905585 0
M  V30 3280 C 328.276 -1.96571 -0.442964 0
M  V30 3281 O 327.332 -2.23068 -1.18308 0
M  V30 3282 C 328.645 -2.19741 2.05267 0
M  V30 3283 C 330.193 -2.33165 2.08813 0
M  V30 3284 C 330.668 -3.24838 3.22868 0
M  V30 3285 N 332.159 -3.32421 3.22568 0
M  V30 3286 C 332.894 -4.0344 4.0746 0
M  V30 3287 N 332.39 -4.77003 5.02434 0
M  V30 3288 N 334.183 -3.99464 3.95456 0
M  V30 3289 H 326.334 -0.626548 2.02949 0
M  V30 3290 H 328.597 -0.338777 0.8854 0
M  V30 3291 H 328.303 -1.79142 3.02657 0
M  V30 3292 H 328.177 -3.20313 1.99198 0
M  V30 3293 H 330.564 -2.73013 1.12018 0
M  V30 3294 H 330.645 -1.3227 2.18948 0
M  V30 3295 H 330.289 -2.85708 4.19921 0
M  V30 3296 H 330.219 -4.25707 3.0997 0
M  V30 3297 H 332.71 -2.79994 2.53795 0
M  V30 3298 H 333.023 -5.28712 5.63634 0
M  V30 3299 H 331.368 -4.75992 5.06415 0
M  V30 3300 H 334.559 -3.4111 3.20564 0
M  V30 3301 H 334.732 -4.54544 4.61837 0
M  V30 3302 N 328.138 -0.959301 -1.25041 0
M  V30 3303 C 329.384 -0.617525 -1.9317 0
M  V30 3304 C 329.717 0.843981 -1.74902 0
M  V30 3305 O 328.992 1.60615 -1.09696 0
M  V30 3306 C 329.275 -0.982736 -3.46431 0
M  V30 3307 C 329.128 -2.50032 -3.73904 0
M  V30 3308 C 330.447 -0.511176 -4.37121 0
M  V30 3309 H 327.566 -0.22582 -0.701552 0
M  V30 3310 H 330.208 -1.19679 -1.4757 0
M  V30 3311 H 328.358 -0.489806 -3.854 0
M  V30 3312 H 330.03 -3.06737 -3.44544 0
M  V30 3313 H 328.273 -2.93598 -3.19348 0
M  V30 3314 H 328.944 -2.70635 -4.81103 0
M  V30 3315 H 331.42 -0.934075 -4.0548 0
M  V30 3316 H 330.296 -0.795361 -5.43107 0
M  V30 3317 H 330.557 0.588834 -4.38161 0
M  V30 3318 N 329.616 1.39756 -0.72842 0
M  V30 3319 C 330.526 2.34444 -0.0855374 0
M  V30 3320 C 331.542 1.57976 0.729356 0
M  V30 3321 O 332.718 1.90301 0.659346 0
M  V30 3322 C 329.783 3.36965 0.815798 0
M  V30 3323 C 328.844 4.29299 -0.0105996 0
M  V30 3324 C 328.077 5.26923 0.84781 0
M  V30 3325 O 328.3 5.30859 2.08673 0
M  V30 3326 O 327.234 6.01249 0.279969 0
M  V30 3327 H 331.06 2.91065 -0.866892 0
M  V30 3328 H 328.645 1.4117 -0.48902 0
M  V30 3329 H 330.527 3.99804 1.33171 0
M  V30 3330 H 329.202 2.82739 1.57608 0
M  V30 3331 H 328.109 3.69703 -0.571877 0
M  V30 3332 H 329.442 4.86712 -0.73295 0
M  V30 3333 N 331.094 0.475555 1.50254 0
M  V30 3334 C 332.319 -0.0777042 2.07254 0
M  V30 3335 C 332.744 -1.3235 1.3366 0
M  V30 3336 O 332.102 -1.77152 0.385597 0
M  V30 3337 C 332.15 -0.340169 3.58992 0
M  V30 3338 O 331.254 -1.41982 3.87188 0
M  V30 3339 H 330.595 0.0149556 0.663832 0
M  V30 3340 H 333.125 0.667878 1.93392 0
M  V30 3341 H 333.135 -0.579332 4.03866 0
M  V30 3342 H 331.81 0.570167 4.11973 0
M  V30 3343 H 330.387 -1.16762 3.54148 0
M  V30 3344 N 332.573 -1.56217 0.208337 0
M  V30 3345 C 333.52 -2.19699 -0.707192 0
M  V30 3346 C 334.49 -1.14836 -1.20008 0
M  V30 3347 O 335.675 -1.4314 -1.26157 0
M  V30 3348 C 332.815 -2.87061 -1.91546 0
M  V30 3349 C 331.928 -4.06483 -1.46271 0
M  V30 3350 C 331.063 -4.61665 -2.62752 0
M  V30 3351 C 330.102 -5.73417 -2.14147 0
M  V30 3352 N 329.239 -6.22948 -3.23853 0
M  V30 3353 H 334.079 -2.97575 -0.159111 0
M  V30 3354 H 331.616 -1.46948 -0.0667874 0
M  V30 3355 H 333.574 -3.24294 -2.62468 0
M  V30 3356 H 332.204 -2.11725 -2.43664 0
M  V30 3357 H 331.256 -3.74825 -0.648886 0
M  V30 3358 H 332.568 -4.87271 -1.06622 0
M  V30 3359 H 331.722 -5.01272 -3.41776 0
M  V30 3360 H 330.461 -3.80013 -3.05682 0
M  V30 3361 H 329.466 -5.33326 -1.33581 0
M  V30 3362 H 330.691 -6.56897 -1.72232 0
M  V30 3363 H 328.637 -5.44213 -3.6629 0
M  V30 3364 H 328.554 -6.98823 -2.88414 0
M  V30 3365 H 329.822 -6.6721 -4.03052 0
M  V30 3366 N 334.051 0.0651679 -1.57465 0
M  V30 3367 C 335.281 0.774683 -1.91526 0
M  V30 3368 C 335.689 1.71305 -0.803196 0
M  V30 3369 O 335.032 1.82231 0.231881 0
M  V30 3370 C 335.094 1.61645 -3.21109 0
M  V30 3371 C 334.758 0.846753 -4.49087 0
M  V30 3372 C 335.755 0.163024 -5.19644 0
M  V30 3373 C 333.44 0.811966 -4.95694 0
M  V30 3374 C 335.434 -0.54519 -6.35064 0
M  V30 3375 C 333.121 0.0999836 -6.11018 0
M  V30 3376 C 334.119 -0.577388 -6.80555 0
M  V30 3377 O 333.807 -1.27789 -7.93678 0
M  V30 3378 H 333.539 0.225031 -0.637446 0
M  V30 3379 H 336.093 0.0377134 -2.05365 0
M  V30 3380 H 334.323 2.39638 -3.03497 0
M  V30 3381 H 336.012 2.20525 -3.40769 0
M  V30 3382 H 336.778 0.181163 -4.84662 0
M  V30 3383 H 332.657 1.32867 -4.41438 0
M  V30 3384 H 336.201 -1.07446 -6.89276 0
M  V30 3385 H 332.098 0.0797945 -6.45451 0
M  V30 3386 H 332.866 -1.18784 -8.09835 0
M  V30 3387 N 335.529 1.53961 0.336706 0
M  V30 3388 C 336.777 1.71197 1.07405 0
M  V30 3389 C 337.098 0.481475 1.88962 0
M  V30 3390 O 336.368 -0.504585 1.8929 0
M  V30 3391 H 334.948 0.631185 0.399517 0
M  V30 3392 H 337.61 1.91232 0.376323 0
M  V30 3393 H 336.706 2.58587 1.74755 0
M  V30 3394 N 337.007 -0.598083 1.45811 0
M  V30 3395 C 338.418 -1.18011 1.44673 0
M  V30 3396 C 338.769 -1.95378 0.179364 0
M  V30 3397 O 337.894 -2.04124 -0.718509 0
M  V30 3398 C 338.489 -2.14677 2.62105 0
M  V30 3399 C 337.048 -2.68236 2.64057 0
M  V30 3400 C 336.195 -1.43816 2.37091 0
M  V30 3401 H 339.146 -0.38686 1.53913 0
M  V30 3402 H 339.167 -2.97878 2.36746 0
M  V30 3403 H 338.679 -1.5834 3.5433 0
M  V30 3404 H 336.78 -3.28486 1.75864 0
M  V30 3405 H 336.893 -3.12021 3.63566 0
M  V30 3406 H 335.257 -1.731 1.86838 0
M  V30 3407 H 336.04 -0.893333 3.31473 0
M  V30 3408 N 338.485 -1.33259 -0.841409 0
M  V30 3409 C 339.896 -1.22066 -1.41269 0
M  V30 3410 C 340.247 0.161479 -1.95534 0
M  V30 3411 O 339.372 1.06094 -1.88608 0
M  V30 3412 C 339.967 -2.20996 -2.568 0
M  V30 3413 C 338.526 -2.13649 -3.09888 0
M  V30 3414 C 337.673 -2.08623 -1.82679 0
M  V30 3415 H 340.624 -1.44895 -0.647395 0
M  V30 3416 H 340.645 -1.81621 -3.34356 0
M  V30 3417 H 340.157 -3.2158 -2.17274 0
M  V30 3418 H 338.258 -1.16359 -3.53965 0
M  V30 3419 H 338.371 -3.04079 -3.70234 0
M  V30 3420 H 336.735 -1.54061 -2.02824 0
M  V30 3421 H 337.518 -3.1101 -1.45353 0
M  V30 3422 N 339.963 1.05934 -1.16686 0
M  V30 3423 C 341.203 1.80382 -0.961345 0
M  V30 3424 C 341.567 1.85331 0.501643 0
M  V30 3425 O 342.768 2.55795 0.825986 0
M  V30 3426 C 341.039 3.20777 -1.57596 0
M  V30 3427 S 342.598 4.11795 -1.51559 0
M  V30 3428 H 339.416 0.621332 -0.345641 0
M  V30 3429 H 342.018 1.27157 -1.48497 0
M  V30 3430 H 340.722 3.14773 -2.63337 0
M  V30 3431 H 340.253 3.79078 -1.05182 0
M  V30 3432 H 342.268 4.93485 -0.518374 0
M  V30 3433 N 341.441 0.965919 1.2453 0
M  V30 3434 C 342.852 0.665929 1.7442 0
M  V30 3435 C 343.203 -0.818407 1.78316 0
M  V30 3436 O 342.328 -1.64037 1.41141 0
M  V30 3437 C 342.923 1.20211 3.16757 0
M  V30 3438 C 341.482 0.952059 3.6416 0
M  V30 3439 C 340.629 1.33848 2.42858 0
M  V30 3440 H 343.58 1.14144 1.10258 0
M  V30 3441 H 343.601 0.567544 3.76244 0
M  V30 3442 H 343.113 2.28244 3.13889 0
M  V30 3443 H 341.214 -0.112821 3.72429 0
M  V30 3444 H 341.327 1.59645 4.51719 0
M  V30 3445 H 339.691 0.756864 2.43195 0
M  V30 3446 H 340.474 2.42827 2.42673 0
M  V30 3447 N 342.919 -1.39368 0.735821 0
M  V30 3448 C 344.33 -1.83313 0.354015 0
M  V30 3449 C 344.681 -1.61461 -1.11466 0
M  V30 3450 O 343.806 -1.10621 -1.85989 0
M  V30 3451 C 344.401 -3.32781 0.635769 0
M  V30 3452 C 342.96 -3.75142 0.307448 0
M  V30 3453 C 342.107 -2.62358 0.897974 0
M  V30 3454 H 345.058 -1.28349 0.933398 0
M  V30 3455 H 345.079 -3.80388 -0.0921773 0
M  V30 3456 H 344.591 -3.48654 1.70476 0
M  V30 3457 H 342.692 -3.64857 -0.755674 0
M  V30 3458 H 342.805 -4.72532 0.790583 0
M  V30 3459 H 341.169 -2.52624 0.324551 0
M  V30 3460 H 341.952 -2.81036 1.97164 0
M  V30 3461 N 344.397 -0.483516 -1.5 0
M  V30 3462 C 345.637 0.0657469 -2.04294 0
M  V30 3463 C 346.001 1.35869 -1.35659 0
M  V30 3464 O 347.202 1.99111 -1.80578 0
M  V30 3465 C 345.473 0.232758 -3.56641 0
M  V30 3466 S 347.032 0.738788 -4.32536 0
M  V30 3467 H 343.85 0.0100755 -0.710929 0
M  V30 3468 H 346.452 -0.653494 -1.84254 0
M  V30 3469 H 345.156 -0.713847 -4.04144 0
M  V30 3470 H 344.687 0.977751 -3.81056 0
M  V30 3471 H 346.702 2.01048 -4.53645 0
M  V30 3472 N 345.875 1.56104 -0.216619 0
M  V30 3473 C 347.286 1.844 0.292128 0
M  V30 3474 C 347.637 1.13788 1.59833 0
M  V30 3475 O 346.762 0.405888 2.12559 0
M  V30 3476 C 347.357 3.3452 0.53681 0
M  V30 3477 C 345.916 3.63151 0.989876 0
M  V30 3478 C 345.063 2.77255 0.0502302 0
M  V30 3479 H 348.014 1.52481 -0.439926 0
M  V30 3480 H 348.035 3.54459 1.38345 0
M  V30 3481 H 347.547 3.85885 -0.414031 0
M  V30 3482 H 345.648 3.17238 1.95425 0
M  V30 3483 H 345.761 4.71177 0.867698 0
M  V30 3484 H 344.125 2.48555 0.556117 0
M  V30 3485 H 344.908 3.31416 -0.89544 0
M  V30 3486 N 347.353 -0.0568162 1.57498 0
M  V30 3487 C 348.316 -1.05038 2.03715 0
M  V30 3488 C 349.316 -1.30709 0.936577 0
M  V30 3489 O 350.506 -1.26178 1.20103 0
M  V30 3490 C 347.638 -2.39034 2.43055 0
M  V30 3491 H 348.831 -0.651715 2.92733 0
M  V30 3492 H 346.384 -0.302947 1.53336 0
M  V30 3493 H 347.119 -2.83703 1.57108 0
M  V30 3494 H 346.904 -2.21739 3.2338 0
M  V30 3495 H 348.394 -3.10421 2.79336 0
M  V30 3496 N 348.832 -1.54138 -0.328536 0
M  V30 3497 C 350.243 -1.63395 -0.903272 0
M  V30 3498 C 350.594 -0.524828 -1.8905 0
M  V30 3499 O 349.719 0.343068 -2.13663 0
M  V30 3500 C 350.314 -2.9618 -1.64507 0
M  V30 3501 C 348.873 -3.0765 -2.1686 0
M  V30 3502 C 348.02 -2.58933 -0.992416 0
M  V30 3503 H 350.971 -1.58344 -0.106253 0
M  V30 3504 H 350.992 -2.86061 -2.50897 0
M  V30 3505 H 350.504 -3.76884 -0.926302 0
M  V30 3506 H 348.605 -2.31611 -2.91868 0
M  V30 3507 H 348.718 -4.1337 -2.42202 0
M  V30 3508 H 347.082 -2.14706 -1.37016 0
M  V30 3509 H 347.865 -3.42089 -0.288041 0
M  V30 3510 N 350.31 0.590341 -1.46126 0
M  V30 3511 C 351.22 1.72793 -1.58681 0
M  V30 3512 C 352.236 1.67516 -0.470566 0
M  V30 3513 O 353.412 1.87562 -0.733642 0
M  V30 3514 C 350.477 3.09287 -1.5666 0
M  V30 3515 C 349.538 3.25886 -2.79458 0
M  V30 3516 C 348.771 4.55869 -2.77524 0
M  V30 3517 O 348.994 5.3928 -1.85832 0
M  V30 3518 O 347.928 4.75552 -3.68964 0
M  V30 3519 H 351.754 1.65149 -2.54872 0
M  V30 3520 H 349.339 0.756486 -1.28832 0
M  V30 3521 H 351.221 3.90577 -1.58202 0
M  V30 3522 H 349.896 3.17385 -0.636271 0
M  V30 3523 H 348.803 2.44119 -2.83472 0
M  V30 3524 H 350.136 3.22675 -3.71674 0
M  V30 3525 N 351.788 1.33704 0.83433 0
M  V30 3526 C 353.035 1.25417 1.58987 0
M  V30 3527 C 353.363 -0.178869 1.93676 0
M  V30 3528 O 352.618 -1.13723 1.59265 0
M  V30 3529 C 352.917 2.07926 2.90692 0
M  V30 3530 C 352.583 3.57066 2.75345 0
M  V30 3531 C 351.245 3.97724 2.70867 0
M  V30 3532 C 353.597 4.51817 2.59828 0
M  V30 3533 C 350.925 5.31344 2.48778 0
M  V30 3534 C 353.277 5.85604 2.39272 0
M  V30 3535 C 351.941 6.25439 2.33199 0
M  V30 3536 H 351.211 0.458934 0.581774 0
M  V30 3537 H 353.858 1.65335 0.966261 0
M  V30 3538 H 352.163 1.608 3.57282 0
M  V30 3539 H 353.86 1.98868 3.48213 0
M  V30 3540 H 350.45 3.24785 2.79665 0
M  V30 3541 H 354.634 4.21311 2.62319 0
M  V30 3542 H 349.89 5.61241 2.42526 0
M  V30 3543 H 354.064 6.58623 2.2625 0
M  V30 3544 H 351.691 7.28914 2.15843 0
M  V30 3545 N 353.266 -1.05314 1.17247 0
M  V30 3546 C 354.196 -2.1498 0.911362 0
M  V30 3547 C 355.177 -1.69471 -0.146169 0
M  V30 3548 O 356.362 -1.942 0.003812 0
M  V30 3549 C 353.492 -3.4472 0.422528 0
M  V30 3550 C 352.446 -4.03789 1.4191 0
M  V30 3551 C 351.772 -5.28858 0.788274 0
M  V30 3552 C 353.072 -4.41418 2.7919 0
M  V30 3553 H 354.766 -2.3708 1.82848 0
M  V30 3554 H 352.312 -1.13938 0.880569 0
M  V30 3555 H 354.265 -4.20787 0.227289 0
M  V30 3556 H 352.989 -3.22269 -0.530123 0
M  V30 3557 H 351.648 -3.2979 1.60106 0
M  V30 3558 H 351.296 -5.02709 -0.171173 0
M  V30 3559 H 350.996 -5.69338 1.45353 0
M  V30 3560 H 352.52 -6.07612 0.603282 0
M  V30 3561 H 353.934 -5.08524 2.64719 0
M  V30 3562 H 352.331 -4.92913 3.42282 0
M  V30 3563 H 353.401 -3.51819 3.33693 0
M  V30 3564 N 354.744 -0.972509 -1.24016 0
M  V30 3565 C 355.992 -0.635776 -1.91839 0
M  V30 3566 C 356.313 0.832312 -1.76345 0
M  V30 3567 O 355.583 1.5946 -1.13795 0
M  V30 3568 H 354.163 -0.232157 -0.710009 0
M  V30 3569 H 356.825 -1.23462 -1.50809 0
M  V30 3570 H 355.921 -0.880545 -2.99421 0
M  V30 3571 N 356.222 1.38976 -0.743202 0
M  V30 3572 C 357.47 1.99948 -0.29417 0
M  V30 3573 C 357.791 1.59279 1.12495 0
M  V30 3574 O 357.061 0.844808 1.76748 0
M  V30 3575 H 355.641 0.739473 -0.105774 0
M  V30 3576 H 358.303 1.699 -0.954986 0
M  V30 3577 H 357.399 3.10142 -0.349056 0
M  V30 3578 N 357.7 0.491464 1.49741 0
M  V30 3579 C 359.111 0.0413169 1.86654 0
M  V30 3580 C 359.462 -1.36985 1.40462 0
M  V30 3581 O 358.587 -2.01917 0.778354 0
M  V30 3582 C 359.182 0.0682023 3.38731 0
M  V30 3583 C 357.741 -0.32656 3.74981 0
M  V30 3584 C 356.888 0.444888 2.73708 0
M  V30 3585 H 359.839 0.704733 1.42194 0
M  V30 3586 H 359.86 -0.729322 3.73445 0
M  V30 3587 H 359.372 1.09539 3.72321 0
M  V30 3588 H 357.473 -1.35734 3.46997 0
M  V30 3589 H 357.586 -0.013741 4.79098 0
M  V30 3590 H 355.95 -0.104062 2.54487 0
M  V30 3591 H 356.733 1.47197 3.10142 0
M  V30 3592 N 359.178 -1.55987 0.224894 0
M  V30 3593 C 360.403 -2.03232 -0.41369 0
M  V30 3594 C 360.828 -1.10359 -1.52323 0
M  V30 3595 O 360.186 -0.092395 -1.81064 0
M  V30 3596 C 360.234 -3.48682 -0.919405 0
M  V30 3597 O 359.338 -3.58947 -2.03054 0
M  V30 3598 H 358.679 -0.657428 -0.0931903 0
M  V30 3599 H 361.209 -2.01679 0.34451 0
M  V30 3600 H 361.219 -3.8907 -1.22835 0
M  V30 3601 H 359.894 -4.15761 -0.107339 0
M  V30 3602 H 358.471 -3.30448 -1.72796 0
M  V30 3603 N 360.656 0.0484629 -1.57525 0
M  V30 3604 C 361.902 0.744226 -1.88651 0
M  V30 3605 C 362.235 1.76029 -0.820212 0
M  V30 3606 O 361.51 1.93782 0.166985 0
M  V30 3607 C 361.793 1.43128 -3.30434 0
M  V30 3608 C 361.646 0.43005 -4.47739 0
M  V30 3609 C 362.965 2.37031 -3.70816 0
M  V30 3610 H 360.084 0.269089 -0.68612 0
M  V30 3611 H 362.726 0.00713532 -1.89999 0
M  V30 3612 H 360.876 2.05956 -3.29415 0
M  V30 3613 H 362.548 -0.194816 -4.60888 0
M  V30 3614 H 360.791 -0.252522 -4.33064 0
M  V30 3615 H 361.462 0.948874 -5.43783 0
M  V30 3616 H 363.938 1.84263 -3.73077 0
M  V30 3617 H 362.814 2.82094 -4.70865 0
M  V30 3618 H 363.075 3.22864 -3.02012 0
M  V30 3619 N 362.134 1.5431 0.320358 0
M  V30 3620 C 363.381 1.72668 1.05792 0
M  V30 3621 C 363.709 0.502084 1.87908 0
M  V30 3622 O 362.964 -0.516149 1.88771 0
M  V30 3623 C 363.263 2.95639 2.00828 0
M  V30 3624 C 362.929 4.30265 1.34843 0
M  V30 3625 C 361.591 4.66865 1.16578 0
M  V30 3626 C 363.943 5.13801 0.875095 0
M  V30 3627 C 361.271 5.84597 0.496336 0
M  V30 3628 C 363.623 6.32219 0.219463 0
M  V30 3629 C 362.287 6.67495 0.0246915 0
M  V30 3630 H 361.557 0.631837 0.387121 0
M  V30 3631 H 364.204 1.88552 0.334735 0
M  V30 3632 H 362.509 2.74456 2.79609 0
M  V30 3633 H 364.206 3.07038 2.57932 0
M  V30 3634 H 360.796 4.01472 1.50061 0
M  V30 3635 H 364.98 4.86039 1.00398 0
M  V30 3636 H 360.236 6.10486 0.334264 0
M  V30 3637 H 364.41 6.96227 -0.155291 0
M  V30 3638 H 362.037 7.5858 -0.496065 0
M  V30 3639 N 363.613 -0.582584 1.46437 0
M  V30 3640 C 364.543 -1.70187 1.59871 0
M  V30 3641 C 365.524 -1.64066 0.449042 0
M  V30 3642 O 366.709 -1.82081 0.6753 0
M  V30 3643 C 363.839 -3.08827 1.58881 0
M  V30 3644 C 362.793 -3.29779 2.72819 0
M  V30 3645 C 362.119 -4.68947 2.5689 0
M  V30 3646 C 363.419 -3.17601 4.1464 0
M  V30 3647 H 365.113 -1.592 2.53566 0
M  V30 3648 H 362.659 -0.764472 1.22032 0
M  V30 3649 H 364.612 -3.86951 1.66873 0
M  V30 3650 H 363.336 -3.20713 0.617306 0
M  V30 3651 H 361.995 -2.54054 2.64296 0
M  V30 3652 H 361.643 -4.77599 1.57823 0
M  V30 3653 H 361.343 -4.83919 3.33312 0
M  V30 3654 H 362.867 -5.4924 2.66773 0
M  V30 3655 H 364.281 -3.8557 4.24274 0
M  V30 3656 H 362.678 -3.44094 4.9165 0
M  V30 3657 H 363.748 -2.14681 4.34788 0
M  V30 3658 N 365.091 -1.34144 -0.827227 0
M  V30 3659 C 366.338 -1.26258 -1.58319 0
M  V30 3660 C 366.666 0.168595 -1.93768 0
M  V30 3661 O 365.921 1.12877 -1.59866 0
M  V30 3662 C 366.22 -2.09464 -2.89585 0
M  V30 3663 C 365.886 -3.58521 -2.73448 0
M  V30 3664 C 364.548 -3.99155 -2.68754 0
M  V30 3665 C 366.9 -4.53189 -2.57428 0
M  V30 3666 C 364.228 -5.32656 -2.45957 0
M  V30 3667 C 366.58 -5.86864 -2.36163 0
M  V30 3668 C 365.244 -6.26667 -2.29879 0
M  V30 3669 H 364.514 -0.462013 -0.579332 0
M  V30 3670 H 367.161 -1.65845 -0.95748 0
M  V30 3671 H 365.466 -1.62692 -3.56425 0
M  V30 3672 H 367.163 -2.00712 -3.47154 0
M  V30 3673 H 363.753 -3.26264 -2.77939 0
M  V30 3674 H 367.937 -4.22696 -2.60081 0
M  V30 3675 H 363.193 -5.62519 -2.39546 0
M  V30 3676 H 367.367 -6.59813 -2.22754 0
M  V30 3677 H 364.994 -7.30049 -2.11975 0
M  V30 3678 N 366.569 1.04691 -1.17803 0
M  V30 3679 C 367.98 1.59238 -0.974689 0
M  V30 3680 C 368.331 1.90306 0.477292 0
M  V30 3681 O 367.456 1.68846 1.35352 0
M  V30 3682 C 368.051 2.89318 -1.76296 0
M  V30 3683 C 366.61 3.40506 -1.60414 0
M  V30 3684 C 365.757 2.14172 -1.76141 0
M  V30 3685 H 368.708 0.874395 -1.32439 0
M  V30 3686 H 368.729 3.5944 -1.24833 0
M  V30 3687 H 368.241 2.66675 -2.81968 0
M  V30 3688 H 366.342 3.68175 -0.572519 0
M  V30 3689 H 366.455 4.14753 -2.39827 0
M  V30 3690 H 364.819 2.25176 -1.19028 0
M  V30 3691 H 365.602 1.93992 -2.83235 0
M  V30 3692 N 368.047 0.979072 1.23499 0
M  V30 3693 C 369.458 0.684391 1.73704 0
M  V30 3694 C 369.809 -0.799448 1.79174 0
M  V30 3695 O 368.934 -1.62531 1.42873 0
M  V30 3696 C 369.529 1.23564 3.15464 0
M  V30 3697 C 368.088 0.99063 3.6313 0
M  V30 3698 C 367.235 1.36416 2.41425 0
M  V30 3699 H 370.186 1.15307 1.09041 0
M  V30 3700 H 370.207 0.607417 3.7562 0
M  V30 3701 H 369.719 2.31561 3.1145 0
M  V30 3702 H 367.82 -0.0733136 3.72528 0
M  V30 3703 H 367.933 1.64427 4.5 0
M  V30 3704 H 366.297 0.782616 2.42378 0
M  V30 3705 H 367.08 2.45387 2.40083 0
M  V30 3706 N 369.525 -1.3858 0.750561 0
M  V30 3707 C 370.472 -2.30483 0.120835 0
M  V30 3708 C 371.442 -1.50022 -0.712923 0
M  V30 3709 O 372.627 -1.78662 -0.669676 0
M  V30 3710 C 369.767 -3.36431 -0.768666 0
M  V30 3711 C 368.88 -4.31927 0.0793922 0
M  V30 3712 C 368.015 -5.24944 -0.81283 0
M  V30 3713 C 367.054 -6.12088 0.0390447 0
M  V30 3714 N 366.191 -6.97412 -0.809969 0
M  V30 3715 H 371.031 -2.83761 0.91015 0
M  V30 3716 H 368.568 -1.39707 0.460463 0
M  V30 3717 H 370.526 -3.96462 -1.29898 0
M  V30 3718 H 369.156 -2.8457 -1.5238 0
M  V30 3719 H 368.208 -3.73382 0.727303 0
M  V30 3720 H 369.52 -4.93319 0.737401 0
M  V30 3721 H 368.674 -5.90078 -1.41042 0
M  V30 3722 H 367.413 -4.63911 -1.50458 0
M  V30 3723 H 366.418 -5.45952 0.649328 0
M  V30 3724 H 367.643 -6.75189 0.727809 0
M  V30 3725 H 365.589 -6.38931 -1.48672 0
M  V30 3726 H 365.506 -7.55712 -0.208789 0
M  V30 3727 H 366.774 -7.66959 -1.39263 0
M  V30 3728 N 371.003 -0.499398 -1.49478 0
M  V30 3729 C 372.414 -0.051215 -1.8663 0
M  V30 3730 C 372.765 1.36238 -1.41186 0
M  V30 3731 O 371.89 2.01502 -0.789051 0
M  V30 3732 C 372.485 -0.0861651 -3.3869 0
M  V30 3733 C 371.044 0.30667 -3.75149 0
M  V30 3734 C 370.191 -0.459397 -2.73468 0
M  V30 3735 H 373.142 -0.712264 -1.41818 0
M  V30 3736 H 373.163 0.709507 -3.73826 0
M  V30 3737 H 372.675 -1.11512 -3.71735 0
M  V30 3738 H 370.776 1.33892 -3.47712 0
M  V30 3739 H 370.889 -0.0116669 -4.79099 0
M  V30 3740 H 369.253 0.0905645 -2.54539 0
M  V30 3741 H 370.036 -1.4884 -3.09357 0
M  V30 3742 N 372.481 1.55866 -0.233164 0
M  V30 3743 C 373.428 2.20796 0.67215 0
M  V30 3744 C 374.398 1.16731 1.18166 0
M  V30 3745 O 375.583 1.45129 1.23864 0
M  V30 3746 C 372.723 2.90072 1.86955 0
M  V30 3747 C 371.836 4.08759 1.39786 0
M  V30 3748 C 370.971 4.65787 2.55374 0
M  V30 3749 C 370.01 5.76752 2.04998 0
M  V30 3750 N 369.147 6.28021 3.13901 0
M  V30 3751 H 373.987 2.9779 0.111749 0
M  V30 3752 H 371.524 1.47036 0.0434007 0
M  V30 3753 H 373.482 3.28428 2.57276 0
M  V30 3754 H 372.112 2.15575 2.40265 0
M  V30 3755 H 371.164 3.7581 0.589173 0
M  V30 3756 H 372.476 4.88906 0.98856 0
M  V30 3757 H 371.63 5.06646 3.33758 0
M  V30 3758 H 370.369 3.84828 2.99598 0
M  V30 3759 H 369.374 5.35383 1.25079 0
M  V30 3760 H 370.599 6.59553 1.61759 0
M  V30 3761 H 368.545 5.49971 3.57586 0
M  V30 3762 H 368.462 7.03323 2.7726 0
M  V30 3763 H 369.73 6.73538 3.92386 0
M  V30 3764 N 373.959 -0.0401083 1.57549 0
M  V30 3765 C 375.236 -0.767917 1.79896 0
M  V30 3766 C 375.616 -1.9416 0.82856 0
M  V30 3767 O 374.964 -2.2812 -0.131671 0
M  V30 3768 C 375.174 -1.2113 3.27305 0
M  V30 3769 C 376.522 -1.63175 3.91994 0
M  V30 3770 O 377.546 -1.30616 3.31388 0
M  V30 3771 O 376.405 -2.23565 4.98679 0
M  V30 3772 H 373.499 -0.370441 0.739393 0
M  V30 3773 H 376.045 -0.017737 1.69691 0
M  V30 3774 H 374.817 -0.372937 3.89519 0
M  V30 3775 H 374.44 -2.02183 3.42356 0
M  V30 3776 N 375.437 -1.54477 -0.31217 0
M  V30 3777 C 376.665 -1.77205 -1.068 0
M  V30 3778 C 377.08 -0.526114 -1.81321 0
M  V30 3779 O 376.437 0.503647 -1.75413 0
M  V30 3780 C 376.488 -2.97253 -2.05725 0
M  V30 3781 O 376.209 -4.1703 -1.34228 0
M  V30 3782 C 377.71 -3.32281 -2.93435 0
M  V30 3783 H 374.93 -0.591287 -0.317208 0
M  V30 3784 H 377.474 -2.01398 -0.354834 0
M  V30 3785 H 375.629 -2.753 -2.72559 0
M  V30 3786 H 376.043 -4.84636 -2.00571 0
M  V30 3787 H 377.517 -4.19551 -3.58721 0
M  V30 3788 H 377.994 -2.49945 -3.61143 0
M  V30 3789 H 378.6 -3.56353 -2.32147 0
M  V30 3790 N 376.915 0.57481 -1.46744 0
M  V30 3791 C 377.845 1.69337 -1.60771 0
M  V30 3792 C 378.826 1.63825 -0.457736 0
M  V30 3793 O 380.011 1.8172 -0.684947 0
M  V30 3794 C 377.141 3.0798 -1.60517 0
M  V30 3795 C 376.095 3.28327 -2.74564 0
M  V30 3796 C 375.421 4.67578 -2.59373 0
M  V30 3797 C 376.721 3.15398 -4.16319 0
M  V30 3798 H 378.415 1.57853 -2.54407 0
M  V30 3799 H 375.961 0.75799 -1.22436 0
M  V30 3800 H 377.914 3.86061 -1.68923 0
M  V30 3801 H 376.638 3.20381 -0.634305 0
M  V30 3802 H 375.297 2.52649 -2.65639 0
M  V30 3803 H 374.945 4.76755 -1.60353 0
M  V30 3804 H 374.645 4.82144 -3.35873 0
M  V30 3805 H 376.169 5.47817 -2.69682 0
M  V30 3806 H 377.583 3.83315 -4.26313 0
M  V30 3807 H 375.98 3.41482 -4.93468 0
M  V30 3808 H 377.05 2.12372 -4.3592 0
M  V30 3809 N 378.394 1.34581 0.820102 0
M  V30 3810 C 379.327 1.20735 1.93644 0
M  V30 3811 C 380.305 0.0983343 1.62302 0
M  V30 3812 O 381.489 0.263997 1.86642 0
M  V30 3813 C 378.616 0.856037 3.27704 0
M  V30 3814 C 377.662 1.97521 3.78005 0
M  V30 3815 S 378.495 3.58906 3.97425 0
M  V30 3816 C 379.651 3.25822 5.34407 0
M  V30 3817 H 379.884 2.15231 2.05093 0
M  V30 3818 H 377.417 1.1964 0.97599 0
M  V30 3819 H 379.375 0.660133 4.05157 0
M  V30 3820 H 378.036 -0.0706253 3.14021 0
M  V30 3821 H 377.229 1.68321 4.75062 0
M  V30 3822 H 376.831 2.12875 3.07507 0
M  V30 3823 H 379.123 2.77812 6.17922 0
M  V30 3824 H 380.066 4.22029 5.68592 0
M  V30 3825 H 380.474 2.61932 5.00052 0
M  V30 3826 N 379.872 -1.04064 1.18357 0
M  V30 3827 C 381.121 -1.76662 0.973313 0
M  V30 3828 C 381.434 -1.89154 -0.497991 0
M  V30 3829 O 382.64 -2.58606 -0.826762 0
M  V30 3830 C 381.096 -3.17624 1.69242 0
M  V30 3831 C 380.704 -3.13225 3.20303 0
M  V30 3832 C 382.448 -3.946 1.56497 0
M  V30 3833 C 380.355 -4.49046 3.84853 0
M  V30 3834 H 379.285 -0.662214 0.36054 0
M  V30 3835 H 381.936 -1.16553 1.41731 0
M  V30 3836 H 380.318 -3.78129 1.1762 0
M  V30 3837 H 381.492 -2.62172 3.78949 0
M  V30 3838 H 379.807 -2.49749 3.33189 0
M  V30 3839 H 382.404 -4.95042 2.02084 0
M  V30 3840 H 382.747 -4.13074 0.517243 0
M  V30 3841 H 383.28 -3.4067 2.05399 0
M  V30 3842 H 380.019 -4.35777 4.89672 0
M  V30 3843 H 379.539 -5.00203 3.30994 0
M  V30 3844 H 381.218 -5.17961 3.87718 0
M  V30 3845 N 381.35 -0.985608 -1.22978 0
M  V30 3846 C 382.575 -0.675254 -1.961 0
M  V30 3847 C 383 0.752154 -1.72407 0
M  V30 3848 O 382.358 1.5131 -0.998751 0
M  V30 3849 C 382.406 -0.977899 -3.47087 0
M  V30 3850 O 381.51 -0.072685 -4.12336 0
M  V30 3851 H 380.851 -0.253443 -0.613728 0
M  V30 3852 H 383.381 -1.32061 -1.56272 0
M  V30 3853 H 383.391 -0.916739 -3.97567 0
M  V30 3854 H 382.066 -2.01807 -3.63657 0
M  V30 3855 H 380.643 -0.188703 -3.72422 0
M  V30 3856 N 382.828 1.3818 -0.7579 0
M  V30 3857 C 384.244 1.5353 -0.435972 0
M  V30 3858 C 384.444 1.71961 1.05032 0
M  V30 3859 O 383.5 1.73307 1.83633 0
M  V30 3860 C 384.813 2.73989 -1.23898 0
M  V30 3861 C 386.361 2.87841 -1.22949 0
M  V30 3862 C 386.836 4.11266 -2.01554 0
M  V30 3863 N 388.327 4.18352 -1.98837 0
M  V30 3864 C 389.062 5.12856 -2.5645 0
M  V30 3865 N 388.558 6.13005 -3.22794 0
M  V30 3866 N 390.351 5.05238 -2.46356 0
M  V30 3867 H 382.502 1.24467 -1.7211 0
M  V30 3868 H 384.765 0.604982 -0.729864 0
M  V30 3869 H 384.471 2.66789 -2.29165 0
M  V30 3870 H 384.345 3.67294 -0.858764 0
M  V30 3871 H 386.732 2.9452 -0.184854 0
M  V30 3872 H 386.813 1.95534 -1.64924 0
M  V30 3873 H 386.457 4.05349 -3.06031 0
M  V30 3874 H 386.387 5.02661 -1.5697 0
M  V30 3875 H 388.878 3.46628 -1.50524 0
M  V30 3876 H 389.191 6.81619 -3.64165 0
M  V30 3877 H 387.536 6.13325 -3.2689 0
M  V30 3878 H 390.727 4.25938 -1.9415 0
M  V30 3879 H 390.9 5.78707 -2.91552 0
M  V30 3880 N 384.306 0.507319 1.49211 0
M  V30 3881 C 385.534 -0.0315749 2.06876 0
M  V30 3882 C 385.949 -1.30241 1.36685 0
M  V30 3883 O 385.306 -1.76937 0.447152 0
M  V30 3884 C 385.357 -0.282627 3.60393 0
M  V30 3885 O 385.078 0.937835 4.27944 0
M  V30 3886 C 386.579 -0.864453 4.3479 0
M  V30 3887 H 383.799 0.0233048 0.670595 0
M  V30 3888 H 386.343 0.706484 1.91909 0
M  V30 3889 H 384.498 -0.97068 3.75042 0
M  V30 3890 H 384.912 0.704567 5.19746 0
M  V30 3891 H 386.386 -0.989664 5.43056 0
M  V30 3892 H 386.863 -1.86382 3.97692 0
M  V30 3893 H 387.469 -0.213672 4.24763 0
M  V30 3894 N 385.784 -1.5574 0.241426 0
M  V30 3895 C 387.195 -1.84842 -0.262755 0
M  V30 3896 C 387.546 -1.16317 -1.58003 0
M  V30 3897 O 386.671 -0.439653 -2.11887 0
M  V30 3898 C 387.266 -3.35332 -0.483523 0
M  V30 3899 C 385.825 -3.6468 -0.931977 0
M  V30 3900 C 384.972 -2.77299 -0.0061151 0
M  V30 3901 H 387.923 -1.51761 0.464129 0
M  V30 3902 H 387.944 -3.56615 -1.32688 0
M  V30 3903 H 387.456 -3.85178 0.47537 0
M  V30 3904 H 385.557 -3.20307 -1.90353 0
M  V30 3905 H 385.67 -4.72498 -0.792628 0
M  V30 3906 H 384.034 -2.49408 -0.516503 0
M  V30 3907 H 384.817 -3.2995 0.948052 0
M  V30 3908 N 387.262 0.0317525 -1.57568 0
M  V30 3909 C 388.172 1.05021 -2.0978 0
M  V30 3910 C 389.188 1.39809 -1.03583 0
M  V30 3911 O 390.364 1.49182 -1.35302 0
M  V30 3912 C 387.429 2.33301 -2.56459 0
M  V30 3913 C 386.49 2.0512 -3.77127 0
M  V30 3914 C 385.723 3.27283 -4.2157 0
M  V30 3915 O 385.946 4.37861 -3.65559 0
M  V30 3916 O 384.88 3.13141 -5.14029 0
M  V30 3917 H 388.706 0.636505 -2.96955 0
M  V30 3918 H 386.291 0.248559 -1.47318 0
M  V30 3919 H 388.173 3.08722 -2.86825 0
M  V30 3920 H 386.848 2.73973 -1.72397 0
M  V30 3921 H 385.755 1.27276 -3.51784 0
M  V30 3922 H 387.088 1.69305 -4.62165 0
M  V30 3923 N 388.74 1.54641 0.303973 0
M  V30 3924 C 389.986 1.74038 1.04109 0
M  V30 3925 C 390.319 0.523051 1.87024 0
M  V30 3926 O 389.594 -0.479874 1.88487 0
M  V30 3927 C 389.877 3.02761 1.94955 0
M  V30 3928 C 389.73 4.34787 1.1524 0
M  V30 3929 C 391.049 3.27336 2.94175 0
M  V30 3930 H 388.168 0.63323 0.377079 0
M  V30 3931 H 390.81 1.87354 0.316001 0
M  V30 3932 H 388.96 2.9154 2.56782 0
M  V30 3933 H 390.632 4.57922 0.557236 0
M  V30 3934 H 388.875 4.31407 0.455053 0
M  V30 3935 H 389.546 5.21116 1.8205 0
M  V30 3936 H 392.022 3.38148 2.42477 0
M  V30 3937 H 390.898 4.18726 3.54908 0
M  V30 3938 H 391.159 2.45491 3.67677 0
M  V30 3939 N 390.218 -0.567019 1.47046 0
M  V30 3940 C 391.446 -1.35027 1.56765 0
M  V30 3941 C 391.861 -1.8758 0.214316 0
M  V30 3942 O 391.218 -1.64471 -0.790919 0
M  V30 3943 C 391.269 -2.52698 2.58507 0
M  V30 3944 O 390.99 -2.0232 3.88585 0
M  V30 3945 C 392.491 -3.45043 2.78316 0
M  V30 3946 H 389.711 -0.41195 0.529658 0
M  V30 3947 H 392.255 -0.687832 1.92585 0
M  V30 3948 H 390.41 -3.149 2.25648 0
M  V30 3949 H 390.824 -2.79068 4.44096 0
M  V30 3950 H 392.298 -4.2405 3.53391 0
M  V30 3951 H 392.775 -3.97971 1.85784 0
M  V30 3952 H 393.381 -2.88665 3.12334 0
M  V30 3953 N 391.696 -1.35014 -0.812953 0
M  V30 3954 C 392.936 -1.29289 -1.58315 0
M  V30 3955 C 393.3 0.132727 -1.91541 0
M  V30 3956 O 394.501 0.314269 -2.66957 0
M  V30 3957 C 392.772 -2.1681 -2.84127 0
M  V30 3958 S 394.331 -2.28538 -3.74588 0
M  V30 3959 H 391.149 -0.459569 -0.542511 0
M  V30 3960 H 393.751 -1.70336 -0.959467 0
M  V30 3961 H 392.455 -3.19379 -2.57731 0
M  V30 3962 H 391.986 -1.76697 -3.51485 0
M  V30 3963 H 394.001 -1.4655 -4.74065 0
M  V30 3964 N 393.175 1.03435 -1.18907 0
M  V30 3965 C 394.421 1.77005 -0.989798 0
M  V30 3966 C 394.754 1.88205 0.478816 0
M  V30 3967 O 394.029 1.39481 1.35556 0
M  V30 3968 C 394.312 3.19925 -1.65287 0
M  V30 3969 C 394.165 3.1663 -3.19477 0
M  V30 3970 C 395.484 4.18189 -1.37134 0
M  V30 3971 H 392.603 0.642538 -0.360991 0
M  V30 3972 H 395.245 1.20784 -1.46667 0
M  V30 3973 H 393.395 3.67929 -1.24741 0
M  V30 3974 H 395.067 2.76567 -3.692 0
M  V30 3975 H 393.31 2.54491 -3.51307 0
M  V30 3976 H 393.981 4.1758 -3.61013 0
M  V30 3977 H 396.457 3.78761 -1.72276 0
M  V30 3978 H 395.333 5.16394 -1.86087 0
M  V30 3979 H 395.594 4.41112 -0.295424 0
M  V30 3980 N 394.653 0.992116 1.22453 0
M  V30 3981 C 395.899 0.668523 1.91464 0
M  V30 3982 C 396.232 -0.797313 1.77078 0
M  V30 3983 O 395.507 -1.5765 1.13916 0
M  V30 3984 C 395.79 1.07424 3.43703 0
M  V30 3985 C 395.643 2.59857 3.67143 0
M  V30 3986 C 396.962 0.626891 4.35612 0
M  V30 3987 H 394.081 0.244341 0.695318 0
M  V30 3988 H 396.723 1.2355 1.44345 0
M  V30 3989 H 394.873 0.591816 3.83966 0
M  V30 3990 H 396.545 3.15764 3.3629 0
M  V30 3991 H 394.788 3.01961 3.11451 0
M  V30 3992 H 395.459 2.83296 4.73759 0
M  V30 3993 H 397.935 1.04125 4.02861 0
M  V30 3994 H 396.811 0.939076 5.40807 0
M  V30 3995 H 397.072 -0.472457 4.39568 0
M  V30 3996 N 396.131 -1.37776 0.765217 0
M  V30 3997 C 397.377 -2.00145 0.327072 0
M  V30 3998 C 397.71 -1.60607 -1.09175 0
M  V30 3999 O 396.985 -0.849127 -1.74986 0
M  V30 4000 C 397.268 -3.57109 0.46319 0
M  V30 4001 C 397.121 -4.06576 1.92395 0
M  V30 4002 C 398.44 -4.39888 -0.136473 0
M  V30 4003 H 395.559 -0.727113 0.120316 0
M  V30 4004 H 398.201 -1.63549 0.967039 0
M  V30 4005 H 396.351 -3.88414 -0.0816358 0
M  V30 4006 H 398.023 -3.85864 2.52798 0
M  V30 4007 H 396.266 -3.59011 2.43503 0
M  V30 4008 H 396.937 -5.15639 1.97028 0
M  V30 4009 H 399.413 -4.14803 0.328317 0
M  V30 4010 H 398.289 -5.48899 -0.0110582 0
M  V30 4011 H 398.55 -4.24758 -1.22608 0
M  V30 4012 N 397.609 -0.515225 -1.4894 0
M  V30 4013 C 398.886 0.0879088 -1.95402 0
M  V30 4014 C 399.266 1.52745 -1.45712 0
M  V30 4015 O 398.614 2.18238 -0.677093 0
M  V30 4016 C 398.824 -0.0141055 -3.48997 0
M  V30 4017 C 400.172 0.152646 -4.24326 0
M  V30 4018 O 401.196 0.0604025 -3.56149 0
M  V30 4019 O 400.055 0.34384 -5.45417 0
M  V30 4020 H 397.149 0.0874636 -0.822362 0
M  V30 4021 H 399.695 -0.578775 -1.59525 0
M  V30 4022 H 398.467 -1.01745 -3.77841 0
M  V30 4023 H 398.09 0.692091 -3.9153 0
M  V30 4024 N 399.087 1.5561 -0.249682 0
M  V30 4025 C 400.333 1.99306 0.374841 0
M  V30 4026 C 400.666 1.13767 1.57387 0
M  V30 4027 O 399.941 0.201711 1.93451 0
M  V30 4028 C 400.224 3.51507 0.781986 0
M  V30 4029 C 400.077 4.4781 -0.422629 0
M  V30 4030 C 401.396 4.08884 1.62793 0
M  V30 4031 H 398.515 0.724572 0.134773 0
M  V30 4032 H 401.157 1.86719 -0.351549 0
M  V30 4033 H 399.307 3.62363 1.4009 0
M  V30 4034 H 400.979 4.48931 -1.06108 0
M  V30 4035 H 399.222 4.20518 -1.06524 0
M  V30 4036 H 399.893 5.51919 -0.0943766 0
M  V30 4037 H 402.369 4.01147 1.10547 0
M  V30 4038 H 401.245 5.1564 1.88166 0
M  V30 4039 H 401.506 3.57515 2.60068 0
M  V30 4040 N 400.565 -0.0233959 1.57583 0
M  V30 4041 C 401.79 -0.728376 1.94189 0
M  V30 4042 C 402.215 -1.67793 0.850119 0
M  V30 4043 O 401.573 -1.80262 -0.19371 0
M  V30 4044 C 401.621 -1.45669 3.29868 0
M  V30 4045 O 400.725 -2.57013 3.22518 0
M  V30 4046 H 400.066 -0.195493 0.63457 0
M  V30 4047 H 402.596 0.0228214 2.04587 0
M  V30 4048 H 402.606 -1.82535 3.6489 0
M  V30 4049 H 401.281 -0.760314 4.08891 0
M  V30 4050 H 399.858 -2.22648 2.99136 0
M  V30 4051 N 402.043 -1.548 -0.295768 0
M  V30 4052 C 402.975 -1.82492 -1.3867 0
M  V30 4053 C 403.988 -0.708134 -1.46592 0
M  V30 4054 O 405.177 -0.985686 -1.48817 0
M  V30 4055 C 402.277 -1.95256 -2.76999 0
M  V30 4056 C 401.45 -3.25709 -2.91946 0
M  V30 4057 C 400.509 -3.28824 -4.10806 0
M  V30 4058 O 399.535 -4.02328 -4.02643 0
M  V30 4059 N 400.737 -2.5459 -5.21694 0
M  V30 4060 H 403.502 -2.76646 -1.15269 0
M  V30 4061 H 401.063 -1.54438 -0.485849 0
M  V30 4062 H 403.055 -1.94736 -3.54768 0
M  V30 4063 H 401.625 -1.08072 -2.93324 0
M  V30 4064 H 400.845 -3.38959 -2.01247 0
M  V30 4065 H 402.133 -4.11786 -2.98847 0
M  V30 4066 H 401.531 -1.94512 -5.31208 0
M  V30 4067 H 400.088 -2.59818 -5.97778 0
M  V30 4068 N 403.521 0.559213 -1.47345 0
M  V30 4069 C 404.431 1.69388 -1.62311 0
M  V30 4070 C 405.447 1.6648 -0.505993 0
M  V30 4071 O 406.623 1.85964 -0.773262 0
M  V30 4072 C 403.688 3.05894 -1.63185 0
M  V30 4073 C 402.749 3.19885 -2.86307 0
M  V30 4074 C 401.982 4.49879 -2.87131 0
M  V30 4075 O 402.205 5.35217 -1.97229 0
M  V30 4076 O 401.139 4.67618 -3.78968 0
M  V30 4077 H 404.965 1.59706 -2.58317 0
M  V30 4078 H 402.55 0.728989 -1.30407 0
M  V30 4079 H 404.432 3.87133 -1.66451 0
M  V30 4080 H 403.107 3.15964 -0.70345 0
M  V30 4081 H 402.014 2.38052 -2.88587 0
M  V30 4082 H 403.347 3.14718 -3.78435 0
M  V30 4083 N 404.999 1.35443 0.805782 0
M  V30 4084 C 406.276 1.19325 1.54987 0
M  V30 4085 C 406.656 -0.227294 2.09873 0
M  V30 4086 O 406.004 -1.2309 1.92512 0
M  V30 4087 C 406.214 2.26196 2.65775 0
M  V30 4088 C 407.562 2.62043 3.34094 0
M  V30 4089 O 408.586 2.25115 2.76046 0
M  V30 4090 O 407.445 3.25542 4.38958 0
M  V30 4091 H 404.539 0.463623 0.684823 0
M  V30 4092 H 407.085 1.47127 0.845674 0
M  V30 4093 H 405.857 3.21471 2.23096 0
M  V30 4094 H 405.48 1.99667 3.43829 0
M  V30 4095 N 406.477 -1.02803 1.19454 0
M  V30 4096 C 407.888 -1.57667 0.999899 0
M  V30 4097 C 408.239 -1.91041 -0.446956 0
M  V30 4098 O 407.364 -1.70978 -1.32648 0
M  V30 4099 C 407.959 -2.86477 1.80877 0
M  V30 4100 C 406.518 -3.37911 1.65811 0
M  V30 4101 C 405.665 -2.11343 1.79526 0
M  V30 4102 H 408.616 -0.853214 1.33813 0
M  V30 4103 H 408.637 -3.57408 1.30536 0
M  V30 4104 H 408.149 -2.62155 2.86175 0
M  V30 4105 H 406.25 -3.67218 0.63102 0
M  V30 4106 H 406.363 -4.10885 2.46395 0
M  V30 4107 H 404.727 -2.23254 1.22596 0
M  V30 4108 H 405.51 -1.89461 2.86285 0
M  V30 4109 N 407.956 -0.998596 -1.21925 0
M  V30 4110 C 408.866 -0.562736 -2.27751 0
M  V30 4111 C 409.882 0.391203 -1.69545 0
M  V30 4112 O 411.058 0.256625 -1.99758 0
M  V30 4113 C 408.123 0.11012 -3.46525 0
M  V30 4114 C 407.184 -0.887495 -4.20026 0
M  V30 4115 C 406.417 -0.246654 -5.3313 0
M  V30 4116 O 406.64 0.958088 -5.62296 0
M  V30 4117 O 405.574 -0.954374 -5.94286 0
M  V30 4118 H 409.4 -1.44329 -2.67213 0
M  V30 4119 H 406.985 -0.767135 -1.28201 0
M  V30 4120 H 408.867 0.486756 -4.18579 0
M  V30 4121 H 407.542 0.965154 -3.08976 0
M  V30 4122 H 406.449 -1.31517 -3.5022 0
M  V30 4123 H 407.782 -1.71191 -4.6147 0
M  V30 4124 N 409.434 1.37368 -0.772513 0
M  V30 4125 C 410.68 1.99969 -0.337681 0
M  V30 4126 C 411.013 1.61184 1.08321 0
M  V30 4127 O 410.288 0.858395 1.74533 0
M  V30 4128 C 410.571 3.56858 -0.482121 0
M  V30 4129 C 410.424 4.0555 -1.94549 0
M  V30 4130 C 411.743 4.39955 0.113143 0
M  V30 4131 H 408.862 0.726464 -0.124171 0
M  V30 4132 H 411.504 1.63034 -0.975699 0
M  V30 4133 H 409.654 3.88452 0.0610361 0
M  V30 4134 H 411.326 3.84518 -2.54841 0
M  V30 4135 H 409.569 3.57715 -2.45403 0
M  V30 4136 H 410.24 5.14587 -1.9976 0
M  V30 4137 H 412.716 4.14623 -0.35031 0
M  V30 4138 H 411.592 5.48897 -0.0180514 0
M  V30 4139 H 411.853 4.25403 1.20354 0
M  V30 4140 N 410.912 0.523116 1.48665 0
M  V30 4141 C 411.844 -0.280421 2.27478 0
M  V30 4142 C 412.857 -0.910694 1.34945 0
M  V30 4143 O 414.046 -0.790295 1.60052 0
M  V30 4144 C 411.146 -1.41171 3.08097 0
M  V30 4145 C 410.319 -0.884642 4.28361 0
M  V30 4146 C 409.378 -1.89622 4.90846 0
M  V30 4147 O 408.404 -1.4559 5.50265 0
M  V30 4148 N 409.606 -3.22801 4.82472 0
M  V30 4149 H 412.371 0.395481 2.97079 0
M  V30 4150 H 409.932 0.357018 1.57915 0
M  V30 4151 H 411.924 -2.08645 3.4677 0
M  V30 4152 H 410.494 -1.99139 2.40961 0
M  V30 4153 H 409.714 -0.0341177 3.94185 0
M  V30 4154 H 411.002 -0.511268 5.06225 0
M  V30 4155 H 410.4 -3.61246 4.35336 0
M  V30 4156 H 408.957 -3.85927 5.25265 0
M  V30 4157 N 412.39 -1.55475 0.257931 0
M  V30 4158 C 413.637 -1.99207 -0.363728 0
M  V30 4159 C 413.965 -1.1462 -1.57139 0
M  V30 4160 O 413.22 -0.199653 -1.94679 0
M  V30 4161 C 413.519 -3.48183 -0.806433 0
M  V30 4162 C 413.185 -4.49936 0.294684 0
M  V30 4163 C 411.847 -4.77481 0.597076 0
M  V30 4164 C 414.199 -5.10769 1.03751 0
M  V30 4165 C 411.527 -5.63132 1.64618 0
M  V30 4166 C 413.879 -5.97558 2.07622 0
M  V30 4167 C 412.543 -6.23432 2.38514 0
M  V30 4168 H 411.813 -0.728949 -0.133097 0
M  V30 4169 H 414.46 -1.8793 0.368059 0
M  V30 4170 H 412.765 -3.56848 -1.61761 0
M  V30 4171 H 414.462 -3.79415 -1.29789 0
M  V30 4172 H 411.052 -4.28572 0.0488649 0
M  V30 4173 H 415.236 -4.89527 0.817149 0
M  V30 4174 H 410.492 -5.8143 1.89074 0
M  V30 4175 H 414.666 -6.43735 2.65666 0
M  V30 4176 H 412.293 -6.89594 3.19943 0
M  V30 4177 N 413.868 0.0150385 -1.57593 0
M  V30 4178 C 414.816 1.02958 -2.08572 0
M  V30 4179 C 415.81 1.36554 -1.00246 0
M  V30 4180 O 417.016 1.35295 -1.18724 0
M  V30 4181 H 413.391 0.349619 -0.665786 0
M  V30 4182 H 415.362 0.573932 -2.92829 0
M  V30 4183 C 414.111 2.31752 -2.59203 0
M  V30 4184 H 413.434 2.06765 -3.42182 0
M  V30 4185 H 414.874 3.01053 -2.98568 0
M  V30 4186 C 413.333 3.01692 -1.49945 0
M  V30 4187 O 413.863 3.92083 -0.873704 0
M  V30 4188 N 412.069 2.6326 -1.23056 0
M  V30 4189 H 411.616 1.89838 -1.74125 0
M  V30 4190 H 411.574 3.10372 -0.501685 0
M  V30 4191 N 415.346 1.54954 0.287554 0
M  V30 4192 C 416.592 1.76059 1.01856 0
M  V30 4193 C 416.947 0.547056 1.84459 0
M  V30 4194 O 416.24 -0.460442 1.85985 0
M  V30 4195 C 416.434 2.99833 1.94512 0
M  V30 4196 C 416.263 4.33108 1.21026 0
M  V30 4197 C 415.033 4.96632 0.931896 0
M  V30 4198 C 417.231 5.10694 0.607949 0
M  V30 4199 N 415.213 6.13668 0.168716 0
M  V30 4200 C 416.584 6.19996 -0.0217865 0
M  V30 4201 C 418.639 4.95236 0.514338 0
M  V30 4202 C 417.342 7.15524 -0.736092 0
M  V30 4203 C 419.368 5.91106 -0.186343 0
M  V30 4204 C 418.73 6.99786 -0.804875 0
M  V30 4205 H 414.829 0.696679 0.355193 0
M  V30 4206 H 417.413 1.92441 0.295741 0
M  V30 4207 H 415.584 2.84853 2.64033 0
M  V30 4208 H 417.316 3.09405 2.60865 0
M  V30 4209 H 414.071 4.57255 1.23348 0
M  V30 4210 H 414.495 6.76705 -0.199781 0
M  V30 4211 H 419.137 4.11328 0.978234 0
M  V30 4212 H 416.855 7.98964 -1.21172 0
M  V30 4213 H 420.441 5.81224 -0.258897 0
M  V30 4214 H 419.321 7.72694 -1.33843 0
M  V30 4215 N 416.824 -0.551391 1.4764 0
M  V30 4216 C 418.054 -1.33163 1.57959 0
M  V30 4217 C 418.462 -1.87785 0.23094 0
M  V30 4218 O 417.805 -1.65996 -0.786825 0
M  V30 4219 C 417.867 -2.53449 2.54958 0
M  V30 4220 C 417.531 -2.20071 4.00522 0
M  V30 4221 C 418.528 -1.77017 4.88836 0
M  V30 4222 C 416.213 -2.31252 4.45901 0
M  V30 4223 C 418.207 -1.4558 6.20552 0
M  V30 4224 C 415.894 -1.99427 5.77644 0
M  V30 4225 C 416.892 -1.56659 6.64791 0
M  V30 4226 O 416.58 -1.25242 7.94084 0
M  V30 4227 H 416.312 -0.412022 0.535923 0
M  V30 4228 H 418.866 -0.674186 1.9402 0
M  V30 4229 H 417.096 -3.22104 2.13976 0
M  V30 4230 H 418.785 -3.15523 2.55343 0
M  V30 4231 H 419.551 -1.67867 4.55023 0
M  V30 4232 H 415.43 -2.63498 3.78272 0
M  V30 4233 H 418.974 -1.12125 6.8853 0
M  V30 4234 H 414.871 -2.08211 6.10998 0
M  V30 4235 H 415.639 -1.38822 8.06642 0
M  V30 4236 N 418.302 -1.35869 -0.798587 0
M  V30 4237 C 419.548 -1.2978 -1.55836 0
M  V30 4238 C 419.881 0.125322 -1.93795 0
M  V30 4239 O 419.156 1.07658 -1.61987 0
M  V30 4240 C 419.439 -2.21188 -2.84162 0
M  V30 4241 C 419.292 -3.72155 -2.52628 0
M  V30 4242 C 420.611 -2.11545 -3.85923 0
M  V30 4243 H 417.73 -0.472769 -0.565383 0
M  V30 4244 H 420.372 -1.66341 -0.918192 0
M  V30 4245 H 418.522 -1.90139 -3.38791 0
M  V30 4246 H 420.194 -4.13682 -2.04121 0
M  V30 4247 H 418.437 -3.92042 -1.85704 0
M  V30 4248 H 419.108 -4.31511 -3.44242 0
M  V30 4249 H 421.584 -2.38855 -3.40716 0
M  V30 4250 H 420.46 -2.77688 -4.73477 0
M  V30 4251 H 420.721 -1.09987 -4.282 0
M  V30 4252 N 419.78 1.02168 -1.19998 0
M  V30 4253 C 421.057 1.72816 -0.916191 0
M  V30 4254 C 421.437 2.03081 0.576325 0
M  V30 4255 O 420.785 1.69122 1.53656 0
M  V30 4256 C 420.995 2.9997 -1.78378 0
M  V30 4257 C 422.343 3.73336 -2.02251 0
M  V30 4258 O 423.367 3.09914 -1.75589 0
M  V30 4259 O 422.226 4.87371 -2.47249 0
M  V30 4260 H 419.32 0.752924 -0.342103 0
M  V30 4261 H 421.866 1.08062 -1.30846 0
M  V30 4262 H 420.638 2.73888 -2.79466 0
M  V30 4263 H 420.261 3.72464 -1.39126 0
M  V30 4264 N 421.258 1.00505 1.21394 0
M  V30 4265 C 422.506 0.686415 1.90086 0
M  V30 4266 C 422.827 -0.785264 1.7849 0
M  V30 4267 O 422.097 -1.56387 1.17983 0
M  V30 4268 H 420.677 0.2509 0.703604 0
M  V30 4269 H 423.339 1.27417 1.47482 0
M  V30 4270 H 422.435 0.959621 2.96981 0
M  V30 4271 N 422.737 -1.36956 0.779787 0
M  V30 4272 C 423.983 -1.99787 0.348281 0
M  V30 4273 C 424.316 -1.61756 -1.07465 0
M  V30 4274 O 423.591 -0.867639 -1.74075 0
M  V30 4275 C 423.874 -3.56597 0.50104 0
M  V30 4276 C 423.727 -4.04513 1.96697 0
M  V30 4277 C 425.046 -4.40008 -0.0898097 0
M  V30 4278 H 422.165 -0.725796 0.128022 0
M  V30 4279 H 424.807 -1.62514 0.984331 0
M  V30 4280 H 422.957 -3.88479 -0.0404347 0
M  V30 4281 H 424.629 -3.83161 2.56876 0
M  V30 4282 H 422.872 -3.56408 2.47297 0
M  V30 4283 H 423.543 -5.1352 2.02486 0
M  V30 4284 H 426.019 -4.14431 0.372293 0
M  V30 4285 H 424.895 -5.4888 0.0471605 0
M  V30 4286 H 425.156 -4.26035 -1.18096 0
M  V30 4287 N 424.215 -0.530993 -1.48385 0
M  V30 4288 C 425.125 0.23503 -2.3342 0
M  V30 4289 C 426.141 0.93801 -1.46552 0
M  V30 4290 O 427.317 0.912745 -1.7953 0
M  V30 4291 C 424.382 1.26778 -3.22689 0
M  V30 4292 C 423.443 0.575038 -4.25431 0
M  V30 4293 C 422.676 1.55858 -5.10435 0
M  V30 4294 O 422.899 2.79129 -4.97437 0
M  V30 4295 O 421.833 1.09742 -5.91811 0
M  V30 4296 H 425.659 -0.461794 -3.00169 0
M  V30 4297 H 423.244 -0.291903 -1.46521 0
M  V30 4298 H 425.126 1.86457 -3.77904 0
M  V30 4299 H 423.801 1.94699 -2.586 0
M  V30 4300 H 422.708 -0.0622782 -3.74048 0
M  V30 4301 H 424.041 -0.062253 -4.92161 0
M  V30 4302 N 425.693 1.55336 -0.266172 0
M  V30 4303 C 426.939 1.99692 0.353681 0
M  V30 4304 C 427.272 1.1543 1.56172 0
M  V30 4305 O 426.547 0.222218 1.93226 0
M  V30 4306 C 426.83 3.52316 0.74466 0
M  V30 4307 C 426.683 4.47337 -0.470101 0
M  V30 4308 C 428.002 4.10588 1.58447 0
M  V30 4309 H 425.121 0.725961 0.12708 0
M  V30 4310 H 427.763 1.86336 -0.371333 0
M  V30 4311 H 425.913 3.63829 1.36239 0
M  V30 4312 H 427.585 4.4778 -1.10864 0
M  V30 4313 H 425.828 4.19364 -1.10978 0
M  V30 4314 H 426.499 5.51788 -0.15291 0
M  V30 4315 H 428.975 4.02297 1.06286 0
M  V30 4316 H 427.851 5.17607 1.82686 0
M  V30 4317 H 428.112 3.60253 2.56262 0
M  V30 4318 N 427.171 -0.0066808 1.57599 0
M  V30 4319 C 428.121 -1.0086 2.04478 0
M  V30 4320 C 429.105 -1.30714 0.938231 0
M  V30 4321 O 430.297 -1.29924 1.20203 0
M  V30 4322 C 427.426 -2.30273 2.54615 0
M  V30 4323 C 426.512 -2.03413 3.72134 0
M  V30 4324 N 426.903 -1.46688 4.84062 0
M  V30 4325 C 425.201 -2.33589 3.79937 0
M  V30 4326 C 425.902 -1.36146 5.65543 0
M  V30 4327 N 424.878 -1.84477 5.1134 0
M  V30 4328 H 428.68 -0.564402 2.8843 0
M  V30 4329 H 426.194 -0.212521 1.61003 0
M  V30 4330 H 428.191 -3.02885 2.86472 0
M  V30 4331 H 426.851 -2.75352 1.72079 0
M  V30 4332 H 427.862 -1.14658 5.05049 0
M  V30 4333 H 424.539 -2.81589 3.08243 0
M  V30 4334 H 425.929 -0.925873 6.6549 0
M  V30 4335 N 428.649 -1.55105 -0.279332 0
M  V30 4336 C 429.597 -1.88333 -1.36505 0
M  V30 4337 C 430.591 -0.759043 -1.51443 0
M  V30 4338 O 431.797 -0.943312 -1.53302 0
M  V30 4339 H 428.172 -0.59766 -0.456406 0
M  V30 4340 H 430.143 -2.79041 -1.05728 0
M  V30 4341 C 428.892 -2.16628 -2.7197 0
M  V30 4342 H 428.215 -3.02624 -2.61264 0
M  V30 4343 H 429.655 -2.43803 -3.46895 0
M  V30 4344 C 428.114 -0.971807 -3.22579 0
M  V30 4345 O 428.644 -0.203228 -4.01186 0
M  V30 4346 N 426.85 -0.771238 -2.80179 0
M  V30 4347 H 426.397 -1.39792 -2.1637 0
M  V30 4348 H 426.355 0.0263667 -3.14389 0
M  V30 4349 N 430.127 0.543554 -1.4793 0
M  V30 4350 C 431.09 1.63156 -1.60975 0
M  V30 4351 C 432.09 1.53346 -0.483899 0
M  V30 4352 O 433.28 1.5726 -0.749339 0
M  V30 4353 C 430.412 3.02743 -1.56716 0
M  V30 4354 H 431.605 1.52934 -2.57975 0
M  V30 4355 H 429.158 0.764557 -1.36324 0
M  V30 4356 H 429.893 3.18484 -0.611418 0
M  V30 4357 H 429.678 3.11272 -2.38438 0
M  V30 4358 H 431.168 3.81871 -1.6901 0
M  V30 4359 N 431.605 1.3629 0.791371 0
M  V30 4360 C 432.552 1.30458 1.90393 0
M  V30 4361 C 433.522 0.173632 1.6519 0
M  V30 4362 O 434.707 0.35983 1.87376 0
M  V30 4363 C 431.847 1.09777 3.27174 0
M  V30 4364 C 430.96 2.31929 3.64462 0
M  V30 4365 C 430.095 2.04276 4.90352 0
M  V30 4366 C 429.134 3.224 5.20312 0
M  V30 4367 N 428.271 2.94424 6.37385 0
M  V30 4368 H 433.111 2.25589 1.94714 0
M  V30 4369 H 430.648 1.12122 0.952216 0
M  V30 4370 H 432.606 0.958133 4.06049 0
M  V30 4371 H 431.236 0.183014 3.22281 0
M  V30 4372 H 430.288 2.56703 2.80727 0
M  V30 4373 H 431.6 3.20085 3.82553 0
M  V30 4374 H 430.754 1.87231 5.77087 0
M  V30 4375 H 429.493 1.13428 4.74326 0
M  V30 4376 H 428.498 3.40005 4.32061 0
M  V30 4377 H 429.723 4.14071 5.38258 0
M  V30 4378 H 427.669 2.06185 6.22755 0
M  V30 4379 H 427.586 3.76118 6.55798 0
M  V30 4380 H 428.854 2.80953 7.27108 0
M  V30 4381 N 433.083 -1.0153 1.20538 0
M  V30 4382 C 434.311 -1.78746 1.04199 0
M  V30 4383 C 434.726 -1.84323 -0.408733 0
M  V30 4384 O 434.083 -1.29714 -1.28377 0
M  V30 4385 C 434.134 -3.23152 1.62035 0
M  V30 4386 O 433.855 -3.17918 3.0143 0
M  V30 4387 C 435.356 -4.16911 1.50666 0
M  V30 4388 H 432.576 -0.56208 0.366479 0
M  V30 4389 H 435.12 -1.27794 1.59653 0
M  V30 4390 H 433.275 -3.71248 1.10697 0
M  V30 4391 H 433.689 -4.08567 3.28897 0
M  V30 4392 H 435.163 -5.16072 1.95892 0
M  V30 4393 H 435.64 -4.36791 0.459363 0
M  V30 4394 H 436.246 -3.74698 2.01201 0
M  V30 4395 N 434.561 -1.01147 -1.20859 0
M  V30 4396 C 435.508 -0.577354 -2.23462 0
M  V30 4397 C 436.478 0.399922 -1.61214 0
M  V30 4398 O 437.663 0.300515 -1.88419 0
M  V30 4399 C 434.803 0.083372 -3.44999 0
M  V30 4400 C 433.916 -0.937856 -4.21697 0
M  V30 4401 C 433.051 -0.248717 -5.30617 0
M  V30 4402 C 432.09 -1.25705 -5.99053 0
M  V30 4403 N 431.227 -0.594939 -6.99575 0
M  V30 4404 H 436.067 -1.45695 -2.59956 0
M  V30 4405 H 433.604 -0.729428 -1.27741 0
M  V30 4406 H 435.562 0.483535 -4.14388 0
M  V30 4407 H 434.192 0.926645 -3.09214 0
M  V30 4408 H 433.244 -1.45622 -3.51423 0
M  V30 4409 H 434.556 -1.70493 -4.68757 0
M  V30 4410 H 433.71 0.207215 -6.06346 0
M  V30 4411 H 432.449 0.55071 -4.84581 0
M  V30 4412 H 431.454 -1.72343 -5.2209 0
M  V30 4413 H 432.679 -2.05767 -6.47176 0
M  V30 4414 H 430.625 0.184713 -6.5574 0
M  V30 4415 H 430.542 -1.30017 -7.44736 0
M  V30 4416 H 431.81 -0.162427 -7.79331 0
M  V30 4417 N 436.039 1.36541 -0.78704 0
M  V30 4418 C 437.45 1.81873 -0.421807 0
M  V30 4419 C 437.801 1.65487 1.05397 0
M  V30 4420 O 436.926 1.17448 1.81755 0
M  V30 4421 C 437.521 3.30192 -0.758841 0
M  V30 4422 C 436.08 3.73743 -0.446468 0
M  V30 4423 C 435.227 2.58844 -0.994728 0
M  V30 4424 H 438.178 1.24796 -0.98039 0
M  V30 4425 H 438.199 3.80468 -0.0490648 0
M  V30 4426 H 437.711 3.42087 -1.83299 0
M  V30 4427 H 435.812 3.6741 0.619739 0
M  V30 4428 H 435.925 4.69272 -0.965415 0
M  V30 4429 H 434.289 2.51245 -0.418087 0
M  V30 4430 H 435.072 2.73525 -2.07458 0
M  V30 4431 N 437.518 0.538854 1.48102 0
M  V30 4432 C 438.934 0.19732 1.58376 0
M  V30 4433 C 439.134 -1.29971 1.5398 0
M  V30 4434 O 438.19 -2.07861 1.43352 0
M  V30 4435 C 439.503 0.807716 2.89649 0
M  V30 4436 C 441.051 0.77726 3.03196 0
M  V30 4437 C 441.526 1.36639 4.37143 0
M  V30 4438 N 443.017 1.32875 4.43732 0
M  V30 4439 C 443.752 1.7544 5.45901 0
M  V30 4440 N 443.248 2.25776 6.54979 0
M  V30 4441 N 445.041 1.66623 5.36836 0
M  V30 4442 H 437.192 1.5117 1.49202 0
M  V30 4443 H 439.455 0.629327 0.708979 0
M  V30 4444 H 439.161 1.85909 2.98548 0
M  V30 4445 H 439.035 0.289975 3.76084 0
M  V30 4446 H 441.422 -0.265374 2.93904 0
M  V30 4447 H 441.503 1.33256 2.18349 0
M  V30 4448 H 441.147 2.408 4.47189 0
M  V30 4449 H 441.077 0.786689 5.20691 0
M  V30 4450 H 443.568 0.96037 3.65493 0
M  V30 4451 H 443.881 2.56226 7.29087 0
M  V30 4452 H 442.226 2.29775 6.55918 0
M  V30 4453 H 445.417 1.27089 4.50517 0
M  V30 4454 H 445.59 2.00115 6.16326 0
M  V30 4455 N 438.996 -1.55193 0.274407 0
M  V30 4456 C 439.906 -2.26164 -0.623473 0
M  V30 4457 C 440.922 -1.28729 -1.17068 0
M  V30 4458 O 442.098 -1.61663 -1.20112 0
M  V30 4459 C 439.163 -2.96833 -1.7914 0
M  V30 4460 C 438.224 -4.09745 -1.28093 0
M  V30 4461 C 437.457 -4.77034 -2.3932 0
M  V30 4462 O 437.68 -4.4353 -3.5866 0
M  V30 4463 O 436.614 -5.64996 -2.07516 0
M  V30 4464 H 440.44 -3.03661 -0.0485661 0
M  V30 4465 H 438.025 -1.49341 0.0418382 0
M  V30 4466 H 439.907 -3.41248 -2.4724 0
M  V30 4467 H 438.582 -2.22253 -2.35341 0
M  V30 4468 H 437.489 -3.69787 -0.566416 0
M  V30 4469 H 438.822 -4.86224 -0.764683 0
M  V30 4470 N 440.474 -0.00167713 -1.576 0
M  V30 4471 C 441.384 1.00548 -2.1196 0
M  V30 4472 C 442.4 1.3758 -1.06526 0
M  V30 4473 O 443.576 1.46278 -1.38436 0
M  V30 4474 C 440.641 2.27809 -2.6135 0
M  V30 4475 C 439.702 1.97074 -3.81393 0
M  V30 4476 C 438.935 3.18267 -4.28417 0
M  V30 4477 O 439.158 4.30009 -3.74765 0
M  V30 4478 O 438.092 3.02167 -5.20556 0
M  V30 4479 H 441.918 0.573373 -2.98238 0
M  V30 4480 H 439.503 0.217255 -1.47812 0
M  V30 4481 H 441.385 3.02568 -2.93309 0
M  V30 4482 H 440.06 2.70254 -1.78169 0
M  V30 4483 H 438.967 1.19785 -3.54404 0
M  V30 4484 H 440.3 1.59464 -4.65652 0
M  V30 4485 N 441.952 1.55251 0.271103 0
M  V30 4486 C 442.884 1.84675 1.35749 0
M  V30 4487 C 443.897 0.731366 1.45447 0
M  V30 4488 O 445.086 1.00924 1.4723 0
M  V30 4489 C 442.186 1.99638 2.73857 0
M  V30 4490 C 441.359 3.30312 2.86727 0
M  V30 4491 C 440.418 3.35318 4.05522 0
M  V30 4492 O 439.444 4.08682 3.96191 0
M  V30 4493 N 440.646 2.62857 5.17577 0
M  V30 4494 H 443.411 2.78445 1.10853 0
M  V30 4495 H 440.972 1.55191 0.461218 0
M  V30 4496 H 442.964 2.00355 3.51625 0
M  V30 4497 H 441.534 1.12725 2.91568 0
M  V30 4498 H 440.754 3.42118 1.95829 0
M  V30 4499 H 442.042 4.16488 2.92258 0
M  V30 4500 H 441.44 2.02939 5.28046 0
M  V30 4501 H 439.997 2.69295 5.93568 0
M  V30 4502 N 443.43 -0.535701 1.48216 0
M  V30 4503 C 444.677 -1.29183 1.55942 0
M  V30 4504 C 445.005 -1.93125 0.230857 0
M  V30 4505 O 444.26 -1.79556 -0.778331 0
M  V30 4506 C 444.559 -2.4068 2.64212 0
M  V30 4507 C 444.225 -1.94428 4.06827 0
M  V30 4508 C 442.887 -1.81532 4.45645 0
M  V30 4509 C 445.239 -1.59405 4.96225 0
M  V30 4510 C 442.567 -1.31939 5.71672 0
M  V30 4511 C 444.919 -1.11276 6.22736 0
M  V30 4512 C 443.583 -0.969924 6.60416 0
M  V30 4513 H 442.853 -0.472715 0.570632 0
M  V30 4514 H 445.5 -0.598437 1.81909 0
M  V30 4515 H 443.805 -3.15666 2.32083 0
M  V30 4516 H 445.502 -2.98822 2.67407 0
M  V30 4517 H 442.092 -2.05415 3.76168 0
M  V30 4518 H 446.276 -1.68231 4.66917 0
M  V30 4519 H 441.532 -1.19562 5.99596 0
M  V30 4520 H 445.706 -0.832453 6.91407 0
M  V30 4521 H 443.333 -0.583436 7.57958 0
M  V30 4522 N 444.908 -1.36708 -0.784132 0
M  V30 4523 C 445.856 -1.31533 -1.91838 0
M  V30 4524 C 446.85 -0.206205 -1.6814 0
M  V30 4525 O 448.056 -0.373519 -1.76082 0
M  V30 4526 H 444.431 -0.409613 -0.630651 0
M  V30 4527 H 446.402 -2.2731 -1.9332 0
M  V30 4528 C 445.151 -1.12679 -3.28936 0
M  V30 4529 H 444.474 -1.97274 -3.4774 0
M  V30 4530 H 445.914 -1.13106 -4.08636 0
M  V30 4531 C 444.373 0.168281 -3.36479 0
M  V30 4532 O 444.903 1.15625 -3.84699 0
M  V30 4533 N 443.109 0.214762 -2.89805 0
M  V30 4534 H 442.656 -0.589852 -2.50756 0
M  V30 4535 H 442.614 1.08094 -2.95234 0
M  V30 4536 N 446.386 1.0089 -1.21074 0
M  V30 4537 C 447.611 1.78727 -1.05221 0
M  V30 4538 C 448.036 1.83932 0.393795 0
M  V30 4539 O 447.394 1.28004 1.28393 0
M  V30 4540 C 447.442 3.20665 -1.64944 0
M  V30 4541 O 446.546 4.02632 -0.892273 0
M  V30 4542 H 445.887 0.550973 -0.370574 0
M  V30 4543 H 448.417 1.26847 -1.60534 0
M  V30 4544 H 448.427 3.71352 -1.69002 0
M  V30 4545 H 447.102 3.16191 -2.70177 0
M  V30 4546 H 445.679 3.61207 -0.926492 0
M  V30 4547 N 447.864 1.01787 1.20321 0
M  V30 4548 C 449.092 0.727194 1.937 0
M  V30 4549 C 449.507 -0.712305 1.74848 0
M  V30 4550 O 448.864 -1.48327 1.06327 0
M  V30 4551 C 448.915 1.05497 3.45764 0
M  V30 4552 O 448.636 2.43794 3.64 0
M  V30 4553 C 450.137 0.785534 4.36285 0
M  V30 4554 H 447.357 0.266939 0.615617 0
M  V30 4555 H 449.901 1.35939 1.52777 0
M  V30 4556 H 448.056 0.468158 3.84561 0
M  V30 4557 H 448.47 2.55656 4.57974 0
M  V30 4558 H 449.944 1.06495 5.4163 0
M  V30 4559 H 450.421 -0.280273 4.38305 0
M  V30 4560 H 451.027 1.35456 4.03152 0
M  V30 4561 N 449.342 -1.36122 0.79427 0
M  V30 4562 C 450.572 -2.03067 0.380437 0
M  V30 4563 C 450.98 -1.60018 -1.00949 0
M  V30 4564 O 450.323 -0.787425 -1.65968 0
M  V30 4565 C 450.385 -3.57587 0.37034 0
M  V30 4566 C 450.049 -4.23855 1.70867 0
M  V30 4567 C 451.046 -4.46404 2.66496 0
M  V30 4568 C 448.731 -4.61229 1.9893 0
M  V30 4569 C 450.725 -5.05412 3.88378 0
M  V30 4570 C 448.412 -5.19953 3.21079 0
M  V30 4571 C 449.41 -5.41985 4.15621 0
M  V30 4572 O 449.098 -5.99475 5.35616 0
M  V30 4573 H 448.83 -0.658168 0.154243 0
M  V30 4574 H 451.384 -1.7498 1.0757 0
M  V30 4575 H 449.614 -3.84814 -0.381444 0
M  V30 4576 H 451.303 -4.05895 -0.0194894 0
M  V30 4577 H 452.069 -4.17921 2.46103 0
M  V30 4578 H 447.948 -4.43402 1.26158 0
M  V30 4579 H 451.492 -5.22524 4.62185 0
M  V30 4580 H 447.389 -5.47862 3.41347 0
M  V30 4581 H 448.157 -6.17937 5.36745 0
M  V30 4582 N 450.82 -0.546701 -1.47814 0
M  V30 4583 C 452.236 -0.205717 -1.58269 0
M  V30 4584 C 452.436 1.29153 -1.54667 0
M  V30 4585 O 451.492 2.07098 -1.44453 0
M  V30 4586 C 452.805 -0.823065 -2.89216 0
M  V30 4587 C 454.353 -0.793328 -3.02779 0
M  V30 4588 C 454.828 -1.38955 -4.36412 0
M  V30 4589 N 456.319 -1.35227 -4.43021 0
M  V30 4590 C 457.054 -1.78333 -5.44963 0
M  V30 4591 N 456.55 -2.29246 -6.53772 0
M  V30 4592 N 458.343 -1.69467 -5.35945 0
M  V30 4593 H 450.494 -1.5196 -1.48398 0
M  V30 4594 H 452.757 -0.633078 -0.705632 0
M  V30 4595 H 452.463 -1.8749 -2.97558 0
M  V30 4596 H 452.337 -0.309915 -3.75925 0
M  V30 4597 H 454.724 0.249784 -2.94041 0
M  V30 4598 H 454.805 -1.34412 -2.17639 0
M  V30 4599 H 454.449 -2.43168 -4.45906 0
M  V30 4600 H 454.379 -0.814291 -5.20266 0
M  V30 4601 H 456.87 -0.979739 -3.64979 0
M  V30 4602 H 457.183 -2.60089 -7.27718 0
M  V30 4603 H 455.528 -2.3325 -6.5469 0
M  V30 4604 H 458.719 -1.29477 -4.49837 0
M  V30 4605 H 458.892 -2.03381 -6.15256 0
M  V30 4606 N 452.299 1.55045 -0.282633 0
M  V30 4607 C 453.545 2.00056 0.332481 0
M  V30 4608 C 453.878 1.1708 1.54939 0
M  V30 4609 O 453.153 0.2427 1.9298 0
M  V30 4610 C 453.436 3.53086 0.70725 0
M  V30 4611 C 453.289 4.46813 -0.517521 0
M  V30 4612 C 454.608 4.12245 1.54084 0
M  V30 4613 H 451.727 0.727268 0.119373 0
M  V30 4614 H 454.369 1.85932 -0.391076 0
M  V30 4615 H 452.519 3.65253 1.32372 0
M  V30 4616 H 454.191 4.46579 -1.15607 0
M  V30 4617 H 452.434 4.18163 -1.1542 0
M  V30 4618 H 453.105 5.51595 -0.211426 0
M  V30 4619 H 455.581 4.03401 1.02013 0
M  V30 4620 H 454.457 5.19515 1.77186 0
M  V30 4621 H 454.718 3.62951 2.52427 0
M  V30 4622 N 453.777 0.010035 1.57597 0
M  V30 4623 C 455.023 -0.673697 1.91283 0
M  V30 4624 C 455.356 -1.72863 0.884979 0
M  V30 4625 O 454.631 -1.94268 -0.0949487 0
M  V30 4626 C 454.914 -1.30766 3.35518 0
M  V30 4627 C 454.767 -0.263578 4.49027 0
M  V30 4628 C 456.086 -2.23105 3.79358 0
M  V30 4629 H 453.205 -0.243439 0.695634 0
M  V30 4630 H 455.847 0.0633864 1.89894 0
M  V30 4631 H 453.997 -1.93588 3.36832 0
M  V30 4632 H 455.669 0.365738 4.59848 0
M  V30 4633 H 453.912 0.413077 4.31829 0
M  V30 4634 H 454.583 -0.746398 5.4693 0
M  V30 4635 H 457.059 -1.70289 3.79659 0
M  V30 4636 H 455.935 -2.64424 4.81011 0
M  V30 4637 H 456.196 -3.11433 3.13787 0
M  V30 4638 N 455.255 -1.55392 -0.262866 0
M  V30 4639 C 456.48 -1.80847 -1.01533 0
M  V30 4640 C 456.905 -0.584946 -1.78774 0
M  V30 4641 O 456.263 0.465701 -1.75217 0
M  V30 4642 C 456.311 -3.03866 -1.94159 0
M  V30 4643 O 455.415 -2.79662 -3.03089 0
M  V30 4644 H 454.756 -0.597441 -0.289759 0
M  V30 4645 H 457.286 -2.02553 -0.288698 0
M  V30 4646 H 457.296 -3.32872 -2.35924 0
M  V30 4647 H 455.971 -3.92564 -1.37354 0
M  V30 4648 H 454.548 -2.61781 -2.65566 0
M  V30 4649 N 456.733 0.527833 -1.48498 0
M  V30 4650 C 457.979 1.28545 -1.56857 0
M  V30 4651 C 458.312 1.92678 -0.242651 0
M  V30 4652 O 457.587 1.79394 0.751545 0
M  V30 4653 C 457.87 2.37314 -2.70839 0
M  V30 4654 C 457.723 1.77858 -4.13142 0
M  V30 4655 C 459.042 3.39068 -2.80573 0
M  V30 4656 H 456.161 0.466006 -0.570971 0
M  V30 4657 H 458.803 0.587784 -1.8068 0
M  V30 4658 H 456.953 2.96821 -2.50658 0
M  V30 4659 H 458.625 1.22385 -4.44769 0
M  V30 4660 H 456.868 1.08383 -4.20042 0
M  V30 4661 H 457.539 2.56624 -4.88721 0
M  V30 4662 H 460.015 2.89518 -2.98862 0
M  V30 4663 H 458.891 4.12566 -3.6205 0
M  V30 4664 H 459.152 3.9975 -1.88818 0
M  V30 4665 N 458.211 1.37122 0.776871 0
M  V30 4666 C 459.141 1.35164 1.90402 0
M  V30 4667 C 460.122 0.221069 1.68657 0
M  V30 4668 O 461.307 0.420642 1.8959 0
M  V30 4669 C 458.437 1.15274 3.27611 0
M  V30 4670 C 457.391 2.25289 3.63908 0
M  V30 4671 C 456.717 1.90527 4.99603 0
M  V30 4672 C 458.017 3.67446 3.71188 0
M  V30 4673 H 459.711 2.29482 1.92297 0
M  V30 4674 H 457.257 1.10465 0.923773 0
M  V30 4675 H 459.21 1.12536 4.06096 0
M  V30 4676 H 457.934 0.174102 3.26136 0
M  V30 4677 H 456.593 2.27174 2.87728 0
M  V30 4678 H 456.241 0.91206 4.94662 0
M  V30 4679 H 455.941 2.64193 5.24858 0
M  V30 4680 H 457.465 1.89367 5.80493 0
M  V30 4681 H 458.879 3.67719 4.39836 0
M  V30 4682 H 457.276 4.40123 4.07936 0
M  V30 4683 H 458.346 4.01443 2.71977 0
M  V30 4684 N 459.689 -1.00246 1.21608 0
M  V30 4685 C 460.917 -1.77631 1.06089 0
M  V30 4686 C 461.332 -1.84746 -0.38916 0
M  V30 4687 O 460.689 -1.31068 -1.26994 0
M  V30 4688 C 460.74 -3.21415 1.65453 0
M  V30 4689 O 460.461 -3.14703 3.04785 0
M  V30 4690 C 461.962 -4.15289 1.55079 0
M  V30 4691 H 459.182 -0.558162 0.37242 0
M  V30 4692 H 461.726 -1.26093 1.60999 0
M  V30 4693 H 459.881 -3.70053 1.14629 0
M  V30 4694 H 460.295 -4.05056 3.33212 0
M  V30 4695 H 461.769 -5.13965 2.01355 0
M  V30 4696 H 462.246 -4.36279 0.505665 0
M  V30 4697 H 462.852 -3.72543 2.05163 0
M  V30 4698 N 461.167 -1.02423 -1.1978 0
M  V30 4699 C 462.413 -0.719051 -1.89625 0
M  V30 4700 C 462.746 0.750083 -1.7913 0
M  V30 4701 O 462.021 1.54574 -1.18056 0
M  V30 4702 C 462.304 -1.16499 -3.40735 0
M  V30 4703 C 462.157 -2.695 -3.60125 0
M  V30 4704 C 463.476 -0.742166 -4.33797 0
M  V30 4705 H 460.595 -0.26269 -0.688595 0
M  V30 4706 H 463.237 -1.27333 -1.41018 0
M  V30 4707 H 461.387 -0.69341 -3.82262 0
M  V30 4708 H 463.059 -3.24569 -3.278 0
M  V30 4709 H 461.302 -3.10113 -3.03336 0
M  V30 4710 H 461.973 -2.95757 -4.66081 0
M  V30 4711 H 464.449 -1.1477 -3.99959 0
M  V30 4712 H 463.325 -1.08213 -5.38127 0
M  V30 4713 H 463.586 0.355747 -4.40666 0
M  V30 4714 N 462.645 1.35699 -0.801477 0
M  V30 4715 C 463.575 2.32436 -0.222658 0
M  V30 4716 C 464.556 1.5723 0.649057 0
M  V30 4717 O 465.741 1.85324 0.580387 0
M  V30 4718 C 462.871 3.41469 0.633719 0
M  V30 4719 C 461.825 4.27774 -0.139083 0
M  V30 4720 C 461.151 5.28082 0.838666 0
M  V30 4721 C 462.451 5.04946 -1.33517 0
M  V30 4722 H 464.145 2.81094 -1.03086 0
M  V30 4723 H 461.691 1.35146 -0.497155 0
M  V30 4724 H 463.644 4.08143 1.04868 0
M  V30 4725 H 462.368 2.91408 1.47475 0
M  V30 4726 H 461.027 3.62673 -0.535156 0
M  V30 4727 H 460.675 4.7429 1.67506 0
M  V30 4728 H 460.375 5.86695 0.32594 0
M  V30 4729 H 461.899 5.97628 1.25194 0
M  V30 4730 H 463.313 5.64593 -0.995349 0
M  V30 4731 H 461.71 5.7303 -1.78202 0
M  V30 4732 H 462.78 4.35886 -2.12442 0
M  V30 4733 N 464.123 0.554532 1.47522 0
M  V30 4734 C 465.073 -0.215008 2.26984 0
M  V30 4735 C 466.057 -0.88774 1.34194 0
M  V30 4736 O 467.249 -0.786489 1.58567 0
M  V30 4737 C 464.378 -1.24604 3.19889 0
M  V30 4738 C 463.464 -0.576857 4.20159 0
M  V30 4739 N 463.855 0.351541 5.04577 0
M  V30 4740 C 462.153 -0.831104 4.38188 0
M  V30 4741 C 462.854 0.739995 5.76974 0
M  V30 4742 N 461.83 0.0954407 5.43516 0
M  V30 4743 H 465.632 0.498843 2.89636 0
M  V30 4744 H 463.146 0.374279 1.58028 0
M  V30 4745 H 465.143 -1.81128 3.75498 0
M  V30 4746 H 463.803 -1.96101 2.58794 0
M  V30 4747 H 464.814 0.725556 5.12792 0
M  V30 4748 H 461.491 -1.53479 3.88266 0
M  V30 4749 H 462.881 1.50271 6.5488 0
M  V30 4750 N 465.601 -1.54893 0.290851 0
M  V30 4751 C 466.533 -2.20564 -0.623236 0
M  V30 4752 C 467.546 -1.19519 -1.1054 0
M  V30 4753 O 468.735 -1.46165 -1.02459 0
M  V30 4754 C 465.835 -2.83033 -1.86401 0
M  V30 4755 C 465.008 -4.09916 -1.52604 0
M  V30 4756 C 464.067 -4.56284 -2.62091 0
M  V30 4757 O 463.093 -5.2171 -2.27612 0
M  V30 4758 N 464.295 -4.27746 -3.92446 0
M  V30 4759 H 467.06 -2.99638 -0.0610915 0
M  V30 4760 H 464.621 -1.61508 0.112615 0
M  V30 4761 H 466.613 -3.1099 -2.58973 0
M  V30 4762 H 465.183 -2.0786 -2.33481 0
M  V30 4763 H 464.403 -3.89078 -0.633424 0
M  V30 4764 H 465.691 -4.92554 -1.27547 0
M  V30 4765 H 465.089 -3.7531 -4.23272 0
M  V30 4766 H 463.646 -4.60437 -4.61347 0
M  V30 4767 N 467.08 -0.0183926 -1.57589 0
M  V30 4768 C 468.357 0.700621 -1.82622 0
M  V30 4769 C 468.737 1.90951 -0.90005 0
M  V30 4770 O 468.085 2.28452 0.0469145 0
M  V30 4771 C 468.295 1.08899 -3.31575 0
M  V30 4772 C 469.643 1.48514 -3.9778 0
M  V30 4773 O 470.667 1.18227 -3.36007 0
M  V30 4774 O 469.526 2.04903 -5.06633 0
M  V30 4775 H 466.62 0.342743 -0.752633 0
M  V30 4776 H 469.166 -0.0452548 -1.6964 0
M  V30 4777 H 467.938 0.228113 -3.90635 0
M  V30 4778 H 467.561 1.89338 -3.49624 0
M  V30 4779 N 468.558 1.5553 0.254621 0
M  V30 4780 C 469.804 1.7818 0.980989 0
M  V30 4781 C 470.159 0.586059 1.83257 0
M  V30 4782 O 469.452 -0.420889 1.8692 0
M  V30 4783 C 469.646 3.03891 1.88109 0
M  V30 4784 C 469.475 4.35578 1.11812 0
M  V30 4785 C 468.245 4.98497 0.826343 0
M  V30 4786 C 470.443 5.11869 0.499486 0
M  V30 4787 N 468.425 6.13888 0.0385095 0
M  V30 4788 C 469.796 6.1981 -0.153292 0
M  V30 4789 C 471.851 4.96216 0.409175 0
M  V30 4790 C 470.554 7.13801 -0.8877 0
M  V30 4791 C 472.58 5.90578 -0.311683 0
M  V30 4792 C 471.942 6.97922 -0.953129 0
M  V30 4793 H 468.041 0.704057 0.340335 0
M  V30 4794 H 470.625 1.93025 0.254855 0
M  V30 4795 H 468.796 2.90389 2.57932 0
M  V30 4796 H 470.528 3.14869 2.54244 0
M  V30 4797 H 467.283 4.59769 1.13621 0
M  V30 4798 H 467.707 6.76129 -0.343275 0
M  V30 4799 H 472.349 4.1331 0.890765 0
M  V30 4800 H 470.067 7.96214 -1.38092 0
M  V30 4801 H 473.653 5.80544 -0.382125 0
M  V30 4802 H 472.533 7.69681 -1.50203 0
M  V30 4803 N 470.036 -0.519951 1.48776 0
M  V30 4804 C 470.966 -1.63253 1.66945 0
M  V30 4805 C 471.947 -1.62014 0.518224 0
M  V30 4806 O 473.132 -1.79053 0.751919 0
M  V30 4807 C 470.262 -3.0181 1.71836 0
M  V30 4808 C 469.216 -3.17911 2.8656 0
M  V30 4809 C 468.542 -4.5763 2.76548 0
M  V30 4810 C 469.842 -2.99729 4.27738 0
M  V30 4811 H 471.536 -1.48302 2.6009 0
M  V30 4812 H 469.082 -0.712026 1.25165 0
M  V30 4813 H 471.035 -3.79525 1.83135 0
M  V30 4814 H 469.759 -3.17806 0.752775 0
M  V30 4815 H 468.418 -2.42616 2.74833 0
M  V30 4816 H 468.066 -4.70476 1.77937 0
M  V30 4817 H 467.766 -4.69346 3.53536 0
M  V30 4818 H 469.29 -5.37431 2.89828 0
M  V30 4819 H 470.704 -3.67228 4.40246 0
M  V30 4820 H 469.101 -3.22932 5.05801 0
M  V30 4821 H 470.171 -1.96047 4.43502 0
M  V30 4822 N 471.514 -1.37532 -0.769588 0
M  V30 4823 C 472.462 -1.33561 -1.90432 0
M  V30 4824 C 473.456 -0.224027 -1.67912 0
M  V30 4825 O 474.662 -0.392174 -1.75676 0
M  V30 4826 H 471.037 -0.416279 -0.626271 0
M  V30 4827 H 473.008 -2.29348 -1.90899 0
M  V30 4828 C 471.757 -1.16162 -3.27722 0
M  V30 4829 H 471.08 -2.00951 -3.45628 0
M  V30 4830 H 472.52 -1.17434 -4.07413 0
M  V30 4831 C 470.979 0.132583 -3.36639 0
M  V30 4832 O 471.509 1.11539 -3.85904 0
M  V30 4833 N 469.715 0.184013 -2.90017 0
M  V30 4834 H 469.262 -0.616415 -2.50116 0
M  V30 4835 H 469.22 1.04956 -2.96364 0
M  V30 4836 N 472.992 0.995999 -1.22138 0
M  V30 4837 C 474.24 1.73167 -1.042 0
M  V30 4838 C 474.561 1.90329 0.42423 0
M  V30 4839 O 473.831 1.4607 1.30539 0
M  V30 4840 H 472.411 0.641593 -0.38258 0
M  V30 4841 H 475.073 1.19974 -1.53598 0
M  V30 4842 H 474.169 2.72734 -1.51731 0
M  V30 4843 N 474.47 1.03057 1.19235 0
M  V30 4844 C 475.417 0.612832 2.22515 0
M  V30 4845 C 476.387 -0.374224 1.61829 0
M  V30 4846 O 477.572 -0.270501 1.88873 0
M  V30 4847 C 474.712 -0.028475 3.45088 0
M  V30 4848 C 473.825 1.00483 4.20151 0
M  V30 4849 C 472.96 0.333102 5.30155 0
M  V30 4850 C 471.999 1.3522 5.96977 0
M  V30 4851 N 471.136 0.70616 6.9854 0
M  V30 4852 H 475.976 1.49812 2.57605 0
M  V30 4853 H 473.513 0.749658 1.26564 0
M  V30 4854 H 475.471 -0.417548 4.15105 0
M  V30 4855 H 474.101 -0.877334 3.10649 0
M  V30 4856 H 473.153 1.51194 3.49062 0
M  V30 4857 H 474.465 1.77929 4.65986 0
M  V30 4858 H 473.619 -0.110725 6.06599 0
M  V30 4859 H 472.358 -0.473547 4.85396 0
M  V30 4860 H 471.363 1.80627 5.19282 0
M  V30 4861 H 472.588 2.16037 6.4382 0
M  V30 4862 H 470.534 -0.0803667 6.55951 0
M  V30 4863 H 470.451 1.41848 7.42573 0
M  V30 4864 H 471.719 0.286391 7.78974 0
M  V30 4865 N 475.948 -1.35272 0.808662 0
M  V30 4866 C 476.858 -2.33546 0.222079 0
M  V30 4867 C 477.874 -1.6196 -0.636011 0
M  V30 4868 O 479.05 -1.93822 -0.547274 0
M  V30 4869 C 476.115 -3.41148 -0.61795 0
M  V30 4870 C 475.176 -4.28507 0.260875 0
M  V30 4871 C 474.409 -5.3097 -0.539156 0
M  V30 4872 O 474.632 -5.42123 -1.77367 0
M  V30 4873 O 473.566 -6.01858 0.0710526 0
M  V30 4874 H 477.392 -2.85515 1.03512 0
M  V30 4875 H 474.977 -1.38079 0.570495 0
M  V30 4876 H 476.859 -4.06889 -1.09634 0
M  V30 4877 H 475.534 -2.91447 -1.40855 0
M  V30 4878 H 474.441 -3.6574 0.786451 0
M  V30 4879 H 475.774 -4.81611 1.01547 0
M  V30 4880 N 477.426 -0.562348 -1.47226 0
M  V30 4881 C 478.656 -0.0451619 -2.06551 0
M  V30 4882 C 479.064 1.25626 -1.41473 0
M  V30 4883 O 478.407 1.76563 -0.507061 0
M  V30 4884 C 478.469 0.216068 -3.5885 0
M  V30 4885 C 478.133 -0.996691 -4.45999 0
M  V30 4886 C 479.13 -1.90358 -4.83797 0
M  V30 4887 C 476.815 -1.21281 -4.87438 0
M  V30 4888 C 478.809 -3.01023 -5.6184 0
M  V30 4889 C 476.496 -2.32255 -5.65244 0
M  V30 4890 C 477.494 -3.21956 -6.02356 0
M  V30 4891 O 477.182 -4.31005 -6.78594 0
M  V30 4892 H 476.914 -0.0451646 -0.67449 0
M  V30 4893 H 479.468 -0.776842 -1.90143 0
M  V30 4894 H 477.698 1.00212 -3.7349 0
M  V30 4895 H 479.387 0.679264 -4.00176 0
M  V30 4896 H 480.153 -1.74868 -4.52378 0
M  V30 4897 H 476.032 -0.523767 -4.58015 0
M  V30 4898 H 479.576 -3.71064 -5.90726 0
M  V30 4899 H 475.473 -2.47715 -5.96077 0
M  V30 4900 H 476.241 -4.29118 -6.96994 0
M  V30 4901 N 478.904 1.54736 -0.299062 0
M  V30 4902 C 479.851 2.23448 0.577899 0
M  V30 4903 C 480.821 1.21637 1.13109 0
M  V30 4904 O 482.006 1.50252 1.17597 0
M  V30 4905 C 479.146 2.9774 1.74484 0
M  V30 4906 C 478.259 4.1432 1.22323 0
M  V30 4907 C 477.394 4.76199 2.35388 0
M  V30 4908 C 476.433 5.84927 1.80351 0
M  V30 4909 N 475.57 6.4077 2.86982 0
M  V30 4910 H 480.41 2.97996 -0.0146545 0
M  V30 4911 H 477.947 1.47088 -0.0190013 0
M  V30 4912 H 479.905 3.39045 2.43114 0
M  V30 4913 H 478.535 2.25572 2.30905 0
M  V30 4914 H 477.587 3.7797 0.429249 0
M  V30 4915 H 478.899 4.92659 0.780309 0
M  V30 4916 H 478.053 5.20346 3.11969 0
M  V30 4917 H 476.792 3.97188 2.83006 0
M  V30 4918 H 475.797 5.40207 1.02259 0
M  V30 4919 H 477.022 6.65821 1.3364 0
M  V30 4920 H 474.968 5.64643 3.33938 0
M  V30 4921 H 474.885 7.1445 2.4718 0
M  V30 4922 H 476.153 6.89574 3.63466 0
M  V30 4923 N 480.382 0.0267497 1.57577 0
M  V30 4924 C 481.622 -0.65659 1.93567 0
M  V30 4925 C 481.986 -1.69429 0.903213 0
M  V30 4926 O 483.187 -2.42994 1.14923 0
M  V30 4927 C 481.458 -1.25912 3.34486 0
M  V30 4928 S 483.017 -1.96386 3.924 0
M  V30 4929 H 479.835 -0.216237 0.67732 0
M  V30 4930 H 482.437 0.0898475 1.95293 0
M  V30 4931 H 481.141 -0.491405 4.07447 0
M  V30 4932 H 480.672 -2.04291 3.36198 0
M  V30 4933 H 482.687 -3.24202 3.75643 0
M  V30 4934 N 481.861 -1.55662 -0.24637 0
M  V30 4935 C 482.808 -1.90361 -1.30504 0
M  V30 4936 C 483.778 -0.757905 -1.47801 0
M  V30 4937 O 484.963 -1.01161 -1.61775 0
M  V30 4938 C 482.103 -2.2042 -2.65535 0
M  V30 4939 C 481.216 -3.47799 -2.56242 0
M  V30 4940 C 480.351 -3.67426 -3.8363 0
M  V30 4941 C 479.39 -4.88403 -3.68956 0
M  V30 4942 N 478.527 -5.04548 -4.88237 0
M  V30 4943 H 483.367 -2.80645 -1.00213 0
M  V30 4944 H 480.904 -1.38924 -0.483577 0
M  V30 4945 H 482.862 -2.35853 -3.44135 0
M  V30 4946 H 481.492 -1.3334 -2.93973 0
M  V30 4947 H 480.544 -3.40694 -1.69208 0
M  V30 4948 H 481.856 -4.36544 -2.4131 0
M  V30 4949 H 481.01 -3.82821 -4.70673 0
M  V30 4950 H 479.749 -2.76914 -4.01459 0
M  V30 4951 H 478.754 -4.72984 -2.80296 0
M  V30 4952 H 479.979 -5.80375 -3.52621 0
M  V30 4953 H 477.925 -4.16974 -5.06427 0
M  V30 4954 H 477.842 -5.87384 -4.75937 0
M  V30 4955 H 479.11 -5.24355 -5.76777 0
M  V30 4956 N 483.339 0.512053 -1.4905 0
M  V30 4957 C 484.585 1.26874 -1.58212 0
M  V30 4958 C 484.918 1.9241 -0.263073 0
M  V30 4959 O 484.193 1.80181 0.732476 0
M  V30 4960 C 484.476 2.34428 -2.73341 0
M  V30 4961 C 484.329 1.73466 -4.15006 0
M  V30 4962 C 485.648 3.36073 -2.84154 0
M  V30 4963 H 482.767 0.459924 -0.575881 0
M  V30 4964 H 485.409 0.568587 -1.81293 0
M  V30 4965 H 483.559 2.94146 -2.53792 0
M  V30 4966 H 485.231 1.17661 -4.46042 0
M  V30 4967 H 483.474 1.03921 -4.21168 0
M  V30 4968 H 484.145 2.51426 -4.91415 0
M  V30 4969 H 486.621 2.86332 -3.01916 0
M  V30 4970 H 485.497 4.08703 -3.66406 0
M  V30 4971 H 485.758 3.97725 -1.93048 0
M  V30 4972 N 484.817 1.37938 0.762283 0
M  V30 4973 C 486.042 1.37059 1.55659 0
M  V30 4974 C 486.467 -0.0396123 1.88058 0
M  V30 4975 O 485.825 -1.01929 1.49934 0
M  V30 4976 C 485.873 2.22494 2.83776 0
M  V30 4977 O 484.977 1.63607 3.78559 0
M  V30 4978 H 484.318 0.467892 0.47114 0
M  V30 4979 H 486.848 1.81587 0.942725 0
M  V30 4980 H 486.858 2.36045 3.32786 0
M  V30 4981 H 485.533 3.24993 2.59524 0
M  V30 4982 H 484.11 1.5915 3.37233 0
M  V30 4983 N 486.295 -0.989507 1.22664 0
M  V30 4984 C 487.243 -2.10148 0.997035 0
M  V30 4985 C 488.237 -1.6929 -0.0609783 0
M  V30 4986 O 489.443 -1.79766 0.0917523 0
M  V30 4987 H 485.818 -0.687256 0.305259 0
M  V30 4988 H 487.789 -2.26685 1.94053 0
M  V30 4989 C 486.538 -3.4257 0.595085 0
M  V30 4990 H 485.861 -3.74453 1.40089 0
M  V30 4991 H 487.301 -4.21344 0.473869 0
M  V30 4992 C 485.76 -3.29638 -0.695725 0
M  V30 4993 O 486.29 -3.61709 -1.74727 0
M  V30 4994 N 484.496 -2.82814 -0.668173 0
M  V30 4995 H 484.043 -2.56914 0.18787 0
M  V30 4996 H 484.001 -2.74544 -1.5321 0
M  V30 4997 N 487.773 -1.03688 -1.18687 0
M  V30 4998 C 488.72 -0.624624 -2.22187 0
M  V30 4999 C 489.69 0.365636 -1.62026 0
M  V30 5000 O 490.875 0.260481 -1.89014 0
M  V30 5001 C 488.015 0.0101738 -3.45099 0
M  V30 5002 C 487.128 -1.02709 -4.19613 0
M  V30 5003 C 486.263 -0.361213 -5.2997 0
M  V30 5004 C 485.302 -1.38384 -5.96252 0
M  V30 5005 N 484.439 -0.743196 -6.98155 0
M  V30 5006 H 489.279 -1.51176 -2.56807 0
M  V30 5007 H 486.816 -0.75636 -1.26165 0
M  V30 5008 H 488.774 0.395528 -4.15321 0
M  V30 5009 H 487.404 0.860848 -3.1111 0
M  V30 5010 H 486.456 -1.53043 -3.48256 0
M  V30 5011 H 487.768 -1.80398 -4.65036 0
M  V30 5012 H 486.922 0.0785537 -6.06649 0
M  V30 5013 H 485.661 0.447799 -4.8564 0
M  V30 5014 H 484.666 -1.83378 -5.18317 0
M  V30 5015 H 485.891 -2.19448 -6.42666 0
M  V30 5016 H 483.837 0.0455789 -6.55984 0
M  V30 5017 H 483.754 -1.45784 -7.41811 0
M  V30 5018 H 485.022 -0.327698 -7.78811 0
M  V30 5019 N 489.251 1.34841 -0.815825 0
M  V30 5020 C 490.499 1.98107 -0.399744 0
M  V30 5021 C 490.82 1.65019 1.03894 0
M  V30 5022 O 490.09 0.937311 1.72021 0
M  V30 5023 H 488.67 0.732827 -0.144823 0
M  V30 5024 H 491.332 1.64599 -1.0437 0
M  V30 5025 H 490.428 3.07856 -0.512965 0
M  V30 5026 N 490.729 0.570148 1.46925 0
M  V30 5027 C 491.659 -0.158274 2.32963 0
M  V30 5028 C 492.64 -0.896093 1.44583 0
M  V30 5029 O 493.825 -0.874022 1.7342 0
M  V30 5030 C 490.955 -1.18055 3.26619 0
M  V30 5031 C 489.909 -0.558379 4.24342 0
M  V30 5032 C 489.235 -1.68623 5.07415 0
M  V30 5033 C 490.535 0.496295 5.19937 0
M  V30 5034 H 492.229 0.560046 2.94115 0
M  V30 5035 H 489.775 0.270775 1.41431 0
M  V30 5036 H 491.728 -1.69841 3.85658 0
M  V30 5037 H 490.452 -1.92899 2.63548 0
M  V30 5038 H 489.111 -0.0617157 3.66548 0
M  V30 5039 H 488.759 -2.42402 4.40738 0
M  V30 5040 H 488.459 -1.27564 5.73586 0
M  V30 5041 H 489.983 -2.20709 5.69315 0
M  V30 5042 H 491.397 0.0640052 5.73264 0
M  V30 5043 H 489.794 0.82649 5.94381 0
M  V30 5044 H 490.864 1.38735 4.6463 0
M  V30 5045 N 492.207 -1.54576 0.307264 0
M  V30 5046 C 493.618 -1.8579 -0.184121 0
M  V30 5047 C 493.969 -1.22914 -1.52927 0
M  V30 5048 O 493.094 -0.529126 -2.09831 0
M  V30 5049 C 493.689 -3.37081 -0.340862 0
M  V30 5050 C 492.248 -3.68304 -0.776465 0
M  V30 5051 C 491.395 -2.77076 0.111503 0
M  V30 5052 H 494.346 -1.49656 0.528078 0
M  V30 5053 H 494.367 -3.61922 -1.17443 0
M  V30 5054 H 493.879 -3.82815 0.638309 0
M  V30 5055 H 491.98 -3.28092 -1.76596 0
M  V30 5056 H 492.093 -4.75434 -0.591512 0
M  V30 5057 H 490.457 -2.51374 -0.410256 0
M  V30 5058 H 491.24 -3.25632 1.08714 0
M  V30 5059 N 493.685 -0.035106 -1.57561 0
M  V30 5060 C 494.91 0.655802 -1.96759 0
M  V30 5061 C 495.335 1.64523 -0.911809 0
M  V30 5062 O 494.693 1.80857 0.126673 0
M  V30 5063 C 494.741 1.33326 -3.35047 0
M  V30 5064 O 493.845 2.44866 -3.31835 0
M  V30 5065 H 493.186 0.171807 -0.641388 0
M  V30 5066 H 495.716 -0.0987369 -2.04362 0
M  V30 5067 H 495.726 1.68867 -3.71413 0
M  V30 5068 H 494.401 0.608033 -4.11431 0
M  V30 5069 H 492.978 2.11392 -3.07193 0
M  V30 5070 N 495.163 1.55791 0.238111 0
M  V30 5071 C 496.388 1.8244 0.986432 0
M  V30 5072 C 496.813 0.613314 1.7782 0
M  V30 5073 O 496.171 -0.437767 1.75935 0
M  V30 5074 C 496.219 3.06917 1.893 0
M  V30 5075 O 495.323 2.84449 2.98601 0
M  V30 5076 H 494.664 0.601975 0.280218 0
M  V30 5077 H 497.194 2.02987 0.256437 0
M  V30 5078 H 497.204 3.36583 2.30598 0
M  V30 5079 H 495.879 3.947 1.31091 0
M  V30 5080 H 494.456 2.65972 2.61368 0
M  V30 5081 N 496.642 -0.504142 1.49319 0
M  V30 5082 C 497.891 -1.25507 1.57895 0
M  V30 5083 C 498.204 -1.93735 0.269433 0
M  V30 5084 O 499.41 -2.70492 0.233706 0
M  V30 5085 C 497.866 -2.27869 2.78574 0
M  V30 5086 C 497.474 -1.65594 4.16272 0
M  V30 5087 C 499.218 -3.0381 2.96479 0
M  V30 5088 C 497.125 -2.66048 5.28178 0
M  V30 5089 H 496.055 -0.47212 0.587894 0
M  V30 5090 H 498.706 -0.52931 1.757 0
M  V30 5091 H 497.088 -3.03594 2.54257 0
M  V30 5092 H 498.262 -0.958826 4.50714 0
M  V30 5093 H 496.577 -1.02055 4.037 0
M  V30 5094 H 499.174 -3.78925 3.77253 0
M  V30 5095 H 499.517 -3.61235 2.06918 0
M  V30 5096 H 500.05 -2.352 3.20821 0
M  V30 5097 H 496.789 -2.13408 6.19788 0
M  V30 5098 H 496.309 -3.34009 4.98195 0
M  V30 5099 H 497.988 -3.28536 5.57381 0
M  V30 5100 N 498.12 -1.38341 -0.754957 0
M  V30 5101 C 499.03 -1.3769 -1.89944 0
M  V30 5102 C 500.046 -0.274194 -1.71826 0
M  V30 5103 O 501.222 -0.512391 -1.94773 0
M  V30 5104 C 498.287 -1.19938 -3.25293 0
M  V30 5105 C 497.348 -2.40001 -3.55946 0
M  V30 5106 C 496.581 -2.23087 -4.84838 0
M  V30 5107 O 496.804 -1.22386 -5.57116 0
M  V30 5108 O 495.738 -3.11646 -5.14937 0
M  V30 5109 H 499.564 -2.3412 -1.93446 0
M  V30 5110 H 497.149 -1.19246 -0.900044 0
M  V30 5111 H 499.031 -1.12093 -4.06218 0
M  V30 5112 H 497.706 -0.265919 -3.22606 0
M  V30 5113 H 496.613 -2.53421 -2.75188 0
M  V30 5114 H 497.946 -3.31973 -3.63394 0
M  V30 5115 N 499.598 0.982988 -1.23187 0
M  V30 5116 C 500.545 2.07491 -1.01075 0
M  V30 5117 C 501.515 1.65949 0.070905 0
M  V30 5118 O 502.7 1.90629 -0.0806822 0
M  V30 5119 C 499.84 3.39751 -0.605261 0
M  V30 5120 C 498.953 3.94578 -1.75876 0
M  V30 5121 C 498.088 5.15039 -1.3003 0
M  V30 5122 C 497.127 5.62027 -2.42472 0
M  V30 5123 N 496.264 6.73719 -1.97602 0
M  V30 5124 H 501.104 2.25739 -1.9454 0
M  V30 5125 H 498.641 1.10659 -0.969179 0
M  V30 5126 H 500.599 4.15719 -0.351279 0
M  V30 5127 H 499.229 3.21473 0.292382 0
M  V30 5128 H 498.281 3.1539 -2.12681 0
M  V30 5129 H 499.593 4.25422 -2.60418 0
M  V30 5130 H 498.747 5.9833 -1.00429 0
M  V30 5131 H 497.486 4.85843 -0.425216 0
M  V30 5132 H 496.491 4.77318 -2.7285 0
M  V30 5133 H 497.716 5.93244 -3.30512 0
M  V30 5134 H 495.662 6.46287 -1.1247 0
M  V30 5135 H 495.579 7.03934 -2.75705 0
M  V30 5136 H 496.847 7.6049 -1.71098 0
M  V30 5137 N 501.076 1.04316 1.18135 0
M  V30 5138 C 502.304 0.768117 1.92113 0
M  V30 5139 C 502.719 -0.675057 1.76319 0
M  V30 5140 O 502.076 -1.46038 1.09449 0
M  V30 5141 C 502.127 1.12808 3.43448 0
M  V30 5142 O 501.848 2.5146 3.58747 0
M  V30 5143 C 503.349 0.8779 4.3452 0
M  V30 5144 H 500.569 0.279937 0.609817 0
M  V30 5145 H 503.113 1.39149 1.49859 0
M  V30 5146 H 501.268 0.549623 3.83481 0
M  V30 5147 H 501.682 2.65313 4.52448 0
M  V30 5148 H 503.156 1.17959 5.39249 0
M  V30 5149 H 503.633 -0.187239 4.38801 0
M  V30 5150 H 504.239 1.43977 4.00188 0
M  V30 5151 N 502.554 -1.34406 0.822964 0
M  V30 5152 C 503.803 -1.97542 0.407458 0
M  V30 5153 C 504.116 -1.65973 -1.035 0
M  V30 5154 O 505.322 -2.22598 -1.55442 0
M  V30 5155 C 503.778 -3.53463 0.677623 0
M  V30 5156 C 503.386 -3.93925 2.1337 0
M  V30 5157 C 505.13 -4.23229 0.328284 0
M  V30 5158 C 503.037 -5.42759 2.34876 0
M  V30 5159 H 501.967 -0.739207 0.148623 0
M  V30 5160 H 504.618 -1.53248 1.00932 0
M  V30 5161 H 503 -3.96 0.00558965 0
M  V30 5162 H 504.174 -3.62494 2.8449 0
M  V30 5163 H 502.489 -3.37097 2.44448 0
M  V30 5164 H 505.086 -5.32659 0.466794 0
M  V30 5165 H 505.429 -4.09899 -0.727224 0
M  V30 5166 H 505.962 -3.86169 0.954896 0
M  V30 5167 H 502.701 -5.61075 3.38932 0
M  V30 5168 H 502.221 -5.75704 1.68299 0
M  V30 5169 H 503.9 -6.0944 2.17236 0
M  V30 5170 N 504.032 -0.577932 -1.46621 0
M  V30 5171 C 505.257 -0.0652536 -2.07297 0
M  V30 5172 C 505.682 1.22828 -1.4246 0
M  V30 5173 O 505.04 1.74075 -0.506718 0
M  V30 5174 C 505.088 0.0920589 -3.60482 0
M  V30 5175 O 504.192 1.14972 -3.96049 0
M  V30 5176 H 503.533 -0.06065 -0.661224 0
M  V30 5177 H 506.063 -0.799515 -1.88332 0
M  V30 5178 H 506.073 0.299741 -4.06897 0
M  V30 5179 H 504.748 -0.852612 -4.07067 0
M  V30 5180 H 503.325 0.920879 -3.61351 0
M  V30 5181 N 505.51 1.54411 -0.315457 0
M  V30 5182 C 506.457 2.24048 0.554166 0
M  V30 5183 C 507.427 1.2283 1.11812 0
M  V30 5184 O 508.612 1.51491 1.15997 0
M  V30 5185 C 505.752 2.99574 1.71316 0
M  V30 5186 C 504.865 4.15594 1.17922 0
M  V30 5187 C 504 4.78669 2.30324 0
M  V30 5188 C 503.039 5.86807 1.74137 0
M  V30 5189 N 502.176 6.43777 2.8017 0
M  V30 5190 H 507.016 2.97964 -0.0462602 0
M  V30 5191 H 504.553 1.47059 -0.0346009 0
M  V30 5192 H 506.511 3.41604 2.39505 0
M  V30 5193 H 505.141 2.28008 2.285 0
M  V30 5194 H 504.193 3.78404 0.389136 0
M  V30 5195 H 505.505 4.93459 0.728012 0
M  V30 5196 H 504.659 5.23626 3.06433 0
M  V30 5197 H 503.398 4.00168 2.78778 0
M  V30 5198 H 502.403 5.41261 0.965236 0
M  V30 5199 H 503.628 6.67201 1.2657 0
M  V30 5200 H 501.574 5.68153 3.2793 0
M  V30 5201 H 501.491 7.17031 2.39588 0
M  V30 5202 H 502.759 6.9339 3.56132 0
M  V30 5203 N 506.988 0.0434614 1.5754 0
M  V30 5204 C 507.951 -0.918696 2.09982 0
M  V30 5205 C 508.951 -1.24488 1.01781 0
M  V30 5206 O 510.141 -1.18284 1.27885 0
M  V30 5207 C 507.273 -2.23093 2.57764 0
M  V30 5208 H 508.466 -0.464229 2.96285 0
M  V30 5209 H 506.019 -0.204818 1.54952 0
M  V30 5210 H 506.754 -2.73137 1.74832 0
M  V30 5211 H 506.539 -2.00724 3.36827 0
M  V30 5212 H 508.029 -2.92028 2.98512 0
M  V30 5213 N 508.466 -1.55915 -0.229846 0
M  V30 5214 C 509.413 -1.91734 -1.28478 0
M  V30 5215 C 510.383 -0.773539 -1.46988 0
M  V30 5216 O 511.568 -1.02871 -1.60693 0
M  V30 5217 C 508.708 -2.23224 -2.63182 0
M  V30 5218 C 507.821 -3.50497 -2.52539 0
M  V30 5219 C 506.956 -3.71474 -3.79711 0
M  V30 5220 C 505.995 -4.92289 -3.63755 0
M  V30 5221 N 505.132 -5.09698 -4.82858 0
M  V30 5222 H 509.972 -2.81692 -0.972308 0
M  V30 5223 H 507.509 -1.39429 -0.468815 0
M  V30 5224 H 509.467 -2.3949 -3.41614 0
M  V30 5225 H 508.097 -1.36451 -2.92542 0
M  V30 5226 H 507.149 -3.4247 -1.65585 0
M  V30 5227 H 508.461 -4.39079 -2.36666 0
M  V30 5228 H 507.615 -3.87791 -4.66586 0
M  V30 5229 H 506.354 -2.81157 -3.985 0
M  V30 5230 H 505.359 -4.7593 -2.75264 0
M  V30 5231 H 506.584 -5.84083 -3.46445 0
M  V30 5232 H 504.53 -4.22322 -5.01976 0
M  V30 5233 H 504.447 -5.92399 -4.69681 0
M  V30 5234 H 505.715 -5.30443 -5.71183 0
M  V30 5235 N 509.944 0.496216 -1.49584 0
M  V30 5236 C 511.192 1.24756 -1.58998 0
M  V30 5237 C 511.513 1.92968 -0.280775 0
M  V30 5238 O 510.783 1.82959 0.700198 0
M  V30 5239 H 509.363 0.463471 -0.585836 0
M  V30 5240 H 512.025 0.574678 -1.86235 0
M  V30 5241 H 511.121 2.00895 -2.38847 0
M  V30 5242 N 511.423 1.38739 0.74761 0
M  V30 5243 C 512.355 1.32341 1.87132 0
M  V30 5244 C 513.368 0.234502 1.61102 0
M  V30 5245 O 514.557 0.492516 1.71571 0
M  V30 5246 C 511.657 1.02915 3.22896 0
M  V30 5247 C 510.83 2.22834 3.76383 0
M  V30 5248 C 509.889 1.90059 4.90677 0
M  V30 5249 O 508.915 2.62615 5.04997 0
M  V30 5250 N 510.117 0.859141 5.74107 0
M  V30 5251 H 512.882 2.29175 1.93129 0
M  V30 5252 H 510.443 1.32678 0.927805 0
M  V30 5253 H 512.435 0.79031 3.96908 0
M  V30 5254 H 511.005 0.148572 3.12247 0
M  V30 5255 H 510.225 2.62747 2.93867 0
M  V30 5256 H 511.513 3.02851 4.08851 0
M  V30 5257 H 510.911 0.257564 5.65113 0
M  V30 5258 H 509.468 0.680189 6.48241 0
M  V30 5259 N 512.901 -0.976442 1.23707 0
M  V30 5260 C 514.312 -1.53284 1.06587 0
M  V30 5261 C 514.663 -1.92765 -0.365526 0
M  V30 5262 O 513.788 -1.7645 -1.25277 0
M  V30 5263 C 514.383 -2.78548 1.92864 0
M  V30 5264 C 512.942 -3.30574 1.79994 0
M  V30 5265 C 512.089 -2.03538 1.88328 0
M  V30 5266 H 515.04 -0.795692 1.37311 0
M  V30 5267 H 515.061 -3.5155 1.45577 0
M  V30 5268 H 514.573 -2.49782 2.97037 0
M  V30 5269 H 512.674 -3.64211 0.786202 0
M  V30 5270 H 512.787 -4.00065 2.636 0
M  V30 5271 H 511.151 -2.17853 1.31954 0
M  V30 5272 H 511.934 -1.77149 2.94063 0
M  V30 5273 N 514.379 -1.04941 -1.1758 0
M  V30 5274 C 515.795 -0.770282 -1.39781 0
M  V30 5275 C 515.995 0.636417 -1.91186 0
M  V30 5276 O 515.051 1.39923 -2.10185 0
M  V30 5277 C 516.364 -1.82376 -2.3908 0
M  V30 5278 C 517.912 -1.84569 -2.52791 0
M  V30 5279 C 518.387 -2.88933 -3.55361 0
M  V30 5280 N 519.878 -2.8788 -3.62877 0
M  V30 5281 C 520.613 -3.65282 -4.41992 0
M  V30 5282 N 520.109 -4.52461 -5.24643 0
M  V30 5283 N 521.902 -3.53732 -4.36841 0
M  V30 5284 H 514.053 -1.95705 -0.825438 0
M  V30 5285 H 516.316 -0.847284 -0.425222 0
M  V30 5286 H 516.022 -2.83323 -2.08376 0
M  V30 5287 H 515.896 -1.66327 -3.38549 0
M  V30 5288 H 518.283 -0.842879 -2.82807 0
M  V30 5289 H 518.364 -2.04696 -1.53406 0
M  V30 5290 H 518.008 -3.89398 -3.26085 0
M  V30 5291 H 517.938 -2.66059 -4.54445 0
M  V30 5292 H 520.429 -2.24666 -3.03864 0
M  V30 5293 H 520.742 -5.08211 -5.82187 0
M  V30 5294 H 519.087 -4.56524 -5.24033 0
M  V30 5295 H 522.278 -2.85021 -3.71323 0
M  V30 5296 H 522.451 -4.14302 -4.98255 0
M  V30 5297 N 515.857 1.33968 -0.830081 0
M  V30 5298 C 516.767 2.33164 -0.259207 0
M  V30 5299 C 517.783 1.62951 0.610164 0
M  V30 5300 O 518.959 1.94668 0.516369 0
M  V30 5301 C 516.024 3.42088 0.563598 0
M  V30 5302 C 515.085 4.28037 -0.329014 0
M  V30 5303 C 514.318 5.3176 0.454616 0
M  V30 5304 O 514.541 5.44876 1.6872 0
M  V30 5305 O 513.475 6.01669 -0.166794 0
M  V30 5306 H 517.301 2.83832 -1.08041 0
M  V30 5307 H 514.886 1.37154 -0.59239 0
M  V30 5308 H 516.768 4.08581 1.03147 0
M  V30 5309 H 515.443 2.93651 1.36201 0
M  V30 5310 H 514.35 3.64443 -0.844538 0
M  V30 5311 H 515.683 4.79934 -1.09196 0
M  V30 5312 N 517.335 0.585699 1.46312 0
M  V30 5313 C 518.746 0.159938 1.86014 0
M  V30 5314 C 519.097 -1.27775 1.48889 0
M  V30 5315 O 518.222 -1.96559 0.90519 0
M  V30 5316 C 518.817 0.283485 3.37612 0
M  V30 5317 C 517.376 -0.0874256 3.76298 0
M  V30 5318 C 516.523 0.618055 2.70325 0
M  V30 5319 H 519.474 0.793737 1.37425 0
M  V30 5320 H 519.495 -0.490348 3.77327 0
M  V30 5321 H 519.007 1.32995 3.64601 0
M  V30 5322 H 517.108 -1.13391 3.54927 0
M  V30 5323 H 517.221 0.290975 4.78216 0
M  V30 5324 H 515.585 0.057993 2.54634 0
M  V30 5325 H 516.368 1.66623 3.00153 0
M  V30 5326 N 518.813 -1.54241 0.323641 0
M  V30 5327 C 519.745 -2.21836 -0.576311 0
M  V30 5328 C 520.758 -1.21837 -1.07979 0
M  V30 5329 O 521.947 -1.48306 -0.99336 0
M  V30 5330 C 519.047 -2.86923 -1.80356 0
M  V30 5331 C 518.22 -4.1306 -1.43875 0
M  V30 5332 C 517.279 -4.6174 -2.52353 0
M  V30 5333 O 516.305 -5.26421 -2.16494 0
M  V30 5334 N 517.507 -4.35974 -3.83284 0
M  V30 5335 H 520.272 -2.997 0.00247987 0
M  V30 5336 H 517.833 -1.61233 0.146848 0
M  V30 5337 H 519.825 -3.16414 -2.52318 0
M  V30 5338 H 518.395 -2.12765 -2.29019 0
M  V30 5339 H 517.615 -3.90334 -0.550752 0
M  V30 5340 H 518.903 -4.95148 -1.17071 0
M  V30 5341 H 518.301 -3.84203 -4.15216 0
M  V30 5342 H 516.858 -4.70119 -4.51477 0
M  V30 5343 N 520.291 -0.0518155 -1.57515 0
M  V30 5344 C 521.537 0.622745 -1.93002 0
M  V30 5345 C 521.87 1.70456 -0.930499 0
M  V30 5346 O 521.145 1.94452 0.0434086 0
M  V30 5347 C 521.428 1.21824 -3.38867 0
M  V30 5348 C 521.281 0.144434 -4.49568 0
M  V30 5349 C 522.6 2.12968 -3.8514 0
M  V30 5350 H 519.719 0.22491 -0.701844 0
M  V30 5351 H 522.361 -0.113711 -1.89659 0
M  V30 5352 H 520.511 1.8459 -3.41846 0
M  V30 5353 H 522.183 -0.48753 -4.58717 0
M  V30 5354 H 520.426 -0.527424 -4.30582 0
M  V30 5355 H 521.097 0.601127 -5.48717 0
M  V30 5356 H 523.573 1.60163 -3.8404 0
M  V30 5357 H 522.449 2.51578 -4.87852 0
M  V30 5358 H 522.71 3.03004 -3.21934 0
M  V30 5359 N 521.769 1.56035 0.221574 0
M  V30 5360 C 522.999 1.82864 0.961468 0
M  V30 5361 C 523.407 0.628703 1.78449 0
M  V30 5362 O 522.75 -0.412109 1.79018 0
M  V30 5363 C 522.812 3.03425 1.92804 0
M  V30 5364 C 522.476 4.38429 1.28954 0
M  V30 5365 C 523.473 5.15441 0.679431 0
M  V30 5366 C 521.158 4.85151 1.30131 0
M  V30 5367 C 523.152 6.37337 0.0896148 0
M  V30 5368 C 520.839 6.06989 0.707651 0
M  V30 5369 C 521.837 6.82923 0.102855 0
M  V30 5370 O 521.525 8.02456 -0.48157 0
M  V30 5371 H 521.257 0.611883 0.28736 0
M  V30 5372 H 523.811 2.0397 0.241932 0
M  V30 5373 H 522.041 2.78138 2.68656 0
M  V30 5374 H 523.73 3.17127 2.53348 0
M  V30 5375 H 524.496 4.80452 0.662661 0
M  V30 5376 H 520.375 4.26021 1.76145 0
M  V30 5377 H 523.919 6.96547 -0.383069 0
M  V30 5378 H 519.816 6.41451 0.721834 0
M  V30 5379 H 520.584 8.17636 -0.375887 0
M  V30 5380 N 523.247 -0.488276 1.49845 0
M  V30 5381 C 524.475 -1.26527 1.63702 0
M  V30 5382 C 524.89 -1.8618 0.313447 0
M  V30 5383 O 524.247 -1.68432 -0.702624 0
M  V30 5384 C 524.298 -2.3864 2.71538 0
M  V30 5385 O 524.019 -1.81437 3.98763 0
M  V30 5386 C 525.52 -3.29805 2.96215 0
M  V30 5387 H 522.74 -0.383295 0.55075 0
M  V30 5388 H 525.284 -0.584779 1.95961 0
M  V30 5389 H 523.439 -3.02496 2.42023 0
M  V30 5390 H 523.853 -2.55135 4.58265 0
M  V30 5391 H 525.327 -4.04722 3.75372 0
M  V30 5392 H 525.804 -3.87563 2.06619 0
M  V30 5393 H 526.41 -2.71703 3.27196 0
M  V30 5394 N 524.725 -1.39134 -0.740242 0
M  V30 5395 C 525.655 -1.40165 -1.86751 0
M  V30 5396 C 526.636 -0.265708 -1.68012 0
M  V30 5397 O 527.821 -0.47076 -1.88408 0
M  V30 5398 C 524.951 -1.2392 -3.2444 0
M  V30 5399 C 523.905 -2.34858 -3.57807 0
M  V30 5400 C 523.231 -2.03707 -4.94376 0
M  V30 5401 C 524.531 -3.77159 -3.61315 0
M  V30 5402 H 526.225 -2.345 -1.86145 0
M  V30 5403 H 523.771 -1.12875 -0.89416 0
M  V30 5404 H 525.724 -1.23263 -4.02969 0
M  V30 5405 H 524.448 -0.26051 -3.25559 0
M  V30 5406 H 523.107 -2.34723 -2.81604 0
M  V30 5407 H 522.755 -1.04289 -4.9207 0
M  V30 5408 H 522.455 -2.78016 -5.17669 0
M  V30 5409 H 523.979 -2.04691 -5.75268 0
M  V30 5410 H 525.393 -3.79252 -4.29931 0
M  V30 5411 H 523.79 -4.50784 -3.96124 0
M  V30 5412 H 524.86 -4.08513 -2.61238 0
M  V30 5413 N 526.204 0.969867 -1.24223 0
M  V30 5414 C 527.615 1.52717 -1.07399 0
M  V30 5415 C 527.966 1.92956 0.355298 0
M  V30 5416 O 527.091 1.77112 1.2434 0
M  V30 5417 C 527.686 2.77521 -1.94339 0
M  V30 5418 C 526.245 3.29615 -1.81744 0
M  V30 5419 C 525.392 2.02537 -1.89405 0
M  V30 5420 H 528.343 0.788399 -1.37732 0
M  V30 5421 H 528.364 3.50773 -1.47439 0
M  V30 5422 H 527.876 2.48203 -2.98357 0
M  V30 5423 H 525.977 3.63789 -0.805505 0
M  V30 5424 H 526.09 3.98661 -2.65718 0
M  V30 5425 H 524.454 2.17151 -1.33108 0
M  V30 5426 H 525.237 1.75587 -2.94999 0
M  V30 5427 N 527.682 1.05563 1.17022 0
M  V30 5428 C 529.093 0.793475 1.69 0
M  V30 5429 C 529.444 -0.683882 1.83895 0
M  V30 5430 O 528.569 -1.53116 1.5292 0
M  V30 5431 C 529.164 1.43376 3.06967 0
M  V30 5432 C 527.723 1.21956 3.56095 0
M  V30 5433 C 526.87 1.51494 2.3226 0
M  V30 5434 H 529.821 1.22008 1.01487 0
M  V30 5435 H 529.842 0.845068 3.70997 0
M  V30 5436 H 529.354 2.50899 2.96093 0
M  V30 5437 H 527.455 0.163749 3.7224 0
M  V30 5438 H 527.568 1.92713 4.38633 0
M  V30 5439 H 525.932 0.935175 2.3691 0
M  V30 5440 H 526.715 2.60159 2.23992 0
M  V30 5441 N 529.16 -1.33526 0.837174 0
M  V30 5442 C 530.385 -2.0258 0.444545 0
M  V30 5443 C 530.81 -1.6258 -0.946006 0
M  V30 5444 O 530.168 -0.817548 -1.6182 0
M  V30 5445 C 530.216 -3.5605 0.571006 0
M  V30 5446 O 529.32 -4.10422 -0.403431 0
M  V30 5447 H 528.661 -0.638866 0.180958 0
M  V30 5448 H 531.191 -1.70462 1.13154 0
M  V30 5449 H 531.201 -4.05488 0.452024 0
M  V30 5450 H 529.876 -3.84509 1.58512 0
M  V30 5451 H 528.453 -3.72113 -0.242147 0
M  V30 5452 N 530.638 -0.59345 -1.46 0
M  V30 5453 C 531.57 0.171569 -2.28557 0
M  V30 5454 C 532.583 0.845273 -1.39137 0
M  V30 5455 O 533.772 0.713033 -1.6364 0
M  V30 5456 C 530.872 1.26311 -3.14482 0
M  V30 5457 C 530.045 0.679258 -4.32094 0
M  V30 5458 C 529.104 1.65987 -4.99334 0
M  V30 5459 O 528.13 1.19171 -5.56585 0
M  V30 5460 N 529.332 2.99414 -4.97324 0
M  V30 5461 H 532.097 -0.536771 -2.94854 0
M  V30 5462 H 529.658 -0.431954 -1.56031 0
M  V30 5463 H 531.65 1.91863 -3.5633 0
M  V30 5464 H 530.22 1.87416 -2.50188 0
M  V30 5465 H 529.44 -0.153992 -3.93899 0
M  V30 5466 H 530.728 0.26916 -5.08088 0
M  V30 5467 H 530.126 3.40064 -4.52076 0
M  V30 5468 H 528.683 3.60426 -5.4308 0
M  V30 5469 N 532.116 1.54067 -0.331816 0
M  V30 5470 C 533.026 2.28322 0.539104 0
M  V30 5471 C 534.042 1.32985 1.1221 0
M  V30 5472 O 535.218 1.6601 1.1403 0
M  V30 5473 C 532.283 3.03277 1.68 0
M  V30 5474 C 531.344 4.14216 1.12798 0
M  V30 5475 C 530.577 4.85588 2.2145 0
M  V30 5476 O 530.8 4.56536 3.41952 0
M  V30 5477 O 529.734 5.72309 1.86404 0
M  V30 5478 H 533.56 3.03632 -0.0641692 0
M  V30 5479 H 531.145 1.49083 -0.0972365 0
M  V30 5480 H 533.027 3.50189 2.34405 0
M  V30 5481 H 531.702 2.30834 2.2693 0
M  V30 5482 H 530.609 3.71635 0.428782 0
M  V30 5483 H 531.942 4.88727 0.583698 0
M  V30 5484 N 533.594 0.0601682 1.57485 0
M  V30 5485 C 534.504 -0.926121 2.15546 0
M  V30 5486 C 535.52 -1.33532 1.11558 0
M  V30 5487 O 536.696 -1.4104 1.4377 0
M  V30 5488 C 533.761 -2.17952 2.69625 0
M  V30 5489 C 532.822 -1.82783 3.88444 0
M  V30 5490 C 532.055 -3.02148 4.39935 0
M  V30 5491 O 532.278 -4.15803 3.90466 0
M  V30 5492 O 531.212 -2.82639 5.31412 0
M  V30 5493 H 535.038 -0.462289 3.00161 0
M  V30 5494 H 532.623 -0.162246 1.48516 0
M  V30 5495 H 534.505 -2.91474 3.04337 0
M  V30 5496 H 533.18 -2.63456 1.88077 0
M  V30 5497 H 532.087 -1.06549 3.58606 0
M  V30 5498 H 533.42 -1.42072 4.7125 0
M  V30 5499 N 535.072 -1.5615 -0.213296 0
M  V30 5500 C 536.005 -1.88115 -1.29182 0
M  V30 5501 C 536.983 -0.739348 -1.44819 0
M  V30 5502 O 538.167 -0.988541 -1.605 0
M  V30 5503 C 535.294 -2.09541 -2.66102 0
M  V30 5504 C 534.34 -3.32236 -2.67436 0
M  V30 5505 S 535.173 -4.87915 -2.20679 0
M  V30 5506 C 536.329 -5.12387 -3.59458 0
M  V30 5507 H 536.562 -2.793 -1.01876 0
M  V30 5508 H 534.095 -1.48692 -0.415934 0
M  V30 5509 H 536.053 -2.22568 -3.44925 0
M  V30 5510 H 534.714 -1.19138 -2.90628 0
M  V30 5511 H 533.907 -3.44297 -3.6807 0
M  V30 5512 H 533.509 -3.18108 -1.96681 0
M  V30 5513 H 535.801 -5.01791 -4.55205 0
M  V30 5514 H 536.744 -6.14236 -3.52306 0
M  V30 5515 H 537.152 -4.40089 -3.53528 0
M  V30 5516 N 536.55 0.480323 -1.50102 0
M  V30 5517 C 537.778 1.25657 -1.64371 0
M  V30 5518 C 538.193 1.86011 -0.323316 0
M  V30 5519 O 537.55 1.68803 0.693682 0
M  V30 5520 C 537.601 2.37197 -2.728 0
M  V30 5521 O 537.322 1.7932 -3.9972 0
M  V30 5522 C 538.823 3.2823 -2.9796 0
M  V30 5523 H 536.043 0.380369 -0.552775 0
M  V30 5524 H 538.587 0.574379 -1.96268 0
M  V30 5525 H 536.742 3.01208 -2.43623 0
M  V30 5526 H 537.156 2.52701 -4.59611 0
M  V30 5527 H 538.63 4.02725 -3.77513 0
M  V30 5528 H 539.107 3.86462 -2.08671 0
M  V30 5529 H 539.713 2.69964 -3.28633 0
M  V30 5530 N 538.028 1.39524 0.732853 0
M  V30 5531 C 538.975 1.38416 1.84688 0
M  V30 5532 C 539.945 0.243539 1.64305 0
M  V30 5533 O 541.13 0.438979 1.85681 0
M  V30 5534 C 538.27 1.23555 3.22224 0
M  V30 5535 C 537.383 2.47179 3.54298 0
M  V30 5536 C 536.518 2.2489 4.81246 0
M  V30 5537 C 535.557 3.44178 5.0617 0
M  V30 5538 N 534.694 3.21192 6.24323 0
M  V30 5539 H 539.534 2.33645 1.84971 0
M  V30 5540 H 537.071 1.16059 0.903804 0
M  V30 5541 H 539.029 1.12949 4.0162 0
M  V30 5542 H 537.659 0.31954 3.21215 0
M  V30 5543 H 536.711 2.68379 2.69587 0
M  V30 5544 H 538.023 3.36022 3.68633 0
M  V30 5545 H 537.177 2.11538 5.68627 0
M  V30 5546 H 535.916 1.33443 4.69089 0
M  V30 5547 H 534.921 3.58025 4.17251 0
M  V30 5548 H 536.146 4.36528 5.20212 0
M  V30 5549 H 534.092 2.32413 6.1345 0
M  V30 5550 H 534.009 4.03594 6.39256 0
M  V30 5551 H 535.277 3.1154 7.14537 0
M  V30 5552 N 539.506 -0.963266 1.24736 0
M  V30 5553 C 540.454 -2.07985 1.04139 0
M  V30 5554 C 541.448 -1.69381 -0.0250556 0
M  V30 5555 O 542.654 -1.79531 0.129863 0
M  V30 5556 H 539.029 -0.680627 0.319768 0
M  V30 5557 H 541 -2.22517 1.98818 0
M  V30 5558 C 539.749 -3.4123 0.667615 0
M  V30 5559 H 539.072 -3.71397 1.48 0
M  V30 5560 H 540.512 -4.20244 0.563136 0
M  V30 5561 C 538.971 -3.3104 -0.625647 0
M  V30 5562 O 539.501 -3.65334 -1.67016 0
M  V30 5563 N 537.707 -2.84168 -0.608033 0
M  V30 5564 H 537.254 -2.56458 0.242323 0
M  V30 5565 H 537.212 -2.77732 -1.47352 0
M  V30 5566 N 540.985 -1.06182 -1.16461 0
M  V30 5567 C 541.917 -0.629584 -2.20383 0
M  V30 5568 C 542.93 0.311834 -1.59786 0
M  V30 5569 O 544.119 0.103 -1.78203 0
M  V30 5570 C 541.219 0.0973695 -3.3876 0
M  V30 5571 C 540.392 -0.857252 -4.28917 0
M  V30 5572 C 539.451 -0.169749 -5.25926 0
M  V30 5573 O 538.477 -0.807044 -5.6345 0
M  V30 5574 N 539.679 1.08911 -5.70192 0
M  V30 5575 H 542.444 -1.52352 -2.58087 0
M  V30 5576 H 540.005 -0.944993 -1.31459 0
M  V30 5577 H 541.997 0.567676 -4.00699 0
M  V30 5578 H 540.567 0.893093 -2.99571 0
M  V30 5579 H 539.787 -1.50696 -3.64259 0
M  V30 5580 H 541.075 -1.50489 -4.86035 0
M  V30 5581 H 540.473 1.62703 -5.41797 0
M  V30 5582 H 539.03 1.50331 -6.34227 0
M  V30 5583 N 542.463 1.3308 -0.844243 0
M  V30 5584 C 543.709 1.97898 -0.443206 0
M  V30 5585 C 544.042 1.66699 0.99625 0
M  V30 5586 O 543.317 0.949704 1.69738 0
M  V30 5587 C 543.6 3.53801 -0.670606 0
M  V30 5588 C 543.453 3.94667 -2.15772 0
M  V30 5589 C 544.772 4.39936 -0.120226 0
M  V30 5590 H 541.891 0.718861 -0.162504 0
M  V30 5591 H 544.533 1.57633 -1.06075 0
M  V30 5592 H 542.683 3.88229 -0.14496 0
M  V30 5593 H 544.355 3.70469 -2.74865 0
M  V30 5594 H 542.598 3.44203 -2.6402 0
M  V30 5595 H 543.269 5.03275 -2.26757 0
M  V30 5596 H 545.745 4.12183 -0.5696 0
M  V30 5597 H 544.621 5.4803 -0.308984 0
M  V30 5598 H 544.882 4.31184 0.976347 0
M  V30 5599 N 543.941 0.601185 1.45683 0
M  V30 5600 C 545.166 0.0982245 2.07167 0
M  V30 5601 C 545.591 -1.20546 1.44396 0
M  V30 5602 O 544.949 -1.73247 0.534347 0
M  V30 5603 C 544.997 -0.0346976 3.60583 0
M  V30 5604 O 544.101 -1.08657 3.97828 0
M  V30 5605 H 543.442 0.0711618 0.660176 0
M  V30 5606 H 545.972 0.829376 1.87036 0
M  V30 5607 H 545.982 -0.234969 4.07323 0
M  V30 5608 H 544.657 0.917265 4.05659 0
M  V30 5609 H 543.234 -0.863275 3.6277 0
M  V30 5610 N 545.419 -1.53889 0.339982 0
M  V30 5611 C 546.349 -2.27843 -0.510856 0
M  V30 5612 C 547.33 -1.29267 -1.10563 0
M  V30 5613 O 548.515 -1.58104 -1.12768 0
M  V30 5614 C 545.645 -3.04857 -1.66372 0
M  V30 5615 C 544.599 -4.10907 -1.19746 0
M  V30 5616 C 543.925 -4.75855 -2.43857 0
M  V30 5617 C 545.225 -5.21435 -0.300501 0
M  V30 5618 H 546.919 -2.99212 0.106067 0
M  V30 5619 H 544.465 -1.43904 0.0524533 0
M  V30 5620 H 546.418 -3.5533 -2.26537 0
M  V30 5621 H 545.142 -2.31133 -2.30749 0
M  V30 5622 H 543.801 -3.61342 -0.618654 0
M  V30 5623 H 543.449 -3.9873 -3.06633 0
M  V30 5624 H 543.149 -5.47502 -2.13343 0
M  V30 5625 H 544.673 -5.2911 -3.04754 0
M  V30 5626 H 546.087 -5.67565 -0.80889 0
M  V30 5627 H 544.484 -6.00036 -0.0874076 0
M  V30 5628 H 545.554 -4.80328 0.664321 0
M  V30 5629 N 546.897 -0.0685191 -1.57451 0
M  V30 5630 C 548.125 0.610462 -1.97689 0
M  V30 5631 C 548.54 1.63346 -0.946758 0
M  V30 5632 O 547.897 1.82377 0.0669868 0
M  V30 5633 C 547.948 1.28196 -3.38006 0
M  V30 5634 O 547.669 0.299906 -4.37072 0
M  V30 5635 C 549.17 2.04907 -3.931 0
M  V30 5636 H 546.39 0.165689 -0.650222 0
M  V30 5637 H 548.934 -0.139953 -2.04021 0
M  V30 5638 H 547.089 1.98348 -3.32771 0
M  V30 5639 H 547.503 0.78126 -5.18649 0
M  V30 5640 H 548.977 2.47287 -4.93511 0
M  V30 5641 H 549.454 2.9043 -3.29465 0
M  V30 5642 H 550.06 1.39629 -4.01726 0
M  V30 5643 N 548.375 1.56261 0.205012 0
M  V30 5644 C 549.615 1.81823 0.933806 0
M  V30 5645 C 549.979 0.644534 1.80858 0
M  V30 5646 O 551.18 0.779819 2.5724 0
M  V30 5647 C 549.451 3.12362 1.7368 0
M  V30 5648 S 551.01 3.59296 2.51897 0
M  V30 5649 H 547.828 0.638209 0.313386 0
M  V30 5650 H 550.43 1.94495 0.198001 0
M  V30 5651 H 549.134 3.95809 1.08459 0
M  V30 5652 H 548.665 3.02542 2.5146 0
M  V30 5653 H 550.68 3.23945 3.75864 0
M  V30 5654 N 549.853 -0.472356 1.50355 0
M  V30 5655 C 550.783 -1.57859 1.72055 0
M  V30 5656 C 551.764 -1.60283 0.569505 0
M  V30 5657 O 552.949 -1.7657 0.808503 0
M  V30 5658 C 550.079 -2.96191 1.81351 0
M  V30 5659 C 549.033 -3.08633 2.96529 0
M  V30 5660 C 548.359 -4.486 2.90968 0
M  V30 5661 C 549.659 -2.85969 4.37057 0
M  V30 5662 H 551.353 -1.39953 2.64676 0
M  V30 5663 H 548.899 -0.671846 1.27367 0
M  V30 5664 H 550.852 -3.73507 1.95117 0
M  V30 5665 H 549.576 -3.15251 0.853502 0
M  V30 5666 H 548.235 -2.33749 2.82413 0
M  V30 5667 H 547.883 -4.64577 1.92815 0
M  V30 5668 H 547.583 -4.57861 3.68289 0
M  V30 5669 H 549.107 -5.27938 3.0678 0
M  V30 5670 H 550.521 -3.53036 4.51706 0
M  V30 5671 H 548.918 -3.06677 5.15819 0
M  V30 5672 H 549.988 -1.81838 4.49514 0
M  V30 5673 N 551.331 -1.39911 -0.725443 0
M  V30 5674 C 552.577 -1.37858 -1.48738 0
M  V30 5675 C 552.91 0.0224187 -1.94187 0
M  V30 5676 O 552.185 0.989204 -1.67466 0
M  V30 5677 C 552.468 -2.3594 -2.72038 0
M  V30 5678 C 552.321 -3.85023 -2.32546 0
M  V30 5679 C 553.64 -2.31704 -3.74167 0
M  V30 5680 H 550.759 -0.502074 -0.539528 0
M  V30 5681 H 553.401 -1.70974 -0.828728 0
M  V30 5682 H 551.551 -2.0783 -3.28236 0
M  V30 5683 H 553.223 -4.2392 -1.81905 0
M  V30 5684 H 551.466 -4.01334 -1.64661 0
M  V30 5685 H 552.137 -4.49152 -3.20884 0
M  V30 5686 H 554.613 -2.5658 -3.27576 0
M  V30 5687 H 553.489 -3.02395 -4.58092 0
M  V30 5688 H 553.75 -1.3253 -4.21768 0
M  V30 5689 N 552.809 0.956637 -1.25245 0
M  V30 5690 C 553.756 2.053 -1.05454 0
M  V30 5691 C 554.726 1.66062 0.0356889 0
M  V30 5692 O 555.911 1.90415 -0.121099 0
M  V30 5693 C 553.051 3.38391 -0.677191 0
M  V30 5694 C 552.164 3.90758 -1.84206 0
M  V30 5695 C 551.299 5.12165 -1.40926 0
M  V30 5696 C 550.338 5.56757 -2.54338 0
M  V30 5697 N 549.475 6.69376 -2.11848 0
M  V30 5698 H 554.315 2.21562 -1.99284 0
M  V30 5699 H 551.852 1.08578 -0.992434 0
M  V30 5700 H 553.81 4.1488 -0.43938 0
M  V30 5701 H 552.44 3.22021 0.224127 0
M  V30 5702 H 551.492 3.10808 -2.19323 0
M  V30 5703 H 552.804 4.19802 -2.69383 0
M  V30 5704 H 551.958 5.96065 -1.13098 0
M  V30 5705 H 550.697 4.84832 -0.528175 0
M  V30 5706 H 549.702 4.71423 -2.82913 0
M  V30 5707 H 550.927 5.861 -3.43022 0
M  V30 5708 H 548.873 6.43756 -1.26153 0
M  V30 5709 H 548.79 6.97927 -2.90574 0
M  V30 5710 H 550.058 7.5669 -1.87191 0
M  V30 5711 N 554.287 1.06798 1.15896 0
M  V30 5712 C 555.535 0.786211 1.8618 0
M  V30 5713 C 555.856 -0.689547 1.82401 0
M  V30 5714 O 555.126 -1.49913 1.26107 0
M  V30 5715 H 553.706 0.287843 0.689315 0
M  V30 5716 H 556.368 1.35055 1.40521 0
M  V30 5717 H 555.464 1.1157 2.91477 0
M  V30 5718 N 555.766 -1.3263 0.851289 0
M  V30 5719 C 557.013 -1.97368 0.453023 0
M  V30 5720 C 557.341 -1.67384 -0.990596 0
M  V30 5721 O 556.596 -0.952665 -1.70947 0
M  V30 5722 C 556.895 -3.51713 0.635015 0
M  V30 5723 C 556.561 -4.01676 2.04859 0
M  V30 5724 C 555.223 -4.15031 2.43522 0
M  V30 5725 C 557.575 -4.28206 2.97135 0
M  V30 5726 C 554.903 -4.52257 3.73739 0
M  V30 5727 C 557.255 -4.66889 4.26846 0
M  V30 5728 C 555.919 -4.7845 4.65448 0
M  V30 5729 H 555.189 -0.722219 0.165773 0
M  V30 5730 H 557.836 -1.58092 1.0807 0
M  V30 5731 H 556.141 -3.91726 -0.0759081 0
M  V30 5732 H 557.838 -3.99823 0.306964 0
M  V30 5733 H 554.428 -3.91764 1.73836 0
M  V30 5734 H 558.612 -4.174 2.68498 0
M  V30 5735 H 553.868 -4.59402 4.03435 0
M  V30 5736 H 558.042 -4.86372 4.98413 0
M  V30 5737 H 555.669 -5.07052 5.66395 0
M  V30 5738 N 557.244 -0.608902 -1.45362 0
M  V30 5739 C 558.474 -0.110852 -2.06302 0
M  V30 5740 C 558.882 1.21062 -1.45398 0
M  V30 5741 O 558.225 1.74861 -0.562976 0
M  V30 5742 C 558.287 0.101793 -3.59356 0
M  V30 5743 C 557.951 -1.13808 -4.42602 0
M  V30 5744 C 558.948 -2.05653 -4.77496 0
M  V30 5745 C 556.633 -1.36727 -4.83333 0
M  V30 5746 C 558.627 -3.18745 -5.51978 0
M  V30 5747 C 556.314 -2.5012 -5.57569 0
M  V30 5748 C 557.312 -3.40957 -5.91809 0
M  V30 5749 O 557 -4.52376 -6.64538 0
M  V30 5750 H 556.732 -0.0666001 -0.672711 0
M  V30 5751 H 559.286 -0.836942 -1.87575 0
M  V30 5752 H 557.516 0.88279 -3.76489 0
M  V30 5753 H 559.205 0.551607 -4.02134 0
M  V30 5754 H 559.971 -1.89172 -4.46586 0
M  V30 5755 H 555.85 -0.669216 -4.56117 0
M  V30 5756 H 559.394 -3.8967 -5.78622 0
M  V30 5757 H 555.291 -2.66553 -5.87894 0
M  V30 5758 H 556.059 -4.51075 -6.82989 0
M  V30 5759 N 558.722 1.53707 -0.348139 0
M  V30 5760 C 560.133 1.86213 0.134797 0
M  V30 5761 C 560.484 1.26925 1.49614 0
M  V30 5762 O 559.609 0.584573 2.08355 0
M  V30 5763 C 560.204 3.37866 0.251371 0
M  V30 5764 C 558.763 3.70233 0.678543 0
M  V30 5765 C 557.91 2.76683 -0.184925 0
M  V30 5766 H 560.861 1.48204 -0.567571 0
M  V30 5767 H 560.882 3.64908 1.07806 0
M  V30 5768 H 560.394 3.80988 -0.739581 0
M  V30 5769 H 558.495 3.32659 1.67835 0
M  V30 5770 H 558.608 4.76836 0.465251 0
M  V30 5771 H 556.972 2.52374 0.343465 0
M  V30 5772 H 557.755 3.22635 -1.1731 0
M  V30 5773 N 560.2 0.0768682 1.57412 0
M  V30 5774 C 561.425 -0.603404 1.98428 0
M  V30 5775 C 561.85 -1.62047 0.955108 0
M  V30 5776 O 561.208 -1.81129 -0.0786778 0
M  V30 5777 C 561.256 -1.24396 3.38464 0
M  V30 5778 O 560.36 -2.35982 3.3821 0
M  V30 5779 H 559.701 -0.154741 0.645718 0
M  V30 5780 H 562.231 0.152885 2.04028 0
M  V30 5781 H 562.241 -1.5896 3.7576 0
M  V30 5782 H 560.916 -0.498735 4.12899 0
M  V30 5783 H 559.493 -2.03173 3.1269 0
M  V30 5784 N 561.678 -1.56367 -0.196722 0
M  V30 5785 C 562.955 -1.71359 -0.943159 0
M  V30 5786 C 563.335 -0.631192 -2.01443 0
M  V30 5787 O 562.683 0.358071 -2.25677 0
M  V30 5788 C 562.893 -3.13623 -1.53106 0
M  V30 5789 C 564.241 -3.73806 -2.01381 0
M  V30 5790 O 565.265 -3.16742 -1.62951 0
M  V30 5791 O 564.124 -4.73951 -2.7209 0
M  V30 5792 H 561.218 -0.698851 -0.442195 0
M  V30 5793 H 563.764 -1.68672 -0.186547 0
M  V30 5794 H 562.536 -3.83873 -0.758785 0
M  V30 5795 H 562.159 -3.20532 -2.35255 0
M  V30 5796 N 563.156 0.464375 -1.50603 0
M  V30 5797 C 564.405 1.21277 -1.61167 0
M  V30 5798 C 564.718 1.92953 -0.320704 0
M  V30 5799 O 565.924 2.69778 -0.30534 0
M  V30 5800 C 564.38 2.20403 -2.84518 0
M  V30 5801 C 563.988 1.54499 -4.20516 0
M  V30 5802 C 565.732 2.95843 -3.0443 0
M  V30 5803 C 563.639 2.51951 -5.35047 0
M  V30 5804 H 562.569 0.456367 -0.600204 0
M  V30 5805 H 565.22 0.48254 -1.77042 0
M  V30 5806 H 563.602 2.96746 -2.62217 0
M  V30 5807 H 564.776 0.83899 -4.53098 0
M  V30 5808 H 563.091 0.913152 -4.06264 0
M  V30 5809 H 565.688 3.6879 -3.87167 0
M  V30 5810 H 566.031 3.55622 -2.16423 0
M  V30 5811 H 566.564 2.26611 -3.26944 0
M  V30 5812 H 563.303 1.96901 -6.25228 0
M  V30 5813 H 562.823 3.20683 -5.06875 0
M  V30 5814 H 564.502 3.13643 -5.65895 0
M  V30 5815 N 564.634 1.40294 0.718013 0
M  V30 5816 C 565.597 1.4012 1.81381 0
M  V30 5817 C 566.597 0.295405 1.58063 0
M  V30 5818 O 567.787 0.554187 1.6515 0
M  V30 5819 C 564.919 1.19056 3.19435 0
M  V30 5820 H 566.112 2.37645 1.82933 0
M  V30 5821 H 563.665 1.26107 0.923405 0
M  V30 5822 H 564.4 0.222809 3.23534 0
M  V30 5823 H 564.185 1.99152 3.37758 0
M  V30 5824 H 565.675 1.21716 3.99468 0
M  V30 5825 N 566.112 -0.949982 1.2575 0
M  V30 5826 C 567.358 -1.69766 1.10938 0
M  V30 5827 C 567.691 -1.91056 -0.348028 0
M  V30 5828 O 566.966 -1.48488 -1.25625 0
M  V30 5829 C 567.249 -3.07779 1.86933 0
M  V30 5830 C 567.102 -2.9387 3.4053 0
M  V30 5831 C 568.421 -4.07749 1.65616 0
M  V30 5832 H 565.54 -0.616144 0.404396 0
M  V30 5833 H 568.182 -1.10394 1.54639 0
M  V30 5834 H 566.332 -3.58462 1.4979 0
M  V30 5835 H 568.004 -2.50476 3.87375 0
M  V30 5836 H 566.247 -2.29686 3.68004 0
M  V30 5837 H 566.918 -3.91719 3.88922 0
M  V30 5838 H 569.394 -3.65994 1.97959 0
M  V30 5839 H 568.27 -5.02348 2.21218 0
M  V30 5840 H 568.531 -4.38029 0.598595 0
M  V30 5841 N 567.59 -1.07411 -1.15328 0
M  V30 5842 C 568.5 -0.706438 -2.23711 0
M  V30 5843 C 569.516 0.282586 -1.7169 0
M  V30 5844 O 570.692 0.129066 -2.00986 0
M  V30 5845 C 567.757 -0.11048 -3.46524 0
M  V30 5846 C 566.818 -1.15282 -4.13532 0
M  V30 5847 C 566.051 -0.585205 -5.30482 0
M  V30 5848 O 566.274 0.598549 -5.67251 0
M  V30 5849 O 565.208 -1.33039 -5.87013 0
M  V30 5850 H 569.034 -1.61031 -2.57493 0
M  V30 5851 H 566.619 -0.847113 -1.23062 0
M  V30 5852 H 568.501 0.21957 -4.20828 0
M  V30 5853 H 567.176 0.766703 -3.14489 0
M  V30 5854 H 566.083 -1.53523 -3.41147 0
M  V30 5855 H 567.416 -2.00192 -4.49649 0
M  V30 5856 N 569.068 1.32177 -0.85831 0
M  V30 5857 C 570.314 1.97813 -0.47346 0
M  V30 5858 C 570.669 1.66674 0.961122 0
M  V30 5859 O 569.962 0.94657 1.66585 0
M  V30 5860 C 570.156 3.51372 -0.653658 0
M  V30 5861 C 569.985 3.97433 -2.1042 0
M  V30 5862 C 568.755 4.24338 -2.74345 0
M  V30 5863 C 570.953 4.12233 -3.0752 0
M  V30 5864 N 568.935 4.56672 -4.10272 0
M  V30 5865 C 570.306 4.48146 -4.28445 0
M  V30 5866 C 572.361 3.94577 -3.03667 0
M  V30 5867 C 571.064 4.68246 -5.4602 0
M  V30 5868 C 573.09 4.15864 -4.20489 0
M  V30 5869 C 572.452 4.52098 -5.40173 0
M  V30 5870 H 568.551 0.749808 -0.222061 0
M  V30 5871 H 571.135 1.59927 -1.11047 0
M  V30 5872 H 569.306 3.88372 -0.0463267 0
M  V30 5873 H 571.038 4.03998 -0.238343 0
M  V30 5874 H 567.793 4.16544 -2.25362 0
M  V30 5875 H 568.217 4.77019 -4.80398 0
M  V30 5876 H 572.859 3.65662 -2.12252 0
M  V30 5877 H 570.577 4.96014 -6.37962 0
M  V30 5878 H 574.163 4.03702 -4.18947 0
M  V30 5879 H 573.043 4.68238 -6.29065 0
M  V30 5880 N 570.547 0.616602 1.45037 0
M  V30 5881 C 571.457 -0.0985401 2.34393 0
M  V30 5882 C 572.473 -0.850971 1.51771 0
M  V30 5883 O 573.649 -0.806521 1.84546 0
M  V30 5884 C 570.714 -1.07748 3.29532 0
M  V30 5885 C 569.775 -0.326022 4.2806 0
M  V30 5886 C 569.008 -1.25833 5.18654 0
M  V30 5887 O 569.231 -2.49652 5.12864 0
M  V30 5888 O 568.165 -0.750512 5.97203 0
M  V30 5889 H 571.991 0.636016 2.96966 0
M  V30 5890 H 569.576 0.376832 1.44569 0
M  V30 5891 H 571.458 -1.64107 3.88133 0
M  V30 5892 H 570.133 -1.79291 2.69512 0
M  V30 5893 H 569.04 0.280253 3.73049 0
M  V30 5894 H 570.373 0.349091 4.9096 0
M  V30 5895 N 572.025 -1.5352 0.356285 0
M  V30 5896 C 573.25 -2.06007 -0.239961 0
M  V30 5897 C 573.675 -1.22872 -1.42422 0
M  V30 5898 O 573.033 -0.245516 -1.7963 0
M  V30 5899 C 573.081 -3.5522 -0.620587 0
M  V30 5900 O 572.185 -3.74864 -1.71902 0
M  V30 5901 H 571.526 -0.662961 -0.0371377 0
M  V30 5902 H 574.056 -1.98033 0.514194 0
M  V30 5903 H 574.066 -3.98081 -0.894197 0
M  V30 5904 H 572.741 -4.15175 0.245407 0
M  V30 5905 H 571.318 -3.43904 -1.44169 0
M  V30 5906 N 573.503 -0.0852151 -1.57369 0
M  V30 5907 C 574.451 0.894856 -2.14698 0
M  V30 5908 C 575.445 1.29903 -1.08727 0
M  V30 5909 O 576.651 1.27471 -1.27088 0
M  V30 5910 H 573.026 0.306569 -0.686673 0
M  V30 5911 H 574.997 0.386542 -2.95886 0
M  V30 5912 C 573.746 2.14798 -2.73417 0
M  V30 5913 H 573.069 1.84585 -3.54638 0
M  V30 5914 H 574.509 2.81456 -3.1711 0
M  V30 5915 C 572.968 2.91546 -1.68828 0
M  V30 5916 O 573.498 3.85733 -1.12129 0
M  V30 5917 N 571.704 2.54901 -1.39549 0
M  V30 5918 H 571.251 1.7838 -1.85845 0
M  V30 5919 H 571.209 3.06553 -0.698054 0
M  V30 5920 N 574.981 1.5647 0.188427 0
M  V30 5921 C 576.229 1.80655 0.905986 0
M  V30 5922 C 576.55 0.659391 1.83513 0
M  V30 5923 O 575.82 -0.321868 1.93238 0
M  V30 5924 H 574.4 0.666391 0.337538 0
M  V30 5925 H 577.062 1.93949 0.192339 0
M  V30 5926 H 576.158 2.74066 1.49313 0
M  V30 5927 N 576.459 -0.456382 1.50847 0
M  V30 5928 C 577.391 -1.57033 1.66953 0
M  V30 5929 C 578.404 -1.53207 0.550593 0
M  V30 5930 O 579.593 -1.58328 0.824285 0
M  V30 5931 C 576.693 -2.95937 1.65149 0
M  V30 5932 C 575.866 -3.24475 2.93317 0
M  V30 5933 C 574.925 -4.43007 2.83957 0
M  V30 5934 O 573.951 -4.42592 3.57912 0
M  V30 5935 N 575.153 -5.45503 1.9851 0
M  V30 5936 H 577.918 -1.43629 2.63042 0
M  V30 5937 H 575.479 -0.645037 1.48495 0
M  V30 5938 H 577.471 -3.73224 1.56481 0
M  V30 5939 H 576.041 -3.03036 0.767343 0
M  V30 5940 H 575.261 -2.35664 3.16 0
M  V30 5941 H 576.549 -3.4036 3.78196 0
M  V30 5942 H 575.947 -5.48668 1.37766 0
M  V30 5943 H 574.504 -6.21716 1.95735 0
M  V30 5944 N 577.937 -1.40673 -0.710563 0
M  V30 5945 C 579.348 -1.34975 -1.28991 0
M  V30 5946 C 579.699 -0.0256272 -1.96183 0
M  V30 5947 O 578.824 0.876339 -1.97862 0
M  V30 5948 C 579.419 -2.44467 -2.34567 0
M  V30 5949 C 577.978 -2.42213 -2.88114 0
M  V30 5950 C 577.125 -2.25085 -1.61963 0
M  V30 5951 H 580.076 -1.50406 -0.506343 0
M  V30 5952 H 580.097 -2.12663 -3.15523 0
M  V30 5953 H 579.609 -3.40825 -1.85634 0
M  V30 5954 H 577.71 -1.49568 -3.41263 0
M  V30 5955 H 577.823 -3.37983 -3.39565 0
M  V30 5956 H 576.187 -1.72691 -1.87216 0
M  V30 5957 H 576.97 -3.23449 -1.15047 0
M  V30 5958 N 579.415 0.9433 -1.26252 0
M  V30 5959 C 580.325 2.07532 -1.09397 0
M  V30 5960 C 581.341 1.73977 -0.0280449 0
M  V30 5961 O 582.517 2.00067 -0.231337 0
M  V30 5962 C 579.582 3.39002 -0.726523 0
M  V30 5963 C 578.643 3.86353 -1.87163 0
M  V30 5964 C 577.876 5.11549 -1.52162 0
M  V30 5965 O 578.099 5.68834 -0.422385 0
M  V30 5966 O 577.033 5.53889 -2.35565 0
M  V30 5967 H 580.859 2.24658 -2.04359 0
M  V30 5968 H 578.444 1.05988 -1.05295 0
M  V30 5969 H 580.326 4.18 -0.534236 0
M  V30 5970 H 579.001 3.2312 0.193721 0
M  V30 5971 H 577.908 3.0831 -2.11886 0
M  V30 5972 H 579.241 4.06752 -2.77152 0
M  V30 5973 N 580.893 1.08022 1.14757 0
M  V30 5974 C 581.841 0.701088 2.21783 0
M  V30 5975 C 582.835 -0.291311 1.66876 0
M  V30 5976 O 584.041 -0.154296 1.79337 0
M  V30 5977 H 580.416 0.208668 0.722469 0
M  V30 5978 H 582.387 1.61321 2.51034 0
M  V30 5979 C 581.136 0.122278 3.47485 0
M  V30 5980 H 580.459 0.877065 3.90061 0
M  V30 5981 H 581.899 -0.105248 4.23869 0
M  V30 5982 C 580.358 -1.13883 3.17068 0
M  V30 5983 O 580.888 -2.22429 3.34497 0
M  V30 5984 N 579.094 -1.04767 2.71058 0
M  V30 5985 H 578.641 -0.164302 2.57075 0
M  V30 5986 H 578.599 -1.89224 2.51081 0
M  V30 5987 N 582.371 -1.3172 0.865308 0
M  V30 5988 C 583.319 -2.30569 0.306674 0
M  V30 5989 C 584.313 -1.59317 -0.575724 0
M  V30 5990 O 585.519 -1.73961 -0.462343 0
M  V30 5991 H 581.894 -0.747681 0.0804834 0
M  V30 5992 H 583.865 -2.75165 1.15441 0
M  V30 5993 C 582.614 -3.44358 -0.480952 0
M  V30 5994 H 581.937 -3.99354 0.18876 0
M  V30 5995 H 583.377 -4.15652 -0.837241 0
M  V30 5996 C 581.836 -2.92574 -1.67039 0
M  V30 5997 O 582.366 -2.90954 -2.76964 0
M  V30 5998 N 580.572 -2.48835 -1.50097 0
M  V30 5999 H 580.119 -2.50353 -0.606738 0
M  V30 6000 H 580.077 -2.14543 -2.29823 0
M  V30 6001 N 583.85 -0.624285 -1.44708 0
M  V30 6002 C 585.08 -0.132726 -2.06173 0
M  V30 6003 C 585.488 1.19513 -1.46674 0
M  V30 6004 O 584.831 1.74254 -0.581491 0
M  V30 6005 C 584.893 0.0636732 -3.59444 0
M  V30 6006 C 584.557 -1.18496 -4.4137 0
M  V30 6007 C 585.553 -2.10706 -4.75288 0
M  V30 6008 C 583.239 -1.41846 -4.81856 0
M  V30 6009 C 585.233 -3.24582 -5.48567 0
M  V30 6010 C 582.92 -2.5602 -5.54885 0
M  V30 6011 C 583.918 -3.47215 -5.88159 0
M  V30 6012 O 583.606 -4.59399 -6.59703 0
M  V30 6013 H 583.338 -0.0737313 -0.671967 0
M  V30 6014 H 585.892 -0.856789 -1.86677 0
M  V30 6015 H 584.122 0.842809 -3.77404 0
M  V30 6016 H 585.811 0.508924 -4.02697 0
M  V30 6017 H 586.577 -1.93898 -4.44554 0
M  V30 6018 H 582.456 -0.717556 -4.55381 0
M  V30 6019 H 586 -3.95785 -5.74456 0
M  V30 6020 H 581.897 -2.72774 -5.85034 0
M  V30 6021 H 582.665 -4.58293 -6.78166 0
M  V30 6022 N 585.328 1.53329 -0.364422 0
M  V30 6023 C 586.275 2.25698 0.482607 0
M  V30 6024 C 587.245 1.26325 1.07848 0
M  V30 6025 O 588.43 1.55104 1.11119 0
M  V30 6026 C 585.57 3.04873 1.61699 0
M  V30 6027 C 584.683 4.19135 1.0464 0
M  V30 6028 C 583.818 4.85754 2.14979 0
M  V30 6029 C 582.857 5.9205 1.5538 0
M  V30 6030 N 581.994 6.52365 2.59547 0
M  V30 6031 H 586.834 2.97666 -0.141032 0
M  V30 6032 H 584.371 1.46875 -0.0813692 0
M  V30 6033 H 586.329 3.49051 2.28516 0
M  V30 6034 H 584.959 2.35162 2.2113 0
M  V30 6035 H 584.011 3.79451 0.268553 0
M  V30 6036 H 585.323 4.95525 0.570653 0
M  V30 6037 H 584.477 5.3311 2.89619 0
M  V30 6038 H 583.216 4.08834 2.65906 0
M  V30 6039 H 582.221 5.44058 0.792549 0
M  V30 6040 H 583.446 6.7089 1.0528 0
M  V30 6041 H 581.392 5.78298 3.09689 0
M  V30 6042 H 581.309 7.2429 2.16655 0
M  V30 6043 H 582.577 7.0437 3.33892 0
M  V30 6044 N 586.806 0.0935595 1.57322 0
M  V30 6045 C 588.034 -0.578934 1.98635 0
M  V30 6046 C 588.449 -1.61819 0.972626 0
M  V30 6047 O 587.806 -1.82461 -0.0379638 0
M  V30 6048 C 587.857 -1.22802 3.40003 0
M  V30 6049 O 587.578 -0.230334 4.37494 0
M  V30 6050 C 589.079 -1.98627 3.96311 0
M  V30 6051 H 586.299 -0.155324 0.652775 0
M  V30 6052 H 588.843 0.172393 2.03772 0
M  V30 6053 H 586.998 -1.93029 3.35885 0
M  V30 6054 H 587.412 -0.698649 5.19826 0
M  V30 6055 H 588.886 -2.39405 4.97382 0
M  V30 6056 H 589.363 -2.85151 3.34044 0
M  V30 6057 H 589.969 -1.3322 4.03897 0
M  V30 6058 N 588.284 -1.56567 -0.180126 0
M  V30 6059 C 589.512 -1.85618 -0.913972 0
M  V30 6060 C 589.927 -0.677892 -1.7621 0
M  V30 6061 O 589.284 0.353171 -1.7905 0
M  V30 6062 C 589.335 -3.13619 -1.79793 0
M  V30 6063 O 589.056 -4.26906 -0.98402 0
M  V30 6064 C 590.557 -3.55954 -2.64219 0
M  V30 6065 H 587.777 -0.616043 -0.265954 0
M  V30 6066 H 590.321 -2.03681 -0.182872 0
M  V30 6067 H 588.476 -2.97409 -2.48247 0
M  V30 6068 H 588.89 -4.9989 -1.58776 0
M  V30 6069 H 590.364 -4.48444 -3.21873 0
M  V30 6070 H 590.841 -2.79653 -3.38661 0
M  V30 6071 H 591.447 -3.74746 -2.01111 0
M  V30 6072 N 589.762 0.448376 -1.51087 0
M  V30 6073 C 591.173 1.0286 -1.5581 0
M  V30 6074 C 591.524 1.92583 -0.374989 0
M  V30 6075 O 590.649 2.10316 0.509533 0
M  V30 6076 C 591.244 1.87223 -2.8237 0
M  V30 6077 C 589.803 2.40314 -2.897 0
M  V30 6078 C 588.95 1.19238 -2.50355 0
M  V30 6079 H 591.901 0.230075 -1.57023 0
M  V30 6080 H 591.922 2.72553 -2.6551 0
M  V30 6081 H 591.434 1.21894 -3.68461 0
M  V30 6082 H 589.535 3.09129 -2.08014 0
M  V30 6083 H 589.648 2.73866 -3.93108 0
M  V30 6084 H 588.012 1.53428 -2.03303 0
M  V30 6085 H 588.795 0.555367 -3.38778 0
M  V30 6086 N 591.24 1.41047 0.703093 0
M  V30 6087 C 592.651 1.35657 1.28274 0
M  V30 6088 C 593.002 0.0360309 1.96167 0
M  V30 6089 O 592.127 -0.865833 1.98324 0
M  V30 6090 C 592.722 2.45707 2.33267 0
M  V30 6091 C 591.281 2.43738 2.86825 0
M  V30 6092 C 590.428 2.25941 1.60767 0
M  V30 6093 H 593.379 1.50672 0.49836 0
M  V30 6094 H 593.4 2.14333 3.14391 0
M  V30 6095 H 592.912 3.41805 1.83824 0
M  V30 6096 H 591.013 1.51375 3.40465 0
M  V30 6097 H 591.126 3.39779 3.37768 0
M  V30 6098 H 589.49 1.73681 1.86298 0
M  V30 6099 H 590.273 3.24054 1.1333 0
M  V30 6100 N 592.718 -0.936591 1.26751 0
M  V30 6101 C 593.964 -1.6858 1.12733 0
M  V30 6102 C 594.297 -1.91414 -0.327745 0
M  V30 6103 O 593.572 -1.49812 -1.24043 0
M  V30 6104 C 593.855 -3.05779 1.90187 0
M  V30 6105 C 593.708 -2.90242 3.43627 0
M  V30 6106 C 595.027 -4.0597 1.69931 0
M  V30 6107 H 592.146 -0.61182 0.410908 0
M  V30 6108 H 594.788 -1.08747 1.55801 0
M  V30 6109 H 592.938 -3.56853 1.53584 0
M  V30 6110 H 594.61 -2.46354 3.9001 0
M  V30 6111 H 592.853 -2.2577 3.70419 0
M  V30 6112 H 593.524 -3.87572 3.93055 0
M  V30 6113 H 596 -3.63874 2.0183 0
M  V30 6114 H 594.876 -4.99974 2.26534 0
M  V30 6115 H 595.137 -4.37369 0.64502 0
M  V30 6116 N 594.196 -1.08629 -1.14182 0
M  V30 6117 C 595.126 -0.740003 -2.21464 0
M  V30 6118 C 596.107 0.278591 -1.67803 0
M  V30 6119 O 597.292 0.148461 -1.93632 0
M  V30 6120 C 594.422 -0.150952 -3.46972 0
M  V30 6121 C 593.376 -1.09815 -4.13672 0
M  V30 6122 C 592.702 -0.3712 -5.3341 0
M  V30 6123 C 594.002 -2.43722 -4.61949 0
M  V30 6124 H 595.696 -1.63697 -2.50686 0
M  V30 6125 H 593.242 -0.788526 -1.20492 0
M  V30 6126 H 595.195 0.103325 -4.21273 0
M  V30 6127 H 593.919 0.781164 -3.1712 0
M  V30 6128 H 592.578 -1.33756 -3.41328 0
M  V30 6129 H 592.226 0.564792 -4.99819 0
M  V30 6130 H 591.926 -1.00267 -5.78982 0
M  V30 6131 H 593.45 -0.12503 -6.10472 0
M  V30 6132 H 594.864 -2.24034 -5.27714 0
M  V30 6133 H 593.261 -3.02582 -5.18232 0
M  V30 6134 H 594.331 -3.05082 -3.76899 0
M  V30 6135 N 595.674 1.31259 -0.872281 0
M  V30 6136 C 596.951 1.91362 -0.404943 0
M  V30 6137 C 597.331 1.79362 1.11321 0
M  V30 6138 O 596.679 1.20277 1.94283 0
M  V30 6139 C 596.889 3.3749 -0.888893 0
M  V30 6140 C 598.237 4.14593 -0.916384 0
M  V30 6141 O 599.261 3.46282 -0.834701 0
M  V30 6142 O 598.12 5.3661 -1.03498 0
M  V30 6143 H 595.214 0.818016 -0.121569 0
M  V30 6144 H 597.76 1.39912 -0.960346 0
M  V30 6145 H 596.532 3.40249 -1.93251 0
M  V30 6146 H 596.155 3.96375 -0.311932 0
M  V30 6147 N 597.152 0.631951 1.44375 0
M  V30 6148 C 598.377 0.142146 2.06912 0
M  V30 6149 C 598.802 -1.17456 1.4692 0
M  V30 6150 O 598.16 -1.72074 0.570975 0
M  V30 6151 C 598.208 0.0417952 3.60576 0
M  V30 6152 O 597.312 -1.00194 4.00044 0
M  V30 6153 H 596.653 0.0851491 0.658518 0
M  V30 6154 H 599.183 0.868863 1.85235 0
M  V30 6155 H 599.193 -0.148517 4.0773 0
M  V30 6156 H 597.868 1.0031 4.03622 0
M  V30 6157 H 596.445 -0.786131 3.64519 0
M  V30 6158 N 598.631 -1.53133 0.372548 0
M  V30 6159 C 599.908 -1.93704 -0.271693 0
M  V30 6160 C 600.288 -1.30667 -1.65799 0
M  V30 6161 O 599.636 -0.46838 -2.23648 0
M  V30 6162 C 599.846 -3.47576 -0.314903 0
M  V30 6163 C 601.194 -4.20998 -0.551912 0
M  V30 6164 O 602.218 -3.53994 -0.39582 0
M  V30 6165 O 601.077 -5.39748 -0.85639 0
M  V30 6166 H 598.171 -0.810457 -0.164586 0
M  V30 6167 H 600.717 -1.6427 0.425838 0
M  V30 6168 H 599.489 -3.85749 0.656792 0
M  V30 6169 H 599.112 -3.83264 -1.05804 0
M  V30 6170 N 600.109 -0.101901 -1.5727 0
M  V30 6171 C 601.357 0.559091 -1.94213 0
M  V30 6172 C 601.678 1.68297 -0.984948 0
M  V30 6173 O 600.948 1.95863 -0.0381975 0
M  V30 6174 H 599.528 0.20952 -0.717015 0
M  V30 6175 H 602.19 -0.166831 -1.94185 0
M  V30 6176 H 601.286 0.96485 -2.96811 0
M  V30 6177 N 601.587 1.56661 0.17182 0
M  V30 6178 C 602.812 1.86459 0.908165 0
M  V30 6179 C 603.237 0.688181 1.75059 0
M  V30 6180 O 602.595 -0.362753 1.77634 0
M  V30 6181 C 602.643 3.14669 1.76112 0
M  V30 6182 O 601.747 2.96858 2.86268 0
M  V30 6183 H 601.088 0.613318 0.254434 0
M  V30 6184 H 603.618 2.03892 0.170113 0
M  V30 6185 H 603.628 3.46061 2.16115 0
M  V30 6186 H 602.303 3.99905 1.14233 0
M  V30 6187 H 600.88 2.76819 2.49852 0
M  V30 6188 N 603.065 -0.440357 1.51323 0
M  V30 6189 C 604.312 -1.19004 1.63842 0
M  V30 6190 C 604.64 -1.91266 0.35321 0
M  V30 6191 O 603.895 -1.84143 -0.662565 0
M  V30 6192 C 604.194 -2.2339 2.78984 0
M  V30 6193 C 603.86 -1.68162 4.18369 0
M  V30 6194 C 602.522 -1.52823 4.56288 0
M  V30 6195 C 604.874 -1.27524 5.05358 0
M  V30 6196 C 602.202 -0.953157 5.78906 0
M  V30 6197 C 604.554 -0.714474 6.28552 0
M  V30 6198 C 603.218 -0.547961 6.65247 0
M  V30 6199 H 602.488 -0.435468 0.59954 0
M  V30 6200 H 605.135 -0.481538 1.85347 0
M  V30 6201 H 603.44 -3.00267 2.51688 0
M  V30 6202 H 605.137 -2.81211 2.85869 0
M  V30 6203 H 601.727 -1.81077 3.8847 0
M  V30 6204 H 605.911 -1.38197 4.76671 0
M  V30 6205 H 601.167 -0.811882 6.05986 0
M  V30 6206 H 605.341 -0.391059 6.95301 0
M  V30 6207 H 602.968 -0.100222 7.60134 0
M  V30 6208 N 604.543 -1.41418 -0.695603 0
M  V30 6209 C 605.79 -1.40774 -1.45564 0
M  V30 6210 C 606.118 -0.0168604 -1.94493 0
M  V30 6211 O 605.373 0.971259 -1.69897 0
M  V30 6212 C 605.672 -2.36112 -2.68302 0
M  V30 6213 C 605.338 -3.82952 -2.38031 0
M  V30 6214 C 604 -4.22954 -2.29486 0
M  V30 6215 C 606.352 -4.75662 -2.13061 0
M  V30 6216 C 603.68 -5.53674 -1.94067 0
M  V30 6217 C 606.032 -6.06702 -1.79151 0
M  V30 6218 C 604.696 -6.45725 -1.69102 0
M  V30 6219 H 603.966 -0.515128 -0.532658 0
M  V30 6220 H 606.613 -1.74216 -0.795047 0
M  V30 6221 H 604.918 -1.95924 -3.39295 0
M  V30 6222 H 606.615 -2.32887 -3.26442 0
M  V30 6223 H 603.205 -3.5127 -2.45576 0
M  V30 6224 H 607.389 -4.45561 -2.18608 0
M  V30 6225 H 602.645 -5.8279 -1.8484 0
M  V30 6226 H 606.819 -6.78041 -1.5885 0
M  V30 6227 H 604.446 -7.46929 -1.41426 0
M  V30 6228 N 606.021 0.929856 -1.27246 0
M  V30 6229 C 606.951 2.04722 -1.12299 0
M  V30 6230 C 607.932 1.70082 -0.0250464 0
M  V30 6231 O 609.117 1.93176 -0.199141 0
M  V30 6232 C 606.247 3.38721 -0.767145 0
M  V30 6233 C 605.201 3.87466 -1.81808 0
M  V30 6234 C 604.527 5.18246 -1.31626 0
M  V30 6235 C 605.827 4.11095 -3.22177 0
M  V30 6236 H 607.521 2.17485 -2.05769 0
M  V30 6237 H 605.067 1.04503 -0.990715 0
M  V30 6238 H 607.02 4.16366 -0.649413 0
M  V30 6239 H 605.744 3.25967 0.203259 0
M  V30 6240 H 604.403 3.12012 -1.92468 0
M  V30 6241 H 604.051 5.01881 -0.335378 0
M  V30 6242 H 603.751 5.51829 -2.01887 0
M  V30 6243 H 605.275 5.98462 -1.21143 0
M  V30 6244 H 606.689 4.79316 -3.1453 0
M  V30 6245 H 605.086 4.55982 -3.90129 0
M  V30 6246 H 606.156 3.16468 -3.67391 0
M  V30 6247 N 607.499 1.09233 1.13605 0
M  V30 6248 C 608.729 0.847677 1.88409 0
M  V30 6249 C 609.137 -0.604524 1.79282 0
M  V30 6250 O 608.48 -1.42773 1.15592 0
M  V30 6251 C 608.542 1.20153 3.38827 0
M  V30 6252 C 608.206 2.65824 3.71735 0
M  V30 6253 C 609.203 3.64072 3.71143 0
M  V30 6254 C 606.888 3.01894 4.01454 0
M  V30 6255 C 608.882 4.96419 3.99808 0
M  V30 6256 C 606.569 4.34433 4.29781 0
M  V30 6257 C 607.567 5.31505 4.28942 0
M  V30 6258 O 607.255 6.61659 4.56576 0
M  V30 6259 H 606.987 0.304813 0.603378 0
M  V30 6260 H 609.541 1.4573 1.44748 0
M  V30 6261 H 607.771 0.534946 3.82982 0
M  V30 6262 H 609.46 0.936349 3.94952 0
M  V30 6263 H 610.226 3.37549 3.4826 0
M  V30 6264 H 606.105 2.26971 4.01255 0
M  V30 6265 H 609.649 5.7218 3.99069 0
M  V30 6266 H 605.546 4.607 4.52135 0
M  V30 6267 H 606.314 6.67102 4.74254 0
M  V30 6268 N 608.977 -1.30795 0.87923 0
M  V30 6269 C 610.202 -2.01063 0.508769 0
M  V30 6270 C 610.627 -1.65508 -0.893803 0
M  V30 6271 O 609.985 -0.868616 -1.59138 0
M  V30 6272 C 610.033 -3.54054 0.683991 0
M  V30 6273 O 609.137 -4.11498 -0.272654 0
M  V30 6274 H 608.478 -0.632786 0.201191 0
M  V30 6275 H 611.008 -1.66776 1.18519 0
M  V30 6276 H 611.018 -4.03845 0.580798 0
M  V30 6277 H 609.693 -3.79271 1.70665 0
M  V30 6278 H 608.27 -3.72695 -0.12364 0
M  V30 6279 N 610.455 -0.639598 -1.44038 0
M  V30 6280 C 611.871 -0.305953 -1.5664 0
M  V30 6281 C 612.071 1.19055 -1.62567 0
M  V30 6282 O 611.127 1.97492 -1.57331 0
M  V30 6283 C 612.44 -1.00533 -2.83397 0
M  V30 6284 C 613.988 -0.984278 -2.97121 0
M  V30 6285 C 614.463 -1.66428 -4.26691 0
M  V30 6286 N 615.954 -1.63127 -4.33525 0
M  V30 6287 C 616.689 -2.12629 -5.32519 0
M  V30 6288 N 616.185 -2.70359 -6.3787 0
M  V30 6289 N 617.978 -2.03208 -5.24083 0
M  V30 6290 H 610.129 -1.6109 -1.38434 0
M  V30 6291 H 612.392 -0.676672 -0.663942 0
M  V30 6292 H 612.098 -2.06034 -2.85032 0
M  V30 6293 H 611.972 -0.548362 -3.73193 0
M  V30 6294 H 614.359 0.0622792 -2.95034 0
M  V30 6295 H 614.44 -1.47981 -2.08651 0
M  V30 6296 H 614.084 -2.71034 -4.29538 0
M  V30 6297 H 614.014 -1.14351 -5.14034 0
M  V30 6298 H 616.505 -1.20987 -3.58009 0
M  V30 6299 H 616.818 -3.05842 -7.09704 0
M  V30 6300 H 615.163 -2.74414 -6.38531 0
M  V30 6301 H 618.354 -1.57823 -4.40692 0
M  V30 6302 H 618.527 -2.42097 -6.01077 0
M  V30 6303 N 611.933 1.52934 -0.380664 0
M  V30 6304 C 612.863 2.29118 0.450268 0
M  V30 6305 C 613.844 1.32153 1.07096 0
M  V30 6306 O 615.029 1.61038 1.08537 0
M  V30 6307 C 612.159 3.09161 1.58231 0
M  V30 6308 C 611.113 4.13938 1.0881 0
M  V30 6309 C 610.439 4.82153 2.31155 0
M  V30 6310 C 611.739 5.22048 0.162146 0
M  V30 6311 H 613.433 2.98826 -0.185361 0
M  V30 6312 H 610.979 1.43715 -0.0905886 0
M  V30 6313 H 612.932 3.61211 2.17036 0
M  V30 6314 H 611.656 2.3717 2.2454 0
M  V30 6315 H 610.315 3.62855 0.522633 0
M  V30 6316 H 609.963 4.06719 2.95953 0
M  V30 6317 H 609.663 5.52966 1.98752 0
M  V30 6318 H 611.187 5.37004 2.90618 0
M  V30 6319 H 612.601 5.6951 0.658126 0
M  V30 6320 H 610.998 6.00057 -0.0717122 0
M  V30 6321 H 612.068 4.78398 -0.791438 0
M  V30 6322 N 613.412 0.11024 1.57214 0
M  V30 6323 C 614.64 -0.557834 1.99238 0
M  V30 6324 C 615.055 -1.60778 0.989734 0
M  V30 6325 O 614.412 -1.82491 -0.0186092 0
M  V30 6326 C 614.463 -1.19189 3.41286 0
M  V30 6327 O 614.184 -0.183919 4.37714 0
M  V30 6328 C 615.685 -1.94413 3.98395 0
M  V30 6329 H 612.905 -0.148392 0.654386 0
M  V30 6330 H 615.449 0.193996 2.03578 0
M  V30 6331 H 613.604 -1.89456 3.37913 0
M  V30 6332 H 614.018 -0.643475 5.20538 0
M  V30 6333 H 615.492 -2.34116 4.99894 0
M  V30 6334 H 615.969 -2.81592 3.3705 0
M  V30 6335 H 616.575 -1.28928 4.05287 0
M  V30 6336 N 614.89 -1.56749 -0.16351 0
M  V30 6337 C 616.136 -1.82704 -0.880168 0
M  V30 6338 C 616.469 -0.689311 -1.81555 0
M  V30 6339 O 615.744 0.308224 -1.92042 0
M  V30 6340 C 616.027 -3.19084 -1.66905 0
M  V30 6341 C 615.88 -4.43397 -0.756269 0
M  V30 6342 C 617.199 -3.52493 -2.63509 0
M  V30 6343 H 614.318 -0.664608 -0.318535 0
M  V30 6344 H 616.96 -1.89438 -0.146036 0
M  V30 6345 H 615.11 -3.13475 -2.2949 0
M  V30 6346 H 616.782 -4.61079 -0.14269 0
M  V30 6347 H 615.025 -4.33752 -0.0647944 0
M  V30 6348 H 615.696 -5.3539 -1.34393 0
M  V30 6349 H 618.172 -3.58606 -2.11047 0
M  V30 6350 H 617.048 -4.48979 -3.15767 0
M  V30 6351 H 617.309 -2.77597 -3.44082 0
M  V30 6352 N 616.368 0.432326 -1.51554 0
M  V30 6353 C 617.645 1.19288 -1.55015 0
M  V30 6354 C 618.025 2.08701 -0.317375 0
M  V30 6355 O 617.373 2.17602 0.697243 0
M  V30 6356 C 617.583 1.99037 -2.86679 0
M  V30 6357 C 618.931 2.55907 -3.38817 0
M  V30 6358 O 619.955 2.09243 -2.88263 0
M  V30 6359 O 618.814 3.41029 -4.27038 0
M  V30 6360 H 615.908 0.543369 -0.623441 0
M  V30 6361 H 618.454 0.440988 -1.6387 0
M  V30 6362 H 617.226 1.33397 -3.6786 0
M  V30 6363 H 616.849 2.81281 -2.8101 0
M  V30 6364 N 617.846 1.41785 0.688094 0
M  V30 6365 C 618.793 1.44221 1.80191 0
M  V30 6366 C 619.763 0.295688 1.63447 0
M  V30 6367 O 620.948 0.49783 1.84191 0
M  V30 6368 C 618.088 1.33743 3.1813 0
M  V30 6369 C 617.201 2.58325 3.46254 0
M  V30 6370 C 616.336 2.40086 4.73848 0
M  V30 6371 C 615.375 3.60107 4.94964 0
M  V30 6372 N 614.512 3.40892 6.13789 0
M  V30 6373 H 619.352 2.39411 1.77444 0
M  V30 6374 H 616.889 1.18876 0.866423 0
M  V30 6375 H 618.847 1.25669 3.97823 0
M  V30 6376 H 617.477 0.42157 3.20035 0
M  V30 6377 H 616.529 2.7682 2.60912 0
M  V30 6378 H 617.841 3.4758 3.57756 0
M  V30 6379 H 616.995 2.29522 5.61609 0
M  V30 6380 H 615.734 1.483 4.64606 0
M  V30 6381 H 614.739 3.71118 4.05649 0
M  V30 6382 H 615.964 4.52857 5.06061 0
M  V30 6383 H 613.91 2.51812 6.05745 0
M  V30 6384 H 613.827 4.23727 6.26092 0
M  V30 6385 H 615.095 3.34114 7.04264 0
M  V30 6386 N 619.324 -0.923095 1.27737 0
M  V30 6387 C 620.549 -1.71054 1.17283 0
M  V30 6388 C 620.974 -1.86208 -0.266153 0
M  V30 6389 O 620.332 -1.36545 -1.1927 0
M  V30 6390 C 620.38 -3.0854 1.86642 0
M  V30 6391 O 619.484 -3.95528 1.16752 0
M  V30 6392 H 618.825 -0.524136 0.407649 0
M  V30 6393 H 621.355 -1.15487 1.6889 0
M  V30 6394 H 621.365 -3.58828 1.94182 0
M  V30 6395 H 620.04 -2.96828 2.91317 0
M  V30 6396 H 618.617 -3.53967 1.17312 0
M  V30 6397 N 620.802 -1.09834 -1.13024 0
M  V30 6398 C 622.218 -0.828875 -1.36388 0
M  V30 6399 C 622.418 0.554756 -1.93713 0
M  V30 6400 O 621.474 1.30882 -2.15931 0
M  V30 6401 C 622.787 -1.92352 -2.3113 0
M  V30 6402 C 624.335 -1.95124 -2.44735 0
M  V30 6403 C 624.81 -3.03745 -3.42787 0
M  V30 6404 N 626.301 -3.03012 -3.5034 0
M  V30 6405 C 627.036 -3.83699 -4.26101 0
M  V30 6406 N 626.532 -4.74306 -5.04981 0
M  V30 6407 N 628.325 -3.71942 -4.21445 0
M  V30 6408 H 620.476 -1.99029 -0.74169 0
M  V30 6409 H 622.739 -0.864557 -0.388903 0
M  V30 6410 H 622.445 -2.91906 -1.96172 0
M  V30 6411 H 622.319 -1.80536 -3.3119 0
M  V30 6412 H 624.706 -0.962069 -2.78977 0
M  V30 6413 H 624.787 -2.11018 -1.44586 0
M  V30 6414 H 624.431 -4.02878 -3.09276 0
M  V30 6415 H 624.361 -2.85094 -4.42752 0
M  V30 6416 H 626.852 -2.37352 -2.94062 0
M  V30 6417 H 627.165 -5.32446 -5.60108 0
M  V30 6418 H 625.51 -4.78339 -5.04199 0
M  V30 6419 H 628.701 -3.00513 -3.589 0
M  V30 6420 H 628.874 -4.35062 -4.80235 0
M  V30 6421 N 622.28 1.30327 -0.886154 0
M  V30 6422 C 623.526 1.96764 -0.515312 0
M  V30 6423 C 623.881 1.68675 0.925552 0
M  V30 6424 O 623.174 0.981693 1.6454 0
M  V30 6425 C 623.368 3.49906 -0.728042 0
M  V30 6426 C 623.197 3.92881 -2.18803 0
M  V30 6427 C 621.967 4.18424 -2.83284 0
M  V30 6428 C 624.165 4.05617 -3.16195 0
M  V30 6429 N 622.147 4.47867 -4.19867 0
M  V30 6430 C 623.518 4.38957 -4.37855 0
M  V30 6431 C 625.573 3.88047 -3.11968 0
M  V30 6432 C 624.276 4.56559 -5.55829 0
M  V30 6433 C 626.302 4.06851 -4.29215 0
M  V30 6434 C 625.664 4.40538 -5.49641 0
M  V30 6435 H 621.763 0.74493 -0.237916 0
M  V30 6436 H 624.347 1.57536 -1.14414 0
M  V30 6437 H 622.518 3.88187 -0.128696 0
M  V30 6438 H 624.25 4.03401 -0.323983 0
M  V30 6439 H 621.005 4.1167 -2.34146 0
M  V30 6440 H 621.429 4.66721 -4.90408 0
M  V30 6441 H 626.071 3.61078 -2.19961 0
M  V30 6442 H 623.789 4.8237 -6.4834 0
M  V30 6443 H 627.375 3.94724 -4.27416 0
M  V30 6444 H 626.255 4.54789 -6.38856 0
M  V30 6445 N 623.758 0.647228 1.43697 0
M  V30 6446 C 624.69 -0.0866232 2.29036 0
M  V30 6447 C 625.703 -0.793051 1.42178 0
M  V30 6448 O 626.892 -0.651807 1.66174 0
M  V30 6449 C 623.992 -1.14552 3.18953 0
M  V30 6450 C 623.165 -0.518422 4.34317 0
M  V30 6451 C 622.224 -1.4734 5.05151 0
M  V30 6452 O 621.25 -0.984312 5.60625 0
M  V30 6453 N 622.452 -2.8075 5.08094 0
M  V30 6454 H 625.217 0.645834 2.92659 0
M  V30 6455 H 622.778 0.489567 1.54321 0
M  V30 6456 H 624.77 -1.78505 3.63205 0
M  V30 6457 H 623.34 -1.78001 2.56971 0
M  V30 6458 H 622.56 0.300079 3.93056 0
M  V30 6459 H 623.848 -0.080401 5.08736 0
M  V30 6460 H 623.246 -3.23052 4.64386 0
M  V30 6461 H 621.803 -3.40022 5.56083 0
M  V30 6462 N 625.236 -1.5273 0.388769 0
M  V30 6463 C 626.146 -2.30165 -0.453993 0
M  V30 6464 C 627.162 -1.37058 -1.07197 0
M  V30 6465 O 628.338 -1.70127 -1.0779 0
M  V30 6466 C 625.403 -3.09303 -1.56628 0
M  V30 6467 C 624.464 -4.18117 -0.973467 0
M  V30 6468 C 623.697 -4.93472 -2.03275 0
M  V30 6469 O 623.92 -4.68913 -3.24772 0
M  V30 6470 O 622.854 -5.78833 -1.65034 0
M  V30 6471 H 626.68 -3.03185 0.176816 0
M  V30 6472 H 624.265 -1.4862 0.152501 0
M  V30 6473 H 626.147 -3.58648 -2.21246 0
M  V30 6474 H 624.822 -2.39098 -2.18206 0
M  V30 6475 H 623.729 -3.7297 -0.290556 0
M  V30 6476 H 625.062 -4.90556 -0.401908 0
M  V30 6477 N 626.714 -0.118576 -1.57153 0
M  V30 6478 C 627.962 0.538461 -1.94795 0
M  V30 6479 C 628.283 1.67243 -1.00274 0
M  V30 6480 O 627.553 1.95811 -0.0589692 0
M  V30 6481 H 626.133 0.201904 -0.719197 0
M  V30 6482 H 628.795 -0.187418 -1.93997 0
M  V30 6483 H 627.891 0.933315 -2.97818 0
M  V30 6484 N 628.193 1.56834 0.155195 0
M  V30 6485 C 629.141 1.98584 1.21107 0
M  V30 6486 C 630.135 0.876987 1.44932 0
M  V30 6487 O 631.341 1.06215 1.45322 0
M  V30 6488 H 627.716 0.632039 0.407469 0
M  V30 6489 H 629.687 2.86561 0.832195 0
M  V30 6490 C 628.436 2.37555 2.53895 0
M  V30 6491 H 627.759 3.22428 2.3639 0
M  V30 6492 H 629.199 2.70598 3.26424 0
M  V30 6493 C 627.658 1.22507 3.13837 0
M  V30 6494 O 628.188 0.521388 3.98302 0
M  V30 6495 N 626.394 0.991444 2.73164 0
M  V30 6496 H 625.941 1.56544 2.04577 0
M  V30 6497 H 625.899 0.223546 3.13604 0
M  V30 6498 N 629.671 -0.424282 1.51781 0
M  V30 6499 C 630.917 -1.17434 1.6534 0
M  V30 6500 C 631.25 -1.90549 0.374806 0
M  V30 6501 O 630.525 -1.84145 -0.626179 0
M  V30 6502 C 630.808 -2.18093 2.86544 0
M  V30 6503 C 630.661 -1.48975 4.24413 0
M  V30 6504 C 631.98 -3.18934 3.03264 0
M  V30 6505 H 629.099 -0.425566 0.601716 0
M  V30 6506 H 631.741 -0.461921 1.84299 0
M  V30 6507 H 629.891 -2.78849 2.7051 0
M  V30 6508 H 631.563 -0.914551 4.52143 0
M  V30 6509 H 629.806 -0.791893 4.26511 0
M  V30 6510 H 630.477 -2.22347 5.05238 0
M  V30 6511 H 632.953 -2.68243 3.18096 0
M  V30 6512 H 631.829 -3.86645 3.89611 0
M  V30 6513 H 632.09 -3.85793 2.15908 0
M  V30 6514 N 631.149 -1.42148 -0.680565 0
M  V30 6515 C 632.396 -1.4231 -1.44063 0
M  V30 6516 C 632.724 -0.037488 -1.94464 0
M  V30 6517 O 631.979 0.953184 -1.70918 0
M  V30 6518 C 632.278 -2.38945 -2.65782 0
M  V30 6519 C 631.944 -3.85455 -2.33956 0
M  V30 6520 C 630.606 -4.25364 -2.24987 0
M  V30 6521 C 632.958 -4.77895 -2.08004 0
M  V30 6522 C 630.286 -5.55701 -1.88184 0
M  V30 6523 C 632.638 -6.08568 -1.72706 0
M  V30 6524 C 631.302 -6.47482 -1.62244 0
M  V30 6525 H 630.572 -0.520748 -0.527164 0
M  V30 6526 H 633.219 -1.7505 -0.776524 0
M  V30 6527 H 631.524 -1.99511 -3.37198 0
M  V30 6528 H 633.221 -2.36336 -3.23954 0
M  V30 6529 H 629.811 -3.53855 -2.41836 0
M  V30 6530 H 633.995 -4.47854 -2.1387 0
M  V30 6531 H 629.251 -5.84718 -1.78648 0
M  V30 6532 H 633.425 -6.79688 -1.5165 0
M  V30 6533 H 631.052 -7.48387 -1.33496 0
M  V30 6534 N 632.627 0.916307 -1.28225 0
M  V30 6535 C 633.852 1.7043 -1.18188 0
M  V30 6536 C 634.277 1.86346 0.256274 0
M  V30 6537 O 633.635 1.37175 1.18544 0
M  V30 6538 C 633.683 3.07546 -1.88275 0
M  V30 6539 O 632.787 3.94904 -1.18848 0
M  V30 6540 H 632.128 0.521967 -0.410423 0
M  V30 6541 H 634.658 1.14589 -1.69501 0
M  V30 6542 H 634.668 3.57793 -1.96082 0
M  V30 6543 H 633.343 2.95279 -2.92887 0
M  V30 6544 H 631.92 3.53339 -1.19187 0
M  V30 6545 N 634.105 1.10431 1.1244 0
M  V30 6546 C 635.345 0.856518 1.85589 0
M  V30 6547 C 635.709 -0.606905 1.82156 0
M  V30 6548 O 636.91 -0.97105 2.50647 0
M  V30 6549 C 635.181 1.38977 3.29272 0
M  V30 6550 S 636.74 1.27739 4.19795 0
M  V30 6551 H 633.558 0.309509 0.640098 0
M  V30 6552 H 636.16 1.40975 1.35449 0
M  V30 6553 H 634.864 2.44887 3.2933 0
M  V30 6554 H 634.395 0.833112 3.84477 0
M  V30 6555 H 636.41 0.235051 4.95643 0
M  V30 6556 N 635.583 -1.29855 0.893053 0
M  V30 6557 C 636.808 -2.00512 0.530066 0
M  V30 6558 C 637.233 -1.66446 -0.876199 0
M  V30 6559 O 636.591 -0.885446 -1.58207 0
M  V30 6560 C 636.639 -3.53308 0.721505 0
M  V30 6561 O 635.743 -4.11764 -0.228994 0
M  V30 6562 H 635.084 -0.630617 0.207891 0
M  V30 6563 H 637.614 -1.6551 1.20282 0
M  V30 6564 H 637.624 -4.03206 0.623599 0
M  V30 6565 H 636.299 -3.77439 1.74678 0
M  V30 6566 H 634.876 -3.72805 -0.0841034 0
M  V30 6567 N 637.061 -0.65484 -1.43351 0
M  V30 6568 C 638.307 -0.169142 -2.02093 0
M  V30 6569 C 638.64 1.21431 -1.51553 0
M  V30 6570 O 637.915 1.81105 -0.709317 0
M  V30 6571 C 638.198 -0.181775 -3.59641 0
M  V30 6572 C 638.051 -1.59926 -4.20409 0
M  V30 6573 C 639.37 0.480945 -4.37464 0
M  V30 6574 H 636.489 -0.0629371 -0.734308 0
M  V30 6575 H 639.131 -0.835833 -1.70628 0
M  V30 6576 H 637.281 0.385918 -3.86578 0
M  V30 6577 H 638.953 -2.21766 -4.04497 0
M  V30 6578 H 637.196 -2.14605 -3.76998 0
M  V30 6579 H 637.867 -1.55994 -5.295 0
M  V30 6580 H 640.343 -0.00208273 -4.161 0
M  V30 6581 H 639.219 0.441384 -5.47122 0
M  V30 6582 H 639.48 1.55533 -4.13838 0
M  V30 6583 N 638.539 1.52521 -0.396863 0
M  V30 6584 C 639.472 2.23118 0.478926 0
M  V30 6585 C 640.45 1.23475 1.05796 0
M  V30 6586 O 641.634 1.52486 1.10817 0
M  V30 6587 C 638.761 2.95028 1.66362 0
M  V30 6588 C 637.807 4.09002 1.20913 0
M  V30 6589 S 638.64 5.35182 0.184407 0
M  V30 6590 C 639.796 6.10616 1.37471 0
M  V30 6591 H 640.029 2.97056 -0.120542 0
M  V30 6592 H 637.562 1.53334 -0.18109 0
M  V30 6593 H 639.52 3.37066 2.34301 0
M  V30 6594 H 638.181 2.20756 2.23441 0
M  V30 6595 H 637.374 4.58445 2.09389 0
M  V30 6596 H 636.976 3.69016 0.608559 0
M  V30 6597 H 639.268 6.37247 2.30048 0
M  V30 6598 H 640.211 7.02084 0.921051 0
M  V30 6599 H 640.619 5.41499 1.59495 0
M  V30 6600 N 640.017 0.126909 1.57088 0
M  V30 6601 C 640.967 -0.831678 2.1229 0
M  V30 6602 C 641.951 -1.22292 1.04564 0
M  V30 6603 O 643.143 -1.19269 1.30782 0
M  V30 6604 C 640.272 -2.07866 2.73215 0
M  V30 6605 C 639.358 -1.71143 3.88035 0
M  V30 6606 N 639.749 -1.05136 4.94753 0
M  V30 6607 C 638.047 -2.00549 3.98367 0
M  V30 6608 C 638.748 -0.877257 5.75047 0
M  V30 6609 N 637.724 -1.40477 5.25135 0
M  V30 6610 H 641.526 -0.317926 2.92175 0
M  V30 6611 H 639.04 -0.0753052 1.62225 0
M  V30 6612 H 641.037 -2.77516 3.11111 0
M  V30 6613 H 639.697 -2.59778 1.94796 0
M  V30 6614 H 640.708 -0.71442 5.12949 0
M  V30 6615 H 637.385 -2.54452 3.30999 0
M  V30 6616 H 638.775 -0.358536 6.70943 0
M  V30 6617 N 641.495 -1.56914 -0.146875 0
M  V30 6618 C 642.405 -2.0154 -1.20079 0
M  V30 6619 C 643.421 -0.930838 -1.47008 0
M  V30 6620 O 644.597 -1.24032 -1.58676 0
M  V30 6621 C 641.662 -2.38715 -2.51428 0
M  V30 6622 C 640.723 -3.6112 -2.32145 0
M  V30 6623 C 639.956 -3.96512 -3.57231 0
M  V30 6624 O 640.179 -3.32566 -4.63418 0
M  V30 6625 O 639.113 -4.89758 -3.49887 0
M  V30 6626 H 642.939 -2.91506 -0.851924 0
M  V30 6627 H 640.524 -1.45106 -0.355607 0
M  V30 6628 H 642.406 -2.63485 -3.28867 0
M  V30 6629 H 641.081 -1.51903 -2.85845 0
M  V30 6630 H 639.988 -3.41536 -1.52656 0
M  V30 6631 H 641.321 -4.48549 -2.02644 0
M  V30 6632 N 642.974 0.416227 -1.52004 0
M  V30 6633 C 643.937 1.48926 -1.74223 0
M  V30 6634 C 644.937 1.48693 -0.612119 0
M  V30 6635 O 646.127 1.50343 -0.879921 0
M  V30 6636 C 643.259 2.88372 -1.81809 0
M  V30 6637 H 644.452 1.3052 -2.70008 0
M  V30 6638 H 642.005 0.646271 -1.42313 0
M  V30 6639 H 642.74 3.12157 -0.879135 0
M  V30 6640 H 642.525 2.89944 -2.6396 0
M  V30 6641 H 644.015 3.66173 -2.00766 0
M  V30 6642 N 644.452 1.42507 0.673017 0
M  V30 6643 C 645.382 1.48916 1.79851 0
M  V30 6644 C 646.363 0.345566 1.66553 0
M  V30 6645 O 647.548 0.560116 1.85947 0
M  V30 6646 C 644.678 1.39258 3.18158 0
M  V30 6647 C 643.632 2.51662 3.46194 0
M  V30 6648 C 642.958 2.27062 4.84094 0
M  V30 6649 C 644.258 3.93968 3.42909 0
M  V30 6650 H 645.952 2.43114 1.74745 0
M  V30 6651 H 643.498 1.17013 0.839288 0
M  V30 6652 H 645.451 1.42349 3.96629 0
M  V30 6653 H 644.175 0.415542 3.23946 0
M  V30 6654 H 642.834 2.47891 2.70084 0
M  V30 6655 H 642.482 1.27648 4.86534 0
M  V30 6656 H 642.182 3.02398 5.03815 0
M  V30 6657 H 643.706 2.31905 5.64847 0
M  V30 6658 H 645.12 3.99332 4.11347 0
M  V30 6659 H 643.517 4.6917 3.74165 0
M  V30 6660 H 644.587 4.20512 2.41449 0
M  V30 6661 N 645.93 -0.909495 1.28709 0
M  V30 6662 C 646.88 -1.9991 1.09636 0
M  V30 6663 C 647.864 -1.60889 0.01872 0
M  V30 6664 O 649.056 -1.75374 0.239338 0
M  V30 6665 C 646.185 -3.34675 0.764702 0
M  V30 6666 C 645.271 -3.80085 1.8814 0
M  V30 6667 N 645.662 -3.97824 3.12361 0
M  V30 6668 C 643.96 -4.09278 1.77221 0
M  V30 6669 C 644.661 -4.35928 3.85151 0
M  V30 6670 N 643.637 -4.44426 3.13028 0
M  V30 6671 H 647.439 -2.11681 2.03883 0
M  V30 6672 H 644.953 -1.09763 1.1969 0
M  V30 6673 H 646.95 -4.12426 0.609132 0
M  V30 6674 H 645.61 -3.24255 -0.169952 0
M  V30 6675 H 646.621 -3.83626 3.47925 0
M  V30 6676 H 643.298 -4.0747 0.909621 0
M  V30 6677 H 644.688 -4.57581 4.92006 0
M  V30 6678 N 647.408 -1.11026 -1.11852 0
M  V30 6679 C 648.356 -0.759643 -2.19846 0
M  V30 6680 C 649.35 0.246964 -1.6759 0
M  V30 6681 O 650.556 0.106693 -1.79684 0
M  V30 6682 H 646.931 -0.22775 -0.716683 0
M  V30 6683 H 648.902 -1.6792 -2.46669 0
M  V30 6684 C 647.651 -0.214364 -3.47039 0
M  V30 6685 H 646.974 -0.980175 -3.87599 0
M  V30 6686 H 648.414 -0.00717047 -4.23999 0
M  V30 6687 C 646.873 1.05436 -3.19976 0
M  V30 6688 O 647.403 2.13483 -3.40276 0
M  V30 6689 N 645.609 0.975436 -2.7374 0
M  V30 6690 H 645.156 0.0960853 -2.57421 0
M  V30 6691 H 645.114 1.82501 -2.5601 0
M  V30 6692 N 648.886 1.2938 -0.899927 0
M  V30 6693 C 649.836 2.25311 -0.349165 0
M  V30 6694 C 650.82 1.51889 0.530892 0
M  V30 6695 O 652.012 1.73028 0.372872 0
M  V30 6696 C 649.141 3.40696 0.422055 0
M  V30 6697 C 648.227 4.21455 -0.472935 0
M  V30 6698 N 648.618 4.8048 -1.58026 0
M  V30 6699 C 646.916 4.45177 -0.270767 0
M  V30 6700 C 647.617 5.41117 -2.13465 0
M  V30 6701 N 646.593 5.24518 -1.42766 0
M  V30 6702 H 650.395 2.68507 -1.19505 0
M  V30 6703 H 647.909 1.43992 -0.751006 0
M  V30 6704 H 649.906 4.08486 0.833369 0
M  V30 6705 H 648.566 2.99037 1.2652 0
M  V30 6706 H 649.577 4.79257 -1.96299 0
M  V30 6707 H 646.254 4.14071 0.533988 0
M  V30 6708 H 647.644 5.979 -3.06537 0
M  V30 6709 N 650.364 0.662433 1.43002 0
M  V30 6710 C 651.594 0.187343 2.05749 0
M  V30 6711 C 652.002 -1.15582 1.49791 0
M  V30 6712 O 651.345 -1.72651 0.627487 0
M  V30 6713 C 651.407 0.0316493 3.59486 0
M  V30 6714 C 651.071 1.30156 4.38073 0
M  V30 6715 C 652.068 2.23234 4.69535 0
M  V30 6716 C 649.753 1.54572 4.77926 0
M  V30 6717 C 651.747 3.39012 5.39768 0
M  V30 6718 C 649.434 2.70641 5.47902 0
M  V30 6719 C 650.432 3.62687 5.78746 0
M  V30 6720 O 650.12 4.76728 6.47291 0
M  V30 6721 H 649.852 0.0915214 0.669776 0
M  V30 6722 H 652.406 0.905982 1.8434 0
M  V30 6723 H 650.636 -0.742451 3.79506 0
M  V30 6724 H 652.325 -0.401977 4.03905 0
M  V30 6725 H 653.091 2.05616 4.39257 0
M  V30 6726 H 648.97 0.83804 4.53319 0
M  V30 6727 H 652.514 4.10877 5.63761 0
M  V30 6728 H 648.411 2.88189 5.77596 0
M  V30 6729 H 649.179 4.76113 6.65777 0
M  V30 6730 N 651.842 -1.52309 0.404946 0
M  V30 6731 C 653.07 -2.06185 -0.171818 0
M  V30 6732 C 653.485 -1.27536 -1.39212 0
M  V30 6733 O 652.842 -0.326112 -1.79563 0
M  V30 6734 C 652.893 -3.57647 -0.526417 0
M  V30 6735 O 652.614 -4.3332 0.645417 0
M  V30 6736 C 654.115 -4.27925 -1.15736 0
M  V30 6737 H 651.335 -0.670632 -0.0222328 0
M  V30 6738 H 653.879 -1.96259 0.574692 0
M  V30 6739 H 652.034 -3.67595 -1.22282 0
M  V30 6740 H 652.448 -5.23328 0.35042 0
M  V30 6741 H 653.922 -5.35093 -1.35572 0
M  V30 6742 H 654.399 -3.84134 -2.12926 0
M  V30 6743 H 655.005 -4.22335 -0.501281 0
M  V30 6744 N 653.32 -0.135238 -1.57019 0
M  V30 6745 C 654.252 0.839675 -2.13265 0
M  V30 6746 C 655.265 1.21887 -1.07923 0
M  V30 6747 O 656.454 1.16499 -1.35241 0
M  V30 6748 C 653.554 2.13647 -2.63075 0
M  V30 6749 C 652.727 1.92646 -3.92691 0
M  V30 6750 C 651.786 3.06205 -4.27931 0
M  V30 6751 O 650.812 2.78409 -4.96465 0
M  V30 6752 N 652.014 4.33072 -3.86561 0
M  V30 6753 H 654.779 0.359026 -2.97542 0
M  V30 6754 H 652.34 0.0486979 -1.61827 0
M  V30 6755 H 654.332 2.88641 -2.8367 0
M  V30 6756 H 652.902 2.5301 -1.83588 0
M  V30 6757 H 652.122 1.01754 -3.80841 0
M  V30 6758 H 653.41 1.75939 -4.77413 0
M  V30 6759 H 652.808 4.58526 -3.31316 0
M  V30 6760 H 651.365 5.04885 -4.12231 0
M  V30 6761 N 654.798 1.5699 0.138552 0
M  V30 6762 C 655.745 1.98899 1.17081 0
M  V30 6763 C 656.715 0.857922 1.42228 0
M  V30 6764 O 657.9 1.12065 1.54422 0
M  V30 6765 C 655.04 2.38189 2.4972 0
M  V30 6766 C 654.153 3.64624 2.31674 0
M  V30 6767 C 653.288 3.9298 3.57407 0
M  V30 6768 C 652.327 5.1266 3.34435 0
M  V30 6769 N 651.464 5.36983 4.5232 0
M  V30 6770 H 656.304 2.86881 0.80642 0
M  V30 6771 H 653.841 1.41925 0.386727 0
M  V30 6772 H 655.799 2.59 3.2707 0
M  V30 6773 H 654.429 1.53275 2.84089 0
M  V30 6774 H 653.481 3.51542 1.45337 0
M  V30 6775 H 654.793 4.52131 2.10664 0
M  V30 6776 H 653.947 4.14335 4.43183 0
M  V30 6777 H 652.686 3.03912 3.8143 0
M  V30 6778 H 651.691 4.9117 2.47048 0
M  V30 6779 H 652.916 6.03288 3.11802 0
M  V30 6780 H 650.862 4.50871 4.76499 0
M  V30 6781 H 650.779 6.18775 4.34343 0
M  V30 6782 H 652.047 5.62842 5.39285 0
M  V30 6783 N 656.276 -0.40816 1.52223 0
M  V30 6784 C 657.501 -1.18127 1.70472 0
M  V30 6785 C 657.926 -1.83491 0.41384 0
M  V30 6786 O 657.284 -1.70047 -0.628778 0
M  V30 6787 C 657.332 -2.21935 2.84213 0
M  V30 6788 O 656.436 -3.28099 2.4985 0
M  V30 6789 H 655.777 -0.344781 0.56747 0
M  V30 6790 H 658.307 -0.478328 1.9893 0
M  V30 6791 H 658.317 -2.66248 3.09153 0
M  V30 6792 H 656.992 -1.73744 3.7787 0
M  V30 6793 H 655.569 -2.89058 2.35584 0
M  V30 6794 N 657.755 -1.42862 -0.66545 0
M  V30 6795 C 658.685 -1.49867 -1.79059 0
M  V30 6796 C 659.666 -0.354394 -1.66367 0
M  V30 6797 O 660.851 -0.569969 -1.85647 0
M  V30 6798 C 657.981 -1.40943 -3.17415 0
M  V30 6799 C 656.935 -2.53495 -3.44854 0
M  V30 6800 C 656.261 -2.29626 -4.82883 0
M  V30 6801 C 657.561 -3.95781 -3.40815 0
M  V30 6802 H 659.255 -2.44037 -1.73453 0
M  V30 6803 H 656.801 -1.17456 -0.833071 0
M  V30 6804 H 658.754 -1.4445 -3.95869 0
M  V30 6805 H 657.478 -0.432716 -3.23721 0
M  V30 6806 H 656.137 -2.4932 -2.68766 0
M  V30 6807 H 655.785 -1.30226 -4.8585 0
M  V30 6808 H 655.485 -3.05065 -5.02204 0
M  V30 6809 H 657.009 -2.34897 -5.63609 0
M  V30 6810 H 658.423 -4.01508 -4.09224 0
M  V30 6811 H 656.82 -4.71148 -3.71672 0
M  V30 6812 H 657.89 -4.21786 -2.39216 0
M  V30 6813 N 659.233 0.902656 -1.29189 0
M  V30 6814 C 660.458 1.69167 -1.19989 0
M  V30 6815 C 660.883 1.86607 0.236495 0
M  V30 6816 O 660.241 1.38425 1.17082 0
M  V30 6817 C 660.289 3.05532 -1.91527 0
M  V30 6818 O 659.393 3.93621 -1.2303 0
M  V30 6819 H 658.734 0.517584 -0.415936 0
M  V30 6820 H 661.264 1.12785 -1.70706 0
M  V30 6821 H 661.274 3.55693 -1.99866 0
M  V30 6822 H 659.949 2.92156 -2.96003 0
M  V30 6823 H 658.526 3.52055 -1.22928 0
M  V30 6824 N 660.711 1.11618 1.11262 0
M  V30 6825 C 661.641 0.79846 2.19424 0
M  V30 6826 C 662.622 -0.234003 1.68483 0
M  V30 6827 O 663.807 -0.0970704 1.93957 0
M  V30 6828 C 660.937 0.242892 3.4645 0
M  V30 6829 C 659.891 1.20744 4.10615 0
M  V30 6830 C 659.217 0.512494 5.32238 0
M  V30 6831 C 660.517 2.55884 4.55325 0
M  V30 6832 H 662.211 1.70286 2.46258 0
M  V30 6833 H 659.757 0.820195 1.18359 0
M  V30 6834 H 661.71 0.00840447 4.21399 0
M  V30 6835 H 660.434 -0.696811 3.1908 0
M  V30 6836 H 659.093 1.42759 3.37662 0
M  V30 6837 H 658.741 -0.432075 5.01141 0
M  V30 6838 H 658.441 1.15583 5.7612 0
M  V30 6839 H 659.965 0.286842 6.09926 0
M  V30 6840 H 661.379 2.37946 5.21588 0
M  V30 6841 H 659.776 3.16216 5.10027 0
M  V30 6842 H 660.846 3.14968 3.68678 0
M  V30 6843 N 662.189 -1.289 0.906776 0
M  V30 6844 C 663.414 -1.99939 0.551303 0
M  V30 6845 C 663.839 -1.67366 -0.858496 0
M  V30 6846 O 663.197 -0.902176 -1.57259 0
M  V30 6847 C 663.245 -3.52523 0.758937 0
M  V30 6848 O 662.349 -4.11983 -0.185308 0
M  V30 6849 H 661.69 -0.628376 0.214568 0
M  V30 6850 H 664.22 -1.64225 1.2203 0
M  V30 6851 H 664.23 -4.02522 0.666329 0
M  V30 6852 H 662.905 -3.75566 1.78671 0
M  V30 6853 H 661.482 -3.72873 -0.0445577 0
M  V30 6854 N 663.667 -0.670007 -1.42649 0
M  V30 6855 C 664.597 -0.00258501 -2.335 0
M  V30 6856 C 665.578 0.794364 -1.50412 0
M  V30 6857 O 666.763 0.75248 -1.79029 0
M  V30 6858 C 663.893 0.952748 -3.33976 0
M  V30 6859 C 662.847 0.264733 -4.2718 0
M  V30 6860 C 662.173 1.33267 -5.17826 0
M  V30 6861 C 663.473 -0.853289 -5.15283 0
M  V30 6862 H 665.167 -0.761326 -2.89559 0
M  V30 6863 H 662.713 -0.367561 -1.3923 0
M  V30 6864 H 664.666 1.4287 -3.96442 0
M  V30 6865 H 663.39 1.74285 -2.7621 0
M  V30 6866 H 662.049 -0.190938 -3.66102 0
M  V30 6867 H 661.697 2.11464 -4.5639 0
M  V30 6868 H 661.397 0.877476 -5.81011 0
M  V30 6869 H 662.921 1.80965 -5.83167 0
M  V30 6870 H 664.335 -0.458763 -5.71462 0
M  V30 6871 H 662.732 -1.23398 -5.87276 0
M  V30 6872 H 663.802 -1.70412 -4.53969 0
M  V30 6873 N 665.145 1.52092 -0.413018 0
M  V30 6874 C 666.393 2.01456 0.161178 0
M  V30 6875 C 666.714 1.30034 1.45314 0
M  V30 6876 O 665.984 0.427435 1.9118 0
M  V30 6877 H 664.564 0.744376 0.0625526 0
M  V30 6878 H 667.226 1.86974 -0.550151 0
M  V30 6879 H 666.322 3.1008 0.354517 0
M  V30 6880 O 666.662 0.284301 1.58978 0
M  V30 6881 H 667.353 -0.283792 1.9161 0
M  V30 END ATOM
M  V30 BEGIN BOND
M  V30 END BOND
M  V30 END CTAB
M  END
$$$$
