drugbank_drug|DB12023 Heavy chain
 OpenBabel12092119123D

  0  0  0     0  0            999 V3000
M  V30 BEGIN CTAB
M  V30 COUNTS 6936 7029 0 0 0
M  V30 BEGIN ATOM
M  V30 1 H -0.908 1.98254 -0.117106 0
M  V30 2 N 0 1.576 0 0
M  V30 3 C 0.91 2.11853 1.00774 0
M  V30 4 C 1.926 1.06379 1.37693 0
M  V30 5 O 3.102 1.3828 1.46426 0
M  V30 6 C 0.167 2.61108 2.28087 0
M  V30 7 C -0.772 3.81183 1.9748 0
M  V30 8 C -1.539 4.28079 3.18723 0
M  V30 9 O -1.316 3.74307 4.30407 0
M  V30 10 O -2.382 5.20234 3.02721 0
M  V30 11 H 1.444 2.98177 0.576547 0
M  V30 12 H -0.971 1.47789 0.218828 0
M  V30 13 H 0.911 2.92987 3.0288 0
M  V30 14 H -0.414 1.77881 2.70444 0
M  V30 15 H -1.507 3.54277 1.20162 0
M  V30 16 H -0.174 4.65482 1.5996 0
M  V30 17 N 1.4781 -0.272755 1.55222 0
M  V30 18 C 2.7241 -1.00581 1.761 0
M  V30 19 C 3.0571 -1.85932 0.560625 0
M  V30 20 O 2.3321 -1.89416 -0.441801 0
M  V30 21 C 2.6151 -1.88816 3.06628 0
M  V30 22 C 2.4681 -1.06457 4.37021 0
M  V30 23 C 3.7871 -2.8752 3.33197 0
M  V30 24 H 0.9061 -0.364244 0.640699 0
M  V30 25 H 3.5481 -0.278189 1.87952 0
M  V30 26 H 1.6981 -2.50856 2.96654 0
M  V30 27 H 3.3701 -0.464863 4.58952 0
M  V30 28 H 1.6131 -0.368043 4.32236 0
M  V30 29 H 2.2841 -1.71514 5.24678 0
M  V30 30 H 4.7601 -2.35615 3.42965 0
M  V30 31 H 3.6361 -3.46399 4.25792 0
M  V30 32 H 3.8971 -3.62657 2.52849 0
M  V30 33 N 2.9562 -1.48159 -0.537278 0
M  V30 34 C 3.8882 -1.58218 -1.65831 0
M  V30 35 C 4.9012 -0.466948 -1.5596 0
M  V30 36 O 6.0902 -0.73747 -1.62553 0
M  V30 37 C 3.1902 -1.48906 -3.04434 0
M  V30 38 C 2.3632 -2.75343 -3.3986 0
M  V30 39 C 1.4222 -2.59588 -4.57712 0
M  V30 40 O 0.4482 -3.33457 -4.61297 0
M  V30 41 N 1.6502 -1.68724 -5.55439 0
M  V30 42 H 4.4152 -2.54891 -1.57641 0
M  V30 43 H 1.9762 -1.4479 -0.724386 0
M  V30 44 H 3.9682 -1.36072 -3.81139 0
M  V30 45 H 2.5382 -0.602368 -3.06741 0
M  V30 46 H 1.7582 -3.02795 -2.52406 0
M  V30 47 H 3.0462 -3.5924 -3.60311 0
M  V30 48 H 2.4442 -1.07898 -5.55315 0
M  V30 49 H 1.0012 -1.61832 -6.3139 0
M  V30 50 N 4.4343 0.785586 -1.36625 0
M  V30 51 C 5.3643 1.91259 -1.33949 0
M  V30 52 C 6.3453 1.68795 -0.210325 0
M  V30 53 O 7.5303 1.89854 -0.408561 0
M  V30 54 C 4.6603 3.28339 -1.13186 0
M  V30 55 C 3.6143 3.65335 -2.22967 0
M  V30 56 C 2.9403 5.00806 -1.87342 0
M  V30 57 C 4.2403 3.7352 -3.65075 0
M  V30 58 H 5.9343 1.93755 -2.28253 0
M  V30 59 H 3.4803 0.930788 -1.09874 0
M  V30 60 H 5.4333 4.06804 -1.09948 0
M  V30 61 H 4.1573 3.2624 -0.153332 0
M  V30 62 H 2.8163 2.89169 -2.25337 0
M  V30 63 H 2.4643 4.95233 -0.880545 0
M  V30 64 H 2.1643 5.26529 -2.60846 0
M  V30 65 H 3.6883 5.81687 -1.85667 0
M  V30 66 H 5.1023 4.42168 -3.64911 0
M  V30 67 H 3.4993 4.10731 -4.37516 0
M  V30 68 H 4.5693 2.74527 -3.99703 0
M  V30 69 N 5.9124 1.20967 1.01018 0
M  V30 70 C 7.1584 1.02526 1.74975 0
M  V30 71 C 7.4914 -0.4408 1.89131 0
M  V30 72 O 6.7664 -1.32718 1.42184 0
M  V30 73 C 7.0494 1.71699 3.1653 0
M  V30 74 C 6.9024 3.25791 3.10129 0
M  V30 75 C 8.2214 1.45531 4.15342 0
M  V30 76 H 5.3404 0.373863 0.635134 0
M  V30 77 H 7.9824 1.49071 1.17805 0
M  V30 78 H 6.1324 1.32128 3.65341 0
M  V30 79 H 7.8044 3.74697 2.69072 0
M  V30 80 H 6.0474 3.56363 2.47362 0
M  V30 81 H 6.7184 3.69353 4.10222 0
M  V30 82 H 9.1944 1.79872 3.75213 0
M  V30 83 H 8.0704 1.96453 5.1254 0
M  V30 84 H 8.3314 0.384237 4.40427 0
M  V30 85 N 7.3905 -1.2043 1.01659 0
M  V30 86 C 8.3225 -2.22626 0.544988 0
M  V30 87 C 9.3355 -1.58479 -0.372609 0
M  V30 88 O 10.5245 -1.77679 -0.170958 0
M  V30 89 C 7.6245 -3.38141 -0.22663 0
M  V30 90 C 6.7975 -4.31877 0.692876 0
M  V30 91 C 5.8565 -5.26191 -0.0311616 0
M  V30 92 O 4.8825 -5.6612 0.591343 0
M  V30 93 N 6.0845 -5.65618 -1.30601 0
M  V30 94 H 8.8495 -2.63716 1.42388 0
M  V30 95 H 6.4105 -1.34971 0.894116 0
M  V30 96 H 8.4025 -3.98239 -0.72024 0
M  V30 97 H 6.9725 -2.95943 -1.00681 0
M  V30 98 H 6.1925 -3.69746 1.36679 0
M  V30 99 H 7.4805 -4.91426 1.31824 0
M  V30 100 H 6.8785 -5.3519 -1.83269 0
M  V30 101 H 5.4355 -6.28025 -1.74435 0
M  V30 102 N 8.8686 -0.792821 -1.36206 0
M  V30 103 C 10.0936 -0.377701 -2.03932 0
M  V30 104 C 10.5186 0.998947 -1.59382 0
M  V30 105 O 9.8766 1.64421 -0.763903 0
M  V30 106 C 9.9246 -0.453635 -3.57735 0
M  V30 107 O 9.0286 0.538151 -4.08874 0
M  V30 108 H 8.3696 -0.159855 -0.644471 0
M  V30 109 H 10.8996 -1.07488 -1.7409 0
M  V30 110 H 10.9096 -0.318464 -4.06755 0
M  V30 111 H 9.5846 -1.45784 -3.89512 0
M  V30 112 H 8.1616 0.364359 -3.71116 0
M  V30 113 N 10.3467 1.47872 -0.545128 0
M  V30 114 C 11.5947 2.02093 -0.016553 0
M  V30 115 C 11.9157 1.42305 1.3332 0
M  V30 116 O 11.1857 0.593853 1.86682 0
M  V30 117 H 9.7657 0.746993 -0.00313038 0
M  V30 118 H 12.4277 1.81414 -0.712397 0
M  V30 119 H 11.5237 3.11996 0.0805422 0
M  V30 120 N 11.8248 0.280983 1.55075 0
M  V30 121 C 12.7878 -0.590896 2.21452 0
M  V30 122 C 13.7878 -1.07682 1.19421 0
M  V30 123 O 14.9778 -0.97605 1.44288 0
M  V30 124 C 12.1098 -1.81587 2.88511 0
M  V30 125 H 13.3028 -0.0112554 2.99898 0
M  V30 126 H 10.8558 0.0316438 1.56268 0
M  V30 127 H 11.5908 -2.43587 2.14093 0
M  V30 128 H 11.3758 -1.4753 3.63287 0
M  V30 129 H 12.8658 -2.43575 3.39206 0
M  V30 130 N 13.3029 -1.57598 0.00835791 0
M  V30 131 C 14.2129 -2.12385 -0.996487 0
M  V30 132 C 15.2289 -1.07108 -1.37127 0
M  V30 133 O 16.4049 -1.39055 -1.4569 0
M  V30 134 C 13.4699 -2.62314 -2.26699 0
M  V30 135 C 12.5309 -3.82225 -1.95456 0
M  V30 136 C 11.7639 -4.29763 -3.16449 0
M  V30 137 O 11.9869 -3.76584 -4.28416 0
M  V30 138 O 10.9209 -5.21832 -2.99958 0
M  V30 139 H 14.7469 -2.98479 -0.560725 0
M  V30 140 H 12.3319 -1.47903 -0.210987 0
M  V30 141 H 14.2139 -2.94589 -3.01322 0
M  V30 142 H 12.8889 -1.79313 -2.69497 0
M  V30 143 H 11.7959 -3.54909 -1.18282 0
M  V30 144 H 13.1289 -4.66324 -1.57489 0
M  V30 145 N 14.781 0.264519 -1.55364 0
M  V30 146 C 16.027 0.99646 -1.76631 0
M  V30 147 C 16.36 1.85632 -0.570478 0
M  V30 148 O 15.635 1.89647 0.43175 0
M  V30 149 C 15.918 1.87187 -3.07625 0
M  V30 150 C 15.771 1.04138 -4.37579 0
M  V30 151 C 17.09 2.85749 -3.34717 0
M  V30 152 H 14.209 0.360841 -0.642622 0
M  V30 153 H 16.851 0.268218 -1.88097 0
M  V30 154 H 15.001 2.49279 -2.9798 0
M  V30 155 H 16.673 0.440517 -4.59192 0
M  V30 156 H 14.916 0.345115 -4.32425 0
M  V30 157 H 15.587 1.68729 -5.2558 0
M  V30 158 H 18.063 2.33793 -3.4421 0
M  V30 159 H 16.939 3.44136 -4.27623 0
M  V30 160 H 17.2 3.61311 -2.54768 0
M  V30 161 N 16.2591 1.48442 0.529413 0
M  V30 162 C 17.2061 1.63007 1.63394 0
M  V30 163 C 18.1761 0.47212 1.59249 0
M  V30 164 O 19.3611 0.695673 1.77666 0
M  V30 165 C 16.5011 1.6763 3.01653 0
M  V30 166 C 15.6141 2.94535 3.16027 0
M  V30 167 C 14.7491 2.90316 4.44849 0
M  V30 168 C 13.7881 4.11923 4.52754 0
M  V30 169 N 12.9251 4.05777 5.72965 0
M  V30 170 H 17.7651 2.5733 1.50285 0
M  V30 171 H 15.3021 1.27613 0.731656 0
M  V30 172 H 17.2601 1.68292 3.81751 0
M  V30 173 H 15.8901 0.76797 3.13532 0
M  V30 174 H 14.9421 3.03615 2.29177 0
M  V30 175 H 16.2541 3.84512 3.17729 0
M  V30 176 H 15.4081 2.89382 5.33238 0
M  V30 177 H 14.1471 1.98068 4.45668 0
M  V30 178 H 13.1521 4.13131 3.62771 0
M  V30 179 H 14.3771 5.0533 4.53672 0
M  V30 180 H 12.3231 3.16351 5.74681 0
M  V30 181 H 12.2401 4.8946 5.76164 0
M  V30 182 H 13.5081 4.08904 6.6364 0
M  V30 183 N 17.7372 -0.778329 1.37039 0
M  V30 184 C 18.6842 -1.89139 1.32269 0
M  V30 185 C 19.6542 -1.65017 0.189387 0
M  V30 186 O 20.8392 -1.87024 0.377693 0
M  V30 187 C 17.9792 -3.26112 1.12894 0
M  V30 188 C 17.0922 -3.62233 2.35396 0
M  V30 189 C 16.2272 -4.8838 2.08946 0
M  V30 190 C 15.2662 -5.17212 3.2735 0
M  V30 191 N 14.4032 -6.34546 3.00492 0
M  V30 192 H 19.2432 -1.92552 2.27437 0
M  V30 193 H 16.7802 -0.941473 1.13025 0
M  V30 194 H 18.7382 -4.05116 0.996835 0
M  V30 195 H 17.3682 -3.22091 0.213758 0
M  V30 196 H 16.4202 -2.78265 2.5937 0
M  V30 197 H 17.7322 -3.79481 3.23721 0
M  V30 198 H 16.8862 -5.75274 1.92729 0
M  V30 199 H 15.6252 -4.73222 1.17949 0
M  V30 200 H 14.6302 -4.28796 3.44113 0
M  V30 201 H 15.8552 -5.34283 4.19188 0
M  V30 202 H 13.8012 -6.20759 2.12118 0
M  V30 203 H 13.7182 -6.52179 3.82358 0
M  V30 204 H 14.9862 -7.24394 2.87879 0
M  V30 205 N 19.2153 -1.21501 -1.00376 0
M  V30 206 C 20.6263 -1.03146 -1.55621 0
M  V30 207 C 20.9773 0.408375 -1.91903 0
M  V30 208 O 20.1023 1.29177 -1.73616 0
M  V30 209 C 20.6973 -1.86612 -2.82775 0
M  V30 210 C 19.2563 -1.72586 -3.34501 0
M  V30 211 C 18.4033 -1.83747 -2.07683 0
M  V30 212 H 21.3543 -1.35505 -0.826081 0
M  V30 213 H 21.3753 -1.3771 -3.54706 0
M  V30 214 H 20.8873 -2.91399 -2.56336 0
M  V30 215 H 18.9883 -0.704877 -3.65872 0
M  V30 216 H 19.1013 -2.54623 -4.05837 0
M  V30 217 H 17.4653 -1.27069 -2.20739 0
M  V30 218 H 18.2483 -2.90044 -1.83655 0
M  V30 219 N 20.6934 1.19889 -1.02296 0
M  V30 220 C 21.9414 1.89046 -0.714558 0
M  V30 221 C 22.2624 1.79636 0.758681 0
M  V30 222 O 21.5324 1.20292 1.54618 0
M  V30 223 H 20.1124 0.699802 -0.261317 0
M  V30 224 H 22.7744 1.45574 -1.29592 0
M  V30 225 H 21.8704 2.95524 -1.0036 0
M  V30 226 N 22.1715 0.800033 1.35784 0
M  V30 227 C 23.1345 0.211565 2.28221 0
M  V30 228 C 24.1345 -0.59728 1.49296 0
M  V30 229 O 25.3245 -0.416721 1.69142 0
M  V30 230 C 22.4565 -0.705846 3.33513 0
M  V30 231 H 23.6495 1.02677 2.81776 0
M  V30 232 H 21.2025 0.570211 1.45528 0
M  V30 233 H 21.9375 -1.54498 2.85133 0
M  V30 234 H 21.7225 -0.127655 3.91892 0
M  V30 235 H 23.2125 -1.11211 4.02519 0
M  V30 236 N 23.6496 -1.47581 0.552962 0
M  V30 237 C 24.8746 -2.07378 0.0300593 0
M  V30 238 C 25.2996 -1.40355 -1.25229 0
M  V30 239 O 24.6576 -0.477099 -1.7491 0
M  V30 240 C 24.7056 -3.60274 -0.153231 0
M  V30 241 O 23.8096 -3.94041 -1.21678 0
M  V30 242 H 23.1506 -0.662158 0.0494182 0
M  V30 243 H 25.6806 -1.89662 0.767434 0
M  V30 244 H 25.6906 -4.0633 -0.368761 0
M  V30 245 H 24.3656 -4.08455 0.783397 0
M  V30 246 H 22.9426 -3.59735 -0.982079 0
M  V30 247 N 25.1277 -0.289203 -1.54924 0
M  V30 248 C 26.3737 0.323998 -2.00195 0
M  V30 249 C 26.7067 1.54441 -1.17735 0
M  V30 250 O 25.9817 1.92875 -0.250878 0
M  V30 251 C 26.2647 0.692276 -3.53383 0
M  V30 252 C 26.1177 -0.536457 -4.46589 0
M  V30 253 C 27.4367 1.52335 -4.12895 0
M  V30 254 H 24.5557 0.116289 -0.727768 0
M  V30 255 H 27.1977 -0.398954 -1.85764 0
M  V30 256 H 25.3477 1.30822 -3.65811 0
M  V30 257 H 27.0197 -1.17499 -4.46085 0
M  V30 258 H 25.2627 -1.17192 -4.1767 0
M  V30 259 H 25.9337 -0.234806 -5.515 0
M  V30 260 H 28.4097 1.00302 -4.0383 0
M  V30 261 H 27.2857 1.74982 -5.20262 0
M  V30 262 H 27.5467 2.50886 -3.64018 0
M  V30 263 N 26.6058 1.57591 -0.0167156 0
M  V30 264 C 27.5528 2.09462 0.969251 0
M  V30 265 C 28.5228 0.99381 1.33089 0
M  V30 266 O 29.7078 1.26726 1.42636 0
M  V30 267 C 26.8478 2.61622 2.25051 0
M  V30 268 C 25.9608 3.85666 1.94642 0
M  V30 269 C 25.0958 4.26266 3.16972 0
M  V30 270 C 24.1348 5.43101 2.82326 0
M  V30 271 N 23.2718 5.78915 3.97243 0
M  V30 272 H 28.1118 2.93428 0.519997 0
M  V30 273 H 25.6488 1.45044 0.245087 0
M  V30 274 H 27.6068 2.89949 2.99976 0
M  V30 275 H 26.2368 1.80505 2.67615 0
M  V30 276 H 25.2888 3.64145 1.10013 0
M  V30 277 H 26.6008 4.70678 1.65117 0
M  V30 278 H 25.7548 4.55963 4.00228 0
M  V30 279 H 24.4938 3.39996 3.49648 0
M  V30 280 H 23.4988 5.1311 1.97479 0
M  V30 281 H 24.7238 6.3106 2.50879 0
M  V30 282 H 22.6698 4.95602 4.29785 0
M  V30 283 H 22.5868 6.58539 3.71299 0
M  V30 284 H 23.8548 6.13212 4.81239 0
M  V30 285 N 28.0839 -0.256276 1.55502 0
M  V30 286 C 29.3299 -0.987079 1.77157 0
M  V30 287 C 29.6629 -1.85327 0.580315 0
M  V30 288 O 28.9379 -1.89874 -0.421686 0
M  V30 289 C 29.2209 -1.85553 3.08613 0
M  V30 290 C 29.0739 -1.01816 4.38125 0
M  V30 291 C 30.3929 -2.8397 3.36228 0
M  V30 292 H 27.5119 -0.357428 0.644526 0
M  V30 293 H 30.1539 -0.258239 1.88237 0
M  V30 294 H 28.3039 -2.47695 2.99298 0
M  V30 295 H 29.9759 -0.416159 4.59419 0
M  V30 296 H 28.2189 -0.322178 4.32602 0
M  V30 297 H 28.8899 -1.65939 5.26468 0
M  V30 298 H 31.3659 -2.31964 3.45445 0
M  V30 299 H 30.2419 -3.41864 4.29442 0
M  V30 300 H 30.5029 -3.59955 2.56681 0
M  V30 301 N 29.562 -1.4872 -0.521534 0
M  V30 302 C 30.787 -1.61101 -1.30618 0
M  V30 303 C 31.212 -0.274611 -1.86085 0
M  V30 304 O 30.57 0.754937 -1.64834 0
M  V30 305 C 30.618 -2.66709 -2.4269 0
M  V30 306 O 29.722 -2.24456 -3.45967 0
M  V30 307 H 29.063 -0.539921 -0.386499 0
M  V30 308 H 31.593 -1.94767 -0.626645 0
M  V30 309 H 31.603 -2.88245 -2.88754 0
M  V30 310 H 30.278 -3.63727 -2.01682 0
M  V30 311 H 28.855 -2.13168 -3.05964 0
M  V30 312 N 31.0401 0.771051 -1.3745 0
M  V30 313 C 32.2801 1.54264 -1.34096 0
M  V30 314 C 32.6441 1.91858 0.0737639 0
M  V30 315 O 33.8451 2.67797 0.23203 0
M  V30 316 C 32.1161 2.77326 -2.25445 0
M  V30 317 S 33.6751 3.67383 -2.39948 0
M  V30 318 H 30.4931 0.528122 -0.476034 0
M  V30 319 H 33.0951 0.906633 -1.73206 0
M  V30 320 H 31.7991 2.47788 -3.27153 0
M  V30 321 H 31.3301 3.45886 -1.87421 0
M  V30 322 H 33.3451 4.69334 -1.61059 0
M  V30 323 N 32.5182 1.22032 0.997298 0
M  V30 324 C 33.4652 0.986467 2.08656 0
M  V30 325 C 34.4352 -0.0902671 1.65855 0
M  V30 326 O 35.6202 0.0584294 1.90711 0
M  V30 327 C 32.7602 0.565569 3.40434 0
M  V30 328 C 31.8732 1.71259 3.96604 0
M  V30 329 C 31.0082 1.24011 5.16522 0
M  V30 330 C 30.0472 2.35896 5.64818 0
M  V30 331 N 29.1842 1.89726 6.7598 0
M  V30 332 H 34.0242 1.91892 2.27994 0
M  V30 333 H 31.5612 0.956199 1.11782 0
M  V30 334 H 33.5192 0.302738 4.161 0
M  V30 335 H 32.1492 -0.329879 3.2111 0
M  V30 336 H 31.2012 2.08986 3.17851 0
M  V30 337 H 32.5132 2.55436 4.28432 0
M  V30 338 H 31.6672 0.934395 5.99461 0
M  V30 339 H 30.4062 0.368487 4.86306 0
M  V30 340 H 29.4112 2.67261 4.8047 0
M  V30 341 H 30.6362 3.23567 5.97061 0
M  V30 342 H 28.5822 1.0492 6.47555 0
M  V30 343 H 28.4992 2.67471 7.07103 0
M  V30 344 H 29.7672 1.62211 7.62435 0
M  V30 345 N 33.9963 -1.19345 1.0293 0
M  V30 346 C 34.9593 -2.20793 0.615069 0
M  V30 347 C 35.9593 -1.57553 -0.321533 0
M  V30 348 O 37.1493 -1.73862 -0.108483 0
M  V30 349 C 34.2813 -3.40754 -0.0999222 0
M  V30 350 H 35.4743 -2.58955 1.51269 0
M  V30 351 H 33.0273 -1.3303 0.820534 0
M  V30 352 H 33.7623 -3.0811 -1.01187 0
M  V30 353 H 33.5473 -3.87889 0.57309 0
M  V30 354 H 35.0373 -4.15898 -0.376645 0
M  V30 355 N 35.4744 -0.807222 -1.35358 0
M  V30 356 C 36.6994 -0.399309 -2.0352 0
M  V30 357 C 37.1244 0.981986 -1.60433 0
M  V30 358 O 36.4824 1.63601 -0.781299 0
M  V30 359 C 36.5304 -0.491552 -3.57234 0
M  V30 360 O 35.6344 0.494754 -4.09421 0
M  V30 361 H 34.9754 -0.166682 -0.642739 0
M  V30 362 H 37.5054 -1.09328 -1.72941 0
M  V30 363 H 37.5154 -0.361588 -4.06395 0
M  V30 364 H 36.1904 -1.49907 -3.87944 0
M  V30 365 H 34.7674 0.324977 -3.71481 0
M  V30 366 N 36.9525 1.47285 -0.560781 0
M  V30 367 C 38.2005 2.02064 -0.0379868 0
M  V30 368 C 38.5215 1.43711 1.31803 0
M  V30 369 O 37.7915 0.61362 1.86042 0
M  V30 370 H 36.3715 0.746918 -0.0110531 0
M  V30 371 H 39.0335 1.80648 -0.731598 0
M  V30 372 H 38.1295 3.12064 0.0474463 0
M  V30 373 N 38.4306 0.297415 1.54768 0
M  V30 374 C 39.6606 -0.315165 2.04182 0
M  V30 375 C 40.0686 -1.4834 1.17439 0
M  V30 376 O 39.4116 -1.82695 0.191891 0
M  V30 377 C 39.4736 -0.837583 3.49607 0
M  V30 378 C 39.1376 0.204912 4.5654 0
M  V30 379 C 40.1346 1.03214 5.09552 0
M  V30 380 C 37.8196 0.345578 5.0111 0
M  V30 381 C 39.8136 1.986 6.05671 0
M  V30 382 C 37.5006 1.30289 5.97049 0
M  V30 383 C 38.4986 2.12159 6.49213 0
M  V30 384 O 38.1866 3.06268 7.43273 0
M  V30 385 H 37.9186 -0.0729646 0.672051 0
M  V30 386 H 40.4726 0.433907 2.00765 0
M  V30 387 H 38.7026 -1.63712 3.50336 0
M  V30 388 H 40.3916 -1.36566 3.82236 0
M  V30 389 H 41.1576 0.934312 4.75916 0
M  V30 390 H 37.0366 -0.28171 4.60138 0
M  V30 391 H 40.5806 2.62542 6.46311 0
M  V30 392 H 36.4776 1.40145 6.30103 0
M  V30 393 H 37.2456 3.01205 7.61064 0
M  V30 394 N 39.9087 -1.5758 0.0250728 0
M  V30 395 C 41.1367 -1.9593 -0.664747 0
M  V30 396 C 41.5517 -0.901352 -1.65895 0
M  V30 397 O 40.9087 0.117255 -1.82123 0
M  V30 398 C 40.9597 -3.34342 -1.37468 0
M  V30 399 O 40.6807 -4.36079 -0.420324 0
M  V30 400 C 42.1817 -3.873 -2.1567 0
M  V30 401 H 39.4017 -0.645405 -0.183557 0
M  V30 402 H 41.9457 -2.04329 0.0836372 0
M  V30 403 H 40.1007 -3.27175 -2.0745 0
M  V30 404 H 40.5147 -5.16297 -0.923991 0
M  V30 405 H 41.9887 -4.86504 -2.60803 0
M  V30 406 H 42.4657 -3.21331 -2.99405 0
M  V30 407 H 43.0717 -3.97723 -1.50654 0
M  V30 408 N 41.3868 0.248026 -1.55636 0
M  V30 409 C 42.6338 0.976224 -1.77415 0
M  V30 410 C 42.9618 1.85361 -0.589193 0
M  V30 411 O 42.2168 1.90973 0.427529 0
M  V30 412 C 42.5158 1.86819 -3.04686 0
M  V30 413 C 42.1818 1.14625 -4.36087 0
M  V30 414 C 40.8438 0.946723 -4.71795 0
M  V30 415 C 43.1958 0.634463 -5.17324 0
M  V30 416 C 40.5238 0.223091 -5.86276 0
M  V30 417 C 42.8758 -0.0756959 -6.32555 0
M  V30 418 C 41.5398 -0.286711 -6.66884 0
M  V30 419 H 40.8098 0.357226 -0.649208 0
M  V30 420 H 43.4568 0.246415 -1.89908 0
M  V30 421 H 41.7618 2.66502 -2.872 0
M  V30 422 H 43.4588 2.43329 -3.18735 0
M  V30 423 H 40.0488 1.3117 -4.08035 0
M  V30 424 H 44.2328 0.77616 -4.90193 0
M  V30 425 H 39.4888 0.0491185 -6.1138 0
M  V30 426 H 43.6628 -0.479899 -6.94745 0
M  V30 427 H 41.2898 -0.849389 -7.5544 0
M  V30 428 N 42.8649 1.48995 0.513639 0
M  V30 429 C 44.0929 1.61531 1.29288 0
M  V30 430 C 44.5079 0.281801 1.86685 0
M  V30 431 O 43.8649 -0.731111 1.67215 0
M  V30 432 C 43.9159 2.67449 2.43215 0
M  V30 433 O 43.6369 3.95626 1.88179 0
M  V30 434 C 45.1379 2.90575 3.34785 0
M  V30 435 H 42.3579 0.544165 0.392588 0
M  V30 436 H 44.9019 1.9494 0.617956 0
M  V30 437 H 43.0569 2.36853 3.0656 0
M  V30 438 H 43.4709 4.53868 2.62876 0
M  V30 439 H 44.9449 3.68449 4.11035 0
M  V30 440 H 45.4219 2.00011 3.91015 0
M  V30 441 H 46.0279 3.22538 2.77218 0
M  V30 442 N 44.343 -0.763751 1.37857 0
M  V30 443 C 45.568 -1.55805 1.36893 0
M  V30 444 C 45.993 -1.88054 -0.0416135 0
M  V30 445 O 45.351 -1.49825 -1.02089 0
M  V30 446 C 45.399 -2.84012 2.22192 0
M  V30 447 O 44.503 -3.78732 1.63204 0
M  V30 448 H 43.844 -0.471638 0.46739 0
M  V30 449 H 46.374 -0.944657 1.81487 0
M  V30 450 H 46.384 -3.33037 2.35691 0
M  V30 451 H 45.059 -2.59869 3.24716 0
M  V30 452 H 43.636 -3.37402 1.58791 0
M  V30 453 N 45.8211 -1.22559 -0.990812 0
M  V30 454 C 47.0511 -1.07623 -1.76355 0
M  V30 455 C 47.4591 0.37601 -1.85426 0
M  V30 456 O 46.8021 1.27228 -1.32509 0
M  V30 457 C 46.8641 -1.61507 -3.21179 0
M  V30 458 C 46.5281 -3.10146 -3.35646 0
M  V30 459 C 47.5251 -4.07553 -3.22796 0
M  V30 460 C 45.2101 -3.49644 -3.60631 0
M  V30 461 C 47.2041 -5.42442 -3.34716 0
M  V30 462 C 44.8911 -4.84682 -3.72192 0
M  V30 463 C 45.8891 -5.8089 -3.59243 0
M  V30 464 O 45.5771 -7.13476 -3.70415 0
M  V30 465 H 45.3091 -0.377745 -0.560611 0
M  V30 466 H 47.8631 -1.62658 -1.25425 0
M  V30 467 H 46.0931 -1.00881 -3.73309 0
M  V30 468 H 47.7821 -1.42202 -3.80175 0
M  V30 469 H 48.5481 -3.78381 -3.03403 0
M  V30 470 H 44.4271 -2.75282 -3.69785 0
M  V30 471 H 47.9711 -6.17518 -3.24526 0
M  V30 472 H 43.8681 -5.13534 -3.91092 0
M  V30 473 H 44.6361 -7.21083 -3.87275 0
M  V30 474 N 47.2992 1.18797 -1.03562 0
M  V30 475 C 48.5452 1.8893 -0.737113 0
M  V30 476 C 48.8782 1.79837 0.732956 0
M  V30 477 O 48.1532 1.19525 1.5344 0
M  V30 478 C 48.4362 3.39607 -1.19745 0
M  V30 479 C 48.2892 3.57537 -2.72924 0
M  V30 480 C 49.6082 4.33069 -0.783526 0
M  V30 481 H 46.7272 0.686057 -0.269249 0
M  V30 482 H 49.3692 1.39797 -1.28673 0
M  V30 483 H 47.5192 3.81583 -0.729855 0
M  V30 484 H 49.1912 3.24688 -3.27682 0
M  V30 485 H 47.4342 3.00363 -3.12993 0
M  V30 486 H 48.1052 4.63238 -3.00191 0
M  V30 487 H 50.5812 3.98846 -1.18581 0
M  V30 488 H 49.4572 5.3707 -1.13343 0
M  V30 489 H 49.7182 4.40986 0.313681 0
M  V30 490 N 48.7773 0.814389 1.34928 0
M  V30 491 C 50.0263 0.394871 1.97797 0
M  V30 492 C 50.3393 -1.04555 1.65311 0
M  V30 493 O 51.5453 -1.56856 2.21604 0
M  V30 494 C 50.0013 0.655103 3.53888 0
M  V30 495 C 49.6093 2.10858 3.95276 0
M  V30 496 C 51.3533 0.301329 4.23429 0
M  V30 497 C 49.2603 2.31415 5.44244 0
M  V30 498 H 48.1903 0.143913 0.740139 0
M  V30 499 H 50.8413 0.999544 1.53888 0
M  V30 500 H 49.2233 -0.0196253 3.95995 0
M  V30 501 H 50.3973 2.82176 3.64298 0
M  V30 502 H 48.7123 2.42297 3.38646 0
M  V30 503 H 51.3093 0.432869 5.32945 0
M  V30 504 H 51.6523 -0.75331 4.09428 0
M  V30 505 H 52.1853 0.930288 3.86769 0
M  V30 506 H 48.9243 3.35353 5.63222 0
M  V30 507 H 48.4443 1.6463 5.76764 0
M  V30 508 H 50.1233 2.13352 6.10811 0
M  V30 509 N 50.2554 -1.46986 0.568584 0
M  V30 510 C 51.2054 -2.27179 -0.193339 0
M  V30 511 C 52.1894 -1.35035 -0.874895 0
M  V30 512 O 53.3814 -1.5931 -0.771322 0
M  V30 513 C 50.5104 -3.21063 -1.21546 0
M  V30 514 C 49.5964 -4.2069 -0.536738 0
M  V30 515 N 49.9874 -5.04218 0.399673 0
M  V30 516 C 48.2854 -4.38961 -0.789254 0
M  V30 517 C 48.9864 -5.76242 0.795017 0
M  V30 518 N 47.9624 -5.434 0.1473 0
M  V30 519 H 51.7644 -2.89146 0.526458 0
M  V30 520 H 49.2784 -1.57664 0.389342 0
M  V30 521 H 51.2754 -3.77209 -1.77536 0
M  V30 522 H 49.9354 -2.60654 -1.93623 0
M  V30 523 H 50.9464 -5.12077 0.774454 0
M  V30 524 H 47.6234 -3.89713 -1.49767 0
M  V30 525 H 49.0134 -6.53417 1.56513 0
M  V30 526 N 51.7335 -0.305618 -1.54608 0
M  V30 527 C 52.9795 0.295595 -2.01241 0
M  V30 528 C 53.3345 1.51171 -1.19018 0
M  V30 529 O 52.6275 1.89832 -0.259684 0
M  V30 530 C 52.8215 0.698983 -3.50498 0
M  V30 531 C 52.6505 -0.476491 -4.47168 0
M  V30 532 C 51.4205 -0.969963 -4.95903 0
M  V30 533 C 53.6185 -1.32294 -4.96994 0
M  V30 534 N 51.6005 -2.11172 -5.76437 0
M  V30 535 C 52.9715 -2.31212 -5.75275 0
M  V30 536 C 55.0265 -1.35278 -4.7917 0
M  V30 537 C 53.7295 -3.32896 -6.37631 0
M  V30 538 C 55.7555 -2.35823 -5.42348 0
M  V30 539 C 55.1175 -3.33469 -6.20466 0
M  V30 540 H 51.2165 0.0724992 -0.778632 0
M  V30 541 H 53.8005 -0.436583 -1.89742 0
M  V30 542 H 51.9715 1.40032 -3.62278 0
M  V30 543 H 53.7035 1.28013 -3.8392 0
M  V30 544 H 50.4585 -0.544178 -4.70463 0
M  V30 545 H 50.8825 -2.68714 -6.21387 0
M  V30 546 H 55.5245 -0.61157 -4.18354 0
M  V30 547 H 53.2425 -4.07933 -6.97579 0
M  V30 548 H 56.8285 -2.38911 -5.30484 0
M  V30 549 H 55.7085 -4.09996 -6.68485 0
M  V30 550 N 53.2116 1.57565 -0.0334293 0
M  V30 551 C 54.4576 1.92262 0.645226 0
M  V30 552 C 54.7906 0.910543 1.71531 0
M  V30 553 O 54.0656 -0.066099 1.94388 0
M  V30 554 C 54.3486 3.37422 1.2577 0
M  V30 555 C 54.2016 4.49369 0.196891 0
M  V30 556 C 55.5206 3.82628 2.17449 0
M  V30 557 H 52.6396 0.699171 0.233085 0
M  V30 558 H 55.2816 1.89779 -0.0915694 0
M  V30 559 H 53.4316 3.39669 1.88566 0
M  V30 560 H 55.1036 4.59254 -0.433962 0
M  V30 561 H 53.3466 4.31168 -0.477137 0
M  V30 562 H 54.0176 5.47978 0.665124 0
M  V30 563 H 56.4936 3.82145 1.64634 0
M  V30 564 H 55.3696 4.84883 2.57254 0
M  V30 565 H 55.6306 3.18376 3.0674 0
M  V30 566 N 54.6897 -0.239769 1.55765 0
M  V30 567 C 56.1057 -0.588624 1.48349 0
M  V30 568 C 56.3057 -1.88005 0.72502 0
M  V30 569 O 55.3617 -2.51186 0.257269 0
M  V30 570 C 56.6747 -0.68474 2.928 0
M  V30 571 C 58.2227 -0.77659 3.03213 0
M  V30 572 C 58.6977 -0.904207 4.48986 0
M  V30 573 N 60.1887 -0.968896 4.52953 0
M  V30 574 C 60.9237 -1.08703 5.63002 0
M  V30 575 N 60.4197 -1.17026 6.82845 0
M  V30 576 N 62.2127 -1.12074 5.50814 0
M  V30 577 H 54.3637 0.607911 2.03515 0
M  V30 578 H 56.6267 0.21083 0.924259 0
M  V30 579 H 56.3327 0.194284 3.51163 0
M  V30 580 H 56.2067 -1.55435 3.43686 0
M  V30 581 H 58.5937 -1.64606 2.44926 0
M  V30 582 H 58.6747 0.118315 2.55526 0
M  V30 583 H 58.3187 -0.0392633 5.07885 0
M  V30 584 H 58.2487 -1.81426 4.9436 0
M  V30 585 H 60.7397 -0.915633 3.6664 0
M  V30 586 H 61.0527 -1.25966 7.62465 0
M  V30 587 H 59.3977 -1.13971 6.85591 0
M  V30 588 H 62.5887 -1.05226 4.5612 0
M  V30 589 H 62.7617 -1.20936 6.36615 0
M  V30 590 N 56.1678 -1.49265 -0.50573 0
M  V30 591 C 57.0998 -1.617 -1.62437 0
M  V30 592 C 58.1128 -0.499924 -1.54934 0
M  V30 593 O 59.3018 -0.771785 -1.60953 0
M  V30 594 C 56.4018 -1.5533 -3.01207 0
M  V30 595 C 55.5748 -2.8249 -3.33943 0
M  V30 596 C 54.6338 -2.69238 -4.52103 0
M  V30 597 O 53.6598 -3.43167 -4.5412 0
M  V30 598 N 54.8618 -1.80468 -5.51735 0
M  V30 599 H 57.6268 -2.58177 -1.52199 0
M  V30 600 H 55.1878 -1.46294 -0.693511 0
M  V30 601 H 57.1798 -1.44125 -3.78167 0
M  V30 602 H 55.7498 -0.667297 -3.05395 0
M  V30 603 H 54.9698 -3.08081 -2.45926 0
M  V30 604 H 56.2578 -3.66802 -3.5261 0
M  V30 605 H 55.6558 -1.19653 -5.52901 0
M  V30 606 H 54.2128 -1.75188 -6.27816 0
M  V30 607 N 57.6459 0.756429 -1.3826 0
M  V30 608 C 59.0619 1.0591 -1.19395 0
M  V30 609 C 59.2619 2.01459 -0.0406567 0
M  V30 610 O 58.3179 2.44909 0.614467 0
M  V30 611 C 59.6309 1.64191 -2.51916 0
M  V30 612 C 61.1789 1.76376 -2.58574 0
M  V30 613 C 61.6539 2.38069 -3.91264 0
M  V30 614 N 63.1449 2.45503 -3.92788 0
M  V30 615 C 63.8799 2.94126 -4.92217 0
M  V30 616 N 63.3759 3.42805 -6.02043 0
M  V30 617 N 65.1689 2.9314 -4.7961 0
M  V30 618 H 57.3199 0.122313 -2.12048 0
M  V30 619 H 59.5829 0.116892 -0.940766 0
M  V30 620 H 59.2889 1.01451 -3.3675 0
M  V30 621 H 59.1629 2.6329 -2.70108 0
M  V30 622 H 61.5499 2.38244 -1.74137 0
M  V30 623 H 61.6309 0.759894 -2.44252 0
M  V30 624 H 61.2749 1.76835 -4.76121 0
M  V30 625 H 61.2049 3.39091 -4.02895 0
M  V30 626 H 63.6959 2.1107 -3.13461 0
M  V30 627 H 64.0089 3.78354 -6.73846 0
M  V30 628 H 62.3539 3.4087 -6.05667 0
M  V30 629 H 65.5449 2.54419 -3.92923 0
M  V30 630 H 65.7179 3.30721 -5.5725 0
M  V30 631 N 59.124 1.23083 0.984299 0
M  V30 632 C 60.535 1.05609 1.5396 0
M  V30 633 C 60.886 -0.377793 1.92528 0
M  V30 634 O 60.011 -1.26398 1.75649 0
M  V30 635 C 60.606 1.91087 2.7977 0
M  V30 636 C 59.165 1.77885 3.31713 0
M  V30 637 C 58.312 1.87028 2.04733 0
M  V30 638 H 61.263 1.36802 0.804419 0
M  V30 639 H 61.284 1.43336 3.5247 0
M  V30 640 H 60.796 2.9544 2.51668 0
M  V30 641 H 58.897 0.762995 3.64704 0
M  V30 642 H 59.01 2.61047 4.01735 0
M  V30 643 H 57.374 1.30565 2.18689 0
M  V30 644 H 58.157 2.92929 1.79017 0
M  V30 645 N 60.6021 -1.18246 1.0419 0
M  V30 646 C 61.8501 -1.87886 0.744543 0
M  V30 647 C 62.1711 -1.8082 -0.730006 0
M  V30 648 O 61.4411 -1.22736 -1.52685 0
M  V30 649 H 60.0211 -0.695556 0.272417 0
M  V30 650 H 62.6831 -1.43494 1.31892 0
M  V30 651 H 61.7791 -2.9389 1.05049 0
M  V30 652 N 62.0802 -0.821533 -1.34494 0
M  V30 653 C 63.0122 -0.199946 -2.28326 0
M  V30 654 C 64.0252 0.609377 -1.50965 0
M  V30 655 O 65.2142 0.439285 -1.7301 0
M  V30 656 C 62.3142 0.738431 -3.30757 0
M  V30 657 C 61.4872 -0.0277632 -4.37391 0
M  V30 658 C 60.5462 0.831332 -5.19591 0
M  V30 659 O 59.5722 0.276822 -5.68526 0
M  V30 660 N 60.7742 2.15132 -5.39165 0
M  V30 661 H 63.5392 -1.00609 -2.82308 0
M  V30 662 H 61.1002 -0.678366 -1.47003 0
M  V30 663 H 63.0922 1.31773 -3.82646 0
M  V30 664 H 61.6622 1.44533 -2.7718 0
M  V30 665 H 60.8822 -0.788359 -3.86236 0
M  V30 666 H 62.1702 -0.555251 -5.05761 0
M  V30 667 H 61.5682 2.62559 -5.01078 0
M  V30 668 H 60.1252 2.6795 -5.94177 0
M  V30 669 N 63.5583 1.46682 -0.576371 0
M  V30 670 C 64.8063 2.02013 -0.0594163 0
M  V30 671 C 65.1273 1.45101 1.30271 0
M  V30 672 O 64.3973 0.633317 1.8538 0
M  V30 673 H 62.9773 0.746759 -0.0189745 0
M  V30 674 H 65.6393 1.79862 -0.750717 0
M  V30 675 H 64.7353 3.12097 0.014345 0
M  V30 676 N 65.0364 0.313813 1.54444 0
M  V30 677 C 65.9664 -0.549454 2.26943 0
M  V30 678 C 66.9474 -1.12741 1.27372 0
M  V30 679 O 68.1324 -1.15436 1.56167 0
M  V30 680 C 65.2624 -1.71523 3.01989 0
M  V30 681 C 64.2164 -1.26703 4.08816 0
M  V30 682 C 63.5424 -2.51898 4.71647 0
M  V30 683 C 64.8424 -0.388962 5.2085 0
M  V30 684 H 66.5364 0.0552661 2.99349 0
M  V30 685 H 64.0824 0.0280207 1.43973 0
M  V30 686 H 66.0354 -2.32535 3.51433 0
M  V30 687 H 64.7594 -2.34639 2.27183 0
M  V30 688 H 63.4184 -0.679896 3.6024 0
M  V30 689 H 63.0664 -3.13356 3.93468 0
M  V30 690 H 62.7664 -2.22605 5.43802 0
M  V30 691 H 64.2904 -3.1369 5.23861 0
M  V30 692 H 65.7044 -0.905107 5.6611 0
M  V30 693 H 64.1014 -0.18924 5.99802 0
M  V30 694 H 65.1714 0.582699 4.81386 0
M  V30 695 N 66.5145 -1.57545 0.0417849 0
M  V30 696 C 67.4775 -2.09885 -0.92093 0
M  V30 697 C 68.4775 -1.01648 -1.24596 0
M  V30 698 O 69.6675 -1.27759 -1.1842 0
M  V30 699 C 66.7995 -2.57527 -2.23367 0
M  V30 700 H 67.9925 -2.96236 -0.467382 0
M  V30 701 H 65.5455 -1.5493 -0.206467 0
M  V30 702 H 66.2805 -1.74542 -2.73323 0
M  V30 703 H 66.0655 -3.36613 -2.01083 0
M  V30 704 H 67.5555 -2.98201 -2.92346 0
M  V30 705 N 67.9926 0.231505 -1.5589 0
M  V30 706 C 69.2386 0.954429 -1.79617 0
M  V30 707 C 69.5936 1.82367 -0.613199 0
M  V30 708 O 68.8866 1.87524 0.393094 0
M  V30 709 C 69.0806 1.83577 -3.0665 0
M  V30 710 C 68.9096 1.05334 -4.3719 0
M  V30 711 C 67.6796 0.75225 -4.99669 0
M  V30 712 C 69.8776 0.423444 -5.12554 0
M  V30 713 N 67.8596 -0.052627 -6.13877 0
M  V30 714 C 69.2306 -0.245287 -6.19515 0
M  V30 715 C 71.2856 0.335466 -4.96769 0
M  V30 716 C 69.9886 -0.993566 -7.12405 0
M  V30 717 C 72.0146 -0.399321 -5.9005 0
M  V30 718 C 71.3766 -1.05663 -6.9643 0
M  V30 719 H 67.4756 0.329846 -0.709031 0
M  V30 720 H 70.0596 0.226172 -1.93382 0
M  V30 721 H 68.2306 2.53592 -2.94186 0
M  V30 722 H 69.9626 2.49541 -3.18608 0
M  V30 723 H 66.7176 1.06783 -4.61405 0
M  V30 724 H 67.1416 -0.443609 -6.75545 0
M  V30 725 H 71.7836 0.829311 -4.14587 0
M  V30 726 H 69.5016 -1.49896 -7.94076 0
M  V30 727 H 73.0876 -0.468265 -5.79913 0
M  V30 728 H 71.9676 -1.61612 -7.67366 0
M  V30 729 N 69.4707 1.49531 0.497807 0
M  V30 730 C 70.4037 1.61043 1.6168 0
M  V30 731 C 71.3817 0.459386 1.55976 0
M  V30 732 O 72.5657 0.675358 1.75986 0
M  V30 733 C 69.6927 1.56833 3.00202 0
M  V30 734 C 68.7387 2.77173 3.24156 0
M  V30 735 S 69.5717 4.38808 3.06933 0
M  V30 736 C 70.7277 4.37248 4.47845 0
M  V30 737 H 70.9607 2.55702 1.51671 0
M  V30 738 H 68.4937 1.38462 0.683201 0
M  V30 739 H 70.4517 1.55089 3.80076 0
M  V30 740 H 69.1127 0.634561 3.07623 0
M  V30 741 H 68.3057 2.70456 4.25288 0
M  V30 742 H 67.9077 2.76346 2.5201 0
M  V30 743 H 70.1997 4.09164 5.39992 0
M  V30 744 H 71.1427 5.38668 4.59612 0
M  V30 745 H 71.5507 3.67286 4.28674 0
M  V30 746 N 70.9488 -0.749086 1.3866 0
M  V30 747 C 72.1968 -1.50535 1.34847 0
M  V30 748 C 72.5178 -1.94909 -0.0595016 0
M  V30 749 O 71.7878 -1.67973 -1.00806 0
M  V30 750 H 70.3678 -0.558395 0.49619 0
M  V30 751 H 73.0298 -0.890165 1.73384 0
M  V30 752 H 72.1258 -2.39413 2.00219 0
M  V30 753 N 72.4269 -1.23603 -0.977757 0
M  V30 754 C 73.6569 -1.09487 -1.75203 0
M  V30 755 C 74.0649 0.356321 -1.85814 0
M  V30 756 O 73.4079 1.25816 -1.33851 0
M  V30 757 C 73.4699 -1.64905 -3.19447 0
M  V30 758 C 73.1339 -3.13688 -3.32338 0
M  V30 759 C 74.1309 -4.10953 -3.18455 0
M  V30 760 C 71.8159 -3.53449 -3.56902 0
M  V30 761 C 73.8099 -5.45962 -3.28944 0
M  V30 762 C 71.4969 -4.88602 -3.6703 0
M  V30 763 C 72.4949 -5.84668 -3.53062 0
M  V30 764 O 72.1829 -7.17365 -3.62826 0
M  V30 765 H 71.9149 -0.38367 -0.556573 0
M  V30 766 H 74.4689 -1.6398 -1.23693 0
M  V30 767 H 72.6989 -1.04835 -3.72218 0
M  V30 768 H 74.3879 -1.46226 -3.78646 0
M  V30 769 H 75.1539 -3.81577 -2.99372 0
M  V30 770 H 71.0329 -2.79188 -3.66844 0
M  V30 771 H 74.5769 -6.20925 -3.17958 0
M  V30 772 H 70.4739 -5.17653 -3.85623 0
M  V30 773 H 71.2419 -7.2515 -3.79605 0
M  V30 774 N 73.905 1.17692 -1.04816 0
M  V30 775 C 75.154 1.87192 -0.751132 0
M  V30 776 C 75.467 1.8169 0.724441 0
M  V30 777 O 76.673 2.46625 1.13527 0
M  V30 778 C 75.129 3.35857 -1.29338 0
M  V30 779 C 74.737 3.4987 -2.79812 0
M  V30 780 C 76.481 4.10709 -1.07322 0
M  V30 781 C 74.388 4.92536 -3.27356 0
M  V30 782 H 73.318 0.701162 -0.277288 0
M  V30 783 H 75.969 1.32932 -1.26496 0
M  V30 784 H 74.351 3.89631 -0.707376 0
M  V30 785 H 75.525 3.06332 -3.44235 0
M  V30 786 H 73.84 2.88433 -3.00325 0
M  V30 787 H 76.437 5.15952 -1.4035 0
M  V30 788 H 76.78 4.16299 -0.0108001 0
M  V30 789 H 77.313 3.6313 -1.62423 0
M  V30 790 H 74.052 4.92119 -4.33012 0
M  V30 791 H 73.572 5.3676 -2.67673 0
M  V30 792 H 75.251 5.61288 -3.21815 0
M  V30 793 N 75.3831 0.828654 1.34056 0
M  V30 794 C 76.3311 0.242973 2.31327 0
M  V30 795 C 77.3251 -0.61944 1.57668 0
M  V30 796 O 78.5311 -0.51014 1.7262 0
M  V30 797 H 74.9061 0.059834 0.749616 0
M  V30 798 H 76.8771 1.07809 2.78244 0
M  V30 799 C 75.6261 -0.575733 3.429 0
M  V30 800 H 74.9491 0.0785582 3.99723 0
M  V30 801 H 76.3891 -0.951547 4.13185 0
M  V30 802 C 74.8481 -1.75044 2.87856 0
M  V30 803 O 75.3781 -2.84882 2.83205 0
M  V30 804 N 73.5841 -1.56903 2.44602 0
M  V30 805 H 73.1311 -0.675547 2.48584 0
M  V30 806 H 73.0891 -2.35652 2.08124 0
M  V30 807 N 76.8612 -1.46375 0.584142 0
M  V30 808 C 78.2722 -1.86031 0.157959 0
M  V30 809 C 78.6232 -1.48753 -1.27933 0
M  V30 810 O 77.7482 -0.903098 -1.96655 0
M  V30 811 C 78.3432 -3.37642 0.279892 0
M  V30 812 C 76.9022 -3.76289 -0.09143 0
M  V30 813 C 76.0492 -2.7039 0.615178 0
M  V30 814 H 79.0002 -1.37509 0.792274 0
M  V30 815 H 79.0212 -3.77275 -0.494364 0
M  V30 816 H 78.5332 -3.64742 1.32607 0
M  V30 817 H 76.6342 -3.54806 -1.13769 0
M  V30 818 H 76.7472 -4.78246 0.285886 0
M  V30 819 H 75.1112 -2.5464 0.0552833 0
M  V30 820 H 75.8942 -3.0033 1.66303 0
M  V30 821 N 78.3393 -0.321999 -1.54275 0
M  V30 822 C 79.5693 0.282642 -2.04658 0
M  V30 823 C 79.9773 1.46453 -1.19784 0
M  V30 824 O 79.3203 1.82367 -0.220932 0
M  V30 825 C 79.3823 0.781857 -3.50895 0
M  V30 826 C 79.0463 -0.277517 -4.56157 0
M  V30 827 C 80.0433 -1.11307 -5.07845 0
M  V30 828 C 77.7283 -0.425256 -5.00497 0
M  V30 829 C 79.7223 -2.08211 -6.02434 0
M  V30 830 C 77.4093 -1.39771 -5.94901 0
M  V30 831 C 78.4073 -2.2246 -6.45756 0
M  V30 832 O 78.0953 -3.18054 -7.38307 0
M  V30 833 H 77.8273 0.0622636 -0.673126 0
M  V30 834 H 80.3813 -0.465792 -2.00049 0
M  V30 835 H 78.6113 1.58118 -3.52896 0
M  V30 836 H 80.3003 1.30467 -3.84361 0
M  V30 837 H 81.0663 -1.00991 -4.74369 0
M  V30 838 H 76.9453 0.20847 -4.60528 0
M  V30 839 H 80.4893 -2.72791 -6.42052 0
M  V30 840 H 76.3863 -1.50152 -6.27794 0
M  V30 841 H 77.1543 -3.13275 -7.56175 0
M  V30 842 N 79.8174 1.5752 -0.0501392 0
M  V30 843 C 80.7654 2.12651 0.942459 0
M  V30 844 C 81.7594 1.05807 1.32292 0
M  V30 845 O 82.9654 1.24217 1.3027 0
M  V30 846 H 79.3404 0.679673 0.321789 0
M  V30 847 H 81.3114 2.94951 0.452356 0
M  V30 848 C 80.0604 2.68565 2.20836 0
M  V30 849 H 79.3834 3.50439 1.92439 0
M  V30 850 H 80.8234 3.10761 2.8845 0
M  V30 851 C 79.2824 1.62291 2.95234 0
M  V30 852 O 79.8124 1.03508 3.88135 0
M  V30 853 N 78.0184 1.33836 2.57946 0
M  V30 854 H 77.5654 1.81826 1.82475 0
M  V30 855 H 77.5234 0.629595 3.08032 0
M  V30 856 N 81.2955 -0.223234 1.56011 0
M  V30 857 C 82.5725 -0.972108 1.69733 0
M  V30 858 C 82.9525 -2.02485 0.59691 0
M  V30 859 O 82.3005 -2.25037 -0.396324 0
M  V30 860 C 82.5105 -1.58407 3.10979 0
M  V30 861 C 83.8585 -2.07696 3.70334 0
M  V30 862 O 84.8825 -1.68304 3.1393 0
M  V30 863 O 83.7415 -2.80096 4.69264 0
M  V30 864 H 80.8355 -0.453993 0.691245 0
M  V30 865 H 83.3815 -0.215149 1.68331 0
M  V30 866 H 82.1535 -0.823831 3.82529 0
M  V30 867 H 81.7765 -2.40661 3.16493 0
M  V30 868 N 82.7736 -1.49793 -0.48987 0
M  V30 869 C 84.0216 -1.59525 -1.24081 0
M  V30 870 C 84.3426 -0.288953 -1.92847 0
M  V30 871 O 83.6126 0.692436 -1.83254 0
M  V30 872 H 82.1926 -0.587796 -0.460983 0
M  V30 873 H 84.8546 -1.86477 -0.566778 0
M  V30 874 H 83.9506 -2.39696 -1.99881 0
M  V30 875 N 84.2517 0.741722 -1.39055 0
M  V30 876 C 85.4797 1.53098 -1.39171 0
M  V30 877 C 85.8947 1.88794 0.0155099 0
M  V30 878 O 85.2517 1.53626 0.985159 0
M  V30 879 C 85.3027 2.82274 -2.2584 0
M  V30 880 O 85.0237 2.48097 -3.61081 0
M  V30 881 C 86.5247 3.76343 -2.34266 0
M  V30 882 H 83.7447 0.473335 -0.4756 0
M  V30 883 H 86.2887 0.917045 -1.82785 0
M  V30 884 H 84.4437 3.40015 -1.85656 0
M  V30 885 H 84.8577 3.31029 -4.06842 0
M  V30 886 H 86.3317 4.63898 -2.9917 0
M  V30 887 H 86.8087 4.17619 -1.35982 0
M  V30 888 H 87.4147 3.24523 -2.74891 0
M  V30 889 N 85.7298 1.2412 0.971189 0
M  V30 890 C 86.6768 1.0305 2.06517 0
M  V30 891 C 87.6468 -0.0550666 1.66009 0
M  V30 892 O 88.8318 0.0988688 1.90544 0
M  V30 893 C 85.9718 0.637653 3.39158 0
M  V30 894 C 85.0848 1.79633 3.92882 0
M  V30 895 C 84.2198 1.34939 5.13775 0
M  V30 896 C 83.2588 2.47823 5.59687 0
M  V30 897 N 82.3958 2.04022 6.71803 0
M  V30 898 H 87.2358 1.96685 2.23873 0
M  V30 899 H 84.7728 0.979694 1.09729 0
M  V30 900 H 86.7308 0.390931 4.15364 0
M  V30 901 H 85.3608 -0.261693 3.21737 0
M  V30 902 H 84.4128 2.15681 3.13346 0
M  V30 903 H 85.7248 2.64466 4.22918 0
M  V30 904 H 84.8788 1.06134 5.97345 0
M  V30 905 H 83.6178 0.471557 4.85415 0
M  V30 906 H 82.6228 2.77392 4.74693 0
M  V30 907 H 83.8478 3.36158 5.90063 0
M  V30 908 H 81.7938 1.18632 6.45184 0
M  V30 909 H 81.7108 2.82409 7.01271 0
M  V30 910 H 82.9788 1.78347 7.58823 0
M  V30 911 N 87.2079 -1.17134 1.05439 0
M  V30 912 C 88.4379 -1.91094 0.785274 0
M  V30 913 C 88.8459 -1.77198 -0.663142 0
M  V30 914 O 88.1889 -1.10835 -1.46497 0
M  V30 915 C 88.2509 -3.42594 1.08949 0
M  V30 916 C 87.9149 -3.80274 2.53458 0
M  V30 917 C 88.9119 -3.82912 3.51673 0
M  V30 918 C 86.5969 -4.11162 2.88532 0
M  V30 919 C 88.5909 -4.15913 4.83006 0
M  V30 920 C 86.2779 -4.43831 4.20068 0
M  V30 921 C 87.2759 -4.46185 5.17115 0
M  V30 922 O 86.9639 -4.78083 6.46291 0
M  V30 923 H 86.6959 -0.613073 0.284811 0
M  V30 924 H 89.2499 -1.49461 1.40893 0
M  V30 925 H 87.4799 -3.84534 0.408741 0
M  V30 926 H 89.1689 -3.97817 0.805991 0
M  V30 927 H 89.9349 -3.5917 3.25917 0
M  V30 928 H 85.8139 -4.085 2.13656 0
M  V30 929 H 89.3579 -4.17665 5.5875 0
M  V30 930 H 85.2549 -4.67037 4.45586 0
M  V30 931 H 86.0229 -4.9593 6.51149 0
M  V30 932 N 88.686 -0.835752 -1.33615 0
M  V30 933 C 89.634 -0.255238 -2.31195 0
M  V30 934 C 90.628 0.61107 -1.57995 0
M  V30 935 O 91.834 0.500979 -1.72888 0
M  V30 936 H 88.209 -0.0638085 -0.749288 0
M  V30 937 H 90.18 -1.09283 -2.77669 0
M  V30 938 C 88.929 0.55754 -3.43201 0
M  V30 939 H 88.252 -0.0997553 -3.99676 0
M  V30 940 H 89.692 0.929622 -4.13683 0
M  V30 941 C 88.151 1.73515 -2.88781 0
M  V30 942 O 88.681 2.83376 -2.84712 0
M  V30 943 N 86.887 1.55603 -2.4543 0
M  V30 944 H 86.434 0.662354 -2.48939 0
M  V30 945 H 86.392 2.34545 -2.09371 0
M  V30 946 N 90.1641 1.46063 -0.591896 0
M  V30 947 C 91.0741 2.34192 0.13831 0
M  V30 948 C 92.0901 1.50305 0.876608 0
M  V30 949 O 93.2661 1.8315 0.837728 0
M  V30 950 C 90.3311 3.27656 1.13326 0
M  V30 951 C 89.3921 4.27445 0.39863 0
M  V30 952 C 88.6251 5.16443 1.34618 0
M  V30 953 O 88.8481 5.08553 2.58321 0
M  V30 954 O 87.7821 5.95843 0.851768 0
M  V30 955 H 91.6081 2.98002 -0.58552 0
M  V30 956 H 89.1931 1.45188 -0.352239 0
M  V30 957 H 91.0751 3.85291 1.70671 0
M  V30 958 H 89.7501 2.6643 1.83839 0
M  V30 959 H 88.6571 3.73471 -0.216895 0
M  V30 960 H 89.9901 4.91482 -0.265709 0
M  V30 961 N 91.6422 0.330177 1.54103 0
M  V30 962 C 93.0582 -0.0222371 1.59585 0
M  V30 963 C 93.2582 -1.49902 1.34654 0
M  V30 964 O 92.3142 -2.25592 1.13421 0
M  V30 965 C 93.6272 0.401932 2.98002 0
M  V30 966 C 95.1752 0.353145 3.11001 0
M  V30 967 C 95.6502 0.752576 4.51775 0
M  V30 968 N 97.1412 0.706239 4.57784 0
M  V30 969 C 97.8762 0.987417 5.64834 0
M  V30 970 N 97.3722 1.33607 6.79795 0
M  V30 971 N 99.1652 0.91254 5.54643 0
M  V30 972 H 91.3162 1.29228 1.68564 0
M  V30 973 H 93.5792 0.525906 0.78875 0
M  V30 974 H 93.2852 1.4311 3.21267 0
M  V30 975 H 93.1592 -0.229699 3.765 0
M  V30 976 H 95.5462 -0.666822 2.87467 0
M  V30 977 H 95.6272 1.0198 2.34593 0
M  V30 978 H 95.2712 1.77049 4.76042 0
M  V30 979 H 95.2012 0.0635409 5.26562 0
M  V30 980 H 97.6922 0.44889 3.75224 0
M  V30 981 H 98.0052 1.53582 7.57385 0
M  V30 982 H 96.3502 1.37439 6.81275 0
M  V30 983 H 99.5412 0.639601 4.6371 0
M  V30 984 H 99.7142 1.13503 6.37982 0
M  V30 985 N 93.1203 -1.57491 0.0584922 0
M  V30 986 C 94.3673 -1.92978 -0.613648 0
M  V30 987 C 94.6953 -0.937461 -1.70417 0
M  V30 988 O 93.9503 0.049078 -1.95638 0
M  V30 989 C 94.2493 -3.3513 -1.24188 0
M  V30 990 C 93.9153 -4.50037 -0.278826 0
M  V30 991 C 92.5773 -4.81198 -0.0138447 0
M  V30 992 C 94.9293 -5.19807 0.380777 0
M  V30 993 C 92.2573 -5.79473 0.918052 0
M  V30 994 C 94.6093 -6.19079 1.30091 0
M  V30 995 C 93.2733 -6.48665 1.57449 0
M  V30 996 H 92.5433 -0.706157 -0.22455 0
M  V30 997 H 95.1903 -1.91082 0.126533 0
M  V30 998 H 93.4953 -3.33429 -2.05749 0
M  V30 999 H 95.1923 -3.59871 -1.769 0
M  V30 1000 H 91.7823 -4.25726 -0.495539 0
M  V30 1001 H 95.9663 -4.95939 0.189158 0
M  V30 1002 H 91.2223 -6.00727 1.1374 0
M  V30 1003 H 95.3963 -6.7225 1.81804 0
M  V30 1004 H 93.0233 -7.24628 2.29822 0
M  V30 1005 N 94.5984 0.214957 -1.56127 0
M  V30 1006 C 95.5454 1.26642 -1.92952 0
M  V30 1007 C 96.5154 1.46244 -0.78753 0
M  V30 1008 O 97.7004 1.59704 -1.04399 0
M  V30 1009 C 94.8404 2.6104 -2.25726 0
M  V30 1010 C 93.9534 2.49183 -3.52891 0
M  V30 1011 C 93.0884 3.76149 -3.7508 0
M  V30 1012 C 92.1274 3.59041 -4.95738 0
M  V30 1013 N 91.2644 4.77972 -5.14283 0
M  V30 1014 H 96.1044 0.945384 -2.82607 0
M  V30 1015 H 93.6414 0.455489 -1.3987 0
M  V30 1016 H 95.5994 3.39313 -2.42739 0
M  V30 1017 H 94.2294 2.91227 -1.39236 0
M  V30 1018 H 93.2814 1.6231 -3.44034 0
M  V30 1019 H 94.5934 2.32466 -4.41318 0
M  V30 1020 H 93.7474 4.62865 -3.92226 0
M  V30 1021 H 92.4864 3.95799 -2.84947 0
M  V30 1022 H 91.4914 2.7071 -4.78535 0
M  V30 1023 H 92.7164 3.40856 -5.87362 0
M  V30 1024 H 90.6624 4.97923 -4.27093 0
M  V30 1025 H 90.5794 4.64006 -5.96853 0
M  V30 1026 H 91.8474 5.66096 -5.35869 0
M  V30 1027 N 96.0765 1.50051 0.48192 0
M  V30 1028 C 97.3245 1.60181 1.23234 0
M  V30 1029 C 97.6455 0.299176 1.92691 0
M  V30 1030 O 96.9155 -0.682708 1.83619 0
M  V30 1031 H 95.4955 0.590232 0.457859 0
M  V30 1032 H 98.1575 1.86775 0.556881 0
M  V30 1033 H 97.2535 2.40753 1.98607 0
M  V30 1034 N 97.5546 -0.734337 1.39446 0
M  V30 1035 C 98.5016 -1.84835 1.38219 0
M  V30 1036 C 99.4716 -1.64331 0.24179 0
M  V30 1037 O 100.657 -1.85728 0.437002 0
M  V30 1038 C 97.7966 -3.22355 1.23212 0
M  V30 1039 C 96.9096 -3.5456 2.46801 0
M  V30 1040 C 96.0446 -4.81485 2.24377 0
M  V30 1041 C 95.0836 -5.06536 3.43639 0
M  V30 1042 N 94.2206 -6.24665 3.20528 0
M  V30 1043 H 99.0606 -1.85219 2.33448 0
M  V30 1044 H 96.5976 -0.905039 1.15963 0
M  V30 1045 H 98.5556 -4.0174 1.12522 0
M  V30 1046 H 97.1856 -3.21248 0.316121 0
M  V30 1047 H 96.2376 -2.69872 2.68092 0
M  V30 1048 H 97.5496 -3.6899 3.3563 0
M  V30 1049 H 96.7036 -5.68852 2.10933 0
M  V30 1050 H 95.4426 -4.6923 1.32944 0
M  V30 1051 H 94.4476 -4.17632 3.5758 0
M  V30 1052 H 95.6726 -5.20676 4.35974 0
M  V30 1053 H 93.6186 -6.13696 2.3176 0
M  V30 1054 H 93.5356 -6.39685 4.02913 0
M  V30 1055 H 94.8036 -7.14868 3.10779 0
M  V30 1056 N 99.0327 -1.24633 -0.964593 0
M  V30 1057 C 100.279 -1.08949 -1.71049 0
M  V30 1058 C 100.612 0.370302 -1.90637 0
M  V30 1059 O 99.8867 1.27349 -1.47011 0
M  V30 1060 C 100.17 -1.83329 -3.0994 0
M  V30 1061 C 100.023 -3.37077 -2.97824 0
M  V30 1062 C 101.342 -1.60846 -4.09654 0
M  V30 1063 H 98.4607 -0.397178 -0.620821 0
M  V30 1064 H 101.103 -1.5334 -1.12191 0
M  V30 1065 H 99.2527 -1.45597 -3.60186 0
M  V30 1066 H 100.925 -3.84425 -2.5498 0
M  V30 1067 H 99.1677 -3.65298 -2.33965 0
M  V30 1068 H 99.8387 -3.84324 -3.96231 0
M  V30 1069 H 102.315 -1.93674 -3.68279 0
M  V30 1070 H 101.191 -2.1534 -5.04896 0
M  V30 1071 H 101.452 -0.547434 -4.38698 0
M  V30 1072 N 100.511 1.16574 -1.06058 0
M  V30 1073 C 101.739 1.90952 -0.796552 0
M  V30 1074 C 102.154 1.77302 0.648808 0
M  V30 1075 O 101.511 1.11605 1.44397 0
M  V30 1076 C 101.562 3.41736 -1.17894 0
M  V30 1077 O 101.283 3.54975 -2.56758 0
M  V30 1078 C 102.784 4.33169 -0.942308 0
M  V30 1079 H 100.004 0.605594 -0.288959 0
M  V30 1080 H 102.548 1.47777 -1.41358 0
M  V30 1081 H 100.703 3.82623 -0.606491 0
M  V30 1082 H 101.117 4.4846 -2.72 0
M  V30 1083 H 102.591 5.37439 -1.25952 0
M  V30 1084 H 103.068 4.3903 0.122078 0
M  V30 1085 H 103.674 3.98007 -1.49902 0
M  V30 1086 N 101.989 0.842826 1.3317 0
M  V30 1087 C 103.238 0.436738 1.96915 0
M  V30 1088 C 103.551 -1.01025 1.67491 0
M  V30 1089 O 104.757 -1.5212 2.24881 0
M  V30 1090 C 103.213 0.730021 3.52418 0
M  V30 1091 C 102.821 2.19195 3.90714 0
M  V30 1092 C 104.565 0.391076 4.22695 0
M  V30 1093 C 102.472 2.42907 5.39212 0
M  V30 1094 H 101.402 0.15958 0.736919 0
M  V30 1095 H 104.053 1.03196 1.51733 0
M  V30 1096 H 102.435 0.0643755 3.95948 0
M  V30 1097 H 103.609 2.8984 3.58231 0
M  V30 1098 H 101.924 2.49425 3.33431 0
M  V30 1099 H 104.521 0.545817 5.31907 0
M  V30 1100 H 104.864 -0.666294 4.10933 0
M  V30 1101 H 105.397 1.01212 3.84709 0
M  V30 1102 H 102.136 3.47224 5.55982 0
M  V30 1103 H 101.656 1.76827 5.73142 0
M  V30 1104 H 103.335 2.2626 6.06148 0
M  V30 1105 N 103.467 -1.45747 0.599634 0
M  V30 1106 C 104.695 -2.06668 0.0978551 0
M  V30 1107 C 105.11 -1.44562 -1.21439 0
M  V30 1108 O 104.467 -0.556923 -1.73795 0
M  V30 1109 C 104.518 -3.61456 -0.0567044 0
M  V30 1110 O 104.239 -4.21242 1.20361 0
M  V30 1111 C 105.74 -4.39345 -0.590869 0
M  V30 1112 H 102.96 -0.667825 0.0651943 0
M  V30 1113 H 105.504 -1.87115 0.82511 0
M  V30 1114 H 103.659 -3.80378 -0.734251 0
M  V30 1115 H 104.073 -5.14323 1.02821 0
M  V30 1116 H 105.547 -5.48182 -0.648131 0
M  V30 1117 H 106.024 -4.08568 -1.61147 0
M  V30 1118 H 106.63 -4.25268 0.0523679 0
M  V30 1119 N 104.945 -0.338344 -1.53925 0
M  V30 1120 C 106.17 0.263987 -2.05713 0
M  V30 1121 C 106.595 1.43847 -1.21201 0
M  V30 1122 O 105.953 1.79904 -0.224535 0
M  V30 1123 C 106.001 0.662 -3.54471 0
M  V30 1124 O 105.105 1.76265 -3.72833 0
M  V30 1125 H 104.446 0.0448722 -0.662482 0
M  V30 1126 H 106.976 -0.491048 -1.9862 0
M  V30 1127 H 106.986 0.940594 -3.9701 0
M  V30 1128 H 105.661 -0.196937 -4.15433 0
M  V30 1129 H 104.238 1.48173 -3.42198 0
M  V30 1130 N 106.423 1.57458 -0.0668435 0
M  V30 1131 C 107.7 1.8469 0.644132 0
M  V30 1132 C 108.08 0.958343 1.88093 0
M  V30 1133 O 107.428 0.0233579 2.28488 0
M  V30 1134 C 107.638 3.34767 0.986509 0
M  V30 1135 C 108.986 4.02159 1.36212 0
M  V30 1136 O 110.01 3.39484 1.07839 0
M  V30 1137 O 108.869 5.12694 1.89227 0
M  V30 1138 H 105.963 0.762816 0.319437 0
M  V30 1139 H 108.509 1.6942 -0.0973986 0
M  V30 1140 H 107.281 3.91151 0.107883 0
M  V30 1141 H 106.904 3.55281 1.78497 0
M  V30 1142 N 107.901 -0.206675 1.56239 0
M  V30 1143 C 109.317 -0.557025 1.49564 0
M  V30 1144 C 109.517 -1.86424 0.764735 0
M  V30 1145 O 108.573 -2.50584 0.310491 0
M  V30 1146 C 109.886 -0.622478 2.94186 0
M  V30 1147 C 111.434 -0.712099 3.04792 0
M  V30 1148 C 111.909 -0.808767 4.50803 0
M  V30 1149 N 113.4 -0.8726 4.54907 0
M  V30 1150 C 114.135 -0.967365 5.65181 0
M  V30 1151 N 113.631 -1.02515 6.85173 0
M  V30 1152 N 115.424 -1.00366 5.53067 0
M  V30 1153 H 107.575 0.650943 2.02179 0
M  V30 1154 H 109.838 0.230387 0.919579 0
M  V30 1155 H 109.544 0.268727 3.50672 0
M  V30 1156 H 109.418 -1.4811 3.46905 0
M  V30 1157 H 111.805 -1.59374 2.48363 0
M  V30 1158 H 111.886 0.172489 2.55218 0
M  V30 1159 H 111.53 0.0684754 5.07854 0
M  V30 1160 H 111.46 -1.70899 4.98098 0
M  V30 1161 H 113.951 -0.837657 3.68499 0
M  V30 1162 H 114.264 -1.09765 7.64965 0
M  V30 1163 H 112.609 -0.994026 6.87855 0
M  V30 1164 H 115.8 -0.95527 4.58249 0
M  V30 1165 H 115.973 -1.07405 6.39037 0
M  V30 1166 N 109.379 -1.50304 -0.473955 0
M  V30 1167 C 110.604 -1.65175 -1.25427 0
M  V30 1168 C 111.029 -0.333673 -1.85117 0
M  V30 1169 O 110.387 0.702114 -1.67153 0
M  V30 1170 C 110.435 -2.74295 -2.34082 0
M  V30 1171 O 109.539 -2.35349 -3.38651 0
M  V30 1172 H 108.88 -0.551944 -0.369126 0
M  V30 1173 H 111.41 -1.96662 -0.564364 0
M  V30 1174 H 111.42 -2.97285 -2.79438 0
M  V30 1175 H 110.095 -3.69959 -1.90008 0
M  V30 1176 H 108.672 -2.22794 -2.99027 0
M  V30 1177 N 110.857 0.726932 -1.39834 0
M  V30 1178 C 112.085 1.51613 -1.40787 0
M  V30 1179 C 112.5 1.88799 -0.00451505 0
M  V30 1180 O 111.857 1.54662 0.968809 0
M  V30 1181 C 111.908 2.79863 -2.28821 0
M  V30 1182 O 111.629 2.44253 -3.63692 0
M  V30 1183 C 113.13 3.73837 -2.38245 0
M  V30 1184 H 110.35 0.468264 -0.480593 0
M  V30 1185 H 112.894 0.897607 -1.83748 0
M  V30 1186 H 111.049 3.38027 -1.89252 0
M  V30 1187 H 111.463 3.26695 -4.1033 0
M  V30 1188 H 112.937 4.60699 -3.04073 0
M  V30 1189 H 113.414 4.16153 -1.40403 0
M  V30 1190 H 114.02 3.21589 -2.78317 0
M  V30 1191 N 112.336 1.25143 0.95797 0
M  V30 1192 C 113.561 1.12521 1.74223 0
M  V30 1193 C 113.986 -0.317402 1.85403 0
M  V30 1194 O 113.344 -1.2299 1.33204 0
M  V30 1195 C 113.392 1.78062 3.1357 0
M  V30 1196 O 112.496 1.058 3.98598 0
M  V30 1197 H 111.837 0.39304 0.535178 0
M  V30 1198 H 114.367 1.65641 1.201 0
M  V30 1199 H 114.377 1.84213 3.64046 0
M  V30 1200 H 113.052 2.83021 3.04749 0
M  V30 1201 H 111.629 1.07506 3.57067 0
M  V30 1202 N 113.814 -1.1601 1.06675 0
M  V30 1203 C 115.042 -1.90527 0.806667 0
M  V30 1204 C 115.457 -1.77643 -0.639396 0
M  V30 1205 O 114.814 -1.12369 -1.43803 0
M  V30 1206 C 114.865 -3.41106 1.19705 0
M  V30 1207 O 114.586 -3.53608 2.58636 0
M  V30 1208 C 116.087 -4.32663 0.965266 0
M  V30 1209 H 113.307 -0.604053 0.292166 0
M  V30 1210 H 115.851 -1.47026 1.4214 0
M  V30 1211 H 114.006 -3.82296 0.626774 0
M  V30 1212 H 114.42 -4.47011 2.74375 0
M  V30 1213 H 115.894 -5.36763 1.288 0
M  V30 1214 H 116.371 -4.39089 -0.0987936 0
M  V30 1215 H 116.977 -3.97206 1.52011 0
M  V30 1216 N 115.292 -0.849877 -1.32721 0
M  V30 1217 C 116.538 -0.451591 -1.97708 0
M  V30 1218 C 116.871 0.989175 -1.6712 0
M  V30 1219 O 116.146 1.69334 -0.956891 0
M  V30 1220 C 116.429 -0.685598 -3.53513 0
M  V30 1221 C 116.282 -2.17444 -3.93749 0
M  V30 1222 C 117.601 -0.138874 -4.39881 0
M  V30 1223 H 114.72 -0.16555 -0.718166 0
M  V30 1224 H 117.362 -1.06742 -1.57182 0
M  V30 1225 H 115.512 -0.161416 -3.88165 0
M  V30 1226 H 117.184 -2.76433 -3.693 0
M  V30 1227 H 115.427 -2.65476 -3.43081 0
M  V30 1228 H 116.098 -2.28888 -5.02309 0
M  V30 1229 H 118.574 -0.587068 -4.11938 0
M  V30 1230 H 117.45 -0.332213 -5.47894 0
M  V30 1231 H 117.711 0.95806 -4.31594 0
M  V30 1232 N 116.77 1.45427 -0.607355 0
M  V30 1233 C 118 2.06314 -0.108656 0
M  V30 1234 C 118.408 1.45269 1.21217 0
M  V30 1235 O 117.751 0.561115 1.74921 0
M  V30 1236 C 117.813 3.59345 0.105618 0
M  V30 1237 C 117.477 4.42723 -1.13337 0
M  V30 1238 C 118.474 4.77715 -2.05145 0
M  V30 1239 C 116.159 4.83478 -1.36213 0
M  V30 1240 C 118.153 5.52317 -3.18158 0
M  V30 1241 C 115.84 5.57835 -2.49527 0
M  V30 1242 C 116.838 5.92171 -3.40327 0
M  V30 1243 O 116.526 6.65019 -4.51669 0
M  V30 1244 H 116.258 0.672782 -0.0658842 0
M  V30 1245 H 118.812 1.87664 -0.834945 0
M  V30 1246 H 117.042 3.76394 0.886796 0
M  V30 1247 H 118.731 4.02076 0.555886 0
M  V30 1248 H 119.497 4.46787 -1.88697 0
M  V30 1249 H 115.376 4.56188 -0.664362 0
M  V30 1250 H 118.92 5.79036 -3.89054 0
M  V30 1251 H 114.817 5.88177 -2.65928 0
M  V30 1252 H 115.585 6.83469 -4.50348 0
M  V30 1253 N 118.248 0.346503 1.53744 0
M  V30 1254 C 119.181 -0.552023 2.21423 0
M  V30 1255 C 120.159 -1.09798 1.19929 0
M  V30 1256 O 121.343 -1.1577 1.4876 0
M  V30 1257 C 118.47 -1.75972 2.89398 0
M  V30 1258 C 117.516 -1.34295 4.04805 0
M  V30 1259 S 118.349 -0.360263 5.34287 0
M  V30 1260 C 119.505 -1.57473 6.05767 0
M  V30 1261 H 119.738 0.0228119 2.97291 0
M  V30 1262 H 117.271 0.130579 1.53847 0
M  V30 1263 H 119.229 -2.45256 3.2918 0
M  V30 1264 H 117.89 -2.30578 2.1329 0
M  V30 1265 H 117.083 -2.24349 4.51313 0
M  V30 1266 H 116.685 -0.729555 3.66815 0
M  V30 1267 H 118.977 -2.50875 6.29339 0
M  V30 1268 H 119.92 -1.15138 6.98676 0
M  V30 1269 H 120.328 -1.77212 5.35963 0
M  V30 1270 N 119.726 -1.57421 0.075193 0
M  V30 1271 C 120.636 -2.1642 -0.905511 0
M  V30 1272 C 121.652 -1.12828 -1.32461 0
M  V30 1273 O 122.828 -1.45109 -1.39661 0
M  V30 1274 C 119.893 -2.71693 -2.15369 0
M  V30 1275 C 118.954 -3.90171 -1.79068 0
M  V30 1276 C 118.187 -4.42798 -2.97936 0
M  V30 1277 O 118.41 -3.94416 -4.12058 0
M  V30 1278 O 117.344 -5.34085 -2.77555 0
M  V30 1279 H 121.17 -3.00588 -0.433626 0
M  V30 1280 H 118.755 -1.48664 -0.148067 0
M  V30 1281 H 120.637 -3.07104 -2.88557 0
M  V30 1282 H 119.312 -1.90582 -2.61649 0
M  V30 1283 H 118.219 -3.59606 -1.03122 0
M  V30 1284 H 119.552 -4.72584 -1.37569 0
M  V30 1285 N 121.204 0.198386 -1.56346 0
M  V30 1286 C 122.134 1.24865 -1.9731 0
M  V30 1287 C 123.115 1.47651 -0.844576 0
M  V30 1288 O 124.3 1.59444 -1.10866 0
M  V30 1289 C 121.43 2.59358 -2.30977 0
M  V30 1290 C 120.384 2.5119 -3.46537 0
M  V30 1291 C 119.71 3.89926 -3.65871 0
M  V30 1292 C 121.01 2.03977 -4.80823 0
M  V30 1293 H 122.704 0.908252 -2.85291 0
M  V30 1294 H 120.25 0.435462 -1.37258 0
M  V30 1295 H 122.203 3.33011 -2.58228 0
M  V30 1296 H 120.927 2.95132 -1.39874 0
M  V30 1297 H 119.586 1.79993 -3.19371 0
M  V30 1298 H 119.234 4.23046 -2.72105 0
M  V30 1299 H 118.934 3.85336 -4.4361 0
M  V30 1300 H 120.458 4.65205 -3.95495 0
M  V30 1301 H 121.872 2.67386 -5.07127 0
M  V30 1302 H 120.269 2.10397 -5.62008 0
M  V30 1303 H 121.339 0.992861 -4.74626 0
M  V30 1304 N 122.682 1.50554 0.465978 0
M  V30 1305 C 123.907 1.65838 1.24549 0
M  V30 1306 C 124.332 0.343486 1.84937 0
M  V30 1307 O 123.69 -0.69324 1.67523 0
M  V30 1308 C 123.738 2.75533 2.32624 0
M  V30 1309 O 122.842 2.37142 3.37398 0
M  V30 1310 H 122.183 0.553893 0.366194 0
M  V30 1311 H 124.713 1.96959 0.553927 0
M  V30 1312 H 124.723 2.98763 2.77857 0
M  V30 1313 H 123.398 3.70962 1.88043 0
M  V30 1314 H 121.975 2.24377 2.97841 0
M  V30 1315 N 124.16 -0.719506 1.40217 0
M  V30 1316 C 125.385 -1.51371 1.4178 0
M  V30 1317 C 125.81 -1.88091 0.0182355 0
M  V30 1318 O 125.168 -1.52997 -0.972707 0
M  V30 1319 C 125.216 -2.768 2.31115 0
M  V30 1320 O 124.32 -3.73349 1.7517 0
M  V30 1321 H 123.661 -0.456529 0.482159 0
M  V30 1322 H 126.191 -0.88644 1.844 0
M  V30 1323 H 126.201 -3.25371 2.46167 0
M  V30 1324 H 124.876 -2.49407 3.3282 0
M  V30 1325 H 123.453 -3.32179 1.69444 0
M  V30 1326 N 125.638 -1.25649 -0.95132 0
M  V30 1327 C 126.568 -1.08808 -2.06599 0
M  V30 1328 C 127.549 0.00382547 -1.701 0
M  V30 1329 O 128.734 -0.166325 -1.93486 0
M  V30 1330 C 125.864 -0.709542 -3.39975 0
M  V30 1331 C 124.818 -1.75206 -3.90496 0
M  V30 1332 C 124.144 -1.22811 -5.20405 0
M  V30 1333 C 125.444 -3.15153 -4.16504 0
M  V30 1334 H 127.138 -2.02048 -2.20946 0
M  V30 1335 H 124.684 -0.972835 -1.06169 0
M  V30 1336 H 126.637 -0.578649 -4.17408 0
M  V30 1337 H 125.361 0.258556 -3.25575 0
M  V30 1338 H 124.02 -1.87145 -3.15234 0
M  V30 1339 H 123.668 -0.250145 -5.02378 0
M  V30 1340 H 123.368 -1.92492 -5.55176 0
M  V30 1341 H 124.892 -1.10968 -6.00432 0
M  V30 1342 H 126.306 -3.06349 -4.84586 0
M  V30 1343 H 124.703 -3.82333 -4.62538 0
M  V30 1344 H 125.773 -3.61966 -3.22658 0
M  V30 1345 N 127.117 1.15442 -1.07289 0
M  V30 1346 C 128.533 1.38201 -0.798288 0
M  V30 1347 C 128.733 1.92429 0.597769 0
M  V30 1348 O 127.789 2.12962 1.3566 0
M  V30 1349 C 129.102 2.35357 -1.87156 0
M  V30 1350 C 130.65 2.49021 -1.89624 0
M  V30 1351 C 131.125 3.49468 -2.96034 0
M  V30 1352 N 132.616 3.57003 -2.95132 0
M  V30 1353 C 133.351 4.34543 -3.74112 0
M  V30 1354 N 132.847 5.15421 -4.6294 0
M  V30 1355 N 134.64 4.29625 -3.62462 0
M  V30 1356 H 126.791 0.78584 -1.97328 0
M  V30 1357 H 129.054 0.408065 -0.855679 0
M  V30 1358 H 128.76 2.02626 -2.87464 0
M  V30 1359 H 128.634 3.35129 -1.73114 0
M  V30 1360 H 131.021 2.81051 -0.899687 0
M  V30 1361 H 131.102 1.4925 -2.07745 0
M  V30 1362 H 130.746 3.18173 -3.95889 0
M  V30 1363 H 130.676 4.48992 -2.75161 0
M  V30 1364 H 133.167 2.99276 -2.30743 0
M  V30 1365 H 133.48 5.7183 -5.19837 0
M  V30 1366 H 131.825 5.14729 -4.66989 0
M  V30 1367 H 135.016 3.65505 -2.92444 0
M  V30 1368 H 135.189 4.89807 -4.24256 0
M  V30 1369 N 128.595 0.856903 1.32268 0
M  V30 1370 C 129.82 0.474569 2.01897 0
M  V30 1371 C 130.245 -0.921766 1.63967 0
M  V30 1372 O 129.603 -1.60589 0.84148 0
M  V30 1373 C 129.651 0.623799 3.55164 0
M  V30 1374 O 128.755 -0.342459 4.10976 0
M  V30 1375 H 128.096 0.190422 0.63611 0
M  V30 1376 H 130.626 1.15672 1.68764 0
M  V30 1377 H 130.636 0.512169 4.04773 0
M  V30 1378 H 129.311 1.64202 3.82113 0
M  V30 1379 H 127.888 -0.18688 3.72431 0
M  V30 1380 N 130.073 -1.45103 0.615059 0
M  V30 1381 C 130.983 -2.34382 -0.101034 0
M  V30 1382 C 131.999 -1.51681 -0.852585 0
M  V30 1383 O 133.175 -1.8446 -0.808484 0
M  V30 1384 C 130.24 -3.29417 -1.08099 0
M  V30 1385 C 129.301 -4.28025 -0.330577 0
M  V30 1386 C 128.534 -5.1852 -1.26385 0
M  V30 1387 O 128.757 -5.12598 -2.50198 0
M  V30 1388 O 127.691 -5.97122 -0.756866 0
M  V30 1389 H 131.517 -2.97033 0.632855 0
M  V30 1390 H 129.102 -1.4461 0.375293 0
M  V30 1391 H 130.984 -3.87958 -1.6452 0
M  V30 1392 H 129.659 -2.69321 -1.79577 0
M  V30 1393 H 128.566 -3.73078 0.276283 0
M  V30 1394 H 129.899 -4.90997 0.343866 0
M  V30 1395 N 131.551 -0.354651 -1.53558 0
M  V30 1396 C 132.828 0.294281 -1.93374 0
M  V30 1397 C 133.208 1.67313 -1.28723 0
M  V30 1398 O 132.556 2.24179 -0.442247 0
M  V30 1399 C 132.766 0.355445 -3.47185 0
M  V30 1400 C 134.114 0.601007 -4.20325 0
M  V30 1401 O 135.138 0.437106 -3.53508 0
M  V30 1402 O 133.997 0.919322 -5.38712 0
M  V30 1403 H 131.091 0.174033 -0.808481 0
M  V30 1404 H 133.637 -0.406638 -1.64756 0
M  V30 1405 H 132.409 -0.611729 -3.86489 0
M  V30 1406 H 132.032 1.1027 -3.82003 0
M  V30 1407 N 133.029 1.57378 -0.0835403 0
M  V30 1408 C 134.257 1.98263 0.59157 0
M  V30 1409 C 134.672 0.962302 1.62435 0
M  V30 1410 O 134.029 -0.049581 1.82433 0
M  V30 1411 C 134.08 3.39214 1.24965 0
M  V30 1412 O 133.801 4.37339 0.258186 0
M  V30 1413 C 135.302 3.95038 2.01147 0
M  V30 1414 H 132.522 0.651773 0.159477 0
M  V30 1415 H 135.066 2.03878 -0.159415 0
M  V30 1416 H 133.221 3.34649 1.95164 0
M  V30 1417 H 133.635 5.19371 0.731734 0
M  V30 1418 H 135.109 4.95848 2.42567 0
M  V30 1419 H 135.586 3.32222 2.87272 0
M  V30 1420 H 136.192 4.0304 1.35789 0
M  V30 1421 N 134.507 -0.190092 1.56449 0
M  V30 1422 C 135.47 -1.21925 1.9408 0
M  V30 1423 C 136.47 -1.38176 0.822431 0
M  V30 1424 O 137.66 -1.35903 1.08977 0
M  V30 1425 C 134.792 -2.58773 2.21922 0
M  V30 1426 H 135.985 -0.897464 2.86157 0
M  V30 1427 H 133.538 -0.43181 1.50217 0
M  V30 1428 H 134.273 -2.95998 1.32499 0
M  V30 1429 H 134.058 -2.48348 3.03424 0
M  V30 1430 H 135.548 -3.32978 2.52022 0
M  V30 1431 N 135.985 -1.50799 -0.457987 0
M  V30 1432 C 137.231 -1.62683 -1.21088 0
M  V30 1433 C 137.564 -0.332268 -1.91336 0
M  V30 1434 O 136.839 0.667043 -1.82704 0
M  V30 1435 C 137.122 -2.81615 -2.24422 0
M  V30 1436 C 136.975 -4.20989 -1.58392 0
M  V30 1437 C 138.294 -2.96085 -3.2561 0
M  V30 1438 H 135.413 -0.592087 -0.438864 0
M  V30 1439 H 138.055 -1.83225 -0.50286 0
M  V30 1440 H 136.205 -2.64231 -2.84806 0
M  V30 1441 H 137.877 -4.49994 -1.01504 0
M  V30 1442 H 136.12 -4.24641 -0.886704 0
M  V30 1443 H 136.791 -5.0016 -2.33547 0
M  V30 1444 H 139.267 -3.12042 -2.75262 0
M  V30 1445 H 138.143 -3.80902 -3.95228 0
M  V30 1446 H 138.404 -2.0726 -3.90507 0
M  V30 1447 N 137.463 0.71206 -1.40597 0
M  V30 1448 C 138.693 1.49894 -1.42181 0
M  V30 1449 C 139.101 1.89189 -0.0208078 0
M  V30 1450 O 138.444 1.56223 0.966436 0
M  V30 1451 C 138.506 2.80215 -2.25211 0
M  V30 1452 C 138.17 2.63221 -3.73582 0
M  V30 1453 C 139.167 2.30249 -4.66135 0
M  V30 1454 C 136.852 2.79376 -4.17438 0
M  V30 1455 C 138.846 2.13645 -6.00529 0
M  V30 1456 C 136.533 2.6239 -5.51901 0
M  V30 1457 C 137.531 2.29573 -6.43262 0
M  V30 1458 O 137.219 2.12719 -7.75246 0
M  V30 1459 H 136.951 0.469031 -0.486812 0
M  V30 1460 H 139.505 0.88564 -1.85326 0
M  V30 1461 H 137.735 3.4389 -1.76852 0
M  V30 1462 H 139.424 3.41947 -2.18694 0
M  V30 1463 H 140.19 2.17398 -4.33547 0
M  V30 1464 H 136.069 3.03906 -3.46644 0
M  V30 1465 H 139.613 1.87953 -6.71803 0
M  V30 1466 H 135.51 2.74826 -5.84073 0
M  V30 1467 H 136.278 2.27611 -7.86216 0
M  V30 1468 N 138.941 1.26152 0.944643 0
M  V30 1469 C 139.871 1.09902 2.06019 0
M  V30 1470 C 140.852 0.00519538 1.70099 0
M  V30 1471 O 142.037 0.176583 1.93396 0
M  V30 1472 C 139.167 0.727562 3.39594 0
M  V30 1473 C 138.121 1.77274 3.89561 0
M  V30 1474 C 137.447 1.25569 5.19747 0
M  V30 1475 C 138.747 3.17357 4.14827 0
M  V30 1476 H 140.441 2.03217 2.19871 0
M  V30 1477 H 137.987 0.978452 1.05652 0
M  V30 1478 H 139.94 0.600777 4.17095 0
M  V30 1479 H 138.664 -0.241287 3.25707 0
M  V30 1480 H 137.323 1.88814 3.14237 0
M  V30 1481 H 136.971 0.276783 5.02238 0
M  V30 1482 H 136.671 1.95433 5.54148 0
M  V30 1483 H 138.195 1.1415 5.99835 0
M  V30 1484 H 139.609 3.08914 4.82954 0
M  V30 1485 H 138.006 3.84781 4.60504 0
M  V30 1486 H 139.076 3.63673 3.20734 0
M  V30 1487 N 140.419 -1.14872 1.07899 0
M  V30 1488 C 141.659 -1.8745 0.814965 0
M  V30 1489 C 142.023 -1.80758 -0.64733 0
M  V30 1490 O 143.224 -2.48422 -1.02664 0
M  V30 1491 C 141.495 -3.32286 1.31607 0
M  V30 1492 S 143.054 -4.22537 1.18357 0
M  V30 1493 H 139.872 -0.646833 0.295174 0
M  V30 1494 H 142.474 -1.38555 1.37923 0
M  V30 1495 H 141.178 -3.34703 2.37491 0
M  V30 1496 H 140.709 -3.86238 0.747261 0
M  V30 1497 H 142.724 -4.96044 0.124586 0
M  V30 1498 N 141.898 -0.863906 -1.31812 0
M  V30 1499 C 143.146 -0.470904 -1.96537 0
M  V30 1500 C 143.467 0.978771 -1.68657 0
M  V30 1501 O 142.737 1.6853 -0.998717 0
M  V30 1502 H 141.317 -0.171148 -0.72713 0
M  V30 1503 H 143.979 -1.10236 -1.60729 0
M  V30 1504 H 143.075 -0.623616 -3.05806 0
M  V30 1505 N 143.376 1.44774 -0.622745 0
M  V30 1506 C 144.792 1.56986 -0.287652 0
M  V30 1507 C 144.992 1.61167 1.20944 0
M  V30 1508 O 144.048 1.55015 1.99315 0
M  V30 1509 C 145.361 2.84551 -0.972188 0
M  V30 1510 C 146.909 2.9825 -0.949536 0
M  V30 1511 C 147.384 4.28605 -1.61437 0
M  V30 1512 N 148.875 4.35399 -1.58057 0
M  V30 1513 C 149.61 5.34964 -2.064 0
M  V30 1514 N 149.106 6.40981 -2.62897 0
M  V30 1515 N 150.899 5.26419 -1.97078 0
M  V30 1516 H 143.05 1.40304 -1.59463 0
M  V30 1517 H 145.313 0.671794 -0.668878 0
M  V30 1518 H 145.019 2.87417 -2.02693 0
M  V30 1519 H 144.893 3.73807 -0.504771 0
M  V30 1520 H 147.28 2.94941 0.0967067 0
M  V30 1521 H 147.361 2.10364 -1.45536 0
M  V30 1522 H 147.005 4.32672 -2.66002 0
M  V30 1523 H 146.935 5.15334 -1.08344 0
M  V30 1524 H 149.426 3.59397 -1.16801 0
M  V30 1525 H 149.739 7.13225 -2.97539 0
M  V30 1526 H 148.084 6.4169 -2.66943 0
M  V30 1527 H 151.275 4.42504 -1.52669 0
M  V30 1528 H 151.448 6.03861 -2.35066 0
M  V30 1529 N 144.854 0.36279 1.53368 0
M  V30 1530 C 145.764 -0.492994 2.29362 0
M  V30 1531 C 146.78 -1.09507 1.35219 0
M  V30 1532 O 147.956 -1.10662 1.68273 0
M  V30 1533 C 145.021 -1.61855 3.066 0
M  V30 1534 C 144.082 -1.04429 4.16405 0
M  V30 1535 C 143.315 -2.11621 4.89951 0
M  V30 1536 O 143.538 -3.32684 4.63333 0
M  V30 1537 O 142.472 -1.74835 5.75948 0
M  V30 1538 H 146.298 0.125331 3.03441 0
M  V30 1539 H 143.883 0.127253 1.48857 0
M  V30 1540 H 145.765 -2.27302 3.54841 0
M  V30 1541 H 144.44 -2.22233 2.3536 0
M  V30 1542 H 143.347 -0.353819 3.72423 0
M  V30 1543 H 144.68 -0.485113 4.89804 0
M  V30 1544 N 146.332 -1.57332 0.0918853 0
M  V30 1545 C 147.58 -1.93853 -0.571446 0
M  V30 1546 C 147.901 -0.974212 -1.6892 0
M  V30 1547 O 147.171 -0.0257254 -1.95883 0
M  V30 1548 H 145.751 -0.715666 -0.214082 0
M  V30 1549 H 148.413 -1.94287 0.154464 0
M  V30 1550 H 147.509 -2.96191 -0.983729 0
M  V30 1551 N 147.81 0.181792 -1.56548 0
M  V30 1552 C 149.059 0.898348 -1.8059 0
M  V30 1553 C 149.372 1.83862 -0.667379 0
M  V30 1554 O 150.578 2.59678 -0.792446 0
M  V30 1555 C 149.034 1.64791 -3.19956 0
M  V30 1556 C 148.642 0.751789 -4.41647 0
M  V30 1557 C 150.386 2.35331 -3.53298 0
M  V30 1558 C 148.293 1.50098 -5.72035 0
M  V30 1559 H 147.223 0.339194 -0.673397 0
M  V30 1560 H 149.874 0.151413 -1.82874 0
M  V30 1561 H 148.256 2.43921 -3.11959 0
M  V30 1562 H 149.43 -0.0018076 -4.608 0
M  V30 1563 H 147.745 0.156562 -4.16106 0
M  V30 1564 H 150.342 2.91958 -4.47956 0
M  V30 1565 H 150.685 3.10164 -2.77676 0
M  V30 1566 H 151.218 1.63154 -3.62803 0
M  V30 1567 H 147.957 0.795175 -6.50659 0
M  V30 1568 H 147.477 2.22817 -5.56878 0
M  V30 1569 H 149.156 2.05125 -6.13622 0
M  V30 1570 N 149.288 1.51039 0.449983 0
M  V30 1571 C 150.704 1.38934 0.785462 0
M  V30 1572 C 150.904 0.461817 1.96136 0
M  V30 1573 O 149.96 -0.0877389 2.52348 0
M  V30 1574 C 151.273 2.80724 1.0777 0
M  V30 1575 C 152.821 2.89787 1.1829 0
M  V30 1576 C 153.296 4.32457 1.50815 0
M  V30 1577 N 154.787 4.35505 1.57764 0
M  V30 1578 C 155.522 5.42914 1.84477 0
M  V30 1579 N 155.018 6.60502 2.09068 0
M  V30 1580 N 156.811 5.3038 1.86155 0
M  V30 1581 H 148.962 2.09904 -0.324647 0
M  V30 1582 H 151.225 0.944378 -0.0827957 0
M  V30 1583 H 150.931 3.50531 0.286498 0
M  V30 1584 H 150.805 3.19273 2.00859 0
M  V30 1585 H 153.192 2.20186 1.96474 0
M  V30 1586 H 153.273 2.54752 0.231314 0
M  V30 1587 H 152.917 5.02603 0.731622 0
M  V30 1588 H 152.847 4.64995 2.47158 0
M  V30 1589 H 155.338 3.50724 1.40715 0
M  V30 1590 H 155.651 7.38158 2.28785 0
M  V30 1591 H 153.996 6.63639 2.06416 0
M  V30 1592 H 157.187 4.37505 1.66454 0
M  V30 1593 H 157.36 6.1417 2.06637 0
M  V30 1594 N 150.766 -0.704594 1.40972 0
M  V30 1595 C 151.996 -1.49138 1.42974 0
M  V30 1596 C 152.404 -1.89175 0.0308406 0
M  V30 1597 O 151.747 -1.56734 -0.958138 0
M  V30 1598 C 151.809 -2.79016 2.26694 0
M  V30 1599 C 151.473 -2.61236 3.74973 0
M  V30 1600 C 152.47 -2.27773 4.67349 0
M  V30 1601 C 150.155 -2.77158 4.18914 0
M  V30 1602 C 152.149 -2.10457 6.01653 0
M  V30 1603 C 149.836 -2.59459 5.53285 0
M  V30 1604 C 150.834 -2.26158 6.4447 0
M  V30 1605 O 150.522 -2.08605 7.76363 0
M  V30 1606 H 150.254 -0.466443 0.489292 0
M  V30 1607 H 152.808 -0.8758 1.85793 0
M  V30 1608 H 151.038 -3.42947 1.78673 0
M  V30 1609 H 152.727 -3.40782 2.20504 0
M  V30 1610 H 153.493 -2.15095 4.34694 0
M  V30 1611 H 149.372 -3.02064 3.48251 0
M  V30 1612 H 152.916 -1.84387 6.72791 0
M  V30 1613 H 148.813 -2.71725 5.85522 0
M  V30 1614 H 149.581 -2.23439 7.87412 0
M  V30 1615 N 152.244 -1.26651 -0.937939 0
M  V30 1616 C 153.474 -1.15006 -1.71631 0
M  V30 1617 C 153.882 0.297026 -1.86854 0
M  V30 1618 O 153.225 1.21493 -1.37786 0
M  V30 1619 C 153.287 -1.74984 -3.14039 0
M  V30 1620 C 152.951 -3.24103 -3.2219 0
M  V30 1621 C 153.948 -4.20877 -3.05219 0
M  V30 1622 C 151.633 -3.64625 -3.45476 0
M  V30 1623 C 153.627 -5.56151 -3.11408 0
M  V30 1624 C 151.314 -5.00032 -3.513 0
M  V30 1625 C 152.312 -5.95604 -3.34282 0
M  V30 1626 O 152 -7.28545 -3.3982 0
M  V30 1627 H 151.732 -0.401183 -0.544085 0
M  V30 1628 H 154.286 -1.67832 -1.18413 0
M  V30 1629 H 152.516 -1.16624 -3.68695 0
M  V30 1630 H 154.205 -1.58199 -3.73802 0
M  V30 1631 H 154.971 -3.90908 -2.87081 0
M  V30 1632 H 150.85 -2.90718 -3.57777 0
M  V30 1633 H 154.394 -6.30727 -2.98043 0
M  V30 1634 H 150.291 -5.29659 -3.68959 0
M  V30 1635 H 151.059 -7.3686 -3.56343 0
M  V30 1636 N 153.722 1.14298 -1.08507 0
M  V30 1637 C 154.97 1.84993 -0.813763 0
M  V30 1638 C 155.291 1.83405 0.662393 0
M  V30 1639 O 154.561 1.28319 1.48024 0
M  V30 1640 H 153.141 0.684966 -0.298045 0
M  V30 1641 H 155.803 1.385 -1.37126 0
M  V30 1642 H 154.899 2.89788 -1.15884 0
M  V30 1643 N 155.201 0.870884 1.31352 0
M  V30 1644 C 156.131 0.343096 2.30966 0
M  V30 1645 C 157.112 -0.566507 1.60389 0
M  V30 1646 O 158.297 -0.483336 1.88089 0
M  V30 1647 C 155.427 -0.455487 3.443 0
M  V30 1648 C 154.381 0.361103 4.26474 0
M  V30 1649 C 153.707 -0.563221 5.31725 0
M  V30 1650 C 155.007 1.59566 4.97329 0
M  V30 1651 H 156.701 1.17548 2.75359 0
M  V30 1652 H 154.247 0.566686 1.32381 0
M  V30 1653 H 156.2 -0.83525 4.13039 0
M  V30 1654 H 154.924 -1.32139 2.98675 0
M  V30 1655 H 153.583 0.722825 3.59403 0
M  V30 1656 H 153.231 -1.42643 4.82351 0
M  V30 1657 H 152.931 -0.0207409 5.87596 0
M  V30 1658 H 154.455 -0.939808 6.03324 0
M  V30 1659 H 155.869 1.28728 5.58661 0
M  V30 1660 H 154.266 2.07728 5.63 0
M  V30 1661 H 155.336 2.34798 4.24262 0
M  V30 1662 N 156.679 -1.44442 0.630414 0
M  V30 1663 C 157.609 -2.33418 -0.0618083 0
M  V30 1664 C 158.59 -1.48165 -0.835541 0
M  V30 1665 O 159.775 -1.76886 -0.801564 0
M  V30 1666 C 156.905 -3.31222 -1.04449 0
M  V30 1667 C 155.859 -4.26288 -0.382436 0
M  V30 1668 C 155.185 -5.13954 -1.47497 0
M  V30 1669 C 156.485 -5.1744 0.710865 0
M  V30 1670 H 158.179 -2.91548 0.681184 0
M  V30 1671 H 155.725 -1.40191 0.329026 0
M  V30 1672 H 157.678 -3.92351 -1.53748 0
M  V30 1673 H 156.402 -2.71299 -1.81836 0
M  V30 1674 H 155.061 -3.6649 0.0899054 0
M  V30 1675 H 154.709 -4.50385 -2.2397 0
M  V30 1676 H 154.409 -5.7837 -1.03737 0
M  V30 1677 H 155.933 -5.77955 -1.96979 0
M  V30 1678 H 157.347 -5.72509 0.300996 0
M  V30 1679 H 155.744 -5.90455 1.07156 0
M  V30 1680 H 156.814 -4.58496 1.57829 0
M  V30 1681 N 158.157 -0.370918 -1.53173 0
M  V30 1682 C 159.405 0.216673 -2.00935 0
M  V30 1683 C 159.726 1.48845 -1.25977 0
M  V30 1684 O 158.996 1.92286 -0.374551 0
M  V30 1685 H 157.576 0.0830565 -0.742368 0
M  V30 1686 H 160.238 -0.49838 -1.8842 0
M  V30 1687 H 159.334 0.439893 -3.08984 0
M  V30 1688 N 159.635 1.57281 -0.100228 0
M  V30 1689 C 160.912 1.86014 0.604812 0
M  V30 1690 C 161.292 0.998025 1.86018 0
M  V30 1691 O 160.64 0.0718184 2.28387 0
M  V30 1692 C 160.85 3.36784 0.915278 0
M  V30 1693 C 162.198 4.04957 1.27651 0
M  V30 1694 O 163.222 3.41695 1.00613 0
M  V30 1695 O 162.081 5.16593 1.7831 0
M  V30 1696 H 159.175 0.76942 0.303185 0
M  V30 1697 H 161.721 1.69176 -0.133313 0
M  V30 1698 H 160.493 3.91292 0.0248896 0
M  V30 1699 H 160.116 3.58987 1.70921 0
M  V30 1700 N 161.113 -0.173488 1.56642 0
M  V30 1701 C 162.343 -0.904781 1.85734 0
M  V30 1702 C 162.751 -1.76431 0.68328 0
M  V30 1703 O 162.094 -1.802 -0.356865 0
M  V30 1704 C 162.156 -1.83382 3.09211 0
M  V30 1705 C 161.82 -1.15411 4.42187 0
M  V30 1706 C 162.817 -0.520609 5.17287 0
M  V30 1707 C 160.502 -1.15151 4.88923 0
M  V30 1708 C 162.496 0.106412 6.37311 0
M  V30 1709 C 160.183 -0.520664 6.08878 0
M  V30 1710 C 161.181 0.107196 6.82916 0
M  V30 1711 O 160.869 0.728102 8.00596 0
M  V30 1712 H 160.601 -0.268408 0.62043 0
M  V30 1713 H 163.155 -0.179096 2.04618 0
M  V30 1714 H 161.385 -2.59976 2.86268 0
M  V30 1715 H 163.074 -2.43476 3.24768 0
M  V30 1716 H 163.84 -0.514606 4.82262 0
M  V30 1717 H 159.719 -1.62961 4.31236 0
M  V30 1718 H 163.263 0.597081 6.9504 0
M  V30 1719 H 159.16 -0.524242 6.43368 0
M  V30 1720 H 159.928 0.627138 8.16094 0
M  V30 1721 N 162.591 -1.51276 -0.441967 0
M  V30 1722 C 163.837 -1.6492 -1.1905 0
M  V30 1723 C 164.192 -0.358731 -1.89026 0
M  V30 1724 O 163.485 0.645193 -1.8041 0
M  V30 1725 C 163.679 -2.78746 -2.23686 0
M  V30 1726 C 163.508 -4.18737 -1.63979 0
M  V30 1727 C 162.278 -4.84739 -1.42674 0
M  V30 1728 C 164.476 -5.01988 -1.11858 0
M  V30 1729 N 162.458 -6.08858 -0.785159 0
M  V30 1730 C 163.829 -6.17071 -0.601989 0
M  V30 1731 C 165.884 -4.87551 -1.0099 0
M  V30 1732 C 164.587 -7.19299 0.0126012 0
M  V30 1733 C 166.613 -5.89983 -0.409206 0
M  V30 1734 C 165.975 -7.04333 0.0968651 0
M  V30 1735 H 162.074 -0.657416 -0.423471 0
M  V30 1736 H 164.658 -1.8849 -0.48782 0
M  V30 1737 H 162.829 -2.56848 -2.91348 0
M  V30 1738 H 164.561 -2.81595 -2.90666 0
M  V30 1739 H 161.316 -4.42528 -1.68719 0
M  V30 1740 H 161.74 -6.75282 -0.481942 0
M  V30 1741 H 166.382 -3.99401 -1.38703 0
M  V30 1742 H 164.1 -8.071 0.401879 0
M  V30 1743 H 167.686 -5.8088 -0.327079 0
M  V30 1744 H 166.566 -7.82238 0.554373 0
M  V30 1745 N 164.069 0.697108 -1.41344 0
M  V30 1746 C 165.317 1.45426 -1.40341 0
M  V30 1747 C 165.638 1.94996 -0.0128787 0
M  V30 1748 O 164.908 1.71599 0.945027 0
M  V30 1749 H 163.488 0.539594 -0.516573 0
M  V30 1750 H 166.15 0.825201 -1.76569 0
M  V30 1751 H 165.246 2.31817 -2.08967 0
M  V30 1752 N 165.547 1.27147 0.931209 0
M  V30 1753 C 166.479 1.05364 2.03546 0
M  V30 1754 C 167.492 0.0108438 1.62796 0
M  V30 1755 O 168.681 0.25202 1.76712 0
M  V30 1756 C 165.781 0.575566 3.33977 0
M  V30 1757 C 164.954 1.68985 4.03439 0
M  V30 1758 C 164.013 1.20813 5.12143 0
M  V30 1759 O 163.039 1.90712 5.363 0
M  V30 1760 N 164.241 0.0618851 5.80467 0
M  V30 1761 H 167.006 2.00454 2.22796 0
M  V30 1762 H 164.567 1.18666 1.10136 0
M  V30 1763 H 166.559 0.237264 4.04004 0
M  V30 1764 H 165.129 -0.282016 3.11325 0
M  V30 1765 H 164.349 2.19861 3.27192 0
M  V30 1766 H 165.637 2.4378 4.46597 0
M  V30 1767 H 165.035 -0.521621 5.6329 0
M  V30 1768 H 163.592 -0.217264 6.51438 0
M  V30 1769 N 167.025 -1.13721 1.09112 0
M  V30 1770 C 168.273 -1.84559 0.823562 0
M  V30 1771 C 168.594 -1.83754 -0.652658 0
M  V30 1772 O 167.864 -1.29102 -1.47342 0
M  V30 1773 H 166.444 -0.683376 0.301673 0
M  V30 1774 H 169.106 -1.37771 1.37859 0
M  V30 1775 H 168.202 -2.8917 1.17419 0
M  V30 1776 N 168.503 -0.877838 -1.30888 0
M  V30 1777 C 169.731 -0.507414 -2.00581 0
M  V30 1778 C 170.146 0.902216 -1.65848 0
M  V30 1779 O 169.503 1.59225 -0.891831 0
M  V30 1780 C 169.554 -0.664162 -3.55347 0
M  V30 1781 O 169.275 -2.01829 -3.8884 0
M  V30 1782 C 170.776 -0.295787 -4.42312 0
M  V30 1783 H 167.996 -0.196866 -0.641471 0
M  V30 1784 H 170.54 -1.18117 -1.66939 0
M  V30 1785 H 168.695 -0.0378619 -3.87381 0
M  V30 1786 H 169.109 -2.03174 -4.8355 0
M  V30 1787 H 170.583 -0.456388 -5.5011 0
M  V30 1788 H 171.06 0.765663 -4.32475 0
M  V30 1789 H 171.666 -0.898113 -4.15709 0
M  V30 1790 N 169.982 1.44106 -0.638065 0
M  V30 1791 C 170.912 2.33448 0.0494287 0
M  V30 1792 C 171.893 1.48606 0.827672 0
M  V30 1793 O 173.078 1.77308 0.792173 0
M  V30 1794 C 170.208 3.31771 1.02691 0
M  V30 1795 C 169.162 4.26485 0.359823 0
M  V30 1796 C 168.488 5.14729 1.44769 0
M  V30 1797 C 169.788 5.17056 -0.738296 0
M  V30 1798 H 171.482 2.91183 -0.696636 0
M  V30 1799 H 169.028 1.40014 -0.336456 0
M  V30 1800 H 170.981 3.93161 1.51666 0
M  V30 1801 H 169.705 2.7226 1.80395 0
M  V30 1802 H 168.364 3.66437 -0.10934 0
M  V30 1803 H 168.012 4.51566 2.21578 0
M  V30 1804 H 167.712 5.78913 1.00668 0
M  V30 1805 H 169.236 5.78991 1.93911 0
M  V30 1806 H 170.65 5.72342 -0.331354 0
M  V30 1807 H 169.047 5.89879 -1.10286 0
M  V30 1808 H 170.117 4.57652 -1.60258 0
M  V30 1809 N 171.46 0.379036 1.52974 0
M  V30 1810 C 172.706 -0.206727 2.01744 0
M  V30 1811 C 173.039 -1.47314 1.26539 0
M  V30 1812 O 172.314 -1.91084 0.362903 0
M  V30 1813 C 172.597 -0.485066 3.56818 0
M  V30 1814 C 172.45 0.795919 4.42702 0
M  V30 1815 C 173.769 -1.28003 4.21074 0
M  V30 1816 H 170.888 -0.0736607 0.73331 0
M  V30 1817 H 173.53 0.506581 1.83122 0
M  V30 1818 H 171.68 -1.09272 3.72816 0
M  V30 1819 H 173.352 1.43307 4.38476 0
M  V30 1820 H 171.595 1.41344 4.10127 0
M  V30 1821 H 172.266 0.555947 5.49193 0
M  V30 1822 H 174.742 -0.765867 4.08991 0
M  V30 1823 H 173.618 -1.44352 5.29579 0
M  V30 1824 H 173.879 -2.29236 3.78026 0
M  V30 1825 N 172.938 -1.57226 0.108567 0
M  V30 1826 C 174.166 -1.99179 -0.559954 0
M  V30 1827 C 174.581 -0.988022 -1.60884 0
M  V30 1828 O 173.938 0.0205512 -1.82488 0
M  V30 1829 C 173.989 -3.41159 -1.19552 0
M  V30 1830 O 173.71 -4.37694 -0.188577 0
M  V30 1831 C 175.211 -3.98188 -1.94837 0
M  V30 1832 H 172.431 -0.654228 -0.149088 0
M  V30 1833 H 174.975 -2.03598 0.19183 0
M  V30 1834 H 173.13 -3.37711 -1.89815 0
M  V30 1835 H 173.544 -5.20469 -0.649014 0
M  V30 1836 H 175.018 -4.99644 -2.34648 0
M  V30 1837 H 175.495 -3.3675 -2.81951 0
M  V30 1838 H 176.101 -4.0515 -1.2936 0
M  V30 1839 N 174.416 0.165178 -1.56732 0
M  V30 1840 C 175.662 0.882112 -1.82611 0
M  V30 1841 C 175.995 1.81628 -0.687378 0
M  V30 1842 O 175.27 1.92009 0.310267 0
M  V30 1843 C 175.553 1.67245 -3.18906 0
M  V30 1844 C 175.406 0.760987 -4.43316 0
M  V30 1845 C 176.725 2.63884 -3.52212 0
M  V30 1846 H 173.844 0.319242 -0.664269 0
M  V30 1847 H 176.486 0.148052 -1.89422 0
M  V30 1848 H 174.636 2.29824 -3.1323 0
M  V30 1849 H 176.308 0.147596 -4.61064 0
M  V30 1850 H 174.551 0.0694102 -4.33744 0
M  V30 1851 H 175.222 1.34962 -5.35247 0
M  V30 1852 H 177.698 2.11429 -3.58381 0
M  V30 1853 H 176.574 3.16245 -4.48643 0
M  V30 1854 H 176.835 3.44377 -2.77231 0
M  V30 1855 N 175.894 1.51508 0.433938 0
M  V30 1856 C 177.119 1.68443 1.21003 0
M  V30 1857 C 177.544 0.382636 1.84167 0
M  V30 1858 O 176.902 -0.65755 1.68956 0
M  V30 1859 C 176.95 2.80405 2.26727 0
M  V30 1860 O 176.054 2.44245 3.32292 0
M  V30 1861 H 175.395 0.561536 0.354363 0
M  V30 1862 H 177.925 1.9809 0.512024 0
M  V30 1863 H 177.935 3.0459 2.71457 0
M  V30 1864 H 176.61 3.74867 1.80132 0
M  V30 1865 H 175.187 2.30644 2.93015 0
M  V30 1866 N 177.372 -0.689602 1.41712 0
M  V30 1867 C 178.597 -1.48329 1.44959 0
M  V30 1868 C 179.022 -1.8801 0.0581283 0
M  V30 1869 O 178.38 -1.55026 -0.940035 0
M  V30 1870 C 178.428 -2.71835 2.36935 0
M  V30 1871 O 177.532 -3.69549 1.8305 0
M  V30 1872 H 176.873 -0.446199 0.491734 0
M  V30 1873 H 179.403 -0.847127 1.86239 0
M  V30 1874 H 179.413 -3.20076 2.53013 0
M  V30 1875 H 178.088 -2.42291 3.38035 0
M  V30 1876 H 176.665 -3.2851 1.76452 0
M  V30 1877 N 178.85 -1.27639 -0.924453 0
M  V30 1878 C 179.813 -1.10681 -2.00705 0
M  V30 1879 C 180.813 -0.0497823 -1.60723 0
M  V30 1880 O 182.003 -0.294654 -1.7169 0
M  V30 1881 C 179.135 -0.687164 -3.33902 0
M  V30 1882 H 180.328 -2.06817 -2.17179 0
M  V30 1883 H 177.881 -1.10473 -1.10569 0
M  V30 1884 H 178.616 0.275439 -3.23128 0
M  V30 1885 H 178.401 -1.45061 -3.6428 0
M  V30 1886 H 179.891 -0.590853 -4.13399 0
M  V30 1887 N 180.328 1.1314 -1.09713 0
M  V30 1888 C 181.553 1.88862 -0.857081 0
M  V30 1889 C 181.978 1.78729 0.586304 0
M  V30 1890 O 181.336 1.13692 1.41222 0
M  V30 1891 C 181.384 3.36325 -1.30069 0
M  V30 1892 O 180.488 4.09815 -0.461007 0
M  V30 1893 H 179.829 0.587108 -0.310162 0
M  V30 1894 H 182.359 1.43129 -1.46203 0
M  V30 1895 H 182.369 3.87157 -1.28738 0
M  V30 1896 H 181.044 3.43017 -2.35185 0
M  V30 1897 H 179.621 3.68986 -0.538888 0
M  V30 1898 N 181.806 0.884767 1.30421 0
M  V30 1899 C 183.034 0.518044 2.0031 0
M  V30 1900 C 183.449 -0.893408 1.66324 0
M  V30 1901 O 182.806 -1.5875 0.900262 0
M  V30 1902 C 182.857 0.682997 3.54989 0
M  V30 1903 O 182.578 2.03888 3.87764 0
M  V30 1904 C 184.079 0.31924 4.42149 0
M  V30 1905 H 181.299 0.200265 0.640418 0
M  V30 1906 H 183.843 1.19001 1.6631 0
M  V30 1907 H 181.998 0.0584052 3.87356 0
M  V30 1908 H 182.412 2.05735 4.82466 0
M  V30 1909 H 183.886 0.485555 5.4986 0
M  V30 1910 H 184.363 -0.742717 4.32875 0
M  V30 1911 H 184.969 0.920147 4.15227 0
M  V30 1912 N 183.284 -1.43765 0.645699 0
M  V30 1913 C 184.231 -2.30745 -0.0504648 0
M  V30 1914 C 185.201 -1.4432 -0.822241 0
M  V30 1915 O 186.386 -1.73202 -0.800358 0
M  V30 1916 C 183.526 -3.29802 -1.0161 0
M  V30 1917 C 182.639 -4.31326 -0.241219 0
M  V30 1918 C 181.774 -5.17469 -1.19998 0
M  V30 1919 C 180.813 -6.10691 -0.415094 0
M  V30 1920 N 179.95 -6.89483 -1.32506 0
M  V30 1921 H 184.79 -2.8973 0.697155 0
M  V30 1922 H 182.327 -1.42738 0.355563 0
M  V30 1923 H 184.285 -3.85734 -1.58949 0
M  V30 1924 H 182.915 -2.72483 -1.73069 0
M  V30 1925 H 181.967 -3.77749 0.448334 0
M  V30 1926 H 183.279 -4.9743 0.369437 0
M  V30 1927 H 182.433 -5.7799 -1.84424 0
M  V30 1928 H 181.172 -4.51473 -1.84455 0
M  V30 1929 H 180.177 -5.49265 0.242565 0
M  V30 1930 H 181.402 -6.78727 0.224966 0
M  V30 1931 H 179.348 -6.26142 -1.95657 0
M  V30 1932 H 179.265 -7.52081 -0.768783 0
M  V30 1933 H 180.533 -7.54516 -1.9577 0
M  V30 1934 N 184.763 -0.387143 -1.52771 0
M  V30 1935 C 186.011 0.195349 -2.01154 0
M  V30 1936 C 186.332 1.475 -1.27549 0
M  V30 1937 O 185.602 1.91878 -0.394924 0
M  V30 1938 H 184.182 0.075178 -0.743207 0
M  V30 1939 H 186.844 -0.518337 -1.87881 0
M  V30 1940 H 185.94 0.407096 -3.09434 0
M  V30 1941 N 186.241 1.57166 -0.116904 0
M  V30 1942 C 187.652 1.82169 0.408809 0
M  V30 1943 C 188.003 1.03393 1.66746 0
M  V30 1944 O 187.128 0.269886 2.1471 0
M  V30 1945 C 187.723 3.30429 0.748466 0
M  V30 1946 C 186.282 3.5612 1.21882 0
M  V30 1947 C 185.429 2.76374 0.226452 0
M  V30 1948 H 188.38 1.5497 -0.342063 0
M  V30 1949 H 188.401 3.44943 1.60607 0
M  V30 1950 H 187.913 3.87737 -0.167784 0
M  V30 1951 H 186.014 3.04168 2.15204 0
M  V30 1952 H 186.127 4.64705 1.16559 0
M  V30 1953 H 184.491 2.44515 0.713063 0
M  V30 1954 H 185.274 3.3644 -0.682859 0
M  V30 1955 N 187.719 -0.156864 1.56817 0
M  V30 1956 C 188.944 -0.890331 1.87318 0
M  V30 1957 C 189.369 -1.74394 0.704855 0
M  V30 1958 O 188.727 -1.77972 -0.345786 0
M  V30 1959 C 188.775 -1.73102 3.16336 0
M  V30 1960 O 187.879 -2.83422 2.99576 0
M  V30 1961 H 187.22 -0.24857 0.615718 0
M  V30 1962 H 189.75 -0.150649 2.04045 0
M  V30 1963 H 189.76 -2.12803 3.48107 0
M  V30 1964 H 188.435 -1.10412 4.00976 0
M  V30 1965 H 187.012 -2.47199 2.7919 0
M  V30 1966 N 189.197 -1.51736 -0.425897 0
M  V30 1967 C 190.443 -1.65214 -1.1761 0
M  V30 1968 C 190.776 -0.372778 -1.90589 0
M  V30 1969 O 190.051 0.628139 -1.84078 0
M  V30 1970 C 190.334 -2.86312 -2.18398 0
M  V30 1971 C 190.187 -4.24254 -1.49426 0
M  V30 1972 C 191.506 -3.02925 -3.19256 0
M  V30 1973 H 188.625 -0.601263 -0.426206 0
M  V30 1974 H 191.267 -1.8425 -0.463882 0
M  V30 1975 H 189.417 -2.70213 -2.79137 0
M  V30 1976 H 191.089 -4.52046 -0.919362 0
M  V30 1977 H 189.332 -4.26426 -0.796432 0
M  V30 1978 H 190.003 -5.05001 -2.22885 0
M  V30 1979 H 192.479 -3.1781 -2.68581 0
M  V30 1980 H 191.355 -3.89199 -3.8706 0
M  V30 1981 H 191.616 -2.15497 -3.86023 0
M  V30 1982 N 190.675 0.682077 -1.42076 0
M  V30 1983 C 191.922 1.44215 -1.42156 0
M  V30 1984 C 192.25 1.94468 -0.0354186 0
M  V30 1985 O 191.505 1.70816 0.955002 0
M  V30 1986 C 191.804 2.66036 -2.38662 0
M  V30 1987 C 191.47 2.34366 -3.85206 0
M  V30 1988 C 190.132 2.25439 -4.25124 0
M  V30 1989 C 192.484 2.08513 -4.77673 0
M  V30 1990 C 189.812 1.88775 -5.55501 0
M  V30 1991 C 192.164 1.73354 -6.08384 0
M  V30 1992 C 190.828 1.62933 -6.47309 0
M  V30 1993 H 190.098 0.527718 -0.520187 0
M  V30 1994 H 192.745 0.778387 -1.74967 0
M  V30 1995 H 191.05 3.3741 -1.99152 0
M  V30 1996 H 192.747 3.24205 -2.35991 0
M  V30 1997 H 189.337 2.42213 -3.53597 0
M  V30 1998 H 193.521 2.14346 -4.47626 0
M  V30 1999 H 188.777 1.7927 -5.84527 0
M  V30 2000 H 192.951 1.52373 -6.79526 0
M  V30 2001 H 190.578 1.34292 -7.48244 0
M  V30 2002 N 192.153 1.28127 0.917671 0
M  V30 2003 C 193.564 1.13622 1.48145 0
M  V30 2004 C 193.915 -0.275207 1.9426 0
M  V30 2005 O 193.04 -1.1691 1.82102 0
M  V30 2006 C 193.635 2.05648 2.69248 0
M  V30 2007 C 192.194 1.95219 3.21818 0
M  V30 2008 C 191.341 1.97618 1.94532 0
M  V30 2009 H 194.292 1.40874 0.730772 0
M  V30 2010 H 194.313 1.61818 3.44377 0
M  V30 2011 H 193.825 3.08365 2.35653 0
M  V30 2012 H 191.926 0.955244 3.60147 0
M  V30 2013 H 192.039 2.81976 3.87333 0
M  V30 2014 H 190.403 1.41973 2.11461 0
M  V30 2015 H 191.186 3.02007 1.63238 0
M  V30 2016 N 193.631 -1.12557 1.10312 0
M  V30 2017 C 194.561 -2.20341 0.772798 0
M  V30 2018 C 195.542 -1.68198 -0.25365 0
M  V30 2019 O 196.727 -1.93831 -0.119699 0
M  V30 2020 C 193.857 -3.46709 0.202443 0
M  V30 2021 C 192.811 -4.11996 1.15943 0
M  V30 2022 C 192.137 -5.328 0.450345 0
M  V30 2023 C 193.437 -4.5828 2.50552 0
M  V30 2024 H 195.131 -2.48229 1.674 0
M  V30 2025 H 192.677 -1.19308 0.806326 0
M  V30 2026 H 194.63 -4.2138 -0.0407752 0
M  V30 2027 H 193.354 -3.18245 -0.734001 0
M  V30 2028 H 192.013 -3.39305 1.38808 0
M  V30 2029 H 191.661 -5.00602 -0.490531 0
M  V30 2030 H 191.361 -5.7743 1.08851 0
M  V30 2031 H 192.885 -6.10219 0.215642 0
M  V30 2032 H 194.299 -5.2433 2.31843 0
M  V30 2033 H 192.696 -5.13683 3.10242 0
M  V30 2034 H 193.766 -3.72329 3.10643 0
M  V30 2035 N 195.109 -0.891671 -1.2995 0
M  V30 2036 C 196.072 -0.36828 -2.26222 0
M  V30 2037 C 197.072 0.493014 -1.53056 0
M  V30 2038 O 198.262 0.299213 -1.71611 0
M  V30 2039 C 195.394 0.47442 -3.37583 0
M  V30 2040 H 196.587 -1.21844 -2.74033 0
M  V30 2041 H 194.14 -0.669107 -1.41254 0
M  V30 2042 H 194.875 1.34489 -2.95099 0
M  V30 2043 H 194.66 -0.142615 -3.91841 0
M  V30 2044 H 196.15 0.83218 -4.09224 0
M  V30 2045 N 196.587 1.43421 -0.653314 0
M  V30 2046 C 197.998 1.85065 -0.246537 0
M  V30 2047 C 198.349 1.54688 1.2069 0
M  V30 2048 O 197.474 0.995896 1.92122 0
M  V30 2049 C 198.069 3.35922 -0.440666 0
M  V30 2050 C 196.628 3.76297 -0.0882064 0
M  V30 2051 C 195.775 2.67147 -0.743484 0
M  V30 2052 H 198.726 1.33572 -0.856979 0
M  V30 2053 H 198.747 3.79204 0.313798 0
M  V30 2054 H 198.259 3.58 -1.49858 0
M  V30 2055 H 196.36 3.5983 0.96711 0
M  V30 2056 H 196.473 4.76338 -0.513738 0
M  V30 2057 H 194.837 2.54086 -0.176712 0
M  V30 2058 H 195.62 2.92053 -1.80443 0
M  V30 2059 N 198.065 0.39524 1.52563 0
M  V30 2060 C 199.29 -0.187456 2.06551 0
M  V30 2061 C 199.715 -1.39249 1.26457 0
M  V30 2062 O 199.073 -1.78947 0.291151 0
M  V30 2063 C 199.121 -0.529985 3.56684 0
M  V30 2064 O 198.225 -1.62307 3.79118 0
M  V30 2065 H 197.566 -0.0202537 0.663691 0
M  V30 2066 H 200.096 0.564426 1.96661 0
M  V30 2067 H 200.106 -0.792598 4.00227 0
M  V30 2068 H 198.781 0.350987 4.14416 0
M  V30 2069 H 197.358 -1.3537 3.47461 0
M  V30 2070 N 199.544 -1.57102 0.125237 0
M  V30 2071 C 200.769 -2.0019 -0.542101 0
M  V30 2072 C 201.194 -1.00449 -1.59034 0
M  V30 2073 O 200.552 0.0229423 -1.81285 0
M  V30 2074 C 200.6 -3.42129 -1.13929 0
M  V30 2075 O 199.704 -3.45307 -2.2547 0
M  V30 2076 H 199.045 -0.650171 -0.134812 0
M  V30 2077 H 201.575 -2.03461 0.215553 0
M  V30 2078 H 201.585 -3.80471 -1.4733 0
M  V30 2079 H 200.26 -4.14237 -0.371531 0
M  V30 2080 H 198.837 -3.1879 -1.93462 0
M  V30 2081 N 201.022 0.148545 -1.56898 0
M  V30 2082 C 201.969 1.18345 -1.98149 0
M  V30 2083 C 202.939 1.42772 -0.848848 0
M  V30 2084 O 204.124 1.55132 -1.11079 0
M  V30 2085 C 201.264 2.51231 -2.36594 0
M  V30 2086 C 200.377 2.33991 -3.63142 0
M  V30 2087 C 199.512 3.59902 -3.90697 0
M  V30 2088 C 198.551 3.37692 -5.1052 0
M  V30 2089 N 197.688 4.5573 -5.34092 0
M  V30 2090 H 202.528 0.82467 -2.86362 0
M  V30 2091 H 200.065 0.395756 -1.41676 0
M  V30 2092 H 202.023 3.28713 -2.56912 0
M  V30 2093 H 200.653 2.85059 -1.51463 0
M  V30 2094 H 199.705 1.47572 -3.50609 0
M  V30 2095 H 201.017 2.13539 -4.5078 0
M  V30 2096 H 200.171 4.45813 -4.11505 0
M  V30 2097 H 198.91 3.83357 -3.01477 0
M  V30 2098 H 197.915 2.5017 -4.89587 0
M  V30 2099 H 199.14 3.15637 -6.0129 0
M  V30 2100 H 197.086 4.79361 -4.47827 0
M  V30 2101 H 197.003 4.38274 -6.15996 0
M  V30 2102 H 198.271 5.42858 -5.59397 0
M  V30 2103 N 202.5 1.5196 0.417844 0
M  V30 2104 C 203.725 1.69717 1.1921 0
M  V30 2105 C 204.15 0.402148 1.83751 0
M  V30 2106 O 203.508 -0.639593 1.69643 0
M  V30 2107 C 203.556 2.82794 2.2374 0
M  V30 2108 O 202.66 2.47756 3.29683 0
M  V30 2109 H 202.001 0.565263 0.348387 0
M  V30 2110 H 204.531 1.98621 0.490985 0
M  V30 2111 H 204.541 3.07452 2.68212 0
M  V30 2112 H 203.216 3.76756 1.76146 0
M  V30 2113 H 201.793 2.33739 2.90552 0
M  V30 2114 N 203.978 -0.674533 1.42435 0
M  V30 2115 C 205.206 -1.46283 1.46317 0
M  V30 2116 C 205.621 -1.88653 0.0745836 0
M  V30 2117 O 204.978 -1.58151 -0.91074 0
M  V30 2118 C 205.029 -2.71178 2.3905 0
M  V30 2119 O 204.75 -2.30586 3.72507 0
M  V30 2120 C 206.251 -3.64738 2.51955 0
M  V30 2121 H 203.471 -0.450104 0.497642 0
M  V30 2122 H 206.015 -0.828792 1.86953 0
M  V30 2123 H 204.17 -3.3077 2.01667 0
M  V30 2124 H 204.584 -3.11241 4.22172 0
M  V30 2125 H 206.058 -4.49096 3.20962 0
M  V30 2126 H 206.535 -4.10656 1.55752 0
M  V30 2127 H 207.141 -3.11038 2.90061 0
M  V30 2128 N 205.456 -1.28612 -0.910864 0
M  V30 2129 C 206.681 -1.1891 -1.69927 0
M  V30 2130 C 207.106 0.248372 -1.86453 0
M  V30 2131 O 206.464 1.17961 -1.37676 0
M  V30 2132 C 206.512 -1.89578 -3.06745 0
M  V30 2133 O 205.616 -1.20521 -3.94396 0
M  V30 2134 H 204.957 -0.412632 -0.520222 0
M  V30 2135 H 207.487 -1.69985 -1.1387 0
M  V30 2136 H 207.497 -1.97597 -3.56958 0
M  V30 2137 H 206.172 -2.94136 -2.94035 0
M  V30 2138 H 204.749 -1.20684 -3.52831 0
M  V30 2139 N 206.934 1.1197 -1.10907 0
M  V30 2140 C 208.182 1.83225 -0.852819 0
M  V30 2141 C 208.503 1.84769 0.623341 0
M  V30 2142 O 207.773 1.3143 1.45269 0
M  V30 2143 H 206.353 0.67849 -0.312507 0
M  V30 2144 H 209.015 1.3556 -1.40033 0
M  V30 2145 H 208.111 2.87265 -1.22005 0
M  V30 2146 N 208.412 0.89855 1.29475 0
M  V30 2147 C 209.66 0.522847 1.9522 0
M  V30 2148 C 209.981 -0.93371 1.71192 0
M  V30 2149 O 209.251 -1.65823 1.04305 0
M  V30 2150 H 207.831 0.190366 0.722336 0
M  V30 2151 H 210.493 1.14459 1.5775 0
M  V30 2152 H 209.589 0.704476 3.04045 0
M  V30 2153 N 209.89 -1.43072 0.660911 0
M  V30 2154 C 211.118 -2.06067 0.185422 0
M  V30 2155 C 211.533 -1.49582 -1.15198 0
M  V30 2156 O 210.89 -0.630134 -1.71276 0
M  V30 2157 C 210.941 -3.61371 0.0966523 0
M  V30 2158 O 210.662 -4.15758 1.38119 0
M  V30 2159 C 212.163 -4.41455 -0.403996 0
M  V30 2160 H 209.383 -0.664459 0.0934604 0
M  V30 2161 H 211.927 -1.83447 0.90373 0
M  V30 2162 H 210.082 -3.8315 -0.572259 0
M  V30 2163 H 210.496 -5.09499 1.24542 0
M  V30 2164 H 211.97 -5.50437 -0.415045 0
M  V30 2165 H 212.447 -4.15036 -1.43674 0
M  V30 2166 H 213.053 -4.24663 0.232691 0
M  V30 2167 N 211.368 -0.403325 -1.52352 0
M  V30 2168 C 212.331 0.413051 -2.25447 0
M  V30 2169 C 213.331 0.978513 -1.276 0
M  V30 2170 O 214.521 0.858305 -1.51587 0
M  V30 2171 C 211.653 1.58087 -3.02029 0
M  V30 2172 H 212.846 -0.227094 -2.99039 0
M  V30 2173 H 210.399 -0.155722 -1.55522 0
M  V30 2174 H 211.134 2.25804 -2.32772 0
M  V30 2175 H 210.919 1.18195 -3.73861 0
M  V30 2176 H 212.409 2.1585 -3.57489 0
M  V30 2177 N 212.846 1.57033 -0.133567 0
M  V30 2178 C 213.809 2.14897 0.796995 0
M  V30 2179 C 214.809 1.0874 1.18458 0
M  V30 2180 O 215.999 1.34446 1.1077 0
M  V30 2181 C 213.131 2.70112 2.07973 0
M  V30 2182 H 214.324 2.98457 0.293873 0
M  V30 2183 H 211.877 1.55871 0.115787 0
M  V30 2184 H 212.612 1.9018 2.62682 0
M  V30 2185 H 212.397 3.47764 1.81115 0
M  V30 2186 H 213.887 3.14738 2.74462 0
M  V30 2187 N 214.325 -0.140222 1.56975 0
M  V30 2188 C 215.255 -1.17456 2.01808 0
M  V30 2189 C 216.236 -1.44415 0.898794 0
M  V30 2190 O 217.421 -1.5522 1.16707 0
M  V30 2191 C 214.551 -2.50607 2.40444 0
M  V30 2192 C 213.505 -2.38155 3.55621 0
M  V30 2193 C 212.831 -3.76078 3.80091 0
M  V30 2194 C 214.131 -1.85991 4.88062 0
M  V30 2195 H 215.825 -0.801743 2.88466 0
M  V30 2196 H 213.371 -0.38422 1.38779 0
M  V30 2197 H 215.324 -3.23197 2.7041 0
M  V30 2198 H 214.048 -2.89737 1.50732 0
M  V30 2199 H 212.707 -1.68016 3.25832 0
M  V30 2200 H 212.355 -4.12656 2.87618 0
M  V30 2201 H 212.055 -3.68606 4.57606 0
M  V30 2202 H 213.579 -4.50206 4.12488 0
M  V30 2203 H 214.993 -2.4838 5.16701 0
M  V30 2204 H 213.39 -1.89393 5.6943 0
M  V30 2205 H 214.46 -0.816023 4.77984 0
M  V30 2206 N 215.803 -1.52179 -0.40978 0
M  V30 2207 C 217.051 -1.65878 -1.15451 0
M  V30 2208 C 217.372 -0.390771 -1.91044 0
M  V30 2209 O 216.642 0.594323 -1.86667 0
M  V30 2210 H 215.222 -0.611405 -0.429177 0
M  V30 2211 H 217.884 -1.89219 -0.467134 0
M  V30 2212 H 216.98 -2.49954 -1.86894 0
M  V30 2213 N 217.281 0.66697 -1.42791 0
M  V30 2214 C 218.521 1.43892 -1.4517 0
M  V30 2215 C 218.885 1.91877 -0.0687551 0
M  V30 2216 O 220.086 2.6878 0.0327455 0
M  V30 2217 C 218.357 2.59839 -2.45395 0
M  V30 2218 S 219.916 3.48572 -2.66539 0
M  V30 2219 H 216.734 0.491356 -0.513897 0
M  V30 2220 H 219.336 0.775656 -1.79454 0
M  V30 2221 H 218.04 2.22838 -3.44632 0
M  V30 2222 H 217.571 3.3103 -2.12562 0
M  V30 2223 H 219.586 4.56094 -1.95429 0
M  V30 2224 N 218.759 1.29093 0.90403 0
M  V30 2225 C 219.689 1.16401 2.02418 0
M  V30 2226 C 220.67 0.0593085 1.69997 0
M  V30 2227 O 221.855 0.238021 1.92736 0
M  V30 2228 C 218.985 0.835233 3.37107 0
M  V30 2229 C 217.939 1.89578 3.83724 0
M  V30 2230 C 217.265 1.42041 5.15489 0
M  V30 2231 C 218.565 3.30394 4.04521 0
M  V30 2232 H 220.259 2.10109 2.13295 0
M  V30 2233 H 217.805 1.01157 1.02486 0
M  V30 2234 H 219.758 0.733169 4.14973 0
M  V30 2235 H 218.482 -0.137543 3.2631 0
M  V30 2236 H 217.141 1.98715 3.08071 0
M  V30 2237 H 216.789 0.436426 5.01103 0
M  V30 2238 H 216.489 2.12964 5.4765 0
M  V30 2239 H 218.013 1.33176 5.959 0
M  V30 2240 H 219.427 3.24123 4.72882 0
M  V30 2241 H 217.824 3.99237 4.48029 0
M  V30 2242 H 218.894 3.73692 3.09002 0
M  V30 2243 N 220.237 -1.11381 1.11499 0
M  V30 2244 C 221.483 -1.83403 0.865512 0
M  V30 2245 C 221.816 -1.84459 -0.607329 0
M  V30 2246 O 221.091 -1.29811 -1.44842 0
M  V30 2247 C 221.374 -3.30552 1.42855 0
M  V30 2248 C 221.227 -3.37886 2.96906 0
M  V30 2249 C 222.546 -4.26643 1.08 0
M  V30 2250 H 219.665 -0.665879 0.31587 0
M  V30 2251 H 222.307 -1.30601 1.37998 0
M  V30 2252 H 220.457 -3.75648 0.990985 0
M  V30 2253 H 222.129 -3.01343 3.49271 0
M  V30 2254 H 220.372 -2.78088 3.32941 0
M  V30 2255 H 221.043 -4.41458 3.31389 0
M  V30 2256 H 223.519 -3.89729 1.45775 0
M  V30 2257 H 222.395 -5.27986 1.50072 0
M  V30 2258 H 222.656 -4.42099 -0.00915037 0
M  V30 2259 N 221.715 -0.905404 -1.28997 0
M  V30 2260 C 222.662 -0.385892 -2.27551 0
M  V30 2261 C 223.632 0.535113 -1.57244 0
M  V30 2262 O 224.817 0.459119 -1.85194 0
M  V30 2263 C 221.957 0.375461 -3.43051 0
M  V30 2264 C 221.07 -0.577092 -4.28128 0
M  V30 2265 C 220.205 0.201879 -5.30816 0
M  V30 2266 C 219.244 -0.744829 -6.07551 0
M  V30 2267 N 218.381 9.42587e-05 -7.021 0
M  V30 2268 H 223.221 -1.23139 -2.71368 0
M  V30 2269 H 220.758 -0.618542 -1.33463 0
M  V30 2270 H 222.716 0.832992 -4.088 0
M  V30 2271 H 221.346 1.18537 -3.00248 0
M  V30 2272 H 220.398 -1.15315 -3.62501 0
M  V30 2273 H 221.71 -1.30152 -4.8152 0
M  V30 2274 H 220.864 0.720351 -6.02408 0
M  V30 2275 H 219.603 0.959413 -4.7817 0
M  V30 2276 H 218.608 -1.27475 -5.34818 0
M  V30 2277 H 219.833 -1.50178 -6.62286 0
M  V30 2278 H 217.779 0.739791 -6.51815 0
M  V30 2279 H 217.696 -0.664321 -7.53076 0
M  V30 2280 H 218.964 0.498644 -7.77903 0
M  V30 2281 N 223.193 1.4272 -0.668489 0
M  V30 2282 C 224.47 1.95248 -0.117373 0
M  V30 2283 C 224.85 1.60919 1.36632 0
M  V30 2284 O 224.198 0.902095 2.09939 0
M  V30 2285 C 224.408 3.46927 -0.379806 0
M  V30 2286 C 225.756 4.23588 -0.292923 0
M  V30 2287 O 226.78 3.5482 -0.313204 0
M  V30 2288 O 225.639 5.46017 -0.229697 0
M  V30 2289 H 222.733 0.827 0.00079152 0
M  V30 2290 H 225.279 1.52581 -0.742783 0
M  V30 2291 H 224.051 3.65096 -1.40786 0
M  V30 2292 H 223.674 3.96627 0.277923 0
M  V30 2293 N 224.671 0.411399 1.52136 0
M  V30 2294 C 225.901 -0.16284 2.05957 0
M  V30 2295 C 226.309 -1.3922 1.28119 0
M  V30 2296 O 225.652 -1.80768 0.326881 0
M  V30 2297 C 225.714 -0.575946 3.54856 0
M  V30 2298 C 225.378 0.542998 4.53763 0
M  V30 2299 C 226.375 1.40726 5.00492 0
M  V30 2300 C 224.06 0.716337 4.97166 0
M  V30 2301 C 226.054 2.4298 5.8927 0
M  V30 2302 C 223.741 1.74218 5.8574 0
M  V30 2303 C 224.739 2.59731 6.31687 0
M  V30 2304 O 224.427 3.60558 7.18507 0
M  V30 2305 H 224.159 -0.0229125 0.675612 0
M  V30 2306 H 226.713 0.581634 1.96993 0
M  V30 2307 H 224.943 -1.37274 3.61515 0
M  V30 2308 H 226.632 -1.07836 3.91313 0
M  V30 2309 H 227.398 1.28476 4.67674 0
M  V30 2310 H 223.277 0.0603857 4.6096 0
M  V30 2311 H 226.821 3.0976 6.25055 0
M  V30 2312 H 222.718 1.86498 6.17971 0
M  V30 2313 H 223.486 3.56829 7.36624 0
M  V30 2314 N 226.149 -1.5696 0.141893 0
M  V30 2315 C 227.396 -1.9596 -0.510492 0
M  V30 2316 C 227.724 -1.02648 -1.65208 0
M  V30 2317 O 226.979 -0.0546947 -1.95624 0
M  V30 2318 C 227.278 -3.41242 -1.06249 0
M  V30 2319 C 226.944 -4.50882 -0.0398791 0
M  V30 2320 C 225.606 -4.80595 0.241247 0
M  V30 2321 C 227.958 -5.17058 0.65578 0
M  V30 2322 C 225.286 -5.73792 1.22393 0
M  V30 2323 C 227.638 -6.11313 1.62724 0
M  V30 2324 C 226.302 -6.39407 1.91612 0
M  V30 2325 H 225.572 -0.717068 -0.186802 0
M  V30 2326 H 228.219 -1.90142 0.227643 0
M  V30 2327 H 226.524 -3.43866 -1.87785 0
M  V30 2328 H 228.221 -3.68742 -1.57576 0
M  V30 2329 H 224.811 -4.27754 -0.269174 0
M  V30 2330 H 228.995 -4.94239 0.451779 0
M  V30 2331 H 224.251 -5.93853 1.45424 0
M  V30 2332 H 228.425 -6.61668 2.17183 0
M  V30 2333 H 226.052 -7.11427 2.6791 0
M  V30 2334 N 227.627 0.131896 -1.57047 0
M  V30 2335 C 229.038 0.690407 -1.73465 0
M  V30 2336 C 229.389 1.8094 -0.758629 0
M  V30 2337 O 228.514 2.16282 0.0713813 0
M  V30 2338 C 229.109 1.25916 -3.14532 0
M  V30 2339 C 227.668 1.76409 -3.32501 0
M  V30 2340 C 226.815 0.658579 -2.69366 0
M  V30 2341 H 229.766 -0.0939144 -1.58422 0
M  V30 2342 H 229.787 2.12892 -3.15369 0
M  V30 2343 H 229.299 0.444515 -3.85546 0
M  V30 2344 H 227.4 2.60391 -2.66509 0
M  V30 2345 H 227.513 1.88241 -4.4057 0
M  V30 2346 H 225.877 1.08899 -2.30246 0
M  V30 2347 H 226.66 -0.14487 -3.42994 0
M  V30 2348 N 229.106 1.52395 0.401703 0
M  V30 2349 C 230.016 1.7917 1.51444 0
M  V30 2350 C 231.032 0.677691 1.6026 0
M  V30 2351 O 232.208 0.963909 1.76835 0
M  V30 2352 C 229.273 1.94347 2.87107 0
M  V30 2353 C 228.334 3.18257 2.88116 0
M  V30 2354 C 227.567 3.32701 4.17308 0
M  V30 2355 O 227.79 2.52238 5.11598 0
M  V30 2356 O 226.724 4.25891 4.25324 0
M  V30 2357 H 230.55 2.73633 1.31752 0
M  V30 2358 H 228.135 1.3733 0.588296 0
M  V30 2359 H 230.017 2.06109 3.67555 0
M  V30 2360 H 228.692 1.03073 3.06851 0
M  V30 2361 H 227.599 3.11947 2.06494 0
M  V30 2362 H 228.932 4.09336 2.73322 0
M  V30 2363 N 230.584 -0.659388 1.43143 0
M  V30 2364 C 231.995 -1.24041 1.39537 0
M  V30 2365 C 232.346 -1.95963 0.0963364 0
M  V30 2366 O 231.471 -2.00892 -0.804438 0
M  V30 2367 C 232.066 -2.25601 2.52764 0
M  V30 2368 C 230.625 -2.79195 2.52443 0
M  V30 2369 C 229.772 -1.53743 2.30778 0
M  V30 2370 H 232.723 -0.451792 1.52133 0
M  V30 2371 H 232.744 -3.07651 2.23899 0
M  V30 2372 H 232.256 -1.73226 3.47296 0
M  V30 2373 H 230.357 -3.35649 1.61773 0
M  V30 2374 H 230.47 -3.2716 3.50004 0
M  V30 2375 H 228.834 -1.80869 1.79328 0
M  V30 2376 H 229.617 -1.03312 3.27386 0
M  V30 2377 N 232.062 -1.29571 -0.897171 0
M  V30 2378 C 233.308 -1.17863 -1.65034 0
M  V30 2379 C 233.641 0.268729 -1.92332 0
M  V30 2380 O 232.916 1.19378 -1.53555 0
M  V30 2381 C 233.199 -1.995 -2.99786 0
M  V30 2382 C 233.052 -3.5239 -2.79538 0
M  V30 2383 C 234.371 -1.82335 -4.00552 0
M  V30 2384 H 231.49 -0.429528 -0.598895 0
M  V30 2385 H 234.132 -1.59072 -1.03905 0
M  V30 2386 H 232.282 -1.64485 -3.51962 0
M  V30 2387 H 233.954 -3.97401 -2.34244 0
M  V30 2388 H 232.197 -3.77187 -2.14273 0
M  V30 2389 H 232.868 -4.04787 -3.75302 0
M  V30 2390 H 235.344 -2.12924 -3.57495 0
M  V30 2391 H 234.22 -2.41801 -4.92771 0
M  V30 2392 H 234.481 -0.779209 -4.35179 0
M  V30 2393 N 233.54 1.10788 -1.12088 0
M  V30 2394 C 234.768 1.86461 -0.896651 0
M  V30 2395 C 235.183 1.80492 0.553912 0
M  V30 2396 O 234.54 1.19102 1.38278 0
M  V30 2397 C 234.591 3.35006 -1.35843 0
M  V30 2398 O 234.312 3.40866 -2.75213 0
M  V30 2399 C 235.813 4.27565 -1.1706 0
M  V30 2400 H 233.033 0.589425 -0.320654 0
M  V30 2401 H 235.577 1.40076 -1.48993 0
M  V30 2402 H 233.732 3.7887 -0.808458 0
M  V30 2403 H 234.146 4.33411 -2.9539 0
M  V30 2404 H 235.62 5.30007 -1.54263 0
M  V30 2405 H 236.097 4.3906 -0.110814 0
M  V30 2406 H 236.703 3.89501 -1.70789 0
M  V30 2407 N 235.018 0.912232 1.28515 0
M  V30 2408 C 236.264 0.545405 1.95328 0
M  V30 2409 C 236.597 -0.908313 1.71649 0
M  V30 2410 O 235.872 -1.64575 1.03659 0
M  V30 2411 C 236.155 0.853483 3.4984 0
M  V30 2412 C 236.008 2.35982 3.82926 0
M  V30 2413 C 237.327 0.348589 4.38717 0
M  V30 2414 H 234.446 0.199626 0.709449 0
M  V30 2415 H 237.088 1.1412 1.5191 0
M  V30 2416 H 235.238 0.34643 3.86952 0
M  V30 2417 H 236.91 2.93738 3.55691 0
M  V30 2418 H 235.153 2.81543 3.30024 0
M  V30 2419 H 235.824 2.52593 4.90816 0
M  V30 2420 H 238.3 0.78294 4.08668 0
M  V30 2421 H 237.176 0.593242 5.45685 0
M  V30 2422 H 237.437 -0.751049 4.35674 0
M  V30 2423 N 236.496 -1.42363 0.676048 0
M  V30 2424 C 237.721 -2.06377 0.205705 0
M  V30 2425 C 238.146 -1.50463 -1.12883 0
M  V30 2426 O 237.504 -0.623619 -1.70237 0
M  V30 2427 C 237.552 -3.60277 0.152655 0
M  V30 2428 O 236.656 -4.02935 -0.87845 0
M  V30 2429 H 235.997 -0.655588 0.105359 0
M  V30 2430 H 238.527 -1.82475 0.925412 0
M  V30 2431 H 238.537 -4.07993 -0.0230675 0
M  V30 2432 H 237.212 -4.00346 1.12675 0
M  V30 2433 H 235.789 -3.66764 -0.673668 0
M  V30 2434 N 237.974 -0.419461 -1.51915 0
M  V30 2435 C 239.22 0.145505 -2.02879 0
M  V30 2436 C 239.575 1.41926 -1.29903 0
M  V30 2437 O 238.868 1.87383 -0.399782 0
M  V30 2438 C 239.062 0.437067 -3.54717 0
M  V30 2439 C 238.891 -0.806877 -4.42402 0
M  V30 2440 C 237.661 -1.33514 -4.87342 0
M  V30 2441 C 239.859 -1.68796 -4.85811 0
M  V30 2442 N 237.841 -2.53349 -5.59185 0
M  V30 2443 C 239.212 -2.73247 -5.56539 0
M  V30 2444 C 241.267 -1.70449 -4.67816 0
M  V30 2445 C 239.97 -3.79276 -6.11181 0
M  V30 2446 C 241.996 -2.75403 -5.23361 0
M  V30 2447 C 241.358 -3.78575 -5.9402 0
M  V30 2448 H 237.457 0.0145424 -0.781865 0
M  V30 2449 H 240.041 -0.576126 -1.85981 0
M  V30 2450 H 238.212 1.12774 -3.71667 0
M  V30 2451 H 239.944 0.99182 -3.92358 0
M  V30 2452 H 236.699 -0.891657 -4.65131 0
M  V30 2453 H 237.123 -3.14066 -5.99743 0
M  V30 2454 H 241.765 -0.920209 -4.12664 0
M  V30 2455 H 239.483 -4.58554 -6.65397 0
M  V30 2456 H 243.069 -2.77603 -5.113 0
M  V30 2457 H 241.949 -4.58453 -6.36231 0
M  V30 2458 N 239.452 1.56882 -0.150215 0
M  V30 2459 C 240.4 2.18214 0.805313 0
M  V30 2460 C 241.394 1.14006 1.25296 0
M  V30 2461 O 242.6 1.3225 1.22107 0
M  V30 2462 H 238.975 0.698762 0.277913 0
M  V30 2463 H 240.946 2.97231 0.263862 0
M  V30 2464 C 239.695 2.82065 2.03309 0
M  V30 2465 H 239.018 3.61968 1.69763 0
M  V30 2466 H 240.458 3.28477 2.68103 0
M  V30 2467 C 238.917 1.80739 2.84315 0
M  V30 2468 O 239.447 1.27983 3.80767 0
M  V30 2469 N 237.653 1.4997 2.48913 0
M  V30 2470 H 237.2 1.93062 1.70542 0
M  V30 2471 H 237.158 0.824217 3.03404 0
M  V30 2472 N 240.93 -0.123565 1.57115 0
M  V30 2473 C 242.155 -0.850398 1.89164 0
M  V30 2474 C 242.58 -1.7286 0.741688 0
M  V30 2475 O 241.938 -1.78665 -0.307958 0
M  V30 2476 C 241.986 -1.66353 3.19936 0
M  V30 2477 O 241.09 -2.77004 3.0552 0
M  V30 2478 H 240.431 -0.235454 0.620852 0
M  V30 2479 H 242.961 -0.107335 2.04318 0
M  V30 2480 H 242.971 -2.05372 3.52543 0
M  V30 2481 H 241.646 -1.01881 4.03228 0
M  V30 2482 H 240.223 -2.41221 2.84371 0
M  V30 2483 N 242.408 -1.52605 -0.393616 0
M  V30 2484 C 243.656 -1.67093 -1.13685 0
M  V30 2485 C 243.977 -0.411011 -1.90619 0
M  V30 2486 O 243.247 0.574491 -1.87287 0
M  V30 2487 H 241.827 -0.615923 -0.422668 0
M  V30 2488 H 244.489 -1.89704 -0.447039 0
M  V30 2489 H 243.585 -2.51922 -1.84232 0
M  V30 2490 N 243.887 0.651787 -1.4349 0
M  V30 2491 C 244.85 1.74647 -1.48429 0
M  V30 2492 C 245.85 1.56513 -0.368817 0
M  V30 2493 O 247.04 1.62385 -0.630623 0
M  V30 2494 C 244.172 3.13533 -1.33827 0
M  V30 2495 H 245.365 1.71649 -2.4592 0
M  V30 2496 H 242.918 0.863573 -1.30277 0
M  V30 2497 H 243.653 3.22142 -0.37349 0
M  V30 2498 H 243.438 3.28101 -2.14691 0
M  V30 2499 H 244.928 3.93356 -1.40218 0
M  V30 2500 N 245.365 1.30045 0.890287 0
M  V30 2501 C 246.295 1.18541 2.01172 0
M  V30 2502 C 247.276 0.0773356 1.69924 0
M  V30 2503 O 248.461 0.25845 1.92473 0
M  V30 2504 C 245.591 0.870941 3.36202 0
M  V30 2505 C 244.545 1.93637 3.81692 0
M  V30 2506 C 243.871 1.475 5.13953 0
M  V30 2507 C 245.171 3.34666 4.00994 0
M  V30 2508 H 246.865 2.12359 2.11054 0
M  V30 2509 H 244.411 1.02238 1.01407 0
M  V30 2510 H 246.364 0.777141 4.14172 0
M  V30 2511 H 245.088 -0.102926 3.26438 0
M  V30 2512 H 243.747 2.01972 3.05946 0
M  V30 2513 H 243.395 0.489551 5.00612 0
M  V30 2514 H 243.095 2.1876 5.4536 0
M  V30 2515 H 244.619 1.39489 5.94454 0
M  V30 2516 H 246.033 3.2912 4.69417 0
M  V30 2517 H 244.43 4.03966 4.43769 0
M  V30 2518 H 245.5 3.76949 3.05021 0
M  V30 2519 N 246.843 -1.10192 1.12674 0
M  V30 2520 C 248.071 -1.85983 0.906527 0
M  V30 2521 C 248.486 -1.80783 -0.544333 0
M  V30 2522 O 247.843 -1.19834 -1.37645 0
M  V30 2523 C 247.894 -3.34281 1.37618 0
M  V30 2524 O 247.615 -3.39401 2.77017 0
M  V30 2525 C 249.116 -4.26938 1.19325 0
M  V30 2526 H 246.336 -0.587716 0.323775 0
M  V30 2527 H 248.88 -1.39284 1.49734 0
M  V30 2528 H 247.035 -3.78436 0.828539 0
M  V30 2529 H 247.449 -4.31838 2.97684 0
M  V30 2530 H 248.923 -5.29181 1.57071 0
M  V30 2531 H 249.4 -4.38995 0.134097 0
M  V30 2532 H 250.006 -3.8859 1.72852 0
M  V30 2533 N 248.321 -0.919034 -1.28029 0
M  V30 2534 C 249.546 -0.570357 -1.99403 0
M  V30 2535 C 249.971 0.842486 -1.68178 0
M  V30 2536 O 249.329 1.56391 -0.917141 0
M  V30 2537 C 249.377 -0.792541 -3.51783 0
M  V30 2538 O 248.481 0.145988 -4.12142 0
M  V30 2539 H 247.822 -0.220555 -0.6263 0
M  V30 2540 H 250.352 -1.23592 -1.63053 0
M  V30 2541 H 250.362 -0.704708 -4.01868 0
M  V30 2542 H 249.037 -1.82247 -3.73844 0
M  V30 2543 H 247.614 0.00897528 -3.72899 0
M  V30 2544 N 249.799 1.42003 -0.683588 0
M  V30 2545 C 251.047 2.01015 -0.209101 0
M  V30 2546 C 251.368 1.54365 1.19149 0
M  V30 2547 O 250.638 0.769083 1.80172 0
M  V30 2548 H 249.218 0.743294 -0.074315 0
M  V30 2549 H 251.88 1.73798 -0.882066 0
M  V30 2550 H 250.976 3.11343 -0.2172 0
M  V30 2551 N 251.277 0.427512 1.51691 0
M  V30 2552 C 252.523 -0.142439 2.02299 0
M  V30 2553 C 252.856 -1.43214 1.31162 0
M  V30 2554 O 252.131 -1.89833 0.423511 0
M  V30 2555 C 252.414 -0.371301 3.58181 0
M  V30 2556 C 252.267 0.936358 4.39946 0
M  V30 2557 C 253.586 -1.14542 4.24933 0
M  V30 2558 H 250.705 -0.0502937 0.735282 0
M  V30 2559 H 253.347 0.564584 1.81418 0
M  V30 2560 H 251.497 -0.973559 3.76104 0
M  V30 2561 H 253.169 1.57184 4.33694 0
M  V30 2562 H 251.412 1.5432 4.05423 0
M  V30 2563 H 252.083 0.730388 5.47147 0
M  V30 2564 H 254.559 -0.635362 4.11221 0
M  V30 2565 H 253.435 -1.27431 5.33903 0
M  V30 2566 H 253.696 -2.17093 3.85127 0
M  V30 2567 N 252.755 -1.56801 0.158532 0
M  V30 2568 C 253.705 -2.13923 -0.788738 0
M  V30 2569 C 254.689 -1.07006 -1.2016 0
M  V30 2570 O 255.881 -1.33159 -1.1661 0
M  V30 2571 C 253.01 -2.77348 -2.02319 0
M  V30 2572 C 252.096 -3.91404 -1.6329 0
M  V30 2573 N 252.487 -4.9677 -0.951463 0
M  V30 2574 C 250.785 -4.02326 -1.92482 0
M  V30 2575 C 251.486 -5.76698 -0.761221 0
M  V30 2576 N 250.462 -5.27859 -1.29869 0
M  V30 2577 H 254.264 -2.92757 -0.258995 0
M  V30 2578 H 251.778 -1.62344 -0.0426055 0
M  V30 2579 H 253.775 -3.16639 -2.71192 0
M  V30 2580 H 252.435 -1.99991 -2.558 0
M  V30 2581 H 253.446 -5.14284 -0.610928 0
M  V30 2582 H 250.123 -3.36059 -2.47732 0
M  V30 2583 H 251.513 -6.71529 -0.223284 0
M  V30 2584 N 254.233 0.115231 -1.57178 0
M  V30 2585 C 255.461 0.836437 -1.89239 0
M  V30 2586 C 255.876 1.73256 -0.750175 0
M  V30 2587 O 255.233 1.80357 0.278832 0
M  V30 2588 C 255.284 1.66671 -3.20785 0
M  V30 2589 O 255.005 0.806652 -4.3061 0
M  V30 2590 C 256.506 2.49274 -3.66575 0
M  V30 2591 H 253.726 0.240253 -0.626514 0
M  V30 2592 H 256.27 0.0984932 -2.04263 0
M  V30 2593 H 254.425 2.35737 -3.0742 0
M  V30 2594 H 254.839 1.37969 -5.06028 0
M  V30 2595 H 256.313 3.03055 -4.6137 0
M  V30 2596 H 256.79 3.26807 -2.93417 0
M  V30 2597 H 257.396 1.85443 -3.82741 0
M  V30 2598 N 255.711 1.52812 0.385517 0
M  V30 2599 C 256.958 1.68026 1.1302 0
M  V30 2600 C 257.286 0.421934 1.89868 0
M  V30 2601 O 256.541 -0.595749 1.86412 0
M  V30 2602 C 256.84 2.86856 2.13187 0
M  V30 2603 C 256.506 4.24159 1.5297 0
M  V30 2604 C 255.168 4.61501 1.36274 0
M  V30 2605 C 257.52 5.09627 1.09223 0
M  V30 2606 C 254.848 5.81966 0.743837 0
M  V30 2607 C 257.2 6.30719 0.487411 0
M  V30 2608 C 255.864 6.6679 0.307777 0
M  V30 2609 H 255.134 0.614849 0.413571 0
M  V30 2610 H 257.781 1.86962 0.414405 0
M  V30 2611 H 256.086 2.6235 2.90998 0
M  V30 2612 H 257.783 2.95821 2.70722 0
M  V30 2613 H 254.373 3.94746 1.66954 0
M  V30 2614 H 258.557 4.81343 1.20922 0
M  V30 2615 H 253.813 6.08519 0.592891 0
M  V30 2616 H 257.987 6.96259 0.140143 0
M  V30 2617 H 255.614 7.60001 -0.173879 0
M  V30 2618 N 257.189 -0.644168 1.43834 0
M  V30 2619 C 258.6 -1.22554 1.40845 0
M  V30 2620 C 258.951 -1.9585 0.117115 0
M  V30 2621 O 258.076 -2.01734 -0.783086 0
M  V30 2622 C 258.671 -2.22907 2.55143 0
M  V30 2623 C 257.23 -2.76501 2.5539 0
M  V30 2624 C 256.377 -1.51287 2.32396 0
M  V30 2625 H 259.328 -0.43563 1.52604 0
M  V30 2626 H 259.349 -3.05259 2.2715 0
M  V30 2627 H 258.861 -1.69533 3.49114 0
M  V30 2628 H 256.962 -3.33914 1.65324 0
M  V30 2629 H 257.075 -3.23429 3.53455 0
M  V30 2630 H 255.439 -1.78957 1.81236 0
M  V30 2631 H 256.222 -0.998336 3.28463 0
M  V30 2632 N 258.668 -1.30515 -0.883378 0
M  V30 2633 C 259.631 -1.1701 -1.97082 0
M  V30 2634 C 260.631 -0.10089 -1.60483 0
M  V30 2635 O 261.821 -0.349127 -1.70666 0
M  V30 2636 C 258.953 -0.793045 -3.31547 0
M  V30 2637 H 260.146 -2.13622 -2.10489 0
M  V30 2638 H 257.699 -1.13935 -1.06998 0
M  V30 2639 H 258.434 0.172499 -3.23841 0
M  V30 2640 H 258.219 -1.56576 -3.5948 0
M  V30 2641 H 259.709 -0.722073 -4.1131 0
M  V30 2642 N 260.146 1.09593 -1.13257 0
M  V30 2643 C 261.392 1.82003 -0.89458 0
M  V30 2644 C 261.725 1.85402 0.577906 0
M  V30 2645 O 261 1.32099 1.42759 0
M  V30 2646 C 261.283 3.28237 -1.48096 0
M  V30 2647 C 261.136 3.3312 -3.02244 0
M  V30 2648 C 262.455 4.24871 -1.14774 0
M  V30 2649 H 259.574 0.66077 -0.326424 0
M  V30 2650 H 262.216 1.28389 -1.40058 0
M  V30 2651 H 260.366 3.74024 -1.05062 0
M  V30 2652 H 262.038 2.95748 -3.54021 0
M  V30 2653 H 260.281 2.72756 -3.37323 0
M  V30 2654 H 260.952 4.3613 -3.38371 0
M  V30 2655 H 263.428 3.87361 -1.51957 0
M  V30 2656 H 262.304 5.25532 -1.58452 0
M  V30 2657 H 262.565 4.42058 -0.0611849 0
M  V30 2658 N 261.624 0.925811 1.2754 0
M  V30 2659 C 262.554 0.440748 2.29303 0
M  V30 2660 C 263.535 -0.497971 1.62648 0
M  V30 2661 O 264.72 -0.403126 1.8997 0
M  V30 2662 C 261.85 -0.309048 3.45922 0
M  V30 2663 C 260.804 0.54166 4.24559 0
M  V30 2664 C 260.13 -0.337191 5.33636 0
M  V30 2665 C 261.43 1.80516 4.90114 0
M  V30 2666 H 263.124 1.29121 2.70126 0
M  V30 2667 H 260.67 0.622323 1.29858 0
M  V30 2668 H 262.623 -0.659315 4.1621 0
M  V30 2669 H 261.347 -1.19352 3.04011 0
M  V30 2670 H 260.006 0.874609 3.56014 0
M  V30 2671 H 259.654 -1.22056 4.87966 0
M  V30 2672 H 259.354 0.228497 5.87156 0
M  V30 2673 H 260.878 -0.683072 6.06767 0
M  V30 2674 H 262.292 1.52307 5.52698 0
M  V30 2675 H 260.689 2.3142 5.53683 0
M  V30 2676 H 261.759 2.52581 4.13921 0
M  V30 2677 N 263.102 -1.41638 0.69111 0
M  V30 2678 C 264.034 -2.29194 -0.0161523 0
M  V30 2679 C 265.047 -1.44549 -0.748955 0
M  V30 2680 O 266.236 -1.681 -0.6004 0
M  V30 2681 C 263.336 -3.22325 -1.0469 0
M  V30 2682 C 262.509 -4.35706 -0.384621 0
M  V30 2683 C 261.568 -5.09443 -1.31737 0
M  V30 2684 O 260.594 -5.63386 -0.811451 0
M  V30 2685 N 261.796 -5.16487 -2.64993 0
M  V30 2686 H 264.561 -2.90534 0.735523 0
M  V30 2687 H 262.122 -1.52742 0.53679 0
M  V30 2688 H 264.114 -3.68522 -1.67252 0
M  V30 2689 H 262.684 -2.62323 -1.70015 0
M  V30 2690 H 261.904 -3.91948 0.420804 0
M  V30 2691 H 263.192 -5.08743 0.0760765 0
M  V30 2692 H 262.59 -4.741 -3.08619 0
M  V30 2693 H 261.147 -5.66276 -3.22761 0
M  V30 2694 N 264.58 -0.43555 -1.51462 0
M  V30 2695 C 265.805 0.132627 -2.06976 0
M  V30 2696 C 266.23 1.35848 -1.30104 0
M  V30 2697 O 265.588 1.78112 -0.338493 0
M  V30 2698 C 265.636 0.43523 -3.57964 0
M  V30 2699 O 264.74 1.52198 -3.83288 0
M  V30 2700 H 264.081 0.00265 -0.663995 0
M  V30 2701 H 266.611 -0.616369 -1.95095 0
M  V30 2702 H 266.621 0.686206 -4.02188 0
M  V30 2703 H 265.296 -0.460739 -4.1334 0
M  V30 2704 H 263.873 1.2611 -3.50928 0
M  V30 2705 N 266.058 1.56714 -0.166846 0
M  V30 2706 C 267.283 2.01557 0.488833 0
M  V30 2707 C 267.708 1.0463 1.56314 0
M  V30 2708 O 267.066 0.0251304 1.81283 0
M  V30 2709 C 267.114 3.4503 1.04818 0
M  V30 2710 O 266.218 3.51163 2.16236 0
M  V30 2711 H 265.559 0.653516 0.117526 0
M  V30 2712 H 268.089 2.02818 -0.269421 0
M  V30 2713 H 268.099 3.84243 1.37191 0
M  V30 2714 H 266.774 4.15077 0.261572 0
M  V30 2715 H 265.351 3.23807 1.84942 0
M  V30 2716 N 267.536 -0.106894 1.57237 0
M  V30 2717 C 268.784 -0.810921 1.85117 0
M  V30 2718 C 269.105 -1.7984 0.753827 0
M  V30 2719 O 268.375 -1.94649 -0.221056 0
M  V30 2720 H 266.955 -0.302466 0.683025 0
M  V30 2721 H 269.617 -0.0913324 1.94686 0
M  V30 2722 H 268.713 -1.34875 2.81452 0
M  V30 2723 N 269.014 -1.53014 -0.377408 0
M  V30 2724 C 269.944 -1.81589 -1.46791 0
M  V30 2725 C 270.925 -0.668622 -1.56408 0
M  V30 2726 O 272.11 -0.917337 -1.71168 0
M  V30 2727 C 269.24 -1.99519 -2.8427 0
M  V30 2728 C 268.194 -3.15249 -2.89486 0
M  V30 2729 C 267.52 -3.18451 -4.29527 0
M  V30 2730 C 268.82 -4.54084 -2.58079 0
M  V30 2731 H 270.514 -2.7291 -1.23127 0
M  V30 2732 H 268.06 -1.31319 -0.590883 0
M  V30 2733 H 270.013 -2.18092 -3.60575 0
M  V30 2734 H 268.737 -1.04897 -3.09296 0
M  V30 2735 H 267.396 -2.96477 -2.15631 0
M  V30 2736 H 267.044 -2.2149 -4.5161 0
M  V30 2737 H 266.744 -3.962 -4.33934 0
M  V30 2738 H 268.268 -3.39193 -5.07721 0
M  V30 2739 H 269.682 -4.72899 -3.24098 0
M  V30 2740 H 268.079 -5.33987 -2.7382 0
M  V30 2741 H 269.149 -4.60006 -1.53372 0
M  V30 2742 N 270.492 0.636531 -1.44174 0
M  V30 2743 C 271.722 1.42146 -1.49927 0
M  V30 2744 C 272.13 1.88812 -0.121063 0
M  V30 2745 O 271.473 1.61126 0.882267 0
M  V30 2746 C 271.535 2.67883 -2.39748 0
M  V30 2747 C 271.199 2.43048 -3.8701 0
M  V30 2748 C 272.196 2.05216 -4.77684 0
M  V30 2749 C 269.881 2.56856 -4.3166 0
M  V30 2750 C 271.875 1.81512 -6.11009 0
M  V30 2751 C 269.562 2.32766 -5.65034 0
M  V30 2752 C 270.56 1.95152 -6.54526 0
M  V30 2753 O 270.248 1.71326 -7.85431 0
M  V30 2754 H 269.98 0.442567 -0.51099 0
M  V30 2755 H 272.534 0.786158 -1.8976 0
M  V30 2756 H 270.764 3.34032 -1.94832 0
M  V30 2757 H 272.453 3.29874 -2.36513 0
M  V30 2758 H 273.219 1.94111 -4.44462 0
M  V30 2759 H 269.098 2.85104 -3.62266 0
M  V30 2760 H 272.642 1.52077 -6.80822 0
M  V30 2761 H 268.539 2.43479 -5.97819 0
M  V30 2762 H 269.307 1.85616 -7.97176 0
M  V30 2763 N 271.97 1.30982 0.876444 0
M  V30 2764 C 273.195 1.23373 1.66715 0
M  V30 2765 C 273.62 -0.19885 1.87046 0
M  V30 2766 O 272.978 -1.1427 1.40756 0
M  V30 2767 C 273.026 1.97644 3.01611 0
M  V30 2768 O 272.13 1.30935 3.91062 0
M  V30 2769 H 271.471 0.426279 0.509099 0
M  V30 2770 H 274.001 1.72944 1.09323 0
M  V30 2771 H 274.011 2.06992 3.51594 0
M  V30 2772 H 272.686 3.01829 2.86133 0
M  V30 2773 H 271.263 1.29996 3.49507 0
M  V30 2774 N 273.449 -1.08991 1.13837 0
M  V30 2775 C 274.379 -2.17771 0.842507 0
M  V30 2776 C 275.36 -1.6892 -0.20001 0
M  V30 2777 O 276.545 -1.94113 -0.0579731 0
M  V30 2778 C 273.675 -3.4589 0.312644 0
M  V30 2779 C 272.629 -4.08099 1.28992 0
M  V30 2780 C 271.955 -5.31098 0.619623 0
M  V30 2781 C 273.255 -4.50077 2.65005 0
M  V30 2782 H 274.949 -2.42777 1.75213 0
M  V30 2783 H 272.495 -1.16682 0.843875 0
M  V30 2784 H 274.448 -4.21297 0.0933043 0
M  V30 2785 H 273.172 -3.20419 -0.632382 0
M  V30 2786 H 271.831 -3.34717 1.49533 0
M  V30 2787 H 271.479 -5.0191 -0.33102 0
M  V30 2788 H 271.179 -5.73674 1.27167 0
M  V30 2789 H 272.703 -6.09224 0.409669 0
M  V30 2790 H 274.117 -5.16688 2.48407 0
M  V30 2791 H 272.514 -5.03553 3.26427 0
M  V30 2792 H 273.584 -3.62257 3.22332 0
M  V30 2793 N 274.927 -0.932562 -1.27047 0
M  V30 2794 C 276.152 -0.591474 -1.98787 0
M  V30 2795 C 276.577 0.824601 -1.69062 0
M  V30 2796 O 275.935 1.5541 -0.933677 0
M  V30 2797 C 275.983 -0.829808 -3.50922 0
M  V30 2798 O 275.087 0.102266 -4.12273 0
M  V30 2799 H 274.428 -0.227185 -0.623926 0
M  V30 2800 H 276.958 -1.25314 -1.61733 0
M  V30 2801 H 276.968 -0.747292 -4.01098 0
M  V30 2802 H 275.643 -1.86201 -3.7189 0
M  V30 2803 H 274.22 -0.0305761 -3.72887 0
M  V30 2804 N 276.405 1.4127 -0.698611 0
M  V30 2805 C 277.63 2.06024 -0.238512 0
M  V30 2806 C 278.055 1.5224 1.10475 0
M  V30 2807 O 277.413 0.650623 1.69223 0
M  V30 2808 C 277.461 3.59988 -0.209952 0
M  V30 2809 O 276.565 4.04282 0.814235 0
M  V30 2810 H 275.906 0.653829 -0.115775 0
M  V30 2811 H 278.436 1.8098 -0.954326 0
M  V30 2812 H 278.446 4.07979 -0.0418436 0
M  V30 2813 H 277.121 3.98503 -1.1903 0
M  V30 2814 H 275.698 3.6779 0.615234 0
M  V30 2815 N 277.883 0.443576 1.51229 0
M  V30 2816 C 279.129 -0.120975 2.02439 0
M  V30 2817 C 279.462 -1.41815 1.32674 0
M  V30 2818 O 278.737 -1.89373 0.443622 0
M  V30 2819 C 279.02 -0.333291 3.58554 0
M  V30 2820 C 278.873 0.982968 4.38928 0
M  V30 2821 C 280.192 -1.10028 4.26124 0
M  V30 2822 H 277.311 -0.0424923 0.735774 0
M  V30 2823 H 279.953 0.583794 1.80809 0
M  V30 2824 H 278.103 -0.933614 3.77115 0
M  V30 2825 H 279.775 1.61775 4.32003 0
M  V30 2826 H 278.018 1.58611 4.03763 0
M  V30 2827 H 278.689 0.788379 5.46341 0
M  V30 2828 H 281.165 -0.591711 4.11871 0
M  V30 2829 H 280.041 -1.21761 5.35225 0
M  V30 2830 H 280.302 -2.12996 3.87408 0
M  V30 2831 N 279.361 -1.56624 0.175154 0
M  V30 2832 C 280.607 -1.9729 -0.469506 0
M  V30 2833 C 280.94 -1.06128 -1.62636 0
M  V30 2834 O 280.215 -0.109183 -1.94193 0
M  V30 2835 C 280.498 -3.47375 -0.948804 0
M  V30 2836 C 280.351 -4.49317 0.208491 0
M  V30 2837 C 281.67 -4.00652 -1.82116 0
M  V30 2838 H 278.789 -0.717317 -0.16919 0
M  V30 2839 H 281.431 -1.88184 0.262062 0
M  V30 2840 H 279.581 -3.55267 -1.57219 0
M  V30 2841 H 281.253 -4.53482 0.845682 0
M  V30 2842 H 279.496 -4.25121 0.863395 0
M  V30 2843 H 280.167 -5.51741 -0.169059 0
M  V30 2844 H 282.643 -3.95416 -1.2956 0
M  V30 2845 H 281.519 -5.06075 -2.12554 0
M  V30 2846 H 281.78 -3.44699 -2.7683 0
M  V30 2847 N 280.839 0.0985539 -1.57292 0
M  V30 2848 C 282.067 0.816318 -1.90115 0
M  V30 2849 C 282.482 1.72451 -0.768509 0
M  V30 2850 O 281.839 1.80643 0.259687 0
M  V30 2851 C 281.89 1.63259 -3.22535 0
M  V30 2852 O 281.611 0.760934 -4.31441 0
M  V30 2853 C 283.112 2.45372 -3.69199 0
M  V30 2854 H 280.332 0.233595 -0.629027 0
M  V30 2855 H 282.876 0.0768229 -2.04356 0
M  V30 2856 H 281.031 2.32463 -3.09903 0
M  V30 2857 H 281.445 1.32595 -5.07463 0
M  V30 2858 H 282.919 2.98144 -4.64558 0
M  V30 2859 H 283.396 3.23677 -2.96867 0
M  V30 2860 H 284.002 1.81373 -3.84687 0
M  V30 2861 N 282.317 1.53212 0.369288 0
M  V30 2862 C 283.563 1.69466 1.11397 0
M  V30 2863 C 283.896 0.443257 1.89074 0
M  V30 2864 O 283.171 -0.559386 1.86282 0
M  V30 2865 C 283.454 2.9422 2.07621 0
M  V30 2866 C 283.307 4.29508 1.33577 0
M  V30 2867 C 284.626 3.14565 3.07794 0
M  V30 2868 H 281.745 0.616667 0.403597 0
M  V30 2869 H 284.387 1.85845 0.395179 0
M  V30 2870 H 282.537 2.80387 2.68916 0
M  V30 2871 H 284.209 4.55147 0.750955 0
M  V30 2872 H 282.452 4.29088 0.637618 0
M  V30 2873 H 283.123 5.12926 2.03989 0
M  V30 2874 H 285.599 3.2756 2.56601 0
M  V30 2875 H 284.475 4.03297 3.72348 0
M  V30 2876 H 284.736 2.29675 3.77759 0
M  V30 2877 N 283.795 -0.628877 1.44509 0
M  V30 2878 C 285.206 -1.21054 1.42137 0
M  V30 2879 C 285.557 -1.95715 0.137881 0
M  V30 2880 O 284.682 -2.02554 -0.761645 0
M  V30 2881 C 285.277 -2.20189 2.57493 0
M  V30 2882 C 283.836 -2.73777 2.58308 0
M  V30 2883 C 282.983 -1.48813 2.33987 0
M  V30 2884 H 285.934 -0.41942 1.53057 0
M  V30 2885 H 285.955 -3.02833 2.30375 0
M  V30 2886 H 285.467 -1.6582 3.50892 0
M  V30 2887 H 283.568 -3.32142 1.68856 0
M  V30 2888 H 283.681 -3.19662 3.56865 0
M  V30 2889 H 282.045 -1.77024 1.83124 0
M  V30 2890 H 282.828 -0.963442 3.29504 0
M  V30 2891 N 285.273 -1.31445 -0.869486 0
M  V30 2892 C 286.498 -1.24256 -1.66058 0
M  V30 2893 C 286.923 0.188928 -1.87149 0
M  V30 2894 O 286.281 1.13522 -1.4136 0
M  V30 2895 C 286.329 -1.9924 -3.00559 0
M  V30 2896 O 285.433 -1.33007 -3.90362 0
M  V30 2897 H 284.774 -0.428973 -0.506831 0
M  V30 2898 H 287.304 -1.73521 -1.08404 0
M  V30 2899 H 287.314 -2.08854 -3.50491 0
M  V30 2900 H 285.989 -3.03342 -2.84528 0
M  V30 2901 H 284.566 -1.31848 -3.48813 0
M  V30 2902 N 286.751 1.08385 -1.14413 0
M  V30 2903 C 287.976 1.85057 -0.936413 0
M  V30 2904 C 288.401 1.81055 0.509971 0
M  V30 2905 O 287.759 1.1958 1.36273 0
M  V30 2906 C 287.807 3.30505 -1.44217 0
M  V30 2907 O 286.911 4.07491 -0.634409 0
M  V30 2908 H 286.252 0.573425 -0.334784 0
M  V30 2909 H 288.782 1.36799 -1.52142 0
M  V30 2910 H 288.792 3.81348 -1.45043 0
M  V30 2911 H 287.467 3.32734 -2.49522 0
M  V30 2912 H 286.044 3.66368 -0.694902 0
M  V30 2913 N 288.23 0.939286 1.26551 0
M  V30 2914 C 289.455 0.602008 1.98471 0
M  V30 2915 C 289.88 -0.815624 1.69497 0
M  V30 2916 O 289.238 -1.54912 0.941905 0
M  V30 2917 C 289.286 0.848407 3.50477 0
M  V30 2918 O 288.39 -0.0804009 4.12322 0
M  V30 2919 H 287.731 0.23049 0.622712 0
M  V30 2920 H 290.261 1.2617 1.61066 0
M  V30 2921 H 290.271 0.768553 4.00696 0
M  V30 2922 H 288.946 1.88171 3.70897 0
M  V30 2923 H 287.523 0.0503508 3.72866 0
M  V30 2924 N 289.708 -1.40897 0.706093 0
M  V30 2925 C 290.638 -2.33418 0.0620085 0
M  V30 2926 C 291.619 -1.52385 -0.755827 0
M  V30 2927 O 292.804 -1.80886 -0.706674 0
M  V30 2928 C 289.934 -3.36293 -0.867445 0
M  V30 2929 C 288.888 -4.27716 -0.155932 0
M  V30 2930 C 288.214 -5.2105 -1.20046 0
M  V30 2931 C 289.514 -5.12944 0.984149 0
M  V30 2932 H 291.208 -2.87527 0.83477 0
M  V30 2933 H 288.754 -1.38249 0.402875 0
M  V30 2934 H 290.707 -3.99949 -1.32735 0
M  V30 2935 H 289.431 -2.80556 -1.67199 0
M  V30 2936 H 288.09 -3.65498 0.284047 0
M  V30 2937 H 287.738 -4.61624 -1.99781 0
M  V30 2938 H 287.438 -5.83056 -0.729328 0
M  V30 2939 H 288.962 -5.87584 -1.66066 0
M  V30 2940 H 290.376 -5.70109 0.604048 0
M  V30 2941 H 288.773 -5.83945 1.38304 0
M  V30 2942 H 289.843 -4.49485 1.81911 0
M  V30 2943 N 291.186 -0.45159 -1.50991 0
M  V30 2944 C 292.434 0.109857 -2.01801 0
M  V30 2945 C 292.755 1.41958 -1.3369 0
M  V30 2946 O 292.025 1.9003 -0.475951 0
M  V30 2947 H 290.605 0.0435884 -0.745727 0
M  V30 2948 H 293.267 -0.597557 -1.85514 0
M  V30 2949 H 292.363 0.275489 -3.10882 0
M  V30 2950 N 292.664 1.56529 -0.183458 0
M  V30 2951 C 293.892 2.01623 0.464285 0
M  V30 2952 C 294.307 1.06366 1.55986 0
M  V30 2953 O 293.664 0.0665398 1.82379 0
M  V30 2954 C 293.715 3.46475 1.03139 0
M  V30 2955 O 293.436 4.38095 -0.0204675 0
M  V30 2956 C 294.937 4.0703 1.75617 0
M  V30 2957 H 292.157 0.660596 0.117704 0
M  V30 2958 H 294.701 2.02451 -0.288751 0
M  V30 2959 H 292.856 3.46383 1.73486 0
M  V30 2960 H 293.27 5.22973 0.399952 0
M  V30 2961 H 294.744 5.10271 2.10542 0
M  V30 2962 H 295.221 3.49819 2.65563 0
M  V30 2963 H 295.827 4.1086 1.09882 0
M  V30 2964 N 294.142 -0.090211 1.57342 0
M  V30 2965 C 295.074 -1.13541 1.99101 0
M  V30 2966 C 296.087 -1.3604 0.894258 0
M  V30 2967 O 297.276 -1.34606 1.17233 0
M  V30 2968 C 294.376 -2.49001 2.29895 0
M  V30 2969 C 293.549 -2.46712 3.61182 0
M  V30 2970 C 292.608 -3.64136 3.79857 0
M  V30 2971 O 291.634 -3.46405 4.51655 0
M  V30 2972 N 292.836 -4.83802 3.20806 0
M  V30 2973 H 295.601 -0.779942 2.89373 0
M  V30 2974 H 293.162 -0.279125 1.59476 0
M  V30 2975 H 295.154 -3.26166 2.39578 0
M  V30 2976 H 293.724 -2.76619 1.45605 0
M  V30 2977 H 292.944 -1.55058 3.62423 0
M  V30 2978 H 294.232 -2.42265 4.4742 0
M  V30 2979 H 293.63 -5.01112 2.62494 0
M  V30 2980 H 292.187 -5.58543 3.35966 0
M  V30 2981 N 295.62 -1.53406 -0.361157 0
M  V30 2982 C 296.848 -1.73717 -1.12383 0
M  V30 2983 C 297.263 -0.468161 -1.82904 0
M  V30 2984 O 296.62 0.559198 -1.73722 0
M  V30 2985 C 296.671 -2.90558 -2.15078 0
M  V30 2986 O 296.392 -4.12549 -1.47428 0
M  V30 2987 C 297.893 -3.22777 -3.03858 0
M  V30 2988 H 295.113 -0.580896 -0.335858 0
M  V30 2989 H 297.657 -2.00167 -0.418728 0
M  V30 2990 H 295.812 -2.66489 -2.8118 0
M  V30 2991 H 296.226 -4.78009 -2.15887 0
M  V30 2992 H 297.7 -4.07927 -3.71887 0
M  V30 2993 H 298.177 -2.38329 -3.68912 0
M  V30 2994 H 298.783 -3.48787 -2.43367 0
M  V30 2995 N 297.098 0.621204 -1.44841 0
M  V30 2996 C 298.328 1.40548 -1.51426 0
M  V30 2997 C 298.736 1.88673 -0.141083 0
M  V30 2998 O 298.079 1.62053 0.865128 0
M  V30 2999 C 298.141 2.65325 -2.42576 0
M  V30 3000 C 297.805 2.3893 -3.89566 0
M  V30 3001 C 298.802 2.00138 -4.79834 0
M  V30 3002 C 296.487 2.52263 -4.3436 0
M  V30 3003 C 298.481 1.75021 -6.129 0
M  V30 3004 C 296.168 2.2676 -5.67471 0
M  V30 3005 C 297.166 1.88199 -6.56559 0
M  V30 3006 O 296.854 1.62986 -7.87204 0
M  V30 3007 H 296.586 0.437122 -0.515655 0
M  V30 3008 H 299.14 0.765987 -1.90583 0
M  V30 3009 H 297.37 3.31947 -1.98364 0
M  V30 3010 H 299.059 3.27347 -2.39998 0
M  V30 3011 H 299.825 1.89386 -4.46495 0
M  V30 3012 H 295.704 2.81246 -3.65269 0
M  V30 3013 H 299.248 1.44848 -6.82396 0
M  V30 3014 H 295.145 2.37125 -6.00368 0
M  V30 3015 H 295.913 1.7715 -7.991 0
M  V30 3016 N 298.576 1.31904 0.862503 0
M  V30 3017 C 299.825 1.21373 1.61094 0
M  V30 3018 C 300.138 -0.22504 1.94301 0
M  V30 3019 O 301.344 -0.452121 2.67709 0
M  V30 3020 C 299.8 2.12525 2.9045 0
M  V30 3021 C 299.408 3.61441 2.64697 0
M  V30 3022 C 301.152 2.10813 3.68454 0
M  V30 3023 C 299.059 4.44578 3.90006 0
M  V30 3024 H 297.989 0.450705 0.604468 0
M  V30 3025 H 300.64 1.56811 0.953027 0
M  V30 3026 H 299.022 1.69994 3.57656 0
M  V30 3027 H 300.196 4.12264 2.05851 0
M  V30 3028 H 298.511 3.65205 2.00036 0
M  V30 3029 H 301.108 2.70167 4.61426 0
M  V30 3030 H 301.451 1.09713 4.01583 0
M  V30 3031 H 301.984 2.51583 3.08141 0
M  V30 3032 H 298.723 5.46461 3.62023 0
M  V30 3033 H 298.243 3.98508 4.48276 0
M  V30 3034 H 299.922 4.57176 4.5782 0
M  V30 3035 N 300.054 -1.07777 1.14986 0
M  V30 3036 C 301.294 -1.81888 0.932527 0
M  V30 3037 C 301.658 -1.84509 -0.531064 0
M  V30 3038 O 302.859 -2.54448 -0.866577 0
M  V30 3039 C 301.13 -3.23244 1.52473 0
M  V30 3040 S 302.689 -4.14154 1.44989 0
M  V30 3041 H 299.507 -0.626752 0.335712 0
M  V30 3042 H 302.109 -1.29503 1.46455 0
M  V30 3043 H 300.813 -3.18922 2.58296 0
M  V30 3044 H 300.344 -3.80704 0.991381 0
M  V30 3045 H 302.359 -4.94247 0.439799 0
M  V30 3046 N 301.532 -0.945985 -1.26051 0
M  V30 3047 C 302.48 -0.450259 -2.282 0
M  V30 3048 C 303.474 0.47497 -1.62605 0
M  V30 3049 O 304.68 0.352653 -1.76512 0
M  V30 3050 H 301.055 -0.127081 -0.741184 0
M  V30 3051 H 303.026 -1.32422 -2.67408 0
M  V30 3052 C 301.775 0.26467 -3.46691 0
M  V30 3053 H 301.098 -0.438123 -3.97392 0
M  V30 3054 H 302.538 0.575678 -4.20074 0
M  V30 3055 C 300.997 1.48416 -3.02447 0
M  V30 3056 O 301.527 2.58227 -3.07704 0
M  V30 3057 N 299.733 1.34243 -2.57735 0
M  V30 3058 H 299.28 0.448994 -2.53657 0
M  V30 3059 H 299.238 2.15957 -2.28495 0
M  V30 3060 N 303.011 1.40521 -0.713556 0
M  V30 3061 C 304.257 2.01221 -0.252564 0
M  V30 3062 C 304.59 1.56444 1.1506 0
M  V30 3063 O 303.865 0.783597 1.78017 0
M  V30 3064 C 304.148 3.58582 -0.330332 0
M  V30 3065 C 304.001 4.13437 -1.77173 0
M  V30 3066 C 305.32 4.39079 0.299641 0
M  V30 3067 H 302.439 0.731077 -0.0932471 0
M  V30 3068 H 305.081 1.67026 -0.905673 0
M  V30 3069 H 303.231 3.87844 0.225737 0
M  V30 3070 H 304.903 3.9498 -2.38303 0
M  V30 3071 H 303.146 3.67801 -2.3001 0
M  V30 3072 H 303.817 5.22597 -1.77755 0
M  V30 3073 H 306.293 4.15735 -0.174139 0
M  V30 3074 H 305.169 5.4848 0.214771 0
M  V30 3075 H 305.43 4.19915 1.38288 0
M  V30 3076 N 304.489 0.459591 1.5075 0
M  V30 3077 C 305.437 -0.354678 2.2988 0
M  V30 3078 C 306.431 -1.00086 1.36672 0
M  V30 3079 O 307.637 -0.933277 1.53915 0
M  V30 3080 H 304.012 -0.13321 0.740107 0
M  V30 3081 H 305.983 0.333269 2.96533 0
M  V30 3082 C 304.732 -1.43073 3.169 0
M  V30 3083 H 304.055 -0.942882 3.88523 0
M  V30 3084 H 305.495 -1.97328 3.75284 0
M  V30 3085 C 303.954 -2.42633 2.33732 0
M  V30 3086 O 304.484 -3.47658 2.01238 0
M  V30 3087 N 302.69 -2.14066 1.9653 0
M  V30 3088 H 302.237 -1.28685 2.23155 0
M  V30 3089 H 302.195 -2.80917 1.41185 0
M  V30 3090 N 305.967 -1.56429 0.191757 0
M  V30 3091 C 306.917 -2.15548 -0.743184 0
M  V30 3092 C 307.901 -1.09531 -1.17863 0
M  V30 3093 O 309.093 -1.35602 -1.13759 0
M  V30 3094 C 306.222 -2.81577 -1.96391 0
M  V30 3095 C 305.308 -3.9478 -1.54951 0
M  V30 3096 N 305.699 -4.98677 -0.845876 0
M  V30 3097 C 303.997 -4.06319 -1.83905 0
M  V30 3098 C 304.698 -5.78183 -0.638724 0
M  V30 3099 N 303.674 -5.30495 -1.18643 0
M  V30 3100 H 307.476 -2.9324 -0.196839 0
M  V30 3101 H 304.99 -1.62398 -0.0081603 0
M  V30 3102 H 306.987 -3.22321 -2.64415 0
M  V30 3103 H 305.647 -2.05371 -2.51501 0
M  V30 3104 H 306.658 -5.15464 -0.501704 0
M  V30 3105 H 303.335 -3.41238 -2.40548 0
M  V30 3106 H 304.725 -6.71851 -0.0807929 0
M  V30 3107 N 307.445 0.0818655 -1.57387 0
M  V30 3108 C 308.392 1.09834 -2.0299 0
M  V30 3109 C 309.362 1.39043 -0.908639 0
M  V30 3110 O 310.547 1.50282 -1.17559 0
M  V30 3111 C 307.687 2.40971 -2.47037 0
M  V30 3112 C 306.8 2.18379 -3.7274 0
M  V30 3113 C 305.935 3.43008 -4.0561 0
M  V30 3114 C 304.974 3.15736 -5.24383 0
M  V30 3115 N 304.111 4.32667 -5.52941 0
M  V30 3116 H 308.951 0.702472 -2.89602 0
M  V30 3117 H 306.488 0.33531 -1.43227 0
M  V30 3118 H 308.446 3.1752 -2.70623 0
M  V30 3119 H 307.076 2.78379 -1.63417 0
M  V30 3120 H 306.128 1.32569 -3.56552 0
M  V30 3121 H 307.44 1.94227 -4.59431 0
M  V30 3122 H 306.594 4.27958 -4.30043 0
M  V30 3123 H 305.333 3.70225 -3.17466 0
M  V30 3124 H 304.338 2.2918 -4.99757 0
M  V30 3125 H 305.563 2.8985 -6.14136 0
M  V30 3126 H 303.509 4.59935 -4.67756 0
M  V30 3127 H 303.426 4.11753 -6.34031 0
M  V30 3128 H 304.694 5.18644 -5.81918 0
M  V30 3129 N 308.923 1.53595 0.353017 0
M  V30 3130 C 310.334 1.61937 0.929153 0
M  V30 3131 C 310.685 0.494686 1.89861 0
M  V30 3132 O 309.81 -0.377017 2.1309 0
M  V30 3133 C 310.405 2.93526 1.69199 0
M  V30 3134 C 308.964 3.04161 2.21727 0
M  V30 3135 C 308.111 2.57322 1.03348 0
M  V30 3136 H 311.062 1.58155 0.131431 0
M  V30 3137 H 311.083 2.82034 2.55416 0
M  V30 3138 H 310.595 3.75362 0.986144 0
M  V30 3139 H 308.696 2.26938 2.95516 0
M  V30 3140 H 308.809 4.09465 2.48748 0
M  V30 3141 H 307.173 2.12499 1.40414 0
M  V30 3142 H 307.956 3.41588 0.342428 0
M  V30 3143 N 310.401 -0.613514 1.45168 0
M  V30 3144 C 311.626 -1.40437 1.52618 0
M  V30 3145 C 312.051 -1.87438 0.157707 0
M  V30 3146 O 311.409 -1.59791 -0.856537 0
M  V30 3147 C 311.457 -2.58894 2.51011 0
M  V30 3148 O 310.561 -3.59326 2.02382 0
M  V30 3149 H 309.902 -0.419506 0.514695 0
M  V30 3150 H 312.432 -0.747215 1.90467 0
M  V30 3151 H 312.442 -3.06214 2.69624 0
M  V30 3152 H 311.117 -2.24032 3.50403 0
M  V30 3153 H 309.694 -3.18695 1.93618 0
M  V30 3154 N 311.879 -1.3236 -0.855495 0
M  V30 3155 C 312.827 -1.2118 -1.9854 0
M  V30 3156 C 313.821 -0.116788 -1.68997 0
M  V30 3157 O 315.027 -0.279657 -1.77814 0
M  V30 3158 H 311.402 -0.375608 -0.651477 0
M  V30 3159 H 313.373 -2.16743 -2.05098 0
M  V30 3160 C 312.122 -0.950849 -3.34446 0
M  V30 3161 H 311.445 -1.78563 -3.57708 0
M  V30 3162 H 312.885 -0.912863 -4.14057 0
M  V30 3163 C 311.344 0.346404 -3.35114 0
M  V30 3164 O 311.874 1.35855 -3.7803 0
M  V30 3165 N 310.08 0.36808 -2.88259 0
M  V30 3166 H 309.627 -0.456102 -2.5353 0
M  V30 3167 H 309.585 1.23591 -2.89089 0
M  V30 3168 N 313.357 1.07166 -1.15556 0
M  V30 3169 C 314.585 1.83514 -0.955519 0
M  V30 3170 C 315 1.82163 0.49621 0
M  V30 3171 O 314.357 1.23441 1.34419 0
M  V30 3172 C 314.408 3.30515 -1.46432 0
M  V30 3173 O 314.129 3.31937 -2.85918 0
M  V30 3174 C 315.63 4.23625 -1.30603 0
M  V30 3175 H 312.85 0.578926 -0.339244 0
M  V30 3176 H 315.394 1.35265 -1.53374 0
M  V30 3177 H 313.549 3.76106 -0.928584 0
M  V30 3178 H 313.963 4.23794 -3.09029 0
M  V30 3179 H 315.437 5.24831 -1.71047 0
M  V30 3180 H 315.914 4.38485 -0.250441 0
M  V30 3181 H 316.52 3.83871 -1.83094 0
M  V30 3182 N 314.835 0.952656 1.25548 0
M  V30 3183 C 315.782 0.47008 2.25962 0
M  V30 3184 C 316.752 -0.476384 1.59122 0
M  V30 3185 O 317.937 -0.39007 1.8677 0
M  V30 3186 C 315.077 -0.247881 3.44209 0
M  V30 3187 C 314.19 0.735591 4.25691 0
M  V30 3188 C 313.325 -0.0047306 5.312 0
M  V30 3189 C 312.364 0.969805 6.04368 0
M  V30 3190 N 311.501 0.260486 7.01617 0
M  V30 3191 H 316.341 1.33126 2.66611 0
M  V30 3192 H 313.878 0.66765 1.31076 0
M  V30 3193 H 315.836 -0.680695 4.1161 0
M  V30 3194 H 314.466 -1.07312 3.0444 0
M  V30 3195 H 313.518 1.28689 3.57971 0
M  V30 3196 H 314.83 1.47934 4.76358 0
M  V30 3197 H 313.984 -0.496275 6.04667 0
M  V30 3198 H 312.723 -0.781282 4.81401 0
M  V30 3199 H 311.728 1.47237 5.29718 0
M  V30 3200 H 312.953 1.74655 6.56256 0
M  V30 3201 H 310.899 -0.497364 6.54112 0
M  V30 3202 H 310.816 0.943362 7.50091 0
M  V30 3203 H 312.084 -0.209587 7.79218 0
M  V30 3204 N 316.313 -1.40141 0.720998 0
M  V30 3205 C 317.559 -2.01084 0.263231 0
M  V30 3206 C 317.892 -1.57052 -1.14229 0
M  V30 3207 O 317.167 -0.793027 -1.77599 0
M  V30 3208 C 317.45 -3.58401 0.349344 0
M  V30 3209 C 317.303 -4.12491 1.79363 0
M  V30 3210 C 318.622 -4.39231 -0.276351 0
M  V30 3211 H 315.741 -0.730572 0.0971228 0
M  V30 3212 H 318.383 -1.66543 0.914518 0
M  V30 3213 H 316.533 -3.87958 -0.205165 0
M  V30 3214 H 318.205 -3.93711 2.40394 0
M  V30 3215 H 316.448 -3.66576 2.31958 0
M  V30 3216 H 317.119 -5.21646 1.80524 0
M  V30 3217 H 319.595 -4.15637 0.196184 0
M  V30 3218 H 318.471 -5.48586 -0.185681 0
M  V30 3219 H 318.732 -4.20643 -1.36059 0
M  V30 3220 N 317.792 -0.46758 -1.50504 0
M  V30 3221 C 319.069 0.15003 -1.95024 0
M  V30 3222 C 319.449 1.57304 -1.40779 0
M  V30 3223 O 318.797 2.20281 -0.607319 0
M  V30 3224 C 319.007 0.0969324 -3.48865 0
M  V30 3225 C 320.355 0.287565 -4.23625 0
M  V30 3226 O 321.379 0.173678 -3.55776 0
M  V30 3227 O 320.238 0.517186 -5.44047 0
M  V30 3228 H 317.332 0.113582 -0.819163 0
M  V30 3229 H 319.878 -0.52773 -1.61286 0
M  V30 3230 H 318.65 -0.896732 -3.80886 0
M  V30 3231 H 318.273 0.816303 -3.8913 0
M  V30 3232 N 319.27 1.56325 -0.20005 0
M  V30 3233 C 320.217 2.1932 0.718833 0
M  V30 3234 C 321.187 1.14198 1.20615 0
M  V30 3235 O 322.372 1.42469 1.26914 0
M  V30 3236 C 319.512 2.86041 1.93066 0
M  V30 3237 C 318.625 4.05702 1.48425 0
M  V30 3238 C 317.76 4.60266 2.65196 0
M  V30 3239 C 316.799 5.72273 2.17185 0
M  V30 3240 N 315.936 6.21221 3.27152 0
M  V30 3241 H 320.776 2.97486 0.17489 0
M  V30 3242 H 318.313 1.46911 0.0745794 0
M  V30 3243 H 320.271 3.22897 2.64184 0
M  V30 3244 H 318.901 2.1043 2.44783 0
M  V30 3245 H 317.953 3.74475 0.668755 0
M  V30 3246 H 319.265 4.86699 1.09204 0
M  V30 3247 H 318.419 4.99453 3.4443 0
M  V30 3248 H 317.158 3.78386 3.07693 0
M  V30 3249 H 316.163 5.3261 1.36407 0
M  V30 3250 H 317.388 6.55974 1.75713 0
M  V30 3251 H 315.334 5.42263 3.69171 0
M  V30 3252 H 315.251 6.97284 2.92116 0
M  V30 3253 H 316.519 6.65063 4.06585 0
M  V30 3254 N 320.748 -0.0735177 1.57428 0
M  V30 3255 C 321.695 -1.08756 2.0357 0
M  V30 3256 C 322.665 -1.38559 0.916 0
M  V30 3257 O 323.85 -1.49656 1.18354 0
M  V30 3258 C 320.99 -2.39657 2.48311 0
M  V30 3259 C 320.103 -2.16399 3.73892 0
M  V30 3260 C 319.238 -3.40852 4.07423 0
M  V30 3261 C 318.277 -3.1295 5.2605 0
M  V30 3262 N 317.414 -4.29729 5.55228 0
M  V30 3263 H 322.254 -0.687104 2.8997 0
M  V30 3264 H 319.791 -0.327709 1.43403 0
M  V30 3265 H 321.749 -3.16081 2.72303 0
M  V30 3266 H 320.379 -2.77508 1.64891 0
M  V30 3267 H 319.431 -1.30676 3.57251 0
M  V30 3268 H 320.743 -1.91788 4.60455 0
M  V30 3269 H 319.897 -4.25671 4.32306 0
M  V30 3270 H 318.636 -3.68537 3.19425 0
M  V30 3271 H 317.641 -2.26526 5.00965 0
M  V30 3272 H 318.866 -2.86589 6.15665 0
M  V30 3273 H 316.812 -4.57448 4.70188 0
M  V30 3274 H 316.729 -4.08385 6.36206 0
M  V30 3275 H 317.997 -5.1555 5.84661 0
M  V30 3276 N 322.226 -1.5378 -0.344866 0
M  V30 3277 C 323.472 -1.71216 -1.08687 0
M  V30 3278 C 323.805 -0.473281 -1.88345 0
M  V30 3279 O 323.08 0.52968 -1.87149 0
M  V30 3280 C 323.363 -2.97486 -2.02914 0
M  V30 3281 C 323.216 -4.31579 -1.26727 0
M  V30 3282 C 324.535 -3.19422 -3.0275 0
M  V30 3283 H 321.654 -0.62301 -0.393735 0
M  V30 3284 H 324.296 -1.8645 -0.365563 0
M  V30 3285 H 322.446 -2.84629 -2.64421 0
M  V30 3286 H 324.118 -4.56284 -0.67845 0
M  V30 3287 H 322.361 -4.30049 -0.569273 0
M  V30 3288 H 323.032 -5.16106 -1.95803 0
M  V30 3289 H 325.508 -3.316 -2.51357 0
M  V30 3290 H 324.384 -4.09169 -3.65885 0
M  V30 3291 H 324.645 -2.35656 -3.74057 0
M  V30 3292 N 323.704 0.605807 -1.45491 0
M  V30 3293 C 324.614 1.74466 -1.56839 0
M  V30 3294 C 325.63 1.68006 -0.452772 0
M  V30 3295 O 326.806 1.8833 -0.713708 0
M  V30 3296 C 323.871 3.10931 -1.53371 0
M  V30 3297 C 322.932 3.28832 -2.75986 0
M  V30 3298 C 322.165 4.58787 -2.72673 0
M  V30 3299 O 322.388 5.4122 -1.80102 0
M  V30 3300 O 321.322 4.79438 -3.63899 0
M  V30 3301 H 325.148 1.67843 -2.53106 0
M  V30 3302 H 322.733 0.770108 -1.28022 0
M  V30 3303 H 324.615 3.92233 -1.54051 0
M  V30 3304 H 323.29 3.18042 -0.602572 0
M  V30 3305 H 322.197 2.47112 -2.80867 0
M  V30 3306 H 323.53 3.26599 -3.68231 0
M  V30 3307 N 325.182 1.32811 0.848464 0
M  V30 3308 C 326.593 1.21315 1.41914 0
M  V30 3309 C 326.944 -0.171847 1.95446 0
M  V30 3310 O 326.069 -1.07093 1.88043 0
M  V30 3311 C 326.664 2.19631 2.57968 0
M  V30 3312 C 325.223 2.12003 3.11017 0
M  V30 3313 C 324.37 2.07651 1.83783 0
M  V30 3314 H 327.321 1.44549 0.655071 0
M  V30 3315 H 327.342 1.79845 3.35315 0
M  V30 3316 H 326.854 3.20423 2.18976 0
M  V30 3317 H 324.955 1.14481 3.54577 0
M  V30 3318 H 325.068 3.02111 3.71841 0
M  V30 3319 H 323.432 1.52983 2.03638 0
M  V30 3320 H 324.215 3.10235 1.47 0
M  V30 3321 N 326.66 -1.06551 1.16123 0
M  V30 3322 C 327.607 -2.13961 0.865414 0
M  V30 3323 C 328.577 -1.65066 -0.185055 0
M  V30 3324 O 329.762 -1.90732 -0.05083 0
M  V30 3325 C 326.902 -3.43113 0.369776 0
M  V30 3326 C 326.015 -4.05756 1.48276 0
M  V30 3327 C 325.15 -5.22773 0.942414 0
M  V30 3328 C 324.189 -5.77395 2.03179 0
M  V30 3329 N 323.326 -6.85731 1.50721 0
M  V30 3330 H 328.166 -2.38605 1.78527 0
M  V30 3331 H 325.703 -1.17072 0.890646 0
M  V30 3332 H 327.661 -4.17151 0.0640643 0
M  V30 3333 H 326.291 -3.18695 -0.513143 0
M  V30 3334 H 325.343 -3.29292 1.9045 0
M  V30 3335 H 326.655 -4.42351 2.30493 0
M  V30 3336 H 325.809 -6.03827 0.589729 0
M  V30 3337 H 324.548 -4.87618 0.0895191 0
M  V30 3338 H 323.553 -4.94981 2.3932 0
M  V30 3339 H 324.778 -6.14603 2.8886 0
M  V30 3340 H 322.724 -6.52499 0.676811 0
M  V30 3341 H 322.641 -7.21254 2.26557 0
M  V30 3342 H 323.909 -7.7047 1.18303 0
M  V30 3343 N 328.138 -0.959301 -1.25041 0
M  V30 3344 C 329.363 -0.633507 -1.97488 0
M  V30 3345 C 329.788 0.788555 -1.70773 0
M  V30 3346 O 329.146 1.53394 -0.966431 0
M  V30 3347 C 329.194 -0.904057 -3.49083 0
M  V30 3348 O 328.298 0.0147939 -4.12397 0
M  V30 3349 H 327.639 -0.240368 -0.618966 0
M  V30 3350 H 330.169 -1.28717 -1.59038 0
M  V30 3351 H 330.179 -0.832203 -3.99423 0
M  V30 3352 H 328.854 -1.94048 -3.67856 0
M  V30 3353 H 327.431 -0.109664 -3.72739 0
M  V30 3354 N 329.616 1.39756 -0.72842 0
M  V30 3355 C 330.856 2.025 -0.278078 0
M  V30 3356 C 331.22 1.5654 1.11173 0
M  V30 3357 O 332.421 2.11435 1.65978 0
M  V30 3358 C 330.692 3.55489 -0.369139 0
M  V30 3359 S 332.251 4.388 0.00232983 0
M  V30 3360 H 329.069 0.702534 -0.109391 0
M  V30 3361 H 331.671 1.70672 -0.95348 0
M  V30 3362 H 330.375 3.86429 -1.38204 0
M  V30 3363 H 329.906 3.92061 0.324308 0
M  V30 3364 H 331.921 4.80954 1.22055 0
M  V30 3365 N 331.094 0.475555 1.50254 0
M  V30 3366 C 332.371 -0.139685 1.95101 0
M  V30 3367 C 332.751 -1.56555 1.41611 0
M  V30 3368 O 332.099 -2.19956 0.618993 0
M  V30 3369 C 332.309 -0.0784298 3.48912 0
M  V30 3370 C 333.657 -0.265095 4.23772 0
M  V30 3371 O 334.681 -0.154808 3.55863 0
M  V30 3372 O 333.54 -0.488327 5.44314 0
M  V30 3373 H 330.634 -0.109236 0.819754 0
M  V30 3374 H 333.18 0.536276 1.61004 0
M  V30 3375 H 331.952 0.916918 3.80405 0
M  V30 3376 H 331.575 -0.795655 3.89558 0
M  V30 3377 N 332.573 -1.56217 0.208337 0
M  V30 3378 C 333.52 -2.19699 -0.707192 0
M  V30 3379 C 334.49 -1.14836 -1.20008 0
M  V30 3380 O 335.675 -1.4314 -1.26157 0
M  V30 3381 C 332.815 -2.87061 -1.91546 0
M  V30 3382 C 331.928 -4.06483 -1.46271 0
M  V30 3383 C 331.063 -4.61665 -2.62752 0
M  V30 3384 C 330.102 -5.73417 -2.14147 0
M  V30 3385 N 329.239 -6.22948 -3.23853 0
M  V30 3386 H 334.079 -2.97575 -0.159111 0
M  V30 3387 H 331.616 -1.46948 -0.0667874 0
M  V30 3388 H 333.574 -3.24294 -2.62468 0
M  V30 3389 H 332.204 -2.11725 -2.43664 0
M  V30 3390 H 331.256 -3.74825 -0.648886 0
M  V30 3391 H 332.568 -4.87271 -1.06622 0
M  V30 3392 H 331.722 -5.01272 -3.41776 0
M  V30 3393 H 330.461 -3.80013 -3.05682 0
M  V30 3394 H 329.466 -5.33326 -1.33581 0
M  V30 3395 H 330.691 -6.56897 -1.72232 0
M  V30 3396 H 328.637 -5.44213 -3.6629 0
M  V30 3397 H 328.554 -6.98823 -2.88414 0
M  V30 3398 H 329.822 -6.6721 -4.03052 0
M  V30 3399 N 334.051 0.0651679 -1.57465 0
M  V30 3400 C 335.279 0.775808 -1.91804 0
M  V30 3401 C 335.694 1.70782 -0.804916 0
M  V30 3402 O 335.051 1.81153 0.221311 0
M  V30 3403 C 335.102 1.56381 -3.25925 0
M  V30 3404 O 334.823 0.669248 -4.32958 0
M  V30 3405 C 336.324 2.37485 -3.7432 0
M  V30 3406 H 333.544 0.2202 -0.63384 0
M  V30 3407 H 336.088 0.0334587 -2.04473 0
M  V30 3408 H 334.243 2.25837 -3.14764 0
M  V30 3409 H 334.657 1.21801 -5.10162 0
M  V30 3410 H 336.131 2.88223 -4.70778 0
M  V30 3411 H 336.608 3.17307 -3.03666 0
M  V30 3412 H 337.214 1.73173 -3.88447 0
M  V30 3413 N 335.529 1.53961 0.336706 0
M  V30 3414 C 336.479 1.7881 1.41461 0
M  V30 3415 C 337.463 0.643561 1.47469 0
M  V30 3416 O 338.655 0.903166 1.52223 0
M  V30 3417 C 335.784 2.00722 2.78506 0
M  V30 3418 C 334.87 3.2126 2.76862 0
M  V30 3419 N 335.261 4.42588 2.44845 0
M  V30 3420 C 333.559 3.22568 3.08004 0
M  V30 3421 C 334.26 5.2447 2.51607 0
M  V30 3422 N 333.236 4.61344 2.87511 0
M  V30 3423 H 337.038 2.70205 1.15615 0
M  V30 3424 H 334.552 1.52978 0.545112 0
M  V30 3425 H 336.549 2.1666 3.5618 0
M  V30 3426 H 335.209 1.10573 3.05293 0
M  V30 3427 H 336.22 4.69819 2.17922 0
M  V30 3428 H 332.897 2.42409 3.39918 0
M  V30 3429 H 334.287 6.31324 2.29955 0
M  V30 3430 N 337.007 -0.598083 1.45811 0
M  V30 3431 C 338.235 -1.38322 1.53866 0
M  V30 3432 C 338.65 -1.87992 0.174479 0
M  V30 3433 O 338.007 -1.62756 -0.825627 0
M  V30 3434 C 338.058 -2.58125 2.53089 0
M  V30 3435 O 337.779 -2.10516 3.84206 0
M  V30 3436 C 339.28 -3.50869 2.70935 0
M  V30 3437 H 336.5 -0.423093 0.520801 0
M  V30 3438 H 339.044 -0.728527 1.91083 0
M  V30 3439 H 337.199 -3.19615 2.18917 0
M  V30 3440 H 337.613 -2.88425 4.38077 0
M  V30 3441 H 339.087 -4.31451 3.44317 0
M  V30 3442 H 339.564 -4.01822 1.77301 0
M  V30 3443 H 340.17 -2.95225 3.06141 0
M  V30 3444 N 338.485 -1.33259 -0.841409 0
M  V30 3445 C 339.725 -1.25902 -1.61022 0
M  V30 3446 C 340.089 0.173325 -1.91216 0
M  V30 3447 O 341.29 0.370824 -2.6623 0
M  V30 3448 C 339.561 -2.10735 -2.88662 0
M  V30 3449 S 341.12 -2.20541 -3.79351 0
M  V30 3450 H 337.938 -0.447958 -0.552137 0
M  V30 3451 H 340.54 -1.68263 -0.995382 0
M  V30 3452 H 339.244 -3.1384 -2.64448 0
M  V30 3453 H 338.775 -1.69201 -3.55154 0
M  V30 3454 H 340.79 -1.36462 -4.77067 0
M  V30 3455 N 339.963 1.05934 -1.16686 0
M  V30 3456 C 341.374 1.60263 -0.957745 0
M  V30 3457 C 341.725 1.89789 0.49745 0
M  V30 3458 O 340.85 1.67401 1.37135 0
M  V30 3459 C 341.445 2.91172 -1.73218 0
M  V30 3460 C 340.004 3.42188 -1.56794 0
M  V30 3461 C 339.151 2.16028 -1.73859 0
M  V30 3462 H 342.102 0.888392 -1.31504 0
M  V30 3463 H 342.123 3.60744 -1.21014 0
M  V30 3464 H 341.635 2.6965 -2.79124 0
M  V30 3465 H 339.736 3.68762 -0.533437 0
M  V30 3466 H 339.849 4.17273 -2.35414 0
M  V30 3467 H 338.213 2.26426 -1.16633 0
M  V30 3468 H 338.996 1.96985 -2.81161 0
M  V30 3469 N 341.441 0.965919 1.2453 0
M  V30 3470 C 342.852 0.665929 1.7442 0
M  V30 3471 C 343.203 -0.818407 1.78316 0
M  V30 3472 O 342.328 -1.64037 1.41141 0
M  V30 3473 C 342.923 1.20211 3.16757 0
M  V30 3474 C 341.482 0.952059 3.6416 0
M  V30 3475 C 340.629 1.33848 2.42858 0
M  V30 3476 H 343.58 1.14144 1.10258 0
M  V30 3477 H 343.601 0.567544 3.76244 0
M  V30 3478 H 343.113 2.28244 3.13889 0
M  V30 3479 H 341.214 -0.112821 3.72429 0
M  V30 3480 H 341.327 1.59645 4.51719 0
M  V30 3481 H 339.691 0.756864 2.43195 0
M  V30 3482 H 340.474 2.42827 2.42673 0
M  V30 3483 N 342.919 -1.39368 0.735821 0
M  V30 3484 C 344.159 -2.02349 0.288813 0
M  V30 3485 C 344.523 -1.57127 -1.10341 0
M  V30 3486 O 345.724 -2.12312 -1.64854 0
M  V30 3487 C 343.995 -3.55288 0.387986 0
M  V30 3488 S 345.554 -4.38795 0.0209408 0
M  V30 3489 H 342.372 -0.701944 0.113115 0
M  V30 3490 H 344.974 -1.70164 0.962518 0
M  V30 3491 H 343.678 -3.85691 1.40252 0
M  V30 3492 H 343.209 -3.92227 -0.303512 0
M  V30 3493 H 345.224 -4.81595 -1.19503 0
M  V30 3494 N 344.397 -0.483516 -1.5 0
M  V30 3495 C 345.808 -0.0314176 -1.86674 0
M  V30 3496 C 346.159 1.37728 -1.39733 0
M  V30 3497 O 345.284 2.02327 -0.767635 0
M  V30 3498 C 345.879 -0.0502376 -3.38763 0
M  V30 3499 C 344.438 0.346442 -3.74802 0
M  V30 3500 C 343.585 -0.430366 -2.7394 0
M  V30 3501 H 346.536 -0.697182 -1.42566 0
M  V30 3502 H 346.557 0.749116 -3.73053 0
M  V30 3503 H 346.069 -1.07563 -3.72897 0
M  V30 3504 H 344.17 1.37572 -3.46273 0
M  V30 3505 H 344.283 0.0391486 -4.79084 0
M  V30 3506 H 342.647 0.117557 -2.54429 0
M  V30 3507 H 343.43 -1.4555 -3.10918 0
M  V30 3508 N 345.875 1.56104 -0.216619 0
M  V30 3509 C 346.838 2.18819 0.681962 0
M  V30 3510 C 347.838 1.14866 1.12528 0
M  V30 3511 O 349.028 1.40128 1.03488 0
M  V30 3512 C 346.16 2.80756 1.93362 0
M  V30 3513 H 347.353 2.99595 0.135254 0
M  V30 3514 H 344.906 1.56265 0.0330003 0
M  V30 3515 H 345.641 2.03837 2.52232 0
M  V30 3516 H 345.426 3.56876 1.62426 0
M  V30 3517 H 346.916 3.28844 2.57393 0
M  V30 3518 N 347.353 -0.0568162 1.57498 0
M  V30 3519 C 348.764 -0.606858 1.76562 0
M  V30 3520 C 349.115 -1.77114 0.844094 0
M  V30 3521 O 348.24 -2.16376 0.0318911 0
M  V30 3522 C 348.835 -1.10766 3.20182 0
M  V30 3523 C 347.394 -1.60344 3.40539 0
M  V30 3524 C 346.541 -0.529311 2.72201 0
M  V30 3525 H 349.492 0.169393 1.57793 0
M  V30 3526 H 349.513 -1.97602 3.25167 0
M  V30 3527 H 349.025 -0.26006 3.87228 0
M  V30 3528 H 347.126 -2.47379 2.78629 0
M  V30 3529 H 347.239 -1.67006 4.4905 0
M  V30 3530 H 345.603 -0.977893 2.35179 0
M  V30 3531 H 346.386 0.308352 3.41912 0
M  V30 3532 N 348.832 -1.54138 -0.328536 0
M  V30 3533 C 349.742 -1.86192 -1.42723 0
M  V30 3534 C 350.758 -0.753382 -1.56844 0
M  V30 3535 O 351.934 -1.04718 -1.72035 0
M  V30 3536 C 348.999 -2.07824 -2.77507 0
M  V30 3537 C 348.06 -3.31641 -2.72603 0
M  V30 3538 C 347.293 -3.52232 -4.00959 0
M  V30 3539 O 347.516 -2.7636 -4.9898 0
M  V30 3540 O 346.45 -4.45699 -4.0452 0
M  V30 3541 H 350.276 -2.79608 -1.18547 0
M  V30 3542 H 347.861 -1.3998 -0.522104 0
M  V30 3543 H 349.743 -2.23411 -3.57303 0
M  V30 3544 H 348.418 -1.17596 -3.01584 0
M  V30 3545 H 347.325 -3.21444 -1.91376 0
M  V30 3546 H 348.658 -4.2191 -2.53481 0
M  V30 3547 N 350.31 0.590341 -1.46126 0
M  V30 3548 C 351.24 1.71032 -1.58966 0
M  V30 3549 C 352.221 1.64302 -0.440335 0
M  V30 3550 O 353.406 1.82436 -0.665634 0
M  V30 3551 C 350.536 3.09665 -1.57241 0
M  V30 3552 C 349.49 3.31221 -2.71066 0
M  V30 3553 C 348.816 4.70303 -2.54399 0
M  V30 3554 C 350.116 3.19796 -4.1295 0
M  V30 3555 H 351.81 1.60543 -2.52718 0
M  V30 3556 H 349.356 0.770933 -1.21625 0
M  V30 3557 H 351.309 3.87831 -1.64819 0
M  V30 3558 H 350.033 3.21036 -0.600289 0
M  V30 3559 H 348.692 2.55452 -2.62944 0
M  V30 3560 H 348.34 4.78429 -1.55288 0
M  V30 3561 H 348.04 4.85679 -3.30741 0
M  V30 3562 H 349.564 5.50647 -2.63857 0
M  V30 3563 H 350.978 3.87815 -4.22223 0
M  V30 3564 H 349.375 3.46696 -4.89818 0
M  V30 3565 H 350.445 2.16983 -4.33643 0
M  V30 3566 N 351.788 1.33704 0.83433 0
M  V30 3567 C 352.718 1.26967 1.95963 0
M  V30 3568 C 353.699 0.149337 1.69443 0
M  V30 3569 O 354.884 0.339852 1.91203 0
M  V30 3570 C 352.014 1.01275 3.32206 0
M  V30 3571 C 350.968 2.09652 3.73136 0
M  V30 3572 C 350.294 1.69166 5.07235 0
M  V30 3573 C 351.594 3.51372 3.86439 0
M  V30 3574 H 353.288 2.2112 2.01857 0
M  V30 3575 H 350.834 1.06447 0.969793 0
M  V30 3576 H 352.787 0.952106 4.10503 0
M  V30 3577 H 351.511 0.0356203 3.26581 0
M  V30 3578 H 350.17 2.14766 2.97104 0
M  V30 3579 H 349.818 0.701437 4.98085 0
M  V30 3580 H 349.518 2.41694 5.35591 0
M  V30 3581 H 351.042 1.64576 5.88003 0
M  V30 3582 H 352.456 3.48734 4.55036 0
M  V30 3583 H 350.853 4.22425 4.26236 0
M  V30 3584 H 351.923 3.89546 2.88759 0
M  V30 3585 N 353.266 -1.05314 1.17247 0
M  V30 3586 C 354.514 -1.77941 0.958194 0
M  V30 3587 C 354.835 -1.88089 -0.514556 0
M  V30 3588 O 354.105 -1.39676 -1.37359 0
M  V30 3589 H 352.685 -0.659116 0.351533 0
M  V30 3590 H 355.347 -1.27166 1.47699 0
M  V30 3591 H 354.443 -2.79663 1.38546 0
M  V30 3592 N 354.744 -0.972509 -1.24016 0
M  V30 3593 C 355.992 -0.635776 -1.91839 0
M  V30 3594 C 356.313 0.832312 -1.76345 0
M  V30 3595 O 355.583 1.5946 -1.13795 0
M  V30 3596 H 354.163 -0.232157 -0.710009 0
M  V30 3597 H 356.825 -1.23462 -1.50809 0
M  V30 3598 H 355.921 -0.880545 -2.99421 0
M  V30 3599 N 356.222 1.38976 -0.743202 0
M  V30 3600 C 357.633 1.83123 -0.363732 0
M  V30 3601 C 357.984 1.6205 1.10609 0
M  V30 3602 O 357.109 1.11606 1.854 0
M  V30 3603 C 357.704 3.32439 -0.653408 0
M  V30 3604 C 356.263 3.74974 -0.327338 0
M  V30 3605 C 355.41 2.61878 -0.911875 0
M  V30 3606 H 358.361 1.27852 -0.940191 0
M  V30 3607 H 358.382 3.80432 0.0720031 0
M  V30 3608 H 357.894 3.47745 -1.72323 0
M  V30 3609 H 355.995 3.65252 0.736314 0
M  V30 3610 H 356.108 4.72106 -0.815631 0
M  V30 3611 H 354.472 2.52448 -0.337944 0
M  V30 3612 H 355.255 2.79987 -1.98651 0
M  V30 3613 N 357.7 0.491464 1.49741 0
M  V30 3614 C 358.925 -0.0557177 2.07325 0
M  V30 3615 C 359.35 -1.30925 1.35056 0
M  V30 3616 O 358.708 -1.76733 0.404365 0
M  V30 3617 C 358.756 -0.302074 3.59333 0
M  V30 3618 O 357.86 -1.37868 3.88672 0
M  V30 3619 H 357.201 0.0219956 0.663636 0
M  V30 3620 H 359.731 0.688352 1.92673 0
M  V30 3621 H 359.741 -0.536464 4.04458 0
M  V30 3622 H 358.416 0.61383 4.11345 0
M  V30 3623 H 356.993 -1.12999 3.55367 0
M  V30 3624 N 359.178 -1.55987 0.224894 0
M  V30 3625 C 360.424 -1.98684 -0.406502 0
M  V30 3626 C 360.757 -1.11248 -1.59177 0
M  V30 3627 O 360.032 -0.170909 -1.93748 0
M  V30 3628 C 360.315 -3.50218 -0.837808 0
M  V30 3629 C 360.168 -4.48426 0.351332 0
M  V30 3630 C 361.487 -4.06243 -1.69278 0
M  V30 3631 H 358.606 -0.722337 -0.146283 0
M  V30 3632 H 361.248 -1.87255 0.321799 0
M  V30 3633 H 359.398 -3.60089 -1.45837 0
M  V30 3634 H 361.07 -4.50562 0.989526 0
M  V30 3635 H 359.313 -4.22159 0.998207 0
M  V30 3636 H 359.984 -5.52 0.00655905 0
M  V30 3637 H 362.46 -3.99337 -1.16914 0
M  V30 3638 H 361.336 -5.12581 -1.96346 0
M  V30 3639 H 361.597 -3.53332 -2.65723 0
M  V30 3640 N 360.656 0.0484629 -1.57525 0
M  V30 3641 C 361.903 0.743125 -1.88372 0
M  V30 3642 C 362.231 1.76383 -0.819715 0
M  V30 3643 O 361.486 1.94855 0.181659 0
M  V30 3644 C 361.785 1.46632 -3.25935 0
M  V30 3645 C 361.451 0.583427 -4.4711 0
M  V30 3646 C 360.113 0.340191 -4.79996 0
M  V30 3647 C 362.465 -0.0273345 -5.21193 0
M  V30 3648 C 359.793 -0.522903 -5.84365 0
M  V30 3649 C 362.145 -0.878017 -6.26477 0
M  V30 3650 C 360.809 -1.1309 -6.5785 0
M  V30 3651 H 360.079 0.271929 -0.689301 0
M  V30 3652 H 362.726 0.00336166 -1.915 0
M  V30 3653 H 361.031 2.2789 -3.18706 0
M  V30 3654 H 362.728 2.00902 -3.47044 0
M  V30 3655 H 359.318 0.783151 -4.21384 0
M  V30 3656 H 363.502 0.147654 -4.9608 0
M  V30 3657 H 358.758 -0.727335 -6.07058 0
M  V30 3658 H 362.932 -1.35789 -6.83033 0
M  V30 3659 H 360.559 -1.80144 -7.38547 0
M  V30 3660 N 362.134 1.5431 0.320358 0
M  V30 3661 C 363.064 1.86912 1.3995 0
M  V30 3662 C 364.045 0.726211 1.53819 0
M  V30 3663 O 365.23 0.980233 1.67646 0
M  V30 3664 C 362.36 2.09932 2.7667 0
M  V30 3665 C 361.314 3.25776 2.77586 0
M  V30 3666 C 360.64 3.34173 4.17412 0
M  V30 3667 C 361.94 4.6335 2.41048 0
M  V30 3668 H 363.634 2.77292 1.12914 0
M  V30 3669 H 361.18 1.33421 0.541738 0
M  V30 3670 H 363.133 2.31324 3.52232 0
M  V30 3671 H 361.857 1.16304 3.0519 0
M  V30 3672 H 360.516 3.04276 2.04479 0
M  V30 3673 H 360.164 2.38098 4.43078 0
M  V30 3674 H 359.864 4.12033 4.18931 0
M  V30 3675 H 361.388 3.57803 4.94782 0
M  V30 3676 H 362.802 4.84602 3.06324 0
M  V30 3677 H 361.199 5.43782 2.53813 0
M  V30 3678 H 362.269 4.65381 1.36193 0
M  V30 3679 N 363.613 -0.582584 1.46437 0
M  V30 3680 C 364.86 -1.34079 1.51753 0
M  V30 3681 C 365.188 -1.93762 0.169299 0
M  V30 3682 O 364.443 -1.76989 -0.835062 0
M  V30 3683 C 364.742 -2.48964 2.56421 0
M  V30 3684 C 364.408 -2.07273 4.00436 0
M  V30 3685 C 363.07 -1.95618 4.39644 0
M  V30 3686 C 365.422 -1.75111 4.90903 0
M  V30 3687 C 362.75 -1.5006 5.67185 0
M  V30 3688 C 365.102 -1.31032 6.18881 0
M  V30 3689 C 363.766 -1.17954 6.56996 0
M  V30 3690 H 363.036 -0.49063 0.555304 0
M  V30 3691 H 365.683 -0.656007 1.79913 0
M  V30 3692 H 363.988 -3.22889 2.21923 0
M  V30 3693 H 365.685 -3.07178 2.57765 0
M  V30 3694 H 362.275 -2.17279 3.69443 0
M  V30 3695 H 366.459 -1.83001 4.61329 0
M  V30 3696 H 361.715 -1.38577 5.95488 0
M  V30 3697 H 365.889 -1.052 6.88408 0
M  V30 3698 H 363.516 -0.824279 7.55718 0
M  V30 3699 N 365.091 -1.34144 -0.827227 0
M  V30 3700 C 366.502 -1.23557 -1.39966 0
M  V30 3701 C 366.853 0.140731 -1.95695 0
M  V30 3702 O 365.978 1.04087 -1.89723 0
M  V30 3703 C 366.573 -2.23708 -2.54441 0
M  V30 3704 C 365.132 -2.16924 -3.07605 0
M  V30 3705 C 364.279 -2.10549 -1.80456 0
M  V30 3706 H 367.23 -1.45573 -0.631991 0
M  V30 3707 H 367.251 -1.85157 -3.32411 0
M  V30 3708 H 366.763 -3.23866 -2.13851 0
M  V30 3709 H 364.864 -1.20107 -3.52711 0
M  V30 3710 H 364.977 -3.07988 -3.66988 0
M  V30 3711 H 363.341 -1.56203 -2.01178 0
M  V30 3712 H 364.124 -3.12535 -1.42046 0
M  V30 3713 N 366.569 1.04691 -1.17803 0
M  V30 3714 C 367.98 1.59238 -0.974689 0
M  V30 3715 C 368.331 1.90306 0.477292 0
M  V30 3716 O 367.456 1.68846 1.35352 0
M  V30 3717 C 368.051 2.89318 -1.76296 0
M  V30 3718 C 366.61 3.40506 -1.60414 0
M  V30 3719 C 365.757 2.14172 -1.76141 0
M  V30 3720 H 368.708 0.874395 -1.32439 0
M  V30 3721 H 368.729 3.5944 -1.24833 0
M  V30 3722 H 368.241 2.66675 -2.81968 0
M  V30 3723 H 366.342 3.68175 -0.572519 0
M  V30 3724 H 366.455 4.14753 -2.39827 0
M  V30 3725 H 364.819 2.25176 -1.19028 0
M  V30 3726 H 365.602 1.93992 -2.83235 0
M  V30 3727 N 368.047 0.979072 1.23499 0
M  V30 3728 C 368.994 0.517904 2.24914 0
M  V30 3729 C 369.964 -0.442525 1.60097 0
M  V30 3730 O 371.149 -0.350365 1.87556 0
M  V30 3731 C 368.289 -0.174813 3.44657 0
M  V30 3732 C 367.402 0.825721 4.24035 0
M  V30 3733 C 366.537 0.107946 5.3109 0
M  V30 3734 C 365.576 1.09778 6.02175 0
M  V30 3735 N 364.713 0.40925 7.00906 0
M  V30 3736 H 369.553 1.38751 2.63727 0
M  V30 3737 H 367.09 0.695303 1.2963 0
M  V30 3738 H 369.048 -0.593233 4.12961 0
M  V30 3739 H 367.678 -1.0083 3.06648 0
M  V30 3740 H 366.73 1.36253 3.55161 0
M  V30 3741 H 368.042 1.58005 4.73113 0
M  V30 3742 H 367.196 -0.367904 6.05583 0
M  V30 3743 H 365.935 -0.678994 4.8295 0
M  V30 3744 H 364.94 1.5844 5.26476 0
M  V30 3745 H 366.165 1.88536 6.52404 0
M  V30 3746 H 364.111 -0.358506 6.5502 0
M  V30 3747 H 364.028 1.10226 7.47921 0
M  V30 3748 H 365.296 -0.0442557 7.79487 0
M  V30 3749 N 369.525 -1.3858 0.750561 0
M  V30 3750 C 370.936 -1.82927 0.373438 0
M  V30 3751 C 371.287 -1.62634 -1.09748 0
M  V30 3752 O 370.412 -1.12588 -1.84805 0
M  V30 3753 C 371.007 -3.32088 0.671029 0
M  V30 3754 C 369.566 -3.74795 0.34722 0
M  V30 3755 C 368.713 -2.61391 0.92575 0
M  V30 3756 H 371.664 -1.27351 0.946958 0
M  V30 3757 H 371.685 -3.80465 -0.0518269 0
M  V30 3758 H 371.197 -3.46826 1.74164 0
M  V30 3759 H 369.298 -3.65638 -0.716933 0
M  V30 3760 H 369.411 -4.71667 0.840656 0
M  V30 3761 H 367.775 -2.52265 0.351327 0
M  V30 3762 H 368.558 -2.78929 2.00133 0
M  V30 3763 N 371.003 -0.499398 -1.49478 0
M  V30 3764 C 371.95 0.279881 -2.29097 0
M  V30 3765 C 372.92 0.961805 -1.3542 0
M  V30 3766 O 374.105 0.968777 -1.64376 0
M  V30 3767 C 371.245 1.33932 -3.18051 0
M  V30 3768 C 370.358 0.669333 -4.26783 0
M  V30 3769 C 369.493 1.70907 -5.02955 0
M  V30 3770 C 368.532 1.02087 -6.03527 0
M  V30 3771 N 367.669 2.00474 -6.7287 0
M  V30 3772 H 372.509 -0.405317 -2.95231 0
M  V30 3773 H 370.046 -0.211726 -1.45568 0
M  V30 3774 H 372.004 1.96553 -3.67998 0
M  V30 3775 H 370.634 1.9933 -2.53904 0
M  V30 3776 H 369.686 -0.0701234 -3.80335 0
M  V30 3777 H 370.998 0.127503 -4.98637 0
M  V30 3778 H 370.152 2.41037 -5.56764 0
M  V30 3779 H 368.891 2.28476 -4.30871 0
M  V30 3780 H 367.896 0.305338 -5.48951 0
M  V30 3781 H 369.121 0.451708 -6.77596 0
M  V30 3782 H 367.067 2.57007 -6.03559 0
M  V30 3783 H 366.984 1.51353 -7.40694 0
M  V30 3784 H 368.252 2.69897 -7.31284 0
M  V30 3785 N 372.481 1.55866 -0.233164 0
M  V30 3786 C 373.758 1.90471 0.444988 0
M  V30 3787 C 374.138 1.15209 1.7689 0
M  V30 3788 O 373.486 0.265119 2.26957 0
M  V30 3789 C 373.696 3.4333 0.626559 0
M  V30 3790 C 375.044 4.14319 0.92871 0
M  V30 3791 O 376.068 3.48993 0.712926 0
M  V30 3792 O 374.927 5.29846 1.33887 0
M  V30 3793 H 372.021 0.792347 0.236885 0
M  V30 3794 H 374.567 1.67437 -0.276211 0
M  V30 3795 H 373.339 3.90095 -0.306822 0
M  V30 3796 H 372.962 3.72181 1.39881 0
M  V30 3797 N 373.959 -0.0401083 1.57549 0
M  V30 3798 C 375.187 -0.745196 1.93014 0
M  V30 3799 C 375.602 -1.6948 0.831984 0
M  V30 3800 O 374.959 -1.81482 -0.192463 0
M  V30 3801 C 375.01 -1.51176 3.28372 0
M  V30 3802 O 374.731 -0.600284 4.33968 0
M  V30 3803 C 376.232 -2.315 3.78051 0
M  V30 3804 H 373.452 -0.210088 0.637263 0
M  V30 3805 H 375.996 -0.000924689 2.045 0
M  V30 3806 H 374.151 -2.20801 3.18317 0
M  V30 3807 H 374.565 -1.13669 5.12035 0
M  V30 3808 H 376.039 -2.80697 4.75303 0
M  V30 3809 H 376.516 -3.12436 3.08675 0
M  V30 3810 H 377.122 -1.66971 3.91153 0
M  V30 3811 N 375.437 -1.54477 -0.31217 0
M  V30 3812 C 376.367 -1.87652 -1.38957 0
M  V30 3813 C 377.348 -0.734358 -1.53431 0
M  V30 3814 O 378.533 -0.98911 -1.67123 0
M  V30 3815 C 375.663 -2.11396 -2.75552 0
M  V30 3816 C 374.617 -3.27243 -2.75855 0
M  V30 3817 C 373.943 -3.36382 -4.15633 0
M  V30 3818 C 375.243 -4.64622 -2.38587 0
M  V30 3819 H 376.937 -2.77887 -1.11442 0
M  V30 3820 H 374.483 -1.33707 -0.534655 0
M  V30 3821 H 376.436 -2.33189 -3.51 0
M  V30 3822 H 375.16 -1.17921 -3.04569 0
M  V30 3823 H 373.819 -3.05356 -2.02863 0
M  V30 3824 H 373.467 -2.40445 -4.41809 0
M  V30 3825 H 373.167 -4.14249 -4.1674 0
M  V30 3826 H 374.691 -3.60422 -4.92877 0
M  V30 3827 H 376.105 -4.86219 -3.03749 0
M  V30 3828 H 374.502 -5.45121 -2.50925 0
M  V30 3829 H 375.572 -4.66097 -1.33723 0
M  V30 3830 N 376.915 0.57481 -1.46744 0
M  V30 3831 C 377.848 1.69827 -1.52427 0
M  V30 3832 C 378.826 1.58151 -0.377744 0
M  V30 3833 O 380.01 1.79257 -0.58303 0
M  V30 3834 C 377.137 3.07943 -1.41027 0
M  V30 3835 C 376.183 3.38116 -2.59961 0
M  V30 3836 S 377.016 3.29313 -4.22272 0
M  V30 3837 C 378.172 4.69953 -4.13394 0
M  V30 3838 H 378.405 1.64748 -2.47478 0
M  V30 3839 H 375.938 0.754203 -1.34726 0
M  V30 3840 H 377.896 3.87619 -1.35137 0
M  V30 3841 H 376.557 3.10504 -0.473909 0
M  V30 3842 H 375.75 4.38762 -2.47999 0
M  V30 3843 H 375.352 2.66024 -2.62882 0
M  V30 3844 H 377.644 5.60517 -3.80562 0
M  V30 3845 H 378.587 4.86972 -5.14066 0
M  V30 3846 H 378.995 4.47174 -3.44522 0
M  V30 3847 N 378.394 1.34581 0.820102 0
M  V30 3848 C 379.643 1.26437 1.57151 0
M  V30 3849 C 379.956 -0.163111 1.94919 0
M  V30 3850 O 381.162 -0.366722 2.69012 0
M  V30 3851 C 379.618 2.21658 2.83541 0
M  V30 3852 C 379.226 3.69679 2.53065 0
M  V30 3853 C 380.97 2.22428 3.61561 0
M  V30 3854 C 378.877 4.56761 3.75664 0
M  V30 3855 H 377.807 0.469707 0.589823 0
M  V30 3856 H 380.458 1.59763 0.902656 0
M  V30 3857 H 378.84 1.81287 3.52067 0
M  V30 3858 H 380.014 4.18605 1.92631 0
M  V30 3859 H 378.329 3.71384 1.88316 0
M  V30 3860 H 380.926 2.8471 4.52597 0
M  V30 3861 H 381.269 1.22434 3.97889 0
M  V30 3862 H 381.802 2.61259 2.99981 0
M  V30 3863 H 378.541 5.57702 3.44454 0
M  V30 3864 H 378.061 4.12568 4.35371 0
M  V30 3865 H 379.74 4.71509 4.43044 0
M  V30 3866 N 379.872 -1.04064 1.18357 0
M  V30 3867 C 381.097 -1.81454 1.00445 0
M  V30 3868 C 381.522 -1.82823 -0.442423 0
M  V30 3869 O 380.88 -1.24555 -1.31741 0
M  V30 3870 C 380.928 -3.24925 1.56384 0
M  V30 3871 O 380.032 -4.04856 0.785209 0
M  V30 3872 H 379.373 -0.560604 0.355835 0
M  V30 3873 H 381.903 -1.31059 1.57114 0
M  V30 3874 H 381.913 -3.75702 1.59097 0
M  V30 3875 H 380.588 -3.23244 2.61699 0
M  V30 3876 H 379.165 -3.63537 0.830399 0
M  V30 3877 N 381.35 -0.985608 -1.22978 0
M  V30 3878 C 382.766 -0.695104 -1.43668 0
M  V30 3879 C 382.966 0.736866 -1.87543 0
M  V30 3880 O 382.022 1.50868 -2.02473 0
M  V30 3881 C 383.335 -1.69447 -2.48412 0
M  V30 3882 C 384.883 -1.70909 -2.62219 0
M  V30 3883 C 385.358 -2.6969 -3.70178 0
M  V30 3884 N 386.849 -2.6824 -3.77626 0
M  V30 3885 C 387.584 -3.41339 -4.60733 0
M  V30 3886 N 387.08 -4.24015 -5.4789 0
M  V30 3887 N 388.873 -3.30079 -4.54977 0
M  V30 3888 H 381.024 -1.91054 -0.928016 0
M  V30 3889 H 383.287 -0.823553 -0.469536 0
M  V30 3890 H 382.993 -2.7188 -2.23102 0
M  V30 3891 H 382.867 -1.48147 -3.46889 0
M  V30 3892 H 385.254 -0.691785 -2.86877 0
M  V30 3893 H 385.335 -1.96276 -1.6404 0
M  V30 3894 H 384.979 -3.71566 -3.46268 0
M  V30 3895 H 384.909 -2.41595 -4.67909 0
M  V30 3896 H 387.4 -2.08243 -3.15346 0
M  V30 3897 H 387.713 -4.76636 -6.08308 0
M  V30 3898 H 386.058 -4.28104 -5.47496 0
M  V30 3899 H 389.249 -2.64937 -3.85909 0
M  V30 3900 H 389.422 -3.87308 -5.19516 0
M  V30 3901 N 382.828 1.3818 -0.7579 0
M  V30 3902 C 384.056 2.04301 -0.326937 0
M  V30 3903 C 384.471 1.57163 1.0462 0
M  V30 3904 O 383.828 0.746626 1.66529 0
M  V30 3905 C 383.879 3.59846 -0.345363 0
M  V30 3906 O 383.6 4.05256 -1.66432 0
M  V30 3907 C 385.101 4.4319 0.098927 0
M  V30 3908 H 382.321 0.656443 -0.139012 0
M  V30 3909 H 384.865 1.76786 -1.02796 0
M  V30 3910 H 383.02 3.86182 0.306955 0
M  V30 3911 H 383.434 4.99709 -1.59345 0
M  V30 3912 H 384.908 5.51989 0.0348745 0
M  V30 3913 H 385.385 4.23947 1.14741 0
M  V30 3914 H 385.991 4.22051 -0.52468 0
M  V30 3915 N 384.306 0.507319 1.49211 0
M  V30 3916 C 385.717 0.0611118 1.866 0
M  V30 3917 C 386.068 -1.35488 1.41907 0
M  V30 3918 O 385.193 -2.0108 0.799726 0
M  V30 3919 C 385.788 0.104125 3.3864 0
M  V30 3920 C 384.347 -0.28677 3.75306 0
M  V30 3921 C 383.494 0.473893 2.73221 0
M  V30 3922 H 386.445 0.719775 1.41439 0
M  V30 3923 H 386.466 -0.689672 3.74198 0
M  V30 3924 H 385.978 1.13482 3.71138 0
M  V30 3925 H 384.079 -1.32046 3.48417 0
M  V30 3926 H 384.192 0.0370745 4.79086 0
M  V30 3927 H 382.556 -0.0770644 2.54583 0
M  V30 3928 H 383.339 1.50478 3.08563 0
M  V30 3929 N 385.784 -1.5574 0.241426 0
M  V30 3930 C 386.694 -2.2479 -0.671305 0
M  V30 3931 C 387.71 -1.26217 -1.19772 0
M  V30 3932 O 388.886 -1.59079 -1.23514 0
M  V30 3933 C 385.951 -2.92966 -1.85396 0
M  V30 3934 C 385.012 -4.06935 -1.36756 0
M  V30 3935 C 384.245 -4.71851 -2.49384 0
M  V30 3936 O 384.468 -4.35823 -3.67987 0
M  V30 3937 O 383.402 -5.60467 -2.19454 0
M  V30 3938 H 387.228 -3.0349 -0.112966 0
M  V30 3939 H 384.813 -1.49397 0.0101513 0
M  V30 3940 H 386.695 -3.35927 -2.54423 0
M  V30 3941 H 385.37 -2.17211 -2.40002 0
M  V30 3942 H 384.277 -3.68503 -0.644726 0
M  V30 3943 H 385.61 -4.84492 -0.867647 0
M  V30 3944 N 387.262 0.0317525 -1.57568 0
M  V30 3945 C 388.508 0.724175 -1.8943 0
M  V30 3946 C 388.841 1.75149 -0.838836 0
M  V30 3947 O 388.116 1.93948 0.146422 0
M  V30 3948 C 388.399 1.39615 -3.31933 0
M  V30 3949 C 388.252 0.382537 -4.4817 0
M  V30 3950 C 389.571 2.33084 -3.73309 0
M  V30 3951 H 386.69 0.261797 -0.688935 0
M  V30 3952 H 389.332 -0.013017 -1.89996 0
M  V30 3953 H 387.482 2.02451 -3.31581 0
M  V30 3954 H 389.154 -0.243689 -4.60656 0
M  V30 3955 H 387.397 -0.29844 -4.32772 0
M  V30 3956 H 388.068 0.891145 -5.44759 0
M  V30 3957 H 390.544 1.80295 -3.7501 0
M  V30 3958 H 389.42 2.77084 -4.73831 0
M  V30 3959 H 389.681 3.19643 -3.05419 0
M  V30 3960 N 388.74 1.54641 0.303973 0
M  V30 3961 C 389.968 1.77768 1.05858 0
M  V30 3962 C 390.383 0.535722 1.8104 0
M  V30 3963 O 389.74 -0.494337 1.75677 0
M  V30 3964 C 389.791 2.9834 2.04146 0
M  V30 3965 O 389.512 4.17736 1.32015 0
M  V30 3966 C 391.013 3.33832 2.91669 0
M  V30 3967 H 388.233 0.592961 0.314067 0
M  V30 3968 H 390.777 2.01583 0.344149 0
M  V30 3969 H 388.932 2.76742 2.71096 0
M  V30 3970 H 389.346 4.85693 1.97998 0
M  V30 3971 H 390.82 4.21448 3.56491 0
M  V30 3972 H 391.297 2.51857 3.59812 0
M  V30 3973 H 391.903 3.57579 2.30254 0
M  V30 3974 N 390.218 -0.567019 1.47046 0
M  V30 3975 C 391.458 -1.3355 1.54738 0
M  V30 3976 C 391.822 -1.90947 0.200772 0
M  V30 3977 O 393.023 -2.68367 0.152489 0
M  V30 3978 C 391.294 -2.42317 2.62712 0
M  V30 3979 S 392.853 -3.29383 2.89918 0
M  V30 3980 H 389.671 -0.454788 0.546525 0
M  V30 3981 H 392.273 -0.650191 1.84371 0
M  V30 3982 H 390.977 -1.98568 3.59164 0
M  V30 3983 H 390.508 -3.15601 2.34861 0
M  V30 3984 H 392.523 -4.41548 2.26384 0
M  V30 3985 N 391.696 -1.35014 -0.812953 0
M  V30 3986 C 392.942 -1.2812 -1.57204 0
M  V30 3987 C 393.275 0.145869 -1.93651 0
M  V30 3988 O 392.55 1.0937 -1.60836 0
M  V30 3989 C 392.833 -2.18162 -2.86492 0
M  V30 3990 C 392.686 -3.69454 -2.56561 0
M  V30 3991 C 394.005 -2.07439 -3.88145 0
M  V30 3992 H 391.124 -0.466746 -0.570366 0
M  V30 3993 H 393.766 -1.65357 -0.935783 0
M  V30 3994 H 391.916 -1.86535 -3.40789 0
M  V30 3995 H 393.588 -4.11493 -2.08497 0
M  V30 3996 H 391.831 -3.9005 -1.89851 0
M  V30 3997 H 392.502 -4.27835 -3.48799 0
M  V30 3998 H 394.978 -2.35228 -3.4323 0
M  V30 3999 H 393.854 -2.7265 -4.76396 0
M  V30 4000 H 394.115 -1.05439 -4.29343 0
M  V30 4001 N 393.175 1.03435 -1.18907 0
M  V30 4002 C 394.421 1.77005 -0.989798 0
M  V30 4003 C 394.754 1.88205 0.478816 0
M  V30 4004 O 394.029 1.39481 1.35556 0
M  V30 4005 C 394.312 3.19925 -1.65287 0
M  V30 4006 C 394.165 3.1663 -3.19477 0
M  V30 4007 C 395.484 4.18189 -1.37134 0
M  V30 4008 H 392.603 0.642538 -0.360991 0
M  V30 4009 H 395.245 1.20784 -1.46667 0
M  V30 4010 H 393.395 3.67929 -1.24741 0
M  V30 4011 H 395.067 2.76567 -3.692 0
M  V30 4012 H 393.31 2.54491 -3.51307 0
M  V30 4013 H 393.981 4.1758 -3.61013 0
M  V30 4014 H 396.457 3.78761 -1.72276 0
M  V30 4015 H 395.333 5.16394 -1.86087 0
M  V30 4016 H 395.594 4.41112 -0.295424 0
M  V30 4017 N 394.653 0.992116 1.22453 0
M  V30 4018 C 395.899 0.668523 1.91464 0
M  V30 4019 C 396.232 -0.797313 1.77078 0
M  V30 4020 O 395.507 -1.5765 1.13916 0
M  V30 4021 C 395.79 1.07424 3.43703 0
M  V30 4022 C 395.643 2.59857 3.67143 0
M  V30 4023 C 396.962 0.626891 4.35612 0
M  V30 4024 H 394.081 0.244341 0.695318 0
M  V30 4025 H 396.723 1.2355 1.44345 0
M  V30 4026 H 394.873 0.591816 3.83966 0
M  V30 4027 H 396.545 3.15764 3.3629 0
M  V30 4028 H 394.788 3.01961 3.11451 0
M  V30 4029 H 395.459 2.83296 4.73759 0
M  V30 4030 H 397.935 1.04125 4.02861 0
M  V30 4031 H 396.811 0.939076 5.40807 0
M  V30 4032 H 397.072 -0.472457 4.39568 0
M  V30 4033 N 396.131 -1.37776 0.765217 0
M  V30 4034 C 397.408 -1.93975 0.251596 0
M  V30 4035 C 397.788 -1.69949 -1.25222 0
M  V30 4036 O 397.136 -1.04457 -2.03226 0
M  V30 4037 C 397.346 -3.43487 0.617895 0
M  V30 4038 C 398.694 -4.20564 0.584029 0
M  V30 4039 O 399.718 -3.5182 0.556888 0
M  V30 4040 O 398.577 -5.43138 0.605291 0
M  V30 4041 H 395.671 -0.82509 0.0561806 0
M  V30 4042 H 398.217 -1.47101 0.846128 0
M  V30 4043 H 396.989 -3.5453 1.65602 0
M  V30 4044 H 396.612 -3.976 -0.00403411 0
M  V30 4045 N 397.609 -0.515225 -1.4894 0
M  V30 4046 C 398.855 0.0242508 -2.02785 0
M  V30 4047 C 399.188 1.35323 -1.39289 0
M  V30 4048 O 398.463 1.87041 -0.533469 0
M  V30 4049 C 398.746 0.16184 -3.59736 0
M  V30 4050 C 398.599 -1.19127 -4.33738 0
M  V30 4051 C 399.918 0.895719 -4.30888 0
M  V30 4052 H 397.037 0.00733914 -0.736963 0
M  V30 4053 H 399.679 -0.669395 -1.77818 0
M  V30 4054 H 397.829 0.752624 -3.8114 0
M  V30 4055 H 399.501 -1.82202 -4.23792 0
M  V30 4056 H 397.744 -1.77695 -3.95736 0
M  V30 4057 H 398.415 -1.04815 -5.41957 0
M  V30 4058 H 400.891 0.394528 -4.14225 0
M  V30 4059 H 399.767 0.960859 -5.40425 0
M  V30 4060 H 400.028 1.9427 -3.97129 0
M  V30 4061 N 399.087 1.5561 -0.249682 0
M  V30 4062 C 400.312 2.03865 0.381305 0
M  V30 4063 C 400.737 1.12769 1.50548 0
M  V30 4064 O 400.095 0.121189 1.80895 0
M  V30 4065 C 400.143 3.50101 0.863816 0
M  V30 4066 O 399.247 3.62132 1.97318 0
M  V30 4067 H 398.588 0.658827 0.0827194 0
M  V30 4068 H 401.118 2.01105 -0.376552 0
M  V30 4069 H 401.128 3.90975 1.1663 0
M  V30 4070 H 399.803 4.1588 0.0411816 0
M  V30 4071 H 398.38 3.33155 1.67517 0
M  V30 4072 N 400.565 -0.0233959 1.57583 0
M  V30 4073 C 401.515 -1.03023 2.03397 0
M  V30 4074 C 402.499 -1.31701 0.924315 0
M  V30 4075 O 403.691 -1.31191 1.18819 0
M  V30 4076 C 400.82 -2.32961 2.52159 0
M  V30 4077 C 399.906 -2.07349 3.69956 0
M  V30 4078 N 400.297 -1.51814 4.82479 0
M  V30 4079 C 398.595 -2.37606 3.77438 0
M  V30 4080 C 399.296 -1.42136 5.64068 0
M  V30 4081 N 398.272 -1.89891 5.09355 0
M  V30 4082 H 402.074 -0.594962 2.87815 0
M  V30 4083 H 399.588 -0.229586 1.60769 0
M  V30 4084 H 401.585 -3.05906 2.83244 0
M  V30 4085 H 400.245 -2.77162 1.69149 0
M  V30 4086 H 401.256 -1.20008 5.03804 0
M  V30 4087 H 397.933 -2.84842 3.05239 0
M  V30 4088 H 399.323 -0.996405 6.64471 0
M  V30 4089 N 402.043 -1.548 -0.295768 0
M  V30 4090 C 402.953 -1.89177 -1.38742 0
M  V30 4091 C 403.969 -0.786481 -1.55211 0
M  V30 4092 O 405.145 -1.08344 -1.69775 0
M  V30 4093 C 402.21 -2.13663 -2.73036 0
M  V30 4094 C 401.271 -3.37349 -2.65508 0
M  V30 4095 C 400.504 -3.60658 -3.93398 0
M  V30 4096 O 400.727 -2.86882 -4.93006 0
M  V30 4097 O 399.661 -4.54179 -3.94975 0
M  V30 4098 H 403.487 -2.82059 -1.12589 0
M  V30 4099 H 401.072 -1.41056 -0.492295 0
M  V30 4100 H 402.954 -2.3094 -3.52484 0
M  V30 4101 H 401.629 -1.23967 -2.99022 0
M  V30 4102 H 400.536 -3.25431 -1.84514 0
M  V30 4103 H 401.869 -4.27192 -2.44474 0
M  V30 4104 N 403.521 0.559213 -1.47345 0
M  V30 4105 C 404.798 1.31997 -1.44348 0
M  V30 4106 C 405.178 2.1064 -0.139358 0
M  V30 4107 O 404.526 2.1091 0.879153 0
M  V30 4108 C 404.736 2.22618 -2.68779 0
M  V30 4109 C 406.084 2.83701 -3.1591 0
M  V30 4110 O 407.108 2.32921 -2.69493 0
M  V30 4111 O 405.967 3.75993 -3.966 0
M  V30 4112 H 403.061 0.594251 -0.575147 0
M  V30 4113 H 405.607 0.578282 -1.59543 0
M  V30 4114 H 404.379 1.64093 -3.55231 0
M  V30 4115 H 404.002 3.04085 -2.5616 0
M  V30 4116 N 404.999 1.35443 0.805782 0
M  V30 4117 C 406.41 1.25768 1.37983 0
M  V30 4118 C 406.761 -0.10958 1.95894 0
M  V30 4119 O 405.886 -1.01056 1.91355 0
M  V30 4120 C 406.481 2.27727 2.5085 0
M  V30 4121 C 405.04 2.2179 3.04115 0
M  V30 4122 C 404.187 2.13393 1.77084 0
M  V30 4123 H 407.138 1.4656 0.608752 0
M  V30 4124 H 407.159 1.90422 3.29424 0
M  V30 4125 H 406.671 3.27227 2.08671 0
M  V30 4126 H 404.772 1.25703 3.50756 0
M  V30 4127 H 404.885 3.13788 3.62042 0
M  V30 4128 H 403.249 1.59384 1.98668 0
M  V30 4129 H 404.032 3.14755 1.37056 0
M  V30 4130 N 406.477 -1.02803 1.19454 0
M  V30 4131 C 407.387 -2.14575 0.948408 0
M  V30 4132 C 408.403 -1.73757 -0.091871 0
M  V30 4133 O 409.579 -2.01185 0.0929654 0
M  V30 4134 C 406.644 -3.43202 0.491265 0
M  V30 4135 C 405.705 -3.98328 1.60103 0
M  V30 4136 C 404.938 -5.20816 1.16561 0
M  V30 4137 O 405.161 -5.70392 0.0295238 0
M  V30 4138 O 404.095 -5.68801 1.96849 0
M  V30 4139 H 407.921 -2.38202 1.88397 0
M  V30 4140 H 405.506 -1.12989 0.977433 0
M  V30 4141 H 407.388 -4.20687 0.245015 0
M  V30 4142 H 406.063 -3.21018 -0.415851 0
M  V30 4143 H 404.97 -3.22174 1.90144 0
M  V30 4144 H 406.303 -4.24879 2.48473 0
M  V30 4145 N 407.956 -0.998596 -1.21925 0
M  V30 4146 C 409.202 -0.678667 -1.91107 0
M  V30 4147 C 409.535 0.78791 -1.77498 0
M  V30 4148 O 408.81 1.57043 -1.1475 0
M  V30 4149 C 409.093 -1.09245 -3.43129 0
M  V30 4150 C 408.946 -2.61801 -3.6576 0
M  V30 4151 C 410.265 -0.649984 -4.35274 0
M  V30 4152 H 407.384 -0.248025 -0.694012 0
M  V30 4153 H 410.026 -1.24314 -1.43688 0
M  V30 4154 H 408.176 -0.612171 -3.83647 0
M  V30 4155 H 409.848 -3.17543 -3.34611 0
M  V30 4156 H 408.091 -3.03609 -3.09845 0
M  V30 4157 H 408.762 -2.85804 -4.7225 0
M  V30 4158 H 411.238 -1.0626 -4.02303 0
M  V30 4159 H 410.114 -0.967743 -5.40302 0
M  V30 4160 H 410.375 0.449139 -4.39813 0
M  V30 4161 N 409.434 1.37368 -0.772513 0
M  V30 4162 C 410.381 2.30262 -0.157488 0
M  V30 4163 C 411.351 1.51137 0.688965 0
M  V30 4164 O 412.536 1.79704 0.641168 0
M  V30 4165 C 409.676 3.37611 0.715045 0
M  V30 4166 C 408.789 4.31746 -0.148098 0
M  V30 4167 C 407.924 5.26171 0.729213 0
M  V30 4168 C 406.963 6.11948 -0.136418 0
M  V30 4169 N 406.1 6.98613 0.698914 0
M  V30 4170 H 410.94 2.82277 -0.955179 0
M  V30 4171 H 408.477 1.38957 -0.482631 0
M  V30 4172 H 410.435 3.98479 1.23575 0
M  V30 4173 H 409.065 2.86959 1.47833 0
M  V30 4174 H 408.117 3.72178 -0.786613 0
M  V30 4175 H 409.429 4.92084 -0.81579 0
M  V30 4176 H 408.583 5.92247 1.31637 0
M  V30 4177 H 407.322 4.66246 1.43059 0
M  V30 4178 H 406.327 5.4485 -0.736102 0
M  V30 4179 H 407.552 6.73945 -0.835134 0
M  V30 4180 H 405.498 6.41215 1.38489 0
M  V30 4181 H 405.415 7.55948 0.0885358 0
M  V30 4182 H 406.683 7.69077 1.27044 0
M  V30 4183 N 410.912 0.523116 1.48665 0
M  V30 4184 C 412.159 -0.0134763 2.02496 0
M  V30 4185 C 412.487 -1.3493 1.40086 0
M  V30 4186 O 411.742 -1.88286 0.533567 0
M  V30 4187 C 412.041 -0.191671 3.56886 0
M  V30 4188 C 411.707 1.06893 4.38046 0
M  V30 4189 C 410.369 1.41443 4.59943 0
M  V30 4190 C 412.721 1.90584 4.85106 0
M  V30 4191 C 410.049 2.59594 5.26144 0
M  V30 4192 C 412.401 3.07907 5.52609 0
M  V30 4193 C 411.065 3.42811 5.72745 0
M  V30 4194 H 410.335 -0.00493133 0.740984 0
M  V30 4195 H 412.982 0.687751 1.78724 0
M  V30 4196 H 411.287 -0.97561 3.79459 0
M  V30 4197 H 412.984 -0.621659 3.96152 0
M  V30 4198 H 409.574 0.789848 4.21259 0
M  V30 4199 H 413.758 1.65203 4.67997 0
M  V30 4200 H 409.014 2.86847 5.39934 0
M  V30 4201 H 413.188 3.73066 5.88043 0
M  V30 4202 H 410.815 4.34462 6.23816 0
M  V30 4203 N 412.39 -1.55475 0.257931 0
M  V30 4204 C 413.338 -2.23244 -0.653076 0
M  V30 4205 C 414.332 -1.22366 -1.17144 0
M  V30 4206 O 415.538 -1.40347 -1.12706 0
M  V30 4207 H 411.913 -0.716247 -0.229117 0
M  V30 4208 H 413.884 -2.98343 -0.0584788 0
M  V30 4209 C 412.633 -2.95401 -1.83395 0
M  V30 4210 H 411.956 -3.72802 -1.44424 0
M  V30 4211 H 413.396 -3.46165 -2.44838 0
M  V30 4212 C 411.855 -1.99895 -2.71189 0
M  V30 4213 O 412.385 -1.53909 -3.71046 0
M  V30 4214 N 410.591 -1.6676 -2.3799 0
M  V30 4215 H 410.138 -2.04352 -1.56837 0
M  V30 4216 H 410.096 -1.03127 -2.97005 0
M  V30 4217 N 413.868 0.0150385 -1.57593 0
M  V30 4218 C 415.114 0.69849 -1.91031 0
M  V30 4219 C 415.469 1.72208 -0.85804 0
M  V30 4220 O 414.762 1.91147 0.131614 0
M  V30 4221 C 414.956 1.39686 -3.28972 0
M  V30 4222 C 414.785 0.442428 -4.47518 0
M  V30 4223 C 413.555 0.0583223 -5.05266 0
M  V30 4224 C 415.753 -0.285072 -5.13509 0
M  V30 4225 N 413.735 -0.895893 -6.07328 0
M  V30 4226 C 415.106 -1.09447 -6.10263 0
M  V30 4227 C 417.161 -0.350518 -4.96665 0
M  V30 4228 C 415.864 -1.96333 -6.91987 0
M  V30 4229 C 417.89 -1.20655 -5.78962 0
M  V30 4230 C 417.252 -2.00383 -6.75297 0
M  V30 4231 H 413.351 0.22926 -0.747639 0
M  V30 4232 H 415.935 -0.0417748 -1.94655 0
M  V30 4233 H 414.106 2.1075 -3.2625 0
M  V30 4234 H 415.838 2.03381 -3.49883 0
M  V30 4235 H 412.593 0.423506 -4.71703 0
M  V30 4236 H 413.017 -1.36792 -6.63036 0
M  V30 4237 H 417.659 0.251596 -4.22051 0
M  V30 4238 H 415.377 -2.57618 -7.65936 0
M  V30 4239 H 418.963 -1.2609 -5.67972 0
M  V30 4240 H 417.843 -2.65552 -7.3787 0
M  V30 4241 N 415.346 1.54954 0.287554 0
M  V30 4242 C 416.576 1.78622 1.03816 0
M  V30 4243 C 416.984 0.552451 1.80955 0
M  V30 4244 O 416.327 -0.487665 1.77109 0
M  V30 4245 C 416.389 2.94975 2.055 0
M  V30 4246 C 416.053 4.32565 1.47433 0
M  V30 4247 C 417.05 5.12096 0.897436 0
M  V30 4248 C 414.735 4.79195 1.50591 0
M  V30 4249 C 416.729 6.36383 0.359851 0
M  V30 4250 C 414.416 6.03441 0.964459 0
M  V30 4251 C 415.414 6.81872 0.392413 0
M  V30 4252 O 415.102 8.03777 -0.140788 0
M  V30 4253 H 414.834 0.599144 0.313053 0
M  V30 4254 H 417.388 2.02761 0.328225 0
M  V30 4255 H 415.618 2.66493 2.80211 0
M  V30 4256 H 417.307 3.06097 2.6657 0
M  V30 4257 H 418.073 4.77209 0.865841 0
M  V30 4258 H 413.952 4.18167 1.94055 0
M  V30 4259 H 417.496 6.97545 -0.0872951 0
M  V30 4260 H 413.393 6.37813 0.993246 0
M  V30 4261 H 414.161 8.18495 -0.0287617 0
M  V30 4262 N 416.824 -0.551391 1.4764 0
M  V30 4263 C 418.07 -1.31024 1.54792 0
M  V30 4264 C 418.403 -1.9304 0.211967 0
M  V30 4265 O 417.678 -1.78175 -0.77999 0
M  V30 4266 C 417.961 -2.41593 2.67029 0
M  V30 4267 C 417.814 -1.84408 4.10261 0
M  V30 4268 C 419.133 -3.43488 2.75143 0
M  V30 4269 H 416.252 -0.475031 0.563485 0
M  V30 4270 H 418.894 -0.616454 1.79722 0
M  V30 4271 H 417.044 -3.00772 2.45904 0
M  V30 4272 H 418.716 -1.29445 4.42766 0
M  V30 4273 H 416.959 -1.15051 4.18265 0
M  V30 4274 H 417.63 -2.64367 4.84576 0
M  V30 4275 H 420.106 -2.94236 2.94218 0
M  V30 4276 H 418.982 -4.18274 3.55441 0
M  V30 4277 H 419.243 -4.02703 1.82435 0
M  V30 4278 N 418.302 -1.35869 -0.798587 0
M  V30 4279 C 419.579 -1.20145 -1.54352 0
M  V30 4280 C 419.959 0.216161 -2.0999 0
M  V30 4281 O 419.307 1.22068 -1.93162 0
M  V30 4282 C 419.517 -2.27602 -2.64572 0
M  V30 4283 C 420.865 -2.63811 -3.32699 0
M  V30 4284 O 421.889 -2.26576 -2.74849 0
M  V30 4285 O 420.748 -3.27866 -4.37226 0
M  V30 4286 H 417.842 -0.467248 -0.682355 0
M  V30 4287 H 420.388 -1.47574 -0.837859 0
M  V30 4288 H 419.16 -3.2265 -2.21388 0
M  V30 4289 H 418.783 -2.01488 -3.42766 0
M  V30 4290 N 419.78 1.02168 -1.19998 0
M  V30 4291 C 421.028 1.75338 -1.00504 0
M  V30 4292 C 421.349 1.89387 0.464506 0
M  V30 4293 O 420.619 1.43268 1.33608 0
M  V30 4294 H 419.199 0.649564 -0.368885 0
M  V30 4295 H 421.861 1.23205 -1.51018 0
M  V30 4296 H 420.957 2.75892 -1.45912 0
M  V30 4297 N 421.258 1.00505 1.21394 0
M  V30 4298 C 422.504 0.688793 1.90745 0
M  V30 4299 C 422.837 -0.778486 1.77914 0
M  V30 4300 O 422.112 -1.56433 1.15581 0
M  V30 4301 C 422.395 1.11063 3.42545 0
M  V30 4302 C 422.248 2.63737 3.64367 0
M  V30 4303 C 423.567 0.673059 4.34923 0
M  V30 4304 H 420.686 0.251702 0.692687 0
M  V30 4305 H 423.328 1.25074 1.43026 0
M  V30 4306 H 421.478 0.632508 3.83317 0
M  V30 4307 H 423.15 3.19313 3.32922 0
M  V30 4308 H 421.393 3.05248 3.08231 0
M  V30 4309 H 422.064 2.88305 4.70727 0
M  V30 4310 H 424.54 1.08392 4.01734 0
M  V30 4311 H 423.416 0.996383 5.39781 0
M  V30 4312 H 423.677 -0.425808 4.40045 0
M  V30 4313 N 422.737 -1.36956 0.779787 0
M  V30 4314 C 423.647 -2.33965 0.172491 0
M  V30 4315 C 424.663 -1.60574 -0.670222 0
M  V30 4316 O 425.839 -1.92617 -0.588263 0
M  V30 4317 C 422.904 -3.39761 -0.690173 0
M  V30 4318 C 421.965 -4.28964 0.169924 0
M  V30 4319 C 421.198 -5.29707 -0.651662 0
M  V30 4320 O 421.421 -5.38238 -1.88827 0
M  V30 4321 O 420.355 -6.01873 -0.0566264 0
M  V30 4322 H 424.181 -2.87647 0.974321 0
M  V30 4323 H 421.766 -1.39258 0.541078 0
M  V30 4324 H 423.648 -4.04471 -1.1824 0
M  V30 4325 H 422.323 -2.88394 -1.47006 0
M  V30 4326 H 421.23 -3.67326 0.708696 0
M  V30 4327 H 422.563 -4.83656 0.913085 0
M  V30 4328 N 424.215 -0.530993 -1.48385 0
M  V30 4329 C 425.461 0.00274135 -2.028 0
M  V30 4330 C 425.794 1.33838 -1.40716 0
M  V30 4331 O 425.069 1.86465 -0.553277 0
M  V30 4332 C 425.352 0.123676 -3.59888 0
M  V30 4333 C 425.205 -1.2372 -4.3245 0
M  V30 4334 C 426.524 0.849967 -4.31814 0
M  V30 4335 H 423.643 -0.000477758 -0.737 0
M  V30 4336 H 426.285 -0.688217 -1.77098 0
M  V30 4337 H 424.435 0.712157 -3.81917 0
M  V30 4338 H 426.107 -1.86687 -4.21836 0
M  V30 4339 H 424.35 -1.81882 -3.93829 0
M  V30 4340 H 425.021 -1.10557 -5.40815 0
M  V30 4341 H 427.497 0.350572 -4.14621 0
M  V30 4342 H 426.373 0.903486 -5.41413 0
M  V30 4343 H 426.634 1.90047 -3.99167 0
M  V30 4344 N 425.693 1.55336 -0.266172 0
M  V30 4345 C 426.643 2.18848 0.639497 0
M  V30 4346 C 427.627 1.1503 1.12503 0
M  V30 4347 O 428.819 1.40875 1.0716 0
M  V30 4348 C 425.948 2.90626 1.82733 0
M  V30 4349 C 425.034 4.01723 1.35939 0
M  V30 4350 N 425.425 5.02145 0.606988 0
M  V30 4351 C 423.723 4.1463 1.6431 0
M  V30 4352 C 424.424 5.80572 0.362138 0
M  V30 4353 N 423.4 5.35551 0.931971 0
M  V30 4354 H 427.202 2.93845 0.0567057 0
M  V30 4355 H 424.716 1.62252 -0.0693312 0
M  V30 4356 H 426.713 3.34569 2.48735 0
M  V30 4357 H 425.373 2.17137 2.41416 0
M  V30 4358 H 426.384 5.17271 0.255198 0
M  V30 4359 H 423.061 3.52326 2.23993 0
M  V30 4360 H 424.451 6.71472 -0.239848 0
M  V30 4361 N 427.171 -0.0066808 1.57599 0
M  V30 4362 C 428.119 -1.01851 2.09115 0
M  V30 4363 C 429.113 -1.36021 1.00969 0
M  V30 4364 O 430.319 -1.34663 1.19439 0
M  V30 4365 H 426.694 -0.346083 0.667631 0
M  V30 4366 H 428.665 -0.558394 2.93129 0
M  V30 4367 C 427.414 -2.30374 2.60429 0
M  V30 4368 H 426.737 -2.04947 3.43273 0
M  V30 4369 H 428.177 -2.99466 3.00161 0
M  V30 4370 C 426.636 -3.00893 1.51542 0
M  V30 4371 O 427.166 -3.91614 0.894484 0
M  V30 4372 N 425.372 -2.62603 1.2445 0
M  V30 4373 H 424.919 -1.88911 1.75129 0
M  V30 4374 H 424.877 -3.10101 0.518137 0
M  V30 4375 N 428.649 -1.55105 -0.279332 0
M  V30 4376 C 429.612 -1.86783 -1.32834 0
M  V30 4377 C 430.612 -0.74199 -1.42657 0
M  V30 4378 O 431.802 -1.0102 -1.41918 0
M  V30 4379 C 428.934 -2.06746 -2.71052 0
M  V30 4380 H 430.127 -2.8055 -1.05979 0
M  V30 4381 H 427.68 -1.47499 -0.517087 0
M  V30 4382 H 428.415 -1.15339 -3.03097 0
M  V30 4383 H 428.2 -2.88711 -2.65309 0
M  V30 4384 H 429.69 -2.32549 -3.46858 0
M  V30 4385 N 430.127 0.543554 -1.4793 0
M  V30 4386 C 431.074 1.64942 -1.6144 0
M  V30 4387 C 432.044 1.59692 -0.456903 0
M  V30 4388 O 433.229 1.78321 -0.678688 0
M  V30 4389 C 430.369 3.03238 -1.64744 0
M  V30 4390 C 429.482 3.18823 -2.91506 0
M  V30 4391 C 428.617 4.47599 -2.86057 0
M  V30 4392 C 427.656 4.56664 -4.07584 0
M  V30 4393 N 426.793 5.76811 -4.00292 0
M  V30 4394 H 431.633 1.52733 -2.55884 0
M  V30 4395 H 429.17 0.7438 -1.2691 0
M  V30 4396 H 431.128 3.83339 -1.64641 0
M  V30 4397 H 429.758 3.1425 -0.738017 0
M  V30 4398 H 428.81 2.32064 -3.01414 0
M  V30 4399 H 430.122 3.21384 -3.81463 0
M  V30 4400 H 429.276 5.35975 -2.84281 0
M  V30 4401 H 428.015 4.47538 -1.93807 0
M  V30 4402 H 427.02 3.66697 -4.09651 0
M  V30 4403 H 428.245 4.58474 -5.00978 0
M  V30 4404 H 426.191 5.77673 -3.10853 0
M  V30 4405 H 426.108 5.80808 -4.8394 0
M  V30 4406 H 427.376 6.67512 -4.02553 0
M  V30 4407 N 431.605 1.3629 0.791371 0
M  V30 4408 C 432.833 1.33562 1.58016 0
M  V30 4409 C 433.248 -0.0835616 1.88615 0
M  V30 4410 O 432.605 -1.0399 1.49974 0
M  V30 4411 C 432.656 2.15517 2.90232 0
M  V30 4412 O 432.377 3.51902 2.60953 0
M  V30 4413 C 433.878 2.20546 3.84544 0
M  V30 4414 H 431.098 0.458226 0.490173 0
M  V30 4415 H 433.642 1.79361 0.982345 0
M  V30 4416 H 431.797 1.73278 3.46487 0
M  V30 4417 H 432.211 3.94644 3.4548 0
M  V30 4418 H 433.685 2.82252 4.74382 0
M  V30 4419 H 434.162 1.20838 4.2225 0
M  V30 4420 H 434.768 2.63013 3.34222 0
M  V30 4421 N 433.083 -1.0153 1.20538 0
M  V30 4422 C 434.03 -2.10098 0.955383 0
M  V30 4423 C 435 -1.65702 -0.114878 0
M  V30 4424 O 436.185 -1.90776 0.0301118 0
M  V30 4425 C 433.325 -3.41236 0.514969 0
M  V30 4426 C 432.438 -3.99102 1.65353 0
M  V30 4427 C 431.573 -5.18306 1.16329 0
M  V30 4428 C 430.612 -5.68258 2.27485 0
M  V30 4429 N 429.749 -6.78722 1.7967 0
M  V30 4430 H 434.589 -2.30818 1.88486 0
M  V30 4431 H 432.126 -1.13189 0.939499 0
M  V30 4432 H 434.084 -4.16504 0.240935 0
M  V30 4433 H 432.714 -3.20585 -0.377512 0
M  V30 4434 H 431.766 -3.20918 2.04245 0
M  V30 4435 H 433.078 -4.32177 2.49047 0
M  V30 4436 H 432.232 -6.00782 0.845302 0
M  V30 4437 H 430.971 -4.86799 0.296254 0
M  V30 4438 H 429.976 -4.84385 2.60099 0
M  V30 4439 H 431.201 -6.01798 3.14667 0
M  V30 4440 H 429.147 -6.49042 0.95295 0
M  V30 4441 H 429.064 -7.10996 2.56944 0
M  V30 4442 H 430.332 -7.64759 1.50875 0
M  V30 4443 N 434.561 -1.01147 -1.20859 0
M  V30 4444 C 435.972 -0.730205 -1.71828 0
M  V30 4445 C 436.323 0.751662 -1.8123 0
M  V30 4446 O 435.448 1.58686 -1.47132 0
M  V30 4447 C 436.043 -1.31885 -3.12077 0
M  V30 4448 C 434.602 -1.08656 -3.60376 0
M  V30 4449 C 433.749 -1.42769 -2.37723 0
M  V30 4450 H 436.7 -1.18158 -1.05945 0
M  V30 4451 H 436.721 -0.706793 -3.73878 0
M  V30 4452 H 436.233 -2.39737 -3.05201 0
M  V30 4453 H 434.334 -0.0254814 -3.72591 0
M  V30 4454 H 434.447 -1.76301 -4.45483 0
M  V30 4455 H 432.811 -0.846603 -2.40218 0
M  V30 4456 H 433.594 -2.51666 -2.33493 0
M  V30 4457 N 436.039 1.36541 -0.78704 0
M  V30 4458 C 437.455 1.52571 -0.46844 0
M  V30 4459 C 437.655 1.7415 1.01361 0
M  V30 4460 O 436.711 1.77163 1.79915 0
M  V30 4461 C 438.024 2.71299 -1.29682 0
M  V30 4462 C 439.572 2.85169 -1.29027 0
M  V30 4463 C 440.047 4.06898 -2.10233 0
M  V30 4464 N 441.538 4.1404 -2.07666 0
M  V30 4465 C 442.273 5.07301 -2.67271 0
M  V30 4466 N 441.769 6.06021 -3.35724 0
M  V30 4467 N 443.562 4.99898 -2.57018 0
M  V30 4468 H 435.713 1.20788 -1.74711 0
M  V30 4469 H 437.976 0.589364 -0.742532 0
M  V30 4470 H 437.682 2.61868 -2.34773 0
M  V30 4471 H 437.556 3.6539 -0.936479 0
M  V30 4472 H 439.943 2.94062 -0.247284 0
M  V30 4473 H 440.024 1.91992 -1.69035 0
M  V30 4474 H 439.668 3.98766 -3.1456 0
M  V30 4475 H 439.598 4.99218 -1.67597 0
M  V30 4476 H 442.089 3.43357 -1.57843 0
M  V30 4477 H 442.402 6.73741 -3.78541 0
M  V30 4478 H 440.747 6.06253 -3.39826 0
M  V30 4479 H 443.938 4.21724 -2.03142 0
M  V30 4480 H 444.111 5.72392 -3.03761 0
M  V30 4481 N 437.518 0.538854 1.48102 0
M  V30 4482 C 438.428 -0.222648 2.33541 0
M  V30 4483 C 439.444 -0.930225 1.47047 0
M  V30 4484 O 440.62 -0.903211 1.80011 0
M  V30 4485 C 437.685 -1.25064 3.23357 0
M  V30 4486 C 436.746 -0.552469 4.2573 0
M  V30 4487 C 435.979 -1.53149 5.11254 0
M  V30 4488 O 436.202 -2.76487 4.9891 0
M  V30 4489 O 435.136 -1.06602 5.92385 0
M  V30 4490 H 438.962 0.477707 2.99919 0
M  V30 4491 H 436.547 0.299669 1.46364 0
M  V30 4492 H 438.429 -1.8445 3.78888 0
M  V30 4493 H 437.104 -1.93325 2.59629 0
M  V30 4494 H 436.011 0.082114 3.7401 0
M  V30 4495 H 437.344 0.0883526 4.92121 0
M  V30 4496 N 438.996 -1.55193 0.274407 0
M  V30 4497 C 439.906 -2.26164 -0.623473 0
M  V30 4498 C 440.922 -1.28729 -1.17068 0
M  V30 4499 O 442.098 -1.61663 -1.20112 0
M  V30 4500 C 439.163 -2.96833 -1.7914 0
M  V30 4501 C 438.224 -4.09745 -1.28093 0
M  V30 4502 C 437.457 -4.77034 -2.3932 0
M  V30 4503 O 437.68 -4.4353 -3.5866 0
M  V30 4504 O 436.614 -5.64996 -2.07516 0
M  V30 4505 H 440.44 -3.03661 -0.0485661 0
M  V30 4506 H 438.025 -1.49341 0.0418382 0
M  V30 4507 H 439.907 -3.41248 -2.4724 0
M  V30 4508 H 438.582 -2.22253 -2.35341 0
M  V30 4509 H 437.489 -3.69787 -0.566416 0
M  V30 4510 H 438.822 -4.86224 -0.764683 0
M  V30 4511 N 440.474 -0.00167713 -1.576 0
M  V30 4512 C 441.406 1.0174 -2.05382 0
M  V30 4513 C 442.419 1.30595 -0.972052 0
M  V30 4514 O 443.608 1.27542 -1.24882 0
M  V30 4515 C 440.708 2.35174 -2.44022 0
M  V30 4516 C 439.881 2.25234 -3.74951 0
M  V30 4517 C 438.94 3.4137 -4.00441 0
M  V30 4518 O 437.966 3.19483 -4.71083 0
M  V30 4519 N 439.168 4.64275 -3.48467 0
M  V30 4520 H 441.933 0.609902 -2.93428 0
M  V30 4521 H 439.494 0.185672 -1.60832 0
M  V30 4522 H 441.486 3.11643 -2.58187 0
M  V30 4523 H 440.056 2.67659 -1.61485 0
M  V30 4524 H 439.276 1.33664 -3.70847 0
M  V30 4525 H 440.564 2.15767 -4.60784 0
M  V30 4526 H 439.962 4.84955 -2.91264 0
M  V30 4527 H 438.519 5.38005 -3.67959 0
M  V30 4528 N 441.952 1.55251 0.271103 0
M  V30 4529 C 443.182 1.79713 1.01916 0
M  V30 4530 C 443.59 0.571613 1.80359 0
M  V30 4531 O 442.933 -0.468853 1.77616 0
M  V30 4532 C 442.995 2.97138 2.02359 0
M  V30 4533 C 442.659 4.34104 1.42837 0
M  V30 4534 C 443.656 5.13019 0.843071 0
M  V30 4535 C 441.341 4.80765 1.455 0
M  V30 4536 C 443.335 6.36729 0.292333 0
M  V30 4537 C 441.022 6.0443 0.900402 0
M  V30 4538 C 442.02 6.8225 0.32007 0
M  V30 4539 O 441.708 8.03582 -0.226031 0
M  V30 4540 H 441.44 0.602431 0.306681 0
M  V30 4541 H 443.994 2.03097 0.306701 0
M  V30 4542 H 442.224 2.6945 2.77369 0
M  V30 4543 H 443.913 3.08907 2.63309 0
M  V30 4544 H 444.679 4.781 0.815178 0
M  V30 4545 H 440.558 4.20202 1.89609 0
M  V30 4546 H 444.102 6.97414 -0.161274 0
M  V30 4547 H 439.999 6.3883 0.925541 0
M  V30 4548 H 440.767 8.18418 -0.115572 0
M  V30 4549 N 443.43 -0.535701 1.48216 0
M  V30 4550 C 444.378 -1.66179 1.62749 0
M  V30 4551 C 445.372 -1.62034 0.49409 0
M  V30 4552 O 446.578 -1.6696 0.672624 0
M  V30 4553 H 442.953 -0.550244 0.512578 0
M  V30 4554 H 444.924 -1.51063 2.57337 0
M  V30 4555 C 443.673 -3.04471 1.67907 0
M  V30 4556 H 442.996 -3.08351 2.54479 0
M  V30 4557 H 444.436 -3.82894 1.82121 0
M  V30 4558 C 442.895 -3.34314 0.416596 0
M  V30 4559 O 443.425 -3.98905 -0.473014 0
M  V30 4560 N 441.631 -2.89149 0.290038 0
M  V30 4561 H 441.178 -2.36764 1.01493 0
M  V30 4562 H 441.136 -3.09486 -0.55367 0
M  V30 4563 N 444.908 -1.36708 -0.784132 0
M  V30 4564 C 446.133 -1.34565 -1.5782 0
M  V30 4565 C 446.558 0.0695257 -1.87971 0
M  V30 4566 O 445.916 1.04302 -1.48293 0
M  V30 4567 C 445.964 -2.17952 -2.87279 0
M  V30 4568 O 445.068 -1.57563 -3.81114 0
M  V30 4569 H 444.409 -0.460337 -0.478524 0
M  V30 4570 H 446.939 -1.80064 -0.971495 0
M  V30 4571 H 446.949 -2.30721 -3.365 0
M  V30 4572 H 445.624 -3.20823 -2.64661 0
M  V30 4573 H 444.201 -1.53764 -3.39722 0
M  V30 4574 N 446.386 1.0089 -1.21074 0
M  V30 4575 C 447.614 1.78191 -1.05145 0
M  V30 4576 C 448.029 1.84537 0.398952 0
M  V30 4577 O 447.386 1.30393 1.27687 0
M  V30 4578 C 447.437 3.22288 -1.63746 0
M  V30 4579 O 447.158 3.16315 -3.03111 0
M  V30 4580 C 448.659 4.16106 -1.52875 0
M  V30 4581 H 445.879 0.560129 -0.369454 0
M  V30 4582 H 448.423 1.26945 -1.60328 0
M  V30 4583 H 446.578 3.70655 -1.12664 0
M  V30 4584 H 446.992 4.06817 -3.31059 0
M  V30 4585 H 448.466 5.15026 -1.98626 0
M  V30 4586 H 448.943 4.36541 -0.482521 0
M  V30 4587 H 449.549 3.73625 -2.03185 0
M  V30 4588 N 447.864 1.01787 1.20321 0
M  V30 4589 C 449.094 0.72614 1.93419 0
M  V30 4590 C 449.502 -0.717317 1.75075 0
M  V30 4591 O 448.845 -1.49836 1.06278 0
M  V30 4592 C 448.907 0.983621 3.45782 0
M  V30 4593 C 448.571 2.41645 3.87888 0
M  V30 4594 C 449.568 3.39732 3.93545 0
M  V30 4595 C 447.253 2.75752 4.19841 0
M  V30 4596 C 449.247 4.69988 4.30569 0
M  V30 4597 C 446.934 4.06221 4.56539 0
M  V30 4598 C 447.932 5.0315 4.61876 0
M  V30 4599 O 447.62 6.31284 4.97731 0
M  V30 4600 H 447.352 0.265824 0.621541 0
M  V30 4601 H 449.906 1.3623 1.53722 0
M  V30 4602 H 448.136 0.290301 3.85609 0
M  V30 4603 H 449.825 0.683279 4.00108 0
M  V30 4604 H 450.591 3.14718 3.69022 0
M  V30 4605 H 446.47 2.00993 4.14877 0
M  V30 4606 H 450.014 5.45642 4.3465 0
M  V30 4607 H 445.911 4.31013 4.80518 0
M  V30 4608 H 446.679 6.35591 5.15719 0
M  V30 4609 N 449.342 -1.36122 0.79427 0
M  V30 4610 C 450.758 -1.5232 0.476525 0
M  V30 4611 C 450.958 -1.74685 -1.00436 0
M  V30 4612 O 450.014 -1.78115 -1.78973 0
M  V30 4613 C 451.327 -2.70607 1.31119 0
M  V30 4614 C 452.875 -2.8448 1.30537 0
M  V30 4615 C 453.35 -4.05778 2.12387 0
M  V30 4616 N 454.841 -4.12933 2.09859 0
M  V30 4617 C 455.576 -5.05876 2.69957 0
M  V30 4618 N 455.072 -6.04232 3.38934 0
M  V30 4619 N 456.865 -4.98528 2.59665 0
M  V30 4620 H 449.016 -1.1986 1.75349 0
M  V30 4621 H 451.279 -0.585418 0.745647 0
M  V30 4622 H 450.985 -2.60619 2.36158 0
M  V30 4623 H 450.859 -3.64888 0.955843 0
M  V30 4624 H 453.246 -2.93927 0.262876 0
M  V30 4625 H 453.327 -1.91093 1.70051 0
M  V30 4626 H 452.971 -3.97092 3.1667 0
M  V30 4627 H 452.901 -4.98323 1.70242 0
M  V30 4628 H 455.392 -3.42515 1.59662 0
M  V30 4629 H 455.705 -6.71724 3.82109 0
M  V30 4630 H 454.05 -6.04443 3.43036 0
M  V30 4631 H 457.241 -4.20641 2.05375 0
M  V30 4632 H 457.414 -5.70773 3.06793 0
M  V30 4633 N 450.82 -0.546701 -1.47814 0
M  V30 4634 C 452.066 -0.0187684 -2.02791 0
M  V30 4635 C 452.399 1.32338 -1.42128 0
M  V30 4636 O 451.674 1.85867 -0.573023 0
M  V30 4637 C 451.957 0.0854985 -3.59998 0
M  V30 4638 C 451.81 -1.283 -4.31114 0
M  V30 4639 C 453.129 0.80412 -4.32691 0
M  V30 4640 H 450.248 -0.0082946 -0.736953 0
M  V30 4641 H 452.89 -0.706962 -1.76358 0
M  V30 4642 H 451.04 0.671609 -3.82651 0
M  V30 4643 H 452.712 -1.91151 -4.19832 0
M  V30 4644 H 450.955 -1.86049 -3.91878 0
M  V30 4645 H 451.626 -1.16287 -5.39612 0
M  V30 4646 H 454.102 0.306576 -4.14969 0
M  V30 4647 H 452.978 0.846011 -5.42341 0
M  V30 4648 H 453.239 1.85802 -4.01161 0
M  V30 4649 N 452.299 1.55045 -0.282633 0
M  V30 4650 C 453.545 2.00056 0.332481 0
M  V30 4651 C 453.878 1.1708 1.54939 0
M  V30 4652 O 453.153 0.2427 1.9298 0
M  V30 4653 C 453.436 3.53086 0.70725 0
M  V30 4654 C 453.289 4.46813 -0.517521 0
M  V30 4655 C 454.608 4.12245 1.54084 0
M  V30 4656 H 451.727 0.727268 0.119373 0
M  V30 4657 H 454.369 1.85932 -0.391076 0
M  V30 4658 H 452.519 3.65253 1.32372 0
M  V30 4659 H 454.191 4.46579 -1.15607 0
M  V30 4660 H 452.434 4.18163 -1.1542 0
M  V30 4661 H 453.105 5.51595 -0.211426 0
M  V30 4662 H 455.581 4.03401 1.02013 0
M  V30 4663 H 454.457 5.19515 1.77186 0
M  V30 4664 H 454.718 3.62951 2.52427 0
M  V30 4665 N 453.777 0.010035 1.57597 0
M  V30 4666 C 455.002 -0.687021 1.95691 0
M  V30 4667 C 455.427 -1.65952 0.885519 0
M  V30 4668 O 454.785 -1.80633 -0.15543 0
M  V30 4669 C 454.833 -1.3864 3.32884 0
M  V30 4670 O 453.937 -2.50115 3.27897 0
M  V30 4671 H 453.278 -0.181989 0.638573 0
M  V30 4672 H 455.808 0.0662122 2.04493 0
M  V30 4673 H 455.818 -1.74754 3.6868 0
M  V30 4674 H 454.493 -0.673411 4.10412 0
M  V30 4675 H 453.07 -2.16253 3.03791 0
M  V30 4676 N 455.255 -1.55392 -0.262866 0
M  V30 4677 C 456.501 -1.76737 -0.99458 0
M  V30 4678 C 456.834 -0.572453 -1.85571 0
M  V30 4679 O 456.109 0.429732 -1.89693 0
M  V30 4680 C 456.392 -3.07824 -1.8686 0
M  V30 4681 C 456.245 -4.3769 -1.03672 0
M  V30 4682 C 457.564 -3.35021 -2.85393 0
M  V30 4683 H 454.683 -0.643005 -0.360157 0
M  V30 4684 H 457.325 -1.88126 -0.266216 0
M  V30 4685 H 455.475 -2.98245 -2.48962 0
M  V30 4686 H 457.147 -4.59238 -0.43563 0
M  V30 4687 H 455.39 -4.32461 -0.340513 0
M  V30 4688 H 456.061 -5.25759 -1.6817 0
M  V30 4689 H 458.537 -3.44458 -2.33426 0
M  V30 4690 H 457.413 -4.27989 -3.43681 0
M  V30 4691 H 457.674 -2.55153 -3.61039 0
M  V30 4692 N 456.733 0.527833 -1.48498 0
M  V30 4693 C 457.663 1.64136 -1.66077 0
M  V30 4694 C 458.644 1.62286 -0.509625 0
M  V30 4695 O 459.829 1.79449 -0.742413 0
M  V30 4696 C 456.959 3.02717 -1.70234 0
M  V30 4697 C 455.913 3.19426 -2.8487 0
M  V30 4698 C 455.239 4.5909 -2.74118 0
M  V30 4699 C 456.539 3.01993 -4.26142 0
M  V30 4700 H 458.233 1.4968 -2.593 0
M  V30 4701 H 455.779 0.718654 -1.24785 0
M  V30 4702 H 457.732 3.80491 -1.8112 0
M  V30 4703 H 456.456 3.18201 -0.735911 0
M  V30 4704 H 455.115 2.4407 -2.73542 0
M  V30 4705 H 454.763 4.71413 -1.7544 0
M  V30 4706 H 454.463 4.71214 -3.51042 0
M  V30 4707 H 455.987 5.3896 -2.86974 0
M  V30 4708 H 457.401 3.69558 -4.38292 0
M  V30 4709 H 455.798 3.2561 -5.04082 0
M  V30 4710 H 456.868 1.98396 -4.42456 0
M  V30 4711 N 458.211 1.37122 0.776871 0
M  V30 4712 C 459.439 1.3523 1.5659 0
M  V30 4713 C 459.854 -0.0635518 1.88693 0
M  V30 4714 O 459.211 -1.02394 1.51069 0
M  V30 4715 C 459.262 2.18583 2.8793 0
M  V30 4716 O 458.983 3.5465 2.57206 0
M  V30 4717 C 460.484 2.24612 3.82183 0
M  V30 4718 H 457.704 0.4634 0.485285 0
M  V30 4719 H 460.248 1.80392 0.963266 0
M  V30 4720 H 458.403 1.76943 3.4463 0
M  V30 4721 H 458.817 3.98286 3.41275 0
M  V30 4722 H 460.291 2.87267 4.71361 0
M  V30 4723 H 460.768 1.25309 4.20944 0
M  V30 4724 H 461.374 2.66543 3.31414 0
M  V30 4725 N 459.689 -1.00246 1.21608 0
M  V30 4726 C 460.935 -1.74319 1.03638 0
M  V30 4727 C 461.268 -1.89408 -0.428749 0
M  V30 4728 O 460.543 -1.43026 -1.3181 0
M  V30 4729 C 460.826 -3.15431 1.73711 0
M  V30 4730 C 460.679 -3.08049 3.27759 0
M  V30 4731 C 461.998 -4.14407 1.48173 0
M  V30 4732 H 459.117 -0.632741 0.377899 0
M  V30 4733 H 461.759 -1.16853 1.49818 0
M  V30 4734 H 459.909 -3.64493 1.34452 0
M  V30 4735 H 461.581 -2.66681 3.76403 0
M  V30 4736 H 459.824 -2.45088 3.57931 0
M  V30 4737 H 460.495 -4.07862 3.71958 0
M  V30 4738 H 462.971 -3.74061 1.82258 0
M  V30 4739 H 461.847 -5.11279 1.99713 0
M  V30 4740 H 462.108 -4.40174 0.412273 0
M  V30 4741 N 461.167 -1.02423 -1.1978 0
M  V30 4742 C 462.097 -0.62157 -2.25075 0
M  V30 4743 C 463.078 0.367148 -1.6609 0
M  V30 4744 O 464.263 0.250892 -1.92573 0
M  V30 4745 C 461.393 0.0331826 -3.47284 0
M  V30 4746 C 460.347 -0.877323 -4.18912 0
M  V30 4747 C 459.673 -0.0879296 -5.34628 0
M  V30 4748 C 460.973 -2.18892 -4.74219 0
M  V30 4749 H 462.667 -1.50179 -2.59011 0
M  V30 4750 H 460.213 -0.723547 -1.24502 0
M  V30 4751 H 462.166 0.326488 -4.20133 0
M  V30 4752 H 460.89 0.948164 -3.12534 0
M  V30 4753 H 459.549 -1.15475 -3.47938 0
M  V30 4754 H 459.197 0.828941 -4.96123 0
M  V30 4755 H 458.897 -0.694359 -5.83483 0
M  V30 4756 H 460.421 0.198743 -6.10276 0
M  V30 4757 H 461.835 -1.95746 -5.38847 0
M  V30 4758 H 460.232 -2.74686 -5.33542 0
M  V30 4759 H 461.302 -2.84674 -3.92541 0
M  V30 4760 N 462.645 1.35699 -0.801477 0
M  V30 4761 C 463.595 2.2728 -0.181073 0
M  V30 4762 C 464.579 1.47533 0.642098 0
M  V30 4763 O 465.771 1.69785 0.500193 0
M  V30 4764 C 462.9 3.36626 0.673612 0
M  V30 4765 C 461.986 4.23802 -0.159008 0
M  V30 4766 N 462.377 4.90879 -1.2195 0
M  V30 4767 C 460.675 4.45959 0.0602005 0
M  V30 4768 C 461.376 5.5546 -1.72738 0
M  V30 4769 N 460.352 5.33663 -1.03465 0
M  V30 4770 H 464.154 2.76632 -0.992582 0
M  V30 4771 H 461.668 1.49166 -0.642127 0
M  V30 4772 H 463.665 4.01179 1.13408 0
M  V30 4773 H 462.325 2.88828 1.48353 0
M  V30 4774 H 463.336 4.92497 -1.60209 0
M  V30 4775 H 460.013 4.08969 0.839664 0
M  V30 4776 H 461.403 6.18991 -2.61342 0
M  V30 4777 N 464.123 0.554532 1.47522 0
M  V30 4778 C 465.055 -0.232106 2.28022 0
M  V30 4779 C 466.068 -0.881865 1.36847 0
M  V30 4780 O 467.257 -0.756168 1.61692 0
M  V30 4781 C 464.357 -1.34604 3.11022 0
M  V30 4782 C 463.53 -0.793582 4.30141 0
M  V30 4783 C 462.589 -1.79168 4.94758 0
M  V30 4784 O 461.615 -1.33886 5.5323 0
M  V30 4785 N 462.817 -3.12495 4.89211 0
M  V30 4786 H 465.582 0.458407 2.96173 0
M  V30 4787 H 463.143 0.390433 1.57122 0
M  V30 4788 H 465.135 -2.01243 3.51118 0
M  V30 4789 H 463.705 -1.93983 2.45131 0
M  V30 4790 H 462.925 0.0495025 3.94169 0
M  V30 4791 H 464.213 -0.403776 5.07195 0
M  V30 4792 H 463.611 -3.51931 4.42901 0
M  V30 4793 H 462.168 -3.74698 5.33333 0
M  V30 4794 N 465.601 -1.54893 0.290851 0
M  V30 4795 C 466.878 -1.91991 -0.373989 0
M  V30 4796 C 467.258 -1.21694 -1.72493 0
M  V30 4797 O 466.606 -0.34917 -2.25816 0
M  V30 4798 C 466.816 -3.45419 -0.498703 0
M  V30 4799 C 468.164 -4.1748 -0.774298 0
M  V30 4800 O 469.188 -3.51398 -0.582908 0
M  V30 4801 O 468.047 -5.3445 -1.14129 0
M  V30 4802 H 465.141 -0.800593 -0.207315 0
M  V30 4803 H 467.687 -1.66297 0.338164 0
M  V30 4804 H 466.459 -3.88688 0.451392 0
M  V30 4805 H 466.082 -3.77117 -1.25972 0
M  V30 4806 N 467.08 -0.0183926 -1.57589 0
M  V30 4807 C 468.326 0.657813 -1.92469 0
M  V30 4808 C 468.681 1.70349 -0.894375 0
M  V30 4809 O 467.974 1.91384 0.0910389 0
M  V30 4810 C 468.168 1.32676 -3.31861 0
M  V30 4811 C 467.997 0.347403 -4.48356 0
M  V30 4812 C 466.767 -0.0488653 -5.05276 0
M  V30 4813 C 468.965 -0.393931 -5.12789 0
M  V30 4814 N 466.947 -1.02451 -6.05291 0
M  V30 4815 C 468.318 -1.22367 -6.07804 0
M  V30 4816 C 470.373 -0.455789 -4.95809 0
M  V30 4817 C 469.076 -2.10966 -6.87667 0
M  V30 4818 C 471.102 -1.32908 -5.76272 0
M  V30 4819 C 470.464 -2.14662 -6.70894 0
M  V30 4820 H 466.563 0.21335 -0.752334 0
M  V30 4821 H 469.147 -0.0830547 -1.94523 0
M  V30 4822 H 467.318 2.03782 -3.30647 0
M  V30 4823 H 469.05 1.95913 -3.54119 0
M  V30 4824 H 465.805 0.323356 -4.72495 0
M  V30 4825 H 466.229 -1.50826 -6.59985 0
M  V30 4826 H 470.871 0.162017 -4.22489 0
M  V30 4827 H 468.589 -2.73807 -7.603 0
M  V30 4828 H 472.175 -1.38109 -5.6517 0
M  V30 4829 H 471.055 -2.81143 -7.32071 0
M  V30 4830 N 468.558 1.5553 0.254621 0
M  V30 4831 C 469.488 1.9268 1.31897 0
M  V30 4832 C 470.469 0.790797 1.506 0
M  V30 4833 O 471.654 1.05045 1.63337 0
M  V30 4834 C 468.784 2.21477 2.67517 0
M  V30 4835 C 467.738 3.37256 2.63519 0
M  V30 4836 C 467.064 3.51576 4.02862 0
M  V30 4837 C 468.364 4.73157 2.21179 0
M  V30 4838 H 470.058 2.81832 1.01051 0
M  V30 4839 H 467.604 1.35599 0.484662 0
M  V30 4840 H 469.557 2.46055 3.42104 0
M  V30 4841 H 468.281 1.29144 2.99982 0
M  V30 4842 H 466.94 3.12675 1.9139 0
M  V30 4843 H 466.588 2.56676 4.32581 0
M  V30 4844 H 466.288 4.2943 4.01078 0
M  V30 4845 H 467.812 3.78467 4.79161 0
M  V30 4846 H 469.226 4.97158 2.85494 0
M  V30 4847 H 467.623 5.54058 2.30521 0
M  V30 4848 H 468.693 4.70739 1.16332 0
M  V30 4849 N 470.036 -0.519951 1.48776 0
M  V30 4850 C 470.984 -1.64443 1.64503 0
M  V30 4851 C 471.978 -1.61501 0.511248 0
M  V30 4852 O 473.184 -1.66238 0.690294 0
M  V30 4853 H 469.559 -0.544776 0.518385 0
M  V30 4854 H 471.53 -1.48325 2.58925 0
M  V30 4855 C 470.279 -3.02673 1.71127 0
M  V30 4856 H 469.602 -3.05635 2.57735 0
M  V30 4857 H 471.042 -3.80941 1.86172 0
M  V30 4858 C 469.501 -3.33854 0.452032 0
M  V30 4859 O 470.031 -3.99385 -0.430678 0
M  V30 4860 N 468.237 -2.88825 0.32069 0
M  V30 4861 H 467.784 -2.35674 1.03998 0
M  V30 4862 H 467.742 -3.10056 -0.520814 0
M  V30 4863 N 471.514 -1.37532 -0.769588 0
M  V30 4864 C 472.762 -1.32597 -1.5252 0
M  V30 4865 C 473.083 0.0884294 -1.94799 0
M  V30 4866 O 472.353 1.03289 -1.66458 0
M  V30 4867 H 470.933 -0.487846 -0.565699 0
M  V30 4868 H 473.595 -1.72044 -0.915806 0
M  V30 4869 H 472.691 -1.96643 -2.42359 0
M  V30 4870 N 472.992 0.995999 -1.22138 0
M  V30 4871 C 473.939 2.08551 -0.988687 0
M  V30 4872 C 474.909 1.65864 0.0885021 0
M  V30 4873 O 476.094 1.90704 -0.0604589 0
M  V30 4874 C 473.234 3.40374 -0.569191 0
M  V30 4875 C 472.347 3.96421 -1.71681 0
M  V30 4876 C 471.482 5.1639 -1.2456 0
M  V30 4877 C 470.521 5.64567 -2.36497 0
M  V30 4878 N 469.658 6.75777 -1.90445 0
M  V30 4879 H 474.498 2.2779 -1.92135 0
M  V30 4880 H 472.035 1.1168 -0.957388 0
M  V30 4881 H 473.993 4.16068 -0.307166 0
M  V30 4882 H 472.623 3.21145 0.326462 0
M  V30 4883 H 471.675 3.17628 -2.09324 0
M  V30 4884 H 472.987 4.2816 -2.55891 0
M  V30 4885 H 472.141 5.99362 -0.940774 0
M  V30 4886 H 470.88 4.86266 -0.373662 0
M  V30 4887 H 469.885 4.80185 -2.67772 0
M  V30 4888 H 471.11 5.96716 -3.24202 0
M  V30 4889 H 469.056 6.47443 -1.05609 0
M  V30 4890 H 468.973 7.06818 -2.68223 0
M  V30 4891 H 470.241 7.62262 -1.63022 0
M  V30 4892 N 474.47 1.03057 1.19235 0
M  V30 4893 C 475.38 0.622922 2.26179 0
M  V30 4894 C 476.396 -0.346113 1.70523 0
M  V30 4895 O 477.572 -0.203572 2.00369 0
M  V30 4896 C 474.637 -0.0182063 3.46695 0
M  V30 4897 C 473.698 0.998546 4.17526 0
M  V30 4898 C 472.931 0.387917 5.32288 0
M  V30 4899 O 473.154 -0.808668 5.64639 0
M  V30 4900 O 472.088 1.1116 5.91546 0
M  V30 4901 H 475.914 1.51363 2.63292 0
M  V30 4902 H 473.499 0.800856 1.26122 0
M  V30 4903 H 475.381 -0.375606 4.19723 0
M  V30 4904 H 474.056 -0.882895 3.11427 0
M  V30 4905 H 472.963 1.40756 3.4661 0
M  V30 4906 H 474.296 1.83366 4.56769 0
M  V30 4907 N 475.948 -1.35272 0.808662 0
M  V30 4908 C 477.178 -2.02652 0.401953 0
M  V30 4909 C 477.586 -1.6108 -0.992462 0
M  V30 4910 O 476.929 -0.804984 -1.65123 0
M  V30 4911 C 476.991 -3.57174 0.408246 0
M  V30 4912 C 476.655 -4.22019 1.75353 0
M  V30 4913 C 477.652 -4.43552 2.71215 0
M  V30 4914 C 475.337 -4.59093 2.03811 0
M  V30 4915 C 477.331 -5.01264 3.93717 0
M  V30 4916 C 475.018 -5.16519 3.26576 0
M  V30 4917 C 476.016 -5.37546 4.21347 0
M  V30 4918 O 475.704 -5.93761 5.41944 0
M  V30 4919 H 475.436 -0.656495 0.161216 0
M  V30 4920 H 477.99 -1.73829 1.0942 0
M  V30 4921 H 476.22 -3.85197 -0.340608 0
M  V30 4922 H 477.909 -4.05893 0.0235623 0
M  V30 4923 H 478.675 -4.15288 2.50522 0
M  V30 4924 H 474.554 -4.42039 1.30854 0
M  V30 4925 H 478.098 -5.17592 4.67701 0
M  V30 4926 H 473.995 -5.4421 3.47139 0
M  V30 4927 H 474.763 -6.1221 5.43269 0
M  V30 4928 N 477.426 -0.562348 -1.47226 0
M  V30 4929 C 478.373 0.182461 -2.30078 0
M  V30 4930 C 479.343 0.903503 -1.39377 0
M  V30 4931 O 480.528 0.898188 -1.68337 0
M  V30 4932 C 477.668 1.20322 -3.23445 0
M  V30 4933 C 476.781 0.487717 -4.29238 0
M  V30 4934 C 475.916 1.49422 -5.09752 0
M  V30 4935 C 474.955 0.763976 -6.07314 0
M  V30 4936 N 474.092 1.71755 -6.80768 0
M  V30 4937 H 478.932 -0.530169 -2.93246 0
M  V30 4938 H 476.469 -0.273276 -1.44539 0
M  V30 4939 H 478.427 1.80768 -3.76004 0
M  V30 4940 H 477.057 1.88382 -2.6213 0
M  V30 4941 H 476.109 -0.231374 -3.79696 0
M  V30 4942 H 477.421 -0.0841003 -4.98729 0
M  V30 4943 H 476.575 2.17206 -5.66486 0
M  V30 4944 H 475.314 2.09995 -4.40174 0
M  V30 4945 H 474.319 0.0722344 -5.49753 0
M  V30 4946 H 475.544 0.16391 -6.78902 0
M  V30 4947 H 473.49 2.31177 -6.13916 0
M  V30 4948 H 473.407 1.19802 -7.46447 0
M  V30 4949 H 474.675 2.38638 -7.42073 0
M  V30 4950 N 478.904 1.54736 -0.299062 0
M  V30 4951 C 480.144 2.0201 0.31168 0
M  V30 4952 C 480.508 1.18281 1.5124 0
M  V30 4953 O 481.709 1.55243 2.19438 0
M  V30 4954 C 479.98 3.5123 0.661227 0
M  V30 4955 S 481.539 4.20467 1.2551 0
M  V30 4956 H 478.357 0.704523 0.0957517 0
M  V30 4957 H 480.959 1.90791 -0.426482 0
M  V30 4958 H 479.663 4.09804 -0.221171 0
M  V30 4959 H 479.194 3.66481 1.43023 0
M  V30 4960 H 481.209 4.26083 2.54298 0
M  V30 4961 N 480.382 0.0267497 1.57577 0
M  V30 4962 C 481.329 -0.955894 2.10075 0
M  V30 4963 C 482.299 -1.32453 1.00226 0
M  V30 4964 O 483.484 -1.41826 1.27632 0
M  V30 4965 C 480.624 -2.2338 2.6305 0
M  V30 4966 C 479.737 -1.92183 3.86898 0
M  V30 4967 C 478.872 -3.14251 4.28275 0
M  V30 4968 C 477.911 -2.78862 5.44888 0
M  V30 4969 N 477.048 -3.93548 5.81433 0
M  V30 4970 H 481.888 -0.501303 2.93753 0
M  V30 4971 H 479.425 -0.235847 1.45197 0
M  V30 4972 H 481.383 -2.98124 2.91853 0
M  V30 4973 H 480.013 -2.6646 1.82205 0
M  V30 4974 H 479.065 -1.07692 3.64838 0
M  V30 4975 H 480.377 -1.62117 4.7172 0
M  V30 4976 H 479.531 -3.97317 4.58502 0
M  V30 4977 H 478.27 -3.47476 3.42215 0
M  V30 4978 H 477.275 -1.94208 5.14357 0
M  V30 4979 H 478.5 -2.46855 6.32645 0
M  V30 4980 H 476.446 -4.2662 4.98328 0
M  V30 4981 H 476.363 -3.67098 6.6089 0
M  V30 4982 H 477.631 -4.77325 6.16264 0
M  V30 4983 N 481.861 -1.55662 -0.24637 0
M  V30 4984 C 483.107 -1.77782 -0.975779 0
M  V30 4985 C 483.44 -0.592103 -1.84953 0
M  V30 4986 O 482.715 0.409588 -1.90138 0
M  V30 4987 C 482.998 -3.09788 -1.83584 0
M  V30 4988 C 482.851 -4.38764 -0.990241 0
M  V30 4989 C 484.17 -3.38029 -2.81823 0
M  V30 4990 H 481.289 -0.646789 -0.353317 0
M  V30 4991 H 483.931 -1.88398 -0.246248 0
M  V30 4992 H 482.081 -3.00869 -2.45784 0
M  V30 4993 H 483.753 -4.59675 -0.386897 0
M  V30 4994 H 481.996 -4.32798 -0.294626 0
M  V30 4995 H 482.667 -5.27514 -1.62584 0
M  V30 4996 H 485.143 -3.46915 -2.2976 0
M  V30 4997 H 484.019 -4.3161 -3.39122 0
M  V30 4998 H 484.28 -2.58968 -3.58313 0
M  V30 4999 N 483.339 0.512053 -1.4905 0
M  V30 5000 C 484.564 1.2959 -1.6193 0
M  V30 5001 C 484.989 1.85906 -0.286454 0
M  V30 5002 O 484.347 1.65312 0.744426 0
M  V30 5003 C 484.395 2.40987 -2.68249 0
M  V30 5004 O 483.499 3.44531 -2.26654 0
M  V30 5005 H 482.84 0.383053 -0.542371 0
M  V30 5006 H 485.37 0.614231 -1.95162 0
M  V30 5007 H 485.38 2.86913 -2.90078 0
M  V30 5008 H 484.055 1.99361 -3.65004 0
M  V30 5009 H 482.632 3.046 -2.15112 0
M  V30 5010 N 484.817 1.37938 0.762283 0
M  V30 5011 C 485.765 1.34569 1.89721 0
M  V30 5012 C 486.759 0.232929 1.67791 0
M  V30 5013 O 487.965 0.401485 1.75465 0
M  V30 5014 H 484.34 0.419594 0.624055 0
M  V30 5015 H 486.311 2.30357 1.8968 0
M  V30 5016 C 485.06 1.17898 3.27101 0
M  V30 5017 H 484.383 2.02781 3.44558 0
M  V30 5018 H 485.823 1.19593 4.06784 0
M  V30 5019 C 484.282 -0.114728 3.36705 0
M  V30 5020 O 484.812 -1.0949 3.8649 0
M  V30 5021 N 483.018 -0.16863 2.9011 0
M  V30 5022 H 482.565 0.62967 2.49786 0
M  V30 5023 H 482.523 -1.03383 2.96916 0
M  V30 5024 N 486.295 -0.989507 1.22664 0
M  V30 5025 C 487.242 -2.08024 0.999733 0
M  V30 5026 C 488.212 -1.65909 -0.0797047 0
M  V30 5027 O 489.397 -1.90669 0.0705715 0
M  V30 5028 C 486.537 -3.40067 0.587234 0
M  V30 5029 C 485.65 -3.95505 1.73781 0
M  V30 5030 C 484.785 -5.15722 1.27297 0
M  V30 5031 C 483.824 -5.63305 2.39488 0
M  V30 5032 N 482.961 -6.74758 1.94026 0
M  V30 5033 H 487.801 -2.26768 1.9334 0
M  V30 5034 H 485.338 -1.11171 0.963297 0
M  V30 5035 H 487.296 -4.15899 0.329227 0
M  V30 5036 H 485.926 -3.21314 -0.309426 0
M  V30 5037 H 484.978 -3.16513 2.11006 0
M  V30 5038 H 486.29 -4.26797 2.58158 0
M  V30 5039 H 485.444 -5.98854 0.972546 0
M  V30 5040 H 484.183 -4.86061 0.399445 0
M  V30 5041 H 483.188 -4.78759 2.70315 0
M  V30 5042 H 484.413 -5.94988 3.27362 0
M  V30 5043 H 482.359 -6.46874 1.09041 0
M  V30 5044 H 482.276 -7.05386 2.71968 0
M  V30 5045 H 483.544 -7.61387 1.67062 0
M  V30 5046 N 487.773 -1.03688 -1.18687 0
M  V30 5047 C 488.736 -0.629115 -2.20397 0
M  V30 5048 C 489.736 0.311495 -1.57754 0
M  V30 5049 O 490.926 0.0974107 -1.73927 0
M  V30 5050 C 488.058 0.0782231 -3.4081 0
M  V30 5051 H 489.251 -1.52915 -2.57987 0
M  V30 5052 H 486.804 -0.828988 -1.32505 0
M  V30 5053 H 487.539 0.992233 -3.08748 0
M  V30 5054 H 487.324 -0.597776 -3.87517 0
M  V30 5055 H 488.814 0.350156 -4.16129 0
M  V30 5056 N 489.251 1.34841 -0.815825 0
M  V30 5057 C 490.181 2.32187 -0.247298 0
M  V30 5058 C 491.162 1.5791 0.632344 0
M  V30 5059 O 492.347 1.8593 0.560698 0
M  V30 5060 C 489.477 3.42122 0.597466 0
M  V30 5061 C 488.431 4.27602 -0.184446 0
M  V30 5062 C 487.757 5.28942 0.782609 0
M  V30 5063 C 489.057 5.03502 -1.38865 0
M  V30 5064 H 490.751 2.79985 -1.06061 0
M  V30 5065 H 488.297 1.34611 -0.511461 0
M  V30 5066 H 490.25 4.09232 1.00533 0
M  V30 5067 H 488.974 2.92956 1.44376 0
M  V30 5068 H 487.633 3.62085 -0.573592 0
M  V30 5069 H 487.281 4.7604 1.62466 0
M  V30 5070 H 486.981 5.87008 0.263695 0
M  V30 5071 H 488.505 5.98922 1.18848 0
M  V30 5072 H 489.919 5.63506 -1.05518 0
M  V30 5073 H 488.316 5.71108 -1.8427 0
M  V30 5074 H 489.386 4.33608 -2.17054 0
M  V30 5075 N 490.729 0.570148 1.46925 0
M  V30 5076 C 492.14 0.1402 1.86173 0
M  V30 5077 C 492.491 -1.29347 1.47526 0
M  V30 5078 O 491.616 -1.97508 0.884292 0
M  V30 5079 C 492.211 0.247661 3.37894 0
M  V30 5080 C 490.77 -0.127332 3.76185 0
M  V30 5081 C 489.917 0.589349 2.70965 0
M  V30 5082 H 492.868 0.779117 1.38259 0
M  V30 5083 H 492.889 -0.530341 3.76786 0
M  V30 5084 H 492.401 1.29121 3.65991 0
M  V30 5085 H 490.502 -1.17149 3.53704 0
M  V30 5086 H 490.615 0.240238 4.78497 0
M  V30 5087 H 488.979 0.0309824 2.54681 0
M  V30 5088 H 489.762 1.6343 3.01903 0
M  V30 5089 N 492.207 -1.54576 0.307264 0
M  V30 5090 C 493.17 -2.22423 -0.553224 0
M  V30 5091 C 494.17 -1.21231 -1.05639 0
M  V30 5092 O 495.36 -1.45923 -0.951419 0
M  V30 5093 C 492.492 -2.91552 -1.76664 0
M  V30 5094 H 493.685 -2.99874 0.0396484 0
M  V30 5095 H 491.238 -1.56192 0.0581629 0
M  V30 5096 H 491.973 -2.18196 -2.39918 0
M  V30 5097 H 491.758 -3.65738 -1.41343 0
M  V30 5098 H 493.248 -3.43292 -2.37783 0
M  V30 5099 N 493.685 -0.035106 -1.57561 0
M  V30 5100 C 495.096 0.502885 -1.798 0
M  V30 5101 C 495.447 1.71892 -0.945921 0
M  V30 5102 O 494.572 2.15822 -0.157991 0
M  V30 5103 C 495.167 0.919097 -3.26095 0
M  V30 5104 C 493.726 1.40216 -3.49308 0
M  V30 5105 C 492.873 0.369709 -2.74824 0
M  V30 5106 H 495.824 -0.261102 -1.56537 0
M  V30 5107 H 495.845 1.78308 -3.36135 0
M  V30 5108 H 495.357 0.0338526 -3.88085 0
M  V30 5109 H 493.458 2.30714 -2.92578 0
M  V30 5110 H 493.571 1.40541 -4.58023 0
M  V30 5111 H 491.935 0.839113 -2.40481 0
M  V30 5112 H 492.718 -0.507173 -3.39533 0
M  V30 5113 N 495.163 1.55791 0.238111 0
M  V30 5114 C 496.412 1.77234 0.962868 0
M  V30 5115 C 496.725 0.600661 1.86149 0
M  V30 5116 O 497.931 0.698315 2.62366 0
M  V30 5117 C 496.387 3.13808 1.76218 0
M  V30 5118 C 495.995 4.3865 0.910518 0
M  V30 5119 C 497.739 3.44585 2.47914 0
M  V30 5120 C 495.646 5.66252 1.70623 0
M  V30 5121 H 494.576 0.660731 0.36325 0
M  V30 5122 H 497.227 1.8221 0.217242 0
M  V30 5123 H 495.609 3.02963 2.55009 0
M  V30 5124 H 496.783 4.60507 0.164316 0
M  V30 5125 H 495.098 4.15271 0.30647 0
M  V30 5126 H 497.695 4.3714 3.07917 0
M  V30 5127 H 498.038 2.66314 3.19973 0
M  V30 5128 H 498.571 3.56685 1.76127 0
M  V30 5129 H 495.31 6.47369 1.02923 0
M  V30 5130 H 494.83 5.48483 2.42748 0
M  V30 5131 H 496.509 6.05829 2.27114 0
M  V30 5132 N 496.642 -0.504142 1.49319 0
M  V30 5133 C 497.552 -1.63248 1.68486 0
M  V30 5134 C 498.568 -1.64488 0.567432 0
M  V30 5135 O 499.744 -1.82966 0.841749 0
M  V30 5136 C 496.809 -2.99627 1.74426 0
M  V30 5137 C 495.87 -3.09039 2.97982 0
M  V30 5138 C 495.103 -4.38913 3.0363 0
M  V30 5139 O 495.326 -5.27528 2.16958 0
M  V30 5140 O 494.26 -4.53231 3.96062 0
M  V30 5141 H 498.086 -1.50008 2.64067 0
M  V30 5142 H 495.671 -0.680086 1.33023 0
M  V30 5143 H 497.553 -3.80689 1.80705 0
M  V30 5144 H 496.228 -3.13136 0.820233 0
M  V30 5145 H 495.135 -2.27177 2.97223 0
M  V30 5146 H 496.468 -3.00456 3.89855 0
M  V30 5147 N 498.12 -1.38341 -0.754957 0
M  V30 5148 C 499.067 -1.3546 -1.86867 0
M  V30 5149 C 500.037 -0.217369 -1.64672 0
M  V30 5150 O 501.222 -0.409383 -1.86356 0
M  V30 5151 C 498.362 -1.18413 -3.24149 0
M  V30 5152 C 497.475 -2.41511 -3.58185 0
M  V30 5153 C 496.61 -2.17205 -4.84763 0
M  V30 5154 C 495.649 -3.36081 -5.11582 0
M  V30 5155 N 494.786 -3.11219 -6.29354 0
M  V30 5156 H 499.626 -2.30672 -1.88664 0
M  V30 5157 H 497.163 -1.14607 -0.922154 0
M  V30 5158 H 499.121 -1.06545 -4.03366 0
M  V30 5159 H 497.751 -0.268397 -3.21682 0
M  V30 5160 H 496.803 -2.64056 -2.73822 0
M  V30 5161 H 498.115 -3.30115 -3.73932 0
M  V30 5162 H 497.269 -2.02465 -5.7192 0
M  V30 5163 H 496.008 -1.25964 -4.71152 0
M  V30 5164 H 495.013 -3.51341 -4.22894 0
M  V30 5165 H 496.238 -4.28196 -5.27091 0
M  V30 5166 H 494.184 -2.22624 -6.17069 0
M  V30 5167 H 494.101 -3.93373 -6.45596 0
M  V30 5168 H 495.369 -3.00132 -7.19403 0
M  V30 5169 N 499.598 0.982988 -1.23187 0
M  V30 5170 C 500.826 1.75921 -1.08901 0
M  V30 5171 C 501.241 1.85341 0.359719 0
M  V30 5172 O 500.598 1.33072 1.24892 0
M  V30 5173 C 500.649 3.18742 -1.70545 0
M  V30 5174 O 500.37 3.09814 -3.09753 0
M  V30 5175 C 501.871 4.1277 -1.61667 0
M  V30 5176 H 499.091 0.552166 -0.381252 0
M  V30 5177 H 501.635 1.23516 -1.62985 0
M  V30 5178 H 499.79 3.68182 -1.20501 0
M  V30 5179 H 500.204 3.99703 -3.39614 0
M  V30 5180 H 501.678 5.10697 -2.09506 0
M  V30 5181 H 502.155 4.3542 -0.575009 0
M  V30 5182 H 502.761 3.69232 -2.11064 0
M  V30 5183 N 501.076 1.04316 1.18135 0
M  V30 5184 C 502.325 0.74319 1.87509 0
M  V30 5185 C 502.638 -0.732136 1.81381 0
M  V30 5186 O 503.844 -1.14572 2.46141 0
M  V30 5187 C 502.3 1.27913 3.36402 0
M  V30 5188 C 501.908 2.78326 3.51053 0
M  V30 5189 C 503.652 1.0558 4.11161 0
M  V30 5190 C 501.559 3.25266 4.93919 0
M  V30 5191 H 500.489 0.274313 0.702331 0
M  V30 5192 H 503.14 1.25931 1.33467 0
M  V30 5193 H 501.522 0.690853 3.89927 0
M  V30 5194 H 502.696 3.42933 3.07788 0
M  V30 5195 H 501.011 2.991 2.89704 0
M  V30 5196 H 503.608 1.38161 5.16542 0
M  V30 5197 H 503.951 -0.00684729 4.16299 0
M  V30 5198 H 504.484 1.60882 3.63816 0
M  V30 5199 H 501.223 4.30922 4.9395 0
M  V30 5200 H 500.743 2.65396 5.3789 0
M  V30 5201 H 502.422 3.19433 5.62647 0
M  V30 5202 N 502.554 -1.34406 0.822964 0
M  V30 5203 C 503.779 -2.0304 0.423034 0
M  V30 5204 C 504.204 -1.61568 -0.963196 0
M  V30 5205 O 503.562 -0.800339 -1.62678 0
M  V30 5206 C 503.61 -3.56636 0.53321 0
M  V30 5207 O 502.714 -4.09971 -0.446939 0
M  V30 5208 H 502.055 -0.64075 0.174171 0
M  V30 5209 H 504.585 -1.71653 1.11339 0
M  V30 5210 H 504.595 -4.05945 0.408991 0
M  V30 5211 H 503.27 -3.86168 1.54425 0
M  V30 5212 H 501.847 -3.71835 -0.281601 0
M  V30 5213 N 504.032 -0.577932 -1.46621 0
M  V30 5214 C 504.979 0.158048 -2.30258 0
M  V30 5215 C 505.949 0.888669 -1.40328 0
M  V30 5216 O 507.134 0.880283 -1.6928 0
M  V30 5217 C 504.274 1.16884 -3.24703 0
M  V30 5218 C 503.387 0.442163 -4.29731 0
M  V30 5219 C 502.522 1.44007 -5.11308 0
M  V30 5220 C 501.561 0.69952 -6.0809 0
M  V30 5221 N 500.698 1.64525 -6.82551 0
M  V30 5222 H 505.538 -0.561242 -2.92667 0
M  V30 5223 H 503.075 -0.288591 -1.44241 0
M  V30 5224 H 505.033 1.7677 -3.779 0
M  V30 5225 H 503.663 1.85591 -2.64113 0
M  V30 5226 H 502.715 -0.271632 -3.79429 0
M  V30 5227 H 504.027 -0.136992 -4.98612 0
M  V30 5228 H 503.181 2.11186 -5.68758 0
M  V30 5229 H 501.92 2.05315 -4.42377 0
M  V30 5230 H 500.925 0.0139217 -5.49798 0
M  V30 5231 H 502.15 0.091894 -6.79038 0
M  V30 5232 H 500.096 2.24653 -6.16334 0
M  V30 5233 H 500.013 1.11878 -7.47676 0
M  V30 5234 H 501.281 2.30754 -7.44562 0
M  V30 5235 N 505.51 1.54411 -0.315457 0
M  V30 5236 C 506.473 2.22713 0.54142 0
M  V30 5237 C 507.473 1.2179 1.04995 0
M  V30 5238 O 508.663 1.46426 0.943667 0
M  V30 5239 C 505.795 2.92485 1.75116 0
M  V30 5240 H 506.988 2.99849 -0.0555508 0
M  V30 5241 H 504.541 1.56159 -0.0664453 0
M  V30 5242 H 505.276 2.19466 2.38758 0
M  V30 5243 H 505.061 3.66483 1.39401 0
M  V30 5244 H 506.551 3.44548 2.35959 0
M  V30 5245 N 506.988 0.0434614 1.5754 0
M  V30 5246 C 507.935 -0.93356 2.11077 0
M  V30 5247 C 508.905 -1.31383 1.01626 0
M  V30 5248 O 510.09 -1.40465 1.29129 0
M  V30 5249 C 507.23 -2.20578 2.65404 0
M  V30 5250 C 506.343 -1.88068 3.88914 0
M  V30 5251 C 505.478 -3.09691 4.31584 0
M  V30 5252 C 504.517 -2.73067 5.47815 0
M  V30 5253 N 503.654 -3.87359 5.85574 0
M  V30 5254 H 508.494 -0.470118 2.94268 0
M  V30 5255 H 506.031 -0.220434 1.45439 0
M  V30 5256 H 507.989 -2.95011 2.94999 0
M  V30 5257 H 506.619 -2.64513 1.85021 0
M  V30 5258 H 505.671 -1.03816 3.6596 0
M  V30 5259 H 506.983 -1.57104 4.73413 0
M  V30 5260 H 506.137 -3.92431 4.62691 0
M  V30 5261 H 504.876 -3.43827 3.45882 0
M  V30 5262 H 503.881 -1.88742 5.16388 0
M  V30 5263 H 505.106 -2.40131 6.35227 0
M  V30 5264 H 503.052 -4.21311 5.02825 0
M  V30 5265 H 502.969 -3.60068 6.64746 0
M  V30 5266 H 504.237 -4.70761 6.21292 0
M  V30 5267 N 508.466 -1.55915 -0.229846 0
M  V30 5268 C 509.714 -1.7819 -0.953565 0
M  V30 5269 C 510.035 -0.610504 -1.85197 0
M  V30 5270 O 509.305 0.372988 -1.92316 0
M  V30 5271 H 507.885 -0.657208 -0.355087 0
M  V30 5272 H 510.547 -1.9337 -0.243693 0
M  V30 5273 H 509.643 -2.70011 -1.56527 0
M  V30 5274 N 509.944 0.496216 -1.49584 0
M  V30 5275 C 510.876 1.61404 -1.62731 0
M  V30 5276 C 511.889 1.54613 -0.50978 0
M  V30 5277 O 513.078 1.60458 -0.782017 0
M  V30 5278 C 510.178 3.00212 -1.57245 0
M  V30 5279 C 509.351 3.32138 -2.84611 0
M  V30 5280 C 508.41 4.5038 -2.72112 0
M  V30 5281 O 507.436 4.51926 -3.46051 0
M  V30 5282 N 508.638 5.50575 -1.83977 0
M  V30 5283 H 511.403 1.50552 -2.59141 0
M  V30 5284 H 508.964 0.684182 -1.46733 0
M  V30 5285 H 510.956 3.77241 -1.4653 0
M  V30 5286 H 509.526 3.04964 -0.686729 0
M  V30 5287 H 508.746 2.4396 -3.09641 0
M  V30 5288 H 510.034 3.50268 -3.69039 0
M  V30 5289 H 509.432 5.52128 -1.23171 0
M  V30 5290 H 507.989 6.26687 -1.79182 0
M  V30 5291 N 511.423 1.38739 0.74761 0
M  V30 5292 C 512.834 1.31507 1.32524 0
M  V30 5293 C 513.185 -0.0263963 1.96182 0
M  V30 5294 O 512.31 -0.92849 1.95469 0
M  V30 5295 C 512.905 2.38162 2.40966 0
M  V30 5296 C 511.464 2.34489 2.94434 0
M  V30 5297 C 510.611 2.20712 1.67873 0
M  V30 5298 H 513.562 1.4901 0.546043 0
M  V30 5299 H 513.583 2.04222 3.21051 0
M  V30 5300 H 513.095 3.35783 1.94605 0
M  V30 5301 H 511.196 1.40467 3.45108 0
M  V30 5302 H 511.309 3.28861 3.48407 0
M  V30 5303 H 509.673 1.67667 1.91729 0
M  V30 5304 H 510.456 3.20285 1.23582 0
M  V30 5305 N 512.901 -0.976442 1.23707 0
M  V30 5306 C 514.317 -1.24341 1.00058 0
M  V30 5307 C 514.517 -1.99315 -0.295932 0
M  V30 5308 O 513.573 -2.3123 -1.01435 0
M  V30 5309 C 514.886 -2.03909 2.21001 0
M  V30 5310 C 516.434 -2.17034 2.25534 0
M  V30 5311 C 516.909 -2.99994 3.46075 0
M  V30 5312 N 518.4 -3.07578 3.46338 0
M  V30 5313 C 519.135 -3.72104 4.36264 0
M  V30 5314 N 518.631 -4.3842 5.36432 0
M  V30 5315 N 520.424 -3.69029 4.23998 0
M  V30 5316 H 512.575 -0.47428 2.07037 0
M  V30 5317 H 514.838 -0.272167 0.908091 0
M  V30 5318 H 514.544 -1.56198 3.15111 0
M  V30 5319 H 514.418 -3.04654 2.22409 0
M  V30 5320 H 516.805 -2.63951 1.31961 0
M  V30 5321 H 516.886 -1.15664 2.28156 0
M  V30 5322 H 516.53 -2.53772 4.39957 0
M  V30 5323 H 516.46 -4.01541 3.40694 0
M  V30 5324 H 518.951 -2.60397 2.73865 0
M  V30 5325 H 519.264 -4.85447 6.013 0
M  V30 5326 H 517.609 -4.37116 5.40328 0
M  V30 5327 H 520.8 -3.16392 3.44984 0
M  V30 5328 H 520.973 -4.19034 4.94282 0
M  V30 5329 N 514.379 -1.04941 -1.1758 0
M  V30 5330 C 515.289 -0.658826 -2.25159 0
M  V30 5331 C 516.305 0.318941 -1.71052 0
M  V30 5332 O 517.481 0.171669 -2.00667 0
M  V30 5333 C 514.546 -0.0369522 -3.4668 0
M  V30 5334 C 513.607 -1.06484 -4.15884 0
M  V30 5335 C 512.84 -0.472551 -5.31604 0
M  V30 5336 O 513.063 0.718736 -5.65854 0
M  V30 5337 O 511.997 -1.20557 -5.89703 0
M  V30 5338 H 515.823 -1.55533 -2.60851 0
M  V30 5339 H 513.408 -0.820819 -1.24832 0
M  V30 5340 H 515.29 0.308784 -4.20267 0
M  V30 5341 H 513.965 0.833238 -3.12792 0
M  V30 5342 H 512.872 -1.46253 -3.44327 0
M  V30 5343 H 514.205 -1.9061 -4.53794 0
M  V30 5344 N 515.857 1.33968 -0.830081 0
M  V30 5345 C 517.268 1.80439 -0.479455 0
M  V30 5346 C 517.619 1.68756 1.00079 0
M  V30 5347 O 516.744 1.23171 1.77927 0
M  V30 5348 C 517.339 3.27611 -0.863505 0
M  V30 5349 C 515.898 3.72133 -0.565145 0
M  V30 5350 C 515.045 2.55549 -1.07657 0
M  V30 5351 H 517.996 1.21614 -1.0196 0
M  V30 5352 H 518.017 3.8012 -0.170083 0
M  V30 5353 H 517.529 3.36082 -1.94089 0
M  V30 5354 H 515.63 3.69196 0.502536 0
M  V30 5355 H 515.743 4.65963 -1.11422 0
M  V30 5356 H 514.107 2.49788 -0.497807 0
M  V30 5357 H 514.89 2.66786 -2.16055 0
M  V30 5358 N 517.335 0.585699 1.46312 0
M  V30 5359 C 518.267 -0.183687 2.28463 0
M  V30 5360 C 519.28 -0.85264 1.38686 0
M  V30 5361 O 520.469 -0.721701 1.6326 0
M  V30 5362 C 517.569 -1.27977 3.13808 0
M  V30 5363 C 516.742 -0.702164 4.31727 0
M  V30 5364 C 515.801 -1.68633 4.98447 0
M  V30 5365 O 514.827 -1.22121 5.55945 0
M  V30 5366 N 516.029 -3.02047 4.95729 0
M  V30 5367 H 518.794 0.521127 2.95134 0
M  V30 5368 H 516.355 0.423673 1.56258 0
M  V30 5369 H 518.347 -1.9375 3.55307 0
M  V30 5370 H 516.917 -1.8874 2.4919 0
M  V30 5371 H 516.137 0.1331 3.93975 0
M  V30 5372 H 517.425 -0.296101 5.07938 0
M  V30 5373 H 516.823 -3.42457 4.50266 0
M  V30 5374 H 515.38 -3.63301 5.41161 0
M  V30 5375 N 518.813 -1.54241 0.323641 0
M  V30 5376 C 520.059 -2.00867 -0.279323 0
M  V30 5377 C 520.392 -1.21146 -1.5178 0
M  V30 5378 O 519.667 -0.29378 -1.92269 0
M  V30 5379 C 519.95 -3.54837 -0.613387 0
M  V30 5380 C 519.803 -4.45284 0.635803 0
M  V30 5381 C 521.122 -4.16186 -1.43099 0
M  V30 5382 H 518.241 -0.730177 -0.100049 0
M  V30 5383 H 520.883 -1.84829 0.440235 0
M  V30 5384 H 519.033 -3.68634 -1.22641 0
M  V30 5385 H 520.705 -4.43357 1.27406 0
M  V30 5386 H 518.948 -4.14956 1.26466 0
M  V30 5387 H 519.619 -5.5084 0.357597 0
M  V30 5388 H 522.095 -4.05964 -0.912814 0
M  V30 5389 H 520.971 -5.24031 -1.6335 0
M  V30 5390 H 521.232 -3.69516 -2.42715 0
M  V30 5391 N 520.291 -0.0518155 -1.57515 0
M  V30 5392 C 521.521 0.63048 -1.96745 0
M  V30 5393 C 521.929 1.64875 -0.928054 0
M  V30 5394 O 521.272 1.83449 0.0960678 0
M  V30 5395 C 521.334 1.37381 -3.32215 0
M  V30 5396 C 520.998 0.511298 -4.54131 0
M  V30 5397 C 521.995 -0.222884 -5.19422 0
M  V30 5398 C 519.68 0.442035 -5.00351 0
M  V30 5399 C 521.674 -1.01476 -6.2927 0
M  V30 5400 C 519.361 -0.35353 -6.10077 0
M  V30 5401 C 520.359 -1.08062 -6.74397 0
M  V30 5402 O 520.047 -1.8631 -7.82013 0
M  V30 5403 H 519.779 0.177126 -0.652382 0
M  V30 5404 H 522.333 -0.114726 -2.05079 0
M  V30 5405 H 520.563 2.16466 -3.20436 0
M  V30 5406 H 522.252 1.9464 -3.56188 0
M  V30 5407 H 523.018 -0.178846 -4.8467 0
M  V30 5408 H 518.897 0.997562 -4.50077 0
M  V30 5409 H 522.441 -1.58279 -6.79407 0
M  V30 5410 H 518.338 -0.399205 -6.44264 0
M  V30 5411 H 519.106 -1.78528 -7.98793 0
M  V30 5412 N 521.769 1.56035 0.221574 0
M  V30 5413 C 522.997 1.8313 0.962864 0
M  V30 5414 C 523.412 0.630934 1.77946 0
M  V30 5415 O 522.769 -0.400519 1.78051 0
M  V30 5416 C 522.82 3.08742 1.88045 0
M  V30 5417 O 522.541 4.24147 1.09686 0
M  V30 5418 C 524.042 3.48824 2.73563 0
M  V30 5419 H 521.262 0.608775 0.282194 0
M  V30 5420 H 523.806 2.03124 0.23681 0
M  V30 5421 H 521.961 2.90723 2.56045 0
M  V30 5422 H 522.375 4.95505 1.71974 0
M  V30 5423 H 523.849 4.39752 3.3365 0
M  V30 5424 H 524.326 2.70575 3.45956 0
M  V30 5425 H 524.932 3.69282 2.10976 0
M  V30 5426 N 523.247 -0.488276 1.49845 0
M  V30 5427 C 524.177 -1.59675 1.70371 0
M  V30 5428 C 525.158 -1.60878 0.552473 0
M  V30 5429 O 526.343 -1.77417 0.78973 0
M  V30 5430 C 523.473 -2.98098 1.782 0
M  V30 5431 C 522.427 -3.11761 2.93239 0
M  V30 5432 C 521.753 -4.51661 2.86193 0
M  V30 5433 C 523.053 -2.90589 4.33999 0
M  V30 5434 H 524.747 -1.42752 2.63177 0
M  V30 5435 H 522.293 -0.685317 1.26647 0
M  V30 5436 H 524.246 -3.75555 1.91144 0
M  V30 5437 H 522.97 -3.16138 0.820018 0
M  V30 5438 H 521.629 -2.36732 2.79917 0
M  V30 5439 H 521.277 -4.66595 1.87877 0
M  V30 5440 H 520.977 -4.61742 3.63412 0
M  V30 5441 H 522.501 -5.31162 3.01163 0
M  V30 5442 H 523.915 -3.57807 4.47936 0
M  V30 5443 H 522.312 -3.1213 5.12538 0
M  V30 5444 H 523.382 -1.86595 4.4756 0
M  V30 5445 N 524.725 -1.39134 -0.740242 0
M  V30 5446 C 526.136 -1.32208 -1.31825 0
M  V30 5447 C 526.487 0.0159919 -1.96193 0
M  V30 5448 O 525.612 0.918111 -1.95958 0
M  V30 5449 C 526.207 -2.39436 -2.39699 0
M  V30 5450 C 524.766 -2.36048 -2.93187 0
M  V30 5451 C 523.913 -2.21599 -1.66701 0
M  V30 5452 H 526.864 -1.49298 -0.538133 0
M  V30 5453 H 526.885 -2.05922 -3.19963 0
M  V30 5454 H 526.397 -3.36811 -1.92821 0
M  V30 5455 H 524.498 -1.42295 -3.44359 0
M  V30 5456 H 524.611 -3.30704 -3.46658 0
M  V30 5457 H 522.975 -1.68681 -1.90837 0
M  V30 5458 H 523.758 -3.20936 -1.21882 0
M  V30 5459 N 526.204 0.969867 -1.24223 0
M  V30 5460 C 527.615 1.52717 -1.07399 0
M  V30 5461 C 527.966 1.92956 0.355298 0
M  V30 5462 O 527.091 1.77112 1.2434 0
M  V30 5463 C 527.686 2.77521 -1.94339 0
M  V30 5464 C 526.245 3.29615 -1.81744 0
M  V30 5465 C 525.392 2.02537 -1.89405 0
M  V30 5466 H 528.343 0.788399 -1.37732 0
M  V30 5467 H 528.364 3.50773 -1.47439 0
M  V30 5468 H 527.876 2.48203 -2.98357 0
M  V30 5469 H 525.977 3.63789 -0.805505 0
M  V30 5470 H 526.09 3.98661 -2.65718 0
M  V30 5471 H 524.454 2.17151 -1.33108 0
M  V30 5472 H 525.237 1.75587 -2.94999 0
M  V30 5473 N 527.682 1.05563 1.17022 0
M  V30 5474 C 528.907 0.788437 1.91829 0
M  V30 5475 C 529.332 -0.650356 1.76499 0
M  V30 5476 O 528.69 -1.45229 1.08527 0
M  V30 5477 C 528.738 1.1786 3.40795 0
M  V30 5478 O 527.842 0.312965 4.11211 0
M  V30 5479 H 527.183 0.288794 0.597908 0
M  V30 5480 H 529.713 1.40948 1.48307 0
M  V30 5481 H 529.723 1.14697 3.91546 0
M  V30 5482 H 528.398 2.22666 3.51273 0
M  V30 5483 H 526.975 0.405515 3.70689 0
M  V30 5484 N 529.16 -1.33526 0.837174 0
M  V30 5485 C 530.576 -1.50727 0.524743 0
M  V30 5486 C 530.776 -1.77792 -0.948279 0
M  V30 5487 O 529.832 -1.83719 -1.73216 0
M  V30 5488 C 531.145 -2.66299 1.39661 0
M  V30 5489 C 532.693 -2.80183 1.39521 0
M  V30 5490 C 533.168 -3.98815 2.25189 0
M  V30 5491 N 534.659 -4.06047 2.2289 0
M  V30 5492 C 535.394 -4.97032 2.85915 0
M  V30 5493 N 534.89 -5.93143 3.57985 0
M  V30 5494 N 536.683 -4.90015 2.75394 0
M  V30 5495 H 528.834 -1.1422 1.79074 0
M  V30 5496 H 531.097 -0.561399 0.763894 0
M  V30 5497 H 530.803 -2.52974 2.4433 0
M  V30 5498 H 530.677 -3.61663 1.07145 0
M  V30 5499 H 533.064 -2.92942 0.356253 0
M  V30 5500 H 533.145 -1.85586 1.76044 0
M  V30 5501 H 532.789 -3.86817 3.29143 0
M  V30 5502 H 532.719 -4.92654 1.86009 0
M  V30 5503 H 535.21 -3.37262 1.70478 0
M  V30 5504 H 535.523 -6.59227 4.03286 0
M  V30 5505 H 533.868 -5.93223 3.62093 0
M  V30 5506 H 537.059 -4.13894 2.18654 0
M  V30 5507 H 537.232 -5.60724 3.24796 0
M  V30 5508 N 530.638 -0.59345 -1.46 0
M  V30 5509 C 531.915 -0.0157933 -1.95594 0
M  V30 5510 C 532.295 1.44807 -1.53604 0
M  V30 5511 O 531.643 2.14342 -0.791824 0
M  V30 5512 C 531.853 -0.199081 -3.48432 0
M  V30 5513 C 533.201 -0.0724943 -4.24538 0
M  V30 5514 O 534.225 -0.128469 -3.55968 0
M  V30 5515 O 533.084 0.0542426 -5.46473 0
M  V30 5516 H 530.178 0.043749 -0.825842 0
M  V30 5517 H 532.724 -0.662522 -1.56233 0
M  V30 5518 H 531.496 -1.21631 -3.71916 0
M  V30 5519 H 531.119 0.483576 -3.94648 0
M  V30 5520 N 532.116 1.54067 -0.331816 0
M  V30 5521 C 533.026 2.28322 0.539104 0
M  V30 5522 C 534.042 1.32985 1.1221 0
M  V30 5523 O 535.218 1.6601 1.1403 0
M  V30 5524 C 532.283 3.03277 1.68 0
M  V30 5525 C 531.344 4.14216 1.12798 0
M  V30 5526 C 530.577 4.85588 2.2145 0
M  V30 5527 O 530.8 4.56536 3.41952 0
M  V30 5528 O 529.734 5.72309 1.86404 0
M  V30 5529 H 533.56 3.03632 -0.0641692 0
M  V30 5530 H 531.145 1.49083 -0.0972365 0
M  V30 5531 H 533.027 3.50189 2.34405 0
M  V30 5532 H 531.702 2.30834 2.2693 0
M  V30 5533 H 530.609 3.71635 0.428782 0
M  V30 5534 H 531.942 4.88727 0.583698 0
M  V30 5535 N 533.594 0.0601682 1.57485 0
M  V30 5536 C 534.524 -0.90889 2.15085 0
M  V30 5537 C 535.505 -1.31838 1.07484 0
M  V30 5538 O 536.69 -1.3915 1.35466 0
M  V30 5539 C 533.82 -2.18059 2.7031 0
M  V30 5540 C 532.774 -1.91088 3.82974 0
M  V30 5541 C 532.1 -3.24789 4.24754 0
M  V30 5542 C 533.4 -1.22535 5.07723 0
M  V30 5543 H 535.094 -0.429093 2.96309 0
M  V30 5544 H 532.64 -0.204952 1.42534 0
M  V30 5545 H 534.593 -2.86258 3.09248 0
M  V30 5546 H 533.317 -2.6826 1.8629 0
M  V30 5547 H 531.976 -1.25297 3.44523 0
M  V30 5548 H 531.624 -3.72809 3.37672 0
M  V30 5549 H 531.324 -3.07538 5.00694 0
M  V30 5550 H 532.848 -3.94205 4.66299 0
M  V30 5551 H 534.262 -1.80783 5.4405 0
M  V30 5552 H 532.659 -1.1558 5.88864 0
M  V30 5553 H 533.729 -0.202692 4.84476 0
M  V30 5554 N 535.072 -1.5615 -0.213296 0
M  V30 5555 C 536.3 -1.83638 -0.953139 0
M  V30 5556 C 536.715 -0.640362 -1.77609 0
M  V30 5557 O 536.072 0.391071 -1.78261 0
M  V30 5558 C 536.123 -3.09735 -1.86405 0
M  V30 5559 O 535.844 -4.24723 -1.07435 0
M  V30 5560 C 537.345 -3.5027 -2.71709 0
M  V30 5561 H 534.565 -0.610263 -0.278962 0
M  V30 5562 H 537.109 -2.03247 -0.226035 0
M  V30 5563 H 535.264 -2.92077 -2.545 0
M  V30 5564 H 535.678 -4.9641 -1.69343 0
M  V30 5565 H 537.152 -4.41515 -3.31313 0
M  V30 5566 H 537.629 -2.72406 -3.44516 0
M  V30 5567 H 538.235 -3.70396 -2.09015 0
M  V30 5568 N 536.55 0.480323 -1.50102 0
M  V30 5569 C 537.497 1.57946 -1.6829 0
M  V30 5570 C 538.467 1.57611 -0.524223 0
M  V30 5571 O 539.652 1.75282 -0.753709 0
M  V30 5572 C 536.792 2.95978 -1.77457 0
M  V30 5573 C 535.905 3.06173 -3.04766 0
M  V30 5574 C 535.04 4.35063 -3.04784 0
M  V30 5575 C 534.079 4.38966 -4.26586 0
M  V30 5576 N 533.216 5.59314 -4.24396 0
M  V30 5577 H 538.056 1.41743 -2.62131 0
M  V30 5578 H 535.593 0.689304 -1.2995 0
M  V30 5579 H 537.551 3.76011 -1.80752 0
M  V30 5580 H 536.181 3.10837 -0.870637 0
M  V30 5581 H 535.233 2.19071 -3.10986 0
M  V30 5582 H 536.545 3.04916 -3.9475 0
M  V30 5583 H 535.699 5.23436 -3.06757 0
M  V30 5584 H 534.438 4.38915 -2.12614 0
M  V30 5585 H 533.443 3.48992 -4.24835 0
M  V30 5586 H 534.668 4.36813 -5.19972 0
M  V30 5587 H 532.614 5.63969 -3.35074 0
M  V30 5588 H 532.531 5.5976 -5.08138 0
M  V30 5589 H 533.799 6.49837 -4.30502 0
M  V30 5590 N 538.028 1.39524 0.732853 0
M  V30 5591 C 538.976 1.38563 1.86824 0
M  V30 5592 C 539.97 0.268467 1.67259 0
M  V30 5593 O 541.176 0.438613 1.74574 0
M  V30 5594 H 537.551 0.432737 0.615014 0
M  V30 5595 H 539.522 2.34328 1.84751 0
M  V30 5596 C 538.271 1.2481 3.24527 0
M  V30 5597 H 537.594 2.10044 3.40179 0
M  V30 5598 H 539.034 1.28194 4.04156 0
M  V30 5599 C 537.493 -0.0432825 3.36872 0
M  V30 5600 O 538.023 -1.01268 3.88726 0
M  V30 5601 N 536.229 -0.107055 2.90403 0
M  V30 5602 H 535.776 0.682512 2.48394 0
M  V30 5603 H 535.734 -0.970618 2.99042 0
M  V30 5604 N 539.506 -0.963266 1.24736 0
M  V30 5605 C 540.438 -2.06162 1.0015 0
M  V30 5606 C 541.451 -1.62771 -0.0305905 0
M  V30 5607 O 542.64 -1.77296 0.206966 0
M  V30 5608 C 539.74 -3.35333 0.490385 0
M  V30 5609 C 538.913 -4.07609 1.58663 0
M  V30 5610 C 537.972 -5.15052 1.0774 0
M  V30 5611 O 536.998 -5.4098 1.77002 0
M  V30 5612 N 538.2 -5.80436 -0.0858605 0
M  V30 5613 H 540.965 -2.27825 1.94719 0
M  V30 5614 H 538.526 -1.13121 1.15825 0
M  V30 5615 H 540.518 -4.04477 0.134371 0
M  V30 5616 H 539.088 -3.10507 -0.361155 0
M  V30 5617 H 538.308 -3.32681 2.11463 0
M  V30 5618 H 539.596 -4.52656 2.32336 0
M  V30 5619 H 538.994 -5.6178 -0.664806 0
M  V30 5620 H 537.551 -6.50674 -0.382981 0
M  V30 5621 N 540.985 -1.06182 -1.16461 0
M  V30 5622 C 542.231 -0.779015 -1.87241 0
M  V30 5623 C 542.564 0.692715 -1.81425 0
M  V30 5624 O 541.839 1.5074 -1.22913 0
M  V30 5625 C 542.122 -1.2728 -3.36856 0
M  V30 5626 C 541.975 -2.80821 -3.51368 0
M  V30 5627 C 543.294 -0.879799 -4.31216 0
M  V30 5628 H 540.413 -0.284464 -0.679889 0
M  V30 5629 H 543.055 -1.31755 -1.36896 0
M  V30 5630 H 541.205 -0.814673 -3.79862 0
M  V30 5631 H 542.877 -3.34833 -3.17308 0
M  V30 5632 H 541.12 -3.19606 -2.93316 0
M  V30 5633 H 541.791 -3.10435 -4.56436 0
M  V30 5634 H 544.267 -1.27436 -3.96105 0
M  V30 5635 H 543.143 -1.25278 -5.34412 0
M  V30 5636 H 543.404 0.215372 -4.41575 0
M  V30 5637 N 542.463 1.3308 -0.844243 0
M  V30 5638 C 543.688 2.02341 -0.455282 0
M  V30 5639 C 544.113 1.6308 0.93737 0
M  V30 5640 O 543.471 0.826118 1.61385 0
M  V30 5641 C 543.519 3.55743 -0.58988 0
M  V30 5642 O 542.623 4.1063 0.38166 0
M  V30 5643 H 541.964 0.637898 -0.184343 0
M  V30 5644 H 544.494 1.6986 -1.14056 0
M  V30 5645 H 544.504 4.05243 -0.473522 0
M  V30 5646 H 543.179 3.83662 -1.60549 0
M  V30 5647 H 541.756 3.72236 0.22241 0
M  V30 5648 N 543.941 0.601185 1.45683 0
M  V30 5649 C 544.871 -0.108824 2.33246 0
M  V30 5650 C 545.852 -0.865223 1.46451 0
M  V30 5651 O 547.037 -0.83704 1.75235 0
M  V30 5652 C 544.167 -1.11101 3.2905 0
M  V30 5653 C 543.121 -0.468244 4.25431 0
M  V30 5654 C 542.447 -1.57822 5.10878 0
M  V30 5655 C 543.747 0.606469 5.18767 0
M  V30 5656 H 545.441 0.622306 2.92861 0
M  V30 5657 H 542.987 0.300714 1.40825 0
M  V30 5658 H 544.94 -1.61622 3.89174 0
M  V30 5659 H 543.664 -1.87265 2.67581 0
M  V30 5660 H 542.323 0.0160484 3.66596 0
M  V30 5661 H 541.971 -2.32998 4.45781 0
M  V30 5662 H 541.671 -1.15369 5.76163 0
M  V30 5663 H 543.195 -2.08583 5.73869 0
M  V30 5664 H 544.609 0.185589 5.73 0
M  V30 5665 H 543.006 0.952381 5.92494 0
M  V30 5666 H 544.076 1.48559 4.61582 0
M  V30 5667 N 545.419 -1.53889 0.339982 0
M  V30 5668 C 546.647 -2.05271 -0.259114 0
M  V30 5669 C 547.062 -1.21517 -1.44496 0
M  V30 5670 O 546.419 -0.24966 -1.80784 0
M  V30 5671 C 546.47 -3.55092 -0.677634 0
M  V30 5672 O 546.191 -4.35667 0.461051 0
M  V30 5673 C 547.692 -4.22631 -1.33782 0
M  V30 5674 H 544.912 -0.669085 -0.0506566 0
M  V30 5675 H 547.456 -1.9852 0.490935 0
M  V30 5676 H 545.611 -3.62077 -1.37763 0
M  V30 5677 H 546.025 -5.24343 0.128144 0
M  V30 5678 H 547.499 -5.28861 -1.58145 0
M  V30 5679 H 547.976 -3.74758 -2.29027 0
M  V30 5680 H 548.582 -4.19829 -0.679957 0
M  V30 5681 N 546.897 -0.0685191 -1.57451 0
M  V30 5682 C 548.137 0.605038 -1.9524 0
M  V30 5683 C 548.501 1.66974 -0.947816 0
M  V30 5684 O 549.702 2.39862 -1.21325 0
M  V30 5685 C 547.973 1.16999 -3.37707 0
M  V30 5686 S 549.532 1.85913 -3.97469 0
M  V30 5687 H 546.35 0.198203 -0.682815 0
M  V30 5688 H 548.952 -0.141594 -1.94987 0
M  V30 5689 H 547.656 0.383205 -4.08607 0
M  V30 5690 H 547.187 1.95305 -3.41496 0
M  V30 5691 H 549.202 3.14128 -3.84107 0
M  V30 5692 N 548.375 1.56261 0.205012 0
M  V30 5693 C 549.305 1.96779 1.257 0
M  V30 5694 C 550.286 0.838309 1.48008 0
M  V30 5695 O 551.471 1.10189 1.59913 0
M  V30 5696 C 548.601 2.29876 2.60335 0
M  V30 5697 C 547.555 3.45469 2.52656 0
M  V30 5698 C 546.881 3.64215 3.91473 0
M  V30 5699 C 548.181 4.79954 2.06014 0
M  V30 5700 H 549.875 2.84904 0.920338 0
M  V30 5701 H 547.421 1.37072 0.441277 0
M  V30 5702 H 549.374 2.56814 3.34102 0
M  V30 5703 H 548.098 1.38622 2.95722 0
M  V30 5704 H 546.757 3.18605 1.81345 0
M  V30 5705 H 546.405 2.70309 4.24196 0
M  V30 5706 H 546.105 4.41973 3.87213 0
M  V30 5707 H 547.629 3.93519 4.66878 0
M  V30 5708 H 549.043 5.05989 2.69533 0
M  V30 5709 H 547.44 5.61111 2.12777 0
M  V30 5710 H 548.51 4.74201 1.01297 0
M  V30 5711 N 549.853 -0.472356 1.50355 0
M  V30 5712 C 551.099 -1.22634 1.6152 0
M  V30 5713 C 551.432 -1.91645 0.313995 0
M  V30 5714 O 550.707 -1.82059 -0.684446 0
M  V30 5715 C 550.99 -2.27099 2.7946 0
M  V30 5716 C 550.843 -1.62402 4.19459 0
M  V30 5717 C 552.162 -3.28421 2.92964 0
M  V30 5718 H 549.281 -0.444494 0.587873 0
M  V30 5719 H 551.923 -0.520321 1.82737 0
M  V30 5720 H 550.073 -2.87314 2.61501 0
M  V30 5721 H 551.745 -1.05793 4.49005 0
M  V30 5722 H 549.988 -0.927184 4.23776 0
M  V30 5723 H 550.659 -2.38309 4.97909 0
M  V30 5724 H 553.135 -2.78227 3.09401 0
M  V30 5725 H 552.011 -3.98845 3.77113 0
M  V30 5726 H 552.272 -3.92467 2.03525 0
M  V30 5727 N 551.331 -1.39911 -0.725443 0
M  V30 5728 C 552.278 -1.39393 -1.83952 0
M  V30 5729 C 553.248 -0.252249 -1.64173 0
M  V30 5730 O 554.433 -0.44882 -1.85446 0
M  V30 5731 C 551.573 -1.25262 -3.21564 0
M  V30 5732 C 550.686 -2.49054 -3.52982 0
M  V30 5733 C 549.821 -2.27439 -4.80047 0
M  V30 5734 C 548.86 -3.46857 -5.04338 0
M  V30 5735 N 547.997 -3.24499 -6.22611 0
M  V30 5736 H 552.837 -2.34622 -1.83729 0
M  V30 5737 H 550.374 -1.16537 -0.897636 0
M  V30 5738 H 552.332 -1.15077 -4.01015 0
M  V30 5739 H 550.962 -0.33657 -3.21041 0
M  V30 5740 H 550.014 -2.69805 -2.6816 0
M  V30 5741 H 551.326 -3.37973 -3.66846 0
M  V30 5742 H 550.48 -2.14551 -5.67497 0
M  V30 5743 H 549.219 -1.35929 -4.68374 0
M  V30 5744 H 548.224 -3.60232 -4.15346 0
M  V30 5745 H 549.449 -4.3928 -5.17889 0
M  V30 5746 H 547.395 -2.35663 -6.12208 0
M  V30 5747 H 547.312 -4.06978 -6.37106 0
M  V30 5748 H 548.58 -3.15325 -7.12875 0
M  V30 5749 N 552.809 0.956637 -1.25245 0
M  V30 5750 C 554.057 1.69764 -1.09657 0
M  V30 5751 C 554.378 1.91583 0.363464 0
M  V30 5752 O 553.648 1.50149 1.25825 0
M  V30 5753 H 552.228 0.629097 -0.402798 0
M  V30 5754 H 554.89 1.15026 -1.57337 0
M  V30 5755 H 553.986 2.67769 -1.60331 0
M  V30 5756 N 554.287 1.06798 1.15896 0
M  V30 5757 C 555.534 0.787767 1.86549 0
M  V30 5758 C 555.862 -0.685959 1.82002 0
M  V30 5759 O 555.117 -1.5188 1.23414 0
M  V30 5760 C 555.416 1.23414 3.35416 0
M  V30 5761 C 555.082 2.71285 3.6016 0
M  V30 5762 C 553.744 3.11676 3.66622 0
M  V30 5763 C 556.096 3.6676 3.7032 0
M  V30 5764 C 553.424 4.4637 3.8075 0
M  V30 5765 C 555.776 5.01209 3.8597 0
M  V30 5766 C 554.44 5.41229 3.90676 0
M  V30 5767 H 553.71 0.288264 0.682631 0
M  V30 5768 H 556.357 1.338 1.37003 0
M  V30 5769 H 554.662 0.60319 3.87129 0
M  V30 5770 H 556.359 0.994298 3.88477 0
M  V30 5771 H 552.949 2.39015 3.55767 0
M  V30 5772 H 557.133 3.36685 3.64633 0
M  V30 5773 H 552.389 4.76855 3.82648 0
M  V30 5774 H 556.563 5.75067 3.92773 0
M  V30 5775 H 554.19 6.45602 4.01375 0
M  V30 5776 N 555.766 -1.3263 0.851289 0
M  V30 5777 C 556.996 -2.01271 0.466222 0
M  V30 5778 C 557.404 -1.64156 -0.940714 0
M  V30 5779 O 556.747 -0.857109 -1.62479 0
M  V30 5780 C 556.809 -3.55695 0.521672 0
M  V30 5781 C 556.473 -4.16227 1.88691 0
M  V30 5782 C 557.47 -4.34699 2.85189 0
M  V30 5783 C 555.155 -4.52377 2.18313 0
M  V30 5784 C 557.149 -4.88484 4.09465 0
M  V30 5785 C 554.836 -5.05868 3.42843 0
M  V30 5786 C 555.834 -5.23869 4.38235 0
M  V30 5787 O 555.522 -5.76218 5.6056 0
M  V30 5788 H 555.254 -0.651034 0.18202 0
M  V30 5789 H 557.808 -1.7026 1.14894 0
M  V30 5790 H 556.038 -3.86086 -0.217888 0
M  V30 5791 H 557.727 -4.05613 0.152682 0
M  V30 5792 H 558.493 -4.07107 2.63607 0
M  V30 5793 H 554.372 -4.37652 1.44851 0
M  V30 5794 H 557.916 -5.02451 4.83931 0
M  V30 5795 H 553.813 -5.32891 3.64277 0
M  V30 5796 H 554.581 -5.94616 5.62471 0
M  V30 5797 N 557.244 -0.608902 -1.45362 0
M  V30 5798 C 558.655 -0.189511 -1.85736 0
M  V30 5799 C 559.006 1.2539 -1.50903 0
M  V30 5800 O 558.131 1.95094 -0.936347 0
M  V30 5801 C 558.726 -0.33716 -3.37118 0
M  V30 5802 C 557.285 0.0275487 -3.7639 0
M  V30 5803 C 556.432 -0.660983 -2.69307 0
M  V30 5804 H 559.383 -0.815499 -1.36144 0
M  V30 5805 H 559.404 0.430257 -3.7806 0
M  V30 5806 H 558.916 -1.38779 -3.62439 0
M  V30 5807 H 557.017 1.0773 -3.56686 0
M  V30 5808 H 557.13 -0.367018 -4.77692 0
M  V30 5809 H 555.494 -0.0984958 -2.54509 0
M  V30 5810 H 556.277 -1.71377 -2.97464 0
M  V30 5811 N 558.722 1.53707 -0.348139 0
M  V30 5812 C 559.947 2.05877 0.250883 0
M  V30 5813 C 560.372 1.22115 1.43072 0
M  V30 5814 O 559.73 0.235986 1.79758 0
M  V30 5815 C 559.778 3.54886 0.639416 0
M  V30 5816 O 558.882 3.73948 1.73888 0
M  V30 5817 H 558.223 0.662754 0.040653 0
M  V30 5818 H 560.753 1.98303 -0.503685 0
M  V30 5819 H 560.763 3.97601 0.915295 0
M  V30 5820 H 559.438 4.153 -0.223386 0
M  V30 5821 H 558.015 3.43134 1.45991 0
M  V30 5822 N 560.2 0.0768682 1.57412 0
M  V30 5823 C 561.477 -0.632359 1.85096 0
M  V30 5824 C 561.857 -1.87479 0.9703 0
M  V30 5825 O 561.205 -2.28469 0.0379062 0
M  V30 5826 C 561.415 -0.965174 3.35388 0
M  V30 5827 C 562.763 -1.33648 4.03018 0
M  V30 5828 O 563.787 -1.05675 3.40164 0
M  V30 5829 O 562.646 -1.85959 5.13889 0
M  V30 5830 H 559.74 -0.314574 0.764835 0
M  V30 5831 H 562.286 0.108184 1.69355 0
M  V30 5832 H 561.058 -0.0829745 3.91212 0
M  V30 5833 H 560.681 -1.76231 3.5641 0
M  V30 5834 N 561.678 -1.56367 -0.196722 0
M  V30 5835 C 562.927 -1.79724 -0.915539 0
M  V30 5836 C 563.24 -0.649804 -1.84491 0
M  V30 5837 O 564.446 -0.767631 -2.60422 0
M  V30 5838 C 562.902 -3.18369 -1.67836 0
M  V30 5839 C 562.51 -4.4091 -0.793897 0
M  V30 5840 C 564.254 -3.51037 -2.38691 0
M  V30 5841 C 562.161 -5.70577 -1.55549 0
M  V30 5842 H 561.091 -0.67013 -0.345604 0
M  V30 5843 H 563.742 -1.82721 -0.168856 0
M  V30 5844 H 562.124 -3.09617 -2.46887 0
M  V30 5845 H 563.298 -4.60781 -0.042163 0
M  V30 5846 H 561.613 -4.15937 -0.19626 0
M  V30 5847 H 564.21 -4.4515 -2.96219 0
M  V30 5848 H 564.553 -2.74704 -3.12799 0
M  V30 5849 H 565.086 -3.61229 -1.66608 0
M  V30 5850 H 561.825 -6.49871 -0.857226 0
M  V30 5851 H 561.345 -5.54726 -2.2812 0
M  V30 5852 H 563.024 -6.11637 -2.10971 0
M  V30 5853 N 563.156 0.464375 -1.50603 0
M  V30 5854 C 564.119 1.54393 -1.69397 0
M  V30 5855 C 565.119 1.50566 -0.564504 0
M  V30 5856 O 566.309 1.53066 -0.831645 0
M  V30 5857 C 563.441 2.9401 -1.72543 0
M  V30 5858 H 564.634 1.39044 -2.65719 0
M  V30 5859 H 562.187 0.69122 -1.40185 0
M  V30 5860 H 562.922 3.14795 -0.77938 0
M  V30 5861 H 562.707 2.98195 -2.54602 0
M  V30 5862 H 564.197 3.72375 -1.89015 0
M  V30 5863 N 564.634 1.40294 0.718013 0
M  V30 5864 C 565.88 1.38645 1.48005 0
M  V30 5865 C 566.213 -0.0121202 1.94196 0
M  V30 5866 O 565.488 -0.980309 1.67989 0
M  V30 5867 C 565.771 2.37379 2.70782 0
M  V30 5868 C 565.624 3.8625 2.30501 0
M  V30 5869 C 566.943 2.33685 3.72933 0
M  V30 5870 H 564.062 0.504928 0.536858 0
M  V30 5871 H 566.704 1.71411 0.819649 0
M  V30 5872 H 564.854 2.09568 3.27129 0
M  V30 5873 H 566.526 4.24879 1.79655 0
M  V30 5874 H 564.769 4.02202 1.6253 0
M  V30 5875 H 565.44 4.50847 3.18498 0
M  V30 5876 H 567.916 2.58314 3.2621 0
M  V30 5877 H 566.792 3.0482 4.56482 0
M  V30 5878 H 567.053 1.34765 4.21059 0
M  V30 5879 N 566.112 -0.949982 1.2575 0
M  V30 5880 C 567.022 -2.08109 1.08295 0
M  V30 5881 C 568.038 -1.7399 0.0188181 0
M  V30 5882 O 569.214 -2.00187 0.220724 0
M  V30 5883 C 566.279 -3.39383 0.708534 0
M  V30 5884 C 565.34 -3.8734 1.85111 0
M  V30 5885 C 564.573 -5.12349 1.49447 0
M  V30 5886 O 564.796 -5.6905 0.392212 0
M  V30 5887 O 563.73 -5.5513 2.32624 0
M  V30 5888 H 567.556 -2.25738 2.03165 0
M  V30 5889 H 565.141 -1.06545 1.04731 0
M  V30 5890 H 567.023 -4.18277 0.512061 0
M  V30 5891 H 565.698 -3.23013 -0.210854 0
M  V30 5892 H 564.605 -3.09429 2.10248 0
M  V30 5893 H 565.938 -4.08216 2.74991 0
M  V30 5894 N 567.59 -1.07411 -1.15328 0
M  V30 5895 C 568.836 -0.808666 -1.86634 0
M  V30 5896 C 569.191 0.65816 -1.80793 0
M  V30 5897 O 568.484 1.47689 -1.22059 0
M  V30 5898 C 568.678 -1.25191 -3.34757 0
M  V30 5899 C 568.507 -2.76028 -3.55019 0
M  V30 5900 C 567.277 -3.43644 -3.70455 0
M  V30 5901 C 569.475 -3.74224 -3.5279 0
M  V30 5902 N 567.457 -4.83117 -3.78776 0
M  V30 5903 C 568.828 -4.9954 -3.67233 0
M  V30 5904 C 570.883 -3.67373 -3.36068 0
M  V30 5905 C 569.586 -6.18819 -3.66682 0
M  V30 5906 C 571.612 -4.86116 -3.36816 0
M  V30 5907 C 570.974 -6.10266 -3.51789 0
M  V30 5908 H 567.073 -0.348478 -0.700062 0
M  V30 5909 H 569.657 -1.37049 -1.38295 0
M  V30 5910 H 567.828 -0.717775 -3.8171 0
M  V30 5911 H 569.56 -0.933936 -3.93776 0
M  V30 5912 H 566.315 -2.94051 -3.71256 0
M  V30 5913 H 566.739 -5.55705 -3.86679 0
M  V30 5914 H 571.381 -2.72334 -3.2341 0
M  V30 5915 H 569.099 -7.14179 -3.78118 0
M  V30 5916 H 572.685 -4.82492 -3.25103 0
M  V30 5917 H 571.565 -7.00609 -3.52301 0
M  V30 5918 N 569.068 1.32177 -0.85831 0
M  V30 5919 C 569.978 2.32561 -0.308606 0
M  V30 5920 C 570.994 1.64209 0.575462 0
M  V30 5921 O 572.17 1.95719 0.474961 0
M  V30 5922 C 569.235 3.43207 0.490909 0
M  V30 5923 C 568.296 4.27243 -0.419733 0
M  V30 5924 C 567.529 5.32605 0.341719 0
M  V30 5925 O 567.752 5.48332 1.57125 0
M  V30 5926 O 566.686 6.0118 -0.294379 0
M  V30 5927 H 570.512 2.81477 -1.14037 0
M  V30 5928 H 568.097 1.35866 -0.621349 0
M  V30 5929 H 569.979 4.10677 0.944574 0
M  V30 5930 H 568.654 2.96474 1.29941 0
M  V30 5931 H 567.561 3.62569 -0.921652 0
M  V30 5932 H 568.894 4.7751 -1.19352 0
M  V30 5933 N 570.547 0.616602 1.45037 0
M  V30 5934 C 571.772 0.120192 2.07051 0
M  V30 5935 C 572.197 -1.19008 1.45666 0
M  V30 5936 O 571.555 -1.7267 0.552692 0
M  V30 5937 C 571.603 0.00354901 3.606 0
M  V30 5938 O 570.707 -1.04431 3.98958 0
M  V30 5939 H 570.048 0.0781599 0.659384 0
M  V30 5940 H 572.578 0.849167 1.86146 0
M  V30 5941 H 572.588 -0.191754 4.07549 0
M  V30 5942 H 571.263 0.960239 4.04663 0
M  V30 5943 H 569.84 -0.824749 3.63665 0
M  V30 5944 N 572.025 -1.5352 0.356285 0
M  V30 5945 C 572.973 -2.26945 -0.50978 0
M  V30 5946 C 573.967 -1.29569 -1.09125 0
M  V30 5947 O 575.173 -1.47231 -1.03552 0
M  V30 5948 H 571.548 -0.729368 -0.183102 0
M  V30 5949 H 573.519 -2.98111 0.131374 0
M  V30 5950 C 572.268 -3.06466 -1.64237 0
M  V30 5951 H 571.591 -3.81233 -1.20423 0
M  V30 5952 H 573.031 -3.61035 -2.22327 0
M  V30 5953 C 571.49 -2.16737 -2.57928 0
M  V30 5954 O 572.02 -1.77195 -3.60507 0
M  V30 5955 N 570.226 -1.81558 -2.26903 0
M  V30 5956 H 569.773 -2.13913 -1.43524 0
M  V30 5957 H 569.731 -1.21806 -2.89846 0
M  V30 5958 N 573.503 -0.0852151 -1.57369 0
M  V30 5959 C 574.751 0.579658 -1.93609 0
M  V30 5960 C 575.072 1.69332 -0.967043 0
M  V30 5961 O 574.342 1.95892 -0.0174215 0
M  V30 5962 H 572.922 0.217113 -0.714752 0
M  V30 5963 H 575.584 -0.146226 -1.94351 0
M  V30 5964 H 574.68 0.996276 -2.95771 0
M  V30 5965 N 574.981 1.5647 0.188427 0
M  V30 5966 C 575.913 1.91611 1.25769 0
M  V30 5967 C 576.926 0.807436 1.41366 0
M  V30 5968 O 578.115 1.08586 1.41673 0
M  V30 5969 C 575.215 2.13874 2.6289 0
M  V30 5970 C 574.388 3.45047 2.68815 0
M  V30 5971 C 573.447 3.56342 3.87178 0
M  V30 5972 O 572.473 4.29109 3.73971 0
M  V30 5973 N 573.675 2.89924 5.02916 0
M  V30 5974 H 576.44 2.8393 0.959373 0
M  V30 5975 H 574.001 1.57418 0.378306 0
M  V30 5976 H 575.993 2.18713 3.4051 0
M  V30 5977 H 574.563 1.28022 2.85183 0
M  V30 5978 H 573.783 3.52017 1.77419 0
M  V30 5979 H 575.071 4.31395 2.6977 0
M  V30 5980 H 574.469 2.30644 5.16546 0
M  V30 5981 H 573.026 3.0038 5.78459 0
M  V30 5982 N 576.459 -0.456382 1.50847 0
M  V30 5983 C 577.87 -1.03685 1.55262 0
M  V30 5984 C 578.221 -1.92779 0.364771 0
M  V30 5985 O 577.346 -2.10043 -0.52068 0
M  V30 5986 C 577.941 -1.88718 2.81374 0
M  V30 5987 C 576.5 -2.41847 2.88422 0
M  V30 5988 C 575.647 -1.20564 2.49719 0
M  V30 5989 H 578.598 -0.238399 1.56899 0
M  V30 5990 H 578.619 -2.73957 2.6406 0
M  V30 5991 H 578.131 -1.23847 3.67809 0
M  V30 5992 H 576.232 -3.10228 2.06372 0
M  V30 5993 H 576.345 -2.75947 3.9165 0
M  V30 5994 H 574.709 -1.54504 2.02486 0
M  V30 5995 H 575.492 -0.573326 3.38479 0
M  V30 5996 N 577.937 -1.40673 -0.710563 0
M  V30 5997 C 578.847 -1.43663 -1.85467 0
M  V30 5998 C 579.863 -0.328721 -1.70867 0
M  V30 5999 O 581.039 -0.574098 -1.93044 0
M  V30 6000 C 578.104 -1.30226 -3.21313 0
M  V30 6001 C 577.165 -2.51204 -3.48131 0
M  V30 6002 C 576.398 -2.38398 -4.77495 0
M  V30 6003 O 576.621 -1.40048 -5.5294 0
M  V30 6004 O 575.555 -3.2787 -5.04762 0
M  V30 6005 H 579.381 -2.40156 -1.859 0
M  V30 6006 H 576.966 -1.22049 -0.861652 0
M  V30 6007 H 578.848 -1.2496 -4.02446 0
M  V30 6008 H 577.523 -0.368419 -3.21597 0
M  V30 6009 H 576.43 -2.62048 -2.66987 0
M  V30 6010 H 577.763 -3.43366 -3.52648 0
M  V30 6011 N 579.415 0.9433 -1.26252 0
M  V30 6012 C 580.363 2.06302 -1.07434 0
M  V30 6013 C 581.357 1.694 -0.00189471 0
M  V30 6014 O 582.563 1.79302 -0.158408 0
M  V30 6015 H 578.938 0.675453 -0.330556 0
M  V30 6016 H 580.909 2.19326 -2.02333 0
M  V30 6017 C 579.658 3.40125 -0.721817 0
M  V30 6018 H 578.981 3.68996 -1.5389 0
M  V30 6019 H 580.421 4.19295 -0.629922 0
M  V30 6020 C 578.88 3.31993 0.572902 0
M  V30 6021 O 579.41 3.67945 1.61182 0
M  V30 6022 N 577.616 2.85099 0.562748 0
M  V30 6023 H 577.163 2.5604 -0.283092 0
M  V30 6024 H 577.121 2.80041 1.42915 0
M  V30 6025 N 580.893 1.08022 1.14757 0
M  V30 6026 C 581.841 0.701088 2.21783 0
M  V30 6027 C 582.835 -0.291311 1.66876 0
M  V30 6028 O 584.041 -0.154296 1.79337 0
M  V30 6029 H 580.416 0.208668 0.722469 0
M  V30 6030 H 582.387 1.61321 2.51034 0
M  V30 6031 C 581.136 0.122278 3.47485 0
M  V30 6032 H 580.459 0.877065 3.90061 0
M  V30 6033 H 581.899 -0.105248 4.23869 0
M  V30 6034 C 580.358 -1.13883 3.17068 0
M  V30 6035 O 580.888 -2.22429 3.34497 0
M  V30 6036 N 579.094 -1.04767 2.71058 0
M  V30 6037 H 578.641 -0.164302 2.57075 0
M  V30 6038 H 578.599 -1.89224 2.51081 0
M  V30 6039 N 582.371 -1.3172 0.865308 0
M  V30 6040 C 583.601 -2.00765 0.487543 0
M  V30 6041 C 584.009 -1.65145 -0.92325 0
M  V30 6042 O 583.352 -0.874294 -1.61561 0
M  V30 6043 C 583.414 -3.55122 0.559369 0
M  V30 6044 C 583.078 -4.14202 1.93095 0
M  V30 6045 C 584.075 -4.3165 2.89784 0
M  V30 6046 C 581.76 -4.50036 2.23099 0
M  V30 6047 C 583.754 -4.84114 4.14623 0
M  V30 6048 C 581.441 -5.02203 3.48189 0
M  V30 6049 C 582.439 -5.19192 4.43767 0
M  V30 6050 O 582.127 -5.70241 5.6664 0
M  V30 6051 H 581.859 -0.649066 0.188915 0
M  V30 6052 H 584.413 -1.69032 1.16694 0
M  V30 6053 H 582.643 -3.86295 -0.176926 0
M  V30 6054 H 584.332 -4.05428 0.195694 0
M  V30 6055 H 585.098 -4.04288 2.6791 0
M  V30 6056 H 580.977 -4.36091 1.49485 0
M  V30 6057 H 584.521 -4.9729 4.89233 0
M  V30 6058 H 580.418 -5.28997 3.69908 0
M  V30 6059 H 581.186 -5.88617 5.68746 0
M  V30 6060 N 583.85 -0.624285 -1.44708 0
M  V30 6061 C 584.797 0.0847135 -2.30644 0
M  V30 6062 C 585.767 0.843575 -1.43084 0
M  V30 6063 O 586.952 0.825982 -1.71995 0
M  V30 6064 C 584.091 1.06495 -3.28257 0
M  V30 6065 C 583.205 0.305224 -4.3092 0
M  V30 6066 C 582.34 1.27667 -5.1563 0
M  V30 6067 C 581.379 0.505706 -6.10007 0
M  V30 6068 N 580.516 1.42727 -6.8744 0
M  V30 6069 H 585.356 -0.654068 -2.90733 0
M  V30 6070 H 582.893 -0.334334 -1.4325 0
M  V30 6071 H 584.851 1.64658 -3.83332 0
M  V30 6072 H 583.481 1.77094 -2.69884 0
M  V30 6073 H 582.533 -0.392207 -3.78373 0
M  V30 6074 H 583.845 -0.295553 -4.97924 0
M  V30 6075 H 582.999 1.92984 -5.75189 0
M  V30 6076 H 581.738 1.91137 -4.48685 0
M  V30 6077 H 580.743 -0.160999 -5.49564 0
M  V30 6078 H 581.968 -0.124183 -6.78986 0
M  V30 6079 H 579.913 2.04931 -6.23169 0
M  V30 6080 H 579.831 0.880345 -7.50857 0
M  V30 6081 H 581.099 2.0695 -7.51526 0
M  V30 6082 N 585.328 1.53329 -0.364422 0
M  V30 6083 C 586.556 2.05657 0.226424 0
M  V30 6084 C 586.971 1.23801 1.42544 0
M  V30 6085 O 586.328 0.27839 1.80364 0
M  V30 6086 C 586.379 3.56125 0.621056 0
M  V30 6087 O 586.1 4.34879 -0.530304 0
M  V30 6088 C 587.601 4.24706 1.27041 0
M  V30 6089 H 584.821 0.669806 0.0400056 0
M  V30 6090 H 587.365 1.97714 -0.522456 0
M  V30 6091 H 585.52 3.64223 1.31985 0
M  V30 6092 H 585.934 5.24073 -0.211546 0
M  V30 6093 H 587.408 5.3131 1.49711 0
M  V30 6094 H 587.885 3.78354 2.23036 0
M  V30 6095 H 588.491 4.20858 0.613079 0
M  V30 6096 N 586.806 0.0935595 1.57322 0
M  V30 6097 C 588.034 -0.578934 1.98635 0
M  V30 6098 C 588.449 -1.61819 0.972626 0
M  V30 6099 O 587.806 -1.82461 -0.0379638 0
M  V30 6100 C 587.857 -1.22802 3.40003 0
M  V30 6101 O 587.578 -0.230334 4.37494 0
M  V30 6102 C 589.079 -1.98627 3.96311 0
M  V30 6103 H 586.299 -0.155324 0.652775 0
M  V30 6104 H 588.843 0.172393 2.03772 0
M  V30 6105 H 586.998 -1.93029 3.35885 0
M  V30 6106 H 587.412 -0.698649 5.19826 0
M  V30 6107 H 588.886 -2.39405 4.97382 0
M  V30 6108 H 589.363 -2.85151 3.34044 0
M  V30 6109 H 589.969 -1.3322 4.03897 0
M  V30 6110 N 588.284 -1.56567 -0.180126 0
M  V30 6111 C 589.695 -1.7126 -0.743422 0
M  V30 6112 C 590.046 -0.70263 -1.83187 0
M  V30 6113 O 589.171 0.137856 -2.1596 0
M  V30 6114 C 589.766 -3.10512 -1.35528 0
M  V30 6115 C 588.325 -3.26919 -1.8655 0
M  V30 6116 C 587.472 -2.67213 -0.741099 0
M  V30 6117 H 590.423 -1.58636 0.0451543 0
M  V30 6118 H 590.444 -3.08673 -2.22489 0
M  V30 6119 H 589.956 -3.83997 -0.562862 0
M  V30 6120 H 588.057 -2.58376 -2.68464 0
M  V30 6121 H 588.17 -4.34574 -2.01699 0
M  V30 6122 H 586.534 -2.26788 -1.15927 0
M  V30 6123 H 587.317 -3.43277 0.0393291 0
M  V30 6124 N 589.762 0.448376 -1.51087 0
M  V30 6125 C 591.173 1.0286 -1.5581 0
M  V30 6126 C 591.524 1.92583 -0.374989 0
M  V30 6127 O 590.649 2.10316 0.509533 0
M  V30 6128 C 591.244 1.87223 -2.8237 0
M  V30 6129 C 589.803 2.40314 -2.897 0
M  V30 6130 C 588.95 1.19238 -2.50355 0
M  V30 6131 H 591.901 0.230075 -1.57023 0
M  V30 6132 H 591.922 2.72553 -2.6551 0
M  V30 6133 H 591.434 1.21894 -3.68461 0
M  V30 6134 H 589.535 3.09129 -2.08014 0
M  V30 6135 H 589.648 2.73866 -3.93108 0
M  V30 6136 H 588.012 1.53428 -2.03303 0
M  V30 6137 H 588.795 0.555367 -3.38778 0
M  V30 6138 N 591.24 1.41047 0.703093 0
M  V30 6139 C 592.486 1.40207 1.46526 0
M  V30 6140 C 592.819 0.00847763 1.94198 0
M  V30 6141 O 592.094 -0.962437 1.69019 0
M  V30 6142 C 592.377 2.40238 2.6825 0
M  V30 6143 C 592.23 3.88674 2.26391 0
M  V30 6144 C 593.549 2.37627 3.70434 0
M  V30 6145 H 590.668 0.510594 0.531472 0
M  V30 6146 H 593.31 1.72271 0.801422 0
M  V30 6147 H 591.46 2.13026 3.24888 0
M  V30 6148 H 593.132 4.2676 1.75138 0
M  V30 6149 H 591.375 4.03903 1.58255 0
M  V30 6150 H 592.046 4.542 3.13698 0
M  V30 6151 H 594.522 2.61759 3.23452 0
M  V30 6152 H 593.398 3.09645 4.53223 0
M  V30 6153 H 593.659 1.39223 4.19606 0
M  V30 6154 N 592.718 -0.936591 1.26751 0
M  V30 6155 C 593.648 -2.05315 1.11212 0
M  V30 6156 C 594.629 -1.70092 0.0160262 0
M  V30 6157 O 595.814 -1.93279 0.188894 0
M  V30 6158 C 592.944 -3.39123 0.749171 0
M  V30 6159 C 591.898 -3.88425 1.79751 0
M  V30 6160 C 591.224 -5.18936 1.28876 0
M  V30 6161 C 592.524 -4.12798 3.19992 0
M  V30 6162 H 594.218 -2.18573 2.04613 0
M  V30 6163 H 591.764 -1.05027 0.985159 0
M  V30 6164 H 593.717 -4.16704 0.627323 0
M  V30 6165 H 592.441 -3.25855 -0.220543 0
M  V30 6166 H 591.1 -3.13028 1.90811 0
M  V30 6167 H 590.748 -5.02051 0.308757 0
M  V30 6168 H 590.448 -5.52892 1.98958 0
M  V30 6169 H 591.972 -5.99096 1.17967 0
M  V30 6170 H 593.386 -4.80977 3.11983 0
M  V30 6171 H 591.783 -4.58044 3.87705 0
M  V30 6172 H 592.853 -3.18412 3.65707 0
M  V30 6173 N 594.196 -1.08629 -1.14182 0
M  V30 6174 C 595.473 -0.73002 -1.81466 0
M  V30 6175 C 595.853 0.785996 -1.95922 0
M  V30 6176 O 595.201 1.70535 -1.52086 0
M  V30 6177 C 595.411 -1.45957 -3.17014 0
M  V30 6178 C 596.759 -1.62008 -3.92477 0
M  V30 6179 O 597.783 -1.42141 -3.26611 0
M  V30 6180 O 596.642 -1.94806 -5.106 0
M  V30 6181 H 593.736 -0.261307 -0.784632 0
M  V30 6182 H 596.282 -1.188 -1.2118 0
M  V30 6183 H 595.054 -2.49221 -3.01669 0
M  V30 6184 H 594.677 -0.993222 -3.84995 0
M  V30 6185 N 595.674 1.31259 -0.872281 0
M  V30 6186 C 596.899 2.0133 -0.498099 0
M  V30 6187 C 597.324 1.65031 0.902568 0
M  V30 6188 O 596.682 0.860164 1.59596 0
M  V30 6189 C 596.73 3.54411 -0.665205 0
M  V30 6190 O 595.834 4.11347 0.294473 0
M  V30 6191 H 595.175 0.633844 -0.197832 0
M  V30 6192 H 597.705 1.67402 -1.17633 0
M  V30 6193 H 597.715 4.04147 -0.559373 0
M  V30 6194 H 596.39 3.80171 -1.68651 0
M  V30 6195 H 594.967 3.72624 0.143403 0
M  V30 6196 N 597.152 0.631951 1.44375 0
M  V30 6197 C 598.429 0.067646 1.95483 0
M  V30 6198 C 598.809 -1.40683 1.57389 0
M  V30 6199 O 598.157 -2.12167 0.848375 0
M  V30 6200 C 598.367 0.291392 3.47781 0
M  V30 6201 C 599.715 0.185028 4.24197 0
M  V30 6202 O 600.739 0.222803 3.55503 0
M  V30 6203 O 599.598 0.0906642 5.46425 0
M  V30 6204 H 596.692 -0.0218379 0.826712 0
M  V30 6205 H 599.238 0.703711 1.54421 0
M  V30 6206 H 598.01 1.31449 3.68561 0
M  V30 6207 H 597.633 -0.378772 3.95792 0
M  V30 6208 N 598.631 -1.53133 0.372548 0
M  V30 6209 C 599.879 -2.00958 -0.214534 0
M  V30 6210 C 600.2 -1.26135 -1.48711 0
M  V30 6211 O 599.47 -0.376597 -1.92246 0
M  V30 6212 H 598.05 -0.742456 -0.0822664 0
M  V30 6213 H 600.712 -1.88367 0.500385 0
M  V30 6214 H 599.808 -3.09031 -0.436605 0
M  V30 6215 N 600.109 -0.101901 -1.5727 0
M  V30 6216 C 601.334 0.571759 -1.99363 0
M  V30 6217 C 601.759 1.60507 -0.980768 0
M  V30 6218 O 601.117 1.81231 0.0498517 0
M  V30 6219 C 601.165 1.18996 -3.404 0
M  V30 6220 O 600.269 2.30572 -3.41922 0
M  V30 6221 H 599.61 0.144449 -0.648098 0
M  V30 6222 H 602.14 -0.185325 -2.03759 0
M  V30 6223 H 602.15 1.52962 -3.78241 0
M  V30 6224 H 600.825 0.432984 -4.1364 0
M  V30 6225 H 599.402 1.98173 -3.15883 0
M  V30 6226 N 601.587 1.56661 0.17182 0
M  V30 6227 C 602.834 1.81965 0.888529 0
M  V30 6228 C 603.162 0.6789 1.82267 0
M  V30 6229 O 602.417 -0.333875 1.92831 0
M  V30 6230 C 602.716 3.13435 1.71736 0
M  V30 6231 C 602.382 4.41159 0.932184 0
M  V30 6232 C 601.044 4.75851 0.715481 0
M  V30 6233 C 603.396 5.19803 0.381387 0
M  V30 6234 C 600.724 5.86666 -0.063126 0
M  V30 6235 C 603.076 6.31433 -0.384129 0
M  V30 6236 C 601.74 6.64692 -0.611637 0
M  V30 6237 H 601.01 0.665859 0.325136 0
M  V30 6238 H 603.657 1.90884 0.153495 0
M  V30 6239 H 601.962 2.99857 2.52177 0
M  V30 6240 H 603.659 3.30224 2.27493 0
M  V30 6241 H 600.249 4.13947 1.11112 0
M  V30 6242 H 604.433 4.93396 0.536148 0
M  V30 6243 H 599.689 6.10892 -0.249136 0
M  V30 6244 H 603.863 6.91577 -0.818185 0
M  V30 6245 H 601.49 7.50398 -1.21684 0
M  V30 6246 N 603.065 -0.440357 1.51323 0
M  V30 6247 C 604.312 -1.19004 1.63842 0
M  V30 6248 C 604.64 -1.91266 0.35321 0
M  V30 6249 O 603.895 -1.84143 -0.662565 0
M  V30 6250 C 604.194 -2.2339 2.78984 0
M  V30 6251 C 603.86 -1.68162 4.18369 0
M  V30 6252 C 602.522 -1.52823 4.56288 0
M  V30 6253 C 604.874 -1.27524 5.05358 0
M  V30 6254 C 602.202 -0.953157 5.78906 0
M  V30 6255 C 604.554 -0.714474 6.28552 0
M  V30 6256 C 603.218 -0.547961 6.65247 0
M  V30 6257 H 602.488 -0.435468 0.59954 0
M  V30 6258 H 605.135 -0.481538 1.85347 0
M  V30 6259 H 603.44 -3.00267 2.51688 0
M  V30 6260 H 605.137 -2.81211 2.85869 0
M  V30 6261 H 601.727 -1.81077 3.8847 0
M  V30 6262 H 605.911 -1.38197 4.76671 0
M  V30 6263 H 601.167 -0.811882 6.05986 0
M  V30 6264 H 605.341 -0.391059 6.95301 0
M  V30 6265 H 602.968 -0.100222 7.60134 0
M  V30 6266 N 604.543 -1.41418 -0.695603 0
M  V30 6267 C 605.473 -1.46035 -1.82197 0
M  V30 6268 C 606.454 -0.319025 -1.67082 0
M  V30 6269 O 607.639 -0.530462 -1.86815 0
M  V30 6270 C 604.769 -1.34179 -3.20333 0
M  V30 6271 C 603.723 -2.46123 -3.50154 0
M  V30 6272 C 603.049 -2.19332 -4.87645 0
M  V30 6273 C 604.349 -3.88463 -3.49133 0
M  V30 6274 H 606.043 -2.40303 -1.78591 0
M  V30 6275 H 603.589 -1.15663 -0.857797 0
M  V30 6276 H 605.542 -1.36021 -3.98844 0
M  V30 6277 H 604.266 -0.363952 -3.24566 0
M  V30 6278 H 602.925 -2.43563 -2.73994 0
M  V30 6279 H 602.573 -1.19891 -4.88503 0
M  V30 6280 H 602.273 -2.94344 -5.08562 0
M  V30 6281 H 603.797 -2.22889 -5.68465 0
M  V30 6282 H 605.211 -3.92738 -4.17648 0
M  V30 6283 H 603.608 -4.63158 -3.81582 0
M  V30 6284 H 604.678 -4.16617 -2.48109 0
M  V30 6285 N 606.021 0.929856 -1.27246 0
M  V30 6286 C 607.251 1.70895 -1.16096 0
M  V30 6287 C 607.659 1.87039 0.285122 0
M  V30 6288 O 607.002 1.38557 1.20614 0
M  V30 6289 C 607.064 3.12919 -1.7698 0
M  V30 6290 C 606.728 3.2012 -3.26148 0
M  V30 6291 C 607.725 3.02533 -4.22812 0
M  V30 6292 C 605.41 3.43148 -3.66817 0
M  V30 6293 C 607.404 3.07861 -5.58122 0
M  V30 6294 C 605.091 3.48109 -5.02258 0
M  V30 6295 C 606.089 3.30483 -5.97721 0
M  V30 6296 O 605.777 3.35175 -7.30694 0
M  V30 6297 H 605.509 0.54152 -0.404639 0
M  V30 6298 H 608.063 1.17342 -1.68582 0
M  V30 6299 H 606.293 3.67945 -1.18969 0
M  V30 6300 H 607.982 3.72787 -1.60576 0
M  V30 6301 H 608.748 2.84586 -3.92728 0
M  V30 6302 H 604.627 3.55918 -2.9299 0
M  V30 6303 H 608.171 2.94021 -6.32612 0
M  V30 6304 H 604.068 3.65579 -5.31998 0
M  V30 6305 H 604.836 3.51644 -7.39114 0
M  V30 6306 N 607.499 1.09233 1.13605 0
M  V30 6307 C 608.724 0.849067 1.89224 0
M  V30 6308 C 609.149 -0.593875 1.78479 0
M  V30 6309 O 608.507 -1.41703 1.13092 0
M  V30 6310 C 608.555 1.28642 3.36873 0
M  V30 6311 O 607.659 0.44363 4.10007 0
M  V30 6312 H 607 0.30767 0.588417 0
M  V30 6313 H 609.53 1.45595 1.43748 0
M  V30 6314 H 609.54 1.27096 3.87699 0
M  V30 6315 H 608.215 2.33729 3.44011 0
M  V30 6316 H 606.792 0.523241 3.69211 0
M  V30 6317 N 608.977 -1.30795 0.87923 0
M  V30 6318 C 609.924 -2.28282 0.339968 0
M  V30 6319 C 610.894 -1.56134 -0.566685 0
M  V30 6320 O 612.079 -1.84231 -0.496338 0
M  V30 6321 C 609.219 -3.42225 -0.444501 0
M  V30 6322 C 608.332 -4.29204 0.490717 0
M  V30 6323 C 607.467 -5.30302 -0.308784 0
M  V30 6324 C 606.506 -6.08929 0.622272 0
M  V30 6325 N 605.643 -7.01957 -0.14155 0
M  V30 6326 H 610.483 -2.73794 1.17647 0
M  V30 6327 H 608.02 -1.34682 0.591527 0
M  V30 6328 H 609.978 -4.07038 -0.915186 0
M  V30 6329 H 608.608 -2.97799 -1.24562 0
M  V30 6330 H 607.66 -3.6475 1.07988 0
M  V30 6331 H 608.972 -4.84045 1.20425 0
M  V30 6332 H 608.126 -6.00835 -0.841575 0
M  V30 6333 H 606.865 -4.7614 -1.05556 0
M  V30 6334 H 605.87 -5.37278 1.16674 0
M  V30 6335 H 607.095 -6.65178 1.36804 0
M  V30 6336 H 605.041 -6.50192 -0.870966 0
M  V30 6337 H 604.958 -7.54261 0.51246 0
M  V30 6338 H 606.226 -7.76741 -0.655271 0
M  V30 6339 N 610.455 -0.639598 -1.44038 0
M  V30 6340 C 611.385 0.0469443 -2.33453 0
M  V30 6341 C 612.366 0.82609 -1.48694 0
M  V30 6342 O 613.551 0.790285 -1.77393 0
M  V30 6343 C 610.681 1.02338 -3.3188 0
M  V30 6344 C 609.635 0.355284 -4.26523 0
M  V30 6345 C 608.961 1.44221 -5.14883 0
M  V30 6346 C 610.261 -0.743798 -5.16977 0
M  V30 6347 H 611.955 -0.699735 -2.91108 0
M  V30 6348 H 609.501 -0.337946 -1.39978 0
M  V30 6349 H 611.454 1.51247 -3.93322 0
M  V30 6350 H 610.178 1.80105 -2.72451 0
M  V30 6351 H 608.837 -0.113239 -3.66425 0
M  V30 6352 H 608.485 2.21097 -4.51802 0
M  V30 6353 H 608.185 1.00052 -5.79019 0
M  V30 6354 H 609.709 1.93295 -5.79197 0
M  V30 6355 H 611.123 -0.337444 -5.72306 0
M  V30 6356 H 609.52 -1.10914 -5.89761 0
M  V30 6357 H 610.59 -1.60745 -4.57481 0
M  V30 6358 N 611.933 1.52934 -0.380664 0
M  V30 6359 C 613.161 2.05886 0.204599 0
M  V30 6360 C 613.576 1.25305 1.41223 0
M  V30 6361 O 612.933 0.297504 1.80059 0
M  V30 6362 C 612.984 3.56764 0.583249 0
M  V30 6363 O 612.705 4.34292 -0.576398 0
M  V30 6364 C 614.206 4.2603 1.2253 0
M  V30 6365 H 611.426 0.670193 0.0328991 0
M  V30 6366 H 613.97 1.97148 -0.543397 0
M  V30 6367 H 612.125 3.65603 1.28115 0
M  V30 6368 H 612.539 5.23819 -0.267119 0
M  V30 6369 H 614.013 5.32868 1.44068 0
M  V30 6370 H 614.49 3.80698 2.19011 0
M  V30 6371 H 615.096 4.21485 0.568407 0
M  V30 6372 N 613.412 0.11024 1.57214 0
M  V30 6373 C 614.658 -0.550684 1.9518 0
M  V30 6374 C 614.991 -1.66885 0.993122 0
M  V30 6375 O 614.266 -1.94479 0.0287907 0
M  V30 6376 C 614.549 -1.09163 3.43155 0
M  V30 6377 C 614.402 0.0225198 4.49794 0
M  V30 6378 C 615.721 -1.98527 3.92778 0
M  V30 6379 H 612.84 -0.198706 0.709708 0
M  V30 6380 H 615.482 0.184024 1.89107 0
M  V30 6381 H 613.632 -1.71775 3.48462 0
M  V30 6382 H 615.304 0.657443 4.56591 0
M  V30 6383 H 613.547 0.686868 4.28328 0
M  V30 6384 H 614.218 -0.39706 5.5057 0
M  V30 6385 H 616.694 -1.458 3.8972 0
M  V30 6386 H 615.57 -2.33298 4.96853 0
M  V30 6387 H 615.831 -2.90846 3.32958 0
M  V30 6388 N 614.89 -1.56749 -0.16351 0
M  V30 6389 C 616.167 -1.73321 -0.906599 0
M  V30 6390 C 616.547 -0.673779 -2.00059 0
M  V30 6391 O 615.895 0.310121 -2.26386 0
M  V30 6392 C 616.105 -3.168 -1.46419 0
M  V30 6393 C 617.453 -3.77993 -1.93407 0
M  V30 6394 O 618.477 -3.20127 -1.56196 0
M  V30 6395 O 617.336 -4.79615 -2.61976 0
M  V30 6396 H 614.43 -0.708073 -0.427272 0
M  V30 6397 H 616.976 -1.69029 -0.150727 0
M  V30 6398 H 615.748 -3.85396 -0.677189 0
M  V30 6399 H 615.371 -3.2545 -2.28403 0
M  V30 6400 N 616.368 0.432326 -1.51554 0
M  V30 6401 C 617.315 1.52512 -1.7323 0
M  V30 6402 C 618.285 1.55863 -0.5741 0
M  V30 6403 O 619.47 1.72796 -0.809093 0
M  V30 6404 C 616.61 2.90183 -1.86783 0
M  V30 6405 C 615.723 2.96322 -3.14352 0
M  V30 6406 C 614.858 4.25147 -3.18471 0
M  V30 6407 C 613.897 4.25172 -4.40335 0
M  V30 6408 N 613.034 5.45529 -4.41975 0
M  V30 6409 H 617.874 1.33332 -2.66508 0
M  V30 6410 H 615.411 0.647613 -1.32077 0
M  V30 6411 H 617.369 3.70071 -1.92623 0
M  V30 6412 H 615.999 3.0791 -0.969087 0
M  V30 6413 H 615.051 2.09066 -3.17798 0
M  V30 6414 H 616.363 2.92203 -4.04251 0
M  V30 6415 H 615.517 5.13411 -3.23255 0
M  V30 6416 H 614.256 4.31929 -2.2647 0
M  V30 6417 H 613.261 3.353 -4.35723 0
M  V30 6418 H 614.486 4.20049 -5.33606 0
M  V30 6419 H 612.432 5.53024 -3.52847 0
M  V30 6420 H 612.349 5.43311 -5.25689 0
M  V30 6421 H 613.617 6.35812 -4.50958 0
M  V30 6422 N 617.846 1.41785 0.688094 0
M  V30 6423 C 619.071 1.45117 1.48175 0
M  V30 6424 C 619.496 0.060129 1.88004 0
M  V30 6425 O 618.854 -0.938385 1.55126 0
M  V30 6426 C 618.902 2.37224 2.71583 0
M  V30 6427 O 618.006 1.83443 3.69354 0
M  V30 6428 H 617.347 0.492208 0.445676 0
M  V30 6429 H 619.877 1.86329 0.845145 0
M  V30 6430 H 619.887 2.53353 3.19806 0
M  V30 6431 H 618.562 3.38293 2.41931 0
M  V30 6432 H 617.139 1.76802 3.28322 0
M  V30 6433 N 619.324 -0.923095 1.27737 0
M  V30 6434 C 620.74 -1.19985 1.05241 0
M  V30 6435 C 620.94 -2.00391 -0.21113 0
M  V30 6436 O 619.996 -2.35324 -0.915366 0
M  V30 6437 C 621.309 -1.94352 2.29451 0
M  V30 6438 C 622.857 -2.07273 2.34536 0
M  V30 6439 C 623.332 -2.85046 3.58487 0
M  V30 6440 N 624.823 -2.92612 3.59072 0
M  V30 6441 C 625.558 -3.53266 4.51654 0
M  V30 6442 N 625.054 -4.15274 5.54545 0
M  V30 6443 N 626.847 -3.50714 4.39268 0
M  V30 6444 H 618.998 -0.386042 2.08862 0
M  V30 6445 H 621.261 -0.233407 0.918817 0
M  V30 6446 H 620.967 -1.42692 3.21453 0
M  V30 6447 H 620.841 -2.94947 2.3513 0
M  V30 6448 H 623.228 -2.58117 1.43037 0
M  V30 6449 H 623.309 -1.05884 2.32857 0
M  V30 6450 H 622.953 -2.34884 4.50324 0
M  V30 6451 H 622.883 -3.8673 3.57418 0
M  V30 6452 H 625.374 -2.48547 2.84663 0
M  V30 6453 H 625.687 -4.59507 6.21348 0
M  V30 6454 H 624.032 -4.13806 5.58382 0
M  V30 6455 H 627.223 -3.01475 3.58093 0
M  V30 6456 H 627.396 -3.97693 5.1161 0
M  V30 6457 N 620.802 -1.09834 -1.13024 0
M  V30 6458 C 622.048 -0.848072 -1.84876 0
M  V30 6459 C 622.403 0.619663 -1.82148 0
M  V30 6460 O 621.696 1.45067 -1.25164 0
M  V30 6461 C 621.89 -1.32263 -3.32026 0
M  V30 6462 C 621.719 -2.83497 -3.49084 0
M  V30 6463 C 620.489 -3.51425 -3.63082 0
M  V30 6464 C 622.687 -3.81623 -3.44773 0
M  V30 6465 N 620.669 -4.91042 -3.68443 0
M  V30 6466 C 622.04 -5.07217 -3.56555 0
M  V30 6467 C 624.095 -3.74419 -3.282 0
M  V30 6468 C 622.798 -6.26457 -3.53474 0
M  V30 6469 C 624.824 -4.93151 -3.26429 0
M  V30 6470 C 624.186 -6.1759 -3.38765 0
M  V30 6471 H 620.285 -0.363249 -0.692513 0
M  V30 6472 H 622.869 -1.39952 -1.35357 0
M  V30 6473 H 621.04 -0.79858 -3.80102 0
M  V30 6474 H 622.772 -1.01725 -3.91707 0
M  V30 6475 H 619.527 -3.0186 -3.64935 0
M  V30 6476 H 619.951 -5.63782 -3.74805 0
M  V30 6477 H 624.593 -2.79132 -3.17561 0
M  V30 6478 H 622.311 -7.22039 -3.62884 0
M  V30 6479 H 625.897 -4.8928 -3.14796 0
M  V30 6480 H 624.777 -7.07925 -3.37361 0
M  V30 6481 N 622.28 1.30327 -0.886154 0
M  V30 6482 C 623.212 2.27079 -0.311072 0
M  V30 6483 C 624.225 1.53758 0.53502 0
M  V30 6484 O 625.414 1.74947 0.354378 0
M  V30 6485 C 622.514 3.33965 0.576228 0
M  V30 6486 C 621.687 4.36735 -0.241064 0
M  V30 6487 C 620.746 5.23028 0.576916 0
M  V30 6488 O 619.772 5.692 -0.000802231 0
M  V30 6489 N 620.974 5.49016 1.88579 0
M  V30 6490 H 623.739 2.77065 -1.14259 0
M  V30 6491 H 621.3 1.43519 -0.749258 0
M  V30 6492 H 623.292 3.88618 1.12953 0
M  V30 6493 H 621.862 2.839 1.30842 0
M  V30 6494 H 621.082 3.81932 -0.975805 0
M  V30 6495 H 622.37 5.02451 -0.801272 0
M  V30 6496 H 621.768 5.13288 2.37806 0
M  V30 6497 H 620.325 6.06539 2.38651 0
M  V30 6498 N 623.758 0.647228 1.43697 0
M  V30 6499 C 624.69 -0.0866232 2.29036 0
M  V30 6500 C 625.703 -0.793051 1.42178 0
M  V30 6501 O 626.892 -0.651807 1.66174 0
M  V30 6502 C 623.992 -1.14552 3.18953 0
M  V30 6503 C 623.165 -0.518422 4.34317 0
M  V30 6504 C 622.224 -1.4734 5.05151 0
M  V30 6505 O 621.25 -0.984312 5.60625 0
M  V30 6506 N 622.452 -2.8075 5.08094 0
M  V30 6507 H 625.217 0.645834 2.92659 0
M  V30 6508 H 622.778 0.489567 1.54321 0
M  V30 6509 H 624.77 -1.78505 3.63205 0
M  V30 6510 H 623.34 -1.78001 2.56971 0
M  V30 6511 H 622.56 0.300079 3.93056 0
M  V30 6512 H 623.848 -0.080401 5.08736 0
M  V30 6513 H 623.246 -3.23052 4.64386 0
M  V30 6514 H 621.803 -3.40022 5.56083 0
M  V30 6515 N 625.236 -1.5273 0.388769 0
M  V30 6516 C 626.484 -2.01174 -0.193208 0
M  V30 6517 C 626.805 -1.27705 -1.47365 0
M  V30 6518 O 626.075 -0.396966 -1.91836 0
M  V30 6519 H 624.655 -0.743287 -0.0743871 0
M  V30 6520 H 627.317 -1.87826 0.520336 0
M  V30 6521 H 626.413 -3.09477 -0.403803 0
M  V30 6522 N 626.714 -0.118576 -1.57153 0
M  V30 6523 C 627.662 0.849114 -2.16547 0
M  V30 6524 C 628.656 1.27567 -1.11458 0
M  V30 6525 O 629.862 1.24746 -1.29763 0
M  V30 6526 H 626.237 0.291935 -0.693021 0
M  V30 6527 H 628.208 0.323693 -2.96639 0
M  V30 6528 C 626.957 2.08951 -2.77912 0
M  V30 6529 H 626.28 1.77021 -3.58474 0
M  V30 6530 H 627.72 2.74666 -3.23008 0
M  V30 6531 C 626.179 2.87899 -1.74974 0
M  V30 6532 O 626.709 3.83268 -1.20285 0
M  V30 6533 N 624.915 2.51884 -1.44924 0
M  V30 6534 H 624.462 1.74397 -1.89587 0
M  V30 6535 H 624.42 3.05003 -0.762921 0
M  V30 6536 N 628.193 1.56834 0.155195 0
M  V30 6537 C 629.439 1.83169 0.870467 0
M  V30 6538 C 629.772 0.698929 1.81187 0
M  V30 6539 O 629.047 -0.298035 1.92203 0
M  V30 6540 C 629.33 3.19965 1.65211 0
M  V30 6541 C 629.183 4.43792 0.732744 0
M  V30 6542 C 630.502 3.53885 2.61636 0
M  V30 6543 H 627.621 0.666288 0.315006 0
M  V30 6544 H 630.263 1.89513 0.135988 0
M  V30 6545 H 628.413 3.14687 2.27825 0
M  V30 6546 H 630.085 4.61148 0.118236 0
M  V30 6547 H 628.328 4.3378 0.0417906 0
M  V30 6548 H 628.999 5.36095 1.31552 0
M  V30 6549 H 631.475 3.5972 2.09143 0
M  V30 6550 H 630.351 4.50648 3.13381 0
M  V30 6551 H 630.612 2.79418 3.42605 0
M  V30 6552 N 629.671 -0.424282 1.51781 0
M  V30 6553 C 630.918 -1.1726 1.65095 0
M  V30 6554 C 631.246 -1.90881 0.373477 0
M  V30 6555 O 630.501 -1.84835 -0.642997 0
M  V30 6556 C 630.8 -2.20418 2.81337 0
M  V30 6557 C 630.466 -1.63715 4.20129 0
M  V30 6558 C 629.128 -1.47975 4.57883 0
M  V30 6559 C 631.48 -1.22157 5.06682 0
M  V30 6560 C 628.808 -0.891703 5.79884 0
M  V30 6561 C 631.16 -0.647767 6.29275 0
M  V30 6562 C 629.824 -0.477371 6.65791 0
M  V30 6563 H 629.094 -0.429085 0.604125 0
M  V30 6564 H 631.741 -0.461852 1.85847 0
M  V30 6565 H 630.046 -2.97581 2.54859 0
M  V30 6566 H 631.743 -2.78163 2.88836 0
M  V30 6567 H 628.333 -1.76946 3.90369 0
M  V30 6568 H 632.517 -1.33133 4.7811 0
M  V30 6569 H 627.773 -0.747563 6.06813 0
M  V30 6570 H 631.947 -0.317291 6.95677 0
M  V30 6571 H 629.574 -0.0195936 7.60197 0
M  V30 6572 N 631.149 -1.42148 -0.680565 0
M  V30 6573 C 632.374 -1.45901 -1.47403 0
M  V30 6574 C 632.799 -0.0700985 -1.87969 0
M  V30 6575 O 632.157 0.930145 -1.55621 0
M  V30 6576 C 632.205 -2.38661 -2.70321 0
M  V30 6577 O 631.309 -1.85399 -3.68376 0
M  V30 6578 H 630.65 -0.494565 -0.443059 0
M  V30 6579 H 633.18 -1.86774 -0.835251 0
M  V30 6580 H 633.19 -2.55046 -3.18458 0
M  V30 6581 H 631.865 -3.39571 -2.40134 0
M  V30 6582 H 630.442 -1.78541 -3.2738 0
M  V30 6583 N 632.627 0.916307 -1.28225 0
M  V30 6584 C 633.867 1.67964 -1.16479 0
M  V30 6585 C 634.231 1.8991 0.282494 0
M  V30 6586 O 635.432 2.63671 0.522607 0
M  V30 6587 C 633.703 3.00251 -1.93866 0
M  V30 6588 S 635.262 3.91353 -1.98465 0
M  V30 6589 H 632.08 0.576873 -0.415619 0
M  V30 6590 H 634.682 1.09006 -1.62289 0
M  V30 6591 H 633.386 2.81978 -2.98189 0
M  V30 6592 H 632.917 3.64257 -1.48595 0
M  V30 6593 H 634.932 4.84096 -1.0893 0
M  V30 6594 N 634.105 1.10431 1.1244 0
M  V30 6595 C 635.33 0.869089 1.88313 0
M  V30 6596 C 635.755 -0.574912 1.79099 0
M  V30 6597 O 635.113 -1.40496 1.14589 0
M  V30 6598 C 635.161 1.32208 3.3549 0
M  V30 6599 O 634.265 0.487092 4.09513 0
M  V30 6600 H 633.606 0.313894 0.585121 0
M  V30 6601 H 636.136 1.47111 1.42195 0
M  V30 6602 H 636.146 1.31201 3.86329 0
M  V30 6603 H 634.821 2.37364 3.41513 0
M  V30 6604 H 633.398 0.562372 3.68635 0
M  V30 6605 N 635.583 -1.29855 0.893053 0
M  V30 6606 C 636.829 -1.96116 0.516349 0
M  V30 6607 C 637.162 -1.70281 -0.933695 0
M  V30 6608 O 636.437 -1.01205 -1.66096 0
M  V30 6609 C 636.72 -3.51068 0.801455 0
M  V30 6610 C 636.573 -3.86387 2.30272 0
M  V30 6611 C 637.892 -4.39186 0.283423 0
M  V30 6612 H 635.011 -0.712335 0.189072 0
M  V30 6613 H 637.653 -1.53587 1.11852 0
M  V30 6614 H 635.803 -3.87424 0.288949 0
M  V30 6615 H 637.475 -3.60012 2.88425 0
M  V30 6616 H 635.718 -3.34167 2.76613 0
M  V30 6617 H 636.389 -4.94512 2.45279 0
M  V30 6618 H 638.865 -4.09785 0.722187 0
M  V30 6619 H 637.741 -5.46505 0.512169 0
M  V30 6620 H 638.002 -4.34511 -0.815643 0
M  V30 6621 N 637.061 -0.65484 -1.43351 0
M  V30 6622 C 637.994 0.0855537 -2.2804 0
M  V30 6623 C 638.972 0.828301 -1.39921 0
M  V30 6624 O 640.156 0.827539 -1.69364 0
M  V30 6625 C 637.283 1.12792 -3.19368 0
M  V30 6626 C 636.329 0.483037 -4.23756 0
M  V30 6627 S 637.162 -0.744605 -5.30298 0
M  V30 6628 C 638.318 0.297187 -6.25194 0
M  V30 6629 H 638.551 -0.632831 -2.90487 0
M  V30 6630 H 636.084 -0.44373 -1.47886 0
M  V30 6631 H 638.042 1.7243 -3.72529 0
M  V30 6632 H 636.703 1.81863 -2.56095 0
M  V30 6633 H 635.896 1.26888 -4.87766 0
M  V30 6634 H 635.498 -0.0392713 -3.73979 0
M  V30 6635 H 637.79 1.1629 -6.67445 0
M  V30 6636 H 638.733 -0.30793 -7.0743 0
M  V30 6637 H 639.141 0.633721 -5.60932 0
M  V30 6638 N 638.539 1.52521 -0.396863 0
M  V30 6639 C 639.489 2.2348 0.451722 0
M  V30 6640 C 640.473 1.2415 1.0235 0
M  V30 6641 O 641.665 1.4945 0.948348 0
M  V30 6642 C 638.794 3.05067 1.57445 0
M  V30 6643 C 637.88 4.11799 1.01404 0
M  V30 6644 N 638.271 5.05482 0.179234 0
M  V30 6645 C 636.569 4.27064 1.28578 0
M  V30 6646 C 637.27 5.81552 -0.131202 0
M  V30 6647 N 636.246 5.41523 0.474735 0
M  V30 6648 H 640.048 2.93269 -0.192534 0
M  V30 6649 H 637.562 1.61081 -0.206591 0
M  V30 6650 H 639.559 3.54446 2.19485 0
M  V30 6651 H 638.219 2.36816 2.22145 0
M  V30 6652 H 639.23 5.17573 -0.18411 0
M  V30 6653 H 635.907 3.70042 1.93327 0
M  V30 6654 H 637.297 6.67023 -0.808061 0
M  V30 6655 N 640.017 0.126909 1.57088 0
M  V30 6656 C 640.927 -0.833867 2.1928 0
M  V30 6657 C 641.943 -1.2868 1.17122 0
M  V30 6658 O 643.119 -1.34815 1.49622 0
M  V30 6659 C 640.184 -2.0632 2.78627 0
M  V30 6660 C 639.245 -1.66143 3.95847 0
M  V30 6661 C 638.478 -2.83217 4.52354 0
M  V30 6662 O 638.701 -3.98868 4.0775 0
M  V30 6663 O 637.635 -2.59846 5.42922 0
M  V30 6664 H 641.461 -0.334564 3.01852 0
M  V30 6665 H 639.046 -0.0991091 1.49071 0
M  V30 6666 H 640.928 -2.78304 3.16425 0
M  V30 6667 H 639.603 -2.55242 1.99082 0
M  V30 6668 H 638.51 -0.912435 3.62802 0
M  V30 6669 H 639.843 -1.21957 4.76852 0
M  V30 6670 N 641.495 -1.56914 -0.146875 0
M  V30 6671 C 642.458 -1.97368 -1.16526 0
M  V30 6672 C 643.458 -0.860223 -1.35856 0
M  V30 6673 O 644.648 -1.12684 -1.32846 0
M  V30 6674 C 641.78 -2.28974 -2.52555 0
M  V30 6675 H 642.973 -2.88523 -0.818209 0
M  V30 6676 H 640.526 -1.5135 -0.390221 0
M  V30 6677 H 641.261 -1.40611 -2.92231 0
M  V30 6678 H 641.046 -3.10157 -2.39886 0
M  V30 6679 H 642.536 -2.61109 -3.25902 0
M  V30 6680 N 642.974 0.416227 -1.52004 0
M  V30 6681 C 643.904 1.51365 -1.77795 0
M  V30 6682 C 644.885 1.58059 -0.628601 0
M  V30 6683 O 646.07 1.73447 -0.873478 0
M  V30 6684 C 643.2 2.89256 -1.92219 0
M  V30 6685 C 642.154 2.97415 -3.0778 0
M  V30 6686 C 641.48 4.37492 -3.07417 0
M  V30 6687 C 642.78 2.69551 -4.47369 0
M  V30 6688 H 644.474 1.30033 -2.69688 0
M  V30 6689 H 642.02 0.624112 -1.29772 0
M  V30 6690 H 643.973 3.66008 -2.08845 0
M  V30 6691 H 642.697 3.11866 -0.969917 0
M  V30 6692 H 641.356 2.23107 -2.90893 0
M  V30 6693 H 641.004 4.571 -2.09925 0
M  V30 6694 H 640.704 4.43877 -3.85029 0
M  V30 6695 H 642.228 5.16188 -3.26162 0
M  V30 6696 H 643.642 3.36028 -4.64497 0
M  V30 6697 H 642.039 2.87321 -5.26846 0
M  V30 6698 H 643.109 1.65029 -4.55953 0
M  V30 6699 N 644.452 1.42507 0.673017 0
M  V30 6700 C 645.402 1.4258 1.77919 0
M  V30 6701 C 646.386 0.296885 1.58137 0
M  V30 6702 O 647.578 0.539243 1.68586 0
M  V30 6703 C 644.707 1.33238 3.1639 0
M  V30 6704 C 643.793 2.51081 3.41788 0
M  V30 6705 N 644.184 3.76498 3.37761 0
M  V30 6706 C 642.482 2.4538 3.72431 0
M  V30 6707 C 643.183 4.54784 3.62693 0
M  V30 6708 N 642.159 3.8522 3.83544 0
M  V30 6709 H 645.961 2.37442 1.73201 0
M  V30 6710 H 643.475 1.36881 0.873924 0
M  V30 6711 H 645.472 1.31372 3.9566 0
M  V30 6712 H 644.132 0.393794 3.22303 0
M  V30 6713 H 645.143 4.09068 3.17622 0
M  V30 6714 H 641.82 1.60109 3.85579 0
M  V30 6715 H 643.21 5.63774 3.65525 0
M  V30 6716 N 645.93 -0.909495 1.28709 0
M  V30 6717 C 646.878 -2.03381 1.12866 0
M  V30 6718 C 647.872 -1.69335 0.0468074 0
M  V30 6719 O 649.078 -1.78819 0.205891 0
M  V30 6720 H 645.453 -0.666452 0.348348 0
M  V30 6721 H 647.424 -2.13885 2.08077 0
M  V30 6722 C 646.173 -3.38092 0.811742 0
M  V30 6723 H 645.496 -3.64786 1.63619 0
M  V30 6724 H 646.936 -4.17477 0.740869 0
M  V30 6725 C 645.395 -3.33395 -0.484679 0
M  V30 6726 O 645.925 -3.72089 -1.5137 0
M  V30 6727 N 644.131 -2.86491 -0.486961 0
M  V30 6728 H 643.678 -2.55199 0.350877 0
M  V30 6729 H 643.636 -2.83731 -1.3544 0
M  V30 6730 N 647.408 -1.11026 -1.11852 0
M  V30 6731 C 648.358 -0.733836 -2.15868 0
M  V30 6732 C 649.342 0.26001 -1.58785 0
M  V30 6733 O 650.534 0.0677901 -1.7687 0
M  V30 6734 C 647.663 -0.173948 -3.42859 0
M  V30 6735 C 646.749 -1.1952 -4.0691 0
M  V30 6736 N 647.14 -2.38797 -4.45881 0
M  V30 6737 C 645.438 -1.03714 -4.33773 0
M  V30 6738 C 646.139 -3.03894 -4.96007 0
M  V30 6739 N 645.115 -2.31389 -4.91894 0
M  V30 6740 H 648.917 -1.64171 -2.43773 0
M  V30 6741 H 646.431 -0.988877 -1.28822 0
M  V30 6742 H 648.428 0.113836 -4.16745 0
M  V30 6743 H 647.088 0.728568 -3.16421 0
M  V30 6744 H 648.099 -2.76281 -4.38051 0
M  V30 6745 H 644.776 -0.190694 -4.17064 0
M  V30 6746 H 646.166 -4.05389 -5.35826 0
M  V30 6747 N 648.886 1.2938 -0.899927 0
M  V30 6748 C 650.116 1.99402 -0.540601 0
M  V30 6749 C 650.524 1.67534 0.87914 0
M  V30 6750 O 649.867 0.916821 1.59186 0
M  V30 6751 C 649.929 3.53514 -0.653326 0
M  V30 6752 C 649.593 4.08937 -2.04009 0
M  V30 6753 C 650.59 4.23815 -3.01126 0
M  V30 6754 C 648.275 4.43962 -2.34953 0
M  V30 6755 C 650.269 4.72951 -4.27313 0
M  V30 6756 C 647.956 4.92795 -3.61382 0
M  V30 6757 C 648.954 5.07244 -4.57376 0
M  V30 6758 O 648.642 5.55017 -5.8156 0
M  V30 6759 H 648.374 0.64383 -0.206057 0
M  V30 6760 H 650.928 1.65878 -1.21134 0
M  V30 6761 H 649.158 3.86628 0.0744449 0
M  V30 6762 H 650.847 4.04767 -0.303118 0
M  V30 6763 H 651.613 3.97043 -2.78535 0
M  V30 6764 H 647.492 4.31974 -1.60994 0
M  V30 6765 H 651.036 4.84144 -5.02245 0
M  V30 6766 H 646.933 5.19004 -3.83804 0
M  V30 6767 H 647.701 5.73331 -5.84153 0
M  V30 6768 N 650.364 0.662433 1.43002 0
M  V30 6769 C 651.592 0.187615 2.06048 0
M  V30 6770 C 652.007 -1.15039 1.49705 0
M  V30 6771 O 651.364 -1.71209 0.631956 0
M  V30 6772 C 651.415 0.100498 3.6136 0
M  V30 6773 O 651.136 1.38562 4.15611 0
M  V30 6774 C 652.637 -0.399298 4.41498 0
M  V30 6775 H 649.857 0.0941675 0.664359 0
M  V30 6776 H 652.401 0.905681 1.83351 0
M  V30 6777 H 650.556 -0.568181 3.83211 0
M  V30 6778 H 650.97 1.25084 5.09366 0
M  V30 6779 H 652.444 -0.409187 5.50481 0
M  V30 6780 H 652.921 -1.43232 4.15188 0
M  V30 6781 H 653.527 0.23721 4.24638 0
M  V30 6782 N 651.842 -1.52309 0.404946 0
M  V30 6783 C 652.774 -2.24579 -0.45791 0
M  V30 6784 C 653.787 -1.2739 -1.01369 0
M  V30 6785 O 654.976 -1.53363 -0.91335 0
M  V30 6786 C 652.076 -2.9608 -1.64893 0
M  V30 6787 C 651.249 -4.20106 -1.21777 0
M  V30 6788 C 650.308 -4.74468 -2.27523 0
M  V30 6789 O 649.334 -5.37157 -1.88285 0
M  V30 6790 N 650.536 -4.55678 -3.59635 0
M  V30 6791 H 653.301 -2.99265 0.161341 0
M  V30 6792 H 650.862 -1.60228 0.232107 0
M  V30 6793 H 652.854 -3.29344 -2.35191 0
M  V30 6794 H 651.424 -2.24606 -2.17419 0
M  V30 6795 H 650.644 -3.92704 -0.343071 0
M  V30 6796 H 651.932 -5.00658 -0.906596 0
M  V30 6797 H 651.33 -4.05673 -3.94266 0
M  V30 6798 H 649.887 -4.9339 -4.25922 0
M  V30 6799 N 653.32 -0.135238 -1.57019 0
M  V30 6800 C 654.267 0.808908 -2.1616 0
M  V30 6801 C 655.237 1.25234 -1.09113 0
M  V30 6802 O 656.422 1.32697 -1.37099 0
M  V30 6803 C 653.562 2.04729 -2.77813 0
M  V30 6804 C 652.675 1.65074 -3.99218 0
M  V30 6805 C 651.81 2.84002 -4.48906 0
M  V30 6806 C 650.849 2.40663 -5.62803 0
M  V30 6807 N 649.986 3.5256 -6.07162 0
M  V30 6808 H 654.826 0.297751 -2.96509 0
M  V30 6809 H 652.363 0.135264 -1.46477 0
M  V30 6810 H 654.321 2.7731 -3.11697 0
M  V30 6811 H 652.951 2.53275 -2.00128 0
M  V30 6812 H 652.003 0.823029 -3.7139 0
M  V30 6813 H 653.315 1.29236 -4.81767 0
M  V30 6814 H 652.469 3.64788 -4.84783 0
M  V30 6815 H 651.208 3.23076 -3.65339 0
M  V30 6816 H 650.213 1.58314 -5.26514 0
M  V30 6817 H 651.438 2.02687 -6.48147 0
M  V30 6818 H 649.384 3.91278 -5.26534 0
M  V30 6819 H 649.301 3.20699 -6.84608 0
M  V30 6820 H 650.569 4.33738 -6.47682 0
M  V30 6821 N 654.798 1.5699 0.138552 0
M  V30 6822 C 656.023 1.88344 0.86841 0
M  V30 6823 C 656.448 0.725159 1.7356 0
M  V30 6824 O 655.806 -0.324992 1.78363 0
M  V30 6825 C 655.854 3.18334 1.69398 0
M  V30 6826 O 654.958 3.02863 2.79907 0
M  V30 6827 H 654.299 0.618577 0.241367 0
M  V30 6828 H 656.829 2.04207 0.126826 0
M  V30 6829 H 656.839 3.50567 2.08726 0
M  V30 6830 H 655.514 4.02238 1.05725 0
M  V30 6831 H 654.091 2.82056 2.43924 0
M  V30 6832 N 656.276 -0.40816 1.52223 0
M  V30 6833 C 657.206 -1.5042 1.78595 0
M  V30 6834 C 658.187 -1.57723 0.636974 0
M  V30 6835 O 659.372 -1.72982 0.882664 0
M  V30 6836 C 656.502 -2.88232 1.93751 0
M  V30 6837 C 655.456 -2.95779 3.09352 0
M  V30 6838 C 654.782 -4.35855 3.09732 0
M  V30 6839 C 656.082 -2.67175 4.48793 0
M  V30 6840 H 657.776 -1.28601 2.70374 0
M  V30 6841 H 655.322 -0.617221 1.30101 0
M  V30 6842 H 657.275 -3.64895 2.10783 0
M  V30 6843 H 655.999 -3.11347 0.986443 0
M  V30 6844 H 654.658 -2.21561 2.92072 0
M  V30 6845 H 654.306 -4.55981 2.12346 0
M  V30 6846 H 654.006 -4.41829 3.87377 0
M  V30 6847 H 655.53 -5.14451 3.28895 0
M  V30 6848 H 656.944 -3.3356 4.66273 0
M  V30 6849 H 655.341 -2.84523 5.28362 0
M  V30 6850 H 656.411 -1.62609 4.56822 0
M  V30 6851 N 657.755 -1.42862 -0.66545 0
M  V30 6852 C 658.98 -1.47456 -1.45848 0
M  V30 6853 C 659.405 -0.0900312 -1.87884 0
M  V30 6854 O 658.763 0.913587 -1.56599 0
M  V30 6855 C 658.811 -2.41514 -2.67774 0
M  V30 6856 O 657.915 -1.89296 -3.66389 0
M  V30 6857 H 657.256 -0.499236 -0.437789 0
M  V30 6858 H 659.786 -1.8765 -0.815394 0
M  V30 6859 H 659.796 -2.58409 -3.15735 0
M  V30 6860 H 658.471 -3.42099 -2.36519 0
M  V30 6861 H 657.048 -1.82003 -3.25468 0
M  V30 6862 N 659.233 0.902656 -1.29189 0
M  V30 6863 C 660.163 2.02294 -1.16616 0
M  V30 6864 C 661.144 1.6999 -0.0611175 0
M  V30 6865 O 662.329 1.9271 -0.240072 0
M  V30 6866 C 659.459 3.37018 -0.83882 0
M  V30 6867 C 658.413 3.83522 -1.89986 0
M  V30 6868 C 657.739 5.15337 -1.42589 0
M  V30 6869 C 659.039 4.04169 -3.30824 0
M  V30 6870 H 660.733 2.13071 -2.10336 0
M  V30 6871 H 658.279 1.02378 -1.01266 0
M  V30 6872 H 660.232 4.14895 -0.737584 0
M  V30 6873 H 658.956 3.26325 0.134071 0
M  V30 6874 H 657.615 3.07859 -1.99043 0
M  V30 6875 H 657.263 5.01056 -0.441759 0
M  V30 6876 H 656.963 5.47423 -2.13547 0
M  V30 6877 H 658.487 5.95758 -1.3381 0
M  V30 6878 H 659.901 4.72537 -3.24626 0
M  V30 6879 H 658.298 4.47604 -3.99713 0
M  V30 6880 H 659.368 3.08604 -3.74021 0
M  V30 6881 N 660.711 1.11618 1.11262 0
M  V30 6882 C 661.936 0.889013 1.8738 0
M  V30 6883 C 662.361 -0.555884 1.79698 0
M  V30 6884 O 661.719 -1.39272 1.16073 0
M  V30 6885 C 661.767 1.35759 3.34069 0
M  V30 6886 O 660.871 0.530499 4.08974 0
M  V30 6887 H 660.212 0.320082 0.581759 0
M  V30 6888 H 662.742 1.48611 1.40627 0
M  V30 6889 H 662.752 1.35291 3.84916 0
M  V30 6890 H 661.427 2.40973 3.38976 0
M  V30 6891 H 660.004 0.601439 3.68018 0
M  V30 6892 N 662.189 -1.289 0.906776 0
M  V30 6893 C 663.6 -1.77336 0.58384 0
M  V30 6894 C 663.951 -1.74304 -0.900697 0
M  V30 6895 O 663.076 -1.33335 -1.70443 0
M  V30 6896 C 663.671 -3.22019 1.05304 0
M  V30 6897 C 662.23 -3.68205 0.781148 0
M  V30 6898 C 661.377 -2.48837 1.22373 0
M  V30 6899 H 664.328 -1.15462 1.08877 0
M  V30 6900 H 664.349 -3.78481 0.391414 0
M  V30 6901 H 663.861 -3.24194 2.13353 0
M  V30 6902 H 661.962 -3.71497 -0.28643 0
M  V30 6903 H 662.075 -4.58675 1.384 0
M  V30 6904 H 660.439 -2.46461 0.642594 0
M  V30 6905 H 661.222 -2.53736 2.31242 0
M  V30 6906 N 663.667 -0.670007 -1.42649 0
M  V30 6907 C 664.915 -0.18991 -2.01206 0
M  V30 6908 C 665.236 1.20617 -1.53221 0
M  V30 6909 O 664.506 1.80898 -0.751856 0
M  V30 6910 H 663.086 -0.0672189 -0.743969 0
M  V30 6911 H 665.748 -0.865442 -1.74631 0
M  V30 6912 H 664.844 -0.187481 -3.11536 0
M  V30 6913 N 665.145 1.52092 -0.413018 0
M  V30 6914 C 666.092 2.27119 0.410558 0
M  V30 6915 C 667.062 1.29692 1.03774 0
M  V30 6916 O 668.247 1.58561 1.06128 0
M  V30 6917 C 665.387 3.09863 1.51918 0
M  V30 6918 C 664.5 4.22252 0.912528 0
M  V30 6919 C 663.635 4.92348 1.99417 0
M  V30 6920 C 662.674 5.96694 1.36466 0
M  V30 6921 N 661.811 6.60292 2.38661 0
M  V30 6922 H 666.651 2.97067 -0.235661 0
M  V30 6923 H 664.188 1.46542 -0.128055 0
M  V30 6924 H 666.146 3.56144 2.17295 0
M  V30 6925 H 664.776 2.42078 2.13537 0
M  V30 6926 H 663.828 3.80113 0.147697 0
M  V30 6927 H 665.14 4.9709 0.412717 0
M  V30 6928 H 664.294 5.42054 2.72512 0
M  V30 6929 H 663.033 4.17087 2.52764 0
M  V30 6930 H 662.038 5.46304 0.61906 0
M  V30 6931 H 663.263 6.73899 0.838827 0
M  V30 6932 H 661.209 5.87858 2.91134 0
M  V30 6933 H 661.126 7.30816 1.93503 0
M  V30 6934 H 662.394 7.14635 3.11314 0
M  V30 6935 O 666.662 0.284301 1.58978 0
M  V30 6936 H 667.353 -0.283792 1.9161 0
M  V30 END ATOM
M  V30 BEGIN BOND
M  V30 END BOND
M  V30 END CTAB
M  END
$$$$
