drugbank_drug|DB13923 >>Emicizumab heavy chain 1<<<<
 OpenBabel12092119113D

  0  0  0     0  0            999 V3000
M  V30 BEGIN CTAB
M  V30 COUNTS 6885 6980 0 0 0
M  V30 BEGIN ATOM
M  V30 1 H -0.908 1.98254 -0.117106 0
M  V30 2 N 0 1.576 0 0
M  V30 3 C 0.932 2.05273 1.01958 0
M  V30 4 C 1.945 0.970662 1.30698 0
M  V30 5 O 3.134 1.24746 1.27674 0
M  V30 6 C 0.234 2.43771 2.35433 0
M  V30 7 C -0.593 3.74711 2.25633 0
M  V30 8 C -1.534 4.00077 3.41796 0
M  V30 9 O -2.508 4.70743 3.19984 0
M  V30 10 N -1.306 3.47973 4.64645 0
M  V30 11 H 1.459 2.93363 0.613025 0
M  V30 12 H -0.98 1.60812 0.187383 0
M  V30 13 H 1.012 2.57855 3.11918 0
M  V30 14 H -0.418 1.612 2.67831 0
M  V30 15 H -1.198 3.70705 1.34059 0
M  V30 16 H 0.09 4.60554 2.16258 0
M  V30 17 H -0.512 2.90748 4.85265 0
M  V30 18 H -1.955 3.67386 5.38396 0
M  V30 19 N 1.4781 -0.272755 1.55222 0
M  V30 20 C 2.7241 -1.00581 1.761 0
M  V30 21 C 3.0571 -1.85932 0.560625 0
M  V30 22 O 2.3321 -1.89416 -0.441801 0
M  V30 23 C 2.6151 -1.88816 3.06628 0
M  V30 24 C 2.4681 -1.06457 4.37021 0
M  V30 25 C 3.7871 -2.8752 3.33197 0
M  V30 26 H 0.9061 -0.364244 0.640699 0
M  V30 27 H 3.5481 -0.278189 1.87952 0
M  V30 28 H 1.6981 -2.50856 2.96654 0
M  V30 29 H 3.3701 -0.464863 4.58952 0
M  V30 30 H 1.6131 -0.368043 4.32236 0
M  V30 31 H 2.2841 -1.71514 5.24678 0
M  V30 32 H 4.7601 -2.35615 3.42965 0
M  V30 33 H 3.6361 -3.46399 4.25792 0
M  V30 34 H 3.8971 -3.62657 2.52849 0
M  V30 35 N 2.9562 -1.48159 -0.537278 0
M  V30 36 C 3.8882 -1.58218 -1.65831 0
M  V30 37 C 4.9012 -0.466948 -1.5596 0
M  V30 38 O 6.0902 -0.73747 -1.62553 0
M  V30 39 C 3.1902 -1.48906 -3.04434 0
M  V30 40 C 2.3632 -2.75343 -3.3986 0
M  V30 41 C 1.4222 -2.59588 -4.57712 0
M  V30 42 O 0.4482 -3.33457 -4.61297 0
M  V30 43 N 1.6502 -1.68724 -5.55439 0
M  V30 44 H 4.4152 -2.54891 -1.57641 0
M  V30 45 H 1.9762 -1.4479 -0.724386 0
M  V30 46 H 3.9682 -1.36072 -3.81139 0
M  V30 47 H 2.5382 -0.602368 -3.06741 0
M  V30 48 H 1.7582 -3.02795 -2.52406 0
M  V30 49 H 3.0462 -3.5924 -3.60311 0
M  V30 50 H 2.4442 -1.07898 -5.55315 0
M  V30 51 H 1.0012 -1.61832 -6.3139 0
M  V30 52 N 4.4343 0.785586 -1.36625 0
M  V30 53 C 5.3643 1.91259 -1.33949 0
M  V30 54 C 6.3453 1.68795 -0.210325 0
M  V30 55 O 7.5303 1.89854 -0.408561 0
M  V30 56 C 4.6603 3.28339 -1.13186 0
M  V30 57 C 3.6143 3.65335 -2.22967 0
M  V30 58 C 2.9403 5.00806 -1.87342 0
M  V30 59 C 4.2403 3.7352 -3.65075 0
M  V30 60 H 5.9343 1.93755 -2.28253 0
M  V30 61 H 3.4803 0.930788 -1.09874 0
M  V30 62 H 5.4333 4.06804 -1.09948 0
M  V30 63 H 4.1573 3.2624 -0.153332 0
M  V30 64 H 2.8163 2.89169 -2.25337 0
M  V30 65 H 2.4643 4.95233 -0.880545 0
M  V30 66 H 2.1643 5.26529 -2.60846 0
M  V30 67 H 3.6883 5.81687 -1.85667 0
M  V30 68 H 5.1023 4.42168 -3.64911 0
M  V30 69 H 3.4993 4.10731 -4.37516 0
M  V30 70 H 4.5693 2.74527 -3.99703 0
M  V30 71 N 5.9124 1.20967 1.01018 0
M  V30 72 C 7.1584 1.02526 1.74975 0
M  V30 73 C 7.4914 -0.4408 1.89131 0
M  V30 74 O 6.7664 -1.32718 1.42184 0
M  V30 75 C 7.0494 1.71699 3.1653 0
M  V30 76 C 6.9024 3.25791 3.10129 0
M  V30 77 C 8.2214 1.45531 4.15342 0
M  V30 78 H 5.3404 0.373863 0.635134 0
M  V30 79 H 7.9824 1.49071 1.17805 0
M  V30 80 H 6.1324 1.32128 3.65341 0
M  V30 81 H 7.8044 3.74697 2.69072 0
M  V30 82 H 6.0474 3.56363 2.47362 0
M  V30 83 H 6.7184 3.69353 4.10222 0
M  V30 84 H 9.1944 1.79872 3.75213 0
M  V30 85 H 8.0704 1.96453 5.1254 0
M  V30 86 H 8.3314 0.384237 4.40427 0
M  V30 87 N 7.3905 -1.2043 1.01659 0
M  V30 88 C 8.3005 -2.2689 0.596484 0
M  V30 89 C 9.3165 -1.70107 -0.36599 0
M  V30 90 O 10.4925 -2.00117 -0.226942 0
M  V30 91 C 7.5575 -3.4665 -0.0586659 0
M  V30 92 C 6.6185 -4.18662 0.949751 0
M  V30 93 C 5.8515 -5.32705 0.32577 0
M  V30 94 O 6.0745 -5.63656 -0.874509 0
M  V30 95 O 5.0085 -5.92803 1.04249 0
M  V30 96 H 8.8345 -2.65041 1.4828 0
M  V30 97 H 6.4195 -1.27048 0.786082 0
M  V30 98 H 8.3015 -4.19256 -0.424564 0
M  V30 99 H 6.9765 -3.10375 -0.91918 0
M  V30 100 H 5.8835 -3.48229 1.36702 0
M  V30 101 H 7.2165 -4.58878 1.78023 0
M  V30 102 N 8.8686 -0.792821 -1.36206 0
M  V30 103 C 10.0936 -0.377701 -2.03932 0
M  V30 104 C 10.5186 0.998947 -1.59382 0
M  V30 105 O 9.8766 1.64421 -0.763903 0
M  V30 106 C 9.9246 -0.453635 -3.57735 0
M  V30 107 O 9.0286 0.538151 -4.08874 0
M  V30 108 H 8.3696 -0.159855 -0.644471 0
M  V30 109 H 10.8996 -1.07488 -1.7409 0
M  V30 110 H 10.9096 -0.318464 -4.06755 0
M  V30 111 H 9.5846 -1.45784 -3.89512 0
M  V30 112 H 8.1616 0.364359 -3.71116 0
M  V30 113 N 10.3467 1.47872 -0.545128 0
M  V30 114 C 11.5947 2.02093 -0.016553 0
M  V30 115 C 11.9157 1.42305 1.3332 0
M  V30 116 O 11.1857 0.593853 1.86682 0
M  V30 117 H 9.7657 0.746993 -0.00313038 0
M  V30 118 H 12.4277 1.81414 -0.712397 0
M  V30 119 H 11.5237 3.11996 0.0805422 0
M  V30 120 N 11.8248 0.280983 1.55075 0
M  V30 121 C 13.0728 -0.333455 1.9933 0
M  V30 122 C 13.3938 -1.55937 1.17085 0
M  V30 123 O 12.6638 -1.94143 0.261805 0
M  V30 124 H 11.2438 -0.126197 0.736263 0
M  V30 125 H 13.9058 0.387678 1.91005 0
M  V30 126 H 13.0018 -0.619292 3.05894 0
M  V30 127 N 13.3029 -1.57598 0.00835791 0
M  V30 128 C 14.5509 -1.90551 -0.6734 0
M  V30 129 C 14.8719 -0.883301 -1.73847 0
M  V30 130 O 14.1419 0.0781442 -1.95744 0
M  V30 131 H 12.7219 -0.703312 -0.251717 0
M  V30 132 H 15.3839 -1.94833 0.0512592 0
M  V30 133 H 14.4799 -2.9056 -1.13935 0
M  V30 134 N 14.781 0.264519 -1.55364 0
M  V30 135 C 15.711 1.33121 -1.91836 0
M  V30 136 C 16.692 1.51101 -0.781192 0
M  V30 137 O 17.877 1.64003 -1.04003 0
M  V30 138 C 15.007 2.68921 -2.19769 0
M  V30 139 C 13.961 2.65661 -3.35571 0
M  V30 140 C 13.287 4.05093 -3.49004 0
M  V30 141 C 14.587 2.24187 -4.71739 0
M  V30 142 H 16.281 1.02844 -2.81182 0
M  V30 143 H 13.827 0.493286 -1.35287 0
M  V30 144 H 15.78 3.43663 -2.43872 0
M  V30 145 H 14.504 3.00799 -1.27231 0
M  V30 146 H 13.163 1.93377 -3.1145 0
M  V30 147 H 12.811 4.34206 -2.53917 0
M  V30 148 H 12.511 4.03804 -4.26868 0
M  V30 149 H 14.035 4.81561 -3.75408 0
M  V30 150 H 15.449 2.88654 -4.9533 0
M  V30 151 H 13.846 2.34044 -5.52579 0
M  V30 152 H 14.916 1.19327 -4.69988 0
M  V30 153 N 16.2591 1.48442 0.529413 0
M  V30 154 C 17.5051 1.5672 1.28711 0
M  V30 155 C 17.8381 0.2406 1.92704 0
M  V30 156 O 17.1131 -0.753454 1.79313 0
M  V30 157 C 17.3961 2.70587 2.37603 0
M  V30 158 C 17.2491 4.12953 1.78297 0
M  V30 159 C 18.5681 2.80212 3.39366 0
M  V30 160 H 15.6871 0.570474 0.466613 0
M  V30 161 H 18.3291 1.80617 0.589706 0
M  V30 162 H 16.4791 2.50342 2.97088 0
M  V30 163 H 18.1511 4.44639 1.22858 0
M  V30 164 H 16.3941 4.19927 1.0883 0
M  V30 165 H 17.0651 4.88448 2.57144 0
M  V30 166 H 19.5411 2.98553 2.89836 0
M  V30 167 H 18.4171 3.61611 4.12951 0
M  V30 168 H 18.6781 1.88393 3.99951 0
M  V30 169 N 17.7372 -0.778329 1.37039 0
M  V30 170 C 18.6692 -1.90034 1.2814 0
M  V30 171 C 19.6822 -1.61585 0.198558 0
M  V30 172 O 20.8712 -1.72625 0.454175 0
M  V30 173 C 17.9712 -3.25108 0.956968 0
M  V30 174 C 17.1442 -3.81253 2.14394 0
M  V30 175 C 16.2032 -4.94789 1.79082 0
M  V30 176 O 15.2292 -5.10721 2.51301 0
M  V30 177 N 16.4312 -5.75878 0.731043 0
M  V30 178 H 19.1962 -1.98186 2.24816 0
M  V30 179 H 16.7572 -0.957129 1.30578 0
M  V30 180 H 18.7492 -3.9857 0.701701 0
M  V30 181 H 17.3192 -3.125 0.0789812 0
M  V30 182 H 16.5392 -2.99647 2.56135 0
M  V30 183 H 17.8272 -4.15495 2.93668 0
M  V30 184 H 17.2252 -5.65547 0.131618 0
M  V30 185 H 15.7822 -6.49596 0.535622 0
M  V30 186 N 19.2153 -1.21501 -1.00376 0
M  V30 187 C 20.6263 -1.03146 -1.55621 0
M  V30 188 C 20.9773 0.408375 -1.91903 0
M  V30 189 O 20.1023 1.29177 -1.73616 0
M  V30 190 C 20.6973 -1.86612 -2.82775 0
M  V30 191 C 19.2563 -1.72586 -3.34501 0
M  V30 192 C 18.4033 -1.83747 -2.07683 0
M  V30 193 H 21.3543 -1.35505 -0.826081 0
M  V30 194 H 21.3753 -1.3771 -3.54706 0
M  V30 195 H 20.8873 -2.91399 -2.56336 0
M  V30 196 H 18.9883 -0.704877 -3.65872 0
M  V30 197 H 19.1013 -2.54623 -4.05837 0
M  V30 198 H 17.4653 -1.27069 -2.20739 0
M  V30 199 H 18.2483 -2.90044 -1.83655 0
M  V30 200 N 20.6934 1.19889 -1.02296 0
M  V30 201 C 21.9414 1.89046 -0.714558 0
M  V30 202 C 22.2624 1.79636 0.758681 0
M  V30 203 O 21.5324 1.20292 1.54618 0
M  V30 204 H 20.1124 0.699802 -0.261317 0
M  V30 205 H 22.7744 1.45574 -1.29592 0
M  V30 206 H 21.8704 2.95524 -1.0036 0
M  V30 207 N 22.1715 0.800033 1.35784 0
M  V30 208 C 23.4195 0.376597 1.9856 0
M  V30 209 C 23.7405 -1.05812 1.63795 0
M  V30 210 O 23.0105 -1.73103 0.917171 0
M  V30 211 H 21.5905 0.136261 0.734467 0
M  V30 212 H 24.2525 1.02442 1.65806 0
M  V30 213 H 23.3485 0.477002 3.08433 0
M  V30 214 N 23.6496 -1.47581 0.552962 0
M  V30 215 C 24.8746 -2.07378 0.0300593 0
M  V30 216 C 25.2996 -1.40355 -1.25229 0
M  V30 217 O 24.6576 -0.477099 -1.7491 0
M  V30 218 C 24.7056 -3.60274 -0.153231 0
M  V30 219 O 23.8096 -3.94041 -1.21678 0
M  V30 220 H 23.1506 -0.662158 0.0494182 0
M  V30 221 H 25.6806 -1.89662 0.767434 0
M  V30 222 H 25.6906 -4.0633 -0.368761 0
M  V30 223 H 24.3656 -4.08455 0.783397 0
M  V30 224 H 22.9426 -3.59735 -0.982079 0
M  V30 225 N 25.1277 -0.289203 -1.54924 0
M  V30 226 C 26.0577 0.58549 -2.2604 0
M  V30 227 C 27.0387 1.14753 -1.25562 0
M  V30 228 O 28.2237 1.17906 -1.54311 0
M  V30 229 C 25.3537 1.76305 -2.99222 0
M  V30 230 C 24.3077 1.33191 -4.06748 0
M  V30 231 C 23.6337 2.5937 -4.6758 0
M  V30 232 C 24.9337 0.471775 -5.20165 0
M  V30 233 H 26.6277 -0.00763532 -2.99399 0
M  V30 234 H 24.1737 -0.00511229 -1.43999 0
M  V30 235 H 26.1267 2.38097 -3.47689 0
M  V30 236 H 24.8507 2.38223 -2.23422 0
M  V30 237 H 23.5097 0.737121 -3.59113 0
M  V30 238 H 23.1577 3.19576 -3.88433 0
M  V30 239 H 22.8577 2.31228 -5.40192 0
M  V30 240 H 24.3817 3.21985 -5.18804 0
M  V30 241 H 25.7957 0.995056 -5.64599 0
M  V30 242 H 24.1927 0.284639 -5.99425 0
M  V30 243 H 25.2627 -0.506041 -4.82252 0
M  V30 244 N 26.6058 1.57591 -0.0167156 0
M  V30 245 C 28.0218 1.55946 0.339557 0
M  V30 246 C 28.2218 1.02109 1.73713 0
M  V30 247 O 27.2778 0.662303 2.43659 0
M  V30 248 C 28.5908 3.00037 0.199499 0
M  V30 249 C 30.1388 3.11805 0.273193 0
M  V30 250 C 30.6138 4.57713 0.162068 0
M  V30 251 N 32.1048 4.6268 0.219444 0
M  V30 252 C 32.8398 5.73185 0.157054 0
M  V30 253 N 32.3358 6.92786 0.0442936 0
M  V30 254 N 34.1288 5.61707 0.21014 0
M  V30 255 H 26.2798 1.90921 -0.930758 0
M  V30 256 H 28.5428 0.877674 -0.358319 0
M  V30 257 H 28.2488 3.4333 -0.76273 0
M  V30 258 H 28.1228 3.64387 0.974786 0
M  V30 259 H 30.5098 2.68433 1.22587 0
M  V30 260 H 30.5908 2.50201 -0.532256 0
M  V30 261 H 30.2348 5.01763 -0.78714 0
M  V30 262 H 30.1648 5.17283 0.986222 0
M  V30 263 H 32.6558 3.76649 0.307246 0
M  V30 264 H 32.9688 7.728 0.00304069 0
M  V30 265 H 31.3138 6.94999 0.00968457 0
M  V30 266 H 34.5048 4.6716 0.296546 0
M  V30 267 H 34.6778 6.47807 0.158054 0
M  V30 268 N 28.0839 -0.256276 1.55502 0
M  V30 269 C 29.0139 -1.32102 1.92539 0
M  V30 270 C 29.9949 -1.50684 0.789194 0
M  V30 271 O 31.1799 -1.63449 1.04872 0
M  V30 272 C 28.3099 -2.67752 2.21192 0
M  V30 273 C 27.2639 -2.63878 3.36975 0
M  V30 274 C 26.5899 -4.03236 3.51147 0
M  V30 275 C 27.8899 -2.21682 4.72921 0
M  V30 276 H 29.5839 -1.01351 2.81724 0
M  V30 277 H 27.1299 -0.486105 1.35547 0
M  V30 278 H 29.0829 -3.42365 2.45691 0
M  V30 279 H 27.8069 -3.0012 1.28824 0
M  V30 280 H 26.4659 -1.91722 3.12471 0
M  V30 281 H 26.1139 -4.32854 2.56216 0
M  V30 282 H 25.8139 -4.01535 4.29003 0
M  V30 283 H 27.3379 -4.79563 3.77957 0
M  V30 284 H 28.7519 -2.86023 4.96854 0
M  V30 285 H 27.1489 -2.3111 5.53812 0
M  V30 286 H 28.2189 -1.16833 4.70615 0
M  V30 287 N 29.562 -1.4872 -0.521534 0
M  V30 288 C 30.787 -1.61101 -1.30618 0
M  V30 289 C 31.212 -0.274611 -1.86085 0
M  V30 290 O 30.57 0.754937 -1.64834 0
M  V30 291 C 30.618 -2.66709 -2.4269 0
M  V30 292 O 29.722 -2.24456 -3.45967 0
M  V30 293 H 29.063 -0.539921 -0.386499 0
M  V30 294 H 31.593 -1.94767 -0.626645 0
M  V30 295 H 31.603 -2.88245 -2.88754 0
M  V30 296 H 30.278 -3.63727 -2.01682 0
M  V30 297 H 28.855 -2.13168 -3.05964 0
M  V30 298 N 31.0401 0.771051 -1.3745 0
M  V30 299 C 32.2801 1.54264 -1.34096 0
M  V30 300 C 32.6441 1.91858 0.0737639 0
M  V30 301 O 33.8451 2.67797 0.23203 0
M  V30 302 C 32.1161 2.77326 -2.25445 0
M  V30 303 S 33.6751 3.67383 -2.39948 0
M  V30 304 H 30.4931 0.528122 -0.476034 0
M  V30 305 H 33.0951 0.906633 -1.73206 0
M  V30 306 H 31.7991 2.47788 -3.27153 0
M  V30 307 H 31.3301 3.45886 -1.87421 0
M  V30 308 H 33.3451 4.69334 -1.61059 0
M  V30 309 N 32.5182 1.22032 0.997298 0
M  V30 310 C 33.4812 0.987909 2.06816 0
M  V30 311 C 34.4812 -0.0440084 1.6074 0
M  V30 312 O 35.6712 0.194053 1.73116 0
M  V30 313 C 32.8032 0.49132 3.37341 0
M  V30 314 H 33.9962 1.93803 2.28868 0
M  V30 315 H 31.5492 1.03838 1.16822 0
M  V30 316 H 32.2842 -0.463364 3.20973 0
M  V30 317 H 32.0692 1.23575 3.72118 0
M  V30 318 H 33.5592 0.348824 4.16141 0
M  V30 319 N 33.9963 -1.19345 1.0293 0
M  V30 320 C 34.9593 -2.20793 0.615069 0
M  V30 321 C 35.9593 -1.57553 -0.321533 0
M  V30 322 O 37.1493 -1.73862 -0.108483 0
M  V30 323 C 34.2813 -3.40754 -0.0999222 0
M  V30 324 H 35.4743 -2.58955 1.51269 0
M  V30 325 H 33.0273 -1.3303 0.820534 0
M  V30 326 H 33.7623 -3.0811 -1.01187 0
M  V30 327 H 33.5473 -3.87889 0.57309 0
M  V30 328 H 35.0373 -4.15898 -0.376645 0
M  V30 329 N 35.4744 -0.807222 -1.35358 0
M  V30 330 C 36.6994 -0.399309 -2.0352 0
M  V30 331 C 37.1244 0.981986 -1.60433 0
M  V30 332 O 36.4824 1.63601 -0.781299 0
M  V30 333 C 36.5304 -0.491552 -3.57234 0
M  V30 334 O 35.6344 0.494754 -4.09421 0
M  V30 335 H 34.9754 -0.166682 -0.642739 0
M  V30 336 H 37.5054 -1.09328 -1.72941 0
M  V30 337 H 37.5154 -0.361588 -4.06395 0
M  V30 338 H 36.1904 -1.49907 -3.87944 0
M  V30 339 H 34.7674 0.324977 -3.71481 0
M  V30 340 N 36.9525 1.47285 -0.560781 0
M  V30 341 C 38.2005 2.02064 -0.0379868 0
M  V30 342 C 38.5215 1.43711 1.31803 0
M  V30 343 O 37.7915 0.61362 1.86042 0
M  V30 344 H 36.3715 0.746918 -0.0110531 0
M  V30 345 H 39.0335 1.80648 -0.731598 0
M  V30 346 H 38.1295 3.12064 0.0474463 0
M  V30 347 N 38.4306 0.297415 1.54768 0
M  V30 348 C 39.6776 -0.312913 2.00068 0
M  V30 349 C 40.0056 -1.54171 1.18582 0
M  V30 350 O 39.2606 -1.94108 0.249133 0
M  V30 351 C 39.5596 -0.717561 3.50123 0
M  V30 352 C 39.2256 0.409095 4.4904 0
M  V30 353 C 37.8876 0.718399 4.75807 0
M  V30 354 C 40.2396 1.16717 5.07963 0
M  V30 355 C 37.5676 1.78896 5.5876 0
M  V30 356 C 39.9196 2.22762 5.92081 0
M  V30 357 C 38.5836 2.54303 6.1716 0
M  V30 358 H 37.8536 -0.114503 0.7321 0
M  V30 359 H 40.5006 0.415767 1.86932 0
M  V30 360 H 38.8056 -1.52627 3.60849 0
M  V30 361 H 40.5026 -1.20091 3.82595 0
M  V30 362 H 37.0926 0.157918 4.28309 0
M  V30 363 H 41.2766 0.941466 4.87289 0
M  V30 364 H 36.5326 2.0381 5.7643 0
M  V30 365 H 40.7066 2.81962 6.36765 0
M  V30 366 H 38.3336 3.3739 6.81229 0
M  V30 367 N 39.9087 -1.5758 0.0250728 0
M  V30 368 C 41.1367 -1.9593 -0.664747 0
M  V30 369 C 41.5517 -0.901352 -1.65895 0
M  V30 370 O 40.9087 0.117255 -1.82123 0
M  V30 371 C 40.9597 -3.34342 -1.37468 0
M  V30 372 O 40.6807 -4.36079 -0.420324 0
M  V30 373 C 42.1817 -3.873 -2.1567 0
M  V30 374 H 39.4017 -0.645405 -0.183557 0
M  V30 375 H 41.9457 -2.04329 0.0836372 0
M  V30 376 H 40.1007 -3.27175 -2.0745 0
M  V30 377 H 40.5147 -5.16297 -0.923991 0
M  V30 378 H 41.9887 -4.86504 -2.60803 0
M  V30 379 H 42.4657 -3.21331 -2.99405 0
M  V30 380 H 43.0717 -3.97723 -1.50654 0
M  V30 381 N 41.3868 0.248026 -1.55636 0
M  V30 382 C 42.6338 0.976224 -1.77415 0
M  V30 383 C 42.9618 1.85361 -0.589193 0
M  V30 384 O 42.2168 1.90973 0.427529 0
M  V30 385 C 42.5158 1.86819 -3.04686 0
M  V30 386 C 42.1818 1.14625 -4.36087 0
M  V30 387 C 40.8438 0.946723 -4.71795 0
M  V30 388 C 43.1958 0.634463 -5.17324 0
M  V30 389 C 40.5238 0.223091 -5.86276 0
M  V30 390 C 42.8758 -0.0756959 -6.32555 0
M  V30 391 C 41.5398 -0.286711 -6.66884 0
M  V30 392 H 40.8098 0.357226 -0.649208 0
M  V30 393 H 43.4568 0.246415 -1.89908 0
M  V30 394 H 41.7618 2.66502 -2.872 0
M  V30 395 H 43.4588 2.43329 -3.18735 0
M  V30 396 H 40.0488 1.3117 -4.08035 0
M  V30 397 H 44.2328 0.77616 -4.90193 0
M  V30 398 H 39.4888 0.0491185 -6.1138 0
M  V30 399 H 43.6628 -0.479899 -6.94745 0
M  V30 400 H 41.2898 -0.849389 -7.5544 0
M  V30 401 N 42.8649 1.48995 0.513639 0
M  V30 402 C 44.0899 1.61792 1.29762 0
M  V30 403 C 44.5149 0.284475 1.85936 0
M  V30 404 O 43.8729 -0.746185 1.65232 0
M  V30 405 C 43.9209 2.67993 2.41272 0
M  V30 406 O 43.0249 2.26287 3.44772 0
M  V30 407 H 42.3659 0.541963 0.38363 0
M  V30 408 H 44.8959 1.95097 0.616307 0
M  V30 409 H 44.9059 2.89772 2.87221 0
M  V30 410 H 43.5809 3.64791 1.9975 0
M  V30 411 H 42.1579 2.14788 3.04829 0
M  V30 412 N 44.343 -0.763751 1.37857 0
M  V30 413 C 45.573 -1.55067 1.3652 0
M  V30 414 C 45.981 -1.89135 -0.0494227 0
M  V30 415 O 45.324 -1.52529 -1.02375 0
M  V30 416 C 45.386 -2.8838 2.14656 0
M  V30 417 C 45.05 -2.76905 3.63555 0
M  V30 418 C 46.047 -2.4739 4.57268 0
M  V30 419 C 43.732 -2.94676 4.06781 0
M  V30 420 C 45.726 -2.35786 5.92186 0
M  V30 421 C 43.413 -2.82692 5.41782 0
M  V30 422 C 44.411 -2.53289 6.34298 0
M  V30 423 O 44.099 -2.41345 7.66817 0
M  V30 424 H 43.831 -0.486776 0.469069 0
M  V30 425 H 46.385 -0.953812 1.81911 0
M  V30 426 H 44.615 -3.50217 1.63967 0
M  V30 427 H 46.304 -3.49828 2.05852 0
M  V30 428 H 47.07 -2.33339 4.2518 0
M  V30 429 H 42.949 -3.16563 3.35126 0
M  V30 430 H 46.493 -2.12757 6.64365 0
M  V30 431 H 42.39 -2.96314 5.7347 0
M  V30 432 H 43.158 -2.56634 7.77226 0
M  V30 433 N 45.8211 -1.22559 -0.990812 0
M  V30 434 C 47.0511 -1.07623 -1.76355 0
M  V30 435 C 47.4591 0.37601 -1.85426 0
M  V30 436 O 46.8021 1.27228 -1.32509 0
M  V30 437 C 46.8641 -1.61507 -3.21179 0
M  V30 438 C 46.5281 -3.10146 -3.35646 0
M  V30 439 C 47.5251 -4.07553 -3.22796 0
M  V30 440 C 45.2101 -3.49644 -3.60631 0
M  V30 441 C 47.2041 -5.42442 -3.34716 0
M  V30 442 C 44.8911 -4.84682 -3.72192 0
M  V30 443 C 45.8891 -5.8089 -3.59243 0
M  V30 444 O 45.5771 -7.13476 -3.70415 0
M  V30 445 H 45.3091 -0.377745 -0.560611 0
M  V30 446 H 47.8631 -1.62658 -1.25425 0
M  V30 447 H 46.0931 -1.00881 -3.73309 0
M  V30 448 H 47.7821 -1.42202 -3.80175 0
M  V30 449 H 48.5481 -3.78381 -3.03403 0
M  V30 450 H 44.4271 -2.75282 -3.69785 0
M  V30 451 H 47.9711 -6.17518 -3.24526 0
M  V30 452 H 43.8681 -5.13534 -3.91092 0
M  V30 453 H 44.6361 -7.21083 -3.87275 0
M  V30 454 N 47.2992 1.18797 -1.03562 0
M  V30 455 C 48.5762 1.84469 -0.650434 0
M  V30 456 C 48.9562 1.92319 0.870433 0
M  V30 457 O 48.3042 1.44528 1.76986 0
M  V30 458 C 48.5142 3.2306 -1.32036 0
M  V30 459 C 49.8622 3.9915 -1.44792 0
M  V30 460 O 50.8862 3.32481 -1.27806 0
M  V30 461 O 49.7452 5.18587 -1.72423 0
M  V30 462 H 46.8392 0.795251 -0.226946 0
M  V30 463 H 49.3852 1.26231 -1.13419 0
M  V30 464 H 48.1572 3.1222 -2.3587 0
M  V30 465 H 47.7802 3.88949 -0.8249 0
M  V30 466 N 48.7773 0.814389 1.34928 0
M  V30 467 C 50.0263 0.394871 1.97797 0
M  V30 468 C 50.3393 -1.04555 1.65311 0
M  V30 469 O 51.5453 -1.56856 2.21604 0
M  V30 470 C 50.0013 0.655103 3.53888 0
M  V30 471 C 49.6093 2.10858 3.95276 0
M  V30 472 C 51.3533 0.301329 4.23429 0
M  V30 473 C 49.2603 2.31415 5.44244 0
M  V30 474 H 48.1903 0.143913 0.740139 0
M  V30 475 H 50.8413 0.999544 1.53888 0
M  V30 476 H 49.2233 -0.0196253 3.95995 0
M  V30 477 H 50.3973 2.82176 3.64298 0
M  V30 478 H 48.7123 2.42297 3.38646 0
M  V30 479 H 51.3093 0.432869 5.32945 0
M  V30 480 H 51.6523 -0.75331 4.09428 0
M  V30 481 H 52.1853 0.930288 3.86769 0
M  V30 482 H 48.9243 3.35353 5.63222 0
M  V30 483 H 48.4443 1.6463 5.76764 0
M  V30 484 H 50.1233 2.13352 6.10811 0
M  V30 485 N 50.2554 -1.46986 0.568584 0
M  V30 486 C 51.1874 -2.28233 -0.210337 0
M  V30 487 C 52.2004 -1.37682 -0.868767 0
M  V30 488 O 53.3894 -1.62406 -0.740705 0
M  V30 489 C 50.4894 -3.12293 -1.3163 0
M  V30 490 C 49.6624 -4.30878 -0.7525 0
M  V30 491 C 48.7214 -4.96445 -1.74439 0
M  V30 492 O 47.7474 -5.54482 -1.286 0
M  V30 493 N 48.9494 -4.92171 -3.07812 0
M  V30 494 H 51.7144 -2.95723 0.486648 0
M  V30 495 H 49.2754 -1.56742 0.405409 0
M  V30 496 H 51.2674 -3.53022 -1.97883 0
M  V30 497 H 49.8374 -2.46971 -1.91636 0
M  V30 498 H 49.0574 -3.94104 0.0871128 0
M  V30 499 H 50.3454 -5.07558 -0.35536 0
M  V30 500 H 49.7434 -4.46239 -3.47688 0
M  V30 501 H 48.3004 -5.36884 -3.69592 0
M  V30 502 N 51.7335 -0.305618 -1.54608 0
M  V30 503 C 52.9795 0.295595 -2.01241 0
M  V30 504 C 53.3345 1.51171 -1.19018 0
M  V30 505 O 52.6275 1.89832 -0.259684 0
M  V30 506 C 52.8215 0.698983 -3.50498 0
M  V30 507 C 52.6505 -0.476491 -4.47168 0
M  V30 508 C 51.4205 -0.969963 -4.95903 0
M  V30 509 C 53.6185 -1.32294 -4.96994 0
M  V30 510 N 51.6005 -2.11172 -5.76437 0
M  V30 511 C 52.9715 -2.31212 -5.75275 0
M  V30 512 C 55.0265 -1.35278 -4.7917 0
M  V30 513 C 53.7295 -3.32896 -6.37631 0
M  V30 514 C 55.7555 -2.35823 -5.42348 0
M  V30 515 C 55.1175 -3.33469 -6.20466 0
M  V30 516 H 51.2165 0.0724992 -0.778632 0
M  V30 517 H 53.8005 -0.436583 -1.89742 0
M  V30 518 H 51.9715 1.40032 -3.62278 0
M  V30 519 H 53.7035 1.28013 -3.8392 0
M  V30 520 H 50.4585 -0.544178 -4.70463 0
M  V30 521 H 50.8825 -2.68714 -6.21387 0
M  V30 522 H 55.5245 -0.61157 -4.18354 0
M  V30 523 H 53.2425 -4.07933 -6.97579 0
M  V30 524 H 56.8285 -2.38911 -5.30484 0
M  V30 525 H 55.7085 -4.09996 -6.68485 0
M  V30 526 N 53.2116 1.57565 -0.0334293 0
M  V30 527 C 54.4576 1.92262 0.645226 0
M  V30 528 C 54.7906 0.910543 1.71531 0
M  V30 529 O 54.0656 -0.066099 1.94388 0
M  V30 530 C 54.3486 3.37422 1.2577 0
M  V30 531 C 54.2016 4.49369 0.196891 0
M  V30 532 C 55.5206 3.82628 2.17449 0
M  V30 533 H 52.6396 0.699171 0.233085 0
M  V30 534 H 55.2816 1.89779 -0.0915694 0
M  V30 535 H 53.4316 3.39669 1.88566 0
M  V30 536 H 55.1036 4.59254 -0.433962 0
M  V30 537 H 53.3466 4.31168 -0.477137 0
M  V30 538 H 54.0176 5.47978 0.665124 0
M  V30 539 H 56.4936 3.82145 1.64634 0
M  V30 540 H 55.3696 4.84883 2.57254 0
M  V30 541 H 55.6306 3.18376 3.0674 0
M  V30 542 N 54.6897 -0.239769 1.55765 0
M  V30 543 C 56.1057 -0.588624 1.48349 0
M  V30 544 C 56.3057 -1.88005 0.72502 0
M  V30 545 O 55.3617 -2.51186 0.257269 0
M  V30 546 C 56.6747 -0.68474 2.928 0
M  V30 547 C 58.2227 -0.77659 3.03213 0
M  V30 548 C 58.6977 -0.904207 4.48986 0
M  V30 549 N 60.1887 -0.968896 4.52953 0
M  V30 550 C 60.9237 -1.08703 5.63002 0
M  V30 551 N 60.4197 -1.17026 6.82845 0
M  V30 552 N 62.2127 -1.12074 5.50814 0
M  V30 553 H 54.3637 0.607911 2.03515 0
M  V30 554 H 56.6267 0.21083 0.924259 0
M  V30 555 H 56.3327 0.194284 3.51163 0
M  V30 556 H 56.2067 -1.55435 3.43686 0
M  V30 557 H 58.5937 -1.64606 2.44926 0
M  V30 558 H 58.6747 0.118315 2.55526 0
M  V30 559 H 58.3187 -0.0392633 5.07885 0
M  V30 560 H 58.2487 -1.81426 4.9436 0
M  V30 561 H 60.7397 -0.915633 3.6664 0
M  V30 562 H 61.0527 -1.25966 7.62465 0
M  V30 563 H 59.3977 -1.13971 6.85591 0
M  V30 564 H 62.5887 -1.05226 4.5612 0
M  V30 565 H 62.7617 -1.20936 6.36615 0
M  V30 566 N 56.1678 -1.49265 -0.50573 0
M  V30 567 C 57.0998 -1.617 -1.62437 0
M  V30 568 C 58.1128 -0.499924 -1.54934 0
M  V30 569 O 59.3018 -0.771785 -1.60953 0
M  V30 570 C 56.4018 -1.5533 -3.01207 0
M  V30 571 C 55.5748 -2.8249 -3.33943 0
M  V30 572 C 54.6338 -2.69238 -4.52103 0
M  V30 573 O 53.6598 -3.43167 -4.5412 0
M  V30 574 N 54.8618 -1.80468 -5.51735 0
M  V30 575 H 57.6268 -2.58177 -1.52199 0
M  V30 576 H 55.1878 -1.46294 -0.693511 0
M  V30 577 H 57.1798 -1.44125 -3.78167 0
M  V30 578 H 55.7498 -0.667297 -3.05395 0
M  V30 579 H 54.9698 -3.08081 -2.45926 0
M  V30 580 H 56.2578 -3.66802 -3.5261 0
M  V30 581 H 55.6558 -1.19653 -5.52901 0
M  V30 582 H 54.2128 -1.75188 -6.27816 0
M  V30 583 N 57.6459 0.756429 -1.3826 0
M  V30 584 C 58.6089 1.85176 -1.35065 0
M  V30 585 C 59.6089 1.58818 -0.251703 0
M  V30 586 O 60.7989 1.66615 -0.508433 0
M  V30 587 C 57.9309 3.22596 -1.10201 0
M  V30 588 H 59.1239 1.89417 -2.3251 0
M  V30 589 H 56.6769 0.95783 -1.23512 0
M  V30 590 H 57.4119 3.24025 -0.133504 0
M  V30 591 H 57.1969 3.43122 -1.89762 0
M  V30 592 H 58.6869 4.02673 -1.10654 0
M  V30 593 N 59.124 1.23083 0.984299 0
M  V30 594 C 60.535 1.05609 1.5396 0
M  V30 595 C 60.886 -0.377793 1.92528 0
M  V30 596 O 60.011 -1.26398 1.75649 0
M  V30 597 C 60.606 1.91087 2.7977 0
M  V30 598 C 59.165 1.77885 3.31713 0
M  V30 599 C 58.312 1.87028 2.04733 0
M  V30 600 H 61.263 1.36802 0.804419 0
M  V30 601 H 61.284 1.43336 3.5247 0
M  V30 602 H 60.796 2.9544 2.51668 0
M  V30 603 H 58.897 0.762995 3.64704 0
M  V30 604 H 59.01 2.61047 4.01735 0
M  V30 605 H 57.374 1.30565 2.18689 0
M  V30 606 H 58.157 2.92929 1.79017 0
M  V30 607 N 60.6021 -1.18246 1.0419 0
M  V30 608 C 61.8501 -1.87886 0.744543 0
M  V30 609 C 62.1711 -1.8082 -0.730006 0
M  V30 610 O 61.4411 -1.22736 -1.52685 0
M  V30 611 H 60.0211 -0.695556 0.272417 0
M  V30 612 H 62.6831 -1.43494 1.31892 0
M  V30 613 H 61.7791 -2.9389 1.05049 0
M  V30 614 N 62.0802 -0.821533 -1.34494 0
M  V30 615 C 63.0272 -0.240397 -2.29545 0
M  V30 616 C 63.9972 0.634031 -1.53523 0
M  V30 617 O 65.1822 0.575966 -1.81899 0
M  V30 618 C 62.3222 0.592869 -3.39969 0
M  V30 619 C 61.4352 -0.30365 -4.30932 0
M  V30 620 C 60.5702 0.539049 -5.28458 0
M  V30 621 C 59.6092 -0.356942 -6.11058 0
M  V30 622 N 58.7462 0.446603 -7.00678 0
M  V30 623 H 63.5862 -1.05632 -2.7865 0
M  V30 624 H 61.1232 -0.532413 -1.37127 0
M  V30 625 H 63.0812 1.09129 -4.02675 0
M  V30 626 H 61.7112 1.37392 -2.92102 0
M  V30 627 H 60.7632 -0.920276 -3.691 0
M  V30 628 H 62.0752 -0.992661 -4.88823 0
M  V30 629 H 61.2292 1.102 -5.96608 0
M  V30 630 H 59.9682 1.26157 -4.71101 0
M  V30 631 H 58.9732 -0.932047 -5.41842 0
M  V30 632 H 60.1982 -1.07755 -6.70497 0
M  V30 633 H 58.1442 1.15282 -6.45791 0
M  V30 634 H 58.0612 -0.184048 -7.55776 0
M  V30 635 H 59.3292 0.992352 -7.73158 0
M  V30 636 N 63.5583 1.46682 -0.576371 0
M  V30 637 C 64.8063 2.02013 -0.0594163 0
M  V30 638 C 65.1273 1.45101 1.30271 0
M  V30 639 O 64.3973 0.633317 1.8538 0
M  V30 640 H 62.9773 0.746759 -0.0189745 0
M  V30 641 H 65.6393 1.79862 -0.750717 0
M  V30 642 H 64.7353 3.12097 0.014345 0
M  V30 643 N 65.0364 0.313813 1.54444 0
M  V30 644 C 65.9664 -0.549454 2.26943 0
M  V30 645 C 66.9474 -1.12741 1.27372 0
M  V30 646 O 68.1324 -1.15436 1.56167 0
M  V30 647 C 65.2624 -1.71523 3.01989 0
M  V30 648 C 64.2164 -1.26703 4.08816 0
M  V30 649 C 63.5424 -2.51898 4.71647 0
M  V30 650 C 64.8424 -0.388962 5.2085 0
M  V30 651 H 66.5364 0.0552661 2.99349 0
M  V30 652 H 64.0824 0.0280207 1.43973 0
M  V30 653 H 66.0354 -2.32535 3.51433 0
M  V30 654 H 64.7594 -2.34639 2.27183 0
M  V30 655 H 63.4184 -0.679896 3.6024 0
M  V30 656 H 63.0664 -3.13356 3.93468 0
M  V30 657 H 62.7664 -2.22605 5.43802 0
M  V30 658 H 64.2904 -3.1369 5.23861 0
M  V30 659 H 65.7044 -0.905107 5.6611 0
M  V30 660 H 64.1014 -0.18924 5.99802 0
M  V30 661 H 65.1714 0.582699 4.81386 0
M  V30 662 N 66.5145 -1.57545 0.0417849 0
M  V30 663 C 67.4245 -2.14451 -0.951213 0
M  V30 664 C 68.4405 -1.09992 -1.34825 0
M  V30 665 O 69.6165 -1.42114 -1.42708 0
M  V30 666 C 66.6815 -2.67063 -2.21084 0
M  V30 667 C 65.7425 -3.86284 -1.87304 0
M  V30 668 C 64.9755 -4.36378 -3.07261 0
M  V30 669 O 65.1985 -3.85587 -4.20332 0
M  V30 670 O 64.1325 -5.28077 -2.88822 0
M  V30 671 H 67.9585 -2.99601 -0.497287 0
M  V30 672 H 65.5435 -1.48317 -0.179567 0
M  V30 673 H 67.4255 -3.00914 -2.95006 0
M  V30 674 H 66.1005 -1.84989 -2.65633 0
M  V30 675 H 65.0075 -3.57338 -1.10727 0
M  V30 676 H 66.3405 -4.6956 -1.47562 0
M  V30 677 N 67.9926 0.231505 -1.5589 0
M  V30 678 C 69.2386 0.954429 -1.79617 0
M  V30 679 C 69.5936 1.82367 -0.613199 0
M  V30 680 O 68.8866 1.87524 0.393094 0
M  V30 681 C 69.0806 1.83577 -3.0665 0
M  V30 682 C 68.9096 1.05334 -4.3719 0
M  V30 683 C 67.6796 0.75225 -4.99669 0
M  V30 684 C 69.8776 0.423444 -5.12554 0
M  V30 685 N 67.8596 -0.052627 -6.13877 0
M  V30 686 C 69.2306 -0.245287 -6.19515 0
M  V30 687 C 71.2856 0.335466 -4.96769 0
M  V30 688 C 69.9886 -0.993566 -7.12405 0
M  V30 689 C 72.0146 -0.399321 -5.9005 0
M  V30 690 C 71.3766 -1.05663 -6.9643 0
M  V30 691 H 67.4756 0.329846 -0.709031 0
M  V30 692 H 70.0596 0.226172 -1.93382 0
M  V30 693 H 68.2306 2.53592 -2.94186 0
M  V30 694 H 69.9626 2.49541 -3.18608 0
M  V30 695 H 66.7176 1.06783 -4.61405 0
M  V30 696 H 67.1416 -0.443609 -6.75545 0
M  V30 697 H 71.7836 0.829311 -4.14587 0
M  V30 698 H 69.5016 -1.49896 -7.94076 0
M  V30 699 H 73.0876 -0.468265 -5.79913 0
M  V30 700 H 71.9676 -1.61612 -7.67366 0
M  V30 701 N 69.4707 1.49531 0.497807 0
M  V30 702 C 70.7167 1.59415 1.25358 0
M  V30 703 C 71.0497 0.281422 1.9215 0
M  V30 704 O 70.3247 -0.715249 1.80871 0
M  V30 705 C 70.6077 2.75566 2.3181 0
M  V30 706 C 70.4607 4.16642 1.69498 0
M  V30 707 C 71.7797 2.87347 3.33346 0
M  V30 708 H 68.8987 0.580244 0.454408 0
M  V30 709 H 71.5407 1.81827 0.551262 0
M  V30 710 H 69.6907 2.56587 2.91711 0
M  V30 711 H 71.3627 4.47145 1.13399 0
M  V30 712 H 69.6057 4.22141 0.998978 0
M  V30 713 H 70.2767 4.93792 2.46725 0
M  V30 714 H 72.7527 3.04634 2.83438 0
M  V30 715 H 71.6287 3.70289 4.05188 0
M  V30 716 H 71.8897 1.96834 3.95865 0
M  V30 717 N 70.9488 -0.749086 1.3866 0
M  V30 718 C 72.1738 -1.54344 1.38538 0
M  V30 719 C 72.5988 -1.88088 -0.0216655 0
M  V30 720 O 71.9568 -1.50899 -1.00494 0
M  V30 721 C 72.0048 -2.8164 2.25192 0
M  V30 722 O 71.1088 -3.7698 1.67212 0
M  V30 723 H 70.4498 -0.466654 0.472367 0
M  V30 724 H 72.9798 -0.925355 1.82478 0
M  V30 725 H 72.9898 -3.30519 2.3921 0
M  V30 726 H 71.6648 -2.56411 3.27454 0
M  V30 727 H 70.2418 -3.35699 1.6236 0
M  V30 728 N 72.4269 -1.23603 -0.977757 0
M  V30 729 C 73.6519 -1.09735 -1.75991 0
M  V30 730 C 74.0769 0.346858 -1.84874 0
M  V30 731 O 73.4349 1.25093 -1.3123 0
M  V30 732 C 73.4829 -1.73051 -3.16363 0
M  V30 733 O 72.5869 -0.994452 -4.0023 0
M  V30 734 H 71.9279 -0.384476 -0.541364 0
M  V30 735 H 74.4579 -1.6371 -1.2272 0
M  V30 736 H 74.4679 -1.78398 -3.66931 0
M  V30 737 H 73.1429 -2.78137 -3.09213 0
M  V30 738 H 71.7199 -1.01812 -3.58732 0
M  V30 739 N 73.905 1.17692 -1.04816 0
M  V30 740 C 75.154 1.87192 -0.751132 0
M  V30 741 C 75.467 1.8169 0.724441 0
M  V30 742 O 76.673 2.46625 1.13527 0
M  V30 743 C 75.129 3.35857 -1.29338 0
M  V30 744 C 74.737 3.4987 -2.79812 0
M  V30 745 C 76.481 4.10709 -1.07322 0
M  V30 746 C 74.388 4.92536 -3.27356 0
M  V30 747 H 73.318 0.701162 -0.277288 0
M  V30 748 H 75.969 1.32932 -1.26496 0
M  V30 749 H 74.351 3.89631 -0.707376 0
M  V30 750 H 75.525 3.06332 -3.44235 0
M  V30 751 H 73.84 2.88433 -3.00325 0
M  V30 752 H 76.437 5.15952 -1.4035 0
M  V30 753 H 76.78 4.16299 -0.0108001 0
M  V30 754 H 77.313 3.6313 -1.62423 0
M  V30 755 H 74.052 4.92119 -4.33012 0
M  V30 756 H 73.572 5.3676 -2.67673 0
M  V30 757 H 75.251 5.61288 -3.21815 0
M  V30 758 N 75.3831 0.828654 1.34056 0
M  V30 759 C 76.6081 0.431637 2.02859 0
M  V30 760 C 77.0331 -0.956339 1.61975 0
M  V30 761 O 76.3911 -1.62338 0.807228 0
M  V30 762 C 76.4391 0.548323 3.56407 0
M  V30 763 O 75.5431 -0.429556 4.10157 0
M  V30 764 H 74.8841 0.176886 0.640006 0
M  V30 765 H 77.4141 1.12066 1.71179 0
M  V30 766 H 77.4241 0.426196 4.05768 0
M  V30 767 H 76.0991 1.5606 3.8551 0
M  V30 768 H 74.6761 -0.265836 3.71951 0
M  V30 769 N 76.8612 -1.46375 0.584142 0
M  V30 770 C 78.2722 -1.86031 0.157959 0
M  V30 771 C 78.6232 -1.48753 -1.27933 0
M  V30 772 O 77.7482 -0.903098 -1.96655 0
M  V30 773 C 78.3432 -3.37642 0.279892 0
M  V30 774 C 76.9022 -3.76289 -0.09143 0
M  V30 775 C 76.0492 -2.7039 0.615178 0
M  V30 776 H 79.0002 -1.37509 0.792274 0
M  V30 777 H 79.0212 -3.77275 -0.494364 0
M  V30 778 H 78.5332 -3.64742 1.32607 0
M  V30 779 H 76.6342 -3.54806 -1.13769 0
M  V30 780 H 76.7472 -4.78246 0.285886 0
M  V30 781 H 75.1112 -2.5464 0.0552833 0
M  V30 782 H 75.8942 -3.0033 1.66303 0
M  V30 783 N 78.3393 -0.321999 -1.54275 0
M  V30 784 C 79.5643 0.285791 -2.05422 0
M  V30 785 C 79.9893 1.45124 -1.19669 0
M  V30 786 O 79.3473 1.80132 -0.205441 0
M  V30 787 C 79.3953 0.69956 -3.53749 0
M  V30 788 O 78.4993 1.8021 -3.70942 0
M  V30 789 H 77.8403 0.0518962 -0.661969 0
M  V30 790 H 80.3703 -0.469954 -1.9913 0
M  V30 791 H 80.3803 0.982649 -3.9599 0
M  V30 792 H 79.0553 -0.152864 -4.15619 0
M  V30 793 H 77.6323 1.51794 -3.40607 0
M  V30 794 N 79.8174 1.5752 -0.0501392 0
M  V30 795 C 81.0654 1.9227 0.622642 0
M  V30 796 C 81.3864 0.929083 1.71444 0
M  V30 797 O 80.6564 -0.0262186 1.95882 0
M  V30 798 H 79.2364 0.709739 0.232981 0
M  V30 799 H 81.8984 1.94628 -0.102898 0
M  V30 800 H 80.9944 2.93479 1.06191 0
M  V30 801 N 81.2955 -0.223234 1.56011 0
M  V30 802 C 82.2275 -1.30006 1.88762 0
M  V30 803 C 83.2405 -1.43129 0.775746 0
M  V30 804 O 84.4295 -1.44057 1.05403 0
M  V30 805 C 81.5295 -2.67589 2.07965 0
M  V30 806 C 80.7025 -2.76434 3.38973 0
M  V30 807 C 79.7615 -3.95019 3.47629 0
M  V30 808 O 78.7875 -3.83436 4.20672 0
M  V30 809 N 79.9895 -5.09249 2.78649 0
M  V30 810 H 82.7545 -1.02238 2.81722 0
M  V30 811 H 80.3155 -0.413278 1.56536 0
M  V30 812 H 82.3075 -3.45297 2.11073 0
M  V30 813 H 80.8775 -2.87964 1.21638 0
M  V30 814 H 80.0975 -1.85216 3.47978 0
M  V30 815 H 81.3855 -2.79313 4.25278 0
M  V30 816 H 80.7835 -5.21556 2.19081 0
M  V30 817 H 79.3405 -5.85007 2.8742 0
M  V30 818 N 82.7736 -1.49793 -0.48987 0
M  V30 819 C 83.9986 -1.63836 -1.27172 0
M  V30 820 C 84.4236 -0.31402 -1.8546 0
M  V30 821 O 83.7816 0.719803 -1.66399 0
M  V30 822 C 83.8296 -2.71797 -2.36978 0
M  V30 823 O 82.9336 -2.31744 -3.41128 0
M  V30 824 H 82.2746 -0.547997 -0.37496 0
M  V30 825 H 84.8046 -1.96053 -0.585191 0
M  V30 826 H 84.8146 -2.94305 -2.82575 0
M  V30 827 H 83.4896 -3.67923 -1.93921 0
M  V30 828 H 82.0666 -2.1961 -3.01373 0
M  V30 829 N 84.2517 0.741722 -1.39055 0
M  V30 830 C 85.4797 1.53098 -1.39171 0
M  V30 831 C 85.8947 1.88794 0.0155099 0
M  V30 832 O 85.2517 1.53626 0.985159 0
M  V30 833 C 85.3027 2.82274 -2.2584 0
M  V30 834 O 85.0237 2.48097 -3.61081 0
M  V30 835 C 86.5247 3.76343 -2.34266 0
M  V30 836 H 83.7447 0.473335 -0.4756 0
M  V30 837 H 86.2887 0.917045 -1.82785 0
M  V30 838 H 84.4437 3.40015 -1.85656 0
M  V30 839 H 84.8577 3.31029 -4.06842 0
M  V30 840 H 86.3317 4.63898 -2.9917 0
M  V30 841 H 86.8087 4.17619 -1.35982 0
M  V30 842 H 87.4147 3.24523 -2.74891 0
M  V30 843 N 85.7298 1.2412 0.971189 0
M  V30 844 C 86.9598 1.10415 1.7462 0
M  V30 845 C 87.3678 -0.346462 1.86001 0
M  V30 846 O 86.7108 -1.25104 1.34517 0
M  V30 847 C 86.7728 1.66596 3.18568 0
M  V30 848 C 86.4368 3.15446 3.3067 0
M  V30 849 C 87.4338 4.12636 3.16271 0
M  V30 850 C 85.1188 3.55337 3.55022 0
M  V30 851 C 87.1128 5.47699 3.26044 0
M  V30 852 C 84.7998 4.90542 3.64434 0
M  V30 853 C 85.7978 5.86532 3.49956 0
M  V30 854 O 85.4858 7.19279 3.59017 0
M  V30 855 H 85.2178 0.386616 0.55453 0
M  V30 856 H 87.7718 1.64633 1.22821 0
M  V30 857 H 86.0018 1.06808 3.71657 0
M  V30 858 H 87.6908 1.48232 3.77865 0
M  V30 859 H 88.4568 3.8316 2.97344 0
M  V30 860 H 84.3358 2.8113 3.65359 0
M  V30 861 H 87.8798 6.22603 3.14661 0
M  V30 862 H 83.7768 5.19691 3.82873 0
M  V30 863 H 84.5448 7.27153 3.75754 0
M  V30 864 N 87.2079 -1.17134 1.05439 0
M  V30 865 C 88.4379 -1.91094 0.785274 0
M  V30 866 C 88.8459 -1.77198 -0.663142 0
M  V30 867 O 88.1889 -1.10835 -1.46497 0
M  V30 868 C 88.2509 -3.42594 1.08949 0
M  V30 869 C 87.9149 -3.80274 2.53458 0
M  V30 870 C 88.9119 -3.82912 3.51673 0
M  V30 871 C 86.5969 -4.11162 2.88532 0
M  V30 872 C 88.5909 -4.15913 4.83006 0
M  V30 873 C 86.2779 -4.43831 4.20068 0
M  V30 874 C 87.2759 -4.46185 5.17115 0
M  V30 875 O 86.9639 -4.78083 6.46291 0
M  V30 876 H 86.6959 -0.613073 0.284811 0
M  V30 877 H 89.2499 -1.49461 1.40893 0
M  V30 878 H 87.4799 -3.84534 0.408741 0
M  V30 879 H 89.1689 -3.97817 0.805991 0
M  V30 880 H 89.9349 -3.5917 3.25917 0
M  V30 881 H 85.8139 -4.085 2.13656 0
M  V30 882 H 89.3579 -4.17665 5.5875 0
M  V30 883 H 85.2549 -4.67037 4.45586 0
M  V30 884 H 86.0229 -4.9593 6.51149 0
M  V30 885 N 88.686 -0.835752 -1.33615 0
M  V30 886 C 90.102 -0.523139 -1.50783 0
M  V30 887 C 90.302 0.950171 -1.77691 0
M  V30 888 O 89.358 1.73411 -1.83534 0
M  V30 889 C 90.671 -1.39378 -2.66448 0
M  V30 890 C 92.219 -1.39223 -2.80332 0
M  V30 891 C 92.694 -2.24765 -3.99055 0
M  V30 892 N 94.185 -2.22458 -4.06284 0
M  V30 893 C 94.92 -2.85386 -4.97336 0
M  V30 894 N 94.416 -3.57354 -5.93523 0
M  V30 895 N 96.209 -2.74872 -4.90308 0
M  V30 896 H 88.36 -1.78952 -1.14411 0
M  V30 897 H 90.623 -0.763297 -0.562212 0
M  V30 898 H 90.329 -2.44061 -2.53234 0
M  V30 899 H 90.203 -1.0676 -3.61776 0
M  V30 900 H 92.59 -0.353136 -2.92979 0
M  V30 901 H 92.671 -1.75846 -1.85773 0
M  V30 902 H 92.315 -3.28732 -3.87167 0
M  V30 903 H 92.245 -1.85485 -4.92852 0
M  V30 904 H 94.736 -1.70119 -3.37443 0
M  V30 905 H 95.049 -4.02584 -6.59656 0
M  V30 906 H 93.394 -3.61461 -5.93608 0
M  V30 907 H 96.585 -2.18213 -4.14126 0
M  V30 908 H 96.758 -3.24199 -5.61069 0
M  V30 909 N 90.1641 1.46063 -0.591896 0
M  V30 910 C 91.5801 1.57561 -0.254288 0
M  V30 911 C 91.7801 1.58565 1.24336 0
M  V30 912 O 90.8361 1.50753 2.02558 0
M  V30 913 C 92.1491 2.86549 -0.911611 0
M  V30 914 C 93.6971 3.00197 -0.886059 0
M  V30 915 C 94.1721 4.31933 -1.5231 0
M  V30 916 N 95.6631 4.38654 -1.48786 0
M  V30 917 C 96.3981 5.39222 -1.95006 0
M  V30 918 N 95.8941 6.46414 -2.49241 0
M  V30 919 N 97.6871 5.3048 -1.85868 0
M  V30 920 H 89.8381 1.43655 -1.56451 0
M  V30 921 H 92.1011 0.68583 -0.654478 0
M  V30 922 H 91.8071 2.91651 -1.96551 0
M  V30 923 H 91.6811 3.74794 -0.425368 0
M  V30 924 H 94.0681 2.9467 0.159246 0
M  V30 925 H 94.1491 2.13403 -1.41041 0
M  V30 926 H 93.7931 4.38217 -2.56765 0
M  V30 927 H 93.7231 5.17516 -0.973891 0
M  V30 928 H 96.2141 3.61793 -1.09151 0
M  V30 929 H 96.5271 7.19376 -2.82344 0
M  V30 930 H 94.8721 6.47208 -2.53272 0
M  V30 931 H 98.0631 4.45643 -1.43248 0
M  V30 932 H 98.2361 6.08711 -2.22204 0
M  V30 933 N 91.6422 0.330177 1.54103 0
M  V30 934 C 92.5522 -0.541534 2.28264 0
M  V30 935 C 93.5682 -1.12351 1.32866 0
M  V30 936 O 94.7442 -1.14206 1.65888 0
M  V30 937 C 91.8092 -1.68322 3.03098 0
M  V30 938 C 90.8702 -1.13238 4.14096 0
M  V30 939 C 90.1032 -2.21966 4.85352 0
M  V30 940 O 90.3262 -3.42437 4.56172 0
M  V30 941 O 89.2602 -1.87013 5.7211 0
M  V30 942 H 93.0862 0.060938 3.03639 0
M  V30 943 H 90.6712 0.09565 1.49093 0
M  V30 944 H 92.5532 -2.34777 3.49939 0
M  V30 945 H 91.2282 -2.27176 2.30593 0
M  V30 946 H 90.1352 -0.432736 3.71589 0
M  V30 947 H 91.4682 -0.588898 4.88664 0
M  V30 948 N 93.1203 -1.57491 0.0584922 0
M  V30 949 C 94.3663 -1.93264 -0.614558 0
M  V30 950 C 94.6993 -0.937717 -1.7006 0
M  V30 951 O 93.9743 0.0351652 -1.94468 0
M  V30 952 C 94.2573 -3.3938 -1.20386 0
M  V30 953 C 94.1103 -4.49625 -0.125375 0
M  V30 954 C 95.4293 -3.86039 -2.11334 0
M  V30 955 H 92.5483 -0.702791 -0.221933 0
M  V30 956 H 95.1903 -1.8961 0.12175 0
M  V30 957 H 93.3403 -3.42626 -1.83139 0
M  V30 958 H 95.0123 -4.58506 0.506971 0
M  V30 959 H 93.2553 -4.30354 0.545672 0
M  V30 960 H 93.9263 -5.48967 -0.577861 0
M  V30 961 H 96.4023 -3.84716 -1.58534 0
M  V30 962 H 95.2783 -4.88914 -2.49507 0
M  V30 963 H 95.5393 -3.23215 -3.01636 0
M  V30 964 N 94.5984 0.214957 -1.56127 0
M  V30 965 C 95.5454 1.26642 -1.92952 0
M  V30 966 C 96.5154 1.46244 -0.78753 0
M  V30 967 O 97.7004 1.59704 -1.04399 0
M  V30 968 C 94.8404 2.6104 -2.25726 0
M  V30 969 C 93.9534 2.49183 -3.52891 0
M  V30 970 C 93.0884 3.76149 -3.7508 0
M  V30 971 C 92.1274 3.59041 -4.95738 0
M  V30 972 N 91.2644 4.77972 -5.14283 0
M  V30 973 H 96.1044 0.945384 -2.82607 0
M  V30 974 H 93.6414 0.455489 -1.3987 0
M  V30 975 H 95.5994 3.39313 -2.42739 0
M  V30 976 H 94.2294 2.91227 -1.39236 0
M  V30 977 H 93.2814 1.6231 -3.44034 0
M  V30 978 H 94.5934 2.32466 -4.41318 0
M  V30 979 H 93.7474 4.62865 -3.92226 0
M  V30 980 H 92.4864 3.95799 -2.84947 0
M  V30 981 H 91.4914 2.7071 -4.78535 0
M  V30 982 H 92.7164 3.40856 -5.87362 0
M  V30 983 H 90.6624 4.97923 -4.27093 0
M  V30 984 H 90.5794 4.64006 -5.96853 0
M  V30 985 H 91.8474 5.66096 -5.35869 0
M  V30 986 N 96.0765 1.50051 0.48192 0
M  V30 987 C 97.3245 1.60181 1.23234 0
M  V30 988 C 97.6455 0.299176 1.92691 0
M  V30 989 O 96.9155 -0.682708 1.83619 0
M  V30 990 H 95.4955 0.590232 0.457859 0
M  V30 991 H 98.1575 1.86775 0.556881 0
M  V30 992 H 97.2535 2.40753 1.98607 0
M  V30 993 N 97.5546 -0.734337 1.39446 0
M  V30 994 C 98.9706 -1.03997 1.21065 0
M  V30 995 C 99.1706 -2.01369 0.0727019 0
M  V30 996 O 98.2266 -2.45856 -0.575426 0
M  V30 997 C 99.5396 -1.60163 2.54496 0
M  V30 998 C 101.088 -1.7224 2.61347 0
M  V30 999 C 101.563 -2.31814 3.95002 0
M  V30 1000 N 103.054 -2.39223 3.96644 0
M  V30 1001 C 103.789 -2.86258 4.96834 0
M  V30 1002 N 103.285 -3.33184 6.07421 0
M  V30 1003 N 105.078 -2.85473 4.84213 0
M  V30 1004 H 97.2286 -0.0885624 2.12215 0
M  V30 1005 H 99.4916 -0.10191 0.942506 0
M  V30 1006 H 99.1976 -0.960811 3.38321 0
M  V30 1007 H 99.0716 -2.5896 2.74262 0
M  V30 1008 H 101.459 -2.35443 1.77906 0
M  V30 1009 H 101.54 -0.720939 2.4543 0
M  V30 1010 H 101.184 -1.69238 4.78875 0
M  V30 1011 H 101.114 -3.32638 4.08239 0
M  V30 1012 H 103.605 -2.06057 3.16779 0
M  V30 1013 H 103.918 -3.67586 6.7978 0
M  V30 1014 H 102.263 -3.31191 6.11013 0
M  V30 1015 H 105.454 -2.48136 3.96921 0
M  V30 1016 H 105.627 -3.21814 5.62441 0
M  V30 1017 N 99.0327 -1.24633 -0.964593 0
M  V30 1018 C 100.28 -1.08788 -1.70796 0
M  V30 1019 C 100.608 0.372783 -1.90894 0
M  V30 1020 O 99.8627 1.29167 -1.47018 0
M  V30 1021 C 100.162 -1.7763 -3.10133 0
M  V30 1022 C 99.8277 -3.27557 -3.09866 0
M  V30 1023 C 98.4897 -3.6846 -3.09501 0
M  V30 1024 C 100.842 -4.23389 -3.03959 0
M  V30 1025 C 98.1697 -5.03624 -3.00965 0
M  V30 1026 C 100.522 -5.58565 -2.96965 0
M  V30 1027 C 99.1857 -5.98809 -2.9493 0
M  V30 1028 H 98.4557 -0.398084 -0.624988 0
M  V30 1029 H 101.103 -1.54777 -1.12767 0
M  V30 1030 H 99.4077 -1.24044 -3.71645 0
M  V30 1031 H 101.105 -1.62832 -3.66451 0
M  V30 1032 H 97.6947 -2.95006 -3.10917 0
M  V30 1033 H 101.879 -3.92787 -3.03368 0
M  V30 1034 H 97.1347 -5.33998 -2.97752 0
M  V30 1035 H 101.309 -6.32523 -2.91354 0
M  V30 1036 H 98.9357 -7.03505 -2.88071 0
M  V30 1037 N 100.511 1.16574 -1.06058 0
M  V30 1038 C 101.739 1.90952 -0.796552 0
M  V30 1039 C 102.154 1.77302 0.648808 0
M  V30 1040 O 101.511 1.11605 1.44397 0
M  V30 1041 C 101.562 3.41736 -1.17894 0
M  V30 1042 O 101.283 3.54975 -2.56758 0
M  V30 1043 C 102.784 4.33169 -0.942308 0
M  V30 1044 H 100.004 0.605594 -0.288959 0
M  V30 1045 H 102.548 1.47777 -1.41358 0
M  V30 1046 H 100.703 3.82623 -0.606491 0
M  V30 1047 H 101.117 4.4846 -2.72 0
M  V30 1048 H 102.591 5.37439 -1.25952 0
M  V30 1049 H 103.068 4.3903 0.122078 0
M  V30 1050 H 103.674 3.98007 -1.49902 0
M  V30 1051 N 101.989 0.842826 1.3317 0
M  V30 1052 C 103.238 0.436738 1.96915 0
M  V30 1053 C 103.551 -1.01025 1.67491 0
M  V30 1054 O 104.757 -1.5212 2.24881 0
M  V30 1055 C 103.213 0.730021 3.52418 0
M  V30 1056 C 102.821 2.19195 3.90714 0
M  V30 1057 C 104.565 0.391076 4.22695 0
M  V30 1058 C 102.472 2.42907 5.39212 0
M  V30 1059 H 101.402 0.15958 0.736919 0
M  V30 1060 H 104.053 1.03196 1.51733 0
M  V30 1061 H 102.435 0.0643755 3.95948 0
M  V30 1062 H 103.609 2.8984 3.58231 0
M  V30 1063 H 101.924 2.49425 3.33431 0
M  V30 1064 H 104.521 0.545817 5.31907 0
M  V30 1065 H 104.864 -0.666294 4.10933 0
M  V30 1066 H 105.397 1.01212 3.84709 0
M  V30 1067 H 102.136 3.47224 5.55982 0
M  V30 1068 H 101.656 1.76827 5.73142 0
M  V30 1069 H 103.335 2.2626 6.06148 0
M  V30 1070 N 103.467 -1.45747 0.599634 0
M  V30 1071 C 104.692 -2.07178 0.0960198 0
M  V30 1072 C 105.117 -1.44268 -1.207 0
M  V30 1073 O 104.475 -0.532503 -1.73303 0
M  V30 1074 C 104.523 -3.60579 -0.0385348 0
M  V30 1075 O 103.627 -3.97713 -1.0908 0
M  V30 1076 H 102.968 -0.660251 0.0704593 0
M  V30 1077 H 105.498 -1.87124 0.827385 0
M  V30 1078 H 105.508 -4.07298 -0.239304 0
M  V30 1079 H 104.183 -4.05756 0.912947 0
M  V30 1080 H 102.76 -3.62678 -0.867135 0
M  V30 1081 N 104.945 -0.338344 -1.53925 0
M  V30 1082 C 106.361 0.0137736 -1.59594 0
M  V30 1083 C 106.561 1.49186 -1.35447 0
M  V30 1084 O 105.617 2.24987 -1.14616 0
M  V30 1085 C 106.93 -0.41773 -2.97784 0
M  V30 1086 C 108.478 -0.369633 -3.1081 0
M  V30 1087 C 108.953 -0.776524 -4.51369 0
M  V30 1088 N 110.444 -0.730506 -4.57403 0
M  V30 1089 C 111.179 -1.01736 -5.64303 0
M  V30 1090 N 110.675 -1.3721 -6.79077 0
M  V30 1091 N 112.468 -0.941942 -5.54151 0
M  V30 1092 H 104.619 -1.3012 -1.67876 0
M  V30 1093 H 106.882 -0.530082 -0.78595 0
M  V30 1094 H 106.588 -1.44811 -3.20504 0
M  V30 1095 H 106.462 0.209729 -3.76616 0
M  V30 1096 H 108.849 0.651568 -2.87817 0
M  V30 1097 H 108.93 -1.03223 -2.34049 0
M  V30 1098 H 108.574 -1.79571 -4.75096 0
M  V30 1099 H 108.504 -0.0914649 -5.26521 0
M  V30 1100 H 110.995 -0.468783 -3.74981 0
M  V30 1101 H 111.308 -1.57597 -7.5656 0
M  V30 1102 H 109.653 -1.4105 -6.80536 0
M  V30 1103 H 112.844 -0.664184 -4.63364 0
M  V30 1104 H 113.017 -1.16884 -6.37371 0
M  V30 1105 N 106.423 1.57458 -0.0668435 0
M  V30 1106 C 107.7 1.8469 0.644132 0
M  V30 1107 C 108.08 0.958343 1.88093 0
M  V30 1108 O 107.428 0.0233579 2.28488 0
M  V30 1109 C 107.638 3.34767 0.986509 0
M  V30 1110 C 108.986 4.02159 1.36212 0
M  V30 1111 O 110.01 3.39484 1.07839 0
M  V30 1112 O 108.869 5.12694 1.89227 0
M  V30 1113 H 105.963 0.762816 0.319437 0
M  V30 1114 H 108.509 1.6942 -0.0973986 0
M  V30 1115 H 107.281 3.91151 0.107883 0
M  V30 1116 H 106.904 3.55281 1.78497 0
M  V30 1117 N 107.901 -0.206675 1.56239 0
M  V30 1118 C 108.849 -1.27571 1.94495 0
M  V30 1119 C 109.843 -1.47737 0.828862 0
M  V30 1120 O 111.049 -1.48735 1.0138 0
M  V30 1121 H 107.424 -0.428029 0.6183 0
M  V30 1122 H 109.395 -0.925961 2.8367 0
M  V30 1123 C 108.144 -2.61568 2.29079 0
M  V30 1124 H 107.467 -2.46863 3.14482 0
M  V30 1125 H 108.907 -3.35144 2.5972 0
M  V30 1126 C 107.366 -3.17695 1.12123 0
M  V30 1127 O 107.896 -3.99801 0.390153 0
M  V30 1128 N 106.102 -2.76276 0.901097 0
M  V30 1129 H 105.649 -2.09613 1.49733 0
M  V30 1130 H 105.607 -3.1417 0.120319 0
M  V30 1131 N 109.379 -1.50304 -0.473955 0
M  V30 1132 C 110.604 -1.65175 -1.25427 0
M  V30 1133 C 111.029 -0.333673 -1.85117 0
M  V30 1134 O 110.387 0.702114 -1.67153 0
M  V30 1135 C 110.435 -2.74295 -2.34082 0
M  V30 1136 O 109.539 -2.35349 -3.38651 0
M  V30 1137 H 108.88 -0.551944 -0.369126 0
M  V30 1138 H 111.41 -1.96662 -0.564364 0
M  V30 1139 H 111.42 -2.97285 -2.79438 0
M  V30 1140 H 110.095 -3.69959 -1.90008 0
M  V30 1141 H 108.672 -2.22794 -2.99027 0
M  V30 1142 N 110.857 0.726932 -1.39834 0
M  V30 1143 C 111.804 1.841 -1.39197 0
M  V30 1144 C 112.774 1.642 -0.250502 0
M  V30 1145 O 113.959 1.85494 -0.446846 0
M  V30 1146 C 111.099 3.21697 -1.24919 0
M  V30 1147 C 110.212 3.53247 -2.48678 0
M  V30 1148 C 109.347 4.80289 -2.26928 0
M  V30 1149 C 108.386 5.04707 -3.4632 0
M  V30 1150 N 107.523 6.22956 -3.23836 0
M  V30 1151 H 112.363 1.83979 -2.34427 0
M  V30 1152 H 109.9 0.898876 -1.16442 0
M  V30 1153 H 111.858 4.01137 -1.1465 0
M  V30 1154 H 110.488 3.21076 -0.333153 0
M  V30 1155 H 109.54 2.68447 -2.69519 0
M  V30 1156 H 110.852 3.67205 -3.37582 0
M  V30 1157 H 110.006 5.67725 -2.13947 0
M  V30 1158 H 108.745 4.68519 -1.35431 0
M  V30 1159 H 107.75 4.1573 -3.5979 0
M  V30 1160 H 108.975 5.18357 -4.38729 0
M  V30 1161 H 106.921 6.12459 -2.35011 0
M  V30 1162 H 106.838 6.37539 -4.063 0
M  V30 1163 H 108.106 7.1321 -3.14566 0
M  V30 1164 N 112.336 1.25143 0.95797 0
M  V30 1165 C 113.284 1.05019 2.07542 0
M  V30 1166 C 114.278 -0.0178751 1.69391 0
M  V30 1167 O 115.484 0.137472 1.79474 0
M  V30 1168 H 111.859 0.32265 0.679265 0
M  V30 1169 H 113.83 1.99759 2.21673 0
M  V30 1170 C 112.579 0.682074 3.40944 0
M  V30 1171 H 111.902 1.49573 3.70767 0
M  V30 1172 H 113.342 0.580945 4.20001 0
M  V30 1173 C 111.801 -0.611608 3.31302 0
M  V30 1174 O 112.331 -1.65465 3.66038 0
M  V30 1175 N 110.537 -0.595982 2.84423 0
M  V30 1176 H 110.084 0.253192 2.56353 0
M  V30 1177 H 110.042 -1.46173 2.78354 0
M  V30 1178 N 113.814 -1.1601 1.06675 0
M  V30 1179 C 115.042 -1.90527 0.806667 0
M  V30 1180 C 115.457 -1.77643 -0.639396 0
M  V30 1181 O 114.814 -1.12369 -1.43803 0
M  V30 1182 C 114.865 -3.41106 1.19705 0
M  V30 1183 O 114.586 -3.53608 2.58636 0
M  V30 1184 C 116.087 -4.32663 0.965266 0
M  V30 1185 H 113.307 -0.604053 0.292166 0
M  V30 1186 H 115.851 -1.47026 1.4214 0
M  V30 1187 H 114.006 -3.82296 0.626774 0
M  V30 1188 H 114.42 -4.47011 2.74375 0
M  V30 1189 H 115.894 -5.36763 1.288 0
M  V30 1190 H 116.371 -4.39089 -0.0987936 0
M  V30 1191 H 116.977 -3.97206 1.52011 0
M  V30 1192 N 115.292 -0.849877 -1.32721 0
M  V30 1193 C 116.222 -0.306308 -2.31482 0
M  V30 1194 C 117.203 0.591952 -1.59468 0
M  V30 1195 O 118.388 0.513199 -1.87296 0
M  V30 1196 C 115.518 0.510204 -3.43532 0
M  V30 1197 C 114.472 -0.293209 -4.26994 0
M  V30 1198 C 113.798 0.647743 -5.30762 0
M  V30 1199 C 115.098 -1.51634 -4.99804 0
M  V30 1200 H 116.792 -1.13153 -2.77195 0
M  V30 1201 H 114.338 -0.545553 -1.33266 0
M  V30 1202 H 116.291 0.900856 -4.11658 0
M  V30 1203 H 115.015 1.36874 -2.96535 0
M  V30 1204 H 113.674 -0.665555 -3.60508 0
M  V30 1205 H 113.322 1.50299 -4.8002 0
M  V30 1206 H 113.022 0.11422 -5.87489 0
M  V30 1207 H 114.546 1.03567 -6.01753 0
M  V30 1208 H 115.96 -1.19824 -5.60638 0
M  V30 1209 H 114.357 -1.98745 -5.66234 0
M  V30 1210 H 115.427 -2.28018 -4.27943 0
M  V30 1211 N 116.77 1.45427 -0.607355 0
M  V30 1212 C 118 2.06314 -0.108656 0
M  V30 1213 C 118.408 1.45269 1.21217 0
M  V30 1214 O 117.751 0.561115 1.74921 0
M  V30 1215 C 117.813 3.59345 0.105618 0
M  V30 1216 C 117.477 4.42723 -1.13337 0
M  V30 1217 C 118.474 4.77715 -2.05145 0
M  V30 1218 C 116.159 4.83478 -1.36213 0
M  V30 1219 C 118.153 5.52317 -3.18158 0
M  V30 1220 C 115.84 5.57835 -2.49527 0
M  V30 1221 C 116.838 5.92171 -3.40327 0
M  V30 1222 O 116.526 6.65019 -4.51669 0
M  V30 1223 H 116.258 0.672782 -0.0658842 0
M  V30 1224 H 118.812 1.87664 -0.834945 0
M  V30 1225 H 117.042 3.76394 0.886796 0
M  V30 1226 H 118.731 4.02076 0.555886 0
M  V30 1227 H 119.497 4.46787 -1.88697 0
M  V30 1228 H 115.376 4.56188 -0.664362 0
M  V30 1229 H 118.92 5.79036 -3.89054 0
M  V30 1230 H 114.817 5.88177 -2.65928 0
M  V30 1231 H 115.585 6.83469 -4.50348 0
M  V30 1232 N 118.248 0.346503 1.53744 0
M  V30 1233 C 119.178 -0.501193 2.28058 0
M  V30 1234 C 120.159 -1.10014 1.29734 0
M  V30 1235 O 121.344 -1.12097 1.58581 0
M  V30 1236 C 118.474 -1.65078 3.05559 0
M  V30 1237 C 117.428 -1.18003 4.11411 0
M  V30 1238 C 116.754 -2.41837 4.76884 0
M  V30 1239 C 118.054 -0.278394 5.21558 0
M  V30 1240 H 119.748 0.11875 2.99164 0
M  V30 1241 H 117.294 0.0585531 1.43881 0
M  V30 1242 H 119.247 -2.25028 3.56287 0
M  V30 1243 H 117.971 -2.29767 2.32109 0
M  V30 1244 H 116.63 -0.603331 3.61601 0
M  V30 1245 H 116.278 -3.0494 4.00026 0
M  V30 1246 H 115.978 -2.1102 5.48402 0
M  V30 1247 H 117.502 -3.02508 5.30397 0
M  V30 1248 H 118.916 -0.784823 5.67903 0
M  V30 1249 H 117.313 -0.0619707 6.00068 0
M  V30 1250 H 118.383 0.684677 4.80042 0
M  V30 1251 N 119.726 -1.57421 0.075193 0
M  V30 1252 C 120.658 -2.09904 -0.920483 0
M  V30 1253 C 121.671 -1.03191 -1.25918 0
M  V30 1254 O 122.86 -1.30695 -1.21577 0
M  V30 1255 C 119.96 -2.54726 -2.23534 0
M  V30 1256 C 119.133 -3.8505 -2.07498 0
M  V30 1257 C 118.192 -4.15929 -3.22319 0
M  V30 1258 O 117.218 -4.85474 -2.9716 0
M  V30 1259 N 118.42 -3.69745 -4.47514 0
M  V30 1260 H 121.185 -2.95954 -0.472359 0
M  V30 1261 H 118.746 -1.61523 -0.110444 0
M  V30 1262 H 120.738 -2.72443 -2.9926 0
M  V30 1263 H 119.308 -1.73795 -2.59835 0
M  V30 1264 H 118.528 -3.76679 -1.16219 0
M  V30 1265 H 119.816 -4.70348 -1.94038 0
M  V30 1266 H 119.214 -3.13569 -4.7084 0
M  V30 1267 H 117.771 -3.92655 -5.20255 0
M  V30 1268 N 121.204 0.198386 -1.56346 0
M  V30 1269 C 122.137 1.27381 -1.89339 0
M  V30 1270 C 123.115 1.44106 -0.753134 0
M  V30 1271 O 124.299 1.59549 -1.00381 0
M  V30 1272 C 121.426 2.6409 -2.12071 0
M  V30 1273 C 120.472 2.64253 -3.34772 0
M  V30 1274 S 121.305 2.16013 -4.89999 0
M  V30 1275 C 122.461 3.54553 -5.15794 0
M  V30 1276 H 122.694 0.992058 -2.8026 0
M  V30 1277 H 120.227 0.401726 -1.49082 0
M  V30 1278 H 122.185 3.42786 -2.2585 0
M  V30 1279 H 120.846 2.89478 -1.21906 0
M  V30 1280 H 120.039 3.64768 -3.47794 0
M  V30 1281 H 119.641 1.93637 -3.1997 0
M  V30 1282 H 121.933 4.50396 -5.06112 0
M  V30 1283 H 122.876 3.46428 -6.1757 0
M  V30 1284 H 123.284 3.49313 -4.43442 0
M  V30 1285 N 122.682 1.50554 0.465978 0
M  V30 1286 C 123.63 1.70324 1.58406 0
M  V30 1287 C 124.624 0.569139 1.59553 0
M  V30 1288 O 125.83 0.749776 1.63641 0
M  V30 1289 H 122.205 0.537688 0.525734 0
M  V30 1290 H 124.176 2.64104 1.38894 0
M  V30 1291 C 122.925 1.81928 2.96307 0
M  V30 1292 H 122.248 2.68586 2.96144 0
M  V30 1293 H 123.688 1.99784 3.73982 0
M  V30 1294 C 122.147 0.572095 3.32007 0
M  V30 1295 O 122.677 -0.286416 4.00678 0
M  V30 1296 N 120.883 0.424606 2.87481 0
M  V30 1297 H 120.43 1.12427 2.31771 0
M  V30 1298 H 120.388 -0.408697 3.11732 0
M  V30 1299 N 124.16 -0.719506 1.40217 0
M  V30 1300 C 125.385 -1.51371 1.4178 0
M  V30 1301 C 125.81 -1.88091 0.0182355 0
M  V30 1302 O 125.168 -1.52997 -0.972707 0
M  V30 1303 C 125.216 -2.768 2.31115 0
M  V30 1304 O 124.32 -3.73349 1.7517 0
M  V30 1305 H 123.661 -0.456529 0.482159 0
M  V30 1306 H 126.191 -0.88644 1.844 0
M  V30 1307 H 126.201 -3.25371 2.46167 0
M  V30 1308 H 124.876 -2.49407 3.3282 0
M  V30 1309 H 123.453 -3.32179 1.69444 0
M  V30 1310 N 125.638 -1.25649 -0.95132 0
M  V30 1311 C 126.568 -1.08808 -2.06599 0
M  V30 1312 C 127.549 0.00382547 -1.701 0
M  V30 1313 O 128.734 -0.166325 -1.93486 0
M  V30 1314 C 125.864 -0.709542 -3.39975 0
M  V30 1315 C 124.818 -1.75206 -3.90496 0
M  V30 1316 C 124.144 -1.22811 -5.20405 0
M  V30 1317 C 125.444 -3.15153 -4.16504 0
M  V30 1318 H 127.138 -2.02048 -2.20946 0
M  V30 1319 H 124.684 -0.972835 -1.06169 0
M  V30 1320 H 126.637 -0.578649 -4.17408 0
M  V30 1321 H 125.361 0.258556 -3.25575 0
M  V30 1322 H 124.02 -1.87145 -3.15234 0
M  V30 1323 H 123.668 -0.250145 -5.02378 0
M  V30 1324 H 123.368 -1.92492 -5.55176 0
M  V30 1325 H 124.892 -1.10968 -6.00432 0
M  V30 1326 H 126.306 -3.06349 -4.84586 0
M  V30 1327 H 124.703 -3.82333 -4.62538 0
M  V30 1328 H 125.773 -3.61966 -3.22658 0
M  V30 1329 N 127.117 1.15442 -1.07289 0
M  V30 1330 C 128.533 1.38201 -0.798288 0
M  V30 1331 C 128.733 1.92429 0.597769 0
M  V30 1332 O 127.789 2.12962 1.3566 0
M  V30 1333 C 129.102 2.35357 -1.87156 0
M  V30 1334 C 130.65 2.49021 -1.89624 0
M  V30 1335 C 131.125 3.49468 -2.96034 0
M  V30 1336 N 132.616 3.57003 -2.95132 0
M  V30 1337 C 133.351 4.34543 -3.74112 0
M  V30 1338 N 132.847 5.15421 -4.6294 0
M  V30 1339 N 134.64 4.29625 -3.62462 0
M  V30 1340 H 126.791 0.78584 -1.97328 0
M  V30 1341 H 129.054 0.408065 -0.855679 0
M  V30 1342 H 128.76 2.02626 -2.87464 0
M  V30 1343 H 128.634 3.35129 -1.73114 0
M  V30 1344 H 131.021 2.81051 -0.899687 0
M  V30 1345 H 131.102 1.4925 -2.07745 0
M  V30 1346 H 130.746 3.18173 -3.95889 0
M  V30 1347 H 130.676 4.48992 -2.75161 0
M  V30 1348 H 133.167 2.99276 -2.30743 0
M  V30 1349 H 133.48 5.7183 -5.19837 0
M  V30 1350 H 131.825 5.14729 -4.66989 0
M  V30 1351 H 135.016 3.65505 -2.92444 0
M  V30 1352 H 135.189 4.89807 -4.24256 0
M  V30 1353 N 128.595 0.856903 1.32268 0
M  V30 1354 C 129.558 0.308171 2.27119 0
M  V30 1355 C 130.558 -0.533421 1.51695 0
M  V30 1356 O 131.748 -0.344607 1.70757 0
M  V30 1357 C 128.88 -0.563757 3.36206 0
M  V30 1358 H 130.073 1.14535 2.77167 0
M  V30 1359 H 127.626 0.631421 1.42978 0
M  V30 1360 H 128.361 -1.42266 2.91429 0
M  V30 1361 H 128.146 0.0386749 3.92081 0
M  V30 1362 H 129.636 -0.940386 4.06874 0
M  V30 1363 N 130.073 -1.45103 0.615059 0
M  V30 1364 C 130.983 -2.34382 -0.101034 0
M  V30 1365 C 131.999 -1.51681 -0.852585 0
M  V30 1366 O 133.175 -1.8446 -0.808484 0
M  V30 1367 C 130.24 -3.29417 -1.08099 0
M  V30 1368 C 129.301 -4.28025 -0.330577 0
M  V30 1369 C 128.534 -5.1852 -1.26385 0
M  V30 1370 O 128.757 -5.12598 -2.50198 0
M  V30 1371 O 127.691 -5.97122 -0.756866 0
M  V30 1372 H 131.517 -2.97033 0.632855 0
M  V30 1373 H 129.102 -1.4461 0.375293 0
M  V30 1374 H 130.984 -3.87958 -1.6452 0
M  V30 1375 H 129.659 -2.69321 -1.79577 0
M  V30 1376 H 128.566 -3.73078 0.276283 0
M  V30 1377 H 129.899 -4.90997 0.343866 0
M  V30 1378 N 131.551 -0.354651 -1.53558 0
M  V30 1379 C 132.828 0.294281 -1.93374 0
M  V30 1380 C 133.208 1.67313 -1.28723 0
M  V30 1381 O 132.556 2.24179 -0.442247 0
M  V30 1382 C 132.766 0.355445 -3.47185 0
M  V30 1383 C 134.114 0.601007 -4.20325 0
M  V30 1384 O 135.138 0.437106 -3.53508 0
M  V30 1385 O 133.997 0.919322 -5.38712 0
M  V30 1386 H 131.091 0.174033 -0.808481 0
M  V30 1387 H 133.637 -0.406638 -1.64756 0
M  V30 1388 H 132.409 -0.611729 -3.86489 0
M  V30 1389 H 132.032 1.1027 -3.82003 0
M  V30 1390 N 133.029 1.57378 -0.0835403 0
M  V30 1391 C 134.257 1.98263 0.59157 0
M  V30 1392 C 134.672 0.962302 1.62435 0
M  V30 1393 O 134.029 -0.049581 1.82433 0
M  V30 1394 C 134.08 3.39214 1.24965 0
M  V30 1395 O 133.801 4.37339 0.258186 0
M  V30 1396 C 135.302 3.95038 2.01147 0
M  V30 1397 H 132.522 0.651773 0.159477 0
M  V30 1398 H 135.066 2.03878 -0.159415 0
M  V30 1399 H 133.221 3.34649 1.95164 0
M  V30 1400 H 133.635 5.19371 0.731734 0
M  V30 1401 H 135.109 4.95848 2.42567 0
M  V30 1402 H 135.586 3.32222 2.87272 0
M  V30 1403 H 136.192 4.0304 1.35789 0
M  V30 1404 N 134.507 -0.190092 1.56449 0
M  V30 1405 C 135.47 -1.21925 1.9408 0
M  V30 1406 C 136.47 -1.38176 0.822431 0
M  V30 1407 O 137.66 -1.35903 1.08977 0
M  V30 1408 C 134.792 -2.58773 2.21922 0
M  V30 1409 H 135.985 -0.897464 2.86157 0
M  V30 1410 H 133.538 -0.43181 1.50217 0
M  V30 1411 H 134.273 -2.95998 1.32499 0
M  V30 1412 H 134.058 -2.48348 3.03424 0
M  V30 1413 H 135.548 -3.32978 2.52022 0
M  V30 1414 N 135.985 -1.50799 -0.457987 0
M  V30 1415 C 137.231 -1.62683 -1.21088 0
M  V30 1416 C 137.564 -0.332268 -1.91336 0
M  V30 1417 O 136.839 0.667043 -1.82704 0
M  V30 1418 C 137.122 -2.81615 -2.24422 0
M  V30 1419 C 136.975 -4.20989 -1.58392 0
M  V30 1420 C 138.294 -2.96085 -3.2561 0
M  V30 1421 H 135.413 -0.592087 -0.438864 0
M  V30 1422 H 138.055 -1.83225 -0.50286 0
M  V30 1423 H 136.205 -2.64231 -2.84806 0
M  V30 1424 H 137.877 -4.49994 -1.01504 0
M  V30 1425 H 136.12 -4.24641 -0.886704 0
M  V30 1426 H 136.791 -5.0016 -2.33547 0
M  V30 1427 H 139.267 -3.12042 -2.75262 0
M  V30 1428 H 138.143 -3.80902 -3.95228 0
M  V30 1429 H 138.404 -2.0726 -3.90507 0
M  V30 1430 N 137.463 0.71206 -1.40597 0
M  V30 1431 C 138.693 1.49894 -1.42181 0
M  V30 1432 C 139.101 1.89189 -0.0208078 0
M  V30 1433 O 138.444 1.56223 0.966436 0
M  V30 1434 C 138.506 2.80215 -2.25211 0
M  V30 1435 C 138.17 2.63221 -3.73582 0
M  V30 1436 C 139.167 2.30249 -4.66135 0
M  V30 1437 C 136.852 2.79376 -4.17438 0
M  V30 1438 C 138.846 2.13645 -6.00529 0
M  V30 1439 C 136.533 2.6239 -5.51901 0
M  V30 1440 C 137.531 2.29573 -6.43262 0
M  V30 1441 O 137.219 2.12719 -7.75246 0
M  V30 1442 H 136.951 0.469031 -0.486812 0
M  V30 1443 H 139.505 0.88564 -1.85326 0
M  V30 1444 H 137.735 3.4389 -1.76852 0
M  V30 1445 H 139.424 3.41947 -2.18694 0
M  V30 1446 H 140.19 2.17398 -4.33547 0
M  V30 1447 H 136.069 3.03906 -3.46644 0
M  V30 1448 H 139.613 1.87953 -6.71803 0
M  V30 1449 H 135.51 2.74826 -5.84073 0
M  V30 1450 H 136.278 2.27611 -7.86216 0
M  V30 1451 N 138.941 1.26152 0.944643 0
M  V30 1452 C 140.171 1.14094 1.72239 0
M  V30 1453 C 140.579 -0.306931 1.86694 0
M  V30 1454 O 139.922 -1.22222 1.3714 0
M  V30 1455 C 139.984 1.73316 3.14963 0
M  V30 1456 C 139.648 3.2239 3.23904 0
M  V30 1457 C 140.645 4.19252 3.07447 0
M  V30 1458 C 138.33 3.62788 3.47405 0
M  V30 1459 C 140.324 5.54491 3.14353 0
M  V30 1460 C 138.011 4.98162 3.53947 0
M  V30 1461 C 139.009 5.93823 3.37436 0
M  V30 1462 O 138.697 7.26732 3.43679 0
M  V30 1463 H 138.429 0.398292 0.546205 0
M  V30 1464 H 140.983 1.67201 1.19301 0
M  V30 1465 H 139.213 1.14667 3.69308 0
M  V30 1466 H 140.902 1.56214 3.74636 0
M  V30 1467 H 141.668 3.8938 2.8915 0
M  V30 1468 H 137.547 2.88816 3.59313 0
M  V30 1469 H 141.091 6.29137 3.01384 0
M  V30 1470 H 136.988 5.27695 3.71763 0
M  V30 1471 H 137.756 7.3496 3.60245 0
M  V30 1472 N 140.419 -1.14872 1.07899 0
M  V30 1473 C 141.659 -1.8745 0.814965 0
M  V30 1474 C 142.023 -1.80758 -0.64733 0
M  V30 1475 O 143.224 -2.48422 -1.02664 0
M  V30 1476 C 141.495 -3.32286 1.31607 0
M  V30 1477 S 143.054 -4.22537 1.18357 0
M  V30 1478 H 139.872 -0.646833 0.295174 0
M  V30 1479 H 142.474 -1.38555 1.37923 0
M  V30 1480 H 141.178 -3.34703 2.37491 0
M  V30 1481 H 140.709 -3.86238 0.747261 0
M  V30 1482 H 142.724 -4.96044 0.124586 0
M  V30 1483 N 141.898 -0.863906 -1.31812 0
M  V30 1484 C 142.861 -0.320212 -2.26952 0
M  V30 1485 C 143.861 0.525369 -1.51975 0
M  V30 1486 O 145.051 0.335547 -1.70938 0
M  V30 1487 C 142.183 0.545919 -3.365 0
M  V30 1488 H 143.376 -1.16004 -2.76556 0
M  V30 1489 H 140.929 -0.638995 -1.42641 0
M  V30 1490 H 141.664 1.40718 -2.92179 0
M  V30 1491 H 141.449 -0.0594674 -3.92055 0
M  V30 1492 H 142.939 0.918796 -4.07367 0
M  V30 1493 N 143.376 1.44774 -0.622745 0
M  V30 1494 C 144.792 1.56986 -0.287652 0
M  V30 1495 C 144.992 1.61167 1.20944 0
M  V30 1496 O 144.048 1.55015 1.99315 0
M  V30 1497 C 145.361 2.84551 -0.972188 0
M  V30 1498 C 146.909 2.9825 -0.949536 0
M  V30 1499 C 147.384 4.28605 -1.61437 0
M  V30 1500 N 148.875 4.35399 -1.58057 0
M  V30 1501 C 149.61 5.34964 -2.064 0
M  V30 1502 N 149.106 6.40981 -2.62897 0
M  V30 1503 N 150.899 5.26419 -1.97078 0
M  V30 1504 H 143.05 1.40304 -1.59463 0
M  V30 1505 H 145.313 0.671794 -0.668878 0
M  V30 1506 H 145.019 2.87417 -2.02693 0
M  V30 1507 H 144.893 3.73807 -0.504771 0
M  V30 1508 H 147.28 2.94941 0.0967067 0
M  V30 1509 H 147.361 2.10364 -1.45536 0
M  V30 1510 H 147.005 4.32672 -2.66002 0
M  V30 1511 H 146.935 5.15334 -1.08344 0
M  V30 1512 H 149.426 3.59397 -1.16801 0
M  V30 1513 H 149.739 7.13225 -2.97539 0
M  V30 1514 H 148.084 6.4169 -2.66943 0
M  V30 1515 H 151.275 4.42504 -1.52669 0
M  V30 1516 H 151.448 6.03861 -2.35066 0
M  V30 1517 N 144.854 0.36279 1.53368 0
M  V30 1518 C 146.27 0.0116182 1.59596 0
M  V30 1519 C 146.47 -1.47012 1.37803 0
M  V30 1520 O 145.526 -2.23136 1.18181 0
M  V30 1521 C 146.839 0.465052 2.97082 0
M  V30 1522 C 148.387 0.419033 3.10182 0
M  V30 1523 C 148.862 0.848235 4.50077 0
M  V30 1524 N 150.353 0.803183 4.56183 0
M  V30 1525 C 151.088 1.107 5.62613 0
M  V30 1526 N 150.584 1.47996 6.76808 0
M  V30 1527 N 152.377 1.02998 5.52583 0
M  V30 1528 H 144.528 1.32775 1.65785 0
M  V30 1529 H 146.791 0.542518 0.777417 0
M  V30 1530 H 146.497 1.49892 3.18159 0
M  V30 1531 H 146.371 -0.149786 3.76902 0
M  V30 1532 H 148.758 -0.605696 2.88817 0
M  V30 1533 H 148.839 1.06933 2.32377 0
M  V30 1534 H 148.483 1.87107 4.7218 0
M  V30 1535 H 148.413 0.175218 5.26308 0
M  V30 1536 H 150.904 0.52838 3.74188 0
M  V30 1537 H 151.217 1.69613 7.53957 0
M  V30 1538 H 149.562 1.51859 6.78206 0
M  V30 1539 H 152.753 0.737817 4.62249 0
M  V30 1540 H 152.926 1.2701 6.35431 0
M  V30 1541 N 146.332 -1.57332 0.0918853 0
M  V30 1542 C 147.56 -1.98574 -0.581048 0
M  V30 1543 C 147.975 -0.970903 -1.61923 0
M  V30 1544 O 147.332 0.0399054 -1.82456 0
M  V30 1545 C 147.383 -3.39872 -1.23164 0
M  V30 1546 O 147.104 -4.37469 -0.234989 0
M  V30 1547 C 148.605 -3.96099 -1.99049 0
M  V30 1548 H 145.825 -0.65261 -0.156018 0
M  V30 1549 H 148.369 -2.0379 0.170225 0
M  V30 1550 H 146.524 -3.35679 -1.93386 0
M  V30 1551 H 146.938 -5.19751 -0.70418 0
M  V30 1552 H 148.412 -4.97127 -2.39934 0
M  V30 1553 H 148.889 -3.3374 -2.85507 0
M  V30 1554 H 149.495 -4.03755 -1.3365 0
M  V30 1555 N 147.81 0.181792 -1.56548 0
M  V30 1556 C 149.058 0.89832 -1.81038 0
M  V30 1557 C 149.379 1.83232 -0.667164 0
M  V30 1558 O 148.649 1.93372 0.313673 0
M  V30 1559 H 147.229 0.33471 -0.667816 0
M  V30 1560 H 149.891 0.184116 -1.94028 0
M  V30 1561 H 148.987 1.4815 -2.74696 0
M  V30 1562 N 149.288 1.51039 0.449983 0
M  V30 1563 C 150.704 1.38934 0.785462 0
M  V30 1564 C 150.904 0.461817 1.96136 0
M  V30 1565 O 149.96 -0.0877389 2.52348 0
M  V30 1566 C 151.273 2.80724 1.0777 0
M  V30 1567 C 152.821 2.89787 1.1829 0
M  V30 1568 C 153.296 4.32457 1.50815 0
M  V30 1569 N 154.787 4.35505 1.57764 0
M  V30 1570 C 155.522 5.42914 1.84477 0
M  V30 1571 N 155.018 6.60502 2.09068 0
M  V30 1572 N 156.811 5.3038 1.86155 0
M  V30 1573 H 148.962 2.09904 -0.324647 0
M  V30 1574 H 151.225 0.944378 -0.0827957 0
M  V30 1575 H 150.931 3.50531 0.286498 0
M  V30 1576 H 150.805 3.19273 2.00859 0
M  V30 1577 H 153.192 2.20186 1.96474 0
M  V30 1578 H 153.273 2.54752 0.231314 0
M  V30 1579 H 152.917 5.02603 0.731622 0
M  V30 1580 H 152.847 4.64995 2.47158 0
M  V30 1581 H 155.338 3.50724 1.40715 0
M  V30 1582 H 155.651 7.38158 2.28785 0
M  V30 1583 H 153.996 6.63639 2.06416 0
M  V30 1584 H 157.187 4.37505 1.66454 0
M  V30 1585 H 157.36 6.1417 2.06637 0
M  V30 1586 N 150.766 -0.704594 1.40972 0
M  V30 1587 C 151.676 -1.84856 1.44448 0
M  V30 1588 C 152.692 -1.70726 0.335961 0
M  V30 1589 O 153.868 -1.92799 0.582276 0
M  V30 1590 C 150.933 -3.20758 1.31587 0
M  V30 1591 C 149.994 -3.47063 2.52677 0
M  V30 1592 C 149.227 -4.76481 2.4042 0
M  V30 1593 O 149.45 -5.52341 1.42391 0
M  V30 1594 O 148.384 -5.03367 3.30007 0
M  V30 1595 H 152.21 -1.8488 2.40942 0
M  V30 1596 H 149.795 -0.85647 1.22413 0
M  V30 1597 H 151.677 -4.01913 1.26665 0
M  V30 1598 H 150.352 -3.21438 0.382049 0
M  V30 1599 H 149.259 -2.65873 2.63177 0
M  V30 1600 H 150.592 -3.5119 3.44858 0
M  V30 1601 N 152.244 -1.26651 -0.937939 0
M  V30 1602 C 153.474 -1.15006 -1.71631 0
M  V30 1603 C 153.882 0.297026 -1.86854 0
M  V30 1604 O 153.225 1.21493 -1.37786 0
M  V30 1605 C 153.287 -1.74984 -3.14039 0
M  V30 1606 C 152.951 -3.24103 -3.2219 0
M  V30 1607 C 153.948 -4.20877 -3.05219 0
M  V30 1608 C 151.633 -3.64625 -3.45476 0
M  V30 1609 C 153.627 -5.56151 -3.11408 0
M  V30 1610 C 151.314 -5.00032 -3.513 0
M  V30 1611 C 152.312 -5.95604 -3.34282 0
M  V30 1612 O 152 -7.28545 -3.3982 0
M  V30 1613 H 151.732 -0.401183 -0.544085 0
M  V30 1614 H 154.286 -1.67832 -1.18413 0
M  V30 1615 H 152.516 -1.16624 -3.68695 0
M  V30 1616 H 154.205 -1.58199 -3.73802 0
M  V30 1617 H 154.971 -3.90908 -2.87081 0
M  V30 1618 H 150.85 -2.90718 -3.57777 0
M  V30 1619 H 154.394 -6.30727 -2.98043 0
M  V30 1620 H 150.291 -5.29659 -3.68959 0
M  V30 1621 H 151.059 -7.3686 -3.56343 0
M  V30 1622 N 153.722 1.14298 -1.08507 0
M  V30 1623 C 154.97 1.84993 -0.813763 0
M  V30 1624 C 155.291 1.83405 0.662393 0
M  V30 1625 O 154.561 1.28319 1.48024 0
M  V30 1626 H 153.141 0.684966 -0.298045 0
M  V30 1627 H 155.803 1.385 -1.37126 0
M  V30 1628 H 154.899 2.89788 -1.15884 0
M  V30 1629 N 155.201 0.870884 1.31352 0
M  V30 1630 C 156.449 0.48132 1.96285 0
M  V30 1631 C 156.77 -0.969813 1.69173 0
M  V30 1632 O 156.04 -1.67998 1.00764 0
M  V30 1633 H 154.62 0.175002 0.726212 0
M  V30 1634 H 157.282 1.11087 1.60143 0
M  V30 1635 H 156.378 0.639825 3.05471 0
M  V30 1636 N 156.679 -1.44442 0.630414 0
M  V30 1637 C 157.927 -2.01653 0.134351 0
M  V30 1638 C 158.248 -1.49836 -1.24796 0
M  V30 1639 O 157.518 -0.701684 -1.82902 0
M  V30 1640 H 156.098 -0.74554 0.0466769 0
M  V30 1641 H 158.76 -1.76952 0.816955 0
M  V30 1642 H 157.856 -3.11935 0.101498 0
M  V30 1643 N 158.157 -0.370918 -1.53173 0
M  V30 1644 C 159.403 0.209976 -2.02313 0
M  V30 1645 C 159.758 1.45987 -1.25322 0
M  V30 1646 O 159.051 1.8856 -0.339965 0
M  V30 1647 C 159.245 0.549696 -3.53147 0
M  V30 1648 C 159.074 -0.665721 -4.44745 0
M  V30 1649 C 157.844 -1.17942 -4.91343 0
M  V30 1650 C 160.042 -1.53255 -4.90935 0
M  V30 1651 N 158.024 -2.35431 -5.66962 0
M  V30 1652 C 159.395 -2.55403 -5.64951 0
M  V30 1653 C 161.45 -1.5548 -4.73002 0
M  V30 1654 C 160.153 -3.5964 -6.22938 0
M  V30 1655 C 162.179 -2.58613 -5.31858 0
M  V30 1656 C 161.541 -3.59485 -6.05764 0
M  V30 1657 H 157.64 0.0394095 -0.781006 0
M  V30 1658 H 160.224 -0.516666 -1.8772 0
M  V30 1659 H 158.395 1.24541 -3.67891 0
M  V30 1660 H 160.127 1.11614 -3.89004 0
M  V30 1661 H 156.882 -0.743228 -4.67732 0
M  V30 1662 H 157.306 -2.94827 -6.09431 0
M  V30 1663 H 161.948 -0.788457 -4.15383 0
M  V30 1664 H 159.666 -4.37153 -6.79649 0
M  V30 1665 H 163.252 -2.61195 -5.19873 0
M  V30 1666 H 162.132 -4.3798 -6.50495 0
M  V30 1667 N 159.635 1.57281 -0.100228 0
M  V30 1668 C 160.865 1.98591 0.569681 0
M  V30 1669 C 161.273 0.978315 1.61943 0
M  V30 1670 O 160.616 -0.0396108 1.83657 0
M  V30 1671 C 160.678 3.36282 1.271 0
M  V30 1672 C 160.342 4.55488 0.371409 0
M  V30 1673 C 161.339 5.18491 -0.382504 0
M  V30 1674 C 159.024 5.01474 0.287965 0
M  V30 1675 C 161.018 6.25852 -1.20779 0
M  V30 1676 C 158.705 6.08701 -0.540965 0
M  V30 1677 C 159.703 6.70755 -1.28749 0
M  V30 1678 O 159.391 7.75914 -2.10269 0
M  V30 1679 H 159.123 0.65752 0.156982 0
M  V30 1680 H 161.677 2.0463 -0.177734 0
M  V30 1681 H 159.907 3.26941 2.0651 0
M  V30 1682 H 161.596 3.62005 1.83595 0
M  V30 1683 H 162.362 4.83891 -0.3278 0
M  V30 1684 H 158.241 4.52932 0.858689 0
M  V30 1685 H 161.785 6.74218 -1.79096 0
M  V30 1686 H 157.682 6.42732 -0.597131 0
M  V30 1687 H 158.45 7.92925 -2.03007 0
M  V30 1688 N 161.113 -0.173488 1.56642 0
M  V30 1689 C 162.36 -0.890465 1.81871 0
M  V30 1690 C 162.688 -1.82339 0.67696 0
M  V30 1691 O 161.943 -1.92795 -0.335926 0
M  V30 1692 C 162.242 -1.72069 3.13252 0
M  V30 1693 C 161.908 -0.936878 4.41059 0
M  V30 1694 C 160.57 -0.720545 4.75775 0
M  V30 1695 C 162.922 -0.386919 5.19762 0
M  V30 1696 C 160.25 0.0568829 5.86672 0
M  V30 1697 C 162.602 0.37741 6.31473 0
M  V30 1698 C 161.266 0.604563 6.64757 0
M  V30 1699 H 160.536 -0.325844 0.665512 0
M  V30 1700 H 163.183 -0.155527 1.90867 0
M  V30 1701 H 161.488 -2.52496 2.99588 0
M  V30 1702 H 163.185 -2.27844 3.29982 0
M  V30 1703 H 159.775 -1.11553 4.13828 0
M  V30 1704 H 163.959 -0.541398 4.93338 0
M  V30 1705 H 159.215 0.242635 6.10918 0
M  V30 1706 H 163.389 0.810825 6.91664 0
M  V30 1707 H 161.016 1.20885 7.50527 0
M  V30 1708 N 162.591 -1.51276 -0.441967 0
M  V30 1709 C 163.868 -1.54252 -1.20273 0
M  V30 1710 C 164.248 -0.30408 -2.08898 0
M  V30 1711 O 163.596 0.711084 -2.17154 0
M  V30 1712 C 163.806 -2.85406 -2.00859 0
M  V30 1713 C 165.154 -3.37181 -2.58059 0
M  V30 1714 O 166.178 -2.86925 -2.11074 0
M  V30 1715 O 165.037 -4.24858 -3.43741 0
M  V30 1716 H 162.131 -0.619969 -0.547328 0
M  V30 1717 H 164.677 -1.63586 -0.451413 0
M  V30 1718 H 163.449 -3.67003 -1.35736 0
M  V30 1719 H 163.072 -2.79213 -2.83065 0
M  V30 1720 N 164.069 0.697108 -1.41344 0
M  V30 1721 C 165.299 1.48377 -1.43763 0
M  V30 1722 C 165.707 1.89156 -0.0408726 0
M  V30 1723 O 165.05 1.57239 0.949812 0
M  V30 1724 C 165.112 2.7781 -2.2817 0
M  V30 1725 C 164.776 2.59244 -3.76353 0
M  V30 1726 C 165.773 2.25292 -4.68551 0
M  V30 1727 C 163.458 2.74933 -4.20378 0
M  V30 1728 C 165.452 2.07264 -6.02761 0
M  V30 1729 C 163.139 2.56521 -5.54653 0
M  V30 1730 C 164.137 2.22737 -6.4566 0
M  V30 1731 O 163.825 2.04485 -7.77458 0
M  V30 1732 H 163.557 0.463842 -0.491759 0
M  V30 1733 H 166.111 0.865934 -1.86255 0
M  V30 1734 H 164.341 3.41995 -1.8049 0
M  V30 1735 H 166.03 3.39608 -2.22309 0
M  V30 1736 H 166.796 2.12787 -4.35829 0
M  V30 1737 H 162.675 3.00213 -3.49848 0
M  V30 1738 H 166.219 1.80817 -6.73759 0
M  V30 1739 H 162.116 2.68616 -5.86955 0
M  V30 1740 H 162.884 2.1926 -7.88586 0
M  V30 1741 N 165.547 1.27147 0.931209 0
M  V30 1742 C 166.793 1.14455 1.68141 0
M  V30 1743 C 167.148 -0.307172 1.89932 0
M  V30 1744 O 166.441 -1.22158 1.47607 0
M  V30 1745 C 166.635 1.8579 3.05314 0
M  V30 1746 C 166.464 3.3775 2.96909 0
M  V30 1747 C 165.234 4.07062 2.99381 0
M  V30 1748 C 167.432 4.33783 2.76291 0
M  V30 1749 N 165.414 5.45618 2.8138 0
M  V30 1750 C 166.785 5.59582 2.6696 0
M  V30 1751 C 168.84 4.23915 2.61152 0
M  V30 1752 C 167.543 6.76639 2.44033 0
M  V30 1753 C 169.569 5.40689 2.39602 0
M  V30 1754 C 168.931 6.65443 2.3101 0
M  V30 1755 H 165.03 0.473667 0.622225 0
M  V30 1756 H 167.614 1.60568 1.10118 0
M  V30 1757 H 165.785 1.42138 3.61457 0
M  V30 1758 H 167.517 1.65634 3.69253 0
M  V30 1759 H 164.272 3.585 3.09475 0
M  V30 1760 H 164.696 6.184 2.75519 0
M  V30 1761 H 169.338 3.28189 2.66555 0
M  V30 1762 H 167.056 7.72451 2.3737 0
M  V30 1763 H 170.642 5.34932 2.28778 0
M  V30 1764 H 169.522 7.54277 2.14558 0
M  V30 1765 N 167.025 -1.13721 1.09112 0
M  V30 1766 C 168.273 -1.84559 0.823562 0
M  V30 1767 C 168.594 -1.83754 -0.652658 0
M  V30 1768 O 167.864 -1.29102 -1.47342 0
M  V30 1769 H 166.444 -0.683376 0.301673 0
M  V30 1770 H 169.106 -1.37771 1.37859 0
M  V30 1771 H 168.202 -2.8917 1.17419 0
M  V30 1772 N 168.503 -0.877838 -1.30888 0
M  V30 1773 C 169.435 -0.296607 -2.27273 0
M  V30 1774 C 170.448 0.544799 -1.53414 0
M  V30 1775 O 171.637 0.365511 -1.74718 0
M  V30 1776 C 168.737 0.597481 -3.33592 0
M  V30 1777 C 167.91 -0.213251 -4.3688 0
M  V30 1778 C 166.969 0.610208 -5.2265 0
M  V30 1779 O 165.995 0.035441 -5.69189 0
M  V30 1780 N 167.197 1.92071 -5.47804 0
M  V30 1781 H 169.962 -1.12492 -2.77787 0
M  V30 1782 H 167.523 -0.740105 -1.43993 0
M  V30 1783 H 169.515 1.15425 -3.87891 0
M  V30 1784 H 168.085 1.32647 -2.83061 0
M  V30 1785 H 167.305 -0.951466 -3.82545 0
M  V30 1786 H 168.593 -0.769262 -5.02951 0
M  V30 1787 H 167.991 2.4107 -5.11763 0
M  V30 1788 H 166.548 2.42508 -6.05007 0
M  V30 1789 N 169.982 1.44106 -0.638065 0
M  V30 1790 C 171.23 2.01579 -0.145043 0
M  V30 1791 C 171.551 1.50496 1.24 0
M  V30 1792 O 170.821 0.711374 1.82527 0
M  V30 1793 H 169.401 0.745282 -0.05063 0
M  V30 1794 H 172.063 1.76516 -0.826327 0
M  V30 1795 H 171.159 3.11877 -0.118039 0
M  V30 1796 N 171.46 0.379036 1.52974 0
M  V30 1797 C 172.688 -0.20679 2.05864 0
M  V30 1798 C 173.103 -1.41356 1.25155 0
M  V30 1799 O 172.46 -1.8009 0.295588 0
M  V30 1800 C 172.511 -0.587045 3.56702 0
M  V30 1801 O 172.232 0.571776 4.34353 0
M  V30 1802 C 173.733 -1.22983 4.25899 0
M  V30 1803 H 170.953 -0.0336123 0.670158 0
M  V30 1804 H 173.497 0.541298 1.97206 0
M  V30 1805 H 171.652 -1.28504 3.65466 0
M  V30 1806 H 172.066 0.261544 5.23847 0
M  V30 1807 H 173.54 -1.44635 5.32715 0
M  V30 1808 H 174.017 -2.19416 3.80465 0
M  V30 1809 H 174.623 -0.572892 4.21424 0
M  V30 1810 N 172.938 -1.57226 0.108567 0
M  V30 1811 C 173.868 -2.17778 -0.84232 0
M  V30 1812 C 174.849 -1.11487 -1.2847 0
M  V30 1813 O 176.034 -1.39681 -1.34918 0
M  V30 1814 C 173.164 -2.76888 -2.09644 0
M  V30 1815 C 172.118 -3.88669 -1.79221 0
M  V30 1816 C 171.444 -4.34541 -3.11574 0
M  V30 1817 C 172.744 -5.11251 -1.06864 0
M  V30 1818 H 174.438 -2.97489 -0.337774 0
M  V30 1819 H 171.984 -1.43097 -0.161025 0
M  V30 1820 H 173.937 -3.17904 -2.76614 0
M  V30 1821 H 172.661 -1.94451 -2.62405 0
M  V30 1822 H 171.32 -3.48213 -1.14644 0
M  V30 1823 H 170.968 -3.48977 -3.62249 0
M  V30 1824 H 170.668 -5.09914 -2.91996 0
M  V30 1825 H 172.192 -4.782 -3.7968 0
M  V30 1826 H 173.606 -5.49352 -1.63968 0
M  V30 1827 H 172.003 -5.9214 -0.974178 0
M  V30 1828 H 173.073 -4.8487 -0.0536168 0
M  V30 1829 N 174.416 0.165178 -1.56732 0
M  V30 1830 C 175.662 0.882112 -1.82611 0
M  V30 1831 C 175.995 1.81628 -0.687378 0
M  V30 1832 O 175.27 1.92009 0.310267 0
M  V30 1833 C 175.553 1.67245 -3.18906 0
M  V30 1834 C 175.406 0.760987 -4.43316 0
M  V30 1835 C 176.725 2.63884 -3.52212 0
M  V30 1836 H 173.844 0.319242 -0.664269 0
M  V30 1837 H 176.486 0.148052 -1.89422 0
M  V30 1838 H 174.636 2.29824 -3.1323 0
M  V30 1839 H 176.308 0.147596 -4.61064 0
M  V30 1840 H 174.551 0.0694102 -4.33744 0
M  V30 1841 H 175.222 1.34962 -5.35247 0
M  V30 1842 H 177.698 2.11429 -3.58381 0
M  V30 1843 H 176.574 3.16245 -4.48643 0
M  V30 1844 H 176.835 3.44377 -2.77231 0
M  V30 1845 N 175.894 1.51508 0.433938 0
M  V30 1846 C 177.122 1.68157 1.20543 0
M  V30 1847 C 177.537 0.380362 1.84929 0
M  V30 1848 O 176.894 -0.641446 1.70856 0
M  V30 1849 C 176.945 2.79965 2.28696 0
M  V30 1850 O 176.666 4.05045 1.66943 0
M  V30 1851 C 178.167 3.07912 3.18912 0
M  V30 1852 H 175.387 0.56421 0.363191 0
M  V30 1853 H 177.931 1.97941 0.513754 0
M  V30 1854 H 176.086 2.5277 2.93574 0
M  V30 1855 H 176.5 4.67165 2.38448 0
M  V30 1856 H 177.974 3.89719 3.90926 0
M  V30 1857 H 178.451 2.20456 3.79863 0
M  V30 1858 H 179.057 3.36779 2.59731 0
M  V30 1859 N 177.372 -0.689602 1.41712 0
M  V30 1860 C 178.618 -1.45181 1.41599 0
M  V30 1861 C 178.951 -1.94181 0.0270081 0
M  V30 1862 O 178.226 -1.6993 -0.946265 0
M  V30 1863 C 178.509 -2.65945 2.42787 0
M  V30 1864 C 178.362 -2.22672 3.90816 0
M  V30 1865 C 179.681 -3.68149 2.41151 0
M  V30 1866 H 176.8 -0.526576 0.515642 0
M  V30 1867 H 179.442 -0.784947 1.73028 0
M  V30 1868 H 177.592 -3.2284 2.16116 0
M  V30 1869 H 179.264 -1.71058 4.28412 0
M  V30 1870 H 177.507 -1.54394 4.05395 0
M  V30 1871 H 178.178 -3.0935 4.57172 0
M  V30 1872 H 180.654 -3.2094 2.64834 0
M  V30 1873 H 179.53 -4.50248 3.13955 0
M  V30 1874 H 179.791 -4.18259 1.43221 0
M  V30 1875 N 178.85 -1.27639 -0.924453 0
M  V30 1876 C 180.075 -1.17101 -1.71179 0
M  V30 1877 C 180.5 0.268134 -1.86179 0
M  V30 1878 O 179.858 1.19415 -1.36418 0
M  V30 1879 C 179.906 -1.86313 -3.08739 0
M  V30 1880 O 179.01 -1.16331 -3.95652 0
M  V30 1881 H 178.351 -0.407091 -0.524569 0
M  V30 1882 H 180.881 -1.68767 -1.15666 0
M  V30 1883 H 180.891 -1.938 -3.59034 0
M  V30 1884 H 179.566 -2.91001 -2.97138 0
M  V30 1885 H 178.143 -1.16935 -3.54091 0
M  V30 1886 N 180.328 1.1314 -1.09713 0
M  V30 1887 C 181.553 1.88862 -0.857081 0
M  V30 1888 C 181.978 1.78729 0.586304 0
M  V30 1889 O 181.336 1.13692 1.41222 0
M  V30 1890 C 181.384 3.36325 -1.30069 0
M  V30 1891 O 180.488 4.09815 -0.461007 0
M  V30 1892 H 179.829 0.587108 -0.310162 0
M  V30 1893 H 182.359 1.43129 -1.46203 0
M  V30 1894 H 182.369 3.87157 -1.28738 0
M  V30 1895 H 181.044 3.43017 -2.35185 0
M  V30 1896 H 179.621 3.68986 -0.538888 0
M  V30 1897 N 181.806 0.884767 1.30421 0
M  V30 1898 C 182.769 0.356277 2.26414 0
M  V30 1899 C 183.769 -0.501124 1.52792 0
M  V30 1900 O 184.959 -0.30831 1.7145 0
M  V30 1901 C 182.091 -0.492316 3.37326 0
M  V30 1902 H 183.284 1.20389 2.74675 0
M  V30 1903 H 180.837 0.661607 1.41607 0
M  V30 1904 H 181.572 -1.36052 2.94381 0
M  V30 1905 H 181.357 0.121832 3.91911 0
M  V30 1906 H 182.847 -0.853871 4.08777 0
M  V30 1907 N 183.284 -1.43765 0.645699 0
M  V30 1908 C 184.509 -2.06767 0.161883 0
M  V30 1909 C 184.934 -1.48034 -1.16049 0
M  V30 1910 O 184.292 -0.587369 -1.71522 0
M  V30 1911 C 184.34 -3.60519 0.0762003 0
M  V30 1912 O 183.444 -4.00982 -0.963721 0
M  V30 1913 H 182.785 -0.657675 0.091429 0
M  V30 1914 H 185.315 -1.84397 0.886499 0
M  V30 1915 H 185.325 -4.07853 -0.109604 0
M  V30 1916 H 184 -4.02646 1.04157 0
M  V30 1917 H 182.577 -3.65253 -0.751312 0
M  V30 1918 N 184.763 -0.387143 -1.52771 0
M  V30 1919 C 185.991 0.195869 -2.05971 0
M  V30 1920 C 186.406 1.40691 -1.25903 0
M  V30 1921 O 185.763 1.79931 -0.305134 0
M  V30 1922 C 185.814 0.56812 -3.57008 0
M  V30 1923 O 185.535 -0.594803 -4.34043 0
M  V30 1924 C 187.036 1.20723 -4.26545 0
M  V30 1925 H 184.256 0.0300578 -0.670326 0
M  V30 1926 H 186.8 -0.551749 -1.96916 0
M  V30 1927 H 184.955 1.26564 -3.66143 0
M  V30 1928 H 185.369 -0.289322 -5.23701 0
M  V30 1929 H 186.843 1.41807 -5.33474 0
M  V30 1930 H 187.32 2.17395 -3.81623 0
M  V30 1931 H 187.926 0.550535 -4.21722 0
M  V30 1932 N 186.241 1.57166 -0.116904 0
M  V30 1933 C 187.188 2.15202 0.83408 0
M  V30 1934 C 188.158 1.07644 1.26499 0
M  V30 1935 O 189.343 1.35541 1.34288 0
M  V30 1936 C 186.483 2.75405 2.07957 0
M  V30 1937 C 185.596 3.97264 1.69721 0
M  V30 1938 C 184.731 4.45561 2.89221 0
M  V30 1939 C 183.77 5.59956 2.47215 0
M  V30 1940 N 182.907 6.03006 3.59622 0
M  V30 1941 H 187.747 2.96141 0.332335 0
M  V30 1942 H 185.284 1.46309 0.152349 0
M  V30 1943 H 187.242 3.08439 2.80929 0
M  V30 1944 H 185.872 1.97159 2.55594 0
M  V30 1945 H 184.924 3.70404 0.866316 0
M  V30 1946 H 186.236 4.80226 1.34849 0
M  V30 1947 H 185.39 4.80493 3.7042 0
M  V30 1948 H 184.129 3.61544 3.27318 0
M  V30 1949 H 183.134 5.2463 1.64448 0
M  V30 1950 H 184.359 6.45738 2.10238 0
M  V30 1951 H 182.305 5.21931 3.97396 0
M  V30 1952 H 182.222 6.80819 3.28667 0
M  V30 1953 H 183.49 6.42576 4.41267 0
M  V30 1954 N 187.719 -0.156864 1.56817 0
M  V30 1955 C 188.967 -0.869404 1.82444 0
M  V30 1956 C 189.288 -1.82147 0.69623 0
M  V30 1957 O 188.558 -1.93847 -0.28287 0
M  V30 1958 H 187.138 -0.324043 0.673056 0
M  V30 1959 H 189.8 -0.153224 1.94297 0
M  V30 1960 H 188.896 -1.43761 2.77019 0
M  V30 1961 N 189.197 -1.51736 -0.425897 0
M  V30 1962 C 190.608 -1.5732 -1.00536 0
M  V30 1963 C 190.959 -0.403537 -1.92005 0
M  V30 1964 O 190.084 0.478256 -2.11049 0
M  V30 1965 C 190.679 -2.85119 -1.8301 0
M  V30 1966 C 189.238 -2.93236 -2.35987 0
M  V30 1967 C 188.385 -2.52098 -1.15508 0
M  V30 1968 H 191.336 -1.57348 -0.206739 0
M  V30 1969 H 191.357 -2.69526 -2.68581 0
M  V30 1970 H 190.869 -3.7023 -1.16411 0
M  V30 1971 H 188.97 -2.12581 -3.06007 0
M  V30 1972 H 189.083 -3.9713 -2.68001 0
M  V30 1973 H 187.447 -2.05558 -1.50393 0
M  V30 1974 H 188.23 -3.39565 -0.505014 0
M  V30 1975 N 190.675 0.682077 -1.42076 0
M  V30 1976 C 191.9 1.47558 -1.45744 0
M  V30 1977 C 192.325 1.87977 -0.0680981 0
M  V30 1978 O 191.683 1.55522 0.9318 0
M  V30 1979 C 191.731 2.70575 -2.38373 0
M  V30 1980 O 190.835 3.68573 -1.85007 0
M  V30 1981 H 190.176 0.443585 -0.494093 0
M  V30 1982 H 192.706 0.837238 -1.86686 0
M  V30 1983 H 192.716 3.18729 -2.54707 0
M  V30 1984 H 191.391 2.40495 -3.39315 0
M  V30 1985 H 189.968 3.2757 -1.78192 0
M  V30 1986 N 192.153 1.28127 0.917671 0
M  V30 1987 C 193.399 1.15223 1.66888 0
M  V30 1988 C 193.732 -0.299293 1.9188 0
M  V30 1989 O 193.007 -1.21805 1.51637 0
M  V30 1990 C 193.29 1.94706 3.02922 0
M  V30 1991 C 193.143 3.47898 2.85109 0
M  V30 1992 C 194.462 1.75939 4.03402 0
M  V30 1993 H 191.581 0.419946 0.605652 0
M  V30 1994 H 194.223 1.57398 1.06423 0
M  V30 1995 H 192.373 1.58864 3.54534 0
M  V30 1996 H 194.045 3.93624 2.40537 0
M  V30 1997 H 192.288 3.7373 2.20246 0
M  V30 1998 H 192.959 3.98765 3.81694 0
M  V30 1999 H 195.435 2.07209 3.60837 0
M  V30 2000 H 194.311 2.33931 4.96556 0
M  V30 2001 H 194.572 0.709877 4.36364 0
M  V30 2002 N 193.631 -1.12557 1.10312 0
M  V30 2003 C 194.878 -1.84038 0.844759 0
M  V30 2004 C 195.206 -1.84026 -0.629668 0
M  V30 2005 O 194.461 -1.28026 -1.48013 0
M  V30 2006 C 194.76 -3.31462 1.33669 0
M  V30 2007 C 194.426 -3.51647 2.82232 0
M  V30 2008 C 193.088 -3.56864 3.22802 0
M  V30 2009 C 195.44 -3.58867 3.77974 0
M  V30 2010 C 192.768 -3.66844 4.57867 0
M  V30 2011 C 195.12 -3.70375 5.1284 0
M  V30 2012 C 193.784 -3.73848 5.52986 0
M  V30 2013 H 193.054 -0.673444 0.309119 0
M  V30 2014 H 195.701 -1.32824 1.37949 0
M  V30 2015 H 194.006 -3.85091 0.721949 0
M  V30 2016 H 195.703 -3.85236 1.11329 0
M  V30 2017 H 192.293 -3.48249 2.49842 0
M  V30 2018 H 196.477 -3.54107 3.47738 0
M  V30 2019 H 191.733 -3.67804 4.88396 0
M  V30 2020 H 195.907 -3.74904 5.86873 0
M  V30 2021 H 193.534 -3.81333 6.57639 0
M  V30 2022 N 195.109 -0.891671 -1.2995 0
M  V30 2023 C 196.52 -0.563104 -1.78006 0
M  V30 2024 C 196.871 0.920978 -1.73241 0
M  V30 2025 O 195.996 1.71987 -1.31337 0
M  V30 2026 C 196.591 -1.01539 -3.23226 0
M  V30 2027 C 195.15 -0.738124 -3.69092 0
M  V30 2028 C 194.297 -1.19461 -2.50249 0
M  V30 2029 H 197.248 -1.07522 -1.16725 0
M  V30 2030 H 197.269 -0.347217 -3.78912 0
M  V30 2031 H 196.781 -2.09555 -3.26662 0
M  V30 2032 H 194.882 0.329766 -3.71138 0
M  V30 2033 H 194.995 -1.33037 -4.60259 0
M  V30 2034 H 193.359 -0.613787 -2.47194 0
M  V30 2035 H 194.142 -2.28265 -2.56417 0
M  V30 2036 N 196.587 1.43421 -0.653314 0
M  V30 2037 C 197.517 2.33487 0.0246656 0
M  V30 2038 C 198.498 1.49475 0.811863 0
M  V30 2039 O 199.683 1.78139 0.773322 0
M  V30 2040 C 196.813 3.32841 0.99166 0
M  V30 2041 C 195.767 4.26842 0.314568 0
M  V30 2042 C 195.093 5.16236 1.39302 0
M  V30 2043 C 196.393 5.16243 -0.793095 0
M  V30 2044 H 198.087 2.90427 -0.727481 0
M  V30 2045 H 195.633 1.39649 -0.351287 0
M  V30 2046 H 197.586 3.94747 1.47487 0
M  V30 2047 H 196.31 2.74158 1.77497 0
M  V30 2048 H 194.969 3.663 -0.148199 0
M  V30 2049 H 194.617 4.53891 2.16776 0
M  V30 2050 H 194.317 5.79948 0.945223 0
M  V30 2051 H 195.841 5.81015 1.87759 0
M  V30 2052 H 197.255 5.71958 -0.392039 0
M  V30 2053 H 195.652 5.88676 -1.16536 0
M  V30 2054 H 196.722 4.55927 -1.65103 0
M  V30 2055 N 198.065 0.39524 1.52563 0
M  V30 2056 C 199.028 -0.425001 2.25225 0
M  V30 2057 C 200.028 -0.985266 1.27079 0
M  V30 2058 O 201.218 -0.866332 1.5113 0
M  V30 2059 C 198.35 -1.59686 3.01186 0
M  V30 2060 H 199.543 0.211233 2.99155 0
M  V30 2061 H 197.096 0.147472 1.55603 0
M  V30 2062 H 197.831 -2.27035 2.31572 0
M  V30 2063 H 197.616 -1.20176 3.73229 0
M  V30 2064 H 199.106 -2.17743 3.5634 0
M  V30 2065 N 199.544 -1.57102 0.125237 0
M  V30 2066 C 200.955 -1.82384 -0.399142 0
M  V30 2067 C 201.306 -1.04276 -1.66195 0
M  V30 2068 O 200.431 -0.281269 -2.14564 0
M  V30 2069 C 201.026 -3.30821 -0.730932 0
M  V30 2070 C 199.585 -3.56762 -1.19992 0
M  V30 2071 C 198.732 -2.7649 -0.211792 0
M  V30 2072 H 201.683 -1.54786 0.350277 0
M  V30 2073 H 201.704 -3.4579 -1.58775 0
M  V30 2074 H 201.216 -3.87643 0.188345 0
M  V30 2075 H 199.317 -3.05305 -2.13588 0
M  V30 2076 H 199.43 -4.65317 -1.14093 0
M  V30 2077 H 197.794 -2.4489 -0.700085 0
M  V30 2078 H 198.577 -3.36073 0.700691 0
M  V30 2079 N 201.022 0.148545 -1.56898 0
M  V30 2080 C 202.262 0.86765 -1.85071 0
M  V30 2081 C 202.626 1.78417 -0.709317 0
M  V30 2082 O 203.827 2.54261 -0.872049 0
M  V30 2083 C 202.098 1.62306 -3.1842 0
M  V30 2084 S 203.657 2.3878 -3.68143 0
M  V30 2085 H 200.475 0.290174 -0.649092 0
M  V30 2086 H 203.077 0.127755 -1.95082 0
M  V30 2087 H 201.781 0.941192 -3.99462 0
M  V30 2088 H 201.312 2.4039 -3.1141 0
M  V30 2089 H 203.327 3.63942 -3.37285 0
M  V30 2090 N 202.5 1.5196 0.417844 0
M  V30 2091 C 203.725 1.69717 1.1921 0
M  V30 2092 C 204.15 0.402148 1.83751 0
M  V30 2093 O 203.508 -0.639593 1.69643 0
M  V30 2094 C 203.556 2.82794 2.2374 0
M  V30 2095 O 202.66 2.47756 3.29683 0
M  V30 2096 H 202.001 0.565263 0.348387 0
M  V30 2097 H 204.531 1.98621 0.490985 0
M  V30 2098 H 204.541 3.07452 2.68212 0
M  V30 2099 H 203.216 3.76756 1.76146 0
M  V30 2100 H 201.793 2.33739 2.90552 0
M  V30 2101 N 203.978 -0.674533 1.42435 0
M  V30 2102 C 205.394 -0.98769 1.25367 0
M  V30 2103 C 205.594 -2.00879 0.158044 0
M  V30 2104 O 204.65 -2.48075 -0.470633 0
M  V30 2105 C 205.963 -1.49224 2.6106 0
M  V30 2106 C 207.511 -1.61 2.68417 0
M  V30 2107 C 207.986 -2.14852 4.04478 0
M  V30 2108 N 209.477 -2.22185 4.06434 0
M  V30 2109 C 210.212 -2.64928 5.08528 0
M  V30 2110 N 209.708 -3.07121 6.21006 0
M  V30 2111 N 211.501 -2.64679 4.95885 0
M  V30 2112 H 203.652 0.00152503 2.124 0
M  V30 2113 H 205.915 -0.0618434 0.945981 0
M  V30 2114 H 205.621 -0.816453 3.42092 0
M  V30 2115 H 205.495 -2.47094 2.84999 0
M  V30 2116 H 207.882 -2.27686 1.87732 0
M  V30 2117 H 207.963 -0.616195 2.48267 0
M  V30 2118 H 207.607 -1.48775 4.85622 0
M  V30 2119 H 207.537 -3.15024 4.2198 0
M  V30 2120 H 210.028 -1.92435 3.25234 0
M  V30 2121 H 210.341 -3.38423 6.94759 0
M  V30 2122 H 208.686 -3.04978 6.24511 0
M  V30 2123 H 211.877 -2.31078 4.07088 0
M  V30 2124 H 212.05 -2.9767 5.75584 0
M  V30 2125 N 205.456 -1.28612 -0.910864 0
M  V30 2126 C 206.681 -1.1891 -1.69927 0
M  V30 2127 C 207.106 0.248372 -1.86453 0
M  V30 2128 O 206.464 1.17961 -1.37676 0
M  V30 2129 C 206.512 -1.89578 -3.06745 0
M  V30 2130 O 205.616 -1.20521 -3.94396 0
M  V30 2131 H 204.957 -0.412632 -0.520222 0
M  V30 2132 H 207.487 -1.69985 -1.1387 0
M  V30 2133 H 207.497 -1.97597 -3.56958 0
M  V30 2134 H 206.172 -2.94136 -2.94035 0
M  V30 2135 H 204.749 -1.20684 -3.52831 0
M  V30 2136 N 206.934 1.1197 -1.10907 0
M  V30 2137 C 208.162 1.87402 -0.876824 0
M  V30 2138 C 208.577 1.79894 0.573025 0
M  V30 2139 O 207.934 1.17629 1.39534 0
M  V30 2140 C 207.985 3.36428 -1.32282 0
M  V30 2141 O 207.706 3.43765 -2.71582 0
M  V30 2142 C 209.207 4.28783 -1.12518 0
M  V30 2143 H 206.427 0.592793 -0.314384 0
M  V30 2144 H 208.971 1.41649 -1.47499 0
M  V30 2145 H 207.126 3.79706 -0.768229 0
M  V30 2146 H 207.54 4.3652 -2.90776 0
M  V30 2147 H 209.014 5.31613 -1.48633 0
M  V30 2148 H 209.491 4.39153 -0.0642394 0
M  V30 2149 H 210.097 3.91291 -1.66648 0
M  V30 2150 N 208.412 0.89855 1.29475 0
M  V30 2151 C 209.637 0.538561 2.00285 0
M  V30 2152 C 210.062 -0.869135 1.66816 0
M  V30 2153 O 209.42 -1.57831 0.892145 0
M  V30 2154 C 209.468 0.736475 3.52999 0
M  V30 2155 O 208.572 -0.211537 4.11857 0
M  V30 2156 H 207.913 0.210563 0.62973 0
M  V30 2157 H 210.443 1.20982 1.64998 0
M  V30 2158 H 210.453 0.640685 4.02938 0
M  V30 2159 H 209.128 1.76276 3.76696 0
M  V30 2160 H 207.705 -0.0682991 3.72837 0
M  V30 2161 N 209.89 -1.43072 0.660911 0
M  V30 2162 C 210.8 -2.34585 -0.0264163 0
M  V30 2163 C 211.816 -1.54316 -0.803898 0
M  V30 2164 O 212.992 -1.86939 -0.749391 0
M  V30 2165 C 210.057 -3.32689 -0.975639 0
M  V30 2166 C 209.118 -4.2886 -0.194236 0
M  V30 2167 C 208.351 -5.22278 -1.09825 0
M  V30 2168 O 208.574 -5.20299 -2.33763 0
M  V30 2169 O 207.508 -5.99228 -0.566513 0
M  V30 2170 H 211.334 -2.94869 0.727034 0
M  V30 2171 H 208.919 -1.43342 0.42111 0
M  V30 2172 H 210.801 -3.92995 -1.52094 0
M  V30 2173 H 209.476 -2.74898 -1.70918 0
M  V30 2174 H 208.383 -3.72011 0.394835 0
M  V30 2175 H 209.716 -4.89655 0.499899 0
M  V30 2176 N 211.368 -0.403325 -1.52352 0
M  V30 2177 C 212.593 0.176499 -2.06648 0
M  V30 2178 C 213.018 1.38577 -1.27193 0
M  V30 2179 O 212.376 1.7879 -0.300637 0
M  V30 2180 C 212.424 0.511061 -3.5696 0
M  V30 2181 O 211.528 1.60294 -3.79973 0
M  V30 2182 H 210.869 0.0167337 -0.663789 0
M  V30 2183 H 213.399 -0.574848 -1.96359 0
M  V30 2184 H 213.409 0.771362 -4.00642 0
M  V30 2185 H 212.084 -0.37296 -4.14224 0
M  V30 2186 H 210.661 1.33526 -3.48174 0
M  V30 2187 N 212.846 1.57033 -0.133567 0
M  V30 2188 C 214.074 2.00044 0.528195 0
M  V30 2189 C 214.489 1.01349 1.59291 0
M  V30 2190 O 213.846 0.00848369 1.82498 0
M  V30 2191 C 213.897 3.43018 1.1411 0
M  V30 2192 O 213.618 4.37939 0.11892 0
M  V30 2193 C 215.119 4.01237 1.88477 0
M  V30 2194 H 212.339 0.656517 0.138661 0
M  V30 2195 H 214.883 2.03267 -0.224196 0
M  V30 2196 H 213.038 3.40688 1.84418 0
M  V30 2197 H 213.452 5.21436 0.56613 0
M  V30 2198 H 214.926 5.03314 2.26669 0
M  V30 2199 H 215.403 3.41193 2.76558 0
M  V30 2200 H 216.009 4.07156 1.22898 0
M  V30 2201 N 214.325 -0.140222 1.56975 0
M  V30 2202 C 215.288 -1.15689 1.97861 0
M  V30 2203 C 216.288 -1.3549 0.865974 0
M  V30 2204 O 217.478 -1.32367 1.13246 0
M  V30 2205 C 214.61 -2.51582 2.30042 0
M  V30 2206 H 215.803 -0.805971 2.88867 0
M  V30 2207 H 213.356 -0.383801 1.51515 0
M  V30 2208 H 214.091 -2.91632 1.41849 0
M  V30 2209 H 213.876 -2.38569 3.11171 0
M  V30 2210 H 215.366 -3.24792 2.62488 0
M  V30 2211 N 215.803 -1.52179 -0.40978 0
M  V30 2212 C 216.766 -1.74853 -1.48186 0
M  V30 2213 C 217.766 -0.618417 -1.48433 0
M  V30 2214 O 218.956 -0.886286 -1.49969 0
M  V30 2215 C 216.088 -1.8303 -2.87598 0
M  V30 2216 H 217.281 -2.70559 -1.29374 0
M  V30 2217 H 214.834 -1.42586 -0.640233 0
M  V30 2218 H 215.569 -0.89236 -3.11781 0
M  V30 2219 H 215.354 -2.65187 -2.88822 0
M  V30 2220 H 216.844 -2.02316 -3.65319 0
M  V30 2221 N 217.281 0.66697 -1.42791 0
M  V30 2222 C 218.211 1.79218 -1.49677 0
M  V30 2223 C 219.192 1.66405 -0.352623 0
M  V30 2224 O 220.377 1.85708 -0.567993 0
M  V30 2225 C 217.507 3.17565 -1.40605 0
M  V30 2226 C 216.461 3.45124 -2.53127 0
M  V30 2227 C 215.787 4.83127 -2.29112 0
M  V30 2228 C 217.087 3.41236 -3.95418 0
M  V30 2229 H 218.781 1.73713 -2.43853 0
M  V30 2230 H 216.327 0.83432 -1.17367 0
M  V30 2231 H 218.28 3.96022 -1.44029 0
M  V30 2232 H 217.004 3.23767 -0.429271 0
M  V30 2233 H 215.663 2.69031 -2.49034 0
M  V30 2234 H 215.311 4.85988 -1.29709 0
M  V30 2235 H 215.011 5.02528 -3.04531 0
M  V30 2236 H 216.535 5.63859 -2.34297 0
M  V30 2237 H 217.949 4.09651 -4.01073 0
M  V30 2238 H 216.346 3.72173 -4.70752 0
M  V30 2239 H 217.416 2.39665 -4.21532 0
M  V30 2240 N 218.759 1.29093 0.90403 0
M  V30 2241 C 220.007 1.16583 1.65085 0
M  V30 2242 C 220.328 -0.283933 1.92922 0
M  V30 2243 O 219.598 -1.19509 1.55224 0
M  V30 2244 H 218.178 0.428467 0.611903 0
M  V30 2245 H 220.84 1.61959 1.08422 0
M  V30 2246 H 219.936 1.71266 2.6091 0
M  V30 2247 N 220.237 -1.11381 1.11499 0
M  V30 2248 C 221.477 -1.84763 0.874188 0
M  V30 2249 C 221.841 -1.82726 -0.589496 0
M  V30 2250 O 223.042 -2.51562 -0.947089 0
M  V30 2251 C 221.313 -3.27931 1.42112 0
M  V30 2252 S 222.872 -4.18557 1.31739 0
M  V30 2253 H 219.69 -0.637115 0.315603 0
M  V30 2254 H 222.292 -1.34097 1.42261 0
M  V30 2255 H 220.996 -3.26978 2.48019 0
M  V30 2256 H 220.527 -3.83665 0.869761 0
M  V30 2257 H 222.542 -4.95396 0.282335 0
M  V30 2258 N 221.715 -0.905404 -1.28997 0
M  V30 2259 C 222.645 -0.404212 -2.29975 0
M  V30 2260 C 223.626 0.523784 -1.61835 0
M  V30 2261 O 224.811 0.433298 -1.89304 0
M  V30 2262 C 221.941 0.364042 -3.45387 0
M  V30 2263 C 220.895 -0.474048 -4.25367 0
M  V30 2264 C 220.221 0.422045 -5.33032 0
M  V30 2265 C 221.521 -1.72696 -4.92923 0
M  V30 2266 H 223.215 -1.24807 -2.72146 0
M  V30 2267 H 220.761 -0.601585 -1.30832 0
M  V30 2268 H 222.714 0.725447 -4.15109 0
M  V30 2269 H 221.438 1.24174 -3.02074 0
M  V30 2270 H 220.097 -0.81786 -3.57361 0
M  V30 2271 H 219.745 1.29804 -4.85963 0
M  V30 2272 H 219.445 -0.135057 -5.87445 0
M  V30 2273 H 220.969 0.779517 -6.05604 0
M  V30 2274 H 222.383 -1.43495 -5.55051 0
M  V30 2275 H 220.78 -2.22582 -5.57295 0
M  V30 2276 H 221.85 -2.45964 -4.17887 0
M  V30 2277 N 223.193 1.4272 -0.668489 0
M  V30 2278 C 224.439 2.01923 -0.188419 0
M  V30 2279 C 224.772 1.52704 1.19979 0
M  V30 2280 O 224.047 0.726566 1.8042 0
M  V30 2281 C 224.33 3.59451 -0.216085 0
M  V30 2282 C 224.183 4.18864 -1.6393 0
M  V30 2283 C 225.502 4.37903 0.439179 0
M  V30 2284 H 222.621 0.733674 -0.0699412 0
M  V30 2285 H 225.263 1.69822 -0.852076 0
M  V30 2286 H 223.413 3.86929 0.349012 0
M  V30 2287 H 225.085 4.02362 -2.25616 0
M  V30 2288 H 223.328 3.74933 -2.18193 0
M  V30 2289 H 223.999 5.27987 -1.61039 0
M  V30 2290 H 226.475 4.16079 -0.0417878 0
M  V30 2291 H 225.351 5.47519 0.389157 0
M  V30 2292 H 225.612 4.15303 1.51577 0
M  V30 2293 N 224.671 0.411399 1.52136 0
M  V30 2294 C 225.618 -0.412975 2.27075 0
M  V30 2295 C 226.588 -1.03912 1.29582 0
M  V30 2296 O 227.773 -1.06296 1.58448 0
M  V30 2297 C 224.913 -1.52247 3.09701 0
M  V30 2298 C 224.026 -0.917021 4.22155 0
M  V30 2299 C 223.161 -1.9994 4.92135 0
M  V30 2300 C 222.2 -1.37101 5.96548 0
M  V30 2301 N 221.337 -2.39364 6.60038 0
M  V30 2302 H 226.177 0.232499 2.97092 0
M  V30 2303 H 223.714 0.126496 1.46555 0
M  V30 2304 H 225.672 -2.17674 3.55913 0
M  V30 2305 H 224.302 -2.13794 2.41851 0
M  V30 2306 H 223.354 -0.151742 3.80097 0
M  V30 2307 H 224.666 -0.418006 4.97045 0
M  V30 2308 H 223.82 -2.73088 5.41763 0
M  V30 2309 H 222.559 -2.53208 4.16818 0
M  V30 2310 H 221.564 -0.624873 5.46237 0
M  V30 2311 H 222.789 -0.845998 6.7381 0
M  V30 2312 H 220.735 -2.91759 5.87548 0
M  V30 2313 H 220.652 -1.9428 7.3061 0
M  V30 2314 H 221.92 -3.12074 7.14304 0
M  V30 2315 N 226.149 -1.5696 0.141893 0
M  V30 2316 C 227.426 -1.87553 -0.555281 0
M  V30 2317 C 227.806 -1.04699 -1.83306 0
M  V30 2318 O 227.154 -0.132346 -2.28116 0
M  V30 2319 C 227.364 -3.39093 -0.825664 0
M  V30 2320 C 228.712 -4.08199 -1.16869 0
M  V30 2321 O 229.736 -3.44242 -0.915185 0
M  V30 2322 O 228.595 -5.21139 -1.6455 0
M  V30 2323 H 225.689 -0.777188 -0.282679 0
M  V30 2324 H 228.235 -1.68763 0.17812 0
M  V30 2325 H 227.007 -3.91221 0.0788633 0
M  V30 2326 H 226.63 -3.63393 -1.61343 0
M  V30 2327 N 227.627 0.131896 -1.57047 0
M  V30 2328 C 228.857 0.855219 -1.88068 0
M  V30 2329 C 229.265 1.74557 -0.729817 0
M  V30 2330 O 228.608 1.81083 0.308962 0
M  V30 2331 C 228.67 1.75119 -3.13964 0
M  V30 2332 C 228.334 1.03646 -4.45091 0
M  V30 2333 C 229.331 0.383276 -5.18485 0
M  V30 2334 C 227.016 1.02148 -4.91804 0
M  V30 2335 C 229.01 -0.275347 -6.36805 0
M  V30 2336 C 226.697 0.359047 -6.10044 0
M  V30 2337 C 227.695 -0.288222 -6.82392 0
M  V30 2338 O 227.383 -0.94011 -7.98384 0
M  V30 2339 H 227.115 0.251864 -0.627328 0
M  V30 2340 H 229.669 0.124782 -2.05021 0
M  V30 2341 H 227.899 2.52295 -2.9306 0
M  V30 2342 H 229.588 2.3478 -3.31109 0
M  V30 2343 H 230.354 0.386562 -4.83457 0
M  V30 2344 H 226.233 1.5147 -4.35405 0
M  V30 2345 H 229.777 -0.781148 -6.93213 0
M  V30 2346 H 225.674 0.35348 -6.44531 0
M  V30 2347 H 226.442 -0.84329 -8.14144 0
M  V30 2348 N 229.106 1.52395 0.401703 0
M  V30 2349 C 230.353 1.66817 1.14796 0
M  V30 2350 C 230.681 0.401772 1.90305 0
M  V30 2351 O 229.936 -0.615487 1.85769 0
M  V30 2352 C 230.235 2.84578 2.16217 0
M  V30 2353 C 229.901 4.22513 1.5746 0
M  V30 2354 C 228.563 4.60029 1.41161 0
M  V30 2355 C 230.915 5.0844 1.14622 0
M  V30 2356 C 228.243 5.81144 0.80552 0
M  V30 2357 C 230.595 6.30167 0.55428 0
M  V30 2358 C 229.259 6.66426 0.378482 0
M  V30 2359 H 228.529 0.610428 0.420069 0
M  V30 2360 H 231.176 1.86512 0.434212 0
M  V30 2361 H 229.481 2.59248 2.93764 0
M  V30 2362 H 231.178 2.92933 2.73845 0
M  V30 2363 H 227.768 3.92953 1.71132 0
M  V30 2364 H 231.952 4.80034 1.26021 0
M  V30 2365 H 227.208 6.07855 0.657399 0
M  V30 2366 H 231.382 6.96071 0.213983 0
M  V30 2367 H 229.009 7.60143 -0.0932606 0
M  V30 2368 N 230.584 -0.659388 1.43143 0
M  V30 2369 C 231.995 -1.24041 1.39537 0
M  V30 2370 C 232.346 -1.95963 0.0963364 0
M  V30 2371 O 231.471 -2.00892 -0.804438 0
M  V30 2372 C 232.066 -2.25601 2.52764 0
M  V30 2373 C 230.625 -2.79195 2.52443 0
M  V30 2374 C 229.772 -1.53743 2.30778 0
M  V30 2375 H 232.723 -0.451792 1.52133 0
M  V30 2376 H 232.744 -3.07651 2.23899 0
M  V30 2377 H 232.256 -1.73226 3.47296 0
M  V30 2378 H 230.357 -3.35649 1.61773 0
M  V30 2379 H 230.47 -3.2716 3.50004 0
M  V30 2380 H 228.834 -1.80869 1.79328 0
M  V30 2381 H 229.617 -1.03312 3.27386 0
M  V30 2382 N 232.062 -1.29571 -0.897171 0
M  V30 2383 C 232.972 -1.16808 -2.03453 0
M  V30 2384 C 233.988 -0.0907471 -1.73763 0
M  V30 2385 O 235.164 -0.303312 -1.99103 0
M  V30 2386 C 232.229 -0.848264 -3.36163 0
M  V30 2387 C 231.29 -2.0097 -3.79354 0
M  V30 2388 C 230.523 -1.70505 -5.05731 0
M  V30 2389 O 230.746 -0.62718 -5.66941 0
M  V30 2390 O 229.68 -2.5538 -5.45036 0
M  V30 2391 H 233.506 -2.12325 -2.17144 0
M  V30 2392 H 231.091 -1.09047 -1.02123 0
M  V30 2393 H 232.973 -0.684581 -4.15802 0
M  V30 2394 H 231.648 0.0771071 -3.23608 0
M  V30 2395 H 230.555 -2.22863 -3.00471 0
M  V30 2396 H 231.888 -2.91636 -3.96496 0
M  V30 2397 N 233.54 1.10788 -1.12088 0
M  V30 2398 C 234.951 1.64181 -0.88891 0
M  V30 2399 C 235.302 1.87508 0.577498 0
M  V30 2400 O 234.427 1.61434 1.44112 0
M  V30 2401 C 235.022 2.98257 -1.60712 0
M  V30 2402 C 233.581 3.4853 -1.42139 0
M  V30 2403 C 232.728 2.23208 -1.6454 0
M  V30 2404 H 235.679 0.943368 -1.27618 0
M  V30 2405 H 235.7 3.65552 -1.05604 0
M  V30 2406 H 235.212 2.81246 -2.67436 0
M  V30 2407 H 233.313 3.70692 -0.376552 0
M  V30 2408 H 233.426 4.26882 -2.17505 0
M  V30 2409 H 231.79 2.31169 -1.06925 0
M  V30 2410 H 232.573 2.08733 -2.72554 0
M  V30 2411 N 235.018 0.912232 1.28515 0
M  V30 2412 C 236.264 0.545405 1.95328 0
M  V30 2413 C 236.597 -0.908313 1.71649 0
M  V30 2414 O 235.872 -1.64575 1.03659 0
M  V30 2415 C 236.155 0.853483 3.4984 0
M  V30 2416 C 236.008 2.35982 3.82926 0
M  V30 2417 C 237.327 0.348589 4.38717 0
M  V30 2418 H 234.446 0.199626 0.709449 0
M  V30 2419 H 237.088 1.1412 1.5191 0
M  V30 2420 H 235.238 0.34643 3.86952 0
M  V30 2421 H 236.91 2.93738 3.55691 0
M  V30 2422 H 235.153 2.81543 3.30024 0
M  V30 2423 H 235.824 2.52593 4.90816 0
M  V30 2424 H 238.3 0.78294 4.08668 0
M  V30 2425 H 237.176 0.593242 5.45685 0
M  V30 2426 H 237.437 -0.751049 4.35674 0
M  V30 2427 N 236.496 -1.42363 0.676048 0
M  V30 2428 C 237.724 -2.05859 0.207268 0
M  V30 2429 C 238.139 -1.50796 -1.13605 0
M  V30 2430 O 237.496 -0.648265 -1.70598 0
M  V30 2431 C 237.547 -3.61248 0.134975 0
M  V30 2432 O 237.268 -4.1427 1.42521 0
M  V30 2433 C 238.769 -4.41859 -0.357151 0
M  V30 2434 H 235.989 -0.663431 0.100503 0
M  V30 2435 H 238.533 -1.82479 0.923136 0
M  V30 2436 H 236.688 -3.83735 -0.531588 0
M  V30 2437 H 237.102 -5.0815 1.29939 0
M  V30 2438 H 238.576 -5.50847 -0.356641 0
M  V30 2439 H 239.053 -4.16536 -1.39264 0
M  V30 2440 H 239.659 -4.24392 0.27772 0
M  V30 2441 N 237.974 -0.419461 -1.51915 0
M  V30 2442 C 239.22 0.153166 -2.02221 0
M  V30 2443 C 239.553 1.43907 -1.30401 0
M  V30 2444 O 238.828 1.90055 -0.413438 0
M  V30 2445 C 239.111 0.390291 -3.57979 0
M  V30 2446 C 238.964 -0.913014 -4.40436 0
M  V30 2447 C 240.283 1.16794 -4.2432 0
M  V30 2448 H 237.402 0.0541924 -0.735005 0
M  V30 2449 H 240.044 -0.554955 -1.81715 0
M  V30 2450 H 238.194 0.993491 -3.75582 0
M  V30 2451 H 239.866 -1.54882 -4.34522 0
M  V30 2452 H 238.109 -1.52168 -4.06236 0
M  V30 2453 H 238.78 -0.701361 -5.47526 0
M  V30 2454 H 241.256 0.657161 -4.10878 0
M  V30 2455 H 240.132 1.3026 -5.3322 0
M  V30 2456 H 240.393 2.19132 -3.83971 0
M  V30 2457 N 239.452 1.56882 -0.150215 0
M  V30 2458 C 240.677 2.01027 0.510184 0
M  V30 2459 C 241.102 1.02966 1.57415 0
M  V30 2460 O 240.46 0.00590158 1.81299 0
M  V30 2461 C 240.508 3.43899 1.08472 0
M  V30 2462 O 239.612 3.4885 2.19948 0
M  V30 2463 H 238.953 0.652233 0.124451 0
M  V30 2464 H 241.483 2.03093 -0.247894 0
M  V30 2465 H 241.493 3.82766 1.41259 0
M  V30 2466 H 240.168 4.14776 0.305582 0
M  V30 2467 H 238.745 3.21827 1.88366 0
M  V30 2468 N 240.93 -0.123565 1.57115 0
M  V30 2469 C 242.176 -0.828428 1.85765 0
M  V30 2470 C 242.531 -1.77709 0.737371 0
M  V30 2471 O 241.824 -1.89787 -0.262978 0
M  V30 2472 C 242.018 -1.62016 3.18568 0
M  V30 2473 C 241.847 -0.749663 4.43407 0
M  V30 2474 C 240.617 -0.406251 5.03664 0
M  V30 2475 C 242.815 -0.0693505 5.14253 0
M  V30 2476 N 240.797 0.475389 6.12057 0
M  V30 2477 C 242.168 0.671474 6.16353 0
M  V30 2478 C 244.223 0.00754393 4.97899 0
M  V30 2479 C 242.926 1.48197 7.03868 0
M  V30 2480 C 244.952 0.804845 5.85898 0
M  V30 2481 C 244.314 1.53388 6.87497 0
M  V30 2482 H 240.413 -0.280219 0.73007 0
M  V30 2483 H 242.997 -0.0924183 1.94481 0
M  V30 2484 H 241.168 -2.32724 3.10957 0
M  V30 2485 H 242.9 -2.27 3.35042 0
M  V30 2486 H 239.655 -0.747446 4.67665 0
M  V30 2487 H 240.079 0.907924 6.70884 0
M  V30 2488 H 244.721 -0.541741 4.19315 0
M  V30 2489 H 242.439 2.04242 7.81864 0
M  V30 2490 H 246.025 0.866642 5.75309 0
M  V30 2491 H 244.905 2.1409 7.5441 0
M  V30 2492 N 242.408 -1.52605 -0.393616 0
M  V30 2493 C 243.356 -1.77688 -1.50099 0
M  V30 2494 C 244.35 -0.644615 -1.56656 0
M  V30 2495 O 245.556 -0.826997 -1.59877 0
M  V30 2496 H 241.931 -0.562159 -0.499481 0
M  V30 2497 H 243.902 -2.7043 -1.26135 0
M  V30 2498 C 242.651 -1.95858 -2.87289 0
M  V30 2499 H 241.974 -2.8241 -2.82992 0
M  V30 2500 H 243.414 -2.174 -3.64024 0
M  V30 2501 C 241.873 -0.729848 -3.28899 0
M  V30 2502 O 242.403 0.0949217 -4.01588 0
M  V30 2503 N 240.609 -0.561283 -2.85128 0
M  V30 2504 H 240.156 -1.23357 -2.26143 0
M  V30 2505 H 240.114 0.2595 -3.13327 0
M  V30 2506 N 243.887 0.651787 -1.4349 0
M  V30 2507 C 245.112 1.44434 -1.48841 0
M  V30 2508 C 245.537 1.8779 -0.107955 0
M  V30 2509 O 244.895 1.57464 0.898602 0
M  V30 2510 C 244.943 2.65458 -2.44059 0
M  V30 2511 O 244.047 3.64566 -1.92784 0
M  V30 2512 H 243.388 0.433005 -0.503391 0
M  V30 2513 H 245.918 0.797451 -1.88419 0
M  V30 2514 H 245.928 3.13255 -2.6141 0
M  V30 2515 H 244.603 2.33244 -3.4434 0
M  V30 2516 H 243.18 3.23716 -1.851 0
M  V30 2517 N 245.365 1.30045 0.890287 0
M  V30 2518 C 246.613 1.18327 1.63839 0
M  V30 2519 C 246.934 -0.263455 1.93212 0
M  V30 2520 O 246.204 -1.17856 1.56482 0
M  V30 2521 H 244.784 0.434933 0.607324 0
M  V30 2522 H 247.446 1.631 1.06698 0
M  V30 2523 H 246.542 1.74024 2.59079 0
M  V30 2524 N 246.843 -1.10192 1.12674 0
M  V30 2525 C 247.806 -2.14786 0.799979 0
M  V30 2526 C 248.806 -1.59711 -0.18685 0
M  V30 2527 O 249.996 -1.74156 0.0392558 0
M  V30 2528 C 247.128 -3.40374 0.189228 0
M  V30 2529 H 248.321 -2.45203 1.72671 0
M  V30 2530 H 245.874 -1.25597 0.930326 0
M  V30 2531 H 246.609 -3.15577 -0.747107 0
M  V30 2532 H 246.394 -3.81637 0.899766 0
M  V30 2533 H 247.884 -4.17594 -0.0228143 0
M  V30 2534 N 248.321 -0.919034 -1.28029 0
M  V30 2535 C 249.251 -0.428581 -2.29533 0
M  V30 2536 C 250.232 0.50659 -1.62381 0
M  V30 2537 O 251.417 0.413195 -1.89753 0
M  V30 2538 C 248.547 0.327388 -3.45753 0
M  V30 2539 C 247.501 -0.519137 -4.2484 0
M  V30 2540 C 246.827 0.365486 -5.33449 0
M  V30 2541 C 248.127 -1.77914 -4.91064 0
M  V30 2542 H 249.821 -1.27687 -2.70807 0
M  V30 2543 H 247.367 -0.615428 -1.30186 0
M  V30 2544 H 249.32 0.681378 -4.15855 0
M  V30 2545 H 248.044 1.20963 -3.03374 0
M  V30 2546 H 246.703 -0.855717 -3.56473 0
M  V30 2547 H 246.351 1.24642 -4.87312 0
M  V30 2548 H 246.051 -0.197356 -5.87268 0
M  V30 2549 H 247.575 0.715241 -6.06396 0
M  V30 2550 H 248.989 -1.49374 -5.53498 0
M  V30 2551 H 247.386 -2.2848 -5.54903 0
M  V30 2552 H 248.456 -2.50382 -4.15255 0
M  V30 2553 N 249.799 1.42003 -0.683588 0
M  V30 2554 C 251.027 2.05746 -0.218182 0
M  V30 2555 C 251.442 1.51396 1.12804 0
M  V30 2556 O 250.799 0.657303 1.70252 0
M  V30 2557 C 250.85 3.61171 -0.154131 0
M  V30 2558 O 250.571 4.13508 -1.44716 0
M  V30 2559 C 252.072 4.42042 0.333713 0
M  V30 2560 H 249.292 0.662888 -0.10402 0
M  V30 2561 H 251.836 1.81987 -0.9328 0
M  V30 2562 H 249.991 3.84012 0.511231 0
M  V30 2563 H 250.405 5.07453 -1.32632 0
M  V30 2564 H 251.879 5.51028 0.327423 0
M  V30 2565 H 252.356 4.17269 1.37053 0
M  V30 2566 H 252.962 4.24239 -0.300222 0
M  V30 2567 N 251.277 0.427512 1.51691 0
M  V30 2568 C 252.502 -0.143601 2.06902 0
M  V30 2569 C 252.927 -1.36536 1.29382 0
M  V30 2570 O 252.285 -1.78289 0.329043 0
M  V30 2571 C 252.333 -0.454207 3.57728 0
M  V30 2572 O 251.437 -1.54228 3.82475 0
M  V30 2573 H 250.778 -0.00617128 0.663971 0
M  V30 2574 H 253.308 0.606014 1.95419 0
M  V30 2575 H 253.318 -0.707525 4.01818 0
M  V30 2576 H 251.993 0.438812 4.13579 0
M  V30 2577 H 250.57 -1.2797 3.50254 0
M  V30 2578 N 252.755 -1.56801 0.158532 0
M  V30 2579 C 254.003 -1.96102 -0.488712 0
M  V30 2580 C 254.324 -1.04498 -1.64636 0
M  V30 2581 O 253.594 -0.108783 -1.95598 0
M  V30 2582 H 252.174 -0.724102 -0.183535 0
M  V30 2583 H 254.836 -1.93457 0.236728 0
M  V30 2584 H 253.932 -3.00097 -0.857219 0
M  V30 2585 N 254.233 0.115231 -1.57178 0
M  V30 2586 C 255.479 0.82357 -1.85325 0
M  V30 2587 C 255.812 1.79349 -0.744814 0
M  V30 2588 O 255.087 1.92899 0.249024 0
M  V30 2589 C 255.37 1.57014 -3.24066 0
M  V30 2590 C 255.223 0.619565 -4.45513 0
M  V30 2591 C 256.542 2.52545 -3.60429 0
M  V30 2592 H 253.661 0.297948 -0.674089 0
M  V30 2593 H 256.303 0.0877138 -1.89797 0
M  V30 2594 H 254.453 2.19742 -3.20383 0
M  V30 2595 H 256.125 0.000837639 -4.613 0
M  V30 2596 H 254.368 -0.0686174 -4.33746 0
M  V30 2597 H 255.039 1.17866 -5.3927 0
M  V30 2598 H 257.515 1.9992 -3.64926 0
M  V30 2599 H 256.391 3.01811 -4.58477 0
M  V30 2600 H 256.652 3.35383 -2.88047 0
M  V30 2601 N 255.711 1.52812 0.385517 0
M  V30 2602 C 256.661 1.74219 1.47078 0
M  V30 2603 C 257.645 0.59632 1.49442 0
M  V30 2604 O 258.837 0.85428 1.5502 0
M  V30 2605 C 255.966 1.9176 2.84751 0
M  V30 2606 C 255.052 3.12289 2.86943 0
M  V30 2607 N 255.443 4.34575 2.58802 0
M  V30 2608 C 253.741 3.12605 3.1811 0
M  V30 2609 C 254.442 5.162 2.68166 0
M  V30 2610 N 253.418 4.51964 3.02043 0
M  V30 2611 H 257.22 2.6639 1.24152 0
M  V30 2612 H 254.734 1.51166 0.593504 0
M  V30 2613 H 256.731 2.05218 3.62893 0
M  V30 2614 H 255.391 1.00805 3.08656 0
M  V30 2615 H 256.402 4.62649 2.32759 0
M  V30 2616 H 253.079 2.31472 3.47458 0
M  V30 2617 H 254.469 6.23689 2.49923 0
M  V30 2618 N 257.189 -0.644168 1.43834 0
M  V30 2619 C 258.417 -1.43147 1.49387 0
M  V30 2620 C 258.832 -1.88452 0.114583 0
M  V30 2621 O 258.189 -1.60047 -0.876989 0
M  V30 2622 C 258.24 -2.66046 2.44748 0
M  V30 2623 O 257.961 -2.22633 3.77314 0
M  V30 2624 C 259.462 -3.59311 2.59635 0
M  V30 2625 H 256.682 -0.439447 0.507077 0
M  V30 2626 H 259.226 -0.78895 1.88669 0
M  V30 2627 H 257.381 -3.26418 2.08638 0
M  V30 2628 H 257.795 -3.02216 4.28679 0
M  V30 2629 H 259.269 -4.42187 3.30416 0
M  V30 2630 H 259.746 -4.07259 1.64427 0
M  V30 2631 H 260.352 -3.04816 2.96593 0
M  V30 2632 N 258.668 -1.30515 -0.883378 0
M  V30 2633 C 259.915 -1.1943 -1.63532 0
M  V30 2634 C 260.243 0.250627 -1.92878 0
M  V30 2635 O 259.498 1.19556 -1.54935 0
M  V30 2636 C 259.797 -1.96994 -2.98209 0
M  V30 2637 C 259.463 -3.466 -2.88408 0
M  V30 2638 C 258.125 -3.87397 -2.85442 0
M  V30 2639 C 260.477 -4.41863 -2.76418 0
M  V30 2640 C 257.805 -5.21745 -2.68327 0
M  V30 2641 C 260.157 -5.7632 -2.60841 0
M  V30 2642 C 258.821 -6.16354 -2.56251 0
M  V30 2643 H 258.091 -0.437025 -0.598406 0
M  V30 2644 H 260.738 -1.61635 -1.02696 0
M  V30 2645 H 259.043 -1.47429 -3.63004 0
M  V30 2646 H 260.74 -1.85808 -3.55354 0
M  V30 2647 H 257.33 -3.14182 -2.91527 0
M  V30 2648 H 261.514 -4.11285 -2.77775 0
M  V30 2649 H 256.77 -5.51853 -2.63189 0
M  V30 2650 H 260.944 -6.49772 -2.50538 0
M  V30 2651 H 258.571 -7.20401 -2.42748 0
M  V30 2652 N 260.146 1.09593 -1.13257 0
M  V30 2653 C 261.557 1.63229 -0.906274 0
M  V30 2654 C 261.908 1.8811 0.557578 0
M  V30 2655 O 261.033 1.62953 1.42391 0
M  V30 2656 C 261.628 2.96535 -1.63867 0
M  V30 2657 C 260.187 3.47003 -1.45828 0
M  V30 2658 C 259.334 2.2145 -1.66898 0
M  V30 2659 H 262.285 0.92978 -1.28611 0
M  V30 2660 H 262.306 3.64411 -1.09476 0
M  V30 2661 H 261.818 2.78394 -2.70404 0
M  V30 2662 H 259.919 3.70272 -0.415848 0
M  V30 2663 H 260.032 4.24551 -2.2202 0
M  V30 2664 H 258.396 2.30022 -1.09371 0
M  V30 2665 H 259.179 2.0583 -2.74752 0
M  V30 2666 N 261.624 0.925811 1.2754 0
M  V30 2667 C 262.587 0.428129 2.25166 0
M  V30 2668 C 263.587 -0.452261 1.54309 0
M  V30 2669 O 264.777 -0.253608 1.72344 0
M  V30 2670 C 261.909 -0.384749 3.38722 0
M  V30 2671 H 263.102 1.29066 2.70706 0
M  V30 2672 H 260.655 0.706323 1.3943 0
M  V30 2673 H 261.39 -1.26618 2.98561 0
M  V30 2674 H 261.175 0.246454 3.91325 0
M  V30 2675 H 262.665 -0.723389 4.11287 0
M  V30 2676 N 263.102 -1.41638 0.69111 0
M  V30 2677 C 264.348 -2.01598 0.220519 0
M  V30 2678 C 264.681 -1.54594 -1.17535 0
M  V30 2679 O 263.956 -0.755177 -1.79241 0
M  V30 2680 C 264.239 -3.59062 0.273243 0
M  V30 2681 C 264.092 -4.16203 1.70573 0
M  V30 2682 C 265.411 -4.38546 -0.369457 0
M  V30 2683 H 262.53 -0.732468 0.0816045 0
M  V30 2684 H 265.172 -1.68445 0.878986 0
M  V30 2685 H 263.322 -3.87435 -0.287411 0
M  V30 2686 H 264.994 -3.98722 2.31989 0
M  V30 2687 H 263.237 -3.71414 2.2413 0
M  V30 2688 H 263.908 -5.25358 1.69419 0
M  V30 2689 H 266.384 -4.1596 0.107977 0
M  V30 2690 H 265.26 -5.48069 -0.302002 0
M  V30 2691 H 265.521 -4.17662 -1.44951 0
M  V30 2692 N 264.58 -0.43555 -1.51462 0
M  V30 2693 C 265.51 0.367376 -2.30592 0
M  V30 2694 C 266.491 1.02263 -1.35928 0
M  V30 2695 O 267.676 1.02661 -1.64847 0
M  V30 2696 C 264.806 1.46983 -3.14664 0
M  V30 2697 C 263.76 0.938161 -4.17591 0
M  V30 2698 C 263.086 2.13622 -4.90173 0
M  V30 2699 C 264.386 -0.0261621 -5.22293 0
M  V30 2700 H 266.08 -0.292969 -2.97963 0
M  V30 2701 H 263.626 -0.14234 -1.43295 0
M  V30 2702 H 265.579 2.03873 -3.688 0
M  V30 2703 H 264.303 2.15843 -2.4511 0
M  V30 2704 H 262.962 0.391481 -3.64504 0
M  V30 2705 H 262.61 2.81098 -4.17124 0
M  V30 2706 H 262.31 1.78688 -5.59772 0
M  V30 2707 H 263.834 2.7107 -5.47132 0
M  V30 2708 H 265.248 0.452384 -5.71512 0
M  V30 2709 H 263.645 -0.287992 -5.99409 0
M  V30 2710 H 264.715 -0.963391 -4.75233 0
M  V30 2711 N 266.058 1.56714 -0.166846 0
M  V30 2712 C 266.99 2.14914 0.796537 0
M  V30 2713 C 268.003 1.10357 1.19688 0
M  V30 2714 O 269.192 1.37561 1.13751 0
M  V30 2715 C 266.292 2.67326 2.08303 0
M  V30 2716 C 265.465 3.96493 1.84696 0
M  V30 2717 C 264.524 4.34014 2.97521 0
M  V30 2718 O 263.55 5.01973 2.6835 0
M  V30 2719 N 264.752 3.95208 4.25196 0
M  V30 2720 H 267.517 2.98205 0.299006 0
M  V30 2721 H 265.078 1.61892 0.0160839 0
M  V30 2722 H 267.07 2.89428 2.82867 0
M  V30 2723 H 265.64 1.88649 2.4926 0
M  V30 2724 H 264.86 3.82814 0.940602 0
M  V30 2725 H 266.148 4.8086 1.66285 0
M  V30 2726 H 265.546 3.40487 4.51758 0
M  V30 2727 H 264.103 4.2232 4.96477 0
M  V30 2728 N 267.536 -0.106894 1.57237 0
M  V30 2729 C 268.761 -0.830287 1.90055 0
M  V30 2730 C 269.186 -1.72064 0.75998 0
M  V30 2731 O 268.544 -1.78982 -0.288991 0
M  V30 2732 C 268.592 -1.6295 3.21683 0
M  V30 2733 O 267.696 -2.73748 3.08441 0
M  V30 2734 H 267.037 -0.228855 0.623315 0
M  V30 2735 H 269.567 -0.085658 2.04421 0
M  V30 2736 H 269.577 -2.01621 3.54701 0
M  V30 2737 H 268.252 -0.975989 4.04286 0
M  V30 2738 H 266.829 -2.38192 2.86913 0
M  V30 2739 N 269.014 -1.53014 -0.377408 0
M  V30 2740 C 270.239 -1.72818 -1.14668 0
M  V30 2741 C 270.664 -0.450725 -1.8262 0
M  V30 2742 O 270.022 0.59439 -1.7128 0
M  V30 2743 C 270.07 -2.88627 -2.16164 0
M  V30 2744 O 269.174 -2.56409 -3.22998 0
M  V30 2745 H 268.515 -0.574301 -0.333278 0
M  V30 2746 H 271.045 -1.99853 -0.438152 0
M  V30 2747 H 271.055 -3.14455 -2.59966 0
M  V30 2748 H 269.73 -3.81294 -1.66095 0
M  V30 2749 H 268.307 -2.4136 -2.84253 0
M  V30 2750 N 270.492 0.636531 -1.44174 0
M  V30 2751 C 271.74 1.39343 -1.46383 0
M  V30 2752 C 272.061 1.94766 -0.0955715 0
M  V30 2753 O 271.331 1.75452 0.871395 0
M  V30 2754 H 269.911 0.517199 -0.538994 0
M  V30 2755 H 272.573 0.74957 -1.7991 0
M  V30 2756 H 271.669 2.22746 -2.18611 0
M  V30 2757 N 271.97 1.30982 0.876444 0
M  V30 2758 C 272.9 1.20668 1.99903 0
M  V30 2759 C 273.881 0.095354 1.69833 0
M  V30 2760 O 275.066 0.27885 1.92188 0
M  V30 2761 C 272.196 0.90655 3.3526 0
M  V30 2762 C 271.15 1.97675 3.79617 0
M  V30 2763 C 270.476 1.52943 5.1236 0
M  V30 2764 C 271.776 3.389 3.97422 0
M  V30 2765 H 273.47 2.14586 2.0879 0
M  V30 2766 H 271.016 1.03308 1.00317 0
M  V30 2767 H 272.969 0.821025 4.13324 0
M  V30 2768 H 271.693 -0.0682969 3.26529 0
M  V30 2769 H 270.352 2.05205 3.03787 0
M  V30 2770 H 270 0.54262 5.00065 0
M  V30 2771 H 269.7 2.24532 5.43009 0
M  V30 2772 H 271.224 1.45786 5.92941 0
M  V30 2773 H 272.638 3.34081 4.659 0
M  V30 2774 H 271.035 4.0865 4.3946 0
M  V30 2775 H 272.105 3.80163 3.01006 0
M  V30 2776 N 273.449 -1.08991 1.13837 0
M  V30 2777 C 274.679 -1.84743 0.924859 0
M  V30 2778 C 275.087 -1.81629 -0.529874 0
M  V30 2779 O 274.43 -1.21397 -1.37872 0
M  V30 2780 C 274.492 -3.33568 1.34061 0
M  V30 2781 C 274.156 -3.60425 2.80968 0
M  V30 2782 C 275.153 -3.55771 3.79108 0
M  V30 2783 C 272.838 -3.88627 3.18236 0
M  V30 2784 C 274.832 -3.78939 5.12527 0
M  V30 2785 C 272.519 -4.11449 4.51833 0
M  V30 2786 C 273.517 -4.06598 5.48787 0
M  V30 2787 O 273.205 -4.28826 6.79973 0
M  V30 2788 H 272.937 -0.590258 0.329502 0
M  V30 2789 H 275.491 -1.38598 1.51591 0
M  V30 2790 H 273.721 -3.80442 0.692853 0
M  V30 2791 H 275.41 -3.90743 1.09886 0
M  V30 2792 H 276.176 -3.34005 3.51661 0
M  V30 2793 H 272.055 -3.91526 2.43369 0
M  V30 2794 H 275.599 -3.75068 5.88192 0
M  V30 2795 H 271.496 -4.32698 4.79002 0
M  V30 2796 H 272.264 -4.46264 6.86142 0
M  V30 2797 N 274.927 -0.932562 -1.27047 0
M  V30 2798 C 276.152 -0.591474 -1.98787 0
M  V30 2799 C 276.577 0.824601 -1.69062 0
M  V30 2800 O 275.935 1.5541 -0.933677 0
M  V30 2801 C 275.983 -0.829808 -3.50922 0
M  V30 2802 O 275.087 0.102266 -4.12273 0
M  V30 2803 H 274.428 -0.227185 -0.623926 0
M  V30 2804 H 276.958 -1.25314 -1.61733 0
M  V30 2805 H 276.968 -0.747292 -4.01098 0
M  V30 2806 H 275.643 -1.86201 -3.7189 0
M  V30 2807 H 274.22 -0.0305761 -3.72887 0
M  V30 2808 N 276.405 1.4127 -0.698611 0
M  V30 2809 C 277.335 2.33447 -0.049629 0
M  V30 2810 C 278.316 1.51982 0.763898 0
M  V30 2811 O 279.501 1.80509 0.716257 0
M  V30 2812 C 276.631 3.35828 0.885267 0
M  V30 2813 C 275.585 4.27627 0.178613 0
M  V30 2814 C 274.911 5.20406 1.22807 0
M  V30 2815 C 276.211 5.13459 -0.956933 0
M  V30 2816 H 277.905 2.87966 -0.81951 0
M  V30 2817 H 275.451 1.38461 -0.395538 0
M  V30 2818 H 277.404 3.9924 1.34854 0
M  V30 2819 H 276.128 2.79666 1.68685 0
M  V30 2820 H 274.787 3.65643 -0.26466 0
M  V30 2821 H 274.435 4.60558 2.02226 0
M  V30 2822 H 274.135 5.82661 0.760239 0
M  V30 2823 H 275.659 5.86695 1.69179 0
M  V30 2824 H 277.073 5.70421 -0.573805 0
M  V30 2825 H 275.47 5.8467 -1.35205 0
M  V30 2826 H 276.54 4.50443 -1.79524 0
M  V30 2827 N 277.883 0.443576 1.51229 0
M  V30 2828 C 279.108 -0.121648 2.07043 0
M  V30 2829 C 279.533 -1.35156 1.30823 0
M  V30 2830 O 278.891 -1.7793 0.347934 0
M  V30 2831 C 278.939 -0.41624 3.5819 0
M  V30 2832 O 278.043 -1.50163 3.8409 0
M  V30 2833 H 277.384 0.000871367 0.663999 0
M  V30 2834 H 279.914 0.626706 1.94765 0
M  V30 2835 H 279.924 -0.664867 4.02546 0
M  V30 2836 H 278.599 0.482653 4.1309 0
M  V30 2837 H 277.176 -1.24248 3.51592 0
M  V30 2838 N 279.361 -1.56624 0.175154 0
M  V30 2839 C 280.586 -2.01813 -0.478137 0
M  V30 2840 C 281.011 -1.05457 -1.55757 0
M  V30 2841 O 280.369 -0.0347439 -1.81267 0
M  V30 2842 C 280.417 -3.45581 -1.02987 0
M  V30 2843 O 279.521 -3.52305 -2.14371 0
M  V30 2844 H 278.862 -0.65413 -0.114059 0
M  V30 2845 H 281.392 -2.02673 0.280173 0
M  V30 2846 H 281.402 -3.84965 -1.35151 0
M  V30 2847 H 280.077 -4.1521 -0.239556 0
M  V30 2848 H 278.654 -3.24783 -1.83222 0
M  V30 2849 N 280.839 0.0985539 -1.57292 0
M  V30 2850 C 282.085 0.803867 -1.86188 0
M  V30 2851 C 282.418 1.78549 -0.763794 0
M  V30 2852 O 281.693 1.93153 0.22855 0
M  V30 2853 C 281.976 1.53568 -3.25713 0
M  V30 2854 C 281.829 0.572277 -4.46145 0
M  V30 2855 C 283.148 2.48708 -3.63087 0
M  V30 2856 H 280.267 0.290781 -0.677211 0
M  V30 2857 H 282.909 0.0675783 -1.8988 0
M  V30 2858 H 281.059 2.16332 -3.22696 0
M  V30 2859 H 282.731 -0.0480894 -4.61275 0
M  V30 2860 H 280.974 -0.114618 -4.33649 0
M  V30 2861 H 281.645 1.12139 -5.40489 0
M  V30 2862 H 284.121 1.96039 -3.67026 0
M  V30 2863 H 282.997 2.96932 -4.61652 0
M  V30 2864 H 283.258 3.32309 -2.91588 0
M  V30 2865 N 282.317 1.53212 0.369288 0
M  V30 2866 C 283.563 1.69466 1.11397 0
M  V30 2867 C 283.896 0.443257 1.89074 0
M  V30 2868 O 283.171 -0.559386 1.86282 0
M  V30 2869 C 283.454 2.9422 2.07621 0
M  V30 2870 C 283.307 4.29508 1.33577 0
M  V30 2871 C 284.626 3.14565 3.07794 0
M  V30 2872 H 281.745 0.616667 0.403597 0
M  V30 2873 H 284.387 1.85845 0.395179 0
M  V30 2874 H 282.537 2.80387 2.68916 0
M  V30 2875 H 284.209 4.55147 0.750955 0
M  V30 2876 H 282.452 4.29088 0.637618 0
M  V30 2877 H 283.123 5.12926 2.03989 0
M  V30 2878 H 285.599 3.2756 2.56601 0
M  V30 2879 H 284.475 4.03297 3.72348 0
M  V30 2880 H 284.736 2.29675 3.77759 0
M  V30 2881 N 283.795 -0.628877 1.44509 0
M  V30 2882 C 285.023 -1.41554 1.50897 0
M  V30 2883 C 285.438 -1.8832 0.134564 0
M  V30 2884 O 284.795 -1.60969 -0.859965 0
M  V30 2885 C 284.846 -2.63435 2.47556 0
M  V30 2886 O 284.567 -2.18619 3.79654 0
M  V30 2887 C 286.068 -3.56537 2.63431 0
M  V30 2888 H 283.288 -0.434044 0.511709 0
M  V30 2889 H 285.832 -0.768895 1.89495 0
M  V30 2890 H 283.987 -3.24187 2.12089 0
M  V30 2891 H 284.401 -2.97652 4.31861 0
M  V30 2892 H 285.875 -4.38657 3.35088 0
M  V30 2893 H 286.352 -4.05493 1.68738 0
M  V30 2894 H 286.958 -3.01653 2.9981 0
M  V30 2895 N 285.273 -1.31445 -0.869486 0
M  V30 2896 C 286.519 -1.21337 -1.62496 0
M  V30 2897 C 286.852 0.227872 -1.92858 0
M  V30 2898 O 286.127 1.16094 -1.56053 0
M  V30 2899 C 286.41 -2.05814 -2.95487 0
M  V30 2900 C 286.263 -3.5824 -2.72 0
M  V30 2901 C 287.582 -1.9079 -3.96594 0
M  V30 2902 H 284.701 -0.442135 -0.589649 0
M  V30 2903 H 287.343 -1.6124 -1.00507 0
M  V30 2904 H 285.493 -1.71913 -3.48394 0
M  V30 2905 H 287.165 -4.0228 -2.25762 0
M  V30 2906 H 285.408 -3.81647 -2.06224 0
M  V30 2907 H 286.079 -4.12657 -3.66631 0
M  V30 2908 H 288.555 -2.20459 -3.52898 0
M  V30 2909 H 287.431 -2.52199 -4.87531 0
M  V30 2910 H 287.692 -0.871341 -4.33428 0
M  V30 2911 N 286.751 1.08385 -1.14413 0
M  V30 2912 C 288.162 1.62258 -0.923535 0
M  V30 2913 C 288.513 1.88691 0.537595 0
M  V30 2914 O 287.638 1.64454 1.40655 0
M  V30 2915 C 288.233 2.94781 -1.67002 0
M  V30 2916 C 286.792 3.45437 -1.495 0
M  V30 2917 C 285.939 2.19668 -1.69238 0
M  V30 2918 H 288.89 0.916086 -1.2959 0
M  V30 2919 H 288.911 3.63229 -1.13334 0
M  V30 2920 H 288.423 2.7551 -2.73342 0
M  V30 2921 H 286.524 3.6981 -0.455097 0
M  V30 2922 H 286.637 4.22173 -2.2651 0
M  V30 2923 H 285.001 2.28849 -1.11804 0
M  V30 2924 H 285.784 2.02905 -2.7692 0
M  V30 2925 N 288.23 0.939286 1.26551 0
M  V30 2926 C 289.455 0.602008 1.98471 0
M  V30 2927 C 289.88 -0.815624 1.69497 0
M  V30 2928 O 289.238 -1.54912 0.941905 0
M  V30 2929 C 289.286 0.848407 3.50477 0
M  V30 2930 O 288.39 -0.0804009 4.12322 0
M  V30 2931 H 287.731 0.23049 0.622712 0
M  V30 2932 H 290.261 1.2617 1.61066 0
M  V30 2933 H 290.271 0.768553 4.00696 0
M  V30 2934 H 288.946 1.88171 3.70897 0
M  V30 2935 H 287.523 0.0503508 3.72866 0
M  V30 2936 N 289.708 -1.40897 0.706093 0
M  V30 2937 C 290.933 -2.05895 0.249435 0
M  V30 2938 C 291.358 -1.52823 -1.09666 0
M  V30 2939 O 290.716 -0.659589 -1.68876 0
M  V30 2940 C 290.764 -3.59872 0.22904 0
M  V30 2941 O 289.868 -4.04708 -0.792784 0
M  V30 2942 H 289.209 -0.653206 0.119241 0
M  V30 2943 H 291.739 -1.80471 0.96391 0
M  V30 2944 H 291.749 -4.07951 0.0634791 0
M  V30 2945 H 290.424 -3.97866 1.21141 0
M  V30 2946 H 289.001 -3.68111 -0.59572 0
M  V30 2947 N 291.186 -0.45159 -1.50991 0
M  V30 2948 C 292.411 0.110667 -2.07105 0
M  V30 2949 C 292.836 1.3446 -1.31538 0
M  V30 2950 O 292.194 1.77743 -0.357365 0
M  V30 2951 C 292.242 0.397238 -3.58405 0
M  V30 2952 O 291.346 1.48124 -3.84881 0
M  V30 2953 H 290.687 -0.00439271 -0.663985 0
M  V30 2954 H 293.217 -0.637026 -1.9443 0
M  V30 2955 H 293.227 0.64351 -4.02893 0
M  V30 2956 H 291.902 -0.504553 -4.12828 0
M  V30 2957 H 290.479 1.22381 -3.52246 0
M  V30 2958 N 292.664 1.56529 -0.183458 0
M  V30 2959 C 293.594 2.21549 0.737456 0
M  V30 2960 C 294.575 1.17489 1.23005 0
M  V30 2961 O 295.76 1.45959 1.281 0
M  V30 2962 C 292.89 2.86575 1.96194 0
M  V30 2963 C 291.844 3.96778 1.60473 0
M  V30 2964 C 291.17 4.48911 2.90487 0
M  V30 2965 C 292.47 5.15767 0.823497 0
M  V30 2966 H 294.164 2.98761 0.195453 0
M  V30 2967 H 291.71 1.43702 0.0925686 0
M  V30 2968 H 293.663 3.30739 2.61131 0
M  V30 2969 H 292.387 2.06749 2.52828 0
M  V30 2970 H 291.046 3.53286 0.978997 0
M  V30 2971 H 290.694 3.65862 3.45186 0
M  V30 2972 H 290.394 5.23265 2.67335 0
M  V30 2973 H 291.918 4.95771 3.56432 0
M  V30 2974 H 293.332 5.56549 1.37571 0
M  V30 2975 H 291.729 5.96114 0.690551 0
M  V30 2976 H 292.799 4.84574 -0.177782 0
M  V30 2977 N 294.142 -0.090211 1.57342 0
M  V30 2978 C 295.39 -0.791241 1.85967 0
M  V30 2979 C 295.711 -1.7903 0.772859 0
M  V30 2980 O 294.981 -1.94872 -0.200398 0
M  V30 2981 H 293.561 -0.295205 0.686195 0
M  V30 2982 H 296.223 -0.0706782 1.94772 0
M  V30 2983 H 295.319 -1.31882 2.82867 0
M  V30 2984 N 295.62 -1.53406 -0.361157 0
M  V30 2985 C 296.848 -1.73717 -1.12383 0
M  V30 2986 C 297.263 -0.468161 -1.82904 0
M  V30 2987 O 296.62 0.559198 -1.73722 0
M  V30 2988 C 296.671 -2.90558 -2.15078 0
M  V30 2989 O 296.392 -4.12549 -1.47428 0
M  V30 2990 C 297.893 -3.22777 -3.03858 0
M  V30 2991 H 295.113 -0.580896 -0.335858 0
M  V30 2992 H 297.657 -2.00167 -0.418728 0
M  V30 2993 H 295.812 -2.66489 -2.8118 0
M  V30 2994 H 296.226 -4.78009 -2.15887 0
M  V30 2995 H 297.7 -4.07927 -3.71887 0
M  V30 2996 H 298.177 -2.38329 -3.68912 0
M  V30 2997 H 298.783 -3.48787 -2.43367 0
M  V30 2998 N 297.098 0.621204 -1.44841 0
M  V30 2999 C 298.03 1.74615 -1.48466 0
M  V30 3000 C 299.043 1.58377 -0.37691 0
M  V30 3001 O 300.232 1.66508 -0.643215 0
M  V30 3002 C 297.332 3.12459 -1.31236 0
M  V30 3003 C 296.505 3.55064 -2.55438 0
M  V30 3004 C 295.564 4.71821 -2.32963 0
M  V30 3005 O 294.59 4.79628 -3.06505 0
M  V30 3006 N 295.792 5.64186 -1.36654 0
M  V30 3007 H 298.557 1.71973 -2.45449 0
M  V30 3008 H 296.118 0.806077 -1.40407 0
M  V30 3009 H 298.11 3.88302 -1.14032 0
M  V30 3010 H 296.68 3.09686 -0.4258 0
M  V30 3011 H 295.9 2.69324 -2.87851 0
M  V30 3012 H 297.188 3.80284 -3.38026 0
M  V30 3013 H 296.586 5.6058 -0.759344 0
M  V30 3014 H 295.143 6.39618 -1.25425 0
M  V30 3015 N 298.576 1.31904 0.862503 0
M  V30 3016 C 299.804 1.24998 1.64873 0
M  V30 3017 C 300.219 -0.183425 1.87907 0
M  V30 3018 O 299.576 -1.11794 1.44251 0
M  V30 3019 C 299.627 1.99829 3.01248 0
M  V30 3020 O 299.348 3.37575 2.79239 0
M  V30 3021 C 300.849 1.99852 3.95694 0
M  V30 3022 H 298.069 0.431599 0.513773 0
M  V30 3023 H 300.613 1.73901 1.07604 0
M  V30 3024 H 298.768 1.54668 3.55185 0
M  V30 3025 H 299.182 3.75776 3.65914 0
M  V30 3026 H 300.656 2.56709 4.88676 0
M  V30 3027 H 301.133 0.982852 4.28062 0
M  V30 3028 H 301.739 2.44926 3.47694 0
M  V30 3029 N 300.054 -1.07777 1.14986 0
M  V30 3030 C 301.284 -1.83752 0.944402 0
M  V30 3031 C 301.692 -1.8218 -0.51058 0
M  V30 3032 O 301.035 -1.22852 -1.36576 0
M  V30 3033 C 301.097 -3.32128 1.37592 0
M  V30 3034 C 300.761 -3.57425 2.84775 0
M  V30 3035 C 301.758 -3.5173 3.8286 0
M  V30 3036 C 299.443 -3.8523 3.2234 0
M  V30 3037 C 301.437 -3.73482 5.16517 0
M  V30 3038 C 299.124 -4.06634 4.56171 0
M  V30 3039 C 300.122 -4.00754 5.53069 0
M  V30 3040 O 299.81 -4.2159 6.84483 0
M  V30 3041 H 299.542 -0.58673 0.335744 0
M  V30 3042 H 302.096 -1.36982 1.53052 0
M  V30 3043 H 300.326 -3.79686 0.733165 0
M  V30 3044 H 302.015 -3.89555 1.14024 0
M  V30 3045 H 302.781 -3.30256 3.55184 0
M  V30 3046 H 298.66 -3.88923 2.47508 0
M  V30 3047 H 302.204 -3.68808 5.92137 0
M  V30 3048 H 298.101 -4.27593 4.83564 0
M  V30 3049 H 298.869 -4.38961 6.90837 0
M  V30 3050 N 301.532 -0.945985 -1.26051 0
M  V30 3051 C 302.76 -0.613025 -1.9761 0
M  V30 3052 C 303.175 0.813035 -1.70397 0
M  V30 3053 O 302.532 1.54274 -0.974979 0
M  V30 3054 C 302.583 -0.85159 -3.51326 0
M  V30 3055 O 302.304 -2.22157 -3.77595 0
M  V30 3056 C 303.805 -0.529831 -4.40122 0
M  V30 3057 H 301.025 -0.230593 -0.630133 0
M  V30 3058 H 303.569 -1.268 -1.60443 0
M  V30 3059 H 301.724 -0.243151 -3.86636 0
M  V30 3060 H 302.138 -2.2852 -4.721 0
M  V30 3061 H 303.612 -0.747348 -5.46917 0
M  V30 3062 H 304.089 0.535341 -4.35925 0
M  V30 3063 H 304.695 -1.11721 -4.10364 0
M  V30 3064 N 303.011 1.40521 -0.713556 0
M  V30 3065 C 304.251 2.02783 -0.256584 0
M  V30 3066 C 304.615 1.55352 1.12827 0
M  V30 3067 O 305.816 2.09663 1.68211 0
M  V30 3068 C 304.087 3.5586 -0.331414 0
M  V30 3069 S 305.646 4.38773 0.0488703 0
M  V30 3070 H 302.464 0.703655 -0.101934 0
M  V30 3071 H 305.066 1.71674 -0.935325 0
M  V30 3072 H 303.77 3.87874 -1.34098 0
M  V30 3073 H 303.301 3.91695 0.365873 0
M  V30 3074 H 305.316 4.79633 1.2715 0
M  V30 3075 N 304.489 0.459591 1.5075 0
M  V30 3076 C 305.437 -0.354678 2.2988 0
M  V30 3077 C 306.431 -1.00086 1.36672 0
M  V30 3078 O 307.637 -0.933277 1.53915 0
M  V30 3079 H 304.012 -0.13321 0.740107 0
M  V30 3080 H 305.983 0.333269 2.96533 0
M  V30 3081 C 304.732 -1.43073 3.169 0
M  V30 3082 H 304.055 -0.942882 3.88523 0
M  V30 3083 H 305.495 -1.97328 3.75284 0
M  V30 3084 C 303.954 -2.42633 2.33732 0
M  V30 3085 O 304.484 -3.47658 2.01238 0
M  V30 3086 N 302.69 -2.14066 1.9653 0
M  V30 3087 H 302.237 -1.28685 2.23155 0
M  V30 3088 H 302.195 -2.80917 1.41185 0
M  V30 3089 N 305.967 -1.56429 0.191757 0
M  V30 3090 C 307.213 -1.97777 -0.448554 0
M  V30 3091 C 307.546 -1.07847 -1.61501 0
M  V30 3092 O 306.821 -0.129774 -1.94067 0
M  V30 3093 C 307.104 -3.48362 -0.911906 0
M  V30 3094 C 306.957 -4.4907 0.256136 0
M  V30 3095 C 308.276 -4.02561 -1.77857 0
M  V30 3096 H 305.395 -0.719071 -0.161572 0
M  V30 3097 H 308.037 -1.87896 0.282007 0
M  V30 3098 H 306.187 -3.56914 -1.53442 0
M  V30 3099 H 307.859 -4.5256 0.893733 0
M  V30 3100 H 306.102 -4.24181 0.908436 0
M  V30 3101 H 306.773 -5.51889 -0.11053 0
M  V30 3102 H 309.249 -3.96767 -1.25359 0
M  V30 3103 H 308.125 -5.08301 -2.07174 0
M  V30 3104 H 308.386 -3.47616 -2.73158 0
M  V30 3105 N 307.445 0.0818655 -1.57387 0
M  V30 3106 C 308.722 0.815343 -1.77796 0
M  V30 3107 C 309.102 1.96289 -0.77679 0
M  V30 3108 O 308.45 2.27691 0.192106 0
M  V30 3109 C 308.66 1.29765 -3.23978 0
M  V30 3110 C 310.008 1.7351 -3.8753 0
M  V30 3111 O 311.032 1.39356 -3.27808 0
M  V30 3112 O 309.891 2.36708 -4.92576 0
M  V30 3113 H 306.985 0.389914 -0.729312 0
M  V30 3114 H 309.531 0.0627213 -1.69584 0
M  V30 3115 H 308.303 0.47608 -3.88393 0
M  V30 3116 H 307.926 2.11189 -3.36875 0
M  V30 3117 N 308.923 1.53595 0.353017 0
M  V30 3118 C 309.873 1.77299 1.43349 0
M  V30 3119 C 310.857 0.627884 1.48143 0
M  V30 3120 O 312.049 0.88697 1.53173 0
M  V30 3121 C 309.178 1.97757 2.80619 0
M  V30 3122 C 308.264 3.18305 2.80254 0
M  V30 3123 N 308.655 4.39967 2.49526 0
M  V30 3124 C 306.953 3.19283 3.11407 0
M  V30 3125 C 307.654 5.21772 2.57156 0
M  V30 3126 N 306.63 4.58269 2.92388 0
M  V30 3127 H 310.432 2.68963 1.18474 0
M  V30 3128 H 307.946 1.52391 0.561306 0
M  V30 3129 H 309.943 2.1287 3.58458 0
M  V30 3130 H 308.603 1.07329 3.06448 0
M  V30 3131 H 309.614 4.67482 2.22893 0
M  V30 3132 H 306.291 2.3879 3.4247 0
M  V30 3133 H 307.681 6.2885 2.36638 0
M  V30 3134 N 310.401 -0.613514 1.45168 0
M  V30 3135 C 311.348 -1.72456 1.53387 0
M  V30 3136 C 312.318 -1.6169 0.380191 0
M  V30 3137 O 313.503 -1.81356 0.592836 0
M  V30 3138 C 310.643 -3.10753 1.50088 0
M  V30 3139 C 309.756 -3.32368 2.75963 0
M  V30 3140 C 308.891 -4.60737 2.64376 0
M  V30 3141 C 307.93 -4.7559 3.85332 0
M  V30 3142 N 307.067 -5.95253 3.72315 0
M  V30 3143 H 311.907 -1.64768 2.48305 0
M  V30 3144 H 309.444 -0.803503 1.23216 0
M  V30 3145 H 311.402 -3.90758 1.46164 0
M  V30 3146 H 310.032 -3.17413 0.587243 0
M  V30 3147 H 309.084 -2.4618 2.89999 0
M  V30 3148 H 310.396 -3.39218 3.65695 0
M  V30 3149 H 309.55 -5.48928 2.58385 0
M  V30 3150 H 308.289 -4.56275 1.72233 0
M  V30 3151 H 307.294 -3.85824 3.91688 0
M  V30 3152 H 308.519 -4.81854 4.78533 0
M  V30 3153 H 306.465 -5.91847 2.82937 0
M  V30 3154 H 306.382 -6.03236 4.55677 0
M  V30 3155 H 307.65 -6.85958 3.70246 0
M  V30 3156 N 311.879 -1.3236 -0.855495 0
M  V30 3157 C 313.29 -1.2056 -1.42556 0
M  V30 3158 C 313.641 0.182209 -1.95352 0
M  V30 3159 O 312.766 1.08088 -1.87472 0
M  V30 3160 C 313.361 -2.1826 -2.59129 0
M  V30 3161 C 311.92 -2.10351 -3.12137 0
M  V30 3162 C 311.067 -2.06674 -1.84882 0
M  V30 3163 H 314.018 -1.442 -0.662727 0
M  V30 3164 H 314.039 -1.78064 -3.36264 0
M  V30 3165 H 313.551 -3.19257 -2.20673 0
M  V30 3166 H 311.652 -1.12599 -3.55179 0
M  V30 3167 H 311.765 -3.00135 -3.73438 0
M  V30 3168 H 310.129 -1.51901 -2.04446 0
M  V30 3169 H 310.912 -3.09451 -1.48643 0
M  V30 3170 N 313.357 1.07166 -1.15556 0
M  V30 3171 C 314.582 1.84053 -0.955988 0
M  V30 3172 C 315.007 1.81586 0.490739 0
M  V30 3173 O 314.365 1.21018 1.34997 0
M  V30 3174 C 314.413 3.28957 -1.47714 0
M  V30 3175 O 313.517 4.06795 -0.677593 0
M  V30 3176 H 312.858 0.569842 -0.340847 0
M  V30 3177 H 315.388 1.35178 -1.53584 0
M  V30 3178 H 315.398 3.79788 -1.4908 0
M  V30 3179 H 314.073 3.30068 -2.53037 0
M  V30 3180 H 312.65 3.6561 -0.733721 0
M  V30 3181 N 314.835 0.952656 1.25548 0
M  V30 3182 C 315.783 0.462354 2.27958 0
M  V30 3183 C 316.777 -0.46634 1.62855 0
M  V30 3184 O 317.983 -0.343287 1.76696 0
M  V30 3185 H 314.358 0.13101 0.7405 0
M  V30 3186 H 316.329 1.33839 2.66702 0
M  V30 3187 C 315.078 -0.24628 3.46827 0
M  V30 3188 H 314.401 0.459192 3.97154 0
M  V30 3189 H 315.841 -0.553393 4.20373 0
M  V30 3190 C 314.3 -1.4681 3.0323 0
M  V30 3191 O 314.83 -2.56591 3.09069 0
M  V30 3192 N 313.036 -1.32874 2.58443 0
M  V30 3193 H 312.583 -0.435536 2.53891 0
M  V30 3194 H 312.541 -2.14742 2.29637 0
M  V30 3195 N 316.313 -1.40141 0.720998 0
M  V30 3196 C 317.541 -2.05096 0.272656 0
M  V30 3197 C 317.956 -1.54334 -1.0875 0
M  V30 3198 O 317.313 -0.702211 -1.6845 0
M  V30 3199 C 317.364 -3.60636 0.249835 0
M  V30 3200 O 317.085 -4.09526 1.55629 0
M  V30 3201 C 318.586 -4.42772 -0.216396 0
M  V30 3202 H 315.806 -0.659897 0.121558 0
M  V30 3203 H 318.35 -1.79449 0.980723 0
M  V30 3204 H 316.505 -3.85232 -0.409237 0
M  V30 3205 H 316.919 -5.03758 1.4604 0
M  V30 3206 H 318.393 -5.51702 -0.181212 0
M  V30 3207 H 318.87 -4.20756 -1.25941 0
M  V30 3208 H 319.476 -4.23294 0.412596 0
M  V30 3209 N 317.792 -0.46758 -1.50504 0
M  V30 3210 C 318.739 0.328413 -2.28452 0
M  V30 3211 C 319.709 0.990313 -1.33349 0
M  V30 3212 O 320.894 1.00343 -1.62284 0
M  V30 3213 C 318.034 1.40648 -3.15138 0
M  V30 3214 C 317.147 0.759709 -4.25267 0
M  V30 3215 C 316.282 1.81537 -4.99217 0
M  V30 3216 C 315.321 1.14866 -6.01226 0
M  V30 3217 N 314.458 2.14702 -6.68467 0
M  V30 3218 H 319.298 -0.342603 -2.96024 0
M  V30 3219 H 316.835 -0.180801 -1.45985 0
M  V30 3220 H 318.793 2.04315 -3.63746 0
M  V30 3221 H 317.423 2.04671 -2.49619 0
M  V30 3222 H 316.475 0.0105671 -3.80399 0
M  V30 3223 H 317.787 0.233243 -4.98254 0
M  V30 3224 H 316.941 2.52793 -5.51526 0
M  V30 3225 H 315.68 2.37564 -4.25928 0
M  V30 3226 H 314.685 0.42171 -5.4818 0
M  V30 3227 H 315.91 0.595334 -6.76485 0
M  V30 3228 H 313.856 2.69752 -5.97972 0
M  V30 3229 H 313.773 1.6703 -7.37317 0
M  V30 3230 H 315.041 2.85348 -7.25394 0
M  V30 3231 N 319.27 1.56325 -0.20005 0
M  V30 3232 C 320.516 1.98012 0.438059 0
M  V30 3233 C 320.849 1.08702 1.60927 0
M  V30 3234 O 320.124 0.140064 1.93995 0
M  V30 3235 C 320.407 3.48841 0.893419 0
M  V30 3236 C 320.26 4.48928 -0.279947 0
M  V30 3237 C 321.579 4.03498 1.75719 0
M  V30 3238 H 318.698 0.719918 0.157757 0
M  V30 3239 H 321.34 1.87743 -0.291968 0
M  V30 3240 H 319.49 3.57723 1.51547 0
M  V30 3241 H 321.162 4.52079 -0.91772 0
M  V30 3242 H 319.405 4.23694 -0.930919 0
M  V30 3243 H 320.076 5.5194 0.0812601 0
M  V30 3244 H 322.552 3.97427 1.23253 0
M  V30 3245 H 321.428 5.09393 2.04476 0
M  V30 3246 H 321.689 3.4906 2.71311 0
M  V30 3247 N 320.748 -0.0735177 1.57428 0
M  V30 3248 C 322.025 -0.805903 1.78226 0
M  V30 3249 C 322.405 -1.95874 0.787189 0
M  V30 3250 O 321.753 -2.2779 -0.180029 0
M  V30 3251 C 321.963 -1.28045 3.24662 0
M  V30 3252 C 323.311 -1.71453 3.88444 0
M  V30 3253 O 324.335 -1.37616 3.28543 0
M  V30 3254 O 323.194 -2.34093 4.93825 0
M  V30 3255 H 320.288 -0.386041 0.73137 0
M  V30 3256 H 322.834 -0.0537269 1.69615 0
M  V30 3257 H 321.606 -0.455476 3.8864 0
M  V30 3258 H 321.229 -2.094 3.37991 0
M  V30 3259 N 322.226 -1.5378 -0.344866 0
M  V30 3260 C 323.173 -1.81676 -1.42346 0
M  V30 3261 C 324.143 -0.662376 -1.52321 0
M  V30 3262 O 325.328 -0.906675 -1.67881 0
M  V30 3263 C 322.468 -2.03087 -2.79015 0
M  V30 3264 C 321.581 -3.30799 -2.77842 0
M  V30 3265 C 320.716 -3.42285 -4.0622 0
M  V30 3266 C 319.755 -4.6395 -3.9927 0
M  V30 3267 N 318.892 -4.72477 -5.19336 0
M  V30 3268 H 323.732 -2.73703 -1.17858 0
M  V30 3269 H 321.269 -1.35568 -0.570949 0
M  V30 3270 H 323.227 -2.1349 -3.58438 0
M  V30 3271 H 321.857 -1.14375 -3.01858 0
M  V30 3272 H 320.909 -3.29244 -1.90533 0
M  V30 3273 H 322.221 -4.20314 -2.68584 0
M  V30 3274 H 321.375 -3.52113 -4.94066 0
M  V30 3275 H 320.114 -2.50823 -4.18258 0
M  V30 3276 H 319.119 -4.54201 -3.09809 0
M  V30 3277 H 320.344 -5.56775 -3.88817 0
M  V30 3278 H 318.29 -3.83924 -5.3192 0
M  V30 3279 H 318.207 -5.55927 -5.12329 0
M  V30 3280 H 319.475 -4.86613 -6.08957 0
M  V30 3281 N 323.704 0.605807 -1.45491 0
M  V30 3282 C 325.12 0.926751 -1.29936 0
M  V30 3283 C 325.32 1.99896 -0.253706 0
M  V30 3284 O 324.376 2.50038 0.351737 0
M  V30 3285 C 325.689 1.36599 -2.67883 0
M  V30 3286 C 327.237 1.4801 -2.75793 0
M  V30 3287 C 327.712 1.95309 -4.14268 0
M  V30 3288 N 329.203 2.0254 -4.16571 0
M  V30 3289 C 329.938 2.40363 -5.20589 0
M  V30 3290 N 329.434 2.77143 -6.34952 0
M  V30 3291 N 331.227 2.40718 -5.07948 0
M  V30 3292 H 323.378 -0.102862 -2.12151 0
M  V30 3293 H 325.641 0.016639 -0.947854 0
M  V30 3294 H 325.347 0.652306 -3.45598 0
M  V30 3295 H 325.221 2.33215 -2.96463 0
M  V30 3296 H 327.608 2.1847 -1.98381 0
M  V30 3297 H 327.689 0.497041 -2.50925 0
M  V30 3298 H 327.333 1.25436 -4.92167 0
M  V30 3299 H 327.263 2.94532 -4.3653 0
M  V30 3300 H 329.754 1.76699 -3.34045 0
M  V30 3301 H 330.067 3.0489 -7.10114 0
M  V30 3302 H 328.412 2.74834 -6.3835 0
M  V30 3303 H 331.603 2.11392 -4.1765 0
M  V30 3304 H 331.776 2.69869 -5.89131 0
M  V30 3305 N 325.182 1.32811 0.848464 0
M  V30 3306 C 326.428 1.23907 1.60546 0
M  V30 3307 C 326.761 -0.197161 1.93197 0
M  V30 3308 O 326.036 -1.13596 1.5788 0
M  V30 3309 C 326.319 2.10489 2.92175 0
M  V30 3310 C 326.172 3.62522 2.66266 0
M  V30 3311 C 327.491 1.97075 3.93509 0
M  V30 3312 H 324.61 0.451459 0.58254 0
M  V30 3313 H 327.252 1.62818 0.979296 0
M  V30 3314 H 325.402 1.77434 3.45614 0
M  V30 3315 H 327.074 4.05821 2.19334 0
M  V30 3316 H 325.317 3.84879 2.00126 0
M  V30 3317 H 325.988 4.18437 3.6002 0
M  V30 3318 H 328.464 2.26045 3.49346 0
M  V30 3319 H 327.34 2.59923 4.83457 0
M  V30 3320 H 327.601 0.940186 4.31987 0
M  V30 3321 N 326.66 -1.06551 1.16123 0
M  V30 3322 C 327.57 -2.17484 0.879662 0
M  V30 3323 C 328.586 -1.73377 -0.147104 0
M  V30 3324 O 329.762 -2.01379 0.0289128 0
M  V30 3325 C 326.827 -3.44591 0.381829 0
M  V30 3326 C 325.888 -4.0322 1.4735 0
M  V30 3327 C 325.121 -5.24261 0.999324 0
M  V30 3328 O 325.344 -5.70198 -0.151957 0
M  V30 3329 O 324.278 -5.74775 1.78653 0
M  V30 3330 H 328.104 -2.44075 1.80724 0
M  V30 3331 H 325.689 -1.16042 0.940992 0
M  V30 3332 H 327.571 -4.21254 0.111053 0
M  V30 3333 H 326.246 -3.19532 -0.51777 0
M  V30 3334 H 325.153 -3.2806 1.79798 0
M  V30 3335 H 326.486 -4.32568 2.34831 0
M  V30 3336 N 328.138 -0.959301 -1.25041 0
M  V30 3337 C 329.363 -0.633507 -1.97488 0
M  V30 3338 C 329.788 0.788555 -1.70773 0
M  V30 3339 O 329.146 1.53394 -0.966431 0
M  V30 3340 C 329.194 -0.904057 -3.49083 0
M  V30 3341 O 328.298 0.0147939 -4.12397 0
M  V30 3342 H 327.639 -0.240368 -0.618966 0
M  V30 3343 H 330.169 -1.28717 -1.59038 0
M  V30 3344 H 330.179 -0.832203 -3.99423 0
M  V30 3345 H 328.854 -1.94048 -3.67856 0
M  V30 3346 H 327.431 -0.109664 -3.72739 0
M  V30 3347 N 329.616 1.39756 -0.72842 0
M  V30 3348 C 330.563 2.30647 -0.0841519 0
M  V30 3349 C 331.533 1.48869 0.7367 0
M  V30 3350 O 332.718 1.77574 0.698015 0
M  V30 3351 C 329.858 3.35165 0.822091 0
M  V30 3352 C 328.971 4.31999 -0.0106663 0
M  V30 3353 C 328.106 5.23585 0.896241 0
M  V30 3354 C 327.145 6.12072 0.0583381 0
M  V30 3355 N 326.282 6.96035 0.920818 0
M  V30 3356 H 331.122 2.85173 -0.864891 0
M  V30 3357 H 328.659 1.40422 -0.438179 0
M  V30 3358 H 330.617 3.94345 1.36189 0
M  V30 3359 H 329.247 2.8211 1.56888 0
M  V30 3360 H 328.299 3.74492 -0.66781 0
M  V30 3361 H 329.611 4.9443 -0.658825 0
M  V30 3362 H 328.765 5.87759 1.50412 0
M  V30 3363 H 327.504 4.61459 1.57819 0
M  V30 3364 H 326.509 5.46916 -0.562389 0
M  V30 3365 H 327.734 6.76261 -0.6203 0
M  V30 3366 H 325.68 6.36485 1.58818 0
M  V30 3367 H 325.597 7.55284 0.32899 0
M  V30 3368 H 326.865 7.64646 1.51447 0
M  V30 3369 N 331.094 0.475555 1.50254 0
M  V30 3370 C 332.324 -0.0753399 2.06463 0
M  V30 3371 C 332.732 -1.33661 1.33908 0
M  V30 3372 O 332.075 -1.79219 0.403257 0
M  V30 3373 C 332.137 -0.424921 3.5698 0
M  V30 3374 C 331.801 0.734965 4.51051 0
M  V30 3375 C 332.798 1.61827 4.94073 0
M  V30 3376 C 330.483 0.926557 4.9368 0
M  V30 3377 C 332.477 2.67754 5.78434 0
M  V30 3378 C 330.164 1.98904 5.77824 0
M  V30 3379 C 331.162 2.8629 6.20103 0
M  V30 3380 O 330.85 3.90708 7.02568 0
M  V30 3381 H 330.582 0.00576308 0.675975 0
M  V30 3382 H 333.136 0.664662 1.94349 0
M  V30 3383 H 331.366 -1.21817 3.67012 0
M  V30 3384 H 333.055 -0.911422 3.95535 0
M  V30 3385 H 333.821 1.48196 4.61804 0
M  V30 3386 H 329.7 0.25584 4.6029 0
M  V30 3387 H 333.244 3.35992 6.11355 0
M  V30 3388 H 329.141 2.12541 6.09505 0
M  V30 3389 H 329.909 3.87751 7.20827 0
M  V30 3390 N 332.573 -1.56217 0.208337 0
M  V30 3391 C 333.821 -1.97558 -0.426076 0
M  V30 3392 C 334.142 -1.09683 -1.61229 0
M  V30 3393 O 333.412 -0.170956 -1.95153 0
M  V30 3394 H 331.992 -0.729575 -0.160405 0
M  V30 3395 H 334.654 -1.92606 0.298155 0
M  V30 3396 H 333.75 -3.02672 -0.761312 0
M  V30 3397 N 334.051 0.0651679 -1.57465 0
M  V30 3398 C 335.462 0.616213 -1.76238 0
M  V30 3399 C 335.813 1.7756 -0.834689 0
M  V30 3400 O 334.938 2.1639 -0.0204156 0
M  V30 3401 C 335.533 1.12462 -3.1959 0
M  V30 3402 C 334.092 1.62147 -3.39684 0
M  V30 3403 C 333.239 0.543739 -2.71917 0
M  V30 3404 H 336.19 -0.161022 -1.57881 0
M  V30 3405 H 336.211 1.99324 -3.24114 0
M  V30 3406 H 335.723 0.280592 -3.87084 0
M  V30 3407 H 333.824 2.48854 -2.77313 0
M  V30 3408 H 333.937 1.69385 -4.48158 0
M  V30 3409 H 332.301 0.990352 -2.34657 0
M  V30 3410 H 333.084 -0.290216 -3.42071 0
M  V30 3411 N 335.529 1.53961 0.336706 0
M  V30 3412 C 336.94 1.62914 0.911925 0
M  V30 3413 C 337.291 0.514795 1.89326 0
M  V30 3414 O 336.416 -0.354395 2.13478 0
M  V30 3415 C 337.011 2.95304 1.66076 0
M  V30 3416 C 335.57 3.06496 2.18489 0
M  V30 3417 C 334.717 2.58403 1.00613 0
M  V30 3418 H 337.668 1.58285 0.114649 0
M  V30 3419 H 337.689 2.84727 2.5241 0
M  V30 3420 H 337.201 3.76387 0.946276 0
M  V30 3421 H 335.302 2.3006 2.93092 0
M  V30 3422 H 335.415 4.1208 2.44391 0
M  V30 3423 H 333.779 2.13977 1.38152 0
M  V30 3424 H 334.562 3.41932 0.306179 0
M  V30 3425 N 337.007 -0.598083 1.45811 0
M  V30 3426 C 338.247 -1.36802 1.5187 0
M  V30 3427 C 338.611 -1.9133 0.160224 0
M  V30 3428 O 339.812 -2.6863 0.0955302 0
M  V30 3429 C 338.083 -2.47835 2.57513 0
M  V30 3430 S 339.642 -3.35458 2.82866 0
M  V30 3431 H 336.46 -0.466278 0.536755 0
M  V30 3432 H 339.062 -0.689152 1.82951 0
M  V30 3433 H 337.766 -2.06141 3.54872 0
M  V30 3434 H 337.297 -3.20512 2.28114 0
M  V30 3435 H 339.312 -4.46251 2.16967 0
M  V30 3436 N 338.485 -1.33259 -0.841409 0
M  V30 3437 C 339.896 -1.22066 -1.41269 0
M  V30 3438 C 340.247 0.161479 -1.95534 0
M  V30 3439 O 339.372 1.06094 -1.88608 0
M  V30 3440 C 339.967 -2.20996 -2.568 0
M  V30 3441 C 338.526 -2.13649 -3.09888 0
M  V30 3442 C 337.673 -2.08623 -1.82679 0
M  V30 3443 H 340.624 -1.44895 -0.647395 0
M  V30 3444 H 340.645 -1.81621 -3.34356 0
M  V30 3445 H 340.157 -3.2158 -2.17274 0
M  V30 3446 H 338.258 -1.16359 -3.53965 0
M  V30 3447 H 338.371 -3.04079 -3.70234 0
M  V30 3448 H 336.735 -1.54061 -2.02824 0
M  V30 3449 H 337.518 -3.1101 -1.45353 0
M  V30 3450 N 339.963 1.05934 -1.16686 0
M  V30 3451 C 341.374 1.60263 -0.957745 0
M  V30 3452 C 341.725 1.89789 0.49745 0
M  V30 3453 O 340.85 1.67401 1.37135 0
M  V30 3454 C 341.445 2.91172 -1.73218 0
M  V30 3455 C 340.004 3.42188 -1.56794 0
M  V30 3456 C 339.151 2.16028 -1.73859 0
M  V30 3457 H 342.102 0.888392 -1.31504 0
M  V30 3458 H 342.123 3.60744 -1.21014 0
M  V30 3459 H 341.635 2.6965 -2.79124 0
M  V30 3460 H 339.736 3.68762 -0.533437 0
M  V30 3461 H 339.849 4.17273 -2.35414 0
M  V30 3462 H 338.213 2.26426 -1.16633 0
M  V30 3463 H 338.996 1.96985 -2.81161 0
M  V30 3464 N 341.441 0.965919 1.2453 0
M  V30 3465 C 342.681 0.634656 1.94297 0
M  V30 3466 C 343.045 -0.814822 1.73852 0
M  V30 3467 O 344.246 -1.25622 2.3764 0
M  V30 3468 C 342.517 0.99702 3.43212 0
M  V30 3469 S 344.076 0.780038 4.31811 0
M  V30 3470 H 340.894 0.232893 0.671775 0
M  V30 3471 H 343.496 1.24249 1.50938 0
M  V30 3472 H 342.2 2.04886 3.55598 0
M  V30 3473 H 341.731 0.379888 3.91562 0
M  V30 3474 H 343.746 -0.343512 4.9501 0
M  V30 3475 N 342.919 -1.39368 0.735821 0
M  V30 3476 C 344.33 -1.83313 0.354015 0
M  V30 3477 C 344.681 -1.61461 -1.11466 0
M  V30 3478 O 343.806 -1.10621 -1.85989 0
M  V30 3479 C 344.401 -3.32781 0.635769 0
M  V30 3480 C 342.96 -3.75142 0.307448 0
M  V30 3481 C 342.107 -2.62358 0.897974 0
M  V30 3482 H 345.058 -1.28349 0.933398 0
M  V30 3483 H 345.079 -3.80388 -0.0921773 0
M  V30 3484 H 344.591 -3.48654 1.70476 0
M  V30 3485 H 342.692 -3.64857 -0.755674 0
M  V30 3486 H 342.805 -4.72532 0.790583 0
M  V30 3487 H 341.169 -2.52624 0.324551 0
M  V30 3488 H 341.952 -2.81036 1.97164 0
M  V30 3489 N 344.397 -0.483516 -1.5 0
M  V30 3490 C 345.36 0.292965 -2.2732 0
M  V30 3491 C 346.36 0.909499 -1.32608 0
M  V30 3492 O 347.55 0.776745 -1.55924 0
M  V30 3493 C 344.682 1.41854 -3.09984 0
M  V30 3494 H 345.875 -0.385289 -2.97415 0
M  V30 3495 H 343.428 -0.237942 -1.54478 0
M  V30 3496 H 344.163 2.13148 -2.44414 0
M  V30 3497 H 343.948 0.982114 -3.79601 0
M  V30 3498 H 345.438 1.96597 -3.68429 0
M  V30 3499 N 345.875 1.56104 -0.216619 0
M  V30 3500 C 347.286 1.844 0.292128 0
M  V30 3501 C 347.637 1.13788 1.59833 0
M  V30 3502 O 346.762 0.405888 2.12559 0
M  V30 3503 C 347.357 3.3452 0.53681 0
M  V30 3504 C 345.916 3.63151 0.989876 0
M  V30 3505 C 345.063 2.77255 0.0502302 0
M  V30 3506 H 348.014 1.52481 -0.439926 0
M  V30 3507 H 348.035 3.54459 1.38345 0
M  V30 3508 H 347.547 3.85885 -0.414031 0
M  V30 3509 H 345.648 3.17238 1.95425 0
M  V30 3510 H 345.761 4.71177 0.867698 0
M  V30 3511 H 344.125 2.48555 0.556117 0
M  V30 3512 H 344.908 3.31416 -0.89544 0
M  V30 3513 N 347.353 -0.0568162 1.57498 0
M  V30 3514 C 348.263 -1.08346 2.08083 0
M  V30 3515 C 349.279 -1.41439 1.01346 0
M  V30 3516 O 350.455 -1.51316 1.32912 0
M  V30 3517 C 347.52 -2.37352 2.52715 0
M  V30 3518 C 346.581 -2.11093 3.73816 0
M  V30 3519 C 345.814 -3.33949 4.1631 0
M  V30 3520 O 346.037 -4.43622 3.58547 0
M  V30 3521 O 344.971 -3.21279 5.08983 0
M  V30 3522 H 348.797 -0.683667 2.95905 0
M  V30 3523 H 346.382 -0.271965 1.46904 0
M  V30 3524 H 348.264 -3.13246 2.81877 0
M  V30 3525 H 346.939 -2.76681 1.68016 0
M  V30 3526 H 345.846 -1.32856 3.49714 0
M  V30 3527 H 347.179 -1.76637 4.59413 0
M  V30 3528 N 348.832 -1.54138 -0.328536 0
M  V30 3529 C 350.079 -1.72105 -1.06706 0
M  V30 3530 C 350.407 -0.492111 -1.88171 0
M  V30 3531 O 349.662 0.526153 -1.88494 0
M  V30 3532 C 349.961 -2.9457 -2.02393 0
M  V30 3533 C 349.627 -4.29544 -1.37122 0
M  V30 3534 C 348.289 -4.6624 -1.19052 0
M  V30 3535 C 350.641 -5.1333 -0.902331 0
M  V30 3536 C 347.969 -5.84325 -0.527331 0
M  V30 3537 C 350.321 -6.32094 -0.252988 0
M  V30 3538 C 348.985 -6.67473 -0.0600901 0
M  V30 3539 H 348.255 -0.629775 -0.390466 0
M  V30 3540 H 350.902 -1.88372 -0.34473 0
M  V30 3541 H 349.207 -2.72969 -2.81061 0
M  V30 3542 H 350.904 -3.05665 -2.59557 0
M  V30 3543 H 347.494 -4.0067 -1.52188 0
M  V30 3544 H 351.678 -4.855 -1.02974 0
M  V30 3545 H 346.934 -6.103 -0.366634 0
M  V30 3546 H 351.108 -6.96299 0.118366 0
M  V30 3547 H 348.735 -7.58832 0.455828 0
M  V30 3548 N 350.31 0.590341 -1.46126 0
M  V30 3549 C 351.24 1.71032 -1.58966 0
M  V30 3550 C 352.221 1.64302 -0.440335 0
M  V30 3551 O 353.406 1.82436 -0.665634 0
M  V30 3552 C 350.536 3.09665 -1.57241 0
M  V30 3553 C 349.49 3.31221 -2.71066 0
M  V30 3554 C 348.816 4.70303 -2.54399 0
M  V30 3555 C 350.116 3.19796 -4.1295 0
M  V30 3556 H 351.81 1.60543 -2.52718 0
M  V30 3557 H 349.356 0.770933 -1.21625 0
M  V30 3558 H 351.309 3.87831 -1.64819 0
M  V30 3559 H 350.033 3.21036 -0.600289 0
M  V30 3560 H 348.692 2.55452 -2.62944 0
M  V30 3561 H 348.34 4.78429 -1.55288 0
M  V30 3562 H 348.04 4.85679 -3.30741 0
M  V30 3563 H 349.564 5.50647 -2.63857 0
M  V30 3564 H 350.978 3.87815 -4.22223 0
M  V30 3565 H 349.375 3.46696 -4.89818 0
M  V30 3566 H 350.445 2.16983 -4.33643 0
M  V30 3567 N 351.788 1.33704 0.83433 0
M  V30 3568 C 353.036 1.25169 1.58673 0
M  V30 3569 C 353.357 -0.18127 1.94156 0
M  V30 3570 O 352.627 -1.11113 1.6134 0
M  V30 3571 H 351.207 0.4603 0.58833 0
M  V30 3572 H 353.869 1.67478 0.996847 0
M  V30 3573 H 352.965 1.84856 2.51465 0
M  V30 3574 N 353.266 -1.05314 1.17247 0
M  V30 3575 C 354.514 -1.77941 0.958194 0
M  V30 3576 C 354.835 -1.88089 -0.514556 0
M  V30 3577 O 354.105 -1.39676 -1.37359 0
M  V30 3578 H 352.685 -0.659116 0.351533 0
M  V30 3579 H 355.347 -1.27166 1.47699 0
M  V30 3580 H 354.443 -2.79663 1.38546 0
M  V30 3581 N 354.744 -0.972509 -1.24016 0
M  V30 3582 C 356.155 -0.67517 -1.74064 0
M  V30 3583 C 356.506 0.808939 -1.78747 0
M  V30 3584 O 355.631 1.63286 -1.42009 0
M  V30 3585 C 356.226 -1.21889 -3.16115 0
M  V30 3586 C 354.785 -0.971358 -3.6365 0
M  V30 3587 C 353.932 -1.35134 -2.42145 0
M  V30 3588 H 356.883 -1.14727 -1.09651 0
M  V30 3589 H 356.904 -0.587489 -3.75937 0
M  V30 3590 H 356.416 -2.29906 -3.12674 0
M  V30 3591 H 354.517 0.0930686 -3.72484 0
M  V30 3592 H 354.63 -1.62039 -4.50866 0
M  V30 3593 H 352.994 -0.769751 -2.4279 0
M  V30 3594 H 353.777 -2.4411 -2.41381 0
M  V30 3595 N 356.222 1.38976 -0.743202 0
M  V30 3596 C 357.447 2.05161 -0.303936 0
M  V30 3597 C 357.872 1.55677 1.05576 0
M  V30 3598 O 357.23 0.704131 1.67068 0
M  V30 3599 C 357.278 3.59138 -0.324373 0
M  V30 3600 O 356.382 4.06668 0.685204 0
M  V30 3601 H 355.723 0.649815 -0.136518 0
M  V30 3602 H 358.253 1.77852 -1.01142 0
M  V30 3603 H 358.263 4.07639 -0.171618 0
M  V30 3604 H 356.938 3.94515 -1.31647 0
M  V30 3605 H 355.515 3.69561 0.497913 0
M  V30 3606 N 357.7 0.491464 1.49741 0
M  V30 3607 C 358.946 -0.0565092 2.02721 0
M  V30 3608 C 359.279 -1.37522 1.37118 0
M  V30 3609 O 358.554 -1.87866 0.503645 0
M  V30 3610 C 358.837 -0.219051 3.59433 0
M  V30 3611 C 358.69 1.12211 4.35579 0
M  V30 3612 C 360.009 -0.964157 4.29409 0
M  V30 3613 H 357.128 -0.0190627 0.736753 0
M  V30 3614 H 359.77 0.641021 1.7886 0
M  V30 3615 H 357.92 -0.813165 3.79895 0
M  V30 3616 H 359.592 1.75437 4.26637 0
M  V30 3617 H 357.835 1.71377 3.98513 0
M  V30 3618 H 358.506 0.961794 5.43556 0
M  V30 3619 H 360.982 -0.460378 4.13545 0
M  V30 3620 H 359.858 -1.04671 5.38828 0
M  V30 3621 H 360.119 -2.00563 3.93988 0
M  V30 3622 N 359.178 -1.55987 0.224894 0
M  V30 3623 C 360.425 -1.9839 -0.4059 0
M  V30 3624 C 360.753 -1.11261 -1.59535 0
M  V30 3625 O 360.008 -0.158314 -1.95059 0
M  V30 3626 C 360.307 -3.46394 -0.880106 0
M  V30 3627 C 359.973 -4.5046 0.19918 0
M  V30 3628 C 358.635 -4.7864 0.495661 0
M  V30 3629 C 360.987 -5.12855 0.928939 0
M  V30 3630 C 358.315 -5.66497 1.52636 0
M  V30 3631 C 360.667 -6.01828 1.949 0
M  V30 3632 C 359.331 -6.28351 2.25236 0
M  V30 3633 H 358.601 -0.725961 -0.148529 0
M  V30 3634 H 361.248 -1.88668 0.328113 0
M  V30 3635 H 359.553 -3.53337 -1.69294 0
M  V30 3636 H 361.25 -3.76577 -1.37808 0
M  V30 3637 H 357.84 -4.28579 -0.0420526 0
M  V30 3638 H 362.024 -4.9115 0.713129 0
M  V30 3639 H 357.28 -5.8531 1.76698 0
M  V30 3640 H 361.454 -6.49225 2.51951 0
M  V30 3641 H 359.081 -6.96226 3.05244 0
M  V30 3642 N 360.656 0.0484629 -1.57525 0
M  V30 3643 C 361.586 1.0549 -2.08313 0
M  V30 3644 C 362.567 1.38929 -0.981463 0
M  V30 3645 O 363.752 1.48151 -1.25558 0
M  V30 3646 C 360.882 2.36162 -2.54646 0
M  V30 3647 C 359.836 2.17016 -3.68901 0
M  V30 3648 C 359.162 3.53278 -4.01371 0
M  V30 3649 C 360.462 1.57219 -4.98076 0
M  V30 3650 H 362.156 0.632195 -2.92649 0
M  V30 3651 H 359.702 0.302654 -1.40784 0
M  V30 3652 H 361.655 3.06882 -2.88793 0
M  V30 3653 H 360.379 2.80456 -1.67368 0
M  V30 3654 H 359.038 1.48733 -3.35073 0
M  V30 3655 H 358.686 3.95185 -3.11188 0
M  V30 3656 H 358.386 3.41299 -4.78318 0
M  V30 3657 H 359.91 4.25391 -4.38035 0
M  V30 3658 H 361.324 2.17832 -5.30304 0
M  V30 3659 H 359.721 1.55871 -5.79503 0
M  V30 3660 H 360.791 0.535956 -4.81929 0
M  V30 3661 N 362.134 1.5431 0.320358 0
M  V30 3662 C 363.381 1.72668 1.05792 0
M  V30 3663 C 363.709 0.502084 1.87908 0
M  V30 3664 O 362.964 -0.516149 1.88771 0
M  V30 3665 C 363.263 2.95639 2.00828 0
M  V30 3666 C 362.929 4.30265 1.34843 0
M  V30 3667 C 361.591 4.66865 1.16578 0
M  V30 3668 C 363.943 5.13801 0.875095 0
M  V30 3669 C 361.271 5.84597 0.496336 0
M  V30 3670 C 363.623 6.32219 0.219463 0
M  V30 3671 C 362.287 6.67495 0.0246915 0
M  V30 3672 H 361.557 0.631837 0.387121 0
M  V30 3673 H 364.204 1.88552 0.334735 0
M  V30 3674 H 362.509 2.74456 2.79609 0
M  V30 3675 H 364.206 3.07038 2.57932 0
M  V30 3676 H 360.796 4.01472 1.50061 0
M  V30 3677 H 364.98 4.86039 1.00398 0
M  V30 3678 H 360.236 6.10486 0.334264 0
M  V30 3679 H 364.41 6.96227 -0.155291 0
M  V30 3680 H 362.037 7.5858 -0.496065 0
M  V30 3681 N 363.613 -0.582584 1.46437 0
M  V30 3682 C 365.024 -1.1647 1.45916 0
M  V30 3683 C 365.375 -1.95177 0.200077 0
M  V30 3684 O 364.5 -2.04874 -0.696819 0
M  V30 3685 C 365.095 -2.11885 2.64367 0
M  V30 3686 C 363.654 -2.65421 2.66887 0
M  V30 3687 C 362.801 -1.41294 2.38603 0
M  V30 3688 H 365.752 -0.370514 1.54314 0
M  V30 3689 H 365.773 -2.9535 2.39892 0
M  V30 3690 H 365.285 -1.54573 3.5599 0
M  V30 3691 H 363.386 -3.26602 1.79338 0
M  V30 3692 H 363.499 -3.08147 3.66854 0
M  V30 3693 H 361.863 -1.71109 1.88663 0
M  V30 3694 H 362.646 -0.858125 3.32402 0
M  V30 3695 N 365.091 -1.34144 -0.827227 0
M  V30 3696 C 366.502 -1.23557 -1.39966 0
M  V30 3697 C 366.853 0.140731 -1.95695 0
M  V30 3698 O 365.978 1.04087 -1.89723 0
M  V30 3699 C 366.573 -2.23708 -2.54441 0
M  V30 3700 C 365.132 -2.16924 -3.07605 0
M  V30 3701 C 364.279 -2.10549 -1.80456 0
M  V30 3702 H 367.23 -1.45573 -0.631991 0
M  V30 3703 H 367.251 -1.85157 -3.32411 0
M  V30 3704 H 366.763 -3.23866 -2.13851 0
M  V30 3705 H 364.864 -1.20107 -3.52711 0
M  V30 3706 H 364.977 -3.07988 -3.66988 0
M  V30 3707 H 363.341 -1.56203 -2.01178 0
M  V30 3708 H 364.124 -3.12535 -1.42046 0
M  V30 3709 N 366.569 1.04691 -1.17803 0
M  V30 3710 C 367.516 2.12557 -0.899343 0
M  V30 3711 C 368.486 1.65339 0.158771 0
M  V30 3712 O 369.671 1.90789 0.0204797 0
M  V30 3713 C 366.811 3.42481 -0.424315 0
M  V30 3714 C 365.924 4.03346 -1.54713 0
M  V30 3715 C 365.059 5.21208 -1.02546 0
M  V30 3716 C 364.098 5.74089 -2.12339 0
M  V30 3717 N 363.235 6.83247 -1.61612 0
M  V30 3718 H 368.075 2.35734 -1.823 0
M  V30 3719 H 365.612 1.1564 -0.909159 0
M  V30 3720 H 367.57 4.16996 -0.130421 0
M  V30 3721 H 366.2 3.19471 0.462377 0
M  V30 3722 H 365.252 3.2622 -1.95664 0
M  V30 3723 H 366.564 4.38628 -2.37501 0
M  V30 3724 H 365.718 6.02812 -0.685718 0
M  V30 3725 H 364.457 4.87414 -0.167084 0
M  V30 3726 H 363.462 4.91111 -2.47165 0
M  V30 3727 H 364.687 6.0993 -2.98601 0
M  V30 3728 H 362.633 6.5134 -0.780533 0
M  V30 3729 H 362.55 7.17559 -2.38003 0
M  V30 3730 H 363.818 7.68491 -1.30545 0
M  V30 3731 N 368.047 0.979072 1.23499 0
M  V30 3732 C 369.458 0.684391 1.73704 0
M  V30 3733 C 369.809 -0.799448 1.79174 0
M  V30 3734 O 368.934 -1.62531 1.42873 0
M  V30 3735 C 369.529 1.23564 3.15464 0
M  V30 3736 C 368.088 0.99063 3.6313 0
M  V30 3737 C 367.235 1.36416 2.41425 0
M  V30 3738 H 370.186 1.15307 1.09041 0
M  V30 3739 H 370.207 0.607417 3.7562 0
M  V30 3740 H 369.719 2.31561 3.1145 0
M  V30 3741 H 367.82 -0.0733136 3.72528 0
M  V30 3742 H 367.933 1.64427 4.5 0
M  V30 3743 H 366.297 0.782616 2.42378 0
M  V30 3744 H 367.08 2.45387 2.40083 0
M  V30 3745 N 369.525 -1.3858 0.750561 0
M  V30 3746 C 370.472 -2.30483 0.120835 0
M  V30 3747 C 371.442 -1.50022 -0.712923 0
M  V30 3748 O 372.627 -1.78662 -0.669676 0
M  V30 3749 C 369.767 -3.36431 -0.768666 0
M  V30 3750 C 368.88 -4.31927 0.0793922 0
M  V30 3751 C 368.015 -5.24944 -0.81283 0
M  V30 3752 C 367.054 -6.12088 0.0390447 0
M  V30 3753 N 366.191 -6.97412 -0.809969 0
M  V30 3754 H 371.031 -2.83761 0.91015 0
M  V30 3755 H 368.568 -1.39707 0.460463 0
M  V30 3756 H 370.526 -3.96462 -1.29898 0
M  V30 3757 H 369.156 -2.8457 -1.5238 0
M  V30 3758 H 368.208 -3.73382 0.727303 0
M  V30 3759 H 369.52 -4.93319 0.737401 0
M  V30 3760 H 368.674 -5.90078 -1.41042 0
M  V30 3761 H 367.413 -4.63911 -1.50458 0
M  V30 3762 H 366.418 -5.45952 0.649328 0
M  V30 3763 H 367.643 -6.75189 0.727809 0
M  V30 3764 H 365.589 -6.38931 -1.48672 0
M  V30 3765 H 365.506 -7.55712 -0.208789 0
M  V30 3766 H 366.774 -7.66959 -1.39263 0
M  V30 3767 N 371.003 -0.499398 -1.49478 0
M  V30 3768 C 372.28 0.108629 -1.95298 0
M  V30 3769 C 372.66 1.54282 -1.44084 0
M  V30 3770 O 372.008 2.18944 -0.653908 0
M  V30 3771 C 372.218 0.0229111 -3.48992 0
M  V30 3772 C 373.566 0.197643 -4.2414 0
M  V30 3773 O 374.59 0.0981735 -3.56065 0
M  V30 3774 O 373.449 0.401669 -5.45022 0
M  V30 3775 H 370.543 0.096181 -0.821388 0
M  V30 3776 H 373.089 -0.561822 -1.6013 0
M  V30 3777 H 371.861 -0.977321 -3.78899 0
M  V30 3778 H 371.484 0.733579 -3.90774 0
M  V30 3779 N 372.481 1.55866 -0.233164 0
M  V30 3780 C 373.709 2.02998 0.399905 0
M  V30 3781 C 374.124 1.11274 1.52524 0
M  V30 3782 O 373.481 0.124528 1.82075 0
M  V30 3783 C 373.532 3.4958 0.920639 0
M  V30 3784 O 373.253 4.37808 -0.159834 0
M  V30 3785 C 374.754 4.12411 1.62578 0
M  V30 3786 H 371.974 0.664006 0.0966281 0
M  V30 3787 H 374.518 2.0143 -0.353013 0
M  V30 3788 H 372.673 3.51727 1.62379 0
M  V30 3789 H 373.087 5.23981 0.23337 0
M  V30 3790 H 374.561 5.16711 1.94201 0
M  V30 3791 H 375.038 3.5809 2.54299 0
M  V30 3792 H 375.644 4.14148 0.967553 0
M  V30 3793 N 373.959 -0.0401083 1.57549 0
M  V30 3794 C 374.889 -1.04384 2.08869 0
M  V30 3795 C 375.87 -1.38407 0.988817 0
M  V30 3796 O 377.055 -1.47483 1.26342 0
M  V30 3797 C 374.185 -2.34808 2.55895 0
M  V30 3798 C 373.139 -2.15057 3.70047 0
M  V30 3799 C 372.465 -3.51145 4.03239 0
M  V30 3800 C 373.765 -1.54576 4.98902 0
M  V30 3801 H 375.459 -0.616666 2.92981 0
M  V30 3802 H 373.005 -0.295184 1.40942 0
M  V30 3803 H 374.958 -3.05346 2.90417 0
M  V30 3804 H 373.682 -2.79565 1.68853 0
M  V30 3805 H 372.341 -1.46954 3.35857 0
M  V30 3806 H 371.989 -3.93529 3.13279 0
M  V30 3807 H 371.689 -3.38758 4.80122 0
M  V30 3808 H 373.213 -4.23062 4.40285 0
M  V30 3809 H 374.627 -2.15017 5.31451 0
M  V30 3810 H 373.024 -1.52796 5.80322 0
M  V30 3811 H 374.094 -0.51039 4.82206 0
M  V30 3812 N 375.437 -1.54477 -0.31217 0
M  V30 3813 C 376.37 -1.79519 -1.40884 0
M  V30 3814 C 377.348 -0.645753 -1.49227 0
M  V30 3815 O 378.532 -0.884468 -1.66461 0
M  V30 3816 C 375.659 -1.92194 -2.78889 0
M  V30 3817 C 374.705 -3.14555 -2.88023 0
M  V30 3818 S 375.538 -4.72893 -2.51262 0
M  V30 3819 C 376.694 -4.8849 -3.91317 0
M  V30 3820 H 376.927 -2.72256 -1.19432 0
M  V30 3821 H 374.46 -1.45746 -0.509654 0
M  V30 3822 H 376.418 -2.00182 -3.58382 0
M  V30 3823 H 375.079 -1.00414 -2.97617 0
M  V30 3824 H 374.272 -3.20193 -3.89221 0
M  V30 3825 H 373.874 -3.04955 -2.16514 0
M  V30 3826 H 376.166 -4.71826 -4.86196 0
M  V30 3827 H 377.109 -5.90588 -3.90656 0
M  V30 3828 H 377.517 -4.16715 -3.80801 0
M  V30 3829 N 376.915 0.57481 -1.46744 0
M  V30 3830 C 378.164 1.32898 -1.51727 0
M  V30 3831 C 378.477 1.948 -0.176692 0
M  V30 3832 O 379.683 2.71299 -0.104385 0
M  V30 3833 C 378.139 2.40901 -2.67385 0
M  V30 3834 C 377.747 1.85266 -4.07898 0
M  V30 3835 C 379.491 3.17609 -2.81646 0
M  V30 3836 C 377.398 2.90945 -5.14883 0
M  V30 3837 H 376.328 0.499631 -0.564699 0
M  V30 3838 H 378.979 0.612536 -1.72975 0
M  V30 3839 H 377.361 3.15379 -2.39483 0
M  V30 3840 H 378.535 1.17278 -4.45626 0
M  V30 3841 H 376.85 1.21199 -3.98371 0
M  V30 3842 H 379.447 3.96493 -3.58744 0
M  V30 3843 H 379.79 3.70696 -1.89448 0
M  V30 3844 H 380.323 2.50239 -3.09233 0
M  V30 3845 H 377.062 2.42736 -6.089 0
M  V30 3846 H 376.582 3.57398 -4.81691 0
M  V30 3847 H 378.261 3.54755 -5.41071 0
M  V30 3848 N 378.394 1.34581 0.820102 0
M  V30 3849 C 379.619 1.30333 1.61332 0
M  V30 3850 C 380.044 -0.119339 1.87721 0
M  V30 3851 O 379.402 -1.08197 1.45475 0
M  V30 3852 C 379.45 2.10258 2.92957 0
M  V30 3853 O 378.554 1.47404 3.85157 0
M  V30 3854 H 377.895 0.447488 0.490561 0
M  V30 3855 H 380.425 1.77425 1.01889 0
M  V30 3856 H 380.435 2.21718 3.42498 0
M  V30 3857 H 379.11 3.13693 2.73074 0
M  V30 3858 H 377.687 1.44703 3.43679 0
M  V30 3859 N 379.872 -1.04064 1.18357 0
M  V30 3860 C 381.288 -1.2947 0.933258 0
M  V30 3861 C 381.488 -1.97466 -0.401169 0
M  V30 3862 O 380.544 -2.25528 -1.13549 0
M  V30 3863 C 381.857 -2.15337 2.09882 0
M  V30 3864 C 383.405 -2.28683 2.13712 0
M  V30 3865 C 383.88 -3.17917 3.29686 0
M  V30 3866 N 385.371 -3.25504 3.29547 0
M  V30 3867 C 386.106 -3.94706 4.15926 0
M  V30 3868 N 385.602 -4.66239 5.12439 0
M  V30 3869 N 387.395 -3.90986 4.0384 0
M  V30 3870 H 379.546 -0.583359 2.04232 0
M  V30 3871 H 381.809 -0.319921 0.892387 0
M  V30 3872 H 381.515 -1.72682 3.06389 0
M  V30 3873 H 381.389 -3.16015 2.05947 0
M  V30 3874 H 383.776 -2.70575 1.17784 0
M  V30 3875 H 383.857 -1.27596 2.21705 0
M  V30 3876 H 383.501 -2.76736 4.25887 0
M  V30 3877 H 383.431 -4.19036 3.1893 0
M  V30 3878 H 385.922 -2.74547 2.59677 0
M  V30 3879 H 386.235 -5.16638 5.74722 0
M  V30 3880 H 384.58 -4.65143 5.16398 0
M  V30 3881 H 387.771 -3.34234 3.27727 0
M  V30 3882 H 387.944 -4.44646 4.71375 0
M  V30 3883 N 381.35 -0.985608 -1.22978 0
M  V30 3884 C 382.578 -0.675582 -1.95559 0
M  V30 3885 C 382.993 0.758413 -1.72897 0
M  V30 3886 O 382.35 1.51094 -1.02357 0
M  V30 3887 C 382.401 -0.96293 -3.48439 0
M  V30 3888 O 382.122 -2.34057 -3.70336 0
M  V30 3889 C 383.623 -0.669585 -4.38214 0
M  V30 3890 H 380.843 -0.250523 -0.622478 0
M  V30 3891 H 383.387 -1.3184 -1.56328 0
M  V30 3892 H 381.542 -0.366033 -3.85667 0
M  V30 3893 H 381.956 -2.43424 -4.64591 0
M  V30 3894 H 383.43 -0.920967 -5.44263 0
M  V30 3895 H 383.907 0.396383 -4.37408 0
M  V30 3896 H 384.513 -1.2472 -4.06602 0
M  V30 3897 N 382.828 1.3818 -0.7579 0
M  V30 3898 C 384.239 1.82726 -0.383134 0
M  V30 3899 C 384.59 1.63214 1.08884 0
M  V30 3900 O 383.715 1.13566 1.84205 0
M  V30 3901 C 384.31 3.31728 -0.688631 0
M  V30 3902 C 382.869 3.74606 -0.367091 0
M  V30 3903 C 382.016 2.60896 -0.939599 0
M  V30 3904 H 384.967 1.26847 -0.953699 0
M  V30 3905 H 384.988 3.80487 0.0316492 0
M  V30 3906 H 384.5 3.45898 -1.76001 0
M  V30 3907 H 382.601 3.66013 0.697532 0
M  V30 3908 H 382.714 4.71215 -0.865658 0
M  V30 3909 H 381.078 2.52075 -0.3647 0
M  V30 3910 H 381.861 2.77864 -2.0161 0
M  V30 3911 N 384.306 0.507319 1.49211 0
M  V30 3912 C 385.216 -0.272136 2.33016 0
M  V30 3913 C 386.232 -0.961206 1.45041 0
M  V30 3914 O 387.408 -0.941191 1.78055 0
M  V30 3915 C 384.473 -1.31895 3.20631 0
M  V30 3916 C 383.534 -0.642648 4.24463 0
M  V30 3917 C 382.767 -1.63959 5.07891 0
M  V30 3918 O 382.99 -2.87007 4.92933 0
M  V30 3919 O 381.924 -1.19143 5.8999 0
M  V30 3920 H 385.75 0.413982 3.00865 0
M  V30 3921 H 383.335 0.268556 1.46966 0
M  V30 3922 H 385.217 -1.92446 3.7489 0
M  V30 3923 H 383.892 -1.98788 2.5547 0
M  V30 3924 H 382.799 0.00276252 3.741 0
M  V30 3925 H 384.132 -0.0160534 4.92197 0
M  V30 3926 N 385.784 -1.5574 0.241426 0
M  V30 3927 C 387.03 -1.99104 -0.385406 0
M  V30 3928 C 387.363 -1.1293 -1.57988 0
M  V30 3929 O 386.638 -0.191449 -1.93555 0
M  V30 3930 C 386.921 -3.51087 -0.800616 0
M  V30 3931 C 386.774 -4.48028 0.398874 0
M  V30 3932 C 388.093 -4.08015 -1.64959 0
M  V30 3933 H 385.212 -0.723848 -0.138614 0
M  V30 3934 H 387.854 -1.86903 0.341642 0
M  V30 3935 H 386.004 -3.61615 -1.4201 0
M  V30 3936 H 387.676 -4.49487 1.03726 0
M  V30 3937 H 385.919 -4.21077 1.04293 0
M  V30 3938 H 386.59 -5.51962 0.0651056 0
M  V30 3939 H 389.066 -4.00555 -1.12672 0
M  V30 3940 H 387.942 -5.14635 -1.90898 0
M  V30 3941 H 388.203 -3.56131 -2.61961 0
M  V30 3942 N 387.262 0.0317525 -1.57568 0
M  V30 3943 C 388.49 0.734949 -1.93407 0
M  V30 3944 C 388.905 1.69036 -0.84096 0
M  V30 3945 O 388.262 1.81582 0.182836 0
M  V30 3946 C 388.313 1.49432 -3.29169 0
M  V30 3947 O 388.034 0.577261 -4.3428 0
M  V30 3948 C 389.535 2.29492 -3.79273 0
M  V30 3949 H 386.755 0.206706 -0.638368 0
M  V30 3950 H 389.299 -0.00992046 -2.04498 0
M  V30 3951 H 387.454 2.1911 -3.19483 0
M  V30 3952 H 387.868 1.10952 -5.1263 0
M  V30 3953 H 389.342 2.78172 -4.76785 0
M  V30 3954 H 389.819 3.10794 -3.10328 0
M  V30 3955 H 390.425 1.64894 -3.92033 0
M  V30 3956 N 388.74 1.54641 0.303973 0
M  V30 3957 C 389.98 1.75516 1.04755 0
M  V30 3958 C 390.344 0.528211 1.84591 0
M  V30 3959 O 391.545 0.614645 2.61678 0
M  V30 3960 C 389.816 3.00685 1.93193 0
M  V30 3961 S 391.375 3.42549 2.74237 0
M  V30 3962 H 388.193 0.616987 0.353339 0
M  V30 3963 H 390.795 1.92842 0.321292 0
M  V30 3964 H 389.499 3.8811 1.33411 0
M  V30 3965 H 389.03 2.85937 2.70191 0
M  V30 3966 H 391.045 2.99386 3.95705 0
M  V30 3967 N 390.218 -0.567019 1.47046 0
M  V30 3968 C 391.464 -1.32658 1.53394 0
M  V30 3969 C 391.797 -1.93254 0.19148 0
M  V30 3970 O 391.072 -1.77338 -0.798844 0
M  V30 3971 C 391.355 -2.44412 2.64452 0
M  V30 3972 C 391.208 -1.88749 4.08282 0
M  V30 3973 C 392.527 -3.46387 2.71485 0
M  V30 3974 H 389.646 -0.48098 0.558415 0
M  V30 3975 H 392.288 -0.635481 1.79058 0
M  V30 3976 H 390.438 -3.03363 2.427 0
M  V30 3977 H 392.11 -1.34134 4.41368 0
M  V30 3978 H 390.353 -1.19481 4.17021 0
M  V30 3979 H 391.024 -2.69491 4.81745 0
M  V30 3980 H 393.5 -2.9734 2.91081 0
M  V30 3981 H 392.376 -4.2202 3.50985 0
M  V30 3982 H 392.637 -4.04616 1.78153 0
M  V30 3983 N 391.696 -1.35014 -0.812953 0
M  V30 3984 C 392.942 -1.2812 -1.57204 0
M  V30 3985 C 393.275 0.145869 -1.93651 0
M  V30 3986 O 392.55 1.0937 -1.60836 0
M  V30 3987 C 392.833 -2.18162 -2.86492 0
M  V30 3988 C 392.686 -3.69454 -2.56561 0
M  V30 3989 C 394.005 -2.07439 -3.88145 0
M  V30 3990 H 391.124 -0.466746 -0.570366 0
M  V30 3991 H 393.766 -1.65357 -0.935783 0
M  V30 3992 H 391.916 -1.86535 -3.40789 0
M  V30 3993 H 393.588 -4.11493 -2.08497 0
M  V30 3994 H 391.831 -3.9005 -1.89851 0
M  V30 3995 H 392.502 -4.27835 -3.48799 0
M  V30 3996 H 394.978 -2.35228 -3.4323 0
M  V30 3997 H 393.854 -2.7265 -4.76396 0
M  V30 3998 H 394.115 -1.05439 -4.29343 0
M  V30 3999 N 393.175 1.03435 -1.18907 0
M  V30 4000 C 394.421 1.77005 -0.989798 0
M  V30 4001 C 394.754 1.88205 0.478816 0
M  V30 4002 O 394.029 1.39481 1.35556 0
M  V30 4003 C 394.312 3.19925 -1.65287 0
M  V30 4004 C 394.165 3.1663 -3.19477 0
M  V30 4005 C 395.484 4.18189 -1.37134 0
M  V30 4006 H 392.603 0.642538 -0.360991 0
M  V30 4007 H 395.245 1.20784 -1.46667 0
M  V30 4008 H 393.395 3.67929 -1.24741 0
M  V30 4009 H 395.067 2.76567 -3.692 0
M  V30 4010 H 393.31 2.54491 -3.51307 0
M  V30 4011 H 393.981 4.1758 -3.61013 0
M  V30 4012 H 396.457 3.78761 -1.72276 0
M  V30 4013 H 395.333 5.16394 -1.86087 0
M  V30 4014 H 395.594 4.41112 -0.295424 0
M  V30 4015 N 394.653 0.992116 1.22453 0
M  V30 4016 C 395.93 0.583508 1.86694 0
M  V30 4017 C 396.31 -0.9392 1.89056 0
M  V30 4018 O 395.658 -1.82081 1.38053 0
M  V30 4019 C 395.868 1.20304 3.2761 0
M  V30 4020 C 397.216 1.30308 4.0411 0
M  V30 4021 O 398.24 1.15737 3.36873 0
M  V30 4022 O 397.099 1.53615 5.24466 0
M  V30 4023 H 394.193 0.198129 0.802916 0
M  V30 4024 H 396.739 1.08794 1.30238 0
M  V30 4025 H 395.511 2.24461 3.2052 0
M  V30 4026 H 395.134 0.684144 3.9167 0
M  V30 4027 N 396.131 -1.37776 0.765217 0
M  V30 4028 C 397.377 -2.00145 0.327072 0
M  V30 4029 C 397.71 -1.60607 -1.09175 0
M  V30 4030 O 396.985 -0.849127 -1.74986 0
M  V30 4031 C 397.268 -3.57109 0.46319 0
M  V30 4032 C 397.121 -4.06576 1.92395 0
M  V30 4033 C 398.44 -4.39888 -0.136473 0
M  V30 4034 H 395.559 -0.727113 0.120316 0
M  V30 4035 H 398.201 -1.63549 0.967039 0
M  V30 4036 H 396.351 -3.88414 -0.0816358 0
M  V30 4037 H 398.023 -3.85864 2.52798 0
M  V30 4038 H 396.266 -3.59011 2.43503 0
M  V30 4039 H 396.937 -5.15639 1.97028 0
M  V30 4040 H 399.413 -4.14803 0.328317 0
M  V30 4041 H 398.289 -5.48899 -0.0110582 0
M  V30 4042 H 398.55 -4.24758 -1.22608 0
M  V30 4043 N 397.609 -0.515225 -1.4894 0
M  V30 4044 C 398.834 0.022727 -2.07388 0
M  V30 4045 C 399.259 1.2876 -1.37122 0
M  V30 4046 O 398.617 1.76067 -0.432431 0
M  V30 4047 C 398.665 0.244869 -3.59768 0
M  V30 4048 O 397.769 1.31667 -3.90817 0
M  V30 4049 H 397.11 -0.0325506 -0.663202 0
M  V30 4050 H 399.64 -0.718918 -1.91553 0
M  V30 4051 H 399.65 0.47205 -4.0526 0
M  V30 4052 H 398.325 -0.679194 -4.10317 0
M  V30 4053 H 396.902 1.07331 -3.5712 0
M  V30 4054 N 399.087 1.5561 -0.249682 0
M  V30 4055 C 400.019 2.18834 0.681496 0
M  V30 4056 C 401.032 1.16546 1.1367 0
M  V30 4057 O 402.221 1.43397 1.06299 0
M  V30 4058 C 399.321 2.77992 1.9384 0
M  V30 4059 C 398.494 4.05725 1.63419 0
M  V30 4060 C 397.553 4.49174 2.74096 0
M  V30 4061 O 396.579 5.15492 2.41364 0
M  V30 4062 N 397.781 4.17191 4.03649 0
M  V30 4063 H 400.546 2.9937 0.140514 0
M  V30 4064 H 398.107 1.6175 -0.0697541 0
M  V30 4065 H 400.099 3.04015 2.67127 0
M  V30 4066 H 398.669 2.01596 2.38909 0
M  V30 4067 H 397.889 3.87261 0.736358 0
M  V30 4068 H 399.177 4.88999 1.40562 0
M  V30 4069 H 398.575 3.63955 4.33074 0
M  V30 4070 H 397.132 4.48043 4.73393 0
M  V30 4071 N 400.565 -0.0233959 1.57583 0
M  V30 4072 C 401.475 -1.03907 2.10334 0
M  V30 4073 C 402.491 -1.39257 1.04323 0
M  V30 4074 O 403.667 -1.48462 1.36091 0
M  V30 4075 C 400.732 -2.31938 2.57693 0
M  V30 4076 C 399.793 -2.03117 3.78209 0
M  V30 4077 C 399.026 -3.25043 4.233 0
M  V30 4078 O 399.249 -4.35916 3.67876 0
M  V30 4079 O 398.183 -3.10411 5.15683 0
M  V30 4080 H 402.009 -0.620748 2.97288 0
M  V30 4081 H 399.594 -0.240743 1.47448 0
M  V30 4082 H 401.476 -3.07196 2.88458 0
M  V30 4083 H 400.151 -2.73055 1.73847 0
M  V30 4084 H 399.058 -1.25408 3.52454 0
M  V30 4085 H 400.391 -1.66852 4.63056 0
M  V30 4086 N 402.043 -1.548 -0.295768 0
M  V30 4087 C 403.32 -1.65014 -1.05023 0
M  V30 4088 C 403.7 -0.501805 -2.05049 0
M  V30 4089 O 403.048 0.500869 -2.22943 0
M  V30 4090 C 403.258 -3.03252 -1.72741 0
M  V30 4091 C 404.606 -3.60242 -2.24746 0
M  V30 4092 O 405.63 -3.05737 -1.82765 0
M  V30 4093 O 404.489 -4.55687 -3.01681 0
M  V30 4094 H 401.583 -0.669314 -0.485744 0
M  V30 4095 H 404.129 -1.67144 -0.293438 0
M  V30 4096 H 402.901 -3.7827 -1.00138 0
M  V30 4097 H 402.524 -3.04922 -2.55163 0
M  V30 4098 N 403.521 0.559213 -1.47345 0
M  V30 4099 C 404.932 1.14134 -1.47751 0
M  V30 4100 C 405.283 1.94834 -0.231103 0
M  V30 4101 O 404.408 2.05957 0.664137 0
M  V30 4102 C 405.003 2.07653 -2.67705 0
M  V30 4103 C 403.562 2.61141 -2.71076 0
M  V30 4104 C 402.709 1.3748 -2.40821 0
M  V30 4105 H 405.66 0.345917 -1.54884 0
M  V30 4106 H 405.681 2.91497 -2.44561 0
M  V30 4107 H 405.193 1.4889 -3.58404 0
M  V30 4108 H 403.294 3.23707 -1.84511 0
M  V30 4109 H 403.407 3.02272 -3.7171 0
M  V30 4110 H 401.771 1.68086 -1.91362 0
M  V30 4111 H 402.554 0.805135 -3.33725 0
M  V30 4112 N 404.999 1.35443 0.805782 0
M  V30 4113 C 405.909 1.30546 1.94923 0
M  V30 4114 C 406.925 0.210233 1.72725 0
M  V30 4115 O 408.101 0.43975 1.9654 0
M  V30 4116 C 405.166 1.07782 3.29521 0
M  V30 4117 C 404.227 2.26625 3.64609 0
M  V30 4118 C 403.46 2.04938 4.92784 0
M  V30 4119 O 403.683 1.01624 5.61274 0
M  V30 4120 O 402.617 2.9232 5.26149 0
M  V30 4121 H 406.443 2.26779 2.02002 0
M  V30 4122 H 404.028 1.15823 0.943682 0
M  V30 4123 H 405.91 0.969392 4.10098 0
M  V30 4124 H 404.585 0.146003 3.23371 0
M  V30 4125 H 403.492 2.43033 2.84404 0
M  V30 4126 H 404.825 3.18257 3.75464 0
M  V30 4127 N 406.477 -1.02803 1.19454 0
M  V30 4128 C 407.723 -1.76478 0.999171 0
M  V30 4129 C 408.056 -1.88456 -0.468828 0
M  V30 4130 O 407.331 -1.40198 -1.34814 0
M  V30 4131 C 407.614 -3.19044 1.66981 0
M  V30 4132 C 407.467 -3.14932 3.21151 0
M  V30 4133 C 408.786 -4.17456 1.39349 0
M  V30 4134 H 405.905 -0.640614 0.364393 0
M  V30 4135 H 408.547 -1.20005 1.47305 0
M  V30 4136 H 406.697 -3.67263 1.2669 0
M  V30 4137 H 408.369 -2.74605 3.70661 0
M  V30 4138 H 406.612 -2.52625 3.52652 0
M  V30 4139 H 407.283 -4.1566 3.63223 0
M  V30 4140 H 409.759 -3.77842 1.74283 0
M  V30 4141 H 408.635 -5.154 1.88823 0
M  V30 4142 H 408.896 -4.40949 0.318813 0
M  V30 4143 N 407.956 -0.998596 -1.21925 0
M  V30 4144 C 408.888 -0.511879 -2.23411 0
M  V30 4145 C 409.901 0.396094 -1.57908 0
M  V30 4146 O 411.09 0.197316 -1.77406 0
M  V30 4147 C 408.19 0.276802 -3.37768 0
M  V30 4148 C 407.363 -0.628687 -4.32858 0
M  V30 4149 C 406.422 0.109272 -5.26087 0
M  V30 4150 O 405.448 -0.507237 -5.66935 0
M  V30 4151 N 406.65 1.38983 -5.63617 0
M  V30 4152 H 409.415 -1.38457 -2.658 0
M  V30 4153 H 406.976 -0.873981 -1.36283 0
M  V30 4154 H 408.968 0.77928 -3.97126 0
M  V30 4155 H 407.538 1.05063 -2.94415 0
M  V30 4156 H 406.758 -1.31175 -3.71735 0
M  V30 4157 H 408.046 -1.24514 -4.93329 0
M  V30 4158 H 407.444 1.91194 -5.32411 0
M  V30 4159 H 406.001 1.83739 -6.25367 0
M  V30 4160 N 409.434 1.37368 -0.772513 0
M  V30 4161 C 410.681 1.99673 -0.337182 0
M  V30 4162 C 411.009 1.61324 1.0865 0
M  V30 4163 O 410.264 0.851377 1.7621 0
M  V30 4164 C 410.563 3.54817 -0.428876 0
M  V30 4165 C 410.229 4.12936 -1.81092 0
M  V30 4166 C 408.891 4.28523 -2.1891 0
M  V30 4167 C 411.243 4.44801 -2.71664 0
M  V30 4168 C 408.571 4.73277 -3.46735 0
M  V30 4169 C 410.923 4.90981 -3.98899 0
M  V30 4170 C 409.587 5.04773 -4.36761 0
M  V30 4171 H 408.857 0.730656 -0.123384 0
M  V30 4172 H 411.504 1.64124 -0.986686 0
M  V30 4173 H 409.809 3.90618 0.304167 0
M  V30 4174 H 411.506 4.00933 -0.0733334 0
M  V30 4175 H 408.096 4.01233 -1.50699 0
M  V30 4176 H 412.28 4.32344 -2.43706 0
M  V30 4177 H 407.536 4.82142 -3.75964 0
M  V30 4178 H 411.71 5.14603 -4.69208 0
M  V30 4179 H 409.337 5.39211 -5.35868 0
M  V30 4180 N 410.912 0.523116 1.48665 0
M  V30 4181 C 411.86 -0.256859 2.31177 0
M  V30 4182 C 412.854 -0.94199 1.40794 0
M  V30 4183 O 414.06 -0.867157 1.57735 0
M  V30 4184 H 410.435 -0.1017 0.745091 0
M  V30 4185 H 412.406 0.458739 2.94853 0
M  V30 4186 C 411.155 -1.29503 3.22683 0
M  V30 4187 H 410.478 -0.777248 3.92172 0
M  V30 4188 H 411.918 -1.81233 3.83315 0
M  V30 4189 C 410.377 -2.32501 2.43813 0
M  V30 4190 O 410.907 -3.3881 2.15803 0
M  V30 4191 N 409.113 -2.05538 2.05432 0
M  V30 4192 H 408.66 -1.19104 2.28412 0
M  V30 4193 H 408.618 -2.74676 1.52973 0
M  V30 4194 N 412.39 -1.55475 0.257931 0
M  V30 4195 C 413.636 -2.00237 -0.357338 0
M  V30 4196 C 413.991 -1.14313 -1.54759 0
M  V30 4197 O 413.284 -0.201187 -1.90541 0
M  V30 4198 C 413.478 -3.48183 -0.806433 0
M  V30 4199 C 413.307 -4.48422 0.338758 0
M  V30 4200 C 412.077 -4.98651 0.817011 0
M  V30 4201 C 414.275 -5.00827 1.16949 0
M  V30 4202 N 412.257 -5.82658 1.93346 0
M  V30 4203 C 413.628 -5.82113 2.13413 0
M  V30 4204 C 415.683 -4.83104 1.2048 0
M  V30 4205 C 414.386 -6.47566 3.13131 0
M  V30 4206 C 416.412 -5.49343 2.19034 0
M  V30 4207 C 415.774 -6.30427 3.14232 0
M  V30 4208 H 411.873 -0.776034 -0.0964083 0
M  V30 4209 H 414.457 -1.90995 0.37803 0
M  V30 4210 H 412.628 -3.57801 -1.51107 0
M  V30 4211 H 414.36 -3.79802 -1.39758 0
M  V30 4212 H 411.115 -4.71914 0.39925 0
M  V30 4213 H 411.539 -6.29356 2.49478 0
M  V30 4214 H 416.181 -4.20036 0.482634 0
M  V30 4215 H 413.899 -7.09793 3.8629 0
M  V30 4216 H 417.485 -5.37579 2.22485 0
M  V30 4217 H 416.365 -6.80777 3.89246 0
M  V30 4218 N 413.868 0.0150385 -1.57593 0
M  V30 4219 C 415.098 0.713359 -1.93894 0
M  V30 4220 C 415.506 1.68663 -0.857289 0
M  V30 4221 O 414.849 1.82876 0.173788 0
M  V30 4222 C 414.911 1.51348 -3.26089 0
M  V30 4223 C 414.575 0.703451 -4.51554 0
M  V30 4224 C 415.572 -0.00237924 -5.199 0
M  V30 4225 C 413.257 0.653854 -4.98026 0
M  V30 4226 C 415.251 -0.746955 -6.33008 0
M  V30 4227 C 412.938 -0.0944578 -6.11027 0
M  V30 4228 C 413.936 -0.793609 -6.78374 0
M  V30 4229 O 413.624 -1.52974 -7.89211 0
M  V30 4230 H 413.356 0.204637 -0.644282 0
M  V30 4231 H 415.91 -0.0276411 -2.05381 0
M  V30 4232 H 414.14 2.29862 -3.10967 0
M  V30 4233 H 415.829 2.09572 -3.47612 0
M  V30 4234 H 416.595 0.0268803 -4.84993 0
M  V30 4235 H 412.474 1.18756 -4.45441 0
M  V30 4236 H 416.018 -1.2932 -6.85509 0
M  V30 4237 H 411.915 -0.125591 -6.45378 0
M  V30 4238 H 412.683 -1.44488 -8.05646 0
M  V30 4239 N 415.346 1.54954 0.287554 0
M  V30 4240 C 416.592 1.75132 1.02257 0
M  V30 4241 C 416.925 0.542858 1.86458 0
M  V30 4242 O 416.2 -0.459856 1.88986 0
M  V30 4243 C 416.483 3.04812 1.91733 0
M  V30 4244 C 416.336 4.35985 1.10622 0
M  V30 4245 C 417.655 3.30438 2.90687 0
M  V30 4246 H 414.774 0.637194 0.370341 0
M  V30 4247 H 417.416 1.87678 0.296111 0
M  V30 4248 H 415.566 2.94247 2.53675 0
M  V30 4249 H 417.238 4.58487 0.508636 0
M  V30 4250 H 415.481 4.31865 0.409271 0
M  V30 4251 H 416.152 5.23017 1.76513 0
M  V30 4252 H 418.628 3.40701 2.38877 0
M  V30 4253 H 417.504 4.22467 3.50447 0
M  V30 4254 H 417.765 2.49377 3.65053 0
M  V30 4255 N 416.824 -0.551391 1.4764 0
M  V30 4256 C 418.101 -1.31229 1.45046 0
M  V30 4257 C 418.481 -2.10563 0.150527 0
M  V30 4258 O 417.829 -2.11374 -0.867956 0
M  V30 4259 C 418.039 -2.21189 2.69956 0
M  V30 4260 C 419.387 -2.82021 3.1741 0
M  V30 4261 O 420.411 -2.31488 2.70724 0
M  V30 4262 O 419.27 -3.73885 3.98588 0
M  V30 4263 H 416.364 -0.591193 0.578291 0
M  V30 4264 H 418.91 -0.569813 1.59847 0
M  V30 4265 H 417.682 -1.62207 3.56096 0
M  V30 4266 H 417.305 -3.02722 2.57769 0
M  V30 4267 N 418.302 -1.35869 -0.798587 0
M  V30 4268 C 419.55 -1.29332 -1.55298 0
M  V30 4269 C 419.871 0.129729 -1.94568 0
M  V30 4270 O 419.141 1.06796 -1.6423 0
M  V30 4271 H 417.721 -0.475737 -0.57592 0
M  V30 4272 H 420.383 -1.70062 -0.952093 0
M  V30 4273 H 419.479 -1.91458 -2.46476 0
M  V30 4274 N 419.78 1.02168 -1.19998 0
M  V30 4275 C 421.026 1.75945 -1.00852 0
M  V30 4276 C 421.359 1.88702 0.458828 0
M  V30 4277 O 420.634 1.40911 1.34069 0
M  V30 4278 C 420.917 3.18154 -1.68671 0
M  V30 4279 C 420.77 3.13224 -3.22817 0
M  V30 4280 C 422.089 4.16711 -1.41561 0
M  V30 4281 H 419.208 0.638673 -0.367785 0
M  V30 4282 H 421.85 1.19222 -1.4794 0
M  V30 4283 H 420 3.66586 -1.28636 0
M  V30 4284 H 421.672 2.72635 -3.72112 0
M  V30 4285 H 419.915 2.50751 -3.53986 0
M  V30 4286 H 420.586 4.13728 -3.65422 0
M  V30 4287 H 423.062 3.76913 -1.76284 0
M  V30 4288 H 421.938 5.14391 -1.91553 0
M  V30 4289 H 422.199 4.40774 -0.342193 0
M  V30 4290 N 421.258 1.00505 1.21394 0
M  V30 4291 C 422.168 0.574806 2.27449 0
M  V30 4292 C 423.184 -0.382206 1.6975 0
M  V30 4293 O 424.36 -0.246027 1.99892 0
M  V30 4294 C 421.425 -0.0917414 3.46579 0
M  V30 4295 C 420.486 0.909758 4.1955 0
M  V30 4296 C 419.719 0.274924 5.32991 0
M  V30 4297 O 419.942 -0.928254 5.62796 0
M  V30 4298 O 418.876 0.985877 5.93771 0
M  V30 4299 H 422.702 1.45744 2.66444 0
M  V30 4300 H 420.287 0.773923 1.27792 0
M  V30 4301 H 422.169 -0.464551 4.18832 0
M  V30 4302 H 420.844 -0.948755 3.09484 0
M  V30 4303 H 419.751 1.33372 3.49518 0
M  V30 4304 H 421.084 1.73636 4.60555 0
M  V30 4305 N 422.737 -1.36956 0.779787 0
M  V30 4306 C 423.983 -1.99787 0.348281 0
M  V30 4307 C 424.316 -1.61756 -1.07465 0
M  V30 4308 O 423.591 -0.867639 -1.74075 0
M  V30 4309 C 423.874 -3.56597 0.50104 0
M  V30 4310 C 423.727 -4.04513 1.96697 0
M  V30 4311 C 425.046 -4.40008 -0.0898097 0
M  V30 4312 H 422.165 -0.725796 0.128022 0
M  V30 4313 H 424.807 -1.62514 0.984331 0
M  V30 4314 H 422.957 -3.88479 -0.0404347 0
M  V30 4315 H 424.629 -3.83161 2.56876 0
M  V30 4316 H 422.872 -3.56408 2.47297 0
M  V30 4317 H 423.543 -5.1352 2.02486 0
M  V30 4318 H 426.019 -4.14431 0.372293 0
M  V30 4319 H 424.895 -5.4888 0.0471605 0
M  V30 4320 H 425.156 -4.26035 -1.18096 0
M  V30 4321 N 424.215 -0.530993 -1.48385 0
M  V30 4322 C 425.165 0.251092 -2.26613 0
M  V30 4323 C 426.149 0.908977 -1.32765 0
M  V30 4324 O 427.341 0.811616 -1.57295 0
M  V30 4325 C 424.47 1.29677 -3.17866 0
M  V30 4326 C 423.556 0.643627 -4.19188 0
M  V30 4327 N 423.947 -0.271223 -5.05072 0
M  V30 4328 C 422.245 0.900711 -4.3681 0
M  V30 4329 C 422.946 -0.648109 -5.78078 0
M  V30 4330 N 421.922 -0.00895987 -5.43599 0
M  V30 4331 H 425.724 -0.452702 -2.90393 0
M  V30 4332 H 423.238 -0.349091 -1.58604 0
M  V30 4333 H 425.235 1.87079 -3.72568 0
M  V30 4334 H 423.895 2.00193 -2.55642 0
M  V30 4335 H 424.906 -0.643883 -5.13882 0
M  V30 4336 H 421.583 1.59636 -3.85775 0
M  V30 4337 H 422.973 -1.39833 -6.57188 0
M  V30 4338 N 425.693 1.55336 -0.266172 0
M  V30 4339 C 426.641 2.23587 0.641228 0
M  V30 4340 C 427.635 1.22986 1.16494 0
M  V30 4341 O 428.841 1.40943 1.1196 0
M  V30 4342 H 425.216 0.717452 0.225315 0
M  V30 4343 H 427.187 2.9837 0.0426561 0
M  V30 4344 C 425.936 2.96369 1.81826 0
M  V30 4345 H 425.259 3.73563 1.42445 0
M  V30 4346 H 426.699 3.47459 2.42998 0
M  V30 4347 C 425.158 2.0133 2.70125 0
M  V30 4348 O 425.688 1.55875 3.70224 0
M  V30 4349 N 423.894 1.6802 2.37102 0
M  V30 4350 H 423.441 2.05181 1.55751 0
M  V30 4351 H 423.399 1.047 2.96454 0
M  V30 4352 N 427.171 -0.0066808 1.57599 0
M  V30 4353 C 428.134 -0.985035 2.06953 0
M  V30 4354 C 429.134 -1.27663 0.977687 0
M  V30 4355 O 430.324 -1.22293 1.24057 0
M  V30 4356 C 427.456 -2.3118 2.50536 0
M  V30 4357 H 428.649 -0.558255 2.94658 0
M  V30 4358 H 426.202 -0.254011 1.54222 0
M  V30 4359 H 426.937 -2.78561 1.66054 0
M  V30 4360 H 426.722 -2.11338 3.3027 0
M  V30 4361 H 428.212 -3.01377 2.8907 0
M  V30 4362 N 428.649 -1.55105 -0.279332 0
M  V30 4363 C 429.596 -1.8755 -1.34513 0
M  V30 4364 C 430.566 -0.726384 -1.49375 0
M  V30 4365 O 431.751 -0.977063 -1.63884 0
M  V30 4366 C 428.891 -2.14738 -2.70151 0
M  V30 4367 C 428.004 -3.42285 -2.63562 0
M  V30 4368 C 427.139 -3.59206 -3.91337 0
M  V30 4369 C 426.178 -4.80467 -3.79233 0
M  V30 4370 N 425.315 -4.94079 -4.98829 0
M  V30 4371 H 430.155 -2.78456 -1.06143 0
M  V30 4372 H 427.692 -1.37867 -0.512936 0
M  V30 4373 H 429.65 -2.28501 -3.49061 0
M  V30 4374 H 428.28 -1.27075 -2.96735 0
M  V30 4375 H 427.332 -3.37029 -1.76397 0
M  V30 4376 H 428.644 -4.31328 -2.50515 0
M  V30 4377 H 427.798 -3.72751 -4.78687 0
M  V30 4378 H 426.537 -2.68337 -4.07243 0
M  V30 4379 H 425.542 -4.66932 -2.90266 0
M  V30 4380 H 426.767 -5.72765 -3.64852 0
M  V30 4381 H 424.713 -4.06139 -5.15158 0
M  V30 4382 H 424.63 -5.77156 -4.8829 0
M  V30 4383 H 425.898 -5.12003 -5.8777 0
M  V30 4384 N 430.127 0.543554 -1.4793 0
M  V30 4385 C 431.355 1.32516 -1.58894 0
M  V30 4386 C 431.77 1.87215 -0.244131 0
M  V30 4387 O 431.127 1.65709 0.764652 0
M  V30 4388 C 431.178 2.48554 -2.62494 0
M  V30 4389 O 430.899 1.96112 -3.91755 0
M  V30 4390 C 432.4 3.40572 -2.8377 0
M  V30 4391 H 429.62 0.403472 -0.536145 0
M  V30 4392 H 432.164 0.657106 -1.93655 0
M  V30 4393 H 430.319 3.1127 -2.30629 0
M  V30 4394 H 430.733 2.71967 -4.4848 0
M  V30 4395 H 432.207 4.18375 -3.60093 0
M  V30 4396 H 432.684 3.94965 -1.92092 0
M  V30 4397 H 433.29 2.8366 -3.16887 0
M  V30 4398 N 431.605 1.3629 0.791371 0
M  V30 4399 C 432.552 1.30458 1.90393 0
M  V30 4400 C 433.522 0.173632 1.6519 0
M  V30 4401 O 434.707 0.35983 1.87376 0
M  V30 4402 C 431.847 1.09777 3.27174 0
M  V30 4403 C 430.96 2.31929 3.64462 0
M  V30 4404 C 430.095 2.04276 4.90352 0
M  V30 4405 C 429.134 3.224 5.20312 0
M  V30 4406 N 428.271 2.94424 6.37385 0
M  V30 4407 H 433.111 2.25589 1.94714 0
M  V30 4408 H 430.648 1.12122 0.952216 0
M  V30 4409 H 432.606 0.958133 4.06049 0
M  V30 4410 H 431.236 0.183014 3.22281 0
M  V30 4411 H 430.288 2.56703 2.80727 0
M  V30 4412 H 431.6 3.20085 3.82553 0
M  V30 4413 H 430.754 1.87231 5.77087 0
M  V30 4414 H 429.493 1.13428 4.74326 0
M  V30 4415 H 428.498 3.40005 4.32061 0
M  V30 4416 H 429.723 4.14071 5.38258 0
M  V30 4417 H 427.669 2.06185 6.22755 0
M  V30 4418 H 427.586 3.76118 6.55798 0
M  V30 4419 H 428.854 2.80953 7.27108 0
M  V30 4420 N 433.083 -1.0153 1.20538 0
M  V30 4421 C 434.494 -1.56598 1.01657 0
M  V30 4422 C 434.845 -1.91505 -0.426668 0
M  V30 4423 O 433.97 -1.72375 -1.30827 0
M  V30 4424 C 434.565 -2.84542 1.83905 0
M  V30 4425 C 433.124 -3.36133 1.69386 0
M  V30 4426 C 432.271 -2.09427 1.81757 0
M  V30 4427 H 435.222 -0.838974 1.34711 0
M  V30 4428 H 435.243 -3.56004 1.34319 0
M  V30 4429 H 434.755 -2.59105 2.8894 0
M  V30 4430 H 432.856 -3.66528 0.669933 0
M  V30 4431 H 432.969 -4.08248 2.50739 0
M  V30 4432 H 431.333 -2.21941 1.24957 0
M  V30 4433 H 432.116 -1.86414 2.88279 0
M  V30 4434 N 434.561 -1.01147 -1.20859 0
M  V30 4435 C 435.977 -0.725422 -1.42161 0
M  V30 4436 C 436.177 0.696919 -1.89064 0
M  V30 4437 O 435.233 1.46539 -2.05627 0
M  V30 4438 C 436.546 -1.74678 -2.44761 0
M  V30 4439 C 438.094 -1.76433 -2.58535 0
M  V30 4440 C 438.569 -2.77481 -3.64374 0
M  V30 4441 N 440.06 -2.76189 -3.71852 0
M  V30 4442 C 440.795 -3.51035 -4.53389 0
M  V30 4443 N 440.291 -4.35541 -5.38773 0
M  V30 4444 N 442.084 -3.39655 -4.47873 0
M  V30 4445 H 434.235 -1.92979 -0.887282 0
M  V30 4446 H 436.498 -0.833327 -0.451962 0
M  V30 4447 H 436.204 -2.76551 -2.17285 0
M  V30 4448 H 436.078 -1.55472 -3.43669 0
M  V30 4449 H 438.465 -0.75248 -2.85345 0
M  V30 4450 H 438.546 -1.99712 -1.5984 0
M  V30 4451 H 438.19 -3.78827 -3.38308 0
M  V30 4452 H 438.12 -2.51466 -4.6268 0
M  V30 4453 H 440.611 -2.14885 -3.10858 0
M  V30 4454 H 440.924 -4.89432 -5.98061 0
M  V30 4455 H 439.269 -4.39621 -5.38292 0
M  V30 4456 H 442.46 -2.73063 -3.80203 0
M  V30 4457 H 442.633 -3.9824 -5.11184 0
M  V30 4458 N 436.039 1.36541 -0.78704 0
M  V30 4459 C 436.949 2.3387 -0.184896 0
M  V30 4460 C 437.965 1.60927 0.661697 0
M  V30 4461 O 439.141 1.92927 0.57804 0
M  V30 4462 C 436.206 3.40122 0.672145 0
M  V30 4463 C 435.267 4.28867 -0.19267 0
M  V30 4464 C 434.5 5.30045 0.623561 0
M  V30 4465 O 434.723 5.39232 1.8597 0
M  V30 4466 O 433.657 6.01895 0.0247068 0
M  V30 4467 H 437.483 2.87126 -0.989562 0
M  V30 4468 H 435.068 1.38969 -0.548455 0
M  V30 4469 H 436.95 4.05093 1.16094 0
M  V30 4470 H 435.625 2.89169 1.45474 0
M  V30 4471 H 434.532 3.66945 -0.728166 0
M  V30 4472 H 435.865 4.83165 -0.938722 0
M  V30 4473 N 437.518 0.538854 1.48102 0
M  V30 4474 C 438.428 -0.222648 2.33541 0
M  V30 4475 C 439.444 -0.930225 1.47047 0
M  V30 4476 O 440.62 -0.903211 1.80011 0
M  V30 4477 C 437.685 -1.25064 3.23357 0
M  V30 4478 C 436.746 -0.552469 4.2573 0
M  V30 4479 C 435.979 -1.53149 5.11254 0
M  V30 4480 O 436.202 -2.76487 4.9891 0
M  V30 4481 O 435.136 -1.06602 5.92385 0
M  V30 4482 H 438.962 0.477707 2.99919 0
M  V30 4483 H 436.547 0.299669 1.46364 0
M  V30 4484 H 438.429 -1.8445 3.78888 0
M  V30 4485 H 437.104 -1.93325 2.59629 0
M  V30 4486 H 436.011 0.082114 3.7401 0
M  V30 4487 H 437.344 0.0883526 4.92121 0
M  V30 4488 N 438.996 -1.55193 0.274407 0
M  V30 4489 C 439.928 -2.1989 -0.646595 0
M  V30 4490 C 440.941 -1.1834 -1.11801 0
M  V30 4491 O 442.13 -1.4507 -1.04004 0
M  V30 4492 C 439.23 -2.8104 -1.89393 0
M  V30 4493 C 438.403 -4.08274 -1.56943 0
M  V30 4494 C 437.462 -4.53478 -2.66916 0
M  V30 4495 O 436.488 -5.19267 -2.33132 0
M  V30 4496 N 437.69 -4.2356 -3.9696 0
M  V30 4497 H 440.455 -2.99556 -0.0928686 0
M  V30 4498 H 438.016 -1.61618 0.0954783 0
M  V30 4499 H 440.008 -3.08226 -2.62257 0
M  V30 4500 H 438.578 -2.05372 -2.35672 0
M  V30 4501 H 437.798 -3.88384 -0.674655 0
M  V30 4502 H 439.086 -4.91173 -1.32764 0
M  V30 4503 H 438.484 -3.70799 -4.27229 0
M  V30 4504 H 437.041 -4.55518 -4.66205 0
M  V30 4505 N 440.474 -0.00167713 -1.576 0
M  V30 4506 C 441.704 0.692754 -1.94639 0
M  V30 4507 C 442.112 1.67744 -0.87513 0
M  V30 4508 O 441.455 1.8305 0.154382 0
M  V30 4509 C 441.517 1.47881 -3.27676 0
M  V30 4510 C 441.181 0.655518 -4.52274 0
M  V30 4511 C 442.178 -0.0575214 -5.19868 0
M  V30 4512 C 439.863 0.600994 -4.98692 0
M  V30 4513 C 441.857 -0.814052 -6.3218 0
M  V30 4514 C 439.544 -0.15926 -6.10892 0
M  V30 4515 C 440.542 -0.865515 -6.77494 0
M  V30 4516 O 440.23 -1.61336 -7.87544 0
M  V30 4517 H 439.962 0.197792 -0.646417 0
M  V30 4518 H 442.516 -0.049423 -2.05341 0
M  V30 4519 H 440.746 2.2655 -3.13388 0
M  V30 4520 H 442.435 2.05874 -3.49816 0
M  V30 4521 H 443.201 -0.0245611 -4.84994 0
M  V30 4522 H 439.08 1.14025 -4.46676 0
M  V30 4523 H 442.624 -1.36584 -6.84098 0
M  V30 4524 H 438.521 -0.194035 -6.45208 0
M  V30 4525 H 439.289 -1.53025 -8.04068 0
M  V30 4526 N 441.952 1.55251 0.271103 0
M  V30 4527 C 442.9 1.89054 1.35504 0
M  V30 4528 C 443.894 0.767064 1.51038 0
M  V30 4529 O 445.1 0.951429 1.528 0
M  V30 4530 H 441.475 0.600072 0.45323 0
M  V30 4531 H 443.446 2.79598 1.04247 0
M  V30 4532 C 442.195 2.18068 2.70817 0
M  V30 4533 H 441.518 3.04005 2.59656 0
M  V30 4534 H 442.958 2.4564 3.45597 0
M  V30 4535 C 441.417 0.988901 3.2206 0
M  V30 4536 O 441.947 0.224501 4.01072 0
M  V30 4537 N 440.153 0.786085 2.79766 0
M  V30 4538 H 439.7 1.40937 2.15626 0
M  V30 4539 H 439.658 -0.00969349 3.14399 0
M  V30 4540 N 443.43 -0.535701 1.48216 0
M  V30 4541 C 444.655 -1.32149 1.59848 0
M  V30 4542 C 445.08 -1.86338 0.256842 0
M  V30 4543 O 444.438 -1.64107 -0.770632 0
M  V30 4544 C 444.486 -2.45224 2.64381 0
M  V30 4545 O 443.59 -3.48093 2.21144 0
M  V30 4546 H 442.931 -0.391634 0.536208 0
M  V30 4547 H 445.461 -0.645202 1.94161 0
M  V30 4548 H 445.471 -2.91491 2.85476 0
M  V30 4549 H 444.146 -2.05143 3.61786 0
M  V30 4550 H 442.723 -3.07984 2.10239 0
M  V30 4551 N 444.908 -1.36708 -0.784132 0
M  V30 4552 C 446.136 -1.34398 -1.57305 0
M  V30 4553 C 446.551 0.0735577 -1.88657 0
M  V30 4554 O 445.908 1.03193 -1.50524 0
M  V30 4555 C 445.959 -2.17053 -2.89085 0
M  V30 4556 O 445.68 -3.53281 -2.59083 0
M  V30 4557 C 447.181 -2.22583 -3.83369 0
M  V30 4558 H 444.401 -0.460819 -0.487736 0
M  V30 4559 H 446.945 -1.79879 -0.972819 0
M  V30 4560 H 445.1 -1.75113 -3.45564 0
M  V30 4561 H 445.514 -3.9647 -3.43383 0
M  V30 4562 H 446.988 -2.84763 -4.72878 0
M  V30 4563 H 447.465 -1.23075 -4.21603 0
M  V30 4564 H 448.071 -2.64781 -3.32823 0
M  V30 4565 N 446.386 1.0089 -1.21074 0
M  V30 4566 C 447.616 1.77933 -1.04993 0
M  V30 4567 C 448.024 1.84847 0.403495 0
M  V30 4568 O 447.367 1.30606 1.29181 0
M  V30 4569 C 447.429 3.23541 -1.56722 0
M  V30 4570 C 447.093 3.40214 -3.05129 0
M  V30 4571 C 448.09 3.2881 -4.02716 0
M  V30 4572 C 445.775 3.65781 -3.44252 0
M  V30 4573 C 447.769 3.42732 -5.37414 0
M  V30 4574 C 445.456 3.79346 -4.79103 0
M  V30 4575 C 446.454 3.67827 -5.75493 0
M  V30 4576 O 446.142 3.80965 -7.07899 0
M  V30 4577 H 445.874 0.566157 -0.369381 0
M  V30 4578 H 448.428 1.27826 -1.60779 0
M  V30 4579 H 446.658 3.74766 -0.953285 0
M  V30 4580 H 448.347 3.82245 -1.36543 0
M  V30 4581 H 449.113 3.08986 -3.73835 0
M  V30 4582 H 444.992 3.73831 -2.69762 0
M  V30 4583 H 448.536 3.33658 -6.12632 0
M  V30 4584 H 444.433 3.98672 -5.07672 0
M  V30 4585 H 445.201 3.97937 -7.15254 0
M  V30 4586 N 447.864 1.01787 1.20321 0
M  V30 4587 C 449.28 0.732951 1.41774 0
M  V30 4588 C 449.48 -0.686883 1.89431 0
M  V30 4589 O 448.536 -1.45446 2.06402 0
M  V30 4590 C 449.849 1.75973 2.43832 0
M  V30 4591 C 451.397 1.77802 2.57596 0
M  V30 4592 C 451.872 2.7941 3.62897 0
M  V30 4593 N 453.363 2.78157 3.70382 0
M  V30 4594 C 454.098 3.53434 4.51521 0
M  V30 4595 N 453.594 4.38392 5.36455 0
M  V30 4596 N 455.387 3.42026 4.46066 0
M  V30 4597 H 447.538 1.93447 0.877035 0
M  V30 4598 H 449.801 0.835712 0.447536 0
M  V30 4599 H 449.507 2.77699 2.15815 0
M  V30 4600 H 449.381 1.57292 3.4284 0
M  V30 4601 H 451.768 0.767602 2.84942 0
M  V30 4602 H 451.849 2.00557 1.58779 0
M  V30 4603 H 451.493 3.80616 3.36295 0
M  V30 4604 H 451.423 2.53916 4.61339 0
M  V30 4605 H 453.914 2.16531 3.09714 0
M  V30 4606 H 454.227 4.92596 5.95457 0
M  V30 4607 H 452.572 4.4247 5.35953 0
M  V30 4608 H 455.763 2.75075 3.78749 0
M  V30 4609 H 455.936 4.00946 5.09064 0
M  V30 4610 N 449.342 -1.36122 0.79427 0
M  V30 4611 C 450.588 -1.99406 0.369452 0
M  V30 4612 C 450.921 -1.62886 -1.05743 0
M  V30 4613 O 450.196 -0.886053 -1.73145 0
M  V30 4614 C 450.479 -3.56046 0.538833 0
M  V30 4615 C 450.332 -4.02404 2.00976 0
M  V30 4616 C 451.651 -4.40079 -0.0431359 0
M  V30 4617 H 448.77 -0.724397 0.135712 0
M  V30 4618 H 451.412 -1.61461 1.00151 0
M  V30 4619 H 449.562 -3.885 0.000771004 0
M  V30 4620 H 451.234 -3.80415 2.60926 0
M  V30 4621 H 449.477 -3.53765 2.51063 0
M  V30 4622 H 450.148 -5.11344 2.07922 0
M  V30 4623 H 452.624 -4.14013 0.416228 0
M  V30 4624 H 451.5 -5.48799 0.105374 0
M  V30 4625 H 451.761 -4.27264 -1.13571 0
M  V30 4626 N 450.82 -0.546701 -1.47814 0
M  V30 4627 C 452.066 -0.0187684 -2.02791 0
M  V30 4628 C 452.399 1.32338 -1.42128 0
M  V30 4629 O 451.674 1.85867 -0.573023 0
M  V30 4630 C 451.957 0.0854985 -3.59998 0
M  V30 4631 C 451.81 -1.283 -4.31114 0
M  V30 4632 C 453.129 0.80412 -4.32691 0
M  V30 4633 H 450.248 -0.0082946 -0.736953 0
M  V30 4634 H 452.89 -0.706962 -1.76358 0
M  V30 4635 H 451.04 0.671609 -3.82651 0
M  V30 4636 H 452.712 -1.91151 -4.19832 0
M  V30 4637 H 450.955 -1.86049 -3.91878 0
M  V30 4638 H 451.626 -1.16287 -5.39612 0
M  V30 4639 H 454.102 0.306576 -4.14969 0
M  V30 4640 H 452.978 0.846011 -5.42341 0
M  V30 4641 H 453.239 1.85802 -4.01161 0
M  V30 4642 N 452.299 1.55045 -0.282633 0
M  V30 4643 C 453.524 2.04628 0.337977 0
M  V30 4644 C 453.949 1.15937 1.48123 0
M  V30 4645 O 453.307 0.159532 1.80597 0
M  V30 4646 C 453.355 3.51854 0.78936 0
M  V30 4647 O 452.459 3.66236 1.89592 0
M  V30 4648 H 451.8 0.660434 0.0687261 0
M  V30 4649 H 454.33 2.00261 -0.419124 0
M  V30 4650 H 454.34 3.93361 1.08311 0
M  V30 4651 H 453.015 4.15873 -0.0470419 0
M  V30 4652 H 451.592 3.36633 1.60413 0
M  V30 4653 N 453.777 0.010035 1.57597 0
M  V30 4654 C 455.023 -0.673697 1.91283 0
M  V30 4655 C 455.356 -1.72863 0.884979 0
M  V30 4656 O 454.631 -1.94268 -0.0949487 0
M  V30 4657 C 454.914 -1.30766 3.35518 0
M  V30 4658 C 454.767 -0.263578 4.49027 0
M  V30 4659 C 456.086 -2.23105 3.79358 0
M  V30 4660 H 453.205 -0.243439 0.695634 0
M  V30 4661 H 455.847 0.0633864 1.89894 0
M  V30 4662 H 453.997 -1.93588 3.36832 0
M  V30 4663 H 455.669 0.365738 4.59848 0
M  V30 4664 H 453.912 0.413077 4.31829 0
M  V30 4665 H 454.583 -0.746398 5.4693 0
M  V30 4666 H 457.059 -1.70289 3.79659 0
M  V30 4667 H 455.935 -2.64424 4.81011 0
M  V30 4668 H 456.196 -3.11433 3.13787 0
M  V30 4669 N 455.255 -1.55392 -0.262866 0
M  V30 4670 C 456.185 -1.91978 -1.32917 0
M  V30 4671 C 457.166 -0.7828 -1.51017 0
M  V30 4672 O 458.351 -1.04178 -1.63892 0
M  V30 4673 C 455.481 -2.20055 -2.68687 0
M  V30 4674 C 454.435 -3.35854 -2.65304 0
M  V30 4675 C 453.761 -3.49435 -4.04721 0
M  V30 4676 C 455.061 -4.71977 -2.23685 0
M  V30 4677 H 456.755 -2.81292 -1.02544 0
M  V30 4678 H 454.301 -1.3534 -0.491846 0
M  V30 4679 H 456.254 -2.44237 -3.43404 0
M  V30 4680 H 454.978 -1.27551 -3.00663 0
M  V30 4681 H 453.637 -3.11655 -1.93045 0
M  V30 4682 H 453.285 -2.54379 -4.33936 0
M  V30 4683 H 452.985 -4.27297 -4.0335 0
M  V30 4684 H 454.509 -3.7592 -4.81161 0
M  V30 4685 H 455.923 -4.95637 -2.88127 0
M  V30 4686 H 454.32 -5.52828 -2.33456 0
M  V30 4687 H 455.39 -4.70115 -1.18827 0
M  V30 4688 N 456.733 0.527833 -1.48498 0
M  V30 4689 C 457.961 1.30823 -1.6029 0
M  V30 4690 C 458.376 1.86945 -0.263974 0
M  V30 4691 O 457.733 1.6651 0.747034 0
M  V30 4692 C 457.784 2.45756 -2.65116 0
M  V30 4693 O 457.505 1.91946 -3.93813 0
M  V30 4694 C 459.006 3.37543 -2.87367 0
M  V30 4695 H 456.226 0.397763 -0.540394 0
M  V30 4696 H 458.77 0.636529 -1.94341 0
M  V30 4697 H 456.925 3.08806 -2.33917 0
M  V30 4698 H 457.339 2.67195 -4.51339 0
M  V30 4699 H 458.813 4.14532 -3.6451 0
M  V30 4700 H 459.29 3.92905 -1.9627 0
M  V30 4701 H 459.896 2.80283 -3.19878 0
M  V30 4702 N 458.211 1.37122 0.776871 0
M  V30 4703 C 459.457 1.32243 1.53752 0
M  V30 4704 C 459.79 -0.0944745 1.9397 0
M  V30 4705 O 459.065 -1.05068 1.6368 0
M  V30 4706 C 459.348 2.25681 2.80607 0
M  V30 4707 C 459.201 3.76127 2.46676 0
M  V30 4708 C 460.52 2.17657 3.82509 0
M  V30 4709 H 457.639 0.481704 0.557791 0
M  V30 4710 H 460.281 1.6778 0.891612 0
M  V30 4711 H 458.431 1.95505 3.35723 0
M  V30 4712 H 460.103 4.16877 1.97513 0
M  V30 4713 H 458.346 3.94946 1.79443 0
M  V30 4714 H 459.017 4.36933 3.37333 0
M  V30 4715 H 461.493 2.44245 3.36873 0
M  V30 4716 H 460.369 2.85185 4.69 0
M  V30 4717 H 460.63 1.16785 4.26396 0
M  V30 4718 N 459.689 -1.00246 1.21608 0
M  V30 4719 C 460.619 -2.10921 1.00172 0
M  V30 4720 C 461.6 -1.69938 -0.0741587 0
M  V30 4721 O 462.785 -1.94009 0.0861753 0
M  V30 4722 C 459.915 -3.42618 0.568355 0
M  V30 4723 C 458.869 -3.97407 1.58909 0
M  V30 4724 C 458.195 -5.25038 1.01187 0
M  V30 4725 C 459.495 -4.2918 2.97661 0
M  V30 4726 H 461.189 -2.29112 1.92739 0
M  V30 4727 H 458.735 -1.10101 0.928102 0
M  V30 4728 H 460.688 -4.19444 0.405555 0
M  V30 4729 H 459.412 -3.24227 -0.392961 0
M  V30 4730 H 458.071 -3.22703 1.73949 0
M  V30 4731 H 457.719 -5.02982 0.0421965 0
M  V30 4732 H 457.419 -5.62661 1.6937 0
M  V30 4733 H 458.943 -6.04507 0.860448 0
M  V30 4734 H 460.357 -4.96839 2.86049 0
M  V30 4735 H 458.754 -4.77952 3.6288 0
M  V30 4736 H 459.824 -3.3735 3.48315 0
M  V30 4737 N 461.167 -1.02423 -1.1978 0
M  V30 4738 C 462.117 -0.571689 -2.20716 0
M  V30 4739 C 463.101 0.377077 -1.56419 0
M  V30 4740 O 464.293 0.198801 -1.7588 0
M  V30 4741 C 461.422 0.0808555 -3.43205 0
M  V30 4742 C 460.508 -0.890073 -4.14655 0
M  V30 4743 N 460.899 -2.05065 -4.62366 0
M  V30 4744 C 459.197 -0.71252 -4.40272 0
M  V30 4745 C 459.898 -2.66264 -5.17183 0
M  V30 4746 N 458.874 -1.94264 -5.07703 0
M  V30 4747 H 462.676 -1.45636 -2.55279 0
M  V30 4748 H 460.19 -0.890596 -1.35802 0
M  V30 4749 H 462.187 0.422654 -4.14752 0
M  V30 4750 H 460.847 0.961274 -3.10144 0
M  V30 4751 H 461.858 -2.43026 -4.57339 0
M  V30 4752 H 458.535 0.119199 -4.1733 0
M  V30 4753 H 459.925 -3.64526 -5.64421 0
M  V30 4754 N 462.645 1.35699 -0.801477 0
M  V30 4755 C 463.577 2.28598 -0.166028 0
M  V30 4756 C 464.59 1.50044 0.631721 0
M  V30 4757 O 465.779 1.72339 0.464921 0
M  V30 4758 C 462.879 3.29625 0.787451 0
M  V30 4759 C 462.052 4.37384 0.037171 0
M  V30 4760 C 461.111 5.183 0.908375 0
M  V30 4761 O 460.137 5.68053 0.361189 0
M  V30 4762 N 461.339 5.35912 2.23112 0
M  V30 4763 H 464.104 2.83771 -0.964071 0
M  V30 4764 H 461.665 1.47994 -0.656469 0
M  V30 4765 H 463.657 3.80648 1.37439 0
M  V30 4766 H 462.227 2.75004 1.48632 0
M  V30 4767 H 461.447 3.87364 -0.730935 0
M  V30 4768 H 462.735 5.0653 -0.480109 0
M  V30 4769 H 462.133 4.97125 2.69968 0
M  V30 4770 H 460.69 5.90133 2.76741 0
M  V30 4771 N 464.123 0.554532 1.47522 0
M  V30 4772 C 465.4 -0.0360704 1.95567 0
M  V30 4773 C 465.78 -1.48828 1.49711 0
M  V30 4774 O 465.128 -2.16366 0.734717 0
M  V30 4775 C 465.338 0.106631 3.48837 0
M  V30 4776 C 466.686 -0.0400899 4.24581 0
M  V30 4777 O 467.71 0.0340453 3.56184 0
M  V30 4778 O 466.569 -0.199111 5.46137 0
M  V30 4779 H 463.663 -0.0656294 0.824392 0
M  V30 4780 H 466.209 0.620867 1.57935 0
M  V30 4781 H 464.981 1.11727 3.7501 0
M  V30 4782 H 464.604 -0.58804 3.93227 0
M  V30 4783 N 465.601 -1.54893 0.290851 0
M  V30 4784 C 466.847 -2.00949 -0.314784 0
M  V30 4785 C 467.202 -1.1757 -1.52299 0
M  V30 4786 O 466.495 -0.241558 -1.90071 0
M  V30 4787 C 466.689 -3.49815 -0.732397 0
M  V30 4788 C 466.518 -4.47603 0.433799 0
M  V30 4789 C 465.288 -4.96806 0.922599 0
M  V30 4790 C 467.486 -4.98233 1.27546 0
M  V30 4791 N 465.468 -5.78426 2.05662 0
M  V30 4792 C 466.839 -5.77455 2.25712 0
M  V30 4793 C 468.894 -4.80439 1.307 0
M  V30 4794 C 467.597 -6.40778 3.26796 0
M  V30 4795 C 469.623 -5.44574 2.30637 0
M  V30 4796 C 468.985 -6.23619 3.27533 0
M  V30 4797 H 465.084 -0.777905 -0.0799257 0
M  V30 4798 H 467.668 -1.9015 0.418458 0
M  V30 4799 H 465.839 -3.60925 -1.43483 0
M  V30 4800 H 467.571 -3.82681 -1.31671 0
M  V30 4801 H 464.326 -4.70961 0.49926 0
M  V30 4802 H 464.75 -6.23923 2.62772 0
M  V30 4803 H 469.392 -4.18918 0.571622 0
M  V30 4804 H 467.11 -7.01439 4.01258 0
M  V30 4805 H 470.696 -5.32739 2.33838 0
M  V30 4806 H 469.576 -6.72367 4.03599 0
M  V30 4807 N 467.08 -0.0183926 -1.57589 0
M  V30 4808 C 468.01 0.965596 -2.12599 0
M  V30 4809 C 468.991 1.34641 -1.0395 0
M  V30 4810 O 470.176 1.42693 -1.31729 0
M  V30 4811 C 467.306 2.25149 -2.64434 0
M  V30 4812 C 466.26 2.01175 -3.77773 0
M  V30 4813 C 465.586 3.35937 -4.15994 0
M  V30 4814 C 466.886 1.35953 -5.04296 0
M  V30 4815 H 468.58 0.507504 -2.95067 0
M  V30 4816 H 466.126 0.242671 -1.41941 0
M  V30 4817 H 468.079 2.94357 -3.01549 0
M  V30 4818 H 466.803 2.73105 -1.79112 0
M  V30 4819 H 465.462 1.34388 -3.4108 0
M  V30 4820 H 465.11 3.81631 -3.27669 0
M  V30 4821 H 464.81 3.20705 -4.92364 0
M  V30 4822 H 466.334 4.0643 -4.55683 0
M  V30 4823 H 467.748 1.95144 -5.39065 0
M  V30 4824 H 466.145 1.31152 -5.85593 0
M  V30 4825 H 467.215 0.331071 -4.83768 0
M  V30 4826 N 468.558 1.5553 0.254621 0
M  V30 4827 C 469.506 1.9048 1.33492 0
M  V30 4828 C 470.5 0.78304 1.50216 0
M  V30 4829 O 471.706 0.967582 1.51782 0
M  V30 4830 H 468.081 0.604846 0.44684 0
M  V30 4831 H 470.052 2.80688 1.01275 0
M  V30 4832 C 468.801 2.20928 2.68489 0
M  V30 4833 H 468.124 3.06742 2.56417 0
M  V30 4834 H 469.564 2.49291 3.42972 0
M  V30 4835 C 468.023 1.023 3.20993 0
M  V30 4836 O 468.553 0.267027 4.00811 0
M  V30 4837 N 466.759 0.815714 2.78917 0
M  V30 4838 H 466.306 1.43217 2.14119 0
M  V30 4839 H 466.264 0.0236532 3.14391 0
M  V30 4840 N 470.036 -0.519951 1.48776 0
M  V30 4841 C 471.284 -1.2727 1.56993 0
M  V30 4842 C 471.605 -1.9339 0.25004 0
M  V30 4843 O 470.875 -1.81822 -0.729216 0
M  V30 4844 H 469.455 -0.472732 0.578389 0
M  V30 4845 H 472.117 -0.604234 1.85297 0
M  V30 4846 H 471.213 -2.04669 2.3562 0
M  V30 4847 N 471.514 -1.37532 -0.769588 0
M  V30 4848 C 472.461 -1.3347 -1.88293 0
M  V30 4849 C 473.431 -0.199891 -1.64893 0
M  V30 4850 O 474.616 -0.389594 -1.8678 0
M  V30 4851 C 471.756 -1.14968 -3.25387 0
M  V30 4852 C 470.869 -2.37698 -3.60727 0
M  V30 4853 C 470.004 -2.12051 -4.8704 0
M  V30 4854 C 469.043 -3.30636 -5.15117 0
M  V30 4855 N 468.18 -3.04527 -6.3262 0
M  V30 4856 H 473.02 -2.28658 -1.911 0
M  V30 4857 H 470.557 -1.13622 -0.934257 0
M  V30 4858 H 472.515 -1.02261 -4.04473 0
M  V30 4859 H 471.145 -0.234263 -3.21949 0
M  V30 4860 H 470.197 -2.61137 -2.76608 0
M  V30 4861 H 471.509 -3.26131 -3.77413 0
M  V30 4862 H 470.663 -1.96388 -5.74035 0
M  V30 4863 H 469.402 -1.20959 -4.72462 0
M  V30 4864 H 468.407 -3.46836 -4.26597 0
M  V30 4865 H 469.632 -4.22582 -5.31603 0
M  V30 4866 H 467.578 -2.16067 -6.19396 0
M  V30 4867 H 467.495 -3.86503 -6.49732 0
M  V30 4868 H 468.763 -2.92485 -7.22546 0
M  V30 4869 N 472.992 0.995999 -1.22138 0
M  V30 4870 C 473.902 2.11985 -1.00496 0
M  V30 4871 C 474.918 1.7394 0.0457701 0
M  V30 4872 O 476.094 2.00868 -0.146273 0
M  V30 4873 C 473.159 3.41779 -0.582086 0
M  V30 4874 C 472.22 3.93943 -1.70608 0
M  V30 4875 C 471.453 5.17542 -1.30328 0
M  V30 4876 O 471.676 5.70114 -0.180743 0
M  V30 4877 O 470.61 5.63382 -2.11861 0
M  V30 4878 H 474.436 2.33123 -1.94647 0
M  V30 4879 H 472.021 1.10358 -1.00705 0
M  V30 4880 H 473.903 4.1989 -0.356467 0
M  V30 4881 H 472.578 3.22007 0.330592 0
M  V30 4882 H 471.485 3.17019 -1.98619 0
M  V30 4883 H 472.818 4.18141 -2.59651 0
M  V30 4884 N 474.47 1.03057 1.19235 0
M  V30 4885 C 475.7 0.746613 1.92638 0
M  V30 4886 C 476.108 -0.698708 1.75826 0
M  V30 4887 O 475.451 -1.487 1.07861 0
M  V30 4888 C 475.513 1.02024 3.44719 0
M  V30 4889 C 475.177 2.45745 3.85303 0
M  V30 4890 C 476.174 3.43887 3.8992 0
M  V30 4891 C 473.859 2.8019 4.16892 0
M  V30 4892 C 475.853 4.74529 4.2556 0
M  V30 4893 C 473.54 4.1104 4.52205 0
M  V30 4894 C 474.538 5.0802 4.56513 0
M  V30 4895 O 474.226 6.36527 4.91008 0
M  V30 4896 H 473.958 0.272401 0.618687 0
M  V30 4897 H 476.512 1.37853 1.52269 0
M  V30 4898 H 474.742 0.331184 3.85279 0
M  V30 4899 H 476.431 0.725677 3.9936 0
M  V30 4900 H 477.197 3.18614 3.65664 0
M  V30 4901 H 473.076 2.05382 4.12722 0
M  V30 4902 H 476.62 5.50222 4.28838 0
M  V30 4903 H 472.517 4.36086 4.7592 0
M  V30 4904 H 473.285 6.41025 5.08949 0
M  V30 4905 N 475.948 -1.35272 0.808662 0
M  V30 4906 C 476.895 -2.29764 0.218482 0
M  V30 4907 C 477.865 -1.52911 -0.648652 0
M  V30 4908 O 479.05 -1.81341 -0.593297 0
M  V30 4909 C 476.19 -3.39388 -0.625282 0
M  V30 4910 C 475.303 -4.31202 0.262516 0
M  V30 4911 C 474.438 -5.27919 -0.589451 0
M  V30 4912 C 473.477 -6.11371 0.298617 0
M  V30 4913 N 472.614 -7.0022 -0.513443 0
M  V30 4914 H 477.454 -2.79645 1.02968 0
M  V30 4915 H 474.991 -1.37629 0.519303 0
M  V30 4916 H 476.949 -4.01615 -1.12966 0
M  V30 4917 H 475.579 -2.90777 -1.40173 0
M  V30 4918 H 474.631 -3.69962 0.885013 0
M  V30 4919 H 475.943 -4.89748 0.945971 0
M  V30 4920 H 475.097 -5.95529 -1.15888 0
M  V30 4921 H 473.836 -4.69875 -1.30647 0
M  V30 4922 H 472.841 -5.42707 0.880301 0
M  V30 4923 H 474.066 -6.71494 1.01352 0
M  V30 4924 H 472.012 -6.44662 -1.21439 0
M  V30 4925 H 471.929 -7.55917 0.111922 0
M  V30 4926 H 473.197 -7.72175 -1.06608 0
M  V30 4927 N 477.426 -0.562348 -1.47226 0
M  V30 4928 C 478.666 -0.0426374 -2.04356 0
M  V30 4929 C 479.03 1.28487 -1.42671 0
M  V30 4930 O 480.231 1.89259 -1.90878 0
M  V30 4931 C 478.502 0.0433826 -3.57374 0
M  V30 4932 S 480.061 0.508472 -4.35844 0
M  V30 4933 H 476.879 -0.0276234 -0.710463 0
M  V30 4934 H 479.481 -0.750245 -1.80531 0
M  V30 4935 H 478.185 -0.927072 -3.99792 0
M  V30 4936 H 477.716 0.774387 -3.85703 0
M  V30 4937 H 479.731 1.76719 -4.63665 0
M  V30 4938 N 478.904 1.54736 -0.299062 0
M  V30 4939 C 479.851 2.23448 0.577899 0
M  V30 4940 C 480.821 1.21637 1.13109 0
M  V30 4941 O 482.006 1.50252 1.17597 0
M  V30 4942 C 479.146 2.9774 1.74484 0
M  V30 4943 C 478.259 4.1432 1.22323 0
M  V30 4944 C 477.394 4.76199 2.35388 0
M  V30 4945 C 476.433 5.84927 1.80351 0
M  V30 4946 N 475.57 6.4077 2.86982 0
M  V30 4947 H 480.41 2.97996 -0.0146545 0
M  V30 4948 H 477.947 1.47088 -0.0190013 0
M  V30 4949 H 479.905 3.39045 2.43114 0
M  V30 4950 H 478.535 2.25572 2.30905 0
M  V30 4951 H 477.587 3.7797 0.429249 0
M  V30 4952 H 478.899 4.92659 0.780309 0
M  V30 4953 H 478.053 5.20346 3.11969 0
M  V30 4954 H 476.792 3.97188 2.83006 0
M  V30 4955 H 475.797 5.40207 1.02259 0
M  V30 4956 H 477.022 6.65821 1.3364 0
M  V30 4957 H 474.968 5.64643 3.33938 0
M  V30 4958 H 474.885 7.1445 2.4718 0
M  V30 4959 H 476.153 6.89574 3.63466 0
M  V30 4960 N 480.382 0.0267497 1.57577 0
M  V30 4961 C 481.628 -0.653371 1.91987 0
M  V30 4962 C 481.961 -1.71915 0.903263 0
M  V30 4963 O 481.236 -1.94358 -0.0743387 0
M  V30 4964 C 481.519 -1.272 3.36886 0
M  V30 4965 C 481.372 -0.215938 4.49281 0
M  V30 4966 C 482.691 -2.19069 3.81703 0
M  V30 4967 H 479.81 -0.236047 0.698177 0
M  V30 4968 H 482.452 0.0835236 1.89816 0
M  V30 4969 H 480.602 -1.90005 3.38866 0
M  V30 4970 H 482.274 0.41449 4.59434 0
M  V30 4971 H 480.517 0.458855 4.31366 0
M  V30 4972 H 481.188 -0.688347 5.47691 0
M  V30 4973 H 483.664 -1.66253 3.81444 0
M  V30 4974 H 482.54 -2.59307 4.83788 0
M  V30 4975 H 482.801 -3.08087 3.17072 0
M  V30 4976 N 481.861 -1.55662 -0.24637 0
M  V30 4977 C 483.086 -1.81914 -0.996093 0
M  V30 4978 C 483.511 -0.603875 -1.78143 0
M  V30 4979 O 482.869 0.447091 -1.75701 0
M  V30 4980 C 482.917 -3.05908 -1.90925 0
M  V30 4981 O 482.021 -2.82861 -3.00105 0
M  V30 4982 H 481.362 -0.600481 -0.283406 0
M  V30 4983 H 483.892 -2.02848 -0.267199 0
M  V30 4984 H 483.902 -3.35356 -2.3238 0
M  V30 4985 H 482.577 -3.93999 -1.33183 0
M  V30 4986 H 481.154 -2.64583 -2.62775 0
M  V30 4987 N 483.339 0.512053 -1.4905 0
M  V30 4988 C 484.287 1.63568 -1.65373 0
M  V30 4989 C 485.281 1.61228 -0.519806 0
M  V30 4990 O 486.487 1.65869 -0.699101 0
M  V30 4991 H 482.862 0.542019 -0.521267 0
M  V30 4992 H 484.833 1.4695 -2.59708 0
M  V30 4993 C 483.582 3.01761 -1.7273 0
M  V30 4994 H 482.905 3.04263 -2.59353 0
M  V30 4995 H 484.345 3.79948 -1.8819 0
M  V30 4996 C 482.804 3.33609 -0.46973 0
M  V30 4997 O 483.334 3.99607 0.409492 0
M  V30 4998 N 481.54 2.88651 -0.336003 0
M  V30 4999 H 481.087 2.35119 -1.05247 0
M  V30 5000 H 481.045 3.10328 0.504363 0
M  V30 5001 N 484.817 1.37938 0.762283 0
M  V30 5002 C 485.764 1.34467 1.87583 0
M  V30 5003 C 486.734 0.208633 1.64785 0
M  V30 5004 O 487.919 0.399494 1.86571 0
M  V30 5005 C 485.059 1.16692 3.24772 0
M  V30 5006 C 484.172 2.39608 3.59461 0
M  V30 5007 C 483.307 2.14631 4.85908 0
M  V30 5008 C 482.346 3.33364 5.13357 0
M  V30 5009 N 481.483 3.07877 6.30996 0
M  V30 5010 H 486.323 2.29669 1.89885 0
M  V30 5011 H 483.86 1.14116 0.928219 0
M  V30 5012 H 485.818 1.04405 4.03925 0
M  V30 5013 H 484.448 0.251333 3.2182 0
M  V30 5014 H 483.5 2.626 2.75219 0
M  V30 5015 H 484.812 3.28128 3.75678 0
M  V30 5016 H 483.966 1.99429 5.72986 0
M  V30 5017 H 482.705 1.23463 4.71814 0
M  V30 5018 H 481.71 3.49094 4.24751 0
M  V30 5019 H 482.935 4.25395 5.29354 0
M  V30 5020 H 480.881 2.19348 6.18241 0
M  V30 5021 H 480.798 3.89944 6.47673 0
M  V30 5022 H 482.066 2.96313 7.20985 0
M  V30 5023 N 486.295 -0.989507 1.22664 0
M  V30 5024 C 487.543 -1.72612 1.05117 0
M  V30 5025 C 487.864 -1.90552 -0.414131 0
M  V30 5026 O 487.134 -1.4676 -1.29762 0
M  V30 5027 H 485.714 -0.639555 0.385977 0
M  V30 5028 H 488.376 -1.19158 1.54232 0
M  V30 5029 H 487.472 -2.71926 1.53175 0
M  V30 5030 N 487.773 -1.03688 -1.18687 0
M  V30 5031 C 488.703 -0.645407 -2.24403 0
M  V30 5032 C 489.684 0.349511 -1.66471 0
M  V30 5033 O 490.869 0.230453 -1.92828 0
M  V30 5034 C 487.999 -0.00365337 -3.473 0
M  V30 5035 C 486.953 -0.921705 -4.17958 0
M  V30 5036 C 486.279 -0.144629 -5.34504 0
M  V30 5037 C 487.579 -2.23909 -4.71871 0
M  V30 5038 H 489.273 -1.52917 -2.57404 0
M  V30 5039 H 486.819 -0.736711 -1.23728 0
M  V30 5040 H 488.772 0.281908 -4.20456 0
M  V30 5041 H 487.496 0.914963 -3.13522 0
M  V30 5042 H 486.155 -1.19159 -3.46694 0
M  V30 5043 H 485.803 0.776274 -4.96974 0
M  V30 5044 H 485.503 -0.756206 -5.82714 0
M  V30 5045 H 487.027 0.134004 -6.10453 0
M  V30 5046 H 488.441 -2.0145 -5.36741 0
M  V30 5047 H 486.838 -2.8033 -5.30599 0
M  V30 5048 H 487.908 -2.88822 -3.895 0
M  V30 5049 N 489.251 1.34841 -0.815825 0
M  V30 5050 C 490.662 1.80937 -0.46029 0
M  V30 5051 C 491.013 1.67685 1.01863 0
M  V30 5052 O 490.138 1.21277 1.79223 0
M  V30 5053 C 490.733 3.28509 -0.828708 0
M  V30 5054 C 489.292 3.72712 -0.525644 0
M  V30 5055 C 488.439 2.56676 -1.04941 0
M  V30 5056 H 491.39 1.22688 -1.00664 0
M  V30 5057 H 491.411 3.80279 -0.129757 0
M  V30 5058 H 490.923 3.38122 -1.90513 0
M  V30 5059 H 489.024 3.68642 0.541666 0
M  V30 5060 H 489.137 4.67119 -1.06474 0
M  V30 5061 H 487.501 2.50302 -0.471286 0
M  V30 5062 H 488.284 2.69063 -2.13214 0
M  V30 5063 N 490.729 0.570148 1.46925 0
M  V30 5064 C 491.954 0.0542592 2.07329 0
M  V30 5065 C 492.379 -1.23582 1.41806 0
M  V30 5066 O 491.737 -1.74341 0.497479 0
M  V30 5067 C 491.785 -0.111175 3.60429 0
M  V30 5068 O 490.889 -1.17071 3.95434 0
M  V30 5069 H 490.23 0.0571425 0.661537 0
M  V30 5070 H 492.76 0.789516 1.88753 0
M  V30 5071 H 492.77 -0.321315 4.06733 0
M  V30 5072 H 491.445 0.831012 4.07513 0
M  V30 5073 H 490.022 -0.940029 3.60857 0
M  V30 5074 N 492.207 -1.54576 0.307264 0
M  V30 5075 C 493.432 -2.05139 -0.305379 0
M  V30 5076 C 493.857 -1.18278 -1.46259 0
M  V30 5077 O 493.215 -0.188243 -1.8032 0
M  V30 5078 C 493.263 -3.53066 -0.733283 0
M  V30 5079 O 492.367 -3.69206 -1.83741 0
M  V30 5080 H 491.708 -0.661444 -0.0582105 0
M  V30 5081 H 494.238 -1.99569 0.450931 0
M  V30 5082 H 494.248 -3.95034 -1.02039 0
M  V30 5083 H 492.923 -4.15746 0.113198 0
M  V30 5084 H 491.5 -3.39143 -1.55037 0
M  V30 5085 N 493.685 -0.035106 -1.57561 0
M  V30 5086 C 494.934 0.641604 -1.91223 0
M  V30 5087 C 495.247 1.72944 -0.913761 0
M  V30 5088 O 496.453 2.46321 -1.14185 0
M  V30 5089 C 494.909 1.19249 -3.3957 0
M  V30 5090 C 494.517 0.137616 -4.47789 0
M  V30 5091 C 496.261 1.84537 -3.82291 0
M  V30 5092 C 494.168 0.700478 -5.87237 0
M  V30 5093 H 493.098 0.243417 -0.713627 0
M  V30 5094 H 495.749 -0.101382 -1.8322 0
M  V30 5095 H 494.131 1.98728 -3.42525 0
M  V30 5096 H 495.305 -0.635153 -4.56402 0
M  V30 5097 H 493.62 -0.416855 -4.14308 0
M  V30 5098 H 496.217 2.27616 -4.83834 0
M  V30 5099 H 496.56 2.69054 -3.17672 0
M  V30 5100 H 497.093 1.11739 -3.81784 0
M  V30 5101 H 493.832 -0.106693 -6.55413 0
M  V30 5102 H 493.352 1.4416 -5.82218 0
M  V30 5103 H 495.031 1.18837 -6.35993 0
M  V30 5104 N 495.163 1.55791 0.238111 0
M  V30 5105 C 496.073 1.94196 1.31625 0
M  V30 5106 C 497.089 0.843545 1.52185 0
M  V30 5107 O 498.265 1.1457 1.65637 0
M  V30 5108 C 495.33 2.2365 2.64918 0
M  V30 5109 C 494.391 3.46971 2.52804 0
M  V30 5110 C 493.624 3.7501 3.79741 0
M  V30 5111 O 493.847 3.04982 4.82019 0
M  V30 5112 O 492.781 4.68525 3.77846 0
M  V30 5113 H 496.607 2.86044 1.02043 0
M  V30 5114 H 494.192 1.42786 0.439603 0
M  V30 5115 H 496.074 2.43863 3.4367 0
M  V30 5116 H 494.749 1.34979 2.94215 0
M  V30 5117 H 493.656 3.32055 1.72309 0
M  V30 5118 H 494.989 4.35971 2.28451 0
M  V30 5119 N 496.642 -0.504142 1.49319 0
M  V30 5120 C 497.589 -1.60603 1.65756 0
M  V30 5121 C 498.559 -1.58425 0.499082 0
M  V30 5122 O 499.744 -1.76459 0.725728 0
M  V30 5123 C 496.884 -2.98764 1.72726 0
M  V30 5124 C 495.997 -3.10982 2.99857 0
M  V30 5125 C 495.132 -4.39857 2.97824 0
M  V30 5126 C 494.171 -4.45697 4.19548 0
M  V30 5127 N 493.308 -5.65995 4.15444 0
M  V30 5128 H 498.148 -1.45895 2.59843 0
M  V30 5129 H 495.685 -0.709891 1.28837 0
M  V30 5130 H 497.643 -3.78839 1.74747 0
M  V30 5131 H 496.273 -3.12183 0.821075 0
M  V30 5132 H 495.325 -2.23991 3.07461 0
M  V30 5133 H 496.637 -3.11157 3.89849 0
M  V30 5134 H 495.791 -5.2825 2.98391 0
M  V30 5135 H 494.53 -4.42242 2.05604 0
M  V30 5136 H 493.535 -3.55707 4.19229 0
M  V30 5137 H 494.76 -4.4503 5.12957 0
M  V30 5138 H 492.706 -5.69229 3.26059 0
M  V30 5139 H 492.623 -5.67773 4.99169 0
M  V30 5140 H 493.891 -6.56604 4.20109 0
M  V30 5141 N 498.12 -1.38341 -0.754957 0
M  V30 5142 C 499.348 -1.37704 -1.54419 0
M  V30 5143 C 499.763 0.0335243 -1.8877 0
M  V30 5144 O 499.12 0.999773 -1.52679 0
M  V30 5145 C 499.171 -2.23136 -2.84416 0
M  V30 5146 O 498.892 -3.58697 -2.51531 0
M  V30 5147 C 500.393 -2.30664 -3.78562 0
M  V30 5148 H 497.613 -0.471061 -0.477852 0
M  V30 5149 H 500.157 -1.81902 -0.934446 0
M  V30 5150 H 498.312 -1.82403 -3.41772 0
M  V30 5151 H 498.726 -4.03665 -3.34896 0
M  V30 5152 H 500.2 -2.9473 -4.66732 0
M  V30 5153 H 500.677 -1.3199 -4.18898 0
M  V30 5154 H 501.283 -2.71781 -3.27131 0
M  V30 5155 N 499.598 0.982988 -1.23187 0
M  V30 5156 C 500.847 1.71817 -1.05649 0
M  V30 5157 C 501.16 1.91315 0.407176 0
M  V30 5158 O 502.366 2.62256 0.702436 0
M  V30 5159 C 500.822 3.09188 -1.84203 0
M  V30 5160 C 500.43 2.97586 -3.34882 0
M  V30 5161 C 502.174 3.86684 -1.75146 0
M  V30 5162 C 500.081 4.30173 -4.05839 0
M  V30 5163 H 499.011 0.644258 -0.391724 0
M  V30 5164 H 501.662 1.09659 -1.4713 0
M  V30 5165 H 500.044 3.72087 -1.35527 0
M  V30 5166 H 501.218 2.43793 -3.91026 0
M  V30 5167 H 499.533 2.33567 -3.44725 0
M  V30 5168 H 502.13 4.84836 -2.25473 0
M  V30 5169 H 502.473 4.10136 -0.713737 0
M  V30 5170 H 503.006 3.30482 -2.21419 0
M  V30 5171 H 499.745 4.11918 -5.09906 0
M  V30 5172 H 499.265 4.83841 -3.54482 0
M  V30 5173 H 500.944 4.98873 -4.11989 0
M  V30 5174 N 501.076 1.04316 1.18135 0
M  V30 5175 C 502.301 0.768047 1.92655 0
M  V30 5176 C 502.726 -0.66904 1.758 0
M  V30 5177 O 502.084 -1.46372 1.06981 0
M  V30 5178 C 502.132 1.14239 3.42026 0
M  V30 5179 O 501.236 0.269333 4.1152 0
M  V30 5180 H 500.577 0.282436 0.600937 0
M  V30 5181 H 503.107 1.39367 1.49793 0
M  V30 5182 H 503.117 1.10538 3.92741 0
M  V30 5183 H 501.792 2.18928 3.53615 0
M  V30 5184 H 500.369 0.366175 3.71098 0
M  V30 5185 N 502.554 -1.34406 0.822964 0
M  V30 5186 C 503.501 -2.29519 0.24284 0
M  V30 5187 C 504.471 -1.5359 -0.632397 0
M  V30 5188 O 505.656 -1.8196 -0.57403 0
M  V30 5189 C 502.796 -3.40032 -0.58925 0
M  V30 5190 C 501.909 -4.30899 0.308236 0
M  V30 5191 C 501.044 -5.28515 -0.533425 0
M  V30 5192 C 500.083 -6.1102 0.363444 0
M  V30 5193 N 499.22 -7.00725 -0.439147 0
M  V30 5194 H 504.06 -2.78537 1.05929 0
M  V30 5195 H 501.597 -1.3707 0.533872 0
M  V30 5196 H 503.555 -4.0279 -1.087 0
M  V30 5197 H 502.185 -2.92248 -1.37081 0
M  V30 5198 H 501.237 -3.69002 0.924203 0
M  V30 5199 H 502.549 -4.88717 0.997862 0
M  V30 5200 H 501.703 -5.96725 -1.09565 0
M  V30 5201 H 500.442 -4.71235 -1.25656 0
M  V30 5202 H 499.447 -5.41743 0.937812 0
M  V30 5203 H 500.672 -6.70381 1.08469 0
M  V30 5204 H 498.618 -6.45913 -1.14595 0
M  V30 5205 H 498.535 -7.55756 0.19209 0
M  V30 5206 H 499.803 -7.73263 -0.984124 0
M  V30 5207 N 504.032 -0.577932 -1.46621 0
M  V30 5208 C 504.995 0.147805 -2.28723 0
M  V30 5209 C 505.995 0.823325 -1.38123 0
M  V30 5210 O 507.185 0.676011 -1.60548 0
M  V30 5211 C 504.317 1.21853 -3.18378 0
M  V30 5212 H 505.51 -0.573654 -2.94362 0
M  V30 5213 H 503.063 -0.335703 -1.52652 0
M  V30 5214 H 503.798 1.97173 -2.57475 0
M  V30 5215 H 503.583 0.738714 -3.85078 0
M  V30 5216 H 505.073 1.72768 -3.80186 0
M  V30 5217 N 505.51 1.54411 -0.315457 0
M  V30 5218 C 506.457 2.24048 0.554166 0
M  V30 5219 C 507.427 1.2283 1.11812 0
M  V30 5220 O 508.612 1.51491 1.15997 0
M  V30 5221 C 505.752 2.99574 1.71316 0
M  V30 5222 C 504.865 4.15594 1.17922 0
M  V30 5223 C 504 4.78669 2.30324 0
M  V30 5224 C 503.039 5.86807 1.74137 0
M  V30 5225 N 502.176 6.43777 2.8017 0
M  V30 5226 H 507.016 2.97964 -0.0462602 0
M  V30 5227 H 504.553 1.47059 -0.0346009 0
M  V30 5228 H 506.511 3.41604 2.39505 0
M  V30 5229 H 505.141 2.28008 2.285 0
M  V30 5230 H 504.193 3.78404 0.389136 0
M  V30 5231 H 505.505 4.93459 0.728012 0
M  V30 5232 H 504.659 5.23626 3.06433 0
M  V30 5233 H 503.398 4.00168 2.78778 0
M  V30 5234 H 502.403 5.41261 0.965236 0
M  V30 5235 H 503.628 6.67201 1.2657 0
M  V30 5236 H 501.574 5.68153 3.2793 0
M  V30 5237 H 501.491 7.17031 2.39588 0
M  V30 5238 H 502.759 6.9339 3.56132 0
M  V30 5239 N 506.988 0.0434614 1.5754 0
M  V30 5240 C 508.236 -0.630786 1.92004 0
M  V30 5241 C 508.557 -1.71836 0.921807 0
M  V30 5242 O 507.827 -1.9587 -0.034522 0
M  V30 5243 H 506.407 -0.235988 0.708745 0
M  V30 5244 H 509.069 0.0946462 1.9467 0
M  V30 5245 H 508.165 -1.07434 2.93026 0
M  V30 5246 N 508.466 -1.55915 -0.229846 0
M  V30 5247 C 509.398 -1.88209 -1.30805 0
M  V30 5248 C 510.411 -0.769672 -1.43457 0
M  V30 5249 O 511.6 -1.04792 -1.44502 0
M  V30 5250 C 508.7 -2.06829 -2.68468 0
M  V30 5251 C 507.873 -3.37798 -2.77869 0
M  V30 5252 C 506.932 -3.45952 -3.96489 0
M  V30 5253 O 505.958 -4.19043 -3.85216 0
M  V30 5254 N 507.16 -2.76488 -5.10426 0
M  V30 5255 H 509.925 -2.81286 -1.03431 0
M  V30 5256 H 507.486 -1.5636 -0.41991 0
M  V30 5257 H 509.478 -2.09608 -3.46189 0
M  V30 5258 H 508.048 -1.20416 -2.88477 0
M  V30 5259 H 507.268 -3.4719 -1.86689 0
M  V30 5260 H 508.556 -4.24091 -2.81113 0
M  V30 5261 H 507.954 -2.16868 -5.2248 0
M  V30 5262 H 506.511 -2.84938 -5.8622 0
M  V30 5263 N 509.944 0.496216 -1.49584 0
M  V30 5264 C 511.355 1.07765 -1.52459 0
M  V30 5265 C 511.706 1.93679 -0.31353 0
M  V30 5266 O 510.831 2.08588 0.576186 0
M  V30 5267 C 511.426 1.96111 -2.76271 0
M  V30 5268 C 509.985 2.49409 -2.81908 0
M  V30 5269 C 509.132 1.27142 -2.46435 0
M  V30 5270 H 512.083 0.279914 -1.56212 0
M  V30 5271 H 512.104 2.80862 -2.56704 0
M  V30 5272 H 511.616 1.33555 -3.64396 0
M  V30 5273 H 509.717 3.1559 -1.98074 0
M  V30 5274 H 509.83 2.86234 -3.84196 0
M  V30 5275 H 508.194 1.59818 -1.98319 0
M  V30 5276 H 508.977 0.662866 -3.3684 0
M  V30 5277 N 511.423 1.38739 0.74761 0
M  V30 5278 C 512.839 1.20067 1.05148 0
M  V30 5279 C 513.039 0.0534835 2.01429 0
M  V30 5280 O 512.095 -0.59886 2.45296 0
M  V30 5281 C 513.408 2.52957 1.62584 0
M  V30 5282 C 514.956 2.59692 1.74726 0
M  V30 5283 C 515.431 3.92772 2.35573 0
M  V30 5284 N 516.922 3.94343 2.42997 0
M  V30 5285 C 517.657 4.9408 2.90985 0
M  V30 5286 N 517.153 6.04214 3.38965 0
M  V30 5287 N 518.946 4.81466 2.9008 0
M  V30 5288 H 511.097 2.12121 0.108808 0
M  V30 5289 H 513.36 0.941491 0.110899 0
M  V30 5290 H 513.066 3.37389 0.993051 0
M  V30 5291 H 512.94 2.71779 2.61565 0
M  V30 5292 H 515.327 1.75651 2.3713 0
M  V30 5293 H 515.408 2.44731 0.744326 0
M  V30 5294 H 515.052 4.77238 1.738 0
M  V30 5295 H 514.982 4.05046 3.36519 0
M  V30 5296 H 517.473 3.14799 2.0907 0
M  V30 5297 H 517.786 6.76241 3.74056 0
M  V30 5298 H 516.131 6.07825 3.37007 0
M  V30 5299 H 519.322 3.94535 2.51912 0
M  V30 5300 H 519.495 5.59344 3.27166 0
M  V30 5301 N 512.901 -0.976442 1.23707 0
M  V30 5302 C 513.811 -2.10359 1.03856 0
M  V30 5303 C 514.827 -1.73991 -0.0180919 0
M  V30 5304 O 516.003 -2.0061 0.178211 0
M  V30 5305 C 513.068 -3.40809 0.636387 0
M  V30 5306 C 512.129 -3.91179 1.76854 0
M  V30 5307 C 511.362 -5.15404 1.38546 0
M  V30 5308 O 511.585 -5.69754 0.27142 0
M  V30 5309 O 510.519 -5.5994 2.20797 0
M  V30 5310 H 514.345 -2.29997 1.98331 0
M  V30 5311 H 511.93 -1.08742 1.02448 0
M  V30 5312 H 513.812 -4.19269 0.423223 0
M  V30 5313 H 512.487 -3.22493 -0.279322 0
M  V30 5314 H 511.394 -3.13819 2.03638 0
M  V30 5315 H 512.727 -4.13958 2.6627 0
M  V30 5316 N 514.379 -1.04941 -1.1758 0
M  V30 5317 C 515.79 -0.784501 -1.69418 0
M  V30 5318 C 516.141 0.693625 -1.8353 0
M  V30 5319 O 515.266 1.53925 -1.52106 0
M  V30 5320 C 515.861 -1.41746 -3.07723 0
M  V30 5321 C 514.42 -1.20066 -3.56737 0
M  V30 5322 C 513.567 -1.5026 -2.33061 0
M  V30 5323 H 516.518 -1.21469 -1.02133 0
M  V30 5324 H 516.539 -0.825381 -3.7144 0
M  V30 5325 H 516.051 -2.49325 -2.9742 0
M  V30 5326 H 514.152 -0.144006 -3.72322 0
M  V30 5327 H 514.265 -1.90384 -4.39648 0
M  V30 5328 H 512.629 -0.922598 -2.37403 0
M  V30 5329 H 513.412 -2.58967 -2.25368 0
M  V30 5330 N 515.857 1.33968 -0.830081 0
M  V30 5331 C 516.789 2.28194 -0.21448 0
M  V30 5332 C 517.802 1.5135 0.599752 0
M  V30 5333 O 518.991 1.73286 0.42826 0
M  V30 5334 C 516.091 3.31221 0.717356 0
M  V30 5335 C 515.264 4.37365 -0.055613 0
M  V30 5336 C 514.323 5.2011 0.798231 0
M  V30 5337 O 513.349 5.68691 0.240616 0
M  V30 5338 N 514.551 5.40523 2.11695 0
M  V30 5339 H 517.316 2.81662 -1.02405 0
M  V30 5340 H 514.877 1.46568 -0.687713 0
M  V30 5341 H 516.869 3.83477 1.29334 0
M  V30 5342 H 515.439 2.78095 1.42765 0
M  V30 5343 H 514.659 3.85727 -0.812936 0
M  V30 5344 H 515.947 5.05397 -0.587444 0
M  V30 5345 H 515.345 5.0274 2.59363 0
M  V30 5346 H 513.902 5.95871 2.64162 0
M  V30 5347 N 517.335 0.585699 1.46312 0
M  V30 5348 C 518.581 0.0725284 2.0267 0
M  V30 5349 C 518.914 -1.28523 1.45586 0
M  V30 5350 O 518.189 -1.84283 0.622101 0
M  V30 5351 C 518.472 0.0099788 3.60099 0
M  V30 5352 C 518.325 1.39685 4.27561 0
M  V30 5353 C 519.644 -0.689117 4.34671 0
M  V30 5354 H 516.763 0.0278307 0.736474 0
M  V30 5355 H 519.405 0.753472 1.74421 0
M  V30 5356 H 517.555 -0.56992 3.84297 0
M  V30 5357 H 519.227 2.02215 4.14617 0
M  V30 5358 H 517.47 1.96374 3.86807 0
M  V30 5359 H 518.141 1.30553 5.36339 0
M  V30 5360 H 520.617 -0.196446 4.15636 0
M  V30 5361 H 519.493 -0.701921 5.44393 0
M  V30 5362 H 519.754 -1.75101 4.05946 0
M  V30 5363 N 518.813 -1.54241 0.323641 0
M  V30 5364 C 520.043 -2.04687 -0.280464 0
M  V30 5365 C 520.451 -1.19939 -1.46326 0
M  V30 5366 O 519.794 -0.222872 -1.82343 0
M  V30 5367 C 519.856 -3.50978 -0.778123 0
M  V30 5368 C 519.52 -4.56127 0.282371 0
M  V30 5369 C 520.517 -5.07726 1.11847 0
M  V30 5370 C 518.202 -5.00451 0.430582 0
M  V30 5371 C 520.196 -6.02212 2.08851 0
M  V30 5372 C 517.883 -5.94752 1.40404 0
M  V30 5373 C 518.881 -6.45519 2.23147 0
M  V30 5374 O 518.569 -7.37968 3.1884 0
M  V30 5375 H 518.301 -0.673192 -0.0615473 0
M  V30 5376 H 520.855 -1.99999 0.467921 0
M  V30 5377 H 519.085 -3.53064 -1.57742 0
M  V30 5378 H 520.774 -3.84499 -1.30058 0
M  V30 5379 H 521.54 -4.74261 1.01496 0
M  V30 5380 H 517.419 -4.6055 -0.203569 0
M  V30 5381 H 520.963 -6.41761 2.73474 0
M  V30 5382 H 516.86 -6.27633 1.5082 0
M  V30 5383 H 517.628 -7.55841 3.14079 0
M  V30 5384 N 520.291 -0.0518155 -1.57515 0
M  V30 5385 C 521.519 0.631395 -1.9703 0
M  V30 5386 C 521.934 1.64341 -0.92938 0
M  V30 5387 O 521.291 1.82296 0.0863266 0
M  V30 5388 C 521.342 1.31774 -3.36627 0
M  V30 5389 O 521.063 0.346247 -4.3673 0
M  V30 5390 C 522.564 2.09065 -3.90905 0
M  V30 5391 H 519.784 0.172576 -0.648428 0
M  V30 5392 H 522.328 -0.118306 -2.04158 0
M  V30 5393 H 520.483 2.01867 -3.30649 0
M  V30 5394 H 520.897 0.836226 -5.17791 0
M  V30 5395 H 522.371 2.52508 -4.9086 0
M  V30 5396 H 522.848 2.93908 -3.26366 0
M  V30 5397 H 523.454 1.43882 -4.00223 0
M  V30 5398 N 521.769 1.56035 0.221574 0
M  V30 5399 C 522.699 1.95434 1.2778 0
M  V30 5400 C 523.68 0.822564 1.48889 0
M  V30 5401 O 524.865 1.08486 1.61072 0
M  V30 5402 C 521.995 2.27102 2.62759 0
M  V30 5403 C 520.949 3.4277 2.56306 0
M  V30 5404 C 520.275 3.60043 3.95314 0
M  V30 5405 C 521.575 4.77742 2.11093 0
M  V30 5406 H 523.269 2.83912 0.950504 0
M  V30 5407 H 520.815 1.36596 0.455791 0
M  V30 5408 H 522.768 2.53256 3.36807 0
M  V30 5409 H 521.492 1.35478 2.97176 0
M  V30 5410 H 520.151 3.16664 1.84715 0
M  V30 5411 H 519.799 2.65794 4.27039 0
M  V30 5412 H 519.499 4.37841 3.91879 0
M  V30 5413 H 521.023 3.88545 4.71025 0
M  V30 5414 H 522.437 5.03102 2.74885 0
M  V30 5415 H 520.834 5.58823 2.18716 0
M  V30 5416 H 521.904 4.731 1.06321 0
M  V30 5417 N 523.247 -0.488276 1.49845 0
M  V30 5418 C 524.658 -1.06955 1.53028 0
M  V30 5419 C 525.009 -1.9351 0.323797 0
M  V30 5420 O 524.134 -2.08891 -0.565116 0
M  V30 5421 C 524.729 -1.94643 2.77307 0
M  V30 5422 C 523.288 -2.4791 2.83227 0
M  V30 5423 C 522.435 -1.25833 2.47106 0
M  V30 5424 H 525.386 -0.271626 1.56358 0
M  V30 5425 H 525.407 -2.79496 2.5819 0
M  V30 5426 H 524.919 -1.31621 3.65099 0
M  V30 5427 H 523.02 -3.14535 1.99745 0
M  V30 5428 H 523.133 -2.84193 3.85709 0
M  V30 5429 H 521.497 -1.58764 1.99163 0
M  V30 5430 H 522.28 -0.644993 3.37186 0
M  V30 5431 N 524.725 -1.39134 -0.740242 0
M  V30 5432 C 526.136 -1.32208 -1.31825 0
M  V30 5433 C 526.487 0.0159919 -1.96193 0
M  V30 5434 O 525.612 0.918111 -1.95958 0
M  V30 5435 C 526.207 -2.39436 -2.39699 0
M  V30 5436 C 524.766 -2.36048 -2.93187 0
M  V30 5437 C 523.913 -2.21599 -1.66701 0
M  V30 5438 H 526.864 -1.49298 -0.538133 0
M  V30 5439 H 526.885 -2.05922 -3.19963 0
M  V30 5440 H 526.397 -3.36811 -1.92821 0
M  V30 5441 H 524.498 -1.42295 -3.44359 0
M  V30 5442 H 524.611 -3.30704 -3.46658 0
M  V30 5443 H 522.975 -1.68681 -1.90837 0
M  V30 5444 H 523.758 -3.20936 -1.21882 0
M  V30 5445 N 526.204 0.969867 -1.24223 0
M  V30 5446 C 527.429 1.75289 -1.10853 0
M  V30 5447 C 527.854 1.85091 0.335079 0
M  V30 5448 O 527.212 1.32024 1.24255 0
M  V30 5449 C 527.26 3.15255 -1.75062 0
M  V30 5450 O 526.364 3.99589 -1.01992 0
M  V30 5451 H 525.705 0.538904 -0.387915 0
M  V30 5452 H 528.235 1.21675 -1.64488 0
M  V30 5453 H 528.245 3.65787 -1.80731 0
M  V30 5454 H 526.92 3.07436 -2.801 0
M  V30 5455 H 525.497 3.58077 -1.04094 0
M  V30 5456 N 527.682 1.05563 1.17022 0
M  V30 5457 C 528.614 0.617888 2.20714 0
M  V30 5458 C 529.627 -0.320303 1.59618 0
M  V30 5459 O 530.816 -0.112449 1.78145 0
M  V30 5460 C 527.916 -0.115333 3.38704 0
M  V30 5461 C 527.089 0.834493 4.29366 0
M  V30 5462 C 526.148 0.141855 5.26009 0
M  V30 5463 O 525.174 0.777151 5.6387 0
M  V30 5464 N 526.376 -1.11934 5.69606 0
M  V30 5465 H 529.141 1.50981 2.58892 0
M  V30 5466 H 526.702 0.938008 1.31958 0
M  V30 5467 H 528.694 -0.588918 4.00392 0
M  V30 5468 H 527.264 -0.908967 2.99093 0
M  V30 5469 H 526.484 1.48762 3.65053 0
M  V30 5470 H 527.772 1.4791 4.86827 0
M  V30 5471 H 527.17 -1.65574 5.40927 0
M  V30 5472 H 525.727 -1.53692 6.33421 0
M  V30 5473 N 529.16 -1.33526 0.837174 0
M  V30 5474 C 530.107 -2.29248 0.267169 0
M  V30 5475 C 531.077 -1.54252 -0.616071 0
M  V30 5476 O 532.262 -1.82559 -0.554699 0
M  V30 5477 C 529.402 -3.40638 -0.553152 0
M  V30 5478 C 528.515 -4.30548 0.353921 0
M  V30 5479 C 527.65 -5.29051 -0.477339 0
M  V30 5480 C 526.689 -6.106 0.42823 0
M  V30 5481 N 525.826 -7.01152 -0.364801 0
M  V30 5482 H 530.666 -2.77398 1.08877 0
M  V30 5483 H 528.203 -1.36496 0.54838 0
M  V30 5484 H 530.161 -4.03921 -1.04422 0
M  V30 5485 H 528.791 -2.93685 -1.33973 0
M  V30 5486 H 527.843 -3.68001 0.963289 0
M  V30 5487 H 529.155 -4.87631 1.04964 0
M  V30 5488 H 528.309 -5.97853 -1.0323 0
M  V30 5489 H 527.048 -4.72541 -1.2065 0
M  V30 5490 H 526.053 -5.40718 0.995219 0
M  V30 5491 H 527.278 -6.69193 1.15573 0
M  V30 5492 H 525.224 -6.47092 -1.07738 0
M  V30 5493 H 525.141 -7.5551 0.272238 0
M  V30 5494 H 526.409 -7.74263 -0.902054 0
M  V30 5495 N 530.638 -0.59345 -1.46 0
M  V30 5496 C 531.548 0.135817 -2.34207 0
M  V30 5497 C 532.564 0.875008 -1.50398 0
M  V30 5498 O 533.74 0.835778 -1.83239 0
M  V30 5499 C 530.805 1.12977 -3.27776 0
M  V30 5500 C 529.866 0.394081 -4.27487 0
M  V30 5501 C 529.099 1.34068 -5.16586 0
M  V30 5502 O 529.322 2.5778 -5.08828 0
M  V30 5503 O 528.256 0.845426 -5.95933 0
M  V30 5504 H 532.082 -0.588691 -2.9794 0
M  V30 5505 H 529.667 -0.353784 -1.45151 0
M  V30 5506 H 531.549 1.70261 -3.85473 0
M  V30 5507 H 530.224 1.83556 -2.66625 0
M  V30 5508 H 529.131 -0.220869 -3.73447 0
M  V30 5509 H 530.464 -0.270939 -4.91454 0
M  V30 5510 N 532.116 1.54067 -0.331816 0
M  V30 5511 C 533.049 2.20886 0.573127 0
M  V30 5512 C 534.027 1.18876 1.10938 0
M  V30 5513 O 535.211 1.47649 1.17184 0
M  V30 5514 C 532.338 2.87706 1.78726 0
M  V30 5515 C 531.384 4.03505 1.38152 0
M  V30 5516 S 532.217 5.33919 0.41123 0
M  V30 5517 C 533.373 6.04236 1.63246 0
M  V30 5518 H 533.606 2.97299 0.00555737 0
M  V30 5519 H 531.139 1.53964 -0.115893 0
M  V30 5520 H 533.097 3.26825 2.48386 0
M  V30 5521 H 531.758 2.1108 2.32603 0
M  V30 5522 H 530.951 4.49152 2.28645 0
M  V30 5523 H 530.553 3.66102 0.764524 0
M  V30 5524 H 532.845 6.26917 2.56869 0
M  V30 5525 H 533.788 6.97546 1.218 0
M  V30 5526 H 534.196 5.34247 1.82318 0
M  V30 5527 N 533.594 0.0601682 1.57485 0
M  V30 5528 C 534.822 -0.620937 1.97363 0
M  V30 5529 C 535.237 -1.63846 0.938082 0
M  V30 5530 O 534.594 -1.82339 -0.0766578 0
M  V30 5531 C 534.645 -1.29987 3.37321 0
M  V30 5532 O 534.366 -0.323081 4.36907 0
M  V30 5533 C 535.867 -2.06989 3.92008 0
M  V30 5534 H 533.087 -0.169135 0.649334 0
M  V30 5535 H 535.631 0.129132 2.04092 0
M  V30 5536 H 533.786 -2.0011 3.31715 0
M  V30 5537 H 534.2 -0.808754 5.18227 0
M  V30 5538 H 535.674 -2.49901 4.92192 0
M  V30 5539 H 536.151 -2.92173 3.2792 0
M  V30 5540 H 536.757 -1.41757 4.0098 0
M  V30 5541 N 535.072 -1.5615 -0.213296 0
M  V30 5542 C 536.019 -1.93086 -1.26437 0
M  V30 5543 C 536.989 -0.789086 -1.4616 0
M  V30 5544 O 538.174 -1.04569 -1.59593 0
M  V30 5545 C 535.314 -2.26003 -2.608 0
M  V30 5546 C 534.427 -3.53156 -2.48807 0
M  V30 5547 C 533.562 -3.7548 -3.7575 0
M  V30 5548 C 532.601 -4.96119 -3.58514 0
M  V30 5549 N 531.738 -5.14791 -4.77425 0
M  V30 5550 H 536.578 -2.82707 -0.942376 0
M  V30 5551 H 534.115 -1.39919 -0.454001 0
M  V30 5552 H 536.073 -2.431 -3.39055 0
M  V30 5553 H 534.703 -1.39546 -2.91079 0
M  V30 5554 H 533.755 -3.44207 -1.61944 0
M  V30 5555 H 535.067 -4.41565 -2.31996 0
M  V30 5556 H 534.221 -3.92718 -4.62447 0
M  V30 5557 H 532.96 -2.85368 -3.95495 0
M  V30 5558 H 531.965 -4.78823 -2.70201 0
M  V30 5559 H 533.19 -5.87724 -3.40231 0
M  V30 5560 H 531.136 -4.27623 -4.97468 0
M  V30 5561 H 531.053 -5.97347 -4.63371 0
M  V30 5562 H 532.321 -5.36471 -5.65525 0
M  V30 5563 N 536.55 0.480323 -1.50102 0
M  V30 5564 C 537.498 1.60024 -1.68805 0
M  V30 5565 C 538.492 1.60089 -0.553888 0
M  V30 5566 O 539.698 1.64349 -0.734127 0
M  V30 5567 H 536.073 0.530841 -0.532646 0
M  V30 5568 H 538.044 1.41408 -2.62767 0
M  V30 5569 C 536.793 2.98029 -1.79092 0
M  V30 5570 H 536.116 2.98694 -2.65748 0
M  V30 5571 H 537.556 3.75871 -1.96206 0
M  V30 5572 C 536.015 3.32538 -0.540388 0
M  V30 5573 O 536.545 4.00386 0.324637 0
M  V30 5574 N 534.751 2.87873 -0.397154 0
M  V30 5575 H 534.298 2.32834 -1.1021 0
M  V30 5576 H 534.256 3.11328 0.438425 0
M  V30 5577 N 538.028 1.39524 0.732853 0
M  V30 5578 C 538.96 1.34318 1.85718 0
M  V30 5579 C 539.973 0.251576 1.60844 0
M  V30 5580 O 541.162 0.510685 1.71039 0
M  V30 5581 C 538.262 1.06334 3.21786 0
M  V30 5582 C 537.435 2.26813 3.73998 0
M  V30 5583 C 536.494 1.95253 4.88634 0
M  V30 5584 O 535.52 2.67957 5.02183 0
M  V30 5585 N 536.722 0.919984 5.73164 0
M  V30 5586 H 539.487 2.3121 1.90688 0
M  V30 5587 H 537.048 1.33654 0.91368 0
M  V30 5588 H 539.04 0.832363 3.96048 0
M  V30 5589 H 537.61 0.181682 3.12072 0
M  V30 5590 H 536.83 2.65849 2.91064 0
M  V30 5591 H 538.118 3.0717 4.05616 0
M  V30 5592 H 537.516 0.317487 5.64808 0
M  V30 5593 H 536.073 0.748905 6.47483 0
M  V30 5594 N 539.506 -0.963266 1.24736 0
M  V30 5595 C 540.752 -1.70933 1.09131 0
M  V30 5596 C 541.085 -1.90676 -0.368273 0
M  V30 5597 O 540.36 -1.47147 -1.27193 0
M  V30 5598 C 540.643 -3.09744 1.83658 0
M  V30 5599 C 540.496 -2.97465 3.37394 0
M  V30 5600 C 541.815 -4.09483 1.61282 0
M  V30 5601 H 538.934 -0.620398 0.397838 0
M  V30 5602 H 541.576 -1.12028 1.53459 0
M  V30 5603 H 539.726 -3.60031 1.4598 0
M  V30 5604 H 541.398 -2.54571 3.84696 0
M  V30 5605 H 539.641 -2.33576 3.65547 0
M  V30 5606 H 540.312 -3.95822 3.84745 0
M  V30 5607 H 542.788 -3.68073 1.94066 0
M  V30 5608 H 541.664 -5.04666 2.15878 0
M  V30 5609 H 541.925 -4.38639 0.552102 0
M  V30 5610 N 540.985 -1.06182 -1.16461 0
M  V30 5611 C 542.21 -0.798599 -1.91408 0
M  V30 5612 C 542.635 0.640987 -1.76842 0
M  V30 5613 O 541.993 1.44652 -1.09296 0
M  V30 5614 C 542.041 -1.19665 -3.40165 0
M  V30 5615 O 541.145 -0.334768 -4.11039 0
M  V30 5616 H 540.486 -0.291961 -0.596368 0
M  V30 5617 H 543.016 -1.41732 -1.47557 0
M  V30 5618 H 543.026 -1.16772 -3.90933 0
M  V30 5619 H 541.701 -2.24526 -3.50087 0
M  V30 5620 H 540.278 -0.425168 -3.70468 0
M  V30 5621 N 542.463 1.3308 -0.844243 0
M  V30 5622 C 543.393 2.3161 -0.296493 0
M  V30 5623 C 544.374 1.59215 0.598707 0
M  V30 5624 O 545.559 1.87077 0.521134 0
M  V30 5625 C 542.689 3.43313 0.524762 0
M  V30 5626 C 541.643 4.27115 -0.275106 0
M  V30 5627 C 540.969 5.30483 0.670236 0
M  V30 5628 C 542.269 5.00443 -1.49514 0
M  V30 5629 H 543.963 2.77672 -1.11976 0
M  V30 5630 H 541.509 1.33496 -0.539899 0
M  V30 5631 H 543.462 4.11273 0.918298 0
M  V30 5632 H 542.186 2.95952 1.3813 0
M  V30 5633 H 540.845 3.60787 -0.650267 0
M  V30 5634 H 540.493 4.79379 1.52332 0
M  V30 5635 H 540.193 5.87435 0.139123 0
M  V30 5636 H 541.717 6.01308 1.06117 0
M  V30 5637 H 543.131 5.61141 -1.17447 0
M  V30 5638 H 541.528 5.67071 -1.96343 0
M  V30 5639 H 542.598 4.28906 -2.26202 0
M  V30 5640 N 543.941 0.601185 1.45683 0
M  V30 5641 C 545.169 0.100054 2.06658 0
M  V30 5642 C 545.584 -1.21285 1.44691 0
M  V30 5643 O 544.941 -1.73735 0.558772 0
M  V30 5644 C 544.992 -0.0528579 3.61461 0
M  V30 5645 O 544.713 1.20809 4.21114 0
M  V30 5646 C 546.214 -0.586193 4.39407 0
M  V30 5647 H 543.434 0.065905 0.667756 0
M  V30 5648 H 545.978 0.827101 1.87028 0
M  V30 5649 H 544.133 -0.730203 3.80456 0
M  V30 5650 H 544.547 1.03368 5.14213 0
M  V30 5651 H 546.021 -0.642297 5.4825 0
M  V30 5652 H 546.498 -1.60713 4.0874 0
M  V30 5653 H 547.104 0.0568935 4.25262 0
M  V30 5654 N 545.419 -1.53889 0.339982 0
M  V30 5655 C 546.659 -2.02765 -0.258011 0
M  V30 5656 C 547.023 -1.22249 -1.48051 0
M  V30 5657 O 548.224 -1.61007 -2.15245 0
M  V30 5658 C 546.495 -3.5286 -0.567872 0
M  V30 5659 S 548.054 -4.23647 -1.14318 0
M  V30 5660 H 544.872 -0.706814 -0.0770389 0
M  V30 5661 H 547.474 -1.89594 0.476917 0
M  V30 5662 H 546.178 -4.09073 0.329745 0
M  V30 5663 H 545.709 -3.70144 -1.33256 0
M  V30 5664 H 547.724 -4.32676 -2.42911 0
M  V30 5665 N 546.897 -0.0685191 -1.57451 0
M  V30 5666 C 547.827 0.89747 -2.15564 0
M  V30 5667 C 548.808 1.31266 -1.08181 0
M  V30 5668 O 549.993 1.38429 -1.36202 0
M  V30 5669 C 547.123 2.16623 -2.71463 0
M  V30 5670 C 546.077 1.89054 -3.83982 0
M  V30 5671 C 545.403 3.22532 -4.26471 0
M  V30 5672 C 546.703 1.1984 -5.08366 0
M  V30 5673 H 548.397 0.413373 -2.96533 0
M  V30 5674 H 545.943 0.197391 -1.42641 0
M  V30 5675 H 547.896 2.84614 -3.10761 0
M  V30 5676 H 546.62 2.67269 -1.8771 0
M  V30 5677 H 545.279 1.23469 -3.45183 0
M  V30 5678 H 544.927 3.71013 -3.39644 0
M  V30 5679 H 544.627 3.04879 -5.02317 0
M  V30 5680 H 546.151 3.91727 -4.68383 0
M  V30 5681 H 547.565 1.77896 -5.45001 0
M  V30 5682 H 545.962 1.12456 -5.89469 0
M  V30 5683 H 547.032 0.176996 -4.84577 0
M  V30 5684 N 548.375 1.56261 0.205012 0
M  V30 5685 C 549.621 1.80306 0.9283 0
M  V30 5686 C 549.954 0.640932 1.83319 0
M  V30 5687 O 549.229 -0.359032 1.91158 0
M  V30 5688 C 549.512 3.14547 1.75306 0
M  V30 5689 C 549.365 4.41236 0.873562 0
M  V30 5690 C 550.684 3.45382 2.72762 0
M  V30 5691 H 547.803 0.655929 0.336044 0
M  V30 5692 H 550.445 1.88984 0.196211 0
M  V30 5693 H 548.595 3.0728 2.37721 0
M  V30 5694 H 550.267 4.60539 0.264887 0
M  V30 5695 H 548.51 4.33427 0.179773 0
M  V30 5696 H 549.181 5.31639 1.48541 0
M  V30 5697 H 551.657 3.52884 2.20481 0
M  V30 5698 H 550.533 4.40449 3.2756 0
M  V30 5699 H 550.794 2.68377 3.51321 0
M  V30 5700 N 549.853 -0.472356 1.50355 0
M  V30 5701 C 550.8 -1.57051 1.69126 0
M  V30 5702 C 551.77 -1.5733 0.532574 0
M  V30 5703 O 552.955 -1.7488 0.762994 0
M  V30 5704 C 550.095 -2.95033 1.79024 0
M  V30 5705 C 549.208 -3.04552 3.06386 0
M  V30 5706 C 548.343 -4.33441 3.07087 0
M  V30 5707 C 547.382 -4.36697 4.28908 0
M  V30 5708 N 546.519 -5.57056 4.27356 0
M  V30 5709 H 551.359 -1.40351 2.62879 0
M  V30 5710 H 548.896 -0.682403 1.30314 0
M  V30 5711 H 550.854 -3.75048 1.82744 0
M  V30 5712 H 549.484 -3.10371 0.887109 0
M  V30 5713 H 548.536 -2.17419 3.12143 0
M  V30 5714 H 549.848 -3.02818 3.96362 0
M  V30 5715 H 549.002 -5.21801 3.09529 0
M  V30 5716 H 547.741 -4.37782 2.14939 0
M  V30 5717 H 546.746 -3.46734 4.2668 0
M  V30 5718 H 547.971 -4.34049 5.22282 0
M  V30 5719 H 545.917 -5.62184 3.3806 0
M  V30 5720 H 545.834 -5.57058 5.111 0
M  V30 5721 H 547.102 -6.47545 4.33942 0
M  V30 5722 N 551.331 -1.39911 -0.725443 0
M  V30 5723 C 552.579 -1.37382 -1.48224 0
M  V30 5724 C 552.9 0.0264107 -1.94982 0
M  V30 5725 O 552.17 0.979408 -1.6966 0
M  V30 5726 H 550.75 -0.505596 -0.549892 0
M  V30 5727 H 553.412 -1.7487 -0.860608 0
M  V30 5728 H 552.508 -2.04254 -2.3598 0
M  V30 5729 N 552.809 0.956637 -1.25245 0
M  V30 5730 C 554.056 1.701 -1.09874 0
M  V30 5731 C 554.384 1.91128 0.36062 0
M  V30 5732 O 553.639 1.47837 1.28229 0
M  V30 5733 C 553.938 3.08996 -1.79601 0
M  V30 5734 C 553.604 3.07774 -3.29523 0
M  V30 5735 C 552.266 3.07149 -3.70423 0
M  V30 5736 C 554.618 3.01257 -4.25316 0
M  V30 5737 C 551.946 2.97752 -5.0553 0
M  V30 5738 C 554.298 2.93403 -5.60444 0
M  V30 5739 C 552.962 2.91111 -6.00675 0
M  V30 5740 H 552.232 0.62244 -0.402056 0
M  V30 5741 H 554.879 1.1178 -1.55491 0
M  V30 5742 H 553.184 3.70848 -1.26408 0
M  V30 5743 H 554.881 3.65407 -1.65162 0
M  V30 5744 H 551.471 3.09032 -2.9698 0
M  V30 5745 H 555.655 3.00861 -3.9471 0
M  V30 5746 H 550.911 2.94346 -5.35883 0
M  V30 5747 H 555.085 2.87321 -6.34366 0
M  V30 5748 H 552.712 2.83586 -7.05325 0
M  V30 5749 N 554.287 1.06798 1.15896 0
M  V30 5750 C 555.517 0.807522 1.90165 0
M  V30 5751 C 555.925 -0.642417 1.7796 0
M  V30 5752 O 555.268 -1.45193 1.12537 0
M  V30 5753 C 555.33 1.12939 3.41299 0
M  V30 5754 C 554.994 2.57879 3.7729 0
M  V30 5755 C 555.991 3.56118 3.78782 0
M  V30 5756 C 553.676 2.93311 4.07767 0
M  V30 5757 C 555.67 4.87827 4.10248 0
M  V30 5758 C 553.357 4.25219 4.38899 0
M  V30 5759 C 554.355 5.22287 4.4012 0
M  V30 5760 O 554.043 6.51826 4.70508 0
M  V30 5761 H 553.775 0.291946 0.609708 0
M  V30 5762 H 556.329 1.42627 1.47806 0
M  V30 5763 H 554.559 0.45359 3.84031 0
M  V30 5764 H 556.248 0.852363 3.9685 0
M  V30 5765 H 557.014 3.30086 3.55342 0
M  V30 5766 H 552.893 2.18409 4.05979 0
M  V30 5767 H 556.437 5.63586 4.11116 0
M  V30 5768 H 552.334 4.51006 4.61805 0
M  V30 5769 H 553.102 6.56893 4.88298 0
M  V30 5770 N 555.766 -1.3263 0.851289 0
M  V30 5771 C 557.177 -1.79653 0.5081 0
M  V30 5772 C 557.528 -1.70327 -0.973815 0
M  V30 5773 O 556.653 -1.25986 -1.75944 0
M  V30 5774 C 557.248 -3.26196 0.915515 0
M  V30 5775 C 555.807 -3.71187 0.624277 0
M  V30 5776 C 554.954 -2.53804 1.11709 0
M  V30 5777 H 557.905 -1.19976 1.03882 0
M  V30 5778 H 557.926 -3.79801 0.230535 0
M  V30 5779 H 557.438 -3.32952 1.99411 0
M  V30 5780 H 555.539 -3.69948 -0.443737 0
M  V30 5781 H 555.652 -4.64132 1.18821 0
M  V30 5782 H 554.016 -2.48964 0.537484 0
M  V30 5783 H 554.799 -2.63315 2.20272 0
M  V30 5784 N 557.244 -0.608902 -1.45362 0
M  V30 5785 C 558.469 -0.10921 -2.07112 0
M  V30 5786 C 558.894 1.19779 -1.45033 0
M  V30 5787 O 558.252 1.72961 -0.543527 0
M  V30 5788 C 558.3 0.0155745 -3.60597 0
M  V30 5789 O 557.404 1.06546 -3.98399 0
M  V30 5790 H 556.745 -0.0746619 -0.659789 0
M  V30 5791 H 559.275 -0.839283 -1.86594 0
M  V30 5792 H 559.285 0.213364 -4.07442 0
M  V30 5793 H 557.96 -0.938765 -4.05167 0
M  V30 5794 H 556.537 0.844024 -3.63223 0
M  V30 5795 N 558.722 1.53707 -0.348139 0
M  V30 5796 C 559.999 1.93247 0.302475 0
M  V30 5797 C 560.379 1.28012 1.67857 0
M  V30 5798 O 559.727 0.43274 2.24365 0
M  V30 5799 C 559.937 3.47031 0.370159 0
M  V30 5800 C 561.285 4.20066 0.61882 0
M  V30 5801 O 562.309 3.53319 0.452087 0
M  V30 5802 O 561.168 5.38318 0.94215 0
M  V30 5803 H 558.262 0.807736 0.177458 0
M  V30 5804 H 560.808 1.64927 -0.399651 0
M  V30 5805 H 559.58 3.86745 -0.59534 0
M  V30 5806 H 559.203 3.81532 1.11888 0
M  V30 5807 N 560.2 0.0768682 1.57412 0
M  V30 5808 C 561.449 -0.590679 1.92857 0
M  V30 5809 C 561.762 -1.70461 0.959293 0
M  V30 5810 O 562.968 -2.43207 1.20675 0
M  V30 5811 C 561.424 -1.10204 3.42612 0
M  V30 5812 C 561.032 -0.0188447 4.47996 0
M  V30 5813 C 562.776 -1.74336 3.87049 0
M  V30 5814 C 560.683 -0.544536 5.88888 0
M  V30 5815 H 559.613 -0.224411 0.71983 0
M  V30 5816 H 562.264 0.149924 1.82887 0
M  V30 5817 H 560.646 -1.89577 3.47673 0
M  V30 5818 H 561.82 0.755936 4.54557 0
M  V30 5819 H 560.135 0.526555 4.13057 0
M  V30 5820 H 562.732 -2.14708 4.89699 0
M  V30 5821 H 563.075 -2.60537 3.24694 0
M  V30 5822 H 563.608 -1.01577 3.84613 0
M  V30 5823 H 560.347 0.280426 6.549 0
M  V30 5824 H 559.867 -1.28673 5.85836 0
M  V30 5825 H 561.546 -1.01933 6.3892 0
M  V30 5826 N 561.678 -1.56367 -0.196722 0
M  V30 5827 C 562.641 -1.93561 -1.22746 0
M  V30 5828 C 563.641 -0.816566 -1.38524 0
M  V30 5829 O 564.831 -1.084 -1.36363 0
M  V30 5830 C 561.963 -2.20823 -2.59712 0
M  V30 5831 H 563.156 -2.85774 -0.909586 0
M  V30 5832 H 560.709 -1.50032 -0.438174 0
M  V30 5833 H 561.444 -1.31243 -2.96557 0
M  V30 5834 H 561.229 -3.02368 -2.49632 0
M  V30 5835 H 562.719 -2.50608 -3.34044 0
M  V30 5836 N 563.156 0.464375 -1.50603 0
M  V30 5837 C 564.402 1.21776 -1.62168 0
M  V30 5838 C 564.735 1.91476 -0.324154 0
M  V30 5839 O 564.01 1.8242 0.674782 0
M  V30 5840 C 564.293 2.25614 -2.80661 0
M  V30 5841 C 564.146 1.60175 -4.20314 0
M  V30 5842 C 565.465 3.26862 -2.94702 0
M  V30 5843 H 562.584 0.44137 -0.590222 0
M  V30 5844 H 565.226 0.510623 -1.8301 0
M  V30 5845 H 563.376 2.85923 -2.63021 0
M  V30 5846 H 565.048 1.03411 -4.4956 0
M  V30 5847 H 563.291 0.904697 -4.24261 0
M  V30 5848 H 563.962 2.35665 -4.99165 0
M  V30 5849 H 566.438 2.76582 -3.10872 0
M  V30 5850 H 565.314 3.96839 -3.79223 0
M  V30 5851 H 565.575 3.91382 -2.05603 0
M  V30 5852 N 564.634 1.40294 0.718013 0
M  V30 5853 C 565.544 1.42678 1.86226 0
M  V30 5854 C 566.56 0.319655 1.71039 0
M  V30 5855 O 567.736 0.563852 1.93346 0
M  V30 5856 C 564.801 1.2852 3.21999 0
M  V30 5857 C 563.862 2.49354 3.49458 0
M  V30 5858 C 563.095 2.35863 4.78753 0
M  V30 5859 O 563.318 1.37114 5.53675 0
M  V30 5860 O 562.252 3.25189 5.06494 0
M  V30 5861 H 566.078 2.39167 1.87171 0
M  V30 5862 H 563.663 1.2159 0.868112 0
M  V30 5863 H 565.545 1.22824 4.03103 0
M  V30 5864 H 564.22 0.351359 3.21787 0
M  V30 5865 H 563.127 2.60628 2.68373 0
M  V30 5866 H 564.46 3.41491 3.54464 0
M  V30 5867 N 566.112 -0.949982 1.2575 0
M  V30 5868 C 567.358 -1.69822 1.11947 0
M  V30 5869 C 567.713 -1.89455 -0.335334 0
M  V30 5870 O 567.006 -1.45778 -1.24336 0
M  V30 5871 C 567.2 -3.08039 1.81237 0
M  V30 5872 C 567.029 -3.0189 3.33305 0
M  V30 5873 C 565.799 -3.05391 4.02573 0
M  V30 5874 C 567.997 -2.827 4.29634 0
M  V30 5875 N 565.979 -2.89449 5.4138 0
M  V30 5876 C 567.35 -2.75237 5.55558 0
M  V30 5877 C 569.405 -2.67416 4.19992 0
M  V30 5878 C 568.108 -2.54051 6.72942 0
M  V30 5879 C 570.134 -2.47602 5.37073 0
M  V30 5880 C 569.496 -2.40863 6.6194 0
M  V30 5881 H 565.595 -0.629188 0.464378 0
M  V30 5882 H 568.179 -1.1249 1.58916 0
M  V30 5883 H 566.35 -3.63528 1.36756 0
M  V30 5884 H 568.082 -3.71671 1.60134 0
M  V30 5885 H 564.837 -3.14763 3.53866 0
M  V30 5886 H 565.261 -2.84669 6.14241 0
M  V30 5887 H 569.903 -2.71398 3.24196 0
M  V30 5888 H 567.621 -2.48811 7.68842 0
M  V30 5889 H 571.207 -2.36694 5.31477 0
M  V30 5890 H 570.087 -2.25732 7.51009 0
M  V30 5891 N 567.59 -1.07411 -1.15328 0
M  V30 5892 C 568.5 -0.706438 -2.23711 0
M  V30 5893 C 569.516 0.282586 -1.7169 0
M  V30 5894 O 570.692 0.129066 -2.00986 0
M  V30 5895 C 567.757 -0.11048 -3.46524 0
M  V30 5896 C 566.818 -1.15282 -4.13532 0
M  V30 5897 C 566.051 -0.585205 -5.30482 0
M  V30 5898 O 566.274 0.598549 -5.67251 0
M  V30 5899 O 565.208 -1.33039 -5.87013 0
M  V30 5900 H 569.034 -1.61031 -2.57493 0
M  V30 5901 H 566.619 -0.847113 -1.23062 0
M  V30 5902 H 568.501 0.21957 -4.20828 0
M  V30 5903 H 567.176 0.766703 -3.14489 0
M  V30 5904 H 566.083 -1.53523 -3.41147 0
M  V30 5905 H 567.416 -2.00192 -4.49649 0
M  V30 5906 N 569.068 1.32177 -0.85831 0
M  V30 5907 C 570.293 2.01847 -0.476718 0
M  V30 5908 C 570.718 1.64065 0.920021 0
M  V30 5909 O 570.076 0.843189 1.60499 0
M  V30 5910 C 570.124 3.55097 -0.627578 0
M  V30 5911 O 569.228 4.11012 0.338086 0
M  V30 5912 H 568.569 0.635907 -0.191099 0
M  V30 5913 H 571.099 1.68641 -1.15851 0
M  V30 5914 H 571.109 4.04718 -0.516476 0
M  V30 5915 H 569.784 3.81938 -1.64609 0
M  V30 5916 H 568.361 3.72451 0.182917 0
M  V30 5917 N 570.547 0.616602 1.45037 0
M  V30 5918 C 571.495 -0.109318 2.32343 0
M  V30 5919 C 572.489 -0.850543 1.465 0
M  V30 5920 O 573.695 -0.765088 1.62931 0
M  V30 5921 H 570.07 -0.0541091 0.750051 0
M  V30 5922 H 572.041 0.645326 2.91338 0
M  V30 5923 C 570.79 -1.0872 3.30266 0
M  V30 5924 H 570.113 -0.526267 3.96321 0
M  V30 5925 H 571.553 -1.56489 3.94065 0
M  V30 5926 C 570.012 -2.16525 2.58105 0
M  V30 5927 O 570.542 -3.244 2.36913 0
M  V30 5928 N 568.748 -1.92057 2.18088 0
M  V30 5929 H 568.295 -1.04337 2.35524 0
M  V30 5930 H 568.253 -2.64391 1.70131 0
M  V30 5931 N 572.025 -1.5352 0.356285 0
M  V30 5932 C 573.273 -2.00719 -0.235837 0
M  V30 5933 C 573.594 -1.24551 -1.5004 0
M  V30 5934 O 572.864 -0.356185 -1.92635 0
M  V30 5935 H 571.444 -0.741542 -0.0901366 0
M  V30 5936 H 574.106 -1.88887 0.480378 0
M  V30 5937 H 573.202 -3.08551 -0.469357 0
M  V30 5938 N 573.503 -0.0852151 -1.57369 0
M  V30 5939 C 574.435 0.907099 -2.10486 0
M  V30 5940 C 575.448 1.25259 -1.03991 0
M  V30 5941 O 576.637 1.20743 -1.31467 0
M  V30 5942 C 573.737 2.21908 -2.56145 0
M  V30 5943 C 572.91 2.05042 -3.86363 0
M  V30 5944 C 571.969 3.19664 -4.17973 0
M  V30 5945 O 570.995 2.94062 -4.87356 0
M  V30 5946 N 572.197 4.45151 -3.72587 0
M  V30 5947 H 574.962 0.453505 -2.96249 0
M  V30 5948 H 572.523 0.100157 -1.6159 0
M  V30 5949 H 574.515 2.97519 -2.74343 0
M  V30 5950 H 573.085 2.58723 -1.75446 0
M  V30 5951 H 572.305 1.13819 -3.77411 0
M  V30 5952 H 573.593 1.91039 -4.71574 0
M  V30 5953 H 572.991 4.68834 -3.16561 0
M  V30 5954 H 571.548 5.17744 -3.9596 0
M  V30 5955 N 574.981 1.5647 0.188427 0
M  V30 5956 C 576.392 1.70864 0.752494 0
M  V30 5957 C 576.743 0.692905 1.83557 0
M  V30 5958 O 575.868 -0.149307 2.15884 0
M  V30 5959 C 576.463 3.09789 1.37173 0
M  V30 5960 C 575.022 3.25925 1.88281 0
M  V30 5961 C 574.169 2.66817 0.755259 0
M  V30 5962 H 577.12 1.58657 -0.0367408 0
M  V30 5963 H 577.141 3.07489 2.24122 0
M  V30 5964 H 576.653 3.83693 0.583219 0
M  V30 5965 H 574.754 2.56948 2.6983 0
M  V30 5966 H 574.867 4.33498 2.04001 0
M  V30 5967 H 573.231 2.2617 1.17128 0
M  V30 5968 H 574.014 3.43294 -0.0211237 0
M  V30 5969 N 576.459 -0.456382 1.50847 0
M  V30 5970 C 577.369 -1.57805 1.73594 0
M  V30 5971 C 578.385 -1.62599 0.619476 0
M  V30 5972 O 579.561 -1.80195 0.899532 0
M  V30 5973 C 576.626 -2.93926 1.8387 0
M  V30 5974 C 575.687 -2.99402 3.07663 0
M  V30 5975 C 574.92 -4.29031 3.1744 0
M  V30 5976 O 575.143 -5.20358 2.33631 0
M  V30 5977 O 574.077 -4.40401 4.10281 0
M  V30 5978 H 577.903 -1.41531 2.68705 0
M  V30 5979 H 575.488 -0.637422 1.3512 0
M  V30 5980 H 577.37 -3.74747 1.92725 0
M  V30 5981 H 576.045 -3.10368 0.91944 0
M  V30 5982 H 574.952 -2.17606 3.043 0
M  V30 5983 H 576.285 -2.87901 3.99216 0
M  V30 5984 N 577.937 -1.40673 -0.710563 0
M  V30 5985 C 578.885 -1.41517 -1.84596 0
M  V30 5986 C 579.879 -0.295043 -1.66811 0
M  V30 5987 O 581.085 -0.466331 -1.73854 0
M  V30 5988 H 577.46 -0.442467 -0.608052 0
M  V30 5989 H 579.431 -2.37238 -1.80999 0
M  V30 5990 C 578.18 -1.29957 -3.225 0
M  V30 5991 H 577.503 -2.15429 -3.36794 0
M  V30 5992 H 578.943 -1.34608 -4.02066 0
M  V30 5993 C 577.402 -0.0103164 -3.36898 0
M  V30 5994 O 577.932 0.950707 -3.90288 0
M  V30 5995 N 576.138 0.0608409 -2.90536 0
M  V30 5996 H 575.685 -0.721943 -2.47277 0
M  V30 5997 H 575.643 0.92292 -3.00549 0
M  V30 5998 N 579.415 0.9433 -1.26252 0
M  V30 5999 C 580.363 2.06302 -1.07434 0
M  V30 6000 C 581.357 1.694 -0.00189471 0
M  V30 6001 O 582.563 1.79302 -0.158408 0
M  V30 6002 H 578.938 0.675453 -0.330556 0
M  V30 6003 H 580.909 2.19326 -2.02333 0
M  V30 6004 C 579.658 3.40125 -0.721817 0
M  V30 6005 H 578.981 3.68996 -1.5389 0
M  V30 6006 H 580.421 4.19295 -0.629922 0
M  V30 6007 C 578.88 3.31993 0.572902 0
M  V30 6008 O 579.41 3.67945 1.61182 0
M  V30 6009 N 577.616 2.85099 0.562748 0
M  V30 6010 H 577.163 2.5604 -0.283092 0
M  V30 6011 H 577.121 2.80041 1.42915 0
M  V30 6012 N 580.893 1.08022 1.14757 0
M  V30 6013 C 582.123 0.827646 1.89298 0
M  V30 6014 C 582.531 -0.623506 1.78631 0
M  V30 6015 O 581.874 -1.43991 1.14071 0
M  V30 6016 C 581.936 1.16553 3.40082 0
M  V30 6017 C 581.6 2.61866 3.74533 0
M  V30 6018 C 582.597 3.60116 3.74984 0
M  V30 6019 C 580.282 2.97619 4.04633 0
M  V30 6020 C 582.276 4.92151 4.05051 0
M  V30 6021 C 579.963 4.2985 4.34364 0
M  V30 6022 C 580.961 5.26926 4.34555 0
M  V30 6023 O 580.649 6.5678 4.63568 0
M  V30 6024 H 580.381 0.298396 0.606577 0
M  V30 6025 H 582.935 1.44187 1.46285 0
M  V30 6026 H 581.165 0.494296 3.83528 0
M  V30 6027 H 582.854 0.894407 3.95923 0
M  V30 6028 H 583.62 3.33837 3.51821 0
M  V30 6029 H 579.499 2.22702 4.03639 0
M  V30 6030 H 583.043 5.67915 4.05115 0
M  V30 6031 H 578.94 4.55879 4.56995 0
M  V30 6032 H 579.708 6.62035 4.81303 0
M  V30 6033 N 582.371 -1.3172 0.865308 0
M  V30 6034 C 583.318 -2.2863 0.315736 0
M  V30 6035 C 584.288 -1.55524 -0.583213 0
M  V30 6036 O 585.473 -1.83694 -0.51585 0
M  V30 6037 C 582.613 -3.41735 -0.480773 0
M  V30 6038 C 581.726 -4.297 0.445167 0
M  V30 6039 C 580.861 -5.29944 -0.365012 0
M  V30 6040 C 579.9 -6.09554 0.557651 0
M  V30 6041 N 579.037 -7.01768 -0.215994 0
M  V30 6042 H 583.877 -2.75026 1.14736 0
M  V30 6043 H 581.414 -1.35302 0.577209 0
M  V30 6044 H 583.372 -4.06045 -0.958306 0
M  V30 6045 H 582.002 -2.96461 -1.27714 0
M  V30 6046 H 581.054 -3.65875 1.04113 0
M  V30 6047 H 582.366 -4.85295 1.15284 0
M  V30 6048 H 581.52 -5.99908 -0.905255 0
M  V30 6049 H 580.259 -4.74994 -1.106 0
M  V30 6050 H 579.264 -5.38485 1.10969 0
M  V30 6051 H 580.489 -6.66591 1.29742 0
M  V30 6052 H 578.435 -6.49232 -0.939878 0
M  V30 6053 H 578.352 -7.54762 0.432431 0
M  V30 6054 H 579.62 -7.76002 -0.737618 0
M  V30 6055 N 583.85 -0.624285 -1.44708 0
M  V30 6056 C 585.077 -0.132919 -2.06473 0
M  V30 6057 C 585.493 1.18967 -1.46602 0
M  V30 6058 O 584.85 1.72824 -0.586341 0
M  V30 6059 C 584.901 -0.00465418 -3.615 0
M  V30 6060 O 584.622 -1.27494 -4.19138 0
M  V30 6061 C 586.123 0.516213 -4.40284 0
M  V30 6062 H 583.343 -0.0765201 -0.666623 0
M  V30 6063 H 585.887 -0.856751 -1.85688 0
M  V30 6064 H 584.042 0.669583 -3.8157 0
M  V30 6065 H 584.456 -1.11536 -5.12504 0
M  V30 6066 H 585.93 0.554994 -5.49203 0
M  V30 6067 H 586.407 1.5419 -4.11245 0
M  V30 6068 H 587.013 -0.124542 -4.25118 0
M  V30 6069 N 585.328 1.53329 -0.364422 0
M  V30 6070 C 586.556 2.05657 0.226424 0
M  V30 6071 C 586.971 1.23801 1.42544 0
M  V30 6072 O 586.328 0.27839 1.80364 0
M  V30 6073 C 586.379 3.56125 0.621056 0
M  V30 6074 O 586.1 4.34879 -0.530304 0
M  V30 6075 C 587.601 4.24706 1.27041 0
M  V30 6076 H 584.821 0.669806 0.0400056 0
M  V30 6077 H 587.365 1.97714 -0.522456 0
M  V30 6078 H 585.52 3.64223 1.31985 0
M  V30 6079 H 585.934 5.24073 -0.211546 0
M  V30 6080 H 587.408 5.3131 1.49711 0
M  V30 6081 H 587.885 3.78354 2.23036 0
M  V30 6082 H 588.491 4.20858 0.613079 0
M  V30 6083 N 586.806 0.0935595 1.57322 0
M  V30 6084 C 588.217 -0.435807 1.81542 0
M  V30 6085 C 588.568 -1.68263 1.00907 0
M  V30 6086 O 587.693 -2.15087 0.237983 0
M  V30 6087 C 588.288 -0.797436 3.29282 0
M  V30 6088 C 586.847 -1.27155 3.54272 0
M  V30 6089 C 585.994 -0.267455 2.76007 0
M  V30 6090 H 588.945 0.31902 1.5546 0
M  V30 6091 H 588.966 -1.6571 3.42521 0
M  V30 6092 H 588.478 0.110206 3.87943 0
M  V30 6093 H 586.579 -2.19696 3.00939 0
M  V30 6094 H 586.692 -1.23445 4.62923 0
M  V30 6095 H 585.056 -0.749282 2.43429 0
M  V30 6096 H 585.839 0.632839 3.37417 0
M  V30 6097 N 588.284 -1.56567 -0.180126 0
M  V30 6098 C 589.695 -1.7126 -0.743422 0
M  V30 6099 C 590.046 -0.70263 -1.83187 0
M  V30 6100 O 589.171 0.137856 -2.1596 0
M  V30 6101 C 589.766 -3.10512 -1.35528 0
M  V30 6102 C 588.325 -3.26919 -1.8655 0
M  V30 6103 C 587.472 -2.67213 -0.741099 0
M  V30 6104 H 590.423 -1.58636 0.0451543 0
M  V30 6105 H 590.444 -3.08673 -2.22489 0
M  V30 6106 H 589.956 -3.83997 -0.562862 0
M  V30 6107 H 588.057 -2.58376 -2.68464 0
M  V30 6108 H 588.17 -4.34574 -2.01699 0
M  V30 6109 H 586.534 -2.26788 -1.15927 0
M  V30 6110 H 587.317 -3.43277 0.0393291 0
M  V30 6111 N 589.762 0.448376 -1.51087 0
M  V30 6112 C 591.008 1.20049 -1.6345 0
M  V30 6113 C 591.341 1.91121 -0.344444 0
M  V30 6114 O 590.616 1.83125 0.655396 0
M  V30 6115 C 590.899 2.22624 -2.83038 0
M  V30 6116 C 590.752 1.55708 -4.21989 0
M  V30 6117 C 592.071 3.23718 -2.98152 0
M  V30 6118 H 589.19 0.435085 -0.59487 0
M  V30 6119 H 591.832 0.491183 -1.83541 0
M  V30 6120 H 589.982 2.83117 -2.66039 0
M  V30 6121 H 591.654 0.986367 -4.50631 0
M  V30 6122 H 589.897 0.859647 -4.25197 0
M  V30 6123 H 590.568 2.30357 -5.01637 0
M  V30 6124 H 593.044 2.73269 -3.13788 0
M  V30 6125 H 591.92 3.92795 -3.83411 0
M  V30 6126 H 592.181 3.89179 -2.09743 0
M  V30 6127 N 591.24 1.41047 0.703093 0
M  V30 6128 C 592.17 1.45067 1.82969 0
M  V30 6129 C 593.151 0.31016 1.67248 0
M  V30 6130 O 594.336 0.520548 1.87093 0
M  V30 6131 C 591.466 1.32478 3.2104 0
M  V30 6132 C 590.42 2.44262 3.51454 0
M  V30 6133 C 589.746 2.16742 4.88801 0
M  V30 6134 C 591.046 3.86606 3.51189 0
M  V30 6135 H 592.74 2.39353 1.79863 0
M  V30 6136 H 590.286 1.15206 0.863919 0
M  V30 6137 H 592.239 1.33904 3.99559 0
M  V30 6138 H 590.963 0.346735 3.24754 0
M  V30 6139 H 589.622 2.42107 2.75282 0
M  V30 6140 H 589.27 1.17299 4.89132 0
M  V30 6141 H 588.97 2.91643 5.10116 0
M  V30 6142 H 590.494 2.19872 5.69639 0
M  V30 6143 H 591.908 3.90517 4.19725 0
M  V30 6144 H 590.305 4.61128 3.84033 0
M  V30 6145 H 591.375 4.15296 2.50315 0
M  V30 6146 N 592.718 -0.936591 1.26751 0
M  V30 6147 C 593.995 -1.66094 1.03306 0
M  V30 6148 C 594.375 -2.06568 -0.435058 0
M  V30 6149 O 593.723 -1.79305 -1.41641 0
M  V30 6150 C 593.933 -2.86969 1.98619 0
M  V30 6151 C 595.281 -3.58516 2.27489 0
M  V30 6152 O 596.305 -2.97082 1.96522 0
M  V30 6153 O 595.164 -4.69181 2.80235 0
M  V30 6154 H 592.258 -0.727568 0.393158 0
M  V30 6155 H 594.804 -0.987914 1.3798 0
M  V30 6156 H 593.576 -2.53985 2.9767 0
M  V30 6157 H 593.199 -3.61996 1.64454 0
M  V30 6158 N 594.196 -1.08629 -1.14182 0
M  V30 6159 C 595.421 -0.83902 -1.89671 0
M  V30 6160 C 595.846 0.603332 -1.78161 0
M  V30 6161 O 595.204 1.42301 -1.12339 0
M  V30 6162 C 595.252 -1.26854 -3.37551 0
M  V30 6163 O 594.356 -0.42188 -4.10236 0
M  V30 6164 H 593.697 -0.304545 -0.590041 0
M  V30 6165 H 596.227 -1.4483 -1.44518 0
M  V30 6166 H 596.237 -1.25038 -3.88368 0
M  V30 6167 H 594.912 -2.31901 -3.45246 0
M  V30 6168 H 593.489 -0.503654 -3.69483 0
M  V30 6169 N 595.674 1.31259 -0.872281 0
M  V30 6170 C 596.951 1.91362 -0.404943 0
M  V30 6171 C 597.331 1.79362 1.11321 0
M  V30 6172 O 596.679 1.20277 1.94283 0
M  V30 6173 C 596.889 3.3749 -0.888893 0
M  V30 6174 C 598.237 4.14593 -0.916384 0
M  V30 6175 O 599.261 3.46282 -0.834701 0
M  V30 6176 O 598.12 5.3661 -1.03498 0
M  V30 6177 H 595.214 0.818016 -0.121569 0
M  V30 6178 H 597.76 1.39912 -0.960346 0
M  V30 6179 H 596.532 3.40249 -1.93251 0
M  V30 6180 H 596.155 3.96375 -0.311932 0
M  V30 6181 N 597.152 0.631951 1.44375 0
M  V30 6182 C 598.4 0.136497 2.01639 0
M  V30 6183 C 598.721 -1.24637 1.49969 0
M  V30 6184 O 597.991 -1.82827 0.70363 0
M  V30 6185 H 596.571 0.0474703 0.74549 0
M  V30 6186 H 599.233 0.818837 1.76865 0
M  V30 6187 H 598.329 0.104817 3.11924 0
M  V30 6188 N 598.631 -1.53133 0.372548 0
M  V30 6189 C 599.856 -2.0625 -0.218098 0
M  V30 6190 C 600.281 -1.24375 -1.41111 0
M  V30 6191 O 599.639 -0.264554 -1.79359 0
M  V30 6192 C 599.687 -3.55858 -0.582876 0
M  V30 6193 O 598.791 -3.76667 -1.67917 0
M  V30 6194 H 598.132 -0.663317 -0.030104 0
M  V30 6195 H 600.662 -1.97477 0.535169 0
M  V30 6196 H 600.672 -3.99007 -0.851925 0
M  V30 6197 H 599.347 -4.14892 0.289428 0
M  V30 6198 H 597.924 -3.45413 -1.40513 0
M  V30 6199 N 600.109 -0.101901 -1.5727 0
M  V30 6200 C 601.356 0.560197 -1.94597 0
M  V30 6201 C 601.684 1.67767 -0.984101 0
M  V30 6202 O 600.939 1.95699 -0.00489193 0
M  V30 6203 C 601.238 1.14898 -3.38427 0
M  V30 6204 C 600.904 0.154613 -4.50635 0
M  V30 6205 C 599.566 -0.118861 -4.81053 0
M  V30 6206 C 601.918 -0.523979 -5.18559 0
M  V30 6207 C 599.246 -1.0775 -5.76721 0
M  V30 6208 C 601.598 -1.47114 -6.15256 0
M  V30 6209 C 600.262 -1.75278 -6.44076 0
M  V30 6210 H 599.532 0.204991 -0.712081 0
M  V30 6211 H 602.179 -0.17918 -1.9066 0
M  V30 6212 H 600.484 1.96476 -3.38976 0
M  V30 6213 H 602.181 1.66909 -3.64613 0
M  V30 6214 H 598.771 0.377948 -4.2693 0
M  V30 6215 H 602.955 -0.325851 -4.95229 0
M  V30 6216 H 598.211 -1.30263 -5.97362 0
M  V30 6217 H 602.385 -2.00274 -6.66981 0
M  V30 6218 H 600.012 -2.49717 -7.18015 0
M  V30 6219 N 601.587 1.56661 0.17182 0
M  V30 6220 C 602.834 1.81965 0.888529 0
M  V30 6221 C 603.162 0.6789 1.82267 0
M  V30 6222 O 602.417 -0.333875 1.92831 0
M  V30 6223 C 602.716 3.13435 1.71736 0
M  V30 6224 C 602.382 4.41159 0.932184 0
M  V30 6225 C 601.044 4.75851 0.715481 0
M  V30 6226 C 603.396 5.19803 0.381387 0
M  V30 6227 C 600.724 5.86666 -0.063126 0
M  V30 6228 C 603.076 6.31433 -0.384129 0
M  V30 6229 C 601.74 6.64692 -0.611637 0
M  V30 6230 H 601.01 0.665859 0.325136 0
M  V30 6231 H 603.657 1.90884 0.153495 0
M  V30 6232 H 601.962 2.99857 2.52177 0
M  V30 6233 H 603.659 3.30224 2.27493 0
M  V30 6234 H 600.249 4.13947 1.11112 0
M  V30 6235 H 604.433 4.93396 0.536148 0
M  V30 6236 H 599.689 6.10892 -0.249136 0
M  V30 6237 H 603.863 6.91577 -0.818185 0
M  V30 6238 H 601.49 7.50398 -1.21684 0
M  V30 6239 N 603.065 -0.440357 1.51323 0
M  V30 6240 C 603.995 -1.54174 1.75364 0
M  V30 6241 C 604.976 -1.59039 0.603375 0
M  V30 6242 O 606.161 -1.74815 0.845774 0
M  V30 6243 C 603.291 -2.92277 1.87593 0
M  V30 6244 C 602.245 -3.02274 3.03009 0
M  V30 6245 C 601.571 -4.42327 3.00418 0
M  V30 6246 C 602.871 -2.76634 4.43024 0
M  V30 6247 H 604.565 -1.34307 2.67585 0
M  V30 6248 H 602.111 -0.644678 1.28763 0
M  V30 6249 H 604.064 -3.69284 2.02995 0
M  V30 6250 H 602.788 -3.13369 0.920179 0
M  V30 6251 H 601.447 -2.27706 2.87307 0
M  V30 6252 H 601.095 -4.60382 2.02626 0
M  V30 6253 H 600.795 -4.49946 3.77918 0
M  V30 6254 H 602.319 -5.21312 3.17909 0
M  V30 6255 H 603.733 -3.43376 4.59093 0
M  V30 6256 H 602.13 -2.95666 5.22208 0
M  V30 6257 H 603.2 -1.72262 4.5327 0
M  V30 6258 N 604.543 -1.41418 -0.695603 0
M  V30 6259 C 605.773 -1.43921 -1.48224 0
M  V30 6260 C 606.181 -0.0428855 -1.89151 0
M  V30 6261 O 605.524 0.948138 -1.5734 0
M  V30 6262 C 605.586 -2.28466 -2.77567 0
M  V30 6263 C 605.25 -3.76629 -2.58844 0
M  V30 6264 C 606.247 -4.6879 -2.24793 0
M  V30 6265 C 603.932 -4.2067 -2.74485 0
M  V30 6266 C 605.926 -6.02981 -2.06622 0
M  V30 6267 C 603.613 -5.54926 -2.55931 0
M  V30 6268 C 604.611 -6.45897 -2.2205 0
M  V30 6269 O 604.299 -7.77675 -2.03657 0
M  V30 6270 H 604.031 -0.492252 -0.463318 0
M  V30 6271 H 606.585 -1.86347 -0.863952 0
M  V30 6272 H 604.815 -1.80853 -3.41802 0
M  V30 6273 H 606.504 -2.2267 -3.39371 0
M  V30 6274 H 607.27 -4.36055 -2.12323 0
M  V30 6275 H 603.149 -3.50167 -2.9984 0
M  V30 6276 H 606.693 -6.73951 -1.80099 0
M  V30 6277 H 602.59 -5.8724 -2.67991 0
M  V30 6278 H 603.358 -7.88819 -2.1842 0
M  V30 6279 N 606.021 0.929856 -1.27246 0
M  V30 6280 C 607.246 1.71674 -1.16374 0
M  V30 6281 C 607.671 1.86064 0.276024 0
M  V30 6282 O 607.029 1.3591 1.19992 0
M  V30 6283 C 607.077 3.09526 -1.85003 0
M  V30 6284 O 606.181 3.96142 -1.14653 0
M  V30 6285 H 605.522 0.52629 -0.404863 0
M  V30 6286 H 608.052 1.16381 -1.68276 0
M  V30 6287 H 608.062 3.59852 -1.92276 0
M  V30 6288 H 606.737 2.98369 -2.89739 0
M  V30 6289 H 605.314 3.54584 -1.15433 0
M  V30 6290 N 607.499 1.09233 1.13605 0
M  V30 6291 C 608.446 0.729921 2.18954 0
M  V30 6292 C 609.416 -0.287916 1.63586 0
M  V30 6293 O 610.601 -0.170003 1.90041 0
M  V30 6294 C 607.741 0.154489 3.44754 0
M  V30 6295 C 606.854 1.22613 4.14234 0
M  V30 6296 C 605.989 0.613657 5.27644 0
M  V30 6297 C 605.028 1.66674 5.8897 0
M  V30 6298 N 604.165 1.07545 6.93814 0
M  V30 6299 H 609.005 1.63257 2.49302 0
M  V30 6300 H 606.542 0.815693 1.22413 0
M  V30 6301 H 608.5 -0.196923 4.16735 0
M  V30 6302 H 607.13 -0.711433 3.14863 0
M  V30 6303 H 606.182 1.69485 3.40557 0
M  V30 6304 H 607.494 2.0238 4.55899 0
M  V30 6305 H 606.648 0.210976 6.06333 0
M  V30 6306 H 605.387 -0.215584 4.87223 0
M  V30 6307 H 604.392 2.07899 5.08978 0
M  V30 6308 H 605.617 2.49861 6.31464 0
M  V30 6309 H 603.563 0.267451 6.55455 0
M  V30 6310 H 603.48 1.81011 7.3401 0
M  V30 6311 H 604.748 0.698906 7.7636 0
M  V30 6312 N 608.977 -1.30795 0.87923 0
M  V30 6313 C 609.907 -2.30742 0.357796 0
M  V30 6314 C 610.888 -1.60747 -0.556283 0
M  V30 6315 O 612.073 -1.88393 -0.47135 0
M  V30 6316 C 609.203 -3.44583 -0.433555 0
M  V30 6317 C 608.157 -4.26235 0.388251 0
M  V30 6318 C 607.483 -5.32073 -0.529352 0
M  V30 6319 C 608.783 -4.96303 1.62729 0
M  V30 6320 H 610.477 -2.74605 1.19299 0
M  V30 6321 H 608.023 -1.32017 0.575104 0
M  V30 6322 H 609.976 -4.13563 -0.808934 0
M  V30 6323 H 608.7 -2.99511 -1.30234 0
M  V30 6324 H 607.359 -3.58936 0.745695 0
M  V30 6325 H 607.007 -4.83249 -1.39569 0
M  V30 6326 H 606.707 -5.87598 0.0166741 0
M  V30 6327 H 608.231 -6.0391 -0.901373 0
M  V30 6328 H 609.645 -5.5783 1.32283 0
M  V30 6329 H 608.042 -5.61666 2.11309 0
M  V30 6330 H 609.112 -4.22758 2.37494 0
M  V30 6331 N 610.455 -0.639598 -1.44038 0
M  V30 6332 C 611.683 -0.154811 -2.0632 0
M  V30 6333 C 612.098 1.17406 -1.47856 0
M  V30 6334 O 611.455 1.72193 -0.604638 0
M  V30 6335 C 611.506 -0.0429958 -3.61474 0
M  V30 6336 O 611.227 -1.31932 -4.17763 0
M  V30 6337 C 612.728 0.469486 -4.40807 0
M  V30 6338 H 609.948 -0.0835862 -0.665773 0
M  V30 6339 H 612.492 -0.876397 -1.84769 0
M  V30 6340 H 610.647 0.629075 -3.82258 0
M  V30 6341 H 611.061 -1.16965 -5.11292 0
M  V30 6342 H 612.535 0.496712 -5.49761 0
M  V30 6343 H 613.012 1.49819 -4.12857 0
M  V30 6344 H 613.618 -0.169624 -4.24962 0
M  V30 6345 N 611.933 1.52934 -0.380664 0
M  V30 6346 C 613.179 2.01765 0.20458 0
M  V30 6347 C 613.512 1.26696 1.47179 0
M  V30 6348 O 612.787 0.364936 1.91046 0
M  V30 6349 C 613.07 3.56869 0.481269 0
M  V30 6350 C 612.923 4.42617 -0.800629 0
M  V30 6351 C 614.242 4.2121 1.27554 0
M  V30 6352 H 611.361 0.733388 0.0728803 0
M  V30 6353 H 614.003 1.83068 -0.50853 0
M  V30 6354 H 612.153 3.72932 1.08875 0
M  V30 6355 H 613.825 4.38323 -1.43773 0
M  V30 6356 H 612.068 4.09977 -1.4178 0
M  V30 6357 H 612.739 5.49134 -0.561791 0
M  V30 6358 H 615.215 4.09072 0.761514 0
M  V30 6359 H 614.091 5.29732 1.43788 0
M  V30 6360 H 614.352 3.78269 2.28833 0
M  V30 6361 N 613.412 0.11024 1.57214 0
M  V30 6362 C 614.689 -0.592956 1.86396 0
M  V30 6363 C 615.069 -1.85379 1.00985 0
M  V30 6364 O 614.417 -2.28337 0.0863592 0
M  V30 6365 C 614.627 -0.893816 3.3736 0
M  V30 6366 C 615.975 -1.25069 4.05762 0
M  V30 6367 O 616.999 -0.984356 3.42329 0
M  V30 6368 O 615.858 -1.75017 5.17718 0
M  V30 6369 H 612.952 -0.29828 0.771335 0
M  V30 6370 H 615.498 0.144083 1.69087 0
M  V30 6371 H 614.27 2.6031e-05 3.913 0
M  V30 6372 H 613.893 -1.68631 3.60068 0
M  V30 6373 N 614.89 -1.56749 -0.16351 0
M  V30 6374 C 615.837 -1.97011 -1.2023 0
M  V30 6375 C 616.807 -0.835186 -1.43575 0
M  V30 6376 O 617.992 -1.09594 -1.56185 0
M  V30 6377 C 615.132 -2.34186 -2.53478 0
M  V30 6378 C 614.245 -3.60893 -2.37446 0
M  V30 6379 C 613.38 -3.87245 -3.63614 0
M  V30 6380 C 612.419 -5.07274 -3.42548 0
M  V30 6381 N 611.556 -5.29719 -4.60806 0
M  V30 6382 H 616.396 -2.85562 -0.851958 0
M  V30 6383 H 613.933 -1.41292 -0.409257 0
M  V30 6384 H 615.891 -2.53764 -3.31149 0
M  V30 6385 H 614.521 -1.48736 -2.86492 0
M  V30 6386 H 613.573 -3.49185 -1.50911 0
M  V30 6387 H 614.885 -4.48722 -2.1783 0
M  V30 6388 H 614.039 -4.07232 -4.49719 0
M  V30 6389 H 612.778 -2.97806 -3.86216 0
M  V30 6390 H 611.783 -4.87177 -2.5483 0
M  V30 6391 H 613.008 -5.98251 -3.2136 0
M  V30 6392 H 610.954 -4.43233 -4.83612 0
M  V30 6393 H 610.871 -6.11786 -4.44132 0
M  V30 6394 H 612.139 -5.54192 -5.48171 0
M  V30 6395 N 616.368 0.432326 -1.51554 0
M  V30 6396 C 617.593 1.20824 -1.68571 0
M  V30 6397 C 618.018 1.84126 -0.384596 0
M  V30 6398 O 617.376 1.69025 0.655751 0
M  V30 6399 C 617.424 2.26429 -2.80646 0
M  V30 6400 O 616.528 3.32032 -2.44598 0
M  V30 6401 H 615.869 0.353765 -0.561913 0
M  V30 6402 H 618.399 0.509916 -1.98144 0
M  V30 6403 H 618.409 2.71133 -3.04878 0
M  V30 6404 H 617.084 1.79733 -3.75058 0
M  V30 6405 H 615.661 2.92769 -2.30956 0
M  V30 6406 N 617.846 1.41785 0.688094 0
M  V30 6407 C 619.262 1.24419 0.999608 0
M  V30 6408 C 619.462 0.138868 2.01021 0
M  V30 6409 O 618.518 -0.494283 2.47615 0
M  V30 6410 C 619.831 2.59625 1.51709 0
M  V30 6411 C 621.379 2.66869 1.63554 0
M  V30 6412 C 621.854 4.0241 2.18702 0
M  V30 6413 N 623.345 4.04295 2.26053 0
M  V30 6414 C 624.08 5.05977 2.69768 0
M  V30 6415 N 623.576 6.18047 3.13033 0
M  V30 6416 N 625.369 4.93336 2.69398 0
M  V30 6417 H 617.52 2.12392 0.0187427 0
M  V30 6418 H 619.783 0.945347 0.0708673 0
M  V30 6419 H 619.489 3.41297 0.849059 0
M  V30 6420 H 619.363 2.82628 2.49803 0
M  V30 6421 H 621.75 1.8555 2.29467 0
M  V30 6422 H 621.831 2.47668 0.639857 0
M  V30 6423 H 621.475 4.8418 1.53402 0
M  V30 6424 H 621.405 4.18955 3.19037 0
M  V30 6425 H 623.896 3.23383 1.9553 0
M  V30 6426 H 624.209 6.91498 3.45038 0
M  V30 6427 H 622.554 6.21572 3.10923 0
M  V30 6428 H 625.745 4.04865 2.34952 0
M  V30 6429 H 625.918 5.72717 3.03148 0
M  V30 6430 N 619.324 -0.923095 1.27737 0
M  V30 6431 C 620.57 -1.67409 1.15524 0
M  V30 6432 C 620.925 -1.90124 -0.295072 0
M  V30 6433 O 620.218 -1.48382 -1.21216 0
M  V30 6434 C 620.412 -3.04125 1.8773 0
M  V30 6435 C 620.241 -2.94752 3.39634 0
M  V30 6436 C 619.011 -2.96783 4.0896 0
M  V30 6437 C 621.209 -2.73524 4.35533 0
M  V30 6438 N 619.191 -2.779 5.47398 0
M  V30 6439 C 620.562 -2.63391 5.61271 0
M  V30 6440 C 622.617 -2.58447 4.2557 0
M  V30 6441 C 621.32 -2.3972 6.78179 0
M  V30 6442 C 623.346 -2.36154 5.42204 0
M  V30 6443 C 622.708 -2.26768 6.669 0
M  V30 6444 H 618.807 -0.619196 0.477619 0
M  V30 6445 H 621.391 -1.09094 1.61266 0
M  V30 6446 H 619.562 -3.60545 1.44436 0
M  V30 6447 H 621.294 -3.6819 1.67982 0
M  V30 6448 H 618.049 -3.07186 3.60463 0
M  V30 6449 H 618.473 -2.71576 6.20141 0
M  V30 6450 H 623.115 -2.6446 3.2988 0
M  V30 6451 H 620.833 -2.32447 7.73947 0
M  V30 6452 H 624.419 -2.25367 5.36378 0
M  V30 6453 H 623.299 -2.09751 7.55628 0
M  V30 6454 N 620.802 -1.09834 -1.13024 0
M  V30 6455 C 621.734 -0.699379 -2.18269 0
M  V30 6456 C 622.747 0.260841 -1.60697 0
M  V30 6457 O 623.936 0.0462538 -1.7844 0
M  V30 6458 C 621.036 -0.0104537 -3.38898 0
M  V30 6459 C 620.209 -0.993275 -4.25973 0
M  V30 6460 C 619.268 -0.336982 -5.2512 0
M  V30 6461 O 618.294 -0.985892 -5.60597 0
M  V30 6462 N 619.496 0.90716 -5.73368 0
M  V30 6463 H 622.261 -1.60486 -2.5311 0
M  V30 6464 H 619.822 -0.986337 -1.28386 0
M  V30 6465 H 621.814 0.43991 -4.02302 0
M  V30 6466 H 620.384 0.797335 -3.0226 0
M  V30 6467 H 619.604 -1.62208 -3.5928 0
M  V30 6468 H 620.892 -1.65876 -4.81002 0
M  V30 6469 H 620.29 1.45384 -5.46699 0
M  V30 6470 H 618.847 1.30077 -6.38689 0
M  V30 6471 N 622.28 1.30327 -0.886154 0
M  V30 6472 C 623.19 2.31854 -0.357866 0
M  V30 6473 C 624.206 1.65392 0.540502 0
M  V30 6474 O 625.382 1.96683 0.433339 0
M  V30 6475 C 622.447 3.44171 0.417999 0
M  V30 6476 C 621.508 4.26257 -0.510263 0
M  V30 6477 C 620.741 5.3321 0.228669 0
M  V30 6478 O 620.964 5.51542 1.45458 0
M  V30 6479 O 619.898 6.0042 -0.421832 0
M  V30 6480 H 623.724 2.78995 -1.19982 0
M  V30 6481 H 621.309 1.34518 -0.650028 0
M  V30 6482 H 623.191 4.12588 0.857251 0
M  V30 6483 H 621.866 2.99164 1.23623 0
M  V30 6484 H 620.773 3.60533 -0.99835 0
M  V30 6485 H 622.106 4.74871 -1.29454 0
M  V30 6486 N 623.758 0.647228 1.43697 0
M  V30 6487 C 625.006 0.157876 2.01482 0
M  V30 6488 C 625.327 -1.23039 1.51282 0
M  V30 6489 O 624.597 -1.82071 0.722982 0
M  V30 6490 H 623.177 0.0553745 0.744945 0
M  V30 6491 H 625.839 0.83755 1.75986 0
M  V30 6492 H 624.935 0.137895 3.11795 0
M  V30 6493 N 625.236 -1.5273 0.388769 0
M  V30 6494 C 626.184 -2.27975 -0.461527 0
M  V30 6495 C 627.178 -1.31854 -1.06352 0
M  V30 6496 O 628.384 -1.49394 -1.00406 0
M  V30 6497 H 624.759 -0.733088 -0.16759 0
M  V30 6498 H 626.73 -2.97765 0.194579 0
M  V30 6499 C 625.479 -3.09881 -1.577 0
M  V30 6500 H 624.802 -3.83701 -1.12309 0
M  V30 6501 H 626.242 -3.6567 -2.14619 0
M  V30 6502 C 624.701 -2.22159 -2.53272 0
M  V30 6503 O 625.231 -1.84802 -3.56667 0
M  V30 6504 N 623.437 -1.8633 -2.23001 0
M  V30 6505 H 622.984 -2.16909 -1.38954 0
M  V30 6506 H 622.942 -1.27927 -2.87197 0
M  V30 6507 N 626.714 -0.118576 -1.57153 0
M  V30 6508 C 627.96 0.540326 -1.95469 0
M  V30 6509 C 628.293 1.66356 -1.00196 0
M  V30 6510 O 627.568 1.94461 -0.039104 0
M  V30 6511 C 627.851 1.07342 -3.43729 0
M  V30 6512 C 627.704 -0.0463732 -4.49776 0
M  V30 6513 C 629.023 1.96442 -3.93826 0
M  V30 6514 H 626.142 0.19494 -0.710751 0
M  V30 6515 H 628.784 -0.19405 -1.89006 0
M  V30 6516 H 626.934 1.69925 -3.49368 0
M  V30 6517 H 628.606 -0.681648 -4.56236 0
M  V30 6518 H 626.849 -0.709574 -4.27957 0
M  V30 6519 H 627.52 0.367856 -5.50773 0
M  V30 6520 H 629.996 1.43731 -3.90488 0
M  V30 6521 H 628.872 2.3066 -4.98084 0
M  V30 6522 H 629.133 2.89077 -3.34495 0
M  V30 6523 N 628.193 1.56834 0.155195 0
M  V30 6524 C 629.44 1.82898 0.869179 0
M  V30 6525 C 629.768 0.698194 1.81537 0
M  V30 6526 O 629.023 -0.313404 1.93174 0
M  V30 6527 C 629.322 3.15239 1.68402 0
M  V30 6528 C 628.988 4.42123 0.885341 0
M  V30 6529 C 627.65 4.76583 0.664971 0
M  V30 6530 C 630.002 5.20178 0.326234 0
M  V30 6531 C 627.33 5.86566 -0.125346 0
M  V30 6532 C 629.682 6.3099 -0.45108 0
M  V30 6533 C 628.346 6.64006 -0.682102 0
M  V30 6534 H 627.616 0.66927 0.318055 0
M  V30 6535 H 630.263 1.91036 0.133241 0
M  V30 6536 H 628.568 3.02515 2.48982 0
M  V30 6537 H 630.265 3.32618 2.23978 0
M  V30 6538 H 626.855 4.15102 1.06716 0
M  V30 6539 H 631.039 4.93936 0.483787 0
M  V30 6540 H 626.295 6.10594 -0.313915 0
M  V30 6541 H 630.469 6.9067 -0.89149 0
M  V30 6542 H 628.096 7.49065 -1.29636 0
M  V30 6543 N 629.671 -0.424282 1.51781 0
M  V30 6544 C 630.896 -1.19928 1.6921 0
M  V30 6545 C 631.321 -1.8392 0.394355 0
M  V30 6546 O 630.679 -1.69371 -0.646778 0
M  V30 6547 C 630.727 -2.24937 2.81843 0
M  V30 6548 O 629.831 -3.3073 2.46356 0
M  V30 6549 H 629.172 -0.35078 0.563781 0
M  V30 6550 H 631.702 -0.499401 1.98412 0
M  V30 6551 H 631.712 -2.69512 3.06312 0
M  V30 6552 H 630.387 -1.77742 3.76006 0
M  V30 6553 H 628.964 -2.9154 2.32505 0
M  V30 6554 N 631.149 -1.42148 -0.680565 0
M  V30 6555 C 632.389 -1.4379 -1.45271 0
M  V30 6556 C 632.753 -0.0504426 -1.91934 0
M  V30 6557 O 633.954 0.0583916 -2.68737 0
M  V30 6558 C 632.225 -2.42904 -2.62168 0
M  V30 6559 S 633.784 -2.63201 -3.51099 0
M  V30 6560 H 630.602 -0.509185 -0.496237 0
M  V30 6561 H 633.204 -1.78706 -0.792744 0
M  V30 6562 H 631.908 -3.4249 -2.26116 0
M  V30 6563 H 631.439 -2.09394 -3.33043 0
M  V30 6564 H 633.454 -1.91068 -4.57938 0
M  V30 6565 N 632.627 0.916307 -1.28225 0
M  V30 6566 C 633.852 1.7043 -1.18188 0
M  V30 6567 C 634.277 1.86346 0.256274 0
M  V30 6568 O 633.635 1.37175 1.18544 0
M  V30 6569 C 633.683 3.07546 -1.88275 0
M  V30 6570 O 632.787 3.94904 -1.18848 0
M  V30 6571 H 632.128 0.521967 -0.410423 0
M  V30 6572 H 634.658 1.14589 -1.69501 0
M  V30 6573 H 634.668 3.57793 -1.96082 0
M  V30 6574 H 633.343 2.95279 -2.92887 0
M  V30 6575 H 631.92 3.53339 -1.19187 0
M  V30 6576 N 634.105 1.10431 1.1244 0
M  V30 6577 C 635.351 0.847972 1.84221 0
M  V30 6578 C 635.684 -0.624903 1.83871 0
M  V30 6579 O 634.959 -1.46074 1.28423 0
M  V30 6580 C 635.242 1.39695 3.319 0
M  V30 6581 C 635.095 2.93668 3.40704 0
M  V30 6582 C 636.414 1.03924 4.27654 0
M  V30 6583 H 633.533 0.309502 0.668863 0
M  V30 6584 H 636.175 1.36745 1.31912 0
M  V30 6585 H 634.325 0.955095 3.76577 0
M  V30 6586 H 635.997 3.46379 3.04662 0
M  V30 6587 H 634.24 3.30272 2.81252 0
M  V30 6588 H 634.911 3.27162 4.446 0
M  V30 6589 H 637.387 1.42049 3.91102 0
M  V30 6590 H 636.263 1.45027 5.29394 0
M  V30 6591 H 636.524 -0.051336 4.4207 0
M  V30 6592 N 635.583 -1.29855 0.893053 0
M  V30 6593 C 636.516 -2.26079 0.3104 0
M  V30 6594 C 637.494 -1.52145 -0.573644 0
M  V30 6595 O 638.678 -1.8113 -0.521937 0
M  V30 6596 C 635.805 -3.34069 -0.558179 0
M  V30 6597 C 634.851 -4.25721 0.257638 0
M  V30 6598 S 635.684 -5.09409 1.65114 0
M  V30 6599 C 636.84 -6.20903 0.789307 0
M  V30 6600 H 637.073 -2.75151 1.12602 0
M  V30 6601 H 634.606 -1.37975 0.692978 0
M  V30 6602 H 636.564 -3.9675 -1.05355 0
M  V30 6603 H 635.225 -2.83705 -1.34797 0
M  V30 6604 H 634.418 -5.02366 -0.405562 0
M  V30 6605 H 634.02 -3.67656 0.685917 0
M  V30 6606 H 636.312 -6.77499 0.00978451 0
M  V30 6607 H 637.255 -6.91426 1.52762 0
M  V30 6608 H 637.663 -5.63435 0.346634 0
M  V30 6609 N 637.061 -0.65484 -1.43351 0
M  V30 6610 C 638.011 0.0581325 -2.27926 0
M  V30 6611 C 638.995 0.793188 -1.3999 0
M  V30 6612 O 640.187 0.675387 -1.63608 0
M  V30 6613 C 637.316 1.02272 -3.27712 0
M  V30 6614 C 636.402 0.286048 -4.23134 0
M  V30 6615 N 636.793 -0.698298 -5.00957 0
M  V30 6616 C 635.091 0.527272 -4.42872 0
M  V30 6617 C 635.792 -1.1357 -5.70506 0
M  V30 6618 N 634.768 -0.469631 -5.41568 0
M  V30 6619 H 638.57 -0.697182 -2.85511 0
M  V30 6620 H 636.084 -0.482252 -1.55074 0
M  V30 6621 H 638.081 1.5483 -3.87083 0
M  V30 6622 H 636.741 1.77807 -2.71688 0
M  V30 6623 H 637.752 -1.07708 -5.06576 0
M  V30 6624 H 634.429 1.26367 -3.97916 0
M  V30 6625 H 635.819 -1.95027 -6.42973 0
M  V30 6626 N 638.539 1.52521 -0.396863 0
M  V30 6627 C 639.449 2.30403 0.44178 0
M  V30 6628 C 640.465 1.37625 1.06468 0
M  V30 6629 O 641.641 1.70697 1.06886 0
M  V30 6630 C 638.706 3.1013 1.54986 0
M  V30 6631 C 637.767 4.18628 0.951279 0
M  V30 6632 C 637 4.94543 2.00655 0
M  V30 6633 O 637.223 4.70629 3.22281 0
M  V30 6634 O 636.157 5.797 1.61962 0
M  V30 6635 H 639.983 3.03087 -0.192892 0
M  V30 6636 H 637.568 1.48537 -0.16038 0
M  V30 6637 H 639.45 3.59816 2.19341 0
M  V30 6638 H 638.125 2.40251 2.16935 0
M  V30 6639 H 637.032 3.73119 0.270773 0
M  V30 6640 H 638.365 4.90763 0.375887 0
M  V30 6641 N 640.017 0.126909 1.57088 0
M  V30 6642 C 640.98 -0.806097 2.14557 0
M  V30 6643 C 641.98 -1.18918 1.08236 0
M  V30 6644 O 643.17 -1.11339 1.33975 0
M  V30 6645 C 640.302 -2.09116 2.69227 0
M  V30 6646 H 641.495 -0.306522 2.98329 0
M  V30 6647 H 639.048 -0.122393 1.5582 0
M  V30 6648 H 639.783 -2.63486 1.89065 0
M  V30 6649 H 639.568 -1.82588 3.46993 0
M  V30 6650 H 641.058 -2.75794 3.13572 0
M  V30 6651 N 641.495 -1.56914 -0.146875 0
M  V30 6652 C 642.425 -2.01308 -1.1831 0
M  V30 6653 C 643.406 -0.892664 -1.44795 0
M  V30 6654 O 644.591 -1.16048 -1.55713 0
M  V30 6655 C 641.721 -2.3938 -2.51624 0
M  V30 6656 C 640.675 -3.54608 -2.3966 0
M  V30 6657 C 640.001 -3.78493 -3.77686 0
M  V30 6658 C 641.301 -4.87269 -1.88058 0
M  V30 6659 H 642.995 -2.88123 -0.813964 0
M  V30 6660 H 640.541 -1.38615 -0.3901 0
M  V30 6661 H 642.494 -2.69037 -3.24341 0
M  V30 6662 H 641.218 -1.49502 -2.90373 0
M  V30 6663 H 639.877 -3.25116 -1.69396 0
M  V30 6664 H 639.525 -2.85866 -4.13871 0
M  V30 6665 H 639.225 -4.56039 -3.70543 0
M  V30 6666 H 640.749 -4.10576 -4.51951 0
M  V30 6667 H 642.163 -5.15644 -2.50568 0
M  V30 6668 H 640.56 -5.68622 -1.91805 0
M  V30 6669 H 641.63 -4.77634 -0.836277 0
M  V30 6670 N 642.974 0.416227 -1.52004 0
M  V30 6671 C 643.924 1.50558 -1.7122 0
M  V30 6672 C 644.908 1.50613 -0.56609 0
M  V30 6673 O 646.1 1.56709 -0.822874 0
M  V30 6674 C 643.229 2.88556 -1.85984 0
M  V30 6675 C 642.315 2.93177 -3.06445 0
M  V30 6676 N 642.706 2.67505 -4.29272 0
M  V30 6677 C 641.004 3.24343 -3.06133 0
M  V30 6678 C 641.705 2.78511 -5.10692 0
M  V30 6679 N 640.681 3.11087 -4.45787 0
M  V30 6680 H 644.483 1.29494 -2.63834 0
M  V30 6681 H 641.997 0.62384 -1.4994 0
M  V30 6682 H 643.994 3.66954 -1.97865 0
M  V30 6683 H 642.654 3.10624 -0.945654 0
M  V30 6684 H 643.665 2.42033 -4.57865 0
M  V30 6685 H 640.342 3.52051 -2.24425 0
M  V30 6686 H 641.732 2.62438 -6.18527 0
M  V30 6687 N 644.452 1.42507 0.673017 0
M  V30 6688 C 645.4 1.46362 1.80779 0
M  V30 6689 C 646.394 0.339166 1.6597 0
M  V30 6690 O 647.6 0.512262 1.72557 0
M  V30 6691 H 643.975 0.458433 0.596107 0
M  V30 6692 H 645.946 2.41953 1.74646 0
M  V30 6693 C 644.695 1.38462 3.18941 0
M  V30 6694 H 644.018 2.24283 3.30964 0
M  V30 6695 H 645.458 1.45221 3.98355 0
M  V30 6696 C 643.917 0.0996354 3.36753 0
M  V30 6697 O 644.447 -0.846894 3.92671 0
M  V30 6698 N 642.653 0.016211 2.90595 0
M  V30 6699 H 642.2 0.78725 2.45276 0
M  V30 6700 H 642.158 -0.84291 3.0289 0
M  V30 6701 N 645.93 -0.909495 1.28709 0
M  V30 6702 C 647.346 -1.18862 1.06508 0
M  V30 6703 C 647.546 -2.00604 -0.189864 0
M  V30 6704 O 646.602 -2.36281 -0.890355 0
M  V30 6705 C 647.915 -1.91908 2.31499 0
M  V30 6706 C 649.463 -2.04773 2.36721 0
M  V30 6707 C 649.938 -2.81228 3.6149 0
M  V30 6708 N 651.429 -2.88787 3.62155 0
M  V30 6709 C 652.164 -3.48455 4.55375 0
M  V30 6710 N 651.66 -4.09369 5.58918 0
M  V30 6711 N 653.453 -3.46035 4.42963 0
M  V30 6712 H 645.604 -0.363867 2.0926 0
M  V30 6713 H 647.867 -0.223649 0.921241 0
M  V30 6714 H 647.573 -1.39275 3.22948 0
M  V30 6715 H 647.447 -2.92436 2.38245 0
M  V30 6716 H 649.834 -2.56585 1.45767 0
M  V30 6717 H 649.915 -1.03408 2.33967 0
M  V30 6718 H 649.559 -2.30094 4.5279 0
M  V30 6719 H 649.489 -3.82917 3.61499 0
M  V30 6720 H 651.98 -2.45514 2.87283 0
M  V30 6721 H 652.293 -4.52891 6.26187 0
M  V30 6722 H 650.638 -4.0786 5.62739 0
M  V30 6723 H 653.829 -2.9766 3.6127 0
M  V30 6724 H 654.002 -3.92244 5.15799 0
M  V30 6725 N 647.408 -1.11026 -1.11852 0
M  V30 6726 C 648.638 -0.877544 -1.87037 0
M  V30 6727 C 649.046 0.575925 -1.80221 0
M  V30 6728 O 648.389 1.40916 -1.17849 0
M  V30 6729 C 648.451 -1.25529 -3.36872 0
M  V30 6730 C 648.115 -2.71704 -3.67459 0
M  V30 6731 C 649.112 -3.69931 -3.65304 0
M  V30 6732 C 646.797 -3.08243 -3.966 0
M  V30 6733 C 648.791 -5.02717 -3.9186 0
M  V30 6734 C 646.478 -4.41215 -4.22815 0
M  V30 6735 C 647.476 -5.38262 -4.20432 0
M  V30 6736 O 647.164 -6.68839 -4.45992 0
M  V30 6737 H 646.896 -0.314374 -0.598452 0
M  V30 6738 H 649.45 -1.48015 -1.42411 0
M  V30 6739 H 647.68 -0.595808 -3.82082 0
M  V30 6740 H 649.369 -0.999064 -3.93413 0
M  V30 6741 H 650.135 -3.43047 -3.42846 0
M  V30 6742 H 646.014 -2.33326 -3.97593 0
M  V30 6743 H 649.558 -5.78456 -3.89916 0
M  V30 6744 H 645.455 -4.67835 -4.44748 0
M  V30 6745 H 646.223 -6.74563 -4.63581 0
M  V30 6746 N 648.886 1.2938 -0.899927 0
M  V30 6747 C 650.114 1.99691 -0.541386 0
M  V30 6748 C 650.529 1.67355 0.873936 0
M  V30 6749 O 649.886 0.918728 1.57688 0
M  V30 6750 C 649.937 3.54168 -0.72438 0
M  V30 6751 O 649.658 3.85359 -2.08399 0
M  V30 6752 C 651.159 4.41746 -0.370819 0
M  V30 6753 H 648.379 0.638037 -0.207726 0
M  V30 6754 H 650.923 1.6491 -1.20934 0
M  V30 6755 H 649.078 3.87261 -0.103607 0
M  V30 6756 H 649.492 4.80032 -2.11352 0
M  V30 6757 H 650.966 5.49256 -0.549693 0
M  V30 6758 H 651.443 4.33712 0.692148 0
M  V30 6759 H 652.049 4.14125 -0.968543 0
M  V30 6760 N 650.364 0.662433 1.43002 0
M  V30 6761 C 651.296 -0.062326 2.29115 0
M  V30 6762 C 652.309 -0.777926 1.43011 0
M  V30 6763 O 653.498 -0.634146 1.66856 0
M  V30 6764 C 650.598 -1.11163 3.2015 0
M  V30 6765 C 649.771 -0.472327 4.34842 0
M  V30 6766 C 648.83 -1.41974 5.06685 0
M  V30 6767 O 647.856 -0.924795 5.61637 0
M  V30 6768 N 649.058 -2.75345 5.11043 0
M  V30 6769 H 651.823 0.676838 2.91957 0
M  V30 6770 H 649.384 0.505907 1.53793 0
M  V30 6771 H 651.376 -1.74643 3.65078 0
M  V30 6772 H 649.946 -1.75266 2.58845 0
M  V30 6773 H 649.166 0.341751 3.92716 0
M  V30 6774 H 650.454 -0.0264381 5.08793 0
M  V30 6775 H 649.852 -3.18108 4.67786 0
M  V30 6776 H 648.409 -3.34105 5.59658 0
M  V30 6777 N 651.842 -1.52309 0.404946 0
M  V30 6778 C 652.789 -2.26898 -0.422597 0
M  V30 6779 C 653.759 -1.2914 -1.04461 0
M  V30 6780 O 654.944 -1.57996 -1.06967 0
M  V30 6781 C 652.084 -3.09053 -1.53559 0
M  V30 6782 C 651.197 -4.21762 -0.934908 0
M  V30 6783 C 650.332 -4.91283 -2.02025 0
M  V30 6784 C 649.371 -5.95962 -1.39628 0
M  V30 6785 N 648.508 -6.59017 -2.42159 0
M  V30 6786 H 653.348 -2.97188 0.219903 0
M  V30 6787 H 650.885 -1.46607 0.120282 0
M  V30 6788 H 652.843 -3.54987 -2.19181 0
M  V30 6789 H 651.473 -2.40942 -2.14818 0
M  V30 6790 H 650.525 -3.80029 -0.167854 0
M  V30 6791 H 651.837 -4.96864 -0.439073 0
M  V30 6792 H 650.991 -5.40601 -2.75383 0
M  V30 6793 H 649.73 -4.15741 -2.54973 0
M  V30 6794 H 648.735 -5.45968 -0.648023 0
M  V30 6795 H 649.96 -6.73445 -0.874553 0
M  V30 6796 H 647.906 -5.86306 -2.94247 0
M  V30 6797 H 647.823 -7.2978 -1.97376 0
M  V30 6798 H 649.091 -7.12974 -3.15099 0
M  V30 6799 N 653.32 -0.135238 -1.57019 0
M  V30 6800 C 654.545 0.529343 -2.00531 0
M  V30 6801 C 654.97 1.58391 -1.01459 0
M  V30 6802 O 654.328 1.81296 0.0113986 0
M  V30 6803 C 654.376 1.11748 -3.42848 0
M  V30 6804 O 653.48 2.23267 -3.46736 0
M  V30 6805 H 652.821 0.130669 -0.651016 0
M  V30 6806 H 655.351 -0.228503 -2.0332 0
M  V30 6807 H 655.361 1.44905 -3.81401 0
M  V30 6808 H 654.036 0.345147 -4.14465 0
M  V30 6809 H 652.613 1.91428 -3.20015 0
M  V30 6810 N 654.798 1.5699 0.138552 0
M  V30 6811 C 655.728 2.01933 1.17241 0
M  V30 6812 C 656.709 0.90033 1.44319 0
M  V30 6813 O 657.894 1.16872 1.55095 0
M  V30 6814 C 655.024 2.40711 2.50351 0
M  V30 6815 C 653.978 3.55874 2.37776 0
M  V30 6816 C 653.304 3.80491 3.75674 0
M  V30 6817 C 654.604 4.8826 1.85472 0
M  V30 6818 H 656.298 2.88551 0.798672 0
M  V30 6819 H 653.844 1.3882 0.382743 0
M  V30 6820 H 655.797 2.70754 3.22909 0
M  V30 6821 H 654.521 1.5104 2.89576 0
M  V30 6822 H 653.18 3.2601 1.67669 0
M  V30 6823 H 652.828 2.88057 4.12349 0
M  V30 6824 H 652.528 4.57998 3.68119 0
M  V30 6825 H 654.052 4.12967 4.49767 0
M  V30 6826 H 655.466 5.16965 2.4783 0
M  V30 6827 H 653.863 5.69631 1.88787 0
M  V30 6828 H 654.933 4.78071 0.810935 0
M  V30 6829 N 656.276 -0.40816 1.52223 0
M  V30 6830 C 657.501 -1.18127 1.70472 0
M  V30 6831 C 657.926 -1.83491 0.41384 0
M  V30 6832 O 657.284 -1.70047 -0.628778 0
M  V30 6833 C 657.332 -2.21935 2.84213 0
M  V30 6834 O 656.436 -3.28099 2.4985 0
M  V30 6835 H 655.777 -0.344781 0.56747 0
M  V30 6836 H 658.307 -0.478328 1.9893 0
M  V30 6837 H 658.317 -2.66248 3.09153 0
M  V30 6838 H 656.992 -1.73744 3.7787 0
M  V30 6839 H 655.569 -2.89058 2.35584 0
M  V30 6840 N 657.755 -1.42862 -0.66545 0
M  V30 6841 C 658.685 -1.49867 -1.79059 0
M  V30 6842 C 659.666 -0.354394 -1.66367 0
M  V30 6843 O 660.851 -0.569969 -1.85647 0
M  V30 6844 C 657.981 -1.40943 -3.17415 0
M  V30 6845 C 656.935 -2.53495 -3.44854 0
M  V30 6846 C 656.261 -2.29626 -4.82883 0
M  V30 6847 C 657.561 -3.95781 -3.40815 0
M  V30 6848 H 659.255 -2.44037 -1.73453 0
M  V30 6849 H 656.801 -1.17456 -0.833071 0
M  V30 6850 H 658.754 -1.4445 -3.95869 0
M  V30 6851 H 657.478 -0.432716 -3.23721 0
M  V30 6852 H 656.137 -2.4932 -2.68766 0
M  V30 6853 H 655.785 -1.30226 -4.8585 0
M  V30 6854 H 655.485 -3.05065 -5.02204 0
M  V30 6855 H 657.009 -2.34897 -5.63609 0
M  V30 6856 H 658.423 -4.01508 -4.09224 0
M  V30 6857 H 656.82 -4.71148 -3.71672 0
M  V30 6858 H 657.89 -4.21786 -2.39216 0
M  V30 6859 N 659.233 0.902656 -1.29189 0
M  V30 6860 C 660.458 1.69167 -1.19989 0
M  V30 6861 C 660.883 1.86607 0.236495 0
M  V30 6862 O 660.241 1.38425 1.17082 0
M  V30 6863 C 660.289 3.05532 -1.91527 0
M  V30 6864 O 659.393 3.93621 -1.2303 0
M  V30 6865 H 658.734 0.517584 -0.415936 0
M  V30 6866 H 661.264 1.12785 -1.70706 0
M  V30 6867 H 661.274 3.55693 -1.99866 0
M  V30 6868 H 659.949 2.92156 -2.96003 0
M  V30 6869 H 658.526 3.52055 -1.22928 0
M  V30 6870 N 660.711 1.11618 1.11262 0
M  V30 6871 C 662.122 0.881942 1.64556 0
M  V30 6872 C 662.473 -0.585442 1.87262 0
M  V30 6873 O 661.598 -1.44795 1.60821 0
M  V30 6874 C 662.193 1.59446 2.98935 0
M  V30 6875 C 660.752 1.40661 3.4913 0
M  V30 6876 C 659.899 1.63593 2.23903 0
M  V30 6877 H 662.85 1.27217 0.94877 0
M  V30 6878 H 662.871 1.04054 3.65996 0
M  V30 6879 H 662.383 2.66241 2.82378 0
M  V30 6880 H 660.484 0.360835 3.70849 0
M  V30 6881 H 660.597 2.15693 4.27801 0
M  V30 6882 H 658.961 1.05944 2.3162 0
M  V30 6883 H 659.744 2.71666 2.09886 0
M  V30 6884 O 662.228 -1.23648 1.03892 0
M  V30 6885 H 662.919 -1.80254 0.709093 0
M  V30 END ATOM
M  V30 BEGIN BOND
M  V30 END BOND
M  V30 END CTAB
M  END
$$$$
