drugbank_drug|DB14731 >tagraxofusp<<<
 OpenBabel12092119123D

  0  0  0     0  0            999 V3000
M  V30 BEGIN CTAB
M  V30 COUNTS 8072 8152 0 0 0
M  V30 BEGIN ATOM
M  V30 1 H -0.908 1.98254 -0.117106 0
M  V30 2 N 0 1.576 0 0
M  V30 3 C 0.933 2.03868 1.02534 0
M  V30 4 C 1.911 0.928543 1.3348 0
M  V30 5 O 3.095 1.19667 1.45644 0
M  V30 6 C 0.222 2.43627 2.35294 0
M  V30 7 C -0.732 3.65373 2.2001 0
M  V30 8 S 0.101 5.13292 1.52614 0
M  V30 9 C 1.257 5.56322 2.86805 0
M  V30 10 H 1.49 2.90518 0.631377 0
M  V30 11 H -0.977 1.52953 0.210867 0
M  V30 12 H 0.981 2.67203 3.11629 0
M  V30 13 H -0.358 1.57376 2.7183 0
M  V30 14 H -1.165 3.90944 3.18086 0
M  V30 15 H -1.563 3.418 1.51819 0
M  V30 16 H 0.729 5.58782 3.83104 0
M  V30 17 H 1.672 6.56266 2.65933 0
M  V30 18 H 2.08 4.83886 2.90714 0
M  V30 19 N 1.4781 -0.272755 1.55222 0
M  V30 20 C 2.7261 -1.00234 1.75492 0
M  V30 21 C 3.0471 -1.8681 0.5592 0
M  V30 22 O 2.3171 -1.91215 -0.425882 0
M  V30 23 H 0.8971 -0.373076 0.647166 0
M  V30 24 H 3.5591 -0.296926 1.92625 0
M  V30 25 H 2.6551 -1.63913 2.65592 0
M  V30 26 N 2.9562 -1.48159 -0.537278 0
M  V30 27 C 3.9192 -1.61665 -1.62472 0
M  V30 28 C 4.9192 -0.490395 -1.5314 0
M  V30 29 O 6.1092 -0.755998 -1.5694 0
M  V30 30 C 3.2412 -1.57997 -3.02076 0
M  V30 31 H 4.4342 -2.58621 -1.51839 0
M  V30 32 H 1.9872 -1.36647 -0.758771 0
M  V30 33 H 2.7222 -0.624913 -3.18222 0
M  V30 34 H 2.5072 -2.39755 -3.10258 0
M  V30 35 H 3.9972 -1.70627 -3.81151 0
M  V30 36 N 4.4343 0.785586 -1.36625 0
M  V30 37 C 5.7113 1.53198 -1.21613 0
M  V30 38 C 6.0913 2.10187 0.196113 0
M  V30 39 O 5.4393 1.94318 1.20219 0
M  V30 40 C 5.6493 2.62388 -2.30116 0
M  V30 41 C 6.9973 3.30167 -2.66974 0
M  V30 42 O 8.0213 2.72674 -2.29188 0
M  V30 43 O 6.8803 4.34077 -3.32023 0
M  V30 44 H 3.9743 0.677865 -0.473738 0
M  V30 45 H 6.5203 0.823739 -1.48367 0
M  V30 46 H 5.2923 2.18299 -3.24748 0
M  V30 47 H 4.9153 3.40827 -2.0475 0
M  V30 48 N 5.9124 1.20967 1.01018 0
M  V30 49 C 7.1894 0.93264 1.71934 0
M  V30 50 C 7.5694 -0.55692 2.03621 0
M  V30 51 O 6.9174 -1.52035 1.7058 0
M  V30 52 C 7.1274 1.81233 2.98254 0
M  V30 53 C 8.4754 2.05804 3.71389 0
M  V30 54 O 9.4994 1.78539 3.08225 0
M  V30 55 O 8.3584 2.51888 4.84989 0
M  V30 56 H 5.4524 0.349272 0.749625 0
M  V30 57 H 7.9984 1.31871 1.06808 0
M  V30 58 H 6.7704 2.82067 2.71208 0
M  V30 59 H 6.3934 1.42674 3.7112 0
M  V30 60 N 7.3905 -1.2043 1.01659 0
M  V30 61 C 8.6365 -1.90079 0.706963 0
M  V30 62 C 8.9695 -1.78648 -0.761474 0
M  V30 63 O 8.2445 -1.17069 -1.55323 0
M  V30 64 C 8.5275 -3.41469 1.14327 0
M  V30 65 C 8.3805 -3.61833 2.67201 0
M  V30 66 C 9.6995 -4.34261 0.714529 0
M  V30 67 H 6.8185 -0.690254 0.2583 0
M  V30 68 H 9.4605 -1.41826 1.26433 0
M  V30 69 H 7.6105 -3.82696 0.669056 0
M  V30 70 H 9.2825 -3.2986 3.22475 0
M  V30 71 H 7.5255 -3.05304 3.08175 0
M  V30 72 H 8.1965 -4.67955 2.92783 0
M  V30 73 H 10.6725 -4.00682 1.12221 0
M  V30 74 H 9.5485 -5.38806 1.04784 0
M  V30 75 H 9.8095 -4.40431 -0.383799 0
M  V30 76 N 8.8686 -0.792821 -1.36206 0
M  V30 77 C 10.1146 -0.36733 -1.99446 0
M  V30 78 C 10.4476 1.05917 -1.62774 0
M  V30 79 O 9.7226 1.7324 -0.88421 0
M  V30 80 C 10.0056 -0.535044 -3.56103 0
M  V30 81 C 9.8586 -2.00548 -4.02617 0
M  V30 82 C 11.1776 0.0478191 -4.40074 0
M  V30 83 H 8.2966 -0.134941 -0.724541 0
M  V30 84 H 10.9386 -0.999794 -1.61568 0
M  V30 85 H 9.0886 0.00336329 -3.885 0
M  V30 86 H 10.7606 -2.60521 -3.80692 0
M  V30 87 H 9.0036 -2.50686 -3.54032 0
M  V30 88 H 9.6746 -2.07377 -5.11565 0
M  V30 89 H 12.1506 -0.411822 -4.14057 0
M  V30 90 H 11.0266 -0.0995336 -5.4881 0
M  V30 91 H 11.2876 1.14025 -4.27142 0
M  V30 92 N 10.3467 1.47872 -0.545128 0
M  V30 93 C 11.6237 1.9554 0.0485222 0
M  V30 94 C 12.0037 1.4876 1.49779 0
M  V30 95 O 11.3517 0.720925 2.16829 0
M  V30 96 C 11.5617 3.48898 -0.084417 0
M  V30 97 C 12.9097 4.24547 0.0671239 0
M  V30 98 O 13.9337 3.56198 -0.0113649 0
M  V30 99 O 12.7927 5.45999 0.233882 0
M  V30 100 H 9.8867 0.823957 0.0708773 0
M  V30 101 H 12.4327 1.58327 -0.610798 0
M  V30 102 H 11.2047 3.75714 -1.09337 0
M  V30 103 H 10.8277 3.92845 0.613066 0
M  V30 104 N 11.8248 0.280983 1.55075 0
M  V30 105 C 13.0498 -0.340154 2.04592 0
M  V30 106 C 13.4748 -1.48246 1.15779 0
M  V30 107 O 12.8328 -1.80614 0.15761 0
M  V30 108 C 12.8808 -0.793104 3.5177 0
M  V30 109 O 11.9848 -1.89981 3.66034 0
M  V30 110 H 11.3258 -0.0694289 0.66036 0
M  V30 111 H 13.8558 0.416993 2.00306 0
M  V30 112 H 13.8658 -1.08729 3.93245 0
M  V30 113 H 12.5408 0.0426163 4.15878 0
M  V30 114 H 11.1178 -1.60771 3.36463 0
M  V30 115 N 13.3029 -1.57598 0.00835791 0
M  V30 116 C 14.5279 -1.95617 -0.689103 0
M  V30 117 C 14.9529 -0.883753 -1.66046 0
M  V30 118 O 14.3109 0.157352 -1.80616 0
M  V30 119 C 14.3589 -3.32736 -1.38994 0
M  V30 120 O 13.4629 -3.27631 -2.50463 0
M  V30 121 H 12.8039 -0.638379 -0.182668 0
M  V30 122 H 15.3339 -2.045 0.064036 0
M  V30 123 H 15.3439 -3.68494 -1.75147 0
M  V30 124 H 14.0189 -4.1034 -0.677778 0
M  V30 125 H 12.5959 -3.03561 -2.16576 0
M  V30 126 N 14.781 0.264519 -1.55364 0
M  V30 127 C 15.728 1.32717 -1.88825 0
M  V30 128 C 16.698 1.48675 -0.740605 0
M  V30 129 O 17.883 1.62945 -0.992657 0
M  V30 130 C 15.023 2.68089 -2.17307 0
M  V30 131 C 14.136 2.60284 -3.44785 0
M  V30 132 C 13.271 3.87892 -3.62924 0
M  V30 133 C 12.31 3.74631 -4.84064 0
M  V30 134 N 11.447 4.94092 -4.98816 0
M  V30 135 H 16.287 1.03481 -2.79456 0
M  V30 136 H 13.824 0.499757 -1.3835 0
M  V30 137 H 15.782 3.46864 -2.31821 0
M  V30 138 H 14.412 2.95509 -1.299 0
M  V30 139 H 13.464 1.73173 -3.38697 0
M  V30 140 H 14.776 2.46388 -4.33698 0
M  V30 141 H 13.93 4.75109 -3.77302 0
M  V30 142 H 12.669 4.04664 -2.7221 0
M  V30 143 H 11.674 2.85797 -4.69681 0
M  V30 144 H 12.899 3.5937 -5.76221 0
M  V30 145 H 10.845 5.11259 -4.11036 0
M  V30 146 H 10.762 4.8276 -5.81789 0
M  V30 147 H 12.03 5.82857 -5.17588 0
M  V30 148 N 16.2591 1.48442 0.529413 0
M  V30 149 C 17.4841 1.60406 1.31471 0
M  V30 150 C 17.9091 0.264738 1.86228 0
M  V30 151 O 17.2671 -0.763668 1.64432 0
M  V30 152 C 17.3151 2.65419 2.44101 0
M  V30 153 O 16.4191 2.22618 3.47153 0
M  V30 154 H 15.7601 0.537863 0.389357 0
M  V30 155 H 18.2901 1.94432 0.636965 0
M  V30 156 H 18.3001 2.86709 2.90279 0
M  V30 157 H 16.9751 3.62652 2.03608 0
M  V30 158 H 15.5521 2.11543 3.0709 0
M  V30 159 N 17.7372 -0.778329 1.37039 0
M  V30 160 C 18.9842 -1.53665 1.31884 0
M  V30 161 C 19.3122 -1.9425 -0.0986303 0
M  V30 162 O 18.5672 -1.63832 -1.07041 0
M  V30 163 C 18.8662 -2.81845 2.19768 0
M  V30 164 C 18.5322 -2.60345 3.68146 0
M  V30 165 C 17.1942 -2.5419 4.08584 0
M  V30 166 C 19.5462 -2.40923 4.62175 0
M  V30 167 C 16.8742 -2.26594 5.41177 0
M  V30 168 C 19.2262 -2.14852 5.94997 0
M  V30 169 C 17.8902 -2.07137 6.34547 0
M  V30 170 H 17.1602 -0.562299 0.482598 0
M  V30 171 H 19.8072 -0.897069 1.69189 0
M  V30 172 H 18.1122 -3.50328 1.75436 0
M  V30 173 H 19.8092 -3.39692 2.13097 0
M  V30 174 H 16.3992 -2.65996 3.36072 0
M  V30 175 H 20.5832 -2.44673 4.31797 0
M  V30 176 H 15.8392 -2.19111 5.70789 0
M  V30 177 H 20.0132 -1.98822 6.67415 0
M  V30 178 H 17.6402 -1.85518 7.37216 0
M  V30 179 N 19.2153 -1.21501 -1.00376 0
M  V30 180 C 20.4613 -1.03452 -1.74429 0
M  V30 181 C 20.7943 0.430764 -1.89362 0
M  V30 182 O 20.0693 1.31962 -1.42886 0
M  V30 183 C 20.3523 -1.73375 -3.15615 0
M  V30 184 C 20.2053 -3.27431 -3.08397 0
M  V30 185 C 21.5243 -1.47732 -4.14564 0
M  V30 186 H 18.6433 -0.377226 -0.633143 0
M  V30 187 H 21.2853 -1.49693 -1.17013 0
M  V30 188 H 19.4353 -1.34064 -3.64636 0
M  V30 189 H 21.1073 -3.76119 -2.67081 0
M  V30 190 H 19.3503 -3.5767 -2.45468 0
M  V30 191 H 20.0213 -3.71524 -4.08258 0
M  V30 192 H 22.4973 -1.8186 -3.74254 0
M  V30 193 H 21.3733 -1.99169 -5.11491 0
M  V30 194 H 21.6343 -0.407589 -4.40217 0
M  V30 195 N 20.6934 1.19889 -1.02296 0
M  V30 196 C 21.6264 2.21639 -0.543282 0
M  V30 197 C 22.6044 1.57275 0.412698 0
M  V30 198 O 23.7884 1.85568 0.331198 0
M  V30 199 C 20.9154 3.38057 0.208571 0
M  V30 200 C 19.9614 4.20751 -0.697933 0
M  V30 201 S 20.7944 4.89529 -2.17075 0
M  V30 202 C 21.9504 6.09363 -1.42923 0
M  V30 203 H 22.1834 2.61984 -1.40541 0
M  V30 204 H 19.7164 1.30041 -0.832387 0
M  V30 205 H 21.6744 4.05539 0.63624 0
M  V30 206 H 20.3354 2.96159 1.04635 0
M  V30 207 H 19.5284 5.03862 -0.117831 0
M  V30 208 H 19.1304 3.58556 -1.06366 0
M  V30 209 H 21.4224 6.73742 -0.712637 0
M  V30 210 H 22.3654 6.71845 -2.23673 0
M  V30 211 H 22.7734 5.56798 -0.929327 0
M  V30 212 N 22.1715 0.800033 1.35784 0
M  V30 213 C 23.0815 0.207204 2.33683 0
M  V30 214 C 24.0975 -0.64631 1.61551 0
M  V30 215 O 25.2735 -0.559604 1.93469 0
M  V30 216 C 22.3385 -0.639659 3.40748 0
M  V30 217 C 21.3995 0.233585 4.28664 0
M  V30 218 C 20.6325 -0.572954 5.30616 0
M  V30 219 O 20.8555 -1.80816 5.40982 0
M  V30 220 O 19.7895 0.0327285 6.01891 0
M  V30 221 H 23.6155 1.01692 2.86169 0
M  V30 222 H 21.2005 0.561691 1.38439 0
M  V30 223 H 23.0825 -1.12223 4.06182 0
M  V30 224 H 21.7575 -1.42708 2.90544 0
M  V30 225 H 20.6645 0.763147 3.66233 0
M  V30 226 H 21.9975 0.984784 4.82248 0
M  V30 227 N 23.6496 -1.47581 0.552962 0
M  V30 228 C 24.5976 -2.31648 -0.21023 0
M  V30 229 C 25.5916 -1.42663 -0.913432 0
M  V30 230 O 26.7976 -1.5945 -0.835201 0
M  V30 231 H 23.1726 -0.746989 -0.0866676 0
M  V30 232 H 25.1436 -2.93869 0.518051 0
M  V30 233 C 23.8926 -3.25226 -1.22976 0
M  V30 234 H 23.2156 -3.93658 -0.698077 0
M  V30 235 H 24.6556 -3.86889 -1.73473 0
M  V30 236 C 23.1146 -2.48448 -2.27542 0
M  V30 237 O 23.6446 -2.22585 -3.34393 0
M  V30 238 N 21.8506 -2.09532 -2.01357 0
M  V30 239 H 21.3976 -2.30765 -1.14478 0
M  V30 240 H 21.3556 -1.58476 -2.71538 0
M  V30 241 N 25.1277 -0.289203 -1.54924 0
M  V30 242 C 26.3747 0.323519 -1.99899 0
M  V30 243 C 26.7027 1.54797 -1.17762 0
M  V30 244 O 25.9577 1.94237 -0.238835 0
M  V30 245 C 26.2567 0.736119 -3.49737 0
M  V30 246 C 25.9227 -0.385276 -4.49251 0
M  V30 247 C 24.5847 -0.693156 -4.76181 0
M  V30 248 C 26.9367 -1.14021 -5.08575 0
M  V30 249 C 24.2647 -1.7593 -5.59701 0
M  V30 250 C 26.6167 -2.19619 -5.93254 0
M  V30 251 C 25.2807 -2.51026 -6.185 0
M  V30 252 H 24.5507 0.118384 -0.731482 0
M  V30 253 H 27.1977 -0.405847 -1.8715 0
M  V30 254 H 25.5027 1.54539 -3.60035 0
M  V30 255 H 27.1997 1.22118 -3.81953 0
M  V30 256 H 23.7897 -0.135202 -4.28387 0
M  V30 257 H 27.9737 -0.915611 -4.87781 0
M  V30 258 H 23.2297 -2.0075 -5.77503 0
M  V30 259 H 27.4037 -2.78581 -6.38252 0
M  V30 260 H 25.0307 -3.33772 -6.83008 0
M  V30 261 N 26.6058 1.57591 -0.0167156 0
M  V30 262 C 27.8308 1.9598 0.67872 0
M  V30 263 C 28.2558 0.892546 1.65575 0
M  V30 264 O 27.6138 -0.147772 1.80697 0
M  V30 265 C 27.6618 3.33468 1.37227 0
M  V30 266 O 26.7658 3.28954 2.48722 0
M  V30 267 H 26.1068 0.639339 0.17928 0
M  V30 268 H 28.6368 2.04463 -0.0748802 0
M  V30 269 H 28.6468 3.69417 1.7319 0
M  V30 270 H 27.3218 4.10694 0.656007 0
M  V30 271 H 25.8988 3.04705 2.14963 0
M  V30 272 N 28.0839 -0.256276 1.55502 0
M  V30 273 C 29.3089 -1.00766 1.81276 0
M  V30 274 C 29.7339 -1.78524 0.59252 0
M  V30 275 O 29.0919 -1.75413 -0.45827 0
M  V30 276 C 29.1399 -1.92869 3.04687 0
M  V30 277 O 28.2439 -3.019 2.80945 0
M  V30 278 H 27.5849 -0.287224 0.598664 0
M  V30 279 H 30.1149 -0.280109 2.02674 0
M  V30 280 H 30.1249 -2.34511 3.33869 0
M  V30 281 H 28.7999 -1.35689 3.93143 0
M  V30 282 H 27.3769 -2.64454 2.62904 0
M  V30 283 N 29.562 -1.4872 -0.521534 0
M  V30 284 C 30.792 -1.6061 -1.29954 0
M  V30 285 C 31.2 -0.268728 -1.87282 0
M  V30 286 O 30.543 0.753221 -1.67548 0
M  V30 287 C 30.605 -2.60013 -2.48261 0
M  V30 288 C 30.269 -4.04874 -2.11957 0
M  V30 289 C 31.266 -4.92304 -1.67132 0
M  V30 290 C 28.951 -4.5047 -2.22221 0
M  V30 291 C 30.945 -6.2336 -1.33047 0
M  V30 292 C 28.632 -5.81544 -1.87748 0
M  V30 293 C 29.63 -6.67812 -1.43234 0
M  V30 294 O 29.318 -7.96446 -1.09217 0
M  V30 295 H 29.05 -0.544116 -0.401141 0
M  V30 296 H 31.604 -1.95339 -0.634958 0
M  V30 297 H 29.834 -2.20422 -3.17728 0
M  V30 298 H 31.523 -2.61648 -3.10315 0
M  V30 299 H 32.289 -4.58312 -1.58665 0
M  V30 300 H 28.168 -3.83504 -2.55823 0
M  V30 301 H 31.712 -6.90649 -0.982299 0
M  V30 302 H 27.609 -6.15069 -1.95858 0
M  V30 303 H 28.377 -8.09275 -1.22542 0
M  V30 304 N 31.0401 0.771051 -1.3745 0
M  V30 305 C 31.9901 1.87456 -1.29785 0
M  V30 306 C 32.9741 1.59827 -0.185541 0
M  V30 307 O 34.1661 1.71945 -0.419997 0
M  V30 308 C 31.2951 3.24935 -1.1078 0
M  V30 309 C 30.3811 3.58514 -2.26558 0
M  V30 310 N 30.7721 3.6327 -3.5195 0
M  V30 311 C 29.0701 3.88683 -2.18727 0
M  V30 312 C 29.7711 3.93616 -4.283 0
M  V30 313 N 28.7471 4.09551 -3.57448 0
M  V30 314 H 32.5491 1.89386 -2.24745 0
M  V30 315 H 30.0631 0.967531 -1.30432 0
M  V30 316 H 32.0601 4.03881 -1.03374 0
M  V30 317 H 30.7201 3.24268 -0.16738 0
M  V30 318 H 31.7311 3.45458 -3.85848 0
M  V30 319 H 28.4081 3.95834 -1.32746 0
M  V30 320 H 29.7981 4.04066 -5.36824 0
M  V30 321 N 32.5182 1.22032 0.997298 0
M  V30 322 C 33.7662 1.04016 1.73278 0
M  V30 323 C 34.0872 -0.426255 1.90284 0
M  V30 324 O 33.3572 -1.30694 1.45931 0
M  V30 325 H 31.9372 0.381897 0.642 0
M  V30 326 H 34.5992 1.5347 1.20137 0
M  V30 327 H 33.6952 1.51441 2.72896 0
M  V30 328 N 33.9963 -1.19345 1.0293 0
M  V30 329 C 35.2243 -1.92997 0.745644 0
M  V30 330 C 35.6393 -1.75519 -0.695589 0
M  V30 331 O 34.9963 -1.07737 -1.47306 0
M  V30 332 C 35.0473 -3.44741 1.08792 0
M  V30 333 O 34.7683 -3.61658 2.47256 0
M  V30 334 C 36.2693 -4.35515 0.827129 0
M  V30 335 H 33.4893 -0.613042 0.272801 0
M  V30 336 H 36.0333 -1.51473 1.3739 0
M  V30 337 H 34.1883 -3.84097 0.504832 0
M  V30 338 H 34.6023 -4.55514 2.60015 0
M  V30 339 H 36.0763 -5.40589 1.11658 0
M  V30 340 H 36.5533 -4.38552 -0.238436 0
M  V30 341 H 37.1593 -4.01841 1.39297 0
M  V30 342 N 35.4744 -0.807222 -1.35358 0
M  V30 343 C 36.4214 -0.216037 -2.29787 0
M  V30 344 C 37.3914 0.650278 -1.52842 0
M  V30 345 O 38.5764 0.595227 -1.81278 0
M  V30 346 C 35.7164 0.628893 -3.39321 0
M  V30 347 C 34.8294 -0.257927 -4.31229 0
M  V30 348 C 33.9644 0.595069 -5.27856 0
M  V30 349 C 33.0034 -0.292111 -6.11403 0
M  V30 350 N 32.1404 0.520895 -7.00165 0
M  V30 351 H 36.9804 -1.02671 -2.79755 0
M  V30 352 H 34.5174 -0.517839 -1.37684 0
M  V30 353 H 36.4754 1.13393 -4.01494 0
M  V30 354 H 35.1054 1.40482 -2.90628 0
M  V30 355 H 34.1574 -0.881076 -3.70056 0
M  V30 356 H 35.4694 -0.940759 -4.89848 0
M  V30 357 H 34.6234 1.16522 -5.95405 0
M  V30 358 H 33.3624 1.31146 -4.69736 0
M  V30 359 H 32.3674 -0.874525 -5.428 0
M  V30 360 H 33.5924 -1.00638 -6.71602 0
M  V30 361 H 31.5384 1.22125 -6.44532 0
M  V30 362 H 31.4554 -0.103877 -7.55929 0
M  V30 363 H 32.7234 1.0743 -7.72062 0
M  V30 364 N 36.9525 1.47285 -0.560781 0
M  V30 365 C 38.3635 1.86258 -0.128343 0
M  V30 366 C 38.7145 1.46699 1.30284 0
M  V30 367 O 37.8395 0.871698 1.98067 0
M  V30 368 C 38.4345 3.38044 -0.22614 0
M  V30 369 C 36.9935 3.76096 0.151283 0
M  V30 370 C 36.1405 2.71335 -0.572084 0
M  V30 371 H 39.0915 1.38752 -0.770297 0
M  V30 372 H 39.1125 3.76441 0.554322 0
M  V30 373 H 38.6245 3.66806 -1.26788 0
M  V30 374 H 36.7255 3.52951 1.19399 0
M  V30 375 H 36.8385 4.78641 -0.209765 0
M  V30 376 H 35.2025 2.54696 -0.0147653 0
M  V30 377 H 35.9855 3.02938 -1.61504 0
M  V30 378 N 38.4306 0.297415 1.54768 0
M  V30 379 C 39.6786 -0.312295 1.99673 0
M  V30 380 C 39.9996 -1.54686 1.18732 0
M  V30 381 O 39.2696 -1.93854 0.282382 0
M  V30 382 H 37.8496 -0.118381 0.73756 0
M  V30 383 H 40.5116 0.407915 1.90583 0
M  V30 384 H 39.6076 -0.586813 3.06534 0
M  V30 385 N 39.9087 -1.5758 0.0250728 0
M  V30 386 C 41.1387 -1.95646 -0.663783 0
M  V30 387 C 41.5467 -0.899935 -1.66427 0
M  V30 388 O 40.8897 0.127191 -1.83259 0
M  V30 389 C 40.9517 -3.29835 -1.43 0
M  V30 390 C 40.6157 -4.53197 -0.588305 0
M  V30 391 C 41.6127 -5.19726 0.13469 0
M  V30 392 C 39.2977 -4.99529 -0.526897 0
M  V30 393 C 41.2917 -6.30902 0.90781 0
M  V30 394 C 38.9787 -6.10589 0.24993 0
M  V30 395 C 39.9767 -6.76134 0.965994 0
M  V30 396 O 39.6647 -7.85062 1.7301 0
M  V30 397 H 39.3967 -0.649282 -0.188174 0
M  V30 398 H 41.9507 -2.05245 0.0799006 0
M  V30 399 H 40.1807 -3.16716 -2.21873 0
M  V30 400 H 41.8697 -3.52833 -2.00658 0
M  V30 401 H 42.6357 -4.84904 0.0965562 0
M  V30 402 H 38.5147 -4.48319 -1.07381 0
M  V30 403 H 42.0587 -6.81995 1.46724 0
M  V30 404 H 37.9557 -6.44849 0.289795 0
M  V30 405 H 38.7237 -8.01708 1.64944 0
M  V30 406 N 41.3868 0.248026 -1.55636 0
M  V30 407 C 42.6328 0.97767 -1.77678 0
M  V30 408 C 42.9658 1.85016 -0.590135 0
M  V30 409 O 42.2408 1.90095 0.411611 0
M  V30 410 C 42.5238 1.83914 -3.09593 0
M  V30 411 C 42.3768 0.99491 -4.38659 0
M  V30 412 C 43.6958 2.82183 -3.37729 0
M  V30 413 H 40.8148 0.354005 -0.646413 0
M  V30 414 H 43.4568 0.248253 -1.88371 0
M  V30 415 H 41.6068 2.46104 -3.00608 0
M  V30 416 H 43.2788 0.391789 -4.59633 0
M  V30 417 H 41.5218 0.299231 -4.32767 0
M  V30 418 H 42.1928 1.63145 -5.2734 0
M  V30 419 H 44.6688 2.30129 -3.4667 0
M  V30 420 H 43.5448 3.39582 -4.31249 0
M  V30 421 H 43.8058 3.58588 -2.58586 0
M  V30 422 N 42.8649 1.48995 0.513639 0
M  V30 423 C 44.1419 1.48338 1.27495 0
M  V30 424 C 44.5219 0.204065 2.10111 0
M  V30 425 O 43.8699 -0.813881 2.13514 0
M  V30 426 C 44.0799 2.75498 2.14247 0
M  V30 427 C 45.4279 3.24484 2.73852 0
M  V30 428 O 46.4519 2.76528 2.24523 0
M  V30 429 O 45.3109 4.07974 3.6362 0
M  V30 430 H 42.4049 0.593149 0.576284 0
M  V30 431 H 44.9509 1.61246 0.528948 0
M  V30 432 H 43.7229 3.60109 1.53092 0
M  V30 433 H 43.3459 2.6539 2.96064 0
M  V30 434 N 44.343 -0.763751 1.37857 0
M  V30 435 C 45.568 -1.55805 1.36893 0
M  V30 436 C 45.993 -1.88054 -0.0416135 0
M  V30 437 O 45.351 -1.49825 -1.02089 0
M  V30 438 C 45.399 -2.84012 2.22192 0
M  V30 439 O 44.503 -3.78732 1.63204 0
M  V30 440 H 43.844 -0.471638 0.46739 0
M  V30 441 H 46.374 -0.944657 1.81487 0
M  V30 442 H 46.384 -3.33037 2.35691 0
M  V30 443 H 45.059 -2.59869 3.24716 0
M  V30 444 H 43.636 -3.37402 1.58791 0
M  V30 445 N 45.8211 -1.22559 -0.990812 0
M  V30 446 C 47.0701 -1.04553 -1.72486 0
M  V30 447 C 47.3831 0.419349 -1.91052 0
M  V30 448 O 48.5891 0.719121 -2.61803 0
M  V30 449 C 47.0451 -1.82231 -3.10355 0
M  V30 450 C 46.6531 -3.32981 -2.99713 0
M  V30 451 C 48.3971 -1.7268 -3.87791 0
M  V30 452 C 46.3041 -4.03091 -4.32748 0
M  V30 453 H 45.2341 -0.387614 -0.646739 0
M  V30 454 H 47.8851 -1.46429 -1.10593 0
M  V30 455 H 46.2671 -1.33155 -3.72942 0
M  V30 456 H 47.4411 -3.89466 -2.46278 0
M  V30 457 H 45.7561 -3.43231 -2.35758 0
M  V30 458 H 48.3531 -2.22381 -4.86262 0
M  V30 459 H 48.6961 -0.687607 -4.10582 0
M  V30 460 H 49.2291 -2.1931 -3.31885 0
M  V30 461 H 45.9681 -5.07273 -4.15156 0
M  V30 462 H 45.4881 -3.51394 -4.86089 0
M  V30 463 H 47.1671 -4.08804 -5.01486 0
M  V30 464 N 47.2992 1.18797 -1.03562 0
M  V30 465 C 48.2312 2.21731 -0.580337 0
M  V30 466 C 49.2442 1.59051 0.347349 0
M  V30 467 O 50.4332 1.77929 0.142669 0
M  V30 468 C 47.5332 3.38459 0.172805 0
M  V30 469 C 46.7062 4.3072 -0.761496 0
M  V30 470 C 45.7652 5.26174 -0.0525547 0
M  V30 471 O 44.7912 5.65108 -0.681333 0
M  V30 472 N 45.9932 5.67624 1.21586 0
M  V30 473 H 48.7582 2.61417 -1.46565 0
M  V30 474 H 46.3192 1.33531 -0.915476 0
M  V30 475 H 48.3112 3.99335 0.656793 0
M  V30 476 H 46.8812 2.97507 0.959602 0
M  V30 477 H 46.1012 3.67525 -1.42544 0
M  V30 478 H 47.3892 4.89267 -1.39626 0
M  V30 479 H 46.7872 5.38038 1.74732 0
M  V30 480 H 45.3442 6.30721 1.64421 0
M  V30 481 N 48.7773 0.814389 1.34928 0
M  V30 482 C 49.7243 0.22822 2.29669 0
M  V30 483 C 50.6943 -0.642164 1.53184 0
M  V30 484 O 51.8793 -0.585605 1.81591 0
M  V30 485 C 49.0193 -0.61089 3.3965 0
M  V30 486 C 48.1323 0.280792 4.31086 0
M  V30 487 C 47.2673 -0.567067 5.28165 0
M  V30 488 C 46.3063 0.324531 6.11239 0
M  V30 489 N 45.4433 -0.483756 7.00431 0
M  V30 490 H 50.2833 1.04153 2.79206 0
M  V30 491 H 47.8203 0.525133 1.37407 0
M  V30 492 H 49.7783 -1.11263 4.0209 0
M  V30 493 H 48.4083 -1.38939 2.91369 0
M  V30 494 H 47.4603 0.900688 3.69583 0
M  V30 495 H 48.7723 0.966723 4.89342 0
M  V30 496 H 47.9263 -1.13363 5.96015 0
M  V30 497 H 46.6653 -1.28654 4.70425 0
M  V30 498 H 45.6703 0.903298 5.42329 0
M  V30 499 H 46.8953 1.04198 6.71059 0
M  V30 500 H 44.8413 -1.18706 6.45171 0
M  V30 501 H 44.7583 0.143965 7.55863 0
M  V30 502 H 46.0263 -1.03334 7.7262 0
M  V30 503 N 50.2554 -1.46986 0.568584 0
M  V30 504 C 51.5034 -2.02041 0.0487022 0
M  V30 505 C 51.8244 -1.44408 -1.31039 0
M  V30 506 O 51.0944 -0.623477 -1.85714 0
M  V30 507 H 49.6744 -0.746849 0.015014 0
M  V30 508 H 52.3364 -1.80257 0.741168 0
M  V30 509 H 51.4324 -3.12085 -0.0308961 0
M  V30 510 N 51.7335 -0.305618 -1.54608 0
M  V30 511 C 52.9825 0.303098 -1.9941 0
M  V30 512 C 53.2955 1.54648 -1.19764 0
M  V30 513 O 54.5015 2.23007 -1.54855 0
M  V30 514 C 52.9575 0.590588 -3.55021 0
M  V30 515 C 52.5655 -0.634719 -4.43481 0
M  V30 516 C 54.3095 1.16025 -4.08336 0
M  V30 517 C 52.2165 -0.320126 -5.90533 0
M  V30 518 H 51.1465 0.117031 -0.744862 0
M  V30 519 H 53.7975 -0.415045 -1.78745 0
M  V30 520 H 52.1795 1.36845 -3.71604 0
M  V30 521 H 53.3535 -1.41079 -4.38672 0
M  V30 522 H 51.6685 -1.12333 -4.00962 0
M  V30 523 H 54.2655 1.40994 -5.15776 0
M  V30 524 H 54.6085 2.10397 -3.5922 0
M  V30 525 H 55.1415 0.443985 -3.95315 0
M  V30 526 H 51.8805 -1.23254 -6.43808 0
M  V30 527 H 51.4005 0.418579 -5.98338 0
M  V30 528 H 53.0795 0.0766241 -6.46955 0
M  V30 529 N 53.2116 1.57565 -0.0334293 0
M  V30 530 C 54.1436 2.0739 0.975811 0
M  V30 531 C 55.1566 0.998166 1.2861 0
M  V30 532 O 56.3456 1.27426 1.25 0
M  V30 533 C 53.4456 2.4871 2.30209 0
M  V30 534 C 52.6186 3.79413 2.17634 0
M  V30 535 C 51.6776 4.07237 3.33233 0
M  V30 536 O 50.7036 4.77425 3.09927 0
M  V30 537 N 51.9056 3.5775 4.5716 0
M  V30 538 H 54.6706 2.94598 0.55066 0
M  V30 539 H 52.2316 1.61173 0.15323 0
M  V30 540 H 54.2236 2.64413 3.06378 0
M  V30 541 H 52.7936 1.66845 2.64351 0
M  V30 542 H 52.0136 3.73465 1.26165 0
M  V30 543 H 53.3016 4.65038 2.0644 0
M  V30 544 H 52.6996 3.00976 4.78989 0
M  V30 545 H 51.2566 3.78724 5.30482 0
M  V30 546 N 54.6897 -0.239769 1.55765 0
M  V30 547 C 55.6367 -1.29696 1.90913 0
M  V30 548 C 56.6067 -1.47478 0.764164 0
M  V30 549 O 57.7917 -1.61345 1.01845 0
M  V30 550 C 54.9317 -2.64598 2.21544 0
M  V30 551 C 54.0447 -2.54765 3.48882 0
M  V30 552 C 53.1797 -3.82069 3.69049 0
M  V30 553 C 52.2187 -3.66883 4.89963 0
M  V30 554 N 51.3557 -4.86094 5.06614 0
M  V30 555 H 56.1957 -0.990224 2.81067 0
M  V30 556 H 53.7327 -0.477684 1.39128 0
M  V30 557 H 55.6907 -3.43132 2.3731 0
M  V30 558 H 54.3207 -2.93405 1.34585 0
M  V30 559 H 53.3727 -1.67763 3.41409 0
M  V30 560 H 54.6847 -2.39457 4.37563 0
M  V30 561 H 53.8387 -4.69046 3.84812 0
M  V30 562 H 52.5777 -4.00282 2.78614 0
M  V30 563 H 51.5827 -2.78289 4.74168 0
M  V30 564 H 52.8077 -3.50157 5.81865 0
M  V30 565 H 50.7537 -5.04655 4.19117 0
M  V30 566 H 50.6707 -4.73443 5.89396 0
M  V30 567 H 51.9387 -5.74549 5.26795 0
M  V30 568 N 56.1678 -1.49265 -0.50573 0
M  V30 569 C 57.5788 -1.51769 -1.08734 0
M  V30 570 C 57.9298 -0.301192 -1.93874 0
M  V30 571 O 57.0548 0.589456 -2.08217 0
M  V30 572 C 57.6498 -2.75017 -1.97867 0
M  V30 573 C 56.2088 -2.80314 -2.51199 0
M  V30 574 C 55.3558 -2.4562 -1.28709 0
M  V30 575 H 58.3068 -1.56031 -0.289855 0
M  V30 576 H 58.3278 -2.5491 -2.82491 0
M  V30 577 H 57.8398 -3.63539 -1.35873 0
M  V30 578 H 55.9408 -1.96061 -3.16845 0
M  V30 579 H 56.0538 -3.82366 -2.88675 0
M  V30 580 H 54.4178 -1.97297 -1.61078 0
M  V30 581 H 55.2008 -3.36411 -0.6843 0
M  V30 582 N 57.6459 0.756429 -1.3826 0
M  V30 583 C 58.5929 1.87011 -1.35261 0
M  V30 584 C 59.5629 1.64695 -0.215616 0
M  V30 585 O 60.7479 1.864 -0.407399 0
M  V30 586 C 57.8879 3.24275 -1.18068 0
M  V30 587 C 57.0009 3.58442 -2.41129 0
M  V30 588 C 56.1359 4.84994 -2.16689 0
M  V30 589 C 55.1749 5.11939 -3.35537 0
M  V30 590 N 54.3119 6.29685 -3.10549 0
M  V30 591 H 59.1519 1.8891 -2.30472 0
M  V30 592 H 56.6889 0.923373 -1.14509 0
M  V30 593 H 58.6469 4.03479 -1.06116 0
M  V30 594 H 57.2769 3.21711 -0.264973 0
M  V30 595 H 56.3289 2.74103 -2.63764 0
M  V30 596 H 57.6409 3.74283 -3.29717 0
M  V30 597 H 56.7949 5.72135 -2.01857 0
M  V30 598 H 55.5339 4.71286 -1.25462 0
M  V30 599 H 54.5389 4.23268 -3.50891 0
M  V30 600 H 55.7639 5.27546 -4.27635 0
M  V30 601 H 53.7099 6.17306 -2.21967 0
M  V30 602 H 53.6269 6.46014 -3.92686 0
M  V30 603 H 54.8949 7.19722 -2.99367 0
M  V30 604 N 59.124 1.23083 0.984299 0
M  V30 605 C 60.349 1.088 1.76571 0
M  V30 606 C 60.774 -0.356657 1.84688 0
M  V30 607 O 60.132 -1.25788 1.30565 0
M  V30 608 C 60.18 1.71371 3.17277 0
M  V30 609 O 59.284 0.973213 4.00752 0
M  V30 610 H 58.625 0.381599 0.543395 0
M  V30 611 H 61.155 1.63057 1.23587 0
M  V30 612 H 61.165 1.76449 3.67872 0
M  V30 613 H 59.84 2.76493 3.10684 0
M  V30 614 H 58.417 0.999078 3.59267 0
M  V30 615 N 60.6021 -1.18246 1.0419 0
M  V30 616 C 61.8501 -1.87886 0.744543 0
M  V30 617 C 62.1711 -1.8082 -0.730006 0
M  V30 618 O 61.4411 -1.22736 -1.52685 0
M  V30 619 H 60.0211 -0.695556 0.272417 0
M  V30 620 H 62.6831 -1.43494 1.31892 0
M  V30 621 H 61.7791 -2.9389 1.05049 0
M  V30 622 N 62.0802 -0.821533 -1.34494 0
M  V30 623 C 63.3082 -0.421884 -2.02553 0
M  V30 624 C 63.7232 0.971745 -1.61872 0
M  V30 625 O 63.0802 1.62864 -0.823496 0
M  V30 626 C 63.1312 -0.51285 -3.57844 0
M  V30 627 O 62.8522 -1.85155 -3.97051 0
M  V30 628 C 64.3532 -0.107921 -4.43169 0
M  V30 629 H 61.5732 -0.169482 -0.649243 0
M  V30 630 H 64.1172 -1.1093 -1.71798 0
M  V30 631 H 62.2722 0.126474 -3.87193 0
M  V30 632 H 62.6862 -1.82482 -4.91732 0
M  V30 633 H 64.1602 -0.222657 -5.51551 0
M  V30 634 H 64.6372 0.948401 -4.28838 0
M  V30 635 H 65.2432 -0.720989 -4.19144 0
M  V30 636 N 63.5583 1.46682 -0.576371 0
M  V30 637 C 64.4903 2.28341 0.198231 0
M  V30 638 C 65.5033 1.38141 0.861453 0
M  V30 639 O 66.6923 1.62797 0.732082 0
M  V30 640 C 63.7923 3.12986 1.29972 0
M  V30 641 C 62.9653 4.31271 0.729639 0
M  V30 642 C 62.0243 4.97363 1.71803 0
M  V30 643 O 61.0503 5.55156 1.25658 0
M  V30 644 N 62.2523 4.93796 3.05198 0
M  V30 645 H 65.0173 2.9546 -0.502324 0
M  V30 646 H 62.5783 1.56525 -0.413715 0
M  V30 647 H 64.5703 3.54066 1.96008 0
M  V30 648 H 63.1403 2.47984 1.90323 0
M  V30 649 H 62.3603 3.94052 -0.108012 0
M  V30 650 H 63.6483 5.07739 0.328438 0
M  V30 651 H 63.0463 4.48077 3.45317 0
M  V30 652 H 61.6033 5.38837 3.6674 0
M  V30 653 N 65.0364 0.313813 1.54444 0
M  V30 654 C 66.2844 -0.291099 1.99993 0
M  V30 655 C 66.6054 -1.53418 1.20366 0
M  V30 656 O 65.8754 -1.93544 0.302927 0
M  V30 657 H 64.4554 -0.110552 0.738774 0
M  V30 658 H 67.1174 0.428106 1.9014 0
M  V30 659 H 66.2134 -0.554268 3.07139 0
M  V30 660 N 66.5145 -1.57545 0.0417849 0
M  V30 661 C 67.4625 -2.12148 -0.953723 0
M  V30 662 C 68.4565 -1.05104 -1.32852 0
M  V30 663 O 69.6625 -1.23524 -1.30927 0
M  V30 664 H 66.0375 -0.677957 -0.325389 0
M  V30 665 H 68.0085 -2.94707 -0.467991 0
M  V30 666 C 66.7575 -2.6739 -2.22257 0
M  V30 667 H 66.0805 -3.49413 -1.94295 0
M  V30 668 H 67.5205 -3.09227 -2.90094 0
M  V30 669 C 65.9795 -1.60723 -2.96091 0
M  V30 670 O 66.5095 -1.01449 -3.88679 0
M  V30 671 N 64.7155 -1.32466 -2.58652 0
M  V30 672 H 64.2625 -1.80856 -1.83437 0
M  V30 673 H 64.2205 -0.61325 -3.08361 0
M  V30 674 N 67.9926 0.231505 -1.5589 0
M  V30 675 C 69.2226 0.973092 -1.82248 0
M  V30 676 C 69.6306 1.78845 -0.617328 0
M  V30 677 O 68.9736 1.78752 0.423499 0
M  V30 678 C 69.0356 1.94732 -3.02192 0
M  V30 679 C 68.6996 1.31743 -4.37599 0
M  V30 680 C 69.6966 0.712238 -5.14998 0
M  V30 681 C 67.3816 1.33218 -4.84312 0
M  V30 682 C 69.3756 0.130195 -6.37267 0
M  V30 683 C 67.0626 0.746286 -6.06526 0
M  V30 684 C 68.0606 0.146337 -6.82843 0
M  V30 685 O 67.7486 -0.430465 -8.02747 0
M  V30 686 H 67.4806 0.29125 -0.61004 0
M  V30 687 H 70.0346 0.254915 -2.03812 0
M  V30 688 H 68.2646 2.70422 -2.76422 0
M  V30 689 H 69.9536 2.55362 -3.15508 0
M  V30 690 H 70.7196 0.69324 -4.8002 0
M  V30 691 H 66.5986 1.78854 -4.24891 0
M  V30 692 H 70.1426 -0.33871 -6.96777 0
M  V30 693 H 66.0396 0.762663 -6.40979 0
M  V30 694 H 66.8076 -0.323818 -8.17859 0
M  V30 695 N 69.4707 1.49531 0.497807 0
M  V30 696 C 70.7477 1.49682 1.25915 0
M  V30 697 C 71.1277 0.226339 2.09883 0
M  V30 698 O 70.4757 -0.791189 2.14365 0
M  V30 699 C 70.6857 2.77755 2.11313 0
M  V30 700 C 72.0337 3.27371 2.70395 0
M  V30 701 O 73.0577 2.78894 2.21578 0
M  V30 702 O 71.9167 4.11808 3.59272 0
M  V30 703 H 69.0107 0.599228 0.56996 0
M  V30 704 H 71.5567 1.61798 0.511816 0
M  V30 705 H 70.3287 3.61713 1.49264 0
M  V30 706 H 69.9517 2.68515 2.93233 0
M  V30 707 N 70.9488 -0.749086 1.3866 0
M  V30 708 C 72.2258 -1.4992 1.25632 0
M  V30 709 C 72.6058 -2.10633 -0.140317 0
M  V30 710 O 71.9538 -1.97437 -1.15025 0
M  V30 711 C 72.1638 -2.56195 2.36992 0
M  V30 712 C 73.5118 -3.22972 2.75634 0
M  V30 713 O 74.5358 -2.66502 2.36337 0
M  V30 714 O 73.3948 -4.25122 3.43415 0
M  V30 715 H 70.4888 -0.665067 0.491544 0
M  V30 716 H 73.0348 -0.784113 1.50498 0
M  V30 717 H 71.8068 -2.09612 3.30422 0
M  V30 718 H 71.4298 -3.35279 2.13714 0
M  V30 719 N 72.4269 -1.23603 -0.977757 0
M  V30 720 C 73.7039 -0.977897 -1.69401 0
M  V30 721 C 74.0839 0.502738 -2.05026 0
M  V30 722 O 73.4319 1.47459 -1.74551 0
M  V30 723 C 73.6419 -1.89077 -2.93345 0
M  V30 724 C 74.9899 -2.15579 -3.65802 0
M  V30 725 O 76.0139 -1.86648 -3.03383 0
M  V30 726 O 74.8729 -2.64658 -4.78141 0
M  V30 727 H 71.9669 -0.369025 -0.740101 0
M  V30 728 H 74.5129 -1.34657 -1.03274 0
M  V30 729 H 73.2849 -2.89158 -2.63634 0
M  V30 730 H 72.9079 -1.52463 -3.67207 0
M  V30 731 N 73.905 1.17692 -1.04816 0
M  V30 732 C 75.151 1.88389 -0.766892 0
M  V30 733 C 75.506 1.79282 0.698269 0
M  V30 734 O 74.799 1.18739 1.50372 0
M  V30 735 C 74.993 3.37462 -1.17703 0
M  V30 736 C 74.822 3.6108 -2.68051 0
M  V30 737 C 73.592 3.78018 -3.35307 0
M  V30 738 C 75.79 3.61039 -3.66273 0
M  V30 739 N 73.772 3.89444 -4.74559 0
M  V30 740 C 75.143 3.78269 -4.91235 0
M  V30 741 C 77.198 3.44168 -3.59796 0
M  V30 742 C 75.901 3.80376 -6.10497 0
M  V30 743 C 77.927 3.4756 -4.78493 0
M  V30 744 C 77.289 3.65295 -6.02278 0
M  V30 745 H 73.388 0.707651 -0.332798 0
M  V30 746 H 75.972 1.41314 -1.33934 0
M  V30 747 H 74.143 3.83214 -0.63257 0
M  V30 748 H 75.875 3.95759 -0.845989 0
M  V30 749 H 72.63 3.77714 -2.85708 0
M  V30 750 H 73.054 3.98962 -5.46954 0
M  V30 751 H 77.696 3.29396 -2.65062 0
M  V30 752 H 75.414 3.93933 -7.05579 0
M  V30 753 H 79 3.3577 -4.75131 0
M  V30 754 H 77.88 3.6782 -6.92588 0
M  V30 755 N 75.3831 0.828654 1.34056 0
M  V30 756 C 76.3301 0.252567 2.29414 0
M  V30 757 C 77.3001 -0.62588 1.53857 0
M  V30 758 O 78.4851 -0.566312 1.82202 0
M  V30 759 C 75.6251 -0.574831 3.40279 0
M  V30 760 C 74.7381 0.326499 4.30764 0
M  V30 761 C 73.8731 -0.511016 5.28736 0
M  V30 762 C 72.9121 0.389342 6.1086 0
M  V30 763 N 72.0491 -0.409439 7.00905 0
M  V30 764 H 76.8891 1.07108 2.78086 0
M  V30 765 H 74.4261 0.539677 1.36843 0
M  V30 766 H 76.3841 -1.06992 4.03248 0
M  V30 767 H 75.0141 -1.35841 2.92826 0
M  V30 768 H 74.0661 0.939837 3.68607 0
M  V30 769 H 75.3781 1.01857 4.88289 0
M  V30 770 H 74.5321 -1.07035 5.97184 0
M  V30 771 H 73.2711 -1.23657 4.71763 0
M  V30 772 H 72.2761 0.960769 5.4134 0
M  V30 773 H 73.5011 1.1131 6.69916 0
M  V30 774 H 71.4471 -1.11856 6.46393 0
M  V30 775 H 71.3641 0.224126 7.55668 0
M  V30 776 H 72.6321 -0.951336 7.73673 0
M  V30 777 N 76.8612 -1.46375 0.584142 0
M  V30 778 C 78.1092 -2.01978 0.0701287 0
M  V30 779 C 78.4302 -1.4579 -1.295 0
M  V30 780 O 77.7002 -0.64314 -1.85042 0
M  V30 781 H 76.2802 -0.746648 0.0229345 0
M  V30 782 H 78.9422 -1.79461 0.760245 0
M  V30 783 H 78.0382 -3.121 0.0022064 0
M  V30 784 N 78.3393 -0.321999 -1.54275 0
M  V30 785 C 79.5863 0.281044 -2.0054 0
M  V30 786 C 79.9143 1.52265 -1.21019 0
M  V30 787 O 79.1693 1.93687 -0.279982 0
M  V30 788 C 79.4683 0.661769 -3.5122 0
M  V30 789 C 79.1343 -0.480482 -4.48333 0
M  V30 790 C 77.7963 -0.794005 -4.74604 0
M  V30 791 C 80.1483 -1.24783 -5.06042 0
M  V30 792 C 77.4763 -1.87763 -5.55844 0
M  V30 793 C 79.8283 -2.32153 -5.88462 0
M  V30 794 C 78.4923 -2.64089 -6.13036 0
M  V30 795 H 77.7623 0.102841 -0.733829 0
M  V30 796 H 80.4093 -0.445453 -1.86247 0
M  V30 797 H 78.7143 1.46867 -3.63232 0
M  V30 798 H 80.4113 1.13989 -3.84457 0
M  V30 799 H 77.0013 -0.226039 -4.28004 0
M  V30 800 H 81.1853 -1.01887 -4.85729 0
M  V30 801 H 76.4413 -2.12954 -5.73115 0
M  V30 802 H 80.6153 -2.92057 -6.32199 0
M  V30 803 H 78.2423 -3.48185 -6.75775 0
M  V30 804 N 79.8174 1.5752 -0.0501392 0
M  V30 805 C 81.0474 1.96678 0.632573 0
M  V30 806 C 81.4554 0.926298 1.64974 0
M  V30 807 O 80.7984 -0.09802 1.83438 0
M  V30 808 C 80.8604 3.32068 1.37735 0
M  V30 809 C 80.5244 4.54076 0.516131 0
M  V30 810 C 81.5214 5.19445 -0.217357 0
M  V30 811 C 79.2064 5.00304 0.44736 0
M  V30 812 C 81.2004 6.29378 -1.00807 0
M  V30 813 C 78.8874 6.10114 -0.347038 0
M  V30 814 C 79.8854 6.74512 -1.07344 0
M  V30 815 O 79.5734 7.82211 -1.85477 0
M  V30 816 H 79.3054 0.652193 0.177821 0
M  V30 817 H 81.8594 2.05091 -0.112543 0
M  V30 818 H 80.0894 3.20206 2.16807 0
M  V30 819 H 81.7784 3.55981 1.95019 0
M  V30 820 H 82.5444 4.84689 -0.173688 0
M  V30 821 H 78.4234 4.49971 1.00235 0
M  V30 822 H 81.9674 6.79575 -1.57556 0
M  V30 823 H 77.8644 6.44307 -0.392349 0
M  V30 824 H 78.6324 7.98982 -1.77678 0
M  V30 825 N 81.2955 -0.223234 1.56011 0
M  V30 826 C 82.5205 -0.968978 1.83373 0
M  V30 827 C 82.9455 -1.77227 0.630254 0
M  V30 828 O 82.3035 -1.76345 -0.420959 0
M  V30 829 C 82.3515 -1.86363 3.08709 0
M  V30 830 O 81.4555 -2.95873 2.87285 0
M  V30 831 H 80.7965 -0.274461 0.604622 0
M  V30 832 H 83.3265 -0.237056 2.03222 0
M  V30 833 H 83.3365 -2.27376 3.38768 0
M  V30 834 H 82.0115 -1.27319 3.95933 0
M  V30 835 H 80.5885 -2.58818 2.68454 0
M  V30 836 N 82.7736 -1.49793 -0.48987 0
M  V30 837 C 84.0016 -1.63568 -1.26701 0
M  V30 838 C 84.4166 -0.311465 -1.86213 0
M  V30 839 O 83.7736 0.704416 -1.68357 0
M  V30 840 C 83.8246 -2.71284 -2.38929 0
M  V30 841 O 83.5456 -3.9857 -1.81861 0
M  V30 842 C 85.0466 -2.95864 -3.3012 0
M  V30 843 H 82.2666 -0.550342 -0.383881 0
M  V30 844 H 84.8106 -1.95898 -0.586864 0
M  V30 845 H 82.9656 -2.417 -3.02753 0
M  V30 846 H 83.3796 -4.57993 -2.55622 0
M  V30 847 H 84.8536 -3.74941 -4.05121 0
M  V30 848 H 85.3306 -2.06206 -3.87783 0
M  V30 849 H 85.9366 -3.26907 -2.72051 0
M  V30 850 N 84.2517 0.741722 -1.39055 0
M  V30 851 C 85.5287 1.49252 -1.26425 0
M  V30 852 C 85.9087 2.10705 0.129144 0
M  V30 853 O 85.2567 1.98045 1.13976 0
M  V30 854 C 85.4667 2.54934 -2.38347 0
M  V30 855 C 86.8147 3.21506 -2.77343 0
M  V30 856 O 87.8387 2.65245 -2.37747 0
M  V30 857 O 86.6977 4.23294 -3.45665 0
M  V30 858 H 83.7917 0.662451 -0.495064 0
M  V30 859 H 86.3377 0.776121 -1.50912 0
M  V30 860 H 85.1097 2.07857 -3.31529 0
M  V30 861 H 84.7327 3.34141 -2.15489 0
M  V30 862 N 85.7298 1.2412 0.971189 0
M  V30 863 C 86.6778 1.02812 2.08644 0
M  V30 864 C 87.6718 -0.0358403 1.69362 0
M  V30 865 O 88.8778 0.118429 1.7961 0
M  V30 866 H 85.2528 0.315428 0.682649 0
M  V30 867 H 87.2238 1.97397 2.23779 0
M  V30 868 C 85.9728 0.645874 3.41649 0
M  V30 869 H 85.2958 1.45632 3.72332 0
M  V30 870 H 86.7358 0.536366 4.20594 0
M  V30 871 C 85.1948 -0.646713 3.30635 0
M  V30 872 O 85.7248 -1.69338 3.64263 0
M  V30 873 N 83.9308 -0.626115 2.83775 0
M  V30 874 H 83.4778 0.225988 2.56607 0
M  V30 875 H 83.4358 -1.49117 2.76788 0
M  V30 876 N 87.2079 -1.17134 1.05439 0
M  V30 877 C 88.1549 -2.21235 0.657539 0
M  V30 878 C 89.1249 -1.62551 -0.341543 0
M  V30 879 O 90.3099 -1.89379 -0.232393 0
M  V30 880 C 87.4499 -3.45076 0.0410575 0
M  V30 881 C 86.5629 -4.18042 1.08927 0
M  V30 882 C 85.6979 -5.29376 0.439848 0
M  V30 883 C 84.7369 -5.94132 1.4722 0
M  V30 884 N 83.8739 -6.96975 0.846756 0
M  V30 885 H 88.7139 -2.54534 1.54972 0
M  V30 886 H 86.2509 -1.25028 0.775006 0
M  V30 887 H 88.2089 -4.15862 -0.33383 0
M  V30 888 H 86.8389 -3.12353 -0.814568 0
M  V30 889 H 85.8909 -3.45945 1.58196 0
M  V30 890 H 87.2029 -4.62306 1.87282 0
M  V30 891 H 86.3569 -6.06699 0.0115125 0
M  V30 892 H 85.0959 -4.86251 -0.375656 0
M  V30 893 H 84.1009 -5.15538 1.91052 0
M  V30 894 H 85.3259 -6.39337 2.28965 0
M  V30 895 H 83.2719 -6.5598 0.0518075 0
M  V30 896 H 83.1889 -7.39565 1.5678 0
M  V30 897 H 84.4569 -7.78239 0.443277 0
M  V30 898 N 88.686 -0.835752 -1.33615 0
M  V30 899 C 89.916 -0.442701 -2.01801 0
M  V30 900 C 90.324 0.959807 -1.63047 0
M  V30 901 O 89.667 1.63468 -0.838088 0
M  V30 902 C 89.729 -0.480125 -3.56279 0
M  V30 903 C 89.393 -1.8382 -4.18401 0
M  V30 904 C 90.39 -2.80097 -4.37998 0
M  V30 905 C 88.075 -2.13019 -4.54894 0
M  V30 906 C 90.069 -4.03736 -4.9323 0
M  V30 907 C 87.756 -3.36916 -5.09834 0
M  V30 908 C 88.754 -4.32091 -5.28948 0
M  V30 909 O 88.442 -5.53797 -5.82721 0
M  V30 910 H 88.174 -0.17441 -0.653114 0
M  V30 911 H 90.728 -1.129 -1.71589 0
M  V30 912 H 88.958 0.262931 -3.85805 0
M  V30 913 H 90.647 -0.105335 -4.05763 0
M  V30 914 H 91.413 -2.58838 -4.10156 0
M  V30 915 H 87.292 -1.39733 -4.39313 0
M  V30 916 H 90.836 -4.78034 -5.08064 0
M  V30 917 H 86.733 -3.58033 -5.37106 0
M  V30 918 H 87.501 -5.55494 -6.0114 0
M  V30 919 N 90.1641 1.46063 -0.591896 0
M  V30 920 C 91.4411 1.95595 -0.0137119 0
M  V30 921 C 91.8211 1.5345 1.4497 0
M  V30 922 O 91.1691 0.789543 2.14426 0
M  V30 923 C 91.3791 3.48453 -0.195373 0
M  V30 924 C 92.7271 4.24546 -0.0679765 0
M  V30 925 O 93.7511 3.55982 -0.124681 0
M  V30 926 O 92.6101 5.46467 0.0600579 0
M  V30 927 H 89.7041 0.825795 0.0446279 0
M  V30 928 H 92.2501 1.56303 -0.660859 0
M  V30 929 H 91.0221 3.72045 -1.21235 0
M  V30 930 H 90.6451 3.94597 0.487775 0
M  V30 931 N 91.6422 0.330177 1.54103 0
M  V30 932 C 92.6052 -0.520144 2.2322 0
M  V30 933 C 93.6052 -1.03828 1.22786 0
M  V30 934 O 94.7952 -0.929652 1.4732 0
M  V30 935 C 91.9272 -1.72317 2.94142 0
M  V30 936 H 93.1202 0.0841605 2.99782 0
M  V30 937 H 90.6732 0.0813433 1.56088 0
M  V30 938 H 91.4082 -2.36653 2.21734 0
M  V30 939 H 91.1932 -1.35898 3.67796 0
M  V30 940 H 92.6832 -2.3266 3.46784 0
M  V30 941 N 93.1203 -1.57491 0.0584922 0
M  V30 942 C 94.0833 -2.1085 -0.898617 0
M  V30 943 C 95.0833 -1.02964 -1.23511 0
M  V30 944 O 96.2733 -1.29007 -1.17059 0
M  V30 945 C 93.4053 -2.59881 -2.20623 0
M  V30 946 H 94.5983 -2.96715 -0.435936 0
M  V30 947 H 92.1513 -1.55141 -0.190023 0
M  V30 948 H 92.8863 -1.77431 -2.71457 0
M  V30 949 H 92.6713 -3.38727 -1.97501 0
M  V30 950 H 94.1613 -3.01285 -2.89166 0
M  V30 951 N 94.5984 0.214957 -1.56127 0
M  V30 952 C 95.8464 0.936518 -1.79091 0
M  V30 953 C 96.1674 1.84606 -0.628148 0
M  V30 954 O 95.4374 1.92664 0.35462 0
M  V30 955 H 94.0174 0.3488 -0.660566 0
M  V30 956 H 96.6794 0.22523 -1.93594 0
M  V30 957 H 95.7754 1.53943 -2.71492 0
M  V30 958 N 96.0765 1.50051 0.48192 0
M  V30 959 C 97.3065 1.63999 1.2565 0
M  V30 960 C 97.7145 0.318288 1.86504 0
M  V30 961 O 97.0575 -0.708534 1.69486 0
M  V30 962 C 97.1195 2.66504 2.4128 0
M  V30 963 C 96.7835 4.10352 2.01148 0
M  V30 964 C 97.7805 4.96562 1.54021 0
M  V30 965 C 95.4655 4.56203 2.10199 0
M  V30 966 C 97.4595 6.26668 1.16473 0
M  V30 967 C 95.1465 5.86318 1.72264 0
M  V30 968 C 96.1445 6.71375 1.25477 0
M  V30 969 O 95.8325 7.99062 0.880626 0
M  V30 970 H 95.5645 0.55456 0.386574 0
M  V30 971 H 98.1185 1.96954 0.582944 0
M  V30 972 H 96.3485 2.28769 3.11772 0
M  V30 973 H 98.0375 2.69783 3.03268 0
M  V30 974 H 98.8035 4.62358 1.46458 0
M  V30 975 H 94.6825 3.90152 2.45566 0
M  V30 976 H 98.2265 6.93011 0.798841 0
M  V30 977 H 94.1235 6.20046 1.79482 0
M  V30 978 H 94.8915 8.12239 1.01043 0
M  V30 979 N 97.5546 -0.734337 1.39446 0
M  V30 980 C 98.7796 -1.52866 1.40167 0
M  V30 981 C 99.2046 -1.881 -0.00171513 0
M  V30 982 O 98.5626 -1.51957 -0.988879 0
M  V30 983 C 98.6106 -2.79235 2.28167 0
M  V30 984 O 97.7146 -3.75185 1.71201 0
M  V30 985 H 97.0556 -0.461618 0.477289 0
M  V30 986 H 99.5856 -0.905949 1.8345 0
M  V30 987 H 99.5956 -3.27963 2.42702 0
M  V30 988 H 98.2706 -2.52923 3.30156 0
M  V30 989 H 96.8476 -3.33958 1.65912 0
M  V30 990 N 99.0327 -1.24633 -0.964593 0
M  V30 991 C 100.279 -1.08949 -1.71049 0
M  V30 992 C 100.612 0.370302 -1.90637 0
M  V30 993 O 99.8867 1.27349 -1.47011 0
M  V30 994 C 100.17 -1.83329 -3.0994 0
M  V30 995 C 100.023 -3.37077 -2.97824 0
M  V30 996 C 101.342 -1.60846 -4.09654 0
M  V30 997 H 98.4607 -0.397178 -0.620821 0
M  V30 998 H 101.103 -1.5334 -1.12191 0
M  V30 999 H 99.2527 -1.45597 -3.60186 0
M  V30 1000 H 100.925 -3.84425 -2.5498 0
M  V30 1001 H 99.1677 -3.65298 -2.33965 0
M  V30 1002 H 99.8387 -3.84324 -3.96231 0
M  V30 1003 H 102.315 -1.93674 -3.68279 0
M  V30 1004 H 101.191 -2.1534 -5.04896 0
M  V30 1005 H 101.452 -0.547434 -4.38698 0
M  V30 1006 N 100.511 1.16574 -1.06058 0
M  V30 1007 C 101.788 1.83048 -0.689416 0
M  V30 1008 C 102.168 1.94122 0.829443 0
M  V30 1009 O 101.516 1.48249 1.7388 0
M  V30 1010 C 101.726 3.20186 -1.38859 0
M  V30 1011 C 103.074 3.95989 -1.53226 0
M  V30 1012 O 104.098 3.29696 -1.3483 0
M  V30 1013 O 102.957 5.14813 -1.83384 0
M  V30 1014 H 100.051 0.790258 -0.243764 0
M  V30 1015 H 102.597 1.23797 -1.16071 0
M  V30 1016 H 101.369 3.07146 -2.4244 0
M  V30 1017 H 100.992 3.87112 -0.907216 0
M  V30 1018 N 101.989 0.842826 1.3317 0
M  V30 1019 C 102.937 0.267495 2.31057 0
M  V30 1020 C 103.931 -0.602682 1.58316 0
M  V30 1021 O 105.137 -0.491803 1.73151 0
M  V30 1022 H 101.512 0.0677813 0.748939 0
M  V30 1023 H 103.483 1.10754 2.77085 0
M  V30 1024 C 102.232 -0.539331 3.43492 0
M  V30 1025 H 101.555 0.12095 3.99617 0
M  V30 1026 H 102.995 -0.90767 4.14171 0
M  V30 1027 C 101.454 -1.71981 2.89697 0
M  V30 1028 O 101.984 -2.81862 2.86211 0
M  V30 1029 N 100.19 -1.54299 2.46252 0
M  V30 1030 H 99.7369 -0.649143 2.49287 0
M  V30 1031 H 99.6949 -2.33431 2.10612 0
M  V30 1032 N 103.467 -1.45747 0.599634 0
M  V30 1033 C 104.377 -2.34262 -0.125888 0
M  V30 1034 C 105.393 -1.50768 -0.868625 0
M  V30 1035 O 106.569 -1.83592 -0.828003 0
M  V30 1036 C 103.634 -3.28252 -1.11587 0
M  V30 1037 C 102.695 -4.27651 -0.375956 0
M  V30 1038 C 101.928 -5.1715 -1.31877 0
M  V30 1039 O 102.151 -5.09916 -2.55621 0
M  V30 1040 O 101.085 -5.96286 -0.820157 0
M  V30 1041 H 104.911 -2.97688 0.601315 0
M  V30 1042 H 102.496 -1.44999 0.359934 0
M  V30 1043 H 104.378 -3.86191 -1.68626 0
M  V30 1044 H 103.053 -2.67401 -1.82424 0
M  V30 1045 H 101.96 -3.7335 0.236698 0
M  V30 1046 H 103.293 -4.91334 0.29177 0
M  V30 1047 N 104.945 -0.338344 -1.53925 0
M  V30 1048 C 105.893 0.536231 -2.26335 0
M  V30 1049 C 106.887 1.1063 -1.28286 0
M  V30 1050 O 108.093 1.05264 -1.46012 0
M  V30 1051 H 104.468 0.191602 -0.727181 0
M  V30 1052 H 106.439 -0.0965747 -2.98244 0
M  V30 1053 C 105.188 1.67803 -3.04528 0
M  V30 1054 H 104.511 1.24864 -3.79801 0
M  V30 1055 H 105.951 2.26526 -3.58416 0
M  V30 1056 C 104.41 2.60439 -2.13712 0
M  V30 1057 O 104.94 3.6255 -1.72975 0
M  V30 1058 N 103.146 2.29006 -1.78898 0
M  V30 1059 H 102.693 1.46011 -2.12223 0
M  V30 1060 H 102.651 2.91248 -1.18416 0
M  V30 1061 N 106.423 1.57458 -0.0668435 0
M  V30 1062 C 107.834 1.80776 0.466558 0
M  V30 1063 C 108.185 0.980361 1.69951 0
M  V30 1064 O 107.31 0.201441 2.1546 0
M  V30 1065 C 107.905 3.27881 0.85321 0
M  V30 1066 C 106.464 3.52062 1.3315 0
M  V30 1067 C 105.611 2.75513 0.314264 0
M  V30 1068 H 108.562 1.5598 -0.292588 0
M  V30 1069 H 108.583 3.39659 1.715 0
M  V30 1070 H 108.095 3.88075 -0.0443439 0
M  V30 1071 H 106.196 2.97167 2.24772 0
M  V30 1072 H 106.309 4.60762 1.31285 0
M  V30 1073 H 104.673 2.42123 0.790492 0
M  V30 1074 H 105.456 3.38442 -0.575477 0
M  V30 1075 N 107.901 -0.206675 1.56239 0
M  V30 1076 C 108.831 -1.25909 1.96645 0
M  V30 1077 C 109.812 -1.48097 0.836734 0
M  V30 1078 O 110.997 -1.6003 1.10019 0
M  V30 1079 C 108.127 -2.6058 2.29599 0
M  V30 1080 C 107.081 -2.53024 3.452 0
M  V30 1081 C 106.407 -3.91861 3.63798 0
M  V30 1082 C 107.707 -2.06524 4.79734 0
M  V30 1083 H 109.401 -0.923369 2.84806 0
M  V30 1084 H 106.947 -0.442735 1.37025 0
M  V30 1085 H 108.9 -3.34375 2.56459 0
M  V30 1086 H 107.624 -2.95869 1.38307 0
M  V30 1087 H 106.283 -1.81684 3.18412 0
M  V30 1088 H 105.931 -4.24483 2.69857 0
M  V30 1089 H 105.631 -3.87683 4.4156 0
M  V30 1090 H 107.155 -4.67296 3.93022 0
M  V30 1091 H 108.569 -2.70072 5.05702 0
M  V30 1092 H 106.966 -2.13374 5.60885 0
M  V30 1093 H 108.036 -1.01802 4.74093 0
M  V30 1094 N 109.379 -1.50304 -0.473955 0
M  V30 1095 C 110.604 -1.65175 -1.25427 0
M  V30 1096 C 111.029 -0.333673 -1.85117 0
M  V30 1097 O 110.387 0.702114 -1.67153 0
M  V30 1098 C 110.435 -2.74295 -2.34082 0
M  V30 1099 O 109.539 -2.35349 -3.38651 0
M  V30 1100 H 108.88 -0.551944 -0.369126 0
M  V30 1101 H 111.41 -1.96662 -0.564364 0
M  V30 1102 H 111.42 -2.97285 -2.79438 0
M  V30 1103 H 110.095 -3.69959 -1.90008 0
M  V30 1104 H 108.672 -2.22794 -2.99027 0
M  V30 1105 N 110.857 0.726932 -1.39834 0
M  V30 1106 C 112.105 1.4837 -1.37225 0
M  V30 1107 C 112.426 1.94979 0.0284857 0
M  V30 1108 O 111.696 1.69555 0.981213 0
M  V30 1109 H 110.276 0.55043 -0.505011 0
M  V30 1110 H 112.938 0.862468 -1.74778 0
M  V30 1111 H 112.034 2.36198 -2.04003 0
M  V30 1112 N 112.336 1.25143 0.95797 0
M  V30 1113 C 113.283 1.05235 2.05412 0
M  V30 1114 C 114.253 -0.0374561 1.66058 0
M  V30 1115 O 115.438 0.119073 1.90428 0
M  V30 1116 C 112.578 0.673589 3.38462 0
M  V30 1117 C 111.691 1.8379 3.90954 0
M  V30 1118 C 110.826 1.40381 5.12315 0
M  V30 1119 C 109.865 2.53746 5.57027 0
M  V30 1120 N 109.002 2.11136 6.69601 0
M  V30 1121 H 113.842 1.99048 2.21774 0
M  V30 1122 H 111.379 0.991277 1.08683 0
M  V30 1123 H 113.337 0.434964 4.14926 0
M  V30 1124 H 111.967 -0.227554 3.21997 0
M  V30 1125 H 111.019 2.18992 3.11041 0
M  V30 1126 H 112.331 2.68937 4.20089 0
M  V30 1127 H 111.485 1.12464 5.96185 0
M  V30 1128 H 110.224 0.523015 4.84887 0
M  V30 1129 H 109.229 2.82412 4.71724 0
M  V30 1130 H 110.454 3.42398 5.86464 0
M  V30 1131 H 108.4 1.25468 6.4389 0
M  V30 1132 H 108.317 2.89832 6.98236 0
M  V30 1133 H 109.585 1.86385 7.56889 0
M  V30 1134 N 113.814 -1.1601 1.06675 0
M  V30 1135 C 114.777 -2.18724 0.685001 0
M  V30 1136 C 115.777 -1.58496 -0.271246 0
M  V30 1137 O 116.967 -1.74119 -0.0531156 0
M  V30 1138 C 114.099 -3.40899 0.00853648 0
M  V30 1139 H 115.292 -2.54011 1.59431 0
M  V30 1140 H 112.845 -1.30352 0.862441 0
M  V30 1141 H 113.58 -3.11173 -0.913337 0
M  V30 1142 H 113.365 -3.8587 0.696204 0
M  V30 1143 H 114.855 -4.16886 -0.24414 0
M  V30 1144 N 115.292 -0.849877 -1.32721 0
M  V30 1145 C 116.54 -0.450032 -1.97026 0
M  V30 1146 C 116.861 0.996604 -1.67609 0
M  V30 1147 O 116.131 1.6958 -0.980786 0
M  V30 1148 H 114.711 -0.163426 -0.728904 0
M  V30 1149 H 117.373 -1.08526 -1.6189 0
M  V30 1150 H 116.469 -0.591146 -3.0645 0
M  V30 1151 N 116.77 1.45427 -0.607355 0
M  V30 1152 C 118.018 2.01841 -0.102253 0
M  V30 1153 C 118.339 1.47832 1.27164 0
M  V30 1154 O 117.609 0.672497 1.83995 0
M  V30 1155 H 116.189 0.746188 -0.0348101 0
M  V30 1156 H 118.851 1.78229 -0.7887 0
M  V30 1157 H 117.947 3.12057 -0.0518585 0
M  V30 1158 N 118.248 0.346503 1.53744 0
M  V30 1159 C 119.494 -0.249473 2.0126 0
M  V30 1160 C 119.827 -1.49965 1.23386 0
M  V30 1161 O 119.102 -1.91811 0.32229 0
M  V30 1162 C 119.385 -0.560643 3.55709 0
M  V30 1163 C 119.238 0.701836 4.44291 0
M  V30 1164 C 120.557 -1.36905 4.18264 0
M  V30 1165 H 117.676 -0.0891987 0.731582 0
M  V30 1166 H 120.318 0.467624 1.84156 0
M  V30 1167 H 118.468 -1.17156 3.70414 0
M  V30 1168 H 120.14 1.33974 4.41417 0
M  V30 1169 H 118.383 1.32612 4.13033 0
M  V30 1170 H 119.054 0.43933 5.50249 0
M  V30 1171 H 121.53 -0.852448 4.07275 0
M  V30 1172 H 120.406 -1.55553 5.26398 0
M  V30 1173 H 120.667 -2.37203 3.73078 0
M  V30 1174 N 119.726 -1.57421 0.075193 0
M  V30 1175 C 120.972 -1.93905 -0.594025 0
M  V30 1176 C 121.305 -0.955701 -1.69056 0
M  V30 1177 O 120.58 0.0145373 -1.94495 0
M  V30 1178 C 120.863 -3.40638 -1.1678 0
M  V30 1179 C 120.716 -4.49733 -0.0776792 0
M  V30 1180 C 122.035 -3.88259 -2.07228 0
M  V30 1181 H 119.154 -0.705105 -0.214466 0
M  V30 1182 H 121.796 -1.8947 0.141854 0
M  V30 1183 H 119.946 -3.44549 -1.79494 0
M  V30 1184 H 121.618 -4.57942 0.555573 0
M  V30 1185 H 119.861 -4.29751 0.591286 0
M  V30 1186 H 120.532 -5.49549 -0.519603 0
M  V30 1187 H 123.008 -3.86376 -1.54445 0
M  V30 1188 H 121.884 -4.91533 -2.44308 0
M  V30 1189 H 122.145 -3.26396 -2.98191 0
M  V30 1190 N 121.204 0.198386 -1.56346 0
M  V30 1191 C 122.151 1.24589 -1.94284 0
M  V30 1192 C 123.121 1.454 -0.802997 0
M  V30 1193 O 124.306 1.58588 -1.06087 0
M  V30 1194 C 121.446 2.58631 -2.28482 0
M  V30 1195 C 120.559 2.45426 -3.55514 0
M  V30 1196 C 119.694 3.7215 -3.79049 0
M  V30 1197 C 118.733 3.53763 -4.99518 0
M  V30 1198 N 117.87 4.72491 -5.19323 0
M  V30 1199 H 122.71 0.915356 -2.83593 0
M  V30 1200 H 120.247 0.440629 -1.40346 0
M  V30 1201 H 122.205 3.3672 -2.46324 0
M  V30 1202 H 120.835 2.89734 -1.42317 0
M  V30 1203 H 119.887 1.58652 -3.45737 0
M  V30 1204 H 121.199 2.27772 -4.43758 0
M  V30 1205 H 120.353 4.58679 -3.97113 0
M  V30 1206 H 119.092 3.92754 -2.89129 0
M  V30 1207 H 118.097 2.65619 -4.8138 0
M  V30 1208 H 119.322 3.34607 -5.90944 0
M  V30 1209 H 117.268 4.93365 -4.3235 0
M  V30 1210 H 117.185 4.5765 -6.01741 0
M  V30 1211 H 118.453 5.6038 -5.41843 0
M  V30 1212 N 122.682 1.50554 0.465978 0
M  V30 1213 C 123.928 1.62038 1.21949 0
M  V30 1214 C 124.261 0.322116 1.9151 0
M  V30 1215 O 123.536 -0.676723 1.82348 0
M  V30 1216 C 123.819 2.80421 2.25912 0
M  V30 1217 C 123.672 4.20144 1.60622 0
M  V30 1218 C 124.991 2.94354 3.27176 0
M  V30 1219 H 122.11 0.589752 0.441998 0
M  V30 1220 H 124.752 1.82956 0.51257 0
M  V30 1221 H 122.902 2.62717 2.86203 0
M  V30 1222 H 124.574 4.49449 1.03889 0
M  V30 1223 H 122.817 4.24165 0.909211 0
M  V30 1224 H 123.488 4.98914 2.36196 0
M  V30 1225 H 125.964 3.10578 2.76913 0
M  V30 1226 H 124.84 3.788 3.97242 0
M  V30 1227 H 125.101 2.05186 3.916 0
M  V30 1228 N 124.16 -0.719506 1.40217 0
M  V30 1229 C 125.388 -1.50864 1.41589 0
M  V30 1230 C 125.803 -1.88794 0.0145275 0
M  V30 1231 O 125.16 -1.55174 -0.960594 0
M  V30 1232 C 125.211 -2.78646 2.30302 0
M  V30 1233 O 124.932 -2.42321 3.64983 0
M  V30 1234 C 126.433 -3.72569 2.40224 0
M  V30 1235 H 123.653 -0.465709 0.48307 0
M  V30 1236 H 126.197 -0.88785 1.84221 0
M  V30 1237 H 124.352 -3.37019 1.91042 0
M  V30 1238 H 124.766 -3.24514 4.12057 0
M  V30 1239 H 126.24 -4.5908 3.06512 0
M  V30 1240 H 126.717 -4.15403 1.42608 0
M  V30 1241 H 127.323 -3.20109 2.80019 0
M  V30 1242 N 125.638 -1.25649 -0.95132 0
M  V30 1243 C 126.868 -1.13179 -1.72841 0
M  V30 1244 C 127.276 0.316827 -1.86528 0
M  V30 1245 O 126.619 1.22948 -1.3649 0
M  V30 1246 C 126.681 -1.71644 -3.15878 0
M  V30 1247 C 126.345 -3.20667 -3.25609 0
M  V30 1248 C 127.342 -4.17616 -3.09666 0
M  V30 1249 C 125.027 -3.6094 -3.49324 0
M  V30 1250 C 127.021 -5.52817 -3.17289 0
M  V30 1251 C 124.708 -4.96278 -3.56584 0
M  V30 1252 C 125.706 -5.92025 -3.40581 0
M  V30 1253 O 125.394 -7.24899 -3.47528 0
M  V30 1254 H 125.126 -0.395389 -0.54831 0
M  V30 1255 H 127.68 -1.66566 -1.20187 0
M  V30 1256 H 125.91 -1.12707 -3.69911 0
M  V30 1257 H 127.599 -1.54225 -3.75459 0
M  V30 1258 H 128.365 -3.87842 -2.91211 0
M  V30 1259 H 124.244 -2.86907 -3.6084 0
M  V30 1260 H 127.788 -6.2753 -3.04716 0
M  V30 1261 H 123.685 -5.25716 -3.74556 0
M  V30 1262 H 124.453 -7.33039 -3.64138 0
M  V30 1263 N 127.117 1.15442 -1.07289 0
M  V30 1264 C 128.528 1.67803 -0.818475 0
M  V30 1265 C 128.879 1.8489 0.656507 0
M  V30 1266 O 128.004 1.55176 1.50829 0
M  V30 1267 C 128.599 3.04805 -1.47917 0
M  V30 1268 C 127.158 3.54245 -1.27229 0
M  V30 1269 C 126.305 2.29986 -1.54925 0
M  V30 1270 H 129.256 0.996646 -1.23502 0
M  V30 1271 H 129.277 3.69702 -0.90005 0
M  V30 1272 H 128.789 2.92336 -2.55267 0
M  V30 1273 H 126.89 3.71956 -0.21899 0
M  V30 1274 H 127.003 4.35723 -1.99203 0
M  V30 1275 H 125.367 2.35496 -0.970242 0
M  V30 1276 H 126.15 2.20105 -2.63455 0
M  V30 1277 N 128.595 0.856903 1.32268 0
M  V30 1278 C 129.843 0.460474 1.96784 0
M  V30 1279 C 130.164 -0.987701 1.68135 0
M  V30 1280 O 129.434 -1.69058 0.989765 0
M  V30 1281 H 128.014 0.167289 0.728027 0
M  V30 1282 H 130.676 1.09383 1.61312 0
M  V30 1283 H 129.772 0.60739 3.06133 0
M  V30 1284 N 130.073 -1.45103 0.615059 0
M  V30 1285 C 131.003 -2.33339 -0.0865619 0
M  V30 1286 C 131.984 -1.4727 -0.851209 0
M  V30 1287 O 133.169 -1.76026 -0.820281 0
M  V30 1288 C 130.299 -3.30095 -1.07956 0
M  V30 1289 C 129.253 -4.25858 -0.427628 0
M  V30 1290 C 128.579 -5.12361 -1.5294 0
M  V30 1291 C 129.879 -5.18165 0.655944 0
M  V30 1292 H 131.573 -2.92254 0.650224 0
M  V30 1293 H 129.119 -1.40532 0.314138 0
M  V30 1294 H 131.072 -3.90698 -1.57901 0
M  V30 1295 H 129.796 -2.69355 -1.84703 0
M  V30 1296 H 128.455 -3.66564 0.0510292 0
M  V30 1297 H 128.103 -4.47984 -2.28734 0
M  V30 1298 H 127.803 -5.77238 -1.09865 0
M  V30 1299 H 129.327 -5.75833 -2.03098 0
M  V30 1300 H 130.741 -5.72796 0.240257 0
M  V30 1301 H 129.138 -5.91559 1.00888 0
M  V30 1302 H 130.208 -4.60144 1.52957 0
M  V30 1303 N 131.551 -0.354651 -1.53558 0
M  V30 1304 C 132.779 0.239515 -2.05509 0
M  V30 1305 C 133.194 1.4333 -1.2289 0
M  V30 1306 O 132.551 1.80538 -0.266899 0
M  V30 1307 C 132.602 0.643719 -3.55723 0
M  V30 1308 O 132.323 -0.502602 -4.35207 0
M  V30 1309 C 133.824 1.29743 -4.23889 0
M  V30 1310 H 131.044 0.0442697 -0.669538 0
M  V30 1311 H 133.588 -0.509856 -1.98042 0
M  V30 1312 H 131.743 1.34302 -3.63376 0
M  V30 1313 H 132.157 -0.178172 -5.24197 0
M  V30 1314 H 133.631 1.53091 -5.30346 0
M  V30 1315 H 134.108 2.25441 -3.76926 0
M  V30 1316 H 134.714 0.639865 -4.20459 0
M  V30 1317 N 133.029 1.57378 -0.0835403 0
M  V30 1318 C 133.976 2.13384 0.879539 0
M  V30 1319 C 134.946 1.04936 1.28754 0
M  V30 1320 O 136.131 1.32662 1.37133 0
M  V30 1321 C 133.271 2.70932 2.13752 0
M  V30 1322 C 132.384 3.93575 1.7811 0
M  V30 1323 C 131.519 4.39326 2.98607 0
M  V30 1324 C 130.558 5.54587 2.59037 0
M  V30 1325 N 129.695 5.95243 3.72331 0
M  V30 1326 H 134.535 2.9537 0.395076 0
M  V30 1327 H 132.072 1.45953 0.183349 0
M  V30 1328 H 134.03 3.02411 2.87408 0
M  V30 1329 H 132.66 1.91693 2.59718 0
M  V30 1330 H 131.712 3.68483 0.94469 0
M  V30 1331 H 133.024 4.77258 1.45005 0
M  V30 1332 H 132.178 4.72528 3.80529 0
M  V30 1333 H 130.917 3.5452 3.34913 0
M  V30 1334 H 129.922 5.21024 1.75539 0
M  V30 1335 H 131.147 6.41133 2.23887 0
M  V30 1336 H 129.093 5.13385 4.08378 0
M  V30 1337 H 129.01 6.73694 3.43034 0
M  V30 1338 H 130.278 6.33072 4.54797 0
M  V30 1339 N 134.507 -0.190092 1.56449 0
M  V30 1340 C 135.753 -0.911052 1.81184 0
M  V30 1341 C 136.086 -1.82699 0.658396 0
M  V30 1342 O 135.361 -1.91491 -0.340775 0
M  V30 1343 C 135.644 -1.72297 3.16205 0
M  V30 1344 C 135.497 -0.831419 4.42049 0
M  V30 1345 C 136.816 -2.69454 3.47969 0
M  V30 1346 H 133.935 -0.32977 0.659106 0
M  V30 1347 H 136.577 -0.178169 1.89163 0
M  V30 1348 H 134.727 -2.34778 3.09534 0
M  V30 1349 H 136.399 -0.220929 4.60771 0
M  V30 1350 H 134.642 -0.138406 4.33579 0
M  V30 1351 H 135.313 -1.43461 5.33032 0
M  V30 1352 H 137.789 -2.17104 3.54972 0
M  V30 1353 H 136.665 -3.23342 4.43555 0
M  V30 1354 H 136.926 -3.48744 2.71717 0
M  V30 1355 N 135.985 -1.50799 -0.457987 0
M  V30 1356 C 136.915 -1.73553 -1.5621 0
M  V30 1357 C 137.896 -0.584774 -1.59732 0
M  V30 1358 O 139.081 -0.825314 -1.7579 0
M  V30 1359 C 136.211 -1.84169 -2.94447 0
M  V30 1360 C 135.165 -2.99461 -3.0579 0
M  V30 1361 C 134.491 -2.95235 -4.45803 0
M  V30 1362 C 135.791 -4.39766 -2.81786 0
M  V30 1363 H 137.485 -2.66 -1.37421 0
M  V30 1364 H 135.031 -1.28002 -0.659662 0
M  V30 1365 H 136.984 -1.98672 -3.71628 0
M  V30 1366 H 135.708 -0.883545 -3.14422 0
M  V30 1367 H 134.367 -2.8463 -2.31044 0
M  V30 1368 H 134.015 -1.97239 -4.62715 0
M  V30 1369 H 133.715 -3.72642 -4.54326 0
M  V30 1370 H 135.239 -3.11803 -5.24987 0
M  V30 1371 H 136.653 -4.55054 -3.4871 0
M  V30 1372 H 135.05 -5.18722 -3.0174 0
M  V30 1373 H 136.12 -4.51229 -1.7754 0
M  V30 1374 N 137.463 0.71206 -1.40597 0
M  V30 1375 C 138.426 1.80785 -1.40888 0
M  V30 1376 C 139.426 1.57937 -0.302103 0
M  V30 1377 O 140.616 1.64913 -0.561182 0
M  V30 1378 C 137.748 3.18927 -1.20409 0
M  V30 1379 H 138.941 1.81924 -2.38419 0
M  V30 1380 H 136.494 0.91805 -1.26497 0
M  V30 1381 H 137.229 3.23436 -0.236522 0
M  V30 1382 H 137.014 3.36911 -2.00582 0
M  V30 1383 H 138.504 3.98949 -1.23408 0
M  V30 1384 N 138.941 1.26152 0.944643 0
M  V30 1385 C 139.871 1.09902 2.06019 0
M  V30 1386 C 140.852 0.00519538 1.70099 0
M  V30 1387 O 142.037 0.176583 1.93396 0
M  V30 1388 C 139.167 0.727562 3.39594 0
M  V30 1389 C 138.121 1.77274 3.89561 0
M  V30 1390 C 137.447 1.25569 5.19747 0
M  V30 1391 C 138.747 3.17357 4.14827 0
M  V30 1392 H 140.441 2.03217 2.19871 0
M  V30 1393 H 137.987 0.978452 1.05652 0
M  V30 1394 H 139.94 0.600777 4.17095 0
M  V30 1395 H 138.664 -0.241287 3.25707 0
M  V30 1396 H 137.323 1.88814 3.14237 0
M  V30 1397 H 136.971 0.276783 5.02238 0
M  V30 1398 H 136.671 1.95433 5.54148 0
M  V30 1399 H 138.195 1.1415 5.99835 0
M  V30 1400 H 139.609 3.08914 4.82954 0
M  V30 1401 H 138.006 3.84781 4.60504 0
M  V30 1402 H 139.076 3.63673 3.20734 0
M  V30 1403 N 140.419 -1.14872 1.07899 0
M  V30 1404 C 141.366 -2.19791 0.704319 0
M  V30 1405 C 142.336 -1.63238 -0.306987 0
M  V30 1406 O 143.521 -1.8983 -0.192171 0
M  V30 1407 C 140.661 -3.44911 0.114244 0
M  V30 1408 C 139.774 -4.15637 1.1777 0
M  V30 1409 C 138.909 -5.28324 0.552037 0
M  V30 1410 C 137.948 -5.90875 1.59789 0
M  V30 1411 N 137.085 -6.95022 0.994404 0
M  V30 1412 H 141.925 -2.5119 1.60336 0
M  V30 1413 H 139.462 -1.23356 0.801352 0
M  V30 1414 H 141.42 -4.16477 -0.245544 0
M  V30 1415 H 140.05 -3.14011 -0.74813 0
M  V30 1416 H 139.102 -3.42512 1.65499 0
M  V30 1417 H 140.414 -4.5823 1.97046 0
M  V30 1418 H 139.568 -6.06538 0.1402 0
M  V30 1419 H 138.307 -4.86939 -0.272431 0
M  V30 1420 H 137.312 -5.11369 2.01945 0
M  V30 1421 H 138.537 -6.34337 2.42474 0
M  V30 1422 H 136.483 -6.55722 0.190939 0
M  V30 1423 H 136.4 -7.36073 1.72432 0
M  V30 1424 H 137.668 -7.77123 0.608253 0
M  V30 1425 N 141.898 -0.863906 -1.31812 0
M  V30 1426 C 143.144 -0.472535 -1.97218 0
M  V30 1427 C 143.477 0.971394 -1.68159 0
M  V30 1428 O 142.752 1.68309 -0.974798 0
M  V30 1429 C 143.035 -0.723054 -3.52766 0
M  V30 1430 C 142.888 -2.21608 -3.91421 0
M  V30 1431 C 144.207 -0.185522 -4.39709 0
M  V30 1432 H 141.326 -0.173158 -0.71637 0
M  V30 1433 H 143.968 -1.08403 -1.56041 0
M  V30 1434 H 142.118 -0.202577 -3.87971 0
M  V30 1435 H 143.79 -2.80334 -3.66347 0
M  V30 1436 H 142.033 -2.691 -3.40246 0
M  V30 1437 H 142.704 -2.34203 -4.99853 0
M  V30 1438 H 145.18 -0.630726 -4.11292 0
M  V30 1439 H 144.056 -0.390306 -5.47511 0
M  V30 1440 H 144.317 0.912229 -4.32586 0
M  V30 1441 N 143.376 1.44774 -0.622745 0
M  V30 1442 C 144.653 1.95522 -0.0551974 0
M  V30 1443 C 145.033 1.5649 1.41683 0
M  V30 1444 O 144.381 0.834848 2.12703 0
M  V30 1445 C 144.591 3.4796 -0.269242 0
M  V30 1446 C 145.939 4.24306 -0.158014 0
M  V30 1447 O 146.963 3.55637 -0.200162 0
M  V30 1448 O 145.822 5.46471 -0.0558693 0
M  V30 1449 H 142.916 0.826556 0.0271015 0
M  V30 1450 H 145.462 1.54866 -0.693864 0
M  V30 1451 H 144.234 3.6939 -1.29099 0
M  V30 1452 H 143.857 3.95543 0.403966 0
M  V30 1453 N 144.854 0.36279 1.53368 0
M  V30 1454 C 145.802 -0.500155 2.27159 0
M  V30 1455 C 146.796 -1.08575 1.3003 0
M  V30 1456 O 148.002 -1.02927 1.47668 0
M  V30 1457 H 144.377 -0.180009 0.730138 0
M  V30 1458 H 146.348 0.14401 2.98052 0
M  V30 1459 C 145.097 -1.62937 3.07159 0
M  V30 1460 H 144.42 -1.18806 3.8174 0
M  V30 1461 H 145.86 -2.20795 3.61975 0
M  V30 1462 C 144.319 -2.57007 2.17829 0
M  V30 1463 O 144.849 -3.59752 1.78721 0
M  V30 1464 N 143.055 -2.26131 1.82518 0
M  V30 1465 H 142.602 -1.42616 2.14519 0
M  V30 1466 H 142.56 -2.89327 1.23034 0
M  V30 1467 N 146.332 -1.57332 0.0918853 0
M  V30 1468 C 147.295 -2.12708 -0.85369 0
M  V30 1469 C 148.295 -1.05561 -1.213 0
M  V30 1470 O 149.485 -1.31461 -1.14296 0
M  V30 1471 C 146.617 -2.64503 -2.15061 0
M  V30 1472 H 147.81 -2.97573 -0.3729 0
M  V30 1473 H 145.363 -1.55509 -0.157072 0
M  V30 1474 H 146.098 -1.83149 -2.67632 0
M  V30 1475 H 145.883 -3.4284 -1.90272 0
M  V30 1476 H 147.373 -3.07351 -2.82711 0
M  V30 1477 N 147.81 0.181792 -1.56548 0
M  V30 1478 C 148.72 1.24538 -1.98815 0
M  V30 1479 C 149.736 1.49045 -0.897861 0
M  V30 1480 O 150.912 1.61399 -1.20467 0
M  V30 1481 C 147.977 2.56683 -2.33055 0
M  V30 1482 C 147.038 2.40131 -3.55859 0
M  V30 1483 C 146.271 3.65975 -3.88456 0
M  V30 1484 O 146.494 4.70711 -3.22161 0
M  V30 1485 O 145.428 3.6071 -4.81842 0
M  V30 1486 H 149.254 0.916647 -2.89536 0
M  V30 1487 H 146.839 0.387842 -1.44278 0
M  V30 1488 H 148.721 3.34655 -2.56094 0
M  V30 1489 H 147.396 2.89157 -1.45498 0
M  V30 1490 H 146.303 1.60226 -3.38051 0
M  V30 1491 H 147.636 2.12585 -4.43924 0
M  V30 1492 N 149.288 1.51039 0.449983 0
M  V30 1493 C 150.516 1.66869 1.2232 0
M  V30 1494 C 150.931 0.360727 1.85322 0
M  V30 1495 O 150.288 -0.659531 1.70166 0
M  V30 1496 C 150.339 2.77524 2.31652 0
M  V30 1497 O 150.06 4.03252 1.7123 0
M  V30 1498 C 151.561 3.04512 3.2216 0
M  V30 1499 H 148.781 0.560326 0.369155 0
M  V30 1500 H 151.325 1.97385 0.534719 0
M  V30 1501 H 149.48 2.49642 2.96239 0
M  V30 1502 H 149.894 4.64609 2.43389 0
M  V30 1503 H 151.368 3.85551 3.95038 0
M  V30 1504 H 151.845 2.16415 3.8218 0
M  V30 1505 H 152.451 3.34005 2.63288 0
M  V30 1506 N 150.766 -0.704594 1.40972 0
M  V30 1507 C 152.015 -1.46018 1.39146 0
M  V30 1508 C 152.328 -1.956 0.000589254 0
M  V30 1509 O 153.534 -2.71137 -0.1403 0
M  V30 1510 C 151.99 -2.63996 2.4461 0
M  V30 1511 C 151.598 -2.21238 3.89561 0
M  V30 1512 C 153.342 -3.41677 2.51907 0
M  V30 1513 C 151.249 -3.3612 4.86598 0
M  V30 1514 H 150.179 -0.548444 0.517422 0
M  V30 1515 H 152.83 -0.765784 1.66757 0
M  V30 1516 H 151.212 -3.3566 2.10115 0
M  V30 1517 H 152.386 -1.56923 4.33257 0
M  V30 1518 H 150.701 -1.56574 3.85841 0
M  V30 1519 H 153.298 -4.27182 3.2159 0
M  V30 1520 H 153.641 -3.86247 1.55303 0
M  V30 1521 H 154.174 -2.77064 2.85448 0
M  V30 1522 H 150.913 -2.96572 5.84573 0
M  V30 1523 H 150.433 -3.99315 4.47557 0
M  V30 1524 H 152.112 -4.02029 5.06934 0
M  V30 1525 N 152.244 -1.26651 -0.937939 0
M  V30 1526 C 153.191 -1.0849 -2.03712 0
M  V30 1527 C 154.161 0.011033 -1.66096 0
M  V30 1528 O 155.346 -0.149353 -1.90215 0
M  V30 1529 C 152.486 -0.72735 -3.37348 0
M  V30 1530 C 151.599 -1.89986 -3.87981 0
M  V30 1531 C 150.734 -1.48513 -5.10017 0
M  V30 1532 C 149.773 -2.62575 -5.5292 0
M  V30 1533 N 148.91 -2.21762 -6.66158 0
M  V30 1534 H 153.75 -2.02551 -2.18579 0
M  V30 1535 H 151.287 -1.00844 -1.07093 0
M  V30 1536 H 153.245 -0.50092 -4.14182 0
M  V30 1537 H 151.875 0.176298 -3.22318 0
M  V30 1538 H 150.927 -2.23913 -3.07518 0
M  V30 1539 H 152.239 -2.75586 -4.15757 0
M  V30 1540 H 151.393 -1.21934 -5.94321 0
M  V30 1541 H 150.132 -0.60009 -4.83994 0
M  V30 1542 H 149.137 -2.8988 -4.67172 0
M  V30 1543 H 150.362 -3.51685 -5.80943 0
M  V30 1544 H 148.308 -1.35696 -6.41812 0
M  V30 1545 H 148.225 -3.00903 -6.93537 0
M  V30 1546 H 149.493 -1.98403 -7.53828 0
M  V30 1547 N 153.722 1.14298 -1.08507 0
M  V30 1548 C 154.669 2.19414 -0.715965 0
M  V30 1549 C 155.639 1.63399 0.298326 0
M  V30 1550 O 156.824 1.89929 0.182101 0
M  V30 1551 C 153.964 3.44845 -0.132534 0
M  V30 1552 C 153.077 4.15007 -1.19973 0
M  V30 1553 C 152.212 5.28024 -0.580048 0
M  V30 1554 C 151.251 5.9002 -1.62921 0
M  V30 1555 N 150.388 6.94485 -1.03125 0
M  V30 1556 H 155.228 2.50336 -1.61666 0
M  V30 1557 H 152.765 1.2293 -0.807882 0
M  V30 1558 H 154.723 4.16601 0.223454 0
M  V30 1559 H 153.353 3.14403 0.731467 0
M  V30 1560 H 152.405 3.41629 -1.67313 0
M  V30 1561 H 153.717 4.57178 -1.99473 0
M  V30 1562 H 152.871 6.06455 -0.172364 0
M  V30 1563 H 151.61 4.87076 0.246603 0
M  V30 1564 H 150.615 5.10291 -2.04654 0
M  V30 1565 H 151.84 6.33042 -2.45835 0
M  V30 1566 H 149.786 6.55612 -0.225711 0
M  V30 1567 H 149.703 7.35148 -1.76334 0
M  V30 1568 H 150.971 7.7679 -0.649458 0
M  V30 1569 N 155.201 0.870884 1.31352 0
M  V30 1570 C 156.111 0.330783 2.32256 0
M  V30 1571 C 157.127 -0.559767 1.6475 0
M  V30 1572 O 158.303 -0.456263 1.96164 0
M  V30 1573 C 155.368 -0.458137 3.4366 0
M  V30 1574 C 154.429 0.460482 4.26823 0
M  V30 1575 C 153.662 -0.290881 5.32907 0
M  V30 1576 O 153.885 -1.51885 5.49806 0
M  V30 1577 O 152.819 0.351732 6.00871 0
M  V30 1578 H 156.645 1.16718 2.80376 0
M  V30 1579 H 154.23 0.634285 1.35267 0
M  V30 1580 H 156.112 -0.905343 4.1156 0
M  V30 1581 H 154.787 -1.27106 2.97701 0
M  V30 1582 H 153.694 0.956207 3.61673 0
M  V30 1583 H 155.027 1.23903 4.7635 0
M  V30 1584 N 156.679 -1.44442 0.630414 0
M  V30 1585 C 157.609 -2.33418 -0.0618083 0
M  V30 1586 C 158.59 -1.48165 -0.835541 0
M  V30 1587 O 159.775 -1.76886 -0.801564 0
M  V30 1588 C 156.905 -3.31222 -1.04449 0
M  V30 1589 C 155.859 -4.26288 -0.382436 0
M  V30 1590 C 155.185 -5.13954 -1.47497 0
M  V30 1591 C 156.485 -5.1744 0.710865 0
M  V30 1592 H 158.179 -2.91548 0.681184 0
M  V30 1593 H 155.725 -1.40191 0.329026 0
M  V30 1594 H 157.678 -3.92351 -1.53748 0
M  V30 1595 H 156.402 -2.71299 -1.81836 0
M  V30 1596 H 155.061 -3.6649 0.0899054 0
M  V30 1597 H 154.709 -4.50385 -2.2397 0
M  V30 1598 H 154.409 -5.7837 -1.03737 0
M  V30 1599 H 155.933 -5.77955 -1.96979 0
M  V30 1600 H 157.347 -5.72509 0.300996 0
M  V30 1601 H 155.744 -5.90455 1.07156 0
M  V30 1602 H 156.814 -4.58496 1.57829 0
M  V30 1603 N 158.157 -0.370918 -1.53173 0
M  V30 1604 C 159.405 0.216673 -2.00935 0
M  V30 1605 C 159.726 1.48845 -1.25977 0
M  V30 1606 O 158.996 1.92286 -0.374551 0
M  V30 1607 H 157.576 0.0830565 -0.742368 0
M  V30 1608 H 160.238 -0.49838 -1.8842 0
M  V30 1609 H 159.334 0.439893 -3.08984 0
M  V30 1610 N 159.635 1.57281 -0.100228 0
M  V30 1611 C 160.565 2.17328 0.853857 0
M  V30 1612 C 161.546 1.10804 1.2906 0
M  V30 1613 O 162.731 1.38963 1.35657 0
M  V30 1614 C 159.861 2.75772 2.11109 0
M  V30 1615 C 158.815 3.87713 1.81279 0
M  V30 1616 C 158.141 4.32882 3.13874 0
M  V30 1617 C 159.441 5.10677 1.09574 0
M  V30 1618 H 161.135 2.97305 0.353545 0
M  V30 1619 H 158.681 1.43009 0.168612 0
M  V30 1620 H 160.634 3.16433 2.78296 0
M  V30 1621 H 159.358 1.93057 2.63432 0
M  V30 1622 H 158.017 3.476 1.16489 0
M  V30 1623 H 157.665 3.47051 3.64095 0
M  V30 1624 H 157.365 5.08358 2.94696 0
M  V30 1625 H 158.889 4.7618 3.82211 0
M  V30 1626 H 160.303 5.48474 1.66879 0
M  V30 1627 H 158.7 5.91615 1.00557 0
M  V30 1628 H 159.77 4.84835 0.0793299 0
M  V30 1629 N 161.113 -0.173488 1.56642 0
M  V30 1630 C 162.338 -0.910149 1.86363 0
M  V30 1631 C 162.763 -1.75132 0.686318 0
M  V30 1632 O 162.121 -1.77595 -0.364643 0
M  V30 1633 C 162.169 -1.76447 3.14482 0
M  V30 1634 O 161.273 -2.86584 2.96553 0
M  V30 1635 H 160.614 -0.255086 0.613047 0
M  V30 1636 H 163.144 -0.172283 2.03873 0
M  V30 1637 H 163.154 -2.16483 3.45831 0
M  V30 1638 H 161.829 -1.14658 3.99783 0
M  V30 1639 H 160.406 -2.50146 2.76553 0
M  V30 1640 N 162.591 -1.51276 -0.441967 0
M  V30 1641 C 163.521 -1.752 -1.54361 0
M  V30 1642 C 164.502 -0.601682 -1.59103 0
M  V30 1643 O 165.687 -0.843913 -1.74905 0
M  V30 1644 C 162.817 -1.87282 -2.92477 0
M  V30 1645 C 161.771 -3.02687 -3.02596 0
M  V30 1646 C 161.097 -2.99947 -4.42647 0
M  V30 1647 C 162.397 -4.4273 -2.77106 0
M  V30 1648 H 164.091 -2.67442 -1.34592 0
M  V30 1649 H 161.637 -1.28694 -0.646048 0
M  V30 1650 H 163.59 -2.02602 -3.695 0
M  V30 1651 H 162.314 -0.916844 -3.13467 0
M  V30 1652 H 160.973 -2.87065 -2.28012 0
M  V30 1653 H 160.621 -2.02136 -4.60597 0
M  V30 1654 H 160.321 -3.77439 -4.50348 0
M  V30 1655 H 161.845 -3.17354 -5.2165 0
M  V30 1656 H 163.259 -4.58727 -3.43864 0
M  V30 1657 H 161.656 -5.21893 -2.96222 0
M  V30 1658 H 162.726 -4.53087 -1.72744 0
M  V30 1659 N 164.069 0.697108 -1.41344 0
M  V30 1660 C 165.297 1.48593 -1.43972 0
M  V30 1661 C 165.712 1.88747 -0.0445612 0
M  V30 1662 O 165.069 1.56682 0.935785 0
M  V30 1663 C 165.12 2.74946 -2.34706 0
M  V30 1664 O 164.841 2.36484 -3.68791 0
M  V30 1665 C 166.342 3.687 -2.46121 0
M  V30 1666 H 163.562 0.457964 -0.490418 0
M  V30 1667 H 166.106 0.858429 -1.8561 0
M  V30 1668 H 164.261 3.33937 -1.9638 0
M  V30 1669 H 164.675 3.17918 -4.17167 0
M  V30 1670 H 166.149 4.54145 -3.13777 0
M  V30 1671 H 166.626 4.13081 -1.49199 0
M  V30 1672 H 167.232 3.15613 -2.85076 0
M  V30 1673 N 165.547 1.27147 0.931209 0
M  V30 1674 C 166.457 1.11372 2.06478 0
M  V30 1675 C 167.473 0.044645 1.73943 0
M  V30 1676 O 168.649 0.250417 1.99837 0
M  V30 1677 C 165.714 0.758838 3.38294 0
M  V30 1678 C 164.775 1.90841 3.84549 0
M  V30 1679 C 164.008 1.57036 5.10074 0
M  V30 1680 O 164.231 0.476645 5.68405 0
M  V30 1681 O 163.165 2.40839 5.51616 0
M  V30 1682 H 166.991 2.06493 2.22698 0
M  V30 1683 H 164.576 1.06301 1.04978 0
M  V30 1684 H 166.458 0.574098 4.17471 0
M  V30 1685 H 165.133 -0.162879 3.2329 0
M  V30 1686 H 164.04 2.14819 3.06274 0
M  V30 1687 H 165.373 2.81021 4.04089 0
M  V30 1688 N 167.025 -1.13721 1.09112 0
M  V30 1689 C 168.436 -1.6648 0.845068 0
M  V30 1690 C 168.787 -1.85911 -0.62701 0
M  V30 1691 O 167.912 -1.57556 -1.48341 0
M  V30 1692 C 168.507 -3.02413 1.52748 0
M  V30 1693 C 167.066 -3.52176 1.32849 0
M  V30 1694 C 166.213 -2.27492 1.58564 0
M  V30 1695 H 169.164 -0.976872 1.25072 0
M  V30 1696 H 169.185 -3.68223 0.958752 0
M  V30 1697 H 168.697 -2.88238 2.59885 0
M  V30 1698 H 166.798 -3.7156 0.278137 0
M  V30 1699 H 166.911 -4.32499 2.0611 0
M  V30 1700 H 165.275 -2.33923 1.00758 0
M  V30 1701 H 166.058 -2.15886 2.66924 0
M  V30 1702 N 168.503 -0.877838 -1.30888 0
M  V30 1703 C 169.433 -0.35534 -2.3078 0
M  V30 1704 C 170.414 0.557994 -1.60687 0
M  V30 1705 O 171.599 0.473355 -1.88343 0
M  V30 1706 C 168.729 0.437221 -3.44537 0
M  V30 1707 C 167.683 -0.383715 -4.26276 0
M  V30 1708 C 167.009 0.535014 -5.32017 0
M  V30 1709 C 168.309 -1.62201 -4.96476 0
M  V30 1710 H 170.003 -1.19007 -2.74732 0
M  V30 1711 H 167.549 -0.573698 -1.32078 0
M  V30 1712 H 169.502 0.813334 -4.13477 0
M  V30 1713 H 168.226 1.30553 -2.99372 0
M  V30 1714 H 166.885 -0.741874 -3.59015 0
M  V30 1715 H 166.533 1.40083 -4.831 0
M  V30 1716 H 166.233 -0.0104211 -5.87599 0
M  V30 1717 H 167.757 0.907799 -6.03814 0
M  V30 1718 H 169.171 -1.31689 -5.5797 0
M  V30 1719 H 167.568 -2.10711 -5.61891 0
M  V30 1720 H 168.638 -2.37044 -4.23011 0
M  V30 1721 N 169.982 1.44106 -0.638065 0
M  V30 1722 C 170.915 2.27924 0.112161 0
M  V30 1723 C 171.893 1.38945 0.844574 0
M  V30 1724 O 173.077 1.68386 0.847248 0
M  V30 1725 C 170.204 3.18029 1.16512 0
M  V30 1726 C 169.25 4.23163 0.532458 0
M  V30 1727 S 170.083 5.31131 -0.682666 0
M  V30 1728 C 171.239 6.24805 0.37013 0
M  V30 1729 H 171.472 2.91205 -0.598887 0
M  V30 1730 H 169.005 1.48394 -0.426441 0
M  V30 1731 H 170.963 3.70492 1.76766 0
M  V30 1732 H 169.624 2.53955 1.8484 0
M  V30 1733 H 168.817 4.86252 1.32571 0
M  V30 1734 H 168.419 3.74 0.00437644 0
M  V30 1735 H 170.711 6.66042 1.24071 0
M  V30 1736 H 171.654 7.07741 -0.225349 0
M  V30 1737 H 172.062 5.60154 0.699141 0
M  V30 1738 N 171.46 0.379036 1.52974 0
M  V30 1739 C 172.37 -0.468639 2.29872 0
M  V30 1740 C 173.386 -1.08067 1.36373 0
M  V30 1741 O 174.562 -1.08871 1.69438 0
M  V30 1742 C 171.627 -1.58594 3.083 0
M  V30 1743 C 170.688 -1.00007 4.17489 0
M  V30 1744 C 169.921 -2.06413 4.92168 0
M  V30 1745 O 170.144 -3.27751 4.66835 0
M  V30 1746 O 169.078 -1.68717 5.7777 0
M  V30 1747 H 172.904 0.157508 3.03291 0
M  V30 1748 H 170.489 0.143035 1.48714 0
M  V30 1749 H 172.371 -2.23525 3.57232 0
M  V30 1750 H 171.046 -2.19724 2.37703 0
M  V30 1751 H 169.953 -0.314299 3.72777 0
M  V30 1752 H 171.286 -0.433135 4.90291 0
M  V30 1753 N 172.938 -1.57226 0.108567 0
M  V30 1754 C 173.87 -2.11809 -0.875752 0
M  V30 1755 C 174.883 -1.05839 -1.23701 0
M  V30 1756 O 176.072 -1.33245 -1.18778 0
M  V30 1757 C 173.172 -2.59411 -2.18081 0
M  V30 1758 C 172.345 -3.89364 -1.99284 0
M  V30 1759 C 171.404 -4.22672 -3.13424 0
M  V30 1760 O 170.43 -4.91668 -2.86795 0
M  V30 1761 N 171.632 -3.79154 -4.3957 0
M  V30 1762 H 174.397 -2.9689 -0.409477 0
M  V30 1763 H 171.958 -1.61721 -0.076158 0
M  V30 1764 H 173.95 -2.7873 -2.93414 0
M  V30 1765 H 172.52 -1.79268 -2.5609 0
M  V30 1766 H 171.74 -3.79059 -1.08203 0
M  V30 1767 H 173.028 -4.74358 -1.84017 0
M  V30 1768 H 172.426 -3.23486 -4.64083 0
M  V30 1769 H 170.983 -4.03602 -5.11809 0
M  V30 1770 N 174.416 0.165178 -1.56732 0
M  V30 1771 C 175.662 0.882112 -1.82611 0
M  V30 1772 C 175.995 1.81628 -0.687378 0
M  V30 1773 O 175.27 1.92009 0.310267 0
M  V30 1774 C 175.553 1.67245 -3.18906 0
M  V30 1775 C 175.406 0.760987 -4.43316 0
M  V30 1776 C 176.725 2.63884 -3.52212 0
M  V30 1777 H 173.844 0.319242 -0.664269 0
M  V30 1778 H 176.486 0.148052 -1.89422 0
M  V30 1779 H 174.636 2.29824 -3.1323 0
M  V30 1780 H 176.308 0.147596 -4.61064 0
M  V30 1781 H 174.551 0.0694102 -4.33744 0
M  V30 1782 H 175.222 1.34962 -5.35247 0
M  V30 1783 H 177.698 2.11429 -3.58381 0
M  V30 1784 H 176.574 3.16245 -4.48643 0
M  V30 1785 H 176.835 3.44377 -2.77231 0
M  V30 1786 N 175.894 1.51508 0.433938 0
M  V30 1787 C 177.142 1.6402 1.18075 0
M  V30 1788 C 177.463 0.360328 1.91642 0
M  V30 1789 O 176.733 -0.623945 1.85698 0
M  V30 1790 H 175.313 0.6045 0.43885 0
M  V30 1791 H 177.975 1.88452 0.497178 0
M  V30 1792 H 177.071 2.46949 1.90847 0
M  V30 1793 N 177.372 -0.689602 1.41712 0
M  V30 1794 C 178.6 -1.47827 1.44758 0
M  V30 1795 C 179.015 -1.88721 0.0545703 0
M  V30 1796 O 178.372 -1.57176 -0.927463 0
M  V30 1797 C 178.423 -2.73698 2.3616 0
M  V30 1798 O 178.144 -2.34524 3.7004 0
M  V30 1799 C 179.645 -3.67389 2.48072 0
M  V30 1800 H 176.865 -0.455357 0.49284 0
M  V30 1801 H 179.409 -0.848574 1.86063 0
M  V30 1802 H 177.564 -3.32891 1.98148 0
M  V30 1803 H 177.978 -3.15701 4.18847 0
M  V30 1804 H 179.452 -4.52475 3.16181 0
M  V30 1805 H 179.929 -4.12284 1.51388 0
M  V30 1806 H 180.535 -3.14097 2.86746 0
M  V30 1807 N 178.85 -1.27639 -0.924453 0
M  V30 1808 C 179.76 -1.12466 -2.05885 0
M  V30 1809 C 180.776 -0.053869 -1.73917 0
M  V30 1810 O 181.952 -0.261012 -1.99702 0
M  V30 1811 C 179.017 -0.776768 -3.37886 0
M  V30 1812 C 178.078 -1.92878 -3.83532 0
M  V30 1813 C 177.311 -1.59739 -5.09234 0
M  V30 1814 O 177.534 -0.506782 -5.68144 0
M  V30 1815 O 176.468 -2.43761 -5.50331 0
M  V30 1816 H 180.294 -2.07671 -2.21599 0
M  V30 1817 H 177.879 -1.06857 -1.04413 0
M  V30 1818 H 179.761 -0.596229 -4.17161 0
M  V30 1819 H 178.436 0.145732 -3.23372 0
M  V30 1820 H 177.343 -2.1644 -3.0513 0
M  V30 1821 H 178.676 -2.8316 -4.02593 0
M  V30 1822 N 180.328 1.1314 -1.09713 0
M  V30 1823 C 181.238 2.22242 -0.751367 0
M  V30 1824 C 182.254 1.72224 0.247938 0
M  V30 1825 O 183.43 2.01205 0.0885463 0
M  V30 1826 C 180.495 3.46231 -0.180274 0
M  V30 1827 C 179.556 4.11125 -1.2359 0
M  V30 1828 C 178.789 5.29195 -0.691966 0
M  V30 1829 O 179.012 5.68342 0.48414 0
M  V30 1830 O 177.946 5.84214 -1.44838 0
M  V30 1831 H 181.772 2.54197 -1.66186 0
M  V30 1832 H 179.357 1.21331 -0.871735 0
M  V30 1833 H 181.239 4.21185 0.134739 0
M  V30 1834 H 179.914 3.1597 0.703185 0
M  V30 1835 H 178.821 3.37985 -1.60366 0
M  V30 1836 H 180.154 4.45524 -2.09211 0
M  V30 1837 N 181.806 0.884767 1.30421 0
M  V30 1838 C 183.053 0.503105 1.96151 0
M  V30 1839 C 183.381 -0.947676 1.69851 0
M  V30 1840 O 182.636 -1.68467 0.995861 0
M  V30 1841 C 182.935 0.724318 3.49983 0
M  V30 1842 C 182.601 2.15015 3.96332 0
M  V30 1843 C 181.263 2.54005 4.08699 0
M  V30 1844 C 183.615 3.07936 4.20505 0
M  V30 1845 C 180.943 3.85128 4.42599 0
M  V30 1846 C 183.295 4.3859 4.55874 0
M  V30 1847 C 181.959 4.77474 4.66449 0
M  V30 1848 H 181.229 0.184099 0.717766 0
M  V30 1849 H 183.876 1.12058 1.55291 0
M  V30 1850 H 182.181 0.0238086 3.91793 0
M  V30 1851 H 183.878 0.408617 3.98913 0
M  V30 1852 H 180.468 1.8375 3.87213 0
M  V30 1853 H 184.652 2.79033 4.10431 0
M  V30 1854 H 179.908 4.14996 4.48986 0
M  V30 1855 H 184.082 5.10629 4.7353 0
M  V30 1856 H 181.709 5.79115 4.92473 0
M  V30 1857 N 183.284 -1.43765 0.645699 0
M  V30 1858 C 184.533 -2.01116 0.153412 0
M  V30 1859 C 184.846 -1.51493 -1.23731 0
M  V30 1860 O 186.052 -2.01067 -1.8244 0
M  V30 1861 C 184.508 -3.59206 0.223473 0
M  V30 1862 C 184.116 -4.17823 1.61642 0
M  V30 1863 C 185.86 -4.23972 -0.211597 0
M  V30 1864 C 183.767 -5.68183 1.64081 0
M  V30 1865 H 182.697 -0.752093 0.0535891 0
M  V30 1866 H 185.348 -1.6482 0.806633 0
M  V30 1867 H 183.73 -3.92867 -0.497118 0
M  V30 1868 H 184.904 -3.95674 2.36176 0
M  V30 1869 H 183.219 -3.65399 1.99681 0
M  V30 1870 H 185.816 -5.34275 -0.213112 0
M  V30 1871 H 186.159 -3.97352 -1.24165 0
M  V30 1872 H 186.692 -3.95166 0.456988 0
M  V30 1873 H 183.431 -5.99559 2.64971 0
M  V30 1874 H 182.951 -5.9241 0.938611 0
M  V30 1875 H 184.63 -6.32085 1.3812 0
M  V30 1876 N 184.763 -0.387143 -1.52771 0
M  V30 1877 C 185.71 0.449048 -2.26389 0
M  V30 1878 C 186.68 1.05961 -1.27912 0
M  V30 1879 O 187.865 1.08804 -1.56737 0
M  V30 1880 C 185.005 1.57155 -3.0724 0
M  V30 1881 C 184.118 0.984066 -4.20643 0
M  V30 1882 C 183.253 2.07745 -4.88892 0
M  V30 1883 C 182.292 1.46574 -5.94292 0
M  V30 1884 N 181.429 2.49834 -6.56146 0
M  V30 1885 H 186.269 -0.185205 -2.97424 0
M  V30 1886 H 183.806 -0.103164 -1.46738 0
M  V30 1887 H 185.764 2.23309 -3.52405 0
M  V30 1888 H 184.394 2.17615 -2.38419 0
M  V30 1889 H 183.446 0.212193 -3.79808 0
M  V30 1890 H 184.758 0.497029 -4.96318 0
M  V30 1891 H 183.912 2.81673 -5.3735 0
M  V30 1892 H 182.651 2.59807 -4.12737 0
M  V30 1893 H 181.656 0.711696 -5.45174 0
M  V30 1894 H 182.881 0.953088 -6.72379 0
M  V30 1895 H 180.827 3.0107 -5.82832 0
M  V30 1896 H 180.744 2.05879 -7.27427 0
M  V30 1897 H 182.012 3.23399 -7.09249 0
M  V30 1898 N 186.241 1.57166 -0.116904 0
M  V30 1899 C 187.657 1.5779 0.239693 0
M  V30 1900 C 187.857 1.1295 1.66867 0
M  V30 1901 O 186.913 0.81592 2.38954 0
M  V30 1902 C 188.226 3.00699 0.00828202 0
M  V30 1903 C 189.774 3.12912 0.0743438 0
M  V30 1904 C 190.249 4.57817 -0.129348 0
M  V30 1905 N 191.74 4.63139 -0.075247 0
M  V30 1906 C 192.475 5.73023 -0.207788 0
M  V30 1907 N 191.971 6.91665 -0.396382 0
M  V30 1908 N 193.764 5.61906 -0.14751 0
M  V30 1909 H 185.915 1.84615 -1.05029 0
M  V30 1910 H 188.178 0.85311 -0.41341 0
M  V30 1911 H 187.884 3.37784 -0.979531 0
M  V30 1912 H 187.758 3.69848 0.741077 0
M  V30 1913 H 190.145 2.75686 1.05268 0
M  V30 1914 H 190.226 2.4631 -0.690297 0
M  V30 1915 H 189.87 4.95742 -1.10465 0
M  V30 1916 H 189.8 5.22507 0.655253 0
M  V30 1917 H 192.291 3.7784 0.0670898 0
M  V30 1918 H 192.604 7.71255 -0.488437 0
M  V30 1919 H 190.949 6.93654 -0.432329 0
M  V30 1920 H 194.14 4.681 -0.00115036 0
M  V30 1921 H 194.313 6.47501 -0.254247 0
M  V30 1922 N 187.719 -0.156864 1.56817 0
M  V30 1923 C 188.966 -0.871125 1.82805 0
M  V30 1924 C 189.294 -1.81611 0.696262 0
M  V30 1925 O 188.549 -1.93141 -0.315459 0
M  V30 1926 C 188.848 -1.68737 3.1506 0
M  V30 1927 C 188.514 -0.890045 4.42028 0
M  V30 1928 C 187.176 -0.670042 4.76512 0
M  V30 1929 C 189.528 -0.331769 5.20143 0
M  V30 1930 C 186.856 0.119104 5.86579 0
M  V30 1931 C 189.208 0.444365 6.31037 0
M  V30 1932 C 187.872 0.675035 6.64078 0
M  V30 1933 H 187.142 -0.318767 0.668931 0
M  V30 1934 H 189.789 -0.135274 1.91022 0
M  V30 1935 H 188.094 -2.49304 3.0225 0
M  V30 1936 H 189.791 -2.24331 3.3238 0
M  V30 1937 H 186.381 -1.07157 4.14988 0
M  V30 1938 H 190.565 -0.489043 4.93885 0
M  V30 1939 H 185.821 0.307417 6.10627 0
M  V30 1940 H 189.995 0.884139 6.90765 0
M  V30 1941 H 187.622 1.28839 7.49203 0
M  V30 1942 N 189.197 -1.51736 -0.425897 0
M  V30 1943 C 190.445 -1.64644 -1.17204 0
M  V30 1944 C 190.766 -0.370486 -1.91448 0
M  V30 1945 O 190.036 0.614088 -1.86026 0
M  V30 1946 H 188.616 -0.606819 -0.435638 0
M  V30 1947 H 191.278 -1.88713 -0.487177 0
M  V30 1948 H 190.374 -2.47958 -1.89534 0
M  V30 1949 N 190.675 0.682077 -1.42076 0
M  V30 1950 C 191.952 1.43755 -1.32642 0
M  V30 1951 C 192.332 2.11063 0.0396611 0
M  V30 1952 O 191.68 2.02701 1.05474 0
M  V30 1953 C 191.89 2.44596 -2.48946 0
M  V30 1954 C 193.238 3.09454 -2.9073 0
M  V30 1955 O 194.262 2.54922 -2.48783 0
M  V30 1956 O 193.121 4.08253 -3.63307 0
M  V30 1957 H 190.215 0.640857 -0.522715 0
M  V30 1958 H 192.761 0.711415 -1.54068 0
M  V30 1959 H 191.533 1.93609 -3.40046 0
M  V30 1960 H 191.156 3.24701 -2.29467 0
M  V30 1961 N 192.153 1.28127 0.917671 0
M  V30 1962 C 193.401 1.14825 1.66312 0
M  V30 1963 C 193.722 -0.304379 1.9261 0
M  V30 1964 O 192.992 -1.21149 1.53947 0
M  V30 1965 H 191.572 0.421953 0.616413 0
M  V30 1966 H 194.234 1.608 1.10134 0
M  V30 1967 H 193.33 1.68489 2.62712 0
M  V30 1968 N 193.631 -1.12557 1.10312 0
M  V30 1969 C 194.594 -2.16434 0.75424 0
M  V30 1970 C 195.594 -1.59278 -0.220685 0
M  V30 1971 O 196.784 -1.742 0.00230591 0
M  V30 1972 C 193.916 -3.40699 0.116987 0
M  V30 1973 H 195.109 -2.48811 1.67431 0
M  V30 1974 H 192.662 -1.27542 0.903475 0
M  V30 1975 H 193.397 -3.13921 -0.813877 0
M  V30 1976 H 193.182 -3.83459 0.818613 0
M  V30 1977 H 194.672 -4.17451 -0.111387 0
M  V30 1978 N 195.109 -0.891671 -1.2995 0
M  V30 1979 C 196.334 -0.527932 -2.00568 0
M  V30 1980 C 196.759 0.877969 -1.66353 0
M  V30 1981 O 196.117 1.58301 -0.883762 0
M  V30 1982 C 196.165 -0.717745 -3.53385 0
M  V30 1983 O 195.269 0.233376 -4.11739 0
M  V30 1984 H 194.61 -0.20722 -0.630837 0
M  V30 1985 H 197.14 -1.20105 -1.65638 0
M  V30 1986 H 197.15 -0.619307 -4.03272 0
M  V30 1987 H 195.825 -1.74276 -3.77625 0
M  V30 1988 H 194.402 0.0880706 -3.72796 0
M  V30 1989 N 196.587 1.43421 -0.653314 0
M  V30 1990 C 198.003 1.56341 -0.320886 0
M  V30 1991 C 198.203 1.63696 1.17499 0
M  V30 1992 O 197.259 1.59208 1.95982 0
M  V30 1993 C 198.572 2.82424 -1.03233 0
M  V30 1994 C 200.12 2.96168 -1.01259 0
M  V30 1995 C 200.595 4.25084 -1.70492 0
M  V30 1996 N 202.086 4.31948 -1.67257 0
M  V30 1997 C 202.821 5.30466 -2.17701 0
M  V30 1998 N 202.317 6.35261 -2.76434 0
M  V30 1999 N 204.11 5.2212 -2.082 0
M  V30 2000 H 196.261 1.3689 -1.62403 0
M  V30 2001 H 198.524 0.657455 -0.682977 0
M  V30 2002 H 198.23 2.83053 -2.08744 0
M  V30 2003 H 198.104 3.72653 -0.583948 0
M  V30 2004 H 200.491 2.9508 0.0341235 0
M  V30 2005 H 200.572 2.07229 -1.49966 0
M  V30 2006 H 200.216 4.26932 -2.7512 0
M  V30 2007 H 200.146 5.1292 -1.19251 0
M  V30 2008 H 202.637 3.56838 -1.24398 0
M  V30 2009 H 202.95 7.06754 -3.12601 0
M  V30 2010 H 201.295 6.35884 -2.80495 0
M  V30 2011 H 204.486 4.39166 -1.62021 0
M  V30 2012 H 204.659 5.98739 -2.47822 0
M  V30 2013 N 198.065 0.39524 1.52563 0
M  V30 2014 C 199.311 -0.185318 2.01952 0
M  V30 2015 C 199.644 -1.45964 1.28095 0
M  V30 2016 O 198.919 -1.90689 0.38315 0
M  V30 2017 C 199.202 -0.447193 3.57312 0
M  V30 2018 C 199.055 0.842828 4.41833 0
M  V30 2019 C 200.374 -1.23529 4.22408 0
M  V30 2020 H 197.493 -0.0658788 0.73405 0
M  V30 2021 H 200.135 0.525975 1.82575 0
M  V30 2022 H 198.285 -1.05312 3.73954 0
M  V30 2023 H 199.957 1.4795 4.36931 0
M  V30 2024 H 198.2 1.45686 4.08605 0
M  V30 2025 H 198.871 0.614165 5.48573 0
M  V30 2026 H 201.347 -0.722445 4.0978 0
M  V30 2027 H 200.223 -1.38727 5.3108 0
M  V30 2028 H 200.484 -2.25213 3.80436 0
M  V30 2029 N 199.544 -1.57102 0.125237 0
M  V30 2030 C 200.79 -1.95697 -0.532035 0
M  V30 2031 C 201.123 -1.009 -1.6593 0
M  V30 2032 O 200.398 -0.047347 -1.94442 0
M  V30 2033 C 200.681 -3.44181 -1.05884 0
M  V30 2034 C 200.534 -4.49752 0.0654392 0
M  V30 2035 C 201.853 -3.94655 -1.9477 0
M  V30 2036 H 198.972 -0.711571 -0.191925 0
M  V30 2037 H 201.614 -1.88923 0.20206 0
M  V30 2038 H 199.764 -3.50085 -1.68442 0
M  V30 2039 H 201.436 -4.55943 0.700982 0
M  V30 2040 H 199.679 -4.27653 0.727709 0
M  V30 2041 H 200.35 -5.50924 -0.344505 0
M  V30 2042 H 202.826 -3.91094 -1.42074 0
M  V30 2043 H 201.702 -4.99057 -2.28546 0
M  V30 2044 H 201.963 -3.35718 -2.87656 0
M  V30 2045 N 201.022 0.148545 -1.56898 0
M  V30 2046 C 201.952 1.18524 -2.01182 0
M  V30 2047 C 202.933 1.4489 -0.891123 0
M  V30 2048 O 204.118 1.55836 -1.15882 0
M  V30 2049 C 201.248 2.51879 -2.39112 0
M  V30 2050 C 200.202 2.40038 -3.54353 0
M  V30 2051 C 199.528 3.78089 -3.78091 0
M  V30 2052 C 200.828 1.88577 -4.87069 0
M  V30 2053 H 202.522 0.817029 -2.88036 0
M  V30 2054 H 200.068 0.391575 -1.38574 0
M  V30 2055 H 202.021 3.24627 -2.68692 0
M  V30 2056 H 200.745 2.90532 -1.49193 0
M  V30 2057 H 199.404 1.69742 -3.24936 0
M  V30 2058 H 199.052 4.14175 -2.85426 0
M  V30 2059 H 198.752 3.71028 -4.55645 0
M  V30 2060 H 200.276 4.52387 -4.10095 0
M  V30 2061 H 201.69 2.51117 -5.15377 0
M  V30 2062 H 200.087 1.9241 -5.68417 0
M  V30 2063 H 201.157 0.84136 -4.77545 0
M  V30 2064 N 202.5 1.5196 0.417844 0
M  V30 2065 C 203.725 1.69717 1.1921 0
M  V30 2066 C 204.15 0.402148 1.83751 0
M  V30 2067 O 203.508 -0.639593 1.69643 0
M  V30 2068 C 203.556 2.82794 2.2374 0
M  V30 2069 O 202.66 2.47756 3.29683 0
M  V30 2070 H 202.001 0.565263 0.348387 0
M  V30 2071 H 204.531 1.98621 0.490985 0
M  V30 2072 H 204.541 3.07452 2.68212 0
M  V30 2073 H 203.216 3.76756 1.76146 0
M  V30 2074 H 201.793 2.33739 2.90552 0
M  V30 2075 N 203.978 -0.674533 1.42435 0
M  V30 2076 C 204.908 -1.80009 1.48724 0
M  V30 2077 C 205.889 -1.6659 0.343793 0
M  V30 2078 O 207.074 -1.86007 0.558137 0
M  V30 2079 C 204.204 -3.18306 1.38919 0
M  V30 2080 C 203.158 -3.46461 2.51294 0
M  V30 2081 C 202.484 -4.84335 2.26547 0
M  V30 2082 C 203.784 -3.43328 3.93603 0
M  V30 2083 H 205.478 -1.75004 2.42928 0
M  V30 2084 H 203.024 -0.840533 1.16923 0
M  V30 2085 H 204.977 -3.9678 1.41927 0
M  V30 2086 H 203.701 -3.2399 0.412094 0
M  V30 2087 H 202.36 -2.70348 2.47604 0
M  V30 2088 H 202.008 -4.86669 1.2713 0
M  V30 2089 H 201.708 -5.04136 3.01861 0
M  V30 2090 H 203.232 -5.65094 2.31304 0
M  V30 2091 H 204.646 -4.11772 3.98894 0
M  V30 2092 H 203.043 -3.74664 4.68771 0
M  V30 2093 H 204.113 -2.41897 4.20255 0
M  V30 2094 N 205.456 -1.28612 -0.910864 0
M  V30 2095 C 206.867 -1.14406 -1.47541 0
M  V30 2096 C 207.218 0.264901 -1.94403 0
M  V30 2097 O 206.343 1.15942 -1.82719 0
M  V30 2098 C 206.938 -2.07073 -2.68153 0
M  V30 2099 C 205.497 -1.96923 -3.20778 0
M  V30 2100 C 204.644 -1.98646 -1.93481 0
M  V30 2101 H 207.595 -1.41259 -0.723291 0
M  V30 2102 H 207.616 -1.63642 -3.43514 0
M  V30 2103 H 207.128 -3.09611 -2.34015 0
M  V30 2104 H 205.229 -0.97433 -3.59635 0
M  V30 2105 H 205.342 -2.84026 -3.85832 0
M  V30 2106 H 203.706 -1.43093 -2.10705 0
M  V30 2107 H 204.489 -3.02868 -1.61634 0
M  V30 2108 N 206.934 1.1197 -1.10907 0
M  V30 2109 C 208.181 1.83588 -0.854507 0
M  V30 2110 C 208.509 1.84357 0.6199 0
M  V30 2111 O 207.764 1.28809 1.47332 0
M  V30 2112 C 208.063 3.30749 -1.35425 0
M  V30 2113 C 207.729 3.50146 -2.84093 0
M  V30 2114 C 206.391 3.55148 -3.2469 0
M  V30 2115 C 208.743 3.56857 -3.79872 0
M  V30 2116 C 206.071 3.6441 -4.59806 0
M  V30 2117 C 208.423 3.6765 -5.14797 0
M  V30 2118 C 207.087 3.7091 -5.54961 0
M  V30 2119 H 206.357 0.671795 -0.312686 0
M  V30 2120 H 209.004 1.32091 -1.38652 0
M  V30 2121 H 207.309 3.84703 -0.742361 0
M  V30 2122 H 209.006 3.8464 -1.1337 0
M  V30 2123 H 205.596 3.46919 -2.51685 0
M  V30 2124 H 209.78 3.52258 -3.49611 0
M  V30 2125 H 205.036 3.65208 -4.9034 0
M  V30 2126 H 209.21 3.71786 -5.88853 0
M  V30 2127 H 206.837 3.7784 -6.59652 0
M  V30 2128 N 208.412 0.89855 1.29475 0
M  V30 2129 C 209.375 0.380272 2.26023 0
M  V30 2130 C 210.375 -0.484891 1.53315 0
M  V30 2131 O 211.565 -0.290108 1.71767 0
M  V30 2132 C 208.697 -0.45651 3.3783 0
M  V30 2133 H 209.89 1.23295 2.73383 0
M  V30 2134 H 207.443 0.676589 1.40897 0
M  V30 2135 H 208.178 -1.32922 2.95808 0
M  V30 2136 H 207.963 0.163393 3.91759 0
M  V30 2137 H 209.453 -0.810466 4.0966 0
M  V30 2138 N 209.89 -1.43072 0.660911 0
M  V30 2139 C 210.8 -2.34585 -0.0264163 0
M  V30 2140 C 211.816 -1.54316 -0.803898 0
M  V30 2141 O 212.992 -1.86939 -0.749391 0
M  V30 2142 C 210.057 -3.32689 -0.975639 0
M  V30 2143 C 209.118 -4.2886 -0.194236 0
M  V30 2144 C 208.351 -5.22278 -1.09825 0
M  V30 2145 O 208.574 -5.20299 -2.33763 0
M  V30 2146 O 207.508 -5.99228 -0.566513 0
M  V30 2147 H 211.334 -2.94869 0.727034 0
M  V30 2148 H 208.919 -1.43342 0.42111 0
M  V30 2149 H 210.801 -3.92995 -1.52094 0
M  V30 2150 H 209.476 -2.74898 -1.70918 0
M  V30 2151 H 208.383 -3.72011 0.394835 0
M  V30 2152 H 209.716 -4.89655 0.499899 0
M  V30 2153 N 211.368 -0.403325 -1.52352 0
M  V30 2154 C 212.616 0.174003 -2.0135 0
M  V30 2155 C 212.937 1.46139 -1.29106 0
M  V30 2156 O 212.207 1.91448 -0.415253 0
M  V30 2157 H 210.787 0.0672911 -0.743963 0
M  V30 2158 H 213.449 -0.538235 -1.87321 0
M  V30 2159 H 212.545 0.374254 -3.09848 0
M  V30 2160 N 212.846 1.57033 -0.133567 0
M  V30 2161 C 214.071 2.00475 0.531477 0
M  V30 2162 C 214.496 1.01291 1.58499 0
M  V30 2163 O 213.854 -0.0133279 1.81295 0
M  V30 2164 C 213.902 3.42729 1.12113 0
M  V30 2165 O 213.006 3.46498 2.23636 0
M  V30 2166 H 212.347 0.650876 0.131362 0
M  V30 2167 H 214.877 2.03344 -0.22634 0
M  V30 2168 H 214.887 3.81246 1.4531 0
M  V30 2169 H 213.562 4.14428 0.349557 0
M  V30 2170 H 212.139 3.19811 1.91769 0
M  V30 2171 N 214.325 -0.140222 1.56975 0
M  V30 2172 C 215.55 -0.870414 1.88251 0
M  V30 2173 C 215.975 -1.73637 0.723312 0
M  V30 2174 O 215.333 -1.78329 -0.32689 0
M  V30 2175 C 215.381 -1.69737 3.18154 0
M  V30 2176 O 214.485 -2.80229 3.02565 0
M  V30 2177 H 213.826 -0.242025 0.61832 0
M  V30 2178 H 216.356 -0.128999 2.04193 0
M  V30 2179 H 216.366 -2.09099 3.50345 0
M  V30 2180 H 215.041 -1.06152 4.02125 0
M  V30 2181 H 213.618 -2.44224 2.81796 0
M  V30 2182 N 215.803 -1.52179 -0.40978 0
M  V30 2183 C 217.028 -1.70347 -1.18308 0
M  V30 2184 C 217.453 -0.411887 -1.83535 0
M  V30 2185 O 216.811 0.630587 -1.6998 0
M  V30 2186 C 216.859 -2.83977 -2.22238 0
M  V30 2187 O 215.963 -2.495 -3.28365 0
M  V30 2188 H 215.304 -0.567103 -0.345384 0
M  V30 2189 H 217.834 -1.98879 -0.480445 0
M  V30 2190 H 217.844 -3.0887 -2.66577 0
M  V30 2191 H 216.519 -3.77685 -1.74146 0
M  V30 2192 H 215.096 -2.35277 -2.89308 0
M  V30 2193 N 217.281 0.66697 -1.42791 0
M  V30 2194 C 218.527 1.4291 -1.43891 0
M  V30 2195 C 218.86 1.94114 -0.0578972 0
M  V30 2196 O 218.135 1.71414 0.91911 0
M  V30 2197 C 218.418 2.62049 -2.46987 0
M  V30 2198 C 218.271 2.16426 -3.94309 0
M  V30 2199 C 219.59 3.64266 -2.46978 0
M  V30 2200 H 216.709 0.518306 -0.523954 0
M  V30 2201 H 219.351 0.757321 -1.74255 0
M  V30 2202 H 217.501 3.19361 -2.21225 0
M  V30 2203 H 219.173 1.64221 -4.31079 0
M  V30 2204 H 217.416 1.47925 -4.078 0
M  V30 2205 H 218.087 3.02038 -4.62036 0
M  V30 2206 H 220.563 3.16686 -2.69906 0
M  V30 2207 H 219.439 4.45196 -3.21079 0
M  V30 2208 H 219.7 4.15927 -1.49857 0
M  V30 2209 N 218.759 1.29093 0.90403 0
M  V30 2210 C 219.669 1.15727 2.0407 0
M  V30 2211 C 220.685 0.0815308 1.73809 0
M  V30 2212 O 221.861 0.292749 1.99261 0
M  V30 2213 C 218.926 0.830424 3.36608 0
M  V30 2214 C 217.987 1.98955 3.80415 0
M  V30 2215 C 217.22 1.6782 5.06628 0
M  V30 2216 O 217.443 0.597105 5.67266 0
M  V30 2217 O 216.377 2.52486 5.46383 0
M  V30 2218 H 220.203 2.11171 2.18267 0
M  V30 2219 H 217.788 1.08504 1.027 0
M  V30 2220 H 219.67 0.662521 4.16159 0
M  V30 2221 H 218.345 -0.0942678 3.23563 0
M  V30 2222 H 217.252 2.21267 3.01648 0
M  V30 2223 H 218.585 2.89529 3.98037 0
M  V30 2224 N 220.237 -1.11381 1.11499 0
M  V30 2225 C 221.467 -1.86663 0.885464 0
M  V30 2226 C 221.875 -1.80464 -0.568281 0
M  V30 2227 O 221.218 -1.18445 -1.40415 0
M  V30 2228 C 221.28 -3.36337 1.26956 0
M  V30 2229 C 220.944 -3.66304 2.73259 0
M  V30 2230 C 221.941 -3.63733 3.71476 0
M  V30 2231 C 219.626 -3.9529 3.09921 0
M  V30 2232 C 221.62 -3.89725 5.04374 0
M  V30 2233 C 219.307 -4.20941 4.43004 0
M  V30 2234 C 220.305 -4.18147 5.40039 0
M  V30 2235 O 219.993 -4.43153 6.70724 0
M  V30 2236 H 219.725 -0.597114 0.316908 0
M  V30 2237 H 222.279 -1.41782 1.48617 0
M  V30 2238 H 220.509 -3.81826 0.611999 0
M  V30 2239 H 222.198 -3.92986 1.01573 0
M  V30 2240 H 222.964 -3.41389 3.44498 0
M  V30 2241 H 218.843 -3.966 2.35009 0
M  V30 2242 H 222.387 -3.8746 5.80104 0
M  V30 2243 H 218.284 -4.42761 4.69716 0
M  V30 2244 H 219.052 -4.60717 6.76522 0
M  V30 2245 N 221.715 -0.905404 -1.28997 0
M  V30 2246 C 222.964 -0.530191 -1.94607 0
M  V30 2247 C 223.277 0.929185 -1.72121 0
M  V30 2248 O 224.483 1.41218 -2.31883 0
M  V30 2249 C 222.939 -0.897333 -3.48534 0
M  V30 2250 C 222.547 -2.37587 -3.79811 0
M  V30 2251 C 224.291 -0.592304 -4.20347 0
M  V30 2252 C 222.198 -2.68357 -5.27009 0
M  V30 2253 H 221.128 -0.194558 -0.728466 0
M  V30 2254 H 223.779 -1.10318 -1.46636 0
M  V30 2255 H 222.161 -0.253214 -3.9519 0
M  V30 2256 H 223.335 -3.06602 -3.43994 0
M  V30 2257 H 221.65 -2.6505 -3.2115 0
M  V30 2258 H 224.247 -0.798975 -5.28697 0
M  V30 2259 H 224.59 0.469474 -4.13644 0
M  V30 2260 H 225.123 -1.19452 -3.79442 0
M  V30 2261 H 221.862 -3.73355 -5.38782 0
M  V30 2262 H 221.382 -2.03971 -5.64053 0
M  V30 2263 H 223.061 -2.54922 -5.94663 0
M  V30 2264 N 223.193 1.4272 -0.668489 0
M  V30 2265 C 224.141 2.32586 0.0254857 0
M  V30 2266 C 225.135 1.49471 0.797176 0
M  V30 2267 O 226.341 1.65583 0.705853 0
M  V30 2268 H 222.716 0.751514 0.0270339 0
M  V30 2269 H 224.687 2.88823 -0.749936 0
M  V30 2270 C 223.436 3.3397 0.967427 0
M  V30 2271 H 222.759 3.97961 0.383048 0
M  V30 2272 H 224.199 3.9945 1.42181 0
M  V30 2273 C 222.658 2.65744 2.0708 0
M  V30 2274 O 223.188 2.48454 3.15648 0
M  V30 2275 N 221.394 2.2487 1.8407 0
M  V30 2276 H 220.941 2.39132 0.95778 0
M  V30 2277 H 220.899 1.79552 2.58086 0
M  V30 2278 N 224.671 0.411399 1.52136 0
M  V30 2279 C 225.619 -0.427633 2.28635 0
M  V30 2280 C 226.613 -1.04383 1.33419 0
M  V30 2281 O 227.819 -0.981772 1.50868 0
M  V30 2282 H 224.194 -0.156689 0.735495 0
M  V30 2283 H 226.165 0.238761 2.97443 0
M  V30 2284 C 224.914 -1.53082 3.12188 0
M  V30 2285 H 224.237 -1.06601 3.85326 0
M  V30 2286 H 225.677 -2.09167 3.68816 0
M  V30 2287 C 224.136 -2.49946 2.25895 0
M  V30 2288 O 224.666 -3.53884 1.90076 0
M  V30 2289 N 222.872 -2.2021 1.8962 0
M  V30 2290 H 222.419 -1.35719 2.18948 0
M  V30 2291 H 222.377 -2.85266 1.32176 0
M  V30 2292 N 226.149 -1.5696 0.141893 0
M  V30 2293 C 227.395 -1.97034 -0.504884 0
M  V30 2294 C 227.75 -1.02518 -1.62812 0
M  V30 2295 O 227.043 -0.0592943 -1.91508 0
M  V30 2296 C 227.237 -3.41242 -1.06249 0
M  V30 2297 C 227.066 -4.497 0.00519653 0
M  V30 2298 C 225.836 -5.03338 0.444873 0
M  V30 2299 C 228.034 -5.08122 0.794767 0
M  V30 2300 N 226.016 -5.95395 1.49593 0
M  V30 2301 C 227.387 -5.96339 1.69645 0
M  V30 2302 C 229.442 -4.9071 0.843122 0
M  V30 2303 C 228.145 -6.69009 2.64233 0
M  V30 2304 C 230.171 -5.64077 1.77681 0
M  V30 2305 C 229.533 -6.51999 2.66603 0
M  V30 2306 H 225.632 -0.766745 -0.153707 0
M  V30 2307 H 228.216 -1.93273 0.235313 0
M  V30 2308 H 226.387 -3.45606 -1.77231 0
M  V30 2309 H 228.119 -3.68389 -1.67546 0
M  V30 2310 H 224.874 -4.73576 0.0480959 0
M  V30 2311 H 225.298 -6.46128 2.02107 0
M  V30 2312 H 229.94 -4.22459 0.169732 0
M  V30 2313 H 227.658 -7.36492 3.32575 0
M  V30 2314 H 231.244 -5.52602 1.81996 0
M  V30 2315 H 230.124 -7.07775 3.37675 0
M  V30 2316 N 227.627 0.131896 -1.57047 0
M  V30 2317 C 228.537 1.1815 -2.02676 0
M  V30 2318 C 229.553 1.46113 -0.944824 0
M  V30 2319 O 230.729 1.57485 -1.25541 0
M  V30 2320 C 227.794 2.49139 -2.41103 0
M  V30 2321 C 226.855 2.28688 -3.63318 0
M  V30 2322 C 226.088 3.53431 -3.99903 0
M  V30 2323 O 226.311 4.60223 -3.36973 0
M  V30 2324 O 225.245 3.45198 -4.93074 0
M  V30 2325 H 229.071 0.824069 -2.92306 0
M  V30 2326 H 226.656 0.341745 -1.45439 0
M  V30 2327 H 228.538 3.26338 -2.66611 0
M  V30 2328 H 227.213 2.84382 -1.54624 0
M  V30 2329 H 226.12 1.4939 -3.42977 0
M  V30 2330 H 227.453 1.98355 -4.50462 0
M  V30 2331 N 229.106 1.52395 0.401703 0
M  V30 2332 C 230.038 1.72505 1.50912 0
M  V30 2333 C 231.051 0.605468 1.51122 0
M  V30 2334 O 232.24 0.880828 1.55254 0
M  V30 2335 C 229.34 1.75711 2.89791 0
M  V30 2336 C 228.513 3.04824 3.1369 0
M  V30 2337 C 227.572 2.99743 4.32482 0
M  V30 2338 O 226.598 3.73635 4.29402 0
M  V30 2339 N 227.8 2.18047 5.37992 0
M  V30 2340 H 230.565 2.68049 1.34052 0
M  V30 2341 H 228.126 1.50724 0.591084 0
M  V30 2342 H 230.118 1.69834 3.6734 0
M  V30 2343 H 228.688 0.876092 3.00072 0
M  V30 2344 H 227.908 3.2429 2.24119 0
M  V30 2345 H 229.196 3.90221 3.26504 0
M  V30 2346 H 228.594 1.57456 5.43345 0
M  V30 2347 H 227.151 2.18021 6.14256 0
M  V30 2348 N 230.584 -0.659388 1.43143 0
M  V30 2349 C 231.547 -1.75432 1.47501 0
M  V30 2350 C 232.547 -1.56707 0.360512 0
M  V30 2351 O 233.737 -1.62717 0.622002 0
M  V30 2352 C 230.869 -3.14239 1.32162 0
M  V30 2353 H 232.062 -1.7295 2.45006 0
M  V30 2354 H 229.615 -0.870469 1.29817 0
M  V30 2355 H 230.35 -3.22336 0.356401 0
M  V30 2356 H 230.135 -3.29235 2.12948 0
M  V30 2357 H 231.625 -3.94094 1.3813 0
M  V30 2358 N 232.062 -1.29571 -0.897171 0
M  V30 2359 C 233.009 -1.14916 -2.00158 0
M  V30 2360 C 233.979 -0.0418149 -1.66047 0
M  V30 2361 O 235.164 -0.209793 -1.89643 0
M  V30 2362 C 232.304 -0.834307 -3.34863 0
M  V30 2363 C 231.417 -2.02234 -3.8174 0
M  V30 2364 C 230.552 -1.64664 -5.05034 0
M  V30 2365 C 229.591 -2.80033 -5.44286 0
M  V30 2366 N 228.728 -2.42843 -6.58765 0
M  V30 2367 H 233.568 -2.09403 -2.12025 0
M  V30 2368 H 231.105 -1.042 -1.0383 0
M  V30 2369 H 233.063 -0.632436 -4.12379 0
M  V30 2370 H 231.693 0.0736656 -3.22716 0
M  V30 2371 H 230.745 -2.33583 -3.00238 0
M  V30 2372 H 232.057 -2.88673 -4.06779 0
M  V30 2373 H 231.211 -1.4078 -5.9014 0
M  V30 2374 H 229.95 -0.753766 -4.8184 0
M  V30 2375 H 228.955 -3.04596 -4.57713 0
M  V30 2376 H 230.18 -3.69989 -5.6946 0
M  V30 2377 H 228.126 -1.56046 -6.3717 0
M  V30 2378 H 228.043 -3.22815 -6.83613 0
M  V30 2379 H 229.311 -2.22285 -7.47134 0
M  V30 2380 N 233.54 1.10788 -1.12088 0
M  V30 2381 C 234.503 2.15207 -0.788577 0
M  V30 2382 C 235.503 1.59609 0.195317 0
M  V30 2383 O 236.693 1.74174 -0.0300193 0
M  V30 2384 C 233.825 3.4047 -0.171174 0
M  V30 2385 H 235.018 2.46116 -1.71368 0
M  V30 2386 H 232.571 1.26089 -0.923652 0
M  V30 2387 H 233.306 3.15176 0.763832 0
M  V30 2388 H 233.091 3.82109 -0.879514 0
M  V30 2389 H 234.581 4.17576 0.04496 0
M  V30 2390 N 235.018 0.912232 1.28515 0
M  V30 2391 C 235.948 0.416403 2.29757 0
M  V30 2392 C 236.929 -0.515194 1.6211 0
M  V30 2393 O 238.114 -0.423253 1.89532 0
M  V30 2394 C 235.244 -0.34572 3.45575 0
M  V30 2395 C 234.198 0.496599 4.25109 0
M  V30 2396 C 233.524 -0.393771 5.33248 0
M  V30 2397 C 234.824 1.75307 4.92001 0
M  V30 2398 H 236.518 1.26249 2.7148 0
M  V30 2399 H 234.064 0.608515 1.30511 0
M  V30 2400 H 236.017 -0.703422 4.15488 0
M  V30 2401 H 234.741 -1.2257 3.02728 0
M  V30 2402 H 233.4 0.8368 3.56922 0
M  V30 2403 H 233.048 -1.27225 4.86644 0
M  V30 2404 H 232.748 0.166209 5.87365 0
M  V30 2405 H 234.272 -0.747389 6.06009 0
M  V30 2406 H 235.686 1.46437 5.54283 0
M  V30 2407 H 234.083 2.25534 5.56106 0
M  V30 2408 H 235.153 2.48176 4.16577 0
M  V30 2409 N 236.496 -1.42363 0.676048 0
M  V30 2410 C 237.721 -2.06377 0.205705 0
M  V30 2411 C 238.146 -1.50463 -1.12883 0
M  V30 2412 O 237.504 -0.623619 -1.70237 0
M  V30 2413 C 237.552 -3.60277 0.152655 0
M  V30 2414 O 236.656 -4.02935 -0.87845 0
M  V30 2415 H 235.997 -0.655588 0.105359 0
M  V30 2416 H 238.527 -1.82475 0.925412 0
M  V30 2417 H 238.537 -4.07993 -0.0230675 0
M  V30 2418 H 237.212 -4.00346 1.12675 0
M  V30 2419 H 235.789 -3.66764 -0.673668 0
M  V30 2420 N 237.974 -0.419461 -1.51915 0
M  V30 2421 C 239.22 0.153166 -2.02221 0
M  V30 2422 C 239.553 1.43907 -1.30401 0
M  V30 2423 O 238.828 1.90055 -0.413438 0
M  V30 2424 C 239.111 0.390291 -3.57979 0
M  V30 2425 C 238.964 -0.913014 -4.40436 0
M  V30 2426 C 240.283 1.16794 -4.2432 0
M  V30 2427 H 237.402 0.0541924 -0.735005 0
M  V30 2428 H 240.044 -0.554955 -1.81715 0
M  V30 2429 H 238.194 0.993491 -3.75582 0
M  V30 2430 H 239.866 -1.54882 -4.34522 0
M  V30 2431 H 238.109 -1.52168 -4.06236 0
M  V30 2432 H 238.78 -0.701361 -5.47526 0
M  V30 2433 H 241.256 0.657161 -4.10878 0
M  V30 2434 H 240.132 1.3026 -5.3322 0
M  V30 2435 H 240.393 2.19132 -3.83971 0
M  V30 2436 N 239.452 1.56882 -0.150215 0
M  V30 2437 C 240.362 2.20494 0.801222 0
M  V30 2438 C 241.378 1.19019 1.26927 0
M  V30 2439 O 242.554 1.51607 1.32579 0
M  V30 2440 C 239.619 2.81659 2.02161 0
M  V30 2441 C 238.68 3.9827 1.60249 0
M  V30 2442 C 237.913 4.56508 2.7647 0
M  V30 2443 O 238.136 4.13627 3.92771 0
M  V30 2444 O 237.07 5.46719 2.51757 0
M  V30 2445 H 240.896 3.02315 0.289717 0
M  V30 2446 H 238.481 1.49202 0.0769684 0
M  V30 2447 H 240.363 3.20522 2.73576 0
M  V30 2448 H 239.038 2.02849 2.52258 0
M  V30 2449 H 237.945 3.64117 0.858477 0
M  V30 2450 H 239.278 4.78609 1.14864 0
M  V30 2451 N 240.93 -0.123565 1.57115 0
M  V30 2452 C 241.86 -1.15309 2.03042 0
M  V30 2453 C 242.841 -1.43454 0.914061 0
M  V30 2454 O 244.026 -1.53973 1.18347 0
M  V30 2455 C 241.156 -2.48043 2.43089 0
M  V30 2456 C 240.11 -2.3437 3.58127 0
M  V30 2457 C 239.436 -3.72026 3.84059 0
M  V30 2458 C 240.736 -1.80804 4.90007 0
M  V30 2459 H 242.43 -0.771102 2.893 0
M  V30 2460 H 239.976 -0.369479 1.39179 0
M  V30 2461 H 241.929 -3.20311 2.73823 0
M  V30 2462 H 240.653 -2.88122 1.53796 0
M  V30 2463 H 239.312 -1.64551 3.27595 0
M  V30 2464 H 238.96 -4.09582 2.91979 0
M  V30 2465 H 238.66 -3.63732 4.6149 0
M  V30 2466 H 240.184 -4.45806 4.1724 0
M  V30 2467 H 241.598 -2.42886 5.19307 0
M  V30 2468 H 239.995 -1.83343 5.71407 0
M  V30 2469 H 241.065 -0.76528 4.78823 0
M  V30 2470 N 242.408 -1.52605 -0.393616 0
M  V30 2471 C 243.318 -1.79971 -1.50492 0
M  V30 2472 C 244.334 -0.686181 -1.59899 0
M  V30 2473 O 245.51 -0.973274 -1.76322 0
M  V30 2474 C 242.575 -1.95867 -2.86072 0
M  V30 2475 C 241.636 -3.19781 -2.86424 0
M  V30 2476 C 240.869 -3.34909 -4.15538 0
M  V30 2477 O 241.092 -2.54948 -5.10253 0
M  V30 2478 O 240.026 -4.28141 -4.23059 0
M  V30 2479 H 243.852 -2.74328 -1.30299 0
M  V30 2480 H 241.437 -1.3764 -0.581005 0
M  V30 2481 H 243.319 -2.08056 -3.66457 0
M  V30 2482 H 241.994 -1.04699 -3.063 0
M  V30 2483 H 240.901 -3.13038 -2.04837 0
M  V30 2484 H 242.234 -4.1078 -2.71147 0
M  V30 2485 N 243.887 0.651787 -1.4349 0
M  V30 2486 C 245.136 1.40754 -1.44469 0
M  V30 2487 C 245.449 1.95463 -0.0731845 0
M  V30 2488 O 246.655 2.71471 0.0395721 0
M  V30 2489 C 245.111 2.54735 -2.5424 0
M  V30 2490 C 244.719 2.06628 -3.97504 0
M  V30 2491 C 246.463 3.32092 -2.64414 0
M  V30 2492 C 244.37 3.17829 -4.98737 0
M  V30 2493 H 243.3 0.528862 -0.53742 0
M  V30 2494 H 245.951 0.703365 -1.69485 0
M  V30 2495 H 244.333 3.2763 -2.22428 0
M  V30 2496 H 245.507 1.40734 -4.38783 0
M  V30 2497 H 243.822 1.42146 -3.91387 0
M  V30 2498 H 246.419 4.14952 -3.37223 0
M  V30 2499 H 246.762 3.80217 -1.69532 0
M  V30 2500 H 247.295 2.66279 -2.95534 0
M  V30 2501 H 244.034 2.74671 -5.95177 0
M  V30 2502 H 243.554 3.82429 -4.62069 0
M  V30 2503 H 245.233 3.82937 -5.21505 0
M  V30 2504 N 245.365 1.30045 0.890287 0
M  V30 2505 C 246.313 1.15873 2.01683 0
M  V30 2506 C 247.307 0.0719403 1.69247 0
M  V30 2507 O 248.513 0.232414 1.78493 0
M  V30 2508 H 244.888 0.358203 0.661207 0
M  V30 2509 H 246.859 2.11229 2.10772 0
M  V30 2510 C 245.608 0.861842 3.36849 0
M  V30 2511 H 244.931 1.69016 3.62317 0
M  V30 2512 H 246.371 0.802762 4.16331 0
M  V30 2513 C 244.83 -0.435132 3.34078 0
M  V30 2514 O 245.36 -1.4583 3.74295 0
M  V30 2515 N 243.566 -0.444377 2.87182 0
M  V30 2516 H 243.113 0.388723 2.5465 0
M  V30 2517 H 243.071 -1.31213 2.85711 0
M  V30 2518 N 246.843 -1.10192 1.12674 0
M  V30 2519 C 248.09 -1.82205 0.883606 0
M  V30 2520 C 248.418 -1.8532 -0.590492 0
M  V30 2521 O 247.673 -1.31137 -1.45264 0
M  V30 2522 C 247.972 -3.28552 1.4067 0
M  V30 2523 C 247.638 -3.45582 2.89627 0
M  V30 2524 C 246.3 -3.49937 3.30299 0
M  V30 2525 C 248.652 -3.50768 3.85501 0
M  V30 2526 C 245.98 -3.57049 4.65546 0
M  V30 2527 C 248.332 -3.59414 5.20581 0
M  V30 2528 C 246.996 -3.62034 5.60792 0
M  V30 2529 H 246.266 -0.666735 0.323334 0
M  V30 2530 H 248.913 -1.29868 1.40736 0
M  V30 2531 H 247.218 -3.83473 0.80347 0
M  V30 2532 H 248.915 -3.82788 1.19475 0
M  V30 2533 H 245.505 -3.42871 2.57172 0
M  V30 2534 H 249.689 -3.46651 3.55171 0
M  V30 2535 H 244.945 -3.57361 4.96088 0
M  V30 2536 H 249.119 -3.62371 5.94693 0
M  V30 2537 H 246.746 -3.67298 6.6558 0
M  V30 2538 N 248.321 -0.919034 -1.28029 0
M  V30 2539 C 249.231 -0.416756 -2.30869 0
M  V30 2540 C 250.247 0.498235 -1.66714 0
M  V30 2541 O 251.423 0.383144 -1.97722 0
M  V30 2542 C 248.488 0.330274 -3.45123 0
M  V30 2543 C 247.549 -0.618578 -4.2482 0
M  V30 2544 C 246.782 0.0928959 -5.33619 0
M  V30 2545 O 247.005 1.31375 -5.55065 0
M  V30 2546 O 245.939 -0.574499 -5.99152 0
M  V30 2547 H 249.765 -1.27043 -2.75851 0
M  V30 2548 H 247.35 -0.684052 -1.3282 0
M  V30 2549 H 249.232 0.751972 -4.14636 0
M  V30 2550 H 247.907 1.1597 -3.02213 0
M  V30 2551 H 246.814 -1.08978 -3.57875 0
M  V30 2552 H 248.147 -1.41497 -4.71423 0
M  V30 2553 N 249.799 1.42003 -0.683588 0
M  V30 2554 C 251.027 2.05746 -0.218182 0
M  V30 2555 C 251.442 1.51396 1.12804 0
M  V30 2556 O 250.799 0.657303 1.70252 0
M  V30 2557 C 250.85 3.61171 -0.154131 0
M  V30 2558 O 250.571 4.13508 -1.44716 0
M  V30 2559 C 252.072 4.42042 0.333713 0
M  V30 2560 H 249.292 0.662888 -0.10402 0
M  V30 2561 H 251.836 1.81987 -0.9328 0
M  V30 2562 H 249.991 3.84012 0.511231 0
M  V30 2563 H 250.405 5.07453 -1.32632 0
M  V30 2564 H 251.879 5.51028 0.327423 0
M  V30 2565 H 252.356 4.17269 1.37053 0
M  V30 2566 H 252.962 4.24239 -0.300222 0
M  V30 2567 N 251.277 0.427512 1.51691 0
M  V30 2568 C 252.693 0.0792977 1.59403 0
M  V30 2569 C 252.893 -1.41035 1.43914 0
M  V30 2570 O 251.949 -2.17922 1.27539 0
M  V30 2571 C 253.262 0.590636 2.94842 0
M  V30 2572 C 254.81 0.550215 3.08126 0
M  V30 2573 C 255.285 1.03836 4.46074 0
M  V30 2574 N 256.776 0.995943 4.52366 0
M  V30 2575 C 257.511 1.34463 5.57411 0
M  V30 2576 N 257.007 1.76569 6.69922 0
M  V30 2577 N 258.8 1.26343 5.47717 0
M  V30 2578 H 250.951 1.39687 1.60004 0
M  V30 2579 H 253.214 0.575003 0.753708 0
M  V30 2580 H 252.92 1.63251 3.11516 0
M  V30 2581 H 252.794 0.0102061 3.77199 0
M  V30 2582 H 255.181 -0.482654 2.91126 0
M  V30 2583 H 255.262 1.16693 2.27632 0
M  V30 2584 H 254.906 2.06965 4.63819 0
M  V30 2585 H 254.836 0.398286 5.25092 0
M  V30 2586 H 257.327 0.68661 3.7161 0
M  V30 2587 H 257.64 2.01438 7.46085 0
M  V30 2588 H 255.985 1.80488 6.71155 0
M  V30 2589 H 259.176 0.933209 4.58703 0
M  V30 2590 H 259.349 1.53846 6.29472 0
M  V30 2591 N 252.755 -1.56801 0.158532 0
M  V30 2592 C 254.003 -1.96102 -0.488712 0
M  V30 2593 C 254.324 -1.04498 -1.64636 0
M  V30 2594 O 253.594 -0.108783 -1.95598 0
M  V30 2595 H 252.174 -0.724102 -0.183535 0
M  V30 2596 H 254.836 -1.93457 0.236728 0
M  V30 2597 H 253.932 -3.00097 -0.857219 0
M  V30 2598 N 254.233 0.115231 -1.57178 0
M  V30 2599 C 255.18 1.14115 -2.00615 0
M  V30 2600 C 256.15 1.40939 -0.878941 0
M  V30 2601 O 257.335 1.52741 -1.14345 0
M  V30 2602 C 254.475 2.46156 -2.4187 0
M  V30 2603 C 253.588 2.26236 -3.68024 0
M  V30 2604 C 252.723 3.51534 -3.98243 0
M  V30 2605 C 251.762 3.26787 -5.17568 0
M  V30 2606 N 250.899 4.44298 -5.43639 0
M  V30 2607 H 255.739 0.763743 -2.88047 0
M  V30 2608 H 253.276 0.365615 -1.42484 0
M  V30 2609 H 255.234 3.23189 -2.63827 0
M  V30 2610 H 253.864 2.81783 -1.57475 0
M  V30 2611 H 252.916 1.40102 -3.5366 0
M  V30 2612 H 254.228 2.03929 -4.55208 0
M  V30 2613 H 253.382 4.36984 -4.20868 0
M  V30 2614 H 252.121 3.76876 -3.09541 0
M  V30 2615 H 251.126 2.39729 -4.94783 0
M  V30 2616 H 252.351 3.02812 -6.0785 0
M  V30 2617 H 250.297 4.69754 -4.57895 0
M  V30 2618 H 250.214 4.25109 -6.25154 0
M  V30 2619 H 251.482 5.3087 -5.70786 0
M  V30 2620 N 255.711 1.52812 0.385517 0
M  V30 2621 C 257.127 1.4214 0.725829 0
M  V30 2622 C 257.327 0.544589 1.94001 0
M  V30 2623 O 256.383 0.0193693 2.52493 0
M  V30 2624 C 257.696 2.85042 0.957668 0
M  V30 2625 C 259.244 2.94543 1.05892 0
M  V30 2626 C 259.719 4.38464 1.32337 0
M  V30 2627 N 261.21 4.41804 1.39151 0
M  V30 2628 C 261.945 5.5025 1.61285 0
M  V30 2629 N 261.441 6.68775 1.80866 0
M  V30 2630 N 263.234 5.37798 1.63492 0
M  V30 2631 H 255.385 2.08338 -0.413383 0
M  V30 2632 H 257.648 0.940016 -0.122775 0
M  V30 2633 H 257.354 3.51431 0.137568 0
M  V30 2634 H 257.228 3.27505 1.87137 0
M  V30 2635 H 259.615 2.28321 1.86959 0
M  V30 2636 H 259.696 2.55504 0.123057 0
M  V30 2637 H 259.34 5.05254 0.517793 0
M  V30 2638 H 259.27 4.75059 2.27214 0
M  V30 2639 H 261.761 3.56377 1.25713 0
M  V30 2640 H 262.074 7.47197 1.97271 0
M  V30 2641 H 260.419 6.71797 1.78083 0
M  V30 2642 H 263.61 4.44171 1.47749 0
M  V30 2643 H 263.783 6.22382 1.80402 0
M  V30 2644 N 257.189 -0.644168 1.43834 0
M  V30 2645 C 258.437 -1.40117 1.45642 0
M  V30 2646 C 258.758 -1.94814 0.0852413 0
M  V30 2647 O 258.028 -1.74988 -0.880688 0
M  V30 2648 H 256.608 -0.52005 0.536243 0
M  V30 2649 H 259.27 -0.7591 1.7951 0
M  V30 2650 H 258.366 -2.23902 2.17427 0
M  V30 2651 N 258.668 -1.30515 -0.883378 0
M  V30 2652 C 259.6 -1.12846 -1.99496 0
M  V30 2653 C 260.613 -0.0712571 -1.62644 0
M  V30 2654 O 261.802 -0.317432 -1.75655 0
M  V30 2655 C 258.902 -0.699123 -3.3161 0
M  V30 2656 C 258.075 -1.83842 -3.96889 0
M  V30 2657 C 257.134 -1.39737 -5.07307 0
M  V30 2658 O 256.16 -2.10485 -5.28852 0
M  V30 2659 N 257.362 -0.277279 -5.79837 0
M  V30 2660 H 260.127 -2.08585 -2.15203 0
M  V30 2661 H 257.688 -1.22672 -1.05656 0
M  V30 2662 H 259.68 -0.387044 -4.02845 0
M  V30 2663 H 258.25 0.166276 -3.12157 0
M  V30 2664 H 257.47 -2.31853 -3.18807 0
M  V30 2665 H 258.758 -2.60187 -4.37241 0
M  V30 2666 H 258.156 0.3122 -5.64838 0
M  V30 2667 H 256.713 -0.0246623 -6.51795 0
M  V30 2668 N 260.146 1.09593 -1.13257 0
M  V30 2669 C 261.423 1.78293 -0.804432 0
M  V30 2670 C 261.803 1.99004 0.70431 0
M  V30 2671 O 261.151 1.59007 1.641 0
M  V30 2672 C 261.361 3.10707 -1.5894 0
M  V30 2673 C 262.709 3.85443 -1.78099 0
M  V30 2674 O 263.733 3.20454 -1.55525 0
M  V30 2675 O 262.592 5.02108 -2.15753 0
M  V30 2676 H 259.686 0.773156 -0.293528 0
M  V30 2677 H 262.232 1.16164 -1.23709 0
M  V30 2678 H 261.004 2.91106 -2.61482 0
M  V30 2679 H 260.627 3.80558 -1.15157 0
M  V30 2680 N 261.624 0.925811 1.2754 0
M  V30 2681 C 262.587 0.428129 2.25166 0
M  V30 2682 C 263.587 -0.452261 1.54309 0
M  V30 2683 O 264.777 -0.253608 1.72344 0
M  V30 2684 C 261.909 -0.384749 3.38722 0
M  V30 2685 H 263.102 1.29066 2.70706 0
M  V30 2686 H 260.655 0.706323 1.3943 0
M  V30 2687 H 261.39 -1.26618 2.98561 0
M  V30 2688 H 261.175 0.246454 3.91325 0
M  V30 2689 H 262.665 -0.723389 4.11287 0
M  V30 2690 N 263.102 -1.41638 0.69111 0
M  V30 2691 C 264.035 -2.28183 -0.0274913 0
M  V30 2692 C 265.013 -1.41984 -0.792424 0
M  V30 2693 O 266.197 -1.71415 -0.784169 0
M  V30 2694 C 263.324 -3.22135 -1.04628 0
M  V30 2695 C 262.37 -4.24848 -0.375037 0
M  V30 2696 S 263.203 -5.28231 0.879321 0
M  V30 2697 C 264.359 -6.25748 -0.137983 0
M  V30 2698 H 264.592 -2.88782 0.706553 0
M  V30 2699 H 262.125 -1.46709 0.481222 0
M  V30 2700 H 264.083 -3.76797 -1.62894 0
M  V30 2701 H 262.744 -2.6064 -1.75287 0
M  V30 2702 H 261.937 -4.90837 -1.14433 0
M  V30 2703 H 261.539 -3.73758 0.134434 0
M  V30 2704 H 263.831 -6.70188 -0.992659 0
M  V30 2705 H 264.774 -7.06417 0.487867 0
M  V30 2706 H 265.182 -5.62363 -0.490762 0
M  V30 2707 N 264.58 -0.43555 -1.51462 0
M  V30 2708 C 265.81 0.130053 -2.0619 0
M  V30 2709 C 266.218 1.37164 -1.30317 0
M  V30 2710 O 265.561 1.80225 -0.355598 0
M  V30 2711 C 265.623 0.519418 -3.55728 0
M  V30 2712 C 265.287 -0.615119 -4.52841 0
M  V30 2713 C 266.284 -1.48671 -4.9819 0
M  V30 2714 C 263.969 -0.795341 -4.95963 0
M  V30 2715 C 265.963 -2.52324 -5.8533 0
M  V30 2716 C 263.65 -1.83514 -5.82894 0
M  V30 2717 C 264.648 -2.69748 -6.27475 0
M  V30 2718 O 264.336 -3.71944 -7.1268 0
M  V30 2719 H 264.068 0.0121612 -0.675891 0
M  V30 2720 H 266.622 -0.6129 -1.96043 0
M  V30 2721 H 264.852 1.31505 -3.63653 0
M  V30 2722 H 266.541 1.01597 -3.92979 0
M  V30 2723 H 267.307 -1.359 -4.65571 0
M  V30 2724 H 263.186 -0.133713 -4.60806 0
M  V30 2725 H 266.73 -3.19665 -6.20048 0
M  V30 2726 H 262.627 -1.96306 -6.14926 0
M  V30 2727 H 263.395 -3.68503 -7.30854 0
M  V30 2728 N 266.058 1.56714 -0.166846 0
M  V30 2729 C 266.968 2.21331 0.777791 0
M  V30 2730 C 267.984 1.20358 1.25658 0
M  V30 2731 O 269.16 1.53005 1.30964 0
M  V30 2732 C 266.225 2.83787 1.99163 0
M  V30 2733 C 265.286 3.99947 1.56016 0
M  V30 2734 C 264.519 4.59415 2.71613 0
M  V30 2735 O 264.742 4.17769 3.88362 0
M  V30 2736 O 263.676 5.49359 2.45945 0
M  V30 2737 H 267.502 3.02605 0.257636 0
M  V30 2738 H 265.087 1.49275 0.0611393 0
M  V30 2739 H 266.969 3.23405 2.70161 0
M  V30 2740 H 265.644 2.05513 2.50092 0
M  V30 2741 H 264.551 3.65007 0.819809 0
M  V30 2742 H 265.884 4.79801 1.09782 0
M  V30 2743 N 267.536 -0.106894 1.57237 0
M  V30 2744 C 268.766 -0.825191 1.89405 0
M  V30 2745 C 269.174 -1.73374 0.757496 0
M  V30 2746 O 268.517 -1.81552 -0.280115 0
M  V30 2747 C 268.579 -1.70102 3.1671 0
M  V30 2748 C 268.243 -0.965523 4.46684 0
M  V30 2749 C 269.24 -0.300741 5.19029 0
M  V30 2750 C 266.925 -0.943105 4.93367 0
M  V30 2751 C 268.919 0.376622 6.36286 0
M  V30 2752 C 266.606 -0.261949 6.10538 0
M  V30 2753 C 267.604 0.396748 6.81847 0
M  V30 2754 O 267.292 1.06701 7.96787 0
M  V30 2755 H 267.024 -0.241852 0.631255 0
M  V30 2756 H 269.578 -0.0921491 2.05193 0
M  V30 2757 H 267.808 -2.47601 2.97036 0
M  V30 2758 H 269.497 -2.29483 3.34802 0
M  V30 2759 H 270.263 -0.309599 4.84011 0
M  V30 2760 H 266.142 -1.44524 4.3776 0
M  V30 2761 H 269.686 0.891334 6.91882 0
M  V30 2762 H 265.583 -0.250896 6.45012 0
M  V30 2763 H 266.351 0.972707 8.127 0
M  V30 2764 N 269.014 -1.53014 -0.377408 0
M  V30 2765 C 269.947 -1.73382 -1.48371 0
M  V30 2766 C 270.925 -0.581879 -1.51832 0
M  V30 2767 O 272.109 -0.81307 -1.70063 0
M  V30 2768 C 269.236 -1.80192 -2.8679 0
M  V30 2769 C 268.282 -3.02056 -3.01105 0
M  V30 2770 S 269.115 -4.61811 -2.71093 0
M  V30 2771 C 270.271 -4.71453 -4.11683 0
M  V30 2772 H 270.504 -2.66946 -1.30872 0
M  V30 2773 H 268.037 -1.43453 -0.571012 0
M  V30 2774 H 269.995 -1.84802 -3.6655 0
M  V30 2775 H 268.656 -0.877008 -3.01608 0
M  V30 2776 H 267.849 -3.03396 -4.02451 0
M  V30 2777 H 267.451 -2.95498 -2.29253 0
M  V30 2778 H 269.743 -4.50781 -5.0577 0
M  V30 2779 H 270.686 -5.73487 -4.15353 0
M  V30 2780 H 271.094 -4.00189 -3.98132 0
M  V30 2781 N 270.492 0.636531 -1.44174 0
M  V30 2782 C 271.455 1.73063 -1.50273 0
M  V30 2783 C 272.455 1.56113 -0.385397 0
M  V30 2784 O 273.645 1.61707 -0.64781 0
M  V30 2785 C 270.777 3.12096 -1.37145 0
M  V30 2786 H 271.97 1.69031 -2.47727 0
M  V30 2787 H 269.523 0.849706 -1.31186 0
M  V30 2788 H 270.258 3.21728 -0.407636 0
M  V30 2789 H 270.043 3.25805 -2.18159 0
M  V30 2790 H 271.533 3.91846 -1.44382 0
M  V30 2791 N 271.97 1.30982 0.876444 0
M  V30 2792 C 272.902 1.13902 1.98894 0
M  V30 2793 C 273.915 0.0798815 1.62604 0
M  V30 2794 O 275.104 0.326743 1.75484 0
M  V30 2795 C 272.204 0.716699 3.31235 0
M  V30 2796 C 271.377 1.85945 3.95908 0
M  V30 2797 C 270.436 1.42426 5.06558 0
M  V30 2798 O 269.462 2.13287 5.27729 0
M  V30 2799 N 270.664 0.308025 5.79682 0
M  V30 2800 H 273.429 2.09724 2.14094 0
M  V30 2801 H 270.99 1.2323 1.05004 0
M  V30 2802 H 272.982 0.408403 4.02634 0
M  V30 2803 H 271.552 -0.149719 3.12241 0
M  V30 2804 H 270.772 2.33541 3.17573 0
M  V30 2805 H 272.06 2.62503 4.35855 0
M  V30 2806 H 271.458 -0.282241 5.64995 0
M  V30 2807 H 270.015 0.0592282 6.51773 0
M  V30 2808 N 273.449 -1.08991 1.13837 0
M  V30 2809 C 274.412 -2.13925 0.822715 0
M  V30 2810 C 275.412 -1.599 -0.1699 0
M  V30 2811 O 276.602 -1.74104 0.0577251 0
M  V30 2812 C 273.734 -3.40155 0.225318 0
M  V30 2813 H 274.927 -2.43358 1.75262 0
M  V30 2814 H 272.48 -1.24603 0.943594 0
M  V30 2815 H 273.215 -3.16352 -0.713594 0
M  V30 2816 H 273 -3.80661 0.940193 0
M  V30 2817 H 274.49 -4.17594 0.0214784 0
M  V30 2818 N 274.927 -0.932562 -1.27047 0
M  V30 2819 C 276.167 -0.582919 -1.95912 0
M  V30 2820 C 276.531 0.860629 -1.71631 0
M  V30 2821 O 277.732 1.31878 -2.34225 0
M  V30 2822 C 276.003 -0.905673 -3.45734 0
M  V30 2823 S 277.562 -0.665277 -4.33727 0
M  V30 2824 H 274.38 -0.215 -0.677714 0
M  V30 2825 H 276.982 -1.20204 -1.54179 0
M  V30 2826 H 275.686 -1.95386 -3.60905 0
M  V30 2827 H 275.217 -0.275939 -3.92431 0
M  V30 2828 H 277.232 0.474635 -4.93925 0
M  V30 2829 N 276.405 1.4127 -0.698611 0
M  V30 2830 C 277.368 2.29158 -0.044132 0
M  V30 2831 C 278.368 1.44529 0.704841 0
M  V30 2832 O 279.558 1.65643 0.539276 0
M  V30 2833 C 276.69 3.27459 0.947809 0
M  V30 2834 H 277.883 2.88529 -0.817994 0
M  V30 2835 H 275.436 1.49307 -0.46228 0
M  V30 2836 H 276.171 2.73073 1.74933 0
M  V30 2837 H 275.956 3.8991 0.41385 0
M  V30 2838 H 277.446 3.93311 1.40344 0
M  V30 2839 N 277.883 0.443576 1.51229 0
M  V30 2840 C 279.131 -0.120557 2.0174 0
M  V30 2841 C 279.452 -1.42665 1.32935 0
M  V30 2842 O 278.722 -1.9028 0.465866 0
M  V30 2843 H 277.302 -0.0475426 0.745486 0
M  V30 2844 H 279.964 0.587711 1.85828 0
M  V30 2845 H 279.06 -0.291972 3.10731 0
M  V30 2846 N 279.361 -1.56624 0.175154 0
M  V30 2847 C 280.309 -2.19468 -0.770495 0
M  V30 2848 C 281.303 -1.15985 -1.23466 0
M  V30 2849 O 282.509 -1.34176 -1.19987 0
M  V30 2850 H 278.884 -0.703095 -0.266761 0
M  V30 2851 H 280.855 -2.97613 -0.216542 0
M  V30 2852 C 279.604 -2.85264 -1.98796 0
M  V30 2853 H 278.927 -3.64623 -1.63983 0
M  V30 2854 H 280.367 -3.327 -2.62843 0
M  V30 2855 C 278.826 -1.85239 -2.81404 0
M  V30 2856 O 279.356 -1.34024 -3.78682 0
M  V30 2857 N 277.562 -1.53911 -2.46495 0
M  V30 2858 H 277.109 -1.95751 -1.67449 0
M  V30 2859 H 277.067 -0.872382 -3.02054 0
M  V30 2860 N 280.839 0.0985539 -1.57292 0
M  V30 2861 C 282.255 0.45267 -1.53046 0
M  V30 2862 C 282.455 1.80713 -0.891342 0
M  V30 2863 O 281.511 2.4785 -0.482375 0
M  V30 2864 C 282.824 0.418341 -2.97776 0
M  V30 2865 C 284.372 0.500443 -3.08973 0
M  V30 2866 C 284.847 0.496297 -4.55303 0
M  V30 2867 N 286.338 0.557151 -4.59837 0
M  V30 2868 C 287.073 0.575726 -5.70502 0
M  V30 2869 N 286.569 0.550714 -6.90608 0
M  V30 2870 N 288.362 0.620277 -5.58667 0
M  V30 2871 H 280.513 -0.788673 -1.97215 0
M  V30 2872 H 282.776 -0.293188 -0.901524 0
M  V30 2873 H 282.482 -0.509659 -3.47988 0
M  V30 2874 H 282.356 1.2386 -3.56284 0
M  V30 2875 H 284.743 1.41886 -2.58751 0
M  V30 2876 H 284.824 -0.347894 -2.53423 0
M  V30 2877 H 284.468 -0.418162 -5.06176 0
M  V30 2878 H 284.398 1.3618 -5.08687 0
M  V30 2879 H 286.889 0.581816 -3.73394 0
M  V30 2880 H 287.202 0.568075 -7.70709 0
M  V30 2881 H 285.547 0.517816 -6.93068 0
M  V30 2882 H 288.738 0.637322 -4.63741 0
M  V30 2883 H 288.911 0.631283 -6.44918 0
M  V30 2884 N 282.317 1.53212 0.369288 0
M  V30 2885 C 283.563 1.69466 1.11397 0
M  V30 2886 C 283.896 0.443257 1.89074 0
M  V30 2887 O 283.171 -0.559386 1.86282 0
M  V30 2888 C 283.454 2.9422 2.07621 0
M  V30 2889 C 283.307 4.29508 1.33577 0
M  V30 2890 C 284.626 3.14565 3.07794 0
M  V30 2891 H 281.745 0.616667 0.403597 0
M  V30 2892 H 284.387 1.85845 0.395179 0
M  V30 2893 H 282.537 2.80387 2.68916 0
M  V30 2894 H 284.209 4.55147 0.750955 0
M  V30 2895 H 282.452 4.29088 0.637618 0
M  V30 2896 H 283.123 5.12926 2.03989 0
M  V30 2897 H 285.599 3.2756 2.56601 0
M  V30 2898 H 284.475 4.03297 3.72348 0
M  V30 2899 H 284.736 2.29675 3.77759 0
M  V30 2900 N 283.795 -0.628877 1.44509 0
M  V30 2901 C 285.211 -0.947305 1.28446 0
M  V30 2902 C 285.411 -2.00275 0.221872 0
M  V30 2903 O 284.467 -2.49447 -0.391471 0
M  V30 2904 C 285.78 -1.40843 2.65676 0
M  V30 2905 C 287.328 -1.52379 2.73404 0
M  V30 2906 C 287.803 -2.01875 4.11109 0
M  V30 2907 N 289.294 -2.09142 4.13296 0
M  V30 2908 C 290.029 -2.48615 5.16699 0
M  V30 2909 N 289.525 -2.87209 6.30462 0
M  V30 2910 N 291.318 -2.48768 5.04054 0
M  V30 2911 H 283.469 0.0690977 2.12288 0
M  V30 2912 H 285.732 -0.0317164 0.947469 0
M  V30 2913 H 285.438 -0.707206 3.44516 0
M  V30 2914 H 285.312 -2.37902 2.92716 0
M  V30 2915 H 287.699 -2.21598 1.9488 0
M  V30 2916 H 287.78 -0.536898 2.50102 0
M  V30 2917 H 287.424 -1.3325 4.90109 0
M  V30 2918 H 287.354 -3.0144 4.31789 0
M  V30 2919 H 289.845 -1.81991 3.31191 0
M  V30 2920 H 290.158 -3.16149 7.05174 0
M  V30 2921 H 288.503 -2.84955 6.33897 0
M  V30 2922 H 291.694 -2.18009 4.14234 0
M  V30 2923 H 291.867 -2.79207 5.84763 0
M  V30 2924 N 285.273 -1.31445 -0.869486 0
M  V30 2925 C 286.689 -1.10113 -1.15531 0
M  V30 2926 C 286.889 0.128087 -2.01092 0
M  V30 2927 O 285.945 0.817276 -2.38908 0
M  V30 2928 C 287.258 -2.37291 -1.84698 0
M  V30 2929 C 288.806 -2.42906 -1.97397 0
M  V30 2930 C 289.281 -3.69967 -2.69979 0
M  V30 2931 N 290.772 -3.70864 -2.77514 0
M  V30 2932 C 291.507 -4.65875 -3.34287 0
M  V30 2933 N 291.003 -5.71242 -3.91988 0
M  V30 2934 N 292.796 -4.53394 -3.3225 0
M  V30 2935 H 284.947 -2.1028 -0.299347 0
M  V30 2936 H 287.21 -0.927683 -0.195214 0
M  V30 2937 H 286.916 -3.27078 -1.29278 0
M  V30 2938 H 286.79 -2.47125 -2.84972 0
M  V30 2939 H 289.177 -1.53588 -2.51982 0
M  V30 2940 H 289.258 -2.37036 -0.961643 0
M  V30 2941 H 288.902 -4.59652 -2.16062 0
M  V30 2942 H 288.832 -3.73103 -3.7162 0
M  V30 2943 H 291.323 -2.94697 -2.36563 0
M  V30 2944 H 291.636 -6.39817 -4.33421 0
M  V30 2945 H 289.981 -5.75015 -3.90362 0
M  V30 2946 H 293.172 -3.70252 -2.8641 0
M  V30 2947 H 293.345 -5.27617 -3.76197 0
M  V30 2948 N 286.751 1.08385 -1.14413 0
M  V30 2949 C 287.976 1.85057 -0.936413 0
M  V30 2950 C 288.401 1.81055 0.509971 0
M  V30 2951 O 287.759 1.1958 1.36273 0
M  V30 2952 C 287.807 3.30505 -1.44217 0
M  V30 2953 O 286.911 4.07491 -0.634409 0
M  V30 2954 H 286.252 0.573425 -0.334784 0
M  V30 2955 H 288.782 1.36799 -1.52142 0
M  V30 2956 H 288.792 3.81348 -1.45043 0
M  V30 2957 H 287.467 3.32734 -2.49522 0
M  V30 2958 H 286.044 3.66368 -0.694902 0
M  V30 2959 N 288.23 0.939286 1.26551 0
M  V30 2960 C 289.476 0.586715 1.94128 0
M  V30 2961 C 289.809 -0.8717 1.73537 0
M  V30 2962 O 289.084 -1.62339 1.07127 0
M  V30 2963 C 289.367 0.927497 3.4795 0
M  V30 2964 C 289.22 2.44052 3.77834 0
M  V30 2965 C 290.539 0.441569 4.37879 0
M  V30 2966 H 287.658 0.21463 0.705055 0
M  V30 2967 H 290.3 1.17316 1.49455 0
M  V30 2968 H 288.45 0.428431 3.8613 0
M  V30 2969 H 290.122 3.01216 3.4938 0
M  V30 2970 H 288.365 2.8848 3.23978 0
M  V30 2971 H 289.036 2.62947 4.85348 0
M  V30 2972 H 291.512 0.869448 4.06915 0
M  V30 2973 H 290.388 0.708856 5.44304 0
M  V30 2974 H 290.649 -0.658467 4.37169 0
M  V30 2975 N 289.708 -1.40897 0.706093 0
M  V30 2976 C 290.956 -2.00657 0.241054 0
M  V30 2977 C 291.277 -1.56241 -1.16678 0
M  V30 2978 O 290.547 -0.79765 -1.78926 0
M  V30 2979 H 289.127 -0.742018 0.0861308 0
M  V30 2980 H 291.789 -1.72372 0.909604 0
M  V30 2981 H 290.885 -3.10958 0.266705 0
M  V30 2982 N 291.186 -0.45159 -1.50991 0
M  V30 2983 C 292.411 0.110667 -2.07105 0
M  V30 2984 C 292.836 1.3446 -1.31538 0
M  V30 2985 O 292.194 1.77743 -0.357365 0
M  V30 2986 C 292.242 0.397238 -3.58405 0
M  V30 2987 O 291.346 1.48124 -3.84881 0
M  V30 2988 H 290.687 -0.00439271 -0.663985 0
M  V30 2989 H 293.217 -0.637026 -1.9443 0
M  V30 2990 H 293.227 0.64351 -4.02893 0
M  V30 2991 H 291.902 -0.504553 -4.12828 0
M  V30 2992 H 290.479 1.22381 -3.52246 0
M  V30 2993 N 292.664 1.56529 -0.183458 0
M  V30 2994 C 293.889 2.02064 0.467428 0
M  V30 2995 C 294.314 1.06282 1.55196 0
M  V30 2996 O 293.672 0.0443565 1.81246 0
M  V30 2997 C 293.72 3.46122 1.01153 0
M  V30 2998 O 292.824 3.53437 2.12499 0
M  V30 2999 H 292.165 0.654726 0.110588 0
M  V30 3000 H 294.695 2.02521 -0.290917 0
M  V30 3001 H 294.705 3.85676 1.33108 0
M  V30 3002 H 293.38 4.15331 0.217533 0
M  V30 3003 H 291.957 3.2575 1.81497 0
M  V30 3004 N 294.142 -0.090211 1.57342 0
M  V30 3005 C 295.072 -1.10976 2.05443 0
M  V30 3006 C 296.053 -1.41482 0.944284 0
M  V30 3007 O 297.238 -1.51428 1.21586 0
M  V30 3008 C 294.368 -2.42831 2.48295 0
M  V30 3009 C 293.322 -2.26721 3.63018 0
M  V30 3010 C 292.648 -3.63796 3.91863 0
M  V30 3011 C 293.948 -1.7037 4.93732 0
M  V30 3012 H 295.642 -0.709564 2.9087 0
M  V30 3013 H 293.188 -0.339874 1.39932 0
M  V30 3014 H 295.141 -3.14431 2.80555 0
M  V30 3015 H 293.865 -2.84795 1.59873 0
M  V30 3016 H 292.524 -1.57565 3.31012 0
M  V30 3017 H 292.172 -4.03297 3.00601 0
M  V30 3018 H 291.872 -3.53861 4.69101 0
M  V30 3019 H 293.396 -4.36855 4.26603 0
M  V30 3020 H 294.81 -2.31816 5.24342 0
M  V30 3021 H 293.207 -1.71181 5.75167 0
M  V30 3022 H 294.277 -0.663542 4.80339 0
M  V30 3023 N 295.62 -1.53406 -0.361157 0
M  V30 3024 C 296.845 -1.74024 -1.12829 0
M  V30 3025 C 297.27 -0.470069 -1.82132 0
M  V30 3026 O 296.628 0.57619 -1.719 0
M  V30 3027 C 296.676 -2.90903 -2.13091 0
M  V30 3028 O 295.78 -2.59821 -3.20261 0
M  V30 3029 H 295.121 -0.577804 -0.327168 0
M  V30 3030 H 297.651 -2.00307 -0.41693 0
M  V30 3031 H 297.661 -3.17194 -2.56616 0
M  V30 3032 H 296.336 -3.83034 -1.62042 0
M  V30 3033 H 294.913 -2.44362 -2.81677 0
M  V30 3034 N 297.098 0.621204 -1.44841 0
M  V30 3035 C 298.338 1.39201 -1.49674 0
M  V30 3036 C 298.702 1.91561 -0.129764 0
M  V30 3037 O 299.903 2.68748 -0.0527814 0
M  V30 3038 C 298.174 2.519 -2.53537 0
M  V30 3039 S 299.733 3.39916 -2.77494 0
M  V30 3040 H 296.551 0.474758 -0.529269 0
M  V30 3041 H 299.153 0.718171 -1.81831 0
M  V30 3042 H 297.857 2.11761 -3.51547 0
M  V30 3043 H 297.388 3.241 -2.22986 0
M  V30 3044 H 299.403 4.49646 -2.0984 0
M  V30 3045 N 298.576 1.31904 0.862503 0
M  V30 3046 C 299.825 1.21373 1.61094 0
M  V30 3047 C 300.138 -0.22504 1.94301 0
M  V30 3048 O 301.344 -0.452121 2.67709 0
M  V30 3049 C 299.8 2.12525 2.9045 0
M  V30 3050 C 299.408 3.61441 2.64697 0
M  V30 3051 C 301.152 2.10813 3.68454 0
M  V30 3052 C 299.059 4.44578 3.90006 0
M  V30 3053 H 297.989 0.450705 0.604468 0
M  V30 3054 H 300.64 1.56811 0.953027 0
M  V30 3055 H 299.022 1.69994 3.57656 0
M  V30 3056 H 300.196 4.12264 2.05851 0
M  V30 3057 H 298.511 3.65205 2.00036 0
M  V30 3058 H 301.108 2.70167 4.61426 0
M  V30 3059 H 301.451 1.09713 4.01583 0
M  V30 3060 H 301.984 2.51583 3.08141 0
M  V30 3061 H 298.723 5.46461 3.62023 0
M  V30 3062 H 298.243 3.98508 4.48276 0
M  V30 3063 H 299.922 4.57176 4.5782 0
M  V30 3064 N 300.054 -1.07777 1.14986 0
M  V30 3065 C 301.002 -2.16964 0.838406 0
M  V30 3066 C 301.996 -1.68372 -0.186386 0
M  V30 3067 O 303.202 -1.79951 -0.0418465 0
M  V30 3068 H 299.577 -0.708006 0.253439 0
M  V30 3069 H 301.548 -2.40454 1.76704 0
M  V30 3070 C 300.297 -3.4604 0.339335 0
M  V30 3071 H 299.62 -3.83813 1.11927 0
M  V30 3072 H 301.06 -4.23698 0.160021 0
M  V30 3073 C 299.519 -3.23569 -0.938325 0
M  V30 3074 O 300.049 -3.47752 -2.01077 0
M  V30 3075 N 298.255 -2.77079 -0.876117 0
M  V30 3076 H 297.802 -2.576 -0.00322037 0
M  V30 3077 H 297.76 -2.62422 -1.73153 0
M  V30 3078 N 301.532 -0.945985 -1.26051 0
M  V30 3079 C 302.462 -0.477172 -2.28572 0
M  V30 3080 C 303.443 0.472032 -1.63419 0
M  V30 3081 O 304.628 0.372853 -1.90587 0
M  V30 3082 C 301.758 0.253975 -3.4637 0
M  V30 3083 C 300.712 -0.609135 -4.23643 0
M  V30 3084 C 300.038 0.252252 -5.34105 0
M  V30 3085 C 301.338 -1.8829 -4.8718 0
M  V30 3086 H 303.032 -1.33402 -2.68038 0
M  V30 3087 H 300.578 -0.642904 -1.28852 0
M  V30 3088 H 302.531 0.593016 -4.17207 0
M  V30 3089 H 301.255 1.145 -3.05871 0
M  V30 3090 H 299.914 -0.931138 -3.54578 0
M  V30 3091 H 299.562 1.14278 -4.89846 0
M  V30 3092 H 299.262 -0.32188 -5.86718 0
M  V30 3093 H 300.786 0.586454 -6.07777 0
M  V30 3094 H 302.2 -1.61081 -5.50205 0
M  V30 3095 H 300.597 -2.40199 -5.49931 0
M  V30 3096 H 301.667 -2.59134 -4.09851 0
M  V30 3097 N 303.011 1.40521 -0.713556 0
M  V30 3098 C 304.288 1.94775 -0.17943 0
M  V30 3099 C 304.668 1.65184 1.31444 0
M  V30 3100 O 304.016 0.968429 2.06963 0
M  V30 3101 C 304.226 3.45543 -0.489986 0
M  V30 3102 C 305.574 4.22442 -0.427536 0
M  V30 3103 O 306.598 3.53644 -0.425929 0
M  V30 3104 O 305.457 5.4501 -0.403292 0
M  V30 3105 H 302.551 0.826606 -0.0255192 0
M  V30 3106 H 305.097 1.5014 -0.790949 0
M  V30 3107 H 303.869 3.60432 -1.5233 0
M  V30 3108 H 303.492 3.97311 0.151598 0
M  V30 3109 N 304.489 0.459591 1.5075 0
M  V30 3110 C 305.735 -0.091664 2.03193 0
M  V30 3111 C 306.09 -1.38432 1.3362 0
M  V30 3112 O 305.383 -1.86257 0.449322 0
M  V30 3113 C 305.577 -0.342866 3.55752 0
M  V30 3114 C 305.406 0.923888 4.40107 0
M  V30 3115 C 304.176 1.46388 4.83631 0
M  V30 3116 C 306.374 1.81617 4.81165 0
M  V30 3117 N 304.356 2.68086 5.52271 0
M  V30 3118 C 305.727 2.87907 5.49099 0
M  V30 3119 C 307.782 1.82793 4.63132 0
M  V30 3120 C 306.485 3.95347 6.0091 0
M  V30 3121 C 308.511 2.89182 5.15876 0
M  V30 3122 C 307.873 3.94191 5.83774 0
M  V30 3123 H 303.972 0.00619247 0.781975 0
M  V30 3124 H 306.556 0.625233 1.84388 0
M  V30 3125 H 304.727 -1.0288 3.74527 0
M  V30 3126 H 306.459 -0.887445 3.9485 0
M  V30 3127 H 303.214 1.01466 4.62603 0
M  V30 3128 H 303.638 3.29857 5.91205 0
M  V30 3129 H 308.28 1.0293 4.1008 0
M  V30 3130 H 305.998 4.76035 6.53006 0
M  V30 3131 H 309.584 2.91061 5.0376 0
M  V30 3132 H 308.464 4.75161 6.23853 0
M  V30 3133 N 305.967 -1.56429 0.191757 0
M  V30 3134 C 307.244 -1.89224 -0.495332 0
M  V30 3135 C 307.624 -1.10478 -1.79883 0
M  V30 3136 O 306.972 -0.204852 -2.2758 0
M  V30 3137 C 307.182 -3.41548 -0.717367 0
M  V30 3138 C 308.53 -4.11711 -1.03823 0
M  V30 3139 O 309.554 -3.4698 -0.805204 0
M  V30 3140 O 308.413 -5.2611 -1.47887 0
M  V30 3141 H 305.507 -0.785788 -0.25781 0
M  V30 3142 H 308.053 -1.68111 0.231721 0
M  V30 3143 H 306.825 -3.90772 0.203287 0
M  V30 3144 H 306.448 -3.68342 -1.497 0
M  V30 3145 N 307.445 0.0818655 -1.57387 0
M  V30 3146 C 308.691 0.784074 -1.8703 0
M  V30 3147 C 309.024 1.77729 -0.782689 0
M  V30 3148 O 308.299 1.93384 0.208051 0
M  V30 3149 C 308.582 1.50105 -3.27323 0
M  V30 3150 C 308.435 0.524925 -4.46727 0
M  V30 3151 C 309.754 2.44843 -3.65705 0
M  V30 3152 H 306.873 0.283582 -0.680257 0
M  V30 3153 H 309.515 0.0474352 -1.89941 0
M  V30 3154 H 307.665 2.12897 -3.24972 0
M  V30 3155 H 309.337 -0.0970111 -4.61198 0
M  V30 3156 H 307.58 -0.160606 -4.33503 0
M  V30 3157 H 308.251 1.064 -5.41648 0
M  V30 3158 H 310.727 1.92135 -3.69085 0
M  V30 3159 H 309.603 2.92018 -4.64776 0
M  V30 3160 H 309.864 3.29197 -2.95096 0
M  V30 3161 N 308.923 1.53595 0.353017 0
M  V30 3162 C 310.172 1.69603 1.09168 0
M  V30 3163 C 310.485 0.460925 1.90092 0
M  V30 3164 O 311.691 0.501774 2.66823 0
M  V30 3165 C 310.147 2.99872 1.9901 0
M  V30 3166 C 309.755 4.30687 1.23339 0
M  V30 3167 C 311.499 3.25246 2.72792 0
M  V30 3168 C 309.406 5.52036 2.12156 0
M  V30 3169 H 308.336 0.631966 0.411261 0
M  V30 3170 H 310.987 1.80096 0.351802 0
M  V30 3171 H 309.369 2.83212 2.7678 0
M  V30 3172 H 310.543 4.58019 0.505456 0
M  V30 3173 H 308.858 4.11853 0.613663 0
M  V30 3174 H 311.455 4.13095 3.39495 0
M  V30 3175 H 311.798 2.41846 3.38846 0
M  V30 3176 H 312.331 3.42638 2.021 0
M  V30 3177 H 309.07 6.37951 1.50659 0
M  V30 3178 H 308.59 5.28966 2.82764 0
M  V30 3179 H 310.269 5.87313 2.71427 0
M  V30 3180 N 310.401 -0.613514 1.45168 0
M  V30 3181 C 311.817 -0.933629 1.29443 0
M  V30 3182 C 312.017 -2.00028 0.243101 0
M  V30 3183 O 311.073 -2.49848 -0.364992 0
M  V30 3184 C 312.386 -1.38018 2.67155 0
M  V30 3185 C 313.934 -1.49471 2.75004 0
M  V30 3186 C 314.409 -1.97503 4.13227 0
M  V30 3187 N 315.9 -2.04746 4.15491 0
M  V30 3188 C 316.635 -2.43121 5.19307 0
M  V30 3189 N 316.131 -2.80506 6.33473 0
M  V30 3190 N 317.924 -2.43408 5.06664 0
M  V30 3191 H 310.075 0.0916097 2.12202 0
M  V30 3192 H 312.338 -0.0216655 0.947752 0
M  V30 3193 H 312.044 -0.670625 3.45247 0
M  V30 3194 H 311.918 -2.34784 2.95222 0
M  V30 3195 H 314.305 -2.19519 1.9722 0
M  V30 3196 H 314.386 -0.510342 2.50657 0
M  V30 3197 H 314.03 -1.28045 4.91495 0
M  V30 3198 H 313.96 -2.96843 4.34962 0
M  V30 3199 H 316.451 -1.78468 3.33103 0
M  V30 3200 H 316.764 -3.08652 7.08487 0
M  V30 3201 H 315.109 -2.78216 6.36884 0
M  V30 3202 H 318.3 -2.13604 4.16523 0
M  V30 3203 H 318.473 -2.72989 5.87691 0
M  V30 3204 N 311.879 -1.3236 -0.855495 0
M  V30 3205 C 313.156 -1.13491 -1.59309 0
M  V30 3206 C 313.536 0.30503 -2.08885 0
M  V30 3207 O 312.884 1.30151 -1.87811 0
M  V30 3208 C 313.094 -2.16176 -2.73987 0
M  V30 3209 C 314.442 -2.49463 -3.43589 0
M  V30 3210 O 315.466 -2.14715 -2.84211 0
M  V30 3211 O 314.325 -3.09027 -4.50738 0
M  V30 3212 H 311.419 -0.437887 -0.701559 0
M  V30 3213 H 313.965 -1.43887 -0.899696 0
M  V30 3214 H 312.737 -3.1297 -2.34873 0
M  V30 3215 H 312.36 -1.86769 -3.51003 0
M  V30 3216 N 313.357 1.07166 -1.15556 0
M  V30 3217 C 314.304 2.14417 -0.854055 0
M  V30 3218 C 315.274 1.64965 0.193806 0
M  V30 3219 O 316.459 1.90703 0.0609443 0
M  V30 3220 C 313.599 3.43304 -0.351574 0
M  V30 3221 C 312.712 4.06537 -1.46123 0
M  V30 3222 C 311.847 5.23266 -0.914677 0
M  V30 3223 C 310.886 5.78464 -2.00114 0
M  V30 3224 N 310.023 6.86521 -1.47083 0
M  V30 3225 H 314.863 2.39548 -1.77259 0
M  V30 3226 H 312.4 1.17543 -0.884425 0
M  V30 3227 H 314.358 4.17179 -0.0419409 0
M  V30 3228 H 312.988 3.18419 0.530037 0
M  V30 3229 H 312.04 3.30297 -1.88701 0
M  V30 3230 H 313.352 4.43567 -2.28144 0
M  V30 3231 H 312.506 6.04131 -0.557698 0
M  V30 3232 H 311.245 4.87658 -0.0636583 0
M  V30 3233 H 310.25 4.96243 -2.36692 0
M  V30 3234 H 311.475 6.16126 -2.85597 0
M  V30 3235 H 309.421 6.52849 -0.642198 0
M  V30 3236 H 309.338 7.22446 -2.22729 0
M  V30 3237 H 310.606 7.71087 -1.14215 0
M  V30 3238 N 314.835 0.952656 1.25548 0
M  V30 3239 C 316.063 0.623496 1.97282 0
M  V30 3240 C 316.478 -0.803987 1.70826 0
M  V30 3241 O 315.835 -1.53755 0.983147 0
M  V30 3242 C 315.886 0.870209 3.5087 0
M  V30 3243 O 315.607 2.24156 3.76412 0
M  V30 3244 C 317.108 0.553164 4.39835 0
M  V30 3245 H 314.328 0.233931 0.628902 0
M  V30 3246 H 316.872 1.27649 1.59768 0
M  V30 3247 H 315.027 0.263652 3.86502 0
M  V30 3248 H 315.441 2.31021 4.70882 0
M  V30 3249 H 316.915 0.776342 5.46513 0
M  V30 3250 H 317.392 -0.512215 4.36203 0
M  V30 3251 H 317.998 1.13896 4.09766 0
M  V30 3252 N 316.313 -1.40141 0.720998 0
M  V30 3253 C 317.26 -2.30688 0.071919 0
M  V30 3254 C 318.23 -1.48476 -0.744584 0
M  V30 3255 O 319.415 -1.77201 -0.707423 0
M  V30 3256 C 316.555 -3.34724 -0.839855 0
M  V30 3257 C 315.668 -4.31998 -0.0122438 0
M  V30 3258 C 314.803 -5.23102 -0.923995 0
M  V30 3259 C 313.842 -6.12033 -0.0907969 0
M  V30 3260 N 312.979 -6.95537 -0.957718 0
M  V30 3261 H 317.819 -2.85628 0.849755 0
M  V30 3262 H 315.356 -1.40653 0.430726 0
M  V30 3263 H 317.314 -3.93618 -1.38279 0
M  V30 3264 H 315.944 -2.81274 -1.58381 0
M  V30 3265 H 314.996 -3.74841 0.64794 0
M  V30 3266 H 316.308 -4.94772 0.632595 0
M  V30 3267 H 315.462 -5.86953 -1.53527 0
M  V30 3268 H 314.201 -4.60615 -1.60264 0
M  V30 3269 H 313.206 -5.47207 0.533377 0
M  V30 3270 H 314.431 -6.76581 0.584428 0
M  V30 3271 H 312.377 -6.35633 -1.62192 0
M  V30 3272 H 312.294 -7.55099 -0.36904 0
M  V30 3273 H 313.562 -7.63832 -1.555 0
M  V30 3274 N 317.792 -0.46758 -1.50504 0
M  V30 3275 C 319.02 0.0864133 -2.06719 0
M  V30 3276 C 319.435 1.33819 -1.33184 0
M  V30 3277 O 318.792 1.78061 -0.400083 0
M  V30 3278 C 318.843 0.378079 -3.59517 0
M  V30 3279 O 318.564 -0.824044 -4.3028 0
M  V30 3280 C 320.065 0.979426 -4.32345 0
M  V30 3281 H 317.285 -0.00551697 -0.670977 0
M  V30 3282 H 319.829 -0.655354 -1.93715 0
M  V30 3283 H 317.984 1.06977 -3.72337 0
M  V30 3284 H 318.398 -0.566518 -5.21432 0
M  V30 3285 H 319.872 1.1333 -5.40241 0
M  V30 3286 H 320.349 1.9686 -3.9261 0
M  V30 3287 H 320.955 0.326216 -4.24047 0
M  V30 3288 N 319.27 1.56325 -0.20005 0
M  V30 3289 C 320.217 2.1932 0.718833 0
M  V30 3290 C 321.187 1.14198 1.20615 0
M  V30 3291 O 322.372 1.42469 1.26914 0
M  V30 3292 C 319.512 2.86041 1.93066 0
M  V30 3293 C 318.625 4.05702 1.48425 0
M  V30 3294 C 317.76 4.60266 2.65196 0
M  V30 3295 C 316.799 5.72273 2.17185 0
M  V30 3296 N 315.936 6.21221 3.27152 0
M  V30 3297 H 320.776 2.97486 0.17489 0
M  V30 3298 H 318.313 1.46911 0.0745794 0
M  V30 3299 H 320.271 3.22897 2.64184 0
M  V30 3300 H 318.901 2.1043 2.44783 0
M  V30 3301 H 317.953 3.74475 0.668755 0
M  V30 3302 H 319.265 4.86699 1.09204 0
M  V30 3303 H 318.419 4.99453 3.4443 0
M  V30 3304 H 317.158 3.78386 3.07693 0
M  V30 3305 H 316.163 5.3261 1.36407 0
M  V30 3306 H 317.388 6.55974 1.75713 0
M  V30 3307 H 315.334 5.42263 3.69171 0
M  V30 3308 H 315.251 6.97284 2.92116 0
M  V30 3309 H 316.519 6.65063 4.06585 0
M  V30 3310 N 320.748 -0.0735177 1.57428 0
M  V30 3311 C 321.997 -0.771809 1.86349 0
M  V30 3312 C 322.31 -1.78828 0.792452 0
M  V30 3313 O 323.516 -2.53602 0.96945 0
M  V30 3314 C 321.972 -1.42358 3.30548 0
M  V30 3315 C 321.58 -0.445761 4.45777 0
M  V30 3316 C 323.324 -2.10434 3.6867 0
M  V30 3317 C 321.231 -1.10335 5.81016 0
M  V30 3318 H 320.161 -0.291999 0.695164 0
M  V30 3319 H 322.812 -0.0250749 1.83483 0
M  V30 3320 H 321.194 -2.21852 3.28021 0
M  V30 3321 H 322.368 0.319239 4.59693 0
M  V30 3322 H 320.683 0.130457 4.16196 0
M  V30 3323 H 323.28 -2.60405 4.67004 0
M  V30 3324 H 323.623 -2.90298 2.98383 0
M  V30 3325 H 324.156 -1.37773 3.7318 0
M  V30 3326 H 320.895 -0.345061 6.54591 0
M  V30 3327 H 320.415 -1.83925 5.70904 0
M  V30 3328 H 322.094 -1.62367 6.26295 0
M  V30 3329 N 322.226 -1.5378 -0.344866 0
M  V30 3330 C 323.136 -1.84667 -1.4469 0
M  V30 3331 C 324.152 -0.736704 -1.57635 0
M  V30 3332 O 325.328 -1.02888 -1.73136 0
M  V30 3333 C 322.393 -2.04869 -2.79696 0
M  V30 3334 C 321.454 -3.28731 -2.76106 0
M  V30 3335 C 320.687 -3.4796 -4.04673 0
M  V30 3336 O 320.91 -2.71052 -5.01883 0
M  V30 3337 O 319.844 -4.41383 -4.09224 0
M  V30 3338 H 323.67 -2.78334 -1.21506 0
M  V30 3339 H 321.255 -1.39418 -0.536921 0
M  V30 3340 H 323.137 -2.19609 -3.59652 0
M  V30 3341 H 321.812 -1.14391 -3.02814 0
M  V30 3342 H 320.719 -3.19396 -1.94774 0
M  V30 3343 H 322.052 -4.19198 -2.57941 0
M  V30 3344 N 323.704 0.605807 -1.45491 0
M  V30 3345 C 324.929 1.39625 -1.53361 0
M  V30 3346 C 325.354 1.87351 -0.167645 0
M  V30 3347 O 324.712 1.60243 0.848051 0
M  V30 3348 C 324.76 2.57559 -2.5238 0
M  V30 3349 O 323.864 3.58248 -2.04285 0
M  V30 3350 H 323.205 0.416771 -0.516912 0
M  V30 3351 H 325.735 0.737103 -1.90861 0
M  V30 3352 H 325.745 3.0478 -2.71244 0
M  V30 3353 H 324.42 2.22171 -3.51586 0
M  V30 3354 H 322.997 3.17664 -1.95305 0
M  V30 3355 N 325.182 1.32811 0.848464 0
M  V30 3356 C 326.112 1.24882 1.97299 0
M  V30 3357 C 327.093 0.131357 1.69592 0
M  V30 3358 O 328.278 0.319553 1.91553 0
M  V30 3359 C 325.408 0.97746 3.33261 0
M  V30 3360 C 324.362 2.05682 3.75338 0
M  V30 3361 C 323.688 1.63777 5.09 0
M  V30 3362 C 324.988 3.47254 3.90144 0
M  V30 3363 H 326.682 2.18966 2.04191 0
M  V30 3364 H 324.228 1.05413 0.981029 0
M  V30 3365 H 326.181 0.908513 4.1149 0
M  V30 3366 H 324.905 0.000980011 3.266 0
M  V30 3367 H 323.564 2.11603 2.99366 0
M  V30 3368 H 323.212 0.648569 4.98801 0
M  V30 3369 H 322.912 2.36 5.38124 0
M  V30 3370 H 324.436 1.5833 5.89715 0
M  V30 3371 H 325.85 3.43888 4.58709 0
M  V30 3372 H 324.247 4.1788 4.30693 0
M  V30 3373 H 325.317 3.86462 2.92874 0
M  V30 3374 N 326.66 -1.06551 1.16123 0
M  V30 3375 C 327.607 -2.13961 0.865414 0
M  V30 3376 C 328.577 -1.65066 -0.185055 0
M  V30 3377 O 329.762 -1.90732 -0.05083 0
M  V30 3378 C 326.902 -3.43113 0.369776 0
M  V30 3379 C 326.015 -4.05756 1.48276 0
M  V30 3380 C 325.15 -5.22773 0.942414 0
M  V30 3381 C 324.189 -5.77395 2.03179 0
M  V30 3382 N 323.326 -6.85731 1.50721 0
M  V30 3383 H 328.166 -2.38605 1.78527 0
M  V30 3384 H 325.703 -1.17072 0.890646 0
M  V30 3385 H 327.661 -4.17151 0.0640643 0
M  V30 3386 H 326.291 -3.18695 -0.513143 0
M  V30 3387 H 325.343 -3.29292 1.9045 0
M  V30 3388 H 326.655 -4.42351 2.30493 0
M  V30 3389 H 325.809 -6.03827 0.589729 0
M  V30 3390 H 324.548 -4.87618 0.0895191 0
M  V30 3391 H 323.553 -4.94981 2.3932 0
M  V30 3392 H 324.778 -6.14603 2.8886 0
M  V30 3393 H 322.724 -6.52499 0.676811 0
M  V30 3394 H 322.641 -7.21254 2.26557 0
M  V30 3395 H 323.909 -7.7047 1.18303 0
M  V30 3396 N 328.138 -0.959301 -1.25041 0
M  V30 3397 C 329.048 -0.489994 -2.29426 0
M  V30 3398 C 330.064 0.444944 -1.68215 0
M  V30 3399 O 331.24 0.320046 -1.98841 0
M  V30 3400 C 328.305 0.220309 -3.45999 0
M  V30 3401 C 327.366 -0.753418 -4.22637 0
M  V30 3402 C 326.599 -0.076918 -5.33645 0
M  V30 3403 O 326.822 1.13649 -5.58963 0
M  V30 3404 O 325.756 -0.764824 -5.97021 0
M  V30 3405 H 329.582 -1.35755 -2.71669 0
M  V30 3406 H 327.167 -0.725961 -1.30576 0
M  V30 3407 H 329.049 0.619677 -4.16819 0
M  V30 3408 H 327.724 1.06296 -3.0575 0
M  V30 3409 H 326.631 -1.20308 -3.54227 0
M  V30 3410 H 327.964 -1.56423 -4.66683 0
M  V30 3411 N 329.616 1.39756 -0.72842 0
M  V30 3412 C 330.566 2.2792 -0.0603424 0
M  V30 3413 C 331.55 1.43922 0.719399 0
M  V30 3414 O 332.742 1.66895 0.589489 0
M  V30 3415 C 329.871 3.32582 0.851104 0
M  V30 3416 C 328.957 4.24049 0.0658641 0
M  V30 3417 N 329.348 4.96653 -0.957578 0
M  V30 3418 C 327.646 4.45013 0.296509 0
M  V30 3419 C 328.347 5.63836 -1.43052 0
M  V30 3420 N 327.323 5.38397 -0.750315 0
M  V30 3421 H 331.125 2.81504 -0.84455 0
M  V30 3422 H 328.639 1.5236 -0.562155 0
M  V30 3423 H 330.636 3.94603 1.34514 0
M  V30 3424 H 329.296 2.80558 1.63454 0
M  V30 3425 H 330.307 5.00297 -1.33877 0
M  V30 3426 H 326.984 4.03943 1.05527 0
M  V30 3427 H 328.374 6.31974 -2.28163 0
M  V30 3428 N 331.094 0.475555 1.50254 0
M  V30 3429 C 332.342 -0.077738 2.0195 0
M  V30 3430 C 332.663 -1.39813 1.35931 0
M  V30 3431 O 331.933 -1.89249 0.506123 0
M  V30 3432 H 330.513 -0.031719 0.746326 0
M  V30 3433 H 333.175 0.626995 1.84539 0
M  V30 3434 H 332.271 -0.225995 3.11281 0
M  V30 3435 N 332.573 -1.56217 0.208337 0
M  V30 3436 C 333.984 -1.84243 -0.301904 0
M  V30 3437 C 334.335 -1.12939 -1.60434 0
M  V30 3438 O 333.46 -0.39461 -2.12772 0
M  V30 3439 C 334.055 -3.34231 -0.554543 0
M  V30 3440 C 332.614 -3.62621 -1.00912 0
M  V30 3441 C 331.761 -2.77224 -0.064933 0
M  V30 3442 H 334.712 -1.52712 0.431833 0
M  V30 3443 H 334.733 -3.5372 -1.40223 0
M  V30 3444 H 334.245 -3.86099 0.393561 0
M  V30 3445 H 332.346 -3.16197 -1.97104 0
M  V30 3446 H 332.459 -4.7071 -0.892674 0
M  V30 3447 H 330.823 -2.48256 -0.56929 0
M  V30 3448 H 331.606 -3.31887 0.877851 0
M  V30 3449 N 334.051 0.0651679 -1.57465 0
M  V30 3450 C 335.3 0.761916 -1.86756 0
M  V30 3451 C 335.613 1.78406 -0.801925 0
M  V30 3452 O 336.819 2.53084 -0.982885 0
M  V30 3453 C 335.275 1.40603 -3.31299 0
M  V30 3454 C 334.883 0.422115 -4.46007 0
M  V30 3455 C 336.627 2.08476 -3.69781 0
M  V30 3456 C 334.534 1.07252 -5.81593 0
M  V30 3457 H 333.464 0.288308 -0.696702 0
M  V30 3458 H 336.115 0.015344 -1.83494 0
M  V30 3459 H 334.497 2.20109 -3.29193 0
M  V30 3460 H 335.671 -0.343613 -4.59517 0
M  V30 3461 H 333.986 -0.152527 -4.16121 0
M  V30 3462 H 336.583 2.57925 -4.68379 0
M  V30 3463 H 336.926 2.88712 -2.99919 0
M  V30 3464 H 337.459 1.35792 -3.73905 0
M  V30 3465 H 334.198 0.310342 -6.54765 0
M  V30 3466 H 333.718 1.80895 -5.71872 0
M  V30 3467 H 335.397 1.59043 -6.27148 0
M  V30 3468 N 335.529 1.53961 0.336706 0
M  V30 3469 C 336.476 1.82428 1.41381 0
M  V30 3470 C 337.446 0.670444 1.51968 0
M  V30 3471 O 338.631 0.915565 1.67398 0
M  V30 3472 C 335.771 2.04564 2.77934 0
M  V30 3473 C 334.884 3.32267 2.76084 0
M  V30 3474 C 334.019 3.44434 4.04399 0
M  V30 3475 C 333.058 4.66061 3.96804 0
M  V30 3476 N 332.195 4.75224 5.16823 0
M  V30 3477 H 337.035 2.74324 1.16405 0
M  V30 3478 H 334.572 1.35869 0.563752 0
M  V30 3479 H 336.53 2.15388 3.57301 0
M  V30 3480 H 335.16 1.15974 3.01247 0
M  V30 3481 H 334.212 3.3025 1.88784 0
M  V30 3482 H 335.524 4.21733 2.66351 0
M  V30 3483 H 334.678 3.54728 4.92192 0
M  V30 3484 H 333.417 2.53037 4.16921 0
M  V30 3485 H 332.422 4.55838 3.07396 0
M  V30 3486 H 333.647 5.58829 3.85858 0
M  V30 3487 H 331.593 3.86739 5.29876 0
M  V30 3488 H 331.51 5.58636 5.09374 0
M  V30 3489 H 332.778 4.89835 6.06367 0
M  V30 3490 N 337.007 -0.598083 1.45811 0
M  V30 3491 C 337.955 -1.72932 1.55555 0
M  V30 3492 C 338.949 -1.63984 0.424921 0
M  V30 3493 O 340.155 -1.69663 0.601205 0
M  V30 3494 H 336.53 -0.571489 0.488779 0
M  V30 3495 H 338.501 -1.61842 2.50699 0
M  V30 3496 C 337.25 -3.11318 1.54843 0
M  V30 3497 H 336.573 -3.18867 2.41172 0
M  V30 3498 H 338.013 -3.90274 1.65717 0
M  V30 3499 C 336.472 -3.3578 0.274427 0
M  V30 3500 O 337.002 -3.9654 -0.641778 0
M  V30 3501 N 335.208 -2.90119 0.167139 0
M  V30 3502 H 334.755 -2.40855 0.913596 0
M  V30 3503 H 334.713 -3.0686 -0.684435 0
M  V30 3504 N 338.485 -1.33259 -0.841409 0
M  V30 3505 C 339.432 -1.23302 -1.95103 0
M  V30 3506 C 340.402 -0.112204 -1.65721 0
M  V30 3507 O 341.587 -0.290038 -1.88583 0
M  V30 3508 C 338.727 -0.975583 -3.31023 0
M  V30 3509 C 337.84 -2.18243 -3.72819 0
M  V30 3510 C 336.975 -1.85936 -4.97595 0
M  V30 3511 C 336.014 -3.02866 -5.3192 0
M  V30 3512 N 335.151 -2.70565 -6.47873 0
M  V30 3513 H 339.991 -2.18207 -2.02952 0
M  V30 3514 H 337.528 -1.0851 -0.993173 0
M  V30 3515 H 339.486 -0.80677 -4.09325 0
M  V30 3516 H 338.116 -0.0632755 -3.22738 0
M  V30 3517 H 337.168 -2.46107 -2.90061 0
M  V30 3518 H 338.48 -3.05666 -3.94169 0
M  V30 3519 H 337.634 -1.65684 -5.83638 0
M  V30 3520 H 336.373 -0.957452 -4.78209 0
M  V30 3521 H 335.378 -3.23736 -4.44382 0
M  V30 3522 H 336.603 -3.93809 -5.53255 0
M  V30 3523 H 334.549 -1.8293 -6.29978 0
M  V30 3524 H 334.466 -3.51519 -6.69306 0
M  V30 3525 H 335.734 -2.53774 -7.37034 0
M  V30 3526 N 339.963 1.05934 -1.16686 0
M  V30 3527 C 340.896 2.1295 -0.820225 0
M  V30 3528 C 341.874 1.61242 0.209722 0
M  V30 3529 O 343.058 1.88271 0.0929688 0
M  V30 3530 C 340.185 3.3797 -0.22223 0
M  V30 3531 C 339.231 4.08488 -1.22637 0
M  V30 3532 S 340.064 4.58015 -2.77457 0
M  V30 3533 C 341.22 5.86292 -2.19117 0
M  V30 3534 H 341.453 2.42025 -1.72659 0
M  V30 3535 H 338.986 1.18423 -0.990722 0
M  V30 3536 H 340.944 4.10335 0.116322 0
M  V30 3537 H 339.605 3.07045 0.66196 0
M  V30 3538 H 338.798 4.98291 -0.756455 0
M  V30 3539 H 338.4 3.42154 -1.51019 0
M  V30 3540 H 340.692 6.59246 -1.56209 0
M  V30 3541 H 341.635 6.38019 -3.07144 0
M  V30 3542 H 342.043 5.40497 -1.62858 0
M  V30 3543 N 341.441 0.965919 1.2453 0
M  V30 3544 C 342.666 0.643971 1.97149 0
M  V30 3545 C 343.091 -0.779487 1.71189 0
M  V30 3546 O 342.449 -1.5288 0.974553 0
M  V30 3547 C 342.497 0.922557 3.48599 0
M  V30 3548 O 341.601 0.00707672 4.12399 0
M  V30 3549 H 340.942 0.243647 0.617683 0
M  V30 3550 H 343.472 1.29558 1.58353 0
M  V30 3551 H 343.482 0.853373 3.98976 0
M  V30 3552 H 342.157 1.95996 3.66822 0
M  V30 3553 H 340.734 0.12943 3.72675 0
M  V30 3554 N 342.919 -1.39368 0.735821 0
M  V30 3555 C 343.829 -2.34395 0.0979693 0
M  V30 3556 C 344.845 -1.58361 -0.720968 0
M  V30 3557 O 346.021 -1.90648 -0.649245 0
M  V30 3558 C 343.086 -3.37393 -0.797916 0
M  V30 3559 C 342.147 -4.29287 0.0333662 0
M  V30 3560 C 341.38 -5.27365 -0.819854 0
M  V30 3561 O 341.603 -5.31959 -2.05855 0
M  V30 3562 O 340.537 -6.01389 -0.248079 0
M  V30 3563 H 344.363 -2.90601 0.882315 0
M  V30 3564 H 341.948 -1.40909 0.4965 0
M  V30 3565 H 343.83 -4.00505 -1.31048 0
M  V30 3566 H 342.505 -2.83571 -1.56106 0
M  V30 3567 H 341.412 -3.69395 0.591475 0
M  V30 3568 H 342.745 -4.86317 0.758752 0
M  V30 3569 N 344.397 -0.483516 -1.5 0
M  V30 3570 C 345.622 0.0667119 -2.07293 0
M  V30 3571 C 346.047 1.3164 -1.3436 0
M  V30 3572 O 345.405 1.76945 -0.394987 0
M  V30 3573 C 345.453 0.321126 -3.59167 0
M  V30 3574 O 344.557 1.39927 -3.87936 0
M  V30 3575 H 343.898 -0.0184758 -0.663743 0
M  V30 3576 H 346.428 -0.678125 -1.93035 0
M  V30 3577 H 346.438 0.557906 -4.04168 0
M  V30 3578 H 345.113 -0.592007 -4.11665 0
M  V30 3579 H 343.69 1.14882 -3.54763 0
M  V30 3580 N 345.875 1.56104 -0.216619 0
M  V30 3581 C 347.286 1.844 0.292128 0
M  V30 3582 C 347.637 1.13788 1.59833 0
M  V30 3583 O 346.762 0.405888 2.12559 0
M  V30 3584 C 347.357 3.3452 0.53681 0
M  V30 3585 C 345.916 3.63151 0.989876 0
M  V30 3586 C 345.063 2.77255 0.0502302 0
M  V30 3587 H 348.014 1.52481 -0.439926 0
M  V30 3588 H 348.035 3.54459 1.38345 0
M  V30 3589 H 347.547 3.85885 -0.414031 0
M  V30 3590 H 345.648 3.17238 1.95425 0
M  V30 3591 H 345.761 4.71177 0.867698 0
M  V30 3592 H 344.125 2.48555 0.556117 0
M  V30 3593 H 344.908 3.31416 -0.89544 0
M  V30 3594 N 347.353 -0.0568162 1.57498 0
M  V30 3595 C 348.301 -1.08452 2.05769 0
M  V30 3596 C 349.295 -1.39164 0.965903 0
M  V30 3597 O 350.501 -1.38395 1.15095 0
M  V30 3598 H 346.876 -0.367148 0.656282 0
M  V30 3599 H 348.847 -0.651368 2.91204 0
M  V30 3600 C 347.596 -2.38543 2.52968 0
M  V30 3601 H 346.919 -2.15765 3.36579 0
M  V30 3602 H 348.359 -3.08863 2.90481 0
M  V30 3603 C 346.818 -3.05562 1.41893 0
M  V30 3604 O 347.348 -3.94262 0.769442 0
M  V30 3605 N 345.554 -2.6643 1.16032 0
M  V30 3606 H 345.101 -1.94387 1.6903 0
M  V30 3607 H 345.059 -3.11593 0.419219 0
M  V30 3608 N 348.832 -1.54138 -0.328536 0
M  V30 3609 C 349.779 -1.83176 -1.40411 0
M  V30 3610 C 350.749 -0.678494 -1.5161 0
M  V30 3611 O 351.934 -0.92443 -1.6691 0
M  V30 3612 C 349.074 -2.06035 -2.76846 0
M  V30 3613 C 348.187 -3.33727 -2.74318 0
M  V30 3614 C 347.322 -3.46574 -4.02567 0
M  V30 3615 C 346.361 -4.68159 -3.94327 0
M  V30 3616 N 345.498 -4.77959 -5.14296 0
M  V30 3617 H 350.338 -2.74938 -1.14948 0
M  V30 3618 H 347.875 -1.36166 -0.556538 0
M  V30 3619 H 349.833 -2.1728 -3.56153 0
M  V30 3620 H 348.463 -1.1757 -3.00628 0
M  V30 3621 H 347.515 -3.31246 -1.8703 0
M  V30 3622 H 348.827 -4.23139 -2.64111 0
M  V30 3623 H 347.981 -3.57333 -4.90304 0
M  V30 3624 H 346.72 -2.55245 -4.15574 0
M  V30 3625 H 345.725 -4.57461 -3.04974 0
M  V30 3626 H 346.95 -5.60868 -3.82889 0
M  V30 3627 H 344.896 -3.89544 -5.27818 0
M  V30 3628 H 344.813 -5.6133 -5.06404 0
M  V30 3629 H 346.081 -4.93044 -6.03761 0
M  V30 3630 N 350.31 0.590341 -1.46126 0
M  V30 3631 C 351.538 1.37504 -1.54597 0
M  V30 3632 C 351.953 1.87897 -0.184447 0
M  V30 3633 O 351.31 1.63192 0.816984 0
M  V30 3634 C 351.361 2.56779 -2.54454 0
M  V30 3635 O 351.082 2.08476 -3.85317 0
M  V30 3636 C 352.583 3.49427 -2.72792 0
M  V30 3637 H 349.803 0.420325 -0.523037 0
M  V30 3638 H 352.347 0.718383 -1.91467 0
M  V30 3639 H 350.502 3.1845 -2.20609 0
M  V30 3640 H 350.916 2.86097 -4.396 0
M  V30 3641 H 352.39 4.29619 -3.466 0
M  V30 3642 H 352.867 4.00876 -1.79429 0
M  V30 3643 H 353.473 2.93598 -3.07702 0
M  V30 3644 N 351.788 1.33704 0.83433 0
M  V30 3645 C 353.034 1.25603 1.59222 0
M  V30 3646 C 353.367 -0.176659 1.93395 0
M  V30 3647 O 352.642 -1.11915 1.59076 0
M  V30 3648 C 352.925 2.13576 2.89926 0
M  V30 3649 C 352.778 3.65326 2.62406 0
M  V30 3650 C 354.097 2.01238 3.91397 0
M  V30 3651 H 351.216 0.457613 0.577719 0
M  V30 3652 H 353.858 1.63848 0.961972 0
M  V30 3653 H 352.008 1.8109 3.43713 0
M  V30 3654 H 353.68 4.08124 2.15017 0
M  V30 3655 H 351.923 3.8698 1.96033 0
M  V30 3656 H 352.594 4.22232 3.55562 0
M  V30 3657 H 355.07 2.29738 3.46929 0
M  V30 3658 H 353.946 2.65036 4.80673 0
M  V30 3659 H 354.207 0.985951 4.30966 0
M  V30 3660 N 353.266 -1.05314 1.17247 0
M  V30 3661 C 354.491 -1.82509 0.985148 0
M  V30 3662 C 354.916 -1.82343 -0.461788 0
M  V30 3663 O 354.274 -1.23151 -1.33055 0
M  V30 3664 C 354.322 -3.26566 1.52929 0
M  V30 3665 O 353.426 -4.05666 0.742225 0
M  V30 3666 H 352.767 -0.564347 0.349869 0
M  V30 3667 H 355.297 -1.32718 1.55715 0
M  V30 3668 H 355.307 -3.77369 1.55103 0
M  V30 3669 H 353.982 -3.26001 2.58256 0
M  V30 3670 H 352.559 -3.64397 0.791794 0
M  V30 3671 N 354.744 -0.972509 -1.24016 0
M  V30 3672 C 355.654 -0.5143 -2.28893 0
M  V30 3673 C 356.67 0.427078 -1.68677 0
M  V30 3674 O 357.846 0.298939 -1.99169 0
M  V30 3675 C 354.911 0.183598 -3.46214 0
M  V30 3676 C 353.972 -0.798202 -4.21814 0
M  V30 3677 C 353.205 -0.133514 -5.33533 0
M  V30 3678 O 353.428 1.07714 -5.60137 0
M  V30 3679 O 352.362 -0.828103 -5.96176 0
M  V30 3680 H 356.188 -1.38629 -2.70214 0
M  V30 3681 H 353.773 -0.739769 -1.29799 0
M  V30 3682 H 355.655 0.575433 -4.17453 0
M  V30 3683 H 354.33 1.03048 -3.0686 0
M  V30 3684 H 353.237 -1.24059 -3.52931 0
M  V30 3685 H 354.57 -1.61364 -4.64997 0
M  V30 3686 N 356.222 1.38976 -0.743202 0
M  V30 3687 C 357.132 2.3434 -0.110399 0
M  V30 3688 C 358.148 1.58741 0.712559 0
M  V30 3689 O 359.324 1.9099 0.639125 0
M  V30 3690 C 356.389 3.37812 0.780012 0
M  V30 3691 C 355.45 4.29263 -0.0561319 0
M  V30 3692 C 354.683 5.27793 0.791875 0
M  V30 3693 O 354.906 5.33043 2.03031 0
M  V30 3694 O 353.84 6.01512 0.216183 0
M  V30 3695 H 357.666 2.90129 -0.897714 0
M  V30 3696 H 355.251 1.40643 -0.503966 0
M  V30 3697 H 357.133 4.01194 1.28923 0
M  V30 3698 H 355.808 2.84395 1.546 0
M  V30 3699 H 354.715 3.69076 -0.611056 0
M  V30 3700 H 356.048 4.85907 -0.784531 0
M  V30 3701 N 357.7 0.491464 1.49741 0
M  V30 3702 C 358.647 -0.292027 2.28945 0
M  V30 3703 C 359.617 -0.968973 1.34908 0
M  V30 3704 O 360.802 -0.97748 1.6386 0
M  V30 3705 C 357.942 -1.35617 3.17336 0
M  V30 3706 C 357.055 -0.691957 4.26422 0
M  V30 3707 C 356.19 -1.73572 5.02042 0
M  V30 3708 C 355.229 -1.05286 6.02977 0
M  V30 3709 N 354.366 -2.0404 6.71798 0
M  V30 3710 H 359.206 0.389654 2.95442 0
M  V30 3711 H 356.743 0.204003 1.45679 0
M  V30 3712 H 358.701 -1.98502 3.66951 0
M  V30 3713 H 357.331 -2.00674 2.52844 0
M  V30 3714 H 356.383 0.0499523 3.80367 0
M  V30 3715 H 357.695 -0.153946 4.98562 0
M  V30 3716 H 356.849 -2.43987 5.55478 0
M  V30 3717 H 355.588 -2.30757 4.29654 0
M  V30 3718 H 354.593 -0.334446 5.48782 0
M  V30 3719 H 355.818 -0.487636 6.77347 0
M  V30 3720 H 353.764 -2.60205 6.02187 0
M  V30 3721 H 353.681 -1.55279 7.39881 0
M  V30 3722 H 354.949 -2.73772 7.29842 0
M  V30 3723 N 359.178 -1.55987 0.224894 0
M  V30 3724 C 360.141 -2.19178 -0.670348 0
M  V30 3725 C 361.141 -1.15461 -1.11917 0
M  V30 3726 O 362.331 -1.40675 -1.02743 0
M  V30 3727 C 359.463 -2.81777 -1.9187 0
M  V30 3728 H 360.656 -2.99662 -0.119364 0
M  V30 3729 H 358.209 -1.5628 -0.0247128 0
M  V30 3730 H 358.944 -2.05172 -2.51147 0
M  V30 3731 H 358.729 -3.57732 -1.60531 0
M  V30 3732 H 360.219 -3.30205 -2.55645 0
M  V30 3733 N 360.656 0.0484629 -1.57525 0
M  V30 3734 C 361.603 1.05504 -2.05275 0
M  V30 3735 C 362.573 1.37084 -0.937927 0
M  V30 3736 O 363.758 1.47754 -1.2072 0
M  V30 3737 C 360.898 2.35676 -2.52093 0
M  V30 3738 C 360.011 2.10423 -3.77288 0
M  V30 3739 C 359.146 3.34327 -4.12794 0
M  V30 3740 C 358.185 3.04542 -5.30962 0
M  V30 3741 N 357.322 4.20841 -5.61994 0
M  V30 3742 H 362.162 0.640885 -2.91027 0
M  V30 3743 H 359.699 0.304854 -1.43906 0
M  V30 3744 H 361.657 3.11709 -2.77297 0
M  V30 3745 H 360.287 2.7485 -1.69285 0
M  V30 3746 H 359.339 1.24976 -3.59284 0
M  V30 3747 H 360.651 1.84438 -4.63448 0
M  V30 3748 H 359.805 4.1874 -4.39024 0
M  V30 3749 H 358.544 3.63408 -3.25247 0
M  V30 3750 H 357.549 2.18528 -5.04505 0
M  V30 3751 H 358.774 2.76758 -6.20146 0
M  V30 3752 H 356.72 4.4991 -4.77406 0
M  V30 3753 H 356.637 3.98212 -6.42622 0
M  V30 3754 H 357.905 5.06184 -5.92789 0
M  V30 3755 N 362.134 1.5431 0.320358 0
M  V30 3756 C 363.066 1.80262 1.41556 0
M  V30 3757 C 364.079 0.684723 1.477 0
M  V30 3758 O 365.268 0.961886 1.50366 0
M  V30 3759 C 362.368 1.90825 2.8007 0
M  V30 3760 C 361.541 3.21023 2.97091 0
M  V30 3761 C 360.6 3.22247 4.15985 0
M  V30 3762 O 359.626 3.95871 4.08992 0
M  V30 3763 N 360.828 2.46258 5.25678 0
M  V30 3764 H 363.593 2.74778 1.19655 0
M  V30 3765 H 361.154 1.53646 0.510358 0
M  V30 3766 H 363.146 1.89067 3.57821 0
M  V30 3767 H 361.716 1.03392 2.95006 0
M  V30 3768 H 360.936 3.35715 2.06614 0
M  V30 3769 H 362.224 4.0698 3.05361 0
M  V30 3770 H 361.622 1.86037 5.34235 0
M  V30 3771 H 360.179 2.50275 6.01835 0
M  V30 3772 N 363.613 -0.582584 1.46437 0
M  V30 3773 C 364.843 -1.36484 1.55099 0
M  V30 3774 C 365.251 -1.88233 0.191056 0
M  V30 3775 O 364.594 -1.6429 -0.821858 0
M  V30 3776 C 364.656 -2.588 2.49525 0
M  V30 3777 C 364.32 -2.28517 3.95764 0
M  V30 3778 C 365.317 -1.87346 4.84972 0
M  V30 3779 C 363.002 -2.40658 4.40896 0
M  V30 3780 C 364.996 -1.5871 6.17325 0
M  V30 3781 C 362.683 -2.11635 5.73284 0
M  V30 3782 C 363.681 -1.70725 6.61318 0
M  V30 3783 O 363.369 -1.42057 7.91249 0
M  V30 3784 H 363.101 -0.423297 0.527063 0
M  V30 3785 H 365.655 -0.715188 1.92547 0
M  V30 3786 H 363.885 -3.26571 2.07095 0
M  V30 3787 H 365.574 -3.20868 2.48593 0
M  V30 3788 H 366.34 -1.77481 4.5136 0
M  V30 3789 H 362.219 -2.71463 3.72598 0
M  V30 3790 H 365.763 -1.26704 6.85997 0
M  V30 3791 H 361.66 -2.21124 6.06444 0
M  V30 3792 H 362.428 -1.55901 8.03515 0
M  V30 3793 N 365.091 -1.34144 -0.827227 0
M  V30 3794 C 366.021 -1.28005 -1.95287 0
M  V30 3795 C 367.002 -0.158321 -1.69362 0
M  V30 3796 O 368.187 -0.349987 -1.9102 0
M  V30 3797 C 365.317 -1.03036 -3.31664 0
M  V30 3798 C 364.271 -2.11628 -3.72019 0
M  V30 3799 C 363.597 -1.71854 -5.0633 0
M  V30 3800 C 364.897 -3.53417 -3.8457 0
M  V30 3801 H 366.591 -2.22187 -2.00682 0
M  V30 3802 H 364.137 -1.0696 -0.964135 0
M  V30 3803 H 366.09 -0.973863 -4.09993 0
M  V30 3804 H 364.814 -0.0529391 -3.26557 0
M  V30 3805 H 363.473 -2.16339 -2.95961 0
M  V30 3806 H 363.121 -0.727841 -4.97706 0
M  V30 3807 H 362.821 -2.44531 -5.34302 0
M  V30 3808 H 364.345 -1.67692 -5.87122 0
M  V30 3809 H 365.759 -3.51142 -4.5318 0
M  V30 3810 H 364.156 -4.24679 -4.2399 0
M  V30 3811 H 365.226 -3.91072 -2.86689 0
M  V30 3812 N 366.569 1.04691 -1.17803 0
M  V30 3813 C 367.479 2.16057 -0.914151 0
M  V30 3814 C 368.495 1.73589 0.119503 0
M  V30 3815 O 369.671 2.01308 -0.0609468 0
M  V30 3816 C 366.736 3.4394 -0.436603 0
M  V30 3817 C 365.797 4.00825 -1.53746 0
M  V30 3818 C 365.03 5.22604 -1.0826 0
M  V30 3819 O 365.253 5.70367 0.0612244 0
M  V30 3820 O 364.187 5.7186 -1.87775 0
M  V30 3821 H 368.013 2.41169 -1.84584 0
M  V30 3822 H 365.598 1.1453 -0.959334 0
M  V30 3823 H 367.48 4.21024 -0.178057 0
M  V30 3824 H 366.155 3.20316 0.466869 0
M  V30 3825 H 365.062 3.25158 -1.84995 0
M  V30 3826 H 366.395 4.28778 -2.41683 0
M  V30 3827 N 368.047 0.979072 1.23499 0
M  V30 3828 C 368.957 0.526431 2.28617 0
M  V30 3829 C 369.973 -0.418126 1.68901 0
M  V30 3830 O 371.149 -0.288372 1.99325 0
M  V30 3831 C 368.214 -0.165235 3.46306 0
M  V30 3832 C 367.275 0.82056 4.21385 0
M  V30 3833 C 366.508 0.161807 5.33455 0
M  V30 3834 O 366.731 -1.04742 5.60701 0
M  V30 3835 O 365.665 0.859708 5.95729 0
M  V30 3836 H 369.491 1.4006 2.69475 0
M  V30 3837 H 367.076 0.746643 1.29405 0
M  V30 3838 H 368.958 -0.553287 4.17752 0
M  V30 3839 H 367.633 -1.01419 3.07402 0
M  V30 3840 H 366.54 1.25929 3.52268 0
M  V30 3841 H 367.873 1.63828 4.64135 0
M  V30 3842 N 369.525 -1.3858 0.750561 0
M  V30 3843 C 370.772 -2.00184 0.305373 0
M  V30 3844 C 371.1 -1.59575 -1.11203 0
M  V30 3845 O 370.355 -0.823236 -1.77542 0
M  V30 3846 C 370.654 -3.55455 0.372373 0
M  V30 3847 C 370.32 -4.15765 1.745 0
M  V30 3848 C 368.982 -4.31951 2.12065 0
M  V30 3849 C 371.334 -4.49067 2.64553 0
M  V30 3850 C 368.662 -4.78734 3.39162 0
M  V30 3851 C 371.014 -4.97265 3.91038 0
M  V30 3852 C 369.678 -5.11658 4.28676 0
M  V30 3853 H 368.948 -0.732526 0.111744 0
M  V30 3854 H 371.595 -1.65673 0.960451 0
M  V30 3855 H 369.9 -3.90084 -0.366272 0
M  V30 3856 H 371.597 -4.00999 0.00953918 0
M  V30 3857 H 368.187 -4.03579 1.44297 0
M  V30 3858 H 372.371 -4.36166 2.36796 0
M  V30 3859 H 367.627 -4.88062 3.68246 0
M  V30 3860 H 371.801 -5.22003 4.60962 0
M  V30 3861 H 369.428 -5.47668 5.27222 0
M  V30 3862 N 371.003 -0.499398 -1.49478 0
M  V30 3863 C 371.953 0.299103 -2.2603 0
M  V30 3864 C 372.937 0.936934 -1.30807 0
M  V30 3865 O 374.129 0.844798 -1.55538 0
M  V30 3866 C 371.258 1.36391 -3.15044 0
M  V30 3867 C 370.344 0.732398 -4.17728 0
M  V30 3868 N 370.735 -0.164028 -5.05534 0
M  V30 3869 C 369.033 0.993162 -4.34801 0
M  V30 3870 C 369.734 -0.525345 -5.79323 0
M  V30 3871 N 368.71 0.106348 -5.43496 0
M  V30 3872 H 372.512 -0.391003 -2.91287 0
M  V30 3873 H 370.026 -0.31537 -1.59308 0
M  V30 3874 H 372.023 1.94939 -3.68516 0
M  V30 3875 H 370.683 2.05571 -2.51338 0
M  V30 3876 H 371.694 -0.534736 -5.15132 0
M  V30 3877 H 368.371 1.67783 -3.82302 0
M  V30 3878 H 369.761 -1.25862 -6.60006 0
M  V30 3879 N 372.481 1.55866 -0.233164 0
M  V30 3880 C 373.413 2.18099 0.704668 0
M  V30 3881 C 374.426 1.15334 1.14899 0
M  V30 3882 O 375.615 1.42262 1.07814 0
M  V30 3883 C 372.715 2.7592 1.96777 0
M  V30 3884 C 371.888 4.03969 1.67713 0
M  V30 3885 C 370.947 4.46242 2.78845 0
M  V30 3886 O 369.973 5.12903 2.46818 0
M  V30 3887 N 371.175 4.12886 4.08051 0
M  V30 3888 H 373.94 2.99205 0.172258 0
M  V30 3889 H 371.501 1.61815 -0.0525945 0
M  V30 3890 H 373.493 3.01165 2.70337 0
M  V30 3891 H 372.063 1.99051 2.41034 0
M  V30 3892 H 371.283 3.86459 0.777391 0
M  V30 3893 H 372.571 4.8748 1.4574 0
M  V30 3894 H 371.969 3.59342 4.3691 0
M  V30 3895 H 370.526 4.42997 4.78118 0
M  V30 3896 N 373.959 -0.0401083 1.57549 0
M  V30 3897 C 375.187 -0.745196 1.93014 0
M  V30 3898 C 375.602 -1.6948 0.831984 0
M  V30 3899 O 374.959 -1.81482 -0.192463 0
M  V30 3900 C 375.01 -1.51176 3.28372 0
M  V30 3901 O 374.731 -0.600284 4.33968 0
M  V30 3902 C 376.232 -2.315 3.78051 0
M  V30 3903 H 373.452 -0.210088 0.637263 0
M  V30 3904 H 375.996 -0.000924689 2.045 0
M  V30 3905 H 374.151 -2.20801 3.18317 0
M  V30 3906 H 374.565 -1.13669 5.12035 0
M  V30 3907 H 376.039 -2.80697 4.75303 0
M  V30 3908 H 376.516 -3.12436 3.08675 0
M  V30 3909 H 377.122 -1.66971 3.91153 0
M  V30 3910 N 375.437 -1.54477 -0.31217 0
M  V30 3911 C 376.4 -1.83923 -1.36766 0
M  V30 3912 C 377.4 -0.711563 -1.44199 0
M  V30 3913 O 378.59 -0.979866 -1.44029 0
M  V30 3914 C 375.722 -2.0095 -2.75376 0
M  V30 3915 H 376.915 -2.78239 -1.11906 0
M  V30 3916 H 374.468 -1.46369 -0.548257 0
M  V30 3917 H 375.203 -1.08883 -3.05475 0
M  V30 3918 H 374.988 -2.83018 -2.71373 0
M  V30 3919 H 376.478 -2.2514 -3.51713 0
M  V30 3920 N 376.915 0.57481 -1.46744 0
M  V30 3921 C 377.845 1.69337 -1.60771 0
M  V30 3922 C 378.826 1.63825 -0.457736 0
M  V30 3923 O 380.011 1.8172 -0.684947 0
M  V30 3924 C 377.141 3.0798 -1.60517 0
M  V30 3925 C 376.095 3.28327 -2.74564 0
M  V30 3926 C 375.421 4.67578 -2.59373 0
M  V30 3927 C 376.721 3.15398 -4.16319 0
M  V30 3928 H 378.415 1.57853 -2.54407 0
M  V30 3929 H 375.961 0.75799 -1.22436 0
M  V30 3930 H 377.914 3.86061 -1.68923 0
M  V30 3931 H 376.638 3.20381 -0.634305 0
M  V30 3932 H 375.297 2.52649 -2.65639 0
M  V30 3933 H 374.945 4.76755 -1.60353 0
M  V30 3934 H 374.645 4.82144 -3.35873 0
M  V30 3935 H 376.169 5.47817 -2.69682 0
M  V30 3936 H 377.583 3.83315 -4.26313 0
M  V30 3937 H 375.98 3.41482 -4.93468 0
M  V30 3938 H 377.05 2.12372 -4.3592 0
M  V30 3939 N 378.394 1.34581 0.820102 0
M  V30 3940 C 379.304 1.28471 1.96297 0
M  V30 3941 C 380.32 0.191902 1.72939 0
M  V30 3942 O 381.496 0.418879 1.96996 0
M  V30 3943 C 378.561 1.04281 3.30645 0
M  V30 3944 C 377.622 2.22745 3.66992 0
M  V30 3945 C 376.855 1.997 4.9493 0
M  V30 3946 O 377.078 0.956656 5.6232 0
M  V30 3947 O 376.012 2.86723 5.2922 0
M  V30 3948 H 379.838 2.24624 2.04396 0
M  V30 3949 H 377.423 1.14816 0.955913 0
M  V30 3950 H 379.305 0.925841 4.11104 0
M  V30 3951 H 377.98 0.111697 3.23507 0
M  V30 3952 H 376.887 2.40003 2.86966 0
M  V30 3953 H 378.22 3.14257 3.78819 0
M  V30 3954 N 379.872 -1.04064 1.18357 0
M  V30 3955 C 380.822 -2.10393 0.878561 0
M  V30 3956 C 381.806 -1.60183 -0.151713 0
M  V30 3957 O 382.998 -1.76923 0.0523303 0
M  V30 3958 C 380.127 -3.4089 0.406096 0
M  V30 3959 C 379.213 -3.97866 1.46844 0
M  V30 3960 N 379.604 -4.28657 2.68489 0
M  V30 3961 C 377.902 -4.2574 1.32896 0
M  V30 3962 C 378.603 -4.74253 3.36836 0
M  V30 3963 N 377.579 -4.75068 2.64219 0
M  V30 3964 H 381.381 -2.32076 1.80327 0
M  V30 3965 H 378.895 -1.21818 1.07397 0
M  V30 3966 H 380.892 -4.16557 0.169088 0
M  V30 3967 H 379.552 -3.20633 -0.512275 0
M  V30 3968 H 380.563 -4.18304 3.05356 0
M  V30 3969 H 377.24 -4.1481 0.473134 0
M  V30 3970 H 378.63 -5.07096 4.40798 0
M  V30 3971 N 381.35 -0.985608 -1.22978 0
M  V30 3972 C 382.761 -0.693593 -1.73338 0
M  V30 3973 C 383.112 0.789935 -1.79595 0
M  V30 3974 O 382.237 1.61771 -1.43733 0
M  V30 3975 C 382.832 -1.25235 -3.14804 0
M  V30 3976 C 381.391 -1.00987 -3.626 0
M  V30 3977 C 380.538 -1.37695 -2.40698 0
M  V30 3978 H 383.489 -1.15884 -1.08428 0
M  V30 3979 H 383.51 -0.627329 -3.75293 0
M  V30 3980 H 383.022 -2.33209 -3.10218 0
M  V30 3981 H 381.123 0.0535565 -3.72562 0
M  V30 3982 H 381.236 -1.66812 -4.49122 0
M  V30 3983 H 379.6 -0.795459 -2.4196 0
M  V30 3984 H 380.383 -2.46657 -2.38779 0
M  V30 3985 N 382.828 1.3818 -0.7579 0
M  V30 3986 C 383.738 2.3421 -0.135247 0
M  V30 3987 C 384.754 1.59487 0.695683 0
M  V30 3988 O 385.93 1.91657 0.618832 0
M  V30 3989 C 382.995 3.3862 0.744139 0
M  V30 3990 C 382.056 4.2918 -0.101658 0
M  V30 3991 C 381.289 5.28603 0.735851 0
M  V30 3992 O 381.512 5.35166 1.97366 0
M  V30 3993 O 380.446 6.01707 0.152372 0
M  V30 3994 H 384.272 2.8916 -0.928436 0
M  V30 3995 H 381.857 1.40101 -0.518855 0
M  V30 3996 H 383.739 4.02539 1.2466 0
M  V30 3997 H 382.414 2.86019 1.51575 0
M  V30 3998 H 381.321 3.68407 -0.650167 0
M  V30 3999 H 382.654 4.85048 -0.836024 0
M  V30 4000 N 384.306 0.507319 1.49211 0
M  V30 4001 C 385.236 -0.256939 2.32082 0
M  V30 4002 C 386.217 -0.956609 1.40652 0
M  V30 4003 O 387.402 -0.946788 1.69557 0
M  V30 4004 C 384.532 -1.31802 3.21318 0
M  V30 4005 C 383.486 -0.737855 4.21592 0
M  V30 4006 C 382.812 -1.89992 4.99807 0
M  V30 4007 C 384.112 0.275325 5.21574 0
M  V30 4008 H 385.806 0.434798 2.96226 0
M  V30 4009 H 383.352 0.210546 1.42452 0
M  V30 4010 H 385.305 -1.86045 3.78107 0
M  V30 4011 H 384.029 -2.03903 2.5513 0
M  V30 4012 H 382.688 -0.217126 3.65956 0
M  V30 4013 H 382.336 -2.60877 4.30061 0
M  V30 4014 H 382.036 -1.51777 5.6766 0
M  V30 4015 H 383.56 -2.44657 5.59442 0
M  V30 4016 H 384.974 -0.179193 5.7302 0
M  V30 4017 H 383.371 0.573649 5.97352 0
M  V30 4018 H 384.441 1.18903 4.70096 0
M  V30 4019 N 385.784 -1.5574 0.241426 0
M  V30 4020 C 387.009 -2.0366 -0.392111 0
M  V30 4021 C 387.434 -1.11969 -1.51144 0
M  V30 4022 O 386.792 -0.111594 -1.80956 0
M  V30 4023 C 386.84 -3.49638 -0.882371 0
M  V30 4024 O 385.944 -3.6108 -1.99235 0
M  V30 4025 H 385.285 -0.658379 -0.0862122 0
M  V30 4026 H 387.815 -2.01302 0.365881 0
M  V30 4027 H 387.825 -3.90351 -1.18702 0
M  V30 4028 H 386.5 -4.15852 -0.0632361 0
M  V30 4029 H 385.077 -3.32262 -1.69282 0
M  V30 4030 N 387.262 0.0317525 -1.57568 0
M  V30 4031 C 388.172 1.05021 -2.0978 0
M  V30 4032 C 389.188 1.39809 -1.03583 0
M  V30 4033 O 390.364 1.49182 -1.35302 0
M  V30 4034 C 387.429 2.33301 -2.56459 0
M  V30 4035 C 386.49 2.0512 -3.77127 0
M  V30 4036 C 385.723 3.27283 -4.2157 0
M  V30 4037 O 385.946 4.37861 -3.65559 0
M  V30 4038 O 384.88 3.13141 -5.14029 0
M  V30 4039 H 388.706 0.636505 -2.96955 0
M  V30 4040 H 386.291 0.248559 -1.47318 0
M  V30 4041 H 388.173 3.08722 -2.86825 0
M  V30 4042 H 386.848 2.73973 -1.72397 0
M  V30 4043 H 385.755 1.27276 -3.51784 0
M  V30 4044 H 387.088 1.69305 -4.62165 0
M  V30 4045 N 388.74 1.54641 0.303973 0
M  V30 4046 C 389.67 1.88386 1.3796 0
M  V30 4047 C 390.651 0.742485 1.5304 0
M  V30 4048 O 391.836 0.997959 1.66597 0
M  V30 4049 C 388.966 2.12854 2.74427 0
M  V30 4050 C 387.92 3.28702 2.74115 0
M  V30 4051 C 387.246 3.38582 4.13844 0
M  V30 4052 C 388.546 4.65881 2.3612 0
M  V30 4053 H 390.24 2.78474 1.09966 0
M  V30 4054 H 387.786 1.33988 0.527556 0
M  V30 4055 H 389.739 2.35047 3.49758 0
M  V30 4056 H 388.463 1.19535 3.03939 0
M  V30 4057 H 387.122 3.06428 2.0124 0
M  V30 4058 H 386.77 2.42784 4.40528 0
M  V30 4059 H 386.47 4.16453 4.14537 0
M  V30 4060 H 387.994 3.63031 4.90959 0
M  V30 4061 H 389.408 4.87823 3.01167 0
M  V30 4062 H 387.805 5.46444 2.48031 0
M  V30 4063 H 388.875 4.66799 1.3125 0
M  V30 4064 N 390.218 -0.567019 1.47046 0
M  V30 4065 C 391.165 -1.67489 1.58796 0
M  V30 4066 C 392.135 -1.60399 0.43144 0
M  V30 4067 O 393.32 -1.79378 0.650233 0
M  V30 4068 C 390.46 -3.05821 1.59899 0
M  V30 4069 C 389.573 -3.2342 2.86397 0
M  V30 4070 C 388.708 -4.52093 2.789 0
M  V30 4071 C 387.747 -4.6309 4.00267 0
M  V30 4072 N 386.884 -5.83106 3.91064 0
M  V30 4073 H 391.724 -1.56785 2.53422 0
M  V30 4074 H 389.261 -0.763896 1.2571 0
M  V30 4075 H 391.219 -3.8591 1.58522 0
M  V30 4076 H 389.849 -3.15384 0.687929 0
M  V30 4077 H 388.901 -2.3683 2.97684 0
M  V30 4078 H 390.213 -3.27412 3.76301 0
M  V30 4079 H 389.367 -5.4043 2.75718 0
M  V30 4080 H 388.106 -4.50565 1.86662 0
M  V30 4081 H 387.111 -3.73168 4.03765 0
M  V30 4082 H 388.336 -4.66386 4.93621 0
M  V30 4083 H 386.282 -5.82546 3.01623 0
M  V30 4084 H 386.199 -5.88434 4.74638 0
M  V30 4085 H 387.467 -6.73831 3.91882 0
M  V30 4086 N 391.696 -1.35014 -0.812953 0
M  V30 4087 C 392.924 -1.31031 -1.6012 0
M  V30 4088 C 393.339 0.113558 -1.88458 0
M  V30 4089 O 392.696 1.06363 -1.48301 0
M  V30 4090 C 392.747 -2.10872 -2.93624 0
M  V30 4091 O 392.468 -3.47706 -2.66518 0
M  V30 4092 C 393.969 -2.14401 -3.88004 0
M  V30 4093 H 391.189 -0.45037 -0.497401 0
M  V30 4094 H 393.733 -1.77775 -1.01076 0
M  V30 4095 H 391.888 -1.67744 -3.492 0
M  V30 4096 H 392.302 -3.89097 -3.51715 0
M  V30 4097 H 393.776 -2.74669 -4.78812 0
M  V30 4098 H 394.253 -1.14105 -4.24119 0
M  V30 4099 H 394.859 -2.57662 -3.38364 0
M  V30 4100 N 393.175 1.03435 -1.18907 0
M  V30 4101 C 394.421 1.77005 -0.989798 0
M  V30 4102 C 394.754 1.88205 0.478816 0
M  V30 4103 O 394.029 1.39481 1.35556 0
M  V30 4104 C 394.312 3.19925 -1.65287 0
M  V30 4105 C 394.165 3.1663 -3.19477 0
M  V30 4106 C 395.484 4.18189 -1.37134 0
M  V30 4107 H 392.603 0.642538 -0.360991 0
M  V30 4108 H 395.245 1.20784 -1.46667 0
M  V30 4109 H 393.395 3.67929 -1.24741 0
M  V30 4110 H 395.067 2.76567 -3.692 0
M  V30 4111 H 393.31 2.54491 -3.51307 0
M  V30 4112 H 393.981 4.1758 -3.61013 0
M  V30 4113 H 396.457 3.78761 -1.72276 0
M  V30 4114 H 395.333 5.16394 -1.86087 0
M  V30 4115 H 395.594 4.41112 -0.295424 0
M  V30 4116 N 394.653 0.992116 1.22453 0
M  V30 4117 C 395.881 0.685944 1.95198 0
M  V30 4118 C 396.296 -0.749233 1.73297 0
M  V30 4119 O 395.653 -1.50549 1.03156 0
M  V30 4120 C 395.704 0.981395 3.47924 0
M  V30 4121 O 395.425 2.36018 3.6909 0
M  V30 4122 C 396.926 0.692815 4.37853 0
M  V30 4123 H 394.146 0.253821 0.621141 0
M  V30 4124 H 396.69 1.32668 1.55626 0
M  V30 4125 H 394.845 0.386481 3.85467 0
M  V30 4126 H 395.259 2.45884 4.63294 0
M  V30 4127 H 396.733 0.949818 5.43767 0
M  V30 4128 H 397.21 -0.373181 4.37612 0
M  V30 4129 H 397.816 1.26874 4.05935 0
M  V30 4130 N 396.131 -1.37776 0.765217 0
M  V30 4131 C 397.379 -1.99454 0.325943 0
M  V30 4132 C 397.7 -1.61049 -1.09947 0
M  V30 4133 O 396.97 -0.872821 -1.75381 0
M  V30 4134 H 395.55 -0.737697 0.117525 0
M  V30 4135 H 398.212 -1.68359 0.981895 0
M  V30 4136 H 397.308 -3.09547 0.398353 0
M  V30 4137 N 397.609 -0.515225 -1.4894 0
M  V30 4138 C 398.837 0.0206034 -2.0689 0
M  V30 4139 C 399.252 1.29514 -1.37374 0
M  V30 4140 O 398.609 1.76698 -0.456529 0
M  V30 4141 C 398.66 0.26351 -3.60538 0
M  V30 4142 O 398.381 -0.960517 -4.27441 0
M  V30 4143 C 399.882 0.841383 -4.35242 0
M  V30 4144 H 397.102 -0.0268608 -0.670462 0
M  V30 4145 H 399.646 -0.716651 -1.91532 0
M  V30 4146 H 397.801 0.950777 -3.75552 0
M  V30 4147 H 398.215 -0.73212 -5.19365 0
M  V30 4148 H 399.689 0.96085 -5.43573 0
M  V30 4149 H 400.166 1.8427 -3.98674 0
M  V30 4150 H 400.772 0.191143 -4.2487 0
M  V30 4151 N 399.087 1.5561 -0.249682 0
M  V30 4152 C 400.035 2.22894 0.664906 0
M  V30 4153 C 401.029 1.21743 1.17792 0
M  V30 4154 O 402.235 1.39748 1.13449 0
M  V30 4155 H 398.61 0.715022 0.232912 0
M  V30 4156 H 400.581 2.98307 0.0742998 0
M  V30 4157 C 399.33 2.94424 1.84959 0
M  V30 4158 H 398.653 3.72031 1.46399 0
M  V30 4159 H 400.093 3.44862 2.4667 0
M  V30 4160 C 398.552 1.98454 2.72245 0
M  V30 4161 O 399.082 1.51939 3.71857 0
M  V30 4162 N 397.288 1.65496 2.38871 0
M  V30 4163 H 396.835 2.03517 1.57919 0
M  V30 4164 H 396.793 1.0155 2.97548 0
M  V30 4165 N 400.565 -0.0233959 1.57583 0
M  V30 4166 C 401.976 -0.56927 1.77809 0
M  V30 4167 C 402.327 -1.75284 0.881472 0
M  V30 4168 O 401.452 -2.1626 0.0777805 0
M  V30 4169 C 402.047 -1.03949 3.22459 0
M  V30 4170 C 400.606 -1.53084 3.43864 0
M  V30 4171 C 399.753 -0.471454 2.73263 0
M  V30 4172 H 402.704 0.202825 1.57399 0
M  V30 4173 H 402.725 -1.90661 3.29285 0
M  V30 4174 H 402.237 -0.177865 3.87692 0
M  V30 4175 H 400.338 -2.41414 2.83814 0
M  V30 4176 H 400.451 -1.57443 4.52491 0
M  V30 4177 H 398.815 -0.927788 2.37201 0
M  V30 4178 H 399.598 0.380808 3.41181 0
M  V30 4179 N 402.043 -1.548 -0.295768 0
M  V30 4180 C 403.289 -1.74588 -1.03184 0
M  V30 4181 C 403.622 -0.532962 -1.86744 0
M  V30 4182 O 402.897 0.469872 -1.88739 0
M  V30 4183 C 403.18 -3.03791 -1.93347 0
M  V30 4184 C 403.033 -4.35392 -1.12933 0
M  V30 4185 C 404.352 -3.28892 -2.92435 0
M  V30 4186 H 401.471 -0.635221 -0.373715 0
M  V30 4187 H 404.113 -1.87519 -0.30606 0
M  V30 4188 H 402.263 -2.92898 -2.55232 0
M  V30 4189 H 403.935 -4.58211 -0.532943 0
M  V30 4190 H 402.178 -4.31642 -0.432168 0
M  V30 4191 H 402.849 -5.22074 -1.79284 0
M  V30 4192 H 405.325 -3.39429 -2.4068 0
M  V30 4193 H 404.201 -4.20603 -3.52682 0
M  V30 4194 H 404.462 -2.47437 -3.6637 0
M  V30 4195 N 403.521 0.559213 -1.47345 0
M  V30 4196 C 404.768 1.31648 -1.53867 0
M  V30 4197 C 405.096 1.93468 -0.200104 0
M  V30 4198 O 404.351 1.78295 0.806799 0
M  V30 4199 C 404.65 2.44853 -2.6035 0
M  V30 4200 C 404.316 2.00876 -4.03683 0
M  V30 4201 C 402.978 1.88599 -4.42701 0
M  V30 4202 C 405.33 1.67279 -4.93626 0
M  V30 4203 C 402.658 1.41017 -5.69501 0
M  V30 4204 C 405.01 1.21169 -6.20887 0
M  V30 4205 C 403.674 1.07487 -6.58789 0
M  V30 4206 H 402.944 0.481734 -0.56304 0
M  V30 4207 H 405.591 0.627301 -1.80934 0
M  V30 4208 H 403.896 3.19318 -2.27032 0
M  V30 4209 H 405.593 3.03039 -2.62619 0
M  V30 4210 H 402.183 2.11374 -3.72853 0
M  V30 4211 H 406.367 1.75638 -4.64182 0
M  V30 4212 H 401.623 1.29086 -5.97618 0
M  V30 4213 H 405.797 0.942345 -6.89995 0
M  V30 4214 H 403.424 0.703946 -7.56934 0
M  V30 4215 N 404.999 1.35443 0.805782 0
M  V30 4216 C 405.962 1.28301 1.89925 0
M  V30 4217 C 406.962 0.194285 1.59622 0
M  V30 4218 O 408.152 0.448036 1.6834 0
M  V30 4219 C 405.284 0.984997 3.2636 0
M  V30 4220 H 406.477 2.2553 1.97677 0
M  V30 4221 H 404.03 1.19979 1.00173 0
M  V30 4222 H 404.765 0.016603 3.24296 0
M  V30 4223 H 404.55 1.77269 3.4974 0
M  V30 4224 H 406.04 0.960651 4.064 0
M  V30 4225 N 406.477 -1.02803 1.19454 0
M  V30 4226 C 407.725 -1.75869 0.995722 0
M  V30 4227 C 408.046 -1.89138 -0.474543 0
M  V30 4228 O 407.316 -1.42558 -1.34366 0
M  V30 4229 H 405.896 -0.651511 0.365435 0
M  V30 4230 H 408.558 -1.24004 1.50363 0
M  V30 4231 H 407.654 -2.76661 1.44447 0
M  V30 4232 N 407.956 -0.998596 -1.21925 0
M  V30 4233 C 408.919 -0.558679 -2.22287 0
M  V30 4234 C 409.919 0.361525 -1.56683 0
M  V30 4235 O 411.109 0.152695 -1.73529 0
M  V30 4236 C 408.241 0.18661 -3.40389 0
M  V30 4237 H 409.434 -1.4463 -2.62721 0
M  V30 4238 H 406.987 -0.786413 -1.35075 0
M  V30 4239 H 407.722 1.08996 -3.05435 0
M  V30 4240 H 407.507 -0.474188 -3.89222 0
M  V30 4241 H 408.997 0.482367 -4.14805 0
M  V30 4242 N 409.434 1.37368 -0.772513 0
M  V30 4243 C 410.382 2.32134 -0.147111 0
M  V30 4244 C 411.376 1.54972 0.684106 0
M  V30 4245 O 412.582 1.70363 0.581083 0
M  V30 4246 H 408.957 0.751449 -0.028786 0
M  V30 4247 H 410.928 2.82464 -0.962112 0
M  V30 4248 C 409.677 3.40226 0.71703 0
M  V30 4249 H 409 3.99706 0.0867951 0
M  V30 4250 H 410.44 4.08897 1.12159 0
M  V30 4251 C 408.899 2.80372 1.86797 0
M  V30 4252 O 409.429 2.71183 2.96349 0
M  V30 4253 N 407.635 2.37904 1.66883 0
M  V30 4254 H 407.182 2.45578 0.777759 0
M  V30 4255 H 407.14 1.98202 2.44056 0
M  V30 4256 N 410.912 0.523116 1.48665 0
M  V30 4257 C 412.142 -0.00961724 2.06598 0
M  V30 4258 C 412.55 -1.29333 1.38093 0
M  V30 4259 O 411.893 -1.77846 0.46007 0
M  V30 4260 C 411.955 -0.311135 3.58151 0
M  V30 4261 C 411.619 0.878092 4.48485 0
M  V30 4262 C 412.616 1.77464 4.88674 0
M  V30 4263 C 410.301 1.08315 4.90483 0
M  V30 4264 C 412.295 2.86021 5.69623 0
M  V30 4265 C 409.982 2.17187 5.71203 0
M  V30 4266 C 410.98 3.05873 6.10681 0
M  V30 4267 O 410.668 4.12862 6.89783 0
M  V30 4268 H 410.4 0.0272658 0.67545 0
M  V30 4269 H 412.954 0.726156 1.92136 0
M  V30 4270 H 411.184 -1.10079 3.70701 0
M  V30 4271 H 412.873 -0.785125 3.98234 0
M  V30 4272 H 413.639 1.62813 4.56855 0
M  V30 4273 H 409.518 0.402149 4.59243 0
M  V30 4274 H 413.062 3.55272 6.00356 0
M  V30 4275 H 408.959 2.31824 6.02435 0
M  V30 4276 H 409.727 4.10487 7.08126 0
M  V30 4277 N 412.39 -1.55475 0.257931 0
M  V30 4278 C 413.353 -2.20551 -0.623706 0
M  V30 4279 C 414.353 -1.17809 -1.09443 0
M  V30 4280 O 415.543 -1.42823 -0.997362 0
M  V30 4281 C 412.675 -2.85784 -1.8585 0
M  V30 4282 H 413.868 -2.99848 -0.0557743 0
M  V30 4283 H 411.421 -1.56298 0.0084422 0
M  V30 4284 H 412.156 -2.10453 -2.46739 0
M  V30 4285 H 411.941 -3.61057 -1.52907 0
M  V30 4286 H 413.431 -3.35553 -2.48584 0
M  V30 4287 N 413.868 0.0150385 -1.57593 0
M  V30 4288 C 414.831 0.995996 -2.06428 0
M  V30 4289 C 415.831 1.2818 -0.970903 0
M  V30 4290 O 417.021 1.22949 -1.23406 0
M  V30 4291 C 414.153 2.32506 -2.49307 0
M  V30 4292 H 415.346 0.573873 -2.94358 0
M  V30 4293 H 412.899 0.262186 -1.54085 0
M  V30 4294 H 413.634 2.79438 -1.64575 0
M  V30 4295 H 413.419 2.13087 -3.29145 0
M  V30 4296 H 414.909 3.02906 -2.87468 0
M  V30 4297 N 415.346 1.54954 0.287554 0
M  V30 4298 C 416.592 1.76059 1.01856 0
M  V30 4299 C 416.947 0.547056 1.84459 0
M  V30 4300 O 416.24 -0.460442 1.85985 0
M  V30 4301 C 416.434 2.99833 1.94512 0
M  V30 4302 C 416.263 4.33108 1.21026 0
M  V30 4303 C 415.033 4.96632 0.931896 0
M  V30 4304 C 417.231 5.10694 0.607949 0
M  V30 4305 N 415.213 6.13668 0.168716 0
M  V30 4306 C 416.584 6.19996 -0.0217865 0
M  V30 4307 C 418.639 4.95236 0.514338 0
M  V30 4308 C 417.342 7.15524 -0.736092 0
M  V30 4309 C 419.368 5.91106 -0.186343 0
M  V30 4310 C 418.73 6.99786 -0.804875 0
M  V30 4311 H 414.829 0.696679 0.355193 0
M  V30 4312 H 417.413 1.92441 0.295741 0
M  V30 4313 H 415.584 2.84853 2.64033 0
M  V30 4314 H 417.316 3.09405 2.60865 0
M  V30 4315 H 414.071 4.57255 1.23348 0
M  V30 4316 H 414.495 6.76705 -0.199781 0
M  V30 4317 H 419.137 4.11328 0.978234 0
M  V30 4318 H 416.855 7.98964 -1.21172 0
M  V30 4319 H 420.441 5.81224 -0.258897 0
M  V30 4320 H 419.321 7.72694 -1.33843 0
M  V30 4321 N 416.824 -0.551391 1.4764 0
M  V30 4322 C 417.787 -1.64007 1.60107 0
M  V30 4323 C 418.787 -1.53601 0.47576 0
M  V30 4324 O 419.977 -1.57655 0.740988 0
M  V30 4325 C 417.109 -3.03569 1.55108 0
M  V30 4326 H 418.302 -1.543 2.57161 0
M  V30 4327 H 415.855 -0.771776 1.35917 0
M  V30 4328 H 416.59 -3.18804 0.594519 0
M  V30 4329 H 416.375 -3.12532 2.36783 0
M  V30 4330 H 417.865 -3.82762 1.66982 0
M  V30 4331 N 418.302 -1.35869 -0.798587 0
M  V30 4332 C 419.548 -1.2978 -1.55836 0
M  V30 4333 C 419.881 0.125322 -1.93795 0
M  V30 4334 O 419.156 1.07658 -1.61987 0
M  V30 4335 C 419.439 -2.21188 -2.84162 0
M  V30 4336 C 419.292 -3.72155 -2.52628 0
M  V30 4337 C 420.611 -2.11545 -3.85923 0
M  V30 4338 H 417.73 -0.472769 -0.565383 0
M  V30 4339 H 420.372 -1.66341 -0.918192 0
M  V30 4340 H 418.522 -1.90139 -3.38791 0
M  V30 4341 H 420.194 -4.13682 -2.04121 0
M  V30 4342 H 418.437 -3.92042 -1.85704 0
M  V30 4343 H 419.108 -4.31511 -3.44242 0
M  V30 4344 H 421.584 -2.38855 -3.40716 0
M  V30 4345 H 420.46 -2.77688 -4.73477 0
M  V30 4346 H 420.721 -1.09987 -4.282 0
M  V30 4347 N 419.78 1.02168 -1.19998 0
M  V30 4348 C 420.728 2.12717 -0.940967 0
M  V30 4349 C 421.722 1.69069 0.105841 0
M  V30 4350 O 422.928 1.79946 -0.0440583 0
M  V30 4351 H 419.303 0.695108 -0.28693 0
M  V30 4352 H 421.274 2.3175 -1.87975 0
M  V30 4353 C 420.023 3.44027 -0.504049 0
M  V30 4354 H 419.346 3.78036 -1.30112 0
M  V30 4355 H 420.786 4.22452 -0.361991 0
M  V30 4356 C 419.245 3.27678 0.782878 0
M  V30 4357 O 419.775 3.56949 1.84256 0
M  V30 4358 N 417.981 2.80943 0.742921 0
M  V30 4359 H 417.528 2.57322 -0.119687 0
M  V30 4360 H 417.486 2.70385 1.60435 0
M  V30 4361 N 421.258 1.00505 1.21394 0
M  V30 4362 C 422.504 0.688793 1.90745 0
M  V30 4363 C 422.837 -0.778486 1.77914 0
M  V30 4364 O 422.112 -1.56433 1.15581 0
M  V30 4365 C 422.395 1.11063 3.42545 0
M  V30 4366 C 422.248 2.63737 3.64367 0
M  V30 4367 C 423.567 0.673059 4.34923 0
M  V30 4368 H 420.686 0.251702 0.692687 0
M  V30 4369 H 423.328 1.25074 1.43026 0
M  V30 4370 H 421.478 0.632508 3.83317 0
M  V30 4371 H 423.15 3.19313 3.32922 0
M  V30 4372 H 421.393 3.05248 3.08231 0
M  V30 4373 H 422.064 2.88305 4.70727 0
M  V30 4374 H 424.54 1.08392 4.01734 0
M  V30 4375 H 423.416 0.996383 5.39781 0
M  V30 4376 H 423.677 -0.425808 4.40045 0
M  V30 4377 N 422.737 -1.36956 0.779787 0
M  V30 4378 C 423.7 -2.2851 0.177662 0
M  V30 4379 C 424.7 -1.48393 -0.619377 0
M  V30 4380 O 425.89 -1.68505 -0.441785 0
M  V30 4381 C 423.022 -3.32428 -0.755279 0
M  V30 4382 H 424.215 -2.83269 0.984823 0
M  V30 4383 H 421.768 -1.46358 0.548544 0
M  V30 4384 H 422.503 -2.82808 -1.58714 0
M  V30 4385 H 422.288 -3.91659 -0.185817 0
M  V30 4386 H 423.778 -4.00824 -1.17174 0
M  V30 4387 N 424.215 -0.530993 -1.48385 0
M  V30 4388 C 425.147 0.268353 -2.27624 0
M  V30 4389 C 426.16 0.903525 -1.35426 0
M  V30 4390 O 427.349 0.781796 -1.60469 0
M  V30 4391 C 424.449 1.39535 -3.08842 0
M  V30 4392 C 423.622 0.861913 -4.28824 0
M  V30 4393 C 422.681 1.87016 -4.91845 0
M  V30 4394 O 421.707 1.4267 -5.5103 0
M  V30 4395 N 422.909 3.20238 -4.84178 0
M  V30 4396 H 425.674 -0.41123 -2.96865 0
M  V30 4397 H 423.235 -0.365387 -1.57723 0
M  V30 4398 H 425.227 2.06803 -3.47871 0
M  V30 4399 H 423.797 1.97859 -2.42014 0
M  V30 4400 H 423.017 0.0132126 -3.94198 0
M  V30 4401 H 424.305 0.484415 -5.06489 0
M  V30 4402 H 423.703 3.58932 -4.37246 0
M  V30 4403 H 422.26 3.83136 -5.27305 0
M  V30 4404 N 425.693 1.55336 -0.266172 0
M  V30 4405 C 426.939 1.99692 0.353681 0
M  V30 4406 C 427.272 1.1543 1.56172 0
M  V30 4407 O 426.547 0.222218 1.93226 0
M  V30 4408 C 426.83 3.52316 0.74466 0
M  V30 4409 C 426.683 4.47337 -0.470101 0
M  V30 4410 C 428.002 4.10588 1.58447 0
M  V30 4411 H 425.121 0.725961 0.12708 0
M  V30 4412 H 427.763 1.86336 -0.371333 0
M  V30 4413 H 425.913 3.63829 1.36239 0
M  V30 4414 H 427.585 4.4778 -1.10864 0
M  V30 4415 H 425.828 4.19364 -1.10978 0
M  V30 4416 H 426.499 5.51788 -0.15291 0
M  V30 4417 H 428.975 4.02297 1.06286 0
M  V30 4418 H 427.851 5.17607 1.82686 0
M  V30 4419 H 428.112 3.60253 2.56262 0
M  V30 4420 N 427.171 -0.0066808 1.57599 0
M  V30 4421 C 428.42 -0.692078 1.89455 0
M  V30 4422 C 428.733 -1.75306 0.867586 0
M  V30 4423 O 429.939 -2.49262 1.07614 0
M  V30 4424 C 428.395 -1.2821 3.36289 0
M  V30 4425 C 428.003 -0.256291 4.47266 0
M  V30 4426 C 429.747 -1.94608 3.77264 0
M  V30 4427 C 427.654 -0.855927 5.85173 0
M  V30 4428 H 426.584 -0.262252 0.706923 0
M  V30 4429 H 429.235 0.052769 1.83424 0
M  V30 4430 H 427.617 -2.0774 3.37135 0
M  V30 4431 H 428.791 0.513923 4.57925 0
M  V30 4432 H 427.106 0.306862 4.15268 0
M  V30 4433 H 429.703 -2.40364 4.77629 0
M  V30 4434 H 430.046 -2.77382 3.10427 0
M  V30 4435 H 430.579 -1.21822 3.78688 0
M  V30 4436 H 427.318 -0.0671161 6.55466 0
M  V30 4437 H 426.838 -1.59546 5.78191 0
M  V30 4438 H 428.517 -1.35658 6.32618 0
M  V30 4439 N 428.649 -1.55105 -0.279332 0
M  V30 4440 C 429.926 -1.66119 -1.03267 0
M  V30 4441 C 430.306 -0.523525 -2.04505 0
M  V30 4442 O 429.654 0.477194 -2.23462 0
M  V30 4443 C 429.864 -3.05067 -1.69515 0
M  V30 4444 C 431.212 -3.62606 -2.20912 0
M  V30 4445 O 432.236 -3.07659 -1.79512 0
M  V30 4446 O 431.095 -4.58861 -2.96831 0
M  V30 4447 H 428.189 -0.674429 -0.478618 0
M  V30 4448 H 430.735 -1.67446 -0.275694 0
M  V30 4449 H 429.507 -3.79311 -0.9612 0
M  V30 4450 H 429.13 -3.07611 -2.51915 0
M  V30 4451 N 430.127 0.543554 -1.4793 0
M  V30 4452 C 431.352 1.32995 -1.59145 0
M  V30 4453 C 431.777 1.86472 -0.246956 0
M  V30 4454 O 431.135 1.63696 0.779324 0
M  V30 4455 C 431.183 2.46623 -2.63077 0
M  V30 4456 O 430.287 3.49261 -2.19295 0
M  V30 4457 H 429.628 0.394472 -0.534124 0
M  V30 4458 H 432.158 0.655489 -1.93816 0
M  V30 4459 H 432.168 2.93001 -2.83926 0
M  V30 4460 H 430.843 2.07059 -3.60693 0
M  V30 4461 H 429.42 3.09094 -2.08603 0
M  V30 4462 N 431.605 1.3629 0.791371 0
M  V30 4463 C 432.515 1.32606 1.93527 0
M  V30 4464 C 433.531 0.228541 1.72493 0
M  V30 4465 O 434.707 0.460571 1.96063 0
M  V30 4466 C 431.772 1.11271 3.28359 0
M  V30 4467 C 430.833 2.3048 3.62185 0
M  V30 4468 C 430.066 2.10154 4.90583 0
M  V30 4469 O 430.289 1.07572 5.60165 0
M  V30 4470 O 429.223 2.97884 5.23019 0
M  V30 4471 H 433.049 2.28909 1.99585 0
M  V30 4472 H 430.634 1.16818 0.931344 0
M  V30 4473 H 432.516 1.01283 4.09047 0
M  V30 4474 H 431.191 0.180292 3.23198 0
M  V30 4475 H 430.098 2.46036 2.81811 0
M  V30 4476 H 431.431 3.22221 3.72068 0
M  V30 4477 N 433.083 -1.0153 1.20538 0
M  V30 4478 C 434.311 -1.78746 1.04199 0
M  V30 4479 C 434.726 -1.84323 -0.408733 0
M  V30 4480 O 434.083 -1.29714 -1.28377 0
M  V30 4481 C 434.134 -3.23152 1.62035 0
M  V30 4482 O 433.855 -3.17918 3.0143 0
M  V30 4483 C 435.356 -4.16911 1.50666 0
M  V30 4484 H 432.576 -0.56208 0.366479 0
M  V30 4485 H 435.12 -1.27794 1.59653 0
M  V30 4486 H 433.275 -3.71248 1.10697 0
M  V30 4487 H 433.689 -4.08567 3.28897 0
M  V30 4488 H 435.163 -5.16072 1.95892 0
M  V30 4489 H 435.64 -4.36791 0.459363 0
M  V30 4490 H 436.246 -3.74698 2.01201 0
M  V30 4491 N 434.561 -1.01147 -1.20859 0
M  V30 4492 C 435.524 -0.582224 -2.21682 0
M  V30 4493 C 436.524 0.344887 -1.57058 0
M  V30 4494 O 437.714 0.134281 -1.73682 0
M  V30 4495 C 434.846 0.150496 -3.40568 0
M  V30 4496 H 436.039 -1.47408 -2.61172 0
M  V30 4497 H 433.592 -0.800695 -1.34233 0
M  V30 4498 H 434.327 1.0575 -3.06574 0
M  V30 4499 H 434.112 -0.515444 -3.88697 0
M  V30 4500 H 435.602 0.438344 -4.15293 0
M  V30 4501 N 436.039 1.36541 -0.78704 0
M  V30 4502 C 437.316 1.9355 -0.282424 0
M  V30 4503 C 437.696 1.71919 1.22503 0
M  V30 4504 O 437.044 1.07677 2.01539 0
M  V30 4505 C 437.254 3.4246 -0.672462 0
M  V30 4506 C 438.602 4.19582 -0.650863 0
M  V30 4507 O 439.626 3.50889 -0.612789 0
M  V30 4508 O 438.485 5.42106 -0.691623 0
M  V30 4509 H 435.579 0.824091 -0.0693 0
M  V30 4510 H 438.125 1.45736 -0.869423 0
M  V30 4511 H 436.897 3.51851 -1.71221 0
M  V30 4512 H 436.52 3.97556 -0.0592211 0
M  V30 4513 N 437.518 0.538854 1.48102 0
M  V30 4514 C 438.466 -0.232325 2.31437 0
M  V30 4515 C 439.46 -0.927004 1.41785 0
M  V30 4516 O 440.666 -0.850378 1.58646 0
M  V30 4517 H 437.041 -0.0937916 0.746128 0
M  V30 4518 H 439.012 0.489986 2.9435 0
M  V30 4519 C 437.761 -1.26074 3.24038 0
M  V30 4520 H 437.084 -0.735609 3.92974 0
M  V30 4521 H 438.524 -1.77157 3.85216 0
M  V30 4522 C 436.983 -2.29902 2.46265 0
M  V30 4523 O 437.513 -3.36502 2.19384 0
M  V30 4524 N 435.719 -2.03348 2.07601 0
M  V30 4525 H 435.266 -1.16675 2.29662 0
M  V30 4526 H 435.224 -2.73038 1.55877 0
M  V30 4527 N 438.996 -1.55193 0.274407 0
M  V30 4528 C 439.926 -2.25471 -0.607032 0
M  V30 4529 C 440.907 -1.24461 -1.15946 0
M  V30 4530 O 442.092 -1.53179 -1.19373 0
M  V30 4531 C 439.222 -2.97526 -1.79153 0
M  V30 4532 C 438.176 -4.05459 -1.37067 0
M  V30 4533 C 437.502 -4.65084 -2.6382 0
M  V30 4534 C 438.802 -5.19691 -0.521389 0
M  V30 4535 H 440.496 -2.99393 -0.0209343 0
M  V30 4536 H 438.042 -1.43997 -0.00862866 0
M  V30 4537 H 439.995 -3.45402 -2.41404 0
M  V30 4538 H 438.719 -2.21138 -2.40344 0
M  V30 4539 H 437.378 -3.58393 -0.771355 0
M  V30 4540 H 437.026 -3.85365 -3.23268 0
M  V30 4541 H 436.726 -5.37961 -2.36372 0
M  V30 4542 H 438.25 -5.15708 -3.26921 0
M  V30 4543 H 439.664 -5.63623 -1.04889 0
M  V30 4544 H 438.061 -5.99126 -0.341825 0
M  V30 4545 H 439.131 -4.82713 0.46 0
M  V30 4546 N 440.474 -0.00167713 -1.576 0
M  V30 4547 C 441.384 1.00548 -2.1196 0
M  V30 4548 C 442.4 1.3758 -1.06526 0
M  V30 4549 O 443.576 1.46278 -1.38436 0
M  V30 4550 C 440.641 2.27809 -2.6135 0
M  V30 4551 C 439.702 1.97074 -3.81393 0
M  V30 4552 C 438.935 3.18267 -4.28417 0
M  V30 4553 O 439.158 4.30009 -3.74765 0
M  V30 4554 O 438.092 3.02167 -5.20556 0
M  V30 4555 H 441.918 0.573373 -2.98238 0
M  V30 4556 H 439.503 0.217255 -1.47812 0
M  V30 4557 H 441.385 3.02568 -2.93309 0
M  V30 4558 H 440.06 2.70254 -1.78169 0
M  V30 4559 H 438.967 1.19785 -3.54404 0
M  V30 4560 H 440.3 1.59464 -4.65652 0
M  V30 4561 N 441.952 1.55251 0.271103 0
M  V30 4562 C 442.899 1.88261 1.33516 0
M  V30 4563 C 443.869 0.734296 1.48988 0
M  V30 4564 O 445.054 0.985741 1.63364 0
M  V30 4565 C 442.194 2.16168 2.69008 0
M  V30 4566 C 441.307 3.43678 2.61743 0
M  V30 4567 C 440.442 3.61276 3.89427 0
M  V30 4568 C 439.481 4.82472 3.7668 0
M  V30 4569 N 438.618 4.96717 4.96202 0
M  V30 4570 H 443.458 2.79015 1.04665 0
M  V30 4571 H 440.995 1.38137 0.505618 0
M  V30 4572 H 442.953 2.30349 3.47844 0
M  V30 4573 H 441.583 1.28646 2.96057 0
M  V30 4574 H 440.635 3.37959 1.74607 0
M  V30 4575 H 441.947 4.3265 2.48224 0
M  V30 4576 H 441.101 3.75284 4.76704 0
M  V30 4577 H 439.84 2.70492 4.05814 0
M  V30 4578 H 438.845 4.68465 2.87786 0
M  V30 4579 H 440.07 5.74692 3.61809 0
M  V30 4580 H 438.016 4.08865 5.12997 0
M  V30 4581 H 437.933 5.79738 4.85222 0
M  V30 4582 H 439.201 5.15113 5.85046 0
M  V30 4583 N 443.43 -0.535701 1.48216 0
M  V30 4584 C 444.658 -1.31671 1.59594 0
M  V30 4585 C 445.073 -1.87083 0.254056 0
M  V30 4586 O 444.43 -1.66112 -0.755854 0
M  V30 4587 C 444.481 -2.47158 2.63809 0
M  V30 4588 O 444.202 -1.94032 3.92789 0
M  V30 4589 C 445.703 -3.39062 2.85573 0
M  V30 4590 H 442.923 -0.400623 0.538277 0
M  V30 4591 H 445.467 -0.646827 1.94001 0
M  V30 4592 H 443.622 -3.10043 2.32276 0
M  V30 4593 H 444.036 -2.69585 4.49916 0
M  V30 4594 H 445.51 -4.16459 3.62306 0
M  V30 4595 H 445.987 -3.93941 1.94184 0
M  V30 4596 H 446.593 -2.81975 3.18387 0
M  V30 4597 N 444.908 -1.36708 -0.784132 0
M  V30 4598 C 446.136 -1.34398 -1.57305 0
M  V30 4599 C 446.551 0.0735577 -1.88657 0
M  V30 4600 O 445.908 1.03193 -1.50524 0
M  V30 4601 C 445.959 -2.17053 -2.89085 0
M  V30 4602 O 445.68 -3.53281 -2.59083 0
M  V30 4603 C 447.181 -2.22583 -3.83369 0
M  V30 4604 H 444.401 -0.460819 -0.487736 0
M  V30 4605 H 446.945 -1.79879 -0.972819 0
M  V30 4606 H 445.1 -1.75113 -3.45564 0
M  V30 4607 H 445.514 -3.9647 -3.43383 0
M  V30 4608 H 446.988 -2.84763 -4.72878 0
M  V30 4609 H 447.465 -1.23075 -4.21603 0
M  V30 4610 H 448.071 -2.64781 -3.32823 0
M  V30 4611 N 446.386 1.0089 -1.21074 0
M  V30 4612 C 447.349 2.0775 -0.968129 0
M  V30 4613 C 448.349 1.6069 0.0593445 0
M  V30 4614 O 449.539 1.73293 -0.177525 0
M  V30 4615 C 446.671 3.37794 -0.459108 0
M  V30 4616 H 447.864 2.30707 -1.9161 0
M  V30 4617 H 445.417 1.17807 -1.02719 0
M  V30 4618 H 446.152 3.20516 0.49397 0
M  V30 4619 H 445.937 3.7328 -1.20019 0
M  V30 4620 H 447.427 4.16454 -0.309099 0
M  V30 4621 N 447.864 1.01787 1.20321 0
M  V30 4622 C 448.827 0.593972 2.2137 0
M  V30 4623 C 449.827 -0.336553 1.57239 0
M  V30 4624 O 451.017 -0.125069 1.7375 0
M  V30 4625 C 448.149 -0.132433 3.40643 0
M  V30 4626 H 449.342 1.48791 2.60387 0
M  V30 4627 H 446.895 0.807803 1.33807 0
M  V30 4628 H 447.63 -1.04123 3.0713 0
M  V30 4629 H 447.415 0.53605 3.88418 0
M  V30 4630 H 448.905 -0.416314 4.1552 0
M  V30 4631 N 449.342 -1.36122 0.79427 0
M  V30 4632 C 450.272 -2.32551 0.210328 0
M  V30 4633 C 451.253 -1.56884 -0.657386 0
M  V30 4634 O 452.438 -1.85014 -0.590207 0
M  V30 4635 C 449.568 -3.41128 -0.651819 0
M  V30 4636 C 448.522 -4.27842 0.116395 0
M  V30 4637 C 447.848 -5.2763 -0.86666 0
M  V30 4638 C 449.148 -5.05647 1.30837 0
M  V30 4639 H 450.842 -2.81636 1.01594 0
M  V30 4640 H 448.388 -1.35407 0.489981 0
M  V30 4641 H 450.341 -4.07581 -1.07031 0
M  V30 4642 H 449.065 -2.90622 -1.49019 0
M  V30 4643 H 447.724 -3.62952 0.515915 0
M  V30 4644 H 447.372 -4.73395 -1.70019 0
M  V30 4645 H 447.072 -5.86514 -0.35705 0
M  V30 4646 H 448.596 -5.96955 -1.28361 0
M  V30 4647 H 450.01 -5.65113 0.965393 0
M  V30 4648 H 448.407 -5.73967 1.75161 0
M  V30 4649 H 449.477 -4.37006 2.10128 0
M  V30 4650 N 450.82 -0.546701 -1.47814 0
M  V30 4651 C 452.045 -0.021268 -2.07389 0
M  V30 4652 C 452.47 1.25822 -1.39822 0
M  V30 4653 O 451.828 1.75111 -0.46968 0
M  V30 4654 C 451.876 0.168502 -3.60206 0
M  V30 4655 O 450.98 1.23347 -3.93522 0
M  V30 4656 H 450.321 -0.0466108 -0.662362 0
M  V30 4657 H 452.851 -0.759387 -1.89985 0
M  V30 4658 H 452.861 0.385982 -4.0617 0
M  V30 4659 H 451.536 -0.766075 -4.08784 0
M  V30 4660 H 450.113 0.997319 -3.59316 0
M  V30 4661 N 452.299 1.55045 -0.282633 0
M  V30 4662 C 453.548 1.98938 0.332667 0
M  V30 4663 C 453.861 1.17455 1.56409 0
M  V30 4664 O 455.067 1.51527 2.25282 0
M  V30 4665 C 453.523 3.54105 0.643226 0
M  V30 4666 C 453.131 4.44374 -0.568814 0
M  V30 4667 C 454.875 4.06569 1.22074 0
M  V30 4668 C 452.782 5.90943 -0.232426 0
M  V30 4669 H 451.712 0.743043 0.128075 0
M  V30 4670 H 454.363 1.79341 -0.388464 0
M  V30 4671 H 452.745 3.69532 1.42346 0
M  V30 4672 H 453.919 4.40718 -1.34551 0
M  V30 4673 H 452.234 4.02585 -1.06369 0
M  V30 4674 H 454.831 5.13626 1.48635 0
M  V30 4675 H 455.174 3.56057 2.15707 0
M  V30 4676 H 455.707 3.94612 0.502621 0
M  V30 4677 H 452.446 6.45567 -1.13683 0
M  V30 4678 H 451.966 5.9765 0.507357 0
M  V30 4679 H 453.645 6.4677 0.172657 0
M  V30 4680 N 453.777 0.010035 1.57597 0
M  V30 4681 C 454.707 -0.976857 2.12084 0
M  V30 4682 C 455.688 -1.35191 1.03235 0
M  V30 4683 O 456.873 -1.43389 1.3097 0
M  V30 4684 C 454.003 -2.26548 2.63236 0
M  V30 4685 C 452.957 -2.03175 3.76701 0
M  V30 4686 C 452.283 -3.38138 4.14206 0
M  V30 4687 C 453.583 -1.38625 5.03568 0
M  V30 4688 H 455.277 -0.523145 2.94794 0
M  V30 4689 H 452.823 -0.250195 1.4181 0
M  V30 4690 H 454.776 -2.95952 2.99984 0
M  V30 4691 H 453.5 -2.74051 1.77661 0
M  V30 4692 H 452.159 -1.36195 3.40362 0
M  V30 4693 H 451.807 -3.83363 3.25641 0
M  V30 4694 H 451.507 -3.23312 4.90656 0
M  V30 4695 H 453.031 -4.08841 4.53521 0
M  V30 4696 H 454.445 -1.98 5.38023 0
M  V30 4697 H 452.842 -1.34256 5.84889 0
M  V30 4698 H 453.912 -0.356722 4.83586 0
M  V30 4699 N 455.255 -1.55392 -0.262866 0
M  V30 4700 C 456.666 -1.67079 -0.833158 0
M  V30 4701 C 457.017 -0.604539 -1.86654 0
M  V30 4702 O 456.142 0.252138 -2.14926 0
M  V30 4703 C 456.737 -3.02891 -1.51797 0
M  V30 4704 C 455.296 -3.16571 -2.03617 0
M  V30 4705 C 454.443 -2.62909 -0.881701 0
M  V30 4706 H 457.394 -1.58652 -0.0389986 0
M  V30 4707 H 457.415 -2.96445 -2.38538 0
M  V30 4708 H 456.927 -3.80473 -0.765619 0
M  V30 4709 H 455.028 -2.43782 -2.81782 0
M  V30 4710 H 455.141 -4.23271 -2.24452 0
M  V30 4711 H 453.505 -2.20324 -1.27786 0
M  V30 4712 H 454.288 -3.43003 -0.14269 0
M  V30 4713 N 456.733 0.527833 -1.48498 0
M  V30 4714 C 457.981 1.28101 -1.56316 0
M  V30 4715 C 458.302 1.9352 -0.239781 0
M  V30 4716 O 457.572 1.81433 0.738849 0
M  V30 4717 H 456.152 0.475793 -0.575873 0
M  V30 4718 H 458.814 0.614052 -1.84974 0
M  V30 4719 H 457.91 2.05916 -2.34532 0
M  V30 4720 N 458.211 1.37122 0.776871 0
M  V30 4721 C 459.46 1.31373 1.53049 0
M  V30 4722 C 459.773 -0.101016 1.95339 0
M  V30 4723 O 460.979 -0.280953 2.70042 0
M  V30 4724 C 459.435 2.30567 2.76346 0
M  V30 4725 C 459.043 3.77543 2.41175 0
M  V30 4726 C 460.787 2.33818 3.54301 0
M  V30 4727 C 458.694 4.68481 3.60943 0
M  V30 4728 H 457.624 0.488234 0.574581 0
M  V30 4729 H 460.275 1.62554 0.851372 0
M  V30 4730 H 458.657 1.92396 3.46121 0
M  V30 4731 H 459.831 4.24521 1.79216 0
M  V30 4732 H 458.146 3.77187 1.76405 0
M  V30 4733 H 460.743 2.98965 4.4331 0
M  V30 4734 H 461.086 1.3503 3.93793 0
M  V30 4735 H 461.619 2.7067 2.91518 0
M  V30 4736 H 458.358 5.68378 3.26537 0
M  V30 4737 H 457.878 4.2621 4.22025 0
M  V30 4738 H 459.557 4.85366 4.27819 0
M  V30 4739 N 459.689 -1.00246 1.21608 0
M  V30 4740 C 460.937 -1.73717 1.0328 0
M  V30 4741 C 461.258 -1.90102 -0.434318 0
M  V30 4742 O 460.528 -1.45376 -1.31311 0
M  V30 4743 H 459.108 -0.643613 0.379172 0
M  V30 4744 H 461.77 -1.20787 1.52959 0
M  V30 4745 H 460.866 -2.73535 1.50283 0
M  V30 4746 N 461.167 -1.02423 -1.1978 0
M  V30 4747 C 462.392 -0.7373 -1.93852 0
M  V30 4748 C 462.817 0.696923 -1.74713 0
M  V30 4749 O 462.175 1.48056 -1.04638 0
M  V30 4750 C 462.223 -1.08783 -3.438 0
M  V30 4751 O 461.327 -0.20383 -4.11896 0
M  V30 4752 H 460.668 -0.27284 -0.605355 0
M  V30 4753 H 463.198 -1.36966 -1.51992 0
M  V30 4754 H 463.208 -1.04276 -3.9445 0
M  V30 4755 H 461.883 -2.13274 -3.57053 0
M  V30 4756 H 460.46 -0.307091 -3.71633 0
M  V30 4757 N 462.645 1.35699 -0.801477 0
M  V30 4758 C 463.891 1.99208 -0.380022 0
M  V30 4759 C 464.224 1.63445 1.04878 0
M  V30 4760 O 463.499 0.895223 1.72673 0
M  V30 4761 C 463.782 3.55755 -0.557708 0
M  V30 4762 C 463.635 4.01332 -2.03107 0
M  V30 4763 C 464.954 4.40096 0.0197968 0
M  V30 4764 H 462.073 0.723667 -0.139552 0
M  V30 4765 H 464.715 1.60928 -1.01006 0
M  V30 4766 H 462.865 3.88494 -0.0213741 0
M  V30 4767 H 464.537 3.79026 -2.62939 0
M  V30 4768 H 462.78 3.52429 -2.52936 0
M  V30 4769 H 463.451 5.10234 -2.1063 0
M  V30 4770 H 465.927 4.13786 -0.438179 0
M  V30 4771 H 464.803 5.48735 -0.134477 0
M  V30 4772 H 465.064 4.2786 1.11303 0
M  V30 4773 N 464.123 0.554532 1.47522 0
M  V30 4774 C 465.056 -0.242442 2.26908 0
M  V30 4775 C 466.034 -0.922722 1.33883 0
M  V30 4776 O 467.218 -0.942244 1.63261 0
M  V30 4777 C 464.345 -1.34525 3.10839 0
M  V30 4778 C 463.391 -0.773805 4.19422 0
M  V30 4779 S 464.224 0.377525 5.34168 0
M  V30 4780 C 465.38 -0.727164 6.21662 0
M  V30 4781 H 465.613 0.431218 2.94156 0
M  V30 4782 H 463.146 0.3408 1.50592 0
M  V30 4783 H 465.104 -1.97683 3.59766 0
M  V30 4784 H 463.765 -1.99073 2.42958 0
M  V30 4785 H 462.958 -1.60187 4.77866 0
M  V30 4786 H 462.56 -0.218448 3.73361 0
M  V30 4787 H 464.852 -1.61992 6.57849 0
M  V30 4788 H 465.795 -0.180135 7.07871 0
M  V30 4789 H 466.203 -1.01863 5.55233 0
M  V30 4790 N 465.601 -1.54893 0.290851 0
M  V30 4791 C 466.849 -1.99538 -0.320756 0
M  V30 4792 C 467.17 -1.18075 -1.55188 0
M  V30 4793 O 466.44 -0.274162 -1.93972 0
M  V30 4794 H 465.02 -0.737052 -0.121507 0
M  V30 4795 H 467.682 -1.90755 0.399832 0
M  V30 4796 H 466.778 -3.06282 -0.599802 0
M  V30 4797 N 467.08 -0.0183926 -1.57589 0
M  V30 4798 C 468.329 0.66185 -1.90532 0
M  V30 4799 C 468.642 1.73904 -0.895366 0
M  V30 4800 O 469.848 2.47518 -1.11566 0
M  V30 4801 C 468.304 1.22844 -3.38286 0
M  V30 4802 C 467.912 0.185103 -4.47617 0
M  V30 4803 C 469.656 1.88581 -3.80312 0
M  V30 4804 C 467.563 0.762723 -5.86461 0
M  V30 4805 H 466.493 0.250972 -0.711006 0
M  V30 4806 H 469.144 -0.0819435 -1.83317 0
M  V30 4807 H 467.526 2.0235 -3.40398 0
M  V30 4808 H 468.7 -0.58671 -4.5705 0
M  V30 4809 H 467.015 -0.372889 -4.14727 0
M  V30 4810 H 469.612 2.32735 -4.81392 0
M  V30 4811 H 469.955 2.72408 -3.14801 0
M  V30 4812 H 470.488 1.15782 -3.80578 0
M  V30 4813 H 467.227 -0.0371713 -6.55489 0
M  V30 4814 H 466.747 1.50327 -5.80656 0
M  V30 4815 H 468.426 1.25576 -6.34697 0
M  V30 4816 N 468.558 1.5553 0.254621 0
M  V30 4817 C 469.521 1.88872 1.29846 0
M  V30 4818 C 470.521 0.764591 1.41459 0
M  V30 4819 O 471.711 1.03265 1.40293 0
M  V30 4820 C 468.843 2.11032 2.67728 0
M  V30 4821 H 470.036 2.82201 1.01502 0
M  V30 4822 H 467.589 1.48303 0.493556 0
M  V30 4823 H 468.324 1.20146 3.01223 0
M  V30 4824 H 468.109 2.92895 2.60682 0
M  V30 4825 H 469.599 2.38038 3.43115 0
M  V30 4826 N 470.036 -0.519951 1.48776 0
M  V30 4827 C 471.313 -1.28123 1.47797 0
M  V30 4828 C 471.693 -2.10196 0.195157 0
M  V30 4829 O 471.041 -2.13167 -0.822925 0
M  V30 4830 C 471.251 -2.15413 2.74587 0
M  V30 4831 C 472.599 -2.75225 3.23321 0
M  V30 4832 O 473.623 -2.25694 2.75574 0
M  V30 4833 O 472.482 -3.65346 4.06429 0
M  V30 4834 H 469.576 -0.578793 0.590701 0
M  V30 4835 H 472.122 -0.535779 1.6102 0
M  V30 4836 H 470.894 -1.54617 3.59457 0
M  V30 4837 H 470.517 -2.97186 2.64132 0
M  V30 4838 N 471.514 -1.37532 -0.769588 0
M  V30 4839 C 472.762 -1.32597 -1.5252 0
M  V30 4840 C 473.083 0.0884294 -1.94799 0
M  V30 4841 O 472.353 1.03289 -1.66458 0
M  V30 4842 H 470.933 -0.487846 -0.565699 0
M  V30 4843 H 473.595 -1.72044 -0.915806 0
M  V30 4844 H 472.691 -1.96643 -2.42359 0
M  V30 4845 N 472.992 0.995999 -1.22138 0
M  V30 4846 C 473.955 2.06711 -0.990109 0
M  V30 4847 C 474.955 1.60744 0.0422978 0
M  V30 4848 O 476.145 1.73095 -0.195895 0
M  V30 4849 C 473.277 3.37288 -0.49491 0
M  V30 4850 H 474.47 2.28661 -1.94047 0
M  V30 4851 H 472.023 1.16711 -1.03963 0
M  V30 4852 H 472.758 3.21022 0.459948 0
M  V30 4853 H 472.543 3.71986 -1.23971 0
M  V30 4854 H 474.033 4.16103 -0.353253 0
M  V30 4855 N 474.47 1.03057 1.19235 0
M  V30 4856 C 475.716 0.729098 1.89241 0
M  V30 4857 C 476.049 -0.740573 1.79525 0
M  V30 4858 O 475.324 -1.53946 1.18874 0
M  V30 4859 C 475.607 1.18304 3.40112 0
M  V30 4860 C 475.46 2.71406 3.5869 0
M  V30 4861 C 476.779 0.765161 4.33397 0
M  V30 4862 H 473.898 0.266338 0.687192 0
M  V30 4863 H 476.54 1.28079 1.40341 0
M  V30 4864 H 474.69 0.713672 3.81889 0
M  V30 4865 H 476.362 3.26303 3.26074 0
M  V30 4866 H 474.605 3.11717 3.01687 0
M  V30 4867 H 475.276 2.98225 4.64506 0
M  V30 4868 H 477.752 1.16889 3.99345 0
M  V30 4869 H 476.628 1.11065 5.37546 0
M  V30 4870 H 476.889 -0.332372 4.40849 0
M  V30 4871 N 475.948 -1.35272 0.808662 0
M  V30 4872 C 476.898 -2.27181 0.193124 0
M  V30 4873 C 477.882 -1.47871 -0.634265 0
M  V30 4874 O 479.074 -1.70048 -0.491182 0
M  V30 4875 C 476.203 -3.36979 -0.655751 0
M  V30 4876 C 475.289 -4.23712 0.181481 0
M  V30 4877 N 475.68 -4.90225 1.24551 0
M  V30 4878 C 473.978 -4.45985 -0.0365493 0
M  V30 4879 C 474.679 -5.54537 1.75682 0
M  V30 4880 N 473.655 -5.33107 1.06294 0
M  V30 4881 H 477.457 -2.76101 1.00724 0
M  V30 4882 H 474.971 -1.48823 0.650029 0
M  V30 4883 H 476.968 -4.01774 -1.11279 0
M  V30 4884 H 475.628 -2.89611 -1.46819 0
M  V30 4885 H 476.639 -4.91641 1.62818 0
M  V30 4886 H 473.316 -4.09409 -0.817964 0
M  V30 4887 H 474.706 -6.17597 2.64621 0
M  V30 4888 N 477.426 -0.562348 -1.47226 0
M  V30 4889 C 478.376 0.202967 -2.27095 0
M  V30 4890 C 479.36 0.880611 -1.34663 0
M  V30 4891 O 480.552 0.778069 -1.58981 0
M  V30 4892 C 477.681 1.22906 -3.20545 0
M  V30 4893 C 476.767 0.554566 -4.20459 0
M  V30 4894 N 477.158 -0.378295 -5.04383 0
M  V30 4895 C 475.456 0.807854 -4.38623 0
M  V30 4896 C 476.157 -0.770583 -5.76573 0
M  V30 4897 N 475.133 -0.124263 -5.43458 0
M  V30 4898 H 478.935 -0.514196 -2.89367 0
M  V30 4899 H 476.449 -0.382655 -1.57827 0
M  V30 4900 H 478.446 1.79134 -3.76453 0
M  V30 4901 H 477.106 1.94726 -2.59831 0
M  V30 4902 H 478.117 -0.75274 -5.124 0
M  V30 4903 H 474.794 1.51418 -3.89075 0
M  V30 4904 H 476.184 -1.53742 -6.54074 0
M  V30 4905 N 478.904 1.54736 -0.299062 0
M  V30 4906 C 479.852 2.24897 0.593658 0
M  V30 4907 C 480.846 1.25429 1.13859 0
M  V30 4908 O 482.052 1.43286 1.08945 0
M  V30 4909 H 478.427 0.72207 0.210046 0
M  V30 4910 H 480.398 2.98393 -0.0206421 0
M  V30 4911 C 479.147 3.00159 1.75499 0
M  V30 4912 H 478.47 3.76501 1.34489 0
M  V30 4913 H 479.91 3.52535 2.35574 0
M  V30 4914 C 478.369 2.07015 2.65794 0
M  V30 4915 O 478.899 1.63692 3.66835 0
M  V30 4916 N 477.105 1.73012 2.33485 0
M  V30 4917 H 476.652 2.08439 1.51364 0
M  V30 4918 H 476.61 1.10965 2.94167 0
M  V30 4919 N 480.382 0.0267497 1.57577 0
M  V30 4920 C 481.61 -0.662661 1.96001 0
M  V30 4921 C 482.025 -1.65799 0.903117 0
M  V30 4922 O 481.382 -1.82135 -0.115317 0
M  V30 4923 C 481.433 -1.37112 3.34488 0
M  V30 4924 O 481.154 -0.415683 4.36123 0
M  V30 4925 C 482.655 -2.15257 3.8753 0
M  V30 4926 H 479.875 -0.18287 0.6456 0
M  V30 4927 H 482.419 0.0858116 2.0432 0
M  V30 4928 H 480.574 -2.07101 3.27395 0
M  V30 4929 H 480.988 -0.918496 5.16395 0
M  V30 4930 H 482.462 -2.60285 4.86781 0
M  V30 4931 H 482.939 -2.99063 3.21649 0
M  V30 4932 H 483.545 -1.50231 3.97883 0
M  V30 4933 N 481.861 -1.55662 -0.24637 0
M  V30 4934 C 482.771 -1.93495 -1.32653 0
M  V30 4935 C 483.787 -0.835462 -1.5263 0
M  V30 4936 O 484.963 -1.1369 -1.66242 0
M  V30 4937 C 482.028 -2.22242 -2.66101 0
M  V30 4938 C 481.089 -3.45625 -2.54641 0
M  V30 4939 C 480.322 -3.72991 -3.81724 0
M  V30 4940 O 480.545 -3.02421 -4.8363 0
M  V30 4941 O 479.479 -4.66515 -3.80325 0
M  V30 4942 H 483.305 -2.85498 -1.03559 0
M  V30 4943 H 480.89 -1.42551 -0.44717 0
M  V30 4944 H 482.772 -2.42037 -3.44958 0
M  V30 4945 H 481.447 -1.33417 -2.94926 0
M  V30 4946 H 480.354 -3.31136 -1.74067 0
M  V30 4947 H 481.687 -4.34754 -2.3076 0
M  V30 4948 N 483.339 0.512053 -1.4905 0
M  V30 4949 C 484.249 1.64139 -1.67617 0
M  V30 4950 C 485.265 1.64786 -0.558701 0
M  V30 4951 O 486.441 1.8341 -0.832034 0
M  V30 4952 C 483.506 3.00548 -1.72835 0
M  V30 4953 C 482.567 3.10615 -2.96339 0
M  V30 4954 C 481.8 4.40517 -3.01298 0
M  V30 4955 O 482.023 5.28671 -2.14157 0
M  V30 4956 O 480.957 4.55325 -3.93653 0
M  V30 4957 H 484.783 1.51407 -2.63267 0
M  V30 4958 H 482.368 0.687131 -1.32661 0
M  V30 4959 H 484.25 3.81641 -1.78683 0
M  V30 4960 H 482.925 3.13566 -0.803616 0
M  V30 4961 H 481.832 2.2875 -2.96014 0
M  V30 4962 H 483.165 3.0252 -3.88256 0
M  V30 4963 N 484.817 1.37938 0.762283 0
M  V30 4964 C 486.066 1.32989 1.51647 0
M  V30 4965 C 486.379 -0.0802922 1.95435 0
M  V30 4966 O 487.585 -0.252295 2.70325 0
M  V30 4967 C 486.041 2.33485 2.73885 0
M  V30 4968 C 485.649 3.80079 2.37157 0
M  V30 4969 C 487.393 2.37563 3.51801 0
M  V30 4970 C 485.3 4.72283 3.55954 0
M  V30 4971 H 484.23 0.494301 0.56937 0
M  V30 4972 H 486.881 1.63448 0.834083 0
M  V30 4973 H 485.263 1.96056 3.44061 0
M  V30 4974 H 486.437 4.26398 1.74704 0
M  V30 4975 H 484.752 3.79037 1.72395 0
M  V30 4976 H 487.349 3.0365 4.40114 0
M  V30 4977 H 487.692 1.39199 3.92338 0
M  V30 4978 H 488.225 2.73747 2.8863 0
M  V30 4979 H 484.964 5.7181 3.2049 0
M  V30 4980 H 484.484 4.30663 4.1748 0
M  V30 4981 H 486.163 4.89876 4.22647 0
M  V30 4982 N 486.295 -0.989507 1.22664 0
M  V30 4983 C 487.541 -1.7321 1.05481 0
M  V30 4984 C 487.874 -1.89852 -0.408635 0
M  V30 4985 O 487.149 -1.44416 -1.30285 0
M  V30 4986 C 487.432 -3.1357 1.77047 0
M  V30 4987 C 487.285 -3.04555 3.31008 0
M  V30 4988 C 488.604 -4.12812 1.5256 0
M  V30 4989 H 485.723 -0.628697 0.384589 0
M  V30 4990 H 488.365 -1.15258 1.51049 0
M  V30 4991 H 486.515 -3.63046 1.3831 0
M  V30 4992 H 488.187 -2.62674 3.7921 0
M  V30 4993 H 486.43 -2.41278 3.6051 0
M  V30 4994 H 487.101 -4.03894 3.76263 0
M  V30 4995 H 489.577 -3.72106 1.86215 0
M  V30 4996 H 488.453 -5.09132 2.05124 0
M  V30 4997 H 488.714 -4.39711 0.458936 0
M  V30 4998 N 487.773 -1.03688 -1.18687 0
M  V30 4999 C 488.736 -0.629115 -2.20397 0
M  V30 5000 C 489.736 0.311495 -1.57754 0
M  V30 5001 O 490.926 0.0974107 -1.73927 0
M  V30 5002 C 488.058 0.0782231 -3.4081 0
M  V30 5003 H 489.251 -1.52915 -2.57987 0
M  V30 5004 H 486.804 -0.828988 -1.32505 0
M  V30 5005 H 487.539 0.992233 -3.08748 0
M  V30 5006 H 487.324 -0.597776 -3.87517 0
M  V30 5007 H 488.814 0.350156 -4.16129 0
M  V30 5008 N 489.251 1.34841 -0.815825 0
M  V30 5009 C 490.183 2.28409 -0.190265 0
M  V30 5010 C 491.196 1.50705 0.615771 0
M  V30 5011 O 492.385 1.72822 0.446616 0
M  V30 5012 C 489.485 3.30441 0.752446 0
M  V30 5013 C 488.658 4.37399 -0.00922152 0
M  V30 5014 C 487.717 5.19234 0.853351 0
M  V30 5015 O 486.743 5.68404 0.300919 0
M  V30 5016 N 487.945 5.38248 2.17416 0
M  V30 5017 H 490.71 2.82732 -0.994114 0
M  V30 5018 H 488.271 1.47289 -0.672129 0
M  V30 5019 H 490.263 3.82084 1.33394 0
M  V30 5020 H 488.833 2.76565 1.45707 0
M  V30 5021 H 488.053 3.86567 -0.771979 0
M  V30 5022 H 489.341 5.05992 -0.533807 0
M  V30 5023 H 488.739 4.99961 2.6468 0
M  V30 5024 H 487.296 5.93035 2.70467 0
M  V30 5025 N 490.729 0.570148 1.46925 0
M  V30 5026 C 491.954 0.0542592 2.07329 0
M  V30 5027 C 492.379 -1.23582 1.41806 0
M  V30 5028 O 491.737 -1.74341 0.497479 0
M  V30 5029 C 491.785 -0.111175 3.60429 0
M  V30 5030 O 490.889 -1.17071 3.95434 0
M  V30 5031 H 490.23 0.0571425 0.661537 0
M  V30 5032 H 492.76 0.789516 1.88753 0
M  V30 5033 H 492.77 -0.321315 4.06733 0
M  V30 5034 H 491.445 0.831012 4.07513 0
M  V30 5035 H 490.022 -0.940029 3.60857 0
M  V30 5036 N 492.207 -1.54576 0.307264 0
M  V30 5037 C 493.456 -1.99442 -0.300976 0
M  V30 5038 C 493.769 -1.19928 -1.5452 0
M  V30 5039 O 494.975 -1.55092 -2.22842 0
M  V30 5040 C 493.431 -3.55084 -0.586809 0
M  V30 5041 C 493.039 -4.43413 0.639438 0
M  V30 5042 C 494.783 -4.0846 -1.1559 0
M  V30 5043 C 492.69 -5.90499 0.326411 0
M  V30 5044 H 491.62 -0.744986 -0.116238 0
M  V30 5045 H 494.271 -1.787 0.416947 0
M  V30 5046 H 492.653 -3.71749 -1.36449 0
M  V30 5047 H 493.827 -4.38522 1.41545 0
M  V30 5048 H 492.142 -4.00842 1.1276 0
M  V30 5049 H 494.739 -5.15926 -1.40445 0
M  V30 5050 H 495.082 -3.59443 -2.10015 0
M  V30 5051 H 495.615 -3.95362 -0.439778 0
M  V30 5052 H 492.354 -6.43676 1.23939 0
M  V30 5053 H 491.874 -5.98382 -0.412212 0
M  V30 5054 H 493.553 -6.46962 -0.0697393 0
M  V30 5055 N 493.685 -0.035106 -1.57561 0
M  V30 5056 C 494.648 0.929819 -2.09492 0
M  V30 5057 C 495.648 1.25026 -1.01119 0
M  V30 5058 O 496.838 1.18961 -1.27255 0
M  V30 5059 C 493.97 2.24457 -2.56577 0
M  V30 5060 H 495.163 0.479935 -2.96035 0
M  V30 5061 H 492.716 0.213033 -1.54841 0
M  V30 5062 H 493.451 2.74061 -1.73382 0
M  V30 5063 H 493.236 2.02508 -3.35757 0
M  V30 5064 H 494.726 2.93607 -2.96959 0
M  V30 5065 N 495.163 1.55791 0.238111 0
M  V30 5066 C 496.093 1.94068 1.29846 0
M  V30 5067 C 497.074 0.806726 1.49753 0
M  V30 5068 O 498.259 1.06772 1.62214 0
M  V30 5069 C 495.389 2.24302 2.65153 0
M  V30 5070 C 494.343 3.40032 2.59927 0
M  V30 5071 C 493.669 3.55829 3.99111 0
M  V30 5072 C 494.969 4.75476 2.16148 0
M  V30 5073 H 496.663 2.82887 0.980563 0
M  V30 5074 H 494.209 1.36105 0.470253 0
M  V30 5075 H 496.162 2.4967 3.39475 0
M  V30 5076 H 494.886 1.32318 2.98596 0
M  V30 5077 H 493.545 3.14687 1.88063 0
M  V30 5078 H 493.193 2.6125 4.29834 0
M  V30 5079 H 492.893 4.3366 3.96501 0
M  V30 5080 H 494.417 3.83528 4.7512 0
M  V30 5081 H 495.831 5.00158 2.80205 0
M  V30 5082 H 494.228 5.56472 2.24631 0
M  V30 5083 H 495.298 4.71946 1.11333 0
M  V30 5084 N 496.642 -0.504142 1.49319 0
M  V30 5085 C 497.867 -1.28729 1.62615 0
M  V30 5086 C 498.292 -1.85752 0.296309 0
M  V30 5087 O 497.65 -1.65704 -0.735649 0
M  V30 5088 C 497.698 -2.39561 2.69524 0
M  V30 5089 O 496.802 -3.43324 2.28478 0
M  V30 5090 H 496.143 -0.380172 0.544395 0
M  V30 5091 H 498.673 -0.603872 1.95485 0
M  V30 5092 H 498.683 -2.8537 2.91595 0
M  V30 5093 H 497.358 -1.97423 3.66056 0
M  V30 5094 H 495.935 -3.03455 2.16725 0
M  V30 5095 N 498.12 -1.38341 -0.754957 0
M  V30 5096 C 499.345 -1.37882 -1.5493 0
M  V30 5097 C 499.77 0.0296385 -1.88077 0
M  V30 5098 O 499.128 1.01133 -1.50472 0
M  V30 5099 C 499.176 -2.23996 -2.82592 0
M  V30 5100 O 498.28 -1.65612 -3.77686 0
M  V30 5101 H 497.621 -0.470384 -0.468652 0
M  V30 5102 H 500.151 -1.82084 -0.933082 0
M  V30 5103 H 500.161 -2.37806 -3.3153 0
M  V30 5104 H 498.836 -3.26365 -2.57796 0
M  V30 5105 H 497.413 -1.60936 -3.36384 0
M  V30 5106 N 499.598 0.982988 -1.23187 0
M  V30 5107 C 500.528 2.09301 -1.03515 0
M  V30 5108 C 501.509 1.70035 0.0471136 0
M  V30 5109 O 502.694 1.93847 -0.117029 0
M  V30 5110 C 499.824 3.4167 -0.622791 0
M  V30 5111 C 498.778 3.94828 -1.65211 0
M  V30 5112 C 498.104 5.23362 -1.09527 0
M  V30 5113 C 499.404 4.2439 -3.04451 0
M  V30 5114 H 501.098 2.26016 -1.96359 0
M  V30 5115 H 498.644 1.08611 -0.945501 0
M  V30 5116 H 500.597 4.18746 -0.472233 0
M  V30 5117 H 499.321 3.24811 0.341329 0
M  V30 5118 H 497.98 3.19895 -1.79061 0
M  V30 5119 H 497.628 5.02852 -0.122211 0
M  V30 5120 H 497.328 5.59895 -1.783 0
M  V30 5121 H 498.852 6.03062 -0.956511 0
M  V30 5122 H 500.266 4.92225 -2.93917 0
M  V30 5123 H 498.663 4.72118 -3.70438 0
M  V30 5124 H 499.733 3.31765 -3.53638 0
M  V30 5125 N 501.076 1.04316 1.18135 0
M  V30 5126 C 502.009 0.580823 2.20685 0
M  V30 5127 C 502.987 -0.385943 1.57953 0
M  V30 5128 O 504.171 -0.299654 1.86103 0
M  V30 5129 C 501.298 -0.151162 3.38363 0
M  V30 5130 C 500.344 0.769247 4.19505 0
M  V30 5131 S 501.177 2.25352 4.85774 0
M  V30 5132 C 502.333 1.53246 6.0685 0
M  V30 5133 H 502.566 1.44968 2.5956 0
M  V30 5134 H 500.099 0.85434 1.28609 0
M  V30 5135 H 502.057 -0.567315 4.06561 0
M  V30 5136 H 500.718 -0.995936 2.97892 0
M  V30 5137 H 499.911 0.203335 5.0359 0
M  V30 5138 H 499.513 1.12436 3.56699 0
M  V30 5139 H 501.805 0.82689 6.72435 0
M  V30 5140 H 502.748 2.35044 6.67952 0
M  V30 5141 H 503.156 1.0237 5.5514 0
M  V30 5142 N 502.554 -1.34406 0.822964 0
M  V30 5143 C 503.8 -1.98578 0.411666 0
M  V30 5144 C 504.133 -1.65093 -1.02264 0
M  V30 5145 O 503.408 -0.92258 -1.71227 0
M  V30 5146 C 503.691 -3.54823 0.614235 0
M  V30 5147 C 503.544 -3.9805 2.09466 0
M  V30 5148 C 504.863 -4.40071 0.050221 0
M  V30 5149 H 501.982 -0.721355 0.151047 0
M  V30 5150 H 504.624 -1.59301 1.03554 0
M  V30 5151 H 502.774 -3.88411 0.0831774 0
M  V30 5152 H 504.446 -3.74795 2.68936 0
M  V30 5153 H 502.689 -3.4836 2.5851 0
M  V30 5154 H 503.36 -5.06819 2.18721 0
M  V30 5155 H 505.836 -4.13037 0.503953 0
M  V30 5156 H 504.712 -5.48452 0.221759 0
M  V30 5157 H 504.973 -4.29576 -1.04482 0
M  V30 5158 N 504.032 -0.577932 -1.46621 0
M  V30 5159 C 504.995 0.147805 -2.28723 0
M  V30 5160 C 505.995 0.823325 -1.38123 0
M  V30 5161 O 507.185 0.676011 -1.60548 0
M  V30 5162 C 504.317 1.21853 -3.18378 0
M  V30 5163 H 505.51 -0.573654 -2.94362 0
M  V30 5164 H 503.063 -0.335703 -1.52652 0
M  V30 5165 H 503.798 1.97173 -2.57475 0
M  V30 5166 H 503.583 0.738714 -3.85078 0
M  V30 5167 H 505.073 1.72768 -3.80186 0
M  V30 5168 N 505.51 1.54411 -0.315457 0
M  V30 5169 C 506.442 2.21527 0.588067 0
M  V30 5170 C 507.455 1.21263 1.08624 0
M  V30 5171 O 508.644 1.47777 1.00121 0
M  V30 5172 C 505.744 2.85963 1.81875 0
M  V30 5173 C 504.917 4.12291 1.46063 0
M  V30 5174 C 503.976 4.60396 2.54799 0
M  V30 5175 O 503.002 5.25265 2.19283 0
M  V30 5176 N 504.204 4.33935 3.85591 0
M  V30 5177 H 506.969 2.99697 0.013414 0
M  V30 5178 H 504.53 1.61308 -0.138295 0
M  V30 5179 H 506.522 3.15071 2.53993 0
M  V30 5180 H 505.092 2.11548 2.30144 0
M  V30 5181 H 504.312 3.90036 0.571445 0
M  V30 5182 H 505.6 4.9452 1.19695 0
M  V30 5183 H 504.998 3.81996 4.17248 0
M  V30 5184 H 503.555 4.67718 4.53964 0
M  V30 5185 N 506.988 0.0434614 1.5754 0
M  V30 5186 C 507.951 -0.918696 2.09982 0
M  V30 5187 C 508.951 -1.24488 1.01781 0
M  V30 5188 O 510.141 -1.18284 1.27885 0
M  V30 5189 C 507.273 -2.23093 2.57764 0
M  V30 5190 H 508.466 -0.464229 2.96285 0
M  V30 5191 H 506.019 -0.204818 1.54952 0
M  V30 5192 H 506.754 -2.73137 1.74832 0
M  V30 5193 H 506.539 -2.00724 3.36827 0
M  V30 5194 H 508.029 -2.92028 2.98512 0
M  V30 5195 N 508.466 -1.55915 -0.229846 0
M  V30 5196 C 509.715 -1.77742 -0.953455 0
M  V30 5197 C 510.028 -0.610524 -1.85828 0
M  V30 5198 O 511.234 -0.712219 -2.61992 0
M  V30 5199 C 509.69 -3.14738 -1.74551 0
M  V30 5200 C 509.298 -4.39126 -0.887242 0
M  V30 5201 C 511.042 -3.45895 -2.46084 0
M  V30 5202 C 508.949 -5.67149 -1.67617 0
M  V30 5203 H 507.879 -0.662648 -0.359741 0
M  V30 5204 H 510.53 -1.82322 -0.207576 0
M  V30 5205 H 508.912 -3.04311 -2.53399 0
M  V30 5206 H 510.086 -4.60588 -0.139892 0
M  V30 5207 H 508.401 -4.15427 -0.284443 0
M  V30 5208 H 510.998 -4.38767 -3.05594 0
M  V30 5209 H 511.341 -2.68007 -3.18556 0
M  V30 5210 H 511.874 -3.57614 -1.74233 0
M  V30 5211 H 508.613 -6.47906 -0.994881 0
M  V30 5212 H 508.133 -5.49763 -2.39836 0
M  V30 5213 H 509.812 -6.07025 -2.23898 0
M  V30 5214 N 509.944 0.496216 -1.49584 0
M  V30 5215 C 511.355 1.07765 -1.52459 0
M  V30 5216 C 511.706 1.93679 -0.31353 0
M  V30 5217 O 510.831 2.08588 0.576186 0
M  V30 5218 C 511.426 1.96111 -2.76271 0
M  V30 5219 C 509.985 2.49409 -2.81908 0
M  V30 5220 C 509.132 1.27142 -2.46435 0
M  V30 5221 H 512.083 0.279914 -1.56212 0
M  V30 5222 H 512.104 2.80862 -2.56704 0
M  V30 5223 H 511.616 1.33555 -3.64396 0
M  V30 5224 H 509.717 3.1559 -1.98074 0
M  V30 5225 H 509.83 2.86234 -3.84196 0
M  V30 5226 H 508.194 1.59818 -1.98319 0
M  V30 5227 H 508.977 0.662866 -3.3684 0
M  V30 5228 N 511.423 1.38739 0.74761 0
M  V30 5229 C 512.353 1.39173 1.87492 0
M  V30 5230 C 513.334 0.256794 1.6815 0
M  V30 5231 O 514.519 0.460762 1.88655 0
M  V30 5232 C 511.649 1.22197 3.25093 0
M  V30 5233 C 510.603 2.32957 3.59047 0
M  V30 5234 C 509.929 2.01082 4.95449 0
M  V30 5235 C 511.229 3.75237 3.6331 0
M  V30 5236 H 512.923 2.3351 1.87386 0
M  V30 5237 H 510.469 1.12399 0.900134 0
M  V30 5238 H 512.422 1.21124 4.03617 0
M  V30 5239 H 511.146 0.243241 3.25693 0
M  V30 5240 H 509.805 2.33226 2.82845 0
M  V30 5241 H 509.453 1.01678 4.92616 0
M  V30 5242 H 509.153 2.75267 5.19136 0
M  V30 5243 H 510.677 2.01638 5.76346 0
M  V30 5244 H 512.091 3.76966 4.31937 0
M  V30 5245 H 510.488 4.48677 3.98509 0
M  V30 5246 H 511.558 4.07122 2.634 0
M  V30 5247 N 512.901 -0.976442 1.23707 0
M  V30 5248 C 514.147 -1.72081 1.07312 0
M  V30 5249 C 514.48 -1.90275 -0.388476 0
M  V30 5250 O 513.755 -1.4579 -1.28746 0
M  V30 5251 C 514.038 -3.11675 1.80363 0
M  V30 5252 C 513.891 -3.01027 3.3422 0
M  V30 5253 C 515.21 -4.1117 1.5693 0
M  V30 5254 H 512.329 -0.624583 0.391236 0
M  V30 5255 H 514.971 -1.13649 1.52263 0
M  V30 5256 H 513.121 -3.61559 1.42153 0
M  V30 5257 H 514.793 -2.58637 3.81975 0
M  V30 5258 H 513.036 -2.3744 3.63049 0
M  V30 5259 H 513.707 -3.9988 3.80525 0
M  V30 5260 H 516.183 -3.7011 1.90151 0
M  V30 5261 H 515.059 -5.06928 2.10513 0
M  V30 5262 H 515.32 -4.392 0.505548 0
M  V30 5263 N 514.379 -1.04941 -1.1758 0
M  V30 5264 C 515.627 -0.756492 -1.87408 0
M  V30 5265 C 515.948 0.718478 -1.81281 0
M  V30 5266 O 515.218 1.519 -1.23706 0
M  V30 5267 H 513.798 -0.276841 -0.693807 0
M  V30 5268 H 516.46 -1.32803 -1.42652 0
M  V30 5269 H 515.556 -1.06918 -2.93215 0
M  V30 5270 N 515.857 1.33968 -0.830081 0
M  V30 5271 C 516.767 2.33164 -0.259207 0
M  V30 5272 C 517.783 1.62951 0.610164 0
M  V30 5273 O 518.959 1.94668 0.516369 0
M  V30 5274 C 516.024 3.42088 0.563598 0
M  V30 5275 C 515.085 4.28037 -0.329014 0
M  V30 5276 C 514.318 5.3176 0.454616 0
M  V30 5277 O 514.541 5.44876 1.6872 0
M  V30 5278 O 513.475 6.01669 -0.166794 0
M  V30 5279 H 517.301 2.83832 -1.08041 0
M  V30 5280 H 514.886 1.37154 -0.59239 0
M  V30 5281 H 516.768 4.08581 1.03147 0
M  V30 5282 H 515.443 2.93651 1.36201 0
M  V30 5283 H 514.35 3.64443 -0.844538 0
M  V30 5284 H 515.683 4.79934 -1.09196 0
M  V30 5285 N 517.335 0.585699 1.46312 0
M  V30 5286 C 518.265 -0.133556 2.33118 0
M  V30 5287 C 519.246 -0.880707 1.45525 0
M  V30 5288 O 520.431 -0.855579 1.74337 0
M  V30 5289 C 517.561 -1.14585 3.27853 0
M  V30 5290 C 516.515 -0.513341 4.2491 0
M  V30 5291 C 515.841 -1.63231 5.09175 0
M  V30 5292 C 517.141 0.551413 5.19381 0
M  V30 5293 H 518.835 0.59121 2.93505 0
M  V30 5294 H 516.381 0.285761 1.41136 0
M  V30 5295 H 518.334 -1.65741 3.87438 0
M  V30 5296 H 517.058 -1.90093 2.65579 0
M  V30 5297 H 515.717 -0.0228349 3.66593 0
M  V30 5298 H 515.365 -2.37713 4.43285 0
M  V30 5299 H 515.065 -1.21473 5.74907 0
M  V30 5300 H 516.589 -2.14658 5.71624 0
M  V30 5301 H 518.003 0.124804 5.73164 0
M  V30 5302 H 516.4 0.889486 5.93471 0
M  V30 5303 H 517.47 1.43655 4.63132 0
M  V30 5304 N 518.813 -1.54241 0.323641 0
M  V30 5305 C 520.059 -2.00867 -0.279323 0
M  V30 5306 C 520.392 -1.21146 -1.5178 0
M  V30 5307 O 519.667 -0.29378 -1.92269 0
M  V30 5308 C 519.95 -3.54837 -0.613387 0
M  V30 5309 C 519.803 -4.45284 0.635803 0
M  V30 5310 C 521.122 -4.16186 -1.43099 0
M  V30 5311 H 518.241 -0.730177 -0.100049 0
M  V30 5312 H 520.883 -1.84829 0.440235 0
M  V30 5313 H 519.033 -3.68634 -1.22641 0
M  V30 5314 H 520.705 -4.43357 1.27406 0
M  V30 5315 H 518.948 -4.14956 1.26466 0
M  V30 5316 H 519.619 -5.5084 0.357597 0
M  V30 5317 H 522.095 -4.05964 -0.912814 0
M  V30 5318 H 520.971 -5.24031 -1.6335 0
M  V30 5319 H 521.232 -3.69516 -2.42715 0
M  V30 5320 N 520.291 -0.0518155 -1.57515 0
M  V30 5321 C 521.568 0.661727 -1.84067 0
M  V30 5322 C 521.948 1.88999 -0.940351 0
M  V30 5323 O 521.296 2.285 -0.00155404 0
M  V30 5324 C 521.506 1.01841 -3.3381 0
M  V30 5325 C 522.854 1.40043 -4.00841 0
M  V30 5326 O 523.878 1.11073 -3.38439 0
M  V30 5327 O 522.737 1.94111 -5.10865 0
M  V30 5328 H 519.831 0.326702 -0.759733 0
M  V30 5329 H 522.377 -0.0812277 -1.69505 0
M  V30 5330 H 521.149 0.145202 -3.91031 0
M  V30 5331 H 520.772 1.81879 -3.53562 0
M  V30 5332 N 521.769 1.56035 0.221574 0
M  V30 5333 C 523.018 1.78245 0.944016 0
M  V30 5334 C 523.331 0.620371 1.85501 0
M  V30 5335 O 524.537 0.726103 2.6161 0
M  V30 5336 C 522.993 3.15659 1.7288 0
M  V30 5337 C 522.601 4.39591 0.863942 0
M  V30 5338 C 524.345 3.47195 2.44246 0
M  V30 5339 C 522.252 5.6803 1.64607 0
M  V30 5340 H 521.182 0.664547 0.356222 0
M  V30 5341 H 523.833 1.8243 0.197904 0
M  V30 5342 H 522.215 3.0565 2.51781 0
M  V30 5343 H 523.389 4.60655 0.115464 0
M  V30 5344 H 521.704 4.15572 0.262407 0
M  V30 5345 H 524.301 4.40381 3.03263 0
M  V30 5346 H 524.644 2.69693 3.1713 0
M  V30 5347 H 525.177 3.58533 1.72334 0
M  V30 5348 H 521.916 6.48425 0.960507 0
M  V30 5349 H 521.436 5.51027 2.36917 0
M  V30 5350 H 523.115 6.08203 2.20675 0
M  V30 5351 N 523.247 -0.488276 1.49845 0
M  V30 5352 C 524.495 -1.23911 1.59657 0
M  V30 5353 C 524.816 -1.92816 0.291005 0
M  V30 5354 O 524.086 -1.83328 -0.690485 0
M  V30 5355 H 522.666 -0.460357 0.588286 0
M  V30 5356 H 525.328 -0.564794 1.86537 0
M  V30 5357 H 524.424 -1.99625 2.39909 0
M  V30 5358 N 524.725 -1.39134 -0.740242 0
M  V30 5359 C 525.972 -1.36071 -1.49969 0
M  V30 5360 C 526.3 0.0450245 -1.94448 0
M  V30 5361 O 525.555 1.02482 -1.66721 0
M  V30 5362 C 525.854 -2.27457 -2.75678 0
M  V30 5363 C 525.52 -3.75185 -2.50094 0
M  V30 5364 C 524.182 -4.15439 -2.42825 0
M  V30 5365 C 526.534 -4.68643 -2.28086 0
M  V30 5366 C 523.862 -5.4722 -2.11584 0
M  V30 5367 C 526.214 -6.00695 -1.98363 0
M  V30 5368 C 524.878 -6.40018 -1.8956 0
M  V30 5369 H 524.148 -0.497921 -0.548777 0
M  V30 5370 H 526.795 -1.71599 -0.85007 0
M  V30 5371 H 525.1 -1.8503 -3.45356 0
M  V30 5372 H 526.797 -2.22384 -3.33686 0
M  V30 5373 H 523.387 -3.43279 -2.56627 0
M  V30 5374 H 527.571 -4.3838 -2.32672 0
M  V30 5375 H 522.827 -5.76615 -2.03287 0
M  V30 5376 H 527.001 -6.72644 -1.80341 0
M  V30 5377 H 524.628 -7.42051 -1.65117 0
M  V30 5378 N 526.204 0.969867 -1.24223 0
M  V30 5379 C 527.167 2.04564 -1.03373 0
M  V30 5380 C 528.167 1.60798 0.00819206 0
M  V30 5381 O 529.357 1.72641 -0.232567 0
M  V30 5382 C 526.489 3.36163 -0.566343 0
M  V30 5383 H 527.682 2.24494 -1.98853 0
M  V30 5384 H 525.235 1.1448 -1.06415 0
M  V30 5385 H 525.97 3.21925 0.391751 0
M  V30 5386 H 525.755 3.69273 -1.31834 0
M  V30 5387 H 527.245 4.1526 -0.441435 0
M  V30 5388 N 527.682 1.05563 1.17022 0
M  V30 5389 C 528.645 0.664098 2.19368 0
M  V30 5390 C 529.645 -0.286358 1.5823 0
M  V30 5391 O 530.835 -0.069728 1.7406 0
M  V30 5392 C 527.967 -0.0239932 3.40892 0
M  V30 5393 H 529.16 1.57 2.55521 0
M  V30 5394 H 526.713 0.849964 1.31169 0
M  V30 5395 H 527.448 -0.942988 3.10287 0
M  V30 5396 H 527.233 0.659351 3.86516 0
M  V30 5397 H 528.723 -0.283909 4.16634 0
M  V30 5398 N 529.16 -1.33526 0.837174 0
M  V30 5399 C 530.39 -2.01754 0.444848 0
M  V30 5400 C 530.798 -1.63149 -0.958072 0
M  V30 5401 O 530.141 -0.839827 -1.63379 0
M  V30 5402 C 530.203 -3.56228 0.483917 0
M  V30 5403 C 529.867 -4.18205 1.84265 0
M  V30 5404 C 530.864 -4.37699 2.80563 0
M  V30 5405 C 528.549 -4.54667 2.13503 0
M  V30 5406 C 530.543 -4.928 4.04261 0
M  V30 5407 C 528.23 -5.09475 3.37458 0
M  V30 5408 C 529.228 -5.28488 4.32654 0
M  V30 5409 O 528.916 -5.82132 5.54417 0
M  V30 5410 H 528.648 -0.652928 0.175104 0
M  V30 5411 H 531.202 -1.71469 1.13082 0
M  V30 5412 H 529.432 -3.85833 -0.258826 0
M  V30 5413 H 531.121 -4.05752 0.109653 0
M  V30 5414 H 531.887 -4.0988 2.59274 0
M  V30 5415 H 527.766 -4.39164 1.40201 0
M  V30 5416 H 531.31 -5.07555 4.78574 0
M  V30 5417 H 527.207 -5.36725 3.58604 0
M  V30 5418 H 527.975 -6.00548 5.56133 0
M  V30 5419 N 530.638 -0.59345 -1.46 0
M  V30 5420 C 531.586 0.146268 -2.3214 0
M  V30 5421 C 532.58 0.873743 -1.45128 0
M  V30 5422 O 533.786 0.790912 -1.61693 0
M  V30 5423 H 530.161 0.0660349 -0.749095 0
M  V30 5424 H 532.132 -0.598895 -2.92328 0
M  V30 5425 C 530.881 1.1396 -3.28494 0
M  V30 5426 H 530.204 0.589252 -3.95434 0
M  V30 5427 H 531.644 1.62738 -3.91526 0
M  V30 5428 C 530.103 2.20604 -2.54628 0
M  V30 5429 O 530.633 3.28128 -2.31722 0
M  V30 5430 N 528.839 1.95502 -2.15005 0
M  V30 5431 H 528.386 1.0807 -2.33834 0
M  V30 5432 H 528.344 2.67064 -1.65904 0
M  V30 5433 N 532.116 1.54067 -0.331816 0
M  V30 5434 C 533.363 2.00715 0.268269 0
M  V30 5435 C 533.691 1.21986 1.51491 0
M  V30 5436 O 532.946 0.292309 1.93505 0
M  V30 5437 C 533.245 3.51634 0.639392 0
M  V30 5438 C 532.911 4.48018 -0.509019 0
M  V30 5439 C 531.573 4.74089 -0.824209 0
M  V30 5440 C 533.925 5.05237 -1.28003 0
M  V30 5441 C 531.253 5.54637 -1.91298 0
M  V30 5442 C 533.605 5.86972 -2.35895 0
M  V30 5443 C 532.269 6.11342 -2.67987 0
M  V30 5444 H 531.539 0.734469 0.0981667 0
M  V30 5445 H 534.186 1.8596 -0.457304 0
M  V30 5446 H 532.491 3.6416 1.44551 0
M  V30 5447 H 534.188 3.85175 1.11539 0
M  V30 5448 H 530.778 4.27851 -0.253287 0
M  V30 5449 H 534.962 4.8507 -1.04978 0
M  V30 5450 H 530.218 5.71747 -2.16599 0
M  V30 5451 H 534.392 6.30327 -2.96076 0
M  V30 5452 H 532.019 6.73544 -3.5248 0
M  V30 5453 N 533.594 0.0601682 1.57485 0
M  V30 5454 C 534.84 -0.612501 1.93329 0
M  V30 5455 C 535.173 -1.6996 0.939526 0
M  V30 5456 O 534.448 -1.94472 -0.0330957 0
M  V30 5457 C 534.731 -1.20025 3.39508 0
M  V30 5458 C 534.584 -0.12059 4.49638 0
M  V30 5459 C 535.903 -2.10923 3.86264 0
M  V30 5460 H 533.022 -0.221185 0.703027 0
M  V30 5461 H 535.664 0.123768 1.89596 0
M  V30 5462 H 533.814 -1.82774 3.42821 0
M  V30 5463 H 535.486 0.51185 4.58452 0
M  V30 5464 H 533.729 0.550251 4.30296 0
M  V30 5465 H 534.4 -0.572019 5.49028 0
M  V30 5466 H 536.876 -1.58124 3.84884 0
M  V30 5467 H 535.752 -2.48987 4.8918 0
M  V30 5468 H 536.013 -3.01292 3.23536 0
M  V30 5469 N 535.072 -1.5615 -0.213296 0
M  V30 5470 C 535.982 -1.96265 -1.28519 0
M  V30 5471 C 536.998 -0.86765 -1.50824 0
M  V30 5472 O 538.174 -1.17191 -1.63793 0
M  V30 5473 C 535.239 -2.27836 -2.61327 0
M  V30 5474 C 534.3 -3.50949 -2.47252 0
M  V30 5475 C 533.533 -3.81004 -3.73727 0
M  V30 5476 O 533.756 -3.12612 -4.77106 0
M  V30 5477 O 532.69 -4.74477 -3.70344 0
M  V30 5478 H 536.516 -2.87631 -0.974795 0
M  V30 5479 H 534.101 -1.43467 -0.416832 0
M  V30 5480 H 535.983 -2.49299 -3.39747 0
M  V30 5481 H 534.658 -1.39643 -2.9203 0
M  V30 5482 H 533.565 -3.34754 -1.67004 0
M  V30 5483 H 534.898 -4.39551 -2.21486 0
M  V30 5484 N 536.55 0.480323 -1.50102 0
M  V30 5485 C 537.775 1.26126 -1.64642 0
M  V30 5486 C 538.2 1.85257 -0.325823 0
M  V30 5487 O 537.558 1.66854 0.709194 0
M  V30 5488 C 537.606 2.35243 -2.73301 0
M  V30 5489 O 536.71 3.39646 -2.33911 0
M  V30 5490 H 536.051 0.371463 -0.550374 0
M  V30 5491 H 538.581 0.572696 -1.96421 0
M  V30 5492 H 538.591 2.80695 -2.96098 0
M  V30 5493 H 537.266 1.91574 -3.6915 0
M  V30 5494 H 535.843 2.99969 -2.21525 0
M  V30 5495 N 538.028 1.39524 0.732853 0
M  V30 5496 C 539.277 1.36175 1.48792 0
M  V30 5497 C 539.59 -0.0388195 1.95561 0
M  V30 5498 O 540.796 -0.194899 2.708 0
M  V30 5499 C 539.252 2.39242 2.68871 0
M  V30 5500 C 538.86 3.85024 2.29042 0
M  V30 5501 C 540.604 2.44972 3.46683 0
M  V30 5502 C 538.511 4.79727 3.45856 0
M  V30 5503 H 537.441 0.506267 0.558757 0
M  V30 5504 H 540.092 1.65181 0.799226 0
M  V30 5505 H 538.474 2.0331 3.39825 0
M  V30 5506 H 539.648 4.30008 1.6562 0
M  V30 5507 H 537.963 3.82609 1.64316 0
M  V30 5508 H 540.56 3.12918 4.33574 0
M  V30 5509 H 540.903 1.4749 3.89297 0
M  V30 5510 H 541.436 2.79808 2.82759 0
M  V30 5511 H 538.175 5.78479 3.08289 0
M  V30 5512 H 537.695 4.39421 4.08251 0
M  V30 5513 H 539.374 4.98731 4.12161 0
M  V30 5514 N 539.506 -0.963266 1.24736 0
M  V30 5515 C 540.755 -1.70115 1.08369 0
M  V30 5516 C 541.068 -1.91939 -0.376688 0
M  V30 5517 O 542.274 -2.6334 -0.660624 0
M  V30 5518 C 540.73 -3.06218 1.89099 0
M  V30 5519 C 540.338 -2.92221 3.39574 0
M  V30 5520 C 542.082 -3.83848 1.81275 0
M  V30 5521 C 539.989 -4.23662 4.12631 0
M  V30 5522 H 538.919 -0.637944 0.401924 0
M  V30 5523 H 541.57 -1.07304 1.48856 0
M  V30 5524 H 539.952 -3.69884 1.41429 0
M  V30 5525 H 541.126 -2.37541 3.94856 0
M  V30 5526 H 539.441 -2.28054 3.48397 0
M  V30 5527 H 542.038 -4.81188 2.33158 0
M  V30 5528 H 542.381 -4.08949 0.778895 0
M  V30 5529 H 542.914 -3.26918 2.26649 0
M  V30 5530 H 539.653 -4.03753 5.16395 0
M  V30 5531 H 539.173 -4.78141 3.62135 0
M  V30 5532 H 540.852 -4.92256 4.19873 0
M  V30 5533 N 540.985 -1.06182 -1.16461 0
M  V30 5534 C 541.933 -0.665716 -2.2287 0
M  V30 5535 C 542.927 0.317822 -1.66392 0
M  V30 5536 O 544.133 0.182807 -1.79069 0
M  V30 5537 H 540.508 -0.197148 -0.725697 0
M  V30 5538 H 542.479 -1.57307 -2.53569 0
M  V30 5539 C 541.228 -0.0669803 -3.47635 0
M  V30 5540 H 540.551 -0.814899 -3.91407 0
M  V30 5541 H 541.991 0.172669 -4.23648 0
M  V30 5542 C 540.45 1.18913 -3.15216 0
M  V30 5543 O 540.98 2.27723 -3.30916 0
M  V30 5544 N 539.186 1.09066 -2.69357 0
M  V30 5545 H 538.733 0.20518 -2.56782 0
M  V30 5546 H 538.691 1.93195 -2.48039 0
M  V30 5547 N 542.463 1.3308 -0.844243 0
M  V30 5548 C 543.393 2.3161 -0.296493 0
M  V30 5549 C 544.374 1.59215 0.598707 0
M  V30 5550 O 545.559 1.87077 0.521134 0
M  V30 5551 C 542.689 3.43313 0.524762 0
M  V30 5552 C 541.643 4.27115 -0.275106 0
M  V30 5553 C 540.969 5.30483 0.670236 0
M  V30 5554 C 542.269 5.00443 -1.49514 0
M  V30 5555 H 543.963 2.77672 -1.11976 0
M  V30 5556 H 541.509 1.33496 -0.539899 0
M  V30 5557 H 543.462 4.11273 0.918298 0
M  V30 5558 H 542.186 2.95952 1.3813 0
M  V30 5559 H 540.845 3.60787 -0.650267 0
M  V30 5560 H 540.493 4.79379 1.52332 0
M  V30 5561 H 540.193 5.87435 0.139123 0
M  V30 5562 H 541.717 6.01308 1.06117 0
M  V30 5563 H 543.131 5.61141 -1.17447 0
M  V30 5564 H 541.528 5.67071 -1.96343 0
M  V30 5565 H 542.598 4.28906 -2.26202 0
M  V30 5566 N 543.941 0.601185 1.45683 0
M  V30 5567 C 545.188 0.0938811 2.02282 0
M  V30 5568 C 545.516 -1.27315 1.47041 0
M  V30 5569 O 544.771 -1.85193 0.632623 0
M  V30 5570 C 545.07 -0.00222425 3.574 0
M  V30 5571 C 544.736 1.29963 4.31764 0
M  V30 5572 C 543.398 1.65625 4.51798 0
M  V30 5573 C 545.75 2.1603 4.74321 0
M  V30 5574 C 543.078 2.87119 5.11644 0
M  V30 5575 C 545.43 3.36766 5.3551 0
M  V30 5576 C 544.094 3.72689 5.53768 0
M  V30 5577 H 543.364 0.0343535 0.740203 0
M  V30 5578 H 546.011 0.781522 1.74827 0
M  V30 5579 H 544.316 -0.773096 3.84097 0
M  V30 5580 H 546.013 -0.410794 3.9889 0
M  V30 5581 H 542.603 1.01204 4.1648 0
M  V30 5582 H 546.787 1.89778 4.58582 0
M  V30 5583 H 542.043 3.15065 5.2397 0
M  V30 5584 H 546.217 4.03713 5.67441 0
M  V30 5585 H 543.844 4.66918 5.99909 0
M  V30 5586 N 545.419 -1.53889 0.339982 0
M  V30 5587 C 546.351 -2.22435 -0.55275 0
M  V30 5588 C 547.364 -1.22975 -1.06681 0
M  V30 5589 O 548.553 -1.49351 -0.977575 0
M  V30 5590 C 545.653 -2.8882 -1.77302 0
M  V30 5591 C 544.826 -4.14563 -1.39486 0
M  V30 5592 C 543.885 -4.64391 -2.47442 0
M  V30 5593 O 542.911 -5.28687 -2.10899 0
M  V30 5594 N 544.113 -4.40015 -3.78639 0
M  V30 5595 H 546.878 -2.9968 0.0342669 0
M  V30 5596 H 544.439 -1.61068 0.16394 0
M  V30 5597 H 546.431 -3.19072 -2.48948 0
M  V30 5598 H 545.001 -2.15182 -2.26749 0
M  V30 5599 H 544.221 -3.90896 -0.509321 0
M  V30 5600 H 545.509 -4.96362 -1.11813 0
M  V30 5601 H 544.907 -3.88586 -4.11118 0
M  V30 5602 H 543.464 -4.74881 -4.46465 0
M  V30 5603 N 546.897 -0.0685191 -1.57451 0
M  V30 5604 C 548.143 0.602239 -1.93652 0
M  V30 5605 C 548.476 1.6946 -0.948526 0
M  V30 5606 O 547.751 1.94487 0.022782 0
M  V30 5607 C 548.034 1.18223 -3.4014 0
M  V30 5608 C 547.887 0.0967431 -4.49696 0
M  V30 5609 C 549.206 2.08872 -3.87377 0
M  V30 5610 H 546.325 0.217453 -0.70419 0
M  V30 5611 H 548.967 -0.133821 -1.89528 0
M  V30 5612 H 547.117 1.80953 -3.43785 0
M  V30 5613 H 548.789 -0.536155 -4.58174 0
M  V30 5614 H 547.032 -0.573063 -4.29998 0
M  V30 5615 H 547.703 0.542894 -5.49324 0
M  V30 5616 H 550.179 1.56081 -3.85717 0
M  V30 5617 H 549.055 2.46389 -4.90493 0
M  V30 5618 H 549.316 2.99572 -3.25129 0
M  V30 5619 N 548.375 1.56261 0.205012 0
M  V30 5620 C 549.621 1.80306 0.9283 0
M  V30 5621 C 549.954 0.640932 1.83319 0
M  V30 5622 O 549.229 -0.359032 1.91158 0
M  V30 5623 C 549.512 3.14547 1.75306 0
M  V30 5624 C 549.365 4.41236 0.873562 0
M  V30 5625 C 550.684 3.45382 2.72762 0
M  V30 5626 H 547.803 0.655929 0.336044 0
M  V30 5627 H 550.445 1.88984 0.196211 0
M  V30 5628 H 548.595 3.0728 2.37721 0
M  V30 5629 H 550.267 4.60539 0.264887 0
M  V30 5630 H 548.51 4.33427 0.179773 0
M  V30 5631 H 549.181 5.31639 1.48541 0
M  V30 5632 H 551.657 3.52884 2.20481 0
M  V30 5633 H 550.533 4.40449 3.2756 0
M  V30 5634 H 550.794 2.68377 3.51321 0
M  V30 5635 N 549.853 -0.472356 1.50355 0
M  V30 5636 C 550.803 -1.56809 1.65514 0
M  V30 5637 C 551.787 -1.5261 0.509801 0
M  V30 5638 O 552.979 -1.59655 0.764145 0
M  V30 5639 C 550.108 -2.9526 1.75146 0
M  V30 5640 C 549.194 -3.04348 2.95353 0
M  V30 5641 N 549.585 -2.83253 4.19048 0
M  V30 5642 C 547.883 -3.35482 2.93884 0
M  V30 5643 C 548.584 -2.97273 5.00003 0
M  V30 5644 N 547.56 -3.27418 4.33934 0
M  V30 5645 H 551.362 -1.39197 2.58846 0
M  V30 5646 H 548.876 -0.67906 1.47521 0
M  V30 5647 H 550.873 -3.74044 1.8411 0
M  V30 5648 H 549.533 -3.1392 0.829717 0
M  V30 5649 H 550.544 -2.5886 4.48567 0
M  V30 5650 H 547.221 -3.60138 2.11204 0
M  V30 5651 H 548.611 -2.85214 6.08361 0
M  V30 5652 N 551.331 -1.39911 -0.725443 0
M  V30 5653 C 552.279 -1.39552 -1.86086 0
M  V30 5654 C 553.273 -0.277334 -1.67114 0
M  V30 5655 O 554.479 -0.447865 -1.74339 0
M  V30 5656 H 550.854 -0.435993 -0.612711 0
M  V30 5657 H 552.825 -2.35305 -1.83505 0
M  V30 5658 C 551.574 -1.26529 -3.2386 0
M  V30 5659 H 550.897 -2.11845 -3.3906 0
M  V30 5660 H 552.337 -1.30336 -4.03471 0
M  V30 5661 C 550.796 0.0254168 -3.3689 0
M  V30 5662 O 551.326 0.992048 -3.89257 0
M  V30 5663 N 549.532 0.0916528 -2.90455 0
M  V30 5664 H 549.079 -0.695675 -2.48028 0
M  V30 5665 H 549.037 0.954745 -2.99553 0
M  V30 5666 N 552.809 0.956637 -1.25245 0
M  V30 5667 C 554.034 1.74104 -1.12706 0
M  V30 5668 C 554.459 1.85436 0.315429 0
M  V30 5669 O 553.817 1.33334 1.22848 0
M  V30 5670 C 553.865 3.1338 -1.78396 0
M  V30 5671 O 552.969 3.98485 -1.06224 0
M  V30 5672 H 552.31 0.53476 -0.393609 0
M  V30 5673 H 554.84 1.19924 -1.65769 0
M  V30 5674 H 554.85 3.6385 -1.846 0
M  V30 5675 H 553.525 3.04448 -2.83345 0
M  V30 5676 H 552.102 3.56952 -1.07886 0
M  V30 5677 N 554.287 1.06798 1.15896 0
M  V30 5678 C 555.517 0.807522 1.90165 0
M  V30 5679 C 555.925 -0.642417 1.7796 0
M  V30 5680 O 555.268 -1.45193 1.12537 0
M  V30 5681 C 555.33 1.12939 3.41299 0
M  V30 5682 C 554.994 2.57879 3.7729 0
M  V30 5683 C 555.991 3.56118 3.78782 0
M  V30 5684 C 553.676 2.93311 4.07767 0
M  V30 5685 C 555.67 4.87827 4.10248 0
M  V30 5686 C 553.357 4.25219 4.38899 0
M  V30 5687 C 554.355 5.22287 4.4012 0
M  V30 5688 O 554.043 6.51826 4.70508 0
M  V30 5689 H 553.775 0.291946 0.609708 0
M  V30 5690 H 556.329 1.42627 1.47806 0
M  V30 5691 H 554.559 0.45359 3.84031 0
M  V30 5692 H 556.248 0.852363 3.9685 0
M  V30 5693 H 557.014 3.30086 3.55342 0
M  V30 5694 H 552.893 2.18409 4.05979 0
M  V30 5695 H 556.437 5.63586 4.11116 0
M  V30 5696 H 552.334 4.51006 4.61805 0
M  V30 5697 H 553.102 6.56893 4.88298 0
M  V30 5698 N 555.766 -1.3263 0.851289 0
M  V30 5699 C 556.714 -2.30882 0.282202 0
M  V30 5700 C 557.708 -1.58697 -0.592589 0
M  V30 5701 O 558.914 -1.73461 -0.480768 0
M  V30 5702 H 555.289 -0.748492 0.0725487 0
M  V30 5703 H 557.26 -2.76374 1.12516 0
M  V30 5704 C 556.009 -3.43828 -0.517449 0
M  V30 5705 H 555.332 -3.99532 0.146392 0
M  V30 5706 H 556.772 -4.1474 -0.88128 0
M  V30 5707 C 555.231 -2.90786 -1.70133 0
M  V30 5708 O 555.761 -2.88 -2.80034 0
M  V30 5709 N 553.967 -2.4723 -1.52728 0
M  V30 5710 H 553.514 -2.49695 -0.633257 0
M  V30 5711 H 553.472 -2.12094 -2.32085 0
M  V30 5712 N 557.244 -0.608902 -1.45362 0
M  V30 5713 C 558.66 -0.272659 -1.57254 0
M  V30 5714 C 558.86 1.22477 -1.60005 0
M  V30 5715 O 557.916 2.00785 -1.53106 0
M  V30 5716 C 559.229 -0.944991 -2.85465 0
M  V30 5717 C 560.777 -0.921033 -2.99142 0
M  V30 5718 C 561.252 -1.5734 -4.30126 0
M  V30 5719 N 562.743 -1.53895 -4.36887 0
M  V30 5720 C 563.478 -2.01286 -5.36909 0
M  V30 5721 N 562.974 -2.56768 -6.43461 0
M  V30 5722 N 564.767 -1.92046 -5.28275 0
M  V30 5723 H 556.918 -1.58117 -1.4182 0
M  V30 5724 H 559.181 -0.662437 -0.678146 0
M  V30 5725 H 558.887 -1.99941 -2.89338 0
M  V30 5726 H 558.761 -0.469079 -3.74272 0
M  V30 5727 H 561.148 0.124846 -2.94836 0
M  V30 5728 H 561.229 -1.43522 -2.11743 0
M  V30 5729 H 560.873 -2.61862 -4.35191 0
M  V30 5730 H 560.803 -1.03422 -5.16344 0
M  V30 5731 H 563.294 -1.13366 -3.60495 0
M  V30 5732 H 563.607 -2.9072 -7.16032 0
M  V30 5733 H 561.952 -2.60808 -6.44208 0
M  V30 5734 H 565.143 -1.48439 -4.43941 0
M  V30 5735 H 565.316 -2.29293 -6.06077 0
M  V30 5736 N 558.722 1.53707 -0.348139 0
M  V30 5737 C 560.133 1.86213 0.134797 0
M  V30 5738 C 560.484 1.26925 1.49614 0
M  V30 5739 O 559.609 0.584573 2.08355 0
M  V30 5740 C 560.204 3.37866 0.251371 0
M  V30 5741 C 558.763 3.70233 0.678543 0
M  V30 5742 C 557.91 2.76683 -0.184925 0
M  V30 5743 H 560.861 1.48204 -0.567571 0
M  V30 5744 H 560.882 3.64908 1.07806 0
M  V30 5745 H 560.394 3.80988 -0.739581 0
M  V30 5746 H 558.495 3.32659 1.67835 0
M  V30 5747 H 558.608 4.76836 0.465251 0
M  V30 5748 H 556.972 2.52374 0.343465 0
M  V30 5749 H 557.755 3.22635 -1.1731 0
M  V30 5750 N 560.2 0.0768682 1.57412 0
M  V30 5751 C 561.163 -0.873949 2.11884 0
M  V30 5752 C 562.163 -1.22301 1.04398 0
M  V30 5753 O 563.353 -1.15545 1.30365 0
M  V30 5754 C 560.485 -2.17575 2.62438 0
M  V30 5755 H 561.678 -0.401278 2.97203 0
M  V30 5756 H 559.231 -0.171904 1.55352 0
M  V30 5757 H 559.966 -2.69368 1.80587 0
M  V30 5758 H 559.751 -1.93534 3.41009 0
M  V30 5759 H 561.241 -2.85631 3.04639 0
M  V30 5760 N 561.678 -1.56367 -0.196722 0
M  V30 5761 C 562.908 -1.84371 -0.932254 0
M  V30 5762 C 563.316 -0.657013 -1.77426 0
M  V30 5763 O 562.659 0.383576 -1.79651 0
M  V30 5764 C 562.721 -3.06454 -1.87952 0
M  V30 5765 C 562.385 -4.40425 -1.21962 0
M  V30 5766 C 563.382 -5.16457 -0.597343 0
M  V30 5767 C 561.067 -4.8716 -1.22396 0
M  V30 5768 C 563.061 -6.37399 0.0117913 0
M  V30 5769 C 560.748 -6.08038 -0.610995 0
M  V30 5770 C 561.746 -6.83 0.00580487 0
M  V30 5771 O 561.434 -8.01589 0.609173 0
M  V30 5772 H 561.166 -0.616377 -0.277589 0
M  V30 5773 H 563.72 -2.04329 -0.209452 0
M  V30 5774 H 561.95 -2.82377 -2.64197 0
M  V30 5775 H 563.639 -3.21118 -2.48271 0
M  V30 5776 H 564.405 -4.81445 -0.586142 0
M  V30 5777 H 560.284 -4.2877 -1.69345 0
M  V30 5778 H 563.828 -6.9585 0.493836 0
M  V30 5779 H 559.725 -6.42519 -0.619693 0
M  V30 5780 H 560.493 -8.16935 0.505919 0
M  V30 5781 N 563.156 0.464375 -1.50603 0
M  V30 5782 C 564.381 1.24372 -1.65971 0
M  V30 5783 C 564.806 1.84901 -0.345453 0
M  V30 5784 O 564.164 1.67596 0.691457 0
M  V30 5785 C 564.212 2.32331 -2.7578 0
M  V30 5786 O 563.316 3.37146 -2.375 0
M  V30 5787 H 562.657 0.365604 -0.554283 0
M  V30 5788 H 565.187 0.55183 -1.97018 0
M  V30 5789 H 565.197 2.77539 -2.99059 0
M  V30 5790 H 563.872 1.87648 -3.71162 0
M  V30 5791 H 562.449 2.97602 -2.24694 0
M  V30 5792 N 564.634 1.40294 0.718013 0
M  V30 5793 C 566.045 1.34289 1.29705 0
M  V30 5794 C 566.396 0.0152228 1.96194 0
M  V30 5795 O 565.521 -0.88682 1.97394 0
M  V30 5796 C 566.116 2.43219 2.3586 0
M  V30 5797 C 564.675 2.40682 2.89394 0
M  V30 5798 C 563.822 2.24223 1.63154 0
M  V30 5799 H 566.773 1.50135 0.514312 0
M  V30 5800 H 566.794 2.10986 3.16647 0
M  V30 5801 H 566.306 3.39836 1.87439 0
M  V30 5802 H 564.407 1.47756 3.42051 0
M  V30 5803 H 564.52 3.36177 3.41353 0
M  V30 5804 H 562.884 1.71696 1.88129 0
M  V30 5805 H 563.667 3.22834 1.16761 0
M  V30 5806 N 566.112 -0.949982 1.2575 0
M  V30 5807 C 567.36 -1.6918 1.10555 0
M  V30 5808 C 567.681 -1.91773 -0.353298 0
M  V30 5809 O 566.951 -1.50814 -1.25027 0
M  V30 5810 H 565.531 -0.626952 0.406129 0
M  V30 5811 H 568.193 -1.1419 1.57945 0
M  V30 5812 H 567.289 -2.66915 1.61749 0
M  V30 5813 N 567.59 -1.07411 -1.15328 0
M  V30 5814 C 568.54 -0.664788 -2.18093 0
M  V30 5815 C 569.524 0.310395 -1.57878 0
M  V30 5816 O 570.716 0.124026 -1.76565 0
M  V30 5817 C 567.845 -0.0647822 -3.43239 0
M  V30 5818 C 566.931 -1.06514 -4.10506 0
M  V30 5819 N 567.322 -2.24491 -4.53252 0
M  V30 5820 C 565.62 -0.898613 -4.36853 0
M  V30 5821 C 566.321 -2.8796 -5.05424 0
M  V30 5822 N 565.297 -2.15622 -4.99007 0
M  V30 5823 H 569.099 -1.56333 -2.48872 0
M  V30 5824 H 566.613 -0.947393 -1.31902 0
M  V30 5825 H 568.61 0.246363 -4.16171 0
M  V30 5826 H 567.27 0.828866 -3.13943 0
M  V30 5827 H 568.281 -2.62205 -4.46619 0
M  V30 5828 H 564.958 -0.0579118 -4.1746 0
M  V30 5829 H 566.348 -3.88137 -5.48452 0
M  V30 5830 N 569.068 1.32177 -0.85831 0
M  V30 5831 C 570.015 2.28794 -0.303607 0
M  V30 5832 C 570.985 1.55213 0.591453 0
M  V30 5833 O 572.17 1.83418 0.525585 0
M  V30 5834 C 569.31 3.41475 0.49889 0
M  V30 5835 C 568.423 4.2993 -0.422373 0
M  V30 5836 C 567.558 5.29743 0.393111 0
M  V30 5837 C 566.597 6.09842 -0.525317 0
M  V30 5838 N 565.734 7.01643 0.253208 0
M  V30 5839 H 570.574 2.75631 -1.13276 0
M  V30 5840 H 568.111 1.35606 -0.570026 0
M  V30 5841 H 570.069 4.05531 0.979826 0
M  V30 5842 H 568.699 2.95779 1.29284 0
M  V30 5843 H 567.751 3.66422 -1.02171 0
M  V30 5844 H 569.063 4.85899 -1.12709 0
M  V30 5845 H 568.217 5.9942 0.937056 0
M  V30 5846 H 566.956 4.744 1.13117 0
M  V30 5847 H 565.961 5.39066 -1.08112 0
M  V30 5848 H 567.186 6.6727 -1.26205 0
M  V30 5849 H 565.132 6.48725 0.974295 0
M  V30 5850 H 565.049 7.54981 -0.392398 0
M  V30 5851 H 566.317 7.756 0.778761 0
M  V30 5852 N 570.547 0.616602 1.45037 0
M  V30 5853 C 571.775 0.121968 2.0654 0
M  V30 5854 C 572.19 -1.19743 1.45969 0
M  V30 5855 O 571.547 -1.73133 0.577168 0
M  V30 5856 C 571.598 -0.0145171 3.61497 0
M  V30 5857 O 571.319 1.25269 4.19809 0
M  V30 5858 C 572.82 -0.539555 4.40004 0
M  V30 5859 H 570.04 0.0729837 0.667019 0
M  V30 5860 H 572.584 0.846891 1.8614 0
M  V30 5861 H 570.739 -0.689809 3.81209 0
M  V30 5862 H 571.153 1.08816 5.13088 0
M  V30 5863 H 572.627 -0.584112 5.48901 0
M  V30 5864 H 573.104 -1.56368 4.10421 0
M  V30 5865 H 573.71 0.101995 4.25178 0
M  V30 5866 N 572.025 -1.5352 0.356285 0
M  V30 5867 C 573.441 -1.59599 0.00485267 0
M  V30 5868 C 573.641 -1.37179 -1.47595 0
M  V30 5869 O 572.697 -1.17234 -2.23635 0
M  V30 5870 C 574.01 -2.97277 0.452454 0
M  V30 5871 C 575.558 -3.10357 0.405881 0
M  V30 5872 C 576.033 -4.50432 0.829148 0
M  V30 5873 N 577.524 -4.5652 0.783838 0
M  V30 5874 C 578.259 -5.63077 1.08315 0
M  V30 5875 N 577.755 -6.77429 1.45126 0
M  V30 5876 N 579.548 -5.53014 1.00655 0
M  V30 5877 H 571.699 -1.66346 1.32071 0
M  V30 5878 H 573.962 -0.77971 0.539218 0
M  V30 5879 H 573.668 -3.18792 1.48542 0
M  V30 5880 H 573.542 -3.76836 -0.165762 0
M  V30 5881 H 575.929 -2.88558 -0.617934 0
M  V30 5882 H 576.01 -2.32828 1.05947 0
M  V30 5883 H 575.654 -4.72968 1.85103 0
M  V30 5884 H 575.584 -5.26378 0.152906 0
M  V30 5885 H 578.075 -3.74408 0.512513 0
M  V30 5886 H 578.388 -7.54669 1.66415 0
M  V30 5887 H 576.733 -6.78844 1.48983 0
M  V30 5888 H 579.924 -4.62557 0.718215 0
M  V30 5889 H 580.097 -6.35964 1.24315 0
M  V30 5890 N 573.503 -0.0852151 -1.57369 0
M  V30 5891 C 574.914 0.445428 -1.81309 0
M  V30 5892 C 575.265 1.68795 -1.00013 0
M  V30 5893 O 574.39 2.15211 -0.226573 0
M  V30 5894 C 574.985 0.814887 -3.28854 0
M  V30 5895 C 573.544 1.29032 -3.53592 0
M  V30 5896 C 572.691 0.282089 -2.75861 0
M  V30 5897 H 575.642 -0.310771 -1.55627 0
M  V30 5898 H 575.663 1.67524 -3.41637 0
M  V30 5899 H 575.175 -0.0896309 -3.87996 0
M  V30 5900 H 573.276 2.21289 -2.9977 0
M  V30 5901 H 573.389 1.25898 -4.62262 0
M  V30 5902 H 571.753 0.762182 -2.43029 0
M  V30 5903 H 572.536 -0.614936 -3.37748 0
M  V30 5904 N 574.981 1.5647 0.188427 0
M  V30 5905 C 575.931 1.91479 1.23774 0
M  V30 5906 C 576.915 0.78119 1.40664 0
M  V30 5907 O 578.107 1.04414 1.42922 0
M  V30 5908 C 575.236 2.26354 2.58106 0
M  V30 5909 C 574.322 3.46186 2.44981 0
M  V30 5910 N 574.713 4.63911 2.01546 0
M  V30 5911 C 573.011 3.50456 2.75856 0
M  V30 5912 C 573.712 5.46064 2.00472 0
M  V30 5913 N 572.688 4.86648 2.42229 0
M  V30 5914 H 576.49 2.79994 0.893339 0
M  V30 5915 H 574.004 1.57477 0.39682 0
M  V30 5916 H 576.001 2.49622 3.33908 0
M  V30 5917 H 574.661 1.39168 2.93364 0
M  V30 5918 H 575.672 4.88451 1.7215 0
M  V30 5919 H 572.349 2.73704 3.15265 0
M  V30 5920 H 573.739 6.50368 1.68734 0
M  V30 5921 N 576.459 -0.456382 1.50847 0
M  V30 5922 C 577.392 -1.57177 1.65441 0
M  V30 5923 C 578.37 -1.54649 0.502224 0
M  V30 5924 O 579.554 -1.74057 0.723633 0
M  V30 5925 C 576.681 -2.95763 1.65052 0
M  V30 5926 C 575.727 -3.16389 2.86007 0
M  V30 5927 S 576.56 -2.94716 4.47105 0
M  V30 5928 C 577.716 -4.35617 4.49432 0
M  V30 5929 H 577.949 -1.44561 2.59787 0
M  V30 5930 H 575.482 -0.644758 1.40293 0
M  V30 5931 H 577.44 -3.75654 1.65512 0
M  V30 5932 H 576.101 -3.05756 0.719153 0
M  V30 5933 H 575.294 -4.17667 2.82081 0
M  V30 5934 H 574.896 -2.44293 2.8319 0
M  V30 5935 H 577.188 -5.28503 4.239 0
M  V30 5936 H 578.131 -4.44582 5.51137 0
M  V30 5937 H 578.539 -4.18382 3.78967 0
M  V30 5938 N 577.937 -1.40673 -0.710563 0
M  V30 5939 C 578.9 -1.4108 -1.80635 0
M  V30 5940 C 579.9 -0.303783 -1.57904 0
M  V30 5941 O 581.09 -0.562937 -1.64853 0
M  V30 5942 C 578.222 -1.20748 -3.18799 0
M  V30 5943 H 579.415 -2.38612 -1.81671 0
M  V30 5944 H 576.968 -1.26595 -0.916704 0
M  V30 5945 H 577.703 -0.239964 -3.23411 0
M  V30 5946 H 577.488 -2.00941 -3.36698 0
M  V30 5947 H 578.978 -1.23833 -3.98817 0
M  V30 5948 N 579.415 0.9433 -1.26252 0
M  V30 5949 C 580.826 1.50404 -1.10614 0
M  V30 5950 C 581.177 1.93666 0.31429 0
M  V30 5951 O 580.302 1.79709 1.20555 0
M  V30 5952 C 580.897 2.73336 -2.00182 0
M  V30 5953 C 579.456 3.25686 -1.88695 0
M  V30 5954 C 578.603 1.98474 -1.93658 0
M  V30 5955 H 581.554 0.759006 -1.39373 0
M  V30 5956 H 581.575 3.47567 -1.54847 0
M  V30 5957 H 581.087 2.41818 -3.03555 0
M  V30 5958 H 579.188 3.61998 -0.882489 0
M  V30 5959 H 579.301 3.92935 -2.74115 0
M  V30 5960 H 577.665 2.14278 -1.37684 0
M  V30 5961 H 578.448 1.6929 -2.98657 0
M  V30 5962 N 580.893 1.08022 1.14757 0
M  V30 5963 C 581.826 0.650738 2.18725 0
M  V30 5964 C 582.804 -0.335496 1.59101 0
M  V30 5965 O 583.988 -0.240295 1.86962 0
M  V30 5966 C 581.115 -0.0434377 3.38672 0
M  V30 5967 C 580.161 0.90232 4.16846 0
M  V30 5968 S 580.994 2.40693 4.78359 0
M  V30 5969 C 582.15 1.72475 6.01667 0
M  V30 5970 H 582.383 1.53152 2.54817 0
M  V30 5971 H 579.916 0.894823 1.25826 0
M  V30 5972 H 581.874 -0.437684 4.0816 0
M  V30 5973 H 580.535 -0.900659 3.0091 0
M  V30 5974 H 579.728 0.363445 5.02688 0
M  V30 5975 H 579.33 1.23728 3.52941 0
M  V30 5976 H 581.622 1.0404 6.69464 0
M  V30 5977 H 582.565 2.56175 6.60136 0
M  V30 5978 H 582.973 1.19979 5.51602 0
M  V30 5979 N 582.371 -1.3172 0.865308 0
M  V30 5980 C 583.599 -2.01057 0.488251 0
M  V30 5981 C 584.014 -1.64979 -0.918 0
M  V30 5982 O 583.371 -0.876597 -1.60069 0
M  V30 5983 C 583.422 -3.55964 0.630224 0
M  V30 5984 O 583.143 -3.90749 1.98109 0
M  V30 5985 C 584.644 -4.42574 0.253567 0
M  V30 5986 H 581.864 -0.64332 0.190736 0
M  V30 5987 H 584.408 -1.68058 1.16519 0
M  V30 5988 H 582.563 -3.874 0.000895422 0
M  V30 5989 H 582.977 -4.85467 1.9855 0
M  V30 5990 H 584.451 -5.50521 0.403875 0
M  V30 5991 H 584.928 -4.31724 -0.806895 0
M  V30 5992 H 585.534 -4.16547 0.858404 0
M  V30 5993 N 583.85 -0.624285 -1.44708 0
M  V30 5994 C 584.782 0.12305 -2.28869 0
M  V30 5995 C 585.795 0.81557 -1.40898 0
M  V30 5996 O 586.984 0.678162 -1.65116 0
M  V30 5997 C 584.084 1.19612 -3.1709 0
M  V30 5998 C 583.257 0.587452 -4.33437 0
M  V30 5999 C 582.316 1.55358 -5.02743 0
M  V30 6000 O 581.341 1.07338 -5.58988 0
M  V30 6001 N 582.543 2.88798 -5.03563 0
M  V30 6002 H 585.308 -0.599193 -2.93649 0
M  V30 6003 H 582.87 -0.464954 -1.5508 0
M  V30 6004 H 584.861 1.84261 -3.60319 0
M  V30 6005 H 583.432 1.82067 -2.54107 0
M  V30 6006 H 582.652 -0.237509 -3.93484 0
M  V30 6007 H 583.94 0.161326 -5.08544 0
M  V30 6008 H 583.338 3.30399 -4.59188 0
M  V30 6009 H 581.894 3.48826 -5.50603 0
M  V30 6010 N 585.328 1.53329 -0.364422 0
M  V30 6011 C 586.556 2.05657 0.226424 0
M  V30 6012 C 586.971 1.23801 1.42544 0
M  V30 6013 O 586.328 0.27839 1.80364 0
M  V30 6014 C 586.379 3.56125 0.621056 0
M  V30 6015 O 586.1 4.34879 -0.530304 0
M  V30 6016 C 587.601 4.24706 1.27041 0
M  V30 6017 H 584.821 0.669806 0.0400056 0
M  V30 6018 H 587.365 1.97714 -0.522456 0
M  V30 6019 H 585.52 3.64223 1.31985 0
M  V30 6020 H 585.934 5.24073 -0.211546 0
M  V30 6021 H 587.408 5.3131 1.49711 0
M  V30 6022 H 587.885 3.78354 2.23036 0
M  V30 6023 H 588.491 4.20858 0.613079 0
M  V30 6024 N 586.806 0.0935595 1.57322 0
M  V30 6025 C 588.034 -0.578934 1.98635 0
M  V30 6026 C 588.449 -1.61819 0.972626 0
M  V30 6027 O 587.806 -1.82461 -0.0379638 0
M  V30 6028 C 587.857 -1.22802 3.40003 0
M  V30 6029 O 587.578 -0.230334 4.37494 0
M  V30 6030 C 589.079 -1.98627 3.96311 0
M  V30 6031 H 586.299 -0.155324 0.652775 0
M  V30 6032 H 588.843 0.172393 2.03772 0
M  V30 6033 H 586.998 -1.93029 3.35885 0
M  V30 6034 H 587.412 -0.698649 5.19826 0
M  V30 6035 H 588.886 -2.39405 4.97382 0
M  V30 6036 H 589.363 -2.85151 3.34044 0
M  V30 6037 H 589.969 -1.3322 4.03897 0
M  V30 6038 N 588.284 -1.56567 -0.180126 0
M  V30 6039 C 589.509 -1.85975 -0.918041 0
M  V30 6040 C 589.934 -0.678888 -1.75422 0
M  V30 6041 O 589.292 0.372168 -1.77439 0
M  V30 6042 C 589.34 -3.13731 -1.77779 0
M  V30 6043 O 588.444 -2.95335 -2.87838 0
M  V30 6044 H 587.785 -0.61196 -0.257683 0
M  V30 6045 H 590.315 -2.03798 -0.180923 0
M  V30 6046 H 590.325 -3.4491 -2.17948 0
M  V30 6047 H 589 -3.99293 -1.16352 0
M  V30 6048 H 587.577 -2.7549 -2.51316 0
M  V30 6049 N 589.762 0.448376 -1.51087 0
M  V30 6050 C 590.692 1.55102 -1.74544 0
M  V30 6051 C 591.673 1.59357 -0.594932 0
M  V30 6052 O 592.858 1.75261 -0.836491 0
M  V30 6053 C 589.988 2.93268 -1.86041 0
M  V30 6054 C 588.942 3.03877 -3.01402 0
M  V30 6055 C 588.268 4.43914 -2.98068 0
M  V30 6056 C 589.568 2.7898 -4.41551 0
M  V30 6057 H 591.262 1.35724 -2.66869 0
M  V30 6058 H 588.808 0.651498 -1.28419 0
M  V30 6059 H 590.761 3.70356 -2.01034 0
M  V30 6060 H 589.485 3.13853 -0.903548 0
M  V30 6061 H 588.144 2.29227 -2.86096 0
M  V30 6062 H 587.792 4.6145 -2.00182 0
M  V30 6063 H 587.492 4.51944 -3.75527 0
M  V30 6064 H 589.016 5.22991 -3.1514 0
M  V30 6065 H 590.43 3.45805 -4.57265 0
M  V30 6066 H 588.827 2.98431 -5.20633 0
M  V30 6067 H 589.897 1.74663 -4.5235 0
M  V30 6068 N 591.24 1.41047 0.703093 0
M  V30 6069 C 592.187 1.42302 1.81711 0
M  V30 6070 C 593.157 0.278336 1.63751 0
M  V30 6071 O 594.342 0.478266 1.84709 0
M  V30 6072 C 591.482 1.30362 3.19531 0
M  V30 6073 C 590.595 2.54638 3.48975 0
M  V30 6074 C 589.73 2.35047 4.76368 0
M  V30 6075 C 588.769 3.54837 4.98756 0
M  V30 6076 N 587.906 3.34363 6.1737 0
M  V30 6077 H 592.746 2.37516 1.79973 0
M  V30 6078 H 590.283 1.1795 0.878983 0
M  V30 6079 H 592.241 1.21443 3.99134 0
M  V30 6080 H 590.871 0.387602 3.20464 0
M  V30 6081 H 589.923 2.74037 2.63833 0
M  V30 6082 H 591.235 3.43766 3.61423 0
M  V30 6083 H 590.389 2.23552 5.64012 0
M  V30 6084 H 589.128 1.43363 4.66153 0
M  V30 6085 H 588.133 3.66795 4.09563 0
M  V30 6086 H 589.358 4.47464 5.10835 0
M  V30 6087 H 587.304 2.45373 6.08382 0
M  V30 6088 H 587.221 4.17063 6.30551 0
M  V30 6089 H 588.489 3.26626 7.07768 0
M  V30 6090 N 592.718 -0.936591 1.26751 0
M  V30 6091 C 593.946 -1.71758 1.15355 0
M  V30 6092 C 594.361 -1.86549 -0.290683 0
M  V30 6093 O 593.718 -1.37616 -1.19868 0
M  V30 6094 C 593.769 -3.12193 1.82258 0
M  V30 6095 O 593.49 -2.98105 3.21038 0
M  V30 6096 C 594.991 -4.06485 1.76875 0
M  V30 6097 H 592.211 -0.537636 0.401483 0
M  V30 6098 H 594.755 -1.17382 1.67457 0
M  V30 6099 H 592.91 -3.63456 1.34083 0
M  V30 6100 H 593.324 -3.86824 3.54214 0
M  V30 6101 H 594.798 -5.02569 2.28316 0
M  V30 6102 H 595.275 -4.32986 0.736216 0
M  V30 6103 H 595.881 -3.61144 2.24623 0
M  V30 6104 N 594.196 -1.08629 -1.14182 0
M  V30 6105 C 595.421 -0.83902 -1.89671 0
M  V30 6106 C 595.846 0.603332 -1.78161 0
M  V30 6107 O 595.204 1.42301 -1.12339 0
M  V30 6108 C 595.252 -1.26854 -3.37551 0
M  V30 6109 O 594.356 -0.42188 -4.10236 0
M  V30 6110 H 593.697 -0.304545 -0.590041 0
M  V30 6111 H 596.227 -1.4483 -1.44518 0
M  V30 6112 H 596.237 -1.25038 -3.88368 0
M  V30 6113 H 594.912 -2.31901 -3.45246 0
M  V30 6114 H 593.489 -0.503654 -3.69483 0
M  V30 6115 N 595.674 1.31259 -0.872281 0
M  V30 6116 C 596.92 1.973 -0.494414 0
M  V30 6117 C 597.275 1.67684 0.94339 0
M  V30 6118 O 596.568 0.964186 1.65572 0
M  V30 6119 C 596.762 3.50659 -0.690889 0
M  V30 6120 C 596.591 3.95179 -2.14624 0
M  V30 6121 C 595.361 4.21405 -2.7883 0
M  V30 6122 C 597.559 4.08948 -3.11875 0
M  V30 6123 N 595.541 4.52295 -4.15093 0
M  V30 6124 C 596.912 4.43576 -4.33174 0
M  V30 6125 C 598.967 3.91334 -3.07835 0
M  V30 6126 C 597.67 4.62429 -5.50956 0
M  V30 6127 C 599.696 4.11381 -4.24876 0
M  V30 6128 C 599.058 4.46343 -5.44938 0
M  V30 6129 H 595.157 0.747411 -0.230002 0
M  V30 6130 H 597.741 1.58741 -1.12736 0
M  V30 6131 H 595.912 3.88301 -0.0875162 0
M  V30 6132 H 597.644 4.03722 -0.281179 0
M  V30 6133 H 594.399 4.14131 -2.29767 0
M  V30 6134 H 594.823 4.71897 -4.8543 0
M  V30 6135 H 599.465 3.6339 -2.16119 0
M  V30 6136 H 597.183 4.8922 -6.43187 0
M  V30 6137 H 600.769 3.99235 -4.23205 0
M  V30 6138 H 599.649 4.6154 -6.33996 0
M  V30 6139 N 597.152 0.631951 1.44375 0
M  V30 6140 C 598.398 0.13697 2.02337 0
M  V30 6141 C 598.731 -1.23826 1.49602 0
M  V30 6142 O 598.006 -1.8221 0.680415 0
M  V30 6143 C 598.289 0.124536 3.59885 0
M  V30 6144 C 598.142 1.53217 4.229 0
M  V30 6145 C 599.461 -0.550481 4.36644 0
M  V30 6146 H 596.58 0.051247 0.735216 0
M  V30 6147 H 599.222 0.808581 1.71936 0
M  V30 6148 H 597.372 -0.44737 3.85916 0
M  V30 6149 H 599.044 2.15303 4.07973 0
M  V30 6150 H 597.287 2.0858 3.80364 0
M  V30 6151 H 597.958 1.4755 5.31914 0
M  V30 6152 H 600.434 -0.0641154 4.16051 0
M  V30 6153 H 599.31 -0.528371 5.46351 0
M  V30 6154 H 599.571 -1.62097 4.11311 0
M  V30 6155 N 598.631 -1.53133 0.372548 0
M  V30 6156 C 599.579 -2.27473 -0.485681 0
M  V30 6157 C 600.573 -1.30719 -1.07745 0
M  V30 6158 O 601.779 -1.48321 -1.01985 0
M  V30 6159 H 598.154 -0.731269 -0.175356 0
M  V30 6160 H 600.125 -2.97955 0.162986 0
M  V30 6161 C 598.874 -3.08191 -1.60978 0
M  V30 6162 H 598.197 -3.82488 -1.16373 0
M  V30 6163 H 599.637 -3.63373 -2.18485 0
M  V30 6164 C 598.096 -2.19461 -2.55614 0
M  V30 6165 O 598.626 -1.81008 -3.58607 0
M  V30 6166 N 596.832 -1.83955 -2.24965 0
M  V30 6167 H 596.379 -2.15423 -1.41247 0
M  V30 6168 H 596.337 -1.24874 -2.88538 0
M  V30 6169 N 600.109 -0.101901 -1.5727 0
M  V30 6170 C 601.349 0.563489 -1.96479 0
M  V30 6171 C 601.713 1.64926 -0.983021 0
M  V30 6172 O 602.914 2.37234 -1.26386 0
M  V30 6173 C 601.185 1.09809 -3.40113 0
M  V30 6174 S 602.744 1.7744 -4.01323 0
M  V30 6175 H 599.562 0.183675 -0.686866 0
M  V30 6176 H 602.164 -0.182922 -1.94642 0
M  V30 6177 H 600.868 0.296447 -4.09328 0
M  V30 6178 H 600.399 1.88018 -3.45562 0
M  V30 6179 H 602.414 3.0591 -3.90683 0
M  V30 6180 N 601.587 1.56661 0.17182 0
M  V30 6181 C 602.812 1.86459 0.908165 0
M  V30 6182 C 603.237 0.688181 1.75059 0
M  V30 6183 O 602.595 -0.362753 1.77634 0
M  V30 6184 C 602.643 3.14669 1.76112 0
M  V30 6185 O 601.747 2.96858 2.86268 0
M  V30 6186 H 601.088 0.613318 0.254434 0
M  V30 6187 H 603.618 2.03892 0.170113 0
M  V30 6188 H 603.628 3.46061 2.16115 0
M  V30 6189 H 602.303 3.99905 1.14233 0
M  V30 6190 H 600.88 2.76819 2.49852 0
M  V30 6191 N 603.065 -0.440357 1.51323 0
M  V30 6192 C 604.013 -1.55492 1.72988 0
M  V30 6193 C 605.007 -1.58564 0.596138 0
M  V30 6194 O 606.213 -1.62345 0.777443 0
M  V30 6195 H 602.588 -0.516532 0.546533 0
M  V30 6196 H 604.559 -1.34392 2.66423 0
M  V30 6197 C 603.308 -2.93176 1.86931 0
M  V30 6198 H 602.631 -2.91543 2.73574 0
M  V30 6199 H 604.071 -3.70537 2.06103 0
M  V30 6200 C 602.53 -3.30988 0.628365 0
M  V30 6201 O 603.06 -4.01106 -0.218367 0
M  V30 6202 N 601.266 -2.86719 0.473339 0
M  V30 6203 H 600.813 -2.2983 1.16345 0
M  V30 6204 H 600.771 -3.12381 -0.355727 0
M  V30 6205 N 604.543 -1.41418 -0.695603 0
M  V30 6206 C 605.476 -1.3768 -1.81988 0
M  V30 6207 C 606.454 -0.244061 -1.60758 0
M  V30 6208 O 607.638 -0.430965 -1.83507 0
M  V30 6209 C 604.765 -1.1476 -3.18666 0
M  V30 6210 C 603.811 -2.30752 -3.58686 0
M  V30 6211 S 604.644 -3.9323 -3.63498 0
M  V30 6212 C 605.8 -3.72613 -5.02902 0
M  V30 6213 H 606.033 -2.32822 -1.84882 0
M  V30 6214 H 603.566 -1.27942 -0.86431 0
M  V30 6215 H 605.524 -1.02223 -3.97569 0
M  V30 6216 H 604.185 -0.212385 -3.13381 0
M  V30 6217 H 603.378 -2.10409 -4.57978 0
M  V30 6218 H 602.98 -2.39696 -2.87092 0
M  V30 6219 H 605.272 -3.32317 -5.904 0
M  V30 6220 H 606.215 -4.71507 -5.28286 0
M  V30 6221 H 606.623 -3.0589 -4.74438 0
M  V30 6222 N 606.021 0.929856 -1.27246 0
M  V30 6223 C 607.27 1.67182 -1.12842 0
M  V30 6224 C 607.583 1.9287 0.325666 0
M  V30 6225 O 608.789 2.64999 0.590572 0
M  V30 6226 C 607.245 3.01097 -1.97151 0
M  V30 6227 C 606.853 2.83115 -3.47203 0
M  V30 6228 C 608.597 3.78907 -1.91389 0
M  V30 6229 C 606.504 4.12573 -4.23719 0
M  V30 6230 H 605.434 0.627064 -0.418697 0
M  V30 6231 H 608.085 1.0332 -1.51649 0
M  V30 6232 H 606.467 3.66004 -1.51186 0
M  V30 6233 H 607.641 2.26989 -4.01015 0
M  V30 6234 H 605.956 2.18736 -3.54321 0
M  V30 6235 H 608.553 4.74837 -2.45834 0
M  V30 6236 H 608.896 4.0674 -0.887047 0
M  V30 6237 H 609.429 3.20794 -2.35237 0
M  V30 6238 H 606.168 3.8992 -5.26918 0
M  V30 6239 H 605.688 4.68371 -3.74685 0
M  V30 6240 H 607.367 4.8095 -4.32777 0
M  V30 6241 N 607.499 1.09233 1.13605 0
M  V30 6242 C 608.776 0.739633 1.81077 0
M  V30 6243 C 609.156 -0.775595 1.96336 0
M  V30 6244 O 608.504 -1.69726 1.52988 0
M  V30 6245 C 608.714 1.47636 3.16235 0
M  V30 6246 C 610.062 1.64087 3.91613 0
M  V30 6247 O 611.086 1.43871 3.25852 0
M  V30 6248 O 609.945 1.97511 5.0956 0
M  V30 6249 H 607.039 0.265464 0.783236 0
M  V30 6250 H 609.585 1.19441 1.20549 0
M  V30 6251 H 608.357 2.50818 3.00344 0
M  V30 6252 H 607.98 1.01362 3.84462 0
M  V30 6253 N 608.977 -1.30795 0.87923 0
M  V30 6254 C 609.887 -2.32041 0.345565 0
M  V30 6255 C 610.903 -1.65103 -0.549265 0
M  V30 6256 O 612.079 -1.9645 -0.443763 0
M  V30 6257 C 609.144 -3.43944 -0.436245 0
M  V30 6258 C 608.205 -4.26521 0.48765 0
M  V30 6259 C 607.438 -5.33081 -0.256943 0
M  V30 6260 O 607.661 -5.50762 -1.48381 0
M  V30 6261 O 606.595 -6.00635 0.389985 0
M  V30 6262 H 610.421 -2.79627 1.18501 0
M  V30 6263 H 608.006 -1.3486 0.642885 0
M  V30 6264 H 609.888 -4.12128 -0.879119 0
M  V30 6265 H 608.563 -2.98504 -1.25208 0
M  V30 6266 H 607.47 -3.61057 0.979216 0
M  V30 6267 H 608.803 -4.75551 1.26933 0
M  V30 6268 N 610.455 -0.639598 -1.44038 0
M  V30 6269 C 611.704 -0.144885 -2.01179 0
M  V30 6270 C 612.017 1.24372 -1.50967 0
M  V30 6271 O 613.223 1.83291 -2.00292 0
M  V30 6272 C 611.679 -0.208244 -3.59297 0
M  V30 6273 C 611.287 -1.59869 -4.18504 0
M  V30 6274 C 613.031 0.229568 -4.23879 0
M  V30 6275 C 610.938 -1.61671 -5.68873 0
M  V30 6276 H 609.868 -0.0504005 -0.752314 0
M  V30 6277 H 612.519 -0.799639 -1.65161 0
M  V30 6278 H 610.901 0.513767 -3.92653 0
M  V30 6279 H 612.075 -2.34496 -3.96671 0
M  V30 6280 H 610.39 -1.98131 -3.66242 0
M  V30 6281 H 612.987 0.235758 -5.3418 0
M  V30 6282 H 613.33 1.25848 -3.96822 0
M  V30 6283 H 613.863 -0.440233 -3.95357 0
M  V30 6284 H 610.602 -2.62427 -6.00677 0
M  V30 6285 H 610.122 -0.913489 -5.92803 0
M  V30 6286 H 611.801 -1.35439 -6.32665 0
M  V30 6287 N 611.933 1.52934 -0.380664 0
M  V30 6288 C 613.182 2.00651 0.205477 0
M  V30 6289 C 613.495 1.27164 1.48623 0
M  V30 6290 O 614.701 1.65547 2.15189 0
M  V30 6291 C 613.157 3.57479 0.416726 0
M  V30 6292 C 612.765 4.39857 -0.850268 0
M  V30 6293 C 614.509 4.13509 0.959702 0
M  V30 6294 C 612.416 5.88269 -0.607773 0
M  V30 6295 H 611.346 0.749684 0.0805614 0
M  V30 6296 H 613.997 1.76508 -0.501732 0
M  V30 6297 H 612.379 3.77836 1.18557 0
M  V30 6298 H 613.553 4.31269 -1.62307 0
M  V30 6299 H 611.868 3.95005 -1.31756 0
M  V30 6300 H 614.465 5.22039 1.15669 0
M  V30 6301 H 614.808 3.69054 1.92626 0
M  V30 6302 H 615.341 3.9701 0.250645 0
M  V30 6303 H 612.08 6.3703 -1.54509 0
M  V30 6304 H 611.6 5.99667 0.126247 0
M  V30 6305 H 613.279 6.46558 -0.239014 0
M  V30 6306 N 613.412 0.11024 1.57214 0
M  V30 6307 C 614.64 -0.557834 1.99238 0
M  V30 6308 C 615.055 -1.60778 0.989734 0
M  V30 6309 O 614.412 -1.82491 -0.0186092 0
M  V30 6310 C 614.463 -1.19189 3.41286 0
M  V30 6311 O 614.184 -0.183919 4.37714 0
M  V30 6312 C 615.685 -1.94413 3.98395 0
M  V30 6313 H 612.905 -0.148392 0.654386 0
M  V30 6314 H 615.449 0.193996 2.03578 0
M  V30 6315 H 613.604 -1.89456 3.37913 0
M  V30 6316 H 614.018 -0.643475 5.20538 0
M  V30 6317 H 615.492 -2.34116 4.99894 0
M  V30 6318 H 615.969 -2.81592 3.3705 0
M  V30 6319 H 616.575 -1.28928 4.05287 0
M  V30 6320 N 614.89 -1.56749 -0.16351 0
M  V30 6321 C 615.84 -1.93424 -1.20712 0
M  V30 6322 C 616.824 -0.803469 -1.39403 0
M  V30 6323 O 618.016 -1.06675 -1.41243 0
M  V30 6324 C 615.145 -2.30431 -2.54473 0
M  V30 6325 C 614.231 -3.5004 -2.39443 0
M  V30 6326 N 614.622 -4.67058 -1.9414 0
M  V30 6327 C 612.92 -3.548 -2.70246 0
M  V30 6328 C 613.621 -5.49184 -1.9176 0
M  V30 6329 N 612.597 -4.9044 -2.34457 0
M  V30 6330 H 616.399 -2.8138 -0.848681 0
M  V30 6331 H 613.913 -1.58089 -0.371717 0
M  V30 6332 H 615.91 -2.54903 -3.29894 0
M  V30 6333 H 614.57 -1.43818 -2.91112 0
M  V30 6334 H 615.581 -4.91128 -1.64357 0
M  V30 6335 H 612.258 -2.78685 -3.10871 0
M  V30 6336 H 613.648 -6.5297 -1.58366 0
M  V30 6337 N 616.368 0.432326 -1.51554 0
M  V30 6338 C 617.298 1.53242 -1.76179 0
M  V30 6339 C 618.279 1.58717 -0.611801 0
M  V30 6340 O 619.464 1.74364 -0.855033 0
M  V30 6341 C 616.594 2.91278 -1.89141 0
M  V30 6342 C 615.548 3.00663 -3.04608 0
M  V30 6343 C 614.874 4.40728 -3.02759 0
M  V30 6344 C 616.174 2.74281 -4.44485 0
M  V30 6345 H 617.868 1.32886 -2.68294 0
M  V30 6346 H 615.414 0.637841 -1.29103 0
M  V30 6347 H 617.367 3.68203 -2.04951 0
M  V30 6348 H 616.091 3.12877 -0.936785 0
M  V30 6349 H 614.75 2.26179 -2.88511 0
M  V30 6350 H 614.398 4.59301 -2.05065 0
M  V30 6351 H 614.098 4.47936 -3.80299 0
M  V30 6352 H 615.622 5.19619 -3.20669 0
M  V30 6353 H 617.036 3.40936 -4.60907 0
M  V30 6354 H 615.433 2.92893 -5.23769 0
M  V30 6355 H 616.503 1.69856 -4.54177 0
M  V30 6356 N 617.846 1.41785 0.688094 0
M  V30 6357 C 618.793 1.44221 1.80191 0
M  V30 6358 C 619.763 0.295688 1.63447 0
M  V30 6359 O 620.948 0.49783 1.84191 0
M  V30 6360 C 618.088 1.33743 3.1813 0
M  V30 6361 C 617.201 2.58325 3.46254 0
M  V30 6362 C 616.336 2.40086 4.73848 0
M  V30 6363 C 615.375 3.60107 4.94964 0
M  V30 6364 N 614.512 3.40892 6.13789 0
M  V30 6365 H 619.352 2.39411 1.77444 0
M  V30 6366 H 616.889 1.18876 0.866423 0
M  V30 6367 H 618.847 1.25669 3.97823 0
M  V30 6368 H 617.477 0.42157 3.20035 0
M  V30 6369 H 616.529 2.7682 2.60912 0
M  V30 6370 H 617.841 3.4758 3.57756 0
M  V30 6371 H 616.995 2.29522 5.61609 0
M  V30 6372 H 615.734 1.483 4.64606 0
M  V30 6373 H 614.739 3.71118 4.05649 0
M  V30 6374 H 615.964 4.52857 5.06061 0
M  V30 6375 H 613.91 2.51812 6.05745 0
M  V30 6376 H 613.827 4.23727 6.26092 0
M  V30 6377 H 615.095 3.34114 7.04264 0
M  V30 6378 N 619.324 -0.923095 1.27737 0
M  V30 6379 C 620.256 -2.02871 1.06658 0
M  V30 6380 C 621.269 -1.62786 0.0212095 0
M  V30 6381 O 622.458 -1.76548 0.263267 0
M  V30 6382 C 619.558 -3.33603 0.59682 0
M  V30 6383 C 618.731 -4.02354 1.71551 0
M  V30 6384 C 617.79 -5.11364 1.24071 0
M  V30 6385 O 616.816 -5.35075 1.94123 0
M  V30 6386 N 618.018 -5.80416 0.0988444 0
M  V30 6387 H 620.783 -2.21515 2.01869 0
M  V30 6388 H 618.344 -1.09378 1.19365 0
M  V30 6389 H 620.336 -4.03845 0.262984 0
M  V30 6390 H 618.906 -3.11499 -0.262187 0
M  V30 6391 H 618.126 -3.25786 2.2194 0
M  V30 6392 H 619.414 -4.45035 2.46619 0
M  V30 6393 H 618.812 -5.63611 -0.485743 0
M  V30 6394 H 617.369 -6.51563 -0.17578 0
M  V30 6395 N 620.802 -1.09834 -1.13024 0
M  V30 6396 C 622.213 -0.855651 -1.65938 0
M  V30 6397 C 622.564 0.615159 -1.86307 0
M  V30 6398 O 621.689 1.47335 -1.58497 0
M  V30 6399 C 622.284 -1.5467 -3.01434 0
M  V30 6400 C 620.843 -1.35088 -3.51323 0
M  V30 6401 C 619.99 -1.6001 -2.26478 0
M  V30 6402 H 622.941 -1.25691 -0.968889 0
M  V30 6403 H 622.962 -0.982179 -3.67605 0
M  V30 6404 H 622.474 -2.61715 -2.86578 0
M  V30 6405 H 620.575 -0.30179 -3.71376 0
M  V30 6406 H 620.688 -2.0886 -4.31178 0
M  V30 6407 H 619.052 -1.02246 -2.33276 0
M  V30 6408 H 619.835 -2.68293 -2.14182 0
M  V30 6409 N 622.28 1.30327 -0.886154 0
M  V30 6410 C 623.691 1.78243 -0.555554 0
M  V30 6411 C 624.042 1.72849 0.928314 0
M  V30 6412 O 623.167 1.30607 1.72542 0
M  V30 6413 C 623.762 3.23654 -1.00168 0
M  V30 6414 C 622.321 3.69401 -0.722471 0
M  V30 6415 C 621.468 2.50753 -1.18399 0
M  V30 6416 H 624.419 1.1718 -1.07026 0
M  V30 6417 H 624.44 3.79056 -0.331152 0
M  V30 6418 H 623.952 3.27548 -2.08169 0
M  V30 6419 H 622.053 3.70995 0.345496 0
M  V30 6420 H 622.166 4.60818 -1.31085 0
M  V30 6421 H 620.53 2.47452 -0.603303 0
M  V30 6422 H 621.313 2.57383 -2.27176 0
M  V30 6423 N 623.758 0.647228 1.43697 0
M  V30 6424 C 624.688 -0.0345631 2.33474 0
M  V30 6425 C 625.669 -0.818193 1.4913 0
M  V30 6426 O 626.854 -0.780867 1.77809 0
M  V30 6427 C 623.984 -1.00576 3.32418 0
M  V30 6428 C 622.938 -0.33266 4.26705 0
M  V30 6429 C 622.264 -1.41489 5.1564 0
M  V30 6430 C 623.564 0.771204 5.16575 0
M  V30 6431 H 625.258 0.715163 2.90733 0
M  V30 6432 H 622.804 0.345364 1.39797 0
M  V30 6433 H 624.757 -1.49159 3.94119 0
M  V30 6434 H 623.481 -1.78657 2.73403 0
M  V30 6435 H 622.14 0.13267 3.6636 0
M  V30 6436 H 621.788 -2.18698 4.52968 0
M  V30 6437 H 621.488 -0.969799 5.79542 0
M  V30 6438 H 623.012 -1.9022 5.80214 0
M  V30 6439 H 624.426 0.36779 5.72119 0
M  V30 6440 H 622.823 1.1404 5.89165 0
M  V30 6441 H 623.893 1.63169 4.56622 0
M  V30 6442 N 625.236 -1.5273 0.388769 0
M  V30 6443 C 626.647 -1.86505 -0.0853788 0
M  V30 6444 C 626.998 -1.30847 -1.46197 0
M  V30 6445 O 626.123 -0.639609 -2.06732 0
M  V30 6446 C 626.718 -3.38414 -0.161703 0
M  V30 6447 C 625.277 -3.71902 -0.580144 0
M  V30 6448 C 624.424 -2.76095 0.258218 0
M  V30 6449 H 627.375 -1.46647 0.606665 0
M  V30 6450 H 627.396 -3.67638 -0.980936 0
M  V30 6451 H 626.908 -3.78893 0.840333 0
M  V30 6452 H 625.009 -3.36992 -1.58957 0
M  V30 6453 H 625.122 -4.77902 -0.338663 0
M  V30 6454 H 623.486 -2.53195 -0.276432 0
M  V30 6455 H 624.269 -3.19411 1.25822 0
M  V30 6456 N 626.714 -0.118576 -1.57153 0
M  V30 6457 C 627.644 0.828436 -2.1831 0
M  V30 6458 C 628.625 1.27758 -1.12303 0
M  V30 6459 O 629.81 1.34026 -1.40537 0
M  V30 6460 C 626.94 2.07876 -2.78217 0
M  V30 6461 C 625.894 1.76742 -3.89803 0
M  V30 6462 C 625.22 3.08801 -4.36516 0
M  V30 6463 C 626.52 1.03606 -5.11921 0
M  V30 6464 H 628.214 0.318824 -2.97698 0
M  V30 6465 H 625.76 0.151911 -1.43196 0
M  V30 6466 H 627.713 2.74584 -3.19659 0
M  V30 6467 H 626.437 2.61161 -1.96118 0
M  V30 6468 H 625.096 1.12424 -3.48936 0
M  V30 6469 H 624.744 3.6002 -3.51276 0
M  V30 6470 H 624.444 2.88743 -5.11763 0
M  V30 6471 H 625.968 3.76627 -4.80608 0
M  V30 6472 H 627.382 1.60467 -5.50385 0
M  V30 6473 H 625.779 0.936454 -5.92748 0
M  V30 6474 H 626.849 0.0227421 -4.84895 0
M  V30 6475 N 628.193 1.56834 0.155195 0
M  V30 6476 C 629.123 2.00678 1.19376 0
M  V30 6477 C 630.104 0.884973 1.45266 0
M  V30 6478 O 631.289 1.1522 1.56326 0
M  V30 6479 C 628.419 2.38042 2.5289 0
M  V30 6480 C 627.373 3.53332 2.41538 0
M  V30 6481 C 626.699 3.76485 3.79688 0
M  V30 6482 C 627.999 4.86265 1.9064 0
M  V30 6483 H 629.693 2.87688 0.829232 0
M  V30 6484 H 627.239 1.38407 0.397445 0
M  V30 6485 H 629.192 2.67314 3.25763 0
M  V30 6486 H 627.916 1.4796 2.91162 0
M  V30 6487 H 626.575 3.24213 1.71117 0
M  V30 6488 H 626.223 2.83667 4.15382 0
M  V30 6489 H 625.923 4.54068 3.72956 0
M  V30 6490 H 627.447 4.08174 4.54122 0
M  V30 6491 H 628.861 5.14308 2.53299 0
M  V30 6492 H 627.258 5.67597 1.94818 0
M  V30 6493 H 628.328 4.77184 0.861596 0
M  V30 6494 N 629.671 -0.424282 1.51781 0
M  V30 6495 C 630.948 -1.18464 1.55646 0
M  V30 6496 C 631.328 -2.08529 0.328438 0
M  V30 6497 O 630.676 -2.17969 -0.685693 0
M  V30 6498 C 630.886 -1.97514 2.87731 0
M  V30 6499 C 632.234 -2.54106 3.40169 0
M  V30 6500 O 633.258 -2.07711 2.89369 0
M  V30 6501 O 632.117 -3.38759 4.28841 0
M  V30 6502 H 629.211 -0.540055 0.626314 0
M  V30 6503 H 631.757 -0.432291 1.64102 0
M  V30 6504 H 630.529 -1.31444 3.68562 0
M  V30 6505 H 630.152 -2.79787 2.82498 0
M  V30 6506 N 631.149 -1.42148 -0.680565 0
M  V30 6507 C 632.396 -1.4231 -1.44063 0
M  V30 6508 C 632.724 -0.037488 -1.94464 0
M  V30 6509 O 631.979 0.953184 -1.70918 0
M  V30 6510 C 632.278 -2.38945 -2.65782 0
M  V30 6511 C 631.944 -3.85455 -2.33956 0
M  V30 6512 C 630.606 -4.25364 -2.24987 0
M  V30 6513 C 632.958 -4.77895 -2.08004 0
M  V30 6514 C 630.286 -5.55701 -1.88184 0
M  V30 6515 C 632.638 -6.08568 -1.72706 0
M  V30 6516 C 631.302 -6.47482 -1.62244 0
M  V30 6517 H 630.572 -0.520748 -0.527164 0
M  V30 6518 H 633.219 -1.7505 -0.776524 0
M  V30 6519 H 631.524 -1.99511 -3.37198 0
M  V30 6520 H 633.221 -2.36336 -3.23954 0
M  V30 6521 H 629.811 -3.53855 -2.41836 0
M  V30 6522 H 633.995 -4.47854 -2.1387 0
M  V30 6523 H 629.251 -5.84718 -1.78648 0
M  V30 6524 H 633.425 -6.79688 -1.5165 0
M  V30 6525 H 631.052 -7.48387 -1.33496 0
M  V30 6526 N 632.627 0.916307 -1.28225 0
M  V30 6527 C 633.575 2.03977 -1.11786 0
M  V30 6528 C 634.569 1.69358 -0.0378265 0
M  V30 6529 O 635.775 1.78925 -0.196405 0
M  V30 6530 H 632.15 0.66829 -0.344809 0
M  V30 6531 H 634.121 2.14985 -2.06939 0
M  V30 6532 C 632.87 3.38518 -0.7938 0
M  V30 6533 H 632.193 3.65649 -1.61682 0
M  V30 6534 H 633.633 4.17864 -0.718719 0
M  V30 6535 C 632.092 3.33134 0.502353 0
M  V30 6536 O 632.622 3.71281 1.53341 0
M  V30 6537 N 630.828 2.86229 0.502147 0
M  V30 6538 H 630.375 2.55382 -0.337338 0
M  V30 6539 H 630.333 2.83009 1.36942 0
M  V30 6540 N 634.105 1.10431 1.1244 0
M  V30 6541 C 635.053 0.747974 2.20246 0
M  V30 6542 C 636.047 -0.255848 1.67457 0
M  V30 6543 O 637.253 -0.116221 1.79624 0
M  V30 6544 H 633.628 0.223946 0.71788 0
M  V30 6545 H 635.599 1.6661 2.47556 0
M  V30 6546 C 634.348 0.195957 3.47147 0
M  V30 6547 H 633.671 0.959606 3.88113 0
M  V30 6548 H 635.111 -0.0153154 4.23997 0
M  V30 6549 C 633.57 -1.07132 3.19413 0
M  V30 6550 O 634.1 -2.15284 3.3914 0
M  V30 6551 N 632.306 -0.98994 2.73219 0
M  V30 6552 H 631.853 -0.109736 2.57366 0
M  V30 6553 H 631.811 -1.83856 2.55038 0
M  V30 6554 N 635.583 -1.29855 0.893053 0
M  V30 6555 C 636.513 -2.3035 0.382249 0
M  V30 6556 C 637.494 -1.61328 -0.539203 0
M  V30 6557 O 638.679 -1.88882 -0.451342 0
M  V30 6558 C 635.809 -3.45024 -0.396983 0
M  V30 6559 C 634.763 -4.258 0.433437 0
M  V30 6560 C 634.089 -5.32605 -0.472889 0
M  V30 6561 C 635.389 -4.94549 1.67984 0
M  V30 6562 H 637.083 -2.73325 1.22205 0
M  V30 6563 H 634.629 -1.314 0.589073 0
M  V30 6564 H 636.582 -4.14398 -0.765024 0
M  V30 6565 H 635.306 -3.00875 -1.2705 0
M  V30 6566 H 633.965 -3.58125 0.783723 0
M  V30 6567 H 633.613 -4.84702 -1.34435 0
M  V30 6568 H 633.313 -5.87547 0.0789958 0
M  V30 6569 H 634.837 -6.04832 -0.837269 0
M  V30 6570 H 636.251 -5.56395 1.38192 0
M  V30 6571 H 634.648 -5.59393 2.17254 0
M  V30 6572 H 635.718 -4.20215 2.41965 0
M  V30 6573 N 637.061 -0.65484 -1.43351 0
M  V30 6574 C 638.009 0.0476784 -2.32551 0
M  V30 6575 C 639.003 0.811403 -1.48703 0
M  V30 6576 O 640.209 0.721621 -1.64902 0
M  V30 6577 H 636.584 0.0342038 -0.751222 0
M  V30 6578 H 638.555 -0.722342 -2.89525 0
M  V30 6579 C 637.304 0.999251 -3.33032 0
M  V30 6580 H 636.627 0.421005 -3.97577 0
M  V30 6581 H 638.067 1.45986 -3.98076 0
M  V30 6582 C 636.526 2.09606 -2.63756 0
M  V30 6583 O 637.056 3.18004 -2.4543 0
M  V30 6584 N 635.262 1.86207 -2.23103 0
M  V30 6585 H 634.809 0.980555 -2.38208 0
M  V30 6586 H 634.767 2.59787 -1.77081 0
M  V30 6587 N 638.539 1.52521 -0.396863 0
M  V30 6588 C 639.787 2.01274 0.182536 0
M  V30 6589 C 640.108 1.28485 1.46685 0
M  V30 6590 O 639.378 0.407134 1.91623 0
M  V30 6591 H 637.958 0.743671 0.0704442 0
M  V30 6592 H 640.62 1.87547 -0.530289 0
M  V30 6593 H 639.716 3.09687 0.387385 0
M  V30 6594 N 640.017 0.126909 1.57088 0
M  V30 6595 C 640.927 -0.833867 2.1928 0
M  V30 6596 C 641.943 -1.2868 1.17122 0
M  V30 6597 O 643.119 -1.34815 1.49622 0
M  V30 6598 C 640.184 -2.0632 2.78627 0
M  V30 6599 C 639.245 -1.66143 3.95847 0
M  V30 6600 C 638.478 -2.83217 4.52354 0
M  V30 6601 O 638.701 -3.98868 4.0775 0
M  V30 6602 O 637.635 -2.59846 5.42922 0
M  V30 6603 H 641.461 -0.334564 3.01852 0
M  V30 6604 H 639.046 -0.0991091 1.49071 0
M  V30 6605 H 640.928 -2.78304 3.16425 0
M  V30 6606 H 639.603 -2.55242 1.99082 0
M  V30 6607 H 638.51 -0.912435 3.62802 0
M  V30 6608 H 639.843 -1.21957 4.76852 0
M  V30 6609 N 641.495 -1.56914 -0.146875 0
M  V30 6610 C 642.772 -1.74273 -0.888165 0
M  V30 6611 C 643.152 -0.69496 -1.99333 0
M  V30 6612 O 642.5 0.286093 -2.26702 0
M  V30 6613 C 642.71 -3.18336 -1.43051 0
M  V30 6614 C 644.058 -3.80024 -1.89387 0
M  V30 6615 O 645.082 -3.21765 -1.52792 0
M  V30 6616 O 643.941 -4.82367 -2.56874 0
M  V30 6617 H 641.035 -0.712565 -0.419738 0
M  V30 6618 H 643.581 -1.6918 -0.132791 0
M  V30 6619 H 642.353 -3.86092 -0.636274 0
M  V30 6620 H 641.976 -3.27854 -2.24938 0
M  V30 6621 N 642.974 0.416227 -1.52004 0
M  V30 6622 C 643.906 1.52552 -1.71058 0
M  V30 6623 C 644.919 1.51693 -0.59102 0
M  V30 6624 O 646.108 1.56087 -0.865973 0
M  V30 6625 C 643.208 2.91455 -1.72937 0
M  V30 6626 C 642.381 3.16584 -3.01816 0
M  V30 6627 C 641.44 4.35322 -2.95603 0
M  V30 6628 O 640.466 4.32947 -3.6952 0
M  V30 6629 N 641.668 5.40049 -2.12903 0
M  V30 6630 H 644.433 1.36604 -2.66757 0
M  V30 6631 H 641.994 0.60544 -1.50153 0
M  V30 6632 H 643.986 3.68944 -1.66321 0
M  V30 6633 H 642.556 3.00895 -0.847418 0
M  V30 6634 H 641.776 2.27203 -3.22137 0
M  V30 6635 H 643.064 3.30213 -3.87088 0
M  V30 6636 H 642.462 5.44823 -1.52265 0
M  V30 6637 H 641.019 6.16308 -2.1215 0
M  V30 6638 N 644.452 1.42507 0.673017 0
M  V30 6639 C 645.729 1.33554 1.42908 0
M  V30 6640 C 646.109 -0.0262211 2.11084 0
M  V30 6641 O 645.457 -1.04181 2.03368 0
M  V30 6642 C 645.667 2.50498 2.43006 0
M  V30 6643 C 647.015 2.92694 3.07596 0
M  V30 6644 O 648.039 2.50401 2.53333 0
M  V30 6645 O 646.898 3.65899 4.05931 0
M  V30 6646 H 643.992 0.526785 0.637516 0
M  V30 6647 H 646.538 1.54518 0.701591 0
M  V30 6648 H 645.31 3.41272 1.9144 0
M  V30 6649 H 644.933 2.3153 3.23233 0
M  V30 6650 N 645.93 -0.909495 1.28709 0
M  V30 6651 C 647.179 -1.65365 1.15487 0
M  V30 6652 C 647.492 -1.93364 -0.294941 0
M  V30 6653 O 648.698 -2.65905 -0.548338 0
M  V30 6654 C 647.154 -2.97923 2.01916 0
M  V30 6655 C 646.762 -2.77556 3.51663 0
M  V30 6656 C 648.506 -3.75814 1.97393 0
M  V30 6657 C 646.413 -4.0578 4.30229 0
M  V30 6658 H 645.343 -0.620323 0.42862 0
M  V30 6659 H 647.994 -1.00894 1.53273 0
M  V30 6660 H 646.376 -3.63552 1.5699 0
M  V30 6661 H 647.55 -2.2058 4.04575 0
M  V30 6662 H 645.865 -2.13072 3.57756 0
M  V30 6663 H 648.462 -4.70866 2.53357 0
M  V30 6664 H 648.805 -4.05277 0.951643 0
M  V30 6665 H 649.338 -3.1701 2.40311 0
M  V30 6666 H 646.077 -3.81488 5.33055 0
M  V30 6667 H 645.597 -4.62351 3.82089 0
M  V30 6668 H 647.276 -4.74004 4.40374 0
M  V30 6669 N 647.408 -1.11026 -1.11852 0
M  V30 6670 C 648.338 -0.786812 -2.19844 0
M  V30 6671 C 649.319 0.242935 -1.68356 0
M  V30 6672 O 650.504 0.107355 -1.93903 0
M  V30 6673 C 647.634 -0.224516 -3.46574 0
M  V30 6674 C 646.588 -1.18564 -4.1125 0
M  V30 6675 C 645.914 -0.484261 -5.32503 0
M  V30 6676 C 647.214 -2.53465 -4.56676 0
M  V30 6677 H 648.908 -1.68978 -2.47158 0
M  V30 6678 H 646.454 -0.813906 -1.18792 0
M  V30 6679 H 648.407 0.0139435 -4.21398 0
M  V30 6680 H 647.131 0.713722 -3.18706 0
M  V30 6681 H 645.79 -1.40966 -3.38414 0
M  V30 6682 H 645.438 0.458646 -5.00905 0
M  V30 6683 H 645.138 -1.12526 -5.76725 0
M  V30 6684 H 646.662 -0.254492 -6.10069 0
M  V30 6685 H 648.076 -2.35177 -5.22843 0
M  V30 6686 H 646.473 -3.13507 -5.11697 0
M  V30 6687 H 647.543 -3.13008 -3.70343 0
M  V30 6688 N 648.886 1.2938 -0.899927 0
M  V30 6689 C 649.819 2.25911 -0.322386 0
M  V30 6690 C 650.797 1.52447 0.565567 0
M  V30 6691 O 651.981 1.81404 0.512324 0
M  V30 6692 C 649.108 3.3436 0.540455 0
M  V30 6693 C 648.154 4.25579 -0.280211 0
M  V30 6694 S 648.987 5.08526 -1.67814 0
M  V30 6695 C 650.143 6.20476 -0.822224 0
M  V30 6696 H 650.376 2.7455 -1.1406 0
M  V30 6697 H 647.909 1.37606 -0.700285 0
M  V30 6698 H 649.867 3.97303 1.0325 0
M  V30 6699 H 648.528 2.84416 1.33291 0
M  V30 6700 H 647.721 5.02574 0.378915 0
M  V30 6701 H 647.323 3.67287 -0.705405 0
M  V30 6702 H 649.615 6.77485 -0.0457138 0
M  V30 6703 H 650.558 6.90606 -1.56426 0
M  V30 6704 H 650.966 5.63243 -0.37651 0
M  V30 6705 N 650.364 0.662433 1.43002 0
M  V30 6706 C 651.274 -0.0239199 2.34588 0
M  V30 6707 C 652.29 -0.802255 1.54402 0
M  V30 6708 O 653.466 -0.747401 1.87018 0
M  V30 6709 C 650.531 -0.972098 3.32793 0
M  V30 6710 C 649.592 -0.189673 4.28881 0
M  V30 6711 C 648.825 -1.09269 5.22395 0
M  V30 6712 O 649.048 -2.33209 5.20547 0
M  V30 6713 O 647.982 -0.560136 5.99288 0
M  V30 6714 H 651.808 0.730171 2.94792 0
M  V30 6715 H 649.393 0.422635 1.43297 0
M  V30 6716 H 651.275 -1.51676 3.93157 0
M  V30 6717 H 649.95 -1.70626 2.75079 0
M  V30 6718 H 648.857 0.398794 3.71968 0
M  V30 6719 H 650.19 0.50511 4.89601 0
M  V30 6720 N 651.842 -1.52309 0.404946 0
M  V30 6721 C 652.79 -2.28452 -0.437321 0
M  V30 6722 C 653.784 -1.32975 -1.04948 0
M  V30 6723 O 654.99 -1.50451 -0.988159 0
M  V30 6724 H 651.365 -0.734824 -0.159805 0
M  V30 6725 H 653.336 -2.97542 0.22615 0
M  V30 6726 C 652.085 -3.11536 -1.54404 0
M  V30 6727 H 651.408 -3.84871 -1.08233 0
M  V30 6728 H 652.848 -3.67926 -2.10729 0
M  V30 6729 C 651.307 -2.24833 -2.50902 0
M  V30 6730 O 651.837 -1.88574 -3.54687 0
M  V30 6731 N 650.043 -1.88685 -2.21012 0
M  V30 6732 H 649.59 -2.18371 -1.36646 0
M  V30 6733 H 649.548 -1.30966 -2.85824 0
M  V30 6734 N 653.32 -0.135238 -1.57019 0
M  V30 6735 C 654.268 0.826099 -2.17436 0
M  V30 6736 C 655.262 1.26378 -1.12805 0
M  V30 6737 O 656.468 1.23363 -1.31079 0
M  V30 6738 H 652.843 0.284568 -0.696078 0
M  V30 6739 H 654.814 0.292212 -2.96966 0
M  V30 6740 C 653.563 2.05991 -2.80112 0
M  V30 6741 H 652.886 1.73209 -3.60331 0
M  V30 6742 H 654.326 2.71225 -3.25903 0
M  V30 6743 C 652.785 2.86027 -1.78017 0
M  V30 6744 O 653.315 3.81971 -1.24344 0
M  V30 6745 N 651.521 2.50332 -1.47588 0
M  V30 6746 H 651.068 1.72377 -1.91426 0
M  V30 6747 H 651.026 3.04177 -0.795228 0
M  V30 6748 N 654.798 1.5699 0.138552 0
M  V30 6749 C 655.728 2.01933 1.17241 0
M  V30 6750 C 656.709 0.90033 1.44319 0
M  V30 6751 O 657.894 1.16872 1.55095 0
M  V30 6752 C 655.024 2.40711 2.50351 0
M  V30 6753 C 653.978 3.55874 2.37776 0
M  V30 6754 C 653.304 3.80491 3.75674 0
M  V30 6755 C 654.604 4.8826 1.85472 0
M  V30 6756 H 656.298 2.88551 0.798672 0
M  V30 6757 H 653.844 1.3882 0.382743 0
M  V30 6758 H 655.797 2.70754 3.22909 0
M  V30 6759 H 654.521 1.5104 2.89576 0
M  V30 6760 H 653.18 3.2601 1.67669 0
M  V30 6761 H 652.828 2.88057 4.12349 0
M  V30 6762 H 652.528 4.57998 3.68119 0
M  V30 6763 H 654.052 4.12967 4.49767 0
M  V30 6764 H 655.466 5.16965 2.4783 0
M  V30 6765 H 653.863 5.69631 1.88787 0
M  V30 6766 H 654.933 4.78071 0.810935 0
M  V30 6767 N 656.276 -0.40816 1.52223 0
M  V30 6768 C 657.692 -0.74685 1.41047 0
M  V30 6769 C 657.892 -1.94788 0.51573 0
M  V30 6770 O 656.948 -2.52494 -0.0181156 0
M  V30 6771 C 658.261 -0.999878 2.83589 0
M  V30 6772 C 659.809 -1.10253 2.92939 0
M  V30 6773 C 660.284 -1.38832 4.36451 0
M  V30 6774 N 661.775 -1.45694 4.3969 0
M  V30 6775 C 662.51 -1.69435 5.47795 0
M  V30 6776 N 662.006 -1.90774 6.66016 0
M  V30 6777 N 663.799 -1.71458 5.35312 0
M  V30 6778 H 655.95 0.382409 2.08929 0
M  V30 6779 H 658.213 0.108807 0.941735 0
M  V30 6780 H 657.919 -0.189723 3.51188 0
M  V30 6781 H 657.793 -1.91978 3.24691 0
M  V30 6782 H 660.18 -1.90328 2.2552 0
M  V30 6783 H 660.261 -0.160973 2.55293 0
M  V30 6784 H 659.905 -0.592741 5.04429 0
M  V30 6785 H 659.835 -2.34241 4.71634 0
M  V30 6786 H 662.326 -1.3099 3.54472 0
M  V30 6787 H 662.639 -2.08342 7.44186 0
M  V30 6788 H 660.984 -1.88037 6.69079 0
M  V30 6789 H 664.175 -1.54326 4.41929 0
M  V30 6790 H 664.348 -1.89621 6.19635 0
M  V30 6791 N 657.755 -1.42862 -0.66545 0
M  V30 6792 C 659.171 -1.25993 -0.979687 0
M  V30 6793 C 659.371 -0.170831 -2.00775 0
M  V30 6794 O 658.427 0.454827 -2.4837 0
M  V30 6795 C 659.74 -2.62005 -1.47559 0
M  V30 6796 C 661.288 -2.69437 -1.59288 0
M  V30 6797 C 661.763 -4.05838 -2.12272 0
M  V30 6798 N 663.254 -4.0784 -2.19592 0
M  V30 6799 C 663.989 -5.10205 -2.61684 0
M  V30 6800 N 663.485 -6.22949 -3.03161 0
M  V30 6801 N 665.278 -4.9756 -2.61516 0
M  V30 6802 H 657.429 -2.12395 0.0150493 0
M  V30 6803 H 659.692 -0.946355 -0.0558187 0
M  V30 6804 H 659.398 -3.42605 -0.794654 0
M  V30 6805 H 659.272 -2.86566 -2.45275 0
M  V30 6806 H 661.659 -1.89178 -2.26486 0
M  V30 6807 H 661.74 -2.48655 -0.600374 0
M  V30 6808 H 661.384 -4.86559 -1.4568 0
M  V30 6809 H 661.314 -4.23977 -3.12331 0
M  V30 6810 H 663.805 -3.26452 -1.90361 0
M  V30 6811 H 664.118 -6.96899 -3.33993 0
M  V30 6812 H 662.463 -6.2644 -3.00995 0
M  V30 6813 H 665.654 -4.08551 -2.28481 0
M  V30 6814 H 665.827 -5.77468 -2.93999 0
M  V30 6815 N 659.233 0.902656 -1.29189 0
M  V30 6816 C 660.644 1.46809 -1.15343 0
M  V30 6817 C 660.995 1.94568 0.252517 0
M  V30 6818 O 660.12 1.83454 1.14777 0
M  V30 6819 C 660.715 2.66829 -2.08776 0
M  V30 6820 C 659.274 3.19518 -1.98961 0
M  V30 6821 C 658.421 1.92212 -1.99874 0
M  V30 6822 H 661.372 0.714282 -1.41717 0
M  V30 6823 H 661.393 3.42465 -1.65826 0
M  V30 6824 H 660.905 2.32039 -3.11094 0
M  V30 6825 H 659.006 3.59008 -0.99721 0
M  V30 6826 H 659.119 3.84016 -2.86477 0
M  V30 6827 H 657.483 2.0979 -1.44431 0
M  V30 6828 H 658.266 1.59702 -3.03891 0
M  V30 6829 N 660.711 1.11618 1.11262 0
M  V30 6830 C 661.659 0.771291 2.1944 0
M  V30 6831 C 662.653 -0.238073 1.67719 0
M  V30 6832 O 663.859 -0.0971628 1.79738 0
M  V30 6833 H 660.234 0.231548 0.715465 0
M  V30 6834 H 662.205 1.69226 2.45775 0
M  V30 6835 C 660.954 0.232765 3.4692 0
M  V30 6836 H 660.277 1.00072 3.87073 0
M  V30 6837 H 661.717 0.0296561 4.2399 0
M  V30 6838 C 660.176 -1.03738 3.20531 0
M  V30 6839 O 660.706 -2.11675 3.41404 0
M  V30 6840 N 658.912 -0.960906 2.74253 0
M  V30 6841 H 658.459 -0.0824323 2.57468 0
M  V30 6842 H 658.417 -1.8114 2.56974 0
M  V30 6843 N 662.189 -1.289 0.906776 0
M  V30 6844 C 663.119 -2.29932 0.406659 0
M  V30 6845 C 664.1 -1.6189 -0.522061 0
M  V30 6846 O 665.285 -1.8935 -0.431283 0
M  V30 6847 C 662.415 -3.45425 -0.360366 0
M  V30 6848 C 661.369 -4.25316 0.478574 0
M  V30 6849 C 660.695 -5.33076 -0.416373 0
M  V30 6850 C 661.995 -4.92739 1.7322 0
M  V30 6851 H 663.689 -2.72013 1.25097 0
M  V30 6852 H 661.235 -1.30768 0.602977 0
M  V30 6853 H 663.188 -4.15186 -0.721029 0
M  V30 6854 H 661.912 -3.02206 -1.23852 0
M  V30 6855 H 660.571 -3.57273 0.821662 0
M  V30 6856 H 660.219 -4.86101 -1.29287 0
M  V30 6857 H 659.919 -5.8743 0.141309 0
M  V30 6858 H 661.443 -6.05686 -0.773072 0
M  V30 6859 H 662.857 -5.54898 1.44086 0
M  V30 6860 H 661.254 -5.57057 2.23175 0
M  V30 6861 H 662.324 -4.17625 2.46408 0
M  V30 6862 N 663.667 -0.670007 -1.42649 0
M  V30 6863 C 664.577 0.0114788 -2.34597 0
M  V30 6864 C 665.593 0.794055 -1.54825 0
M  V30 6865 O 666.769 0.737472 -1.87412 0
M  V30 6866 C 663.834 0.954436 -3.33304 0
M  V30 6867 C 662.895 0.166925 -4.28975 0
M  V30 6868 C 662.128 1.06497 -5.22967 0
M  V30 6869 O 662.351 2.30446 -5.21777 0
M  V30 6870 O 661.285 0.528347 -5.99577 0
M  V30 6871 H 665.111 -0.745794 -2.944 0
M  V30 6872 H 662.696 -0.430228 -1.43071 0
M  V30 6873 H 664.578 1.49589 -3.93956 0
M  V30 6874 H 663.253 1.69164 -2.7598 0
M  V30 6875 H 662.16 -0.418515 -3.71752 0
M  V30 6876 H 663.493 -0.531067 -4.89327 0
M  V30 6877 N 665.145 1.52092 -0.413018 0
M  V30 6878 C 666.108 2.25706 0.398687 0
M  V30 6879 C 667.108 1.28221 0.970368 0
M  V30 6880 O 668.298 1.52131 0.848635 0
M  V30 6881 C 665.43 3.03029 1.5616 0
M  V30 6882 H 666.623 2.98888 -0.246131 0
M  V30 6883 H 664.176 1.5542 -0.165622 0
M  V30 6884 H 664.911 2.34205 2.24317 0
M  V30 6885 H 664.696 3.74606 1.15812 0
M  V30 6886 H 666.186 3.58857 2.13569 0
M  V30 6887 N 666.623 0.143563 1.56945 0
M  V30 6888 C 667.87 -0.508407 1.96014 0
M  V30 6889 C 668.198 -1.65099 1.02824 0
M  V30 6890 O 667.453 -1.95618 0.0567764 0
M  V30 6891 C 667.752 -1.05885 3.41355 0
M  V30 6892 C 667.418 -0.0350809 4.50886 0
M  V30 6893 C 666.08 0.246362 4.80569 0
M  V30 6894 C 668.432 0.661282 5.16988 0
M  V30 6895 C 665.76 1.23003 5.73661 0
M  V30 6896 C 668.112 1.63375 6.11139 0
M  V30 6897 C 666.776 1.92292 6.39203 0
M  V30 6898 H 666.046 -0.186039 0.717266 0
M  V30 6899 H 668.693 0.229667 1.90118 0
M  V30 6900 H 666.998 -1.87419 3.44066 0
M  V30 6901 H 668.695 -1.57183 3.6891 0
M  V30 6902 H 665.285 -0.264622 4.27782 0
M  V30 6903 H 669.469 0.457038 4.94191 0
M  V30 6904 H 664.725 1.46056 5.93698 0
M  V30 6905 H 668.899 2.17887 6.61436 0
M  V30 6906 H 666.526 2.68666 7.11142 0
M  V30 6907 N 668.101 -1.57061 -0.130224 0
M  V30 6908 C 669.049 -2.00486 -1.17933 0
M  V30 6909 C 670.043 -0.899933 -1.43519 0
M  V30 6910 O 671.249 -1.08514 -1.43613 0
M  V30 6911 H 667.624 -0.638441 -0.397363 0
M  V30 6912 H 669.595 -2.87848 -0.786501 0
M  V30 6913 C 668.344 -2.41565 -2.50084 0
M  V30 6914 H 667.667 -3.26148 -2.31231 0
M  V30 6915 H 669.107 -2.75757 -3.22078 0
M  V30 6916 C 667.566 -1.27485 -3.11848 0
M  V30 6917 O 668.096 -0.584688 -3.97422 0
M  V30 6918 N 666.302 -1.03478 -2.71552 0
M  V30 6919 H 665.849 -1.59779 -2.02061 0
M  V30 6920 H 665.807 -0.27341 -3.13209 0
M  V30 6921 N 669.579 0.400081 -1.52437 0
M  V30 6922 C 670.995 0.739359 -1.41441 0
M  V30 6923 C 671.195 1.94512 -0.526053 0
M  V30 6924 O 670.251 2.525 0.00472502 0
M  V30 6925 C 671.564 0.984824 -2.84116 0
M  V30 6926 C 673.112 1.08698 -2.93519 0
M  V30 6927 C 673.587 1.36515 -4.37181 0
M  V30 6928 N 675.078 1.43361 -4.40457 0
M  V30 6929 C 675.813 1.66528 -5.48686 0
M  V30 6930 N 675.309 1.87239 -6.67018 0
M  V30 6931 N 677.102 1.68617 -5.36213 0
M  V30 6932 H 669.253 -0.393484 -2.08723 0
M  V30 6933 H 671.516 -0.1138 -0.941145 0
M  V30 6934 H 671.222 0.171096 -3.51284 0
M  V30 6935 H 671.096 1.90253 -3.25705 0
M  V30 6936 H 673.483 1.89129 -2.26526 0
M  V30 6937 H 673.564 0.147432 -2.55375 0
M  V30 6938 H 673.208 0.565982 -5.04737 0
M  V30 6939 H 673.138 2.31737 -4.7287 0
M  V30 6940 H 675.629 1.29108 -3.55161 0
M  V30 6941 H 675.942 2.04392 -7.45281 0
M  V30 6942 H 674.287 1.84486 -6.70067 0
M  V30 6943 H 677.478 1.5198 -4.42741 0
M  V30 6944 H 677.651 1.86332 -6.20632 0
M  V30 6945 N 671.057 1.43213 0.657864 0
M  V30 6946 C 672.02 1.47687 1.75275 0
M  V30 6947 C 673.02 0.362179 1.56668 0
M  V30 6948 O 674.21 0.623734 1.62651 0
M  V30 6949 C 671.342 1.32497 3.14098 0
M  V30 6950 H 672.535 2.4519 1.7269 0
M  V30 6951 H 670.088 1.2991 0.869087 0
M  V30 6952 H 670.823 0.359831 3.22298 0
M  V30 6953 H 670.608 2.13299 3.29008 0
M  V30 6954 H 672.098 1.38549 3.93946 0
M  V30 6955 N 672.536 -0.895792 1.29666 0
M  V30 6956 C 673.782 -1.64908 1.18039 0
M  V30 6957 C 674.115 -1.9236 -0.266682 0
M  V30 6958 O 673.39 -1.53682 -1.19214 0
M  V30 6959 C 673.673 -2.99574 1.99819 0
M  V30 6960 C 673.526 -2.79163 3.52687 0
M  V30 6961 C 674.845 -4.00358 1.82761 0
M  V30 6962 H 671.964 -0.598437 0.430165 0
M  V30 6963 H 674.606 -1.03736 1.59182 0
M  V30 6964 H 672.756 -3.51786 1.64859 0
M  V30 6965 H 674.428 -2.33821 3.9765 0
M  V30 6966 H 672.671 -2.13871 3.77414 0
M  V30 6967 H 673.342 -3.74871 4.05186 0
M  V30 6968 H 675.818 -3.57268 2.13304 0
M  V30 6969 H 674.694 -4.92514 2.42325 0
M  V30 6970 H 674.955 -4.35096 0.783839 0
M  V30 6971 N 674.014 -1.12206 -1.10668 0
M  V30 6972 C 674.961 -0.787716 -2.16942 0
M  V30 6973 C 675.931 0.244442 -1.64291 0
M  V30 6974 O 677.116 0.119558 -1.90425 0
M  V30 6975 C 674.256 -0.24584 -3.44223 0
M  V30 6976 C 673.369 -1.33552 -4.10838 0
M  V30 6977 C 672.504 -0.753337 -5.25831 0
M  V30 6978 C 671.543 -1.82231 -5.84344 0
M  V30 6979 N 670.68 -1.25902 -6.90719 0
M  V30 6980 H 675.52 -1.69809 -2.44885 0
M  V30 6981 H 673.057 -0.847862 -1.20207 0
M  V30 6982 H 675.015 0.0863639 -4.17111 0
M  V30 6983 H 673.645 0.627702 -3.16638 0
M  V30 6984 H 672.697 -1.78454 -3.35944 0
M  V30 6985 H 674.009 -2.14396 -4.50373 0
M  V30 6986 H 673.163 -0.37166 -6.05561 0
M  V30 6987 H 671.902 0.0863297 -4.87624 0
M  V30 6988 H 670.907 -2.2132 -5.03287 0
M  V30 6989 H 672.132 -2.66515 -6.24617 0
M  V30 6990 H 670.078 -0.44114 -6.54515 0
M  V30 6991 H 669.995 -2.00408 -7.28953 0
M  V30 6992 H 671.263 -0.904498 -7.74235 0
M  V30 6993 N 675.492 1.28418 -0.913599 0
M  V30 6994 C 676.717 1.99643 -0.561899 0
M  V30 6995 C 677.142 1.67819 0.849608 0
M  V30 6996 O 676.5 0.910503 1.56779 0
M  V30 6997 C 676.548 3.52116 -0.777622 0
M  V30 6998 O 675.652 4.12076 0.163457 0
M  V30 6999 H 674.993 0.627229 -0.217898 0
M  V30 7000 H 677.523 1.63575 -1.229 0
M  V30 7001 H 677.533 4.02163 -0.687666 0
M  V30 7002 H 676.208 3.74613 -1.8066 0
M  V30 7003 H 674.785 3.72892 0.0247827 0
M  V30 7004 N 676.97 0.677563 1.42291 0
M  V30 7005 C 677.9 0.014968 2.33495 0
M  V30 7006 C 678.881 -0.786376 1.50831 0
M  V30 7007 O 680.066 -0.742975 1.79426 0
M  V30 7008 C 677.196 -0.935023 3.34477 0
M  V30 7009 C 676.15 -0.242074 4.27315 0
M  V30 7010 C 675.476 -1.30519 5.18526 0
M  V30 7011 C 676.776 0.880604 5.14823 0
M  V30 7012 H 678.47 0.776671 2.89151 0
M  V30 7013 H 676.016 0.37494 1.39033 0
M  V30 7014 H 677.969 -1.40766 3.97194 0
M  V30 7015 H 676.693 -1.72818 2.77131 0
M  V30 7016 H 675.352 0.210351 3.65996 0
M  V30 7017 H 675 -2.09041 4.57505 0
M  V30 7018 H 674.7 -0.846652 5.81468 0
M  V30 7019 H 676.224 -1.7787 5.84119 0
M  V30 7020 H 677.638 0.489062 5.7121 0
M  V30 7021 H 676.035 1.26511 5.86613 0
M  V30 7022 H 677.105 1.72818 4.53059 0
M  V30 7023 N 678.448 -1.51871 0.421078 0
M  V30 7024 C 679.38 -2.25052 -0.434065 0
M  V30 7025 C 680.393 -1.28458 -1.00013 0
M  V30 7026 O 681.582 -1.54323 -0.897033 0
M  V30 7027 C 678.682 -2.97813 -1.61743 0
M  V30 7028 C 677.855 -4.21374 -1.17315 0
M  V30 7029 C 676.914 -4.76854 -2.22478 0
M  V30 7030 O 675.94 -5.39123 -1.82577 0
M  V30 7031 N 677.142 -4.59467 -3.54782 0
M  V30 7032 H 679.907 -2.99077 0.193073 0
M  V30 7033 H 677.468 -1.59972 0.249088 0
M  V30 7034 H 679.46 -3.3182 -2.31685 0
M  V30 7035 H 678.03 -2.26899 -2.15024 0
M  V30 7036 H 677.25 -3.93046 -0.3014 0
M  V30 7037 H 678.538 -5.01591 -0.853444 0
M  V30 7038 H 677.936 -4.09832 -3.89941 0
M  V30 7039 H 676.493 -4.9788 -4.20665 0
M  V30 7040 N 679.926 -0.151884 -1.56866 0
M  V30 7041 C 680.874 0.80299 -2.183 0
M  V30 7042 C 681.868 1.25174 -1.14139 0
M  V30 7043 O 683.074 1.21966 -1.3238 0
M  V30 7044 H 679.449 0.277169 -0.699057 0
M  V30 7045 H 681.42 0.260699 -2.97259 0
M  V30 7046 C 680.169 2.03009 -2.82281 0
M  V30 7047 H 679.492 1.69377 -3.62148 0
M  V30 7048 H 680.932 2.67753 -3.28762 0
M  V30 7049 C 679.391 2.84123 -1.81041 0
M  V30 7050 O 679.921 3.8063 -1.28388 0
M  V30 7051 N 678.127 2.48753 -1.50234 0
M  V30 7052 H 677.674 1.70337 -1.93244 0
M  V30 7053 H 677.632 3.03316 -0.827445 0
M  V30 7054 N 681.404 1.57128 0.121893 0
M  V30 7055 C 682.367 1.99197 1.13372 0
M  V30 7056 C 683.367 0.881728 1.3447 0
M  V30 7057 O 684.557 1.14783 1.31036 0
M  V30 7058 C 681.689 2.32963 2.4888 0
M  V30 7059 H 682.882 2.89788 0.772204 0
M  V30 7060 H 680.435 1.51952 0.366093 0
M  V30 7061 H 681.17 1.45243 2.89957 0
M  V30 7062 H 680.955 3.13934 2.34921 0
M  V30 7063 H 682.445 2.66261 3.21706 0
M  V30 7064 N 682.882 -0.391992 1.52647 0
M  V30 7065 C 684.107 -1.16312 1.71716 0
M  V30 7066 C 684.532 -1.83042 0.433279 0
M  V30 7067 O 683.89 -1.70705 -0.610707 0
M  V30 7068 C 683.938 -2.18908 2.86551 0
M  V30 7069 O 683.042 -3.2543 2.53316 0
M  V30 7070 H 682.383 -0.338743 0.571095 0
M  V30 7071 H 684.913 -0.457202 1.99426 0
M  V30 7072 H 684.923 -2.62954 3.1196 0
M  V30 7073 H 683.598 -1.69726 3.79692 0
M  V30 7074 H 682.175 -2.86543 2.38637 0
M  V30 7075 N 684.36 -1.4356 -0.65026 0
M  V30 7076 C 685.323 -1.48615 -1.74489 0
M  V30 7077 C 686.323 -0.370483 -1.56474 0
M  V30 7078 O 687.513 -0.632351 -1.62317 0
M  V30 7079 C 684.645 -1.34161 -3.13391 0
M  V30 7080 H 685.838 -2.46103 -1.71387 0
M  V30 7081 H 683.391 -1.30369 -0.862186 0
M  V30 7082 H 684.126 -0.376918 -3.22102 0
M  V30 7083 H 683.911 -2.1504 -3.27872 0
M  V30 7084 H 685.401 -1.40637 -3.93206 0
M  V30 7085 N 685.838 0.888903 -1.30139 0
M  V30 7086 C 687.087 1.63507 -1.18103 0
M  V30 7087 C 687.4 1.93808 0.264141 0
M  V30 7088 O 688.606 2.66744 0.505966 0
M  V30 7089 C 687.062 2.94673 -2.0663 0
M  V30 7090 C 686.67 2.71926 -3.56034 0
M  V30 7091 C 688.414 3.72626 -2.03346 0
M  V30 7092 C 686.321 3.98884 -4.3663 0
M  V30 7093 H 685.251 0.613426 -0.438435 0
M  V30 7094 H 687.902 0.984427 -1.54859 0
M  V30 7095 H 686.284 3.61009 -1.62754 0
M  V30 7096 H 687.458 2.14116 -4.08033 0
M  V30 7097 H 685.773 2.07353 -3.61101 0
M  V30 7098 H 688.37 4.66775 -2.60816 0
M  V30 7099 H 688.713 4.03712 -1.016 0
M  V30 7100 H 689.246 3.13147 -2.45324 0
M  V30 7101 H 685.985 3.72959 -5.39056 0
M  V30 7102 H 685.505 4.56214 -3.89396 0
M  V30 7103 H 687.184 4.66938 -4.47859 0
M  V30 7104 N 687.317 1.12792 1.10072 0
M  V30 7105 C 688.227 0.812369 2.20086 0
M  V30 7106 C 689.243 -0.200349 1.72843 0
M  V30 7107 O 690.419 -0.0330262 2.01373 0
M  V30 7108 C 687.484 0.275685 3.45602 0
M  V30 7109 C 686.545 1.34881 4.07561 0
M  V30 7110 C 685.778 0.837639 5.27086 0
M  V30 7111 O 686.001 -0.327224 5.69461 0
M  V30 7112 O 684.935 1.60894 5.79997 0
M  V30 7113 H 688.761 1.73133 2.49517 0
M  V30 7114 H 686.346 0.904863 1.18881 0
M  V30 7115 H 688.228 -0.0185375 4.21396 0
M  V30 7116 H 686.903 -0.615783 3.17789 0
M  V30 7117 H 685.81 1.69625 3.33434 0
M  V30 7118 H 687.143 2.21418 4.39585 0
M  V30 7119 N 688.795 -1.27931 0.920396 0
M  V30 7120 C 690.02 -1.99343 0.572478 0
M  V30 7121 C 690.445 -1.68267 -0.840696 0
M  V30 7122 O 689.803 -0.918805 -1.56294 0
M  V30 7123 C 689.851 -3.51698 0.796284 0
M  V30 7124 O 688.955 -4.12157 -0.141602 0
M  V30 7125 H 688.296 -0.626065 0.221221 0
M  V30 7126 H 690.826 -1.62921 1.23765 0
M  V30 7127 H 690.836 -4.01793 0.708984 0
M  V30 7128 H 689.511 -3.73649 1.82644 0
M  V30 7129 H 688.088 -3.729 -0.005007 0
M  V30 7130 N 690.273 -0.685099 -1.4193 0
M  V30 7131 C 691.522 -0.208816 -2.00616 0
M  V30 7132 C 691.835 1.19506 -1.54847 0
M  V30 7133 O 693.041 1.76826 -2.06021 0
M  V30 7134 C 691.497 -0.322446 -3.58453 0
M  V30 7135 C 691.105 -1.73102 -4.13206 0
M  V30 7136 C 692.849 0.0945979 -4.24395 0
M  V30 7137 C 690.756 -1.79687 -5.63442 0
M  V30 7138 H 689.686 -0.0743092 -0.750329 0
M  V30 7139 H 692.337 -0.851778 -1.62533 0
M  V30 7140 H 690.719 0.388588 -3.94089 0
M  V30 7141 H 691.893 -2.46997 -3.8901 0
M  V30 7142 H 690.208 -2.09682 -3.59753 0
M  V30 7143 H 692.805 0.0656937 -5.3466 0
M  V30 7144 H 693.148 1.1316 -4.00625 0
M  V30 7145 H 693.681 -0.56579 -3.93756 0
M  V30 7146 H 690.42 -2.81404 -5.92024 0
M  V30 7147 H 689.94 -1.10162 -5.89597 0
M  V30 7148 H 691.619 -1.55498 -6.28036 0
M  V30 7149 N 691.751 1.51645 -0.429126 0
M  V30 7150 C 692.681 2.30434 0.377148 0
M  V30 7151 C 693.662 1.35493 1.02838 0
M  V30 7152 O 694.847 1.6441 1.03359 0
M  V30 7153 C 691.977 3.14038 1.48315 0
M  V30 7154 C 690.931 4.1719 0.955855 0
M  V30 7155 C 690.257 4.89263 2.15698 0
M  V30 7156 C 691.557 5.223 -0.00402136 0
M  V30 7157 H 693.251 2.98085 -0.280336 0
M  V30 7158 H 690.797 1.43354 -0.136265 0
M  V30 7159 H 692.75 3.67933 2.05435 0
M  V30 7160 H 691.474 2.44193 2.16881 0
M  V30 7161 H 690.133 3.64335 0.406929 0
M  V30 7162 H 689.781 4.15929 2.82864 0
M  V30 7163 H 689.481 5.59009 1.81059 0
M  V30 7164 H 691.005 5.45978 2.73387 0
M  V30 7165 H 692.419 5.71315 0.476607 0
M  V30 7166 H 690.816 5.99525 -0.26258 0
M  V30 7167 H 691.886 4.75638 -0.943236 0
M  V30 7168 N 693.229 0.160201 1.56784 0
M  V30 7169 C 694.176 -0.774416 2.1742 0
M  V30 7170 C 695.146 -1.23483 1.11091 0
M  V30 7171 O 696.331 -1.30499 1.39193 0
M  V30 7172 C 693.471 -2.00283 2.81035 0
M  V30 7173 C 692.584 -1.58701 4.01793 0
M  V30 7174 C 691.719 -2.76824 4.53367 0
M  V30 7175 C 690.758 -2.31679 5.66561 0
M  V30 7176 N 689.895 -3.42856 6.12694 0
M  V30 7177 H 694.735 -0.250542 2.96945 0
M  V30 7178 H 692.272 -0.111943 1.46673 0
M  V30 7179 H 694.23 -2.72316 3.16069 0
M  V30 7180 H 692.86 -2.5006 2.04132 0
M  V30 7181 H 691.912 -0.76384 3.72652 0
M  V30 7182 H 693.224 -1.21555 4.83762 0
M  V30 7183 H 692.378 -3.57029 4.90525 0
M  V30 7184 H 691.117 -3.17223 3.70433 0
M  V30 7185 H 690.122 -1.49917 5.28966 0
M  V30 7186 H 691.347 -1.9235 6.5129 0
M  V30 7187 H 689.293 -3.82852 5.32692 0
M  V30 7188 H 689.21 -3.09767 6.89624 0
M  V30 7189 H 690.478 -4.23379 6.545 0
M  V30 7190 N 694.707 -1.5719 -0.113559 0
M  V30 7191 C 695.655 -2.01725 -1.158 0
M  V30 7192 C 696.649 -0.915105 -1.42556 0
M  V30 7193 O 697.855 -1.10031 -1.42454 0
M  V30 7194 H 694.23 -0.64262 -0.390569 0
M  V30 7195 H 696.201 -2.88666 -0.755926 0
M  V30 7196 C 694.95 -2.44203 -2.47507 0
M  V30 7197 H 694.273 -3.28582 -2.27758 0
M  V30 7198 H 695.713 -2.79158 -3.19135 0
M  V30 7199 C 694.172 -1.30785 -3.10478 0
M  V30 7200 O 694.702 -0.626807 -3.9678 0
M  V30 7201 N 692.908 -1.06352 -2.7044 0
M  V30 7202 H 692.455 -1.61913 -2.00355 0
M  V30 7203 H 692.413 -0.306614 -3.12901 0
M  V30 7204 N 696.185 0.383891 -1.52853 0
M  V30 7205 C 697.115 1.47559 -1.80965 0
M  V30 7206 C 698.096 1.5669 -0.661986 0
M  V30 7207 O 699.281 1.71556 -0.910072 0
M  V30 7208 C 696.411 2.85114 -1.98312 0
M  V30 7209 C 695.365 2.9082 -3.14019 0
M  V30 7210 C 694.691 4.30873 -3.16627 0
M  V30 7211 C 695.991 2.60001 -4.52986 0
M  V30 7212 H 697.685 1.24283 -2.72386 0
M  V30 7213 H 695.231 0.596445 -1.31067 0
M  V30 7214 H 697.184 3.61496 -2.16561 0
M  V30 7215 H 695.908 3.09738 -1.03585 0
M  V30 7216 H 694.567 2.16886 -2.9556 0
M  V30 7217 H 694.215 4.52545 -2.19573 0
M  V30 7218 H 693.915 4.3561 -3.94357 0
M  V30 7219 H 695.439 5.09154 -3.37038 0
M  V30 7220 H 696.853 3.261 -4.71521 0
M  V30 7221 H 695.25 2.76081 -5.32822 0
M  V30 7222 H 696.32 1.5532 -4.59351 0
M  V30 7223 N 697.663 1.43903 0.642637 0
M  V30 7224 C 698.593 1.52697 1.76652 0
M  V30 7225 C 699.574 0.380816 1.65782 0
M  V30 7226 O 700.759 0.599432 1.84717 0
M  V30 7227 C 697.889 1.45975 3.15133 0
M  V30 7228 C 696.843 2.58949 3.40778 0
M  V30 7229 C 696.169 2.37279 4.79169 0
M  V30 7230 C 697.469 4.01153 3.34475 0
M  V30 7231 H 699.163 2.46766 1.69549 0
M  V30 7232 H 696.709 1.18767 0.814279 0
M  V30 7233 H 698.662 1.5073 3.93521 0
M  V30 7234 H 697.386 0.484162 3.22991 0
M  V30 7235 H 696.045 2.53564 2.64765 0
M  V30 7236 H 695.693 1.37939 4.83717 0
M  V30 7237 H 695.393 3.13016 4.97287 0
M  V30 7238 H 696.917 2.43834 5.59801 0
M  V30 7239 H 698.331 4.07968 4.02784 0
M  V30 7240 H 696.728 4.77001 3.64129 0
M  V30 7241 H 697.798 4.25539 2.32475 0
M  V30 7242 N 699.141 -0.881989 1.30609 0
M  V30 7243 C 700.552 -1.44956 1.17664 0
M  V30 7244 C 700.903 -1.94945 -0.221531 0
M  V30 7245 O 700.028 -1.85257 -1.11844 0
M  V30 7246 C 700.623 -2.63474 2.12995 0
M  V30 7247 C 699.182 -3.16312 2.04019 0
M  V30 7248 C 698.329 -1.89008 2.02907 0
M  V30 7249 H 701.28 -0.691645 1.42835 0
M  V30 7250 H 701.301 -3.39783 1.71253 0
M  V30 7251 H 700.813 -2.2706 3.14746 0
M  V30 7252 H 698.914 -3.57376 1.0542 0
M  V30 7253 H 699.027 -3.79409 2.9255 0
M  V30 7254 H 697.391 -2.07465 1.47751 0
M  V30 7255 H 698.174 -1.54848 3.06394 0
M  V30 7256 N 700.619 -1.13374 -1.09472 0
M  V30 7257 C 701.859 -0.905422 -1.83252 0
M  V30 7258 C 702.223 0.558396 -1.83701 0
M  V30 7259 O 703.424 0.904254 -2.53134 0
M  V30 7260 C 701.695 -1.47658 -3.25472 0
M  V30 7261 S 703.254 -1.38825 -4.16261 0
M  V30 7262 H 700.072 -0.326371 -0.631667 0
M  V30 7263 H 702.674 -1.44517 -1.31663 0
M  V30 7264 H 701.378 -2.53533 -3.22722 0
M  V30 7265 H 700.909 -0.934756 -3.82133 0
M  V30 7266 H 702.924 -0.366379 -4.94846 0
M  V30 7267 N 702.098 1.27442 -0.927168 0
M  V30 7268 C 703.028 2.29256 -0.443188 0
M  V30 7269 C 704.009 1.62701 0.49624 0
M  V30 7270 O 705.194 1.90013 0.401105 0
M  V30 7271 C 702.324 3.45955 0.305366 0
M  V30 7272 C 701.278 4.24501 -0.546178 0
M  V30 7273 C 700.604 5.33671 0.331512 0
M  V30 7274 C 701.904 4.89921 -1.81037 0
M  V30 7275 H 703.598 2.69988 -1.29409 0
M  V30 7276 H 701.144 1.29792 -0.623705 0
M  V30 7277 H 703.097 4.1628 0.654885 0
M  V30 7278 H 701.821 3.04138 1.19029 0
M  V30 7279 H 700.48 3.55921 -0.878398 0
M  V30 7280 H 700.128 4.88096 1.21537 0
M  V30 7281 H 699.828 5.87131 -0.234746 0
M  V30 7282 H 701.352 6.0684 0.676614 0
M  V30 7283 H 702.766 5.52536 -1.52895 0
M  V30 7284 H 701.163 5.53436 -2.32009 0
M  V30 7285 H 702.233 4.13652 -2.53021 0
M  V30 7286 N 703.576 0.692616 1.41565 0
M  V30 7287 C 704.987 0.297478 1.84315 0
M  V30 7288 C 705.338 -1.16379 1.57957 0
M  V30 7289 O 704.463 -1.89303 1.0485 0
M  V30 7290 C 705.058 0.533136 3.34579 0
M  V30 7291 C 703.617 0.191944 3.7591 0
M  V30 7292 C 702.764 0.816873 2.64995 0
M  V30 7293 H 705.715 0.893488 1.31158 0
M  V30 7294 H 705.736 -0.209105 3.79925 0
M  V30 7295 H 705.248 1.59674 3.53731 0
M  V30 7296 H 703.349 -0.867512 3.6236 0
M  V30 7297 H 703.462 0.644902 4.7474 0
M  V30 7298 H 701.826 0.246715 2.53502 0
M  V30 7299 H 702.609 1.88429 2.86966 0
M  V30 7300 N 705.054 -1.51416 0.437162 0
M  V30 7301 C 705.984 -2.30631 -0.364922 0
M  V30 7302 C 706.965 -1.36037 -1.02118 0
M  V30 7303 O 708.15 -1.64956 -1.02485 0
M  V30 7304 C 705.28 -3.1482 -1.46648 0
M  V30 7305 C 704.234 -4.17691 -0.933717 0
M  V30 7306 C 703.56 -4.904 -2.13101 0
M  V30 7307 C 704.86 -5.2229 0.0317201 0
M  V30 7308 H 706.554 -2.97932 0.29614 0
M  V30 7309 H 704.1 -1.4328 0.143865 0
M  V30 7310 H 706.053 -3.69017 -2.03481 0
M  V30 7311 H 704.777 -2.4534 -2.15583 0
M  V30 7312 H 703.436 -3.64545 -0.387602 0
M  V30 7313 H 703.084 -4.17423 -2.80654 0
M  V30 7314 H 702.784 -5.59962 -1.78092 0
M  V30 7315 H 704.308 -5.4742 -2.70487 0
M  V30 7316 H 705.722 -5.7156 -0.446302 0
M  V30 7317 H 704.119 -5.99378 0.29437 0
M  V30 7318 H 705.189 -4.75131 0.968447 0
M  V30 7319 N 706.532 -0.168513 -1.56696 0
M  V30 7320 C 707.495 0.748928 -2.16619 0
M  V30 7321 C 708.495 1.16007 -1.11351 0
M  V30 7322 O 709.685 1.07748 -1.3688 0
M  V30 7323 C 706.817 2.01904 -2.74677 0
M  V30 7324 H 708.01 0.227317 -2.99037 0
M  V30 7325 H 705.563 0.0810372 -1.5609 0
M  V30 7326 H 706.298 2.58381 -1.95985 0
M  V30 7327 H 706.083 1.73323 -3.51712 0
M  V30 7328 H 707.573 2.67383 -3.20774 0
M  V30 7329 N 708.01 1.57248 0.105221 0
M  V30 7330 C 709.238 1.89768 0.82437 0
M  V30 7331 C 709.653 0.761192 1.72775 0
M  V30 7332 O 709.01 -0.267342 1.80531 0
M  V30 7333 C 709.061 3.2184 1.64625 0
M  V30 7334 O 708.782 4.31115 0.779217 0
M  V30 7335 C 710.283 3.68155 2.46935 0
M  V30 7336 H 707.503 0.628031 0.236259 0
M  V30 7337 H 710.047 2.04321 0.085485 0
M  V30 7338 H 708.202 3.08915 2.33775 0
M  V30 7339 H 708.616 5.06897 1.34745 0
M  V30 7340 H 710.09 4.6329 3.00111 0
M  V30 7341 H 710.567 2.95492 3.24932 0
M  V30 7342 H 711.173 3.83914 1.83002 0
M  V30 7343 N 709.488 -0.375779 1.53054 0
M  V30 7344 C 710.451 -1.44254 1.7811 0
M  V30 7345 C 711.451 -1.47018 0.651328 0
M  V30 7346 O 712.641 -1.47957 0.919472 0
M  V30 7347 C 709.773 -2.8345 1.89391 0
M  V30 7348 H 710.966 -1.23316 2.73374 0
M  V30 7349 H 708.519 -0.608312 1.43977 0
M  V30 7350 H 709.254 -3.09716 0.961589 0
M  V30 7351 H 709.039 -2.82844 2.71555 0
M  V30 7352 H 710.529 -3.60722 2.10404 0
M  V30 7353 N 710.966 -1.44241 -0.634997 0
M  V30 7354 C 711.929 -1.50457 -1.72903 0
M  V30 7355 C 712.929 -0.387058 -1.56072 0
M  V30 7356 O 714.119 -0.649531 -1.61638 0
M  V30 7357 C 711.251 -1.37477 -3.1195 0
M  V30 7358 H 712.444 -2.47907 -1.68767 0
M  V30 7359 H 709.997 -1.31276 -0.84831 0
M  V30 7360 H 710.732 -0.41106 -3.21684 0
M  V30 7361 H 710.517 -2.18506 -3.25573 0
M  V30 7362 H 712.007 -1.44799 -3.91692 0
M  V30 7363 N 712.444 0.87505 -1.31075 0
M  V30 7364 C 713.855 1.4433 -1.18431 0
M  V30 7365 C 714.206 1.9506 0.211189 0
M  V30 7366 O 713.331 1.85847 1.10859 0
M  V30 7367 C 713.926 2.62341 -2.14389 0
M  V30 7368 C 712.485 3.15225 -2.05694 0
M  V30 7369 C 711.632 1.87929 -2.03907 0
M  V30 7370 H 714.583 0.684061 -1.432 0
M  V30 7371 H 714.604 3.3887 -1.73053 0
M  V30 7372 H 714.116 2.25388 -3.15946 0
M  V30 7373 H 712.217 3.56812 -1.07314 0
M  V30 7374 H 712.33 3.77853 -2.94558 0
M  V30 7375 H 710.694 2.06679 -1.48849 0
M  V30 7376 H 711.477 1.53221 -3.07211 0
M  V30 7377 N 713.922 1.13953 1.08869 0
M  V30 7378 C 715.15 0.92817 1.84912 0
M  V30 7379 C 715.565 -0.523197 1.81406 0
M  V30 7380 O 714.922 -1.36237 1.21432 0
M  V30 7381 C 714.973 1.41509 3.32652 0
M  V30 7382 O 714.694 2.80959 3.36145 0
M  V30 7383 C 716.195 1.243 4.25517 0
M  V30 7384 H 713.415 0.330612 0.583898 0
M  V30 7385 H 715.959 1.51349 1.37527 0
M  V30 7386 H 714.114 0.872648 3.77444 0
M  V30 7387 H 714.528 3.02704 4.28335 0
M  V30 7388 H 716.002 1.63237 5.27312 0
M  V30 7389 H 716.479 0.18532 4.38809 0
M  V30 7390 H 717.085 1.77375 3.86546 0
M  V30 7391 N 715.4 -1.26948 0.933913 0
M  V30 7392 C 716.816 -1.46419 0.635103 0
M  V30 7393 C 717.016 -1.84336 -0.813785 0
M  V30 7394 O 716.072 -1.96061 -1.59111 0
M  V30 7395 C 717.385 -2.55206 1.5903 0
M  V30 7396 C 718.933 -2.69062 1.5992 0
M  V30 7397 C 719.408 -3.81013 2.54152 0
M  V30 7398 N 720.899 -3.88395 2.52395 0
M  V30 7399 C 721.634 -4.74454 3.21996 0
M  V30 7400 N 721.13 -5.64954 4.00997 0
M  V30 7401 N 722.923 -4.68237 3.10983 0
M  V30 7402 H 715.074 -1.00622 1.87053 0
M  V30 7403 H 717.337 -0.503189 0.803433 0
M  V30 7404 H 717.043 -2.34153 2.62422 0
M  V30 7405 H 716.917 -3.52719 1.33677 0
M  V30 7406 H 719.304 -2.89492 0.572569 0
M  V30 7407 H 719.385 -1.72016 1.89325 0
M  V30 7408 H 719.029 -3.61336 3.5693 0
M  V30 7409 H 718.959 -4.77499 2.22041 0
M  V30 7410 H 721.45 -3.23687 1.95025 0
M  V30 7411 H 721.763 -6.27496 4.51074 0
M  V30 7412 H 720.108 -5.6473 4.05099 0
M  V30 7413 H 723.299 -3.96535 2.48753 0
M  V30 7414 H 723.472 -5.35087 3.65494 0
M  V30 7415 N 716.879 -0.700114 -1.41195 0
M  V30 7416 C 717.829 -0.0144098 -2.27995 0
M  V30 7417 C 718.813 0.748249 -1.42443 0
M  V30 7418 O 720.005 0.622995 -1.65674 0
M  V30 7419 C 717.134 0.917938 -3.308 0
M  V30 7420 C 716.22 0.151286 -4.2383 0
M  V30 7421 N 716.611 -0.85732 -4.98481 0
M  V30 7422 C 714.909 0.386108 -4.44326 0
M  V30 7423 C 715.61 -1.31663 -5.66604 0
M  V30 7424 N 714.586 -0.641689 -5.39799 0
M  V30 7425 H 718.388 -0.787662 -2.83149 0
M  V30 7426 H 715.902 -0.531344 -1.53462 0
M  V30 7427 H 717.899 1.42437 -3.91813 0
M  V30 7428 H 716.559 1.69074 -2.77208 0
M  V30 7429 H 717.57 -1.2377 -5.02893 0
M  V30 7430 H 714.247 1.13644 -4.01735 0
M  V30 7431 H 715.637 -2.15384 -6.36443 0
M  V30 7432 N 718.357 1.51182 -0.445186 0
M  V30 7433 C 719.768 1.86693 0.0160999 0
M  V30 7434 C 720.119 1.36183 1.4124 0
M  V30 7435 O 719.244 0.715895 2.04215 0
M  V30 7436 C 719.839 3.38781 0.0359918 0
M  V30 7437 C 718.398 3.73799 0.441715 0
M  V30 7438 C 717.545 2.74947 -0.360511 0
M  V30 7439 H 720.496 1.44294 -0.660674 0
M  V30 7440 H 720.517 3.71026 0.843813 0
M  V30 7441 H 720.029 3.75513 -0.980378 0
M  V30 7442 H 718.13 3.42659 1.4634 0
M  V30 7443 H 718.243 4.78829 0.16106 0
M  V30 7444 H 716.607 2.54047 0.182269 0
M  V30 7445 H 717.39 3.14521 -1.3759 0
M  V30 7446 N 719.835 0.176821 1.56605 0
M  V30 7447 C 721.084 -0.466833 1.96223 0
M  V30 7448 C 721.397 -1.64015 1.06576 0
M  V30 7449 O 722.603 -2.3504 1.35898 0
M  V30 7450 C 721.059 -0.881921 3.48927 0
M  V30 7451 C 720.667 0.266102 4.47209 0
M  V30 7452 C 722.411 -1.49368 3.97353 0
M  V30 7453 C 720.318 -0.168923 5.91159 0
M  V30 7454 H 719.248 -0.178178 0.732645 0
M  V30 7455 H 721.899 0.265929 1.81563 0
M  V30 7456 H 720.281 -1.67082 3.59026 0
M  V30 7457 H 721.455 1.04349 4.4883 0
M  V30 7458 H 719.77 0.788178 4.08872 0
M  V30 7459 H 722.367 -1.8313 5.02362 0
M  V30 7460 H 722.71 -2.3936 3.40606 0
M  V30 7461 H 723.243 -0.769114 3.90294 0
M  V30 7462 H 719.982 0.696351 6.51791 0
M  V30 7463 H 719.502 -0.911552 5.92833 0
M  V30 7464 H 721.181 -0.610938 6.44109 0
M  V30 7465 N 721.313 -1.57302 -0.09688 0
M  V30 7466 C 722.263 -1.98369 -1.12399 0
M  V30 7467 C 723.247 -0.861872 -1.3587 0
M  V30 7468 O 724.439 -1.1257 -1.36591 0
M  V30 7469 C 721.568 -2.41017 -2.4447 0
M  V30 7470 C 720.654 -3.59881 -2.24381 0
M  V30 7471 N 721.045 -4.74872 -1.74155 0
M  V30 7472 C 719.343 -3.65943 -2.54954 0
M  V30 7473 C 720.044 -5.56823 -1.68294 0
M  V30 7474 N 719.02 -4.99942 -2.13444 0
M  V30 7475 H 722.822 -2.84726 -0.728575 0
M  V30 7476 H 720.336 -1.59523 -0.304332 0
M  V30 7477 H 722.333 -2.68665 -3.18786 0
M  V30 7478 H 720.993 -1.56036 -2.84751 0
M  V30 7479 H 722.004 -4.97657 -1.43379 0
M  V30 7480 H 718.681 -2.9162 -2.98771 0
M  V30 7481 H 720.071 -6.59099 -1.30528 0
M  V30 7482 N 722.791 0.367657 -1.53252 0
M  V30 7483 C 724.04 1.10782 -1.68554 0
M  V30 7484 C 724.353 1.90523 -0.442765 0
M  V30 7485 O 725.559 2.6729 -0.47629 0
M  V30 7486 C 724.015 2.01863 -2.97959 0
M  V30 7487 C 723.623 1.27443 -4.29491 0
M  V30 7488 C 725.367 2.75883 -3.22628 0
M  V30 7489 C 723.274 2.17414 -5.49987 0
M  V30 7490 H 722.204 0.417272 -0.628013 0
M  V30 7491 H 724.855 0.368971 -1.79752 0
M  V30 7492 H 723.237 2.7947 -2.80558 0
M  V30 7493 H 724.411 0.549138 -4.57516 0
M  V30 7494 H 722.726 0.652935 -4.11249 0
M  V30 7495 H 725.323 3.43421 -4.09837 0
M  V30 7496 H 725.666 3.41138 -2.38601 0
M  V30 7497 H 726.199 2.0536 -3.40693 0
M  V30 7498 H 722.938 1.5674 -6.36485 0
M  V30 7499 H 722.458 2.87799 -5.26243 0
M  V30 7500 H 724.137 2.77019 -5.84696 0
M  V30 7501 N 724.269 1.44576 0.627338 0
M  V30 7502 C 725.216 1.51734 1.73912 0
M  V30 7503 C 726.186 0.364745 1.62046 0
M  V30 7504 O 727.371 0.575503 1.81914 0
M  V30 7505 C 724.511 1.47116 3.12171 0
M  V30 7506 C 723.624 2.72778 3.34986 0
M  V30 7507 C 722.759 2.59968 4.63239 0
M  V30 7508 C 721.798 3.80776 4.79245 0
M  V30 7509 N 720.935 3.66618 5.98778 0
M  V30 7510 H 725.775 2.46722 1.6713 0
M  V30 7511 H 723.312 1.22444 0.815224 0
M  V30 7512 H 725.27 1.42429 3.92135 0
M  V30 7513 H 723.9 0.556928 3.17959 0
M  V30 7514 H 722.952 2.87637 2.48936 0
M  V30 7515 H 724.264 3.62441 3.42692 0
M  V30 7516 H 723.418 2.53135 5.51369 0
M  V30 7517 H 722.157 1.67872 4.57898 0
M  V30 7518 H 721.162 3.87989 3.89544 0
M  V30 7519 H 722.387 4.73913 4.86398 0
M  V30 7520 H 720.333 2.77277 5.9452 0
M  V30 7521 H 720.25 4.499 6.07557 0
M  V30 7522 H 721.518 3.63684 6.89459 0
M  V30 7523 N 725.747 -0.868086 1.31537 0
M  V30 7524 C 727.024 -1.60384 1.11965 0
M  V30 7525 C 727.404 -2.08584 -0.324949 0
M  V30 7526 O 726.752 -1.86561 -1.31937 0
M  V30 7527 C 726.962 -2.76038 2.13551 0
M  V30 7528 C 728.31 -3.45954 2.46173 0
M  V30 7529 O 729.334 -2.86247 2.11993 0
M  V30 7530 O 728.193 -4.53666 3.04711 0
M  V30 7531 H 725.287 -0.705705 0.431172 0
M  V30 7532 H 727.833 -0.913385 1.43022 0
M  V30 7533 H 726.605 -2.37849 3.10714 0
M  V30 7534 H 726.228 -3.52769 1.83411 0
M  V30 7535 N 727.225 -1.14528 -1.08264 0
M  V30 7536 C 728.473 -0.912599 -1.80322 0
M  V30 7537 C 728.794 0.562256 -1.86718 0
M  V30 7538 O 728.064 1.40869 -1.36135 0
M  V30 7539 H 726.644 -0.334645 -0.667849 0
M  V30 7540 H 729.306 -1.44415 -1.30883 0
M  V30 7541 H 728.402 -1.31384 -2.83098 0
M  V30 7542 N 728.703 1.26451 -0.940633 0
M  V30 7543 C 729.98 1.88947 -0.505811 0
M  V30 7544 C 730.36 1.85011 1.01657 0
M  V30 7545 O 729.708 1.30406 1.87634 0
M  V30 7546 C 729.918 3.32304 -1.06654 0
M  V30 7547 C 731.266 4.09153 -1.13486 0
M  V30 7548 O 732.29 3.41371 -1.01708 0
M  V30 7549 O 731.149 5.30369 -1.31797 0
M  V30 7550 H 728.243 0.810422 -0.164759 0
M  V30 7551 H 730.789 1.34625 -1.03316 0
M  V30 7552 H 729.561 3.29527 -2.11015 0
M  V30 7553 H 729.184 3.94164 -0.521603 0
M  V30 7554 N 730.181 0.707592 1.40822 0
M  V30 7555 C 731.427 0.252828 2.01823 0
M  V30 7556 C 731.782 -1.13876 1.55081 0
M  V30 7557 O 731.075 -1.75993 0.757439 0
M  V30 7558 C 731.269 0.262892 3.56432 0
M  V30 7559 C 731.098 1.65392 4.18181 0
M  V30 7560 C 729.868 2.25966 4.5196 0
M  V30 7561 C 732.066 2.60272 4.4358 0
M  V30 7562 N 730.048 3.57508 4.9906 0
M  V30 7563 C 731.419 3.76509 4.92586 0
M  V30 7564 C 733.474 2.58386 4.25607 0
M  V30 7565 C 732.177 4.91157 5.25507 0
M  V30 7566 C 734.203 3.72155 4.59625 0
M  V30 7567 C 733.565 4.87123 5.08813 0
M  V30 7568 H 729.664 0.138172 0.769696 0
M  V30 7569 H 732.248 0.927667 1.7118 0
M  V30 7570 H 730.419 -0.381479 3.86522 0
M  V30 7571 H 732.151 -0.20783 4.04166 0
M  V30 7572 H 728.906 1.78138 4.38821 0
M  V30 7573 H 729.33 4.24968 5.27002 0
M  V30 7574 H 733.972 1.7071 3.86805 0
M  V30 7575 H 731.69 5.79483 5.63227 0
M  V30 7576 H 735.276 3.71961 4.47366 0
M  V30 7577 H 734.156 5.73698 5.3464 0
M  V30 7578 N 731.66 -1.50943 0.453197 0
M  V30 7579 C 732.608 -2.29728 -0.364419 0
M  V30 7580 C 733.602 -1.36246 -1.00664 0
M  V30 7581 O 734.808 -1.53518 -0.939794 0
M  V30 7582 H 731.183 -0.739536 -0.136347 0
M  V30 7583 H 733.154 -2.96672 0.320696 0
M  V30 7584 C 731.903 -3.1629 -1.44415 0
M  V30 7585 H 731.226 -3.88119 -0.959343 0
M  V30 7586 H 732.666 -3.74444 -1.98917 0
M  V30 7587 C 731.125 -2.32702 -2.43622 0
M  V30 7588 O 731.655 -1.99763 -3.48508 0
M  V30 7589 N 729.861 -1.95621 -2.14897 0
M  V30 7590 H 729.408 -2.22607 -1.29629 0
M  V30 7591 H 729.366 -1.39993 -2.81513 0
M  V30 7592 N 733.138 -0.185124 -1.56509 0
M  V30 7593 C 734.048 0.751908 -2.22224 0
M  V30 7594 C 735.064 1.24244 -1.21817 0
M  V30 7595 O 736.24 1.29169 -1.54523 0
M  V30 7596 C 733.305 1.95837 -2.86092 0
M  V30 7597 C 732.366 1.51337 -4.01741 0
M  V30 7598 C 731.599 2.66233 -4.62554 0
M  V30 7599 O 731.822 3.8346 -4.22273 0
M  V30 7600 O 730.756 2.39517 -5.52191 0
M  V30 7601 H 734.582 0.222304 -3.02885 0
M  V30 7602 H 732.167 0.0437141 -1.49336 0
M  V30 7603 H 734.049 2.66368 -3.26536 0
M  V30 7604 H 732.724 2.47677 -2.08417 0
M  V30 7605 H 731.631 0.777155 -3.65939 0
M  V30 7606 H 732.964 1.04175 -4.81049 0
M  V30 7607 N 734.616 1.57351 0.0885366 0
M  V30 7608 C 735.863 1.86419 0.790824 0
M  V30 7609 C 736.191 0.774561 1.78412 0
M  V30 7610 O 735.446 -0.23119 1.9433 0
M  V30 7611 C 735.745 3.22098 1.5488 0
M  V30 7612 C 735.411 4.4548 0.697025 0
M  V30 7613 C 734.073 4.78975 0.462237 0
M  V30 7614 C 736.425 5.21094 0.105315 0
M  V30 7615 C 733.753 5.85507 -0.374016 0
M  V30 7616 C 736.105 6.28509 -0.718298 0
M  V30 7617 C 734.769 6.60515 -0.963116 0
M  V30 7618 H 734.039 0.682157 0.289383 0
M  V30 7619 H 736.686 1.91429 0.0520961 0
M  V30 7620 H 734.991 3.12803 2.35927 0
M  V30 7621 H 736.688 3.41819 2.09669 0
M  V30 7622 H 733.278 4.19255 0.890137 0
M  V30 7623 H 737.462 4.95544 0.273856 0
M  V30 7624 H 732.718 6.08713 -0.572606 0
M  V30 7625 H 736.892 6.86268 -1.18362 0
M  V30 7626 H 734.519 7.42893 -1.6129 0
M  V30 7627 N 736.094 -0.359525 1.53444 0
M  V30 7628 C 737.51 -0.701599 1.43352 0
M  V30 7629 C 737.71 -1.93049 0.577439 0
M  V30 7630 O 736.766 -2.52423 0.0622224 0
M  V30 7631 C 738.079 -0.90915 2.86627 0
M  V30 7632 C 739.627 -1.00878 2.96298 0
M  V30 7633 C 740.102 -1.24876 4.40647 0
M  V30 7634 N 741.593 -1.31632 4.44103 0
M  V30 7635 C 742.328 -1.51922 5.52908 0
M  V30 7636 N 741.824 -1.69489 6.71748 0
M  V30 7637 N 743.617 -1.54341 5.40496 0
M  V30 7638 H 735.768 0.448685 2.07607 0
M  V30 7639 H 738.031 0.138713 0.937797 0
M  V30 7640 H 737.737 -0.0778997 3.51614 0
M  V30 7641 H 737.611 -1.81551 3.30634 0
M  V30 7642 H 739.998 -1.83057 2.31461 0
M  V30 7643 H 740.079 -0.0796721 2.55676 0
M  V30 7644 H 739.723 -0.431961 5.0606 0
M  V30 7645 H 739.653 -2.19118 4.78848 0
M  V30 7646 H 742.144 -1.19646 3.5846 0
M  V30 7647 H 742.457 -1.84561 7.50438 0
M  V30 7648 H 740.802 -1.66655 6.74723 0
M  V30 7649 H 743.993 -1.40188 4.46615 0
M  V30 7650 H 744.166 -1.69812 6.25354 0
M  V30 7651 N 737.572 -1.44907 -0.619662 0
M  V30 7652 C 738.988 -1.29046 -0.939107 0
M  V30 7653 C 739.188 -0.23462 -2.00129 0
M  V30 7654 O 738.244 0.37558 -2.49691 0
M  V30 7655 C 739.557 -2.66567 -1.39149 0
M  V30 7656 C 741.105 -2.74368 -1.50635 0
M  V30 7657 C 741.58 -4.12386 -1.99253 0
M  V30 7658 N 743.071 -4.1462 -2.06506 0
M  V30 7659 C 743.806 -5.18272 -2.4532 0
M  V30 7660 N 743.302 -6.32278 -2.83189 0
M  V30 7661 N 745.095 -5.05628 -2.45554 0
M  V30 7662 H 737.246 -2.12239 0.0826135 0
M  V30 7663 H 739.509 -0.947652 -0.0256829 0
M  V30 7664 H 739.215 -3.4496 -0.685254 0
M  V30 7665 H 739.089 -2.94224 -2.36034 0
M  V30 7666 H 741.476 -1.96287 -2.20353 0
M  V30 7667 H 741.557 -2.50439 -0.520963 0
M  V30 7668 H 741.201 -4.90947 -1.30127 0
M  V30 7669 H 741.131 -4.33699 -2.98684 0
M  V30 7670 H 743.622 -3.32343 -1.79878 0
M  V30 7671 H 743.935 -7.07172 -3.11652 0
M  V30 7672 H 742.28 -6.35699 -2.80913 0
M  V30 7673 H 745.471 -4.15613 -2.15367 0
M  V30 7674 H 745.644 -5.86529 -2.75478 0
M  V30 7675 N 739.05 0.861098 -1.31996 0
M  V30 7676 C 739.997 1.96912 -1.20392 0
M  V30 7677 C 740.967 1.65869 -0.0875899 0
M  V30 7678 O 742.152 1.88992 -0.262011 0
M  V30 7679 C 739.292 3.32435 -0.926335 0
M  V30 7680 C 738.405 3.76018 -2.12684 0
M  V30 7681 C 737.54 5.00301 -1.78529 0
M  V30 7682 C 736.579 5.36357 -2.94937 0
M  V30 7683 N 735.716 6.51818 -2.60917 0
M  V30 7684 H 740.556 2.06169 -2.1517 0
M  V30 7685 H 738.093 1.00917 -1.07024 0
M  V30 7686 H 740.051 4.10478 -0.745917 0
M  V30 7687 H 738.681 3.22796 -0.0153578 0
M  V30 7688 H 737.733 2.93683 -2.41774 0
M  V30 7689 H 739.045 3.98664 -2.99781 0
M  V30 7690 H 738.199 5.86034 -1.57001 0
M  V30 7691 H 736.938 4.79578 -0.886356 0
M  V30 7692 H 735.943 4.49139 -3.17103 0
M  V30 7693 H 737.168 5.59041 -3.85552 0
M  V30 7694 H 735.114 6.32624 -1.73558 0
M  V30 7695 H 735.031 6.7445 -3.41544 0
M  V30 7696 H 736.299 7.4072 -2.42804 0
M  V30 7697 N 740.528 1.15101 1.07655 0
M  V30 7698 C 741.458 0.867864 2.16773 0
M  V30 7699 C 742.439 -0.180283 1.69142 0
M  V30 7700 O 743.624 -0.0353152 1.94168 0
M  V30 7701 C 740.754 0.35299 3.45501 0
M  V30 7702 C 739.708 1.33746 4.06566 0
M  V30 7703 C 739.034 0.681562 5.30338 0
M  V30 7704 C 740.334 2.7024 4.46954 0
M  V30 7705 H 742.028 1.78034 2.40716 0
M  V30 7706 H 739.574 0.857435 1.15689 0
M  V30 7707 H 741.527 0.142465 4.21159 0
M  V30 7708 H 740.251 -0.594945 3.21135 0
M  V30 7709 H 738.91 1.53429 3.32949 0
M  V30 7710 H 738.558 -0.272422 5.02262 0
M  V30 7711 H 738.258 1.33853 5.72151 0
M  V30 7712 H 739.782 0.48074 6.08705 0
M  V30 7713 H 741.196 2.5442 5.13754 0
M  V30 7714 H 739.593 3.32282 4.99709 0
M  V30 7715 H 740.663 3.26537 3.58471 0
M  V30 7716 N 742.006 -1.2595 0.947325 0
M  V30 7717 C 743.234 -1.97544 0.615127 0
M  V30 7718 C 743.649 -1.70484 -0.811221 0
M  V30 7719 O 743.006 -0.97662 -1.5417 0
M  V30 7720 C 743.057 -3.51236 0.855328 0
M  V30 7721 O 742.778 -3.77359 2.22558 0
M  V30 7722 C 744.279 -4.40066 0.534515 0
M  V30 7723 H 741.499 -0.629888 0.231263 0
M  V30 7724 H 744.043 -1.60308 1.26971 0
M  V30 7725 H 742.198 -3.8661 0.247266 0
M  V30 7726 H 742.612 -4.71857 2.29022 0
M  V30 7727 H 744.086 -5.46838 0.753168 0
M  V30 7728 H 744.563 -4.35982 -0.530701 0
M  V30 7729 H 745.169 -4.10245 1.12158 0
M  V30 7730 N 743.484 -0.715051 -1.40445 0
M  V30 7731 C 744.731 -0.254328 -2.00897 0
M  V30 7732 C 745.059 1.15228 -1.56693 0
M  V30 7733 O 744.314 1.7958 -0.777786 0
M  V30 7734 C 744.613 -0.281791 -3.56287 0
M  V30 7735 C 744.279 -1.63862 -4.20071 0
M  V30 7736 C 742.941 -2.01003 -4.37208 0
M  V30 7737 C 745.293 -2.53039 -4.55654 0
M  V30 7738 C 742.621 -3.26869 -4.8721 0
M  V30 7739 C 744.973 -3.78256 -5.07055 0
M  V30 7740 C 743.637 -4.15515 -5.22401 0
M  V30 7741 H 742.907 -0.0930652 -0.735133 0
M  V30 7742 H 745.554 -0.917977 -1.68064 0
M  V30 7743 H 743.859 0.465428 -3.89026 0
M  V30 7744 H 745.556 0.0925158 -4.00893 0
M  V30 7745 H 742.146 -1.33979 -4.07121 0
M  V30 7746 H 746.33 -2.2562 -4.42051 0
M  V30 7747 H 741.586 -3.55706 -4.97276 0
M  V30 7748 H 745.76 -4.47528 -5.33565 0
M  V30 7749 H 743.387 -5.13114 -5.60909 0
M  V30 7750 N 744.962 1.50701 -0.461195 0
M  V30 7751 C 746.192 2.06381 0.0950376 0
M  V30 7752 C 746.6 1.32627 1.34933 0
M  V30 7753 O 745.943 0.386137 1.79596 0
M  V30 7754 C 746.005 3.56558 0.458965 0
M  V30 7755 C 745.669 4.51732 -0.691891 0
M  V30 7756 C 746.666 4.95594 -1.57105 0
M  V30 7757 C 744.351 4.94542 -0.879407 0
M  V30 7758 C 746.345 5.80963 -2.62223 0
M  V30 7759 C 744.032 5.79695 -1.93382 0
M  V30 7760 C 745.03 6.22806 -2.80359 0
M  V30 7761 O 744.718 7.06265 -3.83986 0
M  V30 7762 H 744.45 0.676 0.000687488 0
M  V30 7763 H 747.004 1.94974 -0.646087 0
M  V30 7764 H 745.234 3.65832 1.25314 0
M  V30 7765 H 746.923 3.94647 0.949124 0
M  V30 7766 H 747.689 4.63197 -1.43783 0
M  V30 7767 H 743.568 4.60513 -0.211907 0
M  V30 7768 H 747.112 6.14533 -3.30143 0
M  V30 7769 H 743.009 6.11506 -2.06715 0
M  V30 7770 H 743.777 7.24494 -3.80855 0
M  V30 7771 N 746.441 0.193421 1.56409 0
M  V30 7772 C 747.371 -0.723334 2.22014 0
M  V30 7773 C 748.352 -1.22254 1.1827 0
M  V30 7774 O 749.537 -1.27168 1.46771 0
M  V30 7775 C 746.667 -1.94366 2.87818 0
M  V30 7776 C 745.621 -1.57943 3.97791 0
M  V30 7777 C 744.947 -2.87623 4.50752 0
M  V30 7778 C 746.247 -0.790639 5.16281 0
M  V30 7779 H 747.941 -0.176426 2.9888 0
M  V30 7780 H 745.487 -0.0834166 1.43758 0
M  V30 7781 H 747.44 -2.5902 3.32396 0
M  V30 7782 H 746.164 -2.51507 2.08355 0
M  V30 7783 H 744.823 -0.956482 3.53903 0
M  V30 7784 H 744.471 -3.4285 3.68053 0
M  V30 7785 H 744.171 -2.63998 5.24956 0
M  V30 7786 H 745.695 -3.53268 4.9803 0
M  V30 7787 H 747.109 -1.34024 5.57414 0
M  V30 7788 H 745.506 -0.65258 5.96541 0
M  V30 7789 H 746.576 0.208633 4.84451 0
M  V30 7790 N 747.919 -1.57396 -0.0801906 0
M  V30 7791 C 748.866 -2.03107 -1.09618 0
M  V30 7792 C 749.836 -0.910118 -1.38946 0
M  V30 7793 O 751.021 -1.17719 -1.50156 0
M  V30 7794 C 748.161 -2.47293 -2.40708 0
M  V30 7795 C 747.274 -3.72972 -2.17982 0
M  V30 7796 C 746.409 -4.05975 -3.42576 0
M  V30 7797 C 745.448 -5.24719 -3.15177 0
M  V30 7798 N 744.585 -5.53401 -4.32078 0
M  V30 7799 H 749.425 -2.89677 -0.69939 0
M  V30 7800 H 746.962 -1.43263 -0.333785 0
M  V30 7801 H 748.92 -2.7096 -3.17232 0
M  V30 7802 H 747.55 -1.63713 -2.78205 0
M  V30 7803 H 746.602 -3.56693 -1.32189 0
M  V30 7804 H 747.914 -4.59638 -1.93738 0
M  V30 7805 H 747.068 -4.30498 -4.275 0
M  V30 7806 H 745.807 -3.17859 -3.69887 0
M  V30 7807 H 744.812 -5 -2.28648 0
M  V30 7808 H 746.037 -6.14445 -2.89197 0
M  V30 7809 H 743.983 -4.68245 -4.59437 0
M  V30 7810 H 743.9 -6.34469 -4.11078 0
M  V30 7811 H 745.168 -5.8247 -5.18024 0
M  V30 7812 N 749.397 0.351382 -1.53633 0
M  V30 7813 C 750.625 1.11275 -1.74429 0
M  V30 7814 C 751.04 1.82602 -0.479798 0
M  V30 7815 O 750.397 1.74074 0.548125 0
M  V30 7816 C 750.448 2.13223 -2.91921 0
M  V30 7817 O 750.169 1.44798 -4.13479 0
M  V30 7818 C 751.67 3.01797 -3.24706 0
M  V30 7819 H 748.89 0.332153 -0.583023 0
M  V30 7820 H 751.434 0.405974 -2.0043 0
M  V30 7821 H 749.589 2.79477 -2.68274 0
M  V30 7822 H 750.003 2.12839 -4.79374 0
M  V30 7823 H 751.477 3.69282 -4.10286 0
M  V30 7824 H 751.954 3.67387 -2.40673 0
M  V30 7825 H 752.56 2.41141 -3.5033 0
M  V30 7826 N 750.875 1.45233 0.611969 0
M  V30 7827 C 751.805 1.5641 1.73373 0
M  V30 7828 C 752.786 0.415896 1.64937 0
M  V30 7829 O 753.971 0.638478 1.83404 0
M  V30 7830 C 751.101 1.52627 3.11965 0
M  V30 7831 C 750.055 2.66119 3.35208 0
M  V30 7832 C 749.381 2.4739 4.74028 0
M  V30 7833 C 750.681 4.08157 3.25891 0
M  V30 7834 H 752.375 2.50307 1.64277 0
M  V30 7835 H 749.921 1.20467 0.788904 0
M  V30 7836 H 751.874 1.59043 3.90235 0
M  V30 7837 H 750.598 0.552564 3.21892 0
M  V30 7838 H 749.257 2.59123 2.59327 0
M  V30 7839 H 748.905 1.48168 4.80682 0
M  V30 7840 H 748.605 3.23494 4.90536 0
M  V30 7841 H 750.129 2.55653 5.54503 0
M  V30 7842 H 751.543 4.1642 3.9404 0
M  V30 7843 H 749.94 4.84617 3.5393 0
M  V30 7844 H 751.01 4.30374 2.23397 0
M  V30 7845 N 752.353 -0.854086 1.3245 0
M  V30 7846 C 753.263 -1.99503 1.23434 0
M  V30 7847 C 754.279 -1.73371 0.147828 0
M  V30 7848 O 755.455 -1.97998 0.368609 0
M  V30 7849 C 752.52 -3.33192 0.958328 0
M  V30 7850 C 751.581 -3.72542 2.13333 0
M  V30 7851 C 750.814 -4.99852 1.8704 0
M  V30 7852 O 751.037 -5.64573 0.813239 0
M  V30 7853 O 749.971 -5.36345 2.73161 0
M  V30 7854 H 753.797 -2.10046 2.1935 0
M  V30 7855 H 751.382 -0.984823 1.12346 0
M  V30 7856 H 753.264 -4.13327 0.820918 0
M  V30 7857 H 751.939 -3.23687 0.0293299 0
M  V30 7858 H 750.846 -2.92981 2.32622 0
M  V30 7859 H 752.179 -3.86694 3.04514 0
M  V30 7860 N 753.831 -1.1567 -1.07043 0
M  V30 7861 C 754.779 -0.852204 -2.16426 0
M  V30 7862 C 755.773 0.175661 -1.68487 0
M  V30 7863 O 756.979 0.0303874 -1.79974 0
M  V30 7864 H 753.354 -0.257942 -0.706378 0
M  V30 7865 H 755.325 -1.78231 -2.39324 0
M  V30 7866 C 754.074 -0.361362 -3.45817 0
M  V30 7867 H 753.397 -1.14369 -3.83092 0
M  V30 7868 H 754.837 -0.186997 -4.23587 0
M  V30 7869 C 753.296 0.917703 -3.2416 0
M  V30 7870 O 753.826 1.98858 -3.49025 0
M  V30 7871 N 752.032 0.858456 -2.77631 0
M  V30 7872 H 751.579 -0.0131821 -2.57597 0
M  V30 7873 H 751.537 1.71478 -2.6352 0
M  V30 7874 N 755.309 1.25446 -0.953992 0
M  V30 7875 C 756.272 2.24156 -0.478179 0
M  V30 7876 C 757.272 1.55278 0.417776 0
M  V30 7877 O 758.462 1.72866 0.215155 0
M  V30 7878 C 755.594 3.39495 0.309202 0
M  V30 7879 H 756.787 2.67764 -1.35064 0
M  V30 7880 H 754.34 1.37822 -0.737206 0
M  V30 7881 H 755.075 3.01307 1.19936 0
M  V30 7882 H 754.86 3.90679 -0.333562 0
M  V30 7883 H 756.35 4.12796 0.631594 0
M  V30 7884 N 756.787 0.722489 1.40064 0
M  V30 7885 C 757.719 0.0349057 2.29173 0
M  V30 7886 C 758.732 -0.716571 1.46182 0
M  V30 7887 O 759.921 -0.562806 1.69395 0
M  V30 7888 C 757.021 -0.974839 3.24577 0
M  V30 7889 C 756.194 -0.287471 4.36454 0
M  V30 7890 C 755.253 -1.20356 5.12251 0
M  V30 7891 O 754.279 -0.685753 5.65054 0
M  V30 7892 N 755.481 -2.53422 5.22262 0
M  V30 7893 H 758.246 0.800058 2.88824 0
M  V30 7894 H 755.807 0.57068 1.51509 0
M  V30 7895 H 757.799 -1.59002 3.72157 0
M  V30 7896 H 756.369 -1.6413 2.66046 0
M  V30 7897 H 755.589 0.508008 3.90913 0
M  V30 7898 H 756.877 0.189382 5.08447 0
M  V30 7899 H 756.275 -2.97981 4.80857 0
M  V30 7900 H 754.832 -3.10067 5.73325 0
M  V30 7901 N 758.265 -1.50454 0.469181 0
M  V30 7902 C 759.228 -2.2703 -0.314643 0
M  V30 7903 C 760.228 -1.31734 -0.922111 0
M  V30 7904 O 761.418 -1.55176 -0.791588 0
M  V30 7905 C 758.55 -3.08616 -1.44806 0
M  V30 7906 H 759.743 -2.97769 0.356892 0
M  V30 7907 H 757.296 -1.54698 0.223191 0
M  V30 7908 H 758.031 -2.42369 -2.1547 0
M  V30 7909 H 757.816 -3.78647 -1.01829 0
M  V30 7910 H 759.306 -3.66536 -2.00103 0
M  V30 7911 N 759.743 -0.201713 -1.56304 0
M  V30 7912 C 760.675 0.748466 -2.16635 0
M  V30 7913 C 761.688 1.172 -1.12996 0
M  V30 7914 O 762.877 1.10658 -1.40061 0
M  V30 7915 C 759.977 2.02296 -2.719 0
M  V30 7916 C 759.15 1.75818 -4.00508 0
M  V30 7917 C 758.209 2.87779 -4.40533 0
M  V30 7918 O 757.235 2.57101 -5.07826 0
M  V30 7919 N 758.437 4.16287 -4.04581 0
M  V30 7920 H 761.202 0.232505 -2.98797 0
M  V30 7921 H 758.763 -0.0199822 -1.61888 0
M  V30 7922 H 760.755 2.7635 -2.95657 0
M  V30 7923 H 759.325 2.44996 -1.94154 0
M  V30 7924 H 758.545 0.855095 -3.84814 0
M  V30 7925 H 759.833 1.55532 -4.84445 0
M  V30 7926 H 759.231 4.44061 -3.50466 0
M  V30 7927 H 757.788 4.86946 -4.33274 0
M  V30 7928 N 761.222 1.57436 0.0718424 0
M  V30 7929 C 762.154 2.00412 1.1121 0
M  V30 7930 C 763.167 0.910074 1.34987 0
M  V30 7931 O 764.356 1.18796 1.33228 0
M  V30 7932 C 761.456 2.32786 2.46301 0
M  V30 7933 C 760.629 3.64036 2.4248 0
M  V30 7934 C 759.688 3.8408 3.59679 0
M  V30 7935 O 758.714 4.55667 3.4111 0
M  V30 7936 N 759.916 3.2643 4.80025 0
M  V30 7937 H 762.681 2.90264 0.746118 0
M  V30 7938 H 760.242 1.59791 0.260495 0
M  V30 7939 H 762.234 2.43368 3.23348 0
M  V30 7940 H 760.804 1.48824 2.74901 0
M  V30 7941 H 760.024 3.64208 1.50818 0
M  V30 7942 H 761.312 4.50217 2.37027 0
M  V30 7943 H 760.71 2.68325 4.98014 0
M  V30 7944 H 759.267 3.42461 5.54584 0
M  V30 7945 N 762.7 -0.34323 1.53817 0
M  V30 7946 C 763.928 -1.10348 1.75017 0
M  V30 7947 C 764.343 -1.82345 0.489475 0
M  V30 7948 O 763.7 -1.74362 -0.538886 0
M  V30 7949 C 763.751 -2.11672 2.93048 0
M  V30 7950 O 763.472 -1.42603 4.14241 0
M  V30 7951 C 764.973 -3.0007 3.26301 0
M  V30 7952 H 762.193 -0.329056 0.584776 0
M  V30 7953 H 764.737 -0.395339 2.00642 0
M  V30 7954 H 762.892 -2.78051 2.69753 0
M  V30 7955 H 763.306 -2.10294 4.80496 0
M  V30 7956 H 764.78 -3.67101 4.12239 0
M  V30 7957 H 765.257 -3.66105 2.42618 0
M  V30 7958 H 765.863 -2.3928 3.51604 0
M  V30 7959 N 764.178 -1.45556 -0.604258 0
M  V30 7960 C 765.406 -1.53278 -1.38973 0
M  V30 7961 C 765.821 -0.166509 -1.88064 0
M  V30 7962 O 765.178 0.832519 -1.62405 0
M  V30 7963 C 765.229 -2.51992 -2.59195 0
M  V30 7964 O 764.95 -3.8331 -2.12143 0
M  V30 7965 C 766.451 -2.69445 -3.52015 0
M  V30 7966 H 763.671 -0.519003 -0.425297 0
M  V30 7967 H 766.215 -1.90773 -0.736621 0
M  V30 7968 H 764.37 -2.17561 -3.2054 0
M  V30 7969 H 764.784 -4.3685 -2.90279 0
M  V30 7970 H 766.258 -3.42485 -4.32907 0
M  V30 7971 H 766.735 -1.75596 -4.0257 0
M  V30 7972 H 767.341 -3.04886 -2.9652 0
M  V30 7973 N 765.656 0.84705 -1.32902 0
M  V30 7974 C 766.586 1.97166 -1.25091 0
M  V30 7975 C 767.567 1.69578 -0.133161 0
M  V30 7976 O 768.752 1.91519 -0.321591 0
M  V30 7977 C 765.882 3.33157 -0.981006 0
M  V30 7978 C 764.836 3.75119 -2.06082 0
M  V30 7979 C 764.162 5.08826 -1.64318 0
M  V30 7980 C 765.462 3.89774 -3.47669 0
M  V30 7981 H 767.156 2.03958 -2.19184 0
M  V30 7982 H 764.702 0.979907 -1.05517 0
M  V30 7983 H 766.655 4.11393 -0.912891 0
M  V30 7984 H 765.379 3.266 -0.00445559 0
M  V30 7985 H 764.038 2.9914 -2.11921 0
M  V30 7986 H 763.686 4.98732 -0.653876 0
M  V30 7987 H 763.386 5.37873 -2.36572 0
M  V30 7988 H 764.91 5.89546 -1.58958 0
M  V30 7989 H 766.324 4.58343 -3.44376 0
M  V30 7990 H 764.721 4.30248 -4.18338 0
M  V30 7991 H 765.791 2.92463 -3.86773 0
M  V30 7992 N 767.134 1.16236 1.06428 0
M  V30 7993 C 768.359 0.967688 1.83441 0
M  V30 7994 C 768.784 -0.479167 1.81894 0
M  V30 7995 O 768.142 -1.34224 1.21875 0
M  V30 7996 C 768.19 1.49806 3.2801 0
M  V30 7997 O 767.294 0.703481 4.06356 0
M  V30 7998 H 766.635 0.344468 0.56766 0
M  V30 7999 H 769.165 1.54442 1.34197 0
M  V30 8000 H 769.175 1.51495 3.78831 0
M  V30 8001 H 767.85 2.55133 3.2845 0
M  V30 8002 H 766.427 0.756986 3.65136 0
M  V30 8003 N 768.612 -1.24939 0.960631 0
M  V30 8004 C 769.542 -2.28 0.503815 0
M  V30 8005 C 770.523 -1.63959 -0.452928 0
M  V30 8006 O 771.708 -1.91009 -0.350585 0
M  V30 8007 C 768.838 -3.46643 -0.213535 0
M  V30 8008 C 767.792 -4.22903 0.658535 0
M  V30 8009 C 767.118 -5.34363 -0.189902 0
M  V30 8010 C 768.418 -4.84949 1.93963 0
M  V30 8011 H 770.112 -2.66462 1.36521 0
M  V30 8012 H 767.658 -1.28093 0.657897 0
M  V30 8013 H 769.611 -4.1787 -0.544286 0
M  V30 8014 H 768.335 -3.07187 -1.10923 0
M  V30 8015 H 766.994 -3.53467 0.972455 0
M  V30 8016 H 766.642 -4.91147 -1.08553 0
M  V30 8017 H 766.342 -5.86302 0.390331 0
M  V30 8018 H 767.866 -6.0842 -0.515484 0
M  V30 8019 H 769.28 -5.48288 1.67491 0
M  V30 8020 H 767.677 -5.47091 2.46601 0
M  V30 8021 H 768.747 -4.06799 2.639 0
M  V30 8022 N 770.09 -0.729906 -1.39679 0
M  V30 8023 C 771.053 -0.0951668 -2.29002 0
M  V30 8024 C 772.053 0.672471 -1.46063 0
M  V30 8025 O 773.243 0.502245 -1.66803 0
M  V30 8026 C 770.375 0.874631 -3.29489 0
M  V30 8027 H 771.568 -0.882062 -2.86635 0
M  V30 8028 H 769.121 -0.495424 -1.4824 0
M  V30 8029 H 769.856 1.68807 -2.76902 0
M  V30 8030 H 769.641 0.326893 -3.90735 0
M  V30 8031 H 771.131 1.31548 -3.96339 0
M  V30 8032 N 771.568 1.50203 -0.477153 0
M  V30 8033 C 772.817 2.01551 0.0774548 0
M  V30 8034 C 773.13 1.36359 1.40234 0
M  V30 8035 O 774.336 1.78898 2.04225 0
M  V30 8036 C 772.792 3.59406 0.188539 0
M  V30 8037 C 772.4 4.3356 -1.12828 0
M  V30 8038 C 774.144 4.18776 0.694782 0
M  V30 8039 C 772.051 5.83213 -0.98066 0
M  V30 8040 H 770.981 0.75329 0.0327212 0
M  V30 8041 H 773.632 1.72959 -0.612969 0
M  V30 8042 H 772.014 3.84611 0.942881 0
M  V30 8043 H 773.188 4.20074 -1.89405 0
M  V30 8044 H 771.503 3.85827 -1.5661 0
M  V30 8045 H 774.1 5.28338 0.822356 0
M  V30 8046 H 774.443 3.80557 1.68766 0
M  V30 8047 H 774.976 3.978 -0.00234519 0
M  V30 8048 H 771.715 6.25914 -1.94709 0
M  V30 8049 H 771.235 5.99256 -0.255375 0
M  V30 8050 H 772.914 6.4373 -0.649717 0
M  V30 8051 N 773.046 0.209999 1.56195 0
M  V30 8052 C 774.293 -0.424813 1.97994 0
M  V30 8053 C 774.621 -1.60589 1.09733 0
M  V30 8054 O 773.876 -1.95201 0.139693 0
M  V30 8055 C 774.175 -0.91312 3.45539 0
M  V30 8056 C 773.841 0.156187 4.50629 0
M  V30 8057 C 772.503 0.449966 4.79092 0
M  V30 8058 C 774.855 0.879959 5.13718 0
M  V30 8059 C 772.183 1.47223 5.67928 0
M  V30 8060 C 774.535 1.89148 6.0366 0
M  V30 8061 C 773.199 2.1923 6.30472 0
M  V30 8062 H 772.469 -0.15545 0.724511 0
M  V30 8063 H 775.116 0.310095 1.88973 0
M  V30 8064 H 773.421 -1.72658 3.51705 0
M  V30 8065 H 775.118 -1.41395 3.75245 0
M  V30 8066 H 771.708 -0.0829466 4.2852 0
M  V30 8067 H 775.892 0.66623 4.91808 0
M  V30 8068 H 771.148 1.71105 5.86969 0
M  V30 8069 H 775.322 2.45745 6.516 0
M  V30 8070 H 772.949 2.98587 6.99107 0
M  V30 8071 O 774.563 -1.61333 0.0733639 0
M  V30 8072 H 775.254 -1.86233 -0.532616 0
M  V30 END ATOM
M  V30 BEGIN BOND
M  V30 END BOND
M  V30 END CTAB
M  END
$$$$
