drugbank_drug|DB14039  Erenumab (Heavy chain)
 OpenBabel12092119133D

  0  0  0     0  0            999 V3000
M  V30 BEGIN CTAB
M  V30 COUNTS 6993 7090 0 0 0
M  V30 BEGIN ATOM
M  V30 1 H -0.908 1.98254 -0.117106 0
M  V30 2 N 0 1.576 0 0
M  V30 3 C 0.932 2.05273 1.01958 0
M  V30 4 C 1.945 0.970662 1.30698 0
M  V30 5 O 3.134 1.24746 1.27674 0
M  V30 6 C 0.234 2.43771 2.35433 0
M  V30 7 C -0.593 3.74711 2.25633 0
M  V30 8 C -1.534 4.00077 3.41796 0
M  V30 9 O -2.508 4.70743 3.19984 0
M  V30 10 N -1.306 3.47973 4.64645 0
M  V30 11 H 1.459 2.93363 0.613025 0
M  V30 12 H -0.98 1.60812 0.187383 0
M  V30 13 H 1.012 2.57855 3.11918 0
M  V30 14 H -0.418 1.612 2.67831 0
M  V30 15 H -1.198 3.70705 1.34059 0
M  V30 16 H 0.09 4.60554 2.16258 0
M  V30 17 H -0.512 2.90748 4.85265 0
M  V30 18 H -1.955 3.67386 5.38396 0
M  V30 19 N 1.4781 -0.272755 1.55222 0
M  V30 20 C 2.7241 -1.00581 1.761 0
M  V30 21 C 3.0571 -1.85932 0.560625 0
M  V30 22 O 2.3321 -1.89416 -0.441801 0
M  V30 23 C 2.6151 -1.88816 3.06628 0
M  V30 24 C 2.4681 -1.06457 4.37021 0
M  V30 25 C 3.7871 -2.8752 3.33197 0
M  V30 26 H 0.9061 -0.364244 0.640699 0
M  V30 27 H 3.5481 -0.278189 1.87952 0
M  V30 28 H 1.6981 -2.50856 2.96654 0
M  V30 29 H 3.3701 -0.464863 4.58952 0
M  V30 30 H 1.6131 -0.368043 4.32236 0
M  V30 31 H 2.2841 -1.71514 5.24678 0
M  V30 32 H 4.7601 -2.35615 3.42965 0
M  V30 33 H 3.6361 -3.46399 4.25792 0
M  V30 34 H 3.8971 -3.62657 2.52849 0
M  V30 35 N 2.9562 -1.48159 -0.537278 0
M  V30 36 C 3.8882 -1.58218 -1.65831 0
M  V30 37 C 4.9012 -0.466948 -1.5596 0
M  V30 38 O 6.0902 -0.73747 -1.62553 0
M  V30 39 C 3.1902 -1.48906 -3.04434 0
M  V30 40 C 2.3632 -2.75343 -3.3986 0
M  V30 41 C 1.4222 -2.59588 -4.57712 0
M  V30 42 O 0.4482 -3.33457 -4.61297 0
M  V30 43 N 1.6502 -1.68724 -5.55439 0
M  V30 44 H 4.4152 -2.54891 -1.57641 0
M  V30 45 H 1.9762 -1.4479 -0.724386 0
M  V30 46 H 3.9682 -1.36072 -3.81139 0
M  V30 47 H 2.5382 -0.602368 -3.06741 0
M  V30 48 H 1.7582 -3.02795 -2.52406 0
M  V30 49 H 3.0462 -3.5924 -3.60311 0
M  V30 50 H 2.4442 -1.07898 -5.55315 0
M  V30 51 H 1.0012 -1.61832 -6.3139 0
M  V30 52 N 4.4343 0.785586 -1.36625 0
M  V30 53 C 5.3643 1.91259 -1.33949 0
M  V30 54 C 6.3453 1.68795 -0.210325 0
M  V30 55 O 7.5303 1.89854 -0.408561 0
M  V30 56 C 4.6603 3.28339 -1.13186 0
M  V30 57 C 3.6143 3.65335 -2.22967 0
M  V30 58 C 2.9403 5.00806 -1.87342 0
M  V30 59 C 4.2403 3.7352 -3.65075 0
M  V30 60 H 5.9343 1.93755 -2.28253 0
M  V30 61 H 3.4803 0.930788 -1.09874 0
M  V30 62 H 5.4333 4.06804 -1.09948 0
M  V30 63 H 4.1573 3.2624 -0.153332 0
M  V30 64 H 2.8163 2.89169 -2.25337 0
M  V30 65 H 2.4643 4.95233 -0.880545 0
M  V30 66 H 2.1643 5.26529 -2.60846 0
M  V30 67 H 3.6883 5.81687 -1.85667 0
M  V30 68 H 5.1023 4.42168 -3.64911 0
M  V30 69 H 3.4993 4.10731 -4.37516 0
M  V30 70 H 4.5693 2.74527 -3.99703 0
M  V30 71 N 5.9124 1.20967 1.01018 0
M  V30 72 C 7.1584 1.02526 1.74975 0
M  V30 73 C 7.4914 -0.4408 1.89131 0
M  V30 74 O 6.7664 -1.32718 1.42184 0
M  V30 75 C 7.0494 1.71699 3.1653 0
M  V30 76 C 6.9024 3.25791 3.10129 0
M  V30 77 C 8.2214 1.45531 4.15342 0
M  V30 78 H 5.3404 0.373863 0.635134 0
M  V30 79 H 7.9824 1.49071 1.17805 0
M  V30 80 H 6.1324 1.32128 3.65341 0
M  V30 81 H 7.8044 3.74697 2.69072 0
M  V30 82 H 6.0474 3.56363 2.47362 0
M  V30 83 H 6.7184 3.69353 4.10222 0
M  V30 84 H 9.1944 1.79872 3.75213 0
M  V30 85 H 8.0704 1.96453 5.1254 0
M  V30 86 H 8.3314 0.384237 4.40427 0
M  V30 87 N 7.3905 -1.2043 1.01659 0
M  V30 88 C 8.3005 -2.2689 0.596484 0
M  V30 89 C 9.3165 -1.70107 -0.36599 0
M  V30 90 O 10.4925 -2.00117 -0.226942 0
M  V30 91 C 7.5575 -3.4665 -0.0586659 0
M  V30 92 C 6.6185 -4.18662 0.949751 0
M  V30 93 C 5.8515 -5.32705 0.32577 0
M  V30 94 O 6.0745 -5.63656 -0.874509 0
M  V30 95 O 5.0085 -5.92803 1.04249 0
M  V30 96 H 8.8345 -2.65041 1.4828 0
M  V30 97 H 6.4195 -1.27048 0.786082 0
M  V30 98 H 8.3015 -4.19256 -0.424564 0
M  V30 99 H 6.9765 -3.10375 -0.91918 0
M  V30 100 H 5.8835 -3.48229 1.36702 0
M  V30 101 H 7.2165 -4.58878 1.78023 0
M  V30 102 N 8.8686 -0.792821 -1.36206 0
M  V30 103 C 10.0936 -0.377701 -2.03932 0
M  V30 104 C 10.5186 0.998947 -1.59382 0
M  V30 105 O 9.8766 1.64421 -0.763903 0
M  V30 106 C 9.9246 -0.453635 -3.57735 0
M  V30 107 O 9.0286 0.538151 -4.08874 0
M  V30 108 H 8.3696 -0.159855 -0.644471 0
M  V30 109 H 10.8996 -1.07488 -1.7409 0
M  V30 110 H 10.9096 -0.318464 -4.06755 0
M  V30 111 H 9.5846 -1.45784 -3.89512 0
M  V30 112 H 8.1616 0.364359 -3.71116 0
M  V30 113 N 10.3467 1.47872 -0.545128 0
M  V30 114 C 11.5947 2.02093 -0.016553 0
M  V30 115 C 11.9157 1.42305 1.3332 0
M  V30 116 O 11.1857 0.593853 1.86682 0
M  V30 117 H 9.7657 0.746993 -0.00313038 0
M  V30 118 H 12.4277 1.81414 -0.712397 0
M  V30 119 H 11.5237 3.11996 0.0805422 0
M  V30 120 N 11.8248 0.280983 1.55075 0
M  V30 121 C 13.0728 -0.333455 1.9933 0
M  V30 122 C 13.3938 -1.55937 1.17085 0
M  V30 123 O 12.6638 -1.94143 0.261805 0
M  V30 124 H 11.2438 -0.126197 0.736263 0
M  V30 125 H 13.9058 0.387678 1.91005 0
M  V30 126 H 13.0018 -0.619292 3.05894 0
M  V30 127 N 13.3029 -1.57598 0.00835791 0
M  V30 128 C 14.5509 -1.90551 -0.6734 0
M  V30 129 C 14.8719 -0.883301 -1.73847 0
M  V30 130 O 14.1419 0.0781442 -1.95744 0
M  V30 131 H 12.7219 -0.703312 -0.251717 0
M  V30 132 H 15.3839 -1.94833 0.0512592 0
M  V30 133 H 14.4799 -2.9056 -1.13935 0
M  V30 134 N 14.781 0.264519 -1.55364 0
M  V30 135 C 16.027 0.99646 -1.76631 0
M  V30 136 C 16.36 1.85632 -0.570478 0
M  V30 137 O 15.635 1.89647 0.43175 0
M  V30 138 C 15.918 1.87187 -3.07625 0
M  V30 139 C 15.771 1.04138 -4.37579 0
M  V30 140 C 17.09 2.85749 -3.34717 0
M  V30 141 H 14.209 0.360841 -0.642622 0
M  V30 142 H 16.851 0.268218 -1.88097 0
M  V30 143 H 15.001 2.49279 -2.9798 0
M  V30 144 H 16.673 0.440517 -4.59192 0
M  V30 145 H 14.916 0.345115 -4.32425 0
M  V30 146 H 15.587 1.68729 -5.2558 0
M  V30 147 H 18.063 2.33793 -3.4421 0
M  V30 148 H 16.939 3.44136 -4.27623 0
M  V30 149 H 17.2 3.61311 -2.54768 0
M  V30 150 N 16.2591 1.48442 0.529413 0
M  V30 151 C 17.5051 1.5672 1.28711 0
M  V30 152 C 17.8381 0.2406 1.92704 0
M  V30 153 O 17.1131 -0.753454 1.79313 0
M  V30 154 C 17.3961 2.70587 2.37603 0
M  V30 155 C 17.2491 4.12953 1.78297 0
M  V30 156 C 18.5681 2.80212 3.39366 0
M  V30 157 H 15.6871 0.570474 0.466613 0
M  V30 158 H 18.3291 1.80617 0.589706 0
M  V30 159 H 16.4791 2.50342 2.97088 0
M  V30 160 H 18.1511 4.44639 1.22858 0
M  V30 161 H 16.3941 4.19927 1.0883 0
M  V30 162 H 17.0651 4.88448 2.57144 0
M  V30 163 H 19.5411 2.98553 2.89836 0
M  V30 164 H 18.4171 3.61611 4.12951 0
M  V30 165 H 18.6781 1.88393 3.99951 0
M  V30 166 N 17.7372 -0.778329 1.37039 0
M  V30 167 C 18.6692 -1.90034 1.2814 0
M  V30 168 C 19.6822 -1.61585 0.198558 0
M  V30 169 O 20.8712 -1.72625 0.454175 0
M  V30 170 C 17.9712 -3.25108 0.956968 0
M  V30 171 C 17.1442 -3.81253 2.14394 0
M  V30 172 C 16.2032 -4.94789 1.79082 0
M  V30 173 O 15.2292 -5.10721 2.51301 0
M  V30 174 N 16.4312 -5.75878 0.731043 0
M  V30 175 H 19.1962 -1.98186 2.24816 0
M  V30 176 H 16.7572 -0.957129 1.30578 0
M  V30 177 H 18.7492 -3.9857 0.701701 0
M  V30 178 H 17.3192 -3.125 0.0789812 0
M  V30 179 H 16.5392 -2.99647 2.56135 0
M  V30 180 H 17.8272 -4.15495 2.93668 0
M  V30 181 H 17.2252 -5.65547 0.131618 0
M  V30 182 H 15.7822 -6.49596 0.535622 0
M  V30 183 N 19.2153 -1.21501 -1.00376 0
M  V30 184 C 20.6263 -1.03146 -1.55621 0
M  V30 185 C 20.9773 0.408375 -1.91903 0
M  V30 186 O 20.1023 1.29177 -1.73616 0
M  V30 187 C 20.6973 -1.86612 -2.82775 0
M  V30 188 C 19.2563 -1.72586 -3.34501 0
M  V30 189 C 18.4033 -1.83747 -2.07683 0
M  V30 190 H 21.3543 -1.35505 -0.826081 0
M  V30 191 H 21.3753 -1.3771 -3.54706 0
M  V30 192 H 20.8873 -2.91399 -2.56336 0
M  V30 193 H 18.9883 -0.704877 -3.65872 0
M  V30 194 H 19.1013 -2.54623 -4.05837 0
M  V30 195 H 17.4653 -1.27069 -2.20739 0
M  V30 196 H 18.2483 -2.90044 -1.83655 0
M  V30 197 N 20.6934 1.19889 -1.02296 0
M  V30 198 C 21.9414 1.89046 -0.714558 0
M  V30 199 C 22.2624 1.79636 0.758681 0
M  V30 200 O 21.5324 1.20292 1.54618 0
M  V30 201 H 20.1124 0.699802 -0.261317 0
M  V30 202 H 22.7744 1.45574 -1.29592 0
M  V30 203 H 21.8704 2.95524 -1.0036 0
M  V30 204 N 22.1715 0.800033 1.35784 0
M  V30 205 C 23.5875 0.482977 1.52117 0
M  V30 206 C 23.7875 -0.996948 1.75109 0
M  V30 207 O 22.8435 -1.78216 1.78872 0
M  V30 208 C 24.1565 1.32264 2.70049 0
M  V30 209 C 25.7045 1.31742 2.83924 0
M  V30 210 C 26.1795 2.14106 4.04874 0
M  V30 211 N 27.6705 2.11607 4.12039 0
M  V30 212 C 28.4055 2.72099 5.04727 0
M  V30 213 N 27.9015 3.41492 6.02789 0
M  V30 214 N 29.6945 2.61776 4.97423 0
M  V30 215 H 21.8455 1.75856 1.19115 0
M  V30 216 H 24.1085 0.748122 0.582252 0
M  V30 217 H 23.8145 2.37261 2.59616 0
M  V30 218 H 23.6885 0.971303 3.6448 0
M  V30 219 H 26.0755 0.275333 2.93813 0
M  V30 220 H 26.1565 1.70859 1.9037 0
M  V30 221 H 25.8005 3.18351 3.95746 0
M  V30 222 H 25.7305 1.72353 4.97596 0
M  V30 223 H 28.2215 1.61112 3.41835 0
M  V30 224 H 28.5345 3.84953 6.70098 0
M  V30 225 H 26.8795 3.45596 6.02983 0
M  V30 226 H 30.0705 2.07157 4.19766 0
M  V30 227 H 30.2435 3.0921 5.69468 0
M  V30 228 N 23.6496 -1.47581 0.552962 0
M  V30 229 C 24.8746 -2.07378 0.0300593 0
M  V30 230 C 25.2996 -1.40355 -1.25229 0
M  V30 231 O 24.6576 -0.477099 -1.7491 0
M  V30 232 C 24.7056 -3.60274 -0.153231 0
M  V30 233 O 23.8096 -3.94041 -1.21678 0
M  V30 234 H 23.1506 -0.662158 0.0494182 0
M  V30 235 H 25.6806 -1.89662 0.767434 0
M  V30 236 H 25.6906 -4.0633 -0.368761 0
M  V30 237 H 24.3656 -4.08455 0.783397 0
M  V30 238 H 22.9426 -3.59735 -0.982079 0
M  V30 239 N 25.1277 -0.289203 -1.54924 0
M  V30 240 C 26.0577 0.58549 -2.2604 0
M  V30 241 C 27.0387 1.14753 -1.25562 0
M  V30 242 O 28.2237 1.17906 -1.54311 0
M  V30 243 C 25.3537 1.76305 -2.99222 0
M  V30 244 C 24.3077 1.33191 -4.06748 0
M  V30 245 C 23.6337 2.5937 -4.6758 0
M  V30 246 C 24.9337 0.471775 -5.20165 0
M  V30 247 H 26.6277 -0.00763532 -2.99399 0
M  V30 248 H 24.1737 -0.00511229 -1.43999 0
M  V30 249 H 26.1267 2.38097 -3.47689 0
M  V30 250 H 24.8507 2.38223 -2.23422 0
M  V30 251 H 23.5097 0.737121 -3.59113 0
M  V30 252 H 23.1577 3.19576 -3.88433 0
M  V30 253 H 22.8577 2.31228 -5.40192 0
M  V30 254 H 24.3817 3.21985 -5.18804 0
M  V30 255 H 25.7957 0.995056 -5.64599 0
M  V30 256 H 24.1927 0.284639 -5.99425 0
M  V30 257 H 25.2627 -0.506041 -4.82252 0
M  V30 258 N 26.6058 1.57591 -0.0167156 0
M  V30 259 C 28.0218 1.55946 0.339557 0
M  V30 260 C 28.2218 1.02109 1.73713 0
M  V30 261 O 27.2778 0.662303 2.43659 0
M  V30 262 C 28.5908 3.00037 0.199499 0
M  V30 263 C 30.1388 3.11805 0.273193 0
M  V30 264 C 30.6138 4.57713 0.162068 0
M  V30 265 N 32.1048 4.6268 0.219444 0
M  V30 266 C 32.8398 5.73185 0.157054 0
M  V30 267 N 32.3358 6.92786 0.0442936 0
M  V30 268 N 34.1288 5.61707 0.21014 0
M  V30 269 H 26.2798 1.90921 -0.930758 0
M  V30 270 H 28.5428 0.877674 -0.358319 0
M  V30 271 H 28.2488 3.4333 -0.76273 0
M  V30 272 H 28.1228 3.64387 0.974786 0
M  V30 273 H 30.5098 2.68433 1.22587 0
M  V30 274 H 30.5908 2.50201 -0.532256 0
M  V30 275 H 30.2348 5.01763 -0.78714 0
M  V30 276 H 30.1648 5.17283 0.986222 0
M  V30 277 H 32.6558 3.76649 0.307246 0
M  V30 278 H 32.9688 7.728 0.00304069 0
M  V30 279 H 31.3138 6.94999 0.00968457 0
M  V30 280 H 34.5048 4.6716 0.296546 0
M  V30 281 H 34.6778 6.47807 0.158054 0
M  V30 282 N 28.0839 -0.256276 1.55502 0
M  V30 283 C 29.0139 -1.32102 1.92539 0
M  V30 284 C 29.9949 -1.50684 0.789194 0
M  V30 285 O 31.1799 -1.63449 1.04872 0
M  V30 286 C 28.3099 -2.67752 2.21192 0
M  V30 287 C 27.2639 -2.63878 3.36975 0
M  V30 288 C 26.5899 -4.03236 3.51147 0
M  V30 289 C 27.8899 -2.21682 4.72921 0
M  V30 290 H 29.5839 -1.01351 2.81724 0
M  V30 291 H 27.1299 -0.486105 1.35547 0
M  V30 292 H 29.0829 -3.42365 2.45691 0
M  V30 293 H 27.8069 -3.0012 1.28824 0
M  V30 294 H 26.4659 -1.91722 3.12471 0
M  V30 295 H 26.1139 -4.32854 2.56216 0
M  V30 296 H 25.8139 -4.01535 4.29003 0
M  V30 297 H 27.3379 -4.79563 3.77957 0
M  V30 298 H 28.7519 -2.86023 4.96854 0
M  V30 299 H 27.1489 -2.3111 5.53812 0
M  V30 300 H 28.2189 -1.16833 4.70615 0
M  V30 301 N 29.562 -1.4872 -0.521534 0
M  V30 302 C 30.787 -1.61101 -1.30618 0
M  V30 303 C 31.212 -0.274611 -1.86085 0
M  V30 304 O 30.57 0.754937 -1.64834 0
M  V30 305 C 30.618 -2.66709 -2.4269 0
M  V30 306 O 29.722 -2.24456 -3.45967 0
M  V30 307 H 29.063 -0.539921 -0.386499 0
M  V30 308 H 31.593 -1.94767 -0.626645 0
M  V30 309 H 31.603 -2.88245 -2.88754 0
M  V30 310 H 30.278 -3.63727 -2.01682 0
M  V30 311 H 28.855 -2.13168 -3.05964 0
M  V30 312 N 31.0401 0.771051 -1.3745 0
M  V30 313 C 32.2801 1.54264 -1.34096 0
M  V30 314 C 32.6441 1.91858 0.0737639 0
M  V30 315 O 33.8451 2.67797 0.23203 0
M  V30 316 C 32.1161 2.77326 -2.25445 0
M  V30 317 S 33.6751 3.67383 -2.39948 0
M  V30 318 H 30.4931 0.528122 -0.476034 0
M  V30 319 H 33.0951 0.906633 -1.73206 0
M  V30 320 H 31.7991 2.47788 -3.27153 0
M  V30 321 H 31.3301 3.45886 -1.87421 0
M  V30 322 H 33.3451 4.69334 -1.61059 0
M  V30 323 N 32.5182 1.22032 0.997298 0
M  V30 324 C 33.4812 0.987909 2.06816 0
M  V30 325 C 34.4812 -0.0440084 1.6074 0
M  V30 326 O 35.6712 0.194053 1.73116 0
M  V30 327 C 32.8032 0.49132 3.37341 0
M  V30 328 H 33.9962 1.93803 2.28868 0
M  V30 329 H 31.5492 1.03838 1.16822 0
M  V30 330 H 32.2842 -0.463364 3.20973 0
M  V30 331 H 32.0692 1.23575 3.72118 0
M  V30 332 H 33.5592 0.348824 4.16141 0
M  V30 333 N 33.9963 -1.19345 1.0293 0
M  V30 334 C 34.9593 -2.20793 0.615069 0
M  V30 335 C 35.9593 -1.57553 -0.321533 0
M  V30 336 O 37.1493 -1.73862 -0.108483 0
M  V30 337 C 34.2813 -3.40754 -0.0999222 0
M  V30 338 H 35.4743 -2.58955 1.51269 0
M  V30 339 H 33.0273 -1.3303 0.820534 0
M  V30 340 H 33.7623 -3.0811 -1.01187 0
M  V30 341 H 33.5473 -3.87889 0.57309 0
M  V30 342 H 35.0373 -4.15898 -0.376645 0
M  V30 343 N 35.4744 -0.807222 -1.35358 0
M  V30 344 C 36.6994 -0.399309 -2.0352 0
M  V30 345 C 37.1244 0.981986 -1.60433 0
M  V30 346 O 36.4824 1.63601 -0.781299 0
M  V30 347 C 36.5304 -0.491552 -3.57234 0
M  V30 348 O 35.6344 0.494754 -4.09421 0
M  V30 349 H 34.9754 -0.166682 -0.642739 0
M  V30 350 H 37.5054 -1.09328 -1.72941 0
M  V30 351 H 37.5154 -0.361588 -4.06395 0
M  V30 352 H 36.1904 -1.49907 -3.87944 0
M  V30 353 H 34.7674 0.324977 -3.71481 0
M  V30 354 N 36.9525 1.47285 -0.560781 0
M  V30 355 C 38.2005 2.02064 -0.0379868 0
M  V30 356 C 38.5215 1.43711 1.31803 0
M  V30 357 O 37.7915 0.61362 1.86042 0
M  V30 358 H 36.3715 0.746918 -0.0110531 0
M  V30 359 H 39.0335 1.80648 -0.731598 0
M  V30 360 H 38.1295 3.12064 0.0474463 0
M  V30 361 N 38.4306 0.297415 1.54768 0
M  V30 362 C 39.6776 -0.312913 2.00068 0
M  V30 363 C 40.0056 -1.54171 1.18582 0
M  V30 364 O 39.2606 -1.94108 0.249133 0
M  V30 365 C 39.5596 -0.717561 3.50123 0
M  V30 366 C 39.2256 0.409095 4.4904 0
M  V30 367 C 37.8876 0.718399 4.75807 0
M  V30 368 C 40.2396 1.16717 5.07963 0
M  V30 369 C 37.5676 1.78896 5.5876 0
M  V30 370 C 39.9196 2.22762 5.92081 0
M  V30 371 C 38.5836 2.54303 6.1716 0
M  V30 372 H 37.8536 -0.114503 0.7321 0
M  V30 373 H 40.5006 0.415767 1.86932 0
M  V30 374 H 38.8056 -1.52627 3.60849 0
M  V30 375 H 40.5026 -1.20091 3.82595 0
M  V30 376 H 37.0926 0.157918 4.28309 0
M  V30 377 H 41.2766 0.941466 4.87289 0
M  V30 378 H 36.5326 2.0381 5.7643 0
M  V30 379 H 40.7066 2.81962 6.36765 0
M  V30 380 H 38.3336 3.3739 6.81229 0
M  V30 381 N 39.9087 -1.5758 0.0250728 0
M  V30 382 C 41.1367 -1.9593 -0.664747 0
M  V30 383 C 41.5517 -0.901352 -1.65895 0
M  V30 384 O 40.9087 0.117255 -1.82123 0
M  V30 385 C 40.9597 -3.34342 -1.37468 0
M  V30 386 O 40.6807 -4.36079 -0.420324 0
M  V30 387 C 42.1817 -3.873 -2.1567 0
M  V30 388 H 39.4017 -0.645405 -0.183557 0
M  V30 389 H 41.9457 -2.04329 0.0836372 0
M  V30 390 H 40.1007 -3.27175 -2.0745 0
M  V30 391 H 40.5147 -5.16297 -0.923991 0
M  V30 392 H 41.9887 -4.86504 -2.60803 0
M  V30 393 H 42.4657 -3.21331 -2.99405 0
M  V30 394 H 43.0717 -3.97723 -1.50654 0
M  V30 395 N 41.3868 0.248026 -1.55636 0
M  V30 396 C 42.6338 0.976224 -1.77415 0
M  V30 397 C 42.9618 1.85361 -0.589193 0
M  V30 398 O 42.2168 1.90973 0.427529 0
M  V30 399 C 42.5158 1.86819 -3.04686 0
M  V30 400 C 42.1818 1.14625 -4.36087 0
M  V30 401 C 40.8438 0.946723 -4.71795 0
M  V30 402 C 43.1958 0.634463 -5.17324 0
M  V30 403 C 40.5238 0.223091 -5.86276 0
M  V30 404 C 42.8758 -0.0756959 -6.32555 0
M  V30 405 C 41.5398 -0.286711 -6.66884 0
M  V30 406 H 40.8098 0.357226 -0.649208 0
M  V30 407 H 43.4568 0.246415 -1.89908 0
M  V30 408 H 41.7618 2.66502 -2.872 0
M  V30 409 H 43.4588 2.43329 -3.18735 0
M  V30 410 H 40.0488 1.3117 -4.08035 0
M  V30 411 H 44.2328 0.77616 -4.90193 0
M  V30 412 H 39.4888 0.0491185 -6.1138 0
M  V30 413 H 43.6628 -0.479899 -6.94745 0
M  V30 414 H 41.2898 -0.849389 -7.5544 0
M  V30 415 N 42.8649 1.48995 0.513639 0
M  V30 416 C 44.0899 1.61792 1.29762 0
M  V30 417 C 44.5149 0.284475 1.85936 0
M  V30 418 O 43.8729 -0.746185 1.65232 0
M  V30 419 C 43.9209 2.67993 2.41272 0
M  V30 420 O 43.0249 2.26287 3.44772 0
M  V30 421 H 42.3659 0.541963 0.38363 0
M  V30 422 H 44.8959 1.95097 0.616307 0
M  V30 423 H 44.9059 2.89772 2.87221 0
M  V30 424 H 43.5809 3.64791 1.9975 0
M  V30 425 H 42.1579 2.14788 3.04829 0
M  V30 426 N 44.343 -0.763751 1.37857 0
M  V30 427 C 45.568 -1.55805 1.36893 0
M  V30 428 C 45.993 -1.88054 -0.0416135 0
M  V30 429 O 45.351 -1.49825 -1.02089 0
M  V30 430 C 45.399 -2.84012 2.22192 0
M  V30 431 O 44.503 -3.78732 1.63204 0
M  V30 432 H 43.844 -0.471638 0.46739 0
M  V30 433 H 46.374 -0.944657 1.81487 0
M  V30 434 H 46.384 -3.33037 2.35691 0
M  V30 435 H 45.059 -2.59869 3.24716 0
M  V30 436 H 43.636 -3.37402 1.58791 0
M  V30 437 N 45.8211 -1.22559 -0.990812 0
M  V30 438 C 47.0681 -1.05141 -1.73065 0
M  V30 439 C 47.3961 0.413191 -1.9006 0
M  V30 440 O 46.6511 1.32257 -1.44245 0
M  V30 441 C 46.9501 -1.71011 -3.13831 0
M  V30 442 C 46.6161 -3.20911 -3.16745 0
M  V30 443 C 45.2781 -3.61812 -3.17247 0
M  V30 444 C 47.6301 -4.16846 -3.12872 0
M  V30 445 C 44.9581 -4.97127 -3.1158 0
M  V30 446 C 47.3101 -5.5214 -3.08746 0
M  V30 447 C 45.9741 -5.92419 -3.07565 0
M  V30 448 H 45.2441 -0.384738 -0.633291 0
M  V30 449 H 47.8911 -1.5235 -1.16025 0
M  V30 450 H 46.1961 -1.16133 -3.74193 0
M  V30 451 H 47.8931 -1.55023 -3.69823 0
M  V30 452 H 44.4831 -2.88344 -3.17105 0
M  V30 453 H 48.6671 -3.86263 -3.11632 0
M  V30 454 H 43.9231 -5.27562 -3.09012 0
M  V30 455 H 48.0971 -6.26201 -3.04705 0
M  V30 456 H 45.7241 -6.97236 -3.02929 0
M  V30 457 N 47.2992 1.18797 -1.03562 0
M  V30 458 C 48.5472 1.88278 -0.734569 0
M  V30 459 C 48.8682 1.8043 0.739586 0
M  V30 460 O 48.1382 1.21925 1.53333 0
M  V30 461 H 46.7182 0.696991 -0.268725 0
M  V30 462 H 49.3802 1.44192 -1.31129 0
M  V30 463 H 48.4762 2.94443 -1.03489 0
M  V30 464 N 48.7773 0.814389 1.34928 0
M  V30 465 C 49.7103 0.175641 2.27523 0
M  V30 466 C 50.6883 -0.662953 1.48471 0
M  V30 467 O 51.8723 -0.628545 1.77712 0
M  V30 468 C 48.9993 -0.755516 3.30166 0
M  V30 469 C 48.0453 0.00445305 4.265 0
M  V30 470 S 48.8783 1.34582 5.18313 0
M  V30 471 C 50.0343 0.419315 6.24494 0
M  V30 472 H 50.2673 0.960691 2.8135 0
M  V30 473 H 47.8003 0.609846 1.41846 0
M  V30 474 H 49.7583 -1.28723 3.89796 0
M  V30 475 H 48.4193 -1.51402 2.75202 0
M  V30 476 H 47.6123 -0.703077 4.99072 0
M  V30 477 H 47.2143 0.466447 3.7108 0
M  V30 478 H 49.5063 -0.392432 6.76362 0
M  V30 479 H 50.4493 1.11446 6.99275 0
M  V30 480 H 50.8573 0.0115389 5.64499 0
M  V30 481 N 50.2554 -1.46986 0.568584 0
M  V30 482 C 51.2054 -2.27179 -0.193339 0
M  V30 483 C 52.1894 -1.35035 -0.874895 0
M  V30 484 O 53.3814 -1.5931 -0.771322 0
M  V30 485 C 50.5104 -3.21063 -1.21546 0
M  V30 486 C 49.5964 -4.2069 -0.536738 0
M  V30 487 N 49.9874 -5.04218 0.399673 0
M  V30 488 C 48.2854 -4.38961 -0.789254 0
M  V30 489 C 48.9864 -5.76242 0.795017 0
M  V30 490 N 47.9624 -5.434 0.1473 0
M  V30 491 H 51.7644 -2.89146 0.526458 0
M  V30 492 H 49.2784 -1.57664 0.389342 0
M  V30 493 H 51.2754 -3.77209 -1.77536 0
M  V30 494 H 49.9354 -2.60654 -1.93623 0
M  V30 495 H 50.9464 -5.12077 0.774454 0
M  V30 496 H 47.6234 -3.89713 -1.49767 0
M  V30 497 H 49.0134 -6.53417 1.56513 0
M  V30 498 N 51.7335 -0.305618 -1.54608 0
M  V30 499 C 52.9795 0.295595 -2.01241 0
M  V30 500 C 53.3345 1.51171 -1.19018 0
M  V30 501 O 52.6275 1.89832 -0.259684 0
M  V30 502 C 52.8215 0.698983 -3.50498 0
M  V30 503 C 52.6505 -0.476491 -4.47168 0
M  V30 504 C 51.4205 -0.969963 -4.95903 0
M  V30 505 C 53.6185 -1.32294 -4.96994 0
M  V30 506 N 51.6005 -2.11172 -5.76437 0
M  V30 507 C 52.9715 -2.31212 -5.75275 0
M  V30 508 C 55.0265 -1.35278 -4.7917 0
M  V30 509 C 53.7295 -3.32896 -6.37631 0
M  V30 510 C 55.7555 -2.35823 -5.42348 0
M  V30 511 C 55.1175 -3.33469 -6.20466 0
M  V30 512 H 51.2165 0.0724992 -0.778632 0
M  V30 513 H 53.8005 -0.436583 -1.89742 0
M  V30 514 H 51.9715 1.40032 -3.62278 0
M  V30 515 H 53.7035 1.28013 -3.8392 0
M  V30 516 H 50.4585 -0.544178 -4.70463 0
M  V30 517 H 50.8825 -2.68714 -6.21387 0
M  V30 518 H 55.5245 -0.61157 -4.18354 0
M  V30 519 H 53.2425 -4.07933 -6.97579 0
M  V30 520 H 56.8285 -2.38911 -5.30484 0
M  V30 521 H 55.7085 -4.09996 -6.68485 0
M  V30 522 N 53.2116 1.57565 -0.0334293 0
M  V30 523 C 54.4576 1.92262 0.645226 0
M  V30 524 C 54.7906 0.910543 1.71531 0
M  V30 525 O 54.0656 -0.066099 1.94388 0
M  V30 526 C 54.3486 3.37422 1.2577 0
M  V30 527 C 54.2016 4.49369 0.196891 0
M  V30 528 C 55.5206 3.82628 2.17449 0
M  V30 529 H 52.6396 0.699171 0.233085 0
M  V30 530 H 55.2816 1.89779 -0.0915694 0
M  V30 531 H 53.4316 3.39669 1.88566 0
M  V30 532 H 55.1036 4.59254 -0.433962 0
M  V30 533 H 53.3466 4.31168 -0.477137 0
M  V30 534 H 54.0176 5.47978 0.665124 0
M  V30 535 H 56.4936 3.82145 1.64634 0
M  V30 536 H 55.3696 4.84883 2.57254 0
M  V30 537 H 55.6306 3.18376 3.0674 0
M  V30 538 N 54.6897 -0.239769 1.55765 0
M  V30 539 C 56.1057 -0.588624 1.48349 0
M  V30 540 C 56.3057 -1.88005 0.72502 0
M  V30 541 O 55.3617 -2.51186 0.257269 0
M  V30 542 C 56.6747 -0.68474 2.928 0
M  V30 543 C 58.2227 -0.77659 3.03213 0
M  V30 544 C 58.6977 -0.904207 4.48986 0
M  V30 545 N 60.1887 -0.968896 4.52953 0
M  V30 546 C 60.9237 -1.08703 5.63002 0
M  V30 547 N 60.4197 -1.17026 6.82845 0
M  V30 548 N 62.2127 -1.12074 5.50814 0
M  V30 549 H 54.3637 0.607911 2.03515 0
M  V30 550 H 56.6267 0.21083 0.924259 0
M  V30 551 H 56.3327 0.194284 3.51163 0
M  V30 552 H 56.2067 -1.55435 3.43686 0
M  V30 553 H 58.5937 -1.64606 2.44926 0
M  V30 554 H 58.6747 0.118315 2.55526 0
M  V30 555 H 58.3187 -0.0392633 5.07885 0
M  V30 556 H 58.2487 -1.81426 4.9436 0
M  V30 557 H 60.7397 -0.915633 3.6664 0
M  V30 558 H 61.0527 -1.25966 7.62465 0
M  V30 559 H 59.3977 -1.13971 6.85591 0
M  V30 560 H 62.5887 -1.05226 4.5612 0
M  V30 561 H 62.7617 -1.20936 6.36615 0
M  V30 562 N 56.1678 -1.49265 -0.50573 0
M  V30 563 C 57.0998 -1.617 -1.62437 0
M  V30 564 C 58.1128 -0.499924 -1.54934 0
M  V30 565 O 59.3018 -0.771785 -1.60953 0
M  V30 566 C 56.4018 -1.5533 -3.01207 0
M  V30 567 C 55.5748 -2.8249 -3.33943 0
M  V30 568 C 54.6338 -2.69238 -4.52103 0
M  V30 569 O 53.6598 -3.43167 -4.5412 0
M  V30 570 N 54.8618 -1.80468 -5.51735 0
M  V30 571 H 57.6268 -2.58177 -1.52199 0
M  V30 572 H 55.1878 -1.46294 -0.693511 0
M  V30 573 H 57.1798 -1.44125 -3.78167 0
M  V30 574 H 55.7498 -0.667297 -3.05395 0
M  V30 575 H 54.9698 -3.08081 -2.45926 0
M  V30 576 H 56.2578 -3.66802 -3.5261 0
M  V30 577 H 55.6558 -1.19653 -5.52901 0
M  V30 578 H 54.2128 -1.75188 -6.27816 0
M  V30 579 N 57.6459 0.756429 -1.3826 0
M  V30 580 C 58.6089 1.85176 -1.35065 0
M  V30 581 C 59.6089 1.58818 -0.251703 0
M  V30 582 O 60.7989 1.66615 -0.508433 0
M  V30 583 C 57.9309 3.22596 -1.10201 0
M  V30 584 H 59.1239 1.89417 -2.3251 0
M  V30 585 H 56.6769 0.95783 -1.23512 0
M  V30 586 H 57.4119 3.24025 -0.133504 0
M  V30 587 H 57.1969 3.43122 -1.89762 0
M  V30 588 H 58.6869 4.02673 -1.10654 0
M  V30 589 N 59.124 1.23083 0.984299 0
M  V30 590 C 60.535 1.05609 1.5396 0
M  V30 591 C 60.886 -0.377793 1.92528 0
M  V30 592 O 60.011 -1.26398 1.75649 0
M  V30 593 C 60.606 1.91087 2.7977 0
M  V30 594 C 59.165 1.77885 3.31713 0
M  V30 595 C 58.312 1.87028 2.04733 0
M  V30 596 H 61.263 1.36802 0.804419 0
M  V30 597 H 61.284 1.43336 3.5247 0
M  V30 598 H 60.796 2.9544 2.51668 0
M  V30 599 H 58.897 0.762995 3.64704 0
M  V30 600 H 59.01 2.61047 4.01735 0
M  V30 601 H 57.374 1.30565 2.18689 0
M  V30 602 H 58.157 2.92929 1.79017 0
M  V30 603 N 60.6021 -1.18246 1.0419 0
M  V30 604 C 61.8501 -1.87886 0.744543 0
M  V30 605 C 62.1711 -1.8082 -0.730006 0
M  V30 606 O 61.4411 -1.22736 -1.52685 0
M  V30 607 H 60.0211 -0.695556 0.272417 0
M  V30 608 H 62.6831 -1.43494 1.31892 0
M  V30 609 H 61.7791 -2.9389 1.05049 0
M  V30 610 N 62.0802 -0.821533 -1.34494 0
M  V30 611 C 63.0272 -0.240397 -2.29545 0
M  V30 612 C 63.9972 0.634031 -1.53523 0
M  V30 613 O 65.1822 0.575966 -1.81899 0
M  V30 614 C 62.3222 0.592869 -3.39969 0
M  V30 615 C 61.4352 -0.30365 -4.30932 0
M  V30 616 C 60.5702 0.539049 -5.28458 0
M  V30 617 C 59.6092 -0.356942 -6.11058 0
M  V30 618 N 58.7462 0.446603 -7.00678 0
M  V30 619 H 63.5862 -1.05632 -2.7865 0
M  V30 620 H 61.1232 -0.532413 -1.37127 0
M  V30 621 H 63.0812 1.09129 -4.02675 0
M  V30 622 H 61.7112 1.37392 -2.92102 0
M  V30 623 H 60.7632 -0.920276 -3.691 0
M  V30 624 H 62.0752 -0.992661 -4.88823 0
M  V30 625 H 61.2292 1.102 -5.96608 0
M  V30 626 H 59.9682 1.26157 -4.71101 0
M  V30 627 H 58.9732 -0.932047 -5.41842 0
M  V30 628 H 60.1982 -1.07755 -6.70497 0
M  V30 629 H 58.1442 1.15282 -6.45791 0
M  V30 630 H 58.0612 -0.184048 -7.55776 0
M  V30 631 H 59.3292 0.992352 -7.73158 0
M  V30 632 N 63.5583 1.46682 -0.576371 0
M  V30 633 C 64.8063 2.02013 -0.0594163 0
M  V30 634 C 65.1273 1.45101 1.30271 0
M  V30 635 O 64.3973 0.633317 1.8538 0
M  V30 636 H 62.9773 0.746759 -0.0189745 0
M  V30 637 H 65.6393 1.79862 -0.750717 0
M  V30 638 H 64.7353 3.12097 0.014345 0
M  V30 639 N 65.0364 0.313813 1.54444 0
M  V30 640 C 65.9664 -0.549454 2.26943 0
M  V30 641 C 66.9474 -1.12741 1.27372 0
M  V30 642 O 68.1324 -1.15436 1.56167 0
M  V30 643 C 65.2624 -1.71523 3.01989 0
M  V30 644 C 64.2164 -1.26703 4.08816 0
M  V30 645 C 63.5424 -2.51898 4.71647 0
M  V30 646 C 64.8424 -0.388962 5.2085 0
M  V30 647 H 66.5364 0.0552661 2.99349 0
M  V30 648 H 64.0824 0.0280207 1.43973 0
M  V30 649 H 66.0354 -2.32535 3.51433 0
M  V30 650 H 64.7594 -2.34639 2.27183 0
M  V30 651 H 63.4184 -0.679896 3.6024 0
M  V30 652 H 63.0664 -3.13356 3.93468 0
M  V30 653 H 62.7664 -2.22605 5.43802 0
M  V30 654 H 64.2904 -3.1369 5.23861 0
M  V30 655 H 65.7044 -0.905107 5.6611 0
M  V30 656 H 64.1014 -0.18924 5.99802 0
M  V30 657 H 65.1714 0.582699 4.81386 0
M  V30 658 N 66.5145 -1.57545 0.0417849 0
M  V30 659 C 67.4245 -2.14451 -0.951213 0
M  V30 660 C 68.4405 -1.09992 -1.34825 0
M  V30 661 O 69.6165 -1.42114 -1.42708 0
M  V30 662 C 66.6815 -2.67063 -2.21084 0
M  V30 663 C 65.7425 -3.86284 -1.87304 0
M  V30 664 C 64.9755 -4.36378 -3.07261 0
M  V30 665 O 65.1985 -3.85587 -4.20332 0
M  V30 666 O 64.1325 -5.28077 -2.88822 0
M  V30 667 H 67.9585 -2.99601 -0.497287 0
M  V30 668 H 65.5435 -1.48317 -0.179567 0
M  V30 669 H 67.4255 -3.00914 -2.95006 0
M  V30 670 H 66.1005 -1.84989 -2.65633 0
M  V30 671 H 65.0075 -3.57338 -1.10727 0
M  V30 672 H 66.3405 -4.6956 -1.47562 0
M  V30 673 N 67.9926 0.231505 -1.5589 0
M  V30 674 C 69.2386 0.954429 -1.79617 0
M  V30 675 C 69.5936 1.82367 -0.613199 0
M  V30 676 O 68.8866 1.87524 0.393094 0
M  V30 677 C 69.0806 1.83577 -3.0665 0
M  V30 678 C 68.9096 1.05334 -4.3719 0
M  V30 679 C 67.6796 0.75225 -4.99669 0
M  V30 680 C 69.8776 0.423444 -5.12554 0
M  V30 681 N 67.8596 -0.052627 -6.13877 0
M  V30 682 C 69.2306 -0.245287 -6.19515 0
M  V30 683 C 71.2856 0.335466 -4.96769 0
M  V30 684 C 69.9886 -0.993566 -7.12405 0
M  V30 685 C 72.0146 -0.399321 -5.9005 0
M  V30 686 C 71.3766 -1.05663 -6.9643 0
M  V30 687 H 67.4756 0.329846 -0.709031 0
M  V30 688 H 70.0596 0.226172 -1.93382 0
M  V30 689 H 68.2306 2.53592 -2.94186 0
M  V30 690 H 69.9626 2.49541 -3.18608 0
M  V30 691 H 66.7176 1.06783 -4.61405 0
M  V30 692 H 67.1416 -0.443609 -6.75545 0
M  V30 693 H 71.7836 0.829311 -4.14587 0
M  V30 694 H 69.5016 -1.49896 -7.94076 0
M  V30 695 H 73.0876 -0.468265 -5.79913 0
M  V30 696 H 71.9676 -1.61612 -7.67366 0
M  V30 697 N 69.4707 1.49531 0.497807 0
M  V30 698 C 70.7167 1.59415 1.25358 0
M  V30 699 C 71.0497 0.281422 1.9215 0
M  V30 700 O 70.3247 -0.715249 1.80871 0
M  V30 701 C 70.6077 2.75566 2.3181 0
M  V30 702 C 70.4607 4.16642 1.69498 0
M  V30 703 C 71.7797 2.87347 3.33346 0
M  V30 704 H 68.8987 0.580244 0.454408 0
M  V30 705 H 71.5407 1.81827 0.551262 0
M  V30 706 H 69.6907 2.56587 2.91711 0
M  V30 707 H 71.3627 4.47145 1.13399 0
M  V30 708 H 69.6057 4.22141 0.998978 0
M  V30 709 H 70.2767 4.93792 2.46725 0
M  V30 710 H 72.7527 3.04634 2.83438 0
M  V30 711 H 71.6287 3.70289 4.05188 0
M  V30 712 H 71.8897 1.96834 3.95865 0
M  V30 713 N 70.9488 -0.749086 1.3866 0
M  V30 714 C 71.9118 -1.84457 1.36045 0
M  V30 715 C 72.9118 -1.58682 0.260122 0
M  V30 716 O 74.1018 -1.66343 0.517261 0
M  V30 717 C 71.2338 -3.22008 1.11911 0
M  V30 718 H 72.4268 -1.88182 2.33512 0
M  V30 719 H 69.9798 -0.951266 1.24019 0
M  V30 720 H 70.7148 -3.2395 0.150686 0
M  V30 721 H 70.4998 -3.42111 1.91579 0
M  V30 722 H 71.9898 -4.0208 1.12788 0
M  V30 723 N 72.4269 -1.23603 -0.977757 0
M  V30 724 C 73.6729 -1.07129 -1.72195 0
M  V30 725 C 74.0059 0.390501 -1.90233 0
M  V30 726 O 73.2809 1.28902 -1.45653 0
M  V30 727 C 73.5639 -1.80031 -3.11867 0
M  V30 728 C 73.4169 -3.33899 -3.01383 0
M  V30 729 C 74.7359 -1.56492 -4.11337 0
M  V30 730 H 71.8549 -0.390571 -0.624999 0
M  V30 731 H 74.4969 -1.52142 -1.13811 0
M  V30 732 H 72.6469 -1.41768 -3.6171 0
M  V30 733 H 74.3189 -3.81699 -2.59043 0
M  V30 734 H 72.5619 -3.62796 -2.37827 0
M  V30 735 H 73.2329 -3.801 -4.00285 0
M  V30 736 H 75.7089 -1.89757 -3.70313 0
M  V30 737 H 74.5849 -2.09973 -5.07151 0
M  V30 738 H 74.8459 -0.500874 -4.39254 0
M  V30 739 N 73.905 1.17692 -1.04816 0
M  V30 740 C 75.154 1.87192 -0.751132 0
M  V30 741 C 75.467 1.8169 0.724441 0
M  V30 742 O 76.673 2.46625 1.13527 0
M  V30 743 C 75.129 3.35857 -1.29338 0
M  V30 744 C 74.737 3.4987 -2.79812 0
M  V30 745 C 76.481 4.10709 -1.07322 0
M  V30 746 C 74.388 4.92536 -3.27356 0
M  V30 747 H 73.318 0.701162 -0.277288 0
M  V30 748 H 75.969 1.32932 -1.26496 0
M  V30 749 H 74.351 3.89631 -0.707376 0
M  V30 750 H 75.525 3.06332 -3.44235 0
M  V30 751 H 73.84 2.88433 -3.00325 0
M  V30 752 H 76.437 5.15952 -1.4035 0
M  V30 753 H 76.78 4.16299 -0.0108001 0
M  V30 754 H 77.313 3.6313 -1.62423 0
M  V30 755 H 74.052 4.92119 -4.33012 0
M  V30 756 H 73.572 5.3676 -2.67673 0
M  V30 757 H 75.251 5.61288 -3.21815 0
M  V30 758 N 75.3831 0.828654 1.34056 0
M  V30 759 C 76.6081 0.431637 2.02859 0
M  V30 760 C 77.0331 -0.956339 1.61975 0
M  V30 761 O 76.3911 -1.62338 0.807228 0
M  V30 762 C 76.4391 0.548323 3.56407 0
M  V30 763 O 75.5431 -0.429556 4.10157 0
M  V30 764 H 74.8841 0.176886 0.640006 0
M  V30 765 H 77.4141 1.12066 1.71179 0
M  V30 766 H 77.4241 0.426196 4.05768 0
M  V30 767 H 76.0991 1.5606 3.8551 0
M  V30 768 H 74.6761 -0.265836 3.71951 0
M  V30 769 N 76.8612 -1.46375 0.584142 0
M  V30 770 C 78.1082 -2.02378 0.0702675 0
M  V30 771 C 78.4362 -1.45545 -1.29023 0
M  V30 772 O 77.6912 -0.610967 -1.85918 0
M  V30 773 C 77.9902 -3.57373 -0.0439342 0
M  V30 774 C 77.6562 -4.33252 1.24915 0
M  V30 775 C 76.3182 -4.53701 1.60341 0
M  V30 776 C 78.6702 -4.7681 2.1048 0
M  V30 777 C 75.9982 -5.1496 2.81128 0
M  V30 778 C 78.3502 -5.39404 3.30494 0
M  V30 779 C 77.0142 -5.5808 3.66201 0
M  V30 780 H 76.2842 -0.740554 0.0257127 0
M  V30 781 H 78.9312 -1.75727 0.761065 0
M  V30 782 H 77.2362 -3.83169 -0.817869 0
M  V30 783 H 78.9332 -3.98384 -0.457318 0
M  V30 784 H 75.5232 -4.17633 0.963364 0
M  V30 785 H 79.7072 -4.60766 1.84414 0
M  V30 786 H 74.9632 -5.27611 3.08928 0
M  V30 787 H 79.1372 -5.72114 3.97063 0
M  V30 788 H 76.7642 -6.05318 4.59885 0
M  V30 789 N 78.3393 -0.321999 -1.54275 0
M  V30 790 C 79.6163 0.335232 -1.92706 0
M  V30 791 C 79.9963 1.70006 -1.25145 0
M  V30 792 O 79.3443 2.25067 -0.394596 0
M  V30 793 C 79.5543 0.429008 -3.46353 0
M  V30 794 C 80.9023 0.690029 -4.18956 0
M  V30 795 O 81.9263 0.511992 -3.52501 0
M  V30 796 O 80.7853 1.03338 -5.36641 0
M  V30 797 H 77.8793 0.191143 -0.804608 0
M  V30 798 H 80.4253 -0.3716 -1.65581 0
M  V30 799 H 79.1973 -0.529611 -3.87699 0
M  V30 800 H 78.8203 1.18348 -3.79578 0
M  V30 801 N 79.8174 1.5752 -0.0501392 0
M  V30 802 C 81.0654 1.9227 0.622642 0
M  V30 803 C 81.3864 0.929083 1.71444 0
M  V30 804 O 80.6564 -0.0262186 1.95882 0
M  V30 805 H 79.2364 0.709739 0.232981 0
M  V30 806 H 81.8984 1.94628 -0.102898 0
M  V30 807 H 80.9944 2.93479 1.06191 0
M  V30 808 N 81.2955 -0.223234 1.56011 0
M  V30 809 C 82.5205 -0.968978 1.83373 0
M  V30 810 C 82.9455 -1.77227 0.630254 0
M  V30 811 O 82.3035 -1.76345 -0.420959 0
M  V30 812 C 82.3515 -1.86363 3.08709 0
M  V30 813 O 81.4555 -2.95873 2.87285 0
M  V30 814 H 80.7965 -0.274461 0.604622 0
M  V30 815 H 83.3265 -0.237056 2.03222 0
M  V30 816 H 83.3365 -2.27376 3.38768 0
M  V30 817 H 82.0115 -1.27319 3.95933 0
M  V30 818 H 80.5885 -2.58818 2.68454 0
M  V30 819 N 82.7736 -1.49793 -0.48987 0
M  V30 820 C 84.0226 -1.59085 -1.23995 0
M  V30 821 C 84.3356 -0.287907 -1.9347 0
M  V30 822 O 85.5416 -0.259506 -2.70257 0
M  V30 823 C 83.9976 -2.80736 -2.252 0
M  V30 824 C 83.6056 -4.17833 -1.61614 0
M  V30 825 C 85.3496 -2.99364 -3.00967 0
M  V30 826 C 83.2566 -5.30693 -2.60996 0
M  V30 827 H 82.1866 -0.592372 -0.466488 0
M  V30 828 H 84.8376 -1.76197 -0.51252 0
M  V30 829 H 83.2196 -2.57142 -3.01154 0
M  V30 830 H 84.3936 -4.51608 -0.915774 0
M  V30 831 H 82.7086 -4.04656 -0.981977 0
M  V30 832 H 85.3056 -3.80851 -3.75308 0
M  V30 833 H 85.6486 -2.10356 -3.59244 0
M  V30 834 H 86.1816 -3.2305 -2.32128 0
M  V30 835 H 82.9206 -6.21796 -2.07485 0
M  V30 836 H 82.4406 -5.01359 -3.2924 0
M  V30 837 H 84.1196 -5.6049 -3.23202 0
M  V30 838 N 84.2517 0.741722 -1.39055 0
M  V30 839 C 85.1987 1.85566 -1.37237 0
M  V30 840 C 86.1687 1.64457 -0.233072 0
M  V30 841 O 87.3537 1.85957 -0.427147 0
M  V30 842 C 84.4937 3.23004 -1.215 0
M  V30 843 C 83.6067 3.55864 -2.44918 0
M  V30 844 C 82.7417 4.82669 -2.21821 0
M  V30 845 C 81.7807 5.08351 -3.40948 0
M  V30 846 N 80.9177 6.26356 -3.17211 0
M  V30 847 H 85.7577 1.86455 -2.32462 0
M  V30 848 H 83.2947 0.911176 -1.15482 0
M  V30 849 H 85.2527 4.02331 -1.10389 0
M  V30 850 H 83.8827 3.21411 -0.29908 0
M  V30 851 H 82.9347 2.7129 -2.66657 0
M  V30 852 H 84.2467 3.70765 -3.33668 0
M  V30 853 H 83.4007 5.69962 -2.07914 0
M  V30 854 H 82.1397 4.69929 -1.30454 0
M  V30 855 H 81.1447 4.19522 -3.55361 0
M  V30 856 H 82.3697 5.22981 -4.33207 0
M  V30 857 H 80.3157 6.14917 -2.28502 0
M  V30 858 H 80.2327 6.41813 -3.99515 0
M  V30 859 H 81.5007 7.16506 -3.06984 0
M  V30 860 N 85.7298 1.2412 0.971189 0
M  V30 861 C 86.9598 1.10415 1.7462 0
M  V30 862 C 87.3678 -0.346462 1.86001 0
M  V30 863 O 86.7108 -1.25104 1.34517 0
M  V30 864 C 86.7728 1.66596 3.18568 0
M  V30 865 C 86.4368 3.15446 3.3067 0
M  V30 866 C 87.4338 4.12636 3.16271 0
M  V30 867 C 85.1188 3.55337 3.55022 0
M  V30 868 C 87.1128 5.47699 3.26044 0
M  V30 869 C 84.7998 4.90542 3.64434 0
M  V30 870 C 85.7978 5.86532 3.49956 0
M  V30 871 O 85.4858 7.19279 3.59017 0
M  V30 872 H 85.2178 0.386616 0.55453 0
M  V30 873 H 87.7718 1.64633 1.22821 0
M  V30 874 H 86.0018 1.06808 3.71657 0
M  V30 875 H 87.6908 1.48232 3.77865 0
M  V30 876 H 88.4568 3.8316 2.97344 0
M  V30 877 H 84.3358 2.8113 3.65359 0
M  V30 878 H 87.8798 6.22603 3.14661 0
M  V30 879 H 83.7768 5.19691 3.82873 0
M  V30 880 H 84.5448 7.27153 3.75754 0
M  V30 881 N 87.2079 -1.17134 1.05439 0
M  V30 882 C 88.4329 -1.91913 0.786396 0
M  V30 883 C 88.8579 -1.7643 -0.652234 0
M  V30 884 O 88.2159 -1.08372 -1.45345 0
M  V30 885 C 88.2639 -3.40921 1.17497 0
M  V30 886 O 87.3679 -4.11244 0.308589 0
M  V30 887 H 86.7089 -0.598215 0.288158 0
M  V30 888 H 89.2389 -1.48457 1.4079 0
M  V30 889 H 89.2489 -3.91668 1.14281 0
M  V30 890 H 87.9239 -3.5151 2.22292 0
M  V30 891 H 86.5009 -3.70731 0.40157 0
M  V30 892 N 88.686 -0.835752 -1.33615 0
M  V30 893 C 89.932 -0.430596 -1.98176 0
M  V30 894 C 90.265 1.00684 -1.66061 0
M  V30 895 O 89.54 1.70339 -0.938877 0
M  V30 896 C 89.823 -0.648065 -3.5422 0
M  V30 897 C 89.676 -2.13255 -3.96033 0
M  V30 898 C 90.995 -0.0922113 -4.40003 0
M  V30 899 H 88.114 -0.157924 -0.719881 0
M  V30 900 H 90.756 -1.05069 -1.58305 0
M  V30 901 H 88.906 -0.120237 -3.88314 0
M  V30 902 H 90.578 -2.725 -3.72211 0
M  V30 903 H 88.821 -2.61823 -3.45878 0
M  V30 904 H 89.492 -2.23547 -5.04708 0
M  V30 905 H 91.968 -0.543343 -4.12537 0
M  V30 906 H 90.844 -0.274083 -5.48215 0
M  V30 907 H 91.105 1.00378 -4.30554 0
M  V30 908 N 90.1641 1.46063 -0.591896 0
M  V30 909 C 91.4411 1.95595 -0.0137119 0
M  V30 910 C 91.8211 1.5345 1.4497 0
M  V30 911 O 91.1691 0.789543 2.14426 0
M  V30 912 C 91.3791 3.48453 -0.195373 0
M  V30 913 C 92.7271 4.24546 -0.0679765 0
M  V30 914 O 93.7511 3.55982 -0.124681 0
M  V30 915 O 92.6101 5.46467 0.0600579 0
M  V30 916 H 89.7041 0.825795 0.0446279 0
M  V30 917 H 92.2501 1.56303 -0.660859 0
M  V30 918 H 91.0221 3.72045 -1.21235 0
M  V30 919 H 90.6451 3.94597 0.487775 0
M  V30 920 N 91.6422 0.330177 1.54103 0
M  V30 921 C 92.8672 -0.274893 2.0557 0
M  V30 922 C 93.2922 -1.44487 1.20437 0
M  V30 923 O 92.6502 -1.80021 0.214991 0
M  V30 924 C 92.6982 -0.68079 3.54115 0
M  V30 925 O 91.8022 -1.7824 3.71893 0
M  V30 926 H 91.1432 -0.0483849 0.662235 0
M  V30 927 H 93.6732 0.480508 1.98878 0
M  V30 928 H 93.6832 -0.961635 3.96505 0
M  V30 929 H 92.3582 0.174903 4.15532 0
M  V30 930 H 90.9352 -1.49985 3.41407 0
M  V30 931 N 93.1203 -1.57491 0.0584922 0
M  V30 932 C 94.3663 -1.93264 -0.614558 0
M  V30 933 C 94.6993 -0.937717 -1.7006 0
M  V30 934 O 93.9743 0.0351652 -1.94468 0
M  V30 935 C 94.2573 -3.3938 -1.20386 0
M  V30 936 C 94.1103 -4.49625 -0.125375 0
M  V30 937 C 95.4293 -3.86039 -2.11334 0
M  V30 938 H 92.5483 -0.702791 -0.221933 0
M  V30 939 H 95.1903 -1.8961 0.12175 0
M  V30 940 H 93.3403 -3.42626 -1.83139 0
M  V30 941 H 95.0123 -4.58506 0.506971 0
M  V30 942 H 93.2553 -4.30354 0.545672 0
M  V30 943 H 93.9263 -5.48967 -0.577861 0
M  V30 944 H 96.4023 -3.84716 -1.58534 0
M  V30 945 H 95.2783 -4.88914 -2.49507 0
M  V30 946 H 95.5393 -3.23215 -3.01636 0
M  V30 947 N 94.5984 0.214957 -1.56127 0
M  V30 948 C 95.5454 1.26642 -1.92952 0
M  V30 949 C 96.5154 1.46244 -0.78753 0
M  V30 950 O 97.7004 1.59704 -1.04399 0
M  V30 951 C 94.8404 2.6104 -2.25726 0
M  V30 952 C 93.9534 2.49183 -3.52891 0
M  V30 953 C 93.0884 3.76149 -3.7508 0
M  V30 954 C 92.1274 3.59041 -4.95738 0
M  V30 955 N 91.2644 4.77972 -5.14283 0
M  V30 956 H 96.1044 0.945384 -2.82607 0
M  V30 957 H 93.6414 0.455489 -1.3987 0
M  V30 958 H 95.5994 3.39313 -2.42739 0
M  V30 959 H 94.2294 2.91227 -1.39236 0
M  V30 960 H 93.2814 1.6231 -3.44034 0
M  V30 961 H 94.5934 2.32466 -4.41318 0
M  V30 962 H 93.7474 4.62865 -3.92226 0
M  V30 963 H 92.4864 3.95799 -2.84947 0
M  V30 964 H 91.4914 2.7071 -4.78535 0
M  V30 965 H 92.7164 3.40856 -5.87362 0
M  V30 966 H 90.6624 4.97923 -4.27093 0
M  V30 967 H 90.5794 4.64006 -5.96853 0
M  V30 968 H 91.8474 5.66096 -5.35869 0
M  V30 969 N 96.0765 1.50051 0.48192 0
M  V30 970 C 97.3245 1.60181 1.23234 0
M  V30 971 C 97.6455 0.299176 1.92691 0
M  V30 972 O 96.9155 -0.682708 1.83619 0
M  V30 973 H 95.4955 0.590232 0.457859 0
M  V30 974 H 98.1575 1.86775 0.556881 0
M  V30 975 H 97.2535 2.40753 1.98607 0
M  V30 976 N 97.5546 -0.734337 1.39446 0
M  V30 977 C 98.9706 -1.03997 1.21065 0
M  V30 978 C 99.1706 -2.01369 0.0727019 0
M  V30 979 O 98.2266 -2.45856 -0.575426 0
M  V30 980 C 99.5396 -1.60163 2.54496 0
M  V30 981 C 101.088 -1.7224 2.61347 0
M  V30 982 C 101.563 -2.31814 3.95002 0
M  V30 983 N 103.054 -2.39223 3.96644 0
M  V30 984 C 103.789 -2.86258 4.96834 0
M  V30 985 N 103.285 -3.33184 6.07421 0
M  V30 986 N 105.078 -2.85473 4.84213 0
M  V30 987 H 97.2286 -0.0885624 2.12215 0
M  V30 988 H 99.4916 -0.10191 0.942506 0
M  V30 989 H 99.1976 -0.960811 3.38321 0
M  V30 990 H 99.0716 -2.5896 2.74262 0
M  V30 991 H 101.459 -2.35443 1.77906 0
M  V30 992 H 101.54 -0.720939 2.4543 0
M  V30 993 H 101.184 -1.69238 4.78875 0
M  V30 994 H 101.114 -3.32638 4.08239 0
M  V30 995 H 103.605 -2.06057 3.16779 0
M  V30 996 H 103.918 -3.67586 6.7978 0
M  V30 997 H 102.263 -3.31191 6.11013 0
M  V30 998 H 105.454 -2.48136 3.96921 0
M  V30 999 H 105.627 -3.21814 5.62441 0
M  V30 1000 N 99.0327 -1.24633 -0.964593 0
M  V30 1001 C 100.28 -1.08788 -1.70796 0
M  V30 1002 C 100.608 0.372783 -1.90894 0
M  V30 1003 O 99.8627 1.29167 -1.47018 0
M  V30 1004 C 100.162 -1.7763 -3.10133 0
M  V30 1005 C 99.8277 -3.27557 -3.09866 0
M  V30 1006 C 98.4897 -3.6846 -3.09501 0
M  V30 1007 C 100.842 -4.23389 -3.03959 0
M  V30 1008 C 98.1697 -5.03624 -3.00965 0
M  V30 1009 C 100.522 -5.58565 -2.96965 0
M  V30 1010 C 99.1857 -5.98809 -2.9493 0
M  V30 1011 H 98.4557 -0.398084 -0.624988 0
M  V30 1012 H 101.103 -1.54777 -1.12767 0
M  V30 1013 H 99.4077 -1.24044 -3.71645 0
M  V30 1014 H 101.105 -1.62832 -3.66451 0
M  V30 1015 H 97.6947 -2.95006 -3.10917 0
M  V30 1016 H 101.879 -3.92787 -3.03368 0
M  V30 1017 H 97.1347 -5.33998 -2.97752 0
M  V30 1018 H 101.309 -6.32523 -2.91354 0
M  V30 1019 H 98.9357 -7.03505 -2.88071 0
M  V30 1020 N 100.511 1.16574 -1.06058 0
M  V30 1021 C 101.739 1.90952 -0.796552 0
M  V30 1022 C 102.154 1.77302 0.648808 0
M  V30 1023 O 101.511 1.11605 1.44397 0
M  V30 1024 C 101.562 3.41736 -1.17894 0
M  V30 1025 O 101.283 3.54975 -2.56758 0
M  V30 1026 C 102.784 4.33169 -0.942308 0
M  V30 1027 H 100.004 0.605594 -0.288959 0
M  V30 1028 H 102.548 1.47777 -1.41358 0
M  V30 1029 H 100.703 3.82623 -0.606491 0
M  V30 1030 H 101.117 4.4846 -2.72 0
M  V30 1031 H 102.591 5.37439 -1.25952 0
M  V30 1032 H 103.068 4.3903 0.122078 0
M  V30 1033 H 103.674 3.98007 -1.49902 0
M  V30 1034 N 101.989 0.842826 1.3317 0
M  V30 1035 C 103.238 0.436738 1.96915 0
M  V30 1036 C 103.551 -1.01025 1.67491 0
M  V30 1037 O 104.757 -1.5212 2.24881 0
M  V30 1038 C 103.213 0.730021 3.52418 0
M  V30 1039 C 102.821 2.19195 3.90714 0
M  V30 1040 C 104.565 0.391076 4.22695 0
M  V30 1041 C 102.472 2.42907 5.39212 0
M  V30 1042 H 101.402 0.15958 0.736919 0
M  V30 1043 H 104.053 1.03196 1.51733 0
M  V30 1044 H 102.435 0.0643755 3.95948 0
M  V30 1045 H 103.609 2.8984 3.58231 0
M  V30 1046 H 101.924 2.49425 3.33431 0
M  V30 1047 H 104.521 0.545817 5.31907 0
M  V30 1048 H 104.864 -0.666294 4.10933 0
M  V30 1049 H 105.397 1.01212 3.84709 0
M  V30 1050 H 102.136 3.47224 5.55982 0
M  V30 1051 H 101.656 1.76827 5.73142 0
M  V30 1052 H 103.335 2.2626 6.06148 0
M  V30 1053 N 103.467 -1.45747 0.599634 0
M  V30 1054 C 104.692 -2.07178 0.0960198 0
M  V30 1055 C 105.117 -1.44268 -1.207 0
M  V30 1056 O 104.475 -0.532503 -1.73303 0
M  V30 1057 C 104.523 -3.60579 -0.0385348 0
M  V30 1058 O 103.627 -3.97713 -1.0908 0
M  V30 1059 H 102.968 -0.660251 0.0704593 0
M  V30 1060 H 105.498 -1.87124 0.827385 0
M  V30 1061 H 105.508 -4.07298 -0.239304 0
M  V30 1062 H 104.183 -4.05756 0.912947 0
M  V30 1063 H 102.76 -3.62678 -0.867135 0
M  V30 1064 N 104.945 -0.338344 -1.53925 0
M  V30 1065 C 106.361 0.0137736 -1.59594 0
M  V30 1066 C 106.561 1.49186 -1.35447 0
M  V30 1067 O 105.617 2.24987 -1.14616 0
M  V30 1068 C 106.93 -0.41773 -2.97784 0
M  V30 1069 C 108.478 -0.369633 -3.1081 0
M  V30 1070 C 108.953 -0.776524 -4.51369 0
M  V30 1071 N 110.444 -0.730506 -4.57403 0
M  V30 1072 C 111.179 -1.01736 -5.64303 0
M  V30 1073 N 110.675 -1.3721 -6.79077 0
M  V30 1074 N 112.468 -0.941942 -5.54151 0
M  V30 1075 H 104.619 -1.3012 -1.67876 0
M  V30 1076 H 106.882 -0.530082 -0.78595 0
M  V30 1077 H 106.588 -1.44811 -3.20504 0
M  V30 1078 H 106.462 0.209729 -3.76616 0
M  V30 1079 H 108.849 0.651568 -2.87817 0
M  V30 1080 H 108.93 -1.03223 -2.34049 0
M  V30 1081 H 108.574 -1.79571 -4.75096 0
M  V30 1082 H 108.504 -0.0914649 -5.26521 0
M  V30 1083 H 110.995 -0.468783 -3.74981 0
M  V30 1084 H 111.308 -1.57597 -7.5656 0
M  V30 1085 H 109.653 -1.4105 -6.80536 0
M  V30 1086 H 112.844 -0.664184 -4.63364 0
M  V30 1087 H 113.017 -1.16884 -6.37371 0
M  V30 1088 N 106.423 1.57458 -0.0668435 0
M  V30 1089 C 107.7 1.8469 0.644132 0
M  V30 1090 C 108.08 0.958343 1.88093 0
M  V30 1091 O 107.428 0.0233579 2.28488 0
M  V30 1092 C 107.638 3.34767 0.986509 0
M  V30 1093 C 108.986 4.02159 1.36212 0
M  V30 1094 O 110.01 3.39484 1.07839 0
M  V30 1095 O 108.869 5.12694 1.89227 0
M  V30 1096 H 105.963 0.762816 0.319437 0
M  V30 1097 H 108.509 1.6942 -0.0973986 0
M  V30 1098 H 107.281 3.91151 0.107883 0
M  V30 1099 H 106.904 3.55281 1.78497 0
M  V30 1100 N 107.901 -0.206675 1.56239 0
M  V30 1101 C 108.849 -1.27571 1.94495 0
M  V30 1102 C 109.843 -1.47737 0.828862 0
M  V30 1103 O 111.049 -1.48735 1.0138 0
M  V30 1104 H 107.424 -0.428029 0.6183 0
M  V30 1105 H 109.395 -0.925961 2.8367 0
M  V30 1106 C 108.144 -2.61568 2.29079 0
M  V30 1107 H 107.467 -2.46863 3.14482 0
M  V30 1108 H 108.907 -3.35144 2.5972 0
M  V30 1109 C 107.366 -3.17695 1.12123 0
M  V30 1110 O 107.896 -3.99801 0.390153 0
M  V30 1111 N 106.102 -2.76276 0.901097 0
M  V30 1112 H 105.649 -2.09613 1.49733 0
M  V30 1113 H 105.607 -3.1417 0.120319 0
M  V30 1114 N 109.379 -1.50304 -0.473955 0
M  V30 1115 C 110.604 -1.65175 -1.25427 0
M  V30 1116 C 111.029 -0.333673 -1.85117 0
M  V30 1117 O 110.387 0.702114 -1.67153 0
M  V30 1118 C 110.435 -2.74295 -2.34082 0
M  V30 1119 O 109.539 -2.35349 -3.38651 0
M  V30 1120 H 108.88 -0.551944 -0.369126 0
M  V30 1121 H 111.41 -1.96662 -0.564364 0
M  V30 1122 H 111.42 -2.97285 -2.79438 0
M  V30 1123 H 110.095 -3.69959 -1.90008 0
M  V30 1124 H 108.672 -2.22794 -2.99027 0
M  V30 1125 N 110.857 0.726932 -1.39834 0
M  V30 1126 C 111.804 1.841 -1.39197 0
M  V30 1127 C 112.774 1.642 -0.250502 0
M  V30 1128 O 113.959 1.85494 -0.446846 0
M  V30 1129 C 111.099 3.21697 -1.24919 0
M  V30 1130 C 110.212 3.53247 -2.48678 0
M  V30 1131 C 109.347 4.80289 -2.26928 0
M  V30 1132 C 108.386 5.04707 -3.4632 0
M  V30 1133 N 107.523 6.22956 -3.23836 0
M  V30 1134 H 112.363 1.83979 -2.34427 0
M  V30 1135 H 109.9 0.898876 -1.16442 0
M  V30 1136 H 111.858 4.01137 -1.1465 0
M  V30 1137 H 110.488 3.21076 -0.333153 0
M  V30 1138 H 109.54 2.68447 -2.69519 0
M  V30 1139 H 110.852 3.67205 -3.37582 0
M  V30 1140 H 110.006 5.67725 -2.13947 0
M  V30 1141 H 108.745 4.68519 -1.35431 0
M  V30 1142 H 107.75 4.1573 -3.5979 0
M  V30 1143 H 108.975 5.18357 -4.38729 0
M  V30 1144 H 106.921 6.12459 -2.35011 0
M  V30 1145 H 106.838 6.37539 -4.063 0
M  V30 1146 H 108.106 7.1321 -3.14566 0
M  V30 1147 N 112.336 1.25143 0.95797 0
M  V30 1148 C 113.284 1.05019 2.07542 0
M  V30 1149 C 114.278 -0.0178751 1.69391 0
M  V30 1150 O 115.484 0.137472 1.79474 0
M  V30 1151 H 111.859 0.32265 0.679265 0
M  V30 1152 H 113.83 1.99759 2.21673 0
M  V30 1153 C 112.579 0.682074 3.40944 0
M  V30 1154 H 111.902 1.49573 3.70767 0
M  V30 1155 H 113.342 0.580945 4.20001 0
M  V30 1156 C 111.801 -0.611608 3.31302 0
M  V30 1157 O 112.331 -1.65465 3.66038 0
M  V30 1158 N 110.537 -0.595982 2.84423 0
M  V30 1159 H 110.084 0.253192 2.56353 0
M  V30 1160 H 110.042 -1.46173 2.78354 0
M  V30 1161 N 113.814 -1.1601 1.06675 0
M  V30 1162 C 115.042 -1.90527 0.806667 0
M  V30 1163 C 115.457 -1.77643 -0.639396 0
M  V30 1164 O 114.814 -1.12369 -1.43803 0
M  V30 1165 C 114.865 -3.41106 1.19705 0
M  V30 1166 O 114.586 -3.53608 2.58636 0
M  V30 1167 C 116.087 -4.32663 0.965266 0
M  V30 1168 H 113.307 -0.604053 0.292166 0
M  V30 1169 H 115.851 -1.47026 1.4214 0
M  V30 1170 H 114.006 -3.82296 0.626774 0
M  V30 1171 H 114.42 -4.47011 2.74375 0
M  V30 1172 H 115.894 -5.36763 1.288 0
M  V30 1173 H 116.371 -4.39089 -0.0987936 0
M  V30 1174 H 116.977 -3.97206 1.52011 0
M  V30 1175 N 115.292 -0.849877 -1.32721 0
M  V30 1176 C 116.222 -0.306308 -2.31482 0
M  V30 1177 C 117.203 0.591952 -1.59468 0
M  V30 1178 O 118.388 0.513199 -1.87296 0
M  V30 1179 C 115.518 0.510204 -3.43532 0
M  V30 1180 C 114.472 -0.293209 -4.26994 0
M  V30 1181 C 113.798 0.647743 -5.30762 0
M  V30 1182 C 115.098 -1.51634 -4.99804 0
M  V30 1183 H 116.792 -1.13153 -2.77195 0
M  V30 1184 H 114.338 -0.545553 -1.33266 0
M  V30 1185 H 116.291 0.900856 -4.11658 0
M  V30 1186 H 115.015 1.36874 -2.96535 0
M  V30 1187 H 113.674 -0.665555 -3.60508 0
M  V30 1188 H 113.322 1.50299 -4.8002 0
M  V30 1189 H 113.022 0.11422 -5.87489 0
M  V30 1190 H 114.546 1.03567 -6.01753 0
M  V30 1191 H 115.96 -1.19824 -5.60638 0
M  V30 1192 H 114.357 -1.98745 -5.66234 0
M  V30 1193 H 115.427 -2.28018 -4.27943 0
M  V30 1194 N 116.77 1.45427 -0.607355 0
M  V30 1195 C 118.017 2.02241 -0.102455 0
M  V30 1196 C 118.345 1.4758 1.26691 0
M  V30 1197 O 117.6 0.640468 1.84923 0
M  V30 1198 C 117.899 3.57398 -0.0129263 0
M  V30 1199 C 117.565 4.3121 -1.31792 0
M  V30 1200 C 116.227 4.51092 -1.67539 0
M  V30 1201 C 118.579 4.73401 -2.18039 0
M  V30 1202 C 115.907 5.10422 -2.89285 0
M  V30 1203 C 118.259 5.34078 -3.39034 0
M  V30 1204 C 116.923 5.52184 -3.75033 0
M  V30 1205 H 116.193 0.740051 -0.037491 0
M  V30 1206 H 118.84 1.74494 -0.788926 0
M  V30 1207 H 117.145 3.84421 0.756806 0
M  V30 1208 H 118.842 3.99061 0.393881 0
M  V30 1209 H 115.432 4.16047 -1.02968 0
M  V30 1210 H 119.616 4.57774 -1.91721 0
M  V30 1211 H 114.872 5.22629 -3.17283 0
M  V30 1212 H 119.046 5.65724 -4.06115 0
M  V30 1213 H 116.673 5.97925 -4.69457 0
M  V30 1214 N 118.248 0.346503 1.53744 0
M  V30 1215 C 119.178 -0.501193 2.28058 0
M  V30 1216 C 120.159 -1.10014 1.29734 0
M  V30 1217 O 121.344 -1.12097 1.58581 0
M  V30 1218 C 118.474 -1.65078 3.05559 0
M  V30 1219 C 117.428 -1.18003 4.11411 0
M  V30 1220 C 116.754 -2.41837 4.76884 0
M  V30 1221 C 118.054 -0.278394 5.21558 0
M  V30 1222 H 119.748 0.11875 2.99164 0
M  V30 1223 H 117.294 0.0585531 1.43881 0
M  V30 1224 H 119.247 -2.25028 3.56287 0
M  V30 1225 H 117.971 -2.29767 2.32109 0
M  V30 1226 H 116.63 -0.603331 3.61601 0
M  V30 1227 H 116.278 -3.0494 4.00026 0
M  V30 1228 H 115.978 -2.1102 5.48402 0
M  V30 1229 H 117.502 -3.02508 5.30397 0
M  V30 1230 H 118.916 -0.784823 5.67903 0
M  V30 1231 H 117.313 -0.0619707 6.00068 0
M  V30 1232 H 118.383 0.684677 4.80042 0
M  V30 1233 N 119.726 -1.57421 0.075193 0
M  V30 1234 C 120.658 -2.09904 -0.920483 0
M  V30 1235 C 121.671 -1.03191 -1.25918 0
M  V30 1236 O 122.86 -1.30695 -1.21577 0
M  V30 1237 C 119.96 -2.54726 -2.23534 0
M  V30 1238 C 119.133 -3.8505 -2.07498 0
M  V30 1239 C 118.192 -4.15929 -3.22319 0
M  V30 1240 O 117.218 -4.85474 -2.9716 0
M  V30 1241 N 118.42 -3.69745 -4.47514 0
M  V30 1242 H 121.185 -2.95954 -0.472359 0
M  V30 1243 H 118.746 -1.61523 -0.110444 0
M  V30 1244 H 120.738 -2.72443 -2.9926 0
M  V30 1245 H 119.308 -1.73795 -2.59835 0
M  V30 1246 H 118.528 -3.76679 -1.16219 0
M  V30 1247 H 119.816 -4.70348 -1.94038 0
M  V30 1248 H 119.214 -3.13569 -4.7084 0
M  V30 1249 H 117.771 -3.92655 -5.20255 0
M  V30 1250 N 121.204 0.198386 -1.56346 0
M  V30 1251 C 122.137 1.27381 -1.89339 0
M  V30 1252 C 123.115 1.44106 -0.753134 0
M  V30 1253 O 124.299 1.59549 -1.00381 0
M  V30 1254 C 121.426 2.6409 -2.12071 0
M  V30 1255 C 120.472 2.64253 -3.34772 0
M  V30 1256 S 121.305 2.16013 -4.89999 0
M  V30 1257 C 122.461 3.54553 -5.15794 0
M  V30 1258 H 122.694 0.992058 -2.8026 0
M  V30 1259 H 120.227 0.401726 -1.49082 0
M  V30 1260 H 122.185 3.42786 -2.2585 0
M  V30 1261 H 120.846 2.89478 -1.21906 0
M  V30 1262 H 120.039 3.64768 -3.47794 0
M  V30 1263 H 119.641 1.93637 -3.1997 0
M  V30 1264 H 121.933 4.50396 -5.06112 0
M  V30 1265 H 122.876 3.46428 -6.1757 0
M  V30 1266 H 123.284 3.49313 -4.43442 0
M  V30 1267 N 122.682 1.50554 0.465978 0
M  V30 1268 C 123.63 1.70324 1.58406 0
M  V30 1269 C 124.624 0.569139 1.59553 0
M  V30 1270 O 125.83 0.749776 1.63641 0
M  V30 1271 H 122.205 0.537688 0.525734 0
M  V30 1272 H 124.176 2.64104 1.38894 0
M  V30 1273 C 122.925 1.81928 2.96307 0
M  V30 1274 H 122.248 2.68586 2.96144 0
M  V30 1275 H 123.688 1.99784 3.73982 0
M  V30 1276 C 122.147 0.572095 3.32007 0
M  V30 1277 O 122.677 -0.286416 4.00678 0
M  V30 1278 N 120.883 0.424606 2.87481 0
M  V30 1279 H 120.43 1.12427 2.31771 0
M  V30 1280 H 120.388 -0.408697 3.11732 0
M  V30 1281 N 124.16 -0.719506 1.40217 0
M  V30 1282 C 125.385 -1.51371 1.4178 0
M  V30 1283 C 125.81 -1.88091 0.0182355 0
M  V30 1284 O 125.168 -1.52997 -0.972707 0
M  V30 1285 C 125.216 -2.768 2.31115 0
M  V30 1286 O 124.32 -3.73349 1.7517 0
M  V30 1287 H 123.661 -0.456529 0.482159 0
M  V30 1288 H 126.191 -0.88644 1.844 0
M  V30 1289 H 126.201 -3.25371 2.46167 0
M  V30 1290 H 124.876 -2.49407 3.3282 0
M  V30 1291 H 123.453 -3.32179 1.69444 0
M  V30 1292 N 125.638 -1.25649 -0.95132 0
M  V30 1293 C 126.568 -1.08808 -2.06599 0
M  V30 1294 C 127.549 0.00382547 -1.701 0
M  V30 1295 O 128.734 -0.166325 -1.93486 0
M  V30 1296 C 125.864 -0.709542 -3.39975 0
M  V30 1297 C 124.818 -1.75206 -3.90496 0
M  V30 1298 C 124.144 -1.22811 -5.20405 0
M  V30 1299 C 125.444 -3.15153 -4.16504 0
M  V30 1300 H 127.138 -2.02048 -2.20946 0
M  V30 1301 H 124.684 -0.972835 -1.06169 0
M  V30 1302 H 126.637 -0.578649 -4.17408 0
M  V30 1303 H 125.361 0.258556 -3.25575 0
M  V30 1304 H 124.02 -1.87145 -3.15234 0
M  V30 1305 H 123.668 -0.250145 -5.02378 0
M  V30 1306 H 123.368 -1.92492 -5.55176 0
M  V30 1307 H 124.892 -1.10968 -6.00432 0
M  V30 1308 H 126.306 -3.06349 -4.84586 0
M  V30 1309 H 124.703 -3.82333 -4.62538 0
M  V30 1310 H 125.773 -3.61966 -3.22658 0
M  V30 1311 N 127.117 1.15442 -1.07289 0
M  V30 1312 C 128.533 1.38201 -0.798288 0
M  V30 1313 C 128.733 1.92429 0.597769 0
M  V30 1314 O 127.789 2.12962 1.3566 0
M  V30 1315 C 129.102 2.35357 -1.87156 0
M  V30 1316 C 130.65 2.49021 -1.89624 0
M  V30 1317 C 131.125 3.49468 -2.96034 0
M  V30 1318 N 132.616 3.57003 -2.95132 0
M  V30 1319 C 133.351 4.34543 -3.74112 0
M  V30 1320 N 132.847 5.15421 -4.6294 0
M  V30 1321 N 134.64 4.29625 -3.62462 0
M  V30 1322 H 126.791 0.78584 -1.97328 0
M  V30 1323 H 129.054 0.408065 -0.855679 0
M  V30 1324 H 128.76 2.02626 -2.87464 0
M  V30 1325 H 128.634 3.35129 -1.73114 0
M  V30 1326 H 131.021 2.81051 -0.899687 0
M  V30 1327 H 131.102 1.4925 -2.07745 0
M  V30 1328 H 130.746 3.18173 -3.95889 0
M  V30 1329 H 130.676 4.48992 -2.75161 0
M  V30 1330 H 133.167 2.99276 -2.30743 0
M  V30 1331 H 133.48 5.7183 -5.19837 0
M  V30 1332 H 131.825 5.14729 -4.66989 0
M  V30 1333 H 135.016 3.65505 -2.92444 0
M  V30 1334 H 135.189 4.89807 -4.24256 0
M  V30 1335 N 128.595 0.856903 1.32268 0
M  V30 1336 C 129.558 0.308171 2.27119 0
M  V30 1337 C 130.558 -0.533421 1.51695 0
M  V30 1338 O 131.748 -0.344607 1.70757 0
M  V30 1339 C 128.88 -0.563757 3.36206 0
M  V30 1340 H 130.073 1.14535 2.77167 0
M  V30 1341 H 127.626 0.631421 1.42978 0
M  V30 1342 H 128.361 -1.42266 2.91429 0
M  V30 1343 H 128.146 0.0386749 3.92081 0
M  V30 1344 H 129.636 -0.940386 4.06874 0
M  V30 1345 N 130.073 -1.45103 0.615059 0
M  V30 1346 C 130.983 -2.34382 -0.101034 0
M  V30 1347 C 131.999 -1.51681 -0.852585 0
M  V30 1348 O 133.175 -1.8446 -0.808484 0
M  V30 1349 C 130.24 -3.29417 -1.08099 0
M  V30 1350 C 129.301 -4.28025 -0.330577 0
M  V30 1351 C 128.534 -5.1852 -1.26385 0
M  V30 1352 O 128.757 -5.12598 -2.50198 0
M  V30 1353 O 127.691 -5.97122 -0.756866 0
M  V30 1354 H 131.517 -2.97033 0.632855 0
M  V30 1355 H 129.102 -1.4461 0.375293 0
M  V30 1356 H 130.984 -3.87958 -1.6452 0
M  V30 1357 H 129.659 -2.69321 -1.79577 0
M  V30 1358 H 128.566 -3.73078 0.276283 0
M  V30 1359 H 129.899 -4.90997 0.343866 0
M  V30 1360 N 131.551 -0.354651 -1.53558 0
M  V30 1361 C 132.828 0.294281 -1.93374 0
M  V30 1362 C 133.208 1.67313 -1.28723 0
M  V30 1363 O 132.556 2.24179 -0.442247 0
M  V30 1364 C 132.766 0.355445 -3.47185 0
M  V30 1365 C 134.114 0.601007 -4.20325 0
M  V30 1366 O 135.138 0.437106 -3.53508 0
M  V30 1367 O 133.997 0.919322 -5.38712 0
M  V30 1368 H 131.091 0.174033 -0.808481 0
M  V30 1369 H 133.637 -0.406638 -1.64756 0
M  V30 1370 H 132.409 -0.611729 -3.86489 0
M  V30 1371 H 132.032 1.1027 -3.82003 0
M  V30 1372 N 133.029 1.57378 -0.0835403 0
M  V30 1373 C 134.257 1.98263 0.59157 0
M  V30 1374 C 134.672 0.962302 1.62435 0
M  V30 1375 O 134.029 -0.049581 1.82433 0
M  V30 1376 C 134.08 3.39214 1.24965 0
M  V30 1377 O 133.801 4.37339 0.258186 0
M  V30 1378 C 135.302 3.95038 2.01147 0
M  V30 1379 H 132.522 0.651773 0.159477 0
M  V30 1380 H 135.066 2.03878 -0.159415 0
M  V30 1381 H 133.221 3.34649 1.95164 0
M  V30 1382 H 133.635 5.19371 0.731734 0
M  V30 1383 H 135.109 4.95848 2.42567 0
M  V30 1384 H 135.586 3.32222 2.87272 0
M  V30 1385 H 136.192 4.0304 1.35789 0
M  V30 1386 N 134.507 -0.190092 1.56449 0
M  V30 1387 C 135.47 -1.21925 1.9408 0
M  V30 1388 C 136.47 -1.38176 0.822431 0
M  V30 1389 O 137.66 -1.35903 1.08977 0
M  V30 1390 C 134.792 -2.58773 2.21922 0
M  V30 1391 H 135.985 -0.897464 2.86157 0
M  V30 1392 H 133.538 -0.43181 1.50217 0
M  V30 1393 H 134.273 -2.95998 1.32499 0
M  V30 1394 H 134.058 -2.48348 3.03424 0
M  V30 1395 H 135.548 -3.32978 2.52022 0
M  V30 1396 N 135.985 -1.50799 -0.457987 0
M  V30 1397 C 137.231 -1.62683 -1.21088 0
M  V30 1398 C 137.564 -0.332268 -1.91336 0
M  V30 1399 O 136.839 0.667043 -1.82704 0
M  V30 1400 C 137.122 -2.81615 -2.24422 0
M  V30 1401 C 136.975 -4.20989 -1.58392 0
M  V30 1402 C 138.294 -2.96085 -3.2561 0
M  V30 1403 H 135.413 -0.592087 -0.438864 0
M  V30 1404 H 138.055 -1.83225 -0.50286 0
M  V30 1405 H 136.205 -2.64231 -2.84806 0
M  V30 1406 H 137.877 -4.49994 -1.01504 0
M  V30 1407 H 136.12 -4.24641 -0.886704 0
M  V30 1408 H 136.791 -5.0016 -2.33547 0
M  V30 1409 H 139.267 -3.12042 -2.75262 0
M  V30 1410 H 138.143 -3.80902 -3.95228 0
M  V30 1411 H 138.404 -2.0726 -3.90507 0
M  V30 1412 N 137.463 0.71206 -1.40597 0
M  V30 1413 C 138.693 1.49894 -1.42181 0
M  V30 1414 C 139.101 1.89189 -0.0208078 0
M  V30 1415 O 138.444 1.56223 0.966436 0
M  V30 1416 C 138.506 2.80215 -2.25211 0
M  V30 1417 C 138.17 2.63221 -3.73582 0
M  V30 1418 C 139.167 2.30249 -4.66135 0
M  V30 1419 C 136.852 2.79376 -4.17438 0
M  V30 1420 C 138.846 2.13645 -6.00529 0
M  V30 1421 C 136.533 2.6239 -5.51901 0
M  V30 1422 C 137.531 2.29573 -6.43262 0
M  V30 1423 O 137.219 2.12719 -7.75246 0
M  V30 1424 H 136.951 0.469031 -0.486812 0
M  V30 1425 H 139.505 0.88564 -1.85326 0
M  V30 1426 H 137.735 3.4389 -1.76852 0
M  V30 1427 H 139.424 3.41947 -2.18694 0
M  V30 1428 H 140.19 2.17398 -4.33547 0
M  V30 1429 H 136.069 3.03906 -3.46644 0
M  V30 1430 H 139.613 1.87953 -6.71803 0
M  V30 1431 H 135.51 2.74826 -5.84073 0
M  V30 1432 H 136.278 2.27611 -7.86216 0
M  V30 1433 N 138.941 1.26152 0.944643 0
M  V30 1434 C 140.171 1.14094 1.72239 0
M  V30 1435 C 140.579 -0.306931 1.86694 0
M  V30 1436 O 139.922 -1.22222 1.3714 0
M  V30 1437 C 139.984 1.73316 3.14963 0
M  V30 1438 C 139.648 3.2239 3.23904 0
M  V30 1439 C 140.645 4.19252 3.07447 0
M  V30 1440 C 138.33 3.62788 3.47405 0
M  V30 1441 C 140.324 5.54491 3.14353 0
M  V30 1442 C 138.011 4.98162 3.53947 0
M  V30 1443 C 139.009 5.93823 3.37436 0
M  V30 1444 O 138.697 7.26732 3.43679 0
M  V30 1445 H 138.429 0.398292 0.546205 0
M  V30 1446 H 140.983 1.67201 1.19301 0
M  V30 1447 H 139.213 1.14667 3.69308 0
M  V30 1448 H 140.902 1.56214 3.74636 0
M  V30 1449 H 141.668 3.8938 2.8915 0
M  V30 1450 H 137.547 2.88816 3.59313 0
M  V30 1451 H 141.091 6.29137 3.01384 0
M  V30 1452 H 136.988 5.27695 3.71763 0
M  V30 1453 H 137.756 7.3496 3.60245 0
M  V30 1454 N 140.419 -1.14872 1.07899 0
M  V30 1455 C 141.659 -1.8745 0.814965 0
M  V30 1456 C 142.023 -1.80758 -0.64733 0
M  V30 1457 O 143.224 -2.48422 -1.02664 0
M  V30 1458 C 141.495 -3.32286 1.31607 0
M  V30 1459 S 143.054 -4.22537 1.18357 0
M  V30 1460 H 139.872 -0.646833 0.295174 0
M  V30 1461 H 142.474 -1.38555 1.37923 0
M  V30 1462 H 141.178 -3.34703 2.37491 0
M  V30 1463 H 140.709 -3.86238 0.747261 0
M  V30 1464 H 142.724 -4.96044 0.124586 0
M  V30 1465 N 141.898 -0.863906 -1.31812 0
M  V30 1466 C 142.861 -0.320212 -2.26952 0
M  V30 1467 C 143.861 0.525369 -1.51975 0
M  V30 1468 O 145.051 0.335547 -1.70938 0
M  V30 1469 C 142.183 0.545919 -3.365 0
M  V30 1470 H 143.376 -1.16004 -2.76556 0
M  V30 1471 H 140.929 -0.638995 -1.42641 0
M  V30 1472 H 141.664 1.40718 -2.92179 0
M  V30 1473 H 141.449 -0.0594674 -3.92055 0
M  V30 1474 H 142.939 0.918796 -4.07367 0
M  V30 1475 N 143.376 1.44774 -0.622745 0
M  V30 1476 C 144.792 1.56986 -0.287652 0
M  V30 1477 C 144.992 1.61167 1.20944 0
M  V30 1478 O 144.048 1.55015 1.99315 0
M  V30 1479 C 145.361 2.84551 -0.972188 0
M  V30 1480 C 146.909 2.9825 -0.949536 0
M  V30 1481 C 147.384 4.28605 -1.61437 0
M  V30 1482 N 148.875 4.35399 -1.58057 0
M  V30 1483 C 149.61 5.34964 -2.064 0
M  V30 1484 N 149.106 6.40981 -2.62897 0
M  V30 1485 N 150.899 5.26419 -1.97078 0
M  V30 1486 H 143.05 1.40304 -1.59463 0
M  V30 1487 H 145.313 0.671794 -0.668878 0
M  V30 1488 H 145.019 2.87417 -2.02693 0
M  V30 1489 H 144.893 3.73807 -0.504771 0
M  V30 1490 H 147.28 2.94941 0.0967067 0
M  V30 1491 H 147.361 2.10364 -1.45536 0
M  V30 1492 H 147.005 4.32672 -2.66002 0
M  V30 1493 H 146.935 5.15334 -1.08344 0
M  V30 1494 H 149.426 3.59397 -1.16801 0
M  V30 1495 H 149.739 7.13225 -2.97539 0
M  V30 1496 H 148.084 6.4169 -2.66943 0
M  V30 1497 H 151.275 4.42504 -1.52669 0
M  V30 1498 H 151.448 6.03861 -2.35066 0
M  V30 1499 N 144.854 0.36279 1.53368 0
M  V30 1500 C 146.131 -0.284021 1.93527 0
M  V30 1501 C 146.511 -1.66628 1.29608 0
M  V30 1502 O 145.859 -2.23942 0.45413 0
M  V30 1503 C 146.069 -0.337028 3.47369 0
M  V30 1504 C 147.417 -0.578708 4.20638 0
M  V30 1505 O 148.441 -0.418352 3.53735 0
M  V30 1506 O 147.3 -0.89074 5.39192 0
M  V30 1507 H 144.394 -0.169743 0.809393 0
M  V30 1508 H 146.94 0.41537 1.64538 0
M  V30 1509 H 145.712 0.632217 3.86159 0
M  V30 1510 H 145.335 -1.08243 3.82582 0
M  V30 1511 N 146.332 -1.57332 0.0918853 0
M  V30 1512 C 147.748 -1.57389 -0.264766 0
M  V30 1513 C 147.948 -1.10281 -1.68643 0
M  V30 1514 O 147.004 -0.777801 -2.40222 0
M  V30 1515 C 148.317 -3.00648 -0.0561195 0
M  V30 1516 C 149.865 -3.12754 -0.124116 0
M  V30 1517 C 150.34 -4.57965 0.0564972 0
M  V30 1518 N 151.831 -4.632 0.00155611 0
M  V30 1519 C 152.566 -5.73281 0.116598 0
M  V30 1520 N 152.062 -6.92208 0.286294 0
M  V30 1521 N 153.855 -5.6207 0.0580973 0
M  V30 1522 H 146.006 -1.86262 1.02079 0
M  V30 1523 H 148.269 -0.859579 0.399786 0
M  V30 1524 H 147.975 -3.393 0.925669 0
M  V30 1525 H 147.849 -3.68623 -0.799823 0
M  V30 1526 H 150.236 -2.73976 -1.09641 0
M  V30 1527 H 150.317 -2.47377 0.651024 0
M  V30 1528 H 149.961 -4.97436 1.02564 0
M  V30 1529 H 149.891 -5.21399 -0.738297 0
M  V30 1530 H 152.382 -3.77686 -0.127192 0
M  V30 1531 H 152.695 -7.71934 0.365676 0
M  V30 1532 H 151.04 -6.94254 0.32192 0
M  V30 1533 H 154.231 -4.68043 -0.0733204 0
M  V30 1534 H 154.404 -6.47824 0.151203 0
M  V30 1535 N 147.81 0.181792 -1.56548 0
M  V30 1536 C 148.74 1.22765 -1.98623 0
M  V30 1537 C 149.721 1.46747 -0.860189 0
M  V30 1538 O 150.906 1.58259 -1.12551 0
M  V30 1539 C 148.036 2.56894 -2.33715 0
M  V30 1540 C 146.99 2.475 -3.49182 0
M  V30 1541 C 146.316 3.86023 -3.69986 0
M  V30 1542 C 147.616 1.98866 -4.82959 0
M  V30 1543 H 149.31 0.877942 -2.86239 0
M  V30 1544 H 146.856 0.42088 -1.37712 0
M  V30 1545 H 148.809 3.30253 -2.61746 0
M  V30 1546 H 147.533 2.93632 -1.42997 0
M  V30 1547 H 146.192 1.76596 -3.21262 0
M  V30 1548 H 145.84 4.20136 -2.76576 0
M  V30 1549 H 145.54 3.80609 -4.47672 0
M  V30 1550 H 147.064 4.60984 -4.00407 0
M  V30 1551 H 148.478 2.61992 -5.09934 0
M  V30 1552 H 146.875 2.04424 -5.64208 0
M  V30 1553 H 147.945 0.942465 -4.75653 0
M  V30 1554 N 149.288 1.51039 0.449983 0
M  V30 1555 C 150.236 1.71995 1.5659 0
M  V30 1556 C 151.23 0.586029 1.5894 0
M  V30 1557 O 152.436 0.76709 1.62837 0
M  V30 1558 H 148.811 0.543233 0.520001 0
M  V30 1559 H 150.782 2.65562 1.36085 0
M  V30 1560 C 149.531 1.8506 2.9436 0
M  V30 1561 H 148.854 2.71712 2.93279 0
M  V30 1562 H 150.294 2.0374 3.71842 0
M  V30 1563 C 148.753 0.607277 3.31382 0
M  V30 1564 O 149.283 -0.243903 4.00959 0
M  V30 1565 N 147.489 0.455073 2.87015 0
M  V30 1566 H 147.036 1.14879 2.30566 0
M  V30 1567 H 146.994 -0.375611 3.12148 0
M  V30 1568 N 150.766 -0.704594 1.40972 0
M  V30 1569 C 151.996 -1.49138 1.42974 0
M  V30 1570 C 152.404 -1.89175 0.0308406 0
M  V30 1571 O 151.747 -1.56734 -0.958138 0
M  V30 1572 C 151.809 -2.79016 2.26694 0
M  V30 1573 C 151.473 -2.61236 3.74973 0
M  V30 1574 C 152.47 -2.27773 4.67349 0
M  V30 1575 C 150.155 -2.77158 4.18914 0
M  V30 1576 C 152.149 -2.10457 6.01653 0
M  V30 1577 C 149.836 -2.59459 5.53285 0
M  V30 1578 C 150.834 -2.26158 6.4447 0
M  V30 1579 O 150.522 -2.08605 7.76363 0
M  V30 1580 H 150.254 -0.466443 0.489292 0
M  V30 1581 H 152.808 -0.8758 1.85793 0
M  V30 1582 H 151.038 -3.42947 1.78673 0
M  V30 1583 H 152.727 -3.40782 2.20504 0
M  V30 1584 H 153.493 -2.15095 4.34694 0
M  V30 1585 H 149.372 -3.02064 3.48251 0
M  V30 1586 H 152.916 -1.84387 6.72791 0
M  V30 1587 H 148.813 -2.71725 5.85522 0
M  V30 1588 H 149.581 -2.23439 7.87412 0
M  V30 1589 N 152.244 -1.26651 -0.937939 0
M  V30 1590 C 153.474 -1.15006 -1.71631 0
M  V30 1591 C 153.882 0.297026 -1.86854 0
M  V30 1592 O 153.225 1.21493 -1.37786 0
M  V30 1593 C 153.287 -1.74984 -3.14039 0
M  V30 1594 C 152.951 -3.24103 -3.2219 0
M  V30 1595 C 153.948 -4.20877 -3.05219 0
M  V30 1596 C 151.633 -3.64625 -3.45476 0
M  V30 1597 C 153.627 -5.56151 -3.11408 0
M  V30 1598 C 151.314 -5.00032 -3.513 0
M  V30 1599 C 152.312 -5.95604 -3.34282 0
M  V30 1600 O 152 -7.28545 -3.3982 0
M  V30 1601 H 151.732 -0.401183 -0.544085 0
M  V30 1602 H 154.286 -1.67832 -1.18413 0
M  V30 1603 H 152.516 -1.16624 -3.68695 0
M  V30 1604 H 154.205 -1.58199 -3.73802 0
M  V30 1605 H 154.971 -3.90908 -2.87081 0
M  V30 1606 H 150.85 -2.90718 -3.57777 0
M  V30 1607 H 154.394 -6.30727 -2.98043 0
M  V30 1608 H 150.291 -5.29659 -3.68959 0
M  V30 1609 H 151.059 -7.3686 -3.56343 0
M  V30 1610 N 153.722 1.14298 -1.08507 0
M  V30 1611 C 154.999 1.81544 -0.728088 0
M  V30 1612 C 155.379 1.95838 0.78808 0
M  V30 1613 O 154.727 1.51904 1.70697 0
M  V30 1614 C 154.937 3.17169 -1.45619 0
M  V30 1615 C 156.285 3.9265 -1.61591 0
M  V30 1616 O 157.309 3.26762 -1.41793 0
M  V30 1617 O 156.168 5.10807 -1.94263 0
M  V30 1618 H 153.262 0.78491 -0.260471 0
M  V30 1619 H 155.808 1.21307 -1.18671 0
M  V30 1620 H 154.58 3.01934 -2.489 0
M  V30 1621 H 154.203 3.851 -0.989124 0
M  V30 1622 N 155.201 0.870884 1.31352 0
M  V30 1623 C 156.426 0.495957 2.01383 0
M  V30 1624 C 156.851 -0.904324 1.64935 0
M  V30 1625 O 156.209 -1.59687 0.858466 0
M  V30 1626 C 156.257 0.661433 3.54482 0
M  V30 1627 O 155.361 -0.298851 4.11316 0
M  V30 1628 H 154.702 0.197158 0.634054 0
M  V30 1629 H 157.232 1.17455 1.67527 0
M  V30 1630 H 157.242 0.555072 4.04207 0
M  V30 1631 H 155.917 1.68246 3.8035 0
M  V30 1632 H 154.494 -0.147368 3.72609 0
M  V30 1633 N 156.679 -1.44442 0.630414 0
M  V30 1634 C 157.904 -2.06927 0.139944 0
M  V30 1635 C 158.329 -1.46795 -1.17613 0
M  V30 1636 O 157.687 -0.569144 -1.72135 0
M  V30 1637 C 157.735 -3.6058 0.0379581 0
M  V30 1638 O 156.839 -3.99937 -1.0062 0
M  V30 1639 H 156.18 -0.658608 0.0844483 0
M  V30 1640 H 158.71 -1.85327 0.866891 0
M  V30 1641 H 158.72 -4.07714 -0.152856 0
M  V30 1642 H 157.395 -4.03728 0.998809 0
M  V30 1643 H 155.972 -3.64436 -0.79001 0
M  V30 1644 N 158.157 -0.370918 -1.53173 0
M  V30 1645 C 159.405 0.216673 -2.00935 0
M  V30 1646 C 159.726 1.48845 -1.25977 0
M  V30 1647 O 158.996 1.92286 -0.374551 0
M  V30 1648 H 157.576 0.0830565 -0.742368 0
M  V30 1649 H 160.238 -0.49838 -1.8842 0
M  V30 1650 H 159.334 0.439893 -3.08984 0
M  V30 1651 N 159.635 1.57281 -0.100228 0
M  V30 1652 C 160.865 1.98591 0.569681 0
M  V30 1653 C 161.273 0.978315 1.61943 0
M  V30 1654 O 160.616 -0.0396108 1.83657 0
M  V30 1655 C 160.678 3.36282 1.271 0
M  V30 1656 C 160.342 4.55488 0.371409 0
M  V30 1657 C 161.339 5.18491 -0.382504 0
M  V30 1658 C 159.024 5.01474 0.287965 0
M  V30 1659 C 161.018 6.25852 -1.20779 0
M  V30 1660 C 158.705 6.08701 -0.540965 0
M  V30 1661 C 159.703 6.70755 -1.28749 0
M  V30 1662 O 159.391 7.75914 -2.10269 0
M  V30 1663 H 159.123 0.65752 0.156982 0
M  V30 1664 H 161.677 2.0463 -0.177734 0
M  V30 1665 H 159.907 3.26941 2.0651 0
M  V30 1666 H 161.596 3.62005 1.83595 0
M  V30 1667 H 162.362 4.83891 -0.3278 0
M  V30 1668 H 158.241 4.52932 0.858689 0
M  V30 1669 H 161.785 6.74218 -1.79096 0
M  V30 1670 H 157.682 6.42732 -0.597131 0
M  V30 1671 H 158.45 7.92925 -2.03007 0
M  V30 1672 N 161.113 -0.173488 1.56642 0
M  V30 1673 C 162.343 -0.904781 1.85734 0
M  V30 1674 C 162.751 -1.76431 0.68328 0
M  V30 1675 O 162.094 -1.802 -0.356865 0
M  V30 1676 C 162.156 -1.83382 3.09211 0
M  V30 1677 C 161.82 -1.15411 4.42187 0
M  V30 1678 C 162.817 -0.520609 5.17287 0
M  V30 1679 C 160.502 -1.15151 4.88923 0
M  V30 1680 C 162.496 0.106412 6.37311 0
M  V30 1681 C 160.183 -0.520664 6.08878 0
M  V30 1682 C 161.181 0.107196 6.82916 0
M  V30 1683 O 160.869 0.728102 8.00596 0
M  V30 1684 H 160.601 -0.268408 0.62043 0
M  V30 1685 H 163.155 -0.179096 2.04618 0
M  V30 1686 H 161.385 -2.59976 2.86268 0
M  V30 1687 H 163.074 -2.43476 3.24768 0
M  V30 1688 H 163.84 -0.514606 4.82262 0
M  V30 1689 H 159.719 -1.62961 4.31236 0
M  V30 1690 H 163.263 0.597081 6.9504 0
M  V30 1691 H 159.16 -0.524242 6.43368 0
M  V30 1692 H 159.928 0.627138 8.16094 0
M  V30 1693 N 162.591 -1.51276 -0.441967 0
M  V30 1694 C 163.541 -1.6864 -1.53442 0
M  V30 1695 C 164.525 -0.540444 -1.51552 0
M  V30 1696 O 165.717 -0.796157 -1.58083 0
M  V30 1697 C 162.846 -1.8106 -2.91672 0
M  V30 1698 C 161.932 -3.01424 -2.98336 0
M  V30 1699 N 162.323 -4.2467 -2.74752 0
M  V30 1700 C 160.621 -3.00584 -3.29493 0
M  V30 1701 C 161.322 -5.05891 -2.87139 0
M  V30 1702 N 160.298 -4.40442 -3.18609 0
M  V30 1703 H 164.1 -2.61598 -1.33954 0
M  V30 1704 H 161.614 -1.4886 -0.6492 0
M  V30 1705 H 163.611 -1.91609 -3.70259 0
M  V30 1706 H 162.271 -0.892795 -3.12185 0
M  V30 1707 H 163.282 -4.53691 -2.49769 0
M  V30 1708 H 159.959 -2.18417 -3.55809 0
M  V30 1709 H 161.349 -6.13983 -2.72899 0
M  V30 1710 N 164.069 0.697108 -1.41344 0
M  V30 1711 C 165.299 1.48377 -1.43763 0
M  V30 1712 C 165.707 1.89156 -0.0408726 0
M  V30 1713 O 165.05 1.57239 0.949812 0
M  V30 1714 C 165.112 2.7781 -2.2817 0
M  V30 1715 C 164.776 2.59244 -3.76353 0
M  V30 1716 C 165.773 2.25292 -4.68551 0
M  V30 1717 C 163.458 2.74933 -4.20378 0
M  V30 1718 C 165.452 2.07264 -6.02761 0
M  V30 1719 C 163.139 2.56521 -5.54653 0
M  V30 1720 C 164.137 2.22737 -6.4566 0
M  V30 1721 O 163.825 2.04485 -7.77458 0
M  V30 1722 H 163.557 0.463842 -0.491759 0
M  V30 1723 H 166.111 0.865934 -1.86255 0
M  V30 1724 H 164.341 3.41995 -1.8049 0
M  V30 1725 H 166.03 3.39608 -2.22309 0
M  V30 1726 H 166.796 2.12787 -4.35829 0
M  V30 1727 H 162.675 3.00213 -3.49848 0
M  V30 1728 H 166.219 1.80817 -6.73759 0
M  V30 1729 H 162.116 2.68616 -5.86955 0
M  V30 1730 H 162.884 2.1926 -7.88586 0
M  V30 1731 N 165.547 1.27147 0.931209 0
M  V30 1732 C 166.494 1.09568 2.03134 0
M  V30 1733 C 167.464 -0.00222433 1.661 0
M  V30 1734 O 168.649 0.159439 1.90133 0
M  V30 1735 C 165.789 0.745231 3.36957 0
M  V30 1736 C 164.902 1.92041 3.86968 0
M  V30 1737 C 164.037 1.51216 5.09222 0
M  V30 1738 C 163.076 2.65504 5.5152 0
M  V30 1739 N 162.213 2.25291 6.64972 0
M  V30 1740 H 167.053 2.03708 2.17502 0
M  V30 1741 H 164.59 1.01411 1.06556 0
M  V30 1742 H 166.548 0.522878 4.1391 0
M  V30 1743 H 165.178 -0.159202 3.22407 0
M  V30 1744 H 164.23 2.25541 3.06326 0
M  V30 1745 H 165.542 2.77787 4.1429 0
M  V30 1746 H 164.696 1.25084 5.93666 0
M  V30 1747 H 163.435 0.625749 4.83669 0
M  V30 1748 H 162.44 2.92354 4.65628 0
M  V30 1749 H 163.665 3.54761 5.7907 0
M  V30 1750 H 161.611 1.39098 6.41083 0
M  V30 1751 H 161.528 3.04577 6.91931 0
M  V30 1752 H 162.796 2.02398 7.52765 0
M  V30 1753 N 167.025 -1.13721 1.09112 0
M  V30 1754 C 168.255 -1.88499 0.845671 0
M  V30 1755 C 168.663 -1.79218 -0.606432 0
M  V30 1756 O 168.006 -1.1544 -1.42896 0
M  V30 1757 C 168.068 -3.38954 1.19793 0
M  V30 1758 C 167.732 -3.72018 2.65428 0
M  V30 1759 C 168.729 -3.7153 3.63677 0
M  V30 1760 C 166.414 -4.01775 3.01467 0
M  V30 1761 C 168.408 -4.00336 4.95994 0
M  V30 1762 C 166.095 -4.30243 4.33975 0
M  V30 1763 C 167.093 -4.29508 5.31048 0
M  V30 1764 O 166.781 -4.5728 6.61173 0
M  V30 1765 H 166.513 -0.603702 0.304171 0
M  V30 1766 H 169.067 -1.44903 1.45576 0
M  V30 1767 H 167.297 -3.83039 0.530871 0
M  V30 1768 H 168.986 -3.95052 0.932146 0
M  V30 1769 H 169.752 -3.4862 3.37179 0
M  V30 1770 H 165.631 -4.01496 2.26544 0
M  V30 1771 H 169.175 -3.99678 5.71755 0
M  V30 1772 H 165.072 -4.52625 4.60219 0
M  V30 1773 H 165.84 -4.74964 6.66597 0
M  V30 1774 N 168.503 -0.877838 -1.30888 0
M  V30 1775 C 169.733 -0.506678 -2.00291 0
M  V30 1776 C 170.141 0.907449 -1.66018 0
M  V30 1777 O 169.484 1.60719 -0.88967 0
M  V30 1778 C 169.546 -0.59323 -3.54572 0
M  V30 1779 C 169.21 -1.97038 -4.12341 0
M  V30 1780 C 170.207 -2.93889 -4.28865 0
M  V30 1781 C 167.892 -2.27383 -4.47886 0
M  V30 1782 C 169.886 -4.19224 -4.80136 0
M  V30 1783 C 167.573 -3.52965 -4.98857 0
M  V30 1784 C 168.571 -4.48701 -5.14934 0
M  V30 1785 O 168.259 -5.72056 -5.64808 0
M  V30 1786 H 167.991 -0.1951 -0.647234 0
M  V30 1787 H 170.545 -1.18301 -1.6791 0
M  V30 1788 H 168.775 0.140057 -3.86446 0
M  V30 1789 H 170.464 -0.234372 -4.05223 0
M  V30 1790 H 171.23 -2.71756 -4.01714 0
M  V30 1791 H 167.109 -1.53639 -4.34645 0
M  V30 1792 H 170.653 -4.93956 -4.92599 0
M  V30 1793 H 166.55 -3.74939 -5.25443 0
M  V30 1794 H 167.318 -5.74337 -5.83163 0
M  V30 1795 N 169.982 1.44106 -0.638065 0
M  V30 1796 C 171.23 2.01579 -0.145043 0
M  V30 1797 C 171.551 1.50496 1.24 0
M  V30 1798 O 170.821 0.711374 1.82527 0
M  V30 1799 H 169.401 0.745282 -0.05063 0
M  V30 1800 H 172.063 1.76516 -0.826327 0
M  V30 1801 H 171.159 3.11877 -0.118039 0
M  V30 1802 N 171.46 0.379036 1.52974 0
M  V30 1803 C 172.393 -0.504932 2.22544 0
M  V30 1804 C 173.371 -1.0723 1.22231 0
M  V30 1805 O 174.555 -1.12589 1.51182 0
M  V30 1806 C 171.682 -1.69794 2.93066 0
M  V30 1807 C 170.728 -1.25678 4.07563 0
M  V30 1808 S 171.561 -0.246852 5.34931 0
M  V30 1809 C 172.717 -1.44588 6.08971 0
M  V30 1810 H 172.95 0.0858666 2.97176 0
M  V30 1811 H 170.483 0.163183 1.53535 0
M  V30 1812 H 172.441 -2.38219 3.34308 0
M  V30 1813 H 171.102 -2.26002 2.18133 0
M  V30 1814 H 170.295 -2.14725 4.5597 0
M  V30 1815 H 169.897 -0.651584 3.6828 0
M  V30 1816 H 172.189 -2.37469 6.34519 0
M  V30 1817 H 173.132 -1.00292 7.00962 0
M  V30 1818 H 173.54 -1.65804 5.39601 0
M  V30 1819 N 172.938 -1.57226 0.108567 0
M  V30 1820 C 173.901 -2.13602 -0.831082 0
M  V30 1821 C 174.901 -1.06841 -1.20173 0
M  V30 1822 O 176.091 -1.32666 -1.12895 0
M  V30 1823 C 173.223 -2.66769 -2.12243 0
M  V30 1824 H 174.416 -2.97951 -0.341317 0
M  V30 1825 H 171.969 -1.55667 -0.14057 0
M  V30 1826 H 172.704 -1.85977 -2.65675 0
M  V30 1827 H 172.489 -3.44839 -1.86625 0
M  V30 1828 H 173.979 -3.10332 -2.79435 0
M  V30 1829 N 174.416 0.165178 -1.56732 0
M  V30 1830 C 175.662 0.882112 -1.82611 0
M  V30 1831 C 175.995 1.81628 -0.687378 0
M  V30 1832 O 175.27 1.92009 0.310267 0
M  V30 1833 C 175.553 1.67245 -3.18906 0
M  V30 1834 C 175.406 0.760987 -4.43316 0
M  V30 1835 C 176.725 2.63884 -3.52212 0
M  V30 1836 H 173.844 0.319242 -0.664269 0
M  V30 1837 H 176.486 0.148052 -1.89422 0
M  V30 1838 H 174.636 2.29824 -3.1323 0
M  V30 1839 H 176.308 0.147596 -4.61064 0
M  V30 1840 H 174.551 0.0694102 -4.33744 0
M  V30 1841 H 175.222 1.34962 -5.35247 0
M  V30 1842 H 177.698 2.11429 -3.58381 0
M  V30 1843 H 176.574 3.16245 -4.48643 0
M  V30 1844 H 176.835 3.44377 -2.77231 0
M  V30 1845 N 175.894 1.51508 0.433938 0
M  V30 1846 C 177.14 1.65549 1.18173 0
M  V30 1847 C 177.495 0.368751 1.88833 0
M  V30 1848 O 176.788 -0.635616 1.8075 0
M  V30 1849 C 176.982 2.79928 2.22205 0
M  V30 1850 C 176.811 4.19601 1.61756 0
M  V30 1851 C 175.581 4.85489 1.40101 0
M  V30 1852 C 177.779 5.02574 1.09194 0
M  V30 1853 N 175.761 6.09266 0.752859 0
M  V30 1854 C 177.132 6.17381 0.569255 0
M  V30 1855 C 179.187 4.88079 0.984025 0
M  V30 1856 C 177.89 7.19282 -0.0507472 0
M  V30 1857 C 179.916 5.90191 0.377912 0
M  V30 1858 C 179.278 7.04272 -0.134216 0
M  V30 1859 H 175.377 0.659653 0.419979 0
M  V30 1860 H 177.961 1.88746 0.477818 0
M  V30 1861 H 176.132 2.5839 2.89982 0
M  V30 1862 H 177.864 2.83132 2.89168 0
M  V30 1863 H 174.619 4.43417 1.66369 0
M  V30 1864 H 175.043 6.75528 0.446123 0
M  V30 1865 H 179.685 4.00131 1.36583 0
M  V30 1866 H 177.403 8.06876 -0.444676 0
M  V30 1867 H 180.989 5.81045 0.296269 0
M  V30 1868 H 179.869 7.81933 -0.59585 0
M  V30 1869 N 177.372 -0.689602 1.41712 0
M  V30 1870 C 178.62 -1.4468 1.4111 0
M  V30 1871 C 178.941 -1.94986 0.0232196 0
M  V30 1872 O 178.211 -1.72097 -0.935913 0
M  V30 1873 H 176.791 -0.536847 0.519427 0
M  V30 1874 H 179.453 -0.815825 1.77004 0
M  V30 1875 H 178.549 -2.30706 2.10193 0
M  V30 1876 N 178.85 -1.27639 -0.924453 0
M  V30 1877 C 179.782 -1.06442 -2.02985 0
M  V30 1878 C 180.795 -0.0194771 -1.62788 0
M  V30 1879 O 181.984 -0.261388 -1.76576 0
M  V30 1880 C 179.084 -0.59327 -3.33667 0
M  V30 1881 C 178.257 -1.71123 -4.02537 0
M  V30 1882 C 177.316 -1.23527 -5.11495 0
M  V30 1883 O 176.342 -1.93553 -5.35281 0
M  V30 1884 N 177.544 -0.0926678 -5.80426 0
M  V30 1885 H 180.309 -2.01633 -2.2173 0
M  V30 1886 H 177.87 -1.19248 -1.09505 0
M  V30 1887 H 179.862 -0.258686 -4.03872 0
M  V30 1888 H 178.432 0.265502 -3.1147 0
M  V30 1889 H 177.652 -2.21593 -3.26022 0
M  V30 1890 H 178.94 -2.46145 -4.45298 0
M  V30 1891 H 178.338 0.491741 -5.63559 0
M  V30 1892 H 176.895 0.182714 -6.51544 0
M  V30 1893 N 180.328 1.1314 -1.09713 0
M  V30 1894 C 181.576 1.84119 -0.833338 0
M  V30 1895 C 181.897 1.84097 0.642904 0
M  V30 1896 O 181.167 1.29881 1.46655 0
M  V30 1897 H 179.747 0.681766 -0.305293 0
M  V30 1898 H 182.409 1.37038 -1.38588 0
M  V30 1899 H 181.505 2.88543 -1.18951 0
M  V30 1900 N 181.806 0.884767 1.30421 0
M  V30 1901 C 183.034 0.518044 2.0031 0
M  V30 1902 C 183.449 -0.893408 1.66324 0
M  V30 1903 O 182.806 -1.5875 0.900262 0
M  V30 1904 C 182.857 0.682997 3.54989 0
M  V30 1905 O 182.578 2.03888 3.87764 0
M  V30 1906 C 184.079 0.31924 4.42149 0
M  V30 1907 H 181.299 0.200265 0.640418 0
M  V30 1908 H 183.843 1.19001 1.6631 0
M  V30 1909 H 181.998 0.0584052 3.87356 0
M  V30 1910 H 182.412 2.05735 4.82466 0
M  V30 1911 H 183.886 0.485555 5.4986 0
M  V30 1912 H 184.363 -0.742717 4.32875 0
M  V30 1913 H 184.969 0.920147 4.15227 0
M  V30 1914 N 183.284 -1.43765 0.645699 0
M  V30 1915 C 184.512 -2.06253 0.163556 0
M  V30 1916 C 184.927 -1.48352 -1.16778 0
M  V30 1917 O 184.284 -0.611932 -1.71935 0
M  V30 1918 C 184.335 -3.61453 0.0583186 0
M  V30 1919 O 184.056 -4.172 1.33702 0
M  V30 1920 C 185.557 -4.41002 -0.450795 0
M  V30 1921 H 182.777 -0.665413 0.0864077 0
M  V30 1922 H 185.321 -1.84396 0.884222 0
M  V30 1923 H 183.476 -3.82522 -0.612865 0
M  V30 1924 H 183.89 -5.10791 1.19131 0
M  V30 1925 H 185.364 -5.49966 -0.473403 0
M  V30 1926 H 185.841 -4.13488 -1.48068 0
M  V30 1927 H 186.447 -4.24886 0.187637 0
M  V30 1928 N 184.763 -0.387143 -1.52771 0
M  V30 1929 C 186.009 0.196025 -2.0185 0
M  V30 1930 C 186.342 1.46641 -1.27319 0
M  V30 1931 O 185.617 1.90889 -0.373032 0
M  V30 1932 C 185.9 0.466136 -3.5707 0
M  V30 1933 C 185.753 -0.819385 -4.42274 0
M  V30 1934 C 187.072 1.25768 -4.21747 0
M  V30 1935 H 184.191 0.0697708 -0.73369 0
M  V30 1936 H 186.833 -0.516286 -1.82851 0
M  V30 1937 H 184.983 1.07293 -3.7339 0
M  V30 1938 H 186.655 -1.4563 -4.37709 0
M  V30 1939 H 184.898 -1.43517 -4.09372 0
M  V30 1940 H 185.569 -0.585065 -5.48891 0
M  V30 1941 H 188.045 0.744167 -4.09391 0
M  V30 1942 H 186.921 1.41541 -5.30337 0
M  V30 1943 H 187.182 2.27228 -3.79236 0
M  V30 1944 N 186.241 1.57166 -0.116904 0
M  V30 1945 C 187.469 1.99473 0.549383 0
M  V30 1946 C 187.884 0.996541 1.60357 0
M  V30 1947 O 187.241 -0.0108731 1.82497 0
M  V30 1948 C 187.292 3.41788 1.17741 0
M  V30 1949 O 187.013 4.37788 0.165362 0
M  V30 1950 C 188.514 3.99216 1.92722 0
M  V30 1951 H 185.734 0.655009 0.145616 0
M  V30 1952 H 188.278 2.03494 -0.202625 0
M  V30 1953 H 186.433 3.38713 1.88021 0
M  V30 1954 H 186.847 5.20806 0.621403 0
M  V30 1955 H 188.321 5.00882 2.31995 0
M  V30 1956 H 188.798 3.3824 2.80161 0
M  V30 1957 H 189.404 4.0583 1.27209 0
M  V30 1958 N 187.719 -0.156864 1.56817 0
M  V30 1959 C 188.965 -0.872416 1.83076 0
M  V30 1960 C 189.298 -1.81261 0.697001 0
M  V30 1961 O 188.573 -1.92171 -0.30008 0
M  V30 1962 C 188.856 -1.65551 3.19789 0
M  V30 1963 C 188.709 -0.737467 4.43713 0
M  V30 1964 C 190.028 -2.62012 3.53606 0
M  V30 1965 H 187.147 -0.315715 0.665953 0
M  V30 1966 H 189.789 -0.138004 1.89498 0
M  V30 1967 H 187.939 -2.28159 3.14445 0
M  V30 1968 H 189.611 -0.123143 4.61136 0
M  V30 1969 H 187.854 -0.0464067 4.33775 0
M  V30 1970 H 188.525 -1.32122 5.35955 0
M  V30 1971 H 191.001 -2.09525 3.59497 0
M  V30 1972 H 189.877 -3.13861 4.50314 0
M  V30 1973 H 190.138 -3.42902 2.79053 0
M  V30 1974 N 189.197 -1.51736 -0.425897 0
M  V30 1975 C 190.422 -1.69082 -1.20108 0
M  V30 1976 C 190.847 -0.392398 -1.83962 0
M  V30 1977 O 190.205 0.64858 -1.69302 0
M  V30 1978 C 190.253 -2.81604 -2.25237 0
M  V30 1979 O 189.357 -2.46004 -3.30992 0
M  V30 1980 H 188.698 -0.563408 -0.35138 0
M  V30 1981 H 191.228 -1.98358 -0.501512 0
M  V30 1982 H 191.238 -3.06025 -2.69838 0
M  V30 1983 H 189.913 -3.75817 -1.78142 0
M  V30 1984 H 188.49 -2.32195 -2.91787 0
M  V30 1985 N 190.675 0.682077 -1.42076 0
M  V30 1986 C 191.9 1.47558 -1.45744 0
M  V30 1987 C 192.325 1.87977 -0.0680981 0
M  V30 1988 O 191.683 1.55522 0.9318 0
M  V30 1989 C 191.731 2.70575 -2.38373 0
M  V30 1990 O 190.835 3.68573 -1.85007 0
M  V30 1991 H 190.176 0.443585 -0.494093 0
M  V30 1992 H 192.706 0.837238 -1.86686 0
M  V30 1993 H 192.716 3.18729 -2.54707 0
M  V30 1994 H 191.391 2.40495 -3.39315 0
M  V30 1995 H 189.968 3.2757 -1.78192 0
M  V30 1996 N 192.153 1.28127 0.917671 0
M  V30 1997 C 193.116 1.11744 2.00115 0
M  V30 1998 C 194.116 0.0583052 1.60694 0
M  V30 1999 O 195.306 0.303755 1.71531 0
M  V30 2000 C 192.438 0.704862 3.33533 0
M  V30 2001 H 193.631 2.07966 2.16079 0
M  V30 2002 H 191.184 1.11058 1.09981 0
M  V30 2003 H 191.919 -0.258299 3.2327 0
M  V30 2004 H 191.704 1.4699 3.63505 0
M  V30 2005 H 193.194 0.612768 4.1308 0
M  V30 2006 N 193.631 -1.12557 1.10312 0
M  V30 2007 C 194.856 -1.88405 0.867085 0
M  V30 2008 C 195.281 -1.79038 -0.576817 0
M  V30 2009 O 194.639 -1.14439 -1.40618 0
M  V30 2010 C 194.687 -3.3563 1.31851 0
M  V30 2011 O 193.791 -4.09565 0.482734 0
M  V30 2012 H 193.132 -0.585455 0.313271 0
M  V30 2013 H 195.662 -1.42352 1.4696 0
M  V30 2014 H 195.672 -3.86469 1.3079 0
M  V30 2015 H 194.347 -3.41765 2.37001 0
M  V30 2016 H 192.924 -3.68695 0.558448 0
M  V30 2017 N 195.109 -0.891671 -1.2995 0
M  V30 2018 C 196.337 -0.52866 -2.00032 0
M  V30 2019 C 196.752 0.884574 -1.66795 0
M  V30 2020 O 196.109 1.5827 -0.908669 0
M  V30 2021 C 196.16 -0.701814 -3.54622 0
M  V30 2022 O 195.881 -2.05942 -3.86678 0
M  V30 2023 C 197.382 -0.342683 -4.41973 0
M  V30 2024 H 194.602 -0.203659 -0.639347 0
M  V30 2025 H 197.146 -1.19881 -1.65677 0
M  V30 2026 H 195.301 -0.0789468 -3.8732 0
M  V30 2027 H 195.715 -2.08291 -4.81368 0
M  V30 2028 H 197.189 -0.514709 -5.49595 0
M  V30 2029 H 197.666 0.71975 -4.33262 0
M  V30 2030 H 198.272 -0.942154 -4.14733 0
M  V30 2031 N 196.587 1.43421 -0.653314 0
M  V30 2032 C 197.534 2.30768 0.0382271 0
M  V30 2033 C 198.504 1.44755 0.814576 0
M  V30 2034 O 199.689 1.73624 0.791162 0
M  V30 2035 C 196.829 3.30336 0.998599 0
M  V30 2036 C 195.942 4.31448 0.218342 0
M  V30 2037 C 195.077 5.18098 1.17252 0
M  V30 2038 C 194.116 6.10902 0.382702 0
M  V30 2039 N 193.253 6.90176 1.28848 0
M  V30 2040 H 198.093 2.89357 -0.712511 0
M  V30 2041 H 195.63 1.42548 -0.363128 0
M  V30 2042 H 197.588 3.86572 1.56901 0
M  V30 2043 H 196.218 2.73397 1.71621 0
M  V30 2044 H 195.27 3.77506 -0.46836 0
M  V30 2045 H 196.582 4.97227 -0.395812 0
M  V30 2046 H 195.736 5.7896 1.81356 0
M  V30 2047 H 194.475 4.52444 1.82058 0
M  V30 2048 H 193.48 5.49128 -0.27169 0
M  V30 2049 H 194.705 6.78598 -0.260957 0
M  V30 2050 H 192.651 6.27171 1.92334 0
M  V30 2051 H 192.568 7.52478 0.728887 0
M  V30 2052 H 193.836 7.55543 1.91766 0
M  V30 2053 N 198.065 0.39524 1.52563 0
M  V30 2054 C 199.313 -0.184678 2.01254 0
M  V30 2055 C 199.634 -1.46822 1.28329 0
M  V30 2056 O 198.904 -1.91666 0.405094 0
M  V30 2057 H 197.484 -0.0712355 0.743596 0
M  V30 2058 H 200.146 0.528293 1.87603 0
M  V30 2059 H 199.242 -0.390681 3.09645 0
M  V30 2060 N 199.544 -1.57102 0.125237 0
M  V30 2061 C 200.955 -1.82384 -0.399142 0
M  V30 2062 C 201.306 -1.04276 -1.66195 0
M  V30 2063 O 200.431 -0.281269 -2.14564 0
M  V30 2064 C 201.026 -3.30821 -0.730932 0
M  V30 2065 C 199.585 -3.56762 -1.19992 0
M  V30 2066 C 198.732 -2.7649 -0.211792 0
M  V30 2067 H 201.683 -1.54786 0.350277 0
M  V30 2068 H 201.704 -3.4579 -1.58775 0
M  V30 2069 H 201.216 -3.87643 0.188345 0
M  V30 2070 H 199.317 -3.05305 -2.13588 0
M  V30 2071 H 199.43 -4.65317 -1.14093 0
M  V30 2072 H 197.794 -2.4489 -0.700085 0
M  V30 2073 H 198.577 -3.36073 0.700691 0
M  V30 2074 N 201.022 0.148545 -1.56898 0
M  V30 2075 C 202.247 0.880385 -1.87787 0
M  V30 2076 C 202.672 1.74018 -0.714093 0
M  V30 2077 O 202.03 1.78153 0.336343 0
M  V30 2078 C 202.078 1.71422 -3.17249 0
M  V30 2079 O 201.182 2.8183 -3.01074 0
M  V30 2080 H 200.523 0.245301 -0.617028 0
M  V30 2081 H 203.053 0.139826 -2.04122 0
M  V30 2082 H 203.063 2.10954 -3.49231 0
M  V30 2083 H 201.738 1.08284 -4.01556 0
M  V30 2084 H 200.315 2.45715 -2.80497 0
M  V30 2085 N 202.5 1.5196 0.417844 0
M  V30 2086 C 203.746 1.65836 1.16732 0
M  V30 2087 C 204.079 0.382881 1.90388 0
M  V30 2088 O 203.354 -0.618368 1.84408 0
M  V30 2089 C 203.637 2.87466 2.16876 0
M  V30 2090 C 203.49 4.25041 1.47174 0
M  V30 2091 C 204.809 3.04613 3.17646 0
M  V30 2092 H 201.928 0.603515 0.423011 0
M  V30 2093 H 204.57 1.84494 0.454105 0
M  V30 2094 H 202.72 2.71689 2.777 0
M  V30 2095 H 204.392 4.52527 0.895376 0
M  V30 2096 H 202.635 4.26843 0.773806 0
M  V30 2097 H 203.306 5.06176 2.20204 0
M  V30 2098 H 205.782 3.1923 2.66892 0
M  V30 2099 H 204.658 3.91247 3.8499 0
M  V30 2100 H 204.919 2.17541 3.84874 0
M  V30 2101 N 203.978 -0.674533 1.42435 0
M  V30 2102 C 205.225 -1.43459 1.42919 0
M  V30 2103 C 205.553 -1.94446 0.0457312 0
M  V30 2104 O 204.808 -1.7132 -0.94593 0
M  V30 2105 C 205.107 -2.64767 2.40069 0
M  V30 2106 C 204.773 -2.3232 3.86443 0
M  V30 2107 C 203.435 -2.23182 4.26314 0
M  V30 2108 C 205.787 -2.05977 4.78773 0
M  V30 2109 C 203.115 -1.85827 5.56494 0
M  V30 2110 C 205.467 -1.70125 6.09295 0
M  V30 2111 C 204.131 -1.59498 6.48164 0
M  V30 2112 H 203.401 -0.524952 0.522978 0
M  V30 2113 H 206.048 -0.769097 1.75377 0
M  V30 2114 H 204.353 -3.36349 2.00939 0
M  V30 2115 H 206.05 -3.22949 2.37707 0
M  V30 2116 H 202.64 -2.40334 3.54877 0
M  V30 2117 H 206.824 -2.11969 4.48757 0
M  V30 2118 H 202.08 -1.76168 5.8547 0
M  V30 2119 H 206.254 -1.48767 6.80324 0
M  V30 2120 H 203.881 -1.30322 7.48946 0
M  V30 2121 N 205.456 -1.28612 -0.910864 0
M  V30 2122 C 206.867 -1.14406 -1.47541 0
M  V30 2123 C 207.218 0.264901 -1.94403 0
M  V30 2124 O 206.343 1.15942 -1.82719 0
M  V30 2125 C 206.938 -2.07073 -2.68153 0
M  V30 2126 C 205.497 -1.96923 -3.20778 0
M  V30 2127 C 204.644 -1.98646 -1.93481 0
M  V30 2128 H 207.595 -1.41259 -0.723291 0
M  V30 2129 H 207.616 -1.63642 -3.43514 0
M  V30 2130 H 207.128 -3.09611 -2.34015 0
M  V30 2131 H 205.229 -0.97433 -3.59635 0
M  V30 2132 H 205.342 -2.84026 -3.85832 0
M  V30 2133 H 203.706 -1.43093 -2.10705 0
M  V30 2134 H 204.489 -3.02868 -1.61634 0
M  V30 2135 N 206.934 1.1197 -1.10907 0
M  V30 2136 C 207.864 2.19928 -0.784473 0
M  V30 2137 C 208.845 1.6833 0.244726 0
M  V30 2138 O 210.03 1.93892 0.109418 0
M  V30 2139 C 207.16 3.46597 -0.220827 0
M  V30 2140 C 206.114 4.11376 -1.18127 0
M  V30 2141 C 205.44 5.32554 -0.478594 0
M  V30 2142 C 206.74 4.56945 -2.52979 0
M  V30 2143 H 208.434 2.47337 -1.68715 0
M  V30 2144 H 205.98 1.18879 -0.812642 0
M  V30 2145 H 207.933 4.21396 0.0184278 0
M  V30 2146 H 206.657 3.1863 0.717113 0
M  V30 2147 H 205.316 3.38564 -1.40606 0
M  V30 2148 H 204.964 5.00856 0.463976 0
M  V30 2149 H 204.664 5.76844 -1.11912 0
M  V30 2150 H 206.188 6.10096 -0.248 0
M  V30 2151 H 207.602 5.23093 -2.3462 0
M  V30 2152 H 205.999 5.1203 -3.12962 0
M  V30 2153 H 207.069 3.70676 -3.12614 0
M  V30 2154 N 208.412 0.89855 1.29475 0
M  V30 2155 C 209.375 0.380272 2.26023 0
M  V30 2156 C 210.375 -0.484891 1.53315 0
M  V30 2157 O 211.565 -0.290108 1.71767 0
M  V30 2158 C 208.697 -0.45651 3.3783 0
M  V30 2159 H 209.89 1.23295 2.73383 0
M  V30 2160 H 207.443 0.676589 1.40897 0
M  V30 2161 H 208.178 -1.32922 2.95808 0
M  V30 2162 H 207.963 0.163393 3.91759 0
M  V30 2163 H 209.453 -0.810466 4.0966 0
M  V30 2164 N 209.89 -1.43072 0.660911 0
M  V30 2165 C 211.301 -1.84932 0.256348 0
M  V30 2166 C 211.652 -1.55325 -1.19868 0
M  V30 2167 O 210.777 -1.00607 -1.91591 0
M  V30 2168 C 211.372 -3.35684 0.458475 0
M  V30 2169 C 209.931 -3.76245 0.108161 0
M  V30 2170 C 209.078 -2.66749 0.757641 0
M  V30 2171 H 212.029 -1.33116 0.864051 0
M  V30 2172 H 212.05 -3.79365 -0.293683 0
M  V30 2173 H 211.562 -3.572 1.51755 0
M  V30 2174 H 209.663 -3.60338 -0.948014 0
M  V30 2175 H 209.776 -4.76058 0.538992 0
M  V30 2176 H 208.14 -2.53989 0.190185 0
M  V30 2177 H 208.923 -2.91092 1.81989 0
M  V30 2178 N 211.368 -0.403325 -1.52352 0
M  V30 2179 C 212.608 0.173946 -2.03659 0
M  V30 2180 C 212.972 1.42869 -1.28267 0
M  V30 2181 O 214.173 2.08403 -1.69769 0
M  V30 2182 C 212.444 0.421478 -3.54906 0
M  V30 2183 S 214.003 0.967027 -4.28012 0
M  V30 2184 H 210.821 0.0477461 -0.709395 0
M  V30 2185 H 213.423 -0.554906 -1.87459 0
M  V30 2186 H 212.127 -0.498616 -4.0736 0
M  V30 2187 H 211.658 1.17837 -3.75337 0
M  V30 2188 H 213.673 2.24812 -4.4235 0
M  V30 2189 N 212.846 1.57033 -0.133567 0
M  V30 2190 C 214.071 2.00475 0.531477 0
M  V30 2191 C 214.496 1.01291 1.58499 0
M  V30 2192 O 213.854 -0.0133279 1.81295 0
M  V30 2193 C 213.902 3.42729 1.12113 0
M  V30 2194 O 213.006 3.46498 2.23636 0
M  V30 2195 H 212.347 0.650876 0.131362 0
M  V30 2196 H 214.877 2.03344 -0.22634 0
M  V30 2197 H 214.887 3.81246 1.4531 0
M  V30 2198 H 213.562 4.14428 0.349557 0
M  V30 2199 H 212.139 3.19811 1.91769 0
M  V30 2200 N 214.325 -0.140222 1.56975 0
M  V30 2201 C 215.741 -0.493088 1.51792 0
M  V30 2202 C 215.941 -1.83013 0.843116 0
M  V30 2203 O 214.997 -2.49041 0.416493 0
M  V30 2204 C 216.31 -0.497144 2.96562 0
M  V30 2205 C 217.858 -0.582186 3.07538 0
M  V30 2206 C 218.333 -0.616838 4.53827 0
M  V30 2207 N 219.824 -0.678873 4.58198 0
M  V30 2208 C 220.559 -0.726782 5.68775 0
M  V30 2209 N 220.055 -0.733623 6.88905 0
M  V30 2210 N 221.848 -0.768179 5.56826 0
M  V30 2211 H 213.999 0.736108 1.99237 0
M  V30 2212 H 216.262 0.269182 0.90898 0
M  V30 2213 H 215.968 0.417217 3.49217 0
M  V30 2214 H 215.842 -1.33263 3.52875 0
M  V30 2215 H 218.229 -1.48697 2.54899 0
M  V30 2216 H 218.31 0.280581 2.54257 0
M  V30 2217 H 217.954 0.283812 5.07106 0
M  V30 2218 H 217.884 -1.49619 5.04898 0
M  V30 2219 H 220.375 -0.68061 3.7172 0
M  V30 2220 H 220.688 -0.772215 7.68932 0
M  V30 2221 H 219.033 -0.701389 6.91452 0
M  V30 2222 H 222.224 -0.760051 4.61888 0
M  V30 2223 H 222.397 -0.80205 6.43017 0
M  V30 2224 N 215.803 -1.52179 -0.40978 0
M  V30 2225 C 217.028 -1.70347 -1.18308 0
M  V30 2226 C 217.453 -0.411887 -1.83535 0
M  V30 2227 O 216.811 0.630587 -1.6998 0
M  V30 2228 C 216.859 -2.83977 -2.22238 0
M  V30 2229 O 215.963 -2.495 -3.28365 0
M  V30 2230 H 215.304 -0.567103 -0.345384 0
M  V30 2231 H 217.834 -1.98879 -0.480445 0
M  V30 2232 H 217.844 -3.0887 -2.66577 0
M  V30 2233 H 216.519 -3.77685 -1.74146 0
M  V30 2234 H 215.096 -2.35277 -2.89308 0
M  V30 2235 N 217.281 0.66697 -1.42791 0
M  V30 2236 C 218.509 1.45505 -1.47091 0
M  V30 2237 C 218.924 1.8861 -0.0845873 0
M  V30 2238 O 218.281 1.58632 0.90234 0
M  V30 2239 C 218.332 2.69906 -2.40485 0
M  V30 2240 O 218.053 2.28608 -3.73725 0
M  V30 2241 C 219.554 3.63396 -2.53886 0
M  V30 2242 H 216.774 0.447459 -0.500022 0
M  V30 2243 H 219.318 0.818866 -1.8739 0
M  V30 2244 H 217.473 3.29696 -2.03419 0
M  V30 2245 H 217.887 3.08997 -4.23817 0
M  V30 2246 H 219.361 4.47387 -3.2334 0
M  V30 2247 H 219.838 4.09824 -1.57927 0
M  V30 2248 H 220.444 3.09495 -2.91706 0
M  V30 2249 N 218.759 1.29093 0.90403 0
M  V30 2250 C 219.984 1.19809 1.69294 0
M  V30 2251 C 220.409 -0.238481 1.86582 0
M  V30 2252 O 219.767 -1.1723 1.383 0
M  V30 2253 C 219.815 1.91202 3.05736 0
M  V30 2254 O 218.919 1.22611 3.93752 0
M  V30 2255 H 218.26 0.415385 0.518027 0
M  V30 2256 H 220.79 1.70586 1.12967 0
M  V30 2257 H 220.8 1.99487 3.55906 0
M  V30 2258 H 219.475 2.95692 2.92471 0
M  V30 2259 H 218.052 1.22554 3.52186 0
M  V30 2260 N 220.237 -1.11381 1.11499 0
M  V30 2261 C 221.147 -2.21019 0.786628 0
M  V30 2262 C 222.163 -1.72597 -0.220507 0
M  V30 2263 O 223.339 -2.01321 -0.0565251 0
M  V30 2264 C 220.404 -3.459 0.235333 0
M  V30 2265 C 219.465 -4.09107 1.30115 0
M  V30 2266 C 218.698 -5.28027 0.776068 0
M  V30 2267 O 218.921 -5.6904 -0.393661 0
M  V30 2268 O 217.855 -5.81835 1.54114 0
M  V30 2269 H 221.681 -2.51521 1.70209 0
M  V30 2270 H 219.266 -1.19928 0.890928 0
M  V30 2271 H 221.148 -4.21346 -0.067715 0
M  V30 2272 H 219.823 -3.17049 -0.652828 0
M  V30 2273 H 218.73 -3.35391 1.65722 0
M  V30 2274 H 220.063 -4.42139 2.16273 0
M  V30 2275 N 221.715 -0.905404 -1.28997 0
M  V30 2276 C 222.94 -0.549175 -1.99997 0
M  V30 2277 C 223.365 0.860276 -1.67275 0
M  V30 2278 O 222.723 1.57355 -0.900502 0
M  V30 2279 C 222.771 -0.755185 -3.52604 0
M  V30 2280 O 221.875 0.189692 -4.11964 0
M  V30 2281 H 221.216 -0.213899 -0.628604 0
M  V30 2282 H 223.746 -1.21856 -1.64354 0
M  V30 2283 H 223.756 -0.662045 -4.02593 0
M  V30 2284 H 222.431 -1.78271 -3.75755 0
M  V30 2285 H 221.008 0.0485257 -3.72868 0
M  V30 2286 N 223.193 1.4272 -0.668489 0
M  V30 2287 C 224.421 2.05966 -0.196348 0
M  V30 2288 C 224.836 1.50191 1.14403 0
M  V30 2289 O 224.193 0.639208 1.7094 0
M  V30 2290 C 224.244 3.61314 -0.115815 0
M  V30 2291 O 223.965 4.1502 -1.40322 0
M  V30 2292 C 225.466 4.41663 0.380579 0
M  V30 2293 H 222.686 0.663954 -0.0969829 0
M  V30 2294 H 225.23 1.82966 -0.913446 0
M  V30 2295 H 223.385 3.83448 0.551931 0
M  V30 2296 H 223.799 5.08832 -1.27243 0
M  V30 2297 H 225.273 5.5065 0.385848 0
M  V30 2298 H 225.75 4.15792 1.41471 0
M  V30 2299 H 226.356 4.24534 -0.255209 0
M  V30 2300 N 224.671 0.411399 1.52136 0
M  V30 2301 C 225.634 -0.401089 2.25663 0
M  V30 2302 C 226.634 -0.971732 1.28117 0
M  V30 2303 O 227.824 -0.850254 1.52041 0
M  V30 2304 C 224.956 -1.56483 3.02863 0
M  V30 2305 H 226.149 0.24295 2.98914 0
M  V30 2306 H 223.702 0.163968 1.55438 0
M  V30 2307 H 224.437 -2.24567 2.33967 0
M  V30 2308 H 224.222 -1.16211 3.74483 0
M  V30 2309 H 225.712 -2.13951 3.58629 0
M  V30 2310 N 226.149 -1.5696 0.141893 0
M  V30 2311 C 227.112 -2.15316 -0.785587 0
M  V30 2312 C 228.112 -1.09366 -1.1788 0
M  V30 2313 O 229.302 -1.35031 -1.10056 0
M  V30 2314 C 226.434 -2.71211 -2.06537 0
M  V30 2315 H 227.627 -2.98608 -0.278041 0
M  V30 2316 H 225.18 -1.5593 -0.107519 0
M  V30 2317 H 225.915 -1.91571 -2.6167 0
M  V30 2318 H 225.7 -3.4872 -1.79268 0
M  V30 2319 H 227.19 -3.16189 -2.72789 0
M  V30 2320 N 227.627 0.131896 -1.57047 0
M  V30 2321 C 228.557 1.16384 -2.02428 0
M  V30 2322 C 229.538 1.43936 -0.90644 0
M  V30 2323 O 230.723 1.54599 -1.17528 0
M  V30 2324 C 227.853 2.49328 -2.4177 0
M  V30 2325 C 226.807 2.36266 -3.56879 0
M  V30 2326 C 226.133 3.74057 -3.8208 0
M  V30 2327 C 227.433 1.834 -4.89042 0
M  V30 2328 H 229.127 0.786433 -2.88887 0
M  V30 2329 H 226.673 0.376855 -1.38981 0
M  V30 2330 H 228.626 3.21759 -2.7212 0
M  V30 2331 H 227.35 2.88934 -1.52266 0
M  V30 2332 H 226.009 1.66286 -3.26718 0
M  V30 2333 H 225.657 4.11125 -2.89803 0
M  V30 2334 H 225.357 3.66174 -4.59554 0
M  V30 2335 H 226.881 4.48012 -4.1487 0
M  V30 2336 H 228.295 2.45636 -5.18011 0
M  V30 2337 H 226.692 1.8637 -5.70426 0
M  V30 2338 H 227.762 0.790662 -4.7841 0
M  V30 2339 N 229.106 1.52395 0.401703 0
M  V30 2340 C 230.354 1.66488 1.14569 0
M  V30 2341 C 230.675 0.400897 1.90835 0
M  V30 2342 O 229.945 -0.584415 1.8698 0
M  V30 2343 H 228.525 0.613672 0.425929 0
M  V30 2344 H 231.187 1.89464 0.457093 0
M  V30 2345 H 230.283 2.50942 1.85566 0
M  V30 2346 N 230.584 -0.659388 1.43143 0
M  V30 2347 C 231.824 -1.43121 1.45931 0
M  V30 2348 C 232.188 -1.91838 0.0789298 0
M  V30 2349 O 233.389 -2.68794 -0.018491 0
M  V30 2350 C 231.66 -2.58534 2.46769 0
M  V30 2351 S 233.219 -3.47154 2.68384 0
M  V30 2352 H 230.037 -0.488624 0.516496 0
M  V30 2353 H 232.639 -0.766128 1.79863 0
M  V30 2354 H 231.343 -2.21007 3.45809 0
M  V30 2355 H 230.874 -3.29898 2.14315 0
M  V30 2356 H 232.889 -4.55051 1.97845 0
M  V30 2357 N 232.062 -1.29571 -0.897171 0
M  V30 2358 C 232.992 -1.17473 -2.01798 0
M  V30 2359 C 233.973 -0.068323 -1.69963 0
M  V30 2360 O 235.158 -0.248239 -1.92607 0
M  V30 2361 C 232.288 -0.853099 -3.36659 0
M  V30 2362 C 231.242 -1.9161 -3.82713 0
M  V30 2363 C 230.568 -1.44773 -5.14728 0
M  V30 2364 C 231.868 -3.32535 -4.02763 0
M  V30 2365 H 233.562 -2.11237 -2.12177 0
M  V30 2366 H 231.108 -1.01699 -1.01948 0
M  V30 2367 H 233.061 -0.755165 -4.14578 0
M  V30 2368 H 231.785 0.120236 -3.26379 0
M  V30 2369 H 230.444 -2.00346 -3.07013 0
M  V30 2370 H 230.092 -0.462995 -5.00865 0
M  V30 2371 H 229.792 -2.15865 -5.46513 0
M  V30 2372 H 231.316 -1.36334 -5.95185 0
M  V30 2373 H 232.73 -3.26626 -4.71156 0
M  V30 2374 H 231.127 -4.01607 -4.45905 0
M  V30 2375 H 232.197 -3.75326 -3.07016 0
M  V30 2376 N 233.54 1.10788 -1.12088 0
M  V30 2377 C 234.786 1.82942 -0.875226 0
M  V30 2378 C 235.119 1.84779 0.597538 0
M  V30 2379 O 234.394 1.30578 1.44152 0
M  V30 2380 C 234.677 3.29789 -1.44606 0
M  V30 2381 C 234.53 3.36307 -2.98693 0
M  V30 2382 C 235.849 4.26064 -1.10261 0
M  V30 2383 H 232.968 0.664195 -0.319397 0
M  V30 2384 H 235.61 1.29867 -1.38689 0
M  V30 2385 H 233.76 3.75118 -1.01089 0
M  V30 2386 H 235.432 2.99487 -3.50864 0
M  V30 2387 H 233.675 2.76318 -3.34411 0
M  V30 2388 H 234.346 4.39694 -3.33726 0
M  V30 2389 H 236.822 3.88951 -1.4784 0
M  V30 2390 H 235.698 5.27183 -1.52869 0
M  V30 2391 H 235.959 4.42098 -0.0142953 0
M  V30 2392 N 235.018 0.912232 1.28515 0
M  V30 2393 C 235.965 0.397954 2.27343 0
M  V30 2394 C 236.935 -0.526766 1.57526 0
M  V30 2395 O 238.12 -0.449292 1.85435 0
M  V30 2396 C 235.26 -0.357263 3.43246 0
M  V30 2397 C 234.373 0.599788 4.27816 0
M  V30 2398 C 233.508 -0.173725 5.30916 0
M  V30 2399 C 232.547 0.777039 6.07148 0
M  V30 2400 N 231.684 0.0371398 7.0209 0
M  V30 2401 H 236.524 1.24577 2.70711 0
M  V30 2402 H 234.061 0.625612 1.33133 0
M  V30 2403 H 236.019 -0.8113 4.09236 0
M  V30 2404 H 234.649 -1.16943 3.00872 0
M  V30 2405 H 233.701 1.17235 3.61884 0
M  V30 2406 H 235.013 1.32704 4.80823 0
M  V30 2407 H 234.167 -0.688394 6.02782 0
M  V30 2408 H 232.906 -0.934041 4.78672 0
M  V30 2409 H 231.911 1.3031 5.34134 0
M  V30 2410 H 233.136 1.53689 6.61481 0
M  V30 2411 H 231.082 -0.705213 6.52198 0
M  V30 2412 H 230.999 0.704249 7.52713 0
M  V30 2413 H 232.267 -0.457383 7.78157 0
M  V30 2414 N 236.496 -1.42363 0.676048 0
M  V30 2415 C 237.773 -1.95183 0.127726 0
M  V30 2416 C 238.153 -1.61641 -1.35777 0
M  V30 2417 O 237.501 -0.913216 -2.09458 0
M  V30 2418 C 237.711 -3.46721 0.398199 0
M  V30 2419 C 239.059 -4.23427 0.315383 0
M  V30 2420 O 240.083 -3.54649 0.332016 0
M  V30 2421 O 238.942 -5.45888 0.25865 0
M  V30 2422 H 236.036 -0.826992 0.00359427 0
M  V30 2423 H 238.582 -1.52184 0.750864 0
M  V30 2424 H 237.354 -3.64344 1.4272 0
M  V30 2425 H 236.977 -3.96769 -0.256885 0
M  V30 2426 N 237.974 -0.419461 -1.51915 0
M  V30 2427 C 239.204 0.151915 -2.06041 0
M  V30 2428 C 239.612 1.38539 -1.28855 0
M  V30 2429 O 238.955 1.80592 -0.336463 0
M  V30 2430 C 239.017 0.557119 -3.55157 0
M  V30 2431 C 238.681 -0.567054 -4.53468 0
M  V30 2432 C 239.678 -1.43379 -4.99738 0
M  V30 2433 C 237.363 -0.742693 -4.96779 0
M  V30 2434 C 239.357 -2.46102 -5.87973 0
M  V30 2435 C 237.044 -1.77322 -5.84808 0
M  V30 2436 C 238.042 -2.63078 -6.30301 0
M  V30 2437 O 237.73 -3.64364 -7.16585 0
M  V30 2438 H 237.462 0.0193293 -0.675724 0
M  V30 2439 H 240.016 -0.592073 -1.96682 0
M  V30 2440 H 238.246 1.35355 -3.62238 0
M  V30 2441 H 239.935 1.05759 -3.9188 0
M  V30 2442 H 240.701 -1.30954 -4.66986 0
M  V30 2443 H 236.58 -0.0848307 -4.60922 0
M  V30 2444 H 240.124 -3.13071 -6.23404 0
M  V30 2445 H 236.021 -1.89773 -6.16974 0
M  V30 2446 H 236.789 -3.60731 -7.34721 0
M  V30 2447 N 239.452 1.56882 -0.150215 0
M  V30 2448 C 240.699 1.96228 0.500093 0
M  V30 2449 C 241.027 1.03522 1.64661 0
M  V30 2450 O 240.282 0.0650683 1.95592 0
M  V30 2451 C 240.581 3.41801 1.04437 0
M  V30 2452 C 240.247 4.50897 0.0159671 0
M  V30 2453 C 238.909 4.8046 -0.266731 0
M  V30 2454 C 241.261 5.16703 -0.683192 0
M  V30 2455 C 238.589 5.73135 -1.25434 0
M  V30 2456 C 240.941 6.10441 -1.65964 0
M  V30 2457 C 239.605 6.38382 -1.95 0
M  V30 2458 H 238.875 0.718048 0.182997 0
M  V30 2459 H 241.522 1.90019 -0.237724 0
M  V30 2460 H 239.827 3.44857 1.85959 0
M  V30 2461 H 241.524 3.69573 1.55618 0
M  V30 2462 H 238.114 4.27891 0.246485 0
M  V30 2463 H 242.298 4.93993 -0.477983 0
M  V30 2464 H 237.554 5.93074 -1.48571 0
M  V30 2465 H 241.728 6.60507 -2.20689 0
M  V30 2466 H 239.355 7.09996 -2.71679 0
M  V30 2467 N 240.93 -0.123565 1.57115 0
M  V30 2468 C 242.341 -0.681198 1.73829 0
M  V30 2469 C 242.692 -1.80535 0.768214 0
M  V30 2470 O 241.817 -2.16317 -0.0599103 0
M  V30 2471 C 242.412 -1.24246 3.15196 0
M  V30 2472 C 240.971 -1.74643 3.33432 0
M  V30 2473 C 240.118 -0.644284 2.69711 0
M  V30 2474 H 243.069 0.102315 1.5837 0
M  V30 2475 H 243.09 -2.11216 3.16493 0
M  V30 2476 H 242.602 -0.424062 3.85776 0
M  V30 2477 H 240.703 -2.58974 2.67886 0
M  V30 2478 H 240.816 -1.85902 4.41562 0
M  V30 2479 H 239.18 -1.07676 2.3082 0
M  V30 2480 H 239.963 0.163058 3.42913 0
M  V30 2481 N 242.408 -1.52605 -0.393616 0
M  V30 2482 C 243.318 -1.79971 -1.50492 0
M  V30 2483 C 244.334 -0.686181 -1.59899 0
M  V30 2484 O 245.51 -0.973274 -1.76322 0
M  V30 2485 C 242.575 -1.95867 -2.86072 0
M  V30 2486 C 241.636 -3.19781 -2.86424 0
M  V30 2487 C 240.869 -3.34909 -4.15538 0
M  V30 2488 O 241.092 -2.54948 -5.10253 0
M  V30 2489 O 240.026 -4.28141 -4.23059 0
M  V30 2490 H 243.852 -2.74328 -1.30299 0
M  V30 2491 H 241.437 -1.3764 -0.581005 0
M  V30 2492 H 243.319 -2.08056 -3.66457 0
M  V30 2493 H 241.994 -1.04699 -3.063 0
M  V30 2494 H 240.901 -3.13038 -2.04837 0
M  V30 2495 H 242.234 -4.1078 -2.71147 0
M  V30 2496 N 243.887 0.651787 -1.4349 0
M  V30 2497 C 245.298 1.233 -1.40193 0
M  V30 2498 C 245.649 1.9591 -0.106727 0
M  V30 2499 O 244.774 2.01316 0.793773 0
M  V30 2500 C 245.369 2.24257 -2.53957 0
M  V30 2501 C 243.928 2.77852 -2.5392 0
M  V30 2502 C 243.075 1.52517 -2.3159 0
M  V30 2503 H 246.026 0.443717 -1.52371 0
M  V30 2504 H 246.047 3.0646 -2.25528 0
M  V30 2505 H 245.559 1.71382 -3.4821 0
M  V30 2506 H 243.66 3.34786 -1.63551 0
M  V30 2507 H 243.773 3.25299 -3.51735 0
M  V30 2508 H 242.137 1.79915 -1.80285 0
M  V30 2509 H 242.92 1.01574 -3.27929 0
M  V30 2510 N 245.365 1.30045 0.890287 0
M  V30 2511 C 246.611 1.18737 1.64406 0
M  V30 2512 C 246.944 -0.258525 1.92472 0
M  V30 2513 O 246.219 -1.18562 1.54186 0
M  V30 2514 C 246.502 2.01087 2.98724 0
M  V30 2515 C 246.355 3.53867 2.77665 0
M  V30 2516 C 247.674 1.84457 3.9958 0
M  V30 2517 H 244.793 0.432698 0.596608 0
M  V30 2518 H 247.435 1.5962 1.0306 0
M  V30 2519 H 245.585 1.66349 3.51084 0
M  V30 2520 H 247.257 3.98637 2.32133 0
M  V30 2521 H 245.5 3.78318 2.12269 0
M  V30 2522 H 246.171 4.06772 3.7315 0
M  V30 2523 H 248.647 2.14817 3.56361 0
M  V30 2524 H 247.523 2.44411 4.91482 0
M  V30 2525 H 247.784 0.802276 4.3476 0
M  V30 2526 N 246.843 -1.10192 1.12674 0
M  V30 2527 C 248.071 -1.85983 0.906527 0
M  V30 2528 C 248.486 -1.80783 -0.544333 0
M  V30 2529 O 247.843 -1.19834 -1.37645 0
M  V30 2530 C 247.894 -3.34281 1.37618 0
M  V30 2531 O 247.615 -3.39401 2.77017 0
M  V30 2532 C 249.116 -4.26938 1.19325 0
M  V30 2533 H 246.336 -0.587716 0.323775 0
M  V30 2534 H 248.88 -1.39284 1.49734 0
M  V30 2535 H 247.035 -3.78436 0.828539 0
M  V30 2536 H 247.449 -4.31838 2.97684 0
M  V30 2537 H 248.923 -5.29181 1.57071 0
M  V30 2538 H 249.4 -4.38995 0.134097 0
M  V30 2539 H 250.006 -3.8859 1.72852 0
M  V30 2540 N 248.321 -0.919034 -1.28029 0
M  V30 2541 C 249.567 -0.555757 -1.95036 0
M  V30 2542 C 249.9 0.899198 -1.72128 0
M  V30 2543 O 249.175 1.64023 -1.04531 0
M  V30 2544 C 249.458 -0.872024 -3.49382 0
M  V30 2545 C 249.311 -2.3801 -3.81669 0
M  V30 2546 C 250.63 -0.37185 -4.38526 0
M  V30 2547 H 247.749 -0.203386 -0.708381 0
M  V30 2548 H 250.391 -1.14924 -1.51303 0
M  V30 2549 H 248.541 -0.366946 -3.86763 0
M  V30 2550 H 250.213 -2.9562 -3.54128 0
M  V30 2551 H 248.456 -2.83289 -3.28526 0
M  V30 2552 H 249.127 -2.55192 -4.8947 0
M  V30 2553 H 251.603 -0.804602 -4.08247 0
M  V30 2554 H 250.479 -0.622173 -5.45362 0
M  V30 2555 H 250.74 0.727934 -4.36066 0
M  V30 2556 N 249.799 1.42003 -0.683588 0
M  V30 2557 C 251.024 2.06265 -0.216647 0
M  V30 2558 C 251.449 1.51059 1.12083 0
M  V30 2559 O 250.807 0.632638 1.69904 0
M  V30 2560 C 250.855 3.60191 -0.171759 0
M  V30 2561 O 249.959 4.03396 0.857069 0
M  V30 2562 H 249.3 0.65502 -0.108834 0
M  V30 2563 H 251.83 1.81982 -0.935077 0
M  V30 2564 H 251.84 4.08 0.0014303 0
M  V30 2565 H 250.515 3.99743 -1.14796 0
M  V30 2566 H 249.092 3.67117 0.654208 0
M  V30 2567 N 251.277 0.427512 1.51691 0
M  V30 2568 C 252.523 -0.134744 2.02953 0
M  V30 2569 C 252.878 -1.41235 1.30654 0
M  V30 2570 O 252.171 -1.87168 0.409713 0
M  V30 2571 C 252.365 -0.418249 3.54944 0
M  V30 2572 C 252.194 0.830327 4.41968 0
M  V30 2573 C 250.964 1.36097 4.86627 0
M  V30 2574 C 253.162 1.7137 4.84909 0
M  V30 2575 N 251.144 2.56311 5.57833 0
M  V30 2576 C 252.515 2.76195 5.55082 0
M  V30 2577 C 254.57 1.72928 4.66905 0
M  V30 2578 C 253.273 3.82512 6.09161 0
M  V30 2579 C 255.299 2.78175 5.21894 0
M  V30 2580 C 254.661 3.8172 5.92004 0
M  V30 2581 H 250.76 -0.0103958 0.781931 0
M  V30 2582 H 253.344 0.585981 1.85673 0
M  V30 2583 H 251.515 -1.10801 3.7226 0
M  V30 2584 H 253.247 -0.970999 3.92879 0
M  V30 2585 H 250.002 0.916311 4.64651 0
M  V30 2586 H 250.426 3.17242 5.98069 0
M  V30 2587 H 255.068 0.942081 4.12171 0
M  V30 2588 H 252.786 4.62077 6.62956 0
M  V30 2589 H 256.372 2.8031 5.09821 0
M  V30 2590 H 255.252 4.61821 6.33791 0
M  V30 2591 N 252.755 -1.56801 0.158532 0
M  V30 2592 C 253.703 -2.18638 -0.793729 0
M  V30 2593 C 254.697 -1.14669 -1.24689 0
M  V30 2594 O 255.903 -1.32895 -1.21403 0
M  V30 2595 H 252.278 -0.700226 -0.274204 0
M  V30 2596 H 254.249 -2.97367 -0.248095 0
M  V30 2597 C 252.998 -2.83139 -2.0181 0
M  V30 2598 H 252.321 -3.62863 -1.67841 0
M  V30 2599 H 253.761 -3.29894 -2.66357 0
M  V30 2600 C 252.22 -1.82244 -2.83353 0
M  V30 2601 O 252.75 -1.3 -3.80083 0
M  V30 2602 N 250.956 -1.51288 -2.48114 0
M  V30 2603 H 250.503 -1.93964 -1.69516 0
M  V30 2604 H 250.461 -0.840296 -3.02963 0
M  V30 2605 N 254.233 0.115231 -1.57178 0
M  V30 2606 C 255.458 0.840354 -1.89612 0
M  V30 2607 C 255.883 1.72464 -0.750845 0
M  V30 2608 O 255.241 1.78826 0.298478 0
M  V30 2609 C 255.289 1.64654 -3.20814 0
M  V30 2610 O 254.393 2.7538 -3.06985 0
M  V30 2611 H 253.734 0.232158 -0.622092 0
M  V30 2612 H 256.264 0.0964977 -2.04372 0
M  V30 2613 H 256.274 2.03499 -3.53627 0
M  V30 2614 H 254.949 0.997416 -4.03763 0
M  V30 2615 H 253.526 2.3971 -2.85646 0
M  V30 2616 N 255.711 1.52812 0.385517 0
M  V30 2617 C 256.959 1.67694 1.12797 0
M  V30 2618 C 257.28 0.421115 1.90399 0
M  V30 2619 O 256.55 -0.564551 1.87589 0
M  V30 2620 H 255.13 0.618155 0.419396 0
M  V30 2621 H 257.792 1.89938 0.436972 0
M  V30 2622 H 256.888 2.52896 1.82894 0
M  V30 2623 N 257.189 -0.644168 1.43834 0
M  V30 2624 C 258.152 -1.73857 1.49353 0
M  V30 2625 C 259.152 -1.56315 0.377112 0
M  V30 2626 O 260.342 -1.62048 0.639226 0
M  V30 2627 C 257.474 -3.12819 1.35488 0
M  V30 2628 H 258.667 -1.70342 2.46827 0
M  V30 2629 H 256.22 -0.856652 1.30733 0
M  V30 2630 H 256.955 -3.2194 0.390569 0
M  V30 2631 H 256.74 -3.26958 2.16428 0
M  V30 2632 H 258.23 -3.92606 1.42302 0
M  V30 2633 N 258.668 -1.30515 -0.883378 0
M  V30 2634 C 259.598 -1.19607 -2.00541 0
M  V30 2635 C 260.579 -0.086346 -1.69881 0
M  V30 2636 O 261.764 -0.268654 -1.92333 0
M  V30 2637 C 258.894 -0.888758 -3.35736 0
M  V30 2638 C 257.848 -1.95659 -3.8066 0
M  V30 2639 C 257.174 -1.50224 -5.13164 0
M  V30 2640 C 258.474 -3.36788 -3.99213 0
M  V30 2641 H 260.168 -2.13476 -2.09925 0
M  V30 2642 H 257.714 -1.02775 -1.00863 0
M  V30 2643 H 259.667 -0.799094 -4.13754 0
M  V30 2644 H 258.391 0.0856125 -3.26488 0
M  V30 2645 H 257.05 -2.03591 -3.04871 0
M  V30 2646 H 256.698 -0.516092 -5.00345 0
M  V30 2647 H 256.398 -2.2165 -5.44192 0
M  V30 2648 H 257.922 -1.42639 -5.93706 0
M  V30 2649 H 259.336 -3.31605 -4.67665 0
M  V30 2650 H 257.733 -4.06314 -4.41621 0
M  V30 2651 H 258.803 -3.78561 -3.03017 0
M  V30 2652 N 260.146 1.09593 -1.13257 0
M  V30 2653 C 261.374 1.855 -0.916378 0
M  V30 2654 C 261.789 1.81069 0.534738 0
M  V30 2655 O 261.146 1.20562 1.37007 0
M  V30 2656 C 261.197 3.33546 -1.39388 0
M  V30 2657 O 260.918 3.37927 -2.78813 0
M  V30 2658 C 262.419 4.26299 -1.21588 0
M  V30 2659 H 259.639 0.585991 -0.326887 0
M  V30 2660 H 262.183 1.38488 -1.5047 0
M  V30 2661 H 260.338 3.77992 -0.848597 0
M  V30 2662 H 260.752 4.30254 -2.9997 0
M  V30 2663 H 262.226 5.28341 -1.59876 0
M  V30 2664 H 262.703 4.38918 -0.157376 0
M  V30 2665 H 263.309 3.87668 -1.7491 0
M  V30 2666 N 261.624 0.925811 1.2754 0
M  V30 2667 C 262.849 0.580924 1.99098 0
M  V30 2668 C 263.274 -0.833555 1.68622 0
M  V30 2669 O 262.632 -1.55903 0.925422 0
M  V30 2670 C 262.68 0.811186 3.51358 0
M  V30 2671 O 261.784 -0.124129 4.12213 0
M  V30 2672 H 261.125 0.223873 0.625122 0
M  V30 2673 H 263.655 1.24455 1.62395 0
M  V30 2674 H 263.665 0.72601 4.01489 0
M  V30 2675 H 262.34 1.84227 3.72872 0
M  V30 2676 H 260.917 0.0108006 3.72898 0
M  V30 2677 N 263.102 -1.41638 0.69111 0
M  V30 2678 C 264.35 -2.00902 0.219758 0
M  V30 2679 C 264.671 -1.54994 -1.18329 0
M  V30 2680 O 263.941 -0.778628 -1.79762 0
M  V30 2681 H 262.521 -0.74289 0.0782558 0
M  V30 2682 H 265.183 -1.73327 0.891271 0
M  V30 2683 H 264.279 -3.11224 0.233708 0
M  V30 2684 N 264.58 -0.43555 -1.51462 0
M  V30 2685 C 265.826 0.131709 -2.02372 0
M  V30 2686 C 266.159 1.42516 -1.3192 0
M  V30 2687 O 265.434 1.89606 -0.433573 0
M  V30 2688 C 265.717 0.352301 -3.58373 0
M  V30 2689 C 265.57 -0.959676 -4.39443 0
M  V30 2690 C 266.889 1.12286 -4.25535 0
M  V30 2691 H 264.008 0.0463936 -0.735538 0
M  V30 2692 H 266.65 -0.574197 -1.81116 0
M  V30 2693 H 264.8 0.9536 -3.76615 0
M  V30 2694 H 266.472 -1.59482 -4.32855 0
M  V30 2695 H 264.715 -1.56468 -4.04599 0
M  V30 2696 H 265.386 -0.759394 -5.46752 0
M  V30 2697 H 267.862 0.613545 -4.11552 0
M  V30 2698 H 266.738 1.24598 -5.34571 0
M  V30 2699 H 266.999 2.15048 -3.86273 0
M  V30 2700 N 266.058 1.56714 -0.166846 0
M  V30 2701 C 267.008 2.14338 0.777382 0
M  V30 2702 C 267.992 1.07642 1.19591 0
M  V30 2703 O 269.184 1.33775 1.15902 0
M  V30 2704 C 266.313 2.78417 2.00846 0
M  V30 2705 C 265.399 3.92264 1.61212 0
M  V30 2706 N 265.79 4.97268 0.925104 0
M  V30 2707 C 264.088 4.03342 1.90346 0
M  V30 2708 C 264.789 5.77093 0.730627 0
M  V30 2709 N 263.765 5.2854 1.27067 0
M  V30 2710 H 267.567 2.9289 0.243466 0
M  V30 2711 H 265.081 1.62364 0.0339954 0
M  V30 2712 H 267.078 3.18073 2.69509 0
M  V30 2713 H 265.738 2.01344 2.54736 0
M  V30 2714 H 266.749 5.14601 0.583646 0
M  V30 2715 H 263.426 3.37368 2.45946 0
M  V30 2716 H 264.816 6.71638 0.187668 0
M  V30 2717 N 267.536 -0.106894 1.57237 0
M  V30 2718 C 268.764 -0.826389 1.8968 0
M  V30 2719 C 269.179 -1.72856 0.759353 0
M  V30 2720 O 268.536 -1.80503 -0.269263 0
M  V30 2721 C 268.587 -1.64967 3.21665 0
M  V30 2722 O 268.308 -0.783804 4.31031 0
M  V30 2723 C 269.809 -2.47326 3.67892 0
M  V30 2724 H 267.029 -0.236927 0.627779 0
M  V30 2725 H 269.573 -0.0876593 2.04312 0
M  V30 2726 H 267.728 -2.34103 3.08666 0
M  V30 2727 H 268.142 -1.35284 5.06753 0
M  V30 2728 H 269.616 -3.00604 4.6297 0
M  V30 2729 H 270.093 -3.25247 2.95146 0
M  V30 2730 H 270.699 -1.83411 3.83719 0
M  V30 2731 N 269.014 -1.53014 -0.377408 0
M  V30 2732 C 270.261 -1.68623 -1.12128 0
M  V30 2733 C 270.589 -0.431997 -1.89642 0
M  V30 2734 O 269.844 0.585855 -1.86725 0
M  V30 2735 C 270.143 -2.87982 -2.11663 0
M  V30 2736 C 269.809 -4.24964 -1.50719 0
M  V30 2737 C 268.471 -4.62217 -1.33825 0
M  V30 2738 C 270.823 -5.10199 -1.06519 0
M  V30 2739 C 268.151 -5.82352 -0.712963 0
M  V30 2740 C 270.503 -6.30969 -0.453955 0
M  V30 2741 C 269.167 -6.66944 -0.272411 0
M  V30 2742 H 268.437 -0.617034 -0.410305 0
M  V30 2743 H 271.084 -1.8718 -0.404484 0
M  V30 2744 H 269.389 -2.63889 -2.89603 0
M  V30 2745 H 271.086 -2.97253 -2.6915 0
M  V30 2746 H 267.676 -3.95626 -1.64858 0
M  V30 2747 H 271.86 -4.81978 -1.18368 0
M  V30 2748 H 267.116 -6.08824 -0.560611 0
M  V30 2749 H 271.29 -6.96324 -0.103217 0
M  V30 2750 H 268.917 -7.59898 0.214181 0
M  V30 2751 N 270.492 0.636531 -1.44174 0
M  V30 2752 C 271.903 1.21806 -1.41493 0
M  V30 2753 C 272.254 1.95785 -0.1275 0
M  V30 2754 O 271.379 2.02147 0.772376 0
M  V30 2755 C 271.974 2.21551 -2.56321 0
M  V30 2756 C 270.533 2.75143 -2.56853 0
M  V30 2757 C 269.68 1.50052 -2.33195 0
M  V30 2758 H 272.631 0.427531 -1.52833 0
M  V30 2759 H 272.652 3.0405 -2.28765 0
M  V30 2760 H 272.164 1.67679 -3.50008 0
M  V30 2761 H 270.265 3.33033 -1.67093 0
M  V30 2762 H 270.378 3.2155 -3.55165 0
M  V30 2763 H 268.742 1.77993 -1.82183 0
M  V30 2764 H 269.525 0.980903 -3.28988 0
M  V30 2765 N 271.97 1.30982 0.876444 0
M  V30 2766 C 272.933 1.18054 1.96459 0
M  V30 2767 C 273.933 0.109399 1.60427 0
M  V30 2768 O 275.123 0.358173 1.70478 0
M  V30 2769 C 272.255 0.810616 3.31122 0
M  V30 2770 H 273.448 2.14735 2.09354 0
M  V30 2771 H 271.001 1.145 1.06392 0
M  V30 2772 H 271.736 -0.155322 3.23928 0
M  V30 2773 H 271.521 1.58481 3.58645 0
M  V30 2774 H 273.011 0.743876 4.10921 0
M  V30 2775 N 273.449 -1.08991 1.13837 0
M  V30 2776 C 274.695 -1.81526 0.90422 0
M  V30 2777 C 275.028 -1.85706 -0.568066 0
M  V30 2778 O 274.303 -1.32855 -1.42056 0
M  V30 2779 C 274.586 -3.27447 1.49835 0
M  V30 2780 C 274.439 -3.31512 3.04006 0
M  V30 2781 C 275.758 -4.24256 1.17025 0
M  V30 2782 H 272.877 -0.659029 0.329923 0
M  V30 2783 H 275.519 -1.27644 1.40737 0
M  V30 2784 H 273.669 -3.73462 1.07044 0
M  V30 2785 H 275.341 -2.93867 3.55584 0
M  V30 2786 H 273.584 -2.70963 3.38765 0
M  V30 2787 H 274.255 -4.34329 3.40679 0
M  V30 2788 H 276.731 -3.86549 1.54009 0
M  V30 2789 H 275.607 -5.24684 1.61237 0
M  V30 2790 H 275.868 -4.42019 0.0846274 0
M  V30 2791 N 274.927 -0.932562 -1.27047 0
M  V30 2792 C 275.857 -0.452902 -2.29066 0
M  V30 2793 C 276.838 0.489338 -1.62909 0
M  V30 2794 O 278.023 0.393046 -1.90181 0
M  V30 2795 C 275.153 0.290698 -3.46081 0
M  V30 2796 C 274.107 -0.564168 -4.24265 0
M  V30 2797 C 273.433 0.308886 -5.33807 0
M  V30 2798 C 274.733 -1.83112 -4.89149 0
M  V30 2799 H 276.427 -1.30552 -2.69437 0
M  V30 2800 H 273.973 -0.629201 -1.29526 0
M  V30 2801 H 275.926 0.637233 -4.16554 0
M  V30 2802 H 274.65 1.17738 -3.0464 0
M  V30 2803 H 273.309 -0.893477 -3.55545 0
M  V30 2804 H 272.957 1.19467 -4.88607 0
M  V30 2805 H 272.657 -0.259633 -5.87026 0
M  V30 2806 H 274.181 0.650884 -6.07121 0
M  V30 2807 H 275.595 -1.55236 -5.51883 0
M  V30 2808 H 273.992 -2.34353 -5.52448 0
M  V30 2809 H 275.062 -2.54772 -4.12576 0
M  V30 2810 N 276.405 1.4127 -0.698611 0
M  V30 2811 C 277.337 2.292 0.00399731 0
M  V30 2812 C 278.35 1.44944 0.741279 0
M  V30 2813 O 279.539 1.68416 0.591477 0
M  V30 2814 C 276.639 3.22875 1.02979 0
M  V30 2815 C 275.812 4.35904 0.36151 0
M  V30 2816 C 274.871 5.10134 1.29033 0
M  V30 2817 O 273.897 5.63809 0.781562 0
M  V30 2818 N 275.099 5.17885 2.6225 0
M  V30 2819 H 277.864 2.9014 -0.750921 0
M  V30 2820 H 275.425 1.52455 -0.544882 0
M  V30 2821 H 277.417 3.69404 1.65296 0
M  V30 2822 H 275.987 2.63221 1.68622 0
M  V30 2823 H 275.207 3.91719 -0.441584 0
M  V30 2824 H 276.495 5.08696 -0.103055 0
M  V30 2825 H 275.893 4.7573 3.061 0
M  V30 2826 H 274.45 5.6798 3.19754 0
M  V30 2827 N 277.883 0.443576 1.51229 0
M  V30 2828 C 279.108 -0.121648 2.07043 0
M  V30 2829 C 279.533 -1.35156 1.30823 0
M  V30 2830 O 278.891 -1.7793 0.347934 0
M  V30 2831 C 278.939 -0.41624 3.5819 0
M  V30 2832 O 278.043 -1.50163 3.8409 0
M  V30 2833 H 277.384 0.000871367 0.663999 0
M  V30 2834 H 279.914 0.626706 1.94765 0
M  V30 2835 H 279.924 -0.664867 4.02546 0
M  V30 2836 H 278.599 0.482653 4.1309 0
M  V30 2837 H 277.176 -1.24248 3.51592 0
M  V30 2838 N 279.361 -1.56624 0.175154 0
M  V30 2839 C 280.586 -2.01813 -0.478137 0
M  V30 2840 C 281.011 -1.05457 -1.55757 0
M  V30 2841 O 280.369 -0.0347439 -1.81267 0
M  V30 2842 C 280.417 -3.45581 -1.02987 0
M  V30 2843 O 279.521 -3.52305 -2.14371 0
M  V30 2844 H 278.862 -0.65413 -0.114059 0
M  V30 2845 H 281.392 -2.02673 0.280173 0
M  V30 2846 H 281.402 -3.84965 -1.35151 0
M  V30 2847 H 280.077 -4.1521 -0.239556 0
M  V30 2848 H 278.654 -3.24783 -1.83222 0
M  V30 2849 N 280.839 0.0985539 -1.57292 0
M  V30 2850 C 282.087 0.801092 -1.85545 0
M  V30 2851 C 282.408 1.79438 -0.763353 0
M  V30 2852 O 281.678 1.94763 0.21073 0
M  V30 2853 H 280.258 0.29884 -0.684619 0
M  V30 2854 H 282.92 0.0810064 -1.94732 0
M  V30 2855 H 282.016 1.3338 -2.82163 0
M  V30 2856 N 282.317 1.53212 0.369288 0
M  V30 2857 C 283.247 1.82365 1.45826 0
M  V30 2858 C 284.228 0.676907 1.56051 0
M  V30 2859 O 285.413 0.926401 1.70679 0
M  V30 2860 C 282.543 2.01023 2.83208 0
M  V30 2861 C 281.497 3.1678 2.8781 0
M  V30 2862 C 280.823 3.20724 4.27832 0
M  V30 2863 C 282.123 4.55447 2.55667 0
M  V30 2864 H 283.817 2.73559 1.21678 0
M  V30 2865 H 281.363 1.3163 0.583911 0
M  V30 2866 H 283.316 2.20001 3.59413 0
M  V30 2867 H 282.04 1.06536 3.08736 0
M  V30 2868 H 280.699 2.97616 2.14056 0
M  V30 2869 H 280.347 2.23882 4.50429 0
M  V30 2870 H 280.047 3.98496 4.31827 0
M  V30 2871 H 281.571 3.41881 5.05915 0
M  V30 2872 H 282.985 4.74611 3.21586 0
M  V30 2873 H 281.382 5.35432 2.70984 0
M  V30 2874 H 282.452 4.60812 1.5093 0
M  V30 2875 N 283.795 -0.628877 1.44509 0
M  V30 2876 C 285.025 -1.41349 1.50678 0
M  V30 2877 C 285.433 -1.88745 0.131075 0
M  V30 2878 O 284.776 -1.61592 -0.87371 0
M  V30 2879 C 284.838 -2.66608 2.41165 0
M  V30 2880 C 284.502 -2.40993 3.88293 0
M  V30 2881 C 285.499 -2.0268 4.78766 0
M  V30 2882 C 283.184 -2.54563 4.33016 0
M  V30 2883 C 285.178 -1.78269 6.11963 0
M  V30 2884 C 282.865 -2.29766 5.6626 0
M  V30 2885 C 283.863 -1.91678 6.55552 0
M  V30 2886 O 283.551 -1.67158 7.86329 0
M  V30 2887 H 283.283 -0.439851 0.51333 0
M  V30 2888 H 285.837 -0.776084 1.90174 0
M  V30 2889 H 284.067 -3.32994 1.96601 0
M  V30 2890 H 285.756 -3.28615 2.38259 0
M  V30 2891 H 286.522 -1.91751 4.45485 0
M  V30 2892 H 282.401 -2.83179 3.63773 0
M  V30 2893 H 285.945 -1.48465 6.81619 0
M  V30 2894 H 281.842 -2.40306 5.99102 0
M  V30 2895 H 282.61 -1.81386 7.98149 0
M  V30 2896 N 285.273 -1.31445 -0.869486 0
M  V30 2897 C 286.498 -1.24256 -1.66058 0
M  V30 2898 C 286.923 0.188928 -1.87149 0
M  V30 2899 O 286.281 1.13522 -1.4136 0
M  V30 2900 C 286.329 -1.9924 -3.00559 0
M  V30 2901 O 285.433 -1.33007 -3.90362 0
M  V30 2902 H 284.774 -0.428973 -0.506831 0
M  V30 2903 H 287.304 -1.73521 -1.08404 0
M  V30 2904 H 287.314 -2.08854 -3.50491 0
M  V30 2905 H 285.989 -3.03342 -2.84528 0
M  V30 2906 H 284.566 -1.31848 -3.48813 0
M  V30 2907 N 286.751 1.08385 -1.14413 0
M  V30 2908 C 287.681 2.17321 -0.854044 0
M  V30 2909 C 288.662 1.69024 0.191049 0
M  V30 2910 O 289.847 1.94141 0.0476779 0
M  V30 2911 C 286.977 3.45719 -0.330983 0
M  V30 2912 C 285.931 4.07409 -1.31155 0
M  V30 2913 C 285.257 5.30762 -0.64778 0
M  V30 2914 C 286.557 4.48665 -2.67388 0
M  V30 2915 H 288.251 2.41845 -1.76498 0
M  V30 2916 H 285.797 1.16233 -0.850051 0
M  V30 2917 H 287.75 4.21241 -0.115645 0
M  V30 2918 H 286.474 3.2075 0.615381 0
M  V30 2919 H 285.133 3.33919 -1.51306 0
M  V30 2920 H 284.781 5.02078 0.304398 0
M  V30 2921 H 284.481 5.72992 -1.30207 0
M  V30 2922 H 286.005 6.08998 -0.441972 0
M  V30 2923 H 287.419 5.15364 -2.51143 0
M  V30 2924 H 285.816 5.01814 -3.29093 0
M  V30 2925 H 286.886 3.60543 -3.24248 0
M  V30 2926 N 288.23 0.939286 1.26551 0
M  V30 2927 C 289.455 0.602008 1.98471 0
M  V30 2928 C 289.88 -0.815624 1.69497 0
M  V30 2929 O 289.238 -1.54912 0.941905 0
M  V30 2930 C 289.286 0.848407 3.50477 0
M  V30 2931 O 288.39 -0.0804009 4.12322 0
M  V30 2932 H 287.731 0.23049 0.622712 0
M  V30 2933 H 290.261 1.2617 1.61066 0
M  V30 2934 H 290.271 0.768553 4.00696 0
M  V30 2935 H 288.946 1.88171 3.70897 0
M  V30 2936 H 287.523 0.0503508 3.72866 0
M  V30 2937 N 289.708 -1.40897 0.706093 0
M  V30 2938 C 290.933 -2.05895 0.249435 0
M  V30 2939 C 291.358 -1.52823 -1.09666 0
M  V30 2940 O 290.716 -0.659589 -1.68876 0
M  V30 2941 C 290.764 -3.59872 0.22904 0
M  V30 2942 O 289.868 -4.04708 -0.792784 0
M  V30 2943 H 289.209 -0.653206 0.119241 0
M  V30 2944 H 291.739 -1.80471 0.96391 0
M  V30 2945 H 291.749 -4.07951 0.0634791 0
M  V30 2946 H 290.424 -3.97866 1.21141 0
M  V30 2947 H 289.001 -3.68111 -0.59572 0
M  V30 2948 N 291.186 -0.45159 -1.50991 0
M  V30 2949 C 292.432 0.110237 -2.025 0
M  V30 2950 C 292.765 1.41109 -1.33424 0
M  V30 2951 O 292.04 1.89135 -0.453659 0
M  V30 2952 C 292.323 0.314271 -3.58726 0
M  V30 2953 C 292.176 -1.00623 -4.38401 0
M  V30 2954 C 293.495 1.07767 -4.26702 0
M  V30 2955 H 290.614 0.0385897 -0.735989 0
M  V30 2956 H 293.256 -0.593374 -1.80497 0
M  V30 2957 H 291.406 0.913601 -3.77605 0
M  V30 2958 H 293.078 -1.64064 -4.31139 0
M  V30 2959 H 291.321 -1.6075 -4.02917 0
M  V30 2960 H 291.992 -0.817341 -5.45915 0
M  V30 2961 H 294.468 0.56986 -4.12179 0
M  V30 2962 H 293.344 1.18921 -5.35863 0
M  V30 2963 H 293.605 2.10939 -3.88532 0
M  V30 2964 N 292.664 1.56529 -0.183458 0
M  V30 2965 C 293.91 1.97537 0.459036 0
M  V30 2966 C 294.243 1.06989 1.62071 0
M  V30 2967 O 293.518 0.11948 1.94133 0
M  V30 2968 C 293.801 3.47874 0.930368 0
M  V30 2969 C 293.654 4.492 -0.232317 0
M  V30 2970 C 294.973 4.01612 1.79989 0
M  V30 2971 H 292.092 0.718204 0.165383 0
M  V30 2972 H 294.734 1.88042 -0.272038 0
M  V30 2973 H 292.884 3.56095 1.55333 0
M  V30 2974 H 294.556 4.53027 -0.86972 0
M  V30 2975 H 292.799 4.24657 -0.885928 0
M  V30 2976 H 293.47 5.51823 0.139796 0
M  V30 2977 H 295.946 3.96097 1.27461 0
M  V30 2978 H 294.822 5.07195 2.09867 0
M  V30 2979 H 295.083 3.46163 2.74998 0
M  V30 2980 N 294.142 -0.090211 1.57342 0
M  V30 2981 C 295.37 -0.806224 1.90546 0
M  V30 2982 C 295.785 -1.72041 0.777644 0
M  V30 2983 O 295.142 -1.80778 -0.250103 0
M  V30 2984 C 295.193 -1.61546 3.23396 0
M  V30 2985 O 294.914 -0.738043 4.31839 0
M  V30 2986 C 296.415 -2.4341 3.70495 0
M  V30 2987 H 293.635 -0.230256 0.630257 0
M  V30 2988 H 296.179 -0.0659843 2.04394 0
M  V30 2989 H 294.334 -2.30816 3.11131 0
M  V30 2990 H 294.748 -1.29901 5.08159 0
M  V30 2991 H 296.222 -2.95676 4.66133 0
M  V30 2992 H 296.699 -3.22098 2.98579 0
M  V30 2993 H 297.305 -1.79331 3.85643 0
M  V30 2994 N 295.62 -1.53406 -0.361157 0
M  V30 2995 C 296.866 -1.70054 -1.10496 0
M  V30 2996 C 297.199 -0.453278 -1.88836 0
M  V30 2997 O 296.474 0.5495 -1.86576 0
M  V30 2998 C 296.757 -2.95317 -2.06058 0
M  V30 2999 C 296.61 -4.3021 -1.31298 0
M  V30 3000 C 297.929 -3.16193 -3.06121 0
M  V30 3001 H 295.048 -0.618799 -0.400321 0
M  V30 3002 H 297.69 -1.86052 -0.385318 0
M  V30 3003 H 295.84 -2.81809 -2.67425 0
M  V30 3004 H 297.512 -4.55538 -0.726807 0
M  V30 3005 H 295.755 -4.29421 -0.614853 0
M  V30 3006 H 296.426 -5.14 -2.01265 0
M  V30 3007 H 298.902 -3.28916 -2.5486 0
M  V30 3008 H 297.778 -4.05266 -3.70204 0
M  V30 3009 H 298.039 -2.31676 -3.76535 0
M  V30 3010 N 297.098 0.621204 -1.44841 0
M  V30 3011 C 298.509 1.20298 -1.42777 0
M  V30 3012 C 298.86 1.95639 -0.148259 0
M  V30 3013 O 297.985 2.02955 0.750892 0
M  V30 3014 C 298.58 2.1882 -2.58657 0
M  V30 3015 C 297.139 2.72403 -2.59756 0
M  V30 3016 C 296.286 1.4757 -2.34773 0
M  V30 3017 H 299.237 0.411297 -1.53278 0
M  V30 3018 H 299.258 3.01607 -2.31977 0
M  V30 3019 H 298.77 1.63957 -3.51766 0
M  V30 3020 H 296.871 3.31242 -1.70615 0
M  V30 3021 H 296.984 3.17765 -3.58556 0
M  V30 3022 H 295.348 1.76051 -1.8406 0
M  V30 3023 H 296.131 0.945954 -3.3001 0
M  V30 3024 N 298.576 1.31904 0.862503 0
M  V30 3025 C 299.801 1.25135 1.65397 0
M  V30 3026 C 300.226 -0.179 1.87246 0
M  V30 3027 O 299.584 -1.1277 1.4196 0
M  V30 3028 C 299.632 2.00832 2.99498 0
M  V30 3029 O 298.736 1.35075 3.89652 0
M  V30 3030 H 298.077 0.431655 0.504549 0
M  V30 3031 H 300.607 1.74094 1.07483 0
M  V30 3032 H 300.617 2.10709 3.49379 0
M  V30 3033 H 299.292 3.04847 2.82916 0
M  V30 3034 H 297.869 1.33696 3.48109 0
M  V30 3035 N 300.054 -1.07777 1.14986 0
M  V30 3036 C 301.279 -1.84558 0.946213 0
M  V30 3037 C 301.704 -1.81323 -0.500362 0
M  V30 3038 O 301.062 -1.20301 -1.35637 0
M  V30 3039 C 301.11 -3.29736 1.45968 0
M  V30 3040 O 300.214 -4.07149 0.65601 0
M  V30 3041 H 299.555 -0.571641 0.33782 0
M  V30 3042 H 302.085 -1.35991 1.52865 0
M  V30 3043 H 302.095 -3.80574 1.47063 0
M  V30 3044 H 300.77 -3.31406 2.51283 0
M  V30 3045 H 299.347 -3.65994 0.714322 0
M  V30 3046 N 301.532 -0.945985 -1.26051 0
M  V30 3047 C 302.48 -0.450259 -2.282 0
M  V30 3048 C 303.474 0.47497 -1.62605 0
M  V30 3049 O 304.68 0.352653 -1.76512 0
M  V30 3050 H 301.055 -0.127081 -0.741184 0
M  V30 3051 H 303.026 -1.32422 -2.67408 0
M  V30 3052 C 301.775 0.26467 -3.46691 0
M  V30 3053 H 301.098 -0.438123 -3.97392 0
M  V30 3054 H 302.538 0.575678 -4.20074 0
M  V30 3055 C 300.997 1.48416 -3.02447 0
M  V30 3056 O 301.527 2.58227 -3.07704 0
M  V30 3057 N 299.733 1.34243 -2.57735 0
M  V30 3058 H 299.28 0.448994 -2.53657 0
M  V30 3059 H 299.238 2.15957 -2.28495 0
M  V30 3060 N 303.011 1.40521 -0.713556 0
M  V30 3061 C 304.258 2.00923 -0.25219 0
M  V30 3062 C 304.586 1.56571 1.15395 0
M  V30 3063 O 303.841 0.775874 1.79663 0
M  V30 3064 C 304.14 3.56317 -0.278 0
M  V30 3065 C 303.806 4.20246 -1.63415 0
M  V30 3066 C 302.468 4.37422 -2.00538 0
M  V30 3067 C 304.82 4.55923 -2.52554 0
M  V30 3068 C 302.148 4.87558 -3.2635 0
M  V30 3069 C 304.5 5.07458 -3.77716 0
M  V30 3070 C 303.164 5.22843 -4.14959 0
M  V30 3071 H 302.434 0.735231 -0.0922829 0
M  V30 3072 H 305.081 1.68161 -0.916188 0
M  V30 3073 H 303.386 3.88976 0.469567 0
M  V30 3074 H 305.083 4.00883 0.0967819 0
M  V30 3075 H 301.673 4.07263 -1.33546 0
M  V30 3076 H 305.857 4.42291 -2.25149 0
M  V30 3077 H 301.113 4.97654 -3.55176 0
M  V30 3078 H 305.287 5.34041 -4.4696 0
M  V30 3079 H 302.914 5.61454 -5.12516 0
M  V30 3080 N 304.489 0.459591 1.5075 0
M  V30 3081 C 305.737 -0.0991532 2.01857 0
M  V30 3082 C 306.058 -1.41247 1.34441 0
M  V30 3083 O 305.328 -1.89775 0.486022 0
M  V30 3084 H 303.908 -0.039633 0.745948 0
M  V30 3085 H 306.57 0.607387 1.85194 0
M  V30 3086 H 305.666 -0.258998 3.11023 0
M  V30 3087 N 305.967 -1.56429 0.191757 0
M  V30 3088 C 307.195 -2.01867 -0.453586 0
M  V30 3089 C 307.61 -1.07191 -1.5542 0
M  V30 3090 O 306.967 -0.0762108 -1.82341 0
M  V30 3091 C 307.018 -3.47017 -1.013 0
M  V30 3092 O 306.739 -4.38078 0.0437005 0
M  V30 3093 C 308.24 -4.07956 -1.73456 0
M  V30 3094 H 305.46 -0.661211 -0.114199 0
M  V30 3095 H 308.004 -2.02295 0.299483 0
M  V30 3096 H 306.159 -3.47298 -1.71647 0
M  V30 3097 H 306.573 -5.23178 -0.372212 0
M  V30 3098 H 308.047 -5.1138 -2.07833 0
M  V30 3099 H 308.524 -3.51222 -2.63704 0
M  V30 3100 H 309.13 -4.11437 -1.07702 0
M  V30 3101 N 307.445 0.0818655 -1.57387 0
M  V30 3102 C 308.377 1.12484 -1.997 0
M  V30 3103 C 309.39 1.35564 -0.90146 0
M  V30 3104 O 310.579 1.33982 -1.17945 0
M  V30 3105 C 307.679 2.47778 -2.31213 0
M  V30 3106 C 306.852 2.44793 -3.62485 0
M  V30 3107 C 305.911 3.62117 -3.81782 0
M  V30 3108 O 304.937 3.44005 -4.53486 0
M  V30 3109 N 306.139 4.82094 -3.23367 0
M  V30 3110 H 308.904 0.764585 -2.89783 0
M  V30 3111 H 306.465 0.270664 -1.59621 0
M  V30 3112 H 308.457 3.24891 -2.41304 0
M  V30 3113 H 307.027 2.75843 -1.4707 0
M  V30 3114 H 306.247 1.53134 -3.6324 0
M  V30 3115 H 307.535 2.39889 -4.48699 0
M  V30 3116 H 306.933 4.99713 -2.65148 0
M  V30 3117 H 305.49 5.56753 -3.38923 0
M  V30 3118 N 308.923 1.53595 0.353017 0
M  V30 3119 C 310.151 1.74311 1.1146 0
M  V30 3120 C 310.566 0.477854 1.82653 0
M  V30 3121 O 309.923 -0.549977 1.74016 0
M  V30 3122 C 309.974 2.91694 2.13534 0
M  V30 3123 O 309.695 4.13325 1.45238 0
M  V30 3124 C 311.196 3.24384 3.02142 0
M  V30 3125 H 308.416 0.582669 0.332773 0
M  V30 3126 H 310.96 2.00386 0.408107 0
M  V30 3127 H 309.115 2.67977 2.79763 0
M  V30 3128 H 309.529 4.79148 2.13349 0
M  V30 3129 H 311.003 4.09893 3.69718 0
M  V30 3130 H 311.48 2.40282 3.67643 0
M  V30 3131 H 312.086 3.50073 2.41514 0
M  V30 3132 N 310.401 -0.613514 1.45168 0
M  V30 3133 C 311.631 -1.39743 1.52169 0
M  V30 3134 C 312.039 -1.88596 0.151086 0
M  V30 3135 O 311.382 -1.6251 -0.856521 0
M  V30 3136 C 311.444 -2.64035 2.43979 0
M  V30 3137 C 311.108 -2.36861 3.90827 0
M  V30 3138 C 312.105 -1.97591 4.80889 0
M  V30 3139 C 309.79 -2.49956 4.35692 0
M  V30 3140 C 311.784 -1.71768 6.1382 0
M  V30 3141 C 309.471 -2.23747 5.68665 0
M  V30 3142 C 310.469 -1.84714 6.57548 0
M  V30 3143 O 310.157 -1.58809 7.88058 0
M  V30 3144 H 309.889 -0.434382 0.517966 0
M  V30 3145 H 312.443 -0.75587 1.90986 0
M  V30 3146 H 310.673 -3.3089 2.00122 0
M  V30 3147 H 312.362 -3.26069 2.41731 0
M  V30 3148 H 313.128 -1.87015 4.47493 0
M  V30 3149 H 309.007 -2.79305 3.66756 0
M  V30 3150 H 312.551 -1.41227 6.83155 0
M  V30 3151 H 308.448 -2.33938 6.01617 0
M  V30 3152 H 309.216 -1.7291 8.00028 0
M  V30 3153 N 311.879 -1.3236 -0.855495 0
M  V30 3154 C 313.107 -1.2587 -1.64208 0
M  V30 3155 C 313.522 0.173457 -1.88002 0
M  V30 3156 O 312.879 1.11027 -1.44842 0
M  V30 3157 C 312.93 -2.01424 -3.00184 0
M  V30 3158 O 312.651 -3.39051 -2.77445 0
M  V30 3159 C 314.152 -2.01948 -3.94629 0
M  V30 3160 H 311.372 -0.434318 -0.511477 0
M  V30 3161 H 313.916 -1.74469 -1.0668 0
M  V30 3162 H 312.071 -1.56549 -3.5436 0
M  V30 3163 H 312.485 -3.77711 -3.63916 0
M  V30 3164 H 313.959 -2.59297 -4.87308 0
M  V30 3165 H 314.436 -1.00554 -4.27534 0
M  V30 3166 H 315.042 -2.46767 -3.4639 0
M  V30 3167 N 313.357 1.07166 -1.15556 0
M  V30 3168 C 314.597 1.81391 -0.94216 0
M  V30 3169 C 314.961 1.84788 0.521272 0
M  V30 3170 O 316.162 2.54904 0.85307 0
M  V30 3171 C 314.433 3.22431 -1.54185 0
M  V30 3172 S 315.992 4.13379 -1.47183 0
M  V30 3173 H 312.81 0.624963 -0.339031 0
M  V30 3174 H 315.412 1.28725 -1.4714 0
M  V30 3175 H 314.116 3.17548 -2.59984 0
M  V30 3176 H 313.647 3.80172 -1.01156 0
M  V30 3177 H 315.662 4.94007 -0.466004 0
M  V30 3178 N 314.835 0.952656 1.25548 0
M  V30 3179 C 315.783 0.462354 2.27958 0
M  V30 3180 C 316.777 -0.46634 1.62855 0
M  V30 3181 O 317.983 -0.343287 1.76696 0
M  V30 3182 H 314.358 0.13101 0.7405 0
M  V30 3183 H 316.329 1.33839 2.66702 0
M  V30 3184 C 315.078 -0.24628 3.46827 0
M  V30 3185 H 314.401 0.459192 3.97154 0
M  V30 3186 H 315.841 -0.553393 4.20373 0
M  V30 3187 C 314.3 -1.4681 3.0323 0
M  V30 3188 O 314.83 -2.56591 3.09069 0
M  V30 3189 N 313.036 -1.32874 2.58443 0
M  V30 3190 H 312.583 -0.435536 2.53891 0
M  V30 3191 H 312.541 -2.14742 2.29637 0
M  V30 3192 N 316.313 -1.40141 0.720998 0
M  V30 3193 C 317.559 -2.01084 0.263231 0
M  V30 3194 C 317.892 -1.57052 -1.14229 0
M  V30 3195 O 317.167 -0.793027 -1.77599 0
M  V30 3196 C 317.45 -3.58401 0.349344 0
M  V30 3197 C 317.303 -4.12491 1.79363 0
M  V30 3198 C 318.622 -4.39231 -0.276351 0
M  V30 3199 H 315.741 -0.730572 0.0971228 0
M  V30 3200 H 318.383 -1.66543 0.914518 0
M  V30 3201 H 316.533 -3.87958 -0.205165 0
M  V30 3202 H 318.205 -3.93711 2.40394 0
M  V30 3203 H 316.448 -3.66576 2.31958 0
M  V30 3204 H 317.119 -5.21646 1.80524 0
M  V30 3205 H 319.595 -4.15637 0.196184 0
M  V30 3206 H 318.471 -5.48586 -0.185681 0
M  V30 3207 H 318.732 -4.20643 -1.36059 0
M  V30 3208 N 317.792 -0.46758 -1.50504 0
M  V30 3209 C 319.069 0.15003 -1.95024 0
M  V30 3210 C 319.449 1.57304 -1.40779 0
M  V30 3211 O 318.797 2.20281 -0.607319 0
M  V30 3212 C 319.007 0.0969324 -3.48865 0
M  V30 3213 C 320.355 0.287565 -4.23625 0
M  V30 3214 O 321.379 0.173678 -3.55776 0
M  V30 3215 O 320.238 0.517186 -5.44047 0
M  V30 3216 H 317.332 0.113582 -0.819163 0
M  V30 3217 H 319.878 -0.52773 -1.61286 0
M  V30 3218 H 318.65 -0.896732 -3.80886 0
M  V30 3219 H 318.273 0.816303 -3.8913 0
M  V30 3220 N 319.27 1.56325 -0.20005 0
M  V30 3221 C 320.22 2.15939 0.731743 0
M  V30 3222 C 321.204 1.10154 1.17281 0
M  V30 3223 O 322.396 1.36203 1.13038 0
M  V30 3224 C 319.525 2.82614 1.94895 0
M  V30 3225 C 318.611 3.95596 1.52855 0
M  V30 3226 N 319.002 4.99118 0.819418 0
M  V30 3227 C 317.3 4.07288 1.81748 0
M  V30 3228 C 318.001 5.78513 0.608053 0
M  V30 3229 N 316.977 5.31117 1.15828 0
M  V30 3230 H 320.779 2.9334 0.181285 0
M  V30 3231 H 318.293 1.624 -0.000452172 0
M  V30 3232 H 320.29 3.23718 2.62702 0
M  V30 3233 H 318.95 2.06702 2.50408 0
M  V30 3234 H 319.961 5.15723 0.47436 0
M  V30 3235 H 316.638 3.42509 2.38734 0
M  V30 3236 H 318.028 6.71885 0.0451619 0
M  V30 3237 N 320.748 -0.0735177 1.57428 0
M  V30 3238 C 321.695 -1.08756 2.0357 0
M  V30 3239 C 322.665 -1.38559 0.916 0
M  V30 3240 O 323.85 -1.49656 1.18354 0
M  V30 3241 C 320.99 -2.39657 2.48311 0
M  V30 3242 C 320.103 -2.16399 3.73892 0
M  V30 3243 C 319.238 -3.40852 4.07423 0
M  V30 3244 C 318.277 -3.1295 5.2605 0
M  V30 3245 N 317.414 -4.29729 5.55228 0
M  V30 3246 H 322.254 -0.687104 2.8997 0
M  V30 3247 H 319.791 -0.327709 1.43403 0
M  V30 3248 H 321.749 -3.16081 2.72303 0
M  V30 3249 H 320.379 -2.77508 1.64891 0
M  V30 3250 H 319.431 -1.30676 3.57251 0
M  V30 3251 H 320.743 -1.91788 4.60455 0
M  V30 3252 H 319.897 -4.25671 4.32306 0
M  V30 3253 H 318.636 -3.68537 3.19425 0
M  V30 3254 H 317.641 -2.26526 5.00965 0
M  V30 3255 H 318.866 -2.86589 6.15665 0
M  V30 3256 H 316.812 -4.57448 4.70188 0
M  V30 3257 H 316.729 -4.08385 6.36206 0
M  V30 3258 H 317.997 -5.1555 5.84661 0
M  V30 3259 N 322.226 -1.5378 -0.344866 0
M  V30 3260 C 323.637 -1.62428 -0.920552 0
M  V30 3261 C 323.988 -0.504747 -1.89596 0
M  V30 3262 O 323.113 0.365711 -2.13287 0
M  V30 3263 C 323.708 -2.94419 -1.67639 0
M  V30 3264 C 322.267 -3.05333 -2.20111 0
M  V30 3265 C 321.414 -2.57866 -1.01982 0
M  V30 3266 H 324.365 -1.58222 -0.123042 0
M  V30 3267 H 324.386 -2.83384 -2.53917 0
M  V30 3268 H 323.898 -3.7588 -0.966224 0
M  V30 3269 H 321.999 -2.28502 -2.94308 0
M  V30 3270 H 322.112 -4.10778 -2.46573 0
M  V30 3271 H 320.476 -2.13241 -1.39285 0
M  V30 3272 H 321.259 -3.41765 -0.324308 0
M  V30 3273 N 323.704 0.605807 -1.45491 0
M  V30 3274 C 324.929 1.39625 -1.53361 0
M  V30 3275 C 325.354 1.87351 -0.167645 0
M  V30 3276 O 324.712 1.60243 0.848051 0
M  V30 3277 C 324.76 2.57559 -2.5238 0
M  V30 3278 O 323.864 3.58248 -2.04285 0
M  V30 3279 H 323.205 0.416771 -0.516912 0
M  V30 3280 H 325.735 0.737103 -1.90861 0
M  V30 3281 H 325.745 3.0478 -2.71244 0
M  V30 3282 H 324.42 2.22171 -3.51586 0
M  V30 3283 H 322.997 3.17664 -1.95305 0
M  V30 3284 N 325.182 1.32811 0.848464 0
M  V30 3285 C 326.13 1.22231 1.97895 0
M  V30 3286 C 327.124 0.125749 1.68933 0
M  V30 3287 O 328.33 0.289083 1.77663 0
M  V30 3288 H 324.705 0.379058 0.649476 0
M  V30 3289 H 326.676 2.17828 2.03945 0
M  V30 3290 C 325.425 0.968572 3.33937 0
M  V30 3291 H 324.748 1.80458 3.56756 0
M  V30 3292 H 326.188 0.934808 4.13567 0
M  V30 3293 C 324.647 -0.328628 3.35293 0
M  V30 3294 O 325.177 -1.33848 3.78745 0
M  V30 3295 N 323.383 -0.352788 2.88451 0
M  V30 3296 H 322.93 0.469541 2.53285 0
M  V30 3297 H 322.888 -1.22057 2.89741 0
M  V30 3298 N 326.66 -1.06551 1.16123 0
M  V30 3299 C 327.888 -1.83005 0.965237 0
M  V30 3300 C 328.303 -1.82423 -0.486542 0
M  V30 3301 O 327.66 -1.24152 -1.33763 0
M  V30 3302 C 327.711 -3.29733 1.48183 0
M  V30 3303 O 327.432 -3.30416 2.87674 0
M  V30 3304 C 328.933 -4.22926 1.32848 0
M  V30 3305 H 326.153 -0.577118 0.342309 0
M  V30 3306 H 328.697 -1.3445 1.54089 0
M  V30 3307 H 326.852 -3.75609 0.948517 0
M  V30 3308 H 327.266 -4.22149 3.11272 0
M  V30 3309 H 328.74 -5.23916 1.73827 0
M  V30 3310 H 329.217 -4.38346 0.273692 0
M  V30 3311 H 329.823 -3.82894 1.85127 0
M  V30 3312 N 328.138 -0.959301 -1.25041 0
M  V30 3313 C 329.085 -0.482057 -2.2571 0
M  V30 3314 C 330.055 0.467939 -1.59372 0
M  V30 3315 O 331.24 0.380159 -1.86974 0
M  V30 3316 C 328.38 0.229623 -3.44335 0
M  V30 3317 C 327.493 -0.758156 -4.25295 0
M  V30 3318 C 326.628 -0.0234403 -5.31195 0
M  V30 3319 C 325.667 -1.00184 -6.03846 0
M  V30 3320 N 324.804 -0.29769 -7.01469 0
M  V30 3321 H 329.644 -1.34538 -2.65901 0
M  V30 3322 H 327.181 -0.674592 -1.3072 0
M  V30 3323 H 329.139 0.658856 -4.11965 0
M  V30 3324 H 327.769 1.05696 -3.05005 0
M  V30 3325 H 326.821 -1.30586 -3.57284 0
M  V30 3326 H 328.133 -1.50458 -4.75567 0
M  V30 3327 H 327.287 0.464201 -6.04922 0
M  V30 3328 H 326.026 0.755741 -4.81809 0
M  V30 3329 H 325.031 -1.50044 -5.2893 0
M  V30 3330 H 326.256 -1.78133 -6.55321 0
M  V30 3331 H 324.202 0.462668 -6.54366 0
M  V30 3332 H 324.119 -0.983128 -7.4958 0
M  V30 3333 H 325.387 0.16826 -7.79318 0
M  V30 3334 N 329.616 1.39756 -0.72842 0
M  V30 3335 C 330.862 2.00942 -0.273892 0
M  V30 3336 C 331.195 1.57656 1.13394 0
M  V30 3337 O 330.47 0.802434 1.77176 0
M  V30 3338 C 330.753 3.58211 -0.368346 0
M  V30 3339 C 330.606 4.11534 -1.81548 0
M  V30 3340 C 331.925 4.39372 0.253054 0
M  V30 3341 H 329.044 0.730047 -0.100996 0
M  V30 3342 H 331.686 1.66056 -0.923337 0
M  V30 3343 H 329.836 3.88061 0.184588 0
M  V30 3344 H 331.508 3.92431 -2.42478 0
M  V30 3345 H 329.751 3.65341 -2.33898 0
M  V30 3346 H 330.422 5.20682 -1.83288 0
M  V30 3347 H 332.898 4.15527 -0.218224 0
M  V30 3348 H 331.774 5.48677 0.156585 0
M  V30 3349 H 332.035 4.21358 1.33826 0
M  V30 3350 N 331.094 0.475555 1.50254 0
M  V30 3351 C 332.371 -0.139685 1.95101 0
M  V30 3352 C 332.751 -1.56555 1.41611 0
M  V30 3353 O 332.099 -2.19956 0.618993 0
M  V30 3354 C 332.309 -0.0784298 3.48912 0
M  V30 3355 C 333.657 -0.265095 4.23772 0
M  V30 3356 O 334.681 -0.154808 3.55863 0
M  V30 3357 O 333.54 -0.488327 5.44314 0
M  V30 3358 H 330.634 -0.109236 0.819754 0
M  V30 3359 H 333.18 0.536276 1.61004 0
M  V30 3360 H 331.952 0.916918 3.80405 0
M  V30 3361 H 331.575 -0.795655 3.89558 0
M  V30 3362 N 332.573 -1.56217 0.208337 0
M  V30 3363 C 333.52 -2.19699 -0.707192 0
M  V30 3364 C 334.49 -1.14836 -1.20008 0
M  V30 3365 O 335.675 -1.4314 -1.26157 0
M  V30 3366 C 332.815 -2.87061 -1.91546 0
M  V30 3367 C 331.928 -4.06483 -1.46271 0
M  V30 3368 C 331.063 -4.61665 -2.62752 0
M  V30 3369 C 330.102 -5.73417 -2.14147 0
M  V30 3370 N 329.239 -6.22948 -3.23853 0
M  V30 3371 H 334.079 -2.97575 -0.159111 0
M  V30 3372 H 331.616 -1.46948 -0.0667874 0
M  V30 3373 H 333.574 -3.24294 -2.62468 0
M  V30 3374 H 332.204 -2.11725 -2.43664 0
M  V30 3375 H 331.256 -3.74825 -0.648886 0
M  V30 3376 H 332.568 -4.87271 -1.06622 0
M  V30 3377 H 331.722 -5.01272 -3.41776 0
M  V30 3378 H 330.461 -3.80013 -3.05682 0
M  V30 3379 H 329.466 -5.33326 -1.33581 0
M  V30 3380 H 330.691 -6.56897 -1.72232 0
M  V30 3381 H 328.637 -5.44213 -3.6629 0
M  V30 3382 H 328.554 -6.98823 -2.88414 0
M  V30 3383 H 329.822 -6.6721 -4.03052 0
M  V30 3384 N 334.051 0.0651679 -1.57465 0
M  V30 3385 C 335.279 0.775808 -1.91804 0
M  V30 3386 C 335.694 1.70782 -0.804916 0
M  V30 3387 O 335.051 1.81153 0.221311 0
M  V30 3388 C 335.102 1.56381 -3.25925 0
M  V30 3389 O 334.823 0.669248 -4.32958 0
M  V30 3390 C 336.324 2.37485 -3.7432 0
M  V30 3391 H 333.544 0.2202 -0.63384 0
M  V30 3392 H 336.088 0.0334587 -2.04473 0
M  V30 3393 H 334.243 2.25837 -3.14764 0
M  V30 3394 H 334.657 1.21801 -5.10162 0
M  V30 3395 H 336.131 2.88223 -4.70778 0
M  V30 3396 H 336.608 3.17307 -3.03666 0
M  V30 3397 H 337.214 1.73173 -3.88447 0
M  V30 3398 N 335.529 1.53961 0.336706 0
M  V30 3399 C 336.775 1.7179 1.07777 0
M  V30 3400 C 337.108 0.483263 1.88091 0
M  V30 3401 O 336.383 -0.519747 1.87427 0
M  V30 3402 C 336.666 2.98558 2.01334 0
M  V30 3403 C 336.519 4.32245 1.24437 0
M  V30 3404 C 337.838 3.21023 3.01052 0
M  V30 3405 H 334.957 0.625089 0.390426 0
M  V30 3406 H 337.599 1.86641 0.35567 0
M  V30 3407 H 335.749 2.86028 2.62908 0
M  V30 3408 H 337.421 4.56637 0.654243 0
M  V30 3409 H 335.664 4.30344 0.546458 0
M  V30 3410 H 336.335 5.17137 1.93063 0
M  V30 3411 H 338.811 3.32929 2.49595 0
M  V30 3412 H 337.687 4.11104 3.6371 0
M  V30 3413 H 337.948 2.37637 3.72802 0
M  V30 3414 N 337.007 -0.598083 1.45811 0
M  V30 3415 C 337.917 -1.73632 1.57763 0
M  V30 3416 C 338.933 -1.67763 0.461676 0
M  V30 3417 O 340.109 -1.87949 0.723685 0
M  V30 3418 C 337.174 -3.10114 1.55018 0
M  V30 3419 C 336.235 -3.27364 2.77726 0
M  V30 3420 C 335.468 -4.57334 2.75102 0
M  V30 3421 O 335.691 -5.40258 1.8297 0
M  V30 3422 O 334.625 -4.77502 3.66437 0
M  V30 3423 H 338.451 -1.66498 2.53992 0
M  V30 3424 H 336.036 -0.763308 1.28429 0
M  V30 3425 H 337.918 -3.9141 1.56129 0
M  V30 3426 H 336.593 -3.17718 0.619431 0
M  V30 3427 H 335.5 -2.45619 2.82174 0
M  V30 3428 H 336.833 -3.24641 3.69958 0
M  V30 3429 N 338.485 -1.33259 -0.841409 0
M  V30 3430 C 339.901 -1.12538 -1.13169 0
M  V30 3431 C 340.101 0.0854037 -2.01319 0
M  V30 3432 O 339.157 0.766417 -2.40587 0
M  V30 3433 C 340.47 -2.41156 -1.79623 0
M  V30 3434 C 342.018 -2.47038 -1.922 0
M  V30 3435 C 342.493 -3.7561 -2.6207 0
M  V30 3436 N 343.984 -3.76667 -2.69585 0
M  V30 3437 C 344.719 -4.72861 -3.2433 0
M  V30 3438 N 344.215 -5.79428 -3.79783 0
M  V30 3439 N 346.008 -4.6034 -3.22558 0
M  V30 3440 H 338.159 -2.10868 -0.254676 0
M  V30 3441 H 340.422 -0.931615 -0.175493 0
M  V30 3442 H 340.128 -3.29747 -1.22311 0
M  V30 3443 H 340.002 -2.53114 -2.79666 0
M  V30 3444 H 342.389 -1.58898 -2.48667 0
M  V30 3445 H 342.47 -2.39022 -0.911148 0
M  V30 3446 H 342.114 -4.64131 -2.06263 0
M  V30 3447 H 342.044 -3.80902 -3.63622 0
M  V30 3448 H 344.535 -2.99648 -2.30259 0
M  V30 3449 H 344.848 -6.48867 -4.19752 0
M  V30 3450 H 343.193 -5.83166 -3.78078 0
M  V30 3451 H 346.384 -3.76244 -2.78492 0
M  V30 3452 H 346.557 -5.35478 -3.64921 0
M  V30 3453 N 339.963 1.05934 -1.16686 0
M  V30 3454 C 340.91 2.13499 -0.876748 0
M  V30 3455 C 341.88 1.65162 0.176299 0
M  V30 3456 O 343.065 1.90757 0.0407143 0
M  V30 3457 C 340.205 3.42912 -0.387967 0
M  V30 3458 C 339.318 4.04964 -1.50426 0
M  V30 3459 C 338.453 5.22266 -0.970125 0
M  V30 3460 C 337.492 5.76309 -2.06238 0
M  V30 3461 N 336.629 6.84922 -1.54356 0
M  V30 3462 H 341.469 2.37654 -1.7979 0
M  V30 3463 H 339.006 1.16598 -0.896843 0
M  V30 3464 H 340.964 4.17111 -0.086186 0
M  V30 3465 H 339.594 3.18963 0.496235 0
M  V30 3466 H 338.646 3.28277 -1.92193 0
M  V30 3467 H 339.958 4.41122 -2.32836 0
M  V30 3468 H 339.112 6.03506 -0.621743 0
M  V30 3469 H 337.851 4.87564 -0.115377 0
M  V30 3470 H 336.856 4.93704 -2.41942 0
M  V30 3471 H 338.081 6.13062 -2.92115 0
M  V30 3472 H 336.027 6.52131 -0.711406 0
M  V30 3473 H 335.944 7.20043 -2.30379 0
M  V30 3474 H 337.212 7.69832 -1.22387 0
M  V30 3475 N 341.441 0.965919 1.2453 0
M  V30 3476 C 342.681 0.634656 1.94297 0
M  V30 3477 C 343.045 -0.814822 1.73852 0
M  V30 3478 O 344.246 -1.25622 2.3764 0
M  V30 3479 C 342.517 0.99702 3.43212 0
M  V30 3480 S 344.076 0.780038 4.31811 0
M  V30 3481 H 340.894 0.232893 0.671775 0
M  V30 3482 H 343.496 1.24249 1.50938 0
M  V30 3483 H 342.2 2.04886 3.55598 0
M  V30 3484 H 341.731 0.379888 3.91562 0
M  V30 3485 H 343.746 -0.343512 4.9501 0
M  V30 3486 N 342.919 -1.39368 0.735821 0
M  V30 3487 C 344.159 -2.02349 0.288813 0
M  V30 3488 C 344.523 -1.57127 -1.10341 0
M  V30 3489 O 345.724 -2.12312 -1.64854 0
M  V30 3490 C 343.995 -3.55288 0.387986 0
M  V30 3491 S 345.554 -4.38795 0.0209408 0
M  V30 3492 H 342.372 -0.701944 0.113115 0
M  V30 3493 H 344.974 -1.70164 0.962518 0
M  V30 3494 H 343.678 -3.85691 1.40252 0
M  V30 3495 H 343.209 -3.92227 -0.303512 0
M  V30 3496 H 345.224 -4.81595 -1.19503 0
M  V30 3497 N 344.397 -0.483516 -1.5 0
M  V30 3498 C 345.643 0.0672592 -2.02688 0
M  V30 3499 C 345.976 1.38247 -1.36387 0
M  V30 3500 O 345.251 1.88131 -0.493675 0
M  V30 3501 C 345.534 0.238109 -3.59312 0
M  V30 3502 C 345.387 -1.099 -4.36168 0
M  V30 3503 C 346.706 0.986916 -4.28892 0
M  V30 3504 H 343.825 0.0229696 -0.736642 0
M  V30 3505 H 346.467 -0.631527 -1.79197 0
M  V30 3506 H 344.617 0.8333 -3.79458 0
M  V30 3507 H 346.289 -1.73172 -4.27562 0
M  V30 3508 H 344.532 -1.69261 -3.99416 0
M  V30 3509 H 345.203 -0.932954 -5.44059 0
M  V30 3510 H 347.679 0.482302 -4.13295 0
M  V30 3511 H 346.555 1.07527 -5.38265 0
M  V30 3512 H 346.816 2.0265 -3.92919 0
M  V30 3513 N 345.875 1.56104 -0.216619 0
M  V30 3514 C 346.785 2.23694 0.706982 0
M  V30 3515 C 347.801 1.24295 1.21765 0
M  V30 3516 O 348.977 1.57094 1.2603 0
M  V30 3517 C 346.042 2.8998 1.90033 0
M  V30 3518 C 345.103 4.04708 1.43213 0
M  V30 3519 C 344.336 4.67824 2.56859 0
M  V30 3520 O 344.559 4.29913 3.74874 0
M  V30 3521 O 343.493 5.56905 2.28343 0
M  V30 3522 H 347.319 3.03272 0.161235 0
M  V30 3523 H 344.904 1.49394 0.0136177 0
M  V30 3524 H 346.786 3.31837 2.59735 0
M  V30 3525 H 345.461 2.13365 2.43428 0
M  V30 3526 H 344.368 3.6743 0.70327 0
M  V30 3527 H 345.701 4.83051 0.944615 0
M  V30 3528 N 347.353 -0.0568162 1.57498 0
M  V30 3529 C 348.593 -0.758273 1.89815 0
M  V30 3530 C 348.957 -1.73978 0.812132 0
M  V30 3531 O 350.158 -2.48744 1.01881 0
M  V30 3532 C 348.429 -1.43465 3.27342 0
M  V30 3533 S 349.988 -2.1691 3.81439 0
M  V30 3534 H 346.806 -0.251836 0.664906 0
M  V30 3535 H 349.408 -0.0137997 1.95495 0
M  V30 3536 H 348.112 -0.706693 4.0427 0
M  V30 3537 H 347.643 -2.21825 3.24896 0
M  V30 3538 H 349.658 -3.43658 3.5793 0
M  V30 3539 N 348.832 -1.54138 -0.328536 0
M  V30 3540 C 350.243 -1.63395 -0.903272 0
M  V30 3541 C 350.594 -0.524828 -1.8905 0
M  V30 3542 O 349.719 0.343068 -2.13663 0
M  V30 3543 C 350.314 -2.9618 -1.64507 0
M  V30 3544 C 348.873 -3.0765 -2.1686 0
M  V30 3545 C 348.02 -2.58933 -0.992416 0
M  V30 3546 H 350.971 -1.58344 -0.106253 0
M  V30 3547 H 350.992 -2.86061 -2.50897 0
M  V30 3548 H 350.504 -3.76884 -0.926302 0
M  V30 3549 H 348.605 -2.31611 -2.91868 0
M  V30 3550 H 348.718 -4.1337 -2.42202 0
M  V30 3551 H 347.082 -2.14706 -1.37016 0
M  V30 3552 H 347.865 -3.42089 -0.288041 0
M  V30 3553 N 350.31 0.590341 -1.46126 0
M  V30 3554 C 351.721 1.17243 -1.45296 0
M  V30 3555 C 352.072 1.95281 -0.189723 0
M  V30 3556 O 351.197 2.04502 0.707674 0
M  V30 3557 C 351.792 2.13284 -2.6324 0
M  V30 3558 C 350.351 2.66832 -2.65476 0
M  V30 3559 C 349.498 1.42557 -2.3785 0
M  V30 3560 H 352.449 0.378692 -1.54116 0
M  V30 3561 H 352.47 2.96619 -2.38323 0
M  V30 3562 H 351.982 1.56459 -3.55165 0
M  V30 3563 H 350.083 3.27548 -1.77603 0
M  V30 3564 H 350.196 3.10088 -3.65215 0
M  V30 3565 H 348.56 1.72107 -1.87753 0
M  V30 3566 H 349.343 0.875741 -3.31942 0
M  V30 3567 N 351.788 1.33704 0.83433 0
M  V30 3568 C 353.028 1.26754 1.60352 0
M  V30 3569 C 353.392 -0.163182 1.91305 0
M  V30 3570 O 354.593 -0.3567 2.66423 0
M  V30 3571 C 352.864 2.12262 2.8754 0
M  V30 3572 S 354.423 2.22549 3.78176 0
M  V30 3573 H 351.241 0.450879 0.549753 0
M  V30 3574 H 353.843 1.68788 0.986444 0
M  V30 3575 H 352.547 3.15238 2.62779 0
M  V30 3576 H 352.078 1.71082 3.54252 0
M  V30 3577 H 354.093 1.3899 4.76336 0
M  V30 3578 N 353.266 -1.05314 1.17247 0
M  V30 3579 C 354.677 -1.59753 0.96623 0
M  V30 3580 C 355.028 -1.9005 -0.487378 0
M  V30 3581 O 354.153 -1.68126 -1.36245 0
M  V30 3582 C 354.748 -2.90249 1.74759 0
M  V30 3583 C 353.307 -3.41352 1.58606 0
M  V30 3584 C 352.454 -2.15103 1.75002 0
M  V30 3585 H 355.405 -0.881406 1.31973 0
M  V30 3586 H 355.426 -3.60097 1.22925 0
M  V30 3587 H 354.938 -2.68166 2.8055 0
M  V30 3588 H 353.039 -3.68474 0.552985 0
M  V30 3589 H 353.152 -4.16019 2.37624 0
M  V30 3590 H 351.516 -2.25804 1.17833 0
M  V30 3591 H 352.299 -1.95491 2.82202 0
M  V30 3592 N 354.744 -0.972509 -1.24016 0
M  V30 3593 C 355.707 -0.511403 -2.23422 0
M  V30 3594 C 356.707 0.394679 -1.55881 0
M  V30 3595 O 357.897 0.189469 -1.73167 0
M  V30 3596 C 355.029 0.258769 -3.39916 0
M  V30 3597 H 356.222 -1.39024 -2.6573 0
M  V30 3598 H 353.775 -0.757585 -1.36713 0
M  V30 3599 H 354.51 1.1545 -3.03054 0
M  V30 3600 H 354.295 -0.391522 -3.9014 0
M  V30 3601 H 355.785 0.570244 -4.13688 0
M  V30 3602 N 356.222 1.38976 -0.743202 0
M  V30 3603 C 357.633 1.83123 -0.363732 0
M  V30 3604 C 357.984 1.6205 1.10609 0
M  V30 3605 O 357.109 1.11606 1.854 0
M  V30 3606 C 357.704 3.32439 -0.653408 0
M  V30 3607 C 356.263 3.74974 -0.327338 0
M  V30 3608 C 355.41 2.61878 -0.911875 0
M  V30 3609 H 358.361 1.27852 -0.940191 0
M  V30 3610 H 358.382 3.80432 0.0720031 0
M  V30 3611 H 357.894 3.47745 -1.72323 0
M  V30 3612 H 355.995 3.65252 0.736314 0
M  V30 3613 H 356.108 4.72106 -0.815631 0
M  V30 3614 H 354.472 2.52448 -0.337944 0
M  V30 3615 H 355.255 2.79987 -1.98651 0
M  V30 3616 N 357.7 0.491464 1.49741 0
M  V30 3617 C 359.111 0.0413169 1.86654 0
M  V30 3618 C 359.462 -1.36985 1.40462 0
M  V30 3619 O 358.587 -2.01917 0.778354 0
M  V30 3620 C 359.182 0.0682023 3.38731 0
M  V30 3621 C 357.741 -0.32656 3.74981 0
M  V30 3622 C 356.888 0.444888 2.73708 0
M  V30 3623 H 359.839 0.704733 1.42194 0
M  V30 3624 H 359.86 -0.729322 3.73445 0
M  V30 3625 H 359.372 1.09539 3.72321 0
M  V30 3626 H 357.473 -1.35734 3.46997 0
M  V30 3627 H 357.586 -0.013741 4.79098 0
M  V30 3628 H 355.95 -0.104062 2.54487 0
M  V30 3629 H 356.733 1.47197 3.10142 0
M  V30 3630 N 359.178 -1.55987 0.224894 0
M  V30 3631 C 360.424 -1.98684 -0.406502 0
M  V30 3632 C 360.757 -1.11248 -1.59177 0
M  V30 3633 O 360.032 -0.170909 -1.93748 0
M  V30 3634 C 360.315 -3.50218 -0.837808 0
M  V30 3635 C 360.168 -4.48426 0.351332 0
M  V30 3636 C 361.487 -4.06243 -1.69278 0
M  V30 3637 H 358.606 -0.722337 -0.146283 0
M  V30 3638 H 361.248 -1.87255 0.321799 0
M  V30 3639 H 359.398 -3.60089 -1.45837 0
M  V30 3640 H 361.07 -4.50562 0.989526 0
M  V30 3641 H 359.313 -4.22159 0.998207 0
M  V30 3642 H 359.984 -5.52 0.00655905 0
M  V30 3643 H 362.46 -3.99337 -1.16914 0
M  V30 3644 H 361.336 -5.12581 -1.96346 0
M  V30 3645 H 361.597 -3.53332 -2.65723 0
M  V30 3646 N 360.656 0.0484629 -1.57525 0
M  V30 3647 C 361.619 1.03956 -2.04269 0
M  V30 3648 C 362.619 1.30211 -0.943496 0
M  V30 3649 O 363.809 1.25539 -1.20771 0
M  V30 3650 C 360.941 2.37742 -2.44319 0
M  V30 3651 H 362.134 0.636182 -2.93075 0
M  V30 3652 H 359.687 0.294811 -1.53494 0
M  V30 3653 H 360.422 2.82866 -1.5861 0
M  V30 3654 H 360.207 2.20021 -3.24551 0
M  V30 3655 H 361.697 3.08936 -2.80978 0
M  V30 3656 N 362.134 1.5431 0.320358 0
M  V30 3657 C 363.382 1.72327 1.05583 0
M  V30 3658 C 363.703 0.50149 1.88441 0
M  V30 3659 O 362.973 -0.48448 1.89815 0
M  V30 3660 H 361.553 0.635387 0.3928 0
M  V30 3661 H 364.215 1.91621 0.356019 0
M  V30 3662 H 363.311 2.60426 1.72003 0
M  V30 3663 N 363.613 -0.582584 1.46437 0
M  V30 3664 C 365.024 -1.1647 1.45916 0
M  V30 3665 C 365.375 -1.95177 0.200077 0
M  V30 3666 O 364.5 -2.04874 -0.696819 0
M  V30 3667 C 365.095 -2.11885 2.64367 0
M  V30 3668 C 363.654 -2.65421 2.66887 0
M  V30 3669 C 362.801 -1.41294 2.38603 0
M  V30 3670 H 365.752 -0.370514 1.54314 0
M  V30 3671 H 365.773 -2.9535 2.39892 0
M  V30 3672 H 365.285 -1.54573 3.5599 0
M  V30 3673 H 363.386 -3.26602 1.79338 0
M  V30 3674 H 363.499 -3.08147 3.66854 0
M  V30 3675 H 361.863 -1.71109 1.88663 0
M  V30 3676 H 362.646 -0.858125 3.32402 0
M  V30 3677 N 365.091 -1.34144 -0.827227 0
M  V30 3678 C 366.316 -1.29476 -1.62021 0
M  V30 3679 C 366.741 0.129292 -1.87655 0
M  V30 3680 O 366.099 1.08967 -1.449 0
M  V30 3681 C 366.147 -2.08702 -2.94068 0
M  V30 3682 O 365.251 -1.45359 -3.85933 0
M  V30 3683 H 364.592 -0.444881 -0.492927 0
M  V30 3684 H 367.122 -1.76882 -1.02829 0
M  V30 3685 H 367.132 -2.19898 -3.43669 0
M  V30 3686 H 365.807 -3.12241 -2.74734 0
M  V30 3687 H 364.384 -1.42879 -3.44442 0
M  V30 3688 N 366.569 1.04691 -1.17803 0
M  V30 3689 C 367.815 1.78045 -0.970969 0
M  V30 3690 C 368.148 1.87686 0.498751 0
M  V30 3691 O 367.423 1.38035 1.37027 0
M  V30 3692 C 367.706 3.2166 -1.61884 0
M  V30 3693 C 367.559 3.20001 -3.161 0
M  V30 3694 C 368.878 4.1962 -1.3269 0
M  V30 3695 H 365.997 0.64633 -0.354155 0
M  V30 3696 H 368.639 1.22333 -1.45378 0
M  V30 3697 H 366.789 3.69232 -1.20831 0
M  V30 3698 H 368.461 2.80467 -3.66246 0
M  V30 3699 H 366.704 2.58203 -3.48588 0
M  V30 3700 H 367.375 4.21386 -3.56564 0
M  V30 3701 H 369.851 3.80567 -1.68249 0
M  V30 3702 H 368.727 5.18339 -1.80599 0
M  V30 3703 H 368.988 4.414 -0.248622 0
M  V30 3704 N 368.047 0.979072 1.23499 0
M  V30 3705 C 369.294 0.647219 1.91878 0
M  V30 3706 C 369.622 -0.819074 1.76413 0
M  V30 3707 O 368.877 -1.60616 1.11808 0
M  V30 3708 C 369.176 0.981932 3.43646 0
M  V30 3709 C 368.842 2.43822 3.79291 0
M  V30 3710 C 367.504 2.83622 3.88731 0
M  V30 3711 C 369.856 3.3828 3.96505 0
M  V30 3712 C 367.184 4.16897 4.12812 0
M  V30 3713 C 369.536 4.71197 4.22085 0
M  V30 3714 C 368.2 5.10758 4.29747 0
M  V30 3715 H 367.47 0.236834 0.702133 0
M  V30 3716 H 370.117 1.23268 1.46551 0
M  V30 3717 H 368.422 0.314365 3.90537 0
M  V30 3718 H 370.119 0.703395 3.94783 0
M  V30 3719 H 366.709 2.11966 3.72516 0
M  V30 3720 H 370.893 3.0871 3.88603 0
M  V30 3721 H 366.149 4.47157 4.16966 0
M  V30 3722 H 370.323 5.44348 4.34348 0
M  V30 3723 H 367.95 6.1405 4.48159 0
M  V30 3724 N 369.525 -1.3858 0.750561 0
M  V30 3725 C 370.455 -2.33102 0.136237 0
M  V30 3726 C 371.436 -1.54713 -0.706965 0
M  V30 3727 O 372.621 -1.83043 -0.648769 0
M  V30 3728 C 369.751 -3.38882 -0.760017 0
M  V30 3729 C 368.705 -4.27995 -0.0197785 0
M  V30 3730 C 368.031 -5.24605 -1.03408 0
M  V30 3731 C 369.331 -5.09554 1.14684 0
M  V30 3732 H 371.025 -2.84726 0.925822 0
M  V30 3733 H 368.571 -1.36898 0.446654 0
M  V30 3734 H 370.524 -4.0397 -1.19943 0
M  V30 3735 H 369.248 -2.85734 -1.58189 0
M  V30 3736 H 367.907 -3.64409 0.400184 0
M  V30 3737 H 367.555 -4.67746 -1.84994 0
M  V30 3738 H 367.255 -5.85081 -0.543464 0
M  V30 3739 H 368.779 -5.9257 -1.47288 0
M  V30 3740 H 370.193 -5.67899 0.785118 0
M  V30 3741 H 368.59 -5.7925 1.56812 0
M  V30 3742 H 369.66 -4.4347 1.96118 0
M  V30 3743 N 371.003 -0.499398 -1.49478 0
M  V30 3744 C 372.25 0.0456899 -2.02448 0
M  V30 3745 C 372.578 1.37142 -1.37921 0
M  V30 3746 O 371.833 1.89111 -0.503544 0
M  V30 3747 C 372.132 0.248424 -3.56536 0
M  V30 3748 C 371.798 -0.999107 -4.39692 0
M  V30 3749 C 370.46 -1.34108 -4.62135 0
M  V30 3750 C 372.812 -1.82842 -4.88076 0
M  V30 3751 C 370.14 -2.51191 -5.30208 0
M  V30 3752 C 372.492 -2.99076 -5.57437 0
M  V30 3753 C 371.156 -3.33655 -5.78127 0
M  V30 3754 H 370.426 0.0167191 -0.740811 0
M  V30 3755 H 373.073 -0.65923 -1.79795 0
M  V30 3756 H 371.378 1.03586 -3.77859 0
M  V30 3757 H 373.075 0.684605 -3.95113 0
M  V30 3758 H 369.665 -0.722729 -4.22463 0
M  V30 3759 H 373.849 -1.57737 -4.70566 0
M  V30 3760 H 369.105 -2.78221 -5.44429 0
M  V30 3761 H 373.279 -3.63664 -5.93904 0
M  V30 3762 H 370.906 -4.24483 -6.30649 0
M  V30 3763 N 372.481 1.55866 -0.233164 0
M  V30 3764 C 373.892 1.847 0.272554 0
M  V30 3765 C 374.243 1.15477 1.58617 0
M  V30 3766 O 373.368 0.42841 2.12117 0
M  V30 3767 C 373.963 3.35071 0.501299 0
M  V30 3768 C 372.522 3.6418 0.951304 0
M  V30 3769 C 371.669 2.77292 0.0208209 0
M  V30 3770 H 374.62 1.52005 -0.456074 0
M  V30 3771 H 374.641 3.55906 1.34577 0
M  V30 3772 H 374.153 3.85424 -0.454936 0
M  V30 3773 H 372.254 3.19293 1.92049 0
M  V30 3774 H 372.367 4.72071 0.817675 0
M  V30 3775 H 370.731 2.49131 0.529723 0
M  V30 3776 H 371.514 3.30448 -0.93054 0
M  V30 3777 N 373.959 -0.0401083 1.57549 0
M  V30 3778 C 375.37 -0.588097 1.77196 0
M  V30 3779 C 375.721 -1.76209 0.862832 0
M  V30 3780 O 374.846 -2.16331 0.0548389 0
M  V30 3781 C 375.441 -1.07363 3.21339 0
M  V30 3782 C 374 -1.56723 3.42221 0
M  V30 3783 C 373.147 -0.50041 2.72747 0
M  V30 3784 H 376.098 0.186119 1.57605 0
M  V30 3785 H 376.119 -1.94143 3.27244 0
M  V30 3786 H 375.631 -0.218975 3.87482 0
M  V30 3787 H 373.732 -2.4441 2.81237 0
M  V30 3788 H 373.845 -1.62234 4.50796 0
M  V30 3789 H 372.209 -0.952894 2.36203 0
M  V30 3790 H 372.992 0.344599 3.41566 0
M  V30 3791 N 375.437 -1.54477 -0.31217 0
M  V30 3792 C 376.384 -1.84655 -1.38461 0
M  V30 3793 C 377.354 -0.694536 -1.50882 0
M  V30 3794 O 378.539 -0.942081 -1.6592 0
M  V30 3795 C 375.679 -2.0896 -2.74645 0
M  V30 3796 C 374.792 -3.36618 -2.70763 0
M  V30 3797 C 373.927 -3.50824 -3.98868 0
M  V30 3798 C 372.966 -4.72315 -3.89339 0
M  V30 3799 N 372.103 -4.83387 -5.09197 0
M  V30 3800 H 376.943 -2.76142 -1.12026 0
M  V30 3801 H 374.48 -1.36748 -0.542065 0
M  V30 3802 H 376.438 -2.21045 -3.53829 0
M  V30 3803 H 375.068 -1.20752 -2.99364 0
M  V30 3804 H 374.12 -3.33211 -1.83506 0
M  V30 3805 H 375.432 -4.25917 -2.59608 0
M  V30 3806 H 374.586 -3.62513 -4.86486 0
M  V30 3807 H 373.325 -2.59638 -4.12843 0
M  V30 3808 H 372.33 -4.6067 -3.00105 0
M  V30 3809 H 373.555 -5.64897 -3.76919 0
M  V30 3810 H 371.501 -3.9512 -5.23657 0
M  V30 3811 H 371.418 -5.66669 -5.00422 0
M  V30 3812 H 372.686 -4.9942 -5.98498 0
M  V30 3813 N 376.915 0.57481 -1.46744 0
M  V30 3814 C 378.326 1.15695 -1.46532 0
M  V30 3815 C 378.677 1.95068 -0.210425 0
M  V30 3816 O 377.802 2.05241 0.685944 0
M  V30 3817 C 378.397 2.1048 -2.65487 0
M  V30 3818 C 376.956 2.64002 -2.68291 0
M  V30 3819 C 376.103 1.40026 -2.39349 0
M  V30 3820 H 379.054 0.362325 -1.54509 0
M  V30 3821 H 379.075 2.94074 -2.41455 0
M  V30 3822 H 378.587 1.52683 -3.56805 0
M  V30 3823 H 376.688 3.25646 -1.81067 0
M  V30 3824 H 376.801 3.06197 -3.68483 0
M  V30 3825 H 375.165 1.70106 -1.89568 0
M  V30 3826 H 375.948 0.840485 -3.32852 0
M  V30 3827 N 378.394 1.34581 0.820102 0
M  V30 3828 C 379.341 1.2639 1.93117 0
M  V30 3829 C 380.311 0.138554 1.65521 0
M  V30 3830 O 381.496 0.320004 1.88097 0
M  V30 3831 C 378.636 1.02812 3.29429 0
M  V30 3832 C 377.749 2.24146 3.693 0
M  V30 3833 C 376.884 1.93829 4.94574 0
M  V30 3834 C 375.923 3.1129 5.27034 0
M  V30 3835 N 375.06 2.80838 6.43486 0
M  V30 3836 H 379.9 2.21408 1.99455 0
M  V30 3837 H 377.437 1.10077 0.975784 0
M  V30 3838 H 379.395 0.871788 4.0799 0
M  V30 3839 H 378.025 0.114612 3.22596 0
M  V30 3840 H 377.077 2.50691 2.86109 0
M  V30 3841 H 378.389 3.11899 3.89257 0
M  V30 3842 H 377.543 1.74948 5.80929 0
M  V30 3843 H 376.282 1.03341 4.76626 0
M  V30 3844 H 375.287 3.30764 4.39175 0
M  V30 3845 H 376.512 4.02561 5.4692 0
M  V30 3846 H 374.458 1.92929 6.26988 0
M  V30 3847 H 374.375 3.62123 6.63629 0
M  V30 3848 H 375.643 2.65467 7.32903 0
M  V30 3849 N 379.872 -1.04064 1.18357 0
M  V30 3850 C 381.149 -1.74252 0.888581 0
M  V30 3851 C 381.529 -2.02138 -0.60856 0
M  V30 3852 O 380.877 -1.66656 -1.56327 0
M  V30 3853 C 381.087 -3.0277 1.73584 0
M  V30 3854 C 382.435 -3.76506 1.96286 0
M  V30 3855 O 383.459 -3.12668 1.70637 0
M  V30 3856 O 382.318 -4.91243 2.39464 0
M  V30 3857 H 379.412 -0.758271 0.330082 0
M  V30 3858 H 381.958 -1.1013 1.2911 0
M  V30 3859 H 380.73 -2.78299 2.75073 0
M  V30 3860 H 380.353 -3.74631 1.33183 0
M  V30 3861 N 381.35 -0.985608 -1.22978 0
M  V30 3862 C 382.578 -0.675582 -1.95559 0
M  V30 3863 C 382.993 0.758413 -1.72897 0
M  V30 3864 O 382.35 1.51094 -1.02357 0
M  V30 3865 C 382.401 -0.96293 -3.48439 0
M  V30 3866 O 382.122 -2.34057 -3.70336 0
M  V30 3867 C 383.623 -0.669585 -4.38214 0
M  V30 3868 H 380.843 -0.250523 -0.622478 0
M  V30 3869 H 383.387 -1.3184 -1.56328 0
M  V30 3870 H 381.542 -0.366033 -3.85667 0
M  V30 3871 H 381.956 -2.43424 -4.64591 0
M  V30 3872 H 383.43 -0.920967 -5.44263 0
M  V30 3873 H 383.907 0.396383 -4.37408 0
M  V30 3874 H 384.513 -1.2472 -4.06602 0
M  V30 3875 N 382.828 1.3818 -0.7579 0
M  V30 3876 C 383.758 2.33027 -0.148597 0
M  V30 3877 C 384.739 1.55085 0.69875 0
M  V30 3878 O 385.924 1.83384 0.639053 0
M  V30 3879 C 383.054 3.3928 0.742034 0
M  V30 3880 C 382.008 4.28 -0.00291946 0
M  V30 3881 C 381.334 5.25146 1.00625 0
M  V30 3882 C 382.634 5.08938 -1.17385 0
M  V30 3883 H 384.328 2.84231 -0.940909 0
M  V30 3884 H 381.874 1.36659 -0.453908 0
M  V30 3885 H 383.827 4.046 1.17799 0
M  V30 3886 H 382.551 2.86569 1.56671 0
M  V30 3887 H 381.21 3.64192 -0.419504 0
M  V30 3888 H 380.858 4.68721 1.8251 0
M  V30 3889 H 380.558 5.85361 0.512428 0
M  V30 3890 H 382.082 5.93342 1.44143 0
M  V30 3891 H 383.496 5.67474 -0.815224 0
M  V30 3892 H 381.893 5.7841 -1.59882 0
M  V30 3893 H 382.963 4.42424 -1.98468 0
M  V30 3894 N 384.306 0.507319 1.49211 0
M  V30 3895 C 385.239 -0.314509 2.26022 0
M  V30 3896 C 386.217 -0.964849 1.30879 0
M  V30 3897 O 387.401 -0.993707 1.6018 0
M  V30 3898 C 384.528 -1.44346 3.06402 0
M  V30 3899 C 383.574 -0.90685 4.16748 0
M  V30 3900 S 384.407 0.207392 5.35098 0
M  V30 3901 C 385.563 -0.924573 6.19033 0
M  V30 3902 H 385.796 0.337416 2.95379 0
M  V30 3903 H 383.329 0.292718 1.516 0
M  V30 3904 H 385.287 -2.09029 3.53295 0
M  V30 3905 H 383.948 -2.06702 2.36502 0
M  V30 3906 H 383.141 -1.75309 4.72528 0
M  V30 3907 H 382.743 -0.33712 3.72478 0
M  V30 3908 H 385.035 -1.82839 6.52362 0
M  V30 3909 H 385.978 -0.405248 7.06939 0
M  V30 3910 H 386.386 -1.19476 5.51712 0
M  V30 3911 N 385.784 -1.5574 0.241426 0
M  V30 3912 C 387.033 -1.97986 -0.385295 0
M  V30 3913 C 387.346 -1.13267 -1.59468 0
M  V30 3914 O 388.552 -1.45501 -2.2922 0
M  V30 3915 C 387.008 -3.52275 -0.736884 0
M  V30 3916 C 386.616 -4.45726 0.450796 0
M  V30 3917 C 388.36 -4.03189 -1.3281 0
M  V30 3918 C 386.267 -5.91352 0.0756662 0
M  V30 3919 H 385.197 -0.739386 -0.147731 0
M  V30 3920 H 387.848 -1.80308 0.340779 0
M  V30 3921 H 386.23 -3.65628 -1.52094 0
M  V30 3922 H 387.404 -4.44131 1.22819 0
M  V30 3923 H 385.719 -4.05264 0.956573 0
M  V30 3924 H 388.316 -5.09505 -1.62201 0
M  V30 3925 H 388.659 -3.50212 -2.25071 0
M  V30 3926 H 389.192 -3.93141 -0.607069 0
M  V30 3927 H 385.931 -6.48354 0.965272 0
M  V30 3928 H 385.451 -5.96095 -0.665635 0
M  V30 3929 H 387.13 -6.46084 -0.344075 0
M  V30 3930 N 387.262 0.0317525 -1.57568 0
M  V30 3931 C 388.487 0.738664 -1.938 0
M  V30 3932 C 388.912 1.68242 -0.841208 0
M  V30 3933 O 388.27 1.80157 0.203267 0
M  V30 3934 C 388.318 1.47417 -3.29091 0
M  V30 3935 O 387.422 2.5872 -3.2115 0
M  V30 3936 H 386.763 0.198856 -0.633524 0
M  V30 3937 H 389.293 -0.0119713 -2.04596 0
M  V30 3938 H 389.303 1.84468 -3.63917 0
M  V30 3939 H 387.978 0.781988 -4.08482 0
M  V30 3940 H 386.555 2.24231 -2.97951 0
M  V30 3941 N 388.74 1.54641 0.303973 0
M  V30 3942 C 390.156 1.45788 0.649463 0
M  V30 3943 C 390.356 0.64666 1.90842 0
M  V30 3944 O 389.412 0.153183 2.52035 0
M  V30 3945 C 390.725 2.89718 0.805227 0
M  V30 3946 C 392.273 2.99742 0.901305 0
M  V30 3947 C 392.748 4.44863 1.08909 0
M  V30 3948 N 394.239 4.48559 1.15536 0
M  V30 3949 C 394.974 5.58026 1.3189 0
M  V30 3950 N 394.47 6.77422 1.45161 0
M  V30 3951 N 396.263 5.45708 1.34755 0
M  V30 3952 H 388.414 2.05854 -0.523237 0
M  V30 3953 H 390.677 0.932186 -0.172431 0
M  V30 3954 H 390.383 3.51666 -0.0489108 0
M  V30 3955 H 390.257 3.36964 1.69513 0
M  V30 3956 H 392.644 2.3791 1.74593 0
M  V30 3957 H 392.725 2.55797 -0.0125531 0
M  V30 3958 H 392.369 5.07288 0.249241 0
M  V30 3959 H 392.299 4.86436 2.01713 0
M  V30 3960 H 394.79 3.6254 1.06646 0
M  V30 3961 H 395.103 7.56604 1.57387 0
M  V30 3962 H 393.448 6.80292 1.42223 0
M  V30 3963 H 396.639 4.51378 1.23996 0
M  V30 3964 H 396.812 6.3107 1.47157 0
M  V30 3965 N 390.218 -0.567019 1.47046 0
M  V30 3966 C 391.446 -1.35027 1.56765 0
M  V30 3967 C 391.861 -1.8758 0.214316 0
M  V30 3968 O 391.218 -1.64471 -0.790919 0
M  V30 3969 C 391.269 -2.52698 2.58507 0
M  V30 3970 O 390.99 -2.0232 3.88585 0
M  V30 3971 C 392.491 -3.45043 2.78316 0
M  V30 3972 H 389.711 -0.41195 0.529658 0
M  V30 3973 H 392.255 -0.687832 1.92585 0
M  V30 3974 H 390.41 -3.149 2.25648 0
M  V30 3975 H 390.824 -2.79068 4.44096 0
M  V30 3976 H 392.298 -4.2405 3.53391 0
M  V30 3977 H 392.775 -3.97971 1.85784 0
M  V30 3978 H 393.381 -2.88665 3.12334 0
M  V30 3979 N 391.696 -1.35014 -0.812953 0
M  V30 3980 C 393.107 -1.25035 -1.38648 0
M  V30 3981 C 393.458 0.119967 -1.95833 0
M  V30 3982 O 392.583 1.02069 -1.90816 0
M  V30 3983 C 393.178 -2.26394 -2.52054 0
M  V30 3984 C 391.737 -2.20175 -3.05287 0
M  V30 3985 C 390.884 -2.12451 -1.78213 0
M  V30 3986 H 393.835 -1.46235 -0.616516 0
M  V30 3987 H 393.856 -1.88672 -3.30429 0
M  V30 3988 H 393.368 -3.26116 -2.10404 0
M  V30 3989 H 391.469 -1.23841 -3.51417 0
M  V30 3990 H 391.582 -3.11863 -3.63701 0
M  V30 3991 H 389.946 -1.58328 -1.9951 0
M  V30 3992 H 390.729 -3.14024 -1.38723 0
M  V30 3993 N 393.175 1.03435 -1.18907 0
M  V30 3994 C 394.085 2.15075 -0.937015 0
M  V30 3995 C 395.101 1.73706 0.101085 0
M  V30 3996 O 396.277 2.01232 -0.0822948 0
M  V30 3997 C 393.342 3.43458 -0.473057 0
M  V30 3998 C 392.403 3.99172 -1.57989 0
M  V30 3999 C 391.636 5.21427 -1.13797 0
M  V30 4000 O 391.859 5.704 0.000725941 0
M  V30 4001 O 390.793 5.69837 -1.9383 0
M  V30 4002 H 394.619 2.39198 -1.87131 0
M  V30 4003 H 392.204 1.13506 -0.971427 0
M  V30 4004 H 394.086 4.20811 -0.222702 0
M  V30 4005 H 392.761 3.20793 0.432869 0
M  V30 4006 H 391.668 3.23178 -1.88433 0
M  V30 4007 H 393.001 4.2619 -2.46217 0
M  V30 4008 N 394.653 0.992116 1.22453 0
M  V30 4009 C 395.899 0.668523 1.91464 0
M  V30 4010 C 396.232 -0.797313 1.77078 0
M  V30 4011 O 395.507 -1.5765 1.13916 0
M  V30 4012 C 395.79 1.07424 3.43703 0
M  V30 4013 C 395.643 2.59857 3.67143 0
M  V30 4014 C 396.962 0.626891 4.35612 0
M  V30 4015 H 394.081 0.244341 0.695318 0
M  V30 4016 H 396.723 1.2355 1.44345 0
M  V30 4017 H 394.873 0.591816 3.83966 0
M  V30 4018 H 396.545 3.15764 3.3629 0
M  V30 4019 H 394.788 3.01961 3.11451 0
M  V30 4020 H 395.459 2.83296 4.73759 0
M  V30 4021 H 397.935 1.04125 4.02861 0
M  V30 4022 H 396.811 0.939076 5.40807 0
M  V30 4023 H 397.072 -0.472457 4.39568 0
M  V30 4024 N 396.131 -1.37776 0.765217 0
M  V30 4025 C 397.359 -2.04124 0.337767 0
M  V30 4026 C 397.774 -1.57715 -1.03785 0
M  V30 4027 O 397.131 -0.755447 -1.6613 0
M  V30 4028 C 397.182 -3.59658 0.364442 0
M  V30 4029 O 396.903 -4.04367 1.68579 0
M  V30 4030 C 398.404 -4.43236 -0.0754221 0
M  V30 4031 H 395.624 -0.655696 0.142491 0
M  V30 4032 H 398.168 -1.76238 1.03732 0
M  V30 4033 H 396.323 -3.86339 -0.286471 0
M  V30 4034 H 396.737 -4.98857 1.61993 0
M  V30 4035 H 398.211 -5.52 -0.00560067 0
M  V30 4036 H 398.688 -4.2455 -1.12491 0
M  V30 4037 H 399.294 -4.21767 0.547055 0
M  V30 4038 N 397.609 -0.515225 -1.4894 0
M  V30 4039 C 398.849 0.0223983 -2.04388 0
M  V30 4040 C 399.213 1.32961 -1.38511 0
M  V30 4041 O 400.414 1.95236 -1.8476 0
M  V30 4042 C 398.685 0.157056 -3.57055 0
M  V30 4043 S 400.244 0.646875 -4.34006 0
M  V30 4044 H 397.062 -0.00500662 -0.710982 0
M  V30 4045 H 399.664 -0.69243 -1.82827 0
M  V30 4046 H 398.368 -0.799412 -4.02539 0
M  V30 4047 H 397.899 0.896704 -3.83044 0
M  V30 4048 H 399.914 1.91381 -4.57808 0
M  V30 4049 N 399.087 1.5561 -0.249682 0
M  V30 4050 C 400.333 1.99306 0.374841 0
M  V30 4051 C 400.666 1.13767 1.57387 0
M  V30 4052 O 399.941 0.201711 1.93451 0
M  V30 4053 C 400.224 3.51507 0.781986 0
M  V30 4054 C 400.077 4.4781 -0.422629 0
M  V30 4055 C 401.396 4.08884 1.62793 0
M  V30 4056 H 398.515 0.724572 0.134773 0
M  V30 4057 H 401.157 1.86719 -0.351549 0
M  V30 4058 H 399.307 3.62363 1.4009 0
M  V30 4059 H 400.979 4.48931 -1.06108 0
M  V30 4060 H 399.222 4.20518 -1.06524 0
M  V30 4061 H 399.893 5.51919 -0.0943766 0
M  V30 4062 H 402.369 4.01147 1.10547 0
M  V30 4063 H 401.245 5.1564 1.88166 0
M  V30 4064 H 401.506 3.57515 2.60068 0
M  V30 4065 N 400.565 -0.0233959 1.57583 0
M  V30 4066 C 401.811 -0.714119 1.89811 0
M  V30 4067 C 402.144 -1.74702 0.848113 0
M  V30 4068 O 401.419 -1.94023 -0.136135 0
M  V30 4069 C 401.702 -1.37853 3.32669 0
M  V30 4070 C 401.555 -0.358764 4.48367 0
M  V30 4071 C 402.874 -2.31101 3.7454 0
M  V30 4072 H 399.993 -0.25814 0.690314 0
M  V30 4073 H 402.635 0.0230927 1.89986 0
M  V30 4074 H 400.785 -2.00689 3.3265 0
M  V30 4075 H 402.457 0.268115 4.6052 0
M  V30 4076 H 400.7 0.321387 4.32608 0
M  V30 4077 H 401.371 -0.862242 5.45224 0
M  V30 4078 H 403.847 -1.78304 3.75961 0
M  V30 4079 H 402.723 -2.74567 4.75294 0
M  V30 4080 H 402.984 -3.18018 3.0711 0
M  V30 4081 N 402.043 -1.548 -0.295768 0
M  V30 4082 C 403.289 -1.74588 -1.03184 0
M  V30 4083 C 403.622 -0.532962 -1.86744 0
M  V30 4084 O 402.897 0.469872 -1.88739 0
M  V30 4085 C 403.18 -3.03791 -1.93347 0
M  V30 4086 C 403.033 -4.35392 -1.12933 0
M  V30 4087 C 404.352 -3.28892 -2.92435 0
M  V30 4088 H 401.471 -0.635221 -0.373715 0
M  V30 4089 H 404.113 -1.87519 -0.30606 0
M  V30 4090 H 402.263 -2.92898 -2.55232 0
M  V30 4091 H 403.935 -4.58211 -0.532943 0
M  V30 4092 H 402.178 -4.31642 -0.432168 0
M  V30 4093 H 402.849 -5.22074 -1.79284 0
M  V30 4094 H 405.325 -3.39429 -2.4068 0
M  V30 4095 H 404.201 -4.20603 -3.52682 0
M  V30 4096 H 404.462 -2.47437 -3.6637 0
M  V30 4097 N 403.521 0.559213 -1.47345 0
M  V30 4098 C 404.798 1.31997 -1.44348 0
M  V30 4099 C 405.178 2.1064 -0.139358 0
M  V30 4100 O 404.526 2.1091 0.879153 0
M  V30 4101 C 404.736 2.22618 -2.68779 0
M  V30 4102 C 406.084 2.83701 -3.1591 0
M  V30 4103 O 407.108 2.32921 -2.69493 0
M  V30 4104 O 405.967 3.75993 -3.966 0
M  V30 4105 H 403.061 0.594251 -0.575147 0
M  V30 4106 H 405.607 0.578282 -1.59543 0
M  V30 4107 H 404.379 1.64093 -3.55231 0
M  V30 4108 H 404.002 3.04085 -2.5616 0
M  V30 4109 N 404.999 1.35443 0.805782 0
M  V30 4110 C 406.245 1.28952 1.56522 0
M  V30 4111 C 406.578 -0.135597 1.93726 0
M  V30 4112 O 405.853 -1.08516 1.61414 0
M  V30 4113 C 406.136 2.19678 2.85331 0
M  V30 4114 C 405.989 3.7081 2.54598 0
M  V30 4115 C 407.308 2.09495 3.8704 0
M  V30 4116 H 404.427 0.469764 0.567883 0
M  V30 4117 H 407.069 1.65851 0.927001 0
M  V30 4118 H 405.219 1.8834 3.39795 0
M  V30 4119 H 406.891 4.12593 2.06312 0
M  V30 4120 H 405.134 3.91051 1.8778 0
M  V30 4121 H 405.805 4.29679 3.46525 0
M  V30 4122 H 408.281 2.37045 3.41978 0
M  V30 4123 H 407.157 2.75173 4.74943 0
M  V30 4124 H 407.418 1.07714 4.28777 0
M  V30 4125 N 406.477 -1.02803 1.19454 0
M  V30 4126 C 407.702 -1.80378 1.02364 0
M  V30 4127 C 408.127 -1.83282 -0.423007 0
M  V30 4128 O 407.485 -1.25945 -1.30413 0
M  V30 4129 C 407.533 -3.23248 1.59821 0
M  V30 4130 O 406.637 -4.04 0.828105 0
M  V30 4131 H 405.978 -0.556799 0.361761 0
M  V30 4132 H 408.508 -1.29385 1.58495 0
M  V30 4133 H 408.518 -3.73994 1.63073 0
M  V30 4134 H 407.193 -3.2045 2.65113 0
M  V30 4135 H 405.77 -3.62635 0.86891 0
M  V30 4136 N 407.956 -0.998596 -1.21925 0
M  V30 4137 C 408.906 -0.524743 -2.21879 0
M  V30 4138 C 409.89 0.41017 -1.55584 0
M  V30 4139 O 411.082 0.236063 -1.75419 0
M  V30 4140 C 408.211 0.153636 -3.42956 0
M  V30 4141 C 407.297 -0.801918 -4.16449 0
M  V30 4142 N 407.688 -1.95211 -4.66611 0
M  V30 4143 C 405.986 -0.618972 -4.41684 0
M  V30 4144 C 406.687 -2.55234 -5.22715 0
M  V30 4145 N 405.663 -1.83451 -5.1171 0
M  V30 4146 H 409.465 -1.40189 -2.58311 0
M  V30 4147 H 406.979 -0.86159 -1.3766 0
M  V30 4148 H 408.976 0.510534 -4.13762 0
M  V30 4149 H 407.636 1.02684 -3.08036 0
M  V30 4150 H 408.647 -2.33271 -4.62391 0
M  V30 4151 H 405.324 0.207694 -4.16983 0
M  V30 4152 H 406.714 -3.52471 -5.72026 0
M  V30 4153 N 409.434 1.37368 -0.772513 0
M  V30 4154 C 410.344 2.34053 -0.160081 0
M  V30 4155 C 411.36 1.60216 0.678728 0
M  V30 4156 O 412.536 1.92303 0.59847 0
M  V30 4157 C 409.601 3.3939 0.708182 0
M  V30 4158 C 408.662 4.29048 -0.147172 0
M  V30 4159 C 407.895 5.29354 0.679744 0
M  V30 4160 O 408.118 5.3723 1.91678 0
M  V30 4161 O 407.052 6.01835 0.0885444 0
M  V30 4162 H 410.878 2.88159 -0.959053 0
M  V30 4163 H 408.463 1.39543 -0.533685 0
M  V30 4164 H 410.345 4.03839 1.20384 0
M  V30 4165 H 409.02 2.8761 1.48533 0
M  V30 4166 H 407.927 3.67697 -0.689205 0
M  V30 4167 H 409.26 4.84134 -0.887423 0
M  V30 4168 N 410.912 0.523116 1.48665 0
M  V30 4169 C 412.189 -0.0775449 1.95446 0
M  V30 4170 C 412.569 -1.5197 1.4652 0
M  V30 4171 O 411.917 -2.17876 0.688657 0
M  V30 4172 C 412.127 0.0326135 3.48985 0
M  V30 4173 C 413.475 -0.130141 4.24401 0
M  V30 4174 O 414.499 -0.0415142 3.56176 0
M  V30 4175 O 413.358 -0.31491 5.45592 0
M  V30 4176 H 410.452 -0.0831012 0.822814 0
M  V30 4177 H 412.998 0.587227 1.59216 0
M  V30 4178 H 411.77 1.03748 3.77296 0
M  V30 4179 H 411.393 -0.671317 3.91892 0
M  V30 4180 N 412.39 -1.55475 0.257931 0
M  V30 4181 C 413.801 -1.8511 -0.243135 0
M  V30 4182 C 414.152 -1.17986 -1.5676 0
M  V30 4183 O 413.277 -0.462102 -2.11409 0
M  V30 4184 C 413.872 -3.35826 -0.447929 0
M  V30 4185 C 412.431 -3.65647 -0.893245 0
M  V30 4186 C 411.578 -2.7729 0.0232965 0
M  V30 4187 H 414.529 -1.51261 0.480199 0
M  V30 4188 H 414.55 -3.58002 -1.28898 0
M  V30 4189 H 414.062 -3.84652 0.516196 0
M  V30 4190 H 412.163 -3.22308 -1.86945 0
M  V30 4191 H 412.276 -4.73312 -0.742469 0
M  V30 4192 H 410.64 -2.49942 -0.490021 0
M  V30 4193 H 411.423 -3.28926 0.982994 0
M  V30 4194 N 413.868 0.0150385 -1.57593 0
M  V30 4195 C 414.778 1.02791 -2.10882 0
M  V30 4196 C 415.794 1.38702 -1.0506 0
M  V30 4197 O 416.97 1.47739 -1.36877 0
M  V30 4198 C 414.035 2.30568 -2.58919 0
M  V30 4199 C 413.096 2.01108 -3.79281 0
M  V30 4200 C 412.329 3.22794 -4.25018 0
M  V30 4201 O 412.552 4.33959 -3.70183 0
M  V30 4202 O 411.486 3.07672 -5.17322 0
M  V30 4203 H 415.312 0.604973 -2.97613 0
M  V30 4204 H 412.897 0.23292 -1.47573 0
M  V30 4205 H 414.779 3.05662 -2.90084 0
M  V30 4206 H 413.454 2.72129 -1.75293 0
M  V30 4207 H 412.361 1.23537 -3.53114 0
M  V30 4208 H 413.694 1.64394 -4.63935 0
M  V30 4209 N 415.346 1.54954 0.287554 0
M  V30 4210 C 416.592 1.75132 1.02257 0
M  V30 4211 C 416.925 0.542858 1.86458 0
M  V30 4212 O 416.2 -0.459856 1.88986 0
M  V30 4213 C 416.483 3.04812 1.91733 0
M  V30 4214 C 416.336 4.35985 1.10622 0
M  V30 4215 C 417.655 3.30438 2.90687 0
M  V30 4216 H 414.774 0.637194 0.370341 0
M  V30 4217 H 417.416 1.87678 0.296111 0
M  V30 4218 H 415.566 2.94247 2.53675 0
M  V30 4219 H 417.238 4.58487 0.508636 0
M  V30 4220 H 415.481 4.31865 0.409271 0
M  V30 4221 H 416.152 5.23017 1.76513 0
M  V30 4222 H 418.628 3.40701 2.38877 0
M  V30 4223 H 417.504 4.22467 3.50447 0
M  V30 4224 H 417.765 2.49377 3.65053 0
M  V30 4225 N 416.824 -0.551391 1.4764 0
M  V30 4226 C 417.756 -1.67333 1.56628 0
M  V30 4227 C 418.769 -1.56398 0.452045 0
M  V30 4228 O 419.958 -1.6325 0.721926 0
M  V30 4229 C 417.058 -3.05841 1.45994 0
M  V30 4230 C 416.231 -3.42472 2.72088 0
M  V30 4231 C 415.29 -4.60168 2.55209 0
M  V30 4232 O 414.316 -4.64458 3.2904 0
M  V30 4233 N 415.518 -5.57024 1.63416 0
M  V30 4234 H 418.283 -1.60066 2.53375 0
M  V30 4235 H 415.844 -0.738169 1.44093 0
M  V30 4236 H 417.836 -3.8242 1.32428 0
M  V30 4237 H 416.406 -3.07302 0.573071 0
M  V30 4238 H 415.626 -2.55284 3.00373 0
M  V30 4239 H 416.914 -3.63723 3.55785 0
M  V30 4240 H 416.312 -5.56319 1.02594 0
M  V30 4241 H 414.869 -6.32906 1.558 0
M  V30 4242 N 418.302 -1.35869 -0.798587 0
M  V30 4243 C 419.549 -1.29588 -1.55606 0
M  V30 4244 C 419.877 0.127456 -1.94082 0
M  V30 4245 O 419.132 1.09461 -1.62225 0
M  V30 4246 C 419.431 -2.1556 -2.85077 0
M  V30 4247 C 419.097 -3.6424 -2.65781 0
M  V30 4248 C 417.759 -4.04766 -2.60227 0
M  V30 4249 C 420.111 -4.58547 -2.47758 0
M  V30 4250 C 417.439 -5.37753 -2.34603 0
M  V30 4251 C 419.791 -5.91742 -2.23662 0
M  V30 4252 C 418.455 -6.31402 -2.16534 0
M  V30 4253 H 417.725 -0.474197 -0.569402 0
M  V30 4254 H 420.372 -1.67839 -0.922086 0
M  V30 4255 H 418.677 -1.70216 -3.52893 0
M  V30 4256 H 420.374 -2.08031 -3.42818 0
M  V30 4257 H 416.964 -3.32086 -2.70956 0
M  V30 4258 H 421.148 -4.28117 -2.51056 0
M  V30 4259 H 416.404 -5.67474 -2.2756 0
M  V30 4260 H 420.578 -6.6439 -2.08708 0
M  V30 4261 H 418.205 -7.34381 -1.96441 0
M  V30 4262 N 419.78 1.02168 -1.19998 0
M  V30 4263 C 420.728 2.12717 -0.940967 0
M  V30 4264 C 421.722 1.69069 0.105841 0
M  V30 4265 O 422.928 1.79946 -0.0440583 0
M  V30 4266 H 419.303 0.695108 -0.28693 0
M  V30 4267 H 421.274 2.3175 -1.87975 0
M  V30 4268 C 420.023 3.44027 -0.504049 0
M  V30 4269 H 419.346 3.78036 -1.30112 0
M  V30 4270 H 420.786 4.22452 -0.361991 0
M  V30 4271 C 419.245 3.27678 0.782878 0
M  V30 4272 O 419.775 3.56949 1.84256 0
M  V30 4273 N 417.981 2.80943 0.742921 0
M  V30 4274 H 417.528 2.57322 -0.119687 0
M  V30 4275 H 417.486 2.70385 1.60435 0
M  V30 4276 N 421.258 1.00505 1.21394 0
M  V30 4277 C 422.504 0.698477 1.91031 0
M  V30 4278 C 422.859 -0.762448 1.76648 0
M  V30 4279 O 422.152 -1.54554 1.13241 0
M  V30 4280 C 422.346 1.0546 3.41486 0
M  V30 4281 C 422.175 2.5486 3.70508 0
M  V30 4282 C 420.945 3.21461 3.8986 0
M  V30 4283 C 423.143 3.53019 3.74008 0
M  V30 4284 N 421.125 4.60211 4.06299 0
M  V30 4285 C 422.496 4.77279 3.95733 0
M  V30 4286 C 424.551 3.47154 3.56915 0
M  V30 4287 C 423.254 5.96388 4.02137 0
M  V30 4288 C 425.28 4.65652 3.64585 0
M  V30 4289 C 424.642 5.88717 3.86771 0
M  V30 4290 H 420.741 0.30707 0.719189 0
M  V30 4291 H 423.325 1.28753 1.46051 0
M  V30 4292 H 421.496 0.494007 3.85246 0
M  V30 4293 H 423.228 0.702765 3.98552 0
M  V30 4294 H 419.983 2.71906 3.87768 0
M  V30 4295 H 420.407 5.32216 4.1842 0
M  V30 4296 H 425.049 2.53015 3.38738 0
M  V30 4297 H 422.767 6.90919 4.19114 0
M  V30 4298 H 426.353 4.62717 3.52681 0
M  V30 4299 H 425.233 6.78877 3.92549 0
M  V30 4300 N 422.737 -1.36956 0.779787 0
M  V30 4301 C 423.967 -2.03459 0.358877 0
M  V30 4302 C 424.375 -1.58939 -1.02641 0
M  V30 4303 O 423.718 -0.769777 -1.66794 0
M  V30 4304 C 423.78 -3.5796 0.332393 0
M  V30 4305 C 423.444 -4.25644 1.66362 0
M  V30 4306 C 424.441 -4.49205 2.61746 0
M  V30 4307 C 422.126 -4.63313 1.94027 0
M  V30 4308 C 424.12 -5.09503 3.82996 0
M  V30 4309 C 421.807 -5.2333 3.15546 0
M  V30 4310 C 422.805 -5.46363 4.0985 0
M  V30 4311 O 422.493 -6.05122 5.29228 0
M  V30 4312 H 422.225 -0.659767 0.147254 0
M  V30 4313 H 424.779 -1.76111 1.05708 0
M  V30 4314 H 423.009 -3.84388 -0.422237 0
M  V30 4315 H 424.698 -4.05852 -0.0625389 0
M  V30 4316 H 425.464 -4.20508 2.41657 0
M  V30 4317 H 421.343 -4.44715 1.21448 0
M  V30 4318 H 424.887 -5.27397 4.56617 0
M  V30 4319 H 420.784 -5.51451 3.35517 0
M  V30 4320 H 421.552 -6.23595 5.30161 0
M  V30 4321 N 424.215 -0.530993 -1.48385 0
M  V30 4322 C 425.461 0.00274135 -2.028 0
M  V30 4323 C 425.794 1.33838 -1.40716 0
M  V30 4324 O 425.069 1.86465 -0.553277 0
M  V30 4325 C 425.352 0.123676 -3.59888 0
M  V30 4326 C 425.205 -1.2372 -4.3245 0
M  V30 4327 C 426.524 0.849967 -4.31814 0
M  V30 4328 H 423.643 -0.000477758 -0.737 0
M  V30 4329 H 426.285 -0.688217 -1.77098 0
M  V30 4330 H 424.435 0.712157 -3.81917 0
M  V30 4331 H 426.107 -1.86687 -4.21836 0
M  V30 4332 H 424.35 -1.81882 -3.93829 0
M  V30 4333 H 425.021 -1.10557 -5.40815 0
M  V30 4334 H 427.497 0.350572 -4.14621 0
M  V30 4335 H 426.373 0.903486 -5.41413 0
M  V30 4336 H 426.634 1.90047 -3.99167 0
M  V30 4337 N 425.693 1.55336 -0.266172 0
M  V30 4338 C 426.97 1.91372 0.404486 0
M  V30 4339 C 427.35 1.18935 1.74407 0
M  V30 4340 O 426.698 0.3132 2.26343 0
M  V30 4341 C 426.908 3.44581 0.553593 0
M  V30 4342 C 428.256 4.16196 0.840618 0
M  V30 4343 O 429.28 3.50426 0.638739 0
M  V30 4344 O 428.139 5.32567 1.22618 0
M  V30 4345 H 425.233 0.797194 0.220025 0
M  V30 4346 H 427.779 1.66813 -0.311664 0
M  V30 4347 H 426.551 3.89357 -0.389498 0
M  V30 4348 H 426.174 3.75065 1.31955 0
M  V30 4349 N 427.171 -0.0066808 1.57599 0
M  V30 4350 C 428.419 -0.691552 1.899 0
M  V30 4351 C 428.74 -1.74682 0.866672 0
M  V30 4352 O 428.01 -1.95661 -0.0968189 0
M  V30 4353 H 426.59 -0.258416 0.700878 0
M  V30 4354 H 429.252 0.0326655 1.94873 0
M  V30 4355 H 428.348 -1.16702 2.8946 0
M  V30 4356 N 428.649 -1.55105 -0.279332 0
M  V30 4357 C 429.895 -1.75672 -1.01327 0
M  V30 4358 C 430.228 -0.552739 -1.86168 0
M  V30 4359 O 429.503 0.449827 -1.89227 0
M  V30 4360 C 429.786 -3.05825 -1.90114 0
M  V30 4361 C 429.639 -4.36565 -1.08309 0
M  V30 4362 C 430.958 -3.31975 -2.8893 0
M  V30 4363 H 428.077 -0.639149 -0.366957 0
M  V30 4364 H 430.719 -1.87833 -0.286154 0
M  V30 4365 H 428.869 -2.95588 -2.52111 0
M  V30 4366 H 430.541 -4.58751 -0.484314 0
M  V30 4367 H 428.784 -4.32076 -0.386362 0
M  V30 4368 H 429.455 -5.23946 -1.73737 0
M  V30 4369 H 431.931 -3.41963 -2.37067 0
M  V30 4370 H 430.807 -4.2432 -3.48201 0
M  V30 4371 H 431.068 -2.51309 -3.63725 0
M  V30 4372 N 430.127 0.543554 -1.4793 0
M  V30 4373 C 431.037 1.67657 -1.64098 0
M  V30 4374 C 432.053 1.65934 -0.523622 0
M  V30 4375 O 433.229 1.85133 -0.792943 0
M  V30 4376 C 430.294 3.04146 -1.66421 0
M  V30 4377 C 429.355 3.16831 -2.89684 0
M  V30 4378 C 428.588 4.46809 -2.91886 0
M  V30 4379 O 428.811 5.33095 -2.02895 0
M  V30 4380 O 427.745 4.63573 -3.83906 0
M  V30 4381 H 431.571 1.56957 -2.59997 0
M  V30 4382 H 429.156 0.715116 -1.31173 0
M  V30 4383 H 431.038 3.85346 -1.70548 0
M  V30 4384 H 429.713 3.152 -0.736923 0
M  V30 4385 H 428.62 2.34977 -2.91095 0
M  V30 4386 H 429.953 3.10687 -3.81752 0
M  V30 4387 N 431.605 1.3629 0.791371 0
M  V30 4388 C 432.851 1.30605 1.55146 0
M  V30 4389 C 433.184 -0.115042 1.93859 0
M  V30 4390 O 432.459 -1.06798 1.62556 0
M  V30 4391 C 432.742 2.22692 2.82985 0
M  V30 4392 C 432.595 3.73489 2.50651 0
M  V30 4393 C 433.914 2.13588 3.84796 0
M  V30 4394 H 431.033 0.475761 0.562868 0
M  V30 4395 H 433.675 1.66825 0.909358 0
M  V30 4396 H 431.825 1.91933 3.37778 0
M  V30 4397 H 433.497 4.14758 2.01924 0
M  V30 4398 H 431.74 3.93021 1.83622 0
M  V30 4399 H 432.411 4.3333 3.41949 0
M  V30 4400 H 434.887 2.40659 3.39445 0
M  V30 4401 H 433.763 2.80195 4.71998 0
M  V30 4402 H 434.024 1.12256 4.27611 0
M  V30 4403 N 433.083 -1.0153 1.20538 0
M  V30 4404 C 434.033 -2.08482 0.922991 0
M  V30 4405 C 435.017 -1.60469 -0.117702 0
M  V30 4406 O 436.209 -1.76772 0.0898465 0
M  V30 4407 C 433.338 -3.39952 0.478312 0
M  V30 4408 C 432.424 -3.94662 1.5525 0
M  V30 4409 N 432.815 -4.22866 2.77521 0
M  V30 4410 C 431.113 -4.22825 1.41897 0
M  V30 4411 C 431.814 -4.67002 3.4682 0
M  V30 4412 N 430.79 -4.69356 2.74237 0
M  V30 4413 H 434.592 -2.28199 1.85209 0
M  V30 4414 H 432.106 -1.19512 1.09957 0
M  V30 4415 H 434.103 -4.16105 0.257408 0
M  V30 4416 H 432.763 -3.21648 -0.444148 0
M  V30 4417 H 433.774 -4.11732 3.1416 0
M  V30 4418 H 430.451 -4.13714 0.561015 0
M  V30 4419 H 431.841 -4.97632 4.51455 0
M  V30 4420 N 434.561 -1.01147 -1.20859 0
M  V30 4421 C 435.509 -0.57059 -2.25493 0
M  V30 4422 C 436.503 0.388109 -1.64894 0
M  V30 4423 O 437.709 0.258592 -1.78133 0
M  V30 4424 H 434.084 -0.166191 -0.733406 0
M  V30 4425 H 436.055 -1.46411 -2.60012 0
M  V30 4426 C 434.804 0.0805241 -3.47607 0
M  V30 4427 H 434.127 -0.648156 -3.94511 0
M  V30 4428 H 435.567 0.352197 -4.22535 0
M  V30 4429 C 434.026 1.32175 -3.09889 0
M  V30 4430 O 434.556 2.41553 -3.20959 0
M  V30 4431 N 432.762 1.20392 -2.64488 0
M  V30 4432 H 432.309 0.313905 -2.5568 0
M  V30 4433 H 432.267 2.03541 -2.39621 0
M  V30 4434 N 436.039 1.36541 -0.78704 0
M  V30 4435 C 437.002 2.28413 -0.189778 0
M  V30 4436 C 438.002 1.48719 0.611499 0
M  V30 4437 O 439.192 1.68737 0.432842 0
M  V30 4438 C 436.324 3.32824 0.737638 0
M  V30 4439 H 437.517 2.82743 -0.999831 0
M  V30 4440 H 435.07 1.46065 -0.556298 0
M  V30 4441 H 435.805 2.83646 1.57212 0
M  V30 4442 H 435.59 3.91752 0.165044 0
M  V30 4443 H 437.08 4.0144 1.15047 0
M  V30 4444 N 437.518 0.538854 1.48102 0
M  V30 4445 C 438.465 -0.219042 2.29758 0
M  V30 4446 C 439.435 -0.925562 1.37922 0
M  V30 4447 O 440.62 -0.924855 1.66886 0
M  V30 4448 C 437.76 -1.25452 3.2149 0
M  V30 4449 C 436.873 -0.555943 4.28408 0
M  V30 4450 C 436.008 -1.57512 5.0731 0
M  V30 4451 C 435.047 -0.860498 6.06021 0
M  V30 4452 N 434.184 -1.82564 6.77949 0
M  V30 4453 H 439.024 0.483449 2.94052 0
M  V30 4454 H 436.561 0.250247 1.44956 0
M  V30 4455 H 438.519 -1.86727 3.7308 0
M  V30 4456 H 437.149 -1.92528 2.591 0
M  V30 4457 H 436.201 0.170938 3.80016 0
M  V30 4458 H 437.513 0.00474616 4.988 0
M  V30 4459 H 436.667 -2.26191 5.62959 0
M  V30 4460 H 435.406 -2.16972 4.36778 0
M  V30 4461 H 434.411 -0.159686 5.49568 0
M  V30 4462 H 435.636 -0.271897 6.78555 0
M  V30 4463 H 433.582 -2.40915 6.10161 0
M  V30 4464 H 433.499 -1.31662 7.44447 0
M  V30 4465 H 434.767 -2.50414 7.38182 0
M  V30 4466 N 438.996 -1.55193 0.274407 0
M  V30 4467 C 440.224 -2.03987 -0.345943 0
M  V30 4468 C 440.639 -1.15279 -1.4952 0
M  V30 4469 O 439.996 -0.172759 -1.8168 0
M  V30 4470 C 440.047 -3.51898 -0.827631 0
M  V30 4471 O 439.768 -4.37231 0.275855 0
M  V30 4472 C 441.269 -4.16577 -1.51587 0
M  V30 4473 H 438.489 -0.666335 -0.0789892 0
M  V30 4474 H 441.033 -2.00423 0.406294 0
M  V30 4475 H 439.188 -3.55909 -1.52996 0
M  V30 4476 H 439.602 -5.24415 -0.0943638 0
M  V30 4477 H 441.076 -5.21678 -1.80433 0
M  V30 4478 H 441.553 -3.64707 -2.44716 0
M  V30 4479 H 442.159 -4.16568 -0.857409 0
M  V30 4480 N 440.474 -0.00167713 -1.576 0
M  V30 4481 C 441.421 0.989195 -2.08527 0
M  V30 4482 C 442.391 1.34031 -0.981065 0
M  V30 4483 O 443.576 1.43839 -1.2536 0
M  V30 4484 C 440.716 2.27537 -2.59463 0
M  V30 4485 C 439.829 1.98314 -3.83791 0
M  V30 4486 C 438.964 3.21025 -4.23222 0
M  V30 4487 C 438.003 2.87495 -5.40382 0
M  V30 4488 N 437.14 4.02749 -5.75098 0
M  V30 4489 H 441.98 0.547973 -2.92919 0
M  V30 4490 H 439.517 0.258917 -1.44803 0
M  V30 4491 H 441.475 3.02729 -2.87073 0
M  V30 4492 H 440.105 2.69325 -1.77943 0
M  V30 4493 H 439.157 1.13482 -3.63078 0
M  V30 4494 H 440.469 1.69601 -4.69081 0
M  V30 4495 H 439.623 4.04561 -4.52123 0
M  V30 4496 H 438.362 3.52877 -3.36644 0
M  V30 4497 H 437.367 2.02367 -5.11202 0
M  V30 4498 H 438.592 2.56889 -6.28637 0
M  V30 4499 H 436.538 4.34494 -4.91478 0
M  V30 4500 H 436.455 3.77566 -6.54966 0
M  V30 4501 H 437.723 4.87068 -6.08592 0
M  V30 4502 N 441.952 1.55251 0.271103 0
M  V30 4503 C 443.363 1.66635 0.842007 0
M  V30 4504 C 443.714 0.594631 1.86972 0
M  V30 4505 O 442.839 -0.263532 2.14789 0
M  V30 4506 C 443.434 3.02082 1.53401 0
M  V30 4507 C 441.993 3.15487 2.05293 0
M  V30 4508 C 441.14 2.62438 0.895631 0
M  V30 4509 H 444.091 1.58629 0.0474117 0
M  V30 4510 H 444.112 2.95176 2.40107 0
M  V30 4511 H 443.624 3.80062 0.785786 0
M  V30 4512 H 441.725 2.42284 2.83071 0
M  V30 4513 H 441.838 4.22075 2.26693 0
M  V30 4514 H 440.202 2.19644 1.28953 0
M  V30 4515 H 440.985 3.42923 0.160878 0
M  V30 4516 N 443.43 -0.535701 1.48216 0
M  V30 4517 C 444.846 -0.863701 1.3421 0
M  V30 4518 C 445.046 -1.98458 0.34879 0
M  V30 4519 O 444.102 -2.51432 -0.23204 0
M  V30 4520 C 445.415 -1.23662 2.74095 0
M  V30 4521 C 446.963 -1.34683 2.82541 0
M  V30 4522 C 447.438 -1.75322 4.23115 0
M  V30 4523 N 448.929 -1.82434 4.2576 0
M  V30 4524 C 449.664 -2.15252 5.31464 0
M  V30 4525 N 449.16 -2.46533 6.47452 0
M  V30 4526 N 450.953 -2.16209 5.18855 0
M  V30 4527 H 443.104 0.203965 2.11418 0
M  V30 4528 H 445.367 0.0286033 0.947568 0
M  V30 4529 H 445.073 -0.486674 3.48316 0
M  V30 4530 H 444.947 -2.18805 3.07253 0
M  V30 4531 H 447.334 -2.08756 2.08579 0
M  V30 4532 H 447.415 -0.376756 2.5301 0
M  V30 4533 H 447.059 -1.01812 4.97591 0
M  V30 4534 H 446.989 -2.7337 4.50085 0
M  V30 4535 H 449.48 -1.6056 3.42095 0
M  V30 4536 H 449.793 -2.70662 7.23852 0
M  V30 4537 H 448.138 -2.44065 6.50736 0
M  V30 4538 H 451.329 -1.91224 4.2726 0
M  V30 4539 H 451.502 -2.41453 6.01335 0
M  V30 4540 N 444.908 -1.36708 -0.784132 0
M  V30 4541 C 445.818 -1.3363 -1.92822 0
M  V30 4542 C 446.834 -0.237686 -1.72369 0
M  V30 4543 O 448.01 -0.470962 -1.95816 0
M  V30 4544 C 445.075 -1.13011 -3.27764 0
M  V30 4545 C 444.136 -2.32397 -3.60957 0
M  V30 4546 C 443.369 -2.12752 -4.89461 0
M  V30 4547 O 443.592 -1.10541 -5.59586 0
M  V30 4548 O 442.526 -3.00653 -5.21432 0
M  V30 4549 H 446.352 -2.29964 -1.98369 0
M  V30 4550 H 443.937 -1.1731 -0.925136 0
M  V30 4551 H 445.819 -1.03451 -4.08504 0
M  V30 4552 H 444.494 -0.19743 -3.23097 0
M  V30 4553 H 443.401 -2.47527 -2.80502 0
M  V30 4554 H 444.734 -3.2419 -3.70354 0
M  V30 4555 N 446.386 1.0089 -1.21074 0
M  V30 4556 C 447.296 2.13039 -0.982425 0
M  V30 4557 C 448.312 1.73881 0.0642161 0
M  V30 4558 O 449.488 2.01012 -0.12496 0
M  V30 4559 C 446.553 3.42377 -0.545803 0
M  V30 4560 C 445.614 3.95731 -1.6642 0
M  V30 4561 C 444.847 5.18896 -1.24832 0
M  V30 4562 O 445.07 5.70273 -0.120265 0
M  V30 4563 O 444.004 5.65597 -2.05873 0
M  V30 4564 H 447.83 2.35175 -1.92163 0
M  V30 4565 H 445.415 1.1142 -0.995285 0
M  V30 4566 H 447.297 4.20244 -0.311912 0
M  V30 4567 H 445.972 3.21639 0.364727 0
M  V30 4568 H 444.879 3.19108 -1.95246 0
M  V30 4569 H 446.212 4.20872 -2.55201 0
M  V30 4570 N 447.864 1.01787 1.20321 0
M  V30 4571 C 448.796 0.547357 2.22568 0
M  V30 4572 C 449.809 -0.370922 1.58518 0
M  V30 4573 O 450.998 -0.169067 1.77698 0
M  V30 4574 C 448.098 -0.223031 3.38165 0
M  V30 4575 C 447.271 0.697472 4.31803 0
M  V30 4576 C 446.33 -0.025562 5.26194 0
M  V30 4577 O 445.356 0.597367 5.66057 0
M  V30 4578 N 446.558 -1.29999 5.65757 0
M  V30 4579 H 449.323 1.42668 2.63564 0
M  V30 4580 H 446.884 0.895552 1.34876 0
M  V30 4581 H 448.876 -0.716002 3.98316 0
M  V30 4582 H 447.446 -1.00366 2.9605 0
M  V30 4583 H 446.666 1.37073 3.69601 0
M  V30 4584 H 447.954 1.32347 4.91286 0
M  V30 4585 H 447.352 -1.827 5.35385 0
M  V30 4586 H 445.909 -1.73766 6.28211 0
M  V30 4587 N 449.342 -1.36122 0.79427 0
M  V30 4588 C 450.589 -1.99111 0.368905 0
M  V30 4589 C 450.917 -1.63032 -1.0607 0
M  V30 4590 O 450.172 -0.879303 -1.74833 0
M  V30 4591 C 450.471 -3.5409 0.48527 0
M  V30 4592 C 450.137 -4.10003 1.87638 0
M  V30 4593 C 448.799 -4.24986 2.257 0
M  V30 4594 C 451.151 -4.40423 2.78706 0
M  V30 4595 C 448.479 -4.67701 3.54221 0
M  V30 4596 C 450.831 -4.84573 4.0666 0
M  V30 4597 C 449.495 -4.97761 4.44737 0
M  V30 4598 H 448.765 -0.7286 0.134992 0
M  V30 4599 H 451.412 -1.62534 1.01267 0
M  V30 4600 H 449.717 -3.91052 -0.241984 0
M  V30 4601 H 451.414 -4.00766 0.137109 0
M  V30 4602 H 448.004 -3.98784 1.57064 0
M  V30 4603 H 452.188 -4.28412 2.50553 0
M  V30 4604 H 447.444 -4.761 3.83587 0
M  V30 4605 H 451.618 -5.07074 4.77336 0
M  V30 4606 H 449.245 -5.30618 5.44379 0
M  V30 4607 N 450.82 -0.546701 -1.47814 0
M  V30 4608 C 451.768 0.220048 -2.31557 0
M  V30 4609 C 452.762 0.919472 -1.42275 0
M  V30 4610 O 453.968 0.841953 -1.59095 0
M  V30 4611 H 450.343 0.0898334 -0.746615 0
M  V30 4612 H 452.314 -0.505589 -2.94086 0
M  V30 4613 C 451.063 1.24353 -3.24702 0
M  V30 4614 H 450.386 0.714758 -3.93359 0
M  V30 4615 H 451.826 1.75112 -3.8615 0
M  V30 4616 C 450.285 2.28593 -2.47481 0
M  V30 4617 O 450.815 3.35334 -2.21165 0
M  V30 4618 N 449.021 2.02244 -2.08676 0
M  V30 4619 H 448.568 1.15455 -2.30278 0
M  V30 4620 H 448.526 2.72207 -1.57323 0
M  V30 4621 N 452.299 1.55045 -0.282633 0
M  V30 4622 C 453.524 2.04628 0.337977 0
M  V30 4623 C 453.949 1.15937 1.48123 0
M  V30 4624 O 453.307 0.159532 1.80597 0
M  V30 4625 C 453.355 3.51854 0.78936 0
M  V30 4626 O 452.459 3.66236 1.89592 0
M  V30 4627 H 451.8 0.660434 0.0687261 0
M  V30 4628 H 454.33 2.00261 -0.419124 0
M  V30 4629 H 454.34 3.93361 1.08311 0
M  V30 4630 H 453.015 4.15873 -0.0470419 0
M  V30 4631 H 451.592 3.36633 1.60413 0
M  V30 4632 N 453.777 0.010035 1.57597 0
M  V30 4633 C 455.005 -0.683413 1.95287 0
M  V30 4634 C 455.42 -1.66747 0.885481 0
M  V30 4635 O 454.777 -1.82003 -0.134629 0
M  V30 4636 C 454.828 -1.40652 3.33015 0
M  V30 4637 O 454.549 -0.461916 4.35658 0
M  V30 4638 C 456.05 -2.19356 3.85225 0
M  V30 4639 H 453.27 -0.189708 0.643624 0
M  V30 4640 H 455.814 0.0641359 2.04399 0
M  V30 4641 H 453.969 -2.10562 3.2518 0
M  V30 4642 H 454.383 -0.973215 5.15392 0
M  V30 4643 H 455.857 -2.65433 4.83993 0
M  V30 4644 H 456.334 -3.02457 3.18459 0
M  V30 4645 H 456.94 -1.54442 3.96267 0
M  V30 4646 N 455.255 -1.55392 -0.262866 0
M  V30 4647 C 456.502 -1.76476 -0.993109 0
M  V30 4648 C 456.83 -0.571479 -1.85915 0
M  V30 4649 O 456.085 0.445733 -1.90556 0
M  V30 4650 C 456.384 -3.02889 -1.89718 0
M  V30 4651 C 456.05 -4.34974 -1.18781 0
M  V30 4652 C 454.712 -4.7087 -0.991699 0
M  V30 4653 C 457.064 -5.16695 -0.683798 0
M  V30 4654 C 454.392 -5.86036 -0.279024 0
M  V30 4655 C 456.744 -6.32598 0.0153327 0
M  V30 4656 C 455.408 -6.67127 0.223062 0
M  V30 4657 H 454.678 -0.64577 -0.363404 0
M  V30 4658 H 457.325 -1.89664 -0.264525 0
M  V30 4659 H 455.63 -2.84644 -2.6923 0
M  V30 4660 H 457.327 -3.16399 -2.46359 0
M  V30 4661 H 453.917 -4.06765 -1.35058 0
M  V30 4662 H 458.101 -4.8943 -0.8229 0
M  V30 4663 H 453.357 -6.11306 -0.107456 0
M  V30 4664 H 457.531 -6.95171 0.413584 0
M  V30 4665 H 455.158 -7.56216 0.777265 0
M  V30 4666 N 456.733 0.527833 -1.48498 0
M  V30 4667 C 458.149 0.856571 -1.34666 0
M  V30 4668 C 458.349 1.98271 -0.35931 0
M  V30 4669 O 457.405 2.51551 0.218703 0
M  V30 4670 C 458.718 1.22207 -2.74747 0
M  V30 4671 C 460.266 1.33183 -2.83251 0
M  V30 4672 C 460.741 1.73075 -4.24039 0
M  V30 4673 N 462.232 1.80174 -4.26722 0
M  V30 4674 C 462.967 2.1243 -5.32598 0
M  V30 4675 N 462.463 2.43096 -6.4875 0
M  V30 4676 N 464.256 2.13454 -5.19994 0
M  V30 4677 H 456.407 -0.215174 -2.11307 0
M  V30 4678 H 458.67 -0.0336281 -0.947403 0
M  V30 4679 H 458.376 0.468195 -3.4857 0
M  V30 4680 H 458.25 2.17173 -3.08409 0
M  V30 4681 H 460.637 2.07647 -2.09683 0
M  V30 4682 H 460.718 0.363333 -2.53206 0
M  V30 4683 H 460.362 0.991712 -4.98124 0
M  V30 4684 H 460.292 2.70979 -4.51529 0
M  V30 4685 H 462.783 1.58744 -3.42942 0
M  V30 4686 H 463.096 2.6682 -7.25277 0
M  V30 4687 H 461.441 2.40611 -6.52021 0
M  V30 4688 H 464.632 1.88956 -4.28268 0
M  V30 4689 H 464.805 2.38261 -6.02608 0
M  V30 4690 N 458.211 1.37122 0.776871 0
M  V30 4691 C 459.457 1.32243 1.53752 0
M  V30 4692 C 459.79 -0.0944745 1.9397 0
M  V30 4693 O 459.065 -1.05068 1.6368 0
M  V30 4694 C 459.348 2.25681 2.80607 0
M  V30 4695 C 459.201 3.76127 2.46676 0
M  V30 4696 C 460.52 2.17657 3.82509 0
M  V30 4697 H 457.639 0.481704 0.557791 0
M  V30 4698 H 460.281 1.6778 0.891612 0
M  V30 4699 H 458.431 1.95505 3.35723 0
M  V30 4700 H 460.103 4.16877 1.97513 0
M  V30 4701 H 458.346 3.94946 1.79443 0
M  V30 4702 H 459.017 4.36933 3.37333 0
M  V30 4703 H 461.493 2.44245 3.36873 0
M  V30 4704 H 460.369 2.85185 4.69 0
M  V30 4705 H 460.63 1.16785 4.26396 0
M  V30 4706 N 459.689 -1.00246 1.21608 0
M  V30 4707 C 460.935 -1.74319 1.03638 0
M  V30 4708 C 461.268 -1.89408 -0.428749 0
M  V30 4709 O 460.543 -1.43026 -1.3181 0
M  V30 4710 C 460.826 -3.15431 1.73711 0
M  V30 4711 C 460.679 -3.08049 3.27759 0
M  V30 4712 C 461.998 -4.14407 1.48173 0
M  V30 4713 H 459.117 -0.632741 0.377899 0
M  V30 4714 H 461.759 -1.16853 1.49818 0
M  V30 4715 H 459.909 -3.64493 1.34452 0
M  V30 4716 H 461.581 -2.66681 3.76403 0
M  V30 4717 H 459.824 -2.45088 3.57931 0
M  V30 4718 H 460.495 -4.07862 3.71958 0
M  V30 4719 H 462.971 -3.74061 1.82258 0
M  V30 4720 H 461.847 -5.11279 1.99713 0
M  V30 4721 H 462.108 -4.40174 0.412273 0
M  V30 4722 N 461.167 -1.02423 -1.1978 0
M  V30 4723 C 462.392 -0.7373 -1.93852 0
M  V30 4724 C 462.817 0.696923 -1.74713 0
M  V30 4725 O 462.175 1.48056 -1.04638 0
M  V30 4726 C 462.223 -1.08783 -3.438 0
M  V30 4727 O 461.327 -0.20383 -4.11896 0
M  V30 4728 H 460.668 -0.27284 -0.605355 0
M  V30 4729 H 463.198 -1.36966 -1.51992 0
M  V30 4730 H 463.208 -1.04276 -3.9445 0
M  V30 4731 H 461.883 -2.13274 -3.57053 0
M  V30 4732 H 460.46 -0.307091 -3.71633 0
M  V30 4733 N 462.645 1.35699 -0.801477 0
M  V30 4734 C 463.891 1.99208 -0.380022 0
M  V30 4735 C 464.224 1.63445 1.04878 0
M  V30 4736 O 463.499 0.895223 1.72673 0
M  V30 4737 C 463.782 3.55755 -0.557708 0
M  V30 4738 C 463.635 4.01332 -2.03107 0
M  V30 4739 C 464.954 4.40096 0.0197968 0
M  V30 4740 H 462.073 0.723667 -0.139552 0
M  V30 4741 H 464.715 1.60928 -1.01006 0
M  V30 4742 H 462.865 3.88494 -0.0213741 0
M  V30 4743 H 464.537 3.79026 -2.62939 0
M  V30 4744 H 462.78 3.52429 -2.52936 0
M  V30 4745 H 463.451 5.10234 -2.1063 0
M  V30 4746 H 465.927 4.13786 -0.438179 0
M  V30 4747 H 464.803 5.48735 -0.134477 0
M  V30 4748 H 465.064 4.2786 1.11303 0
M  V30 4749 N 464.123 0.554532 1.47522 0
M  V30 4750 C 465.053 -0.182974 2.32782 0
M  V30 4751 C 466.034 -0.911377 1.43624 0
M  V30 4752 O 467.219 -0.892366 1.72483 0
M  V30 4753 C 464.349 -1.21513 3.25349 0
M  V30 4754 C 463.303 -0.603355 4.23726 0
M  V30 4755 C 462.629 -1.73995 5.05598 0
M  V30 4756 C 463.929 0.441121 5.20434 0
M  V30 4757 H 465.623 0.52882 2.94693 0
M  V30 4758 H 463.169 0.255759 1.41711 0
M  V30 4759 H 465.122 -1.73922 3.83835 0
M  V30 4760 H 463.846 -1.95683 2.61487 0
M  V30 4761 H 462.505 -0.10059 3.66462 0
M  V30 4762 H 462.153 -2.47063 4.38143 0
M  V30 4763 H 461.853 -1.3364 5.72201 0
M  V30 4764 H 463.377 -2.26735 5.66942 0
M  V30 4765 H 464.791 0.00319931 5.733 0
M  V30 4766 H 463.188 0.763402 5.95224 0
M  V30 4767 H 464.258 1.33799 4.66075 0
M  V30 4768 N 465.601 -1.54893 0.290851 0
M  V30 4769 C 466.829 -2.04343 -0.324288 0
M  V30 4770 C 467.244 -1.16859 -1.48289 0
M  V30 4771 O 466.601 -0.192018 -1.81487 0
M  V30 4772 C 466.652 -3.52756 -0.79026 0
M  V30 4773 O 466.373 -4.36913 0.322213 0
M  V30 4774 C 467.874 -4.18161 -1.4716 0
M  V30 4775 H 465.094 -0.667135 -0.0719173 0
M  V30 4776 H 467.638 -1.99981 0.427529 0
M  V30 4777 H 465.793 -3.57511 -1.49213 0
M  V30 4778 H 466.207 -5.24486 -0.0387372 0
M  V30 4779 H 467.681 -5.23562 -1.7489 0
M  V30 4780 H 468.158 -3.67282 -2.40834 0
M  V30 4781 H 468.764 -4.17454 -0.813178 0
M  V30 4782 N 467.08 -0.0183926 -1.57589 0
M  V30 4783 C 468.326 0.663543 -1.91638 0
M  V30 4784 C 468.659 1.72392 -0.894134 0
M  V30 4785 O 467.934 1.94316 0.0846449 0
M  V30 4786 C 468.217 1.28984 -3.36207 0
M  V30 4787 C 468.07 0.239761 -4.49161 0
M  V30 4788 C 469.389 2.2109 -3.80536 0
M  V30 4789 H 466.508 0.239746 -0.696915 0
M  V30 4790 H 469.15 -0.073456 -1.89858 0
M  V30 4791 H 467.3 1.91799 -3.37854 0
M  V30 4792 H 468.972 -0.390119 -4.59647 0
M  V30 4793 H 467.215 -0.435972 -4.31604 0
M  V30 4794 H 467.886 0.717383 -5.47319 0
M  V30 4795 H 470.362 1.68273 -3.80557 0
M  V30 4796 H 469.238 2.61869 -4.82406 0
M  V30 4797 H 469.499 3.09764 -3.15434 0
M  V30 4798 N 468.558 1.5553 0.254621 0
M  V30 4799 C 469.804 1.77262 0.985193 0
M  V30 4800 C 470.137 0.582286 1.85265 0
M  V30 4801 O 469.412 -0.419666 1.89919 0
M  V30 4802 C 469.695 3.0881 1.85225 0
M  V30 4803 C 469.548 4.38233 1.0135 0
M  V30 4804 C 470.867 3.3653 2.83612 0
M  V30 4805 H 467.986 0.644906 0.356742 0
M  V30 4806 H 470.628 1.88264 0.256236 0
M  V30 4807 H 468.778 2.99562 2.47376 0
M  V30 4808 H 470.45 4.59463 0.411269 0
M  V30 4809 H 468.693 4.32636 0.317574 0
M  V30 4810 H 469.364 5.26644 1.65379 0
M  V30 4811 H 471.84 3.45691 2.31596 0
M  V30 4812 H 470.716 4.29805 3.41407 0
M  V30 4813 H 470.977 2.57064 3.59681 0
M  V30 4814 N 470.036 -0.519951 1.48776 0
M  V30 4815 C 470.986 -1.61995 1.60442 0
M  V30 4816 C 471.97 -1.54155 0.460991 0
M  V30 4817 O 473.162 -1.62006 0.712965 0
M  V30 4818 C 470.291 -3.00683 1.65664 0
M  V30 4819 C 469.377 -3.1359 2.8552 0
M  V30 4820 N 469.768 -2.96441 4.09825 0
M  V30 4821 C 468.066 -3.44662 2.83062 0
M  V30 4822 C 468.767 -3.1303 4.90293 0
M  V30 4823 N 467.743 -3.41058 4.23297 0
M  V30 4824 H 471.545 -1.47362 2.54287 0
M  V30 4825 H 469.059 -0.725649 1.45286 0
M  V30 4826 H 471.056 -3.79712 1.72117 0
M  V30 4827 H 469.716 -3.16401 0.729425 0
M  V30 4828 H 470.727 -2.72999 4.40104 0
M  V30 4829 H 467.404 -3.66675 1.9964 0
M  V30 4830 H 468.794 -3.04424 5.98979 0
M  V30 4831 N 471.514 -1.37532 -0.769588 0
M  V30 4832 C 472.446 -1.29347 -1.89214 0
M  V30 4833 C 473.459 -0.208842 -1.61455 0
M  V30 4834 O 474.648 -0.465158 -1.72333 0
M  V30 4835 C 471.748 -0.977649 -3.24492 0
M  V30 4836 C 470.921 -2.16817 -3.7988 0
M  V30 4837 C 469.98 -1.82229 -4.93639 0
M  V30 4838 O 469.006 -2.54548 -5.09111 0
M  V30 4839 N 470.208 -0.767696 -5.75401 0
M  V30 4840 H 472.973 -2.26073 -1.96751 0
M  V30 4841 H 470.534 -1.31185 -0.948795 0
M  V30 4842 H 472.526 -0.727065 -3.98115 0
M  V30 4843 H 471.096 -0.0988777 -3.12444 0
M  V30 4844 H 470.316 -2.58038 -2.9801 0
M  V30 4845 H 471.604 -2.96308 -4.13617 0
M  V30 4846 H 471.002 -0.167626 -5.65452 0
M  V30 4847 H 469.559 -0.576973 -6.49241 0
M  V30 4848 N 472.992 0.995999 -1.22138 0
M  V30 4849 C 474.269 1.70834 -0.952642 0
M  V30 4850 C 474.649 2.04257 0.533119 0
M  V30 4851 O 473.997 1.72343 1.50034 0
M  V30 4852 C 474.207 2.96119 -1.84701 0
M  V30 4853 C 475.555 3.68962 -2.10124 0
M  V30 4854 O 476.579 3.0612 -1.82124 0
M  V30 4855 O 475.438 4.82017 -2.57531 0
M  V30 4856 H 472.532 0.745498 -0.357997 0
M  V30 4857 H 475.078 1.05262 -1.33109 0
M  V30 4858 H 473.85 2.67898 -2.85213 0
M  V30 4859 H 473.473 3.6943 -1.46995 0
M  V30 4860 N 474.47 1.03057 1.19235 0
M  V30 4861 C 475.716 0.738841 1.89506 0
M  V30 4862 C 476.071 -0.724807 1.78225 0
M  V30 4863 O 475.364 -1.52118 1.16494 0
M  V30 4864 C 475.558 1.1268 3.39172 0
M  V30 4865 C 475.387 2.62662 3.65019 0
M  V30 4866 C 474.157 3.29658 3.82954 0
M  V30 4867 C 476.355 3.60873 3.66436 0
M  V30 4868 N 474.337 4.68726 3.96446 0
M  V30 4869 C 475.708 4.85566 3.8552 0
M  V30 4870 C 477.763 3.54647 3.49471 0
M  V30 4871 C 476.466 6.04783 3.89397 0
M  V30 4872 C 478.492 4.73281 3.54625 0
M  V30 4873 C 477.854 5.96789 3.74196 0
M  V30 4874 H 473.953 0.322256 0.712513 0
M  V30 4875 H 476.537 1.31822 1.43287 0
M  V30 4876 H 474.708 0.575612 3.84111 0
M  V30 4877 H 476.44 0.787145 3.96971 0
M  V30 4878 H 473.195 2.8007 3.81913 0
M  V30 4879 H 473.619 5.40971 4.07037 0
M  V30 4880 H 478.261 2.60143 3.33295 0
M  V30 4881 H 475.979 6.99654 4.04364 0
M  V30 4882 H 479.565 4.70094 3.42787 0
M  V30 4883 H 478.445 6.87051 3.78061 0
M  V30 4884 N 475.948 -1.35272 0.808662 0
M  V30 4885 C 476.878 -2.32315 0.234981 0
M  V30 4886 C 477.859 -1.57572 -0.64071 0
M  V30 4887 O 479.044 -1.8563 -0.570551 0
M  V30 4888 C 476.174 -3.41801 -0.615601 0
M  V30 4889 C 475.128 -4.27694 0.161767 0
M  V30 4890 C 474.454 -5.28519 -0.810649 0
M  V30 4891 C 475.754 -5.04231 1.36193 0
M  V30 4892 H 477.448 -2.80543 1.04575 0
M  V30 4893 H 474.994 -1.3488 0.504315 0
M  V30 4894 H 476.947 -4.08693 -1.02702 0
M  V30 4895 H 475.671 -2.92186 -1.45928 0
M  V30 4896 H 474.33 -3.62384 0.554382 0
M  V30 4897 H 473.978 -4.75171 -1.64988 0
M  V30 4898 H 473.678 -5.8686 -0.294822 0
M  V30 4899 H 475.202 -5.98283 -1.22023 0
M  V30 4900 H 476.616 -5.64058 1.02528 0
M  V30 4901 H 475.013 -5.72077 1.81239 0
M  V30 4902 H 476.083 -4.34753 2.14751 0
M  V30 4903 N 477.426 -0.562348 -1.47226 0
M  V30 4904 C 478.374 0.195476 -2.31777 0
M  V30 4905 C 479.368 0.90433 -1.43242 0
M  V30 4906 O 480.574 0.825031 -1.59979 0
M  V30 4907 H 476.949 0.0819095 -0.747526 0
M  V30 4908 H 478.92 -0.536753 -2.93533 0
M  V30 4909 C 477.669 1.20902 -3.26003 0
M  V30 4910 H 476.992 0.672997 -3.94095 0
M  V30 4911 H 478.432 1.71006 -3.87986 0
M  V30 4912 C 476.891 2.25955 -2.49891 0
M  V30 4913 O 477.421 3.32969 -2.2471 0
M  V30 4914 N 475.627 2.00019 -2.1081 0
M  V30 4915 H 475.174 1.13006 -2.31489 0
M  V30 4916 H 475.132 2.70523 -1.60201 0
M  V30 4917 N 478.904 1.54736 -0.299062 0
M  V30 4918 C 480.152 1.99706 0.31017 0
M  V30 4919 C 480.473 1.18896 1.54559 0
M  V30 4920 O 479.743 0.284445 1.93824 0
M  V30 4921 H 478.323 0.737686 0.117596 0
M  V30 4922 H 480.985 1.9054 -0.409943 0
M  V30 4923 H 480.081 3.06596 0.58355 0
M  V30 4924 N 480.382 0.0267497 1.57577 0
M  V30 4925 C 481.329 -0.955894 2.10075 0
M  V30 4926 C 482.299 -1.32453 1.00226 0
M  V30 4927 O 483.484 -1.41826 1.27632 0
M  V30 4928 C 480.624 -2.2338 2.6305 0
M  V30 4929 C 479.737 -1.92183 3.86898 0
M  V30 4930 C 478.872 -3.14251 4.28275 0
M  V30 4931 C 477.911 -2.78862 5.44888 0
M  V30 4932 N 477.048 -3.93548 5.81433 0
M  V30 4933 H 481.888 -0.501303 2.93753 0
M  V30 4934 H 479.425 -0.235847 1.45197 0
M  V30 4935 H 481.383 -2.98124 2.91853 0
M  V30 4936 H 480.013 -2.6646 1.82205 0
M  V30 4937 H 479.065 -1.07692 3.64838 0
M  V30 4938 H 480.377 -1.62117 4.7172 0
M  V30 4939 H 479.531 -3.97317 4.58502 0
M  V30 4940 H 478.27 -3.47476 3.42215 0
M  V30 4941 H 477.275 -1.94208 5.14357 0
M  V30 4942 H 478.5 -2.46855 6.32645 0
M  V30 4943 H 476.446 -4.2662 4.98328 0
M  V30 4944 H 476.363 -3.67098 6.6089 0
M  V30 4945 H 477.631 -4.77325 6.16264 0
M  V30 4946 N 481.861 -1.55662 -0.24637 0
M  V30 4947 C 482.771 -1.93495 -1.32653 0
M  V30 4948 C 483.787 -0.835462 -1.5263 0
M  V30 4949 O 484.963 -1.1369 -1.66242 0
M  V30 4950 C 482.028 -2.22242 -2.66101 0
M  V30 4951 C 481.089 -3.45625 -2.54641 0
M  V30 4952 C 480.322 -3.72991 -3.81724 0
M  V30 4953 O 480.545 -3.02421 -4.8363 0
M  V30 4954 O 479.479 -4.66515 -3.80325 0
M  V30 4955 H 483.305 -2.85498 -1.03559 0
M  V30 4956 H 480.89 -1.42551 -0.44717 0
M  V30 4957 H 482.772 -2.42037 -3.44958 0
M  V30 4958 H 481.447 -1.33417 -2.94926 0
M  V30 4959 H 480.354 -3.31136 -1.74067 0
M  V30 4960 H 481.687 -4.34754 -2.3076 0
M  V30 4961 N 483.339 0.512053 -1.4905 0
M  V30 4962 C 484.569 1.28928 -1.61434 0
M  V30 4963 C 484.977 1.87107 -0.280647 0
M  V30 4964 O 484.32 1.68024 0.742537 0
M  V30 4965 C 484.382 2.466 -2.61588 0
M  V30 4966 C 484.046 2.09375 -4.06216 0
M  V30 4967 C 485.043 1.63994 -4.93358 0
M  V30 4968 C 482.728 2.19348 -4.51876 0
M  V30 4969 C 484.722 1.29076 -6.24194 0
M  V30 4970 C 482.409 1.84041 -5.82728 0
M  V30 4971 C 483.407 1.38978 -6.68711 0
M  V30 4972 O 483.095 1.04144 -7.97126 0
M  V30 4973 H 482.827 0.397668 -0.546659 0
M  V30 4974 H 485.381 0.622507 -1.9574 0
M  V30 4975 H 483.611 3.16318 -2.22441 0
M  V30 4976 H 485.3 3.08642 -2.63619 0
M  V30 4977 H 486.066 1.55744 -4.59313 0
M  V30 4978 H 481.945 2.53376 -3.85125 0
M  V30 4979 H 485.489 0.938303 -6.91261 0
M  V30 4980 H 481.386 1.91938 -6.16304 0
M  V30 4981 H 482.154 1.17387 -8.10039 0
M  V30 4982 N 484.817 1.37938 0.762283 0
M  V30 4983 C 485.764 1.34467 1.87583 0
M  V30 4984 C 486.734 0.208633 1.64785 0
M  V30 4985 O 487.919 0.399494 1.86571 0
M  V30 4986 C 485.059 1.16692 3.24772 0
M  V30 4987 C 484.172 2.39608 3.59461 0
M  V30 4988 C 483.307 2.14631 4.85908 0
M  V30 4989 C 482.346 3.33364 5.13357 0
M  V30 4990 N 481.483 3.07877 6.30996 0
M  V30 4991 H 486.323 2.29669 1.89885 0
M  V30 4992 H 483.86 1.14116 0.928219 0
M  V30 4993 H 485.818 1.04405 4.03925 0
M  V30 4994 H 484.448 0.251333 3.2182 0
M  V30 4995 H 483.5 2.626 2.75219 0
M  V30 4996 H 484.812 3.28128 3.75678 0
M  V30 4997 H 483.966 1.99429 5.72986 0
M  V30 4998 H 482.705 1.23463 4.71814 0
M  V30 4999 H 481.71 3.49094 4.24751 0
M  V30 5000 H 482.935 4.25395 5.29354 0
M  V30 5001 H 480.881 2.19348 6.18241 0
M  V30 5002 H 480.798 3.89944 6.47673 0
M  V30 5003 H 482.066 2.96313 7.20985 0
M  V30 5004 N 486.295 -0.989507 1.22664 0
M  V30 5005 C 487.535 -1.7447 1.06488 0
M  V30 5006 C 487.899 -1.8794 -0.392737 0
M  V30 5007 O 489.1 -2.60175 -0.675446 0
M  V30 5008 C 487.371 -3.11043 1.76031 0
M  V30 5009 S 488.93 -4.02258 1.7531 0
M  V30 5010 H 485.748 -0.600123 0.381278 0
M  V30 5011 H 488.35 -1.18283 1.55658 0
M  V30 5012 H 487.054 -2.98884 2.81241 0
M  V30 5013 H 486.585 -3.72301 1.27105 0
M  V30 5014 H 488.6 -4.89623 0.805208 0
M  V30 5015 N 487.773 -1.03688 -1.18687 0
M  V30 5016 C 488.72 -0.624624 -2.22187 0
M  V30 5017 C 489.69 0.365636 -1.62026 0
M  V30 5018 O 490.875 0.260481 -1.89014 0
M  V30 5019 C 488.015 0.0101738 -3.45099 0
M  V30 5020 C 487.128 -1.02709 -4.19613 0
M  V30 5021 C 486.263 -0.361213 -5.2997 0
M  V30 5022 C 485.302 -1.38384 -5.96252 0
M  V30 5023 N 484.439 -0.743196 -6.98155 0
M  V30 5024 H 489.279 -1.51176 -2.56807 0
M  V30 5025 H 486.816 -0.75636 -1.26165 0
M  V30 5026 H 488.774 0.395528 -4.15321 0
M  V30 5027 H 487.404 0.860848 -3.1111 0
M  V30 5028 H 486.456 -1.53043 -3.48256 0
M  V30 5029 H 487.768 -1.80398 -4.65036 0
M  V30 5030 H 486.922 0.0785537 -6.06649 0
M  V30 5031 H 485.661 0.447799 -4.8564 0
M  V30 5032 H 484.666 -1.83378 -5.18317 0
M  V30 5033 H 485.891 -2.19448 -6.42666 0
M  V30 5034 H 483.837 0.0455789 -6.55984 0
M  V30 5035 H 483.754 -1.45784 -7.41811 0
M  V30 5036 H 485.022 -0.327698 -7.78811 0
M  V30 5037 N 489.251 1.34841 -0.815825 0
M  V30 5038 C 490.497 1.98793 -0.401129 0
M  V30 5039 C 490.83 1.64548 1.03139 0
M  V30 5040 O 490.105 0.913487 1.71714 0
M  V30 5041 C 490.388 3.55143 -0.595409 0
M  V30 5042 C 490.241 3.99155 -2.07352 0
M  V30 5043 C 491.56 4.40092 -0.0268823 0
M  V30 5044 H 488.679 0.722146 -0.14722 0
M  V30 5045 H 491.321 1.59847 -1.02707 0
M  V30 5046 H 489.471 3.8845 -0.0625779 0
M  V30 5047 H 491.143 3.76216 -2.66945 0
M  V30 5048 H 489.386 3.49726 -2.56659 0
M  V30 5049 H 490.057 5.07971 -2.1603 0
M  V30 5050 H 492.533 4.13298 -0.482042 0
M  V30 5051 H 491.409 5.48562 -0.19267 0
M  V30 5052 H 491.67 4.29016 1.06759 0
M  V30 5053 N 490.729 0.570148 1.46925 0
M  V30 5054 C 491.954 0.0542592 2.07329 0
M  V30 5055 C 492.379 -1.23582 1.41806 0
M  V30 5056 O 491.737 -1.74341 0.497479 0
M  V30 5057 C 491.785 -0.111175 3.60429 0
M  V30 5058 O 490.889 -1.17071 3.95434 0
M  V30 5059 H 490.23 0.0571425 0.661537 0
M  V30 5060 H 492.76 0.789516 1.88753 0
M  V30 5061 H 492.77 -0.321315 4.06733 0
M  V30 5062 H 491.445 0.831012 4.07513 0
M  V30 5063 H 490.022 -0.940029 3.60857 0
M  V30 5064 N 492.207 -1.54576 0.307264 0
M  V30 5065 C 493.155 -2.25208 -0.581723 0
M  V30 5066 C 494.149 -1.26031 -1.13192 0
M  V30 5067 O 495.355 -1.43862 -1.08184 0
M  V30 5068 H 491.73 -0.723173 -0.206214 0
M  V30 5069 H 493.701 -2.98378 0.0364663 0
M  V30 5070 C 492.45 -3.01086 -1.73904 0
M  V30 5071 H 491.773 -3.77208 -1.32491 0
M  V30 5072 H 493.213 -3.5378 -2.33701 0
M  V30 5073 C 491.672 -2.08422 -2.64692 0
M  V30 5074 O 492.202 -1.65636 -3.65961 0
M  V30 5075 N 490.408 -1.74247 -2.32564 0
M  V30 5076 H 489.955 -2.09238 -1.50257 0
M  V30 5077 H 489.913 -1.12524 -2.93574 0
M  V30 5078 N 493.685 -0.035106 -1.57561 0
M  V30 5079 C 494.632 0.94474 -2.10578 0
M  V30 5080 C 495.602 1.3192 -1.00927 0
M  V30 5081 O 496.787 1.41147 -1.28382 0
M  V30 5082 C 493.927 2.21982 -2.64231 0
M  V30 5083 C 493.04 1.90128 -3.87911 0
M  V30 5084 C 492.175 3.11975 -4.29936 0
M  V30 5085 C 491.214 2.75968 -5.46359 0
M  V30 5086 N 490.351 3.90459 -5.83512 0
M  V30 5087 H 495.191 0.485717 -2.94015 0
M  V30 5088 H 492.728 0.228143 -1.4532 0
M  V30 5089 H 494.686 2.96572 -2.9343 0
M  V30 5090 H 493.316 2.6549 -1.83616 0
M  V30 5091 H 492.368 1.05755 -3.65404 0
M  V30 5092 H 493.68 1.59613 -4.72573 0
M  V30 5093 H 492.834 3.9488 -4.60603 0
M  V30 5094 H 491.573 3.45657 -3.44053 0
M  V30 5095 H 490.578 1.91478 -5.1538 0
M  V30 5096 H 491.803 2.43497 -6.33945 0
M  V30 5097 H 489.749 4.23971 -5.00584 0
M  V30 5098 H 489.666 3.63588 -6.62827 0
M  V30 5099 H 490.934 4.7405 -6.18787 0
M  V30 5100 N 495.163 1.55791 0.238111 0
M  V30 5101 C 496.411 1.77681 0.963001 0
M  V30 5102 C 496.732 0.600674 1.85518 0
M  V30 5103 O 496.002 -0.383182 1.92116 0
M  V30 5104 H 494.582 0.655315 0.358568 0
M  V30 5105 H 497.244 1.93239 0.253945 0
M  V30 5106 H 496.34 2.69177 1.57956 0
M  V30 5107 N 496.642 -0.504142 1.49319 0
M  V30 5108 C 497.572 -1.61473 1.68667 0
M  V30 5109 C 498.553 -1.61455 0.535378 0
M  V30 5110 O 499.738 -1.78245 0.770868 0
M  V30 5111 C 496.868 -2.99971 1.75028 0
M  V30 5112 C 495.822 -3.14854 2.89916 0
M  V30 5113 C 495.148 -4.54671 2.81387 0
M  V30 5114 C 496.448 -2.95176 4.30893 0
M  V30 5115 H 498.142 -1.45535 2.61648 0
M  V30 5116 H 495.688 -0.698711 1.25913 0
M  V30 5117 H 497.641 -3.77562 1.8715 0
M  V30 5118 H 496.365 -3.1699 0.786441 0
M  V30 5119 H 495.024 -2.39687 2.77391 0
M  V30 5120 H 494.672 -4.68562 1.82917 0
M  V30 5121 H 494.372 -4.6557 3.58494 0
M  V30 5122 H 495.896 -5.34327 2.95512 0
M  V30 5123 H 497.31 -3.62538 4.44116 0
M  V30 5124 H 495.707 -3.17549 5.09198 0
M  V30 5125 H 496.777 -1.91332 4.45556 0
M  V30 5126 N 498.12 -1.38341 -0.754957 0
M  V30 5127 C 499.531 -1.30803 -1.3322 0
M  V30 5128 C 499.882 0.0368 -1.96165 0
M  V30 5129 O 499.007 0.938844 -1.94974 0
M  V30 5130 C 499.602 -2.3688 -2.42225 0
M  V30 5131 C 498.161 -2.32925 -2.95674 0
M  V30 5132 C 497.308 -2.19819 -1.69042 0
M  V30 5133 H 500.259 -1.48719 -0.553937 0
M  V30 5134 H 500.28 -2.02517 -3.22129 0
M  V30 5135 H 499.792 -3.34747 -1.96383 0
M  V30 5136 H 497.893 -1.38635 -3.45848 0
M  V30 5137 H 498.006 -3.27008 -3.50146 0
M  V30 5138 H 496.37 -1.66648 -1.92615 0
M  V30 5139 H 497.153 -3.19625 -1.25279 0
M  V30 5140 N 499.598 0.982988 -1.23187 0
M  V30 5141 C 500.561 2.05649 -1.01198 0
M  V30 5142 C 501.561 1.6078 0.0252464 0
M  V30 5143 O 502.751 1.72878 -0.214243 0
M  V30 5144 C 499.883 3.36744 -0.530656 0
M  V30 5145 H 501.076 2.2659 -1.96461 0
M  V30 5146 H 498.629 1.15602 -1.05195 0
M  V30 5147 H 499.364 3.21492 0.425873 0
M  V30 5148 H 499.149 3.7065 -1.2791 0
M  V30 5149 H 500.639 4.15705 -0.397366 0
M  V30 5150 N 501.076 1.04316 1.18135 0
M  V30 5151 C 502.487 0.775505 1.69832 0
M  V30 5152 C 502.838 -0.703348 1.8316 0
M  V30 5153 O 501.963 -1.54729 1.51287 0
M  V30 5154 C 502.558 1.40112 3.0847 0
M  V30 5155 C 501.117 1.18172 3.57368 0
M  V30 5156 C 500.264 1.49022 2.33854 0
M  V30 5157 H 503.215 1.20925 1.02775 0
M  V30 5158 H 503.236 0.805672 3.71873 0
M  V30 5159 H 502.748 2.47744 2.98738 0
M  V30 5160 H 500.849 0.124258 3.72393 0
M  V30 5161 H 500.962 1.8805 4.40652 0
M  V30 5162 H 499.326 0.909995 2.37889 0
M  V30 5163 H 500.109 2.57768 2.26738 0
M  V30 5164 N 502.554 -1.34406 0.822964 0
M  V30 5165 C 503.803 -1.97542 0.407458 0
M  V30 5166 C 504.116 -1.65973 -1.035 0
M  V30 5167 O 505.322 -2.22598 -1.55442 0
M  V30 5168 C 503.778 -3.53463 0.677623 0
M  V30 5169 C 503.386 -3.93925 2.1337 0
M  V30 5170 C 505.13 -4.23229 0.328284 0
M  V30 5171 C 503.037 -5.42759 2.34876 0
M  V30 5172 H 501.967 -0.739207 0.148623 0
M  V30 5173 H 504.618 -1.53248 1.00932 0
M  V30 5174 H 503 -3.96 0.00558965 0
M  V30 5175 H 504.174 -3.62494 2.8449 0
M  V30 5176 H 502.489 -3.37097 2.44448 0
M  V30 5177 H 505.086 -5.32659 0.466794 0
M  V30 5178 H 505.429 -4.09899 -0.727224 0
M  V30 5179 H 505.962 -3.86169 0.954896 0
M  V30 5180 H 502.701 -5.61075 3.38932 0
M  V30 5181 H 502.221 -5.75704 1.68299 0
M  V30 5182 H 503.9 -6.0944 2.17236 0
M  V30 5183 N 504.032 -0.577932 -1.46621 0
M  V30 5184 C 504.942 0.160651 -2.34049 0
M  V30 5185 C 505.958 0.890911 -1.49462 0
M  V30 5186 O 507.134 0.855166 -1.82343 0
M  V30 5187 C 504.199 1.16447 -3.26559 0
M  V30 5188 C 503.26 0.4394 -4.27045 0
M  V30 5189 C 502.493 1.3954 -5.15135 0
M  V30 5190 O 502.716 2.63162 -5.06065 0
M  V30 5191 O 501.65 0.908585 -5.95003 0
M  V30 5192 H 505.476 -0.557057 -2.98547 0
M  V30 5193 H 503.061 -0.338369 -1.45518 0
M  V30 5194 H 504.943 1.7434 -3.83645 0
M  V30 5195 H 503.618 1.86373 -2.64663 0
M  V30 5196 H 502.525 -0.181247 -3.73661 0
M  V30 5197 H 503.858 -0.218799 -4.91713 0
M  V30 5198 N 505.51 1.54411 -0.315457 0
M  V30 5199 C 506.457 2.24048 0.554166 0
M  V30 5200 C 507.427 1.2283 1.11812 0
M  V30 5201 O 508.612 1.51491 1.15997 0
M  V30 5202 C 505.752 2.99574 1.71316 0
M  V30 5203 C 504.865 4.15594 1.17922 0
M  V30 5204 C 504 4.78669 2.30324 0
M  V30 5205 C 503.039 5.86807 1.74137 0
M  V30 5206 N 502.176 6.43777 2.8017 0
M  V30 5207 H 507.016 2.97964 -0.0462602 0
M  V30 5208 H 504.553 1.47059 -0.0346009 0
M  V30 5209 H 506.511 3.41604 2.39505 0
M  V30 5210 H 505.141 2.28008 2.285 0
M  V30 5211 H 504.193 3.78404 0.389136 0
M  V30 5212 H 505.505 4.93459 0.728012 0
M  V30 5213 H 504.659 5.23626 3.06433 0
M  V30 5214 H 503.398 4.00168 2.78778 0
M  V30 5215 H 502.403 5.41261 0.965236 0
M  V30 5216 H 503.628 6.67201 1.2657 0
M  V30 5217 H 501.574 5.68153 3.2793 0
M  V30 5218 H 501.491 7.17031 2.39588 0
M  V30 5219 H 502.759 6.9339 3.56132 0
M  V30 5220 N 506.988 0.0434614 1.5754 0
M  V30 5221 C 508.216 -0.641835 1.96693 0
M  V30 5222 C 508.631 -1.64832 0.920652 0
M  V30 5223 O 507.988 -1.82247 -0.095993 0
M  V30 5224 C 508.039 -1.33557 3.35924 0
M  V30 5225 O 507.76 -0.369403 4.3654 0
M  V30 5226 C 509.261 -2.11135 3.89791 0
M  V30 5227 H 506.481 -0.176013 0.647503 0
M  V30 5228 H 509.025 0.107478 2.04217 0
M  V30 5229 H 507.18 -2.03617 3.29574 0
M  V30 5230 H 507.594 -0.863674 5.1734 0
M  V30 5231 H 509.068 -2.55107 4.89514 0
M  V30 5232 H 509.545 -2.95634 3.24803 0
M  V30 5233 H 510.151 -1.46002 3.99454 0
M  V30 5234 N 508.466 -1.55915 -0.229846 0
M  V30 5235 C 509.715 -1.77742 -0.953455 0
M  V30 5236 C 510.028 -0.610524 -1.85828 0
M  V30 5237 O 511.234 -0.712219 -2.61992 0
M  V30 5238 C 509.69 -3.14738 -1.74551 0
M  V30 5239 C 509.298 -4.39126 -0.887242 0
M  V30 5240 C 511.042 -3.45895 -2.46084 0
M  V30 5241 C 508.949 -5.67149 -1.67617 0
M  V30 5242 H 507.879 -0.662648 -0.359741 0
M  V30 5243 H 510.53 -1.82322 -0.207576 0
M  V30 5244 H 508.912 -3.04311 -2.53399 0
M  V30 5245 H 510.086 -4.60588 -0.139892 0
M  V30 5246 H 508.401 -4.15427 -0.284443 0
M  V30 5247 H 510.998 -4.38767 -3.05594 0
M  V30 5248 H 511.341 -2.68007 -3.18556 0
M  V30 5249 H 511.874 -3.57614 -1.74233 0
M  V30 5250 H 508.613 -6.47906 -0.994881 0
M  V30 5251 H 508.133 -5.49763 -2.39836 0
M  V30 5252 H 509.812 -6.07025 -2.23898 0
M  V30 5253 N 509.944 0.496216 -1.49584 0
M  V30 5254 C 511.169 1.27865 -1.63295 0
M  V30 5255 C 511.594 1.85592 -0.306156 0
M  V30 5256 O 510.952 1.66092 0.726851 0
M  V30 5257 C 511 2.38128 -2.7079 0
M  V30 5258 O 510.104 3.42108 -2.30296 0
M  V30 5259 H 509.445 0.377279 -0.546403 0
M  V30 5260 H 511.975 0.593497 -1.95803 0
M  V30 5261 H 511.985 2.8382 -2.93104 0
M  V30 5262 H 510.66 1.95479 -3.67098 0
M  V30 5263 H 509.237 3.02301 -2.18331 0
M  V30 5264 N 511.423 1.38739 0.74761 0
M  V30 5265 C 512.37 1.36449 1.86146 0
M  V30 5266 C 513.34 0.226098 1.64554 0
M  V30 5267 O 514.525 0.41926 1.86137 0
M  V30 5268 C 511.665 1.2013 3.23516 0
M  V30 5269 C 510.778 2.43407 3.56899 0
M  V30 5270 C 509.913 2.19773 4.83605 0
M  V30 5271 C 508.952 3.3879 5.09792 0
M  V30 5272 N 508.089 3.14553 6.27695 0
M  V30 5273 H 512.929 2.3167 1.87438 0
M  V30 5274 H 510.466 1.15094 0.916063 0
M  V30 5275 H 512.424 1.08683 4.02795 0
M  V30 5276 H 511.054 0.285453 3.21535 0
M  V30 5277 H 510.106 2.65504 2.72418 0
M  V30 5278 H 511.418 3.32094 3.72176 0
M  V30 5279 H 510.572 2.05496 5.70838 0
M  V30 5280 H 509.311 1.28461 4.70478 0
M  V30 5281 H 508.316 3.53579 4.21025 0
M  V30 5282 H 509.541 4.30986 5.24812 0
M  V30 5283 H 507.487 2.25893 6.1588 0
M  V30 5284 H 507.404 3.96791 6.435 0
M  V30 5285 H 508.672 3.03943 7.17801 0
M  V30 5286 N 512.901 -0.976442 1.23707 0
M  V30 5287 C 514.129 -1.75341 1.09833 0
M  V30 5288 C 514.544 -1.8553 -0.349885 0
M  V30 5289 O 513.901 -1.33732 -1.24185 0
M  V30 5290 C 513.952 -3.17833 1.72233 0
M  V30 5291 O 513.673 -3.08167 3.11391 0
M  V30 5292 C 515.174 -4.11906 1.63853 0
M  V30 5293 H 512.394 -0.550137 0.384175 0
M  V30 5294 H 514.938 -1.2265 1.63638 0
M  V30 5295 H 513.093 -3.67538 1.22452 0
M  V30 5296 H 513.507 -3.97897 3.41729 0
M  V30 5297 H 514.981 -5.09579 2.12211 0
M  V30 5298 H 515.458 -4.35109 0.598092 0
M  V30 5299 H 516.064 -3.68107 2.13019 0
M  V30 5300 N 514.379 -1.04941 -1.1758 0
M  V30 5301 C 515.326 -0.648155 -2.21512 0
M  V30 5302 C 516.296 0.348431 -1.62404 0
M  V30 5303 O 517.481 0.240419 -1.89279 0
M  V30 5304 C 514.621 -0.0264291 -3.4509 0
M  V30 5305 C 513.734 -1.07154 -4.185 0
M  V30 5306 C 512.869 -0.417403 -5.29558 0
M  V30 5307 C 511.908 -1.447 -5.94751 0
M  V30 5308 N 511.045 -0.817203 -6.97328 0
M  V30 5309 H 515.885 -1.53891 -2.55189 0
M  V30 5310 H 513.422 -0.769699 -1.25356 0
M  V30 5311 H 515.38 0.351456 -4.15717 0
M  V30 5312 H 514.01 0.827802 -3.12005 0
M  V30 5313 H 513.062 -1.56728 -3.46613 0
M  V30 5314 H 514.374 -1.8532 -4.63096 0
M  V30 5315 H 513.528 0.0142061 -6.06698 0
M  V30 5316 H 512.267 0.396265 -4.86087 0
M  V30 5317 H 511.272 -1.88865 -5.16343 0
M  V30 5318 H 512.497 -2.26252 -6.40302 0
M  V30 5319 H 510.443 -0.0239995 -6.55996 0
M  V30 5320 H 510.36 -1.53644 -7.40223 0
M  V30 5321 H 511.628 -0.410283 -7.7842 0
M  V30 5322 N 515.857 1.33968 -0.830081 0
M  V30 5323 C 517.105 1.97672 -0.420734 0
M  V30 5324 C 517.426 1.66111 1.02138 0
M  V30 5325 O 516.696 0.955503 1.71017 0
M  V30 5326 H 515.276 0.73125 -0.152587 0
M  V30 5327 H 517.938 1.63483 -1.0611 0
M  V30 5328 H 517.034 3.07294 -0.545588 0
M  V30 5329 N 517.335 0.585699 1.46312 0
M  V30 5330 C 518.267 -0.183687 2.28463 0
M  V30 5331 C 519.28 -0.85264 1.38686 0
M  V30 5332 O 520.469 -0.721701 1.6326 0
M  V30 5333 C 517.569 -1.27977 3.13808 0
M  V30 5334 C 516.742 -0.702164 4.31727 0
M  V30 5335 C 515.801 -1.68633 4.98447 0
M  V30 5336 O 514.827 -1.22121 5.55945 0
M  V30 5337 N 516.029 -3.02047 4.95729 0
M  V30 5338 H 518.794 0.521127 2.95134 0
M  V30 5339 H 516.355 0.423673 1.56258 0
M  V30 5340 H 518.347 -1.9375 3.55307 0
M  V30 5341 H 516.917 -1.8874 2.4919 0
M  V30 5342 H 516.137 0.1331 3.93975 0
M  V30 5343 H 517.425 -0.296101 5.07938 0
M  V30 5344 H 516.823 -3.42457 4.50266 0
M  V30 5345 H 515.38 -3.63301 5.41161 0
M  V30 5346 N 518.813 -1.54241 0.323641 0
M  V30 5347 C 520.224 -1.85975 -0.164405 0
M  V30 5348 C 520.575 -1.24529 -1.51615 0
M  V30 5349 O 519.7 -0.551351 -2.09258 0
M  V30 5350 C 520.295 -3.37424 -0.305091 0
M  V30 5351 C 518.854 -3.69107 -0.737358 0
M  V30 5352 C 518.001 -2.76942 0.140884 0
M  V30 5353 H 520.952 -1.49088 0.543922 0
M  V30 5354 H 520.973 -3.63147 -1.13598 0
M  V30 5355 H 520.485 -3.82116 0.678876 0
M  V30 5356 H 518.586 -3.29947 -1.73107 0
M  V30 5357 H 518.699 -4.76035 -0.541053 0
M  V30 5358 H 517.063 -2.51795 -0.383572 0
M  V30 5359 H 517.846 -3.24461 1.12162 0
M  V30 5360 N 520.291 -0.0518155 -1.57515 0
M  V30 5361 C 521.707 0.304735 -1.56664 0
M  V30 5362 C 521.907 1.71395 -1.05953 0
M  V30 5363 O 520.963 2.42123 -0.716414 0
M  V30 5364 C 522.276 0.132614 -3.00407 0
M  V30 5365 C 523.824 0.20367 -3.12337 0
M  V30 5366 C 524.299 0.0600706 -4.57961 0
M  V30 5367 N 525.79 0.116326 -4.63054 0
M  V30 5368 C 526.525 0.0293363 -5.73392 0
M  V30 5369 N 526.021 -0.110038 -6.92713 0
M  V30 5370 N 527.814 0.0849651 -5.62036 0
M  V30 5371 H 519.965 -0.973056 -1.888 0
M  V30 5372 H 522.228 -0.377781 -0.869474 0
M  V30 5373 H 521.934 -0.839019 -3.41546 0
M  V30 5374 H 521.808 0.893376 -3.66468 0
M  V30 5375 H 524.195 1.16578 -2.71097 0
M  V30 5376 H 524.276 -0.587857 -2.48954 0
M  V30 5377 H 523.92 -0.898715 -4.99886 0
M  V30 5378 H 523.85 0.87075 -5.19351 0
M  V30 5379 H 526.341 0.22327 -3.7724 0
M  V30 5380 H 526.654 -0.169104 -7.72615 0
M  V30 5381 H 524.999 -0.145132 -6.94848 0
M  V30 5382 H 528.19 0.192411 -4.67704 0
M  V30 5383 H 528.363 0.0137131 -6.47999 0
M  V30 5384 N 521.769 1.56035 0.221574 0
M  V30 5385 C 522.679 1.95581 1.29558 0
M  V30 5386 C 523.695 0.859639 1.51282 0
M  V30 5387 O 524.871 1.16321 1.64413 0
M  V30 5388 C 521.936 2.26447 2.62531 0
M  V30 5389 C 520.997 3.49632 2.4911 0
M  V30 5390 C 520.23 3.79017 3.75742 0
M  V30 5391 O 520.453 3.10077 4.78757 0
M  V30 5392 O 519.387 4.72507 3.72855 0
M  V30 5393 H 523.213 2.8711 0.990035 0
M  V30 5394 H 520.798 1.43244 0.424434 0
M  V30 5395 H 522.68 2.47494 3.41064 0
M  V30 5396 H 521.355 1.38092 2.92766 0
M  V30 5397 H 520.262 3.33864 1.68777 0
M  V30 5398 H 521.595 4.3837 2.23814 0
M  V30 5399 N 523.247 -0.488276 1.49845 0
M  V30 5400 C 524.658 -1.06955 1.53028 0
M  V30 5401 C 525.009 -1.9351 0.323797 0
M  V30 5402 O 524.134 -2.08891 -0.565116 0
M  V30 5403 C 524.729 -1.94643 2.77307 0
M  V30 5404 C 523.288 -2.4791 2.83227 0
M  V30 5405 C 522.435 -1.25833 2.47106 0
M  V30 5406 H 525.386 -0.271626 1.56358 0
M  V30 5407 H 525.407 -2.79496 2.5819 0
M  V30 5408 H 524.919 -1.31621 3.65099 0
M  V30 5409 H 523.02 -3.14535 1.99745 0
M  V30 5410 H 523.133 -2.84193 3.85709 0
M  V30 5411 H 521.497 -1.58764 1.99163 0
M  V30 5412 H 522.28 -0.644993 3.37186 0
M  V30 5413 N 524.725 -1.39134 -0.740242 0
M  V30 5414 C 525.657 -1.33332 -1.86428 0
M  V30 5415 C 526.67 -0.243042 -1.60976 0
M  V30 5416 O 527.859 -0.501608 -1.71307 0
M  V30 5417 C 524.959 -1.04626 -3.22346 0
M  V30 5418 C 524.132 -2.24826 -3.75196 0
M  V30 5419 C 523.191 -1.92659 -4.89662 0
M  V30 5420 O 522.217 -2.6529 -5.03597 0
M  V30 5421 N 523.419 -0.889575 -5.73643 0
M  V30 5422 H 526.184 -2.30196 -1.91911 0
M  V30 5423 H 523.745 -1.33168 -0.920756 0
M  V30 5424 H 525.737 -0.811347 -3.96484 0
M  V30 5425 H 524.307 -0.165129 -3.12164 0
M  V30 5426 H 523.527 -2.64301 -2.9247 0
M  V30 5427 H 524.815 -3.05015 -4.07239 0
M  V30 5428 H 524.213 -0.287529 -5.64969 0
M  V30 5429 H 522.77 -0.714557 -6.47871 0
M  V30 5430 N 526.204 0.969867 -1.24223 0
M  V30 5431 C 527.45 1.7151 -1.08223 0
M  V30 5432 C 527.783 1.90478 0.37838 0
M  V30 5433 O 527.058 1.4647 1.27971 0
M  V30 5434 C 527.341 3.10714 -1.82013 0
M  V30 5435 C 527.194 2.9925 -3.35811 0
M  V30 5436 C 528.513 4.10332 -1.59108 0
M  V30 5437 H 525.632 0.622499 -0.394543 0
M  V30 5438 H 528.274 1.1284 -1.52863 0
M  V30 5439 H 526.424 3.608 -1.44068 0
M  V30 5440 H 528.096 2.56608 -3.83341 0
M  V30 5441 H 526.339 2.35512 -3.64303 0
M  V30 5442 H 527.01 3.97857 -3.82641 0
M  V30 5443 H 529.486 3.69097 -1.92111 0
M  V30 5444 H 528.362 5.05804 -2.13198 0
M  V30 5445 H 528.623 4.38926 -0.528832 0
M  V30 5446 N 527.682 1.05563 1.17022 0
M  V30 5447 C 528.912 0.787307 1.91011 0
M  V30 5448 C 529.32 -0.661256 1.77268 0
M  V30 5449 O 528.663 -1.46379 1.10991 0
M  V30 5450 C 528.725 1.09313 3.42478 0
M  V30 5451 C 528.389 2.53863 3.80004 0
M  V30 5452 C 529.386 3.52081 3.82538 0
M  V30 5453 C 527.071 2.88969 4.10855 0
M  V30 5454 C 529.065 4.83449 4.15399 0
M  V30 5455 C 526.752 4.2054 4.43384 0
M  V30 5456 C 527.75 5.17589 4.45635 0
M  V30 5457 O 527.438 6.46799 4.77395 0
M  V30 5458 H 527.17 0.285463 0.61277 0
M  V30 5459 H 529.724 1.41051 1.49311 0
M  V30 5460 H 527.954 0.412833 3.8449 0
M  V30 5461 H 529.643 0.810224 3.97731 0
M  V30 5462 H 530.409 3.26299 3.58823 0
M  V30 5463 H 526.288 2.1409 4.08272 0
M  V30 5464 H 529.832 5.59194 4.1707 0
M  V30 5465 H 525.729 4.46083 4.66563 0
M  V30 5466 H 526.497 6.51677 4.95237 0
M  V30 5467 N 529.16 -1.33526 0.837174 0
M  V30 5468 C 530.388 -2.02047 0.445494 0
M  V30 5469 C 530.803 -1.62995 -0.952788 0
M  V30 5470 O 530.16 -0.842447 -1.61892 0
M  V30 5471 C 530.211 -3.57221 0.554577 0
M  V30 5472 O 529.932 -3.94863 1.89776 0
M  V30 5473 C 531.433 -4.43012 0.159634 0
M  V30 5474 H 528.653 -0.647221 0.177048 0
M  V30 5475 H 531.197 -1.70492 1.12928 0
M  V30 5476 H 529.352 -3.87315 -0.0812781 0
M  V30 5477 H 529.766 -4.89569 1.88208 0
M  V30 5478 H 531.24 -5.51253 0.28701 0
M  V30 5479 H 531.717 -4.29916 -0.898289 0
M  V30 5480 H 532.323 -4.18274 0.769855 0
M  V30 5481 N 530.638 -0.59345 -1.46 0
M  V30 5482 C 531.568 0.121192 -2.33185 0
M  V30 5483 C 532.549 0.872977 -1.4599 0
M  V30 5484 O 533.734 0.846321 -1.74789 0
M  V30 5485 C 530.864 1.12844 -3.28456 0
M  V30 5486 C 529.818 0.4908 -4.25177 0
M  V30 5487 C 529.144 1.60529 -5.10034 0
M  V30 5488 C 530.444 -0.578949 -5.19081 0
M  V30 5489 H 532.138 -0.606767 -2.93187 0
M  V30 5490 H 529.684 -0.293242 -1.40983 0
M  V30 5491 H 531.637 1.63684 -3.88311 0
M  V30 5492 H 530.361 1.88681 -2.66584 0
M  V30 5493 H 529.02 0.00339328 -3.666 0
M  V30 5494 H 528.668 2.35359 -4.44539 0
M  V30 5495 H 528.368 1.18422 -5.75543 0
M  V30 5496 H 529.892 2.11623 -5.72755 0
M  V30 5497 H 531.306 -0.155199 -5.7309 0
M  V30 5498 H 529.703 -0.920947 -5.92991 0
M  V30 5499 H 530.773 -1.46109 -4.62364 0
M  V30 5500 N 532.116 1.54067 -0.331816 0
M  V30 5501 C 533.527 1.86059 0.15454 0
M  V30 5502 C 533.878 1.25331 1.50952 0
M  V30 5503 O 533.003 0.562441 2.08963 0
M  V30 5504 C 533.598 3.37581 0.287192 0
M  V30 5505 C 532.157 3.69493 0.717773 0
M  V30 5506 C 531.304 2.76863 -0.155569 0
M  V30 5507 H 534.255 1.48797 -0.55182 0
M  V30 5508 H 534.276 3.63744 1.11671 0
M  V30 5509 H 533.788 3.81751 -0.699131 0
M  V30 5510 H 531.889 3.3086 1.71354 0
M  V30 5511 H 532.002 4.76315 0.5158 0
M  V30 5512 H 530.366 2.51995 0.370213 0
M  V30 5513 H 531.149 3.23861 -1.13881 0
M  V30 5514 N 533.594 0.0601682 1.57485 0
M  V30 5515 C 535.005 -0.474217 1.80577 0
M  V30 5516 C 535.356 -1.70365 0.973147 0
M  V30 5517 O 534.481 -2.15544 0.192306 0
M  V30 5518 C 535.076 -0.867102 3.27516 0
M  V30 5519 C 533.635 -1.34642 3.51495 0
M  V30 5520 C 532.782 -0.32594 2.75378 0
M  V30 5521 H 535.733 0.285973 1.56102 0
M  V30 5522 H 535.754 -1.72938 3.38929 0
M  V30 5523 H 535.266 0.0278927 3.8809 0
M  V30 5524 H 533.367 -2.2603 2.96212 0
M  V30 5525 H 533.48 -1.33237 4.60201 0
M  V30 5526 H 531.844 -0.800749 2.41785 0
M  V30 5527 H 532.627 0.561125 3.38683 0
M  V30 5528 N 535.072 -1.5615 -0.213296 0
M  V30 5529 C 536.297 -1.83986 -0.957282 0
M  V30 5530 C 536.722 -0.641526 -1.76822 0
M  V30 5531 O 536.08 0.409722 -1.7661 0
M  V30 5532 C 536.128 -3.09889 -1.84393 0
M  V30 5533 O 535.232 -2.89163 -2.94038 0
M  V30 5534 H 534.573 -0.606357 -0.270605 0
M  V30 5535 H 537.103 -2.03369 -0.224111 0
M  V30 5536 H 537.113 -3.40209 -2.25215 0
M  V30 5537 H 535.788 -3.96735 -1.24795 0
M  V30 5538 H 534.365 -2.70097 -2.57103 0
M  V30 5539 N 536.55 0.480323 -1.50102 0
M  V30 5540 C 537.966 0.813295 -1.37323 0
M  V30 5541 C 538.166 1.97027 -0.422206 0
M  V30 5542 O 537.222 2.5212 0.138563 0
M  V30 5543 C 538.535 1.13404 -2.78496 0
M  V30 5544 C 540.083 1.24104 -2.87345 0
M  V30 5545 C 540.558 1.59497 -4.29331 0
M  V30 5546 N 542.049 1.66507 -4.32238 0
M  V30 5547 C 542.784 1.95378 -5.39087 0
M  V30 5548 N 542.28 2.22333 -6.56155 0
M  V30 5549 N 544.073 1.96803 -5.26522 0
M  V30 5550 H 536.224 -0.282291 -2.10516 0
M  V30 5551 H 538.487 -0.063752 -0.945854 0
M  V30 5552 H 538.193 0.357064 -3.49883 0
M  V30 5553 H 538.067 2.07251 -3.15162 0
M  V30 5554 H 540.454 2.00871 -2.16183 0
M  V30 5555 H 540.535 0.282593 -2.54234 0
M  V30 5556 H 540.179 0.832736 -5.01027 0
M  V30 5557 H 540.109 2.56477 -4.59921 0
M  V30 5558 H 542.6 1.47753 -3.47818 0
M  V30 5559 H 542.913 2.43611 -7.33399 0
M  V30 5560 H 541.258 2.19745 -6.59346 0
M  V30 5561 H 544.449 1.75235 -4.34062 0
M  V30 5562 H 544.622 2.18969 -6.09883 0
M  V30 5563 N 538.028 1.39524 0.732853 0
M  V30 5564 C 538.938 1.40695 1.87729 0
M  V30 5565 C 539.954 0.301496 1.71368 0
M  V30 5566 O 541.13 0.543313 1.93933 0
M  V30 5567 C 538.195 1.25098 3.23344 0
M  V30 5568 C 537.256 2.45634 3.52083 0
M  V30 5569 C 536.489 2.30772 4.81228 0
M  V30 5570 O 536.712 1.31233 5.55098 0
M  V30 5571 O 535.646 3.19799 5.09914 0
M  V30 5572 H 539.472 2.37168 1.89697 0
M  V30 5573 H 537.057 1.20663 0.880959 0
M  V30 5574 H 538.939 1.18541 4.04383 0
M  V30 5575 H 537.614 0.317209 3.22142 0
M  V30 5576 H 536.521 2.57767 2.71122 0
M  V30 5577 H 537.854 3.37712 3.58066 0
M  V30 5578 N 539.506 -0.963266 1.24736 0
M  V30 5579 C 540.416 -2.09246 1.06082 0
M  V30 5580 C 541.432 -1.74 0.000363101 0
M  V30 5581 O 542.608 -2.0041 0.199479 0
M  V30 5582 C 539.673 -3.40115 0.672498 0
M  V30 5583 C 538.734 -3.89282 1.80993 0
M  V30 5584 C 537.967 -5.13905 1.44004 0
M  V30 5585 O 538.19 -5.69434 0.331835 0
M  V30 5586 O 537.124 -5.57566 2.26723 0
M  V30 5587 H 540.95 -2.27881 2.00759 0
M  V30 5588 H 538.535 -1.07649 1.03595 0
M  V30 5589 H 540.417 -4.18797 0.467668 0
M  V30 5590 H 539.092 -3.22771 -0.245102 0
M  V30 5591 H 537.999 -3.11642 2.06955 0
M  V30 5592 H 539.332 -4.1111 2.70646 0
M  V30 5593 N 540.985 -1.06182 -1.16461 0
M  V30 5594 C 541.918 -0.615859 -2.19733 0
M  V30 5595 C 542.896 0.360766 -1.58547 0
M  V30 5596 O 544.08 0.270009 -1.86556 0
M  V30 5597 C 541.207 0.097312 -3.3856 0
M  V30 5598 C 540.253 -0.835889 -4.18229 0
M  V30 5599 S 541.086 -2.33052 -4.82128 0
M  V30 5600 C 542.242 -1.62881 -6.04335 0
M  V30 5601 H 542.475 -1.49079 -2.57221 0
M  V30 5602 H 540.008 -0.874692 -1.27234 0
M  V30 5603 H 541.966 0.502563 -4.07412 0
M  V30 5604 H 540.627 0.948418 -2.99439 0
M  V30 5605 H 539.82 -0.283426 -5.03202 0
M  V30 5606 H 539.422 -1.18097 -3.54865 0
M  V30 5607 H 541.714 -0.933764 -6.71034 0
M  V30 5608 H 542.657 -2.45641 -6.64128 0
M  V30 5609 H 543.065 -1.11189 -5.53441 0
M  V30 5610 N 542.463 1.3308 -0.844243 0
M  V30 5611 C 543.691 2.01808 -0.456203 0
M  V30 5612 C 544.106 1.63498 0.944131 0
M  V30 5613 O 543.463 0.85102 1.61443 0
M  V30 5614 C 543.514 3.56922 -0.573513 0
M  V30 5615 O 543.235 3.93851 -1.91868 0
M  V30 5616 C 544.736 4.42922 -0.183125 0
M  V30 5617 H 541.956 0.646273 -0.180477 0
M  V30 5618 H 544.5 1.69891 -1.1383 0
M  V30 5619 H 542.655 3.87352 0.0607367 0
M  V30 5620 H 543.069 4.88564 -1.90802 0
M  V30 5621 H 544.543 5.51093 -0.316241 0
M  V30 5622 H 545.02 4.30386 0.875477 0
M  V30 5623 H 545.626 4.1786 -0.792027 0
M  V30 5624 N 543.941 0.601185 1.45683 0
M  V30 5625 C 544.888 -0.121396 2.30481 0
M  V30 5626 C 545.858 -0.866232 1.41724 0
M  V30 5627 O 547.043 -0.85324 1.70659 0
M  V30 5628 C 544.183 -1.11704 3.26521 0
M  V30 5629 C 543.296 -0.373741 4.3038 0
M  V30 5630 C 542.431 -1.35854 5.13534 0
M  V30 5631 C 541.47 -0.602689 6.09126 0
M  V30 5632 N 540.607 -1.53645 6.85082 0
M  V30 5633 H 545.447 0.607732 2.91737 0
M  V30 5634 H 542.984 0.311502 1.43764 0
M  V30 5635 H 544.942 -1.70735 3.80664 0
M  V30 5636 H 543.572 -1.81366 2.67032 0
M  V30 5637 H 542.624 0.331962 3.78949 0
M  V30 5638 H 543.936 0.2163 4.98331 0
M  V30 5639 H 543.09 -2.02111 5.72046 0
M  V30 5640 H 541.829 -1.98251 4.45587 0
M  V30 5641 H 540.834 0.0735482 5.49751 0
M  V30 5642 H 542.059 0.0161467 6.79098 0
M  V30 5643 H 540.005 -2.14819 6.1983 0
M  V30 5644 H 539.922 -0.999688 7.49361 0
M  V30 5645 H 541.19 -2.1888 7.48139 0
M  V30 5646 N 545.419 -1.53889 0.339982 0
M  V30 5647 C 546.367 -2.26391 -0.533822 0
M  V30 5648 C 547.361 -1.28404 -1.10493 0
M  V30 5649 O 548.567 -1.46124 -1.05108 0
M  V30 5650 H 544.942 -0.727385 -0.190828 0
M  V30 5651 H 546.913 -2.98233 0.0997484 0
M  V30 5652 C 545.662 -3.04707 -1.67479 0
M  V30 5653 H 544.985 -3.79934 -1.2446 0
M  V30 5654 H 546.425 -3.58657 -2.26144 0
M  V30 5655 C 544.884 -2.13989 -2.60212 0
M  V30 5656 O 545.414 -1.73361 -3.62366 0
M  V30 5657 N 543.62 -1.79141 -2.28816 0
M  V30 5658 H 543.167 -2.12378 -1.45785 0
M  V30 5659 H 543.125 -1.18725 -2.91121 0
M  V30 5660 N 546.897 -0.0685191 -1.57451 0
M  V30 5661 C 547.829 0.929372 -2.09512 0
M  V30 5662 C 548.842 1.26354 -1.02657 0
M  V30 5663 O 550.031 1.2213 -1.30179 0
M  V30 5664 C 547.131 2.24612 -2.53777 0
M  V30 5665 C 546.304 2.09128 -3.84167 0
M  V30 5666 C 545.363 3.24079 -4.14559 0
M  V30 5667 O 544.389 2.99215 -4.8421 0
M  V30 5668 N 545.591 4.49077 -3.67845 0
M  V30 5669 H 548.356 0.484901 -2.95751 0
M  V30 5670 H 545.917 0.11729 -1.61475 0
M  V30 5671 H 547.909 3.00412 -2.71172 0
M  V30 5672 H 546.479 2.60569 -1.72692 0
M  V30 5673 H 545.699 1.17815 -3.76182 0
M  V30 5674 H 546.987 1.9603 -4.69521 0
M  V30 5675 H 546.385 4.72165 -3.11571 0
M  V30 5676 H 544.942 5.21915 -3.90446 0
M  V30 5677 N 548.375 1.56261 0.205012 0
M  V30 5678 C 549.621 1.80306 0.9283 0
M  V30 5679 C 549.954 0.640932 1.83319 0
M  V30 5680 O 549.229 -0.359032 1.91158 0
M  V30 5681 C 549.512 3.14547 1.75306 0
M  V30 5682 C 549.365 4.41236 0.873562 0
M  V30 5683 C 550.684 3.45382 2.72762 0
M  V30 5684 H 547.803 0.655929 0.336044 0
M  V30 5685 H 550.445 1.88984 0.196211 0
M  V30 5686 H 548.595 3.0728 2.37721 0
M  V30 5687 H 550.267 4.60539 0.264887 0
M  V30 5688 H 548.51 4.33427 0.179773 0
M  V30 5689 H 549.181 5.31639 1.48541 0
M  V30 5690 H 551.657 3.52884 2.20481 0
M  V30 5691 H 550.533 4.40449 3.2756 0
M  V30 5692 H 550.794 2.68377 3.51321 0
M  V30 5693 N 549.853 -0.472356 1.50355 0
M  V30 5694 C 551.078 -1.25251 1.65309 0
M  V30 5695 C 551.503 -1.85081 0.335643 0
M  V30 5696 O 550.861 -1.67227 -0.700335 0
M  V30 5697 C 550.909 -2.3379 2.74544 0
M  V30 5698 O 550.013 -3.38401 2.35709 0
M  V30 5699 H 549.354 -0.368539 0.552336 0
M  V30 5700 H 551.884 -0.562271 1.96722 0
M  V30 5701 H 551.894 -2.79121 2.97583 0
M  V30 5702 H 550.569 -1.89614 3.70161 0
M  V30 5703 H 549.146 -2.9879 2.23112 0
M  V30 5704 N 551.331 -1.39911 -0.725443 0
M  V30 5705 C 552.261 -1.42138 -1.85254 0
M  V30 5706 C 553.242 -0.283513 -1.67721 0
M  V30 5707 O 554.427 -0.490717 -1.87898 0
M  V30 5708 C 551.557 -1.27354 -3.23107 0
M  V30 5709 C 550.511 -2.3864 -3.55296 0
M  V30 5710 C 549.837 -2.08939 -4.92188 0
M  V30 5711 C 551.137 -3.8097 -3.57295 0
M  V30 5712 H 552.831 -2.36461 -1.83648 0
M  V30 5713 H 550.377 -1.13817 -0.882138 0
M  V30 5714 H 552.33 -1.2753 -4.01639 0
M  V30 5715 H 551.054 -0.295025 -3.25265 0
M  V30 5716 H 549.713 -2.37696 -2.79099 0
M  V30 5717 H 549.361 -1.09502 -4.90936 0
M  V30 5718 H 549.061 -2.83491 -5.14691 0
M  V30 5719 H 550.585 -2.10781 -5.73065 0
M  V30 5720 H 551.999 -3.8379 -4.25885 0
M  V30 5721 H 550.396 -4.5496 -3.9132 0
M  V30 5722 H 551.466 -4.11261 -2.5689 0
M  V30 5723 N 552.809 0.956637 -1.25245 0
M  V30 5724 C 554.037 1.73571 -1.12608 0
M  V30 5725 C 554.452 1.86063 0.320324 0
M  V30 5726 O 553.809 1.35691 1.22042 0
M  V30 5727 C 553.86 3.15053 -1.77268 0
M  V30 5728 O 553.581 3.03174 -3.16255 0
M  V30 5729 C 555.082 4.09248 -1.70386 0
M  V30 5730 H 552.302 0.543955 -0.392879 0
M  V30 5731 H 554.846 1.20031 -1.65568 0
M  V30 5732 H 553.001 3.65543 -1.28284 0
M  V30 5733 H 553.415 3.9241 -3.48015 0
M  V30 5734 H 554.889 5.06138 -2.20291 0
M  V30 5735 H 555.366 4.34102 -0.667239 0
M  V30 5736 H 555.972 3.64672 -2.18849 0
M  V30 5737 N 554.287 1.06798 1.15896 0
M  V30 5738 C 555.527 0.797041 1.8822 0
M  V30 5739 C 555.891 -0.664549 1.80133 0
M  V30 5740 O 557.092 -1.0503 2.47431 0
M  V30 5741 C 555.363 1.28431 3.33527 0
M  V30 5742 S 556.922 1.14319 4.23647 0
M  V30 5743 H 553.74 0.288988 0.649621 0
M  V30 5744 H 556.342 1.36594 1.39865 0
M  V30 5745 H 555.046 2.34286 3.36954 0
M  V30 5746 H 554.577 0.710371 3.86933 0
M  V30 5747 H 556.592 0.0772467 4.9614 0
M  V30 5748 N 555.766 -1.3263 0.851289 0
M  V30 5749 C 556.696 -2.31449 0.308771 0
M  V30 5750 C 557.677 -1.59531 -0.590255 0
M  V30 5751 O 558.862 -1.87351 -0.511205 0
M  V30 5752 C 555.992 -3.43586 -0.506548 0
M  V30 5753 C 554.946 -4.26963 0.297753 0
M  V30 5754 C 554.272 -5.30831 -0.642094 0
M  V30 5755 C 555.572 -4.99643 1.52166 0
M  V30 5756 H 557.266 -2.77074 1.13447 0
M  V30 5757 H 554.812 -1.33207 0.546971 0
M  V30 5758 H 556.765 -4.11754 -0.896474 0
M  V30 5759 H 555.489 -2.96681 -1.36558 0
M  V30 5760 H 554.148 -3.60437 0.669391 0
M  V30 5761 H 553.796 -4.8018 -1.49788 0
M  V30 5762 H 553.496 -5.87501 -0.107968 0
M  V30 5763 H 555.02 -6.01862 -1.02927 0
M  V30 5764 H 556.434 -5.6051 1.20421 0
M  V30 5765 H 554.831 -5.66022 1.99347 0
M  V30 5766 H 555.901 -4.27701 2.28474 0
M  V30 5767 N 557.244 -0.608902 -1.45362 0
M  V30 5768 C 558.49 -0.104762 -2.02529 0
M  V30 5769 C 558.823 1.26191 -1.47613 0
M  V30 5770 O 558.098 1.8327 -0.65134 0
M  V30 5771 C 558.381 -0.0672661 -3.60037 0
M  V30 5772 C 558.234 -1.4647 -4.25284 0
M  V30 5773 C 559.553 0.619877 -4.35713 0
M  V30 5774 H 556.672 -0.0395438 -0.735938 0
M  V30 5775 H 559.314 -0.781126 -1.73201 0
M  V30 5776 H 557.464 0.50871 -3.85155 0
M  V30 5777 H 559.136 -2.08785 -4.11347 0
M  V30 5778 H 557.379 -2.02502 -3.83634 0
M  V30 5779 H 558.05 -1.39069 -5.34195 0
M  V30 5780 H 560.526 0.130297 -4.15896 0
M  V30 5781 H 559.402 0.615224 -5.45441 0
M  V30 5782 H 559.663 1.68621 -4.0868 0
M  V30 5783 N 558.722 1.53707 -0.348139 0
M  V30 5784 C 559.669 2.25173 0.506518 0
M  V30 5785 C 560.639 1.25174 1.09182 0
M  V30 5786 O 561.824 1.53917 1.12757 0
M  V30 5787 C 558.964 3.03141 1.64923 0
M  V30 5788 C 558.077 4.18002 1.0908 0
M  V30 5789 C 557.212 4.83447 2.20119 0
M  V30 5790 C 556.251 5.90369 1.61651 0
M  V30 5791 N 555.388 6.49575 2.66451 0
M  V30 5792 H 560.228 2.97799 -0.109452 0
M  V30 5793 H 557.765 1.46953 -0.0657866 0
M  V30 5794 H 559.723 3.46607 2.32205 0
M  V30 5795 H 558.353 2.32803 2.23612 0
M  V30 5796 H 557.405 3.79145 0.308783 0
M  V30 5797 H 558.717 4.94892 0.623178 0
M  V30 5798 H 557.871 5.30008 2.95257 0
M  V30 5799 H 556.61 4.05991 2.70227 0
M  V30 5800 H 555.615 5.43186 0.850209 0
M  V30 5801 H 556.84 6.69735 1.1239 0
M  V30 5802 H 554.786 5.74981 3.15805 0
M  V30 5803 H 554.703 7.21952 2.24325 0
M  V30 5804 H 555.971 7.00789 3.41344 0
M  V30 5805 N 560.2 0.0768682 1.57412 0
M  V30 5806 C 561.448 -0.589918 1.93299 0
M  V30 5807 C 561.769 -1.69842 0.958049 0
M  V30 5808 O 561.039 -1.95899 0.00703261 0
M  V30 5809 H 559.619 -0.220901 0.713591 0
M  V30 5810 H 562.281 0.135917 1.94425 0
M  V30 5811 H 561.377 -1.01195 2.95239 0
M  V30 5812 N 561.678 -1.56367 -0.196722 0
M  V30 5813 C 562.925 -1.80529 -0.917366 0
M  V30 5814 C 563.253 -0.649817 -1.83324 0
M  V30 5815 O 562.508 0.36451 -1.92275 0
M  V30 5816 C 562.807 -3.10663 -1.767 0
M  V30 5817 C 562.473 -4.3962 -1.00225 0
M  V30 5818 C 561.135 -4.74653 -0.791095 0
M  V30 5819 C 563.487 -5.1913 -0.464035 0
M  V30 5820 C 560.815 -5.86692 -0.0302155 0
M  V30 5821 C 563.167 -6.31964 0.283625 0
M  V30 5822 C 561.831 -6.65581 0.505813 0
M  V30 5823 H 561.101 -0.660602 -0.335688 0
M  V30 5824 H 563.748 -1.90615 -0.183844 0
M  V30 5825 H 562.053 -2.95807 -2.56915 0
M  V30 5826 H 563.75 -3.26563 -2.32718 0
M  V30 5827 H 560.34 -4.12127 -1.17684 0
M  V30 5828 H 564.524 -4.9248 -0.614575 0
M  V30 5829 H 559.78 -6.11211 0.151917 0
M  V30 5830 H 563.954 -6.92791 0.708057 0
M  V30 5831 H 561.581 -7.52239 1.0973 0
M  V30 5832 N 563.156 0.464375 -1.50603 0
M  V30 5833 C 564.386 1.23727 -1.65454 0
M  V30 5834 C 564.794 1.86119 -0.340032 0
M  V30 5835 O 564.137 1.70301 0.688706 0
M  V30 5836 C 564.199 2.38153 -2.69301 0
M  V30 5837 C 563.863 1.96345 -4.12671 0
M  V30 5838 C 564.86 1.48215 -4.98326 0
M  V30 5839 C 562.545 2.04861 -4.58625 0
M  V30 5840 C 564.539 1.09152 -6.27985 0
M  V30 5841 C 562.226 1.65409 -5.88288 0
M  V30 5842 C 563.224 1.17634 -6.72794 0
M  V30 5843 O 562.912 0.787312 -8.00035 0
M  V30 5844 H 562.644 0.380075 -0.559034 0
M  V30 5845 H 565.198 0.559919 -1.97621 0
M  V30 5846 H 563.428 3.09081 -2.32392 0
M  V30 5847 H 565.117 3.00099 -2.73304 0
M  V30 5848 H 565.883 1.41052 -4.64036 0
M  V30 5849 H 561.762 2.40996 -3.92991 0
M  V30 5850 H 565.306 0.717909 -6.93896 0
M  V30 5851 H 561.203 1.72233 -6.22098 0
M  V30 5852 H 561.971 0.915567 -8.13363 0
M  V30 5853 N 564.634 1.40294 0.718013 0
M  V30 5854 C 566.045 1.34289 1.29705 0
M  V30 5855 C 566.396 0.0152228 1.96194 0
M  V30 5856 O 565.521 -0.88682 1.97394 0
M  V30 5857 C 566.116 2.43219 2.3586 0
M  V30 5858 C 564.675 2.40682 2.89394 0
M  V30 5859 C 563.822 2.24223 1.63154 0
M  V30 5860 H 566.773 1.50135 0.514312 0
M  V30 5861 H 566.794 2.10986 3.16647 0
M  V30 5862 H 566.306 3.39836 1.87439 0
M  V30 5863 H 564.407 1.47756 3.42051 0
M  V30 5864 H 564.52 3.36177 3.41353 0
M  V30 5865 H 562.884 1.71696 1.88129 0
M  V30 5866 H 563.667 3.22834 1.16761 0
M  V30 5867 N 566.112 -0.949982 1.2575 0
M  V30 5868 C 567.337 -1.73503 1.13628 0
M  V30 5869 C 567.762 -1.85601 -0.30559 0
M  V30 5870 O 567.12 -1.33984 -1.22139 0
M  V30 5871 C 567.168 -3.1243 1.80055 0
M  V30 5872 O 566.272 -3.97916 1.08336 0
M  V30 5873 H 565.613 -0.532665 0.396439 0
M  V30 5874 H 568.143 -1.19043 1.66403 0
M  V30 5875 H 568.153 -3.62866 1.86527 0
M  V30 5876 H 566.828 -3.02941 2.84956 0
M  V30 5877 H 565.405 -3.56375 1.09777 0
M  V30 5878 N 567.59 -1.07411 -1.15328 0
M  V30 5879 C 568.867 -0.710732 -1.82231 0
M  V30 5880 C 569.247 0.806732 -1.95077 0
M  V30 5881 O 568.595 1.72139 -1.50268 0
M  V30 5882 C 568.805 -1.42586 -3.18544 0
M  V30 5883 C 570.153 -1.57836 -3.94174 0
M  V30 5884 O 571.177 -1.38669 -3.281 0
M  V30 5885 O 570.036 -1.8938 -5.12638 0
M  V30 5886 H 567.13 -0.25297 -0.78736 0
M  V30 5887 H 569.676 -1.17508 -1.22434 0
M  V30 5888 H 568.448 -2.46008 -3.04296 0
M  V30 5889 H 568.071 -0.952332 -3.86026 0
M  V30 5890 N 569.068 1.32177 -0.85831 0
M  V30 5891 C 570.317 1.96392 -0.459689 0
M  V30 5892 C 570.63 1.68659 0.990632 0
M  V30 5893 O 571.836 2.26641 1.49485 0
M  V30 5894 C 570.292 3.51542 -0.7711 0
M  V30 5895 C 569.9 3.8813 -2.2374 0
M  V30 5896 C 571.644 4.2221 -0.44038 0
M  V30 5897 C 569.551 5.36341 -2.49183 0
M  V30 5898 H 568.481 0.735007 -0.168169 0
M  V30 5899 H 571.132 1.50518 -1.0496 0
M  V30 5900 H 569.514 3.95846 -0.11058 0
M  V30 5901 H 570.688 3.54824 -2.94001 0
M  V30 5902 H 569.003 3.30497 -2.533 0
M  V30 5903 H 571.6 5.31234 -0.607855 0
M  V30 5904 H 571.943 4.11683 0.618291 0
M  V30 5905 H 572.476 3.83502 -1.05695 0
M  V30 5906 H 569.215 5.51892 -3.53689 0
M  V30 5907 H 568.735 5.7104 -1.83504 0
M  V30 5908 H 570.414 6.03466 -2.33318 0
M  V30 5909 N 570.547 0.616602 1.45037 0
M  V30 5910 C 571.51 -0.0871112 2.29034 0
M  V30 5911 C 572.51 -0.786414 1.40258 0
M  V30 5912 O 573.7 -0.633207 1.62284 0
M  V30 5913 C 570.832 -1.13369 3.21497 0
M  V30 5914 H 572.025 0.651497 2.92738 0
M  V30 5915 H 569.578 0.376058 1.51709 0
M  V30 5916 H 570.313 -1.90277 2.62612 0
M  V30 5917 H 570.098 -0.636358 3.86902 0
M  V30 5918 H 571.588 -1.62627 3.84633 0
M  V30 5919 N 572.025 -1.5352 0.356285 0
M  V30 5920 C 573.271 -2.01414 -0.236653 0
M  V30 5921 C 573.604 -1.24339 -1.49176 0
M  V30 5922 O 572.879 -0.334496 -1.91602 0
M  V30 5923 C 573.162 -3.56059 -0.537982 0
M  V30 5924 C 573.015 -4.43835 0.730112 0
M  V30 5925 C 574.334 -4.19127 -1.34239 0
M  V30 5926 H 571.453 -0.732135 -0.0845386 0
M  V30 5927 H 574.095 -1.83854 0.479341 0
M  V30 5928 H 572.245 -3.71153 -1.14795 0
M  V30 5929 H 573.917 -4.40555 1.36782 0
M  V30 5930 H 572.16 -4.1218 1.3524 0
M  V30 5931 H 572.831 -5.49958 0.474358 0
M  V30 5932 H 575.307 -4.07809 -0.826498 0
M  V30 5933 H 574.183 -5.27378 -1.52198 0
M  V30 5934 H 574.444 -3.74581 -2.34822 0
M  V30 5935 N 573.503 -0.0852151 -1.57369 0
M  V30 5936 C 574.413 0.891712 -2.16992 0
M  V30 5937 C 575.429 1.3174 -1.13669 0
M  V30 5938 O 576.605 1.38735 -1.45995 0
M  V30 5939 C 573.67 2.13635 -2.73059 0
M  V30 5940 C 572.731 1.7658 -3.91303 0
M  V30 5941 C 571.964 2.95111 -4.44686 0
M  V30 5942 O 572.187 4.09539 -3.97032 0
M  V30 5943 O 571.121 2.74149 -5.35841 0
M  V30 5944 H 574.947 0.414477 -3.00858 0
M  V30 5945 H 572.532 0.138598 -1.48756 0
M  V30 5946 H 574.414 2.86595 -3.08935 0
M  V30 5947 H 573.089 2.6043 -1.92244 0
M  V30 5948 H 571.996 1.00831 -3.60255 0
M  V30 5949 H 573.329 1.34557 -4.7345 0
M  V30 5950 N 574.981 1.5647 0.188427 0
M  V30 5951 C 576.227 1.82181 0.904534 0
M  V30 5952 C 576.582 0.663258 1.80606 0
M  V30 5953 O 575.875 -0.341231 1.88537 0
M  V30 5954 C 576.069 3.11596 1.7505 0
M  V30 5955 C 575.898 4.39928 0.932372 0
M  V30 5956 C 574.668 5.01554 0.61417 0
M  V30 5957 C 576.866 5.13527 0.281936 0
M  V30 5958 N 574.848 6.13499 -0.221896 0
M  V30 5959 C 576.219 6.18603 -0.416037 0
M  V30 5960 C 578.274 4.97505 0.198345 0
M  V30 5961 C 576.977 7.09394 -1.18965 0
M  V30 5962 C 579.003 5.88725 -0.561887 0
M  V30 5963 C 578.365 6.93251 -1.24828 0
M  V30 5964 H 574.464 0.717858 0.310168 0
M  V30 5965 H 577.048 1.93932 0.172757 0
M  V30 5966 H 575.219 3.01068 2.45383 0
M  V30 5967 H 576.951 3.25369 2.4066 0
M  V30 5968 H 573.706 4.64174 0.940187 0
M  V30 5969 H 574.13 6.74065 -0.629735 0
M  V30 5970 H 578.772 4.16716 0.714665 0
M  V30 5971 H 576.49 7.8964 -1.71737 0
M  V30 5972 H 580.076 5.78401 -0.628009 0
M  V30 5973 H 578.956 7.62618 -1.82712 0
M  V30 5974 N 576.459 -0.456382 1.50847 0
M  V30 5975 C 577.369 -1.57805 1.73594 0
M  V30 5976 C 578.385 -1.62599 0.619476 0
M  V30 5977 O 579.561 -1.80195 0.899532 0
M  V30 5978 C 576.626 -2.93926 1.8387 0
M  V30 5979 C 575.687 -2.99402 3.07663 0
M  V30 5980 C 574.92 -4.29031 3.1744 0
M  V30 5981 O 575.143 -5.20358 2.33631 0
M  V30 5982 O 574.077 -4.40401 4.10281 0
M  V30 5983 H 577.903 -1.41531 2.68705 0
M  V30 5984 H 575.488 -0.637422 1.3512 0
M  V30 5985 H 577.37 -3.74747 1.92725 0
M  V30 5986 H 576.045 -3.10368 0.91944 0
M  V30 5987 H 574.952 -2.17606 3.043 0
M  V30 5988 H 576.285 -2.87901 3.99216 0
M  V30 5989 N 577.937 -1.40673 -0.710563 0
M  V30 5990 C 579.162 -1.42741 -1.50465 0
M  V30 5991 C 579.587 -0.0302116 -1.88076 0
M  V30 5992 O 578.945 0.962945 -1.53613 0
M  V30 5993 C 578.993 -2.32873 -2.75322 0
M  V30 5994 O 578.097 -1.77544 -3.72226 0
M  V30 5995 H 577.438 -0.485056 -0.45345 0
M  V30 5996 H 579.968 -1.84961 -0.874681 0
M  V30 5997 H 579.978 -2.48233 -3.23797 0
M  V30 5998 H 578.653 -3.34401 -2.47283 0
M  V30 5999 H 577.23 -1.71556 -3.31093 0
M  V30 6000 N 579.415 0.9433 -1.26252 0
M  V30 6001 C 580.363 2.06302 -1.07434 0
M  V30 6002 C 581.357 1.694 -0.00189471 0
M  V30 6003 O 582.563 1.79302 -0.158408 0
M  V30 6004 H 578.938 0.675453 -0.330556 0
M  V30 6005 H 580.909 2.19326 -2.02333 0
M  V30 6006 C 579.658 3.40125 -0.721817 0
M  V30 6007 H 578.981 3.68996 -1.5389 0
M  V30 6008 H 580.421 4.19295 -0.629922 0
M  V30 6009 C 578.88 3.31993 0.572902 0
M  V30 6010 O 579.41 3.67945 1.61182 0
M  V30 6011 N 577.616 2.85099 0.562748 0
M  V30 6012 H 577.163 2.5604 -0.283092 0
M  V30 6013 H 577.121 2.80041 1.42915 0
M  V30 6014 N 580.893 1.08022 1.14757 0
M  V30 6015 C 582.141 0.805913 1.85336 0
M  V30 6016 C 582.462 -0.670162 1.83122 0
M  V30 6017 O 581.732 -1.48567 1.2769 0
M  V30 6018 H 580.312 0.295138 0.686223 0
M  V30 6019 H 582.974 1.36538 1.3908 0
M  V30 6020 H 582.07 1.14655 2.90277 0
M  V30 6021 N 582.371 -1.3172 0.865308 0
M  V30 6022 C 583.303 -2.27545 0.274906 0
M  V30 6023 C 584.316 -1.52887 -0.559413 0
M  V30 6024 O 585.505 -1.74361 -0.382166 0
M  V30 6025 C 582.605 -3.33006 -0.629286 0
M  V30 6026 C 581.778 -4.37063 0.171553 0
M  V30 6027 C 580.837 -5.22044 -0.660052 0
M  V30 6028 O 579.863 -5.69129 -0.0897527 0
M  V30 6029 N 581.065 -5.45946 -1.97289 0
M  V30 6030 H 583.83 -2.78848 1.09836 0
M  V30 6031 H 581.391 -1.44693 0.726331 0
M  V30 6032 H 583.383 -3.86772 -1.19121 0
M  V30 6033 H 581.953 -2.81782 -1.35342 0
M  V30 6034 H 581.173 -3.83436 0.914919 0
M  V30 6035 H 582.461 -5.03662 0.721235 0
M  V30 6036 H 581.859 -5.0944 -2.45942 0
M  V30 6037 H 580.416 -6.02665 -2.4827 0
M  V30 6038 N 583.85 -0.624285 -1.44708 0
M  V30 6039 C 585.26 -0.2092 -1.85524 0
M  V30 6040 C 585.611 1.23783 -1.52225 0
M  V30 6041 O 584.736 1.94089 -0.956986 0
M  V30 6042 C 585.332 -0.372897 -3.36742 0
M  V30 6043 C 583.891 -0.012374 -3.76398 0
M  V30 6044 C 583.038 -0.68951 -2.68591 0
M  V30 6045 H 585.989 -0.829894 -1.35272 0
M  V30 6046 H 586.01 0.390134 -3.78495 0
M  V30 6047 H 585.522 -1.42615 -3.60947 0
M  V30 6048 H 583.623 1.03941 -3.57809 0
M  V30 6049 H 583.736 -0.417663 -4.77276 0
M  V30 6050 H 582.1 -0.125484 -2.54391 0
M  V30 6051 H 582.883 -1.74522 -2.9563 0
M  V30 6052 N 585.328 1.53329 -0.364422 0
M  V30 6053 C 586.238 2.29414 0.490552 0
M  V30 6054 C 587.254 1.35335 1.09363 0
M  V30 6055 O 588.43 1.68391 1.10483 0
M  V30 6056 C 585.495 3.06772 1.61529 0
M  V30 6057 C 584.556 4.16516 1.03986 0
M  V30 6058 C 583.789 4.90176 2.111 0
M  V30 6059 O 584.012 4.63687 3.32191 0
M  V30 6060 O 582.946 5.76134 1.74222 0
M  V30 6061 H 586.772 3.03428 -0.12856 0
M  V30 6062 H 584.357 1.48843 -0.128837 0
M  V30 6063 H 586.239 3.55082 2.26924 0
M  V30 6064 H 584.914 2.35596 2.21983 0
M  V30 6065 H 583.821 3.7246 0.349856 0
M  V30 6066 H 585.154 4.89855 0.4799 0
M  V30 6067 N 586.806 0.0935595 1.57322 0
M  V30 6068 C 587.754 -0.883457 2.15169 0
M  V30 6069 C 588.748 -1.29324 1.09415 0
M  V30 6070 O 589.954 -1.26795 1.27762 0
M  V30 6071 H 586.329 -0.302923 0.688289 0
M  V30 6072 H 588.3 -0.370845 2.96087 0
M  V30 6073 C 587.049 -2.13345 2.74552 0
M  V30 6074 H 586.372 -1.82702 3.55612 0
M  V30 6075 H 587.812 -2.7977 3.18598 0
M  V30 6076 C 586.271 -2.90646 1.70371 0
M  V30 6077 O 586.801 -3.85133 1.14173 0
M  V30 6078 N 585.007 -2.54157 1.40899 0
M  V30 6079 H 584.554 -1.77391 1.86789 0
M  V30 6080 H 584.512 -3.06178 0.714301 0
M  V30 6081 N 588.284 -1.56567 -0.180126 0
M  V30 6082 C 589.232 -1.96632 -1.24251 0
M  V30 6083 C 590.226 -0.853818 -1.46309 0
M  V30 6084 O 591.432 -1.0389 -1.46993 0
M  V30 6085 H 587.807 -0.625476 -0.417473 0
M  V30 6086 H 589.778 -2.85201 -0.877679 0
M  V30 6087 C 588.527 -2.33486 -2.57642 0
M  V30 6088 H 587.85 -3.18626 -2.4149 0
M  V30 6089 H 589.29 -2.65371 -3.30688 0
M  V30 6090 C 587.749 -1.17499 -3.15746 0
M  V30 6091 O 588.279 -0.457956 -3.99081 0
M  V30 6092 N 586.485 -0.94786 -2.74707 0
M  V30 6093 H 586.032 -1.53269 -2.07042 0
M  V30 6094 H 585.99 -0.173626 -3.1392 0
M  V30 6095 N 589.762 0.448376 -1.51087 0
M  V30 6096 C 590.992 1.21965 -1.66757 0
M  V30 6097 C 591.4 1.85748 -0.359753 0
M  V30 6098 O 590.743 1.71022 0.670604 0
M  V30 6099 C 590.805 2.35284 -2.71812 0
M  V30 6100 C 590.469 1.91957 -4.1473 0
M  V30 6101 C 591.466 1.42921 -4.9987 0
M  V30 6102 C 589.151 1.99985 -4.60772 0
M  V30 6103 C 591.145 1.02485 -6.29107 0
M  V30 6104 C 588.832 1.5916 -5.90009 0
M  V30 6105 C 589.83 1.10491 -6.74004 0
M  V30 6106 O 589.518 0.702413 -8.00825 0
M  V30 6107 H 589.25 0.374125 -0.563034 0
M  V30 6108 H 591.804 0.538927 -1.98204 0
M  V30 6109 H 590.034 3.06599 -2.35657 0
M  V30 6110 H 591.723 2.97184 -2.76472 0
M  V30 6111 H 592.489 1.36123 -4.65506 0
M  V30 6112 H 588.368 2.36814 -3.95525 0
M  V30 6113 H 591.912 0.644271 -6.94619 0
M  V30 6114 H 587.809 1.65626 -6.2389 0
M  V30 6115 H 588.577 0.829248 -8.14288 0
M  V30 6116 N 591.24 1.41047 0.703093 0
M  V30 6117 C 592.187 1.42302 1.81711 0
M  V30 6118 C 593.157 0.278336 1.63751 0
M  V30 6119 O 594.342 0.478266 1.84709 0
M  V30 6120 C 591.482 1.30362 3.19531 0
M  V30 6121 C 590.595 2.54638 3.48975 0
M  V30 6122 C 589.73 2.35047 4.76368 0
M  V30 6123 C 588.769 3.54837 4.98756 0
M  V30 6124 N 587.906 3.34363 6.1737 0
M  V30 6125 H 592.746 2.37516 1.79973 0
M  V30 6126 H 590.283 1.1795 0.878983 0
M  V30 6127 H 592.241 1.21443 3.99134 0
M  V30 6128 H 590.871 0.387602 3.20464 0
M  V30 6129 H 589.923 2.74037 2.63833 0
M  V30 6130 H 591.235 3.43766 3.61423 0
M  V30 6131 H 590.389 2.23552 5.64012 0
M  V30 6132 H 589.128 1.43363 4.66153 0
M  V30 6133 H 588.133 3.66795 4.09563 0
M  V30 6134 H 589.358 4.47464 5.10835 0
M  V30 6135 H 587.304 2.45373 6.08382 0
M  V30 6136 H 587.221 4.17063 6.30551 0
M  V30 6137 H 588.489 3.26626 7.07768 0
M  V30 6138 N 592.718 -0.936591 1.26751 0
M  V30 6139 C 593.946 -1.71758 1.15355 0
M  V30 6140 C 594.361 -1.86549 -0.290683 0
M  V30 6141 O 593.718 -1.37616 -1.19868 0
M  V30 6142 C 593.769 -3.12193 1.82258 0
M  V30 6143 O 593.49 -2.98105 3.21038 0
M  V30 6144 C 594.991 -4.06485 1.76875 0
M  V30 6145 H 592.211 -0.537636 0.401483 0
M  V30 6146 H 594.755 -1.17382 1.67457 0
M  V30 6147 H 592.91 -3.63456 1.34083 0
M  V30 6148 H 593.324 -3.86824 3.54214 0
M  V30 6149 H 594.798 -5.02569 2.28316 0
M  V30 6150 H 595.275 -4.32986 0.736216 0
M  V30 6151 H 595.881 -3.61144 2.24623 0
M  V30 6152 N 594.196 -1.08629 -1.14182 0
M  V30 6153 C 595.424 -0.838889 -1.8913 0
M  V30 6154 C 595.839 0.609153 -1.78703 0
M  V30 6155 O 595.196 1.41876 -1.14794 0
M  V30 6156 C 595.247 -1.25477 -3.39025 0
M  V30 6157 O 594.968 -2.64601 -3.49167 0
M  V30 6158 C 596.469 -1.03856 -4.30963 0
M  V30 6159 H 593.689 -0.302377 -0.599007 0
M  V30 6160 H 596.233 -1.44615 -1.44592 0
M  V30 6161 H 594.388 -0.691571 -3.81177 0
M  V30 6162 H 594.802 -2.81922 -4.42289 0
M  V30 6163 H 596.276 -1.37892 -5.345 0
M  V30 6164 H 596.753 0.0242522 -4.39193 0
M  V30 6165 H 597.359 -1.58731 -3.94569 0
M  V30 6166 N 595.674 1.31259 -0.872281 0
M  V30 6167 C 597.085 1.78822 -0.536617 0
M  V30 6168 C 597.436 1.71855 0.946594 0
M  V30 6169 O 596.561 1.28769 1.73918 0
M  V30 6170 C 597.156 3.24698 -0.967294 0
M  V30 6171 C 595.715 3.70147 -0.683251 0
M  V30 6172 C 594.862 2.51994 -1.15733 0
M  V30 6173 H 597.813 1.18308 -1.05777 0
M  V30 6174 H 597.834 3.79386 -0.290929 0
M  V30 6175 H 597.346 3.29737 -2.04683 0
M  V30 6176 H 595.447 3.70607 0.384825 0
M  V30 6177 H 595.56 4.62183 -1.2619 0
M  V30 6178 H 593.924 2.48078 -0.577024 0
M  V30 6179 H 594.707 2.59778 -2.24434 0
M  V30 6180 N 597.152 0.631951 1.44375 0
M  V30 6181 C 598.563 0.219036 1.85411 0
M  V30 6182 C 598.914 -1.22974 1.52879 0
M  V30 6183 O 598.039 -1.93579 0.967266 0
M  V30 6184 C 598.634 0.39075 3.36539 0
M  V30 6185 C 597.193 0.0323351 3.76386 0
M  V30 6186 C 596.34 0.703744 2.68221 0
M  V30 6187 H 599.291 0.837056 1.3483 0
M  V30 6188 H 599.312 -0.370056 3.78696 0
M  V30 6189 H 598.824 1.44527 3.60185 0
M  V30 6190 H 596.925 -1.02042 3.58355 0
M  V30 6191 H 597.038 0.442969 4.77048 0
M  V30 6192 H 595.402 0.138974 2.54321 0
M  V30 6193 H 596.185 1.76088 2.947 0
M  V30 6194 N 598.631 -1.53133 0.372548 0
M  V30 6195 C 599.564 -2.22328 -0.514361 0
M  V30 6196 C 600.542 -1.21776 -1.07747 0
M  V30 6197 O 601.726 -1.50704 -1.13228 0
M  V30 6198 C 598.853 -2.92343 -1.71035 0
M  V30 6199 C 597.899 -4.07026 -1.27405 0
M  V30 6200 S 598.732 -5.34821 -0.269526 0
M  V30 6201 C 599.888 -6.08352 -1.47168 0
M  V30 6202 H 600.121 -2.9721 0.0732683 0
M  V30 6203 H 597.654 -1.53603 0.156673 0
M  V30 6204 H 599.612 -3.33296 -2.39634 0
M  V30 6205 H 598.273 -2.17173 -2.26925 0
M  V30 6206 H 597.466 -4.55056 -2.16656 0
M  V30 6207 H 597.068 -3.68001 -0.66719 0
M  V30 6208 H 599.36 -6.33507 -2.40157 0
M  V30 6209 H 600.303 -7.0053 -1.03263 0
M  V30 6210 H 600.711 -5.38893 -1.6809 0
M  V30 6211 N 600.109 -0.101901 -1.5727 0
M  V30 6212 C 601.039 0.851544 -2.17419 0
M  V30 6213 C 602.02 1.28942 -1.10941 0
M  V30 6214 O 603.205 1.35509 -1.39107 0
M  V30 6215 C 600.335 2.10816 -2.75996 0
M  V30 6216 C 599.289 1.80867 -3.87906 0
M  V30 6217 C 598.615 3.13413 -4.33216 0
M  V30 6218 C 599.915 1.0903 -5.10793 0
M  V30 6219 H 601.609 0.350381 -2.97343 0
M  V30 6220 H 599.155 0.16709 -1.43027 0
M  V30 6221 H 601.108 2.77959 -3.16729 0
M  V30 6222 H 599.832 2.63227 -1.93337 0
M  V30 6223 H 598.491 1.16119 -3.47724 0
M  V30 6224 H 598.139 3.63725 -3.47438 0
M  V30 6225 H 597.839 2.94155 -5.08671 0
M  V30 6226 H 599.363 3.81704 -4.76586 0
M  V30 6227 H 600.777 1.66295 -5.48652 0
M  V30 6228 H 599.174 0.99927 -5.91722 0
M  V30 6229 H 600.244 0.0741704 -4.84843 0
M  V30 6230 N 601.587 1.56661 0.17182 0
M  V30 6231 C 602.864 1.72838 0.915778 0
M  V30 6232 C 603.244 0.66316 2.00413 0
M  V30 6233 O 602.592 -0.322123 2.26218 0
M  V30 6234 C 602.802 3.16019 1.48097 0
M  V30 6235 C 604.15 3.76962 1.95408 0
M  V30 6236 O 605.174 3.19294 1.57892 0
M  V30 6237 O 604.033 4.78219 2.64516 0
M  V30 6238 H 601.127 0.705797 0.431021 0
M  V30 6239 H 603.673 1.68947 0.159689 0
M  V30 6240 H 602.445 3.85031 0.697618 0
M  V30 6241 H 602.068 3.24234 2.30126 0
M  V30 6242 N 603.065 -0.440357 1.51323 0
M  V30 6243 C 604.29 -1.21716 1.67928 0
M  V30 6244 C 604.715 -1.84328 0.374826 0
M  V30 6245 O 604.073 -1.68675 -0.664706 0
M  V30 6246 C 604.121 -2.27914 2.79442 0
M  V30 6247 O 603.225 -3.33325 2.42834 0
M  V30 6248 H 602.566 -0.35674 0.560029 0
M  V30 6249 H 605.096 -0.520417 1.97871 0
M  V30 6250 H 605.106 -2.72746 3.03436 0
M  V30 6251 H 603.781 -1.8172 3.741 0
M  V30 6252 H 602.358 -2.9399 2.294 0
M  V30 6253 N 604.543 -1.41418 -0.695603 0
M  V30 6254 C 605.82 -1.31264 -1.45014 0
M  V30 6255 C 606.2 0.0597994 -2.11015 0
M  V30 6256 O 605.548 1.07403 -2.01685 0
M  V30 6257 C 605.758 -2.466 -2.4696 0
M  V30 6258 C 607.106 -2.87763 -3.12214 0
M  V30 6259 O 608.13 -2.46339 -2.57285 0
M  V30 6260 O 606.989 -3.59395 -4.11701 0
M  V30 6261 H 604.083 -0.516576 -0.645816 0
M  V30 6262 H 606.629 -1.53382 -0.726084 0
M  V30 6263 H 605.401 -3.38183 -1.96845 0
M  V30 6264 H 605.024 -2.26358 -3.26876 0
M  V30 6265 N 606.021 0.929856 -1.27246 0
M  V30 6266 C 607.269 1.674 -1.13233 0
M  V30 6267 C 607.59 1.92311 0.322744 0
M  V30 6268 O 606.86 1.52784 1.22612 0
M  V30 6269 H 605.44 0.620411 -0.416052 0
M  V30 6270 H 608.102 1.11663 -1.59741 0
M  V30 6271 H 607.198 2.64308 -1.65975 0
M  V30 6272 N 607.499 1.09233 1.13605 0
M  V30 6273 C 608.724 0.849067 1.89224 0
M  V30 6274 C 609.149 -0.593875 1.78479 0
M  V30 6275 O 608.507 -1.41703 1.13092 0
M  V30 6276 C 608.555 1.28642 3.36873 0
M  V30 6277 O 607.659 0.44363 4.10007 0
M  V30 6278 H 607 0.30767 0.588417 0
M  V30 6279 H 609.53 1.45595 1.43748 0
M  V30 6280 H 609.54 1.27096 3.87699 0
M  V30 6281 H 608.215 2.33729 3.44011 0
M  V30 6282 H 606.792 0.523241 3.69211 0
M  V30 6283 N 608.977 -1.30795 0.87923 0
M  V30 6284 C 610.224 -1.96362 0.494786 0
M  V30 6285 C 610.552 -1.69448 -0.954868 0
M  V30 6286 O 609.807 -0.988711 -1.68888 0
M  V30 6287 C 610.106 -3.50287 0.709476 0
M  V30 6288 C 609.772 -3.9724 2.13333 0
M  V30 6289 C 608.434 -4.09772 2.52271 0
M  V30 6290 C 610.786 -4.21807 3.06151 0
M  V30 6291 C 608.114 -4.44227 3.83248 0
M  V30 6292 C 610.466 -4.5773 4.36654 0
M  V30 6293 C 609.13 -4.68469 4.75492 0
M  V30 6294 H 608.4 -0.71854 0.181055 0
M  V30 6295 H 611.047 -1.55764 1.11399 0
M  V30 6296 H 609.352 -3.91799 0.0072 0
M  V30 6297 H 611.049 -3.99082 0.391703 0
M  V30 6298 H 607.639 -3.87988 1.82107 0
M  V30 6299 H 611.823 -4.11611 2.77291 0
M  V30 6300 H 607.079 -4.50741 4.13089 0
M  V30 6301 H 611.253 -4.7569 5.08617 0
M  V30 6302 H 608.88 -4.94923 5.77022 0
M  V30 6303 N 610.455 -0.639598 -1.44038 0
M  V30 6304 C 611.702 -0.14748 -2.01962 0
M  V30 6305 C 612.03 1.23372 -1.50365 0
M  V30 6306 O 611.285 1.8345 -0.681501 0
M  V30 6307 C 611.584 -0.0925348 -3.5728 0
M  V30 6308 C 611.25 -1.41365 -4.28167 0
M  V30 6309 C 609.912 -1.77545 -4.47248 0
M  V30 6310 C 612.264 -2.2853 -4.68427 0
M  V30 6311 C 609.592 -3.00583 -5.03852 0
M  V30 6312 C 611.944 -3.50846 -5.26393 0
M  V30 6313 C 610.608 -3.8724 -5.43692 0
M  V30 6314 H 609.878 -0.0539666 -0.739032 0
M  V30 6315 H 612.525 -0.827599 -1.72694 0
M  V30 6316 H 610.83 0.670987 -3.86012 0
M  V30 6317 H 612.527 0.304891 -3.99839 0
M  V30 6318 H 609.117 -1.1221 -4.13651 0
M  V30 6319 H 613.301 -2.0187 -4.5339 0
M  V30 6320 H 608.557 -3.28846 -5.15432 0
M  V30 6321 H 612.731 -4.18616 -5.56537 0
M  V30 6322 H 610.358 -4.8266 -5.87319 0
M  V30 6323 N 611.933 1.52934 -0.380664 0
M  V30 6324 C 612.863 2.29118 0.450268 0
M  V30 6325 C 613.844 1.32153 1.07096 0
M  V30 6326 O 615.029 1.61038 1.08537 0
M  V30 6327 C 612.159 3.09161 1.58231 0
M  V30 6328 C 611.113 4.13938 1.0881 0
M  V30 6329 C 610.439 4.82153 2.31155 0
M  V30 6330 C 611.739 5.22048 0.162146 0
M  V30 6331 H 613.433 2.98826 -0.185361 0
M  V30 6332 H 610.979 1.43715 -0.0905886 0
M  V30 6333 H 612.932 3.61211 2.17036 0
M  V30 6334 H 611.656 2.3717 2.2454 0
M  V30 6335 H 610.315 3.62855 0.522633 0
M  V30 6336 H 609.963 4.06719 2.95953 0
M  V30 6337 H 609.663 5.52966 1.98752 0
M  V30 6338 H 611.187 5.37004 2.90618 0
M  V30 6339 H 612.601 5.6951 0.658126 0
M  V30 6340 H 610.998 6.00057 -0.0717122 0
M  V30 6341 H 612.068 4.78398 -0.791438 0
M  V30 6342 N 613.412 0.11024 1.57214 0
M  V30 6343 C 614.642 -0.557025 1.98949 0
M  V30 6344 C 615.05 -1.61317 0.988606 0
M  V30 6345 O 614.393 -1.83679 -0.0279159 0
M  V30 6346 C 614.455 -1.24956 3.37085 0
M  V30 6347 C 614.119 -0.342398 4.55716 0
M  V30 6348 C 615.116 0.415511 5.18237 0
M  V30 6349 C 612.801 -0.256029 5.01647 0
M  V30 6350 C 614.795 1.24761 6.25071 0
M  V30 6351 C 612.482 0.579713 6.08344 0
M  V30 6352 C 613.48 1.33017 6.69922 0
M  V30 6353 O 613.168 2.15205 7.74559 0
M  V30 6354 H 612.9 -0.152792 0.658506 0
M  V30 6355 H 615.454 0.19076 2.04512 0
M  V30 6356 H 613.684 -2.04424 3.2825 0
M  V30 6357 H 615.373 -1.81286 3.63167 0
M  V30 6358 H 616.139 0.358605 4.83672 0
M  V30 6359 H 612.018 -0.829831 4.5347 0
M  V30 6360 H 615.562 1.83386 6.73064 0
M  V30 6361 H 611.459 0.638044 6.42339 0
M  V30 6362 H 612.227 2.08052 7.91617 0
M  V30 6363 N 614.89 -1.56749 -0.16351 0
M  V30 6364 C 616.115 -1.86938 -0.898264 0
M  V30 6365 C 616.54 -0.697456 -1.74692 0
M  V30 6366 O 615.898 0.353327 -1.77824 0
M  V30 6367 C 615.946 -3.15599 -1.74441 0
M  V30 6368 O 615.05 -2.98371 -2.8469 0
M  V30 6369 H 614.391 -0.614659 -0.251178 0
M  V30 6370 H 616.921 -2.03979 -0.159298 0
M  V30 6371 H 616.931 -3.47202 -2.14277 0
M  V30 6372 H 615.606 -4.00505 -1.1211 0
M  V30 6373 H 614.183 -2.7814 -2.4838 0
M  V30 6374 N 616.368 0.432326 -1.51554 0
M  V30 6375 C 617.315 1.52512 -1.7323 0
M  V30 6376 C 618.285 1.55863 -0.5741 0
M  V30 6377 O 619.47 1.72796 -0.809093 0
M  V30 6378 C 616.61 2.90183 -1.86783 0
M  V30 6379 C 615.723 2.96322 -3.14352 0
M  V30 6380 C 614.858 4.25147 -3.18471 0
M  V30 6381 C 613.897 4.25172 -4.40335 0
M  V30 6382 N 613.034 5.45529 -4.41975 0
M  V30 6383 H 617.874 1.33332 -2.66508 0
M  V30 6384 H 615.411 0.647613 -1.32077 0
M  V30 6385 H 617.369 3.70071 -1.92623 0
M  V30 6386 H 615.999 3.0791 -0.969087 0
M  V30 6387 H 615.051 2.09066 -3.17798 0
M  V30 6388 H 616.363 2.92203 -4.04251 0
M  V30 6389 H 615.517 5.13411 -3.23255 0
M  V30 6390 H 614.256 4.31929 -2.2647 0
M  V30 6391 H 613.261 3.353 -4.35723 0
M  V30 6392 H 614.486 4.20049 -5.33606 0
M  V30 6393 H 612.432 5.53024 -3.52847 0
M  V30 6394 H 612.349 5.43311 -5.25689 0
M  V30 6395 H 613.617 6.35812 -4.50958 0
M  V30 6396 N 617.846 1.41785 0.688094 0
M  V30 6397 C 618.776 1.47 1.8142 0
M  V30 6398 C 619.757 0.327881 1.6691 0
M  V30 6399 O 620.942 0.540362 1.86531 0
M  V30 6400 C 618.072 1.35876 3.19617 0
M  V30 6401 C 617.026 2.47976 3.48844 0
M  V30 6402 C 616.352 2.21915 4.86475 0
M  V30 6403 C 617.652 3.90309 3.47068 0
M  V30 6404 H 619.346 2.41247 1.77314 0
M  V30 6405 H 616.892 1.16116 0.851651 0
M  V30 6406 H 618.845 1.38134 3.98117 0
M  V30 6407 H 617.569 0.38116 3.24368 0
M  V30 6408 H 616.228 2.45013 2.72698 0
M  V30 6409 H 615.876 1.2248 4.8786 0
M  V30 6410 H 615.576 2.97037 5.06994 0
M  V30 6411 H 617.1 2.25901 5.67275 0
M  V30 6412 H 618.514 3.94947 4.1556 0
M  V30 6413 H 616.911 4.65175 3.7912 0
M  V30 6414 H 617.981 4.17927 2.45896 0
M  V30 6415 N 619.324 -0.923095 1.27737 0
M  V30 6416 C 620.552 -1.70525 1.17171 0
M  V30 6417 C 620.967 -1.86847 -0.270881 0
M  V30 6418 O 620.324 -1.38879 -1.18401 0
M  V30 6419 C 620.375 -3.10242 1.85559 0
M  V30 6420 O 620.096 -2.94683 3.24182 0
M  V30 6421 C 621.597 -4.04586 1.81176 0
M  V30 6422 H 618.817 -0.533347 0.407163 0
M  V30 6423 H 621.361 -1.15599 1.68692 0
M  V30 6424 H 619.516 -3.62014 1.3793 0
M  V30 6425 H 619.93 -3.83045 3.58297 0
M  V30 6426 H 621.404 -5.00119 2.33633 0
M  V30 6427 H 621.881 -4.3218 0.782099 0
M  V30 6428 H 622.487 -3.58741 2.2844 0
M  V30 6429 N 620.802 -1.09834 -1.13024 0
M  V30 6430 C 622.048 -0.83819 -1.84668 0
M  V30 6431 C 622.381 0.634645 -1.83537 0
M  V30 6432 O 621.656 1.46753 -1.27647 0
M  V30 6433 C 621.939 -1.37933 -3.32636 0
M  V30 6434 C 621.792 -2.91857 -3.42257 0
M  V30 6435 C 623.111 -1.01654 -4.28199 0
M  V30 6436 H 620.23 -0.30595 -0.670495 0
M  V30 6437 H 622.872 -1.36044 -1.32635 0
M  V30 6438 H 621.022 -0.935111 -3.77078 0
M  V30 6439 H 622.694 -3.44759 -3.06495 0
M  V30 6440 H 620.937 -3.28776 -2.83 0
M  V30 6441 H 621.608 -3.24799 -4.46329 0
M  V30 6442 H 624.084 -1.39973 -3.9185 0
M  V30 6443 H 622.96 -1.42217 -5.30156 0
M  V30 6444 H 623.221 0.0747794 -4.42037 0
M  V30 6445 N 622.28 1.30327 -0.886154 0
M  V30 6446 C 623.557 1.90922 -0.425217 0
M  V30 6447 C 623.937 1.80533 1.09413 0
M  V30 6448 O 623.285 1.2233 1.92996 0
M  V30 6449 C 623.495 3.36529 -0.924638 0
M  V30 6450 C 624.843 4.13598 -0.960305 0
M  V30 6451 O 625.867 3.45377 -0.871382 0
M  V30 6452 O 624.726 5.35482 -1.09184 0
M  V30 6453 H 621.82 0.81668 -0.130238 0
M  V30 6454 H 624.366 1.38886 -0.975132 0
M  V30 6455 H 623.138 3.38181 -1.96849 0
M  V30 6456 H 622.761 3.96021 -0.353955 0
M  V30 6457 N 623.758 0.647228 1.43697 0
M  V30 6458 C 624.705 -0.0480092 2.3075 0
M  V30 6459 C 625.675 -0.820705 1.44408 0
M  V30 6460 O 626.86 -0.798515 1.73287 0
M  V30 6461 C 624 -1.01259 3.2991 0
M  V30 6462 C 623.113 -0.236629 4.31351 0
M  V30 6463 C 622.248 -1.19447 5.17596 0
M  V30 6464 C 621.287 -0.408595 6.10735 0
M  V30 6465 N 620.424 -1.31772 6.89623 0
M  V30 6466 H 625.264 0.700238 2.89656 0
M  V30 6467 H 622.801 0.357082 1.427 0
M  V30 6468 H 624.759 -1.58538 3.85903 0
M  V30 6469 H 623.389 -1.72778 2.72667 0
M  V30 6470 H 622.441 0.452353 3.77701 0
M  V30 6471 H 623.753 0.374731 4.9739 0
M  V30 6472 H 622.907 -1.83809 5.78186 0
M  V30 6473 H 621.646 -1.83975 4.51669 0
M  V30 6474 H 620.651 0.24841 5.49239 0
M  V30 6475 H 621.876 0.232188 6.78703 0
M  V30 6476 H 619.822 -1.94991 6.2635 0
M  V30 6477 H 619.739 -0.760779 7.52162 0
M  V30 6478 H 621.007 -1.94967 7.54724 0
M  V30 6479 N 625.236 -1.5273 0.388769 0
M  V30 6480 C 626.461 -2.0647 -0.19621 0
M  V30 6481 C 626.886 -1.25865 -1.39784 0
M  V30 6482 O 626.244 -0.283562 -1.79069 0
M  V30 6483 C 626.292 -3.56456 -0.5451 0
M  V30 6484 O 625.396 -3.78426 -1.63912 0
M  V30 6485 H 624.737 -0.663599 -0.023067 0
M  V30 6486 H 627.267 -1.96898 0.556084 0
M  V30 6487 H 627.277 -3.99888 -0.809557 0
M  V30 6488 H 625.952 -4.14561 0.333417 0
M  V30 6489 H 624.529 -3.46884 -1.36842 0
M  V30 6490 N 626.714 -0.118576 -1.57153 0
M  V30 6491 C 628.13 0.238014 -1.57815 0
M  V30 6492 C 628.33 1.66747 -1.13127 0
M  V30 6493 O 627.386 2.38867 -0.818462 0
M  V30 6494 C 628.699 0.00508207 -3.007 0
M  V30 6495 C 630.247 0.0710139 -3.12919 0
M  V30 6496 C 630.722 -0.13422 -4.57803 0
M  V30 6497 N 632.213 -0.0801755 -4.63131 0
M  V30 6498 C 632.948 -0.213885 -5.73001 0
M  V30 6499 N 632.444 -0.403742 -6.91623 0
M  V30 6500 N 634.237 -0.15349 -5.6189 0
M  V30 6501 H 626.388 -1.05226 -1.84503 0
M  V30 6502 H 628.651 -0.414318 -0.852669 0
M  V30 6503 H 628.357 -0.983125 -3.3768 0
M  V30 6504 H 628.231 0.73714 -3.69927 0
M  V30 6505 H 630.618 1.04975 -2.75798 0
M  V30 6506 H 630.699 -0.692918 -2.46236 0
M  V30 6507 H 630.343 -1.10992 -4.95624 0
M  V30 6508 H 630.273 0.649692 -5.22577 0
M  V30 6509 H 632.764 0.0630689 -3.77847 0
M  V30 6510 H 633.077 -0.496645 -7.71202 0
M  V30 6511 H 631.422 -0.43971 -6.93608 0
M  V30 6512 H 634.613 -0.00613174 -4.681 0
M  V30 6513 H 634.786 -0.261138 -6.47474 0
M  V30 6514 N 628.193 1.56834 0.155195 0
M  V30 6515 C 629.439 1.84058 0.865687 0
M  V30 6516 C 629.794 0.701418 1.79159 0
M  V30 6517 O 629.087 -0.301162 1.89218 0
M  V30 6518 C 629.281 3.15239 1.68402 0
M  V30 6519 C 629.11 4.41807 0.838847 0
M  V30 6520 C 627.88 5.02744 0.507645 0
M  V30 6521 C 630.078 5.14009 0.172946 0
M  V30 6522 N 628.06 6.1289 -0.351978 0
M  V30 6523 C 629.431 6.17581 -0.547158 0
M  V30 6524 C 631.486 4.97814 0.0927721 0
M  V30 6525 C 630.189 7.06711 -1.33985 0
M  V30 6526 C 632.215 5.874 -0.686638 0
M  V30 6527 C 631.577 6.90447 -1.39505 0
M  V30 6528 H 627.676 0.724276 0.294871 0
M  V30 6529 H 630.26 1.94255 0.131583 0
M  V30 6530 H 628.431 3.06205 2.38942 0
M  V30 6531 H 630.163 3.304 2.33705 0
M  V30 6532 H 626.918 4.66064 0.841517 0
M  V30 6533 H 627.342 6.72577 -0.772573 0
M  V30 6534 H 631.984 4.18138 0.626112 0
M  V30 6535 H 629.702 7.8582 -1.88448 0
M  V30 6536 H 633.288 5.76938 -0.750555 0
M  V30 6537 H 632.168 7.58571 -1.98847 0
M  V30 6538 N 629.671 -0.424282 1.51781 0
M  V30 6539 C 630.603 -1.53457 1.70246 0
M  V30 6540 C 631.616 -1.52004 0.582967 0
M  V30 6541 O 632.805 -1.56544 0.857683 0
M  V30 6542 C 629.905 -2.92368 1.71389 0
M  V30 6543 C 629.078 -3.1818 3.00133 0
M  V30 6544 C 628.137 -4.36884 2.9329 0
M  V30 6545 O 627.163 -4.34901 3.67219 0
M  V30 6546 N 628.365 -5.4117 2.10036 0
M  V30 6547 H 631.13 -1.38017 2.66029 0
M  V30 6548 H 628.691 -0.613394 1.4983 0
M  V30 6549 H 630.683 -3.6982 1.64362 0
M  V30 6550 H 629.253 -3.0134 0.831449 0
M  V30 6551 H 628.473 -2.28908 3.20928 0
M  V30 6552 H 629.761 -3.32261 3.85331 0
M  V30 6553 H 629.159 -5.45623 1.49373 0
M  V30 6554 H 627.716 -6.17425 2.08878 0
M  V30 6555 N 631.149 -1.42148 -0.680565 0
M  V30 6556 C 632.081 -1.41119 -1.80605 0
M  V30 6557 C 633.094 -0.311099 -1.598 0
M  V30 6558 O 634.283 -0.573813 -1.69026 0
M  V30 6559 C 631.383 -1.18204 -3.17618 0
M  V30 6560 C 630.556 -2.40537 -3.65322 0
M  V30 6561 C 629.615 -2.13254 -4.8105 0
M  V30 6562 O 628.641 -2.8641 -4.91892 0
M  V30 6563 N 629.843 -1.13208 -5.69354 0
M  V30 6564 H 632.608 -2.38128 -1.81975 0
M  V30 6565 H 630.169 -1.36953 -0.863446 0
M  V30 6566 H 632.161 -0.97878 -3.92686 0
M  V30 6567 H 630.731 -0.29738 -3.11182 0
M  V30 6568 H 629.951 -2.76468 -2.80996 0
M  V30 6569 H 631.239 -3.22012 -3.93936 0
M  V30 6570 H 630.637 -0.526893 -5.63241 0
M  V30 6571 H 629.194 -0.988699 -6.44258 0
M  V30 6572 N 632.627 0.916307 -1.28225 0
M  V30 6573 C 633.875 1.6619 -1.15002 0
M  V30 6574 C 634.196 1.92642 0.302329 0
M  V30 6575 O 633.466 1.54076 1.20985 0
M  V30 6576 H 632.046 0.615964 -0.422608 0
M  V30 6577 H 634.708 1.09963 -1.60917 0
M  V30 6578 H 633.804 2.62533 -1.68769 0
M  V30 6579 N 634.105 1.10431 1.1244 0
M  V30 6580 C 635.053 0.747974 2.20246 0
M  V30 6581 C 636.047 -0.255848 1.67457 0
M  V30 6582 O 637.253 -0.116221 1.79624 0
M  V30 6583 H 633.628 0.223946 0.71788 0
M  V30 6584 H 635.599 1.6661 2.47556 0
M  V30 6585 C 634.348 0.195957 3.47147 0
M  V30 6586 H 633.671 0.959606 3.88113 0
M  V30 6587 H 635.111 -0.0153154 4.23997 0
M  V30 6588 C 633.57 -1.07132 3.19413 0
M  V30 6589 O 634.1 -2.15284 3.3914 0
M  V30 6590 N 632.306 -0.98994 2.73219 0
M  V30 6591 H 631.853 -0.109736 2.57366 0
M  V30 6592 H 631.811 -1.83856 2.55038 0
M  V30 6593 N 635.583 -1.29855 0.893053 0
M  V30 6594 C 636.829 -1.96116 0.516349 0
M  V30 6595 C 637.162 -1.70281 -0.933695 0
M  V30 6596 O 636.437 -1.01205 -1.66096 0
M  V30 6597 C 636.72 -3.51068 0.801455 0
M  V30 6598 C 636.573 -3.86387 2.30272 0
M  V30 6599 C 637.892 -4.39186 0.283423 0
M  V30 6600 H 635.011 -0.712335 0.189072 0
M  V30 6601 H 637.653 -1.53587 1.11852 0
M  V30 6602 H 635.803 -3.87424 0.288949 0
M  V30 6603 H 637.475 -3.60012 2.88425 0
M  V30 6604 H 635.718 -3.34167 2.76613 0
M  V30 6605 H 636.389 -4.94512 2.45279 0
M  V30 6606 H 638.865 -4.09785 0.722187 0
M  V30 6607 H 637.741 -5.46505 0.512169 0
M  V30 6608 H 638.002 -4.34511 -0.815643 0
M  V30 6609 N 637.061 -0.65484 -1.43351 0
M  V30 6610 C 638.308 -0.168892 -2.01794 0
M  V30 6611 C 638.636 1.2177 -1.51665 0
M  V30 6612 O 637.891 1.82717 -0.70092 0
M  V30 6613 C 638.19 -0.130424 -3.57162 0
M  V30 6614 C 637.856 -1.45898 -4.26643 0
M  V30 6615 C 636.518 -1.82279 -4.4534 0
M  V30 6616 C 638.87 -2.33485 -4.65976 0
M  V30 6617 C 636.198 -3.0591 -5.00635 0
M  V30 6618 C 638.55 -3.5641 -5.22642 0
M  V30 6619 C 637.214 -3.92985 -5.39555 0
M  V30 6620 H 636.484 -0.061802 -0.738418 0
M  V30 6621 H 639.131 -0.845869 -1.71806 0
M  V30 6622 H 637.436 0.630008 -3.86702 0
M  V30 6623 H 639.133 0.262465 -4.0014 0
M  V30 6624 H 635.723 -1.16591 -4.12437 0
M  V30 6625 H 639.907 -2.06668 -4.51223 0
M  V30 6626 H 635.163 -3.34295 -5.11915 0
M  V30 6627 H 639.337 -4.24495 -5.52066 0
M  V30 6628 H 636.964 -4.88862 -5.82167 0
M  V30 6629 N 638.539 1.52521 -0.396863 0
M  V30 6630 C 639.764 2.06571 0.185258 0
M  V30 6631 C 640.189 1.26605 1.39115 0
M  V30 6632 O 639.547 0.293055 1.78916 0
M  V30 6633 C 639.595 3.5674 0.526189 0
M  V30 6634 O 638.699 3.7929 1.61903 0
M  V30 6635 H 638.04 0.663712 0.0195474 0
M  V30 6636 H 640.57 1.966 -0.566519 0
M  V30 6637 H 640.58 4.00311 0.788338 0
M  V30 6638 H 639.255 4.14379 -0.355397 0
M  V30 6639 H 637.832 3.47605 1.35 0
M  V30 6640 N 640.017 0.126909 1.57088 0
M  V30 6641 C 641.257 -0.53216 1.97351 0
M  V30 6642 C 641.621 -1.63342 1.00913 0
M  V30 6643 O 642.822 -2.35194 1.30144 0
M  V30 6644 C 641.093 -1.04385 3.41817 0
M  V30 6645 S 642.652 -1.71033 4.04095 0
M  V30 6646 H 639.47 -0.172724 0.689701 0
M  V30 6647 H 642.072 0.213865 1.94327 0
M  V30 6648 H 640.776 -0.231289 4.09748 0
M  V30 6649 H 640.307 -1.82496 3.48509 0
M  V30 6650 H 642.322 -2.99656 3.95501 0
M  V30 6651 N 641.495 -1.56914 -0.146875 0
M  V30 6652 C 642.72 -1.87881 -0.878386 0
M  V30 6653 C 643.145 -0.715945 -1.73942 0
M  V30 6654 O 642.503 0.334447 -1.78189 0
M  V30 6655 C 642.551 -3.17431 -1.71084 0
M  V30 6656 O 641.655 -3.01374 -2.81509 0
M  V30 6657 H 640.996 -0.617289 -0.244644 0
M  V30 6658 H 643.526 -2.04136 -0.137654 0
M  V30 6659 H 643.536 -3.49455 -2.10582 0
M  V30 6660 H 642.211 -4.01671 -1.07856 0
M  V30 6661 H 640.788 -2.80758 -2.45416 0
M  V30 6662 N 642.974 0.416227 -1.52004 0
M  V30 6663 C 644.22 1.16555 -1.6596 0
M  V30 6664 C 644.553 1.90347 -0.384906 0
M  V30 6665 O 643.828 1.84474 0.616405 0
M  V30 6666 C 644.111 2.1657 -2.87696 0
M  V30 6667 C 643.964 1.46722 -4.25197 0
M  V30 6668 C 645.283 3.17321 -3.04951 0
M  V30 6669 H 642.402 0.422369 -0.603965 0
M  V30 6670 H 645.044 0.452141 -1.84542 0
M  V30 6671 H 643.194 2.77411 -2.71985 0
M  V30 6672 H 644.866 0.89056 -4.52622 0
M  V30 6673 H 643.109 0.769263 -4.26925 0
M  V30 6674 H 643.78 2.19665 -5.0641 0
M  V30 6675 H 646.256 2.66552 -3.19514 0
M  V30 6676 H 645.132 3.84573 -3.91656 0
M  V30 6677 H 645.393 3.84643 -2.17951 0
M  V30 6678 N 644.452 1.42507 0.673017 0
M  V30 6679 C 645.385 1.40557 1.79774 0
M  V30 6680 C 646.363 0.269606 1.60349 0
M  V30 6681 O 647.547 0.460105 1.82798 0
M  V30 6682 C 644.674 1.19815 3.168 0
M  V30 6683 C 643.72 2.36429 3.5497 0
M  V30 6684 S 644.553 3.98963 3.57196 0
M  V30 6685 C 645.709 3.80567 4.9691 0
M  V30 6686 H 645.942 2.35734 1.81154 0
M  V30 6687 H 643.475 1.293 0.843846 0
M  V30 6688 H 645.433 1.08535 3.95892 0
M  V30 6689 H 644.094 0.262215 3.13004 0
M  V30 6690 H 643.287 2.17669 4.54573 0
M  V30 6691 H 642.889 2.44233 2.83242 0
M  V30 6692 H 645.181 3.41668 5.85038 0
M  V30 6693 H 646.124 4.79852 5.20718 0
M  V30 6694 H 646.532 3.13399 4.69512 0
M  V30 6695 N 645.93 -0.909495 1.28709 0
M  V30 6696 C 646.88 -1.9991 1.09636 0
M  V30 6697 C 647.864 -1.60889 0.01872 0
M  V30 6698 O 649.056 -1.75374 0.239338 0
M  V30 6699 C 646.185 -3.34675 0.764702 0
M  V30 6700 C 645.271 -3.80085 1.8814 0
M  V30 6701 N 645.662 -3.97824 3.12361 0
M  V30 6702 C 643.96 -4.09278 1.77221 0
M  V30 6703 C 644.661 -4.35928 3.85151 0
M  V30 6704 N 643.637 -4.44426 3.13028 0
M  V30 6705 H 647.439 -2.11681 2.03883 0
M  V30 6706 H 644.953 -1.09763 1.1969 0
M  V30 6707 H 646.95 -4.12426 0.609132 0
M  V30 6708 H 645.61 -3.24255 -0.169952 0
M  V30 6709 H 646.621 -3.83626 3.47925 0
M  V30 6710 H 643.298 -4.0747 0.909621 0
M  V30 6711 H 644.688 -4.57581 4.92006 0
M  V30 6712 N 647.408 -1.11026 -1.11852 0
M  V30 6713 C 648.318 -0.777252 -2.2135 0
M  V30 6714 C 649.334 0.227821 -1.72502 0
M  V30 6715 O 650.51 0.0650587 -2.01295 0
M  V30 6716 C 647.575 -0.220668 -3.45997 0
M  V30 6717 C 646.636 -1.2838 -4.09655 0
M  V30 6718 C 645.869 -0.753678 -5.28352 0
M  V30 6719 O 646.092 0.417779 -5.68868 0
M  V30 6720 O 645.026 -1.51647 -5.82483 0
M  V30 6721 H 648.852 -1.69141 -2.5224 0
M  V30 6722 H 646.437 -0.885836 -1.20305 0
M  V30 6723 H 648.319 0.0855756 -4.21313 0
M  V30 6724 H 646.994 0.666262 -3.16769 0
M  V30 6725 H 645.901 -1.64299 -3.3609 0
M  V30 6726 H 647.234 -2.14396 -4.43052 0
M  V30 6727 N 648.886 1.2938 -0.899927 0
M  V30 6728 C 649.849 2.25983 -0.382677 0
M  V30 6729 C 650.849 1.53366 0.483259 0
M  V30 6730 O 652.039 1.71798 0.28828 0
M  V30 6731 C 649.171 3.37878 0.452915 0
M  V30 6732 H 650.364 2.73252 -1.23586 0
M  V30 6733 H 647.917 1.40825 -0.678088 0
M  V30 6734 H 648.652 2.95949 1.32608 0
M  V30 6735 H 648.437 3.91742 -0.167562 0
M  V30 6736 H 649.927 4.09746 0.806107 0
M  V30 6737 N 650.364 0.662433 1.43002 0
M  V30 6738 C 651.294 -0.00979809 2.33498 0
M  V30 6739 C 652.275 -0.802329 1.49989 0
M  V30 6740 O 653.46 -0.761964 1.78627 0
M  V30 6741 C 650.59 -0.970446 3.33466 0
M  V30 6742 C 649.544 -0.287383 4.27034 0
M  V30 6743 C 648.87 -1.36012 5.17112 0
M  V30 6744 C 650.17 0.82595 5.15728 0
M  V30 6745 H 651.864 0.745959 2.89958 0
M  V30 6746 H 649.41 0.360172 1.39423 0
M  V30 6747 H 651.363 -1.44971 3.95679 0
M  V30 6748 H 650.087 -1.75748 2.75282 0
M  V30 6749 H 648.746 0.17152 3.66199 0
M  V30 6750 H 648.394 -2.13882 4.55262 0
M  V30 6751 H 648.094 -0.908276 5.80538 0
M  V30 6752 H 649.618 -1.84056 5.82199 0
M  V30 6753 H 651.032 0.42845 5.71697 0
M  V30 6754 H 649.429 1.20282 5.87922 0
M  V30 6755 H 650.499 1.68003 4.54866 0
M  V30 6756 N 651.842 -1.52309 0.404946 0
M  V30 6757 C 652.792 -2.23717 -0.439864 0
M  V30 6758 C 653.776 -1.24692 -1.0169 0
M  V30 6759 O 654.968 -1.49951 -0.940409 0
M  V30 6760 C 652.097 -3.05898 -1.55825 0
M  V30 6761 C 651.183 -4.12331 -0.992188 0
M  V30 6762 N 651.574 -5.0557 -0.152424 0
M  V30 6763 C 649.872 -4.2774 -1.26312 0
M  V30 6764 C 650.573 -5.81474 0.162041 0
M  V30 6765 N 649.549 -5.41767 -0.44601 0
M  V30 6766 H 653.351 -2.93162 0.208084 0
M  V30 6767 H 650.865 -1.60969 0.215131 0
M  V30 6768 H 652.862 -3.55605 -2.17603 0
M  V30 6769 H 651.522 -2.37991 -2.20886 0
M  V30 6770 H 652.533 -5.17468 0.211556 0
M  V30 6771 H 649.21 -3.71062 -1.91362 0
M  V30 6772 H 650.6 -6.66585 0.843423 0
M  V30 6773 N 653.32 -0.135238 -1.57019 0
M  V30 6774 C 654.268 0.826099 -2.17436 0
M  V30 6775 C 655.262 1.26378 -1.12805 0
M  V30 6776 O 656.468 1.23363 -1.31079 0
M  V30 6777 H 652.843 0.284568 -0.696078 0
M  V30 6778 H 654.814 0.292212 -2.96966 0
M  V30 6779 C 653.563 2.05991 -2.80112 0
M  V30 6780 H 652.886 1.73209 -3.60331 0
M  V30 6781 H 654.326 2.71225 -3.25903 0
M  V30 6782 C 652.785 2.86027 -1.78017 0
M  V30 6783 O 653.315 3.81971 -1.24344 0
M  V30 6784 N 651.521 2.50332 -1.47588 0
M  V30 6785 H 651.068 1.72377 -1.91426 0
M  V30 6786 H 651.026 3.04177 -0.795228 0
M  V30 6787 N 654.798 1.5699 0.138552 0
M  V30 6788 C 655.748 1.9532 1.17619 0
M  V30 6789 C 656.732 0.825545 1.38107 0
M  V30 6790 O 657.924 1.08908 1.39528 0
M  V30 6791 C 655.053 2.34451 2.50774 0
M  V30 6792 C 654.139 3.53805 2.33844 0
M  V30 6793 N 654.53 4.70088 1.86685 0
M  V30 6794 C 652.828 3.59055 2.64567 0
M  V30 6795 C 653.529 5.52165 1.82998 0
M  V30 6796 N 652.505 4.94108 2.26624 0
M  V30 6797 H 656.307 2.82694 0.803809 0
M  V30 6798 H 653.821 1.5866 0.346519 0
M  V30 6799 H 655.818 2.60119 3.25797 0
M  V30 6800 H 654.478 1.48431 2.88788 0
M  V30 6801 H 655.489 4.93681 1.56523 0
M  V30 6802 H 652.166 2.83596 3.06398 0
M  V30 6803 H 653.556 6.55407 1.47957 0
M  V30 6804 N 656.276 -0.40816 1.52223 0
M  V30 6805 C 657.506 -1.17501 1.69932 0
M  V30 6806 C 657.914 -1.84729 0.408874 0
M  V30 6807 O 657.257 -1.7274 -0.625025 0
M  V30 6808 C 657.319 -2.27994 2.77955 0
M  V30 6809 C 656.983 -1.80894 4.19674 0
M  V30 6810 C 657.98 -1.29618 5.03483 0
M  V30 6811 C 655.665 -1.87698 4.65913 0
M  V30 6812 C 657.659 -0.857695 6.31603 0
M  V30 6813 C 655.346 -1.43461 5.94022 0
M  V30 6814 C 656.344 -0.925822 6.76696 0
M  V30 6815 O 656.032 -0.489841 8.02406 0
M  V30 6816 H 655.764 -0.359065 0.572755 0
M  V30 6817 H 658.318 -0.486188 1.99563 0
M  V30 6818 H 656.548 -3.00243 2.43703 0
M  V30 6819 H 658.237 -2.89749 2.84254 0
M  V30 6820 H 659.003 -1.23733 4.68951 0
M  V30 6821 H 654.882 -2.26244 4.01665 0
M  V30 6822 H 658.426 -0.459879 6.96083 0
M  V30 6823 H 654.323 -1.49026 6.28062 0
M  V30 6824 H 655.091 -0.613062 8.16201 0
M  V30 6825 N 657.755 -1.42862 -0.66545 0
M  V30 6826 C 658.983 -1.47246 -1.45349 0
M  V30 6827 C 659.398 -0.0865944 -1.88601 0
M  V30 6828 O 658.755 0.900652 -1.58728 0
M  V30 6829 C 658.806 -2.40772 -2.6965 0
M  V30 6830 O 658.527 -3.73968 -2.2821 0
M  V30 6831 C 660.028 -2.54272 -3.63126 0
M  V30 6832 H 657.248 -0.500497 -0.446927 0
M  V30 6833 H 659.792 -1.87477 -0.816871 0
M  V30 6834 H 657.947 -2.0377 -3.29479 0
M  V30 6835 H 658.361 -4.24146 -3.08546 0
M  V30 6836 H 659.835 -3.23815 -4.47043 0
M  V30 6837 H 660.312 -1.58364 -4.09656 0
M  V30 6838 H 660.918 -2.92036 -3.09185 0
M  V30 6839 N 659.233 0.902656 -1.29189 0
M  V30 6840 C 660.165 2.01149 -1.09872 0
M  V30 6841 C 661.178 1.62732 -0.0471046 0
M  V30 6842 O 662.367 1.76107 -0.29132 0
M  V30 6843 C 659.467 3.32612 -0.649818 0
M  V30 6844 C 658.64 3.99574 -1.7793 0
M  V30 6845 C 657.699 5.09325 -1.32191 0
M  V30 6846 O 656.725 5.31919 -2.02611 0
M  V30 6847 N 657.927 5.80185 -0.191171 0
M  V30 6848 H 660.692 2.18276 -2.05368 0
M  V30 6849 H 658.253 1.07466 -1.2109 0
M  V30 6850 H 660.245 4.03375 -0.327199 0
M  V30 6851 H 658.815 3.11876 0.212597 0
M  V30 6852 H 658.035 3.22213 -2.27095 0
M  V30 6853 H 659.323 4.41056 -2.53668 0
M  V30 6854 H 658.721 5.64312 0.396016 0
M  V30 6855 H 657.278 6.5176 0.0721001 0
M  V30 6856 N 660.711 1.11618 1.11262 0
M  V30 6857 C 661.658 0.7762 2.17356 0
M  V30 6858 C 662.628 -0.253152 1.6416 0
M  V30 6859 O 663.813 -0.129655 1.90359 0
M  V30 6860 C 660.953 0.227581 3.44349 0
M  V30 6861 C 660.066 1.31372 4.1154 0
M  V30 6862 C 659.201 0.72544 5.26223 0
M  V30 6863 C 658.24 1.7913 5.85302 0
M  V30 6864 N 657.377 1.22237 6.91377 0
M  V30 6865 H 662.217 1.68508 2.45783 0
M  V30 6866 H 659.754 0.841475 1.20655 0
M  V30 6867 H 661.712 -0.108483 4.17059 0
M  V30 6868 H 660.342 -0.644486 3.16301 0
M  V30 6869 H 659.394 1.7667 3.36885 0
M  V30 6870 H 660.706 2.12005 4.51504 0
M  V30 6871 H 659.86 0.339541 6.05749 0
M  V30 6872 H 658.599 -0.112188 4.87571 0
M  V30 6873 H 657.604 2.18648 5.04453 0
M  V30 6874 H 658.829 2.63199 6.26022 0
M  V30 6875 H 656.775 0.406423 6.5474 0
M  V30 6876 H 656.692 1.9654 7.30006 0
M  V30 6877 H 657.96 0.863426 7.74703 0
M  V30 6878 N 662.189 -1.289 0.906776 0
M  V30 6879 C 663.414 -1.99939 0.551303 0
M  V30 6880 C 663.839 -1.67366 -0.858496 0
M  V30 6881 O 663.197 -0.902176 -1.57259 0
M  V30 6882 C 663.245 -3.52523 0.758937 0
M  V30 6883 O 662.349 -4.11983 -0.185308 0
M  V30 6884 H 661.69 -0.628376 0.214568 0
M  V30 6885 H 664.22 -1.64225 1.2203 0
M  V30 6886 H 664.23 -4.02522 0.666329 0
M  V30 6887 H 662.905 -3.75566 1.78671 0
M  V30 6888 H 661.482 -3.72873 -0.0445577 0
M  V30 6889 N 663.667 -0.670007 -1.42649 0
M  V30 6890 C 664.597 -0.00258501 -2.335 0
M  V30 6891 C 665.578 0.794364 -1.50412 0
M  V30 6892 O 666.763 0.75248 -1.79029 0
M  V30 6893 C 663.893 0.952748 -3.33976 0
M  V30 6894 C 662.847 0.264733 -4.2718 0
M  V30 6895 C 662.173 1.33267 -5.17826 0
M  V30 6896 C 663.473 -0.853289 -5.15283 0
M  V30 6897 H 665.167 -0.761326 -2.89559 0
M  V30 6898 H 662.713 -0.367561 -1.3923 0
M  V30 6899 H 664.666 1.4287 -3.96442 0
M  V30 6900 H 663.39 1.74285 -2.7621 0
M  V30 6901 H 662.049 -0.190938 -3.66102 0
M  V30 6902 H 661.697 2.11464 -4.5639 0
M  V30 6903 H 661.397 0.877476 -5.81011 0
M  V30 6904 H 662.921 1.80965 -5.83167 0
M  V30 6905 H 664.335 -0.458763 -5.71462 0
M  V30 6906 H 662.732 -1.23398 -5.87276 0
M  V30 6907 H 663.802 -1.70412 -4.53969 0
M  V30 6908 N 665.145 1.52092 -0.413018 0
M  V30 6909 C 666.37 2.06756 0.163338 0
M  V30 6910 C 666.795 1.28073 1.37764 0
M  V30 6911 O 666.153 0.312015 1.78595 0
M  V30 6912 C 666.201 3.57278 0.488322 0
M  V30 6913 O 665.305 3.80986 1.57871 0
M  V30 6914 H 664.646 0.663882 0.0125068 0
M  V30 6915 H 667.176 1.95988 -0.587339 0
M  V30 6916 H 667.186 4.01125 0.745836 0
M  V30 6917 H 665.861 4.13978 -0.399327 0
M  V30 6918 H 664.438 3.49017 1.31306 0
M  V30 6919 N 666.623 0.143563 1.56945 0
M  V30 6920 C 667.553 -0.7936 2.196 0
M  V30 6921 C 668.534 -1.25955 1.14321 0
M  V30 6922 O 669.719 -1.31773 1.42651 0
M  V30 6923 C 666.849 -2.03424 2.81489 0
M  V30 6924 C 665.803 -1.70519 3.92565 0
M  V30 6925 C 665.129 -3.01817 4.41373 0
M  V30 6926 C 666.429 -0.95449 5.13504 0
M  V30 6927 H 668.123 -0.271423 2.98167 0
M  V30 6928 H 665.669 -0.12911 1.4342 0
M  V30 6929 H 667.622 -2.69463 3.23987 0
M  V30 6930 H 666.346 -2.58008 2.00248 0
M  V30 6931 H 665.005 -1.06859 3.5068 0
M  V30 6932 H 664.653 -3.54386 3.56959 0
M  V30 6933 H 664.353 -2.80565 5.16292 0
M  V30 6934 H 665.877 -3.68934 4.86539 0
M  V30 6935 H 667.291 -1.5169 5.52868 0
M  V30 6936 H 665.688 -0.842035 5.94163 0
M  V30 6937 H 666.758 0.0544033 4.84869 0
M  V30 6938 N 668.101 -1.57061 -0.130224 0
M  V30 6939 C 669.326 -1.88802 -0.858409 0
M  V30 6940 C 669.751 -0.734353 -1.73173 0
M  V30 6941 O 669.109 0.315529 -1.78533 0
M  V30 6942 C 669.157 -3.19228 -1.67708 0
M  V30 6943 O 668.261 -3.04343 -2.78297 0
M  V30 6944 H 667.602 -0.619849 -0.238083 0
M  V30 6945 H 670.132 -2.04271 -0.115995 0
M  V30 6946 H 670.142 -3.51669 -2.06864 0
M  V30 6947 H 668.817 -4.02793 -1.0359 0
M  V30 6948 H 667.394 -2.83346 -2.42425 0
M  V30 6949 N 669.579 0.400081 -1.52437 0
M  V30 6950 C 670.99 0.97851 -1.59003 0
M  V30 6951 C 671.341 1.91293 -0.436068 0
M  V30 6952 O 670.466 2.1183 0.442365 0
M  V30 6953 C 671.061 1.78145 -2.88184 0
M  V30 6954 C 669.62 2.30976 -2.97199 0
M  V30 6955 C 668.767 1.11212 -2.54022 0
M  V30 6956 H 671.718 0.180002 -1.57676 0
M  V30 6957 H 671.739 2.63968 -2.74046 0
M  V30 6958 H 671.251 1.1011 -3.72152 0
M  V30 6959 H 669.352 3.02355 -2.17744 0
M  V30 6960 H 669.465 2.61221 -4.01622 0
M  V30 6961 H 667.829 1.46882 -2.08081 0
M  V30 6962 H 668.612 0.447307 -3.40373 0
M  V30 6963 N 671.057 1.43213 0.657864 0
M  V30 6964 C 672.305 1.44298 1.41501 0
M  V30 6965 C 672.626 0.0666478 1.94886 0
M  V30 6966 O 671.896 -0.897345 1.74139 0
M  V30 6967 H 670.476 0.531257 0.525143 0
M  V30 6968 H 673.138 1.78777 0.776195 0
M  V30 6969 H 672.234 2.1528 2.25966 0
M  V30 6970 N 672.536 -0.895792 1.29666 0
M  V30 6971 C 673.483 -2.00035 1.15129 0
M  V30 6972 C 674.453 -1.66043 0.0435819 0
M  V30 6973 O 675.638 -1.89621 0.211811 0
M  V30 6974 C 672.778 -3.34774 0.83787 0
M  V30 6975 C 671.891 -3.81525 2.0264 0
M  V30 6976 C 671.026 -5.04858 1.65201 0
M  V30 6977 C 670.065 -5.43988 2.80612 0
M  V30 6978 N 669.202 -6.58507 2.43544 0
M  V30 6979 H 674.042 -2.11802 2.09628 0
M  V30 6980 H 671.579 -1.03719 1.04311 0
M  V30 6981 H 673.537 -4.12311 0.636824 0
M  V30 6982 H 672.167 -3.22724 -0.0702314 0
M  V30 6983 H 671.219 -2.9999 2.33903 0
M  V30 6984 H 672.531 -4.06472 2.89106 0
M  V30 6985 H 671.685 -5.8999 1.41408 0
M  V30 6986 H 670.424 -4.81759 0.758893 0
M  V30 6987 H 669.429 -4.57388 3.05083 0
M  V30 6988 H 670.654 -5.69066 3.70595 0
M  V30 6989 H 668.6 -6.37004 1.56724 0
M  V30 6990 H 668.517 -6.83269 3.23542 0
M  V30 6991 H 669.785 -7.46897 2.2308 0
M  V30 6992 O 674.053 -1.24272 -1.03144 0
M  V30 6993 H 674.744 -1.0191 -1.64724 0
M  V30 END ATOM
M  V30 BEGIN BOND
M  V30 END BOND
M  V30 END CTAB
M  END
$$$$
