drugbank_drug|DB14562 Peptide sequence
 OpenBabel12092119123D

  0  0  0     0  0            999 V3000
M  V30 BEGIN CTAB
M  V30 COUNTS 5672 5730 0 0 0
M  V30 BEGIN ATOM
M  V30 1 H -0.908 1.98254 -0.117106 0
M  V30 2 N 0 1.576 0 0
M  V30 3 C 0.963 2.07369 0.976253 0
M  V30 4 C 1.963 0.98309 1.27248 0
M  V30 5 O 3.153 1.24574 1.21766 0
M  V30 6 C 0.285 2.51514 2.30116 0
M  V30 7 H 1.478 2.94892 0.545759 0
M  V30 8 H -0.969 1.54328 0.247471 0
M  V30 9 H -0.234 1.67234 2.77855 0
M  V30 10 H -0.449 3.31163 2.09937 0
M  V30 11 H 1.041 2.90345 3.00149 0
M  V30 12 N 1.4781 -0.272755 1.55222 0
M  V30 13 C 2.4261 -1.35705 1.88909 0
M  V30 14 C 3.4201 -1.5112 0.765456 0
M  V30 15 O 4.6261 -1.52901 0.949802 0
M  V30 16 H 1.0011 -0.453868 0.59959 0
M  V30 17 H 2.9721 -1.04544 2.79487 0
M  V30 18 C 1.7211 -2.71049 2.17779 0
M  V30 19 H 1.0441 -2.59979 3.03728 0
M  V30 20 H 2.4841 -3.45858 2.45272 0
M  V30 21 C 0.9431 -3.22165 0.985473 0
M  V30 22 O 1.4731 -4.01096 0.220233 0
M  V30 23 N -0.3209 -2.7985 0.783108 0
M  V30 24 H -0.7739 -2.15775 1.40708 0
M  V30 25 H -0.8159 -3.14397 -0.0130392 0
M  V30 26 N 2.9562 -1.48159 -0.537278 0
M  V30 27 C 4.1812 -1.59707 -1.32319 0
M  V30 28 C 4.6062 -0.254859 -1.86365 0
M  V30 29 O 3.9642 0.772378 -1.64024 0
M  V30 30 C 4.0122 -2.6412 -2.45505 0
M  V30 31 O 3.1162 -2.20774 -3.48328 0
M  V30 32 H 2.4572 -0.535791 -0.392204 0
M  V30 33 H 4.9872 -1.94092 -0.647268 0
M  V30 34 H 4.9972 -2.85166 -2.91795 0
M  V30 35 H 3.6722 -3.61567 -2.05528 0
M  V30 36 H 2.2492 -2.09911 -3.08207 0
M  V30 37 N 4.4343 0.785586 -1.36625 0
M  V30 38 C 5.6813 1.54362 -1.31067 0
M  V30 39 C 6.0093 1.94195 0.10893 0
M  V30 40 O 5.2643 1.63262 1.07908 0
M  V30 41 C 5.5633 2.83007 -2.1827 0
M  V30 42 C 5.2293 2.62294 -3.6676 0
M  V30 43 C 3.8913 2.56353 -4.0723 0
M  V30 44 C 6.2433 2.43371 -4.6089 0
M  V30 45 C 3.5713 2.29461 -5.39967 0
M  V30 46 C 5.9233 2.18005 -5.93849 0
M  V30 47 C 4.5873 2.105 -6.3344 0
M  V30 48 H 3.8573 0.564851 -0.479609 0
M  V30 49 H 6.5043 0.906028 -1.68711 0
M  V30 50 H 4.8093 3.51253 -1.73576 0
M  V30 51 H 6.5063 3.40817 -2.11292 0
M  V30 52 H 3.0963 2.67774 -3.34656 0
M  V30 53 H 7.2803 2.46959 -4.30494 0
M  V30 54 H 2.5363 2.22135 -5.69619 0
M  V30 55 H 6.7103 2.02359 -6.66351 0
M  V30 56 H 4.3373 1.89425 -7.36222 0
M  V30 57 N 5.9124 1.20967 1.01018 0
M  V30 58 C 6.8424 0.988272 2.11555 0
M  V30 59 C 7.8234 -0.0849778 1.69888 0
M  V30 60 O 9.0084 0.0738202 1.9406 0
M  V30 61 C 6.1384 0.546528 3.42973 0
M  V30 62 C 5.0924 1.56375 3.9841 0
M  V30 63 C 4.4184 0.97842 5.25672 0
M  V30 64 C 5.7184 2.94922 4.31066 0
M  V30 65 H 7.4124 1.91276 2.30334 0
M  V30 66 H 4.9584 0.921073 1.1069 0
M  V30 67 H 6.9114 0.378839 4.19694 0
M  V30 68 H 5.6354 -0.413598 3.23971 0
M  V30 69 H 4.2944 1.71891 3.23804 0
M  V30 70 H 3.9424 0.0101688 5.02999 0
M  V30 71 H 3.6424 1.65784 5.63728 0
M  V30 72 H 5.1664 0.821939 6.05043 0
M  V30 73 H 6.5804 2.8288 4.9865 0
M  V30 74 H 4.9774 3.5983 4.80253 0
M  V30 75 H 6.0474 3.4616 3.39561 0
M  V30 76 N 7.3905 -1.2043 1.01659 0
M  V30 77 C 8.6375 -1.89797 0.705917 0
M  V30 78 C 8.9655 -1.78848 -0.764439 0
M  V30 79 O 8.2205 -1.16694 -1.57102 0
M  V30 80 C 8.5195 -3.40464 1.08714 0
M  V30 81 C 8.1855 -3.71614 2.5537 0
M  V30 82 C 6.8475 -3.79826 2.95441 0
M  V30 83 C 9.1995 -3.85915 3.50313 0
M  V30 84 C 6.5275 -3.99797 4.29394 0
M  V30 85 C 8.8795 -4.07396 4.83954 0
M  V30 86 C 7.5435 -4.13837 5.23732 0
M  V30 87 H 6.8135 -0.694518 0.258313 0
M  V30 88 H 9.4605 -1.42691 1.27717 0
M  V30 89 H 7.7655 -3.89385 0.434309 0
M  V30 90 H 9.4625 -3.92433 0.824461 0
M  V30 91 H 6.0525 -3.65822 2.23321 0
M  V30 92 H 10.2365 -3.78926 3.20513 0
M  V30 93 H 5.4925 -4.03018 4.59768 0
M  V30 94 H 9.6665 -4.17404 5.57447 0
M  V30 95 H 7.2935 -4.29064 6.27541 0
M  V30 96 N 8.8686 -0.792821 -1.36206 0
M  V30 97 C 10.1146 -0.376415 -1.99887 0
M  V30 98 C 10.4696 1.04127 -1.61788 0
M  V30 99 O 9.7626 1.71004 -0.864193 0
M  V30 100 C 9.9566 -0.481501 -3.54142 0
M  V30 101 C 9.7856 -1.90786 -4.07223 0
M  V30 102 C 8.5556 -2.53322 -4.37214 0
M  V30 103 C 10.7536 -2.87048 -4.26741 0
M  V30 104 N 8.7356 -3.8751 -4.7614 0
M  V30 105 C 10.1066 -4.06077 -4.6851 0
M  V30 106 C 12.1616 -2.8406 -4.08918 0
M  V30 107 C 10.8646 -5.22532 -4.94321 0
M  V30 108 C 12.8906 -3.99705 -4.35878 0
M  V30 109 C 12.2526 -5.1748 -4.77906 0
M  V30 110 H 8.3516 -0.185226 -0.759747 0
M  V30 111 H 10.9356 -1.03114 -1.65153 0
M  V30 112 H 9.1066 0.143154 -3.88136 0
M  V30 113 H 10.8386 -0.0410128 -4.04679 0
M  V30 114 H 7.5936 -2.04777 -4.2704 0
M  V30 115 H 8.0176 -4.5656 -4.99882 0
M  V30 116 H 12.6596 -1.94165 -3.75579 0
M  V30 117 H 10.3776 -6.1301 -5.2654 0
M  V30 118 H 13.9636 -3.98758 -4.23655 0
M  V30 119 H 12.8436 -6.05478 -4.98363 0
M  V30 120 N 10.3467 1.47872 -0.545128 0
M  V30 121 C 11.2947 2.31533 0.222512 0
M  V30 122 C 12.2887 1.42177 0.920985 0
M  V30 123 O 13.4947 1.59005 0.843645 0
M  V30 124 H 9.8697 0.746519 0.0906278 0
M  V30 125 H 11.8407 2.94139 -0.50246 0
M  V30 126 C 10.5897 3.2457 1.24699 0
M  V30 127 H 9.9127 3.93283 0.718944 0
M  V30 128 H 11.3527 3.85963 1.75523 0
M  V30 129 C 9.8117 2.47237 2.28856 0
M  V30 130 O 10.3417 2.20808 3.35569 0
M  V30 131 N 8.5477 2.08461 2.02466 0
M  V30 132 H 8.0947 2.30155 1.157 0
M  V30 133 H 8.0527 1.57033 2.72375 0
M  V30 134 N 11.8248 0.280983 1.55075 0
M  V30 135 C 12.7718 -0.603937 2.22758 0
M  V30 136 C 13.7418 -1.1452 1.20309 0
M  V30 137 O 14.9268 -1.19343 1.48869 0
M  V30 138 C 12.0668 -1.77947 2.95684 0
M  V30 139 C 11.1798 -1.2715 4.12864 0
M  V30 140 C 10.3148 -2.4093 4.7342 0
M  V30 141 C 9.3538 -1.87165 5.82783 0
M  V30 142 N 8.4908 -2.94441 6.37377 0
M  V30 143 H 13.3308 -0.020124 2.97993 0
M  V30 144 H 10.8678 0.00183425 1.471 0
M  V30 145 H 12.8258 -2.47055 3.36184 0
M  V30 146 H 11.4558 -2.33522 2.22861 0
M  V30 147 H 10.5078 -0.473331 3.77444 0
M  V30 148 H 11.8198 -0.837751 4.91715 0
M  V30 149 H 10.9738 -3.18021 5.1667 0
M  V30 150 H 9.7128 -2.87623 3.93859 0
M  V30 151 H 8.7178 -1.08556 5.38976 0
M  V30 152 H 9.9428 -1.41401 6.64216 0
M  V30 153 H 7.8888 -3.40505 5.60707 0
M  V30 154 H 7.8058 -2.55501 7.11516 0
M  V30 155 H 9.0738 -3.71489 6.85285 0
M  V30 156 N 13.3029 -1.57598 0.00835791 0
M  V30 157 C 14.5329 -1.94931 -0.684496 0
M  V30 158 C 14.9409 -0.882233 -1.67372 0
M  V30 159 O 14.2839 0.146621 -1.83114 0
M  V30 160 C 14.3459 -3.283 -1.4649 0
M  V30 161 C 14.0099 -4.52548 -0.63634 0
M  V30 162 C 15.0069 -5.19839 0.0795586 0
M  V30 163 C 12.6919 -4.98942 -0.579849 0
M  V30 164 C 14.6859 -6.3183 0.840843 0
M  V30 165 C 12.3729 -6.10819 0.185155 0
M  V30 166 C 13.3709 -6.77121 0.894227 0
M  V30 167 O 13.0589 -7.86853 1.64673 0
M  V30 168 H 12.7909 -0.647249 -0.19505 0
M  V30 169 H 15.3449 -2.05318 0.0581272 0
M  V30 170 H 13.5749 -3.14345 -2.2522 0
M  V30 171 H 15.2639 -3.50685 -2.04389 0
M  V30 172 H 16.0299 -4.84979 0.0451202 0
M  V30 173 H 11.9089 -4.47155 -1.1213 0
M  V30 174 H 15.4529 -6.83513 1.39483 0
M  V30 175 H 11.3499 -6.4512 0.221384 0
M  V30 176 H 12.1179 -8.03412 1.56432 0
M  V30 177 N 14.781 0.264519 -1.55364 0
M  V30 178 C 15.728 1.32717 -1.88825 0
M  V30 179 C 16.698 1.48675 -0.740605 0
M  V30 180 O 17.883 1.62945 -0.992657 0
M  V30 181 C 15.023 2.68089 -2.17307 0
M  V30 182 C 14.136 2.60284 -3.44785 0
M  V30 183 C 13.271 3.87892 -3.62924 0
M  V30 184 C 12.31 3.74631 -4.84064 0
M  V30 185 N 11.447 4.94092 -4.98816 0
M  V30 186 H 16.287 1.03481 -2.79456 0
M  V30 187 H 13.824 0.499757 -1.3835 0
M  V30 188 H 15.782 3.46864 -2.31821 0
M  V30 189 H 14.412 2.95509 -1.299 0
M  V30 190 H 13.464 1.73173 -3.38697 0
M  V30 191 H 14.776 2.46388 -4.33698 0
M  V30 192 H 13.93 4.75109 -3.77302 0
M  V30 193 H 12.669 4.04664 -2.7221 0
M  V30 194 H 11.674 2.85797 -4.69681 0
M  V30 195 H 12.899 3.5937 -5.76221 0
M  V30 196 H 10.845 5.11259 -4.11036 0
M  V30 197 H 10.762 4.8276 -5.81789 0
M  V30 198 H 12.03 5.82857 -5.17588 0
M  V30 199 N 16.2591 1.48442 0.529413 0
M  V30 200 C 17.5361 1.46978 1.29062 0
M  V30 201 C 17.9161 0.181769 2.10316 0
M  V30 202 O 17.2641 -0.836481 2.12639 0
M  V30 203 C 17.4741 2.7321 2.17157 0
M  V30 204 C 18.8221 3.21562 2.77278 0
M  V30 205 O 19.8461 2.74131 2.27444 0
M  V30 206 O 18.7051 4.04094 3.67927 0
M  V30 207 H 15.7991 0.587003 0.582543 0
M  V30 208 H 18.3451 1.60676 0.546021 0
M  V30 209 H 17.1171 3.58465 1.56903 0
M  V30 210 H 16.7401 2.62235 2.98862 0
M  V30 211 N 17.7372 -0.778329 1.37039 0
M  V30 212 C 18.9852 -1.53361 1.31623 0
M  V30 213 C 19.3062 -1.94739 -0.100831 0
M  V30 214 O 18.5762 -1.65797 -1.04347 0
M  V30 215 H 17.1562 -0.568794 0.484234 0
M  V30 216 H 19.8182 -0.926742 1.71457 0
M  V30 217 H 18.9142 -2.43606 1.95096 0
M  V30 218 N 19.2153 -1.21501 -1.00376 0
M  V30 219 C 20.4923 -0.941745 -1.71437 0
M  V30 220 C 20.8723 0.546114 -2.03914 0
M  V30 221 O 20.2203 1.51128 -1.71384 0
M  V30 222 C 20.4303 -1.82812 -2.97289 0
M  V30 223 C 21.7783 -2.07771 -3.70292 0
M  V30 224 O 22.8023 -1.80171 -3.07273 0
M  V30 225 O 21.6613 -2.54456 -4.83647 0
M  V30 226 H 18.7553 -0.353243 -0.747762 0
M  V30 227 H 21.3013 -1.32436 -1.06108 0
M  V30 228 H 20.0733 -2.83501 -2.69709 0
M  V30 229 H 19.6963 -1.4464 -3.70358 0
M  V30 230 N 20.6934 1.19889 -1.02296 0
M  V30 231 C 21.6254 2.22334 -0.556787 0
M  V30 232 C 22.6384 1.58674 0.364199 0
M  V30 233 O 23.8274 1.77768 0.161533 0
M  V30 234 C 20.9274 3.38257 0.208694 0
M  V30 235 C 20.1004 4.31504 -0.71577 0
M  V30 236 C 19.1594 5.262 0.00325597 0
M  V30 237 O 18.1854 5.65798 -0.621357 0
M  V30 238 N 19.3874 5.66303 1.27599 0
M  V30 239 H 22.1524 2.62957 -1.43784 0
M  V30 240 H 19.7134 1.34495 -0.901261 0
M  V30 241 H 21.7054 3.98616 0.699111 0
M  V30 242 H 20.2754 2.96472 0.991102 0
M  V30 243 H 19.4954 3.69016 -1.38638 0
M  V30 244 H 20.7834 4.9072 -1.34428 0
M  V30 245 H 20.1814 5.36155 1.80429 0
M  V30 246 H 18.7384 6.28942 1.71102 0
M  V30 247 N 22.1715 0.800033 1.35784 0
M  V30 248 C 23.4115 0.382891 2.00782 0
M  V30 249 C 23.7755 -1.02891 1.62103 0
M  V30 250 O 24.9765 -1.54771 2.19771 0
M  V30 251 C 23.2475 0.553299 3.53091 0
M  V30 252 S 24.8065 0.225608 4.3822 0
M  V30 253 H 21.6245 0.145737 0.695904 0
M  V30 254 H 24.2265 1.04085 1.65489 0
M  V30 255 H 22.9305 1.58091 3.78729 0
M  V30 256 H 22.4615 -0.120214 3.93216 0
M  V30 257 H 24.4765 -0.969074 4.86645 0
M  V30 258 N 23.6496 -1.47581 0.552962 0
M  V30 259 C 24.5596 -2.33743 -0.200353 0
M  V30 260 C 25.5756 -1.47928 -0.916151 0
M  V30 261 O 26.7516 -1.80865 -0.885993 0
M  V30 262 C 23.8166 -3.24536 -1.21973 0
M  V30 263 C 22.8776 -4.26238 -0.511819 0
M  V30 264 C 22.1106 -5.12693 -1.48263 0
M  V30 265 O 22.3336 -5.01525 -2.71714 0
M  V30 266 O 21.2676 -5.93375 -1.00945 0
M  V30 267 H 25.0936 -2.9945 0.506304 0
M  V30 268 H 22.6786 -1.46071 0.313622 0
M  V30 269 H 24.5606 -3.80631 -1.80827 0
M  V30 270 H 23.2356 -2.61462 -1.90839 0
M  V30 271 H 22.1426 -3.73914 0.117799 0
M  V30 272 H 23.4756 -4.92014 0.135308 0
M  V30 273 N 25.1277 -0.289203 -1.54924 0
M  V30 274 C 26.3557 0.326463 -2.04308 0
M  V30 275 C 26.7707 1.48413 -1.16701 0
M  V30 276 O 26.1277 1.81507 -0.190087 0
M  V30 277 C 26.1787 0.794014 -3.52672 0
M  V30 278 O 25.8997 -0.317564 -4.36948 0
M  V30 279 C 27.4007 1.47605 -4.18004 0
M  V30 280 H 24.6207 0.0726272 -0.667058 0
M  V30 281 H 27.1647 -0.425401 -2.00026 0
M  V30 282 H 25.3197 1.49593 -3.57352 0
M  V30 283 H 25.7337 0.0443186 -5.24481 0
M  V30 284 H 27.2077 1.75447 -5.23376 0
M  V30 285 H 27.6847 2.41224 -3.67025 0
M  V30 286 H 28.2907 0.81762 -4.17367 0
M  V30 287 N 26.6058 1.57591 -0.0167156 0
M  V30 288 C 27.8308 1.9598 0.67872 0
M  V30 289 C 28.2558 0.892546 1.65575 0
M  V30 290 O 27.6138 -0.147772 1.80697 0
M  V30 291 C 27.6618 3.33468 1.37227 0
M  V30 292 O 26.7658 3.28954 2.48722 0
M  V30 293 H 26.1068 0.639339 0.17928 0
M  V30 294 H 28.6368 2.04463 -0.0748802 0
M  V30 295 H 28.6468 3.69417 1.7319 0
M  V30 296 H 27.3218 4.10694 0.656007 0
M  V30 297 H 25.8988 3.04705 2.14963 0
M  V30 298 N 28.0839 -0.256276 1.55502 0
M  V30 299 C 29.4949 -0.826068 1.67431 0
M  V30 300 C 29.8459 -1.86396 0.612446 0
M  V30 301 O 28.9709 -2.15031 -0.243025 0
M  V30 302 C 29.5659 -1.50512 3.03532 0
M  V30 303 C 28.1249 -2.02273 3.17431 0
M  V30 304 C 27.2719 -0.870548 2.63281 0
M  V30 305 H 30.2229 -0.0322728 1.58667 0
M  V30 306 H 30.2439 -2.37279 2.97454 0
M  V30 307 H 29.7559 -0.749484 3.80794 0
M  V30 308 H 27.8569 -2.80746 2.44974 0
M  V30 309 H 27.9699 -2.22655 4.24219 0
M  V30 310 H 26.3339 -1.26851 2.20864 0
M  V30 311 H 27.1169 -0.128149 3.43061 0
M  V30 312 N 29.562 -1.4872 -0.521534 0
M  V30 313 C 30.802 -1.58771 -1.28729 0
M  V30 314 C 31.166 -0.259394 -1.9024 0
M  V30 315 O 32.367 -0.234942 -2.67771 0
M  V30 316 C 30.638 -2.70039 -2.34124 0
M  V30 317 S 32.197 -2.9991 -3.20312 0
M  V30 318 H 29.015 -0.560251 -0.437767 0
M  V30 319 H 31.617 -1.86283 -0.593188 0
M  V30 320 H 30.321 -3.65101 -1.87429 0
M  V30 321 H 29.852 -2.44455 -3.08229 0
M  V30 322 H 31.867 -2.39855 -4.34378 0
M  V30 323 N 31.0401 0.771051 -1.3745 0
M  V30 324 C 31.9721 1.89352 -1.29146 0
M  V30 325 C 32.9851 1.61477 -0.207124 0
M  V30 326 O 34.1741 1.72382 -0.463324 0
M  V30 327 C 31.2741 3.24596 -0.974195 0
M  V30 328 C 30.4471 3.80111 -2.16413 0
M  V30 329 C 29.5061 4.93832 -1.81703 0
M  V30 330 O 28.5321 5.09382 -2.54006 0
M  V30 331 N 29.7341 5.75483 -0.761573 0
M  V30 332 H 32.4991 1.96991 -2.25864 0
M  V30 333 H 30.0601 0.950191 -1.31084 0
M  V30 334 H 32.0521 3.98193 -0.722828 0
M  V30 335 H 30.6221 3.12454 -0.0955527 0
M  V30 336 H 29.8421 2.98284 -2.57721 0
M  V30 337 H 31.1301 4.13932 -2.95867 0
M  V30 338 H 30.5281 5.65469 -0.161609 0
M  V30 339 H 29.0851 6.49302 -0.570064 0
M  V30 340 N 32.5182 1.22032 0.997298 0
M  V30 341 C 33.4662 0.983634 2.10778 0
M  V30 342 C 34.4602 -0.0717564 1.69248 0
M  V30 343 O 35.6662 0.080304 1.79821 0
M  V30 344 H 32.0412 0.300877 0.689186 0
M  V30 345 H 34.0122 1.92606 2.27916 0
M  V30 346 C 32.7612 0.57326 3.42942 0
M  V30 347 H 32.0842 1.37702 3.75338 0
M  V30 348 H 33.5242 0.447031 4.21637 0
M  V30 349 C 31.9832 -0.7167 3.29188 0
M  V30 350 O 32.5132 -1.77027 3.60589 0
M  V30 351 N 30.7192 -0.686167 2.82383 0
M  V30 352 H 30.2662 0.171507 2.57028 0
M  V30 353 H 30.2242 -1.54955 2.73562 0
M  V30 354 N 33.9963 -1.19345 1.0293 0
M  V30 355 C 34.9283 -2.22036 0.56857 0
M  V30 356 C 35.9413 -1.58865 -0.355779 0
M  V30 357 O 37.1303 -1.77851 -0.152103 0
M  V30 358 C 34.2303 -3.38363 -0.190752 0
M  V30 359 C 33.4033 -4.31118 0.738643 0
M  V30 360 C 32.4623 -5.26194 0.0246497 0
M  V30 361 O 31.4883 -5.65461 0.651354 0
M  V30 362 N 32.6903 -5.66971 -1.24594 0
M  V30 363 H 35.4553 -2.6219 1.45177 0
M  V30 364 H 33.0163 -1.34015 0.908381 0
M  V30 365 H 35.0083 -3.98981 -0.677961 0
M  V30 366 H 33.5783 -2.96994 -0.975366 0
M  V30 367 H 32.7983 -3.68276 1.40593 0
M  V30 368 H 34.0863 -4.90001 1.37029 0
M  V30 369 H 33.4843 -5.37104 -1.77583 0
M  V30 370 H 32.0413 -6.2984 -1.67764 0
M  V30 371 N 35.4744 -0.807222 -1.35358 0
M  V30 372 C 36.7224 -0.387122 -1.98358 0
M  V30 373 C 37.0434 1.04942 -1.64354 0
M  V30 374 O 36.3134 1.72615 -0.926339 0
M  V30 375 H 34.8934 -0.140154 -0.733734 0
M  V30 376 H 37.5554 -1.0332 -1.6526 0
M  V30 377 H 36.6514 -0.493352 -3.08176 0
M  V30 378 N 36.9525 1.47285 -0.560781 0
M  V30 379 C 37.8995 2.30058 0.18491 0
M  V30 380 C 38.8695 1.39281 0.904986 0
M  V30 381 O 40.0545 1.68241 0.899979 0
M  V30 382 C 37.1945 3.23317 1.20666 0
M  V30 383 C 36.3075 4.29186 0.492285 0
M  V30 384 C 35.4425 5.09592 1.49964 0
M  V30 385 C 34.4815 6.07232 0.770439 0
M  V30 386 N 33.6185 6.80584 1.72479 0
M  V30 387 H 38.4585 2.93302 -0.527048 0
M  V30 388 H 35.9955 1.44568 -0.271738 0
M  V30 389 H 37.9535 3.75811 1.81168 0
M  V30 390 H 36.5835 2.61929 1.88661 0
M  V30 391 H 35.6355 3.7972 -0.227333 0
M  V30 392 H 36.9475 4.98738 -0.0787929 0
M  V30 393 H 36.1015 5.66254 2.17809 0
M  V30 394 H 34.8405 4.3995 2.10464 0
M  V30 395 H 33.8455 5.49745 0.0780846 0
M  V30 396 H 35.0705 6.78884 0.171134 0
M  V30 397 H 33.0165 6.1367 2.3183 0
M  V30 398 H 32.9335 7.46319 1.20596 0
M  V30 399 H 34.2015 7.41818 2.39428 0
M  V30 400 N 38.4306 0.297415 1.54768 0
M  V30 401 C 39.6706 -0.313829 2.01976 0
M  V30 402 C 40.0346 -1.51366 1.1812 0
M  V30 403 O 41.2356 -2.19603 1.5501 0
M  V30 404 C 39.5066 -0.664964 3.51159 0
M  V30 405 S 41.0656 -1.25958 4.20333 0
M  V30 406 H 37.8836 -0.0965014 0.704421 0
M  V30 407 H 40.4856 0.424451 1.90837 0
M  V30 408 H 39.1896 0.21681 4.09827 0
M  V30 409 H 38.7206 -1.43413 3.66328 0
M  V30 410 H 40.7356 -2.54751 4.25813 0
M  V30 411 N 39.9087 -1.5758 0.0250728 0
M  V30 412 C 40.8557 -2.09973 -0.958129 0
M  V30 413 C 41.8257 -1.00085 -1.3256 0
M  V30 414 O 43.0107 -1.27481 -1.41962 0
M  V30 415 C 40.1507 -2.62812 -2.2366 0
M  V30 416 C 39.2637 -3.86693 -1.92594 0
M  V30 417 C 38.3987 -4.27941 -3.14707 0
M  V30 418 C 37.4377 -5.44591 -2.79442 0
M  V30 419 N 36.5747 -5.81014 -3.94167 0
M  V30 420 H 41.4147 -2.937 -0.504428 0
M  V30 421 H 38.9517 -1.45172 -0.237392 0
M  V30 422 H 40.9097 -2.91536 -2.98434 0
M  V30 423 H 39.5397 -1.81922 -2.66654 0
M  V30 424 H 38.5917 -3.64723 -1.0808 0
M  V30 425 H 39.9037 -4.71547 -1.62619 0
M  V30 426 H 39.0577 -4.58079 -3.97804 0
M  V30 427 H 37.7967 -3.41845 -3.4784 0
M  V30 428 H 36.8017 -5.1415 -1.94755 0
M  V30 429 H 38.0267 -6.32382 -2.47528 0
M  V30 430 H 35.9727 -4.97874 -4.2715 0
M  V30 431 H 35.8897 -6.60498 -3.67801 0
M  V30 432 H 37.1577 -6.15756 -4.7798 0
M  V30 433 N 41.3868 0.248026 -1.55636 0
M  V30 434 C 42.6638 0.998988 -1.68165 0
M  V30 435 C 43.0438 2.03409 -0.564621 0
M  V30 436 O 42.3918 2.24378 0.432076 0
M  V30 437 C 42.6018 1.63334 -3.0842 0
M  V30 438 C 43.9498 2.13562 -3.66983 0
M  V30 439 O 44.9738 1.73277 -3.11213 0
M  V30 440 O 43.8328 2.87526 -4.64749 0
M  V30 441 H 40.9268 0.464933 -0.683935 0
M  V30 442 H 43.4728 0.241902 -1.67967 0
M  V30 443 H 42.2448 0.884583 -3.8117 0
M  V30 444 H 41.8678 2.45666 -3.12624 0
M  V30 445 N 42.8649 1.48995 0.513639 0
M  V30 446 C 44.1129 1.57531 1.26604 0
M  V30 447 C 44.4339 0.258236 1.93283 0
M  V30 448 O 43.7039 -0.721502 1.8213 0
M  V30 449 H 42.2839 0.580387 0.470276 0
M  V30 450 H 44.9459 1.85552 0.596373 0
M  V30 451 H 44.0419 2.36486 2.03669 0
M  V30 452 N 44.343 -0.763751 1.37857 0
M  V30 453 C 45.273 -1.89103 1.36975 0
M  V30 454 C 46.254 -1.68439 0.237152 0
M  V30 455 O 47.439 -1.8918 0.438713 0
M  V30 456 C 44.569 -3.26496 1.18395 0
M  V30 457 C 43.523 -3.61741 2.28751 0
M  V30 458 C 42.849 -4.97762 1.95286 0
M  V30 459 C 44.149 -3.67665 3.70972 0
M  V30 460 H 45.843 -1.90099 2.31307 0
M  V30 461 H 43.389 -0.91319 1.11341 0
M  V30 462 H 45.342 -4.05003 1.16406 0
M  V30 463 H 44.066 -3.25955 0.205215 0
M  V30 464 H 42.725 -2.85547 2.29909 0
M  V30 465 H 42.373 -4.93769 0.959221 0
M  V30 466 H 42.073 -5.22313 2.69189 0
M  V30 467 H 43.597 -5.7866 1.94898 0
M  V30 468 H 45.011 -4.36307 3.719 0
M  V30 469 H 43.408 -4.03718 4.43995 0
M  V30 470 H 44.478 -2.68134 4.0402 0
M  V30 471 N 45.8211 -1.22559 -0.990812 0
M  V30 472 C 47.0691 -1.04933 -1.72724 0
M  V30 473 C 47.3901 0.416158 -1.90508 0
M  V30 474 O 46.6601 1.29918 -1.46622 0
M  V30 475 H 45.2401 -0.385296 -0.639965 0
M  V30 476 H 47.9021 -1.54105 -1.19322 0
M  V30 477 H 46.9981 -1.52886 -2.72089 0
M  V30 478 N 47.2992 1.18797 -1.03562 0
M  V30 479 C 48.2092 2.25913 -0.632505 0
M  V30 480 C 49.2252 1.70668 0.338882 0
M  V30 481 O 50.4012 2.00453 0.195076 0
M  V30 482 C 47.4662 3.467 0.00350942 0
M  V30 483 C 46.5272 4.17098 -1.01624 0
M  V30 484 C 45.7602 5.32119 -0.410478 0
M  V30 485 O 45.9832 5.64976 0.784725 0
M  V30 486 O 44.9172 5.9107 -1.13667 0
M  V30 487 H 48.7432 2.62648 -1.52478 0
M  V30 488 H 46.3282 1.25781 -0.806195 0
M  V30 489 H 48.2102 4.19878 0.35781 0
M  V30 490 H 46.8852 3.11798 0.869686 0
M  V30 491 H 45.7922 3.4601 -1.42224 0
M  V30 492 H 47.1252 4.55987 -1.85301 0
M  V30 493 N 48.7773 0.814389 1.34928 0
M  V30 494 C 50.0073 0.41054 2.0248 0
M  V30 495 C 50.4153 -0.985625 1.61499 0
M  V30 496 O 49.7583 -1.64781 0.811976 0
M  V30 497 C 49.8203 0.423384 3.56998 0
M  V30 498 C 49.4843 1.77141 4.21272 0
M  V30 499 C 50.4813 2.73093 4.42398 0
M  V30 500 C 48.1663 2.05755 4.58225 0
M  V30 501 C 50.1603 3.95838 4.9959 0
M  V30 502 C 47.8473 3.28762 5.1513 0
M  V30 503 C 48.8453 4.23621 5.35755 0
M  V30 504 O 48.5333 5.44456 5.91458 0
M  V30 505 H 48.2653 0.163997 0.655806 0
M  V30 506 H 50.8193 1.10155 1.73364 0
M  V30 507 H 49.0493 -0.324276 3.85338 0
M  V30 508 H 50.7383 0.0407683 4.0588 0
M  V30 509 H 51.5043 2.5228 4.14222 0
M  V30 510 H 47.3833 1.32727 4.4148 0
M  V30 511 H 50.9273 4.69891 5.15605 0
M  V30 512 H 46.8243 3.49443 5.42734 0
M  V30 513 H 47.5923 5.4586 6.09901 0
M  V30 514 N 50.2554 -1.46986 0.568584 0
M  V30 515 C 51.4834 -2.0683 0.0539956 0
M  V30 516 C 51.8984 -1.41953 -1.24478 0
M  V30 517 O 51.2554 -0.519933 -1.74937 0
M  V30 518 C 51.3064 -3.61254 -0.133362 0
M  V30 519 O 51.0274 -4.237 1.11399 0
M  V30 520 C 52.5284 -4.37992 -0.683927 0
M  V30 521 H 49.7484 -0.669058 0.0510141 0
M  V30 522 H 52.2924 -1.88824 0.785234 0
M  V30 523 H 50.4474 -3.78735 -0.81477 0
M  V30 524 H 50.8614 -5.16388 0.91888 0
M  V30 525 H 52.3354 -5.46684 -0.764263 0
M  V30 526 H 52.8124 -4.05058 -1.69778 0
M  V30 527 H 53.4184 -4.25283 -0.0378494 0
M  V30 528 N 51.7335 -0.305618 -1.54608 0
M  V30 529 C 52.9735 0.303114 -2.0214 0
M  V30 530 C 53.3375 1.50737 -1.18921 0
M  V30 531 O 54.5385 2.18778 -1.56172 0
M  V30 532 C 52.8095 0.646332 -3.51507 0
M  V30 533 S 54.3685 1.23727 -4.20995 0
M  V30 534 H 51.1865 0.0927643 -0.704923 0
M  V30 535 H 53.7885 -0.434566 -1.90609 0
M  V30 536 H 52.4925 -0.238541 -4.09706 0
M  V30 537 H 52.0235 1.41468 -3.67084 0
M  V30 538 H 54.0385 2.52489 -4.27158 0
M  V30 539 N 53.2116 1.57565 -0.0334293 0
M  V30 540 C 54.4396 1.9628 0.654347 0
M  V30 541 C 54.8546 0.910138 1.65414 0
M  V30 542 O 54.2116 -0.107595 1.82183 0
M  V30 543 C 54.2626 3.35067 1.35693 0
M  V30 544 O 53.9836 4.36296 0.397191 0
M  V30 545 C 55.4846 3.88439 2.13613 0
M  V30 546 H 52.7046 0.646369 0.180132 0
M  V30 547 H 55.2486 2.04282 -0.0944721 0
M  V30 548 H 53.4036 3.2827 2.05712 0
M  V30 549 H 53.8176 5.1678 0.896597 0
M  V30 550 H 55.2916 4.8788 2.58219 0
M  V30 551 H 55.7686 3.22914 2.97696 0
M  V30 552 H 56.3746 3.98516 1.48543 0
M  V30 553 N 54.6897 -0.239769 1.55765 0
M  V30 554 C 55.9297 -0.974076 1.79697 0
M  V30 555 C 56.2937 -1.82249 0.604088 0
M  V30 556 O 57.4947 -2.58913 0.722324 0
M  V30 557 C 55.7657 -1.80595 3.08416 0
M  V30 558 S 57.3247 -2.59838 3.53596 0
M  V30 559 H 54.1427 -0.327524 0.63107 0
M  V30 560 H 56.7447 -0.241277 1.94005 0
M  V30 561 H 55.4487 -1.17249 3.93295 0
M  V30 562 H 54.9797 -2.58137 2.96865 0
M  V30 563 H 56.9947 -3.82987 3.15492 0
M  V30 564 N 56.1678 -1.49265 -0.50573 0
M  V30 565 C 57.0978 -1.68495 -1.61653 0
M  V30 566 C 58.0788 -0.53366 -1.61512 0
M  V30 567 O 59.2638 -0.76897 -1.78327 0
M  V30 568 C 56.3938 -1.74709 -3.00157 0
M  V30 569 C 55.3478 -2.89581 -3.15162 0
M  V30 570 C 54.6738 -2.80903 -4.5497 0
M  V30 571 C 55.9738 -4.30578 -2.95634 0
M  V30 572 H 57.6678 -2.61493 -1.45814 0
M  V30 573 H 55.2138 -1.25838 -0.70005 0
M  V30 574 H 57.1668 -1.86748 -3.77761 0
M  V30 575 H 55.8908 -0.783067 -3.17074 0
M  V30 576 H 54.5498 -2.77136 -2.39982 0
M  V30 577 H 54.1978 -1.82419 -4.68756 0
M  V30 578 H 53.8978 -3.57999 -4.65951 0
M  V30 579 H 55.4218 -2.94944 -5.34641 0
M  V30 580 H 56.8358 -4.4373 -3.63011 0
M  V30 581 H 55.2328 -5.0886 -3.18091 0
M  V30 582 H 56.3028 -4.45352 -1.91806 0
M  V30 583 N 57.6459 0.756429 -1.3826 0
M  V30 584 C 58.5559 1.9009 -1.37488 0
M  V30 585 C 59.5719 1.71855 -0.272366 0
M  V30 586 O 60.7479 1.94827 -0.510318 0
M  V30 587 C 57.8129 3.25421 -1.19592 0
M  V30 588 C 56.8739 3.56202 -2.39622 0
M  V30 589 C 56.1069 4.85075 -2.2257 0
M  V30 590 O 56.3299 5.57246 -1.21793 0
M  V30 591 O 55.2639 5.15269 -3.11098 0
M  V30 592 H 59.0899 1.93695 -2.33914 0
M  V30 593 H 56.6749 0.901313 -1.1915 0
M  V30 594 H 58.5569 4.06337 -1.11661 0
M  V30 595 H 57.2319 3.22634 -0.262486 0
M  V30 596 H 56.1389 2.75458 -2.53128 0
M  V30 597 H 57.4719 3.63747 -3.31586 0
M  V30 598 N 59.124 1.23083 0.984299 0
M  V30 599 C 60.372 1.05848 1.72165 0
M  V30 600 C 60.693 -0.406049 1.90726 0
M  V30 601 O 59.963 -1.29139 1.47309 0
M  V30 602 H 58.543 0.388685 0.637913 0
M  V30 603 H 61.205 1.54736 1.18503 0
M  V30 604 H 60.301 1.54327 2.71274 0
M  V30 605 N 60.6021 -1.18246 1.0419 0
M  V30 606 C 61.8491 -1.88257 0.746017 0
M  V30 607 C 62.1771 -1.80429 -0.726331 0
M  V30 608 O 61.4321 -1.2 -1.54591 0
M  V30 609 C 61.7311 -3.38082 1.15911 0
M  V30 610 C 61.3971 -3.66114 2.63195 0
M  V30 611 C 60.0591 -3.73474 3.03432 0
M  V30 612 C 62.4111 -3.78398 3.5842 0
M  V30 613 C 59.7391 -3.90599 4.37778 0
M  V30 614 C 62.0911 -3.97039 4.92487 0
M  V30 615 C 60.7551 -4.02635 5.32392 0
M  V30 616 H 60.0251 -0.688883 0.272987 0
M  V30 617 H 62.6721 -1.3995 1.30715 0
M  V30 618 H 60.9771 -3.88377 0.516806 0
M  V30 619 H 62.6741 -3.90596 0.907516 0
M  V30 620 H 59.2641 -3.61003 2.3103 0
M  V30 621 H 63.4481 -3.72042 3.28479 0
M  V30 622 H 58.7041 -3.93175 4.68213 0
M  V30 623 H 62.8781 -4.05486 5.66175 0
M  V30 624 H 60.5051 -4.15657 6.36501 0
M  V30 625 N 62.0802 -0.821533 -1.34494 0
M  V30 626 C 62.9902 -0.244355 -2.33324 0
M  V30 627 C 64.0062 0.620527 -1.62559 0
M  V30 628 O 65.1822 0.528754 -1.94335 0
M  V30 629 C 62.2472 0.585368 -3.41723 0
M  V30 630 C 61.3082 -0.301752 -4.28238 0
M  V30 631 C 60.5412 0.488466 -5.3146 0
M  V30 632 O 60.7642 1.72186 -5.4379 0
M  V30 633 O 59.6982 -0.12848 -6.01763 0
M  V30 634 H 63.5242 -1.06231 -2.84515 0
M  V30 635 H 61.1092 -0.583645 -1.37528 0
M  V30 636 H 62.9912 1.05747 -4.07916 0
M  V30 637 H 61.6662 1.38068 -2.92778 0
M  V30 638 H 60.5732 -0.821315 -3.64973 0
M  V30 639 H 61.9062 -1.06138 -4.8062 0
M  V30 640 N 63.5583 1.46682 -0.576371 0
M  V30 641 C 64.8063 2.02013 -0.0594163 0
M  V30 642 C 65.1273 1.45101 1.30271 0
M  V30 643 O 64.3973 0.633317 1.8538 0
M  V30 644 H 62.9773 0.746759 -0.0189745 0
M  V30 645 H 65.6393 1.79862 -0.750717 0
M  V30 646 H 64.7353 3.12097 0.014345 0
M  V30 647 N 65.0364 0.313813 1.54444 0
M  V30 648 C 65.9834 -0.55655 2.23989 0
M  V30 649 C 66.9534 -1.11943 1.22711 0
M  V30 650 O 68.1384 -1.16158 1.51367 0
M  V30 651 C 65.2784 -1.71635 2.99392 0
M  V30 652 C 64.3914 -1.18364 4.15468 0
M  V30 653 C 63.5264 -2.30834 4.78424 0
M  V30 654 C 62.5654 -1.74762 5.86622 0
M  V30 655 N 61.7024 -2.80855 6.43479 0
M  V30 656 H 66.5424 0.0430893 2.97969 0
M  V30 657 H 64.0794 0.0330359 1.47063 0
M  V30 658 H 66.0374 -2.39868 3.41349 0
M  V30 659 H 64.6674 -2.28742 2.27765 0
M  V30 660 H 63.7194 -0.393163 3.78363 0
M  V30 661 H 65.0314 -0.733262 4.93381 0
M  V30 662 H 64.1854 -3.0699 5.23299 0
M  V30 663 H 62.9244 -2.79204 3.99871 0
M  V30 664 H 61.9294 -0.970995 5.41158 0
M  V30 665 H 63.1544 -1.2728 6.67066 0
M  V30 666 H 61.1004 -3.28535 5.67804 0
M  V30 667 H 61.0174 -2.40351 7.16776 0
M  V30 668 H 62.2854 -3.5687 6.93011 0
M  V30 669 N 66.5145 -1.57545 0.0417849 0
M  V30 670 C 67.4625 -2.12148 -0.953723 0
M  V30 671 C 68.4565 -1.05104 -1.32852 0
M  V30 672 O 69.6625 -1.23524 -1.30927 0
M  V30 673 H 66.0375 -0.677957 -0.325389 0
M  V30 674 H 68.0085 -2.94707 -0.467991 0
M  V30 675 C 66.7575 -2.6739 -2.22257 0
M  V30 676 H 66.0805 -3.49413 -1.94295 0
M  V30 677 H 67.5205 -3.09227 -2.90094 0
M  V30 678 C 65.9795 -1.60723 -2.96091 0
M  V30 679 O 66.5095 -1.01449 -3.88679 0
M  V30 680 N 64.7155 -1.32466 -2.58652 0
M  V30 681 H 64.2625 -1.80856 -1.83437 0
M  V30 682 H 64.2205 -0.61325 -3.08361 0
M  V30 683 N 67.9926 0.231505 -1.5589 0
M  V30 684 C 69.2326 0.964533 -1.80211 0
M  V30 685 C 69.5966 1.81926 -0.613744 0
M  V30 686 O 70.7976 2.58526 -0.736045 0
M  V30 687 C 69.0686 1.78956 -3.09369 0
M  V30 688 S 70.6276 2.57959 -3.54969 0
M  V30 689 H 67.4456 0.324173 -0.632798 0
M  V30 690 H 70.0476 0.230985 -1.94131 0
M  V30 691 H 68.7516 1.15161 -3.93911 0
M  V30 692 H 68.2826 2.56559 -2.9823 0
M  V30 693 H 70.2976 3.81309 -3.17519 0
M  V30 694 N 69.4707 1.49531 0.497807 0
M  V30 695 C 70.3807 1.69176 1.62532 0
M  V30 696 C 71.3967 0.5744 1.64246 0
M  V30 697 O 72.5727 0.849497 1.82608 0
M  V30 698 C 69.6377 1.75695 2.98885 0
M  V30 699 C 68.6987 2.9929 3.07773 0
M  V30 700 C 67.9317 3.05488 4.37622 0
M  V30 701 O 68.1547 2.19192 5.26603 0
M  V30 702 O 67.0887 3.9798 4.51548 0
M  V30 703 H 70.9147 2.647 1.48887 0
M  V30 704 H 68.4997 1.3331 0.674441 0
M  V30 705 H 70.3817 1.82317 3.79919 0
M  V30 706 H 69.0567 0.8335 3.12785 0
M  V30 707 H 67.9637 2.98183 2.25915 0
M  V30 708 H 69.2967 3.91125 2.98801 0
M  V30 709 N 70.9488 -0.749086 1.3866 0
M  V30 710 C 71.8788 -1.8764 1.38973 0
M  V30 711 C 72.8598 -1.68178 0.255004 0
M  V30 712 O 74.0448 -1.88704 0.458754 0
M  V30 713 C 71.1748 -3.25222 1.21851 0
M  V30 714 C 70.1288 -3.59295 2.32575 0
M  V30 715 C 69.4548 -4.95663 2.00555 0
M  V30 716 C 70.7548 -3.63709 3.7485 0
M  V30 717 H 72.4488 -1.87635 2.3331 0
M  V30 718 H 69.9948 -0.901329 1.12303 0
M  V30 719 H 71.9478 -4.03746 1.20695 0
M  V30 720 H 70.6718 -3.25719 0.239775 0
M  V30 721 H 69.3308 -2.83093 2.32925 0
M  V30 722 H 68.9788 -4.92724 1.01154 0
M  V30 723 H 68.6788 -5.19429 2.74714 0
M  V30 724 H 70.2028 -5.7656 2.01024 0
M  V30 725 H 71.6168 -4.32338 3.76506 0
M  V30 726 H 70.0138 -3.98986 4.48252 0
M  V30 727 H 71.0838 -2.63834 4.06841 0
M  V30 728 N 72.4269 -1.23603 -0.977757 0
M  V30 729 C 73.6739 -1.06971 -1.71941 0
M  V30 730 C 74.0019 0.393009 -1.90488 0
M  V30 731 O 73.2569 1.30719 -1.4564 0
M  V30 732 C 73.5559 -1.7433 -3.11999 0
M  V30 733 C 73.2219 -3.24252 -3.13323 0
M  V30 734 C 71.8839 -3.65156 -3.13392 0
M  V30 735 C 74.2359 -4.20141 -3.08433 0
M  V30 736 C 71.5639 -5.00403 -3.0629 0
M  V30 737 C 73.9159 -5.55384 -3.02873 0
M  V30 738 C 72.5799 -5.95647 -3.01265 0
M  V30 739 H 71.8499 -0.391433 -0.629175 0
M  V30 740 H 74.4969 -1.53572 -1.14403 0
M  V30 741 H 72.8019 -1.20096 -3.7294 0
M  V30 742 H 74.4989 -1.58936 -3.68158 0
M  V30 743 H 71.0889 -2.91692 -3.14029 0
M  V30 744 H 75.2729 -3.89547 -3.07517 0
M  V30 745 H 70.5289 -5.3081 -3.03399 0
M  V30 746 H 74.7029 -6.29398 -2.98046 0
M  V30 747 H 72.3299 -7.0041 -2.95516 0
M  V30 748 N 73.905 1.17692 -1.04816 0
M  V30 749 C 75.133 1.91786 -0.776254 0
M  V30 750 C 75.548 1.76604 0.667577 0
M  V30 751 O 74.905 1.10067 1.45573 0
M  V30 752 C 74.956 3.42967 -1.14263 0
M  V30 753 O 74.677 3.57678 -2.52978 0
M  V30 754 C 76.178 4.34144 -0.896311 0
M  V30 755 H 73.398 0.608624 -0.282519 0
M  V30 756 H 75.942 1.49268 -1.39783 0
M  V30 757 H 74.097 3.83245 -0.565874 0
M  V30 758 H 74.511 4.51319 -2.67229 0
M  V30 759 H 75.985 5.38744 -1.20244 0
M  V30 760 H 76.462 4.38876 0.168636 0
M  V30 761 H 77.068 3.99574 -1.45672 0
M  V30 762 N 75.3831 0.828654 1.34056 0
M  V30 763 C 76.7991 0.515135 1.51058 0
M  V30 764 C 76.9991 -0.959581 1.77184 0
M  V30 765 O 76.0551 -1.74382 1.82612 0
M  V30 766 C 77.3681 1.37963 2.67183 0
M  V30 767 C 78.9161 1.37735 2.81066 0
M  V30 768 C 79.3911 2.22645 4.00241 0
M  V30 769 N 80.8821 2.203 4.07458 0
M  V30 770 C 81.6171 2.82744 4.98842 0
M  V30 771 N 81.1131 3.54201 5.9541 0
M  V30 772 N 82.9061 2.72268 4.91759 0
M  V30 773 H 75.0571 1.78343 1.15358 0
M  V30 774 H 77.3201 0.760304 0.566252 0
M  V30 775 H 77.0261 2.42714 2.54525 0
M  V30 776 H 76.9001 1.0484 3.62338 0
M  V30 777 H 79.2871 0.337593 2.93163 0
M  V30 778 H 79.3681 1.74859 1.86703 0
M  V30 779 H 79.0121 3.26674 3.88905 0
M  V30 780 H 78.9421 1.82869 4.93829 0
M  V30 781 H 81.4331 1.68327 3.38341 0
M  V30 782 H 81.7461 3.9908 6.61782 0
M  V30 783 H 80.0911 3.58308 5.95517 0
M  V30 784 H 83.2821 2.16014 4.15278 0
M  V30 785 H 83.4551 3.21219 5.62781 0
M  V30 786 N 76.8612 -1.46375 0.584142 0
M  V30 787 C 77.8082 -2.30323 -0.148286 0
M  V30 788 C 78.7782 -1.40703 -0.882713 0
M  V30 789 O 79.9632 -1.69651 -0.873099 0
M  V30 790 C 77.1032 -3.25196 -1.15507 0
M  V30 791 C 76.2162 -4.29915 -0.423943 0
M  V30 792 C 75.3512 -5.11914 -1.41838 0
M  V30 793 C 74.3902 -6.08381 -0.673736 0
M  V30 794 N 73.5272 -6.83242 -1.6163 0
M  V30 795 H 78.3672 -2.92427 0.573644 0
M  V30 796 H 75.9042 -1.44118 0.294703 0
M  V30 797 H 77.8622 -3.78646 -1.75166 0
M  V30 798 H 76.4922 -2.64898 -1.8447 0
M  V30 799 H 75.5442 -3.7931 0.287714 0
M  V30 800 H 76.8562 -4.98549 0.158128 0
M  V30 801 H 76.0102 -5.69648 -2.08773 0
M  V30 802 H 74.7492 -4.43243 -2.03438 0
M  V30 803 H 73.7542 -5.49799 0.00938483 0
M  V30 804 H 74.9792 -6.79071 -0.0631082 0
M  V30 805 H 72.9252 -6.1728 -2.22038 0
M  V30 806 H 72.8422 -7.48144 -1.08707 0
M  V30 807 H 74.1102 -7.45534 -2.27596 0
M  V30 808 N 78.3393 -0.321999 -1.54275 0
M  V30 809 C 79.2693 0.537411 -2.27231 0
M  V30 810 C 80.2503 1.12064 -1.27968 0
M  V30 811 O 81.4353 1.14606 -1.56777 0
M  V30 812 C 78.5653 1.69919 -3.02894 0
M  V30 813 C 77.5193 1.24534 -4.09482 0
M  V30 814 C 76.8453 2.49394 -4.72977 0
M  V30 815 C 78.1453 0.361335 -5.21049 0
M  V30 816 H 79.8393 -0.0711406 -2.99315 0
M  V30 817 H 77.3853 -0.0356555 -1.43956 0
M  V30 818 H 79.3383 2.30668 -3.52662 0
M  V30 819 H 78.0623 2.33431 -2.28424 0
M  V30 820 H 76.7213 0.660782 -3.60596 0
M  V30 821 H 76.3693 3.11265 -3.95124 0
M  V30 822 H 76.0693 2.19718 -5.44975 0
M  V30 823 H 77.5933 3.10908 -5.25517 0
M  V30 824 H 79.0073 0.875072 -5.66582 0
M  V30 825 H 77.4043 0.157428 -5.99893 0
M  V30 826 H 78.4743 -0.60822 -4.8107 0
M  V30 827 N 79.8174 1.5752 -0.0501392 0
M  V30 828 C 81.0574 1.94521 0.627783 0
M  V30 829 C 81.4214 0.928265 1.68069 0
M  V30 830 O 82.6224 1.18517 2.41261 0
M  V30 831 C 80.8934 3.36319 1.20932 0
M  V30 832 S 82.4524 3.95272 1.90539 0
M  V30 833 H 79.2704 0.680456 0.206158 0
M  V30 834 H 81.8724 1.95139 -0.118829 0
M  V30 835 H 80.5764 4.08132 0.430865 0
M  V30 836 H 80.1074 3.39193 1.99277 0
M  V30 837 H 82.1224 3.80415 3.18589 0
M  V30 838 N 81.2955 -0.223234 1.56011 0
M  V30 839 C 82.5205 -0.968978 1.83373 0
M  V30 840 C 82.9455 -1.77227 0.630254 0
M  V30 841 O 82.3035 -1.76345 -0.420959 0
M  V30 842 C 82.3515 -1.86363 3.08709 0
M  V30 843 O 81.4555 -2.95873 2.87285 0
M  V30 844 H 80.7965 -0.274461 0.604622 0
M  V30 845 H 83.3265 -0.237056 2.03222 0
M  V30 846 H 83.3365 -2.27376 3.38768 0
M  V30 847 H 82.0115 -1.27319 3.95933 0
M  V30 848 H 80.5885 -2.58818 2.68454 0
M  V30 849 N 82.7736 -1.49793 -0.48987 0
M  V30 850 C 83.7036 -1.70201 -1.59856 0
M  V30 851 C 84.6846 -0.55076 -1.60937 0
M  V30 852 O 85.8696 -0.787841 -1.77501 0
M  V30 853 C 82.9996 -1.77882 -2.98287 0
M  V30 854 C 81.9536 -2.92907 -3.12073 0
M  V30 855 C 81.2796 -2.85712 -4.51965 0
M  V30 856 C 82.5796 -4.3369 -2.91051 0
M  V30 857 H 84.2736 -2.63025 -1.43032 0
M  V30 858 H 81.8196 -1.26574 -0.686664 0
M  V30 859 H 83.7726 -1.90744 -3.75759 0
M  V30 860 H 82.4966 -0.816653 -3.16225 0
M  V30 861 H 81.1556 -2.79665 -2.37029 0
M  V30 862 H 80.8036 -1.8738 -4.66795 0
M  V30 863 H 80.5036 -3.62921 -4.62128 0
M  V30 864 H 82.0276 -3.00598 -5.31482 0
M  V30 865 H 83.4416 -4.47555 -3.58284 0
M  V30 866 H 81.8386 -5.12205 -3.12675 0
M  V30 867 H 82.9086 -4.47362 -1.87071 0
M  V30 868 N 84.2517 0.741722 -1.39055 0
M  V30 869 C 85.5287 1.49252 -1.26425 0
M  V30 870 C 85.9087 2.10705 0.129144 0
M  V30 871 O 85.2567 1.98045 1.13976 0
M  V30 872 C 85.4667 2.54934 -2.38347 0
M  V30 873 C 86.8147 3.21506 -2.77343 0
M  V30 874 O 87.8387 2.65245 -2.37747 0
M  V30 875 O 86.6977 4.23294 -3.45665 0
M  V30 876 H 83.7917 0.662451 -0.495064 0
M  V30 877 H 86.3377 0.776121 -1.50912 0
M  V30 878 H 85.1097 2.07857 -3.31529 0
M  V30 879 H 84.7327 3.34141 -2.15489 0
M  V30 880 N 85.7298 1.2412 0.971189 0
M  V30 881 C 86.6778 1.02812 2.08644 0
M  V30 882 C 87.6718 -0.0358403 1.69362 0
M  V30 883 O 88.8778 0.118429 1.7961 0
M  V30 884 H 85.2528 0.315428 0.682649 0
M  V30 885 H 87.2238 1.97397 2.23779 0
M  V30 886 C 85.9728 0.645874 3.41649 0
M  V30 887 H 85.2958 1.45632 3.72332 0
M  V30 888 H 86.7358 0.536366 4.20594 0
M  V30 889 C 85.1948 -0.646713 3.30635 0
M  V30 890 O 85.7248 -1.69338 3.64263 0
M  V30 891 N 83.9308 -0.626115 2.83775 0
M  V30 892 H 83.4778 0.225988 2.56607 0
M  V30 893 H 83.4358 -1.49117 2.76788 0
M  V30 894 N 87.2079 -1.17134 1.05439 0
M  V30 895 C 88.4559 -1.87085 0.764429 0
M  V30 896 C 88.7769 -1.81584 -0.710787 0
M  V30 897 O 88.0469 -1.24349 -1.51374 0
M  V30 898 H 86.6269 -0.692627 0.279779 0
M  V30 899 H 89.2889 -1.42087 1.33406 0
M  V30 900 H 88.3849 -2.92759 1.0816 0
M  V30 901 N 88.686 -0.835752 -1.33615 0
M  V30 902 C 89.963 -0.352017 -1.92406 0
M  V30 903 C 90.343 1.16225 -1.76224 0
M  V30 904 O 89.691 1.97526 -1.14873 0
M  V30 905 C 89.901 -0.795485 -3.39813 0
M  V30 906 C 91.249 -0.801703 -4.16963 0
M  V30 907 O 92.273 -0.738889 -3.48452 0
M  V30 908 O 91.132 -0.886607 -5.3926 0
M  V30 909 H 88.226 -0.0989641 -0.821057 0
M  V30 910 H 90.772 -0.921397 -1.42507 0
M  V30 911 H 89.544 -1.83795 -3.45449 0
M  V30 912 H 89.167 -0.202505 -3.97084 0
M  V30 913 N 90.1641 1.46063 -0.591896 0
M  V30 914 C 91.4041 2.04228 -0.0838014 0
M  V30 915 C 91.7681 1.45231 1.25587 0
M  V30 916 O 92.9691 1.94653 1.85375 0
M  V30 917 C 91.2401 3.57389 -0.0286282 0
M  V30 918 S 92.7991 4.3678 0.420557 0
M  V30 919 H 89.6171 0.709762 -0.0419319 0
M  V30 920 H 92.2191 1.78983 -0.786465 0
M  V30 921 H 90.9231 3.97843 -1.00743 0
M  V30 922 H 90.4541 3.87185 0.69652 0
M  V30 923 H 92.4691 4.67131 1.67341 0
M  V30 924 N 91.6422 0.330177 1.54103 0
M  V30 925 C 92.9192 -0.325007 1.92881 0
M  V30 926 C 93.2992 -1.6934 1.26045 0
M  V30 927 O 92.6472 -2.24855 0.406526 0
M  V30 928 C 92.8572 -0.410634 3.46576 0
M  V30 929 C 94.2052 -0.667801 4.19316 0
M  V30 930 O 95.2292 -0.49329 3.52768 0
M  V30 931 O 94.0882 -1.00491 5.37181 0
M  V30 932 H 91.1822 -0.186873 0.80561 0
M  V30 933 H 93.7282 0.380376 1.65382 0
M  V30 934 H 92.5002 0.550164 3.87413 0
M  V30 935 H 92.1232 -1.16333 3.802 0
M  V30 936 N 93.1203 -1.57491 0.0584922 0
M  V30 937 C 94.0523 -2.08916 -0.942694 0
M  V30 938 C 95.0653 -1.0185 -1.27006 0
M  V30 939 O 96.2543 -1.29398 -1.22957 0
M  V30 940 C 93.3543 -2.52341 -2.26224 0
M  V30 941 C 92.5273 -3.82827 -2.1157 0
M  V30 942 C 91.5863 -4.12487 -3.26712 0
M  V30 943 O 90.6123 -4.82295 -3.02292 0
M  V30 944 N 91.8143 -3.64978 -4.5141 0
M  V30 945 H 94.5793 -2.95437 -0.503722 0
M  V30 946 H 92.1403 -1.61397 -0.12757 0
M  V30 947 H 94.1323 -2.69254 -3.02133 0
M  V30 948 H 92.7023 -1.7103 -2.61663 0
M  V30 949 H 91.9223 -3.75425 -1.20208 0
M  V30 950 H 93.2103 -4.68263 -1.99015 0
M  V30 951 H 92.6083 -3.08558 -4.7414 0
M  V30 952 H 91.1653 -3.87115 -5.2439 0
M  V30 953 N 94.5984 0.214957 -1.56127 0
M  V30 954 C 95.8454 0.938372 -1.79446 0
M  V30 955 C 96.1734 1.8407 -0.628378 0
M  V30 956 O 95.4284 1.91837 0.386925 0
M  V30 957 C 95.7274 1.80314 -3.0858 0
M  V30 958 C 95.3934 1.05349 -4.3842 0
M  V30 959 C 94.0554 0.846435 -4.73697 0
M  V30 960 C 96.4074 0.524588 -5.18553 0
M  V30 961 C 93.7354 0.098683 -5.86617 0
M  V30 962 C 96.0874 -0.209853 -6.32252 0
M  V30 963 C 94.7514 -0.428102 -6.66126 0
M  V30 964 H 94.0214 0.343375 -0.656639 0
M  V30 965 H 96.6684 0.206077 -1.90388 0
M  V30 966 H 94.9734 2.6035 -2.92789 0
M  V30 967 H 96.6704 2.36513 -3.23825 0
M  V30 968 H 93.2604 1.22486 -4.10725 0
M  V30 969 H 97.4444 0.672008 -4.91729 0
M  V30 970 H 92.7004 -0.0805753 -6.11347 0
M  V30 971 H 96.8744 -0.627157 -6.9357 0
M  V30 972 H 94.5014 -1.00944 -7.53468 0
M  V30 973 N 96.0765 1.50051 0.48192 0
M  V30 974 C 97.3165 1.62128 1.24474 0
M  V30 975 C 97.6805 0.309742 1.89485 0
M  V30 976 O 98.8815 0.305854 2.67054 0
M  V30 977 C 97.1525 2.76151 2.26882 0
M  V30 978 S 98.7115 3.08297 3.12247 0
M  V30 979 H 95.5295 0.571661 0.422759 0
M  V30 980 H 98.1315 1.87791 0.54359 0
M  V30 981 H 96.8355 3.69942 1.77683 0
M  V30 982 H 96.3665 2.52541 3.0164 0
M  V30 983 H 98.3815 2.51287 4.27866 0
M  V30 984 N 97.5546 -0.734337 1.39446 0
M  V30 985 C 98.5046 -1.83949 1.34709 0
M  V30 986 C 99.4886 -1.59279 0.227851 0
M  V30 987 O 100.681 -1.70771 0.465438 0
M  V30 988 C 97.8096 -3.21884 1.19356 0
M  V30 989 C 96.8956 -3.52381 2.35984 0
M  V30 990 N 97.2866 -3.53811 3.61457 0
M  V30 991 C 95.5846 -3.82747 2.28956 0
M  V30 992 C 96.2856 -3.82122 4.38586 0
M  V30 993 N 95.2616 -3.9993 3.68181 0
M  V30 994 H 99.0636 -1.83361 2.29687 0
M  V30 995 H 96.5776 -0.932609 1.32952 0
M  V30 996 H 98.5746 -4.00998 1.14046 0
M  V30 997 H 97.2346 -3.23711 0.253295 0
M  V30 998 H 98.2456 -3.35107 3.94872 0
M  V30 999 H 94.9226 -3.92175 1.43194 0
M  V30 1000 H 96.3126 -3.89691 5.47349 0
M  V30 1001 N 99.0327 -1.24633 -0.964593 0
M  V30 1002 C 99.9427 -1.05859 -2.09359 0
M  V30 1003 C 100.959 0.00148855 -1.74 0
M  V30 1004 O 102.135 -0.197346 -2.00431 0
M  V30 1005 C 99.1997 -0.668879 -3.40187 0
M  V30 1006 C 98.2607 -1.80578 -3.89474 0
M  V30 1007 C 97.4937 -1.43457 -5.14058 0
M  V30 1008 O 97.7167 -0.325775 -5.69469 0
M  V30 1009 O 96.6507 -2.2613 -5.57807 0
M  V30 1010 H 100.477 -2.00516 -2.28094 0
M  V30 1011 H 98.0617 -1.03481 -1.0776 0
M  V30 1012 H 99.9437 -0.463211 -4.18846 0
M  V30 1013 H 98.6187 0.248536 -3.22744 0
M  V30 1014 H 97.5257 -2.06623 -3.11862 0
M  V30 1015 H 98.8587 -2.70208 -4.11398 0
M  V30 1016 N 100.511 1.16574 -1.06058 0
M  V30 1017 C 101.421 2.2452 -0.680282 0
M  V30 1018 C 102.437 1.71348 0.302604 0
M  V30 1019 O 103.613 2.00822 0.152513 0
M  V30 1020 C 100.678 3.46629 -0.0700315 0
M  V30 1021 C 99.7388 4.14849 -1.10448 0
M  V30 1022 C 98.9718 5.31129 -0.523256 0
M  V30 1023 O 99.1948 5.66514 0.664709 0
M  V30 1024 O 98.1288 5.88526 -1.26179 0
M  V30 1025 H 101.955 2.59355 -1.58015 0
M  V30 1026 H 99.5398 1.24043 -0.832694 0
M  V30 1027 H 101.422 4.20543 0.268667 0
M  V30 1028 H 100.097 3.13573 0.803353 0
M  V30 1029 H 99.0038 3.42916 -1.49532 0
M  V30 1030 H 100.337 4.51954 -1.94931 0
M  V30 1031 N 101.989 0.842826 1.3317 0
M  V30 1032 C 102.921 0.236245 2.27979 0
M  V30 1033 C 103.934 -0.585282 1.51915 0
M  V30 1034 O 105.123 -0.411705 1.73687 0
M  V30 1035 C 102.223 -0.685717 3.3189 0
M  V30 1036 C 101.396 0.0973448 4.37292 0
M  V30 1037 C 100.455 -0.748565 5.20848 0
M  V30 1038 O 99.4809 -0.186339 5.68895 0
M  V30 1039 N 100.683 -2.06527 5.42519 0
M  V30 1040 H 103.448 1.05088 2.80672 0
M  V30 1041 H 101.009 0.701667 1.45905 0
M  V30 1042 H 103.001 -1.25669 3.84694 0
M  V30 1043 H 101.571 -1.40105 2.79445 0
M  V30 1044 H 100.791 0.849706 3.84933 0
M  V30 1045 H 102.079 0.635643 5.04814 0
M  V30 1046 H 101.477 -2.54554 5.05192 0
M  V30 1047 H 100.034 -2.58464 5.98364 0
M  V30 1048 N 103.467 -1.45747 0.599634 0
M  V30 1049 C 104.415 -2.322 -0.136426 0
M  V30 1050 C 105.409 -1.45497 -0.867583 0
M  V30 1051 O 106.615 -1.62027 -0.78405 0
M  V30 1052 H 102.99 -0.749368 -0.0628588 0
M  V30 1053 H 104.961 -2.92072 0.611281 0
M  V30 1054 C 103.71 -3.28974 -1.12567 0
M  V30 1055 H 103.033 -3.9568 -0.572484 0
M  V30 1056 H 104.473 -3.92212 -1.61077 0
M  V30 1057 C 102.932 -2.55561 -2.19523 0
M  V30 1058 O 103.462 -2.33111 -3.27143 0
M  V30 1059 N 101.668 -2.15832 -1.94589 0
M  V30 1060 H 101.215 -2.3429 -1.07078 0
M  V30 1061 H 101.173 -1.67034 -2.66359 0
M  V30 1062 N 104.945 -0.338344 -1.53925 0
M  V30 1063 C 106.17 0.263987 -2.05713 0
M  V30 1064 C 106.595 1.43847 -1.21201 0
M  V30 1065 O 105.953 1.79904 -0.224535 0
M  V30 1066 C 106.001 0.662 -3.54471 0
M  V30 1067 O 105.105 1.76265 -3.72833 0
M  V30 1068 H 104.446 0.0448722 -0.662482 0
M  V30 1069 H 106.976 -0.491048 -1.9862 0
M  V30 1070 H 106.986 0.940594 -3.9701 0
M  V30 1071 H 105.661 -0.196937 -4.15433 0
M  V30 1072 H 104.238 1.48173 -3.42198 0
M  V30 1073 N 106.423 1.57458 -0.0668435 0
M  V30 1074 C 107.669 1.93587 0.6043 0
M  V30 1075 C 108.002 0.946722 1.69561 0
M  V30 1076 O 107.277 -0.0248516 1.94484 0
M  V30 1077 C 107.56 3.40014 1.18585 0
M  V30 1078 C 107.413 4.49685 0.101529 0
M  V30 1079 C 108.732 3.87154 2.09284 0
M  V30 1080 H 105.851 0.703958 0.218202 0
M  V30 1081 H 108.493 1.89542 -0.131804 0
M  V30 1082 H 106.643 3.43592 1.81319 0
M  V30 1083 H 108.315 4.5823 -0.531279 0
M  V30 1084 H 106.558 4.30059 -0.568487 0
M  V30 1085 H 107.229 5.49266 0.54874 0
M  V30 1086 H 109.705 3.85551 1.56491 0
M  V30 1087 H 108.581 4.90231 2.46911 0
M  V30 1088 H 108.842 3.2481 2.99918 0
M  V30 1089 N 107.901 -0.206675 1.56239 0
M  V30 1090 C 109.147 -0.930218 1.80208 0
M  V30 1091 C 109.48 -1.83387 0.638981 0
M  V30 1092 O 108.755 -1.91119 -0.361066 0
M  V30 1093 C 109.038 -1.75641 3.1436 0
M  V30 1094 C 108.891 -0.878257 4.41142 0
M  V30 1095 C 110.21 -2.73129 3.45092 0
M  V30 1096 H 107.329 -0.336742 0.655571 0
M  V30 1097 H 109.971 -0.198222 1.88963 0
M  V30 1098 H 108.121 -2.38048 3.07027 0
M  V30 1099 H 109.793 -0.269787 4.6051 0
M  V30 1100 H 108.036 -0.184385 4.33408 0
M  V30 1101 H 108.707 -1.49106 5.3148 0
M  V30 1102 H 111.183 -2.20856 3.52649 0
M  V30 1103 H 110.059 -3.28028 4.40101 0
M  V30 1104 H 110.32 -3.51606 2.68003 0
M  V30 1105 N 109.379 -1.50304 -0.473955 0
M  V30 1106 C 110.619 -1.62786 -1.23612 0
M  V30 1107 C 110.983 -0.319786 -1.89318 0
M  V30 1108 O 112.184 -0.320012 -2.66888 0
M  V30 1109 C 110.455 -2.77351 -2.25414 0
M  V30 1110 S 112.014 -3.09948 -3.10608 0
M  V30 1111 H 108.832 -0.573895 -0.419721 0
M  V30 1112 H 111.434 -1.88076 -0.533623 0
M  V30 1113 H 110.138 -3.70879 -1.75719 0
M  V30 1114 H 109.669 -2.54137 -3.00296 0
M  V30 1115 H 111.684 -2.53553 -4.26527 0
M  V30 1116 N 110.857 0.726932 -1.39834 0
M  V30 1117 C 112.082 1.52121 -1.40976 0
M  V30 1118 C 112.507 1.88098 -0.00826029 0
M  V30 1119 O 111.865 1.52479 0.980807 0
M  V30 1120 C 111.913 2.78021 -2.29644 0
M  V30 1121 O 111.017 3.74272 -1.73188 0
M  V30 1122 H 110.358 0.45908 -0.479731 0
M  V30 1123 H 112.888 0.896207 -1.83927 0
M  V30 1124 H 112.898 3.26671 -2.44438 0
M  V30 1125 H 111.573 2.51169 -3.31492 0
M  V30 1126 H 110.15 3.33073 -1.6768 0
M  V30 1127 N 112.336 1.25143 0.95797 0
M  V30 1128 C 113.576 1.10893 1.71703 0
M  V30 1129 C 113.94 -0.34478 1.88879 0
M  V30 1130 O 115.141 -0.609014 2.6181 0
M  V30 1131 C 113.412 1.83889 3.06463 0
M  V30 1132 S 114.971 1.85491 3.97666 0
M  V30 1133 H 111.789 0.396428 0.590226 0
M  V30 1134 H 114.391 1.58618 1.14283 0
M  V30 1135 H 113.095 2.88756 2.9163 0
M  V30 1136 H 112.626 1.36538 3.68946 0
M  V30 1137 H 114.641 0.929553 4.87415 0
M  V30 1138 N 113.814 -1.1601 1.06675 0
M  V30 1139 C 114.777 -2.18724 0.685001 0
M  V30 1140 C 115.777 -1.58496 -0.271246 0
M  V30 1141 O 116.967 -1.74119 -0.0531156 0
M  V30 1142 C 114.099 -3.40899 0.00853648 0
M  V30 1143 H 115.292 -2.54011 1.59431 0
M  V30 1144 H 112.845 -1.30352 0.862441 0
M  V30 1145 H 113.58 -3.11173 -0.913337 0
M  V30 1146 H 113.365 -3.8587 0.696204 0
M  V30 1147 H 114.855 -4.16886 -0.24414 0
M  V30 1148 N 115.292 -0.849877 -1.32721 0
M  V30 1149 C 116.708 -0.539102 -1.50219 0
M  V30 1150 C 116.908 0.931271 -1.78689 0
M  V30 1151 O 115.964 1.71455 -1.85363 0
M  V30 1152 C 117.277 -1.42196 -2.64954 0
M  V30 1153 C 118.825 -1.42189 -2.78839 0
M  V30 1154 C 119.3 -2.28985 -3.96648 0
M  V30 1155 N 120.791 -2.26754 -4.03902 0
M  V30 1156 C 121.526 -2.90644 -4.94281 0
M  V30 1157 N 121.022 -3.63629 -5.897 0
M  V30 1158 N 122.815 -2.80057 -4.87365 0
M  V30 1159 H 114.966 -1.80156 -1.12506 0
M  V30 1160 H 117.229 -0.769217 -0.554085 0
M  V30 1161 H 116.935 -2.46733 -2.50631 0
M  V30 1162 H 116.809 -1.10591 -3.60624 0
M  V30 1163 H 119.196 -0.38419 -2.92588 0
M  V30 1164 H 119.277 -1.77807 -1.83898 0
M  V30 1165 H 118.921 -3.32819 -3.83658 0
M  V30 1166 H 118.851 -1.90702 -4.90857 0
M  V30 1167 H 121.342 -1.73688 -3.3562 0
M  V30 1168 H 121.655 -4.09558 -6.55349 0
M  V30 1169 H 120 -3.67737 -5.89741 0
M  V30 1170 H 123.191 -2.22593 -4.11789 0
M  V30 1171 H 123.364 -3.30132 -5.57599 0
M  V30 1172 N 116.77 1.45427 -0.607355 0
M  V30 1173 C 118.018 2.01841 -0.102253 0
M  V30 1174 C 118.339 1.47832 1.27164 0
M  V30 1175 O 117.609 0.672497 1.83995 0
M  V30 1176 H 116.189 0.746188 -0.0348101 0
M  V30 1177 H 118.851 1.78229 -0.7887 0
M  V30 1178 H 117.947 3.12057 -0.0518585 0
M  V30 1179 N 118.248 0.346503 1.53744 0
M  V30 1180 C 119.478 -0.250047 2.05081 0
M  V30 1181 C 119.886 -1.44529 1.22098 0
M  V30 1182 O 119.229 -1.81992 0.249917 0
M  V30 1183 C 119.291 -0.725934 3.52094 0
M  V30 1184 C 118.955 0.350053 4.55657 0
M  V30 1185 C 119.952 1.19372 5.0601 0
M  V30 1186 C 117.637 0.504827 4.99757 0
M  V30 1187 C 119.631 2.17768 5.99046 0
M  V30 1188 C 117.318 1.49218 5.92602 0
M  V30 1189 C 118.316 2.32706 6.42135 0
M  V30 1190 O 118.004 3.2976 7.33153 0
M  V30 1191 H 117.736 -0.0515469 0.674032 0
M  V30 1192 H 120.29 0.497559 1.99282 0
M  V30 1193 H 118.52 -1.52483 3.55367 0
M  V30 1194 H 120.209 -1.24336 3.86388 0
M  V30 1195 H 120.975 1.08525 4.72702 0
M  V30 1196 H 116.854 -0.135178 4.60802 0
M  V30 1197 H 120.398 2.82971 6.37631 0
M  V30 1198 H 116.295 1.6012 6.25325 0
M  V30 1199 H 117.063 3.25265 7.51096 0
M  V30 1200 N 119.726 -1.57421 0.075193 0
M  V30 1201 C 120.954 -1.97946 -0.602076 0
M  V30 1202 C 121.369 -0.953674 -1.62943 0
M  V30 1203 O 120.726 0.0592551 -1.82404 0
M  V30 1204 C 120.777 -3.38546 -1.26762 0
M  V30 1205 O 120.498 -4.37195 -0.281376 0
M  V30 1206 C 121.999 -3.93966 -2.03239 0
M  V30 1207 H 119.219 -0.650918 -0.162931 0
M  V30 1208 H 121.763 -2.03959 0.148601 0
M  V30 1209 H 119.918 -3.33609 -1.96936 0
M  V30 1210 H 120.332 -5.18975 -0.759267 0
M  V30 1211 H 121.806 -4.94555 -2.45193 0
M  V30 1212 H 122.283 -3.30693 -2.8903 0
M  V30 1213 H 122.889 -4.02315 -1.37924 0
M  V30 1214 N 121.204 0.198386 -1.56346 0
M  V30 1215 C 122.134 1.24865 -1.9731 0
M  V30 1216 C 123.115 1.47651 -0.844576 0
M  V30 1217 O 124.3 1.59444 -1.10866 0
M  V30 1218 C 121.43 2.59358 -2.30977 0
M  V30 1219 C 120.384 2.5119 -3.46537 0
M  V30 1220 C 119.71 3.89926 -3.65871 0
M  V30 1221 C 121.01 2.03977 -4.80823 0
M  V30 1222 H 122.704 0.908252 -2.85291 0
M  V30 1223 H 120.25 0.435462 -1.37258 0
M  V30 1224 H 122.203 3.33011 -2.58228 0
M  V30 1225 H 120.927 2.95132 -1.39874 0
M  V30 1226 H 119.586 1.79993 -3.19371 0
M  V30 1227 H 119.234 4.23046 -2.72105 0
M  V30 1228 H 118.934 3.85336 -4.4361 0
M  V30 1229 H 120.458 4.65205 -3.95495 0
M  V30 1230 H 121.872 2.67386 -5.07127 0
M  V30 1231 H 120.269 2.10397 -5.62008 0
M  V30 1232 H 121.339 0.992861 -4.74626 0
M  V30 1233 N 122.682 1.50554 0.465978 0
M  V30 1234 C 123.645 1.69233 1.54574 0
M  V30 1235 C 124.645 0.562901 1.50626 0
M  V30 1236 O 125.835 0.830016 1.53155 0
M  V30 1237 C 122.967 1.7223 2.94193 0
M  V30 1238 H 124.16 2.65571 1.39327 0
M  V30 1239 H 121.713 1.40111 0.692711 0
M  V30 1240 H 122.448 0.77603 3.14878 0
M  V30 1241 H 122.233 2.54285 2.98466 0
M  V30 1242 H 123.723 1.88618 3.72576 0
M  V30 1243 N 124.16 -0.719506 1.40217 0
M  V30 1244 C 125.437 -1.47221 1.28784 0
M  V30 1245 C 125.817 -2.10883 -0.0956067 0
M  V30 1246 O 125.165 -1.99833 -1.10811 0
M  V30 1247 C 125.375 -2.5111 2.42373 0
M  V30 1248 C 126.723 -3.17053 2.82423 0
M  V30 1249 O 127.747 -2.61429 2.41937 0
M  V30 1250 O 126.606 -4.17742 3.52355 0
M  V30 1251 H 123.7 -0.654491 0.50554 0
M  V30 1252 H 126.246 -0.752014 1.52128 0
M  V30 1253 H 125.018 -2.02556 3.34793 0
M  V30 1254 H 124.641 -3.3067 2.20778 0
M  V30 1255 N 125.638 -1.25649 -0.95132 0
M  V30 1256 C 126.586 -1.06118 -2.06982 0
M  V30 1257 C 127.58 0.00889169 -1.69398 0
M  V30 1258 O 128.786 -0.146988 -1.79399 0
M  V30 1259 H 125.161 -0.326248 -0.677544 0
M  V30 1260 H 127.132 -2.00932 -2.2061 0
M  V30 1261 C 125.881 -0.700145 -3.40578 0
M  V30 1262 H 125.204 -1.51537 -3.69968 0
M  V30 1263 H 126.644 -0.603211 -4.19687 0
M  V30 1264 C 125.103 0.59403 -3.31622 0
M  V30 1265 O 125.633 1.63522 -3.66911 0
M  V30 1266 N 123.839 0.58089 -2.84735 0
M  V30 1267 H 123.386 -0.266783 -2.56215 0
M  V30 1268 H 123.344 1.44695 -2.79125 0
M  V30 1269 N 127.117 1.15442 -1.07289 0
M  V30 1270 C 128.365 1.85845 -0.794096 0
M  V30 1271 C 128.686 1.82692 0.681809 0
M  V30 1272 O 127.956 1.26741 1.49377 0
M  V30 1273 H 126.536 0.688089 -0.290763 0
M  V30 1274 H 129.198 1.39947 -1.3565 0
M  V30 1275 H 128.294 2.91001 -1.12804 0
M  V30 1276 N 128.595 0.856903 1.32268 0
M  V30 1277 C 129.542 0.301172 2.28827 0
M  V30 1278 C 130.512 -0.593104 1.5515 0
M  V30 1279 O 131.697 -0.527537 1.83362 0
M  V30 1280 C 128.837 -0.502523 3.41422 0
M  V30 1281 C 127.95 0.417797 4.29975 0
M  V30 1282 C 127.085 -0.398749 5.29701 0
M  V30 1283 C 126.124 0.518827 6.09897 0
M  V30 1284 N 125.261 -0.260674 7.01616 0
M  V30 1285 H 130.101 1.12983 2.75751 0
M  V30 1286 H 127.638 0.568582 1.35667 0
M  V30 1287 H 129.596 -0.984141 4.05426 0
M  V30 1288 H 128.226 -1.29599 2.95642 0
M  V30 1289 H 127.278 1.01781 3.66531 0
M  V30 1290 H 128.59 1.12191 4.86019 0
M  V30 1291 H 127.744 -0.943435 5.9932 0
M  V30 1292 H 126.483 -1.13622 4.7428 0
M  V30 1293 H 125.488 1.07538 5.39181 0
M  V30 1294 H 126.713 1.25495 6.67404 0
M  V30 1295 H 124.659 -0.981198 6.4862 0
M  V30 1296 H 124.576 0.384364 7.55022 0
M  V30 1297 H 125.844 -0.787014 7.75517 0
M  V30 1298 N 130.073 -1.45103 0.615059 0
M  V30 1299 C 131.036 -2.29025 -0.0895485 0
M  V30 1300 C 132.036 -1.40174 -0.787906 0
M  V30 1301 O 133.226 -1.62217 -0.634933 0
M  V30 1302 C 130.358 -3.21376 -1.13711 0
M  V30 1303 H 131.551 -2.92807 0.648382 0
M  V30 1304 H 129.104 -1.51749 0.374444 0
M  V30 1305 H 129.839 -2.6241 -1.90556 0
M  V30 1306 H 129.624 -3.86834 -0.640475 0
M  V30 1307 H 131.114 -3.84459 -1.63036 0
M  V30 1308 N 131.551 -0.354651 -1.53558 0
M  V30 1309 C 132.791 0.238651 -2.03002 0
M  V30 1310 C 133.155 1.46878 -1.23656 0
M  V30 1311 O 134.356 2.13699 -1.63053 0
M  V30 1312 C 132.627 0.534175 -3.53386 0
M  V30 1313 S 134.186 1.10271 -4.24719 0
M  V30 1314 H 131.004 0.0702908 -0.707517 0
M  V30 1315 H 133.606 -0.494987 -1.8913 0
M  V30 1316 H 132.31 -0.368765 -4.0874 0
M  V30 1317 H 131.841 1.29718 -3.71398 0
M  V30 1318 H 133.856 2.38772 -4.34974 0
M  V30 1319 N 133.029 1.57378 -0.0835403 0
M  V30 1320 C 134.278 1.93106 0.582498 0
M  V30 1321 C 134.591 0.96651 1.70053 0
M  V30 1322 O 135.797 1.21705 2.42693 0
M  V30 1323 C 134.253 3.43076 1.08751 0
M  V30 1324 C 133.861 4.48 -0.000146404 0
M  V30 1325 C 135.605 3.87785 1.72694 0
M  V30 1326 C 133.512 5.89113 0.519568 0
M  V30 1327 H 132.442 0.720775 0.221358 0
M  V30 1328 H 135.093 1.82821 -0.157675 0
M  V30 1329 H 133.475 3.48474 1.88101 0
M  V30 1330 H 134.649 4.54233 -0.775199 0
M  V30 1331 H 132.964 4.1283 -0.54406 0
M  V30 1332 H 135.561 4.90604 2.1263 0
M  V30 1333 H 135.904 3.25796 2.59158 0
M  V30 1334 H 136.437 3.8504 0.999457 0
M  V30 1335 H 133.176 6.54775 -0.308186 0
M  V30 1336 H 132.696 5.86376 1.26188 0
M  V30 1337 H 134.375 6.39346 0.992237 0
M  V30 1338 N 134.507 -0.190092 1.56449 0
M  V30 1339 C 135.918 -0.754312 1.70784 0
M  V30 1340 C 136.269 -1.83631 0.690951 0
M  V30 1341 O 135.394 -2.15868 -0.151604 0
M  V30 1342 C 135.989 -1.37503 3.09642 0
M  V30 1343 C 134.548 -1.88628 3.25725 0
M  V30 1344 C 133.695 -0.758098 2.66736 0
M  V30 1345 H 136.646 0.0350524 1.58661 0
M  V30 1346 H 136.667 -2.2445 3.0725 0
M  V30 1347 H 136.179 -0.587302 3.83631 0
M  V30 1348 H 134.28 -2.70103 2.56661 0
M  V30 1349 H 134.393 -2.04462 4.3328 0
M  V30 1350 H 132.757 -1.17369 2.26046 0
M  V30 1351 H 133.54 0.0174705 3.43296 0
M  V30 1352 N 135.985 -1.50799 -0.457987 0
M  V30 1353 C 137.213 -1.66218 -1.23203 0
M  V30 1354 C 137.628 -0.350894 -1.85511 0
M  V30 1355 O 136.985 0.668546 -1.69814 0
M  V30 1356 C 137.036 -2.76291 -2.33121 0
M  V30 1357 O 136.757 -4.02338 -1.73366 0
M  V30 1358 C 138.258 -3.028 -3.2377 0
M  V30 1359 H 135.478 -0.558361 -0.372121 0
M  V30 1360 H 138.022 -1.97099 -0.545179 0
M  V30 1361 H 136.177 -2.48068 -2.97558 0
M  V30 1362 H 136.591 -4.63312 -2.4585 0
M  V30 1363 H 138.065 -3.8345 -3.97077 0
M  V30 1364 H 138.542 -2.14385 -3.83322 0
M  V30 1365 H 139.148 -3.32604 -2.65056 0
M  V30 1366 N 137.463 0.71206 -1.40597 0
M  V30 1367 C 138.711 1.46907 -1.38791 0
M  V30 1368 C 139.032 1.94998 0.00780391 0
M  V30 1369 O 138.302 1.70587 0.963174 0
M  V30 1370 H 136.882 0.545043 -0.51082 0
M  V30 1371 H 139.544 0.843882 -1.75683 0
M  V30 1372 H 138.64 2.34021 -2.06496 0
M  V30 1373 N 138.941 1.26152 0.944643 0
M  V30 1374 C 140.352 1.10454 1.50522 0
M  V30 1375 C 140.703 -0.31635 1.93633 0
M  V30 1376 O 139.828 -1.20746 1.79581 0
M  V30 1377 C 140.423 1.99891 2.73549 0
M  V30 1378 C 138.982 1.88348 3.25886 0
M  V30 1379 C 138.129 1.93447 1.9868 0
M  V30 1380 H 141.08 1.39292 0.760489 0
M  V30 1381 H 141.101 1.54477 3.47732 0
M  V30 1382 H 140.613 3.03297 2.42141 0
M  V30 1383 H 138.714 0.878636 3.62092 0
M  V30 1384 H 138.827 2.73696 3.93227 0
M  V30 1385 H 137.191 1.37456 2.14425 0
M  V30 1386 H 137.974 2.98476 1.69607 0
M  V30 1387 N 140.419 -1.14872 1.07899 0
M  V30 1388 C 141.649 -1.89386 0.825631 0
M  V30 1389 C 142.057 -1.78565 -0.625406 0
M  V30 1390 O 141.4 -1.13918 -1.44113 0
M  V30 1391 C 141.462 -3.40206 1.16191 0
M  V30 1392 C 141.126 -3.74812 2.61467 0
M  V30 1393 C 142.123 -3.75367 3.59716 0
M  V30 1394 C 139.808 -4.0495 2.97189 0
M  V30 1395 C 141.802 -4.05574 4.9172 0
M  V30 1396 C 139.489 -4.34821 4.29388 0
M  V30 1397 C 140.487 -4.35116 5.26463 0
M  V30 1398 O 140.175 -4.64267 6.56286 0
M  V30 1399 H 139.907 -0.606894 0.297751 0
M  V30 1400 H 142.461 -1.46438 1.44031 0
M  V30 1401 H 140.691 -3.8358 0.490214 0
M  V30 1402 H 142.38 -3.96018 0.890193 0
M  V30 1403 H 143.146 -3.52176 3.33462 0
M  V30 1404 H 139.025 -4.03876 2.22273 0
M  V30 1405 H 142.569 -4.05719 5.67484 0
M  V30 1406 H 138.466 -4.5748 4.55392 0
M  V30 1407 H 139.234 -4.82007 6.61522 0
M  V30 1408 N 141.898 -0.863906 -1.31812 0
M  V30 1409 C 143.309 -0.52522 -1.7916 0
M  V30 1410 C 143.66 0.957518 -1.71248 0
M  V30 1411 O 142.785 1.74734 -1.27659 0
M  V30 1412 C 143.38 -0.9466 -3.25307 0
M  V30 1413 C 141.939 -0.659668 -3.70574 0
M  V30 1414 C 141.086 -1.14126 -2.52726 0
M  V30 1415 H 144.037 -1.05022 -1.1898 0
M  V30 1416 H 144.058 -0.266766 -3.79564 0
M  V30 1417 H 143.57 -2.02579 -3.31034 0
M  V30 1418 H 141.671 0.408416 -3.70355 0
M  V30 1419 H 141.784 -1.23245 -4.62977 0
M  V30 1420 H 140.148 -0.561216 -2.4844 0
M  V30 1421 H 140.931 -2.22775 -2.61201 0
M  V30 1422 N 143.376 1.44774 -0.622745 0
M  V30 1423 C 144.616 2.04004 -0.127102 0
M  V30 1424 C 144.98 1.47862 1.22478 0
M  V30 1425 O 146.181 1.98541 1.81204 0
M  V30 1426 C 144.452 3.57247 -0.104429 0
M  V30 1427 S 146.011 4.37574 0.327814 0
M  V30 1428 H 142.829 0.708713 -0.0569776 0
M  V30 1429 H 145.431 1.77275 -0.824253 0
M  V30 1430 H 144.135 3.95616 -1.09159 0
M  V30 1431 H 143.666 3.88575 0.614236 0
M  V30 1432 H 145.681 4.70575 1.57395 0
M  V30 1433 N 144.854 0.36279 1.53368 0
M  V30 1434 C 146.102 -0.227326 2.00817 0
M  V30 1435 C 146.423 -1.49511 1.25186 0
M  V30 1436 O 145.693 -1.92482 0.364348 0
M  V30 1437 H 144.273 -0.0869923 0.741917 0
M  V30 1438 H 146.935 0.488381 1.88682 0
M  V30 1439 H 146.031 -0.456273 3.08747 0
M  V30 1440 N 146.332 -1.57332 0.0918853 0
M  V30 1441 C 147.279 -2.13847 -0.868211 0
M  V30 1442 C 148.249 -1.05618 -1.28196 0
M  V30 1443 O 149.434 -1.33387 -1.36427 0
M  V30 1444 C 146.574 -2.72062 -2.12312 0
M  V30 1445 C 145.687 -3.94514 -1.7602 0
M  V30 1446 C 144.822 -4.40903 -2.96273 0
M  V30 1447 C 143.861 -5.55953 -2.56092 0
M  V30 1448 N 142.998 -5.97209 -3.69169 0
M  V30 1449 H 147.838 -2.95575 -0.379406 0
M  V30 1450 H 145.375 -1.46048 -0.175606 0
M  V30 1451 H 147.333 -3.03931 -2.858 0
M  V30 1452 H 145.963 -1.93068 -2.58698 0
M  V30 1453 H 145.015 -3.68979 -0.925135 0
M  V30 1454 H 146.327 -4.7802 -1.42472 0
M  V30 1455 H 145.481 -4.74539 -3.78018 0
M  V30 1456 H 144.22 -3.56291 -3.33029 0
M  V30 1457 H 143.225 -5.21948 -1.72773 0
M  V30 1458 H 144.45 -6.42311 -2.20484 0
M  V30 1459 H 142.396 -5.15543 -4.05649 0
M  V30 1460 H 142.313 -6.75504 -3.39456 0
M  V30 1461 H 143.581 -6.35475 -4.51434 0
M  V30 1462 N 147.81 0.181792 -1.56548 0
M  V30 1463 C 148.742 1.24956 -1.92142 0
M  V30 1464 C 149.755 1.41022 -0.813422 0
M  V30 1465 O 150.944 1.41212 -1.09186 0
M  V30 1466 C 148.044 2.61981 -2.14987 0
M  V30 1467 C 147.217 2.6735 -3.46183 0
M  V30 1468 C 146.276 3.85664 -3.5798 0
M  V30 1469 O 145.302 3.72148 -4.30691 0
M  V30 1470 N 146.504 5.01683 -2.92053 0
M  V30 1471 H 149.269 0.947329 -2.84334 0
M  V30 1472 H 146.83 0.371629 -1.57577 0
M  V30 1473 H 148.822 3.3958 -2.20154 0
M  V30 1474 H 147.392 2.84637 -1.2923 0
M  V30 1475 H 146.612 1.75925 -3.52766 0
M  V30 1476 H 147.9 2.67939 -4.32534 0
M  V30 1477 H 147.298 5.15564 -2.32832 0
M  V30 1478 H 145.855 5.77181 -3.0283 0
M  V30 1479 N 149.288 1.51039 0.449983 0
M  V30 1480 C 150.516 1.66869 1.2232 0
M  V30 1481 C 150.931 0.360727 1.85322 0
M  V30 1482 O 150.288 -0.659531 1.70166 0
M  V30 1483 C 150.339 2.77524 2.31652 0
M  V30 1484 O 150.06 4.03252 1.7123 0
M  V30 1485 C 151.561 3.04512 3.2216 0
M  V30 1486 H 148.781 0.560326 0.369155 0
M  V30 1487 H 151.325 1.97385 0.534719 0
M  V30 1488 H 149.48 2.49642 2.96239 0
M  V30 1489 H 149.894 4.64609 2.43389 0
M  V30 1490 H 151.368 3.85551 3.95038 0
M  V30 1491 H 151.845 2.16415 3.8218 0
M  V30 1492 H 152.451 3.34005 2.63288 0
M  V30 1493 N 150.766 -0.704594 1.40972 0
M  V30 1494 C 151.696 -1.83124 1.44872 0
M  V30 1495 C 152.677 -1.67281 0.30838 0
M  V30 1496 O 153.862 -1.87149 0.518556 0
M  V30 1497 C 150.992 -3.21181 1.32136 0
M  V30 1498 C 149.946 -3.51714 2.43888 0
M  V30 1499 C 149.272 -4.89032 2.16222 0
M  V30 1500 C 150.572 -3.516 3.86232 0
M  V30 1501 H 152.266 -1.80117 2.39161 0
M  V30 1502 H 149.812 -0.865145 1.15114 0
M  V30 1503 H 151.765 -3.99702 1.33479 0
M  V30 1504 H 150.489 -3.24791 0.343279 0
M  V30 1505 H 149.148 -2.75539 2.41813 0
M  V30 1506 H 148.796 -4.89256 1.16778 0
M  V30 1507 H 148.496 -5.10426 2.911 0
M  V30 1508 H 150.02 -5.69873 2.19265 0
M  V30 1509 H 151.434 -4.2014 3.9007 0
M  V30 1510 H 149.831 -3.84523 4.60719 0
M  V30 1511 H 150.901 -2.50757 4.15029 0
M  V30 1512 N 152.244 -1.26651 -0.937939 0
M  V30 1513 C 153.154 -1.10276 -2.07066 0
M  V30 1514 C 154.17 -0.0354197 -1.73964 0
M  V30 1515 O 155.346 -0.239816 -1.99967 0
M  V30 1516 C 152.411 -0.740887 -3.38691 0
M  V30 1517 C 151.472 -1.88799 -3.85556 0
M  V30 1518 C 150.705 -1.54329 -5.10899 0
M  V30 1519 O 150.928 -0.446494 -5.6865 0
M  V30 1520 O 149.862 -2.37911 -5.52885 0
M  V30 1521 H 153.688 -2.05309 -2.23789 0
M  V30 1522 H 151.273 -1.05743 -1.0554 0
M  V30 1523 H 153.155 -0.55195 -4.1777 0
M  V30 1524 H 151.83 0.180022 -3.23199 0
M  V30 1525 H 150.737 -2.13191 -3.07409 0
M  V30 1526 H 152.07 -2.78874 -4.05574 0
M  V30 1527 N 153.722 1.14298 -1.08507 0
M  V30 1528 C 155.138 1.37347 -0.812901 0
M  V30 1529 C 155.338 1.93052 0.577325 0
M  V30 1530 O 154.394 2.14389 1.33393 0
M  V30 1531 C 155.707 2.33359 -1.89642 0
M  V30 1532 C 157.255 2.46996 -1.92255 0
M  V30 1533 C 157.73 3.46309 -2.99724 0
M  V30 1534 N 159.221 3.53853 -2.98902 0
M  V30 1535 C 159.956 4.3055 -3.787 0
M  V30 1536 N 159.452 5.10482 -4.6838 0
M  V30 1537 N 161.245 4.25757 -3.66998 0
M  V30 1538 H 153.396 0.764867 -1.9815 0
M  V30 1539 H 155.659 0.398966 -0.859959 0
M  V30 1540 H 155.365 1.99565 -2.89597 0
M  V30 1541 H 155.239 3.33274 -1.76659 0
M  V30 1542 H 157.626 2.80081 -0.929445 0
M  V30 1543 H 157.707 1.47039 -2.09316 0
M  V30 1544 H 157.351 3.13957 -3.99241 0
M  V30 1545 H 157.281 4.46049 -2.79907 0
M  V30 1546 H 159.772 2.96812 -2.33904 0
M  V30 1547 H 160.085 5.66284 -5.25873 0
M  V30 1548 H 158.43 5.09747 -4.72422 0
M  V30 1549 H 161.621 3.62383 -2.96304 0
M  V30 1550 H 161.794 4.85279 -4.29427 0
M  V30 1551 N 155.201 0.870884 1.31352 0
M  V30 1552 C 156.617 0.562932 1.49343 0
M  V30 1553 C 156.817 -0.902725 1.80148 0
M  V30 1554 O 155.873 -1.68484 1.88067 0
M  V30 1555 C 157.186 1.46393 2.62659 0
M  V30 1556 C 158.734 1.46607 2.76542 0
M  V30 1557 C 159.209 2.35266 3.92955 0
M  V30 1558 N 160.7 2.33151 4.00243 0
M  V30 1559 C 161.435 2.98471 4.89594 0
M  V30 1560 N 160.931 3.72964 5.8384 0
M  V30 1561 N 162.724 2.87775 4.82848 0
M  V30 1562 H 154.875 1.81923 1.09626 0
M  V30 1563 H 157.138 0.777934 0.541777 0
M  V30 1564 H 156.844 2.50689 2.46674 0
M  V30 1565 H 156.718 1.16314 3.58819 0
M  V30 1566 H 159.105 0.43069 2.9194 0
M  V30 1567 H 159.186 1.8071 1.81046 0
M  V30 1568 H 158.83 3.38881 3.78315 0
M  V30 1569 H 158.76 1.98487 4.87761 0
M  V30 1570 H 161.251 1.79006 3.32814 0
M  V30 1571 H 161.564 4.19932 6.4875 0
M  V30 1572 H 159.909 3.77073 5.83816 0
M  V30 1573 H 163.1 2.29116 4.08195 0
M  V30 1574 H 163.273 3.38961 5.52277 0
M  V30 1575 N 156.679 -1.44442 0.630414 0
M  V30 1576 C 157.626 -2.30678 -0.0749355 0
M  V30 1577 C 158.596 -1.4344 -0.837502 0
M  V30 1578 O 159.781 -1.72343 -0.818684 0
M  V30 1579 C 156.921 -3.28706 -1.05103 0
M  V30 1580 C 156.034 -4.31046 -0.286954 0
M  V30 1581 C 155.169 -5.16167 -1.2548 0
M  V30 1582 C 154.208 -6.10216 -0.479843 0
M  V30 1583 N 153.345 -6.88039 -1.39811 0
M  V30 1584 H 158.185 -2.90454 0.666386 0
M  V30 1585 H 155.722 -1.43107 0.340404 0
M  V30 1586 H 157.68 -3.84027 -1.63031 0
M  V30 1587 H 156.31 -2.70632 -1.75949 0
M  V30 1588 H 155.362 -3.78203 0.408243 0
M  V30 1589 H 156.674 -4.97794 0.316657 0
M  V30 1590 H 155.828 -5.76002 -1.90544 0
M  V30 1591 H 154.567 -4.49491 -1.89233 0
M  V30 1592 H 153.572 -5.49491 0.184295 0
M  V30 1593 H 154.797 -6.78928 0.152965 0
M  V30 1594 H 152.743 -6.24032 -2.02287 0
M  V30 1595 H 152.66 -7.51223 -0.848508 0
M  V30 1596 H 153.928 -7.52397 -2.03762 0
M  V30 1597 N 158.157 -0.370918 -1.53173 0
M  V30 1598 C 159.573 -0.0200818 -1.59587 0
M  V30 1599 C 159.773 1.46279 -1.38581 0
M  V30 1600 O 158.829 2.22506 -1.19363 0
M  V30 1601 C 160.142 -0.4808 -2.96831 0
M  V30 1602 C 161.69 -0.435477 -3.09956 0
M  V30 1603 C 162.165 -0.872092 -4.4962 0
M  V30 1604 N 163.656 -0.827364 -4.55751 0
M  V30 1605 C 164.391 -1.13683 -5.62018 0
M  V30 1606 N 163.887 -1.51584 -6.76014 0
M  V30 1607 N 165.68 -1.05927 -5.52029 0
M  V30 1608 H 157.831 -1.33652 -1.65079 0
M  V30 1609 H 160.094 -0.546634 -0.774529 0
M  V30 1610 H 159.8 -1.51577 -3.1736 0
M  V30 1611 H 159.674 0.129796 -3.76977 0
M  V30 1612 H 162.061 0.590371 -2.89134 0
M  V30 1613 H 162.142 -1.08164 -2.31806 0
M  V30 1614 H 161.786 -1.89608 -4.71181 0
M  V30 1615 H 161.716 -0.203127 -5.26208 0
M  V30 1616 H 164.207 -0.548216 -3.73902 0
M  V30 1617 H 164.52 -1.73609 -7.53047 0
M  V30 1618 H 162.865 -1.55454 -6.77391 0
M  V30 1619 H 166.056 -0.762321 -4.61851 0
M  V30 1620 H 166.229 -1.30378 -6.34749 0
M  V30 1621 N 159.635 1.57281 -0.100228 0
M  V30 1622 C 161.051 1.57527 0.256416 0
M  V30 1623 C 161.251 1.11173 1.68056 0
M  V30 1624 O 160.307 0.79053 2.39806 0
M  V30 1625 C 161.62 3.00673 0.0401747 0
M  V30 1626 C 163.168 3.12815 0.107528 0
M  V30 1627 C 163.643 4.57929 -0.0807834 0
M  V30 1628 N 165.134 4.63193 -0.0261207 0
M  V30 1629 C 165.869 5.73212 -0.146999 0
M  V30 1630 N 165.365 6.92047 -0.322999 0
M  V30 1631 N 167.158 5.62031 -0.0879044 0
M  V30 1632 H 159.309 1.85718 -1.03065 0
M  V30 1633 H 161.572 0.857446 -0.404339 0
M  V30 1634 H 161.278 3.38804 -0.943649 0
M  V30 1635 H 161.152 3.69042 0.780262 0
M  V30 1636 H 163.539 2.74554 1.08186 0
M  V30 1637 H 163.62 2.47028 -0.664134 0
M  V30 1638 H 163.264 4.96886 -1.05201 0
M  V30 1639 H 163.194 5.21783 0.710635 0
M  V30 1640 H 165.685 3.77748 0.107161 0
M  V30 1641 H 165.998 7.7173 -0.406608 0
M  V30 1642 H 164.343 6.94074 -0.358733 0
M  V30 1643 H 167.534 4.68075 0.048498 0
M  V30 1644 H 167.707 6.47734 -0.185557 0
M  V30 1645 N 161.113 -0.173488 1.56642 0
M  V30 1646 C 162.06 -1.21482 1.96242 0
M  V30 1647 C 163.03 -1.44104 0.826027 0
M  V30 1648 O 164.215 -1.5688 1.08597 0
M  V30 1649 C 161.355 -2.54964 2.32567 0
M  V30 1650 C 160.468 -2.39739 3.59373 0
M  V30 1651 C 159.603 -3.66072 3.84921 0
M  V30 1652 C 158.642 -3.45771 5.05083 0
M  V30 1653 N 157.779 -4.64169 5.26775 0
M  V30 1654 H 162.619 -0.870123 2.85014 0
M  V30 1655 H 160.156 -0.418245 1.41029 0
M  V30 1656 H 162.114 -3.32758 2.5165 0
M  V30 1657 H 160.744 -2.87433 1.46908 0
M  V30 1658 H 159.796 -1.53131 3.48217 0
M  V30 1659 H 161.108 -2.20683 4.47326 0
M  V30 1660 H 160.262 -4.52303 4.0436 0
M  V30 1661 H 159.001 -3.88105 2.9534 0
M  V30 1662 H 158.006 -2.57927 4.85545 0
M  V30 1663 H 159.231 -3.25163 5.96193 0
M  V30 1664 H 157.177 -4.86425 4.40144 0
M  V30 1665 H 157.094 -4.48019 6.08946 0
M  V30 1666 H 158.362 -5.51689 5.5069 0
M  V30 1667 N 162.591 -1.51276 -0.441967 0
M  V30 1668 C 164.007 -1.39349 -0.778083 0
M  V30 1669 C 164.207 -0.472212 -1.95889 0
M  V30 1670 O 163.263 0.0743551 -2.5239 0
M  V30 1671 C 164.576 -2.81292 -1.0628 0
M  V30 1672 C 166.124 -2.9041 -1.16751 0
M  V30 1673 C 166.599 -4.33251 -1.48519 0
M  V30 1674 N 168.09 -4.36336 -1.55453 0
M  V30 1675 C 168.825 -5.43885 -1.81596 0
M  V30 1676 N 168.321 -6.61601 -2.05562 0
M  V30 1677 N 170.114 -5.3136 -1.8334 0
M  V30 1678 H 162.265 -2.09729 0.335774 0
M  V30 1679 H 164.528 -0.943925 0.0878028 0
M  V30 1680 H 164.234 -3.50678 -0.267905 0
M  V30 1681 H 164.108 -3.20334 -1.99163 0
M  V30 1682 H 166.495 -2.21225 -1.95304 0
M  V30 1683 H 166.576 -2.54871 -0.217801 0
M  V30 1684 H 166.22 -5.02984 -0.704958 0
M  V30 1685 H 166.15 -4.66299 -2.44689 0
M  V30 1686 H 168.641 -3.51466 -1.38853 0
M  V30 1687 H 168.954 -7.39361 -2.24867 0
M  V30 1688 H 167.299 -6.64725 -2.02894 0
M  V30 1689 H 170.49 -4.38382 -1.64132 0
M  V30 1690 H 170.663 -6.15258 -2.03377 0
M  V30 1691 N 164.069 0.697108 -1.41344 0
M  V30 1692 C 165.318 1.45279 -1.39918 0
M  V30 1693 C 165.631 1.95597 -0.0109624 0
M  V30 1694 O 166.837 2.71208 0.125919 0
M  V30 1695 C 165.293 2.62695 -2.46007 0
M  V30 1696 C 164.901 2.19169 -3.90729 0
M  V30 1697 C 166.645 3.40336 -2.53715 0
M  V30 1698 C 164.552 3.33535 -4.88373 0
M  V30 1699 H 163.482 0.545692 -0.520323 0
M  V30 1700 H 166.133 0.756929 -1.67161 0
M  V30 1701 H 164.515 3.34541 -2.11892 0
M  V30 1702 H 165.689 1.54623 -4.34083 0
M  V30 1703 H 164.004 1.54525 -3.86666 0
M  V30 1704 H 166.601 4.2547 -3.2385 0
M  V30 1705 H 166.944 3.85418 -1.5735 0
M  V30 1706 H 167.477 2.75546 -2.86913 0
M  V30 1707 H 164.216 2.93468 -5.86137 0
M  V30 1708 H 163.736 3.96936 -4.49668 0
M  V30 1709 H 165.415 3.99335 -5.09059 0
M  V30 1710 N 165.547 1.27147 0.931209 0
M  V30 1711 C 166.793 1.13446 1.68101 0
M  V30 1712 C 167.126 -0.319628 1.91552 0
M  V30 1713 O 166.401 -1.23407 1.50336 0
M  V30 1714 C 166.684 1.91482 3.0497 0
M  V30 1715 C 166.537 3.44855 2.88782 0
M  V30 1716 C 167.856 1.71651 4.05246 0
M  V30 1717 H 164.975 0.413498 0.610072 0
M  V30 1718 H 167.617 1.56261 1.08086 0
M  V30 1719 H 165.767 1.55095 3.56199 0
M  V30 1720 H 167.439 3.9105 2.44698 0
M  V30 1721 H 165.682 3.71373 2.24198 0
M  V30 1722 H 166.353 3.94694 3.85902 0
M  V30 1723 H 168.829 2.0337 3.63015 0
M  V30 1724 H 167.705 2.28651 4.99009 0
M  V30 1725 H 167.966 0.663555 4.37092 0
M  V30 1726 N 167.025 -1.13721 1.09112 0
M  V30 1727 C 168.273 -1.84559 0.823562 0
M  V30 1728 C 168.594 -1.83754 -0.652658 0
M  V30 1729 O 167.864 -1.29102 -1.47342 0
M  V30 1730 H 166.444 -0.683376 0.301673 0
M  V30 1731 H 169.106 -1.37771 1.37859 0
M  V30 1732 H 168.202 -2.8917 1.17419 0
M  V30 1733 N 168.503 -0.877838 -1.30888 0
M  V30 1734 C 169.751 -0.491723 -1.96027 0
M  V30 1735 C 170.072 0.960827 -1.69685 0
M  V30 1736 O 169.342 1.67462 -1.01654 0
M  V30 1737 H 167.922 -0.17885 -0.725273 0
M  V30 1738 H 170.584 -1.11935 -1.59551 0
M  V30 1739 H 169.68 -0.656016 -3.05128 0
M  V30 1740 N 169.982 1.44106 -0.638065 0
M  V30 1741 C 170.914 2.28976 0.101205 0
M  V30 1742 C 171.927 1.4167 0.802088 0
M  V30 1743 O 173.116 1.65755 0.662375 0
M  V30 1744 C 170.216 3.18217 1.16581 0
M  V30 1745 C 169.389 4.33978 0.546066 0
M  V30 1746 C 168.448 5.04202 1.50554 0
M  V30 1747 O 167.474 5.59986 1.01999 0
M  V30 1748 N 168.676 5.06296 2.8398 0
M  V30 1749 H 171.441 2.93064 -0.627186 0
M  V30 1750 H 169.002 1.54629 -0.479731 0
M  V30 1751 H 170.994 3.62061 1.80815 0
M  V30 1752 H 169.564 2.55833 1.79634 0
M  V30 1753 H 168.784 3.93239 -0.275046 0
M  V30 1754 H 170.072 5.08675 0.112793 0
M  V30 1755 H 169.47 4.62319 3.26002 0
M  V30 1756 H 168.027 5.53907 3.43556 0
M  V30 1757 N 171.46 0.379036 1.52974 0
M  V30 1758 C 172.37 -0.468639 2.29872 0
M  V30 1759 C 173.386 -1.08067 1.36373 0
M  V30 1760 O 174.562 -1.08871 1.69438 0
M  V30 1761 C 171.627 -1.58594 3.083 0
M  V30 1762 C 170.688 -1.00007 4.17489 0
M  V30 1763 C 169.921 -2.06413 4.92168 0
M  V30 1764 O 170.144 -3.27751 4.66835 0
M  V30 1765 O 169.078 -1.68717 5.7777 0
M  V30 1766 H 172.904 0.157508 3.03291 0
M  V30 1767 H 170.489 0.143035 1.48714 0
M  V30 1768 H 172.371 -2.23525 3.57232 0
M  V30 1769 H 171.046 -2.19724 2.37703 0
M  V30 1770 H 169.953 -0.314299 3.72777 0
M  V30 1771 H 171.286 -0.433135 4.90291 0
M  V30 1772 N 172.938 -1.57226 0.108567 0
M  V30 1773 C 174.178 -1.96717 -0.555155 0
M  V30 1774 C 174.542 -0.990003 -1.64508 0
M  V30 1775 O 175.743 -1.2739 -2.36696 0
M  V30 1776 C 174.014 -3.40575 -1.08367 0
M  V30 1777 S 175.573 -4.02072 -1.75737 0
M  V30 1778 H 172.391 -0.687638 -0.180762 0
M  V30 1779 H 174.993 -1.94563 0.191172 0
M  V30 1780 H 173.697 -4.0945 -0.279092 0
M  V30 1781 H 173.228 -3.46356 -1.86551 0
M  V30 1782 H 175.243 -3.91977 -3.04251 0
M  V30 1783 N 174.416 0.165178 -1.56732 0
M  V30 1784 C 175.363 1.2044 -1.96883 0
M  V30 1785 C 176.333 1.43664 -0.833657 0
M  V30 1786 O 177.518 1.56302 -1.09427 0
M  V30 1787 C 174.658 2.53727 -2.33916 0
M  V30 1788 C 173.771 2.3783 -3.6064 0
M  V30 1789 C 172.906 3.64026 -3.86857 0
M  V30 1790 C 171.945 3.43088 -5.06909 0
M  V30 1791 N 171.082 4.61369 -5.29229 0
M  V30 1792 H 175.922 0.854996 -2.85471 0
M  V30 1793 H 173.459 0.41076 -1.41249 0
M  V30 1794 H 175.417 3.31419 -2.53411 0
M  V30 1795 H 174.047 2.8665 -1.48431 0
M  V30 1796 H 173.099 1.51282 -3.49024 0
M  V30 1797 H 174.411 2.18308 -4.4849 0
M  V30 1798 H 173.565 4.50152 -4.06753 0
M  V30 1799 H 172.304 3.86533 -2.97394 0
M  V30 1800 H 171.309 2.55349 -4.86906 0
M  V30 1801 H 172.534 3.21997 -5.97909 0
M  V30 1802 H 170.48 4.84084 -4.42718 0
M  V30 1803 H 170.397 4.44783 -6.11313 0
M  V30 1804 H 171.665 5.48761 -5.53608 0
M  V30 1805 N 175.894 1.51508 0.433938 0
M  V30 1806 C 177.171 1.54888 1.19453 0
M  V30 1807 C 177.551 0.315154 2.08734 0
M  V30 1808 O 176.899 -0.699558 2.17528 0
M  V30 1809 C 177.109 2.86467 1.99342 0
M  V30 1810 C 178.457 3.38545 2.56267 0
M  V30 1811 O 179.481 2.88041 2.0955 0
M  V30 1812 O 178.34 4.26675 3.41483 0
M  V30 1813 H 175.434 0.622863 0.544032 0
M  V30 1814 H 177.98 1.63823 0.442732 0
M  V30 1815 H 176.752 3.67718 1.33788 0
M  V30 1816 H 176.375 2.8071 2.8158 0
M  V30 1817 N 177.372 -0.689602 1.41712 0
M  V30 1818 C 178.62 -1.4468 1.4111 0
M  V30 1819 C 178.941 -1.94986 0.0232196 0
M  V30 1820 O 178.211 -1.72097 -0.935913 0
M  V30 1821 H 176.791 -0.536847 0.519427 0
M  V30 1822 H 179.453 -0.815825 1.77004 0
M  V30 1823 H 178.549 -2.30706 2.10193 0
M  V30 1824 N 178.85 -1.27639 -0.924453 0
M  V30 1825 C 179.76 -1.12466 -2.05885 0
M  V30 1826 C 180.776 -0.053869 -1.73917 0
M  V30 1827 O 181.952 -0.261012 -1.99702 0
M  V30 1828 C 179.017 -0.776768 -3.37886 0
M  V30 1829 C 178.078 -1.92878 -3.83532 0
M  V30 1830 C 177.311 -1.59739 -5.09234 0
M  V30 1831 O 177.534 -0.506782 -5.68144 0
M  V30 1832 O 176.468 -2.43761 -5.50331 0
M  V30 1833 H 180.294 -2.07671 -2.21599 0
M  V30 1834 H 177.879 -1.06857 -1.04413 0
M  V30 1835 H 179.761 -0.596229 -4.17161 0
M  V30 1836 H 178.436 0.145732 -3.23372 0
M  V30 1837 H 177.343 -2.1644 -3.0513 0
M  V30 1838 H 178.676 -2.8316 -4.02593 0
M  V30 1839 N 180.328 1.1314 -1.09713 0
M  V30 1840 C 181.568 1.8613 -0.844683 0
M  V30 1841 C 181.932 1.81765 0.618491 0
M  V30 1842 O 183.133 2.50024 0.98699 0
M  V30 1843 C 181.404 3.30151 -1.36877 0
M  V30 1844 S 182.963 4.206 -1.25064 0
M  V30 1845 H 179.781 0.642056 -0.305427 0
M  V30 1846 H 182.383 1.36343 -1.4011 0
M  V30 1847 H 181.087 3.30883 -2.42786 0
M  V30 1848 H 180.618 3.85 -0.808614 0
M  V30 1849 H 182.633 4.95783 -0.203486 0
M  V30 1850 N 181.806 0.884767 1.30421 0
M  V30 1851 C 183.217 0.553656 1.78302 0
M  V30 1852 C 183.568 -0.930153 1.7275 0
M  V30 1853 O 182.693 -1.72681 1.30423 0
M  V30 1854 C 183.288 0.998234 3.2376 0
M  V30 1855 C 181.847 0.71854 3.69478 0
M  V30 1856 C 180.994 1.18132 2.50879 0
M  V30 1857 H 183.945 1.06901 1.17294 0
M  V30 1858 H 183.966 0.327118 3.79091 0
M  V30 1859 H 183.478 2.0782 3.27769 0
M  V30 1860 H 181.579 -0.349444 3.70958 0
M  V30 1861 H 181.692 1.30595 4.60958 0
M  V30 1862 H 180.056 0.600669 2.47516 0
M  V30 1863 H 180.839 2.26902 2.57624 0
M  V30 1864 N 183.284 -1.43765 0.645699 0
M  V30 1865 C 184.53 -2.02731 0.164844 0
M  V30 1866 C 184.885 -1.49983 -1.2051 0
M  V30 1867 O 184.178 -0.680208 -1.79119 0
M  V30 1868 C 184.372 -3.57238 0.107679 0
M  V30 1869 C 184.201 -4.24977 1.47054 0
M  V30 1870 C 182.971 -4.61356 2.06103 0
M  V30 1871 C 185.169 -4.54476 2.40741 0
M  V30 1872 N 183.151 -5.14132 3.35473 0
M  V30 1873 C 184.522 -5.08489 3.54737 0
M  V30 1874 C 186.577 -4.36438 2.39637 0
M  V30 1875 C 185.28 -5.46364 4.67845 0
M  V30 1876 C 187.306 -4.7537 3.5182 0
M  V30 1877 C 186.668 -5.2951 4.64541 0
M  V30 1878 H 182.767 -0.774976 0.104578 0
M  V30 1879 H 185.351 -1.75051 0.852367 0
M  V30 1880 H 183.522 -3.84498 -0.549165 0
M  V30 1881 H 185.254 -4.0288 -0.383351 0
M  V30 1882 H 182.009 -4.46151 1.58892 0
M  V30 1883 H 182.433 -5.4498 4.01654 0
M  V30 1884 H 187.075 -3.93861 1.53731 0
M  V30 1885 H 184.793 -5.87888 5.54448 0
M  V30 1886 H 188.379 -4.63115 3.52159 0
M  V30 1887 H 187.259 -5.59077 5.49911 0
M  V30 1888 N 184.763 -0.387143 -1.52771 0
M  V30 1889 C 185.695 0.484089 -2.2403 0
M  V30 1890 C 186.708 1.02849 -1.26198 0
M  V30 1891 O 187.897 0.931186 -1.52286 0
M  V30 1892 C 184.997 1.68337 -2.94136 0
M  V30 1893 C 184.17 1.26672 -4.18656 0
M  V30 1894 C 183.229 2.33045 -4.7178 0
M  V30 1895 O 182.255 1.94541 -5.34923 0
M  V30 1896 N 183.457 3.64929 -4.5145 0
M  V30 1897 H 186.222 -0.126404 -2.99433 0
M  V30 1898 H 183.783 -0.213392 -1.60488 0
M  V30 1899 H 185.775 2.39019 -3.26577 0
M  V30 1900 H 184.345 2.20025 -2.22053 0
M  V30 1901 H 183.565 0.388878 -3.92277 0
M  V30 1902 H 184.853 0.964964 -4.99566 0
M  V30 1903 H 184.251 3.98974 -4.01044 0
M  V30 1904 H 182.808 4.31651 -4.88386 0
M  V30 1905 N 186.241 1.57166 -0.116904 0
M  V30 1906 C 187.204 2.14039 0.819742 0
M  V30 1907 C 188.204 1.07477 1.19605 0
M  V30 1908 O 189.394 1.33263 1.1219 0
M  V30 1909 C 186.526 2.67891 2.10826 0
M  V30 1910 H 187.719 2.98128 0.325511 0
M  V30 1911 H 185.272 1.55739 0.132312 0
M  V30 1912 H 186.007 1.87384 2.64685 0
M  V30 1913 H 185.792 3.45823 1.84793 0
M  V30 1914 H 187.282 3.11809 2.77785 0
M  V30 1915 N 187.719 -0.156864 1.56817 0
M  V30 1916 C 188.649 -1.19589 2.00551 0
M  V30 1917 C 189.63 -1.4536 0.883426 0
M  V30 1918 O 190.815 -1.56449 1.15054 0
M  V30 1919 C 187.945 -2.53143 2.37773 0
M  V30 1920 C 186.899 -2.41913 3.53075 0
M  V30 1921 C 186.225 -3.80088 3.76081 0
M  V30 1922 C 187.525 -1.91157 4.86062 0
M  V30 1923 H 189.219 -0.832293 2.87599 0
M  V30 1924 H 186.765 -0.398918 1.38364 0
M  V30 1925 H 188.718 -3.26047 2.66967 0
M  V30 1926 H 187.442 -2.91319 1.4765 0
M  V30 1927 H 186.101 -1.71462 3.24031 0
M  V30 1928 H 185.749 -4.15683 2.83225 0
M  V30 1929 H 185.449 -3.73439 4.53671 0
M  V30 1930 H 186.973 -4.54556 4.0769 0
M  V30 1931 H 188.387 -2.53846 5.14038 0
M  V30 1932 H 186.784 -1.95422 5.67389 0
M  V30 1933 H 187.854 -0.866673 4.77092 0
M  V30 1934 N 189.197 -1.51736 -0.425897 0
M  V30 1935 C 190.127 -1.76827 -1.52494 0
M  V30 1936 C 191.108 -0.618524 -1.58456 0
M  V30 1937 O 192.293 -0.862416 -1.74 0
M  V30 1938 C 189.423 -1.90374 -2.90474 0
M  V30 1939 C 188.377 -3.0588 -2.99369 0
M  V30 1940 C 187.703 -3.04625 -4.3944 0
M  V30 1941 C 189.003 -4.45644 -2.72394 0
M  V30 1942 H 190.697 -2.68855 -1.31748 0
M  V30 1943 H 188.243 -1.29372 -0.632362 0
M  V30 1944 H 190.196 -2.0651 -3.6733 0
M  V30 1945 H 188.92 -0.95004 -3.12477 0
M  V30 1946 H 187.579 -2.89467 -2.24954 0
M  V30 1947 H 187.227 -2.0701 -4.58428 0
M  V30 1948 H 186.927 -3.82195 -4.46319 0
M  V30 1949 H 188.451 -3.22869 -5.18255 0
M  V30 1950 H 189.865 -4.62348 -3.38979 0
M  V30 1951 H 188.262 -5.25006 -2.9067 0
M  V30 1952 H 189.332 -4.54893 -1.67929 0
M  V30 1953 N 190.675 0.682077 -1.42076 0
M  V30 1954 C 191.924 1.43786 -1.41451 0
M  V30 1955 C 192.237 1.95574 -0.0317074 0
M  V30 1956 O 193.443 2.71326 0.0971462 0
M  V30 1957 C 191.899 2.60071 -2.48779 0
M  V30 1958 C 191.507 2.15013 -3.93031 0
M  V30 1959 C 193.251 3.37626 -2.57311 0
M  V30 1960 C 191.158 3.28336 -4.91883 0
M  V30 1961 H 190.088 0.540143 -0.526082 0
M  V30 1962 H 192.739 0.739157 -1.67955 0
M  V30 1963 H 191.121 3.32275 -2.15429 0
M  V30 1964 H 192.295 1.5001 -4.35699 0
M  V30 1965 H 190.61 1.50416 -3.88284 0
M  V30 1966 H 193.207 4.22012 -3.28345 0
M  V30 1967 H 193.55 3.83727 -1.61429 0
M  V30 1968 H 194.083 2.72488 -2.89819 0
M  V30 1969 H 190.822 2.87234 -5.89217 0
M  V30 1970 H 190.342 3.92145 -4.53853 0
M  V30 1971 H 192.021 3.93913 -5.13265 0
M  V30 1972 N 192.153 1.28127 0.917671 0
M  V30 1973 C 193.101 1.11569 2.04096 0
M  V30 1974 C 194.095 0.0360242 1.69362 0
M  V30 1975 O 195.301 0.194501 1.78946 0
M  V30 1976 H 191.676 0.344097 0.668656 0
M  V30 1977 H 193.647 2.06711 2.15205 0
M  V30 1978 C 192.396 0.790197 3.38602 0
M  V30 1979 H 191.719 1.61293 3.6582 0
M  V30 1980 H 193.159 0.714271 4.1794 0
M  V30 1981 C 191.618 -0.505897 3.3308 0
M  V30 1982 O 192.148 -1.53736 3.71117 0
M  V30 1983 N 190.354 -0.505193 2.86175 0
M  V30 1984 H 189.901 0.334621 2.55417 0
M  V30 1985 H 189.859 -1.37243 2.82863 0
M  V30 1986 N 193.631 -1.12557 1.10312 0
M  V30 1987 C 194.541 -2.21841 0.763142 0
M  V30 1988 C 195.557 -1.72354 -0.238801 0
M  V30 1989 O 196.733 -2.01249 -0.0778746 0
M  V30 1990 C 193.798 -3.46131 0.198632 0
M  V30 1991 C 192.859 -4.10464 1.25769 0
M  V30 1992 C 192.092 -5.28821 0.72002 0
M  V30 1993 O 192.315 -5.6859 -0.453993 0
M  V30 1994 O 191.249 -5.83437 1.47935 0
M  V30 1995 H 195.075 -2.53312 1.67532 0
M  V30 1996 H 192.66 -1.20867 0.878157 0
M  V30 1997 H 194.542 -4.2125 -0.112401 0
M  V30 1998 H 193.217 -3.16338 -0.686419 0
M  V30 1999 H 192.124 -3.3713 1.62156 0
M  V30 2000 H 193.457 -4.44408 2.11571 0
M  V30 2001 N 195.109 -0.891671 -1.2995 0
M  V30 2002 C 196.019 -0.367691 -2.31701 0
M  V30 2003 C 197.035 0.533486 -1.6562 0
M  V30 2004 O 198.211 0.424997 -1.96865 0
M  V30 2005 C 195.276 0.403406 -3.44345 0
M  V30 2006 C 194.337 -0.528328 -4.26037 0
M  V30 2007 C 193.57 0.206063 -5.33302 0
M  V30 2008 O 193.793 1.43119 -5.52153 0
M  V30 2009 O 192.727 -0.447281 -6.00236 0
M  V30 2010 H 196.553 -1.21163 -2.78484 0
M  V30 2011 H 194.138 -0.655725 -1.34241 0
M  V30 2012 H 196.02 0.839753 -4.12948 0
M  V30 2013 H 194.695 1.22354 -2.99685 0
M  V30 2014 H 193.602 -1.01362 -3.60106 0
M  V30 2015 H 194.935 -1.31465 -4.74318 0
M  V30 2016 N 196.587 1.43421 -0.653314 0
M  V30 2017 C 197.535 2.32546 0.0501531 0
M  V30 2018 C 198.529 1.48617 0.812985 0
M  V30 2019 O 199.735 1.64825 0.723375 0
M  V30 2020 H 196.11 0.751185 0.0350032 0
M  V30 2021 H 198.081 2.89602 -0.719261 0
M  V30 2022 C 196.83 3.32925 1.00279 0
M  V30 2023 H 196.153 3.97532 0.425236 0
M  V30 2024 H 197.593 3.9792 1.46409 0
M  V30 2025 C 196.052 2.63532 2.09886 0
M  V30 2026 O 196.582 2.45092 3.18265 0
M  V30 2027 N 194.788 2.22905 1.86445 0
M  V30 2028 H 194.335 2.38103 0.98309 0
M  V30 2029 H 194.293 1.76805 2.59976 0
M  V30 2030 N 198.065 0.39524 1.52563 0
M  V30 2031 C 198.975 -0.444232 2.30356 0
M  V30 2032 C 199.991 -1.06615 1.37511 0
M  V30 2033 O 201.167 -1.07067 1.70583 0
M  V30 2034 C 198.232 -1.55315 3.09964 0
M  V30 2035 C 197.293 -0.955734 4.18526 0
M  V30 2036 C 196.526 -2.01181 4.9433 0
M  V30 2037 O 196.749 -3.22781 4.70285 0
M  V30 2038 O 195.683 -1.62579 5.79527 0
M  V30 2039 H 199.509 0.189667 3.03107 0
M  V30 2040 H 197.094 0.1588 1.48554 0
M  V30 2041 H 198.976 -2.19724 3.59582 0
M  V30 2042 H 197.651 -2.17191 2.4002 0
M  V30 2043 H 196.558 -0.274743 3.7309 0
M  V30 2044 H 197.891 -0.381109 4.90722 0
M  V30 2045 N 199.544 -1.57102 0.125237 0
M  V30 2046 C 200.792 -1.95021 -0.530198 0
M  V30 2047 C 201.113 -1.00982 -1.66816 0
M  V30 2048 O 200.383 -0.0672693 -1.95784 0
M  V30 2049 H 198.963 -0.720046 -0.198853 0
M  V30 2050 H 201.625 -1.93916 0.19564 0
M  V30 2051 H 200.721 -2.98211 -0.920681 0
M  V30 2052 N 201.022 0.148545 -1.56898 0
M  V30 2053 C 202.269 0.861418 -1.83264 0
M  V30 2054 C 202.597 1.81239 -0.705883 0
M  V30 2055 O 201.852 1.93305 0.305212 0
M  V30 2056 C 202.151 1.67064 -3.1595 0
M  V30 2057 C 201.817 0.866591 -4.42494 0
M  V30 2058 C 200.479 0.644762 -4.76861 0
M  V30 2059 C 202.831 0.30418 -5.20312 0
M  V30 2060 C 200.159 -0.15021 -5.86508 0
M  V30 2061 C 202.511 -0.477824 -6.30793 0
M  V30 2062 C 201.175 -0.710244 -6.63711 0
M  V30 2063 H 200.445 0.315215 -0.670612 0
M  V30 2064 H 203.092 0.125142 -1.91091 0
M  V30 2065 H 201.397 2.47698 -3.03567 0
M  V30 2066 H 203.094 2.22566 -3.33565 0
M  V30 2067 H 199.684 1.04955 -4.15551 0
M  V30 2068 H 203.868 0.462844 -4.94137 0
M  V30 2069 H 199.124 -0.339796 -6.10455 0
M  V30 2070 H 203.298 -0.92076 -6.90286 0
M  V30 2071 H 200.925 -1.3281 -7.48509 0
M  V30 2072 N 202.5 1.5196 0.417844 0
M  V30 2073 C 203.74 1.67262 1.17486 0
M  V30 2074 C 204.104 0.38983 1.88001 0
M  V30 2075 O 205.305 0.418845 2.65517 0
M  V30 2076 C 203.576 2.85526 2.14965 0
M  V30 2077 S 205.135 3.21263 2.98891 0
M  V30 2078 H 201.953 0.589077 0.398132 0
M  V30 2079 H 204.555 1.89927 0.463452 0
M  V30 2080 H 203.259 3.77145 1.61833 0
M  V30 2081 H 202.79 2.65107 2.90657 0
M  V30 2082 H 204.805 2.69208 4.16823 0
M  V30 2083 N 203.978 -0.674533 1.42435 0
M  V30 2084 C 205.226 -1.43175 1.42637 0
M  V30 2085 C 205.547 -1.94951 0.0438992 0
M  V30 2086 O 204.817 -1.7308 -0.917607 0
M  V30 2087 H 203.397 -0.531307 0.525092 0
M  V30 2088 H 206.059 -0.797006 1.77859 0
M  V30 2089 H 205.155 -2.28463 2.12629 0
M  V30 2090 N 205.456 -1.28612 -0.910864 0
M  V30 2091 C 206.704 -1.15705 -1.65701 0
M  V30 2092 C 207.025 0.29416 -1.92769 0
M  V30 2093 O 206.295 1.20331 -1.54588 0
M  V30 2094 H 204.875 -0.425216 -0.614167 0
M  V30 2095 H 207.537 -1.61381 -1.0928 0
M  V30 2096 H 206.633 -1.6988 -2.61815 0
M  V30 2097 N 206.934 1.1197 -1.10907 0
M  V30 2098 C 208.162 1.87402 -0.876824 0
M  V30 2099 C 208.577 1.79894 0.573025 0
M  V30 2100 O 207.934 1.17629 1.39534 0
M  V30 2101 C 207.985 3.36428 -1.32282 0
M  V30 2102 O 207.706 3.43765 -2.71582 0
M  V30 2103 C 209.207 4.28783 -1.12518 0
M  V30 2104 H 206.427 0.592793 -0.314384 0
M  V30 2105 H 208.971 1.41649 -1.47499 0
M  V30 2106 H 207.126 3.79706 -0.768229 0
M  V30 2107 H 207.54 4.3652 -2.90776 0
M  V30 2108 H 209.014 5.31613 -1.48633 0
M  V30 2109 H 209.491 4.39153 -0.0642394 0
M  V30 2110 H 210.097 3.91291 -1.66648 0
M  V30 2111 N 208.412 0.89855 1.29475 0
M  V30 2112 C 209.661 0.519863 1.94885 0
M  V30 2113 C 209.974 -0.9383 1.71625 0
M  V30 2114 O 211.18 -1.42445 2.31131 0
M  V30 2115 C 209.636 0.878836 3.49005 0
M  V30 2116 C 209.244 2.35569 3.81066 0
M  V30 2117 C 210.988 0.570004 4.20656 0
M  V30 2118 C 208.895 2.65558 5.28425 0
M  V30 2119 H 207.825 0.190692 0.729488 0
M  V30 2120 H 210.476 1.09539 1.47219 0
M  V30 2121 H 208.858 0.232253 3.95318 0
M  V30 2122 H 210.032 3.04773 3.45616 0
M  V30 2123 H 208.347 2.63343 3.22552 0
M  V30 2124 H 210.944 0.770925 5.29113 0
M  V30 2125 H 211.287 -0.491404 4.1339 0
M  V30 2126 H 211.82 1.17438 3.8007 0
M  V30 2127 H 208.559 3.70493 5.40754 0
M  V30 2128 H 208.079 2.00977 5.65127 0
M  V30 2129 H 209.758 2.51765 5.96006 0
M  V30 2130 N 209.89 -1.43072 0.660911 0
M  V30 2131 C 210.82 -2.33497 -0.0122829 0
M  V30 2132 C 211.801 -1.49903 -0.803925 0
M  V30 2133 O 212.986 -1.78546 -0.763864 0
M  V30 2134 C 210.116 -3.33363 -0.973994 0
M  V30 2135 C 209.07 -4.27003 -0.291928 0
M  V30 2136 C 208.396 -5.16967 -1.36562 0
M  V30 2137 C 209.696 -5.15816 0.820462 0
M  V30 2138 H 211.39 -2.90038 0.742873 0
M  V30 2139 H 208.936 -1.39461 0.358688 0
M  V30 2140 H 210.889 -3.95524 -1.45392 0
M  V30 2141 H 209.613 -2.75095 -1.7604 0
M  V30 2142 H 208.272 -3.66217 0.167623 0
M  V30 2143 H 207.92 -4.55034 -2.14366 0
M  V30 2144 H 207.62 -5.80441 -0.914454 0
M  V30 2145 H 209.144 -5.82003 -1.84675 0
M  V30 2146 H 210.558 -5.71742 0.422366 0
M  V30 2147 H 208.955 -5.8805 1.19656 0
M  V30 2148 H 210.025 -4.55045 1.67518 0
M  V30 2149 N 211.368 -0.403325 -1.52352 0
M  V30 2150 C 212.593 0.176499 -2.06648 0
M  V30 2151 C 213.018 1.38577 -1.27193 0
M  V30 2152 O 212.376 1.7879 -0.300637 0
M  V30 2153 C 212.424 0.511061 -3.5696 0
M  V30 2154 O 211.528 1.60294 -3.79973 0
M  V30 2155 H 210.869 0.0167337 -0.663789 0
M  V30 2156 H 213.399 -0.574848 -1.96359 0
M  V30 2157 H 213.409 0.771362 -4.00642 0
M  V30 2158 H 212.084 -0.37296 -4.14224 0
M  V30 2159 H 210.661 1.33526 -3.48174 0
M  V30 2160 N 212.846 1.57033 -0.133567 0
M  V30 2161 C 213.756 2.19632 0.824564 0
M  V30 2162 C 214.772 1.17666 1.28182 0
M  V30 2163 O 215.948 1.50193 1.3418 0
M  V30 2164 C 213.013 2.79499 2.05137 0
M  V30 2165 C 212.074 3.96548 1.64464 0
M  V30 2166 C 211.307 4.5355 2.81297 0
M  V30 2167 O 211.53 4.09438 3.97136 0
M  V30 2168 O 210.464 5.44018 2.57542 0
M  V30 2169 H 214.29 3.01991 0.321766 0
M  V30 2170 H 211.875 1.49112 0.0927889 0
M  V30 2171 H 213.757 3.17602 2.7696 0
M  V30 2172 H 212.432 2.00162 2.54395 0
M  V30 2173 H 211.339 3.63186 0.897048 0
M  V30 2174 H 212.672 4.77364 1.19934 0
M  V30 2175 N 214.325 -0.140222 1.56975 0
M  V30 2176 C 215.572 -0.851687 1.83719 0
M  V30 2177 C 215.9 -1.80862 0.715485 0
M  V30 2178 O 215.155 -1.93464 -0.294956 0
M  V30 2179 C 215.454 -1.65386 3.16832 0
M  V30 2180 C 215.12 -0.843112 4.42947 0
M  V30 2181 C 213.782 -0.619464 4.77196 0
M  V30 2182 C 216.134 -0.276582 5.20466 0
M  V30 2183 C 213.462 0.181312 5.8642 0
M  V30 2184 C 215.814 0.51127 6.30531 0
M  V30 2185 C 214.478 0.745432 6.63325 0
M  V30 2186 H 213.748 -0.311654 0.672274 0
M  V30 2187 H 216.395 -0.115006 1.91154 0
M  V30 2188 H 214.7 -2.46084 3.04877 0
M  V30 2189 H 216.397 -2.20793 3.34741 0
M  V30 2190 H 212.987 -1.0275 4.16101 0
M  V30 2191 H 217.171 -0.436632 4.94376 0
M  V30 2192 H 212.427 0.372165 6.10266 0
M  V30 2193 H 216.601 0.957354 6.89788 0
M  V30 2194 H 214.228 1.36778 7.47794 0
M  V30 2195 N 215.803 -1.52179 -0.40978 0
M  V30 2196 C 217.033 -1.69807 -1.17682 0
M  V30 2197 C 217.441 -0.406908 -1.84773 0
M  V30 2198 O 216.784 0.626863 -1.72673 0
M  V30 2199 C 216.846 -2.77712 -2.2829 0
M  V30 2200 C 216.51 -4.19481 -1.81341 0
M  V30 2201 C 217.507 -5.03345 -1.30154 0
M  V30 2202 C 215.192 -4.65713 -1.88194 0
M  V30 2203 C 217.186 -6.31511 -0.864416 0
M  V30 2204 C 214.873 -5.93869 -1.44093 0
M  V30 2205 C 215.871 -6.76597 -0.933023 0
M  V30 2206 O 215.559 -8.02354 -0.49838 0
M  V30 2207 H 215.291 -0.572372 -0.359675 0
M  V30 2208 H 217.845 -1.99511 -0.488311 0
M  V30 2209 H 216.075 -2.43383 -3.00502 0
M  V30 2210 H 217.764 -2.83946 -2.90051 0
M  V30 2211 H 218.53 -4.68819 -1.24232 0
M  V30 2212 H 214.409 -4.01424 -2.26671 0
M  V30 2213 H 217.953 -6.96033 -0.467286 0
M  V30 2214 H 213.85 -6.27903 -1.49694 0
M  V30 2215 H 214.618 -8.16135 -0.621747 0
M  V30 2216 N 217.281 0.66697 -1.42791 0
M  V30 2217 C 218.53 1.42278 -1.42968 0
M  V30 2218 C 218.843 1.9553 -0.0524489 0
M  V30 2219 O 220.049 2.71414 0.068363 0
M  V30 2220 C 218.505 2.57418 -2.51524 0
M  V30 2221 C 218.113 2.10832 -3.9529 0
M  V30 2222 C 219.857 3.34878 -2.60877 0
M  V30 2223 C 217.764 3.23101 -4.95338 0
M  V30 2224 H 216.694 0.534533 -0.531781 0
M  V30 2225 H 219.345 0.721302 -1.68729 0
M  V30 2226 H 217.727 3.29971 -2.18941 0
M  V30 2227 H 218.901 1.4538 -4.37266 0
M  V30 2228 H 217.216 1.46289 -3.89857 0
M  V30 2229 H 219.813 4.18505 -3.32802 0
M  V30 2230 H 220.156 3.81993 -1.6549 0
M  V30 2231 H 220.689 2.69398 -2.92693 0
M  V30 2232 H 217.428 2.80969 -5.9223 0
M  V30 2233 H 216.948 3.87309 -4.57987 0
M  V30 2234 H 218.627 3.88447 -5.17415 0
M  V30 2235 N 218.759 1.29093 0.90403 0
M  V30 2236 C 219.689 1.16401 2.02418 0
M  V30 2237 C 220.67 0.0593085 1.69997 0
M  V30 2238 O 221.855 0.238021 1.92736 0
M  V30 2239 C 218.985 0.835233 3.37107 0
M  V30 2240 C 217.939 1.89578 3.83724 0
M  V30 2241 C 217.265 1.42041 5.15489 0
M  V30 2242 C 218.565 3.30394 4.04521 0
M  V30 2243 H 220.259 2.10109 2.13295 0
M  V30 2244 H 217.805 1.01157 1.02486 0
M  V30 2245 H 219.758 0.733169 4.14973 0
M  V30 2246 H 218.482 -0.137543 3.2631 0
M  V30 2247 H 217.141 1.98715 3.08071 0
M  V30 2248 H 216.789 0.436426 5.01103 0
M  V30 2249 H 216.489 2.12964 5.4765 0
M  V30 2250 H 218.013 1.33176 5.959 0
M  V30 2251 H 219.427 3.24123 4.72882 0
M  V30 2252 H 217.824 3.99237 4.48029 0
M  V30 2253 H 218.894 3.73692 3.09002 0
M  V30 2254 N 220.237 -1.11381 1.11499 0
M  V30 2255 C 221.465 -1.86934 0.88675 0
M  V30 2256 C 221.88 -1.80195 -0.563476 0
M  V30 2257 O 221.237 -1.18367 -1.38908 0
M  V30 2258 C 221.288 -3.35722 1.34064 0
M  V30 2259 O 221.009 -3.4232 2.73401 0
M  V30 2260 C 222.51 -4.2818 1.14791 0
M  V30 2261 H 219.73 -0.591117 0.317523 0
M  V30 2262 H 222.274 -1.40865 1.48248 0
M  V30 2263 H 220.429 -3.79294 0.788355 0
M  V30 2264 H 220.843 -4.34971 2.93087 0
M  V30 2265 H 222.317 -5.30817 1.5145 0
M  V30 2266 H 222.794 -4.39113 0.0875279 0
M  V30 2267 H 223.4 -3.90402 1.68721 0
M  V30 2268 N 221.715 -0.905404 -1.28997 0
M  V30 2269 C 222.678 -0.392253 -2.25819 0
M  V30 2270 C 223.678 0.476753 -1.5357 0
M  V30 2271 O 224.868 0.280994 -1.71919 0
M  V30 2272 C 222 0.438588 -3.38067 0
M  V30 2273 H 223.193 -1.24743 -2.72725 0
M  V30 2274 H 220.746 -0.684051 -1.40536 0
M  V30 2275 H 221.481 1.31352 -2.96508 0
M  V30 2276 H 221.266 -0.184167 -3.91667 0
M  V30 2277 H 222.756 0.78873 -4.10084 0
M  V30 2278 N 223.193 1.4272 -0.668489 0
M  V30 2279 C 224.156 2.292 0.00448567 0
M  V30 2280 C 225.156 1.43001 0.735339 0
M  V30 2281 O 226.346 1.64461 0.57429 0
M  V30 2282 C 223.478 3.25375 1.01705 0
M  V30 2283 H 224.671 2.90199 -0.756608 0
M  V30 2284 H 222.224 1.50254 -0.430506 0
M  V30 2285 H 222.959 2.69301 1.80686 0
M  V30 2286 H 222.744 3.88944 0.496463 0
M  V30 2287 H 224.234 3.90245 1.48655 0
M  V30 2288 N 224.671 0.411399 1.52136 0
M  V30 2289 C 225.621 -0.430376 2.23901 0
M  V30 2290 C 226.605 -1.0116 1.25121 0
M  V30 2291 O 227.797 -0.934044 1.50348 0
M  V30 2292 C 224.926 -1.54527 3.06556 0
M  V30 2293 C 224.012 -0.9747 4.12747 0
M  V30 2294 N 224.403 -0.130991 5.0563 0
M  V30 2295 C 222.701 -1.24497 4.28271 0
M  V30 2296 C 223.402 0.186689 5.814 0
M  V30 2297 N 222.378 -0.42304 5.41951 0
M  V30 2298 H 226.18 0.220509 2.93072 0
M  V30 2299 H 223.694 0.221952 1.60876 0
M  V30 2300 H 225.691 -2.16093 3.56524 0
M  V30 2301 H 224.351 -2.19875 2.38925 0
M  V30 2302 H 225.362 0.23349 5.17373 0
M  V30 2303 H 222.039 -1.89787 3.7187 0
M  V30 2304 H 223.429 0.871673 6.66222 0
M  V30 2305 N 226.149 -1.5696 0.141893 0
M  V30 2306 C 227.389 -1.9785 -0.513304 0
M  V30 2307 C 227.753 -1.02467 -1.62371 0
M  V30 2308 O 228.954 -1.32382 -2.33941 0
M  V30 2309 C 227.225 -3.42797 -1.01118 0
M  V30 2310 S 228.784 -4.05709 -1.67169 0
M  V30 2311 H 225.602 -0.691318 -0.166135 0
M  V30 2312 H 228.204 -1.94114 0.232398 0
M  V30 2313 H 226.908 -4.0995 -0.192179 0
M  V30 2314 H 226.439 -3.50235 -1.79162 0
M  V30 2315 H 228.454 -3.98342 -2.95868 0
M  V30 2316 N 227.627 0.131896 -1.57047 0
M  V30 2317 C 228.557 1.16384 -2.02428 0
M  V30 2318 C 229.538 1.43936 -0.90644 0
M  V30 2319 O 230.723 1.54599 -1.17528 0
M  V30 2320 C 227.853 2.49328 -2.4177 0
M  V30 2321 C 226.807 2.36266 -3.56879 0
M  V30 2322 C 226.133 3.74057 -3.8208 0
M  V30 2323 C 227.433 1.834 -4.89042 0
M  V30 2324 H 229.127 0.786433 -2.88887 0
M  V30 2325 H 226.673 0.376855 -1.38981 0
M  V30 2326 H 228.626 3.21759 -2.7212 0
M  V30 2327 H 227.35 2.88934 -1.52266 0
M  V30 2328 H 226.009 1.66286 -3.26718 0
M  V30 2329 H 225.657 4.11125 -2.89803 0
M  V30 2330 H 225.357 3.66174 -4.59554 0
M  V30 2331 H 226.881 4.48012 -4.1487 0
M  V30 2332 H 228.295 2.45636 -5.18011 0
M  V30 2333 H 226.692 1.8637 -5.70426 0
M  V30 2334 H 227.762 0.790662 -4.7841 0
M  V30 2335 N 229.106 1.52395 0.401703 0
M  V30 2336 C 230.336 1.70429 1.1678 0
M  V30 2337 C 230.744 0.416702 1.84554 0
M  V30 2338 O 230.087 -0.617697 1.73003 0
M  V30 2339 C 230.149 2.78919 2.26814 0
M  V30 2340 C 229.813 4.20437 1.79113 0
M  V30 2341 C 230.81 5.04028 1.27482 0
M  V30 2342 C 228.495 4.66704 1.85722 0
M  V30 2343 C 230.489 6.31961 0.830913 0
M  V30 2344 C 228.176 5.94625 1.40942 0
M  V30 2345 C 229.174 6.77082 0.897128 0
M  V30 2346 O 228.862 8.02607 0.455822 0
M  V30 2347 H 228.594 0.574272 0.356634 0
M  V30 2348 H 231.148 1.99767 0.477724 0
M  V30 2349 H 229.378 2.44973 2.99207 0
M  V30 2350 H 231.067 2.8548 2.88541 0
M  V30 2351 H 231.833 4.69471 1.21744 0
M  V30 2352 H 227.712 4.0262 2.24539 0
M  V30 2353 H 231.256 6.96271 0.430368 0
M  V30 2354 H 227.153 6.28688 1.46362 0
M  V30 2355 H 227.921 8.16453 0.578457 0
M  V30 2356 N 230.584 -0.659388 1.43143 0
M  V30 2357 C 231.516 -1.7849 1.43784 0
M  V30 2358 C 232.529 -1.5932 0.334787 0
M  V30 2359 O 233.718 -1.68155 0.598842 0
M  V30 2360 C 230.818 -3.15828 1.22906 0
M  V30 2361 C 229.991 -3.61711 2.45934 0
M  V30 2362 C 229.05 -4.77831 2.20371 0
M  V30 2363 O 228.076 -4.87586 2.93681 0
M  V30 2364 N 229.278 -5.67611 1.21647 0
M  V30 2365 H 232.043 -1.7842 2.40803 0
M  V30 2366 H 229.604 -0.84302 1.3822 0
M  V30 2367 H 231.596 -3.91189 1.03697 0
M  V30 2368 H 230.166 -3.10707 0.343542 0
M  V30 2369 H 229.386 -2.76861 2.80609 0
M  V30 2370 H 230.674 -3.89112 3.27825 0
M  V30 2371 H 230.072 -5.62397 0.610449 0
M  V30 2372 H 228.629 -6.42719 1.08423 0
M  V30 2373 N 232.062 -1.29571 -0.897171 0
M  V30 2374 C 233.025 -1.14913 -1.98312 0
M  V30 2375 C 234.025 -0.0838629 -1.60581 0
M  V30 2376 O 235.215 -0.331006 -1.71026 0
M  V30 2377 C 232.347 -0.757835 -3.3237 0
M  V30 2378 H 233.54 -2.11377 -2.12743 0
M  V30 2379 H 231.093 -1.12793 -1.08201 0
M  V30 2380 H 231.828 0.206837 -3.2364 0
M  V30 2381 H 231.613 -1.52755 -3.61121 0
M  V30 2382 H 233.103 -0.678408 -4.12053 0
M  V30 2383 N 233.54 1.10788 -1.12088 0
M  V30 2384 C 234.487 2.17025 -0.785407 0
M  V30 2385 C 235.457 1.64265 0.246191 0
M  V30 2386 O 236.642 1.90412 0.121584 0
M  V30 2387 C 233.782 3.44249 -0.242177 0
M  V30 2388 C 232.895 4.1098 -1.33115 0
M  V30 2389 C 232.03 5.25911 -0.747741 0
M  V30 2390 C 231.069 5.84538 -1.81609 0
M  V30 2391 N 230.206 6.90853 -1.25167 0
M  V30 2392 H 235.046 2.45066 -1.69548 0
M  V30 2393 H 232.583 1.20297 -0.846582 0
M  V30 2394 H 234.541 4.17101 0.0908026 0
M  V30 2395 H 233.171 3.16571 0.631072 0
M  V30 2396 H 232.223 3.36133 -1.78097 0
M  V30 2397 H 233.535 4.50601 -2.13917 0
M  V30 2398 H 232.689 6.056 -0.365216 0
M  V30 2399 H 231.428 4.87614 0.0915188 0
M  V30 2400 H 230.433 5.03522 -2.20785 0
M  V30 2401 H 231.658 6.249 -2.6585 0
M  V30 2402 H 229.604 6.54562 -0.434174 0
M  V30 2403 H 229.521 7.29166 -1.99633 0
M  V30 2404 H 230.789 7.7433 -0.896259 0
M  V30 2405 N 235.018 0.912232 1.28515 0
M  V30 2406 C 236.434 0.610159 1.47476 0
M  V30 2407 C 236.634 -0.844955 1.82928 0
M  V30 2408 O 235.69 -1.62416 1.93332 0
M  V30 2409 C 237.003 1.54675 2.57868 0
M  V30 2410 C 238.551 1.55331 2.71738 0
M  V30 2411 C 239.026 2.47649 3.85272 0
M  V30 2412 N 240.517 2.45767 3.92623 0
M  V30 2413 C 241.252 3.13896 4.79851 0
M  V30 2414 N 240.748 3.9135 5.71679 0
M  V30 2415 N 242.541 3.02991 4.73448 0
M  V30 2416 H 234.692 1.85318 1.03783 0
M  V30 2417 H 236.955 0.794777 0.516753 0
M  V30 2418 H 236.661 2.5841 2.38574 0
M  V30 2419 H 236.535 1.27671 3.54937 0
M  V30 2420 H 238.922 0.52335 2.90422 0
M  V30 2421 H 239.003 1.86378 1.75205 0
M  V30 2422 H 238.647 3.50745 3.67342 0
M  V30 2423 H 238.577 2.13904 4.81199 0
M  V30 2424 H 241.068 1.89503 3.26951 0
M  V30 2425 H 241.381 4.40359 6.35062 0
M  V30 2426 H 239.726 3.95455 5.71524 0
M  V30 2427 H 242.917 2.41987 4.007 0
M  V30 2428 H 243.09 3.5636 5.41213 0
M  V30 2429 N 236.496 -1.42363 0.676048 0
M  V30 2430 C 237.743 -2.01522 0.19883 0
M  V30 2431 C 238.071 -1.53456 -1.19505 0
M  V30 2432 O 237.326 -0.727967 -1.81657 0
M  V30 2433 C 237.625 -3.56929 0.183431 0
M  V30 2434 C 237.291 -4.24431 1.52215 0
M  V30 2435 C 235.953 -4.42585 1.8887 0
M  V30 2436 C 238.305 -4.62459 2.40377 0
M  V30 2437 C 235.633 -4.96039 3.13309 0
M  V30 2438 C 237.985 -5.17294 3.64129 0
M  V30 2439 C 236.649 -5.33661 4.00951 0
M  V30 2440 H 235.919 -0.737419 0.0727571 0
M  V30 2441 H 238.566 -1.70531 0.871281 0
M  V30 2442 H 236.871 -3.87594 -0.572532 0
M  V30 2443 H 238.568 -4.00486 -0.203035 0
M  V30 2444 H 235.158 -4.10661 1.22701 0
M  V30 2445 H 239.342 -4.48105 2.13343 0
M  V30 2446 H 234.598 -5.06896 3.41857 0
M  V30 2447 H 238.772 -5.45704 4.32644 0
M  V30 2448 H 236.399 -5.74845 4.9745 0
M  V30 2449 N 237.974 -0.419461 -1.51915 0
M  V30 2450 C 238.921 0.400927 -2.27291 0
M  V30 2451 C 239.891 1.03224 -1.30131 0
M  V30 2452 O 241.076 1.05455 -1.59009 0
M  V30 2453 C 238.216 1.50603 -3.10504 0
M  V30 2454 C 237.329 0.89462 -4.22635 0
M  V30 2455 C 236.464 1.97328 -4.93189 0
M  V30 2456 C 235.503 1.33935 -5.97267 0
M  V30 2457 N 234.64 2.3586 -6.61298 0
M  V30 2458 H 239.48 -0.248251 -2.96964 0
M  V30 2459 H 237.017 -0.134266 -1.46486 0
M  V30 2460 H 238.975 2.15783 -3.57062 0
M  V30 2461 H 237.605 2.12509 -2.42981 0
M  V30 2462 H 236.657 0.131583 -3.80172 0
M  V30 2463 H 237.969 0.391641 -4.9726 0
M  V30 2464 H 237.123 2.70211 -5.43204 0
M  V30 2465 H 235.862 2.50994 -4.18155 0
M  V30 2466 H 234.867 0.595896 -5.46561 0
M  V30 2467 H 236.092 0.810252 -6.74249 0
M  V30 2468 H 234.038 2.88639 -5.89087 0
M  V30 2469 H 233.955 1.90403 -7.3163 0
M  V30 2470 H 235.223 3.08282 -7.15949 0
M  V30 2471 N 239.452 1.56882 -0.150215 0
M  V30 2472 C 240.698 1.96518 0.500834 0
M  V30 2473 C 241.031 1.03527 1.64304 0
M  V30 2474 O 240.306 0.0782751 1.94342 0
M  V30 2475 C 240.589 3.45822 1.00395 0
M  V30 2476 C 240.442 4.49591 -0.136983 0
M  V30 2477 C 241.761 3.97704 1.88467 0
M  V30 2478 H 238.88 0.714535 0.18058 0
M  V30 2479 H 241.522 1.88577 -0.232091 0
M  V30 2480 H 239.672 3.5272 1.62851 0
M  V30 2481 H 241.344 4.5477 -0.77343 0
M  V30 2482 H 239.587 4.26441 -0.795652 0
M  V30 2483 H 240.258 5.51402 0.256815 0
M  V30 2484 H 242.734 3.93304 1.35834 0
M  V30 2485 H 241.61 5.0263 2.20578 0
M  V30 2486 H 241.871 3.40252 2.82279 0
M  V30 2487 N 240.93 -0.123565 1.57115 0
M  V30 2488 C 242.346 -0.476961 1.52306 0
M  V30 2489 C 242.546 -1.82109 0.86248 0
M  V30 2490 O 241.602 -2.48586 0.442884 0
M  V30 2491 C 242.915 -0.465661 2.97073 0
M  V30 2492 C 244.463 -0.549534 3.08138 0
M  V30 2493 C 244.938 -0.568669 4.54456 0
M  V30 2494 N 246.429 -0.630237 4.58892 0
M  V30 2495 C 247.164 -0.666415 5.69514 0
M  V30 2496 N 246.66 -0.660514 6.89644 0
M  V30 2497 N 248.453 -0.709077 5.5761 0
M  V30 2498 H 240.604 0.757198 1.98445 0
M  V30 2499 H 242.867 0.278808 0.906074 0
M  V30 2500 H 242.573 0.454232 3.48754 0
M  V30 2501 H 242.447 -1.29513 3.54269 0
M  V30 2502 H 244.834 -1.45985 2.56461 0
M  V30 2503 H 244.915 0.307532 2.53945 0
M  V30 2504 H 244.559 0.337581 5.06777 0
M  V30 2505 H 244.489 -1.44256 5.06456 0
M  V30 2506 H 246.98 -0.641146 3.72421 0
M  V30 2507 H 247.293 -0.690616 7.69708 0
M  V30 2508 H 245.638 -0.628012 6.92157 0
M  V30 2509 H 248.829 -0.711019 4.62668 0
M  V30 2510 H 249.002 -0.733804 6.43832 0
M  V30 2511 N 242.408 -1.52605 -0.393616 0
M  V30 2512 C 243.654 -1.67672 -1.14079 0
M  V30 2513 C 243.987 -0.413121 -1.89755 0
M  V30 2514 O 243.262 0.588952 -1.85369 0
M  V30 2515 C 243.545 -2.9088 -2.12276 0
M  V30 2516 C 243.398 -4.27329 -1.40394 0
M  V30 2517 C 244.717 -3.09628 -3.12759 0
M  V30 2518 H 241.836 -0.610168 -0.413356 0
M  V30 2519 H 244.478 -1.85193 -0.424696 0
M  V30 2520 H 242.628 -2.76073 -2.73342 0
M  V30 2521 H 244.3 -4.53894 -0.82327 0
M  V30 2522 H 242.543 -4.2802 -0.705801 0
M  V30 2523 H 243.214 -5.09615 -2.12123 0
M  V30 2524 H 245.69 -3.23436 -2.61779 0
M  V30 2525 H 244.566 -3.97322 -3.78717 0
M  V30 2526 H 244.827 -2.23637 -3.81365 0
M  V30 2527 N 243.887 0.651787 -1.4349 0
M  V30 2528 C 245.135 1.40888 -1.44897 0
M  V30 2529 C 245.456 1.94856 -0.0749086 0
M  V30 2530 O 244.726 1.74518 0.889956 0
M  V30 2531 H 243.306 0.522887 -0.533478 0
M  V30 2532 H 245.968 0.768609 -1.79104 0
M  V30 2533 H 245.064 2.25052 -2.16236 0
M  V30 2534 N 245.365 1.30045 0.890287 0
M  V30 2535 C 246.642 1.09227 1.62262 0
M  V30 2536 C 247.022 -0.360305 2.08002 0
M  V30 2537 O 246.37 -1.35084 1.84295 0
M  V30 2538 C 246.58 2.08835 2.79623 0
M  V30 2539 C 247.928 2.40266 3.50082 0
M  V30 2540 O 248.952 2.07104 2.89804 0
M  V30 2541 O 247.811 2.96967 4.58773 0
M  V30 2542 H 244.905 0.419132 0.712922 0
M  V30 2543 H 247.451 1.41451 0.937529 0
M  V30 2544 H 246.223 3.06633 2.43089 0
M  V30 2545 H 245.846 1.77397 3.55832 0
M  V30 2546 N 246.843 -1.10192 1.12674 0
M  V30 2547 C 248.259 -1.34235 0.863317 0
M  V30 2548 C 248.459 -1.95062 -0.505277 0
M  V30 2549 O 247.515 -2.19192 -1.25345 0
M  V30 2550 C 248.828 -2.2616 1.98172 0
M  V30 2551 C 250.376 -2.3969 2.0129 0
M  V30 2552 C 250.851 -3.34946 3.1237 0
M  V30 2553 N 252.342 -3.42515 3.11829 0
M  V30 2554 C 253.077 -4.16199 3.94419 0
M  V30 2555 N 252.573 -4.92747 4.87004 0
M  V30 2556 N 254.366 -4.11843 3.82547 0
M  V30 2557 H 246.517 -0.690798 2.00853 0
M  V30 2558 H 248.78 -0.366774 0.874174 0
M  V30 2559 H 248.486 -1.8868 2.96804 0
M  V30 2560 H 248.36 -3.26488 1.88906 0
M  V30 2561 H 250.747 -2.76438 1.03276 0
M  V30 2562 H 250.828 -1.39169 2.14629 0
M  V30 2563 H 250.472 -2.98923 4.10619 0
M  V30 2564 H 250.402 -4.35353 2.96269 0
M  V30 2565 H 252.893 -2.87926 2.44759 0
M  V30 2566 H 253.206 -5.46376 5.46528 0
M  V30 2567 H 251.551 -4.91862 4.91016 0
M  V30 2568 H 254.742 -3.51136 3.0955 0
M  V30 2569 H 254.915 -4.69007 4.47142 0
M  V30 2570 N 248.321 -0.919034 -1.28029 0
M  V30 2571 C 249.269 -0.401753 -2.29104 0
M  V30 2572 C 250.263 0.509354 -1.61561 0
M  V30 2573 O 251.469 0.390014 -1.75724 0
M  V30 2574 H 247.844 -0.111331 -0.743713 0
M  V30 2575 H 249.815 -1.2672 -2.70156 0
M  V30 2576 C 248.564 0.338148 -3.46052 0
M  V30 2577 H 247.887 -0.353732 -3.98232 0
M  V30 2578 H 249.327 0.664653 -4.18758 0
M  V30 2579 C 247.786 1.54798 -2.99231 0
M  V30 2580 O 248.316 2.64696 -3.02157 0
M  V30 2581 N 246.522 1.3968 -2.54829 0
M  V30 2582 H 246.069 0.502698 -2.52647 0
M  V30 2583 H 246.027 2.20755 -2.23863 0
M  V30 2584 N 249.799 1.42003 -0.683588 0
M  V30 2585 C 251.027 2.05746 -0.218182 0
M  V30 2586 C 251.442 1.51396 1.12804 0
M  V30 2587 O 250.799 0.657303 1.70252 0
M  V30 2588 C 250.85 3.61171 -0.154131 0
M  V30 2589 O 250.571 4.13508 -1.44716 0
M  V30 2590 C 252.072 4.42042 0.333713 0
M  V30 2591 H 249.292 0.662888 -0.10402 0
M  V30 2592 H 251.836 1.81987 -0.9328 0
M  V30 2593 H 249.991 3.84012 0.511231 0
M  V30 2594 H 250.405 5.07453 -1.32632 0
M  V30 2595 H 251.879 5.51028 0.327423 0
M  V30 2596 H 252.356 4.17269 1.37053 0
M  V30 2597 H 252.962 4.24239 -0.300222 0
M  V30 2598 N 251.277 0.427512 1.51691 0
M  V30 2599 C 252.187 -0.39527 2.31246 0
M  V30 2600 C 253.203 -1.03674 1.39742 0
M  V30 2601 O 254.379 -1.03425 1.72816 0
M  V30 2602 C 251.444 -1.48706 3.13189 0
M  V30 2603 C 250.505 -0.866743 4.20459 0
M  V30 2604 C 249.738 -1.90651 4.98486 0
M  V30 2605 O 249.961 -3.12733 4.77026 0
M  V30 2606 O 248.895 -1.5025 5.82845 0
M  V30 2607 H 252.721 0.253918 3.02637 0
M  V30 2608 H 250.306 0.190274 1.48183 0
M  V30 2609 H 252.188 -2.12047 3.64162 0
M  V30 2610 H 250.863 -2.12051 2.44573 0
M  V30 2611 H 249.77 -0.195544 3.73589 0
M  V30 2612 H 251.103 -0.276934 4.9142 0
M  V30 2613 N 252.755 -1.56801 0.158532 0
M  V30 2614 C 253.687 -2.14488 -0.807923 0
M  V30 2615 C 254.7 -1.09721 -1.20271 0
M  V30 2616 O 255.889 -1.36956 -1.14478 0
M  V30 2617 C 252.989 -2.66217 -2.09718 0
M  V30 2618 C 252.162 -3.95507 -1.86796 0
M  V30 2619 C 251.221 -4.3243 -2.99818 0
M  V30 2620 O 250.247 -5.00543 -2.71008 0
M  V30 2621 N 251.449 -3.92947 -4.27285 0
M  V30 2622 H 254.214 -2.98042 -0.314816 0
M  V30 2623 H 251.775 -1.61881 -0.0246692 0
M  V30 2624 H 253.767 -2.87924 -2.84398 0
M  V30 2625 H 252.337 -1.87324 -2.50257 0
M  V30 2626 H 251.557 -3.82309 -0.96089 0
M  V30 2627 H 252.845 -4.79972 -1.68833 0
M  V30 2628 H 252.243 -3.38087 -4.53557 0
M  V30 2629 H 250.8 -4.19681 -4.9871 0
M  V30 2630 N 254.233 0.115231 -1.57178 0
M  V30 2631 C 255.143 1.15994 -2.03918 0
M  V30 2632 C 256.159 1.45103 -0.960268 0
M  V30 2633 O 257.335 1.56144 -1.27204 0
M  V30 2634 C 254.4 2.46568 -2.43732 0
M  V30 2635 C 253.461 2.24822 -3.65723 0
M  V30 2636 C 252.694 3.4917 -4.03629 0
M  V30 2637 O 252.917 4.56623 -3.41835 0
M  V30 2638 O 251.851 3.39949 -4.96708 0
M  V30 2639 H 255.677 0.793019 -2.93164 0
M  V30 2640 H 253.262 0.3263 -1.45793 0
M  V30 2641 H 255.144 3.23492 -2.70057 0
M  V30 2642 H 253.819 2.82726 -1.57631 0
M  V30 2643 H 252.726 1.45744 -3.44542 0
M  V30 2644 H 254.059 1.93566 -4.52541 0
M  V30 2645 N 255.711 1.52812 0.385517 0
M  V30 2646 C 256.621 1.80766 1.49535 0
M  V30 2647 C 257.637 0.694651 1.59532 0
M  V30 2648 O 258.813 0.982611 1.75803 0
M  V30 2649 C 255.878 1.97381 2.85029 0
M  V30 2650 C 254.939 3.21295 2.84724 0
M  V30 2651 C 254.172 3.37108 4.13756 0
M  V30 2652 O 254.395 2.5765 5.08893 0
M  V30 2653 O 253.329 4.30378 4.20783 0
M  V30 2654 H 257.155 2.75015 1.28842 0
M  V30 2655 H 254.74 1.37946 0.573697 0
M  V30 2656 H 256.622 2.09996 3.65349 0
M  V30 2657 H 255.297 1.06322 3.05741 0
M  V30 2658 H 254.204 3.1412 2.03174 0
M  V30 2659 H 255.537 4.12212 2.68965 0
M  V30 2660 N 257.189 -0.644168 1.43834 0
M  V30 2661 C 258.437 -1.40117 1.45642 0
M  V30 2662 C 258.758 -1.94814 0.0852413 0
M  V30 2663 O 258.028 -1.74988 -0.880688 0
M  V30 2664 H 256.608 -0.52005 0.536243 0
M  V30 2665 H 259.27 -0.7591 1.7951 0
M  V30 2666 H 258.366 -2.23902 2.17427 0
M  V30 2667 N 258.668 -1.30515 -0.883378 0
M  V30 2668 C 259.916 -1.19194 -1.63209 0
M  V30 2669 C 260.237 0.253205 -1.93349 0
M  V30 2670 O 259.507 1.17025 -1.57105 0
M  V30 2671 H 258.087 -0.438148 -0.605009 0
M  V30 2672 H 260.749 -1.63663 -1.05832 0
M  V30 2673 H 259.845 -1.75396 -2.58153 0
M  V30 2674 N 260.146 1.09593 -1.13257 0
M  V30 2675 C 261.056 2.19739 -0.821691 0
M  V30 2676 C 262.072 1.72926 0.19302 0
M  V30 2677 O 263.248 2.01385 0.0244895 0
M  V30 2678 C 260.313 3.45482 -0.290333 0
M  V30 2679 C 259.374 4.06985 -1.36607 0
M  V30 2680 C 258.607 5.26726 -0.859975 0
M  V30 2681 O 258.83 5.69594 0.303082 0
M  V30 2682 O 257.764 5.7931 -1.63351 0
M  V30 2683 H 261.59 2.48781 -1.74189 0
M  V30 2684 H 259.175 1.18496 -0.909894 0
M  V30 2685 H 261.057 4.214 0.000674022 0
M  V30 2686 H 259.732 3.18047 0.602306 0
M  V30 2687 H 258.639 3.32712 -1.71037 0
M  V30 2688 H 259.972 4.38643 -2.23279 0
M  V30 2689 N 261.624 0.925811 1.2754 0
M  V30 2690 C 262.587 0.428129 2.25166 0
M  V30 2691 C 263.587 -0.452261 1.54309 0
M  V30 2692 O 264.777 -0.253608 1.72344 0
M  V30 2693 C 261.909 -0.384749 3.38722 0
M  V30 2694 H 263.102 1.29066 2.70706 0
M  V30 2695 H 260.655 0.706323 1.3943 0
M  V30 2696 H 261.39 -1.26618 2.98561 0
M  V30 2697 H 261.175 0.246454 3.91325 0
M  V30 2698 H 262.665 -0.723389 4.11287 0
M  V30 2699 N 263.102 -1.41638 0.69111 0
M  V30 2700 C 264.348 -2.01598 0.220519 0
M  V30 2701 C 264.681 -1.54594 -1.17535 0
M  V30 2702 O 263.956 -0.755177 -1.79241 0
M  V30 2703 C 264.239 -3.59062 0.273243 0
M  V30 2704 C 264.092 -4.16203 1.70573 0
M  V30 2705 C 265.411 -4.38546 -0.369457 0
M  V30 2706 H 262.53 -0.732468 0.0816045 0
M  V30 2707 H 265.172 -1.68445 0.878986 0
M  V30 2708 H 263.322 -3.87435 -0.287411 0
M  V30 2709 H 264.994 -3.98722 2.31989 0
M  V30 2710 H 263.237 -3.71414 2.2413 0
M  V30 2711 H 263.908 -5.25358 1.69419 0
M  V30 2712 H 266.384 -4.1596 0.107977 0
M  V30 2713 H 265.26 -5.48069 -0.302002 0
M  V30 2714 H 265.521 -4.17662 -1.44951 0
M  V30 2715 N 264.58 -0.43555 -1.51462 0
M  V30 2716 C 265.53 0.394701 -2.24558 0
M  V30 2717 C 266.514 0.99157 -1.26715 0
M  V30 2718 O 267.706 0.910007 -1.51815 0
M  V30 2719 C 264.835 1.4963 -3.08975 0
M  V30 2720 C 263.921 0.908912 -4.14246 0
M  V30 2721 N 264.312 0.0505335 -5.05775 0
M  V30 2722 C 262.61 1.17668 -4.30198 0
M  V30 2723 C 263.311 -0.279161 -5.8103 0
M  V30 2724 N 262.287 0.336767 -5.42556 0
M  V30 2725 H 266.089 -0.267106 -2.92684 0
M  V30 2726 H 263.603 -0.247518 -1.60503 0
M  V30 2727 H 265.6 2.10394 -3.59917 0
M  V30 2728 H 264.26 2.16046 -2.42393 0
M  V30 2729 H 265.271 -0.31577 -5.16936 0
M  V30 2730 H 261.948 1.83847 -3.74842 0
M  V30 2731 H 263.338 -0.977553 -6.64751 0
M  V30 2732 N 266.058 1.56714 -0.166846 0
M  V30 2733 C 266.968 2.21331 0.777791 0
M  V30 2734 C 267.984 1.20358 1.25658 0
M  V30 2735 O 269.16 1.53005 1.30964 0
M  V30 2736 C 266.225 2.83787 1.99163 0
M  V30 2737 C 265.286 3.99947 1.56016 0
M  V30 2738 C 264.519 4.59415 2.71613 0
M  V30 2739 O 264.742 4.17769 3.88362 0
M  V30 2740 O 263.676 5.49359 2.45945 0
M  V30 2741 H 267.502 3.02605 0.257636 0
M  V30 2742 H 265.087 1.49275 0.0611393 0
M  V30 2743 H 266.969 3.23405 2.70161 0
M  V30 2744 H 265.644 2.05513 2.50092 0
M  V30 2745 H 264.551 3.65007 0.819809 0
M  V30 2746 H 265.884 4.79801 1.09782 0
M  V30 2747 N 267.536 -0.106894 1.57237 0
M  V30 2748 C 268.782 -0.81373 1.85759 0
M  V30 2749 C 269.115 -1.78952 0.754315 0
M  V30 2750 O 268.39 -1.93029 -0.23879 0
M  V30 2751 C 268.673 -1.55293 3.24894 0
M  V30 2752 C 268.526 -0.595929 4.45835 0
M  V30 2753 C 269.845 -2.5063 3.61763 0
M  V30 2754 H 266.964 -0.294369 0.67566 0
M  V30 2755 H 269.606 -0.0776472 1.89841 0
M  V30 2756 H 267.756 -2.1804 3.21544 0
M  V30 2757 H 269.428 0.0236262 4.61294 0
M  V30 2758 H 267.671 0.0916191 4.33703 0
M  V30 2759 H 268.342 -1.15004 5.39887 0
M  V30 2760 H 270.818 -1.97982 3.65981 0
M  V30 2761 H 269.694 -2.99376 4.60071 0
M  V30 2762 H 269.955 -3.3385 2.89821 0
M  V30 2763 N 269.014 -1.53014 -0.377408 0
M  V30 2764 C 269.924 -1.81557 -1.48574 0
M  V30 2765 C 270.94 -0.703102 -1.59162 0
M  V30 2766 O 272.116 -0.99192 -1.75279 0
M  V30 2767 C 269.181 -1.9889 -2.83978 0
M  V30 2768 C 268.242 -3.22801 -2.83016 0
M  V30 2769 C 267.475 -3.39298 -4.11962 0
M  V30 2770 O 267.698 -2.60345 -5.0752 0
M  V30 2771 O 266.632 -4.32604 -4.18494 0
M  V30 2772 H 270.458 -2.75695 -1.27382 0
M  V30 2773 H 268.043 -1.38248 -0.566373 0
M  V30 2774 H 269.925 -2.11931 -3.6423 0
M  V30 2775 H 268.6 -1.07942 -3.05172 0
M  V30 2776 H 267.507 -3.15193 -2.01505 0
M  V30 2777 H 268.84 -4.13632 -2.66775 0
M  V30 2778 N 270.492 0.636531 -1.44174 0
M  V30 2779 C 271.738 1.39826 -1.4689 0
M  V30 2780 C 272.071 1.93947 -0.0990585 0
M  V30 2781 O 271.346 1.73325 0.882544 0
M  V30 2782 C 271.629 2.56751 -2.5249 0
M  V30 2783 C 271.482 2.08014 -3.98811 0
M  V30 2784 C 272.801 3.58946 -2.54649 0
M  V30 2785 H 269.92 0.507075 -0.53483 0
M  V30 2786 H 272.562 0.720188 -1.75822 0
M  V30 2787 H 270.712 3.14597 -2.2795 0
M  V30 2788 H 272.384 1.5504 -4.34466 0
M  V30 2789 H 270.627 1.39242 -4.10846 0
M  V30 2790 H 271.298 2.92169 -4.68339 0
M  V30 2791 H 273.774 3.1089 -2.76563 0
M  V30 2792 H 272.65 4.38286 -3.3045 0
M  V30 2793 H 272.911 4.12655 -1.58646 0
M  V30 2794 N 271.97 1.30982 0.876444 0
M  V30 2795 C 273.216 1.20474 1.63138 0
M  V30 2796 C 273.549 -0.238096 1.92735 0
M  V30 2797 O 272.824 -1.1692 1.55435 0
M  V30 2798 C 273.107 2.04244 2.96574 0
M  V30 2799 C 272.96 3.56793 2.73896 0
M  V30 2800 C 274.279 1.88684 3.97601 0
M  V30 2801 H 271.398 0.439001 0.591985 0
M  V30 2802 H 274.04 1.60704 1.01361 0
M  V30 2803 H 272.19 1.70063 3.493 0
M  V30 2804 H 273.862 4.01077 2.27892 0
M  V30 2805 H 272.105 3.80548 2.08245 0
M  V30 2806 H 272.776 4.10706 3.68815 0
M  V30 2807 H 275.252 2.18584 3.54062 0
M  V30 2808 H 274.128 2.4961 4.88862 0
M  V30 2809 H 274.389 0.848343 4.33884 0
M  V30 2810 N 273.449 -1.08991 1.13837 0
M  V30 2811 C 274.698 -1.80631 0.897509 0
M  V30 2812 C 275.011 -1.86872 -0.57777 0
M  V30 2813 O 276.217 -2.54866 -0.935701 0
M  V30 2814 C 274.673 -3.24517 1.55618 0
M  V30 2815 C 274.281 -3.26529 3.0673 0
M  V30 2816 C 276.025 -4.00882 1.3962 0
M  V30 2817 C 273.932 -4.64965 3.65461 0
M  V30 2818 H 272.862 -0.67691 0.332129 0
M  V30 2819 H 275.513 -1.2246 1.3666 0
M  V30 2820 H 273.895 -3.82778 1.01476 0
M  V30 2821 H 275.069 -2.78008 3.67489 0
M  V30 2822 H 273.384 -2.63656 3.22296 0
M  V30 2823 H 275.981 -5.03167 1.80906 0
M  V30 2824 H 276.324 -4.14896 0.341578 0
M  V30 2825 H 276.857 -3.49075 1.90766 0
M  V30 2826 H 273.596 -4.56153 4.70749 0
M  V30 2827 H 273.116 -5.13792 3.09481 0
M  V30 2828 H 274.795 -5.3394 3.654 0
M  V30 2829 N 274.927 -0.932562 -1.27047 0
M  V30 2830 C 275.874 -0.434072 -2.26681 0
M  V30 2831 C 276.844 0.501639 -1.58344 0
M  V30 2832 O 278.029 0.419734 -1.86126 0
M  V30 2833 C 275.169 0.30261 -3.43771 0
M  V30 2834 C 274.282 -0.667774 -4.26808 0
M  V30 2835 C 273.417 0.0892393 -5.31125 0
M  V30 2836 C 272.456 -0.873532 -6.05835 0
M  V30 2837 N 271.593 -0.148832 -7.01942 0
M  V30 2838 H 276.433 -1.28868 -2.68695 0
M  V30 2839 H 273.97 -0.646713 -1.32121 0
M  V30 2840 H 275.928 0.746092 -4.10474 0
M  V30 2841 H 274.558 1.12142 -3.02695 0
M  V30 2842 H 273.61 -1.22978 -3.59973 0
M  V30 2843 H 274.922 -1.40337 -4.78651 0
M  V30 2844 H 274.076 0.592409 -6.03801 0
M  V30 2845 H 272.815 0.85777 -4.80097 0
M  V30 2846 H 271.82 -1.38791 -5.31994 0
M  V30 2847 H 273.045 -1.64193 -6.58952 0
M  V30 2848 H 270.991 0.601365 -6.53238 0
M  V30 2849 H 270.908 -0.82391 -7.51497 0
M  V30 2850 H 272.176 0.333527 -7.78786 0
M  V30 2851 N 276.405 1.4127 -0.698611 0
M  V30 2852 C 277.355 2.27997 -0.0119836 0
M  V30 2853 C 278.339 1.42363 0.749765 0
M  V30 2854 O 279.531 1.65607 0.624758 0
M  V30 2855 C 276.66 3.30702 0.921458 0
M  V30 2856 C 275.746 4.23814 0.155796 0
M  V30 2857 N 276.137 4.98572 -0.852015 0
M  V30 2858 C 274.435 4.44284 0.390836 0
M  V30 2859 C 275.136 5.66744 -1.3106 0
M  V30 2860 N 274.112 5.39867 -0.635944 0
M  V30 2861 H 277.914 2.83232 -0.784649 0
M  V30 2862 H 275.428 1.53518 -0.529711 0
M  V30 2863 H 277.425 3.91661 1.42854 0
M  V30 2864 H 276.085 2.77028 1.69369 0
M  V30 2865 H 277.096 5.03024 -1.23235 0
M  V30 2866 H 273.773 4.01614 1.14071 0
M  V30 2867 H 275.163 6.36672 -2.14707 0
M  V30 2868 N 277.883 0.443576 1.51229 0
M  V30 2869 C 278.831 -0.37904 2.29491 0
M  V30 2870 C 279.825 -1.0153 1.35603 0
M  V30 2871 O 281.031 -0.94955 1.52917 0
M  V30 2872 H 277.406 -0.141053 0.738653 0
M  V30 2873 H 279.377 0.301799 2.9687 0
M  V30 2874 C 278.126 -1.46426 3.15364 0
M  V30 2875 H 277.449 -0.984037 3.87501 0
M  V30 2876 H 278.889 -2.01297 3.7317 0
M  V30 2877 C 277.348 -2.45099 2.31146 0
M  V30 2878 O 277.878 -3.49773 1.9754 0
M  V30 2879 N 276.084 -2.16139 1.94249 0
M  V30 2880 H 275.631 -1.31044 2.21777 0
M  V30 2881 H 275.589 -2.82398 1.38198 0
M  V30 2882 N 279.361 -1.56624 0.175154 0
M  V30 2883 C 280.777 -1.58571 -0.180966 0
M  V30 2884 C 280.977 -1.19065 -1.6256 0
M  V30 2885 O 280.033 -0.904044 -2.35761 0
M  V30 2886 C 281.346 -3.00522 0.103326 0
M  V30 2887 C 282.894 -3.12972 0.0418426 0
M  V30 2888 C 283.369 -4.57022 0.299175 0
M  V30 2889 N 284.86 -4.62541 0.247086 0
M  V30 2890 C 285.595 -5.71857 0.420318 0
M  V30 2891 N 285.091 -6.89717 0.652816 0
M  V30 2892 N 286.884 -5.60972 0.355957 0
M  V30 2893 H 279.035 -1.80589 1.11809 0
M  V30 2894 H 281.298 -0.837178 0.444788 0
M  V30 2895 H 281.004 -3.33916 1.10422 0
M  V30 2896 H 280.878 -3.72344 -0.603299 0
M  V30 2897 H 283.265 -2.79403 -0.949636 0
M  V30 2898 H 283.346 -2.43578 0.781238 0
M  V30 2899 H 282.99 -4.913 1.28788 0
M  V30 2900 H 282.92 -5.24579 -0.460876 0
M  V30 2901 H 285.411 -3.77829 0.0731895 0
M  V30 2902 H 285.724 -7.68911 0.774347 0
M  V30 2903 H 284.069 -6.91572 0.689476 0
M  V30 2904 H 287.26 -4.67773 0.174882 0
M  V30 2905 H 287.433 -6.46111 0.494388 0
M  V30 2906 N 280.839 0.0985539 -1.57292 0
M  V30 2907 C 282.086 0.802678 -1.85912 0
M  V30 2908 C 282.414 1.78901 -0.763186 0
M  V30 2909 O 281.669 1.94178 0.243559 0
M  V30 2910 C 281.968 1.56927 -3.21105 0
M  V30 2911 C 281.634 0.725376 -4.45027 0
M  V30 2912 C 280.296 0.492726 -4.78671 0
M  V30 2913 C 282.648 0.138493 -5.21016 0
M  V30 2914 C 279.976 -0.336727 -5.85733 0
M  V30 2915 C 282.328 -0.678264 -6.28953 0
M  V30 2916 C 280.992 -0.921039 -6.61115 0
M  V30 2917 H 280.262 0.293721 -0.680301 0
M  V30 2918 H 282.909 0.0642841 -1.91392 0
M  V30 2919 H 281.214 2.37914 -3.11294 0
M  V30 2920 H 282.911 2.11841 -3.40477 0
M  V30 2921 H 279.501 0.916815 -4.18679 0
M  V30 2922 H 283.685 0.305404 -4.95359 0
M  V30 2923 H 278.941 -0.533836 -6.09065 0
M  V30 2924 H 283.115 -1.1399 -6.87007 0
M  V30 2925 H 280.742 -1.56556 -7.43905 0
M  V30 2926 N 282.317 1.53212 0.369288 0
M  V30 2927 C 283.545 1.73119 1.13303 0
M  V30 2928 C 283.96 0.458455 1.83149 0
M  V30 2929 O 283.317 -0.568403 1.73423 0
M  V30 2930 C 283.368 2.89413 2.16616 0
M  V30 2931 O 283.089 4.11761 1.49614 0
M  V30 2932 C 284.59 3.21161 3.05566 0
M  V30 2933 H 281.81 0.579107 0.338934 0
M  V30 2934 H 284.354 1.99942 0.429338 0
M  V30 2935 H 282.509 2.64994 2.82589 0
M  V30 2936 H 282.923 4.76858 2.18419 0
M  V30 2937 H 284.397 4.05949 3.74045 0
M  V30 2938 H 284.874 2.36369 3.70171 0
M  V30 2939 H 285.48 3.47492 2.45213 0
M  V30 2940 N 283.795 -0.628877 1.44509 0
M  V30 2941 C 284.742 -1.74074 1.51549 0
M  V30 2942 C 285.712 -1.62084 0.363021 0
M  V30 2943 O 286.897 -1.81975 0.573567 0
M  V30 2944 C 284.037 -3.12328 1.46784 0
M  V30 2945 C 283.15 -3.35277 2.72422 0
M  V30 2946 C 282.285 -4.63515 2.59475 0
M  V30 2947 C 281.324 -4.7965 3.80266 0
M  V30 2948 N 280.461 -5.99168 3.65981 0
M  V30 2949 H 285.301 -1.67392 2.46544 0
M  V30 2950 H 282.838 -0.816527 1.22357 0
M  V30 2951 H 284.796 -3.92286 1.42012 0
M  V30 2952 H 283.426 -3.18018 0.553544 0
M  V30 2953 H 282.478 -2.49242 2.87372 0
M  V30 2954 H 283.79 -3.43078 3.62076 0
M  V30 2955 H 282.944 -5.51638 2.52548 0
M  V30 2956 H 281.683 -4.58076 1.67384 0
M  V30 2957 H 280.688 -3.89957 3.87574 0
M  V30 2958 H 281.913 -4.86902 4.73395 0
M  V30 2959 H 279.859 -5.94814 2.76644 0
M  V30 2960 H 279.776 -6.08035 4.49254 0
M  V30 2961 H 281.044 -6.89846 3.6295 0
M  V30 2962 N 285.273 -1.31445 -0.869486 0
M  V30 2963 C 286.183 -1.21097 -2.0093 0
M  V30 2964 C 287.199 -0.127584 -1.73532 0
M  V30 2965 O 288.375 -0.345477 -1.98415 0
M  V30 2966 C 285.44 -0.919378 -3.34288 0
M  V30 2967 C 284.501 -2.08971 -3.75006 0
M  V30 2968 C 283.734 -1.81194 -5.02001 0
M  V30 2969 O 283.957 -0.747296 -5.65484 0
M  V30 2970 O 282.891 -2.66883 -5.39497 0
M  V30 2971 H 286.717 -2.16883 -2.12592 0
M  V30 2972 H 284.302 -1.11189 -0.997868 0
M  V30 2973 H 286.184 -0.772625 -4.14257 0
M  V30 2974 H 284.859 0.00844772 -3.23699 0
M  V30 2975 H 283.766 -2.29187 -2.95676 0
M  V30 2976 H 285.099 -2.9998 -3.90221 0
M  V30 2977 N 286.751 1.08385 -1.14413 0
M  V30 2978 C 287.979 1.84517 -0.936001 0
M  V30 2979 C 288.394 1.81626 0.515503 0
M  V30 2980 O 287.751 1.22008 1.35721 0
M  V30 2981 C 287.802 3.32049 -1.42918 0
M  V30 2982 O 287.523 3.34951 -2.82381 0
M  V30 2983 C 289.024 4.24986 -1.26103 0
M  V30 2984 H 286.244 0.582491 -0.333084 0
M  V30 2985 H 288.788 1.36885 -1.5193 0
M  V30 2986 H 286.943 3.7707 -0.888641 0
M  V30 2987 H 287.357 4.27048 -3.04517 0
M  V30 2988 H 288.831 5.26615 -1.6547 0
M  V30 2989 H 289.308 4.38726 -0.20392 0
M  V30 2990 H 289.914 3.85791 -1.79012 0
M  V30 2991 N 288.23 0.939286 1.26551 0
M  V30 2992 C 289.46 0.601663 1.97645 0
M  V30 2993 C 289.868 -0.827206 1.70159 0
M  V30 2994 O 289.211 -1.56291 0.965338 0
M  V30 2995 C 289.273 0.761725 3.51337 0
M  V30 2996 C 288.937 2.16487 4.0247 0
M  V30 2997 C 289.934 3.14016 4.14355 0
M  V30 2998 C 287.619 2.48494 4.36527 0
M  V30 2999 C 289.613 4.41654 4.59587 0
M  V30 3000 C 287.3 3.76364 4.81449 0
M  V30 3001 C 288.298 4.72758 4.92939 0
M  V30 3002 O 287.986 5.98352 5.36871 0
M  V30 3003 H 287.718 0.225758 0.637189 0
M  V30 3004 H 290.272 1.26178 1.62075 0
M  V30 3005 H 288.502 0.0444808 3.86674 0
M  V30 3006 H 290.191 0.427442 4.03643 0
M  V30 3007 H 290.957 2.90613 3.8829 0
M  V30 3008 H 286.836 1.74202 4.26819 0
M  V30 3009 H 290.38 5.16896 4.68471 0
M  V30 3010 H 286.277 3.99582 5.06956 0
M  V30 3011 H 287.045 6.01507 5.55096 0
M  V30 3012 N 289.708 -1.40897 0.706093 0
M  V30 3013 C 290.985 -1.94868 0.169099 0
M  V30 3014 C 291.365 -1.64485 -1.32318 0
M  V30 3015 O 290.713 -0.95744 -2.07474 0
M  V30 3016 C 290.923 -3.45798 0.471654 0
M  V30 3017 C 292.271 -4.22663 0.405127 0
M  V30 3018 O 293.295 -3.53865 0.407168 0
M  V30 3019 O 292.154 -5.45216 0.374383 0
M  V30 3020 H 289.248 -0.82673 0.0211352 0
M  V30 3021 H 291.794 -1.50558 0.782976 0
M  V30 3022 H 290.566 -3.61235 1.50416 0
M  V30 3023 H 290.189 -3.97225 -0.172666 0
M  V30 3024 N 291.186 -0.45159 -1.50991 0
M  V30 3025 C 292.433 0.110074 -2.02201 0
M  V30 3026 C 292.761 1.4146 -1.33489 0
M  V30 3027 O 292.016 1.90617 -0.443125 0
M  V30 3028 C 292.315 0.361728 -3.55565 0
M  V30 3029 C 291.981 -0.858717 -4.42648 0
M  V30 3030 C 290.643 -1.19338 -4.66167 0
M  V30 3031 C 292.995 -1.67221 -4.93646 0
M  V30 3032 C 290.323 -2.34195 -5.37931 0
M  V30 3033 C 292.675 -2.8119 -5.6667 0
M  V30 3034 C 291.339 -3.15094 -5.88449 0
M  V30 3035 H 290.609 0.040279 -0.739904 0
M  V30 3036 H 293.256 -0.601696 -1.81802 0
M  V30 3037 H 291.561 1.15554 -3.74372 0
M  V30 3038 H 293.258 0.80996 -3.92735 0
M  V30 3039 H 289.848 -0.58796 -4.24548 0
M  V30 3040 H 294.032 -1.42686 -4.75347 0
M  V30 3041 H 289.288 -2.6076 -5.53005 0
M  V30 3042 H 293.462 -3.44585 -6.05173 0
M  V30 3043 H 291.089 -4.04204 -6.43835 0
M  V30 3044 N 292.664 1.56529 -0.183458 0
M  V30 3045 C 293.941 1.88959 0.50536 0
M  V30 3046 C 294.321 1.09523 1.80466 0
M  V30 3047 O 293.669 0.19278 2.27685 0
M  V30 3048 C 293.879 3.41162 0.73547 0
M  V30 3049 C 295.227 4.11155 1.06005 0
M  V30 3050 O 296.251 3.46548 0.823594 0
M  V30 3051 O 295.11 5.25318 1.50675 0
M  V30 3052 H 292.204 0.78441 0.261973 0
M  V30 3053 H 294.75 1.68231 -0.222802 0
M  V30 3054 H 293.522 3.90874 -0.182561 0
M  V30 3055 H 293.145 3.67543 1.51651 0
M  V30 3056 N 294.142 -0.090211 1.57342 0
M  V30 3057 C 295.391 -0.791531 1.8552 0
M  V30 3058 C 295.704 -1.79659 0.773441 0
M  V30 3059 O 296.91 -2.54616 0.942497 0
M  V30 3060 C 295.366 -1.45856 3.2902 0
M  V30 3061 C 294.974 -0.493017 4.45279 0
M  V30 3062 C 296.718 -2.14332 3.66418 0
M  V30 3063 C 294.625 -1.16491 5.79814 0
M  V30 3064 H 293.555 -0.299356 0.692027 0
M  V30 3065 H 296.206 -0.0445343 1.83446 0
M  V30 3066 H 294.588 -2.25318 3.2565 0
M  V30 3067 H 295.762 0.270464 4.60006 0
M  V30 3068 H 294.077 0.0863061 4.16311 0
M  V30 3069 H 296.674 -2.65344 4.64216 0
M  V30 3070 H 297.017 -2.93447 2.95287 0
M  V30 3071 H 297.55 -1.41724 3.71698 0
M  V30 3072 H 294.289 -0.41447 6.54188 0
M  V30 3073 H 293.809 -1.8997 5.68921 0
M  V30 3074 H 295.488 -1.69001 6.24538 0
M  V30 3075 N 295.62 -1.53406 -0.361157 0
M  V30 3076 C 296.583 -1.79479 -1.42548 0
M  V30 3077 C 297.583 -0.665327 -1.4639 0
M  V30 3078 O 298.773 -0.933549 -1.47073 0
M  V30 3079 C 295.905 -1.92087 -2.8163 0
M  V30 3080 H 297.098 -2.74538 -1.20701 0
M  V30 3081 H 294.651 -1.4455 -0.594546 0
M  V30 3082 H 295.386 -0.991099 -3.08784 0
M  V30 3083 H 295.171 -2.74241 -2.80239 0
M  V30 3084 H 296.661 -2.13836 -3.58697 0
M  V30 3085 N 297.098 0.621204 -1.44841 0
M  V30 3086 C 298.344 1.3826 -1.48365 0
M  V30 3087 C 298.677 1.93831 -0.119624 0
M  V30 3088 O 297.952 1.74251 0.864111 0
M  V30 3089 C 298.235 2.54058 -2.55199 0
M  V30 3090 C 298.088 2.03772 -4.00995 0
M  V30 3091 C 299.407 3.56225 -2.58442 0
M  V30 3092 H 296.526 0.501374 -0.540179 0
M  V30 3093 H 299.168 0.7015 -1.76576 0
M  V30 3094 H 297.318 3.12162 -2.31274 0
M  V30 3095 H 298.99 1.50423 -4.36086 0
M  V30 3096 H 297.233 1.34876 -4.12299 0
M  V30 3097 H 297.904 2.87185 -4.71411 0
M  V30 3098 H 300.38 3.07939 -2.79844 0
M  V30 3099 H 299.256 4.34756 -3.3508 0
M  V30 3100 H 299.517 4.10949 -1.63013 0
M  V30 3101 N 298.576 1.31904 0.862503 0
M  V30 3102 C 299.506 1.22782 1.98612 0
M  V30 3103 C 300.487 0.113362 1.69722 0
M  V30 3104 O 301.672 0.299218 1.91881 0
M  V30 3105 C 298.802 0.942058 3.34279 0
M  V30 3106 C 297.756 2.0169 3.77499 0
M  V30 3107 C 297.082 1.58369 5.10709 0
M  V30 3108 C 298.382 3.43096 3.93805 0
M  V30 3109 H 300.076 2.16788 2.06502 0
M  V30 3110 H 297.622 1.04366 0.992154 0
M  V30 3111 H 299.575 0.864818 4.1243 0
M  V30 3112 H 298.299 -0.0336603 3.26583 0
M  V30 3113 H 296.958 2.08416 3.01593 0
M  V30 3114 H 296.606 0.595628 4.99461 0
M  V30 3115 H 296.306 2.30279 5.40597 0
M  V30 3116 H 297.83 1.52067 5.91361 0
M  V30 3117 H 299.244 3.39003 4.62331 0
M  V30 3118 H 297.641 4.13288 4.35101 0
M  V30 3119 H 298.711 3.83334 2.96957 0
M  V30 3120 N 300.054 -1.07777 1.14986 0
M  V30 3121 C 301.47 -1.32373 0.891596 0
M  V30 3122 C 301.67 -1.9609 -0.463788 0
M  V30 3123 O 300.726 -2.21801 -1.20667 0
M  V30 3124 C 302.039 -2.21905 2.02925 0
M  V30 3125 C 303.587 -2.35367 2.06329 0
M  V30 3126 C 304.062 -3.28245 3.19405 0
M  V30 3127 N 305.553 -3.35824 3.19024 0
M  V30 3128 C 306.288 -4.07739 4.03158 0
M  V30 3129 N 305.784 -4.82306 4.97346 0
M  V30 3130 N 307.577 -4.03635 3.91197 0
M  V30 3131 H 299.728 -0.648039 2.02273 0
M  V30 3132 H 301.991 -0.348149 0.881757 0
M  V30 3133 H 301.697 -1.82342 3.0074 0
M  V30 3134 H 301.571 -3.22407 1.95789 0
M  V30 3135 H 303.958 -2.74186 1.09116 0
M  V30 3136 H 304.039 -1.34585 2.17533 0
M  V30 3137 H 303.683 -2.90146 4.16867 0
M  V30 3138 H 303.613 -4.28971 3.05437 0
M  V30 3139 H 306.104 -2.8267 2.50811 0
M  V30 3140 H 306.417 -5.34661 5.57994 0
M  V30 3141 H 304.762 -4.81337 5.01338 0
M  V30 3142 H 307.953 -3.44491 3.16928 0
M  V30 3143 H 308.126 -4.59417 4.5699 0
M  V30 3144 N 301.532 -0.945985 -1.26051 0
M  V30 3145 C 302.462 -0.477172 -2.28572 0
M  V30 3146 C 303.443 0.472032 -1.63419 0
M  V30 3147 O 304.628 0.372853 -1.90587 0
M  V30 3148 C 301.758 0.253975 -3.4637 0
M  V30 3149 C 300.712 -0.609135 -4.23643 0
M  V30 3150 C 300.038 0.252252 -5.34105 0
M  V30 3151 C 301.338 -1.8829 -4.8718 0
M  V30 3152 H 303.032 -1.33402 -2.68038 0
M  V30 3153 H 300.578 -0.642904 -1.28852 0
M  V30 3154 H 302.531 0.593016 -4.17207 0
M  V30 3155 H 301.255 1.145 -3.05871 0
M  V30 3156 H 299.914 -0.931138 -3.54578 0
M  V30 3157 H 299.562 1.14278 -4.89846 0
M  V30 3158 H 299.262 -0.32188 -5.86718 0
M  V30 3159 H 300.786 0.586454 -6.07777 0
M  V30 3160 H 302.2 -1.61081 -5.50205 0
M  V30 3161 H 300.597 -2.40199 -5.49931 0
M  V30 3162 H 301.667 -2.59134 -4.09851 0
M  V30 3163 N 303.011 1.40521 -0.713556 0
M  V30 3164 C 303.958 2.30723 -0.059684 0
M  V30 3165 C 304.928 1.48079 0.752448 0
M  V30 3166 O 306.113 1.76823 0.71681 0
M  V30 3167 C 303.253 3.34274 0.857594 0
M  V30 3168 C 302.366 4.31986 0.0351536 0
M  V30 3169 C 301.501 5.22605 0.951724 0
M  V30 3170 C 300.54 6.11976 0.123253 0
M  V30 3171 N 299.677 6.9502 0.99459 0
M  V30 3172 H 304.517 2.86074 -0.834596 0
M  V30 3173 H 302.054 1.40879 -0.42326 0
M  V30 3174 H 304.012 3.92879 1.40364 0
M  V30 3175 H 302.642 2.8043 1.59871 0
M  V30 3176 H 301.694 3.7518 -0.628052 0
M  V30 3177 H 303.006 4.95101 -0.606347 0
M  V30 3178 H 302.16 5.86131 1.56638 0
M  V30 3179 H 300.899 4.59759 1.62705 0
M  V30 3180 H 299.904 5.47482 -0.50435 0
M  V30 3181 H 301.129 6.76881 -0.548539 0
M  V30 3182 H 299.075 6.34764 1.6556 0
M  V30 3183 H 298.992 7.54892 0.40908 0
M  V30 3184 H 300.26 7.62997 1.59549 0
M  V30 3185 N 304.489 0.459591 1.5075 0
M  V30 3186 C 305.717 -0.0973749 2.06671 0
M  V30 3187 C 306.132 -1.34524 1.32472 0
M  V30 3188 O 305.489 -1.7827 0.390634 0
M  V30 3189 C 305.54 -0.39714 3.59312 0
M  V30 3190 O 305.261 0.801214 4.30711 0
M  V30 3191 C 306.762 -1.00234 4.31819 0
M  V30 3192 H 303.982 0.00195854 0.670997 0
M  V30 3193 H 306.526 0.645072 1.94059 0
M  V30 3194 H 304.681 -1.08951 3.71764 0
M  V30 3195 H 305.095 0.538857 5.21725 0
M  V30 3196 H 306.569 -1.16193 5.39632 0
M  V30 3197 H 307.046 -1.98939 3.91561 0
M  V30 3198 H 307.652 -0.348699 4.23868 0
M  V30 3199 N 305.967 -1.56429 0.191757 0
M  V30 3200 C 307.378 -1.83912 -0.321428 0
M  V30 3201 C 307.729 -1.11231 -1.61623 0
M  V30 3202 O 306.854 -0.37202 -2.13178 0
M  V30 3203 C 307.449 -3.33624 -0.589961 0
M  V30 3204 C 306.008 -3.6153 -1.04753 0
M  V30 3205 C 305.155 -2.7714 -0.0943327 0
M  V30 3206 H 308.106 -1.53161 0.415612 0
M  V30 3207 H 308.127 -3.52213 -1.43966 0
M  V30 3208 H 307.639 -3.86495 0.352588 0
M  V30 3209 H 305.74 -3.14089 -2.00447 0
M  V30 3210 H 305.853 -4.69737 -0.942549 0
M  V30 3211 H 304.217 -2.47638 -0.595589 0
M  V30 3212 H 305 -3.32799 0.842601 0
M  V30 3213 N 307.445 0.0818655 -1.57387 0
M  V30 3214 C 308.694 0.781681 -1.85937 0
M  V30 3215 C 309.007 1.79246 -0.782957 0
M  V30 3216 O 310.213 2.54112 -0.955987 0
M  V30 3217 C 308.669 1.44109 -3.29789 0
M  V30 3218 C 308.277 0.469396 -4.45534 0
M  V30 3219 C 310.021 2.12386 -3.67549 0
M  V30 3220 C 307.928 1.13415 -5.80423 0
M  V30 3221 H 306.858 0.295682 -0.693605 0
M  V30 3222 H 309.509 0.0348051 -1.83467 0
M  V30 3223 H 307.891 2.23588 -3.2684 0
M  V30 3224 H 309.065 -0.294856 -4.59856 0
M  V30 3225 H 307.38 -0.108383 -4.16259 0
M  V30 3226 H 309.977 2.62878 -4.65617 0
M  V30 3227 H 310.32 2.91877 -2.96839 0
M  V30 3228 H 310.853 1.39751 -3.72444 0
M  V30 3229 H 307.592 0.379771 -6.54399 0
M  V30 3230 H 307.112 1.8695 -5.69921 0
M  V30 3231 H 308.791 1.65686 -6.25426 0
M  V30 3232 N 308.923 1.53595 0.353017 0
M  V30 3233 C 310.151 1.74311 1.1146 0
M  V30 3234 C 310.566 0.477854 1.82653 0
M  V30 3235 O 309.923 -0.549977 1.74016 0
M  V30 3236 C 309.974 2.91694 2.13534 0
M  V30 3237 O 309.695 4.13325 1.45238 0
M  V30 3238 C 311.196 3.24384 3.02142 0
M  V30 3239 H 308.416 0.582669 0.332773 0
M  V30 3240 H 310.96 2.00386 0.408107 0
M  V30 3241 H 309.115 2.67977 2.79763 0
M  V30 3242 H 309.529 4.79148 2.13349 0
M  V30 3243 H 311.003 4.09893 3.69718 0
M  V30 3244 H 311.48 2.40282 3.67643 0
M  V30 3245 H 312.086 3.50073 2.41514 0
M  V30 3246 N 310.401 -0.613514 1.45168 0
M  V30 3247 C 311.648 -1.37268 1.48875 0
M  V30 3248 C 311.976 -1.94077 0.128161 0
M  V30 3249 O 311.231 -1.75178 -0.872416 0
M  V30 3250 C 311.53 -2.54347 2.51083 0
M  V30 3251 C 311.196 -2.1572 3.95949 0
M  V30 3252 C 309.858 -2.04899 4.35396 0
M  V30 3253 C 312.21 -1.85485 4.87078 0
M  V30 3254 C 309.538 -1.62057 5.63875 0
M  V30 3255 C 311.89 -1.4413 6.15962 0
M  V30 3256 C 310.554 -1.31863 6.54346 0
M  V30 3257 H 309.824 -0.502299 0.544773 0
M  V30 3258 H 312.471 -0.694021 1.78481 0
M  V30 3259 H 310.776 -3.27524 2.15024 0
M  V30 3260 H 312.473 -3.12577 2.51191 0
M  V30 3261 H 309.063 -2.25066 3.64751 0
M  V30 3262 H 313.247 -1.92745 4.57343 0
M  V30 3263 H 308.503 -1.51177 5.92415 0
M  V30 3264 H 312.677 -1.19778 6.86022 0
M  V30 3265 H 310.304 -0.984392 7.538 0
M  V30 3266 N 311.879 -1.3236 -0.855495 0
M  V30 3267 C 313.295 -1.11332 -1.14356 0
M  V30 3268 C 313.495 0.106751 -2.01217 0
M  V30 3269 O 312.551 0.791891 -2.39761 0
M  V30 3270 C 313.864 -2.39237 -1.82171 0
M  V30 3271 C 315.412 -2.44986 -1.9481 0
M  V30 3272 C 315.887 -3.7281 -2.66039 0
M  V30 3273 N 317.378 -3.73787 -2.73565 0
M  V30 3274 C 318.113 -4.69394 -3.29327 0
M  V30 3275 N 317.609 -5.75367 -3.85907 0
M  V30 3276 N 319.402 -4.56893 -3.27423 0
M  V30 3277 H 311.553 -2.10586 -0.277027 0
M  V30 3278 H 313.816 -0.929701 -0.185364 0
M  V30 3279 H 313.522 -3.28431 -1.25802 0
M  V30 3280 H 313.396 -2.50134 -2.82335 0
M  V30 3281 H 315.783 -1.56252 -2.50338 0
M  V30 3282 H 315.864 -2.38043 -0.936448 0
M  V30 3283 H 315.508 -4.61918 -2.11174 0
M  V30 3284 H 315.438 -3.77024 -3.67642 0
M  V30 3285 H 317.929 -2.97189 -2.33424 0
M  V30 3286 H 318.242 -6.44378 -4.26611 0
M  V30 3287 H 316.587 -5.79123 -3.84242 0
M  V30 3288 H 319.778 -3.73269 -2.82467 0
M  V30 3289 H 319.951 -5.31577 -3.7058 0
M  V30 3290 N 313.357 1.07166 -1.15556 0
M  V30 3291 C 314.29 2.13808 -0.797593 0
M  V30 3292 C 315.268 1.6101 0.226812 0
M  V30 3293 O 316.452 1.88161 0.112932 0
M  V30 3294 C 313.579 3.38187 -0.186371 0
M  V30 3295 C 312.625 4.09766 -1.18297 0
M  V30 3296 S 313.458 4.60932 -2.72584 0
M  V30 3297 C 314.614 5.88583 -2.12886 0
M  V30 3298 H 314.847 2.43843 -1.70083 0
M  V30 3299 H 312.38 1.19467 -0.978106 0
M  V30 3300 H 314.338 4.10189 0.159837 0
M  V30 3301 H 312.999 3.06326 0.694489 0
M  V30 3302 H 312.192 4.99065 -0.703562 0
M  V30 3303 H 311.794 3.43736 -1.47381 0
M  V30 3304 H 314.086 6.60866 -1.49208 0
M  V30 3305 H 315.029 6.41241 -3.0036 0
M  V30 3306 H 315.437 5.42194 -1.57116 0
M  V30 3307 N 314.835 0.952656 1.25548 0
M  V30 3308 C 315.783 0.462354 2.27958 0
M  V30 3309 C 316.777 -0.46634 1.62855 0
M  V30 3310 O 317.983 -0.343287 1.76696 0
M  V30 3311 H 314.358 0.13101 0.7405 0
M  V30 3312 H 316.329 1.33839 2.66702 0
M  V30 3313 C 315.078 -0.24628 3.46827 0
M  V30 3314 H 314.401 0.459192 3.97154 0
M  V30 3315 H 315.841 -0.553393 4.20373 0
M  V30 3316 C 314.3 -1.4681 3.0323 0
M  V30 3317 O 314.83 -2.56591 3.09069 0
M  V30 3318 N 313.036 -1.32874 2.58443 0
M  V30 3319 H 312.583 -0.435536 2.53891 0
M  V30 3320 H 312.541 -2.14742 2.29637 0
M  V30 3321 N 316.313 -1.40141 0.720998 0
M  V30 3322 C 317.559 -2.01084 0.263231 0
M  V30 3323 C 317.892 -1.57052 -1.14229 0
M  V30 3324 O 317.167 -0.793027 -1.77599 0
M  V30 3325 C 317.45 -3.58401 0.349344 0
M  V30 3326 C 317.303 -4.12491 1.79363 0
M  V30 3327 C 318.622 -4.39231 -0.276351 0
M  V30 3328 H 315.741 -0.730572 0.0971228 0
M  V30 3329 H 318.383 -1.66543 0.914518 0
M  V30 3330 H 316.533 -3.87958 -0.205165 0
M  V30 3331 H 318.205 -3.93711 2.40394 0
M  V30 3332 H 316.448 -3.66576 2.31958 0
M  V30 3333 H 317.119 -5.21646 1.80524 0
M  V30 3334 H 319.595 -4.15637 0.196184 0
M  V30 3335 H 318.471 -5.48586 -0.185681 0
M  V30 3336 H 318.732 -4.20643 -1.36059 0
M  V30 3337 N 317.792 -0.46758 -1.50504 0
M  V30 3338 C 318.755 0.317059 -2.26996 0
M  V30 3339 C 319.755 0.923513 -1.31635 0
M  V30 3340 O 320.945 0.793239 -1.55091 0
M  V30 3341 C 318.077 1.45134 -3.08462 0
M  V30 3342 H 319.27 -0.353723 -2.97807 0
M  V30 3343 H 316.823 -0.221545 -1.54722 0
M  V30 3344 H 317.558 2.15728 -2.4214 0
M  V30 3345 H 317.343 1.02232 -3.78538 0
M  V30 3346 H 318.833 2.00493 -3.66323 0
M  V30 3347 N 319.27 1.56325 -0.20005 0
M  V30 3348 C 320.681 1.8408 0.31167 0
M  V30 3349 C 321.032 1.12087 1.61031 0
M  V30 3350 O 320.157 0.38332 2.12978 0
M  V30 3351 C 320.752 3.33932 0.57226 0
M  V30 3352 C 319.311 3.6208 1.02834 0
M  V30 3353 C 318.458 2.77186 0.079634 0
M  V30 3354 H 321.409 1.52939 -0.423729 0
M  V30 3355 H 321.43 3.52971 1.42096 0
M  V30 3356 H 320.942 3.86303 -0.37308 0
M  V30 3357 H 319.043 3.15147 1.98778 0
M  V30 3358 H 319.156 4.7023 0.917624 0
M  V30 3359 H 317.52 2.47951 0.582448 0
M  V30 3360 H 318.303 3.32347 -0.860238 0
M  V30 3361 N 320.748 -0.0735177 1.57428 0
M  V30 3362 C 321.711 -1.07192 2.02589 0
M  V30 3363 C 322.711 -1.31695 0.922661 0
M  V30 3364 O 323.901 -1.27445 1.18758 0
M  V30 3365 C 321.033 -2.41599 2.40506 0
M  V30 3366 H 322.226 -0.682727 2.92025 0
M  V30 3367 H 319.779 -0.319193 1.53006 0
M  V30 3368 H 320.514 -2.85354 1.5409 0
M  V30 3369 H 320.299 -2.25156 3.21009 0
M  V30 3370 H 321.789 -3.13367 2.76027 0
M  V30 3371 N 322.226 -1.5378 -0.344866 0
M  V30 3372 C 323.466 -1.72677 -1.09371 0
M  V30 3373 C 323.83 -0.479084 -1.85927 0
M  V30 3374 O 325.031 -0.54505 -2.63216 0
M  V30 3375 C 323.302 -2.95457 -2.01097 0
M  V30 3376 S 324.861 -3.35158 -2.83222 0
M  V30 3377 H 321.679 -0.607402 -0.369573 0
M  V30 3378 H 324.281 -1.91922 -0.372307 0
M  V30 3379 H 322.985 -3.84437 -1.43655 0
M  V30 3380 H 322.516 -2.78673 -2.77678 0
M  V30 3381 H 324.531 -2.88789 -4.03504 0
M  V30 3382 N 323.704 0.605807 -1.45491 0
M  V30 3383 C 324.634 1.72709 -1.57143 0
M  V30 3384 C 325.615 1.6476 -0.422884 0
M  V30 3385 O 326.8 1.83132 -0.646247 0
M  V30 3386 C 323.93 3.11316 -1.53948 0
M  V30 3387 C 322.884 3.34077 -2.67537 0
M  V30 3388 C 322.21 4.72975 -2.49397 0
M  V30 3389 C 323.51 3.24158 -4.09535 0
M  V30 3390 H 325.204 1.63214 -2.51001 0
M  V30 3391 H 322.75 0.78379 -1.208 0
M  V30 3392 H 324.703 3.89557 -1.60696 0
M  V30 3393 H 323.427 3.21655 -0.566205 0
M  V30 3394 H 322.086 2.58227 -2.6022 0
M  V30 3395 H 321.734 4.8005 -1.50205 0
M  V30 3396 H 321.434 4.8916 -3.25571 0
M  V30 3397 H 322.958 5.53414 -2.58002 0
M  V30 3398 H 324.372 3.92271 -4.18086 0
M  V30 3399 H 322.769 3.51872 -4.86113 0
M  V30 3400 H 323.839 2.2157 -4.31317 0
M  V30 3401 N 325.182 1.32811 0.848464 0
M  V30 3402 C 326.593 1.21315 1.41914 0
M  V30 3403 C 326.944 -0.171847 1.95446 0
M  V30 3404 O 326.069 -1.07093 1.88043 0
M  V30 3405 C 326.664 2.19631 2.57968 0
M  V30 3406 C 325.223 2.12003 3.11017 0
M  V30 3407 C 324.37 2.07651 1.83783 0
M  V30 3408 H 327.321 1.44549 0.655071 0
M  V30 3409 H 327.342 1.79845 3.35315 0
M  V30 3410 H 326.854 3.20423 2.18976 0
M  V30 3411 H 324.955 1.14481 3.54577 0
M  V30 3412 H 325.068 3.02111 3.71841 0
M  V30 3413 H 323.432 1.52983 2.03638 0
M  V30 3414 H 324.215 3.10235 1.47 0
M  V30 3415 N 326.66 -1.06551 1.16123 0
M  V30 3416 C 327.57 -2.17484 0.879662 0
M  V30 3417 C 328.586 -1.73377 -0.147104 0
M  V30 3418 O 329.762 -2.01379 0.0289128 0
M  V30 3419 C 326.827 -3.44591 0.381829 0
M  V30 3420 C 325.888 -4.0322 1.4735 0
M  V30 3421 C 325.121 -5.24261 0.999324 0
M  V30 3422 O 325.344 -5.70198 -0.151957 0
M  V30 3423 O 324.278 -5.74775 1.78653 0
M  V30 3424 H 328.104 -2.44075 1.80724 0
M  V30 3425 H 325.689 -1.16042 0.940992 0
M  V30 3426 H 327.571 -4.21254 0.111053 0
M  V30 3427 H 326.246 -3.19532 -0.51777 0
M  V30 3428 H 325.153 -3.2806 1.79798 0
M  V30 3429 H 326.486 -4.32568 2.34831 0
M  V30 3430 N 328.138 -0.959301 -1.25041 0
M  V30 3431 C 329.554 -0.664474 -1.4511 0
M  V30 3432 C 329.754 0.776481 -1.85938 0
M  V30 3433 O 328.81 1.55128 -1.99227 0
M  V30 3434 C 330.123 -1.64139 -2.5195 0
M  V30 3435 C 331.671 -1.65309 -2.65786 0
M  V30 3436 C 332.146 -2.61777 -3.75815 0
M  V30 3437 N 333.637 -2.60169 -3.83231 0
M  V30 3438 C 334.372 -3.31489 -4.6787 0
M  V30 3439 N 333.868 -4.12298 -5.56761 0
M  V30 3440 N 335.661 -3.20354 -4.61876 0
M  V30 3441 H 327.812 -1.89043 -0.968332 0
M  V30 3442 H 330.075 -0.813408 -0.4869 0
M  V30 3443 H 329.781 -2.67086 -2.28819 0
M  V30 3444 H 329.655 -1.40756 -3.49954 0
M  V30 3445 H 332.042 -0.630778 -2.8828 0
M  V30 3446 H 332.123 -1.92753 -1.68167 0
M  V30 3447 H 331.767 -3.64137 -3.54071 0
M  V30 3448 H 331.697 -2.31616 -4.72929 0
M  V30 3449 H 334.188 -2.01507 -3.19692 0
M  V30 3450 H 334.501 -4.63625 -6.18281 0
M  V30 3451 H 332.846 -4.16395 -5.56454 0
M  V30 3452 H 336.037 -2.56692 -3.91442 0
M  V30 3453 H 336.21 -3.76201 -5.27614 0
M  V30 3454 N 329.616 1.39756 -0.72842 0
M  V30 3455 C 330.893 1.94574 -0.200079 0
M  V30 3456 C 331.273 1.66569 1.29684 0
M  V30 3457 O 330.621 0.990326 2.05924 0
M  V30 3458 C 330.831 3.45004 -0.526608 0
M  V30 3459 C 332.179 4.21965 -0.472318 0
M  V30 3460 O 333.203 3.53173 -0.463413 0
M  V30 3461 O 332.062 5.44552 -0.461075 0
M  V30 3462 H 329.156 0.826289 -0.0342851 0
M  V30 3463 H 331.702 1.49293 -0.806829 0
M  V30 3464 H 330.474 3.58796 -1.56144 0
M  V30 3465 H 330.097 3.97449 0.109449 0
M  V30 3466 N 331.094 0.475555 1.50254 0
M  V30 3467 C 332.34 -0.0701075 2.03279 0
M  V30 3468 C 332.695 -1.37007 1.35081 0
M  V30 3469 O 331.988 -1.8577 0.469052 0
M  V30 3470 C 332.182 -0.305114 3.56095 0
M  V30 3471 C 332.011 0.970515 4.39103 0
M  V30 3472 C 330.781 1.51509 4.82051 0
M  V30 3473 C 332.979 1.8671 4.79212 0
M  V30 3474 N 330.961 2.73928 5.49397 0
M  V30 3475 C 332.332 2.93715 5.46014 0
M  V30 3476 C 334.387 1.87695 4.61167 0
M  V30 3477 C 333.09 4.01699 5.96683 0
M  V30 3478 C 335.116 2.94637 5.12779 0
M  V30 3479 C 334.478 4.00361 5.79561 0
M  V30 3480 H 330.577 0.014486 0.781866 0
M  V30 3481 H 333.161 0.644755 1.83714 0
M  V30 3482 H 331.332 -0.989019 3.75597 0
M  V30 3483 H 333.064 -0.845516 3.95769 0
M  V30 3484 H 329.819 1.06367 4.61501 0
M  V30 3485 H 330.243 3.36109 5.87673 0
M  V30 3486 H 334.885 1.07273 4.08965 0
M  V30 3487 H 332.603 4.82934 6.4792 0
M  V30 3488 H 336.189 2.96388 5.00645 0
M  V30 3489 H 335.069 4.81751 6.18778 0
M  V30 3490 N 332.573 -1.56217 0.208337 0
M  V30 3491 C 333.536 -2.18455 -0.693557 0
M  V30 3492 C 334.536 -1.14268 -1.13135 0
M  V30 3493 O 335.726 -1.39577 -1.0423 0
M  V30 3494 C 332.858 -2.79727 -1.94848 0
M  V30 3495 H 334.051 -2.99519 -0.15114 0
M  V30 3496 H 331.604 -1.56245 -0.041287 0
M  V30 3497 H 332.339 -2.02497 -2.53309 0
M  V30 3498 H 332.124 -3.56009 -1.64316 0
M  V30 3499 H 333.614 -3.27475 -2.59133 0
M  V30 3500 N 334.051 0.0651679 -1.57465 0
M  V30 3501 C 334.961 1.09448 -2.07505 0
M  V30 3502 C 335.977 1.41974 -1.00595 0
M  V30 3503 O 337.153 1.52018 -1.32107 0
M  V30 3504 C 334.218 2.38689 -2.51453 0
M  V30 3505 C 333.279 2.13073 -3.72691 0
M  V30 3506 C 332.512 3.36152 -4.14533 0
M  V30 3507 O 332.735 4.45517 -3.56189 0
M  V30 3508 O 331.669 3.23974 -5.07272 0
M  V30 3509 H 335.495 0.69935 -2.95538 0
M  V30 3510 H 333.08 0.279752 -1.46757 0
M  V30 3511 H 334.962 3.14736 -2.80212 0
M  V30 3512 H 333.637 2.77568 -1.66546 0
M  V30 3513 H 332.544 1.34709 -3.49005 0
M  V30 3514 H 333.877 1.79071 -4.5847 0
M  V30 3515 N 335.529 1.53961 0.336706 0
M  V30 3516 C 336.754 1.75797 1.10046 0
M  V30 3517 C 337.179 0.498985 1.81361 0
M  V30 3518 O 336.537 -0.548769 1.72795 0
M  V30 3519 C 336.585 2.94257 2.08436 0
M  V30 3520 O 335.689 2.64883 3.16087 0
M  V30 3521 H 335.03 0.582936 0.317934 0
M  V30 3522 H 337.56 2.00945 0.38501 0
M  V30 3523 H 337.57 3.21237 2.51537 0
M  V30 3524 H 336.245 3.85564 1.55927 0
M  V30 3525 H 334.822 2.48812 2.77753 0
M  V30 3526 N 337.007 -0.598083 1.45811 0
M  V30 3527 C 338.235 -1.38322 1.53866 0
M  V30 3528 C 338.65 -1.87992 0.174479 0
M  V30 3529 O 338.007 -1.62756 -0.825627 0
M  V30 3530 C 338.058 -2.58125 2.53089 0
M  V30 3531 O 337.779 -2.10516 3.84206 0
M  V30 3532 C 339.28 -3.50869 2.70935 0
M  V30 3533 H 336.5 -0.423093 0.520801 0
M  V30 3534 H 339.044 -0.728527 1.91083 0
M  V30 3535 H 337.199 -3.19615 2.18917 0
M  V30 3536 H 337.613 -2.88425 4.38077 0
M  V30 3537 H 339.087 -4.31451 3.44317 0
M  V30 3538 H 339.564 -4.01822 1.77301 0
M  V30 3539 H 340.17 -2.95225 3.06141 0
M  V30 3540 N 338.485 -1.33259 -0.841409 0
M  V30 3541 C 339.415 -1.25926 -1.96634 0
M  V30 3542 C 340.396 -0.140349 -1.6952 0
M  V30 3543 O 341.581 -0.329707 -1.91381 0
M  V30 3544 C 338.711 -0.99512 -3.32738 0
M  V30 3545 C 337.665 -2.0767 -3.74242 0
M  V30 3546 C 336.991 -1.66474 -5.08125 0
M  V30 3547 C 338.291 -3.49318 -3.88297 0
M  V30 3548 H 339.985 -2.20046 -2.03027 0
M  V30 3549 H 337.531 -1.05931 -0.975425 0
M  V30 3550 H 339.484 -0.930323 -4.11002 0
M  V30 3551 H 338.208 -0.0183004 -3.26595 0
M  V30 3552 H 336.867 -2.13187 -2.98239 0
M  V30 3553 H 336.515 -0.675012 -4.9845 0
M  V30 3554 H 336.215 -2.3885 -5.36865 0
M  V30 3555 H 337.739 -1.61455 -5.88867 0
M  V30 3556 H 339.153 -3.46316 -4.56879 0
M  V30 3557 H 337.55 -4.20158 -4.28471 0
M  V30 3558 H 338.62 -3.8801 -2.9082 0
M  V30 3559 N 339.963 1.05934 -1.16686 0
M  V30 3560 C 340.896 2.1295 -0.820225 0
M  V30 3561 C 341.874 1.61242 0.209722 0
M  V30 3562 O 343.058 1.88271 0.0929688 0
M  V30 3563 C 340.185 3.3797 -0.22223 0
M  V30 3564 C 339.231 4.08488 -1.22637 0
M  V30 3565 S 340.064 4.58015 -2.77457 0
M  V30 3566 C 341.22 5.86292 -2.19117 0
M  V30 3567 H 341.453 2.42025 -1.72659 0
M  V30 3568 H 338.986 1.18423 -0.990722 0
M  V30 3569 H 340.944 4.10335 0.116322 0
M  V30 3570 H 339.605 3.07045 0.66196 0
M  V30 3571 H 338.798 4.98291 -0.756455 0
M  V30 3572 H 338.4 3.42154 -1.51019 0
M  V30 3573 H 340.692 6.59246 -1.56209 0
M  V30 3574 H 341.635 6.38019 -3.07144 0
M  V30 3575 H 342.043 5.40497 -1.62858 0
M  V30 3576 N 341.441 0.965919 1.2453 0
M  V30 3577 C 342.669 0.644385 1.96609 0
M  V30 3578 C 343.084 -0.785823 1.71669 0
M  V30 3579 O 342.441 -1.52703 0.999399 0
M  V30 3580 C 342.492 0.907375 3.49927 0
M  V30 3581 O 342.213 2.28136 3.74013 0
M  V30 3582 C 343.714 0.599784 4.39224 0
M  V30 3583 H 340.934 0.240588 0.626385 0
M  V30 3584 H 343.478 1.29337 1.58405 0
M  V30 3585 H 341.633 0.304631 3.862 0
M  V30 3586 H 342.047 2.36002 4.68405 0
M  V30 3587 H 343.521 0.834263 5.45659 0
M  V30 3588 H 343.998 -0.465921 4.36722 0
M  V30 3589 H 344.604 1.18235 4.08535 0
M  V30 3590 N 342.919 -1.39368 0.735821 0
M  V30 3591 C 343.851 -2.2913 0.0567723 0
M  V30 3592 C 344.864 -1.46859 -0.702589 0
M  V30 3593 O 346.053 -1.69925 -0.546616 0
M  V30 3594 C 343.153 -3.25492 -0.943823 0
M  V30 3595 C 342.326 -4.36709 -0.24581 0
M  V30 3596 C 341.385 -5.13376 -1.15463 0
M  V30 3597 O 340.411 -5.65683 -0.631803 0
M  V30 3598 N 341.613 -5.24656 -2.48427 0
M  V30 3599 H 344.378 -2.88047 0.827582 0
M  V30 3600 H 341.939 -1.50957 0.585112 0
M  V30 3601 H 343.931 -3.73657 -1.55443 0
M  V30 3602 H 342.501 -2.676 -1.61583 0
M  V30 3603 H 341.721 -3.9041 0.545286 0
M  V30 3604 H 343.009 -5.08244 0.237891 0
M  V30 3605 H 342.407 -4.83679 -2.93379 0
M  V30 3606 H 340.964 -5.76258 -3.04582 0
M  V30 3607 N 344.397 -0.483516 -1.5 0
M  V30 3608 C 345.344 0.304164 -2.28787 0
M  V30 3609 C 346.314 0.976114 -1.34392 0
M  V30 3610 O 347.499 0.986156 -1.63339 0
M  V30 3611 C 344.639 1.37298 -3.16612 0
M  V30 3612 C 343.752 0.714561 -4.26049 0
M  V30 3613 C 342.887 1.76232 -5.01114 0
M  V30 3614 C 341.926 1.08483 -6.0241 0
M  V30 3615 N 341.063 2.076 -6.70706 0
M  V30 3616 H 345.903 -0.373981 -2.95644 0
M  V30 3617 H 343.44 -0.196275 -1.45785 0
M  V30 3618 H 345.398 2.00445 -3.65893 0
M  V30 3619 H 344.028 2.02012 -2.51776 0
M  V30 3620 H 343.08 -0.0297798 -3.80388 0
M  V30 3621 H 344.392 0.180383 -4.98474 0
M  V30 3622 H 343.546 2.46929 -5.54176 0
M  V30 3623 H 342.285 2.33033 -4.28424 0
M  V30 3624 H 341.29 0.363545 -5.48597 0
M  V30 3625 H 342.515 0.523551 -6.77079 0
M  V30 3626 H 340.461 2.63394 -6.00799 0
M  V30 3627 H 340.378 1.59201 -7.39047 0
M  V30 3628 H 341.646 2.77639 -7.2838 0
M  V30 3629 N 345.875 1.56104 -0.216619 0
M  V30 3630 C 347.103 2.02563 0.421413 0
M  V30 3631 C 347.518 1.0965 1.53695 0
M  V30 3632 O 346.875 0.10521 1.82196 0
M  V30 3633 C 346.926 3.48584 0.957665 0
M  V30 3634 O 346.647 4.37953 -0.113389 0
M  V30 3635 C 348.148 4.10664 1.66943 0
M  V30 3636 H 345.368 0.662944 0.103665 0
M  V30 3637 H 347.912 2.01793 -0.331629 0
M  V30 3638 H 346.067 3.49985 1.661 0
M  V30 3639 H 346.481 5.23704 0.288932 0
M  V30 3640 H 347.955 5.14622 1.99671 0
M  V30 3641 H 348.432 3.55373 2.58083 0
M  V30 3642 H 349.038 4.13098 1.01142 0
M  V30 3643 N 347.353 -0.0568162 1.57498 0
M  V30 3644 C 348.601 -0.751617 1.87604 0
M  V30 3645 C 348.922 -1.77351 0.81066 0
M  V30 3646 O 348.192 -1.95254 -0.159018 0
M  V30 3647 H 346.772 -0.280583 0.692302 0
M  V30 3648 H 349.434 -0.0293483 1.94878 0
M  V30 3649 H 348.53 -1.25852 2.856 0
M  V30 3650 N 348.832 -1.54138 -0.328536 0
M  V30 3651 C 350.081 -1.71318 -1.06456 0
M  V30 3652 C 350.394 -0.491109 -1.89334 0
M  V30 3653 O 351.6 -0.54416 -2.65991 0
M  V30 3654 C 350.056 -3.03 -1.94214 0
M  V30 3655 C 349.664 -4.32595 -1.16471 0
M  V30 3656 C 351.408 -3.29544 -2.67583 0
M  V30 3657 C 349.315 -5.55341 -2.03347 0
M  V30 3658 H 348.245 -0.638429 -0.401155 0
M  V30 3659 H 350.896 -1.80633 -0.323106 0
M  V30 3660 H 349.278 -2.87579 -2.72239 0
M  V30 3661 H 350.452 -4.58766 -0.432525 0
M  V30 3662 H 348.767 -4.12777 -0.548063 0
M  V30 3663 H 351.364 -4.18444 -3.3288 0
M  V30 3664 H 351.707 -2.47206 -3.34955 0
M  V30 3665 H 352.24 -3.45809 -1.96623 0
M  V30 3666 H 348.979 -6.40268 -1.40491 0
M  V30 3667 H 348.499 -5.33397 -2.74313 0
M  V30 3668 H 350.178 -5.91557 -2.62049 0
M  V30 3669 N 350.31 0.590341 -1.46126 0
M  V30 3670 C 351.556 1.35082 -1.51264 0
M  V30 3671 C 351.889 1.93534 -0.160711 0
M  V30 3672 O 351.164 1.76045 0.826956 0
M  V30 3673 C 351.447 2.48588 -2.6053 0
M  V30 3674 C 351.3 1.95221 -4.05227 0
M  V30 3675 C 352.619 3.50662 -2.6594 0
M  V30 3676 H 349.738 0.489803 -0.550692 0
M  V30 3677 H 352.38 0.663887 -1.78024 0
M  V30 3678 H 350.53 3.07186 -2.37843 0
M  V30 3679 H 352.202 1.41139 -4.39178 0
M  V30 3680 H 350.445 1.26101 -4.15068 0
M  V30 3681 H 351.116 2.77121 -4.77397 0
M  V30 3682 H 353.592 3.01934 -2.86313 0
M  V30 3683 H 352.468 4.27551 -3.44226 0
M  V30 3684 H 352.729 4.07399 -1.71694 0
M  V30 3685 N 351.788 1.33704 0.83433 0
M  V30 3686 C 353.013 1.28615 1.62705 0
M  V30 3687 C 353.438 -0.139242 1.87584 0
M  V30 3688 O 352.796 -1.09734 1.4432 0
M  V30 3689 C 352.844 2.07139 2.95171 0
M  V30 3690 O 351.948 1.4331 3.86699 0
M  V30 3691 H 351.289 0.44226 0.49528 0
M  V30 3692 H 353.819 1.76335 1.03766 0
M  V30 3693 H 353.829 2.18073 3.44831 0
M  V30 3694 H 352.504 3.10779 2.76386 0
M  V30 3695 H 351.081 1.4105 3.45195 0
M  V30 3696 N 353.266 -1.05314 1.17247 0
M  V30 3697 C 354.514 -1.77941 0.958194 0
M  V30 3698 C 354.835 -1.88089 -0.514556 0
M  V30 3699 O 354.105 -1.39676 -1.37359 0
M  V30 3700 H 352.685 -0.659116 0.351533 0
M  V30 3701 H 355.347 -1.27166 1.47699 0
M  V30 3702 H 354.443 -2.79663 1.38546 0
M  V30 3703 N 354.744 -0.972509 -1.24016 0
M  V30 3704 C 355.991 -0.637034 -1.92219 0
M  V30 3705 C 356.319 0.828418 -1.75976 0
M  V30 3706 O 355.574 1.61206 -1.10955 0
M  V30 3707 C 355.873 -0.963694 -3.44162 0
M  V30 3708 C 355.539 -2.41807 -3.80579 0
M  V30 3709 C 354.201 -2.81556 -3.9023 0
M  V30 3710 C 356.553 -3.36172 -3.98293 0
M  V30 3711 C 353.881 -4.14702 -4.15017 0
M  V30 3712 C 356.233 -4.68952 -4.24578 0
M  V30 3713 C 354.897 -5.08472 -4.32449 0
M  V30 3714 H 354.167 -0.233107 -0.703379 0
M  V30 3715 H 356.814 -1.2249 -1.47202 0
M  V30 3716 H 355.119 -0.29365 -3.90698 0
M  V30 3717 H 356.816 -0.682449 -3.9515 0
M  V30 3718 H 353.406 -2.09988 -3.73635 0
M  V30 3719 H 357.59 -3.06644 -3.90234 0
M  V30 3720 H 352.846 -4.4494 -4.19331 0
M  V30 3721 H 357.02 -5.42037 -4.37229 0
M  V30 3722 H 354.647 -6.11665 -4.51409 0
M  V30 3723 N 356.222 1.38976 -0.743202 0
M  V30 3724 C 357.47 1.99948 -0.29417 0
M  V30 3725 C 357.791 1.59279 1.12495 0
M  V30 3726 O 357.061 0.844808 1.76748 0
M  V30 3727 H 355.641 0.739473 -0.105774 0
M  V30 3728 H 358.303 1.699 -0.954986 0
M  V30 3729 H 357.399 3.10142 -0.349056 0
M  V30 3730 N 357.7 0.491464 1.49741 0
M  V30 3731 C 359.116 0.146835 1.58923 0
M  V30 3732 C 359.316 -1.34804 1.49767 0
M  V30 3733 O 358.372 -2.12317 1.36667 0
M  V30 3734 C 359.685 0.715157 2.92072 0
M  V30 3735 C 361.233 0.680407 3.05515 0
M  V30 3736 C 361.708 1.22663 4.41269 0
M  V30 3737 N 363.199 1.18691 4.47735 0
M  V30 3738 C 363.934 1.57984 5.51207 0
M  V30 3739 N 363.43 2.04824 6.6183 0
M  V30 3740 N 365.223 1.49459 5.41866 0
M  V30 3741 H 357.374 1.46347 1.53936 0
M  V30 3742 H 359.637 0.606453 0.728642 0
M  V30 3743 H 359.343 1.76317 3.04311 0
M  V30 3744 H 359.217 0.17018 3.76816 0
M  V30 3745 H 361.604 -0.358743 2.92911 0
M  V30 3746 H 361.685 1.26242 2.22478 0
M  V30 3747 H 361.329 2.26451 4.54623 0
M  V30 3748 H 361.259 0.620637 5.2293 0
M  V30 3749 H 363.75 0.843605 3.68364 0
M  V30 3750 H 364.063 2.32901 7.3687 0
M  V30 3751 H 362.408 2.08791 6.62896 0
M  V30 3752 H 365.599 1.12692 4.54333 0
M  V30 3753 H 365.772 1.80406 6.22381 0
M  V30 3754 N 359.178 -1.55987 0.224894 0
M  V30 3755 C 360.406 -2.02784 -0.410665 0
M  V30 3756 C 360.821 -1.10464 -1.53112 0
M  V30 3757 O 360.178 -0.114871 -1.82138 0
M  V30 3758 C 360.229 -3.49087 -0.939165 0
M  V30 3759 O 359.95 -4.37887 0.136614 0
M  V30 3760 C 361.451 -4.11543 -1.64763 0
M  V30 3761 H 358.671 -0.663484 -0.100148 0
M  V30 3762 H 361.215 -2.01614 0.342326 0
M  V30 3763 H 359.37 -3.50861 -1.64242 0
M  V30 3764 H 359.784 -5.23849 -0.261155 0
M  V30 3765 H 361.258 -5.15673 -1.96939 0
M  V30 3766 H 361.735 -3.56736 -2.56195 0
M  V30 3767 H 362.341 -4.13629 -0.989503 0
M  V30 3768 N 360.656 0.0484629 -1.57525 0
M  V30 3769 C 361.606 1.06246 -2.01732 0
M  V30 3770 C 362.59 1.33155 -0.903245 0
M  V30 3771 O 363.782 1.33065 -1.16717 0
M  V30 3772 C 360.911 2.36943 -2.48421 0
M  V30 3773 C 359.997 2.13208 -3.6661 0
M  V30 3774 N 360.388 1.5947 -4.80003 0
M  V30 3775 C 358.686 2.43581 -3.7361 0
M  V30 3776 C 359.387 1.51092 -5.61735 0
M  V30 3777 N 358.363 1.9797 -5.0627 0
M  V30 3778 H 362.165 0.640675 -2.86832 0
M  V30 3779 H 359.679 0.255134 -1.60383 0
M  V30 3780 H 361.676 3.10374 -2.78341 0
M  V30 3781 H 360.336 2.79818 -1.64718 0
M  V30 3782 H 361.347 1.28008 -5.01831 0
M  V30 3783 H 358.024 2.89662 -3.00669 0
M  V30 3784 H 359.414 1.10199 -6.62801 0
M  V30 3785 N 362.134 1.5431 0.320358 0
M  V30 3786 C 363.044 1.86946 1.41734 0
M  V30 3787 C 364.06 0.761689 1.56443 0
M  V30 3788 O 365.236 1.05629 1.71477 0
M  V30 3789 C 362.301 2.09293 2.76401 0
M  V30 3790 C 361.362 3.33082 2.70841 0
M  V30 3791 C 360.595 3.54353 3.99086 0
M  V30 3792 O 360.818 2.79002 4.97508 0
M  V30 3793 O 359.752 4.47838 4.0215 0
M  V30 3794 H 363.578 2.80232 1.17062 0
M  V30 3795 H 361.163 1.40255 0.514673 0
M  V30 3796 H 363.045 2.25303 3.56113 0
M  V30 3797 H 361.72 1.19194 3.00956 0
M  V30 3798 H 360.627 3.22454 1.89668 0
M  V30 3799 H 361.96 4.23249 2.5124 0
M  V30 3800 N 363.613 -0.582584 1.46437 0
M  V30 3801 C 364.56 -1.69164 1.5701 0
M  V30 3802 C 365.53 -1.60847 0.414403 0
M  V30 3803 O 366.715 -1.80058 0.631171 0
M  V30 3804 C 363.855 -3.075 1.56646 0
M  V30 3805 C 362.968 -3.2644 2.82951 0
M  V30 3806 C 362.103 -4.55026 2.7409 0
M  V30 3807 C 361.142 -4.6731 3.95333 0
M  V30 3808 N 360.279 -5.87221 3.84858 0
M  V30 3809 H 365.119 -1.59464 2.51744 0
M  V30 3810 H 362.656 -0.777186 1.24893 0
M  V30 3811 H 364.614 -3.8757 1.5442 0
M  V30 3812 H 363.244 -3.16096 0.654439 0
M  V30 3813 H 362.296 -2.39974 2.95155 0
M  V30 3814 H 363.608 -3.31385 3.72808 0
M  V30 3815 H 362.762 -5.43324 2.6997 0
M  V30 3816 H 361.501 -4.52519 1.81873 0
M  V30 3817 H 360.506 -3.77429 3.99784 0
M  V30 3818 H 361.731 -4.71595 4.88646 0
M  V30 3819 H 359.677 -5.85712 2.95427 0
M  V30 3820 H 359.594 -5.93435 4.6837 0
M  V30 3821 H 360.862 -6.7795 3.84713 0
M  V30 3822 N 365.091 -1.34144 -0.827227 0
M  V30 3823 C 366.339 -1.26009 -1.58007 0
M  V30 3824 C 366.66 0.170971 -1.94249 0
M  V30 3825 O 365.93 1.10256 -1.61927 0
M  V30 3826 H 364.51 -0.463414 -0.585881 0
M  V30 3827 H 367.172 -1.68005 -0.987951 0
M  V30 3828 H 366.268 -1.86187 -2.50481 0
M  V30 3829 N 366.569 1.04691 -1.17803 0
M  V30 3830 C 367.985 1.29963 -0.926379 0
M  V30 3831 C 368.185 1.97251 0.411635 0
M  V30 3832 O 367.241 2.24922 1.14744 0
M  V30 3833 C 368.554 2.16447 -2.08737 0
M  V30 3834 C 370.102 2.29814 -2.12496 0
M  V30 3835 C 370.577 3.19661 -3.27995 0
M  V30 3836 N 372.068 3.27247 -3.27816 0
M  V30 3837 C 372.803 3.96906 -4.13827 0
M  V30 3838 N 372.299 4.6895 -5.09959 0
M  V30 3839 N 374.092 3.93122 -4.01761 0
M  V30 3840 H 366.243 0.594182 -2.0392 0
M  V30 3841 H 368.506 0.324649 -0.890678 0
M  V30 3842 H 368.212 1.74304 -3.05469 0
M  V30 3843 H 368.086 3.17103 -2.04268 0
M  V30 3844 H 370.473 2.71196 -1.16347 0
M  V30 3845 H 370.554 1.2877 -2.21025 0
M  V30 3846 H 370.198 2.78991 -4.24413 0
M  V30 3847 H 370.128 4.20722 -3.16703 0
M  V30 3848 H 372.619 2.75921 -2.58217 0
M  V30 3849 H 372.932 5.19679 -5.71974 0
M  V30 3850 H 371.277 4.67875 -5.13924 0
M  V30 3851 H 374.468 3.35967 -3.2595 0
M  V30 3852 H 374.641 4.47139 -4.6901 0
M  V30 3853 N 368.047 0.979072 1.23499 0
M  V30 3854 C 368.979 0.476271 2.24197 0
M  V30 3855 C 369.992 -0.421166 1.57258 0
M  V30 3856 O 371.181 -0.225515 1.7707 0
M  V30 3857 C 368.281 -0.330503 3.37285 0
M  V30 3858 C 367.454 0.559744 4.33804 0
M  V30 3859 C 366.513 -0.192954 5.25846 0
M  V30 3860 O 365.539 0.416978 5.67671 0
M  V30 3861 N 366.741 -1.47932 5.61334 0
M  V30 3862 H 369.506 1.34211 2.67969 0
M  V30 3863 H 367.067 0.852189 1.37657 0
M  V30 3864 H 369.059 -0.842361 3.95836 0
M  V30 3865 H 367.629 -1.09734 2.92707 0
M  V30 3866 H 366.849 1.25245 3.73775 0
M  V30 3867 H 368.137 1.1665 4.95248 0
M  V30 3868 H 367.535 -1.9964 5.29302 0
M  V30 3869 H 366.092 -1.93664 6.22364 0
M  V30 3870 N 369.525 -1.3858 0.750561 0
M  V30 3871 C 370.75 -2.04997 0.314812 0
M  V30 3872 C 371.175 -1.56235 -1.04749 0
M  V30 3873 O 370.533 -0.712981 -1.66692 0
M  V30 3874 C 370.581 -3.58961 0.343415 0
M  V30 3875 O 369.685 -4.07025 -0.663628 0
M  V30 3876 H 369.026 -0.649081 0.139962 0
M  V30 3877 H 371.556 -1.77313 1.02084 0
M  V30 3878 H 371.566 -4.07542 0.193233 0
M  V30 3879 H 370.241 -3.93811 1.33738 0
M  V30 3880 H 368.818 -3.6982 -0.478307 0
M  V30 3881 N 371.003 -0.499398 -1.49478 0
M  V30 3882 C 372.231 0.0425456 -2.06856 0
M  V30 3883 C 372.646 1.30964 -1.35992 0
M  V30 3884 O 372.003 1.77172 -0.437762 0
M  V30 3885 C 372.054 0.301735 -3.60239 0
M  V30 3886 O 371.775 -0.915127 -4.28436 0
M  V30 3887 C 373.276 0.887499 -4.34325 0
M  V30 3888 H 370.496 -0.0197482 -0.670709 0
M  V30 3889 H 373.04 -0.696297 -1.92281 0
M  V30 3890 H 371.195 0.990556 -3.74522 0
M  V30 3891 H 371.609 -0.676993 -5.20113 0
M  V30 3892 H 373.083 1.01845 -5.42523 0
M  V30 3893 H 373.56 1.88488 -3.96698 0
M  V30 3894 H 374.166 0.236196 -4.24644 0
M  V30 3895 N 372.481 1.55866 -0.233164 0
M  V30 3896 C 373.897 1.59133 0.121988 0
M  V30 3897 C 374.097 1.25016 1.58029 0
M  V30 3898 O 373.153 0.990922 2.32243 0
M  V30 3899 C 374.466 2.99932 -0.214792 0
M  V30 3900 C 376.014 3.12601 -0.157971 0
M  V30 3901 C 376.489 4.55597 -0.46859 0
M  V30 3902 N 377.98 4.61305 -0.418585 0
M  V30 3903 C 378.715 5.69903 -0.63227 0
M  V30 3904 N 378.211 6.86819 -0.90835 0
M  V30 3905 N 380.004 5.59264 -0.563913 0
M  V30 3906 H 372.155 1.76315 -1.18434 0
M  V30 3907 H 374.418 0.820093 -0.475553 0
M  V30 3908 H 374.124 3.29588 -1.22739 0
M  V30 3909 H 373.998 3.74327 0.464691 0
M  V30 3910 H 376.385 2.82735 0.845283 0
M  V30 3911 H 376.466 2.40511 -0.871102 0
M  V30 3912 H 376.11 4.86182 -1.46934 0
M  V30 3913 H 376.04 5.25928 0.265865 0
M  V30 3914 H 378.531 3.77297 -0.213368 0
M  V30 3915 H 378.844 7.65507 -1.05919 0
M  V30 3916 H 377.189 6.88536 -0.945673 0
M  V30 3917 H 380.38 4.66802 -0.348372 0
M  V30 3918 H 380.553 6.43831 -0.733847 0
M  V30 3919 N 373.959 -0.0401083 1.57549 0
M  V30 3920 C 374.889 -1.04384 2.08869 0
M  V30 3921 C 375.87 -1.38407 0.988817 0
M  V30 3922 O 377.055 -1.47483 1.26342 0
M  V30 3923 C 374.185 -2.34808 2.55895 0
M  V30 3924 C 373.139 -2.15057 3.70047 0
M  V30 3925 C 372.465 -3.51145 4.03239 0
M  V30 3926 C 373.765 -1.54576 4.98902 0
M  V30 3927 H 375.459 -0.616666 2.92981 0
M  V30 3928 H 373.005 -0.295184 1.40942 0
M  V30 3929 H 374.958 -3.05346 2.90417 0
M  V30 3930 H 373.682 -2.79565 1.68853 0
M  V30 3931 H 372.341 -1.46954 3.35857 0
M  V30 3932 H 371.989 -3.93529 3.13279 0
M  V30 3933 H 371.689 -3.38758 4.80122 0
M  V30 3934 H 373.213 -4.23062 4.40285 0
M  V30 3935 H 374.627 -2.15017 5.31451 0
M  V30 3936 H 373.024 -1.52796 5.80322 0
M  V30 3937 H 374.094 -0.51039 4.82206 0
M  V30 3938 N 375.437 -1.54477 -0.31217 0
M  V30 3939 C 376.384 -1.84655 -1.38461 0
M  V30 3940 C 377.354 -0.694536 -1.50882 0
M  V30 3941 O 378.539 -0.942081 -1.6592 0
M  V30 3942 C 375.679 -2.0896 -2.74645 0
M  V30 3943 C 374.792 -3.36618 -2.70763 0
M  V30 3944 C 373.927 -3.50824 -3.98868 0
M  V30 3945 C 372.966 -4.72315 -3.89339 0
M  V30 3946 N 372.103 -4.83387 -5.09197 0
M  V30 3947 H 376.943 -2.76142 -1.12026 0
M  V30 3948 H 374.48 -1.36748 -0.542065 0
M  V30 3949 H 376.438 -2.21045 -3.53829 0
M  V30 3950 H 375.068 -1.20752 -2.99364 0
M  V30 3951 H 374.12 -3.33211 -1.83506 0
M  V30 3952 H 375.432 -4.25917 -2.59608 0
M  V30 3953 H 374.586 -3.62513 -4.86486 0
M  V30 3954 H 373.325 -2.59638 -4.12843 0
M  V30 3955 H 372.33 -4.6067 -3.00105 0
M  V30 3956 H 373.555 -5.64897 -3.76919 0
M  V30 3957 H 371.501 -3.9512 -5.23657 0
M  V30 3958 H 371.418 -5.66669 -5.00422 0
M  V30 3959 H 372.686 -4.9942 -5.98498 0
M  V30 3960 N 376.915 0.57481 -1.46744 0
M  V30 3961 C 377.848 1.69827 -1.52427 0
M  V30 3962 C 378.826 1.58151 -0.377744 0
M  V30 3963 O 380.01 1.79257 -0.58303 0
M  V30 3964 C 377.137 3.07943 -1.41027 0
M  V30 3965 C 376.183 3.38116 -2.59961 0
M  V30 3966 S 377.016 3.29313 -4.22272 0
M  V30 3967 C 378.172 4.69953 -4.13394 0
M  V30 3968 H 378.405 1.64748 -2.47478 0
M  V30 3969 H 375.938 0.754203 -1.34726 0
M  V30 3970 H 377.896 3.87619 -1.35137 0
M  V30 3971 H 376.557 3.10504 -0.473909 0
M  V30 3972 H 375.75 4.38762 -2.47999 0
M  V30 3973 H 375.352 2.66024 -2.62882 0
M  V30 3974 H 377.644 5.60517 -3.80562 0
M  V30 3975 H 378.587 4.86972 -5.14066 0
M  V30 3976 H 378.995 4.47174 -3.44522 0
M  V30 3977 N 378.394 1.34581 0.820102 0
M  V30 3978 C 379.324 1.29038 1.94606 0
M  V30 3979 C 380.305 0.1673 1.69275 0
M  V30 3980 O 381.49 0.360112 1.90832 0
M  V30 3981 C 378.62 1.04793 3.31113 0
M  V30 3982 C 377.574 2.13597 3.70891 0
M  V30 3983 C 376.9 1.74537 5.05412 0
M  V30 3984 C 378.2 3.55451 3.8269 0
M  V30 3985 H 379.894 2.23248 1.99501 0
M  V30 3986 H 377.44 1.0747 0.958449 0
M  V30 3987 H 379.393 0.995592 4.0947 0
M  V30 3988 H 378.117 0.0702565 3.26524 0
M  V30 3989 H 376.776 2.17905 2.9481 0
M  V30 3990 H 376.424 0.754226 4.97313 0
M  V30 3991 H 376.124 2.47361 5.32997 0
M  V30 3992 H 377.648 1.70803 5.86224 0
M  V30 3993 H 379.062 3.5354 4.51312 0
M  V30 3994 H 377.459 4.26922 4.21732 0
M  V30 3995 H 378.529 3.92587 2.84611 0
M  V30 3996 N 379.872 -1.04064 1.18357 0
M  V30 3997 C 380.782 -2.15569 0.925596 0
M  V30 3998 C 381.798 -1.7365 -0.110295 0
M  V30 3999 O 382.974 -2.01273 0.0716218 0
M  V30 4000 C 380.039 -3.43704 0.454836 0
M  V30 4001 C 379.1 -4.00004 1.55869 0
M  V30 4002 C 378.333 -5.22023 1.1103 0
M  V30 4003 O 378.556 -5.70392 -0.0309756 0
M  V30 4004 O 377.49 -5.70856 1.90805 0
M  V30 4005 H 381.316 -2.40187 1.8586 0
M  V30 4006 H 378.901 -1.1402 0.965394 0
M  V30 4007 H 380.783 -4.20923 0.200382 0
M  V30 4008 H 379.458 -3.20559 -0.449876 0
M  V30 4009 H 378.365 -3.24172 1.86716 0
M  V30 4010 H 379.698 -4.2749 2.43953 0
M  V30 4011 N 381.35 -0.985608 -1.22978 0
M  V30 4012 C 382.596 -0.65836 -1.91816 0
M  V30 4013 C 382.929 0.806692 -1.76653 0
M  V30 4014 O 382.204 1.58252 -1.13078 0
M  V30 4015 C 382.487 -1.056 -3.44268 0
M  V30 4016 C 382.34 -2.57906 -3.68516 0
M  V30 4017 C 383.659 -0.603781 -4.35939 0
M  V30 4018 H 380.778 -0.24065 -0.696604 0
M  V30 4019 H 383.42 -1.22783 -1.44998 0
M  V30 4020 H 381.57 -0.571445 -3.84274 0
M  V30 4021 H 383.242 -3.13976 -3.3796 0
M  V30 4022 H 381.485 -3.00305 -3.13048 0
M  V30 4023 H 382.156 -2.80779 -4.75255 0
M  V30 4024 H 384.632 -1.01987 -4.03408 0
M  V30 4025 H 383.508 -0.910383 -5.41298 0
M  V30 4026 H 383.769 0.495761 -4.39312 0
M  V30 4027 N 382.828 1.3818 -0.7579 0
M  V30 4028 C 384.239 1.82726 -0.383134 0
M  V30 4029 C 384.59 1.63214 1.08884 0
M  V30 4030 O 383.715 1.13566 1.84205 0
M  V30 4031 C 384.31 3.31728 -0.688631 0
M  V30 4032 C 382.869 3.74606 -0.367091 0
M  V30 4033 C 382.016 2.60896 -0.939599 0
M  V30 4034 H 384.967 1.26847 -0.953699 0
M  V30 4035 H 384.988 3.80487 0.0316492 0
M  V30 4036 H 384.5 3.45898 -1.76001 0
M  V30 4037 H 382.601 3.66013 0.697532 0
M  V30 4038 H 382.714 4.71215 -0.865658 0
M  V30 4039 H 381.078 2.52075 -0.3647 0
M  V30 4040 H 381.861 2.77864 -2.0161 0
M  V30 4041 N 384.306 0.507319 1.49211 0
M  V30 4042 C 385.536 -0.0315292 2.06576 0
M  V30 4043 C 385.944 -1.30791 1.36713 0
M  V30 4044 O 385.287 -1.78324 0.441181 0
M  V30 4045 C 385.349 -0.349104 3.57801 0
M  V30 4046 C 385.013 0.830475 4.49391 0
M  V30 4047 C 386.01 1.72271 4.90529 0
M  V30 4048 C 383.695 1.03107 4.91604 0
M  V30 4049 C 385.689 2.79964 5.72625 0
M  V30 4050 C 383.376 2.11116 5.73475 0
M  V30 4051 C 384.374 2.99379 6.1389 0
M  V30 4052 O 384.062 4.05523 6.94123 0
M  V30 4053 H 383.794 0.0201002 0.675701 0
M  V30 4054 H 386.348 0.705737 1.92895 0
M  V30 4055 H 384.578 -1.14005 3.69513 0
M  V30 4056 H 386.267 -0.827319 3.97379 0
M  V30 4057 H 387.033 1.57958 4.58557 0
M  V30 4058 H 382.912 0.353417 4.59643 0
M  V30 4059 H 386.456 3.48884 6.04091 0
M  V30 4060 H 382.353 2.25421 6.0486 0
M  V30 4061 H 383.121 4.02953 7.1244 0
M  V30 4062 N 385.784 -1.5574 0.241426 0
M  V30 4063 C 387.03 -1.99104 -0.385406 0
M  V30 4064 C 387.363 -1.1293 -1.57988 0
M  V30 4065 O 386.638 -0.191449 -1.93555 0
M  V30 4066 C 386.921 -3.51087 -0.800616 0
M  V30 4067 C 386.774 -4.48028 0.398874 0
M  V30 4068 C 388.093 -4.08015 -1.64959 0
M  V30 4069 H 385.212 -0.723848 -0.138614 0
M  V30 4070 H 387.854 -1.86903 0.341642 0
M  V30 4071 H 386.004 -3.61615 -1.4201 0
M  V30 4072 H 387.676 -4.49487 1.03726 0
M  V30 4073 H 385.919 -4.21077 1.04293 0
M  V30 4074 H 386.59 -5.51962 0.0651056 0
M  V30 4075 H 389.066 -4.00555 -1.12672 0
M  V30 4076 H 387.942 -5.14635 -1.90898 0
M  V30 4077 H 388.203 -3.56131 -2.61961 0
M  V30 4078 N 387.262 0.0317525 -1.57568 0
M  V30 4079 C 388.539 0.758366 -1.803 0
M  V30 4080 C 388.919 1.93718 -0.838845 0
M  V30 4081 O 388.267 2.28187 0.119571 0
M  V30 4082 C 388.477 1.19392 -3.27943 0
M  V30 4083 C 389.825 1.61094 -3.92854 0
M  V30 4084 O 390.849 1.28857 -3.32076 0
M  V30 4085 O 389.708 2.20918 -4.99858 0
M  V30 4086 H 386.802 0.366514 -0.741348 0
M  V30 4087 H 389.348 0.00873765 -1.69698 0
M  V30 4088 H 388.12 0.352275 -3.89711 0
M  V30 4089 H 387.743 2.00365 -3.43424 0
M  V30 4090 N 388.74 1.54641 0.303973 0
M  V30 4091 C 390.156 1.45788 0.649463 0
M  V30 4092 C 390.356 0.64666 1.90842 0
M  V30 4093 O 389.412 0.153183 2.52035 0
M  V30 4094 C 390.725 2.89718 0.805227 0
M  V30 4095 C 392.273 2.99742 0.901305 0
M  V30 4096 C 392.748 4.44863 1.08909 0
M  V30 4097 N 394.239 4.48559 1.15536 0
M  V30 4098 C 394.974 5.58026 1.3189 0
M  V30 4099 N 394.47 6.77422 1.45161 0
M  V30 4100 N 396.263 5.45708 1.34755 0
M  V30 4101 H 388.414 2.05854 -0.523237 0
M  V30 4102 H 390.677 0.932186 -0.172431 0
M  V30 4103 H 390.383 3.51666 -0.0489108 0
M  V30 4104 H 390.257 3.36964 1.69513 0
M  V30 4105 H 392.644 2.3791 1.74593 0
M  V30 4106 H 392.725 2.55797 -0.0125531 0
M  V30 4107 H 392.369 5.07288 0.249241 0
M  V30 4108 H 392.299 4.86436 2.01713 0
M  V30 4109 H 394.79 3.6254 1.06646 0
M  V30 4110 H 395.103 7.56604 1.57387 0
M  V30 4111 H 393.448 6.80292 1.42223 0
M  V30 4112 H 396.639 4.51378 1.23996 0
M  V30 4113 H 396.812 6.3107 1.47157 0
M  V30 4114 N 390.218 -0.567019 1.47046 0
M  V30 4115 C 391.166 -1.69593 1.59188 0
M  V30 4116 C 392.16 -1.63046 0.459609 0
M  V30 4117 O 393.366 -1.6835 0.637058 0
M  V30 4118 H 389.741 -0.560993 0.500791 0
M  V30 4119 H 391.712 -1.56488 2.54075 0
M  V30 4120 C 390.461 -3.07964 1.61411 0
M  V30 4121 H 389.784 -3.13679 2.47881 0
M  V30 4122 H 391.224 -3.86671 1.73958 0
M  V30 4123 C 389.683 -3.35123 0.34559 0
M  V30 4124 O 390.213 -3.97812 -0.557521 0
M  V30 4125 N 388.419 -2.89699 0.22864 0
M  V30 4126 H 387.966 -2.38863 0.964479 0
M  V30 4127 H 387.924 -3.08242 -0.619192 0
M  V30 4128 N 391.696 -1.35014 -0.812953 0
M  V30 4129 C 392.921 -1.31187 -1.60639 0
M  V30 4130 C 393.346 0.109382 -1.87782 0
M  V30 4131 O 392.704 1.07424 -1.46047 0
M  V30 4132 C 392.752 -2.11809 -2.91838 0
M  V30 4133 O 391.856 -1.49444 -3.8437 0
M  V30 4134 H 391.197 -0.450084 -0.488181 0
M  V30 4135 H 393.727 -1.77963 -1.00947 0
M  V30 4136 H 393.737 -2.23531 -3.41318 0
M  V30 4137 H 392.412 -3.15137 -2.71407 0
M  V30 4138 H 390.989 -1.46524 -3.42907 0
M  V30 4139 N 393.175 1.03435 -1.18907 0
M  V30 4140 C 394.415 1.78302 -0.999391 0
M  V30 4141 C 394.779 1.86353 0.462219 0
M  V30 4142 O 395.98 2.57489 0.771543 0
M  V30 4143 C 394.251 3.17362 -1.64365 0
M  V30 4144 S 395.81 4.08488 -1.6026 0
M  V30 4145 H 392.628 0.613861 -0.358742 0
M  V30 4146 H 395.23 1.23979 -1.51161 0
M  V30 4147 H 393.934 3.09116 -2.69955 0
M  V30 4148 H 393.465 3.76762 -1.13199 0
M  V30 4149 H 395.48 4.92274 -0.622932 0
M  V30 4150 N 394.653 0.992116 1.22453 0
M  V30 4151 C 395.6 0.541731 2.24352 0
M  V30 4152 C 396.57 -0.425519 1.60557 0
M  V30 4153 O 397.755 -0.330453 1.87917 0
M  V30 4154 C 394.895 -0.138248 3.44823 0
M  V30 4155 C 394.008 0.870649 4.23136 0
M  V30 4156 C 393.143 0.164269 5.30946 0
M  V30 4157 C 392.182 1.16159 6.00977 0
M  V30 4158 N 391.319 0.483568 7.00433 0
M  V30 4159 H 396.159 1.41541 2.62241 0
M  V30 4160 H 393.696 0.709013 1.28885 0
M  V30 4161 H 395.654 -0.5494 4.13567 0
M  V30 4162 H 394.284 -0.975721 3.077 0
M  V30 4163 H 393.336 1.40013 3.53696 0
M  V30 4164 H 394.648 1.63014 4.7141 0
M  V30 4165 H 393.802 -0.303653 6.0594 0
M  V30 4166 H 392.541 -0.627733 4.83643 0
M  V30 4167 H 391.546 1.64015 5.24766 0
M  V30 4168 H 392.771 1.95445 6.50368 0
M  V30 4169 H 390.717 -0.289012 6.55363 0
M  V30 4170 H 390.634 1.18152 7.4671 0
M  V30 4171 H 391.902 0.0384219 7.79491 0
M  V30 4172 N 396.131 -1.37776 0.765217 0
M  V30 4173 C 397.061 -2.32945 0.160953 0
M  V30 4174 C 398.042 -1.55454 -0.690516 0
M  V30 4175 O 399.227 -1.83721 -0.629318 0
M  V30 4176 C 396.357 -3.39669 -0.724031 0
M  V30 4177 C 395.311 -4.27992 0.0256173 0
M  V30 4178 C 394.637 -5.25673 -0.978383 0
M  V30 4179 C 395.937 -5.08309 1.20082 0
M  V30 4180 H 397.631 -2.83728 0.955969 0
M  V30 4181 H 395.177 -1.36416 0.461149 0
M  V30 4182 H 397.13 -4.05219 -1.15652 0
M  V30 4183 H 395.854 -2.87396 -1.5515 0
M  V30 4184 H 394.513 -3.63964 0.438812 0
M  V30 4185 H 394.161 -4.69682 -1.80022 0
M  V30 4186 H 393.861 -5.85625 -0.481378 0
M  V30 4187 H 395.385 -5.94098 -1.40995 0
M  V30 4188 H 396.799 -5.67034 0.845307 0
M  V30 4189 H 395.196 -5.77554 1.62947 0
M  V30 4190 H 396.266 -4.41365 2.00811 0
M  V30 4191 N 397.609 -0.515225 -1.4894 0
M  V30 4192 C 398.834 0.022727 -2.07388 0
M  V30 4193 C 399.259 1.2876 -1.37122 0
M  V30 4194 O 398.617 1.76067 -0.432431 0
M  V30 4195 C 398.665 0.244869 -3.59768 0
M  V30 4196 O 397.769 1.31667 -3.90817 0
M  V30 4197 H 397.11 -0.0325506 -0.663202 0
M  V30 4198 H 399.64 -0.718918 -1.91553 0
M  V30 4199 H 399.65 0.47205 -4.0526 0
M  V30 4200 H 398.325 -0.679194 -4.10317 0
M  V30 4201 H 396.902 1.07331 -3.5712 0
M  V30 4202 N 399.087 1.5561 -0.249682 0
M  V30 4203 C 400.312 2.03865 0.381305 0
M  V30 4204 C 400.737 1.12769 1.50548 0
M  V30 4205 O 400.095 0.121189 1.80895 0
M  V30 4206 C 400.143 3.50101 0.863816 0
M  V30 4207 O 399.247 3.62132 1.97318 0
M  V30 4208 H 398.588 0.658827 0.0827194 0
M  V30 4209 H 401.118 2.01105 -0.376552 0
M  V30 4210 H 401.128 3.90975 1.1663 0
M  V30 4211 H 399.803 4.1588 0.0411816 0
M  V30 4212 H 398.38 3.33155 1.67517 0
M  V30 4213 N 400.565 -0.0233959 1.57583 0
M  V30 4214 C 401.79 -0.728376 1.94189 0
M  V30 4215 C 402.215 -1.67793 0.850119 0
M  V30 4216 O 401.573 -1.80262 -0.19371 0
M  V30 4217 C 401.621 -1.45669 3.29868 0
M  V30 4218 O 400.725 -2.57013 3.22518 0
M  V30 4219 H 400.066 -0.195493 0.63457 0
M  V30 4220 H 402.596 0.0228214 2.04587 0
M  V30 4221 H 402.606 -1.82535 3.6489 0
M  V30 4222 H 401.281 -0.760314 4.08891 0
M  V30 4223 H 399.858 -2.22648 2.99136 0
M  V30 4224 N 402.043 -1.548 -0.295768 0
M  V30 4225 C 403.29 -1.74329 -1.03032 0
M  V30 4226 C 403.618 -0.531915 -1.87085 0
M  V30 4227 O 402.873 0.486052 -1.89568 0
M  V30 4228 C 403.172 -2.98797 -1.961 0
M  V30 4229 C 402.838 -4.32356 -1.2798 0
M  V30 4230 C 401.5 -4.68661 -1.09135 0
M  V30 4231 C 403.852 -5.15128 -0.793243 0
M  V30 4232 C 401.18 -5.85312 -0.403269 0
M  V30 4233 C 403.532 -6.32488 -0.118854 0
M  V30 4234 C 402.196 -6.6745 0.0815043 0
M  V30 4235 H 401.466 -0.637916 -0.37702 0
M  V30 4236 H 404.113 -1.8906 -0.304696 0
M  V30 4237 H 402.418 -2.78869 -2.75207 0
M  V30 4238 H 404.115 -3.11102 -2.53015 0
M  V30 4239 H 400.705 -4.03808 -1.43655 0
M  V30 4240 H 404.889 -4.87575 -0.92653 0
M  V30 4241 H 400.145 -6.1094 -0.237098 0
M  V30 4242 H 404.319 -6.95892 0.266035 0
M  V30 4243 H 401.946 -7.57695 0.616685 0
M  V30 4244 N 403.521 0.559213 -1.47345 0
M  V30 4245 C 404.77 1.31281 -1.53128 0
M  V30 4246 C 405.083 1.94602 -0.197344 0
M  V30 4247 O 406.289 2.71173 -0.133154 0
M  V30 4248 C 404.745 2.38051 -2.69925 0
M  V30 4249 C 404.353 1.8093 -4.0984 0
M  V30 4250 C 406.097 3.14604 -2.84999 0
M  V30 4251 C 404.004 2.85468 -5.1794 0
M  V30 4252 H 402.934 0.493614 -0.569966 0
M  V30 4253 H 405.585 0.594155 -1.73615 0
M  V30 4254 H 403.967 3.12822 -2.42814 0
M  V30 4255 H 405.141 1.12544 -4.46845 0
M  V30 4256 H 403.456 1.16967 -3.99634 0
M  V30 4257 H 406.053 3.92666 -3.62929 0
M  V30 4258 H 406.396 3.68665 -1.93369 0
M  V30 4259 H 406.929 2.46945 -3.1187 0
M  V30 4260 H 403.668 2.36264 -6.1144 0
M  V30 4261 H 403.188 3.52269 -4.85455 0
M  V30 4262 H 404.867 3.48996 -5.44803 0
M  V30 4263 N 404.999 1.35443 0.805782 0
M  V30 4264 C 406.248 1.28097 1.55801 0
M  V30 4265 C 406.561 -0.142428 1.95081 0
M  V30 4266 O 407.767 -0.33817 2.69386 0
M  V30 4267 C 406.223 2.24653 2.81174 0
M  V30 4268 C 405.831 3.72342 2.49129 0
M  V30 4269 C 407.575 2.2625 3.59181 0
M  V30 4270 C 405.482 4.60719 3.70799 0
M  V30 4271 H 404.412 0.475937 0.584808 0
M  V30 4272 H 407.063 1.60712 0.885661 0
M  V30 4273 H 405.445 1.85011 3.50124 0
M  V30 4274 H 406.619 4.20624 1.88181 0
M  V30 4275 H 404.934 3.73361 1.84366 0
M  V30 4276 H 407.531 2.89495 4.49552 0
M  V30 4277 H 407.874 1.26647 3.96568 0
M  V30 4278 H 408.407 2.64426 2.97193 0
M  V30 4279 H 405.146 5.61324 3.3852 0
M  V30 4280 H 404.666 4.17163 4.3097 0
M  V30 4281 H 406.345 4.76182 4.38018 0
M  V30 4282 N 406.477 -1.02803 1.19454 0
M  V30 4283 C 407.705 -1.79841 1.02297 0
M  V30 4284 C 408.12 -1.83879 -0.428259 0
M  V30 4285 O 407.477 -1.28345 -1.29745 0
M  V30 4286 C 407.528 -3.24852 1.58598 0
M  V30 4287 O 407.249 -3.21097 2.98041 0
M  V30 4288 C 408.75 -4.18485 1.46236 0
M  V30 4289 H 405.97 -0.565936 0.360496 0
M  V30 4290 H 408.514 -1.2948 1.58288 0
M  V30 4291 H 406.669 -3.72401 1.06753 0
M  V30 4292 H 407.083 -4.12033 3.24545 0
M  V30 4293 H 408.557 -5.18121 1.90407 0
M  V30 4294 H 409.034 -4.37254 0.41301 0
M  V30 4295 H 409.64 -3.76811 1.97215 0
M  V30 4296 N 407.956 -0.998596 -1.21925 0
M  V30 4297 C 408.888 -0.511879 -2.23411 0
M  V30 4298 C 409.901 0.396094 -1.57908 0
M  V30 4299 O 411.09 0.197316 -1.77406 0
M  V30 4300 C 408.19 0.276802 -3.37768 0
M  V30 4301 C 407.363 -0.628687 -4.32858 0
M  V30 4302 C 406.422 0.109272 -5.26087 0
M  V30 4303 O 405.448 -0.507237 -5.66935 0
M  V30 4304 N 406.65 1.38983 -5.63617 0
M  V30 4305 H 409.415 -1.38457 -2.658 0
M  V30 4306 H 406.976 -0.873981 -1.36283 0
M  V30 4307 H 408.968 0.77928 -3.97126 0
M  V30 4308 H 407.538 1.05063 -2.94415 0
M  V30 4309 H 406.758 -1.31175 -3.71735 0
M  V30 4310 H 408.046 -1.24514 -4.93329 0
M  V30 4311 H 407.444 1.91194 -5.32411 0
M  V30 4312 H 406.001 1.83739 -6.25367 0
M  V30 4313 N 409.434 1.37368 -0.772513 0
M  V30 4314 C 410.382 2.32134 -0.147111 0
M  V30 4315 C 411.376 1.54972 0.684106 0
M  V30 4316 O 412.582 1.70363 0.581083 0
M  V30 4317 H 408.957 0.751449 -0.028786 0
M  V30 4318 H 410.928 2.82464 -0.962112 0
M  V30 4319 C 409.677 3.40226 0.71703 0
M  V30 4320 H 409 3.99706 0.0867951 0
M  V30 4321 H 410.44 4.08897 1.12159 0
M  V30 4322 C 408.899 2.80372 1.86797 0
M  V30 4323 O 409.429 2.71183 2.96349 0
M  V30 4324 N 407.635 2.37904 1.66883 0
M  V30 4325 H 407.182 2.45578 0.777759 0
M  V30 4326 H 407.14 1.98202 2.44056 0
M  V30 4327 N 410.912 0.523116 1.48665 0
M  V30 4328 C 411.845 -0.290518 2.26343 0
M  V30 4329 C 412.823 -0.950913 1.31895 0
M  V30 4330 O 414.007 -0.976662 1.61225 0
M  V30 4331 C 411.134 -1.41088 3.07915 0
M  V30 4332 C 410.18 -0.862597 4.17686 0
M  V30 4333 S 411.013 0.264135 5.34848 0
M  V30 4334 C 412.169 -0.858864 6.19979 0
M  V30 4335 H 412.402 0.368726 2.95005 0
M  V30 4336 H 409.935 0.30878 1.51281 0
M  V30 4337 H 411.893 -2.0527 3.55492 0
M  V30 4338 H 410.554 -2.04182 2.38681 0
M  V30 4339 H 409.747 -1.70287 4.74361 0
M  V30 4340 H 409.349 -0.297595 3.72814 0
M  V30 4341 H 411.641 -1.7591 6.54264 0
M  V30 4342 H 412.584 -0.330244 7.07329 0
M  V30 4343 H 412.992 -1.13617 5.52948 0
M  V30 4344 N 412.39 -1.55475 0.257931 0
M  V30 4345 C 413.637 -1.99207 -0.363728 0
M  V30 4346 C 413.965 -1.1462 -1.57139 0
M  V30 4347 O 413.22 -0.199653 -1.94679 0
M  V30 4348 C 413.519 -3.48183 -0.806433 0
M  V30 4349 C 413.185 -4.49936 0.294684 0
M  V30 4350 C 411.847 -4.77481 0.597076 0
M  V30 4351 C 414.199 -5.10769 1.03751 0
M  V30 4352 C 411.527 -5.63132 1.64618 0
M  V30 4353 C 413.879 -5.97558 2.07622 0
M  V30 4354 C 412.543 -6.23432 2.38514 0
M  V30 4355 H 411.813 -0.728949 -0.133097 0
M  V30 4356 H 414.46 -1.8793 0.368059 0
M  V30 4357 H 412.765 -3.56848 -1.61761 0
M  V30 4358 H 414.462 -3.79415 -1.29789 0
M  V30 4359 H 411.052 -4.28572 0.0488649 0
M  V30 4360 H 415.236 -4.89527 0.817149 0
M  V30 4361 H 410.492 -5.8143 1.89074 0
M  V30 4362 H 414.666 -6.43735 2.65666 0
M  V30 4363 H 412.293 -6.89594 3.19943 0
M  V30 4364 N 413.868 0.0150385 -1.57593 0
M  V30 4365 C 415.108 0.70768 -1.91758 0
M  V30 4366 C 415.472 1.71764 -0.857974 0
M  V30 4367 O 416.673 2.45956 -1.0844 0
M  V30 4368 C 414.944 1.34736 -3.3103 0
M  V30 4369 S 416.503 2.06721 -3.87056 0
M  V30 4370 H 413.321 0.234119 -0.671349 0
M  V30 4371 H 415.923 -0.0380373 -1.95463 0
M  V30 4372 H 414.627 0.59926 -4.06001 0
M  V30 4373 H 414.158 2.13133 -3.30663 0
M  V30 4374 H 416.173 3.34047 -3.66915 0
M  V30 4375 N 415.346 1.54954 0.287554 0
M  V30 4376 C 416.309 1.86076 1.33823 0
M  V30 4377 C 417.309 0.734414 1.43049 0
M  V30 4378 O 418.499 1.00266 1.42452 0
M  V30 4379 C 415.631 2.05305 2.72144 0
M  V30 4380 H 416.824 2.79984 1.07465 0
M  V30 4381 H 414.377 1.47223 0.524902 0
M  V30 4382 H 415.112 1.1373 3.03704 0
M  V30 4383 H 414.897 2.873 2.66836 0
M  V30 4384 H 416.387 2.30706 3.48087 0
M  V30 4385 N 416.824 -0.551391 1.4764 0
M  V30 4386 C 418.072 -1.30572 1.54258 0
M  V30 4387 C 418.393 -1.93877 0.208963 0
M  V30 4388 O 417.663 -1.80234 -0.767619 0
M  V30 4389 H 416.243 -0.484894 0.568231 0
M  V30 4390 H 418.905 -0.643402 1.83974 0
M  V30 4391 H 418.001 -2.09621 2.31226 0
M  V30 4392 N 418.302 -1.35869 -0.798587 0
M  V30 4393 C 419.532 -1.32529 -1.58491 0
M  V30 4394 C 419.94 0.0975405 -1.88948 0
M  V30 4395 O 419.283 1.06224 -1.49874 0
M  V30 4396 C 419.345 -2.07247 -2.9375 0
M  V30 4397 C 419.009 -3.56391 -2.86068 0
M  V30 4398 C 420.006 -4.50824 -2.58947 0
M  V30 4399 C 417.691 -3.9915 -3.04933 0
M  V30 4400 C 419.685 -5.85993 -2.5078 0
M  V30 4401 C 417.372 -5.34413 -2.96389 0
M  V30 4402 C 418.37 -6.27646 -2.69349 0
M  V30 4403 O 418.058 -7.60426 -2.60782 0
M  V30 4404 H 417.79 -0.456529 -0.498556 0
M  V30 4405 H 420.344 -1.79425 -0.999799 0
M  V30 4406 H 418.574 -1.55001 -3.54276 0
M  V30 4407 H 420.263 -1.96883 -3.54954 0
M  V30 4408 H 421.029 -4.19104 -2.44084 0
M  V30 4409 H 416.908 -3.26961 -3.24989 0
M  V30 4410 H 420.452 -6.58735 -2.29595 0
M  V30 4411 H 416.349 -5.65743 -3.10813 0
M  V30 4412 H 417.117 -7.70444 -2.76331 0
M  V30 4413 N 419.78 1.02168 -1.19998 0
M  V30 4414 C 421.057 1.72816 -0.916191 0
M  V30 4415 C 421.437 2.03081 0.576325 0
M  V30 4416 O 420.785 1.69122 1.53656 0
M  V30 4417 C 420.995 2.9997 -1.78378 0
M  V30 4418 C 422.343 3.73336 -2.02251 0
M  V30 4419 O 423.367 3.09914 -1.75589 0
M  V30 4420 O 422.226 4.87371 -2.47249 0
M  V30 4421 H 419.32 0.752924 -0.342103 0
M  V30 4422 H 421.866 1.08062 -1.30846 0
M  V30 4423 H 420.638 2.73888 -2.79466 0
M  V30 4424 H 420.261 3.72464 -1.39126 0
M  V30 4425 N 421.258 1.00505 1.21394 0
M  V30 4426 C 422.486 0.706609 1.9446 0
M  V30 4427 C 422.901 -0.73081 1.74082 0
M  V30 4428 O 422.258 -1.49446 1.04747 0
M  V30 4429 C 422.309 1.01824 3.46863 0
M  V30 4430 O 422.03 2.39919 3.66566 0
M  V30 4431 C 423.531 0.739216 4.37093 0
M  V30 4432 H 420.751 0.260394 0.618414 0
M  V30 4433 H 423.295 1.34311 1.54211 0
M  V30 4434 H 421.45 0.427343 3.85036 0
M  V30 4435 H 421.864 2.50784 4.6066 0
M  V30 4436 H 423.338 1.00744 5.42729 0
M  V30 4437 H 423.815 -0.326746 4.37983 0
M  V30 4438 H 424.421 1.31173 4.04566 0
M  V30 4439 N 422.737 -1.36956 0.779787 0
M  V30 4440 C 423.684 -2.30175 0.169697 0
M  V30 4441 C 424.654 -1.51501 -0.68094 0
M  V30 4442 O 425.839 -1.80042 -0.631629 0
M  V30 4443 C 422.979 -3.37985 -0.697131 0
M  V30 4444 C 422.092 -4.31661 0.170992 0
M  V30 4445 C 421.227 -5.2655 -0.701298 0
M  V30 4446 C 420.266 -6.11867 0.168869 0
M  V30 4447 N 419.403 -6.98973 -0.661855 0
M  V30 4448 H 424.243 -2.81767 0.970135 0
M  V30 4449 H 421.78 -1.38699 0.489994 0
M  V30 4450 H 423.738 -3.99128 -1.2146 0
M  V30 4451 H 422.368 -2.87739 -1.46309 0
M  V30 4452 H 421.42 -3.71756 0.80634 0
M  V30 4453 H 422.732 -4.91644 0.841875 0
M  V30 4454 H 421.886 -5.92937 -1.28494 0
M  V30 4455 H 420.625 -4.66998 -1.40584 0
M  V30 4456 H 419.63 -5.44452 0.764986 0
M  V30 4457 H 420.855 -6.73493 0.870863 0
M  V30 4458 H 418.801 -6.41941 -1.35086 0
M  V30 4459 H 418.718 -7.55984 -0.0484447 0
M  V30 4460 H 419.986 -7.6974 -1.22963 0
M  V30 4461 N 424.215 -0.530993 -1.48385 0
M  V30 4462 C 425.147 0.268353 -2.27624 0
M  V30 4463 C 426.16 0.903525 -1.35426 0
M  V30 4464 O 427.349 0.781796 -1.60469 0
M  V30 4465 C 424.449 1.39535 -3.08842 0
M  V30 4466 C 423.622 0.861913 -4.28824 0
M  V30 4467 C 422.681 1.87016 -4.91845 0
M  V30 4468 O 421.707 1.4267 -5.5103 0
M  V30 4469 N 422.909 3.20238 -4.84178 0
M  V30 4470 H 425.674 -0.41123 -2.96865 0
M  V30 4471 H 423.235 -0.365387 -1.57723 0
M  V30 4472 H 425.227 2.06803 -3.47871 0
M  V30 4473 H 423.797 1.97859 -2.42014 0
M  V30 4474 H 423.017 0.0132126 -3.94198 0
M  V30 4475 H 424.305 0.484415 -5.06489 0
M  V30 4476 H 423.703 3.58932 -4.37246 0
M  V30 4477 H 422.26 3.83136 -5.27305 0
M  V30 4478 N 425.693 1.55336 -0.266172 0
M  V30 4479 C 426.603 2.2583 0.635458 0
M  V30 4480 C 427.619 1.28106 1.17749 0
M  V30 4481 O 428.795 1.61024 1.20968 0
M  V30 4482 C 425.86 2.95879 1.80712 0
M  V30 4483 C 424.921 4.09059 1.30265 0
M  V30 4484 C 424.154 4.75759 2.41846 0
M  V30 4485 O 424.377 4.41622 3.61007 0
M  V30 4486 O 423.311 5.63888 2.1051 0
M  V30 4487 H 427.137 3.03631 0.0646693 0
M  V30 4488 H 424.722 1.49361 -0.0339177 0
M  V30 4489 H 426.604 3.39932 2.49047 0
M  V30 4490 H 425.279 2.21002 2.36516 0
M  V30 4491 H 424.186 3.69482 0.586019 0
M  V30 4492 H 425.519 4.85811 0.790458 0
M  V30 4493 N 427.171 -0.0066808 1.57599 0
M  V30 4494 C 428.448 -0.729586 1.81484 0
M  V30 4495 C 428.828 -1.92359 0.869558 0
M  V30 4496 O 428.176 -2.28348 -0.0832533 0
M  V30 4497 C 428.386 -1.1416 3.29801 0
M  V30 4498 C 429.734 -1.54823 3.95367 0
M  V30 4499 O 430.758 -1.23558 3.34084 0
M  V30 4500 O 429.617 -2.12937 5.03309 0
M  V30 4501 H 426.711 -0.354674 0.747085 0
M  V30 4502 H 429.257 0.0182609 1.6969 0
M  V30 4503 H 428.029 -0.290231 3.90222 0
M  V30 4504 H 427.652 -1.94876 3.46568 0
M  V30 4505 N 428.649 -1.55105 -0.279332 0
M  V30 4506 C 429.612 -1.86783 -1.32834 0
M  V30 4507 C 430.612 -0.74199 -1.42657 0
M  V30 4508 O 431.802 -1.0102 -1.41918 0
M  V30 4509 C 428.934 -2.06746 -2.71052 0
M  V30 4510 H 430.127 -2.8055 -1.05979 0
M  V30 4511 H 427.68 -1.47499 -0.517087 0
M  V30 4512 H 428.415 -1.15339 -3.03097 0
M  V30 4513 H 428.2 -2.88711 -2.65309 0
M  V30 4514 H 429.69 -2.32549 -3.46858 0
M  V30 4515 N 430.127 0.543554 -1.4793 0
M  V30 4516 C 431.367 1.31072 -1.56843 0
M  V30 4517 C 431.731 1.90604 -0.231124 0
M  V30 4518 O 432.932 2.68091 -0.195165 0
M  V30 4519 C 431.203 2.38106 -2.66533 0
M  V30 4520 S 432.762 3.24729 -2.95122 0
M  V30 4521 H 429.58 0.446035 -0.553691 0
M  V30 4522 H 432.182 0.620777 -1.85382 0
M  V30 4523 H 430.886 1.92828 -3.62278 0
M  V30 4524 H 430.417 3.11824 -2.39852 0
M  V30 4525 H 432.432 4.37891 -2.3338 0
M  V30 4526 N 431.605 1.3629 0.791371 0
M  V30 4527 C 432.537 1.26321 1.91248 0
M  V30 4528 C 433.55 0.18313 1.61767 0
M  V30 4529 O 434.739 0.437682 1.73051 0
M  V30 4530 C 431.839 0.925901 3.26007 0
M  V30 4531 C 431.012 2.10746 3.83281 0
M  V30 4532 C 430.071 1.74352 4.96475 0
M  V30 4533 O 429.097 2.46416 5.13096 0
M  V30 4534 N 430.299 0.676058 5.7655 0
M  V30 4535 H 433.064 2.22915 2.00323 0
M  V30 4536 H 430.625 1.29659 0.969546 0
M  V30 4537 H 432.617 0.663636 3.99222 0
M  V30 4538 H 431.187 0.0491581 3.12561 0
M  V30 4539 H 430.407 2.53264 3.02077 0
M  V30 4540 H 431.695 2.8969 4.18279 0
M  V30 4541 H 431.093 0.0776467 5.65647 0
M  V30 4542 H 429.65 0.473612 6.50077 0
M  V30 4543 N 433.083 -1.0153 1.20538 0
M  V30 4544 C 434.331 -1.74803 1.01432 0
M  V30 4545 C 434.652 -1.8963 -0.454456 0
M  V30 4546 O 433.922 -1.43975 -1.32846 0
M  V30 4547 H 432.502 -0.647598 0.372324 0
M  V30 4548 H 435.164 -1.22402 1.5167 0
M  V30 4549 H 434.26 -2.75114 1.47373 0
M  V30 4550 N 434.561 -1.01147 -1.20859 0
M  V30 4551 C 435.838 -0.613136 -1.85742 0
M  V30 4552 C 436.218 0.909004 -1.90526 0
M  V30 4553 O 435.566 1.79862 -1.40932 0
M  V30 4554 C 435.776 -1.255 -3.25654 0
M  V30 4555 C 437.124 -1.3672 -4.01986 0
M  V30 4556 O 438.148 -1.21082 -3.34989 0
M  V30 4557 O 437.007 -1.6194 -5.21956 0
M  V30 4558 H 434.101 -0.210878 -0.799662 0
M  V30 4559 H 436.647 -1.10853 -1.2849 0
M  V30 4560 H 435.419 -2.29532 -3.16908 0
M  V30 4561 H 435.042 -0.746369 -3.90532 0
M  V30 4562 N 436.039 1.36541 -0.78704 0
M  V30 4563 C 437.002 2.28413 -0.189778 0
M  V30 4564 C 438.002 1.48719 0.611499 0
M  V30 4565 O 439.192 1.68737 0.432842 0
M  V30 4566 C 436.324 3.32824 0.737638 0
M  V30 4567 H 437.517 2.82743 -0.999831 0
M  V30 4568 H 435.07 1.46065 -0.556298 0
M  V30 4569 H 435.805 2.83646 1.57212 0
M  V30 4570 H 435.59 3.91752 0.165044 0
M  V30 4571 H 437.08 4.0144 1.15047 0
M  V30 4572 N 437.518 0.538854 1.48102 0
M  V30 4573 C 438.766 0.00798599 2.02098 0
M  V30 4574 C 439.087 -1.33922 1.41739 0
M  V30 4575 O 438.357 -1.86932 0.585934 0
M  V30 4576 H 436.937 -3.62179e-05 0.747 0
M  V30 4577 H 439.599 0.7047 1.81714 0
M  V30 4578 H 438.695 -0.0937672 3.11959 0
M  V30 4579 N 438.996 -1.55193 0.274407 0
M  V30 4580 C 440.244 -1.99187 -0.341902 0
M  V30 4581 C 440.565 -1.16422 -1.56431 0
M  V30 4582 O 439.835 -0.253573 -1.94252 0
M  V30 4583 H 438.415 -0.735721 -0.129317 0
M  V30 4584 H 441.077 -1.91168 0.379578 0
M  V30 4585 H 440.173 -3.05629 -0.632253 0
M  V30 4586 N 440.474 -0.00167713 -1.576 0
M  V30 4587 C 441.885 0.54091 -1.78693 0
M  V30 4588 C 442.236 1.7386 -0.909247 0
M  V30 4589 O 441.361 2.16109 -0.112176 0
M  V30 4590 C 441.956 0.98806 -3.24072 0
M  V30 4591 C 440.515 1.47594 -3.46256 0
M  V30 4592 C 439.662 0.42792 -2.73978 0
M  V30 4593 H 442.613 -0.22784 -1.57056 0
M  V30 4594 H 442.634 1.85398 -3.32277 0
M  V30 4595 H 442.146 0.116164 -3.87926 0
M  V30 4596 H 440.247 2.36868 -2.87618 0
M  V30 4597 H 440.36 1.50225 -4.54939 0
M  V30 4598 H 438.724 0.889934 -2.38647 0
M  V30 4599 H 439.507 -0.435038 -3.40532 0
M  V30 4600 N 441.952 1.55251 0.271103 0
M  V30 4601 C 442.902 1.84649 1.33749 0
M  V30 4602 C 443.886 0.705529 1.44607 0
M  V30 4603 O 445.078 0.966916 1.48256 0
M  V30 4604 C 442.207 2.12354 2.69742 0
M  V30 4605 C 441.293 3.32714 2.62988 0
M  V30 4606 N 441.684 4.52575 2.25853 0
M  V30 4607 C 439.982 3.35341 2.94045 0
M  V30 4608 C 440.683 5.34669 2.29136 0
M  V30 4609 N 439.659 4.73123 2.67685 0
M  V30 4610 H 443.461 2.74865 1.0405 0
M  V30 4611 H 440.975 1.55152 0.479738 0
M  V30 4612 H 442.972 2.31572 3.4667 0
M  V30 4613 H 441.632 1.23422 3.00328 0
M  V30 4614 H 442.643 4.78639 1.978 0
M  V30 4615 H 439.32 2.56608 3.2933 0
M  V30 4616 H 440.71 6.40509 2.02971 0
M  V30 4617 N 443.43 -0.535701 1.48216 0
M  V30 4618 C 444.676 -1.29375 1.56173 0
M  V30 4619 C 445.009 -1.92804 0.232429 0
M  V30 4620 O 444.284 -1.78992 -0.761048 0
M  V30 4621 C 444.567 -2.38747 2.69577 0
M  V30 4622 C 444.42 -1.80046 4.12193 0
M  V30 4623 C 445.739 -3.40551 2.78771 0
M  V30 4624 H 442.858 -0.469027 0.568491 0
M  V30 4625 H 445.5 -0.597358 1.80365 0
M  V30 4626 H 443.65 -2.98147 2.4908 0
M  V30 4627 H 445.322 -1.24742 4.44114 0
M  V30 4628 H 443.565 -1.10609 4.19462 0
M  V30 4629 H 444.236 -2.59212 4.87353 0
M  V30 4630 H 446.712 -2.91099 2.97322 0
M  V30 4631 H 445.588 -4.1448 3.59857 0
M  V30 4632 H 445.849 -4.00746 1.86696 0
M  V30 4633 N 444.908 -1.36708 -0.784132 0
M  V30 4634 C 446.136 -1.34398 -1.57305 0
M  V30 4635 C 446.551 0.0735577 -1.88657 0
M  V30 4636 O 445.908 1.03193 -1.50524 0
M  V30 4637 C 445.959 -2.17053 -2.89085 0
M  V30 4638 O 445.68 -3.53281 -2.59083 0
M  V30 4639 C 447.181 -2.22583 -3.83369 0
M  V30 4640 H 444.401 -0.460819 -0.487736 0
M  V30 4641 H 446.945 -1.79879 -0.972819 0
M  V30 4642 H 445.1 -1.75113 -3.45564 0
M  V30 4643 H 445.514 -3.9647 -3.43383 0
M  V30 4644 H 446.988 -2.84763 -4.72878 0
M  V30 4645 H 447.465 -1.23075 -4.21603 0
M  V30 4646 H 448.071 -2.64781 -3.32823 0
M  V30 4647 N 446.386 1.0089 -1.21074 0
M  V30 4648 C 447.802 1.2695 -0.967257 0
M  V30 4649 C 448.002 1.9846 0.348673 0
M  V30 4650 O 447.058 2.28459 1.0753 0
M  V30 4651 C 448.371 2.09697 -2.15517 0
M  V30 4652 C 449.919 2.22937 -2.197 0
M  V30 4653 C 450.394 3.09064 -3.37999 0
M  V30 4654 N 451.885 3.16653 -3.38061 0
M  V30 4655 C 452.62 3.8354 -4.26245 0
M  V30 4656 N 452.116 4.52488 -5.2462 0
M  V30 4657 N 453.909 3.80141 -4.14064 0
M  V30 4658 H 446.06 0.529005 -2.05707 0
M  V30 4659 H 448.323 0.296148 -0.900556 0
M  V30 4660 H 448.029 1.64497 -3.10859 0
M  V30 4661 H 447.903 3.10444 -2.14253 0
M  V30 4662 H 450.29 2.67357 -1.24916 0
M  V30 4663 H 450.371 1.21673 -2.2501 0
M  V30 4664 H 450.015 2.65347 -4.33074 0
M  V30 4665 H 449.945 4.10433 -3.29928 0
M  V30 4666 H 452.436 2.67566 -2.66865 0
M  V30 4667 H 452.749 5.01219 -5.88217 0
M  V30 4668 H 451.094 4.51288 -5.28549 0
M  V30 4669 H 454.285 3.25427 -3.36474 0
M  V30 4670 H 454.458 4.31992 -4.82998 0
M  V30 4671 N 447.864 1.01787 1.20321 0
M  V30 4672 C 449.111 0.707936 1.89722 0
M  V30 4673 C 449.439 -0.762535 1.78929 0
M  V30 4674 O 448.694 -1.56977 1.16861 0
M  V30 4675 C 448.993 1.09076 3.40349 0
M  V30 4676 C 448.659 2.55765 3.71342 0
M  V30 4677 C 447.321 2.95845 3.79511 0
M  V30 4678 C 449.673 3.50723 3.85542 0
M  V30 4679 C 447.001 4.2982 3.99339 0
M  V30 4680 C 449.353 4.84387 4.06881 0
M  V30 4681 C 448.017 5.24172 4.1328 0
M  V30 4682 H 447.287 0.259052 0.694243 0
M  V30 4683 H 449.934 1.27868 1.42555 0
M  V30 4684 H 448.239 0.438453 3.89339 0
M  V30 4685 H 449.936 0.828636 3.92345 0
M  V30 4686 H 446.526 2.2371 3.65584 0
M  V30 4687 H 450.71 3.20916 3.78585 0
M  V30 4688 H 445.966 4.60196 4.02529 0
M  V30 4689 H 450.14 5.57891 4.1681 0
M  V30 4690 H 447.767 6.27997 4.28396 0
M  V30 4691 N 449.342 -1.36122 0.79427 0
M  V30 4692 C 450.289 -2.29982 0.194101 0
M  V30 4693 C 451.259 -1.52214 -0.664833 0
M  V30 4694 O 452.444 -1.80702 -0.612498 0
M  V30 4695 C 449.584 -3.38706 -0.661244 0
M  V30 4696 C 448.697 -4.31456 0.216766 0
M  V30 4697 C 447.832 -5.27265 -0.645411 0
M  V30 4698 C 446.871 -6.11653 0.233756 0
M  V30 4699 N 446.008 -6.99636 -0.587682 0
M  V30 4700 H 450.848 -2.80722 0.999965 0
M  V30 4701 H 448.385 -1.38172 0.504677 0
M  V30 4702 H 450.343 -4.00394 -1.17219 0
M  V30 4703 H 448.973 -2.89274 -1.43249 0
M  V30 4704 H 448.025 -3.7088 0.845724 0
M  V30 4705 H 449.337 -4.90724 0.893973 0
M  V30 4706 H 448.491 -5.94266 -1.22198 0
M  V30 4707 H 447.23 -4.68463 -1.35623 0
M  V30 4708 H 446.235 -5.4361 0.82269 0
M  V30 4709 H 447.46 -6.72531 0.942247 0
M  V30 4710 H 445.406 -6.43337 -1.2827 0
M  V30 4711 H 445.323 -7.55993 0.0317402 0
M  V30 4712 H 446.591 -7.71001 -1.14792 0
M  V30 4713 N 450.82 -0.546701 -1.47814 0
M  V30 4714 C 452.097 0.0464413 -1.95545 0
M  V30 4715 C 452.477 1.4962 -1.48919 0
M  V30 4716 O 451.825 2.16752 -0.723232 0
M  V30 4717 C 452.035 -0.0881298 -3.48889 0
M  V30 4718 C 453.383 0.0626059 -4.24554 0
M  V30 4719 O 454.407 -0.0151555 -3.56197 0
M  V30 4720 O 453.266 0.228071 -5.46024 0
M  V30 4721 H 450.36 0.0700004 -0.824032 0
M  V30 4722 H 452.906 -0.612482 -1.58262 0
M  V30 4723 H 451.678 -1.09737 -3.75597 0
M  V30 4724 H 451.301 0.608886 -3.9291 0
M  V30 4725 N 452.299 1.55045 -0.282633 0
M  V30 4726 C 453.527 2.04168 0.33512 0
M  V30 4727 C 453.942 1.16071 1.48906 0
M  V30 4728 O 453.299 0.182391 1.81586 0
M  V30 4729 C 453.35 3.52332 0.808957 0
M  V30 4730 O 453.071 4.37078 -0.299038 0
M  V30 4731 C 454.572 4.17375 1.49375 0
M  V30 4732 H 451.792 0.666744 0.0754543 0
M  V30 4733 H 454.336 2.00205 -0.416918 0
M  V30 4734 H 452.491 3.56715 1.51106 0
M  V30 4735 H 452.905 5.24458 0.0665514 0
M  V30 4736 H 454.379 5.22627 1.77664 0
M  V30 4737 H 454.856 3.65999 2.42778 0
M  V30 4738 H 455.462 4.17016 0.835305 0
M  V30 4739 N 453.777 0.010035 1.57597 0
M  V30 4740 C 455.007 -0.682422 1.95004 0
M  V30 4741 C 455.415 -1.67278 0.884014 0
M  V30 4742 O 454.758 -1.83129 -0.144672 0
M  V30 4743 C 454.82 -1.46141 3.28456 0
M  V30 4744 C 454.484 -0.631523 4.52615 0
M  V30 4745 C 455.481 0.0850905 5.1983 0
M  V30 4746 C 453.166 -0.574539 4.99003 0
M  V30 4747 C 455.16 0.847566 6.3174 0
M  V30 4748 C 452.847 0.191655 6.10799 0
M  V30 4749 C 453.845 0.901432 6.77025 0
M  V30 4750 O 453.533 1.65511 7.86677 0
M  V30 4751 H 453.265 -0.194361 0.647456 0
M  V30 4752 H 455.819 0.060312 2.05311 0
M  V30 4753 H 454.049 -2.24885 3.14585 0
M  V30 4754 H 455.738 -2.04016 3.50902 0
M  V30 4755 H 456.504 0.0502812 4.84974 0
M  V30 4756 H 452.383 -1.11654 4.47274 0
M  V30 4757 H 455.927 1.4021 6.83364 0
M  V30 4758 H 451.824 0.228249 6.45096 0
M  V30 4759 H 452.592 1.57287 8.03245 0
M  V30 4760 N 455.255 -1.55392 -0.262866 0
M  V30 4761 C 456.502 -1.76476 -0.993109 0
M  V30 4762 C 456.83 -0.571479 -1.85915 0
M  V30 4763 O 456.085 0.445733 -1.90556 0
M  V30 4764 C 456.384 -3.02889 -1.89718 0
M  V30 4765 C 456.05 -4.34974 -1.18781 0
M  V30 4766 C 454.712 -4.7087 -0.991699 0
M  V30 4767 C 457.064 -5.16695 -0.683798 0
M  V30 4768 C 454.392 -5.86036 -0.279024 0
M  V30 4769 C 456.744 -6.32598 0.0153327 0
M  V30 4770 C 455.408 -6.67127 0.223062 0
M  V30 4771 H 454.678 -0.64577 -0.363404 0
M  V30 4772 H 457.325 -1.89664 -0.264525 0
M  V30 4773 H 455.63 -2.84644 -2.6923 0
M  V30 4774 H 457.327 -3.16399 -2.46359 0
M  V30 4775 H 453.917 -4.06765 -1.35058 0
M  V30 4776 H 458.101 -4.8943 -0.8229 0
M  V30 4777 H 453.357 -6.11306 -0.107456 0
M  V30 4778 H 457.531 -6.95171 0.413584 0
M  V30 4779 H 455.158 -7.56216 0.777265 0
M  V30 4780 N 456.733 0.527833 -1.48498 0
M  V30 4781 C 457.979 1.28545 -1.56857 0
M  V30 4782 C 458.312 1.92678 -0.242651 0
M  V30 4783 O 457.587 1.79394 0.751545 0
M  V30 4784 C 457.87 2.37314 -2.70839 0
M  V30 4785 C 457.723 1.77858 -4.13142 0
M  V30 4786 C 459.042 3.39068 -2.80573 0
M  V30 4787 H 456.161 0.466006 -0.570971 0
M  V30 4788 H 458.803 0.587784 -1.8068 0
M  V30 4789 H 456.953 2.96821 -2.50658 0
M  V30 4790 H 458.625 1.22385 -4.44769 0
M  V30 4791 H 456.868 1.08383 -4.20042 0
M  V30 4792 H 457.539 2.56624 -4.88721 0
M  V30 4793 H 460.015 2.89518 -2.98862 0
M  V30 4794 H 458.891 4.12566 -3.6205 0
M  V30 4795 H 459.152 3.9975 -1.88818 0
M  V30 4796 N 458.211 1.37122 0.776871 0
M  V30 4797 C 459.439 1.3523 1.5659 0
M  V30 4798 C 459.854 -0.0635518 1.88693 0
M  V30 4799 O 459.211 -1.02394 1.51069 0
M  V30 4800 C 459.262 2.18583 2.8793 0
M  V30 4801 O 458.983 3.5465 2.57206 0
M  V30 4802 C 460.484 2.24612 3.82183 0
M  V30 4803 H 457.704 0.4634 0.485285 0
M  V30 4804 H 460.248 1.80392 0.963266 0
M  V30 4805 H 458.403 1.76943 3.4463 0
M  V30 4806 H 458.817 3.98286 3.41275 0
M  V30 4807 H 460.291 2.87267 4.71361 0
M  V30 4808 H 460.768 1.25309 4.20944 0
M  V30 4809 H 461.374 2.66543 3.31414 0
M  V30 4810 N 459.689 -1.00246 1.21608 0
M  V30 4811 C 460.937 -1.73717 1.0328 0
M  V30 4812 C 461.258 -1.90102 -0.434318 0
M  V30 4813 O 460.528 -1.45376 -1.31311 0
M  V30 4814 H 459.108 -0.643613 0.379172 0
M  V30 4815 H 461.77 -1.20787 1.52959 0
M  V30 4816 H 460.866 -2.73535 1.50283 0
M  V30 4817 N 461.167 -1.02423 -1.1978 0
M  V30 4818 C 462.416 -0.713265 -1.88667 0
M  V30 4819 C 462.729 0.7609 -1.80193 0
M  V30 4820 O 463.935 1.18473 -2.44288 0
M  V30 4821 C 462.391 -1.22545 -3.38394 0
M  V30 4822 C 461.999 -2.72706 -3.55437 0
M  V30 4823 C 463.743 -0.990257 -4.12788 0
M  V30 4824 C 461.65 -3.17367 -4.99031 0
M  V30 4825 H 460.58 -0.263105 -0.706606 0
M  V30 4826 H 463.231 -1.23792 -1.35454 0
M  V30 4827 H 461.613 -0.628732 -3.90977 0
M  V30 4828 H 462.787 -3.37993 -3.13205 0
M  V30 4829 H 461.102 -2.94453 -2.94425 0
M  V30 4830 H 463.699 -1.29926 -5.18675 0
M  V30 4831 H 464.042 0.0730761 -4.16236 0
M  V30 4832 H 464.575 -1.55074 -3.66329 0
M  V30 4833 H 461.314 -4.23009 -5.00743 0
M  V30 4834 H 460.834 -2.56805 -5.42044 0
M  V30 4835 H 462.513 -3.10441 -5.67658 0
M  V30 4836 N 462.645 1.35699 -0.801477 0
M  V30 4837 C 463.891 1.99208 -0.380022 0
M  V30 4838 C 464.224 1.63445 1.04878 0
M  V30 4839 O 463.499 0.895223 1.72673 0
M  V30 4840 C 463.782 3.55755 -0.557708 0
M  V30 4841 C 463.635 4.01332 -2.03107 0
M  V30 4842 C 464.954 4.40096 0.0197968 0
M  V30 4843 H 462.073 0.723667 -0.139552 0
M  V30 4844 H 464.715 1.60928 -1.01006 0
M  V30 4845 H 462.865 3.88494 -0.0213741 0
M  V30 4846 H 464.537 3.79026 -2.62939 0
M  V30 4847 H 462.78 3.52429 -2.52936 0
M  V30 4848 H 463.451 5.10234 -2.1063 0
M  V30 4849 H 465.927 4.13786 -0.438179 0
M  V30 4850 H 464.803 5.48735 -0.134477 0
M  V30 4851 H 465.064 4.2786 1.11303 0
M  V30 4852 N 464.123 0.554532 1.47522 0
M  V30 4853 C 465.348 0.0322661 2.07375 0
M  V30 4854 C 465.773 -1.25079 1.40488 0
M  V30 4855 O 465.131 -1.74859 0.47896 0
M  V30 4856 C 465.179 -0.149397 3.6029 0
M  V30 4857 O 464.283 -1.21259 3.9417 0
M  V30 4858 H 463.624 0.0501228 0.662106 0
M  V30 4859 H 466.154 0.769452 1.8958 0
M  V30 4860 H 466.164 -0.364437 4.06369 0
M  V30 4861 H 464.839 0.787743 4.08372 0
M  V30 4862 H 463.416 -0.97825 3.5984 0
M  V30 4863 N 465.601 -1.54893 0.290851 0
M  V30 4864 C 466.847 -2.00949 -0.314784 0
M  V30 4865 C 467.202 -1.1757 -1.52299 0
M  V30 4866 O 466.495 -0.241558 -1.90071 0
M  V30 4867 C 466.689 -3.49815 -0.732397 0
M  V30 4868 C 466.518 -4.47603 0.433799 0
M  V30 4869 C 465.288 -4.96806 0.922599 0
M  V30 4870 C 467.486 -4.98233 1.27546 0
M  V30 4871 N 465.468 -5.78426 2.05662 0
M  V30 4872 C 466.839 -5.77455 2.25712 0
M  V30 4873 C 468.894 -4.80439 1.307 0
M  V30 4874 C 467.597 -6.40778 3.26796 0
M  V30 4875 C 469.623 -5.44574 2.30637 0
M  V30 4876 C 468.985 -6.23619 3.27533 0
M  V30 4877 H 465.084 -0.777905 -0.0799257 0
M  V30 4878 H 467.668 -1.9015 0.418458 0
M  V30 4879 H 465.839 -3.60925 -1.43483 0
M  V30 4880 H 467.571 -3.82681 -1.31671 0
M  V30 4881 H 464.326 -4.70961 0.49926 0
M  V30 4882 H 464.75 -6.23923 2.62772 0
M  V30 4883 H 469.392 -4.18918 0.571622 0
M  V30 4884 H 467.11 -7.01439 4.01258 0
M  V30 4885 H 470.696 -5.32739 2.33838 0
M  V30 4886 H 469.576 -6.72367 4.03599 0
M  V30 4887 N 467.08 -0.0183926 -1.57589 0
M  V30 4888 C 468.328 0.661253 -1.90976 0
M  V30 4889 C 468.649 1.73281 -0.894353 0
M  V30 4890 O 467.919 1.9579 0.0656788 0
M  V30 4891 H 466.499 0.247233 -0.704901 0
M  V30 4892 H 469.161 -0.0636639 -1.94796 0
M  V30 4893 H 468.257 1.12083 -2.9128 0
M  V30 4894 N 468.558 1.5553 0.254621 0
M  V30 4895 C 469.468 1.92789 1.33677 0
M  V30 4896 C 470.484 0.827356 1.53071 0
M  V30 4897 O 471.66 1.12807 1.66843 0
M  V30 4898 C 468.725 2.20827 2.67275 0
M  V30 4899 C 467.786 3.4427 2.5647 0
M  V30 4900 C 467.019 3.70961 3.83697 0
M  V30 4901 O 467.242 2.99852 4.85227 0
M  V30 4902 O 466.176 4.64491 3.82794 0
M  V30 4903 H 470.002 2.84945 1.05071 0
M  V30 4904 H 467.587 1.42312 0.454723 0
M  V30 4905 H 469.469 2.40204 3.46237 0
M  V30 4906 H 468.144 1.31851 2.9563 0
M  V30 4907 H 467.051 3.30209 1.75821 0
M  V30 4908 H 468.384 4.33524 2.33062 0
M  V30 4909 N 470.036 -0.519951 1.48776 0
M  V30 4910 C 471.284 -1.2727 1.56993 0
M  V30 4911 C 471.605 -1.9339 0.25004 0
M  V30 4912 O 470.875 -1.81822 -0.729216 0
M  V30 4913 H 469.455 -0.472732 0.578389 0
M  V30 4914 H 472.117 -0.604234 1.85297 0
M  V30 4915 H 471.213 -2.04669 2.3562 0
M  V30 4916 N 471.514 -1.37532 -0.769588 0
M  V30 4917 C 472.754 -1.34261 -1.54122 0
M  V30 4918 C 473.118 0.0717222 -1.91866 0
M  V30 4919 O 474.319 0.22918 -2.67821 0
M  V30 4920 C 472.59 -2.2574 -2.77086 0
M  V30 4921 S 474.149 -2.40339 -3.67127 0
M  V30 4922 H 470.967 -0.476595 -0.527615 0
M  V30 4923 H 473.569 -1.73303 -0.90479 0
M  V30 4924 H 472.273 -3.27417 -2.4744 0
M  V30 4925 H 471.804 -1.87789 -3.45686 0
M  V30 4926 H 473.819 -1.61558 -4.69163 0
M  V30 4927 N 472.992 0.995999 -1.22138 0
M  V30 4928 C 473.955 2.06711 -0.990109 0
M  V30 4929 C 474.955 1.60744 0.0422978 0
M  V30 4930 O 476.145 1.73095 -0.195895 0
M  V30 4931 C 473.277 3.37288 -0.49491 0
M  V30 4932 H 474.47 2.28661 -1.94047 0
M  V30 4933 H 472.023 1.16711 -1.03963 0
M  V30 4934 H 472.758 3.21022 0.459948 0
M  V30 4935 H 472.543 3.71986 -1.23971 0
M  V30 4936 H 474.033 4.16103 -0.353253 0
M  V30 4937 N 474.47 1.03057 1.19235 0
M  V30 4938 C 475.886 0.747947 1.40989 0
M  V30 4939 C 476.086 -0.666752 1.90149 0
M  V30 4940 O 475.142 -1.43249 2.07933 0
M  V30 4941 C 476.455 1.7855 2.41951 0
M  V30 4942 C 478.003 1.80524 2.55695 0
M  V30 4943 C 478.478 2.83243 3.59913 0
M  V30 4944 N 479.969 2.8207 3.67411 0
M  V30 4945 C 480.704 3.58204 4.47747 0
M  V30 4946 N 480.2 4.44057 5.31775 0
M  V30 4947 N 481.993 3.46738 4.42413 0
M  V30 4948 H 474.144 1.94367 0.856468 0
M  V30 4949 H 476.407 0.840412 0.438647 0
M  V30 4950 H 476.113 2.79973 2.12857 0
M  V30 4951 H 475.987 1.6092 3.41152 0
M  V30 4952 H 478.374 0.79778 2.84112 0
M  V30 4953 H 478.455 2.02229 1.56643 0
M  V30 4954 H 478.099 3.84161 3.32239 0
M  V30 4955 H 478.029 2.58795 4.5862 0
M  V30 4956 H 480.52 2.19803 3.074 0
M  V30 4957 H 480.833 4.98884 5.90199 0
M  V30 4958 H 479.178 4.48129 5.3123 0
M  V30 4959 H 482.369 2.79077 3.75811 0
M  V30 4960 H 482.542 4.06322 5.04783 0
M  V30 4961 N 475.948 -1.35272 0.808662 0
M  V30 4962 C 476.895 -2.29764 0.218482 0
M  V30 4963 C 477.865 -1.52911 -0.648652 0
M  V30 4964 O 479.05 -1.81341 -0.593297 0
M  V30 4965 C 476.19 -3.39388 -0.625282 0
M  V30 4966 C 475.303 -4.31202 0.262516 0
M  V30 4967 C 474.438 -5.27919 -0.589451 0
M  V30 4968 C 473.477 -6.11371 0.298617 0
M  V30 4969 N 472.614 -7.0022 -0.513443 0
M  V30 4970 H 477.454 -2.79645 1.02968 0
M  V30 4971 H 474.991 -1.37629 0.519303 0
M  V30 4972 H 476.949 -4.01615 -1.12966 0
M  V30 4973 H 475.579 -2.90777 -1.40173 0
M  V30 4974 H 474.631 -3.69962 0.885013 0
M  V30 4975 H 475.943 -4.89748 0.945971 0
M  V30 4976 H 475.097 -5.95529 -1.15888 0
M  V30 4977 H 473.836 -4.69875 -1.30647 0
M  V30 4978 H 472.841 -5.42707 0.880301 0
M  V30 4979 H 474.066 -6.71494 1.01352 0
M  V30 4980 H 472.012 -6.44662 -1.21439 0
M  V30 4981 H 471.929 -7.55917 0.111922 0
M  V30 4982 H 473.197 -7.72175 -1.06608 0
M  V30 4983 N 477.426 -0.562348 -1.47226 0
M  V30 4984 C 478.674 -0.0401371 -2.0206 0
M  V30 4985 C 478.995 1.3165 -1.43852 0
M  V30 4986 O 478.265 1.85976 -0.615599 0
M  V30 4987 H 476.845 -0.0118479 -0.746906 0
M  V30 4988 H 479.507 -0.73352 -1.8057 0
M  V30 4989 H 478.603 0.0441254 -3.12069 0
M  V30 4990 N 478.904 1.54736 -0.299062 0
M  V30 4991 C 479.851 2.23448 0.577899 0
M  V30 4992 C 480.821 1.21637 1.13109 0
M  V30 4993 O 482.006 1.50252 1.17597 0
M  V30 4994 C 479.146 2.9774 1.74484 0
M  V30 4995 C 478.259 4.1432 1.22323 0
M  V30 4996 C 477.394 4.76199 2.35388 0
M  V30 4997 C 476.433 5.84927 1.80351 0
M  V30 4998 N 475.57 6.4077 2.86982 0
M  V30 4999 H 480.41 2.97996 -0.0146545 0
M  V30 5000 H 477.947 1.47088 -0.0190013 0
M  V30 5001 H 479.905 3.39045 2.43114 0
M  V30 5002 H 478.535 2.25572 2.30905 0
M  V30 5003 H 477.587 3.7797 0.429249 0
M  V30 5004 H 478.899 4.92659 0.780309 0
M  V30 5005 H 478.053 5.20346 3.11969 0
M  V30 5006 H 476.792 3.97188 2.83006 0
M  V30 5007 H 475.797 5.40207 1.02259 0
M  V30 5008 H 477.022 6.65821 1.3364 0
M  V30 5009 H 474.968 5.64643 3.33938 0
M  V30 5010 H 474.885 7.1445 2.4718 0
M  V30 5011 H 476.153 6.89574 3.63466 0
M  V30 5012 N 480.382 0.0267497 1.57577 0
M  V30 5013 C 481.612 -0.6617 1.95717 0
M  V30 5014 C 482.02 -1.66331 0.901706 0
M  V30 5015 O 481.363 -1.83273 -0.125241 0
M  V30 5016 C 481.425 -1.42649 3.29987 0
M  V30 5017 C 481.089 -0.583482 4.5326 0
M  V30 5018 C 482.086 0.140221 5.19711 0
M  V30 5019 C 479.771 -0.521581 4.99585 0
M  V30 5020 C 481.765 0.914523 6.30805 0
M  V30 5021 C 479.452 0.256428 6.10562 0
M  V30 5022 C 480.45 0.973189 6.76031 0
M  V30 5023 O 480.138 1.73845 7.84878 0
M  V30 5024 H 479.87 -0.187483 0.649481 0
M  V30 5025 H 482.424 0.0820847 2.05236 0
M  V30 5026 H 480.654 -2.21536 3.16952 0
M  V30 5027 H 482.343 -2.00282 3.53047 0
M  V30 5028 H 483.109 0.101716 4.84893 0
M  V30 5029 H 478.988 -1.06904 4.48433 0
M  V30 5030 H 482.532 1.4745 6.81839 0
M  V30 5031 H 478.429 0.296657 6.44818 0
M  V30 5032 H 479.197 1.65797 8.01532 0
M  V30 5033 N 481.861 -1.55662 -0.24637 0
M  V30 5034 C 483.109 -1.77168 -0.972411 0
M  V30 5035 C 483.43 -0.590827 -1.85834 0
M  V30 5036 O 482.7 0.393365 -1.9191 0
M  V30 5037 H 481.28 -0.653405 -0.362038 0
M  V30 5038 H 483.942 -1.93101 -0.264189 0
M  V30 5039 H 483.038 -2.68335 -1.59382 0
M  V30 5040 N 483.339 0.512053 -1.4905 0
M  V30 5041 C 484.588 1.26343 -1.57227 0
M  V30 5042 C 484.901 1.93876 -0.259155 0
M  V30 5043 O 486.107 2.70612 -0.219358 0
M  V30 5044 C 484.563 2.29343 -2.77362 0
M  V30 5045 C 484.171 1.67799 -4.15388 0
M  V30 5046 C 485.915 3.05378 -2.94864 0
M  V30 5047 C 483.822 2.68845 -5.2676 0
M  V30 5048 H 482.752 0.475231 -0.585382 0
M  V30 5049 H 485.403 0.53862 -1.75417 0
M  V30 5050 H 483.785 3.04938 -2.52643 0
M  V30 5051 H 484.959 0.982715 -4.50199 0
M  V30 5052 H 483.274 1.04194 -4.03153 0
M  V30 5053 H 485.871 3.80921 -3.75238 0
M  V30 5054 H 486.214 3.62327 -2.05 0
M  V30 5055 H 486.747 2.36898 -3.19569 0
M  V30 5056 H 483.486 2.16692 -6.18647 0
M  V30 5057 H 483.006 3.36647 -4.96416 0
M  V30 5058 H 484.685 3.31487 -5.5563 0
M  V30 5059 N 484.817 1.37938 0.762283 0
M  V30 5060 C 486.047 1.36685 1.54922 0
M  V30 5061 C 486.455 -0.0474099 1.89141 0
M  V30 5062 O 485.798 -1.02213 1.52638 0
M  V30 5063 C 485.86 2.14963 2.88152 0
M  V30 5064 C 485.524 3.6385 2.76518 0
M  V30 5065 C 486.521 4.57531 2.46904 0
M  V30 5066 C 484.206 4.07095 2.94243 0
M  V30 5067 C 486.2 5.92436 2.35156 0
M  V30 5068 C 483.887 5.42083 2.82116 0
M  V30 5069 C 484.885 6.34567 2.52614 0
M  V30 5070 O 484.573 7.67073 2.40529 0
M  V30 5071 H 484.305 0.469586 0.486276 0
M  V30 5072 H 486.859 1.82012 0.951876 0
M  V30 5073 H 485.089 1.6434 3.50042 0
M  V30 5074 H 486.778 2.06224 3.49609 0
M  V30 5075 H 487.544 4.25428 2.32886 0
M  V30 5076 H 483.423 3.35462 3.16206 0
M  V30 5077 H 486.967 6.64591 2.12049 0
M  V30 5078 H 482.864 5.73785 2.95704 0
M  V30 5079 H 483.632 7.77499 2.55807 0
M  V30 5080 N 486.295 -0.989507 1.22664 0
M  V30 5081 C 487.523 -1.76496 1.07967 0
M  V30 5082 C 487.938 -1.85148 -0.369543 0
M  V30 5083 O 487.295 -1.32408 -1.25596 0
M  V30 5084 C 487.346 -3.19642 1.68853 0
M  V30 5085 O 487.067 -3.11453 3.08105 0
M  V30 5086 C 488.568 -4.13621 1.59475 0
M  V30 5087 H 485.788 -0.55418 0.378319 0
M  V30 5088 H 488.332 -1.24378 1.62328 0
M  V30 5089 H 486.487 -3.68816 1.18547 0
M  V30 5090 H 486.901 -4.01499 3.37489 0
M  V30 5091 H 488.375 -5.11801 2.06795 0
M  V30 5092 H 488.852 -4.35718 0.55191 0
M  V30 5093 H 489.458 -3.70346 2.09103 0
M  V30 5094 N 487.773 -1.03688 -1.18687 0
M  V30 5095 C 488.72 -0.624624 -2.22187 0
M  V30 5096 C 489.69 0.365636 -1.62026 0
M  V30 5097 O 490.875 0.260481 -1.89014 0
M  V30 5098 C 488.015 0.0101738 -3.45099 0
M  V30 5099 C 487.128 -1.02709 -4.19613 0
M  V30 5100 C 486.263 -0.361213 -5.2997 0
M  V30 5101 C 485.302 -1.38384 -5.96252 0
M  V30 5102 N 484.439 -0.743196 -6.98155 0
M  V30 5103 H 489.279 -1.51176 -2.56807 0
M  V30 5104 H 486.816 -0.75636 -1.26165 0
M  V30 5105 H 488.774 0.395528 -4.15321 0
M  V30 5106 H 487.404 0.860848 -3.1111 0
M  V30 5107 H 486.456 -1.53043 -3.48256 0
M  V30 5108 H 487.768 -1.80398 -4.65036 0
M  V30 5109 H 486.922 0.0785537 -6.06649 0
M  V30 5110 H 485.661 0.447799 -4.8564 0
M  V30 5111 H 484.666 -1.83378 -5.18317 0
M  V30 5112 H 485.891 -2.19448 -6.42666 0
M  V30 5113 H 483.837 0.0455789 -6.55984 0
M  V30 5114 H 483.754 -1.45784 -7.41811 0
M  V30 5115 H 485.022 -0.327698 -7.78811 0
M  V30 5116 N 489.251 1.34841 -0.815825 0
M  V30 5117 C 490.497 1.98793 -0.401129 0
M  V30 5118 C 490.83 1.64548 1.03139 0
M  V30 5119 O 490.105 0.913487 1.71714 0
M  V30 5120 C 490.388 3.55143 -0.595409 0
M  V30 5121 C 490.241 3.99155 -2.07352 0
M  V30 5122 C 491.56 4.40092 -0.0268823 0
M  V30 5123 H 488.679 0.722146 -0.14722 0
M  V30 5124 H 491.321 1.59847 -1.02707 0
M  V30 5125 H 489.471 3.8845 -0.0625779 0
M  V30 5126 H 491.143 3.76216 -2.66945 0
M  V30 5127 H 489.386 3.49726 -2.56659 0
M  V30 5128 H 490.057 5.07971 -2.1603 0
M  V30 5129 H 492.533 4.13298 -0.482042 0
M  V30 5130 H 491.409 5.48562 -0.19267 0
M  V30 5131 H 491.67 4.29016 1.06759 0
M  V30 5132 N 490.729 0.570148 1.46925 0
M  V30 5133 C 491.957 0.0561966 2.06824 0
M  V30 5134 C 492.372 -1.24326 1.42086 0
M  V30 5135 O 491.729 -1.74882 0.521794 0
M  V30 5136 C 491.78 -0.129517 3.61268 0
M  V30 5137 O 491.501 1.1185 4.23581 0
M  V30 5138 C 493.002 -0.679266 4.38065 0
M  V30 5139 H 490.222 0.0517261 0.669003 0
M  V30 5140 H 492.766 0.787243 1.8874 0
M  V30 5141 H 490.921 -0.810739 3.78822 0
M  V30 5142 H 491.335 0.924375 5.1629 0
M  V30 5143 H 492.809 -0.758445 5.46765 0
M  V30 5144 H 493.286 -1.69346 4.05239 0
M  V30 5145 H 493.892 -0.0333237 4.25287 0
M  V30 5146 N 492.207 -1.54576 0.307264 0
M  V30 5147 C 493.17 -2.22423 -0.553224 0
M  V30 5148 C 494.17 -1.21231 -1.05639 0
M  V30 5149 O 495.36 -1.45923 -0.951419 0
M  V30 5150 C 492.492 -2.91552 -1.76664 0
M  V30 5151 H 493.685 -2.99874 0.0396484 0
M  V30 5152 H 491.238 -1.56192 0.0581629 0
M  V30 5153 H 491.973 -2.18196 -2.39918 0
M  V30 5154 H 491.758 -3.65738 -1.41343 0
M  V30 5155 H 493.248 -3.43292 -2.37783 0
M  V30 5156 N 493.685 -0.035106 -1.57561 0
M  V30 5157 C 494.932 0.642229 -1.92046 0
M  V30 5158 C 495.26 1.7179 -0.91206 0
M  V30 5159 O 494.515 1.95544 0.0781153 0
M  V30 5160 C 494.814 1.29149 -3.3325 0
M  V30 5161 C 494.48 0.345604 -4.49574 0
M  V30 5162 C 493.142 0.0852775 -4.81124 0
M  V30 5163 C 495.494 -0.303569 -5.20315 0
M  V30 5164 C 492.822 -0.831927 -5.80772 0
M  V30 5165 C 495.174 -1.20886 -6.20942 0
M  V30 5166 C 493.838 -1.47802 -6.50931 0
M  V30 5167 H 493.108 0.235008 -0.702746 0
M  V30 5168 H 495.755 -0.0981529 -1.91248 0
M  V30 5169 H 494.06 2.10676 -3.30337 0
M  V30 5170 H 495.757 1.82223 -3.57205 0
M  V30 5171 H 492.347 0.558683 -4.24943 0
M  V30 5172 H 496.531 -0.115515 -4.96166 0
M  V30 5173 H 491.787 -1.0481 -6.02349 0
M  V30 5174 H 495.961 -1.71804 -6.74875 0
M  V30 5175 H 493.588 -2.19039 -7.2796 0
M  V30 5176 N 495.163 1.55791 0.238111 0
M  V30 5177 C 496.093 1.94068 1.29846 0
M  V30 5178 C 497.074 0.806726 1.49753 0
M  V30 5179 O 498.259 1.06772 1.62214 0
M  V30 5180 C 495.389 2.24302 2.65153 0
M  V30 5181 C 494.343 3.40032 2.59927 0
M  V30 5182 C 493.669 3.55829 3.99111 0
M  V30 5183 C 494.969 4.75476 2.16148 0
M  V30 5184 H 496.663 2.82887 0.980563 0
M  V30 5185 H 494.209 1.36105 0.470253 0
M  V30 5186 H 496.162 2.4967 3.39475 0
M  V30 5187 H 494.886 1.32318 2.98596 0
M  V30 5188 H 493.545 3.14687 1.88063 0
M  V30 5189 H 493.193 2.6125 4.29834 0
M  V30 5190 H 492.893 4.3366 3.96501 0
M  V30 5191 H 494.417 3.83528 4.7512 0
M  V30 5192 H 495.831 5.00158 2.80205 0
M  V30 5193 H 494.228 5.56472 2.24631 0
M  V30 5194 H 495.298 4.71946 1.11333 0
M  V30 5195 N 496.642 -0.504142 1.49319 0
M  V30 5196 C 497.589 -1.60603 1.65756 0
M  V30 5197 C 498.559 -1.58425 0.499082 0
M  V30 5198 O 499.744 -1.76459 0.725728 0
M  V30 5199 C 496.884 -2.98764 1.72726 0
M  V30 5200 C 495.997 -3.10982 2.99857 0
M  V30 5201 C 495.132 -4.39857 2.97824 0
M  V30 5202 C 494.171 -4.45697 4.19548 0
M  V30 5203 N 493.308 -5.65995 4.15444 0
M  V30 5204 H 498.148 -1.45895 2.59843 0
M  V30 5205 H 495.685 -0.709891 1.28837 0
M  V30 5206 H 497.643 -3.78839 1.74747 0
M  V30 5207 H 496.273 -3.12183 0.821075 0
M  V30 5208 H 495.325 -2.23991 3.07461 0
M  V30 5209 H 496.637 -3.11157 3.89849 0
M  V30 5210 H 495.791 -5.2825 2.98391 0
M  V30 5211 H 494.53 -4.42242 2.05604 0
M  V30 5212 H 493.535 -3.55707 4.19229 0
M  V30 5213 H 494.76 -4.4503 5.12957 0
M  V30 5214 H 492.706 -5.69229 3.26059 0
M  V30 5215 H 492.623 -5.67773 4.99169 0
M  V30 5216 H 493.891 -6.56604 4.20109 0
M  V30 5217 N 498.12 -1.38341 -0.754957 0
M  V30 5218 C 499.366 -1.35678 -1.51536 0
M  V30 5219 C 499.721 0.0533985 -1.92326 0
M  V30 5220 O 499.014 1.01573 -1.6246 0
M  V30 5221 C 499.208 -2.2452 -2.78075 0
M  V30 5222 C 499.037 -3.74035 -2.49655 0
M  V30 5223 C 497.807 -4.43066 -2.42942 0
M  V30 5224 C 500.005 -4.665 -2.16523 0
M  V30 5225 N 497.987 -5.78026 -2.06783 0
M  V30 5226 C 499.358 -5.89962 -1.90644 0
M  V30 5227 C 501.413 -4.54718 -2.02821 0
M  V30 5228 C 500.116 -7.0296 -1.52444 0
M  V30 5229 C 502.142 -5.67618 -1.66023 0
M  V30 5230 C 501.504 -6.90141 -1.41015 0
M  V30 5231 H 497.603 -0.551764 -0.554148 0
M  V30 5232 H 500.187 -1.73716 -0.879258 0
M  V30 5233 H 498.358 -1.88673 -3.39496 0
M  V30 5234 H 500.09 -2.12993 -3.44116 0
M  V30 5235 H 496.845 -3.96264 -2.59367 0
M  V30 5236 H 497.269 -6.49394 -1.91353 0
M  V30 5237 H 501.911 -3.60546 -2.20831 0
M  V30 5238 H 499.629 -7.97051 -1.33174 0
M  V30 5239 H 503.215 -5.6048 -1.56055 0
M  V30 5240 H 502.095 -7.76021 -1.12965 0
M  V30 5241 N 499.598 0.982988 -1.23187 0
M  V30 5242 C 500.847 1.71817 -1.05649 0
M  V30 5243 C 501.16 1.91315 0.407176 0
M  V30 5244 O 502.366 2.62256 0.702436 0
M  V30 5245 C 500.822 3.09188 -1.84203 0
M  V30 5246 C 500.43 2.97586 -3.34882 0
M  V30 5247 C 502.174 3.86684 -1.75146 0
M  V30 5248 C 500.081 4.30173 -4.05839 0
M  V30 5249 H 499.011 0.644258 -0.391724 0
M  V30 5250 H 501.662 1.09659 -1.4713 0
M  V30 5251 H 500.044 3.72087 -1.35527 0
M  V30 5252 H 501.218 2.43793 -3.91026 0
M  V30 5253 H 499.533 2.33567 -3.44725 0
M  V30 5254 H 502.13 4.84836 -2.25473 0
M  V30 5255 H 502.473 4.10136 -0.713737 0
M  V30 5256 H 503.006 3.30482 -2.21419 0
M  V30 5257 H 499.745 4.11918 -5.09906 0
M  V30 5258 H 499.265 4.83841 -3.54482 0
M  V30 5259 H 500.944 4.98873 -4.11989 0
M  V30 5260 N 501.076 1.04316 1.18135 0
M  V30 5261 C 502.353 0.662166 1.84051 0
M  V30 5262 C 502.733 -0.858169 1.9287 0
M  V30 5263 O 502.081 -1.76062 1.45652 0
M  V30 5264 C 502.291 1.3409 3.22212 0
M  V30 5265 C 503.639 1.4733 3.9822 0
M  V30 5266 O 504.663 1.29921 3.31661 0
M  V30 5267 O 503.522 1.75722 5.17479 0
M  V30 5268 H 500.616 0.232005 0.79379 0
M  V30 5269 H 503.162 1.1422 1.25506 0
M  V30 5270 H 501.934 2.37853 3.10711 0
M  V30 5271 H 501.557 0.849649 3.88416 0
M  V30 5272 N 502.554 -1.34406 0.822964 0
M  V30 5273 C 503.97 -1.51275 0.508727 0
M  V30 5274 C 504.17 -1.76776 -0.967083 0
M  V30 5275 O 503.226 -1.81871 -1.75155 0
M  V30 5276 C 504.539 -2.67765 1.36829 0
M  V30 5277 C 506.087 -2.81647 1.36542 0
M  V30 5278 C 506.562 -4.01181 2.20947 0
M  V30 5279 N 508.053 -4.08388 2.18571 0
M  V30 5280 C 508.788 -5.00036 2.80627 0
M  V30 5281 N 508.284 -5.96906 3.51674 0
M  V30 5282 N 510.077 -4.92908 2.70181 0
M  V30 5283 H 502.228 -1.16113 1.77852 0
M  V30 5284 H 504.491 -0.56947 0.757897 0
M  V30 5285 H 504.197 -2.55551 2.41633 0
M  V30 5286 H 504.071 -3.62779 1.03303 0
M  V30 5287 H 506.458 -2.93303 0.325163 0
M  V30 5288 H 506.539 -1.87443 1.74066 0
M  V30 5289 H 506.183 -3.90286 3.25022 0
M  V30 5290 H 506.113 -4.94599 1.80774 0
M  V30 5291 H 508.604 -3.39051 1.66891 0
M  V30 5292 H 508.917 -6.63468 3.96271 0
M  V30 5293 H 507.262 -5.9703 3.5578 0
M  V30 5294 H 510.453 -4.1619 2.14251 0
M  V30 5295 H 510.626 -5.64137 3.18831 0
M  V30 5296 N 504.032 -0.577932 -1.46621 0
M  V30 5297 C 505.257 -0.0652536 -2.07297 0
M  V30 5298 C 505.682 1.22828 -1.4246 0
M  V30 5299 O 505.04 1.74075 -0.506718 0
M  V30 5300 C 505.088 0.0920589 -3.60482 0
M  V30 5301 O 504.192 1.14972 -3.96049 0
M  V30 5302 H 503.533 -0.06065 -0.661224 0
M  V30 5303 H 506.063 -0.799515 -1.88332 0
M  V30 5304 H 506.073 0.299741 -4.06897 0
M  V30 5305 H 504.748 -0.852612 -4.07067 0
M  V30 5306 H 503.325 0.920879 -3.61351 0
M  V30 5307 N 505.51 1.54411 -0.315457 0
M  V30 5308 C 506.443 2.20265 0.596522 0
M  V30 5309 C 507.421 1.17693 1.12192 0
M  V30 5310 O 508.605 1.46397 1.18744 0
M  V30 5311 C 505.732 2.85794 1.81767 0
M  V30 5312 C 504.778 4.02017 1.42424 0
M  V30 5313 S 505.611 5.33452 0.467836 0
M  V30 5314 C 506.767 6.02471 1.69645 0
M  V30 5315 H 507 2.97277 0.0370896 0
M  V30 5316 H 504.533 1.54079 -0.0995562 0
M  V30 5317 H 506.491 3.24172 2.51839 0
M  V30 5318 H 505.152 2.08601 2.34828 0
M  V30 5319 H 504.345 4.46701 2.33396 0
M  V30 5320 H 503.947 3.65271 0.803311 0
M  V30 5321 H 506.239 6.24157 2.63504 0
M  V30 5322 H 507.182 6.96215 1.29192 0
M  V30 5323 H 507.59 5.32284 1.87974 0
M  V30 5324 N 506.988 0.0434614 1.5754 0
M  V30 5325 C 507.935 -0.93356 2.11077 0
M  V30 5326 C 508.905 -1.31383 1.01626 0
M  V30 5327 O 510.09 -1.40465 1.29129 0
M  V30 5328 C 507.23 -2.20578 2.65404 0
M  V30 5329 C 506.343 -1.88068 3.88914 0
M  V30 5330 C 505.478 -3.09691 4.31584 0
M  V30 5331 C 504.517 -2.73067 5.47815 0
M  V30 5332 N 503.654 -3.87359 5.85574 0
M  V30 5333 H 508.494 -0.470118 2.94268 0
M  V30 5334 H 506.031 -0.220434 1.45439 0
M  V30 5335 H 507.989 -2.95011 2.94999 0
M  V30 5336 H 506.619 -2.64513 1.85021 0
M  V30 5337 H 505.671 -1.03816 3.6596 0
M  V30 5338 H 506.983 -1.57104 4.73413 0
M  V30 5339 H 506.137 -3.92431 4.62691 0
M  V30 5340 H 504.876 -3.43827 3.45882 0
M  V30 5341 H 503.881 -1.88742 5.16388 0
M  V30 5342 H 505.106 -2.40131 6.35227 0
M  V30 5343 H 503.052 -4.21311 5.02825 0
M  V30 5344 H 502.969 -3.60068 6.64746 0
M  V30 5345 H 504.237 -4.70761 6.21292 0
M  V30 5346 N 508.466 -1.55915 -0.229846 0
M  V30 5347 C 509.694 -1.82617 -0.972562 0
M  V30 5348 C 510.109 -0.621488 -1.78278 0
M  V30 5349 O 509.466 0.409956 -1.77836 0
M  V30 5350 C 509.517 -3.0774 -1.89679 0
M  V30 5351 O 509.238 -4.23559 -1.11934 0
M  V30 5352 C 510.739 -3.47368 -2.75409 0
M  V30 5353 H 507.959 -0.60727 -0.285419 0
M  V30 5354 H 510.503 -2.02996 -0.247579 0
M  V30 5355 H 508.658 -2.89361 -2.57583 0
M  V30 5356 H 509.072 -4.94586 -1.74599 0
M  V30 5357 H 510.546 -4.37977 -3.35977 0
M  V30 5358 H 511.023 -2.68737 -3.47386 0
M  V30 5359 H 511.629 -3.68158 -2.12931 0
M  V30 5360 N 509.944 0.496216 -1.49584 0
M  V30 5361 C 511.36 0.827814 -1.36453 0
M  V30 5362 C 511.56 1.97464 -0.401285 0
M  V30 5363 O 510.616 2.51958 0.165296 0
M  V30 5364 C 511.929 1.16352 -2.77277 0
M  V30 5365 C 513.477 1.27145 -2.86013 0
M  V30 5366 C 513.952 1.64042 -4.27615 0
M  V30 5367 N 515.443 1.71082 -4.30448 0
M  V30 5368 C 516.178 2.01085 -5.36984 0
M  V30 5369 N 515.674 2.2928 -6.5376 0
M  V30 5370 N 517.467 2.02376 -5.24405 0
M  V30 5371 H 509.618 -0.259947 -2.10803 0
M  V30 5372 H 511.881 -0.0537163 -0.946477 0
M  V30 5373 H 511.587 0.394153 -3.49484 0
M  V30 5374 H 511.461 2.10582 -3.12946 0
M  V30 5375 H 513.848 2.03152 -2.1404 0
M  V30 5376 H 513.929 0.309542 -2.5392 0
M  V30 5377 H 513.573 0.88583 -5.00115 0
M  V30 5378 H 513.503 2.6134 -4.57175 0
M  V30 5379 H 515.994 1.51434 -3.46232 0
M  V30 5380 H 516.307 2.51376 -7.30774 0
M  V30 5381 H 514.652 2.26726 -6.56978 0
M  V30 5382 H 517.843 1.79829 -4.32179 0
M  V30 5383 H 518.016 2.25425 -6.07526 0
M  V30 5384 N 511.423 1.38739 0.74761 0
M  V30 5385 C 512.671 1.35007 1.50391 0
M  V30 5386 C 512.992 -0.0574274 1.94915 0
M  V30 5387 O 512.262 -1.00628 1.6808 0
M  V30 5388 H 510.842 0.496784 0.557866 0
M  V30 5389 H 513.504 1.73479 0.888319 0
M  V30 5390 H 512.6 2.00474 2.392 0
M  V30 5391 N 512.901 -0.976442 1.23707 0
M  V30 5392 C 513.831 -2.08749 1.04624 0
M  V30 5393 C 514.812 -1.70057 -0.0380956 0
M  V30 5394 O 515.997 -1.93782 0.127308 0
M  V30 5395 C 513.127 -3.41335 0.640902 0
M  V30 5396 C 512.081 -3.93947 1.67302 0
M  V30 5397 C 511.407 -5.22774 1.12301 0
M  V30 5398 C 512.707 -4.22769 3.06697 0
M  V30 5399 H 514.401 -2.24972 1.97555 0
M  V30 5400 H 511.947 -1.08108 0.951247 0
M  V30 5401 H 513.9 -4.18489 0.494434 0
M  V30 5402 H 512.624 -3.24988 -0.324099 0
M  V30 5403 H 511.283 -3.18941 1.80755 0
M  V30 5404 H 510.931 -5.0278 0.148877 0
M  V30 5405 H 510.631 -5.58942 1.81267 0
M  V30 5406 H 512.155 -6.02546 0.988479 0
M  V30 5407 H 513.569 -4.90659 2.96524 0
M  V30 5408 H 511.966 -4.70147 3.72937 0
M  V30 5409 H 513.036 -3.29885 3.55392 0
M  V30 5410 N 514.379 -1.04941 -1.1758 0
M  V30 5411 C 515.79 -0.784501 -1.69418 0
M  V30 5412 C 516.141 0.693625 -1.8353 0
M  V30 5413 O 515.266 1.53925 -1.52106 0
M  V30 5414 C 515.861 -1.41746 -3.07723 0
M  V30 5415 C 514.42 -1.20066 -3.56737 0
M  V30 5416 C 513.567 -1.5026 -2.33061 0
M  V30 5417 H 516.518 -1.21469 -1.02133 0
M  V30 5418 H 516.539 -0.825381 -3.7144 0
M  V30 5419 H 516.051 -2.49325 -2.9742 0
M  V30 5420 H 514.152 -0.144006 -3.72322 0
M  V30 5421 H 514.265 -1.90384 -4.39648 0
M  V30 5422 H 512.629 -0.922598 -2.37403 0
M  V30 5423 H 513.412 -2.58967 -2.25368 0
M  V30 5424 N 515.857 1.33968 -0.830081 0
M  V30 5425 C 516.804 2.29387 -0.255008 0
M  V30 5426 C 517.774 1.53923 0.624243 0
M  V30 5427 O 518.959 1.82262 0.564372 0
M  V30 5428 C 516.099 3.4034 0.571209 0
M  V30 5429 C 515.212 4.30729 -0.331083 0
M  V30 5430 C 514.347 5.2879 0.505389 0
M  V30 5431 C 513.386 6.10819 -0.395843 0
M  V30 5432 N 512.523 7.00948 0.401979 0
M  V30 5433 H 517.363 2.77972 -1.07404 0
M  V30 5434 H 514.9 1.36785 -0.541133 0
M  V30 5435 H 516.858 4.03361 1.06562 0
M  V30 5436 H 515.488 2.9297 1.35529 0
M  V30 5437 H 514.54 3.68507 -0.943759 0
M  V30 5438 H 515.852 4.88181 -1.02377 0
M  V30 5439 H 515.006 5.97297 1.06399 0
M  V30 5440 H 513.745 4.71894 1.23155 0
M  V30 5441 H 512.75 5.41238 -0.966529 0
M  V30 5442 H 513.975 6.69797 -1.12023 0
M  V30 5443 H 511.921 6.46512 1.11168 0
M  V30 5444 H 511.838 7.55643 -0.232167 0
M  V30 5445 H 513.106 7.73774 0.943102 0
M  V30 5446 N 517.335 0.585699 1.46312 0
M  V30 5447 C 518.298 -0.135673 2.28798 0
M  V30 5448 C 519.298 -0.815988 1.38558 0
M  V30 5449 O 520.488 -0.667487 1.60904 0
M  V30 5450 C 517.62 -1.20163 3.1902 0
M  V30 5451 H 518.813 0.589257 2.94054 0
M  V30 5452 H 516.366 0.343794 1.52472 0
M  V30 5453 H 517.101 -1.95804 2.58517 0
M  V30 5454 H 516.886 -0.718282 3.85465 0
M  V30 5455 H 518.376 -1.70749 3.81096 0
M  V30 5456 N 518.813 -1.54241 0.323641 0
M  V30 5457 C 519.76 -2.24339 -0.542277 0
M  V30 5458 C 520.73 -1.23421 -1.11159 0
M  V30 5459 O 521.915 -1.52104 -1.15192 0
M  V30 5460 C 519.055 -3.00479 -1.69725 0
M  V30 5461 C 518.168 -4.16214 -1.15716 0
M  V30 5462 C 517.303 -4.79884 -2.27783 0
M  V30 5463 C 516.342 -5.87722 -1.71023 0
M  V30 5464 N 515.479 -6.45254 -2.76752 0
M  V30 5465 H 520.319 -2.97935 0.0620613 0
M  V30 5466 H 517.856 -1.47039 0.0423993 0
M  V30 5467 H 519.814 -3.42869 -2.3769 0
M  V30 5468 H 518.444 -2.29217 -2.27288 0
M  V30 5469 H 517.496 -3.78605 -0.369063 0
M  V30 5470 H 518.808 -4.93838 -0.701832 0
M  V30 5471 H 517.962 -5.25243 -3.03651 0
M  V30 5472 H 516.701 -4.01641 -2.76652 0
M  V30 5473 H 515.706 -5.41765 -0.936518 0
M  V30 5474 H 516.931 -6.67863 -1.2303 0
M  V30 5475 H 514.877 -5.69884 -3.24912 0
M  V30 5476 H 514.794 -7.18292 -2.35782 0
M  V30 5477 H 516.062 -6.95269 -3.5245 0
M  V30 5478 N 520.291 -0.0518155 -1.57515 0
M  V30 5479 C 521.516 0.634896 -1.97443 0
M  V30 5480 C 521.941 1.63546 -0.929207 0
M  V30 5481 O 521.299 1.80981 0.107484 0
M  V30 5482 C 521.347 1.29765 -3.36442 0
M  V30 5483 O 520.451 2.41333 -3.34413 0
M  V30 5484 H 519.792 0.164994 -0.643174 0
M  V30 5485 H 522.322 -0.120407 -2.04245 0
M  V30 5486 H 522.332 1.64918 -3.73184 0
M  V30 5487 H 521.007 0.564361 -4.12053 0
M  V30 5488 H 519.584 2.08122 -3.09418 0
M  V30 5489 N 521.769 1.56035 0.221574 0
M  V30 5490 C 522.719 1.8881 1.27807 0
M  V30 5491 C 523.703 0.751177 1.42289 0
M  V30 5492 O 524.895 1.01359 1.45104 0
M  V30 5493 C 522.024 2.20828 2.6285 0
M  V30 5494 C 521.11 3.40912 2.52269 0
M  V30 5495 N 521.501 4.59531 2.1134 0
M  V30 5496 C 519.799 3.44526 2.83228 0
M  V30 5497 C 520.5 5.41689 2.1201 0
M  V30 5498 N 519.476 4.814 2.52497 0
M  V30 5499 H 523.278 2.78036 0.952529 0
M  V30 5500 H 520.792 1.566 0.430134 0
M  V30 5501 H 522.789 2.42483 3.39127 0
M  V30 5502 H 521.449 1.32914 2.9625 0
M  V30 5503 H 522.46 4.8469 1.82472 0
M  V30 5504 H 519.137 2.66956 3.21 0
M  V30 5505 H 520.527 6.46643 1.82491 0
M  V30 5506 N 523.247 -0.488276 1.49845 0
M  V30 5507 C 524.21 -1.57069 1.66919 0
M  V30 5508 C 525.21 -1.51445 0.540479 0
M  V30 5509 O 526.4 -1.5437 0.807188 0
M  V30 5510 C 523.532 -2.96718 1.67844 0
M  V30 5511 H 524.725 -1.43254 2.63474 0
M  V30 5512 H 522.278 -0.713435 1.39068 0
M  V30 5513 H 523.013 -3.15996 0.7292 0
M  V30 5514 H 522.798 -3.02208 2.49826 0
M  V30 5515 H 524.288 -3.75335 1.83066 0
M  V30 5516 N 524.725 -1.39134 -0.740242 0
M  V30 5517 C 526.136 -1.32208 -1.31825 0
M  V30 5518 C 526.487 0.0159919 -1.96193 0
M  V30 5519 O 525.612 0.918111 -1.95958 0
M  V30 5520 C 526.207 -2.39436 -2.39699 0
M  V30 5521 C 524.766 -2.36048 -2.93187 0
M  V30 5522 C 523.913 -2.21599 -1.66701 0
M  V30 5523 H 526.864 -1.49298 -0.538133 0
M  V30 5524 H 526.885 -2.05922 -3.19963 0
M  V30 5525 H 526.397 -3.36811 -1.92821 0
M  V30 5526 H 524.498 -1.42295 -3.44359 0
M  V30 5527 H 524.611 -3.30704 -3.46658 0
M  V30 5528 H 522.975 -1.68681 -1.90837 0
M  V30 5529 H 523.758 -3.20936 -1.21882 0
M  V30 5530 N 526.204 0.969867 -1.24223 0
M  V30 5531 C 527.114 2.09806 -1.0497 0
M  V30 5532 C 528.13 1.73998 0.00886455 0
M  V30 5533 O 529.306 2.00513 -0.188848 0
M  V30 5534 C 526.371 3.40467 -0.654452 0
M  V30 5535 C 525.432 3.90236 -1.78926 0
M  V30 5536 C 524.665 5.14662 -1.41277 0
M  V30 5537 O 524.888 5.69602 -0.301632 0
M  V30 5538 O 523.822 5.58761 -2.23763 0
M  V30 5539 H 527.648 2.28942 -1.99548 0
M  V30 5540 H 525.233 1.08197 -1.03023 0
M  V30 5541 H 527.115 4.19039 -0.445452 0
M  V30 5542 H 525.79 3.22636 0.262216 0
M  V30 5543 H 524.697 3.12735 -2.05299 0
M  V30 5544 H 526.03 4.1254 -2.68462 0
M  V30 5545 N 527.682 1.05563 1.17022 0
M  V30 5546 C 528.928 0.769074 1.87652 0
M  V30 5547 C 529.261 -0.702326 1.81055 0
M  V30 5548 O 528.536 -1.5139 1.22112 0
M  V30 5549 C 528.819 1.25492 3.37526 0
M  V30 5550 C 528.672 2.78953 3.52853 0
M  V30 5551 C 529.991 0.856919 4.31677 0
M  V30 5552 H 527.11 0.280854 0.681388 0
M  V30 5553 H 529.752 1.31027 1.37593 0
M  V30 5554 H 527.902 0.794516 3.80289 0
M  V30 5555 H 529.574 3.33146 3.19079 0
M  V30 5556 H 527.817 3.18046 2.95007 0
M  V30 5557 H 528.488 3.08011 4.58076 0
M  V30 5558 H 530.964 1.25334 3.96775 0
M  V30 5559 H 529.84 1.22443 5.35069 0
M  V30 5560 H 530.101 -0.238787 4.41455 0
M  V30 5561 N 529.16 -1.33526 0.837174 0
M  V30 5562 C 530.409 -1.97098 0.428387 0
M  V30 5563 C 530.722 -1.67062 -1.01734 0
M  V30 5564 O 531.928 -2.24235 -1.53072 0
M  V30 5565 C 530.384 -3.52725 0.715075 0
M  V30 5566 C 529.992 -3.9164 2.17537 0
M  V30 5567 C 531.736 -4.22857 0.373154 0
M  V30 5568 C 529.643 -5.40237 2.40619 0
M  V30 5569 H 528.573 -0.737589 0.156455 0
M  V30 5570 H 531.224 -1.52169 1.02552 0
M  V30 5571 H 529.606 -3.95971 0.0475904 0
M  V30 5572 H 530.78 -3.59456 2.88319 0
M  V30 5573 H 529.095 -3.34485 2.4801 0
M  V30 5574 H 531.692 -5.32133 0.523264 0
M  V30 5575 H 532.035 -4.10647 -0.683708 0
M  V30 5576 H 532.568 -3.85135 0.995801 0
M  V30 5577 H 529.307 -5.57449 3.44864 0
M  V30 5578 H 528.827 -5.73887 1.74396 0
M  V30 5579 H 530.506 -6.07102 2.23688 0
M  V30 5580 N 530.638 -0.59345 -1.46 0
M  V30 5581 C 531.866 -0.0890934 -2.06708 0
M  V30 5582 C 532.281 1.2205 -1.44046 0
M  V30 5583 O 531.638 1.74029 -0.549551 0
M  V30 5584 C 531.689 0.0720263 -3.61428 0
M  V30 5585 O 531.41 -1.18574 -4.21748 0
M  V30 5586 C 532.911 0.609487 -4.3909 0
M  V30 5587 H 530.131 -0.0623628 -0.668096 0
M  V30 5588 H 532.675 -0.817171 -1.87464 0
M  V30 5589 H 530.83 0.750369 -3.80063 0
M  V30 5590 H 531.244 -1.0064 -5.14754 0
M  V30 5591 H 532.718 0.671363 -5.47902 0
M  V30 5592 H 533.195 1.62878 -4.07882 0
M  V30 5593 H 533.801 -0.03434 -4.25286 0
M  V30 5594 N 532.116 1.54067 -0.331816 0
M  V30 5595 C 533.341 2.05599 0.272705 0
M  V30 5596 C 533.766 1.2059 1.44359 0
M  V30 5597 O 533.124 0.216907 1.79998 0
M  V30 5598 C 533.172 3.54188 0.677021 0
M  V30 5599 O 532.276 3.72082 1.77844 0
M  V30 5600 H 531.617 0.662286 0.0476801 0
M  V30 5601 H 534.147 1.98826 -0.482624 0
M  V30 5602 H 534.157 3.96608 0.957415 0
M  V30 5603 H 532.832 4.15513 -0.179325 0
M  V30 5604 H 531.409 3.41566 1.49622 0
M  V30 5605 N 533.594 0.0601682 1.57485 0
M  V30 5606 C 534.819 -0.624416 1.97777 0
M  V30 5607 C 535.244 -1.63051 0.937867 0
M  V30 5608 O 534.602 -1.81036 -0.0978845 0
M  V30 5609 C 534.65 -1.27979 3.37126 0
M  V30 5610 O 533.754 -2.39556 3.35688 0
M  V30 5611 H 533.095 -0.161581 0.64404 0
M  V30 5612 H 535.625 0.131237 2.04179 0
M  V30 5613 H 535.635 -1.62937 3.74053 0
M  V30 5614 H 534.31 -0.542501 4.12347 0
M  V30 5615 H 532.887 -2.06478 3.10517 0
M  V30 5616 N 535.072 -1.5615 -0.213296 0
M  V30 5617 C 536.483 -1.69645 -0.779582 0
M  V30 5618 C 536.834 -0.663615 -1.84636 0
M  V30 5619 O 535.959 0.183633 -2.15619 0
M  V30 5620 C 536.554 -3.07567 -1.42084 0
M  V30 5621 C 535.113 -3.22889 -1.93442 0
M  V30 5622 C 534.26 -2.65581 -0.797612 0
M  V30 5623 H 537.211 -1.58696 0.0114951 0
M  V30 5624 H 537.232 -3.03884 -2.28986 0
M  V30 5625 H 536.744 -3.82716 -0.644187 0
M  V30 5626 H 534.845 -2.52623 -2.73884 0
M  V30 5627 H 534.958 -4.30197 -2.10872 0
M  V30 5628 H 533.322 -2.24278 -1.20712 0
M  V30 5629 H 534.105 -3.43284 -0.033494 0
M  V30 5630 N 536.55 0.480323 -1.50102 0
M  V30 5631 C 537.48 1.58769 -1.71215 0
M  V30 5632 C 538.461 1.60583 -0.560997 0
M  V30 5633 O 539.646 1.76996 -0.799127 0
M  V30 5634 C 536.776 2.97148 -1.79778 0
M  V30 5635 C 535.73 3.10201 -2.94888 0
M  V30 5636 C 535.056 4.50137 -2.88584 0
M  V30 5637 C 536.356 2.88283 -4.35534 0
M  V30 5638 H 538.05 1.41354 -2.6393 0
M  V30 5639 H 535.596 0.678591 -1.27008 0
M  V30 5640 H 537.549 3.74536 -1.93133 0
M  V30 5641 H 536.273 3.15699 -0.836772 0
M  V30 5642 H 534.932 2.35244 -2.81169 0
M  V30 5643 H 534.58 4.65593 -1.90349 0
M  V30 5644 H 534.28 4.59808 -3.65856 0
M  V30 5645 H 535.804 5.29558 -3.03976 0
M  V30 5646 H 537.218 3.55427 -4.49827 0
M  V30 5647 H 535.615 3.09408 -5.14186 0
M  V30 5648 H 536.685 1.84219 -4.48544 0
M  V30 5649 N 538.028 1.39524 0.732853 0
M  V30 5650 C 538.975 1.38416 1.84688 0
M  V30 5651 C 539.945 0.243539 1.64305 0
M  V30 5652 O 541.13 0.438979 1.85681 0
M  V30 5653 C 538.27 1.23555 3.22224 0
M  V30 5654 C 537.383 2.47179 3.54298 0
M  V30 5655 C 536.518 2.2489 4.81246 0
M  V30 5656 C 535.557 3.44178 5.0617 0
M  V30 5657 N 534.694 3.21192 6.24323 0
M  V30 5658 H 539.534 2.33645 1.84971 0
M  V30 5659 H 537.071 1.16059 0.903804 0
M  V30 5660 H 539.029 1.12949 4.0162 0
M  V30 5661 H 537.659 0.31954 3.21215 0
M  V30 5662 H 536.711 2.68379 2.69587 0
M  V30 5663 H 538.023 3.36022 3.68633 0
M  V30 5664 H 537.177 2.11538 5.68627 0
M  V30 5665 H 535.916 1.33443 4.69089 0
M  V30 5666 H 534.921 3.58025 4.17251 0
M  V30 5667 H 536.146 4.36528 5.20212 0
M  V30 5668 H 534.092 2.32413 6.1345 0
M  V30 5669 H 534.009 4.03594 6.39256 0
M  V30 5670 H 535.277 3.1154 7.14537 0
M  V30 5671 O 539.545 -0.874016 1.35806 0
M  V30 5672 H 540.236 -1.51229 1.21035 0
M  V30 END ATOM
M  V30 BEGIN BOND
M  V30 END BOND
M  V30 END CTAB
M  END
$$$$
